data_POSCAR
  _audit_creation_date              2014-09-24
  _audit_creation_method            'ToBaCCo'
  _symmetry_space_group_name_H-M    'P1'
  _symmetry_Int_Tables_number       1
  _symmetry_cell_setting            triclinic
  loop_
  _symmetry_equiv_pos_as_xyz
 x,y,z
_cell_length_a 23.9858
_cell_length_b 24.1883
_cell_length_c 38.8736
_cell_angle_alpha 90.726600
_cell_angle_beta 93.436600
_cell_angle_gamma 77.281900
loop_
  _atom_site_label
  _atom_site_type_symbol
  _atom_site_fract_x
  _atom_site_fract_y
  _atom_site_fract_z
C1 C -0.01479 0.38211 1.03015
 C2 C -0.01322 0.35453 0.99809
 C3 C -0.00119 0.37986 0.96817
 C4 C 0.00678 0.43600 0.96939
 C5 C 0.00124 0.46661 1.00083
 C6 C -0.00906 0.43956 1.03137
 C7 C -0.01591 0.47156 1.06185
 C8 C -0.00882 0.52697 1.06306
 C9 C 0.00065 0.55507 1.03320
 C10 C 0.00622 0.52436 1.00171
 C11 C 0.02024 0.46223 0.93998
 C12 C 0.02751 0.51760 0.94119
 C13 C 0.01792 0.55069 0.97121
 C14 C 0.02352 0.60811 0.97218
 C15 C 0.02122 0.63614 1.00410
 C16 C 0.00814 0.61180 1.03434
 H17 H -0.02720 0.45440 1.08533
 H18 H -0.01023 0.54699 1.08806
 H19 H 0.02588 0.44001 0.91567
 H20 H 0.04167 0.53373 0.91823
 H21 H -0.01654 0.31053 0.99663
 H22 H 0.02330 0.68050 1.00483
 C23 C 0.60676 0.01420 0.46632
 C24 C 0.64129 0.00888 0.49685
 C25 C 0.61867 0.00878 0.52935
 C26 C 0.55898 0.01135 0.53097
 C27 C 0.52325 0.01737 0.50006
 C28 C 0.54714 0.01941 0.46769
 C29 C 0.51084 0.02659 0.43756
 C30 C 0.45241 0.02973 0.43896
 C31 C 0.42802 0.02602 0.47057
 C32 C 0.46359 0.01999 0.50143
 C33 C 0.53469 0.00364 0.56218
 C34 C 0.47643 0.00585 0.56347
 C35 C 0.43986 0.01508 0.53355
 C36 C 0.38055 0.01706 0.53461
 C37 C 0.34632 0.02264 0.50390
 C38 C 0.36912 0.02700 0.47210
 H39 H 0.52730 0.02973 0.41251
 H40 H 0.42655 0.03458 0.41494
 H41 H 0.56066 -0.00606 0.58593
 H42 H 0.46063 -0.00104 0.58818
 H43 H 0.68668 0.00683 0.49508
 H44 H 0.30096 0.02369 0.50475
 C45 C 0.07633 0.03597 0.27369
 H46 H 0.07136 0.06279 0.25121
 C47 C 0.12410 0.03276 0.29669
 H48 H 0.15534 0.05742 0.29168
 C49 C 0.04338 -0.03065 0.30675
 H50 H 0.01218 -0.05571 0.31047
 C51 C 0.09026 -0.03507 0.33034
 H52 H 0.09376 -0.06275 0.35240
 N53 N 0.03692 0.00473 0.27920
 C54 C -0.06354 -0.07527 0.20541
 H55 H -0.10535 -0.04719 0.20607
 C56 C -0.05531 -0.12225 0.18349
 H57 H -0.09110 -0.12981 0.16721
 C58 C 0.03479 -0.09671 0.22393
 H59 H 0.07009 -0.08579 0.23908
 C60 C 0.04484 -0.14423 0.20260
 H61 H 0.08780 -0.17012 0.20211
 Zn62 Zn -0.02789 0.00724 0.24816
 N63 N -0.01841 -0.06259 0.22429
 C64 C -0.03711 0.05384 0.18136
 N65 N -0.03429 0.06680 0.21550
 C66 C -0.03530 0.12088 0.22613
 C67 C -0.04027 0.16443 0.20203
 C68 C -0.04269 0.09599 0.15652
 C69 C -0.10442 -0.02813 0.29032
 C70 C -0.14916 -0.02198 0.31243
 C71 C -0.17507 0.07773 0.29849
 C72 C -0.12981 0.06964 0.27663
 N73 N -0.09457 0.01761 0.27367
 H74 H -0.03498 0.01073 0.17314
 H75 H -0.03198 0.13016 0.25338
 H76 H -0.04147 0.20729 0.21086
 H77 H -0.04466 0.08462 0.12951
 H78 H -0.07660 -0.06935 0.28708
 H79 H -0.15455 -0.05852 0.32659
 H80 H -0.20191 0.11970 0.30105
 H81 H -0.12223 0.10538 0.26280
 C82 C -0.00015 -0.15654 0.18118
 C83 C 0.13152 -0.00320 0.32549
 C84 C -0.18441 0.03179 0.31735
 C85 C -0.04462 0.15215 0.16671
 C86 C -0.03285 0.09596 0.77249
 H87 H -0.06308 0.09276 0.75124
 C88 C -0.04217 0.14425 0.79335
 H89 H -0.07978 0.17771 0.78800
 C90 C 0.05342 0.05718 0.80489
 H91 H 0.09056 0.02304 0.80930
 C92 C 0.04590 0.10468 0.82627
 H93 H 0.07705 0.10610 0.84742
 N94 N 0.01385 0.05316 0.77899
 C95 C 0.12557 -0.07169 0.72063
 H96 H 0.11526 -0.10978 0.73022
 C97 C 0.16977 -0.07588 0.69828
 H98 H 0.19423 -0.11742 0.69168
 C99 C 0.10426 0.02849 0.71629
 H100 H 0.07720 0.06891 0.72256
 C101 C 0.14769 0.02624 0.69362
 H102 H 0.15347 0.06530 0.68257
 Zn103 Zn 0.02628 -0.01471 0.75287
 N104 N 0.09359 -0.02006 0.72890
 C105 C -0.02224 -0.02402 0.68613
 N106 N -0.03553 -0.01452 0.71954
 C107 C -0.09080 -0.00584 0.72856
 C108 C -0.13487 -0.00815 0.70365
 C109 C -0.06479 -0.02632 0.66051
 C110 C 0.08735 -0.09564 0.80082
 C111 C 0.09526 -0.13909 0.82514
 C112 C -0.00370 -0.14364 0.81419
 C113 C -0.00939 -0.10088 0.78960
 N114 N 0.03556 -0.07716 0.78367
 H115 H 0.02156 -0.03031 0.67913
 H116 H -0.10074 0.00264 0.75514
 H117 H -0.17833 -0.00247 0.71146
 H118 H -0.05294 -0.03347 0.63411
 H119 H 0.12269 -0.07647 0.79570
 H120 H 0.13714 -0.15336 0.83805
 H121 H -0.04096 -0.15986 0.81935
 H122 H -0.05027 -0.08597 0.77595
 C123 C 0.18041 -0.02655 0.68375
 C124 C -0.00278 0.14874 0.82091
 C125 C 0.04909 -0.16318 0.83261
 C126 C -0.12194 -0.01916 0.66910
 C127 C -0.04896 -0.34685 0.08276
 C128 C 0.00061 -0.35332 0.06402
 C129 C 0.04041 -0.31990 0.07333
 C130 C 0.03147 -0.28160 0.10082
 C131 C -0.01829 -0.27569 0.11943
 C132 C -0.05805 -0.30882 0.11033
 C133 C -0.02797 -0.23587 0.14628
 C134 C 0.01145 -0.20169 0.15461
 C135 C 0.06116 -0.20872 0.13609
 C136 C 0.07115 -0.24835 0.10956
 H137 H 0.07881 -0.32406 0.05922
 H138 H -0.09683 -0.30441 0.12403
 H139 H -0.06624 -0.23124 0.16049
 H140 H 0.10945 -0.25226 0.09546
 H141 H -0.08193 -0.36962 0.07526
 H142 H 0.09172 -0.18233 0.14142
 C143 C 0.01991 0.34891 0.08884
 C144 C -0.01839 0.34969 0.05976
 C145 C -0.05632 0.31261 0.05919
 C146 C -0.05588 0.27559 0.08669
 C147 C -0.01712 0.27522 0.11556
 C148 C 0.02013 0.31252 0.11654
 C149 C -0.01497 0.23624 0.14236
 C150 C -0.05047 0.19701 0.14029
 C151 C -0.08977 0.19876 0.11180
 C152 C -0.09265 0.23784 0.08532
 H153 H -0.08635 0.31252 0.03719
 H154 H 0.05066 0.31236 0.13826
 H155 H 0.01582 0.23487 0.16409
 H156 H -0.12283 0.23775 0.06344
 H157 H 0.05173 0.37455 0.08954
 H158 H -0.11804 0.16943 0.10990
 C159 C 0.35029 0.05484 0.59256
 C160 C 0.35222 0.01296 0.56706
 C161 C 0.32296 -0.03057 0.57111
 C162 C 0.29099 -0.03174 0.60000
 C163 C 0.28859 0.01092 0.62541
 C164 C 0.31909 0.05359 0.62169
 C165 C 0.25437 0.01114 0.65351
 C166 C 0.22163 -0.03015 0.65626
 C167 C 0.22546 -0.07297 0.63110
 C168 C 0.26001 -0.07393 0.60337
 H169 H 0.32408 -0.06269 0.55128
 H170 H 0.31764 0.08672 0.64084
 H171 H 0.25247 0.04402 0.67289
 H172 H 0.26127 -0.10683 0.58407
 H173 H 0.37202 0.08911 0.58952
 H174 H 0.20010 -0.10474 0.63210
 C175 C -0.35659 0.04607 0.58613
 C176 C -0.34335 0.00734 0.55884
 C177 C -0.28914 -0.03003 0.56005
 C178 C -0.24924 -0.02900 0.58773
 C179 C -0.26277 0.01051 0.61467
 C180 C -0.31677 0.04757 0.61375
 C181 C -0.22163 0.01302 0.64164
 C182 C -0.16712 -0.02363 0.64197
 C183 C -0.15511 -0.06395 0.61549
 C184 C -0.19563 -0.06648 0.58861
 H185 H -0.27818 -0.06059 0.53952
 H186 H -0.32784 0.07844 0.63405
 H187 H -0.23147 0.04454 0.66173
 H188 H -0.18481 -0.09747 0.56833
 H189 H -0.39693 0.07694 0.58542
 H190 H -0.11411 -0.09366 0.61549
 C191 C -0.00895 -0.36201 0.91249
 C192 C 0.02707 -0.35972 0.94231
 C193 C 0.06237 -0.32000 0.94313
 C194 C 0.06128 -0.28336 0.91532
 C195 C 0.02535 -0.28670 0.88563
 C196 C -0.00907 -0.32664 0.88432
 C197 C 0.02313 -0.24892 0.85819
 C198 C 0.05510 -0.20645 0.86040
 C199 C 0.09102 -0.20400 0.89013
 C200 C 0.09451 -0.24238 0.91712
 H201 H 0.09087 -0.31744 0.96555
 H202 H -0.03762 -0.32920 0.86196
 H203 H -0.00402 -0.25234 0.83533
 H204 H 0.12207 -0.23899 0.93982
 H205 H -0.03918 -0.38937 0.91143
 H206 H 0.11536 -0.17134 0.89312
 C207 C 0.06045 0.32572 0.92395
 C208 C 0.00601 0.34421 0.93678
 C209 C -0.04027 0.32341 0.92219
 C210 C -0.03205 0.28341 0.89548
 C211 C 0.02316 0.26410 0.88315
 C212 C 0.06891 0.28627 0.89715
 C213 C 0.03206 0.22163 0.85787
 C214 C -0.01336 0.19766 0.84495
 C215 C -0.06840 0.21845 0.85667
 C216 C -0.07768 0.26098 0.88167
 H217 H -0.08217 0.33716 0.93243
 H218 H 0.11152 0.27191 0.88805
 H219 H 0.07453 0.20652 0.84869
 H220 H -0.12026 0.27531 0.89082
 H221 H 0.09668 0.34072 0.93540
 H222 H -0.10398 0.20039 0.84740
 C223 C -0.36130 -0.03208 0.41075
 C224 C -0.36448 0.01373 0.43360
 C225 C -0.33510 0.05631 0.42713
 C226 C -0.30137 0.05245 0.39859
 C227 C -0.29714 0.00548 0.37611
 C228 C -0.32812 -0.03605 0.38207
 C229 C -0.26058 -0.00007 0.34877
 C230 C -0.22776 0.04047 0.34378
 C231 C -0.23374 0.08780 0.36576
 C232 C -0.27027 0.09380 0.39284
 H233 H -0.33722 0.09146 0.44496
 H234 H -0.32543 -0.07233 0.36512
 H235 H -0.25689 -0.03641 0.33177
 H236 H -0.27302 0.13004 0.40984
 H237 H -0.38324 -0.06555 0.41572
 H238 H -0.20850 0.11927 0.36281
 C239 C 0.30601 0.08245 0.42523
 C240 C 0.32990 0.03016 0.44106
 C241 C 0.31274 -0.01881 0.42921
 C242 C 0.27074 -0.01553 0.40219
 C243 C 0.24561 0.03747 0.38680
 C244 C 0.26418 0.08611 0.39818
 C245 C 0.20129 0.04113 0.36104
 C246 C 0.18150 -0.00748 0.35062
 C247 C 0.20823 -0.06015 0.36541
 C248 C 0.25236 -0.06414 0.39095
 H249 H 0.33109 -0.05909 0.44170
 H250 H 0.24550 0.12707 0.38669
 H251 H 0.18083 0.08207 0.35008
 H252 H 0.27150 -0.10513 0.40228
 H253 H 0.31879 0.12054 0.43442
 H254 H 0.19474 -0.09842 0.35735
   
