data_POSCAR
  _audit_creation_date              2014-09-24
  _audit_creation_method            'ToBaCCo'
  _symmetry_space_group_name_H-M    'P1'
  _symmetry_Int_Tables_number       1
  _symmetry_cell_setting            triclinic
  loop_
  _symmetry_equiv_pos_as_xyz
 x,y,z
_cell_length_a 22.0978
_cell_length_b 21.9312
_cell_length_c 22.1406
_cell_angle_alpha 89.886700
_cell_angle_beta 90.144900
_cell_angle_gamma 89.799100
loop_
  _atom_site_label
  _atom_site_type_symbol
  _atom_site_fract_x
  _atom_site_fract_y
  _atom_site_fract_z
N1 N 0.36755 0.36533 1.36525
 N2 N 1.13209 0.62773 0.88161
 N3 N 0.63296 -0.12961 0.14084
 N4 N -0.12588 1.12575 -0.36581
 N5 N 0.62931 0.61829 0.62529
 N6 N 0.88952 0.38706 0.12405
 N7 N 0.38070 0.12213 0.88488
 N8 N 0.13782 0.86640 0.37153
 Zn9 Zn 0.07239 0.96024 0.02396
 Zn10 Zn 0.02159 1.06950 -0.03454
 Zn11 Zn -0.04723 0.95237 -0.03929
 Zn12 Zn -0.03594 1.02272 0.07668
 O13 O 0.00242 1.00086 0.00673
 O14 O 0.13920 0.99485 -0.00713
 O15 O -0.01601 1.07362 -0.10512
 O16 O -0.01368 0.87942 -0.05587
 O17 O 0.09992 1.07649 -0.05081
 O18 O 0.07214 0.88431 -0.00410
 O19 O -0.06769 0.98736 -0.11046
 O20 O -0.10825 0.98728 0.08396
 O21 O -0.00030 1.13755 0.00285
 O22 O -0.11700 0.93492 -0.00123
 O23 O -0.05001 1.10337 0.08177
 O24 O 0.00597 1.00079 0.14325
 O25 O 0.08486 0.95378 0.10278
 C26 C 0.14501 1.04284 -0.03861
 C27 C -0.05258 1.03874 -0.13229
 C28 C 0.03523 0.85530 -0.03711
 C29 C -0.13734 0.95133 0.04987
 C30 C -0.03304 1.14737 0.04851
 C31 C 0.05572 0.97199 0.14861
 Zn32 Zn 0.48131 -0.07160 0.47023
 Zn33 Zn 0.54359 -0.02125 0.57786
 Zn34 Zn 0.54749 0.04744 0.46137
 Zn35 Zn 0.43250 0.03825 0.53269
 O36 O 0.50129 -0.00164 0.51022
 O37 O 0.50541 -0.13993 0.50880
 O38 O 0.61649 0.01132 0.57872
 O39 O 0.56321 0.01275 0.38950
 O40 O 0.55476 -0.10054 0.58605
 O41 O 0.51432 -0.07517 0.39665
 O42 O 0.62047 0.06447 0.49376
 O43 O 0.42779 0.11236 0.50057
 O44 O 0.50900 0.00356 0.64648
 O45 O 0.51123 0.11972 0.44601
 O46 O 0.42642 0.04938 0.61236
 O47 O 0.36502 0.00049 0.50876
 O48 O 0.40164 -0.07847 0.45885
 C49 C 0.53629 -0.14640 0.55685
 C50 C 0.64440 0.04622 0.54282
 C51 C 0.54752 -0.03832 0.36765
 C52 C 0.46182 0.14221 0.46532
 C53 C 0.46066 0.03326 0.65554
 C54 C 0.35712 -0.04633 0.47627
 Zn55 Zn 1.02827 0.42841 0.46912
 Zn56 Zn 1.07252 0.54259 0.52780
 Zn57 Zn 0.95679 0.54371 0.45679
 Zn58 Zn 0.96470 0.47857 0.57570
 O59 O 1.00552 0.49846 0.50716
 O60 O 1.10788 0.42469 0.45801
 O61 O 1.07287 0.61605 0.49318
 O62 O 0.94432 0.50755 0.38509
 O63 O 1.14203 0.50833 0.50261
 O64 O 0.99720 0.42242 0.39492
 O65 O 0.98869 0.61655 0.43851
 O66 O 0.89013 0.50966 0.57650
 O67 O 1.07902 0.55526 0.60741
 O68 O 0.88360 0.55836 0.48876
 O69 O 1.00088 0.50508 0.64329
 O70 O 0.95449 0.39859 0.58450
 O71 O 1.00511 0.36015 0.50720
 C72 C 1.15076 0.46031 0.47199
 C73 C 1.03739 0.64159 0.45578
 C74 C 0.96423 0.45777 0.36358
 C75 C 0.86085 0.54176 0.53872
 C76 C 1.04707 0.53803 0.65189
 C77 C 0.97275 0.35340 0.55393
 Zn78 Zn 0.46597 0.47914 0.93418
 Zn79 Zn 0.57445 0.54532 0.97897
 Zn80 Zn 0.45996 0.54653 1.05142
 Zn81 Zn 0.53347 0.43244 1.04004
 O82 O 0.50833 0.50113 1.00123
 O83 O 0.50154 0.50235 0.86573
 O84 O 0.57359 0.62025 1.01078
 O85 O 0.38810 0.56462 1.01728
 O86 O 0.58048 0.55439 0.89880
 O87 O 0.39248 0.51278 0.93153
 O88 O 0.49286 0.61896 1.07011
 O89 O 0.50213 0.42631 1.11291
 O90 O 0.64457 0.51208 1.00403
 O91 O 0.44337 0.50773 1.12141
 O92 O 0.61322 0.42953 1.05103
 O93 O 0.50981 0.36294 1.00400
 O94 O 0.45504 0.39892 0.92832
 C95 C 0.54788 0.53471 0.85581
 C96 C 0.53903 0.64584 1.04891
 C97 C 0.36506 0.54844 0.96724
 C98 C 0.46320 0.45713 1.14152
 C99 C 0.65570 0.46502 1.03550
 C100 C 0.47529 0.35434 0.95894
 C101 C 1.26844 0.42522 0.35376
 C102 C 1.31419 0.39599 0.38999
 C103 C 1.30727 0.39708 0.45340
 C104 C 1.25541 0.42060 0.48050
 C105 C 1.21050 0.44803 0.44555
 C106 C 1.21914 0.45522 0.38282
 C107 C 1.26793 0.42433 0.28983
 C108 C 1.22814 0.46077 0.25665
 C109 C 1.18423 0.49496 0.28590
 C110 C 1.17825 0.49076 0.34824
 H111 H 1.29588 0.39458 0.26380
 H112 H 1.22998 0.46073 0.20779
 H113 H 1.15265 0.52208 0.25984
 H114 H 1.14167 0.51590 0.36922
 H115 H 1.34146 0.37716 0.48252
 H116 H 1.24959 0.41584 0.52886
 C117 C 0.24043 0.65339 0.90697
 C118 C 0.19167 0.61124 0.90383
 C119 C 0.20175 0.55044 0.92079
 C120 C 0.25777 0.53128 0.94261
 C121 C 0.30551 0.57247 0.94878
 C122 C 0.29732 0.63407 0.93110
 C123 C 0.23528 0.71321 0.88386
 C124 C 0.28347 0.75396 0.88761
 C125 C 0.33816 0.73571 0.91318
 C126 C 0.34546 0.67622 0.93424
 H127 H 0.19514 0.72880 0.86092
 H128 H 0.27859 0.79974 0.86983
 H129 H 0.37550 0.76746 0.91562
 H130 H 0.38930 0.66350 0.95222
 H131 H 0.16540 0.51763 0.91727
 H132 H 0.26402 0.48377 0.95470
 C133 C -0.25886 0.84591 0.11393
 C134 C -0.30787 0.88784 0.11877
 C135 C -0.29862 0.94899 0.10288
 C136 C -0.24343 0.96849 0.07977
 C137 C -0.19574 0.92733 0.07125
 C138 C -0.20294 0.86551 0.08840
 C139 C -0.26280 0.78595 0.13673
 C140 C -0.21443 0.74534 0.13145
 C141 C -0.16085 0.76373 0.10422
 C142 C -0.15472 0.82336 0.08332
 H143 H -0.30203 0.77029 0.16080
 H144 H -0.21834 0.69951 0.14924
 H145 H -0.12342 0.73200 0.10038
 H146 H -0.11163 0.83623 0.06411
 H147 H -0.33509 0.98172 0.10779
 H148 H -0.23795 1.01615 0.06810
 C149 C 0.81437 0.08160 0.54864
 C150 C 0.81815 0.10342 0.60877
 C151 C 0.76569 0.10591 0.64404
 C152 C 0.71030 0.08812 0.62089
 C153 C 0.70487 0.06736 0.56144
 C154 C 0.75715 0.06360 0.52452
 C155 C 0.86658 0.07549 0.51268
 C156 C 0.86256 0.05310 0.45391
 C157 C 0.80682 0.03563 0.43027
 C158 C 0.75456 0.04030 0.46519
 H159 H 0.91093 0.08690 0.52988
 H160 H 0.90302 0.04865 0.42678
 H161 H 0.80416 0.01771 0.38482
 H162 H 0.71260 0.02479 0.44541
 H163 H 0.76726 0.12254 0.68992
 H164 H 0.67091 0.09088 0.64987
 C165 C 0.45588 0.30970 0.41268
 C166 C 0.39347 0.31367 0.39749
 C167 C 0.35539 0.26510 0.41262
 C168 C 0.37872 0.21083 0.43516
 C169 C 0.44102 0.20331 0.44500
 C170 C 0.48007 0.25391 0.43617
 C171 C 0.49412 0.36080 0.40788
 C172 C 0.55513 0.35681 0.42352
 C173 C 0.57895 0.30239 0.44563
 C174 C 0.54188 0.25156 0.45265
 H175 H 0.47698 0.40482 0.39440
 H176 H 0.58383 0.39653 0.41964
 H177 H 0.62613 0.29994 0.45872
 H178 H 0.56202 0.21148 0.47281
 H179 H 0.30736 0.26803 0.40310
 H180 H 0.34771 0.17349 0.44300
 C181 C 0.96628 0.18673 0.60566
 C182 C 0.90239 0.17937 0.60819
 C183 C 0.86513 0.22699 0.58730
 C184 C 0.88929 0.28261 0.57012
 C185 C 0.95172 0.29224 0.57113
 C186 C 0.99109 0.24404 0.58791
 C187 C 1.00614 0.13811 0.61865
 C188 C 1.06867 0.14654 0.61775
 C189 C 1.09272 0.20327 0.60325
 C190 C 1.05447 0.25169 0.58816
 H191 H 0.98970 0.09287 0.62776
 H192 H 1.09865 0.10876 0.62803
 H193 H 1.14129 0.20957 0.60295
 H194 H 1.07493 0.29490 0.57661
 H195 H 0.81638 0.22233 0.58753
 H196 H 0.85873 0.31888 0.55637
 C197 C 0.09245 0.69077 -0.03210
 C198 C 0.09957 0.68023 -0.09496
 C199 C 0.07612 0.72328 -0.13604
 C200 C 0.05233 0.77848 -0.11626
 C201 C 0.05088 0.79243 -0.05477
 C202 C 0.06852 0.74763 -0.01189
 C203 C 0.10650 0.64544 0.01106
 C204 C 0.09884 0.65637 0.07262
 C205 C 0.07631 0.71219 0.09232
 C206 C 0.06105 0.75745 0.05068
 H207 H 0.12133 0.60053 -0.00216
 H208 H 0.10954 0.62101 0.10516
 H209 H 0.06948 0.72010 0.14004
 H210 H 0.04183 0.79937 0.06791
 H211 H 0.07978 0.71574 -0.18420
 H212 H 0.03808 0.81196 -0.14948
 C213 C 0.59168 0.81184 1.05236
 C214 C 0.60077 0.81879 1.11549
 C215 C 0.57990 0.77294 1.15458
 C216 C 0.55743 0.71823 1.13217
 C217 C 0.55412 0.70789 1.06995
 C218 C 0.56829 0.75588 1.02946
 C219 C 0.60285 0.86006 1.01167
 C220 C 0.59183 0.85327 0.95002
 C221 C 0.56909 0.79867 0.92778
 C222 C 0.55746 0.75028 0.96685
 H223 H 0.61764 0.90416 1.02711
 H224 H 0.59988 0.89098 0.91948
 H225 H 0.55920 0.79411 0.88021
 H226 H 0.53806 0.70939 0.94775
 H227 H 0.58491 0.77789 1.20297
 H228 H 0.54546 0.68248 1.16376
 C229 C 0.39956 0.34563 1.25816
 C230 C 0.39521 0.38494 1.30921
 C231 C 0.41151 0.44641 1.30300
 C232 C 0.43330 0.46912 1.24852
 C233 C 0.43902 0.43125 1.19812
 C234 C 0.42102 0.36915 1.20212
 C235 C 0.37740 0.28526 1.25971
 C236 C 0.37910 0.24805 1.20888
 C237 C 0.40038 0.27074 1.15449
 C238 C 0.41997 0.33083 1.15059
 H239 H 0.35610 0.26640 1.29886
 H240 H 0.36206 0.20188 1.21131
 H241 H 0.40006 0.24221 1.11462
 H242 H 0.43199 0.34684 1.10614
 H243 H 0.40666 0.47714 1.34092
 H244 H 0.44599 0.51672 1.24575
 C245 C 0.55327 -0.07344 0.19882
 C246 C 0.61115 -0.10138 0.19560
 C247 C 0.64759 -0.10380 0.24748
 C248 C 0.62680 -0.08135 0.30245
 C249 C 0.56883 -0.05609 0.30726
 C250 C 0.53167 -0.05121 0.25529
 C251 C 0.51678 -0.06616 0.14697
 C252 C 0.45979 -0.03887 0.15085
 C253 C 0.43830 -0.01808 0.20620
 C254 C 0.47374 -0.02410 0.25811
 H255 H 0.53219 -0.08046 0.10299
 H256 H 0.43230 -0.03351 0.11064
 H257 H 0.39421 0.00337 0.20882
 H258 H 0.45575 -0.00676 0.30018
 H259 H 0.69191 -0.12491 0.24561
 H260 H 0.65558 -0.08524 0.34199
 C261 C -0.12004 1.14219 -0.25373
 C262 C -0.11013 1.10541 -0.30557
 C263 C -0.08969 1.04528 -0.29795
 C264 C -0.07306 1.02324 -0.24120
 C265 C -0.07835 1.06018 -0.19008
 C266 C -0.10466 1.11902 -0.19555
 C267 C -0.14777 1.20015 -0.25789
 C268 C -0.15986 1.23444 -0.20638
 C269 C -0.14569 1.21138 -0.14959
 C270 C -0.11850 1.15425 -0.14396
 H271 H -0.16279 1.21874 -0.30029
 H272 H -0.18163 1.27855 -0.21048
 H273 H -0.15659 1.23755 -0.10964
 H274 H -0.11023 1.13731 -0.09876
 H275 H -0.08477 1.01592 -0.33692
 H276 H -0.05424 0.97770 -0.23743
 C277 C 1.05067 0.57490 0.82339
 C278 C 1.11022 0.59808 0.82755
 C279 C 1.14718 0.59743 0.77655
 C280 C 1.12563 0.57662 0.72144
 C281 C 1.06552 0.55690 0.71424
 C282 C 1.02677 0.55661 0.76610
 C283 C 1.01446 0.56979 0.87551
 C284 C 0.95462 0.55071 0.87145
 C285 C 0.92961 0.53717 0.81547
 C286 C 0.96479 0.54039 0.76332
 H287 H 1.03226 0.57986 0.91988
 H288 H 0.92729 0.54724 0.91182
 H289 H 0.88253 0.52400 0.81238
 H290 H 0.94147 0.53119 0.72171
 H291 H 1.19288 0.61495 0.77907
 H292 H 1.15657 0.57716 0.68358
 C293 C 0.69181 0.53916 0.57308
 C294 C 0.68491 0.59860 0.59714
 C295 C 0.73430 0.63862 0.59661
 C296 C 0.79039 0.62001 0.57507
 C297 C 0.79902 0.56059 0.55418
 C298 C 0.74967 0.51961 0.55235
 C299 C 0.64235 0.49896 0.56862
 C300 C 0.65015 0.44011 0.54605
 C301 C 0.70702 0.42049 0.52708
 C302 C 0.75646 0.45979 0.52992
 H303 H 0.59726 0.51282 0.58170
 H304 H 0.61183 0.40964 0.54308
 H305 H 0.71273 0.37478 0.50959
 H306 H 0.79975 0.44319 0.51395
 H307 H 0.72982 0.68414 0.61495
 H308 H 0.82799 0.65156 0.57682
 C309 C 0.82482 0.47157 1.08258
 C310 C 0.83322 0.40952 1.09855
 C311 C 0.78535 0.36873 1.09103
 C312 C 0.72978 0.38811 1.06918
 C313 C 0.71866 0.44959 1.05503
 C314 C 0.76679 0.49255 1.06223
 C315 C 0.87336 0.51304 1.08619
 C316 C 0.86496 0.57441 1.07231
 C317 C 0.80810 0.59572 1.05547
 C318 C 0.75933 0.55576 1.05118
 H319 H 0.91836 0.49833 1.09898
 H320 H 0.90265 0.60570 1.07512
 H321 H 0.80164 0.64362 1.04551
 H322 H 0.71646 0.57613 1.03989
 H323 H 0.79074 0.32115 1.10308
 H324 H 0.69466 0.35414 1.06407
 C325 C 0.27054 1.10648 -0.13902
 C326 C 0.32021 1.10367 -0.09815
 C327 C 0.31083 1.08168 -0.03951
 C328 C 0.25436 1.06022 -0.02157
 C329 C 0.20522 1.06055 -0.06168
 C330 C 0.21350 1.08210 -0.12162
 C331 C 0.27552 1.13470 -0.19611
 C332 C 0.22768 1.13371 -0.23723
 C333 C 0.17372 1.10519 -0.22217
 C334 C 0.16639 1.07971 -0.16496
 H335 H 0.31538 1.15944 -0.20900
 H336 H 0.23253 1.15514 -0.28104
 H337 H 0.13703 1.10358 -0.25461
 H338 H 0.12374 1.05771 -0.15558
 H339 H 0.34810 1.08047 -0.00765
 H340 H 0.24869 1.04427 0.02442
 C341 C 0.19158 -0.04631 0.42126
 C342 C 0.18502 -0.10963 0.41030
 C343 C 0.23044 -0.14966 0.43011
 C344 C 0.28436 -0.12774 0.45363
 C345 C 0.29527 -0.06496 0.45798
 C346 C 0.24813 -0.02319 0.44232
 C347 C 0.14316 -0.00550 0.41112
 C348 C 0.15134 0.05718 0.41660
 C349 C 0.20777 0.08028 0.43210
 C350 C 0.25582 0.04081 0.44471
 H351 H 0.09842 -0.02175 0.39992
 H352 H 0.11387 0.08800 0.40819
 H353 H 0.21429 0.12910 0.43485
 H354 H 0.29853 0.06171 0.45543
 H355 H 0.22602 -0.19828 0.42303
 H356 H 0.31910 -0.16043 0.46618
 C357 C 0.59943 -0.27539 0.65488
 C358 C 0.60666 -0.32148 0.61056
 C359 C 0.58902 -0.30956 0.55093
 C360 C 0.56371 -0.25364 0.53483
 C361 C 0.55392 -0.20815 0.57819
 C362 C 0.56857 -0.22043 0.63967
 C363 C 0.62360 -0.28183 0.71361
 C364 C 0.61127 -0.23891 0.75824
 C365 C 0.57476 -0.18882 0.74523
 C366 C 0.55347 -0.17952 0.68665
 H367 H 0.65355 -0.31888 0.72527
 H368 H 0.62983 -0.24489 0.80314
 H369 H 0.56374 -0.15635 0.78031
 H370 H 0.52443 -0.14057 0.67916
 H371 H 0.59495 -0.34421 0.51665
 H372 H 0.55300 -0.24543 0.48773
 C373 C 1.10833 0.75804 0.35021
 C374 C 1.10877 0.80994 0.38859
 C375 C 1.08269 0.80583 0.44609
 C376 C 1.05756 0.75148 0.46651
 C377 C 1.05590 0.70013 0.42926
 C378 C 1.07985 0.70337 0.37005
 C379 C 1.13798 0.75804 0.29382
 C380 C 1.13582 0.70730 0.25611
 C381 C 1.10512 0.65517 0.27410
 C382 C 1.07834 0.65250 0.33096
 H383 H 1.16412 0.79631 0.27849
 H384 H 1.15837 0.70836 0.21277
 H385 H 1.10284 0.61634 0.24417
 H386 H 1.05661 0.61032 0.34385
 H387 H 1.08327 0.84491 0.47591
 H388 H 1.04011 0.74914 0.51215
 C389 C -0.07085 1.31984 0.04216
 C390 C -0.08874 1.32853 0.10287
 C391 C -0.08728 1.27927 0.14296
 C392 C -0.06881 1.22189 0.12402
 C393 C -0.05184 1.21093 0.06389
 C394 C -0.05382 1.26053 0.02160
 C395 C -0.06873 1.36970 0.00180
 C396 C -0.05335 1.36143 -0.05848
 C397 C -0.04007 1.30347 -0.07977
 C398 C -0.04056 1.25356 -0.04066
 H399 H -0.07815 1.41563 0.01650
 H400 H -0.05224 1.40011 -0.08893
 H401 H -0.02949 1.29701 -0.12706
 H402 H -0.03172 1.21024 -0.06133
 H403 H -0.10113 1.28534 0.18944
 H404 H -0.06791 1.18551 0.15719
 C405 C 0.46541 0.18087 0.93183
 C406 C 0.40492 0.17745 0.91071
 C407 C 0.36971 0.23051 0.90856
 C408 C 0.39386 0.28654 0.92457
 C409 C 0.45432 0.29203 0.94329
 C410 C 0.49095 0.23865 0.94708
 C411 C 0.50102 0.12776 0.93793
 C412 C 0.56129 0.13139 0.95619
 C413 C 0.58719 0.18782 0.96831
 C414 C 0.55269 0.24103 0.96365
 H415 H 0.48247 0.08308 0.92917
 H416 H 0.58819 0.09025 0.96048
 H417 H 0.63434 0.19039 0.98143
 H418 H 0.57546 0.28359 0.97228
 H419 H 0.32353 0.22889 0.89226
 H420 H 0.36477 0.32635 0.92189
 C421 C 0.54242 0.58450 0.68961
 C422 C 0.60534 0.58550 0.67701
 C423 C 0.64584 0.56215 0.72025
 C424 C 0.62585 0.54496 0.77724
 C425 C 0.56469 0.54987 0.79297
 C426 C 0.52200 0.56944 0.74879
 C427 C 0.49940 0.59868 0.64455
 C428 C 0.43808 0.60304 0.65844
 C429 C 0.41852 0.59322 0.71729
 C430 C 0.45981 0.57660 0.76218
 H431 H 0.51266 0.60544 0.59810
 H432 H 0.40566 0.61456 0.62347
 H433 H 0.37099 0.59797 0.72816
 H434 H 0.44217 0.57036 0.80717
 H435 H 0.69402 0.56158 0.71157
 H436 H 0.65890 0.52933 0.81009
 C437 C 0.41300 0.03263 0.82160
 C438 C 0.40901 0.09652 0.83149
 C439 C 0.42898 0.13633 0.78598
 C440 C 0.44556 0.11457 0.72957
 C441 C 0.44508 0.05216 0.71728
 C442 C 0.43034 0.01029 0.76367
 C443 C 0.40156 -0.00956 0.86827
 C444 C 0.40436 -0.07218 0.85753
 C445 C 0.41877 -0.09391 0.80029
 C446 C 0.43163 -0.05321 0.75361
 H447 H 0.39218 0.00526 0.91372
 H448 H 0.39548 -0.10401 0.89385
 H449 H 0.42054 -0.14255 0.79215
 H450 H 0.44267 -0.07184 0.70981
 H451 H 0.42766 0.18519 0.79272
 H452 H 0.45800 0.14695 0.69473
 C453 C 0.16282 0.91994 0.27367
 C454 C 0.11998 0.89728 0.31617
 C455 C 0.05805 0.90539 0.30457
 C456 C 0.03794 0.93364 0.25188
 C457 C 0.07911 0.95552 0.20916
 C458 C 0.14206 0.95204 0.22156
 C459 C 0.22562 0.90905 0.27984
 C460 C 0.26695 0.93461 0.23977
 C461 C 0.24678 0.97077 0.19217
 C462 C 0.18497 0.97925 0.18274
 H463 H 0.24374 0.87935 0.31415
 H464 H 0.31489 0.92619 0.24573
 H465 H 0.27910 0.99138 0.16172
 H466 H 0.17128 1.00781 0.14520
 H467 H 0.02490 0.88871 0.33647
 H468 H -0.01030 0.93592 0.24321
 C469 C 0.97374 0.40721 0.19767
 C470 C 0.91156 0.41063 0.18142
 C471 C 0.87005 0.43277 0.22411
 C472 C 0.88856 0.44908 0.28196
 C473 C 0.94863 0.44096 0.30062
 C474 C 0.99194 0.41879 0.25846
 C475 C 1.01849 0.39291 0.15451
 C476 C 1.07798 0.38159 0.17195
 C477 C 1.09467 0.38737 0.23210
 C478 C 1.05315 0.40855 0.27451
 H479 H 1.00825 0.39067 0.10693
 H480 H 1.11128 0.36833 0.13864
 H481 H 1.14050 0.37677 0.24571
 H482 H 1.07015 0.41631 0.31946
 H483 H 0.82238 0.43620 0.21328
 H484 H 0.85494 0.46597 0.31337
   
