data_POSCAR
  _audit_creation_date              2014-09-24
  _audit_creation_method            'ToBaCCo'
  _symmetry_space_group_name_H-M    'P1'
  _symmetry_Int_Tables_number       1
  _symmetry_cell_setting            triclinic
  loop_
  _symmetry_equiv_pos_as_xyz
 x,y,z
_cell_length_a 32.4095
_cell_length_b 32.7314
_cell_length_c 7.6714
_cell_angle_alpha 89.857000
_cell_angle_beta 90.173000
_cell_angle_gamma 90.070500
loop_
  _atom_site_label
  _atom_site_type_symbol
  _atom_site_fract_x
  _atom_site_fract_y
  _atom_site_fract_z
O1 O 0.22298 0.28632 0.02726
 O2 O 0.30000 0.20820 0.14831
 O3 O 0.22264 0.20678 0.04189
 O4 O 0.29955 0.28738 0.12391
 O5 O 0.27921 0.29249 0.39666
 O6 O 0.20613 0.20788 0.31921
 O7 O 0.28228 0.21284 0.42455
 O8 O 0.20263 0.28698 0.30088
 Cu9 Cu 0.26350 0.24651 0.05890
 Cu10 Cu 0.24059 0.25024 0.38628
 C11 C 0.19912 0.29970 0.14534
 C12 C 0.30507 0.19794 0.30662
 C13 C 0.20055 0.19375 0.16674
 C14 C 0.30167 0.30472 0.27117
 O15 O 0.80018 0.28724 0.30337
 O16 O 0.71907 0.21397 0.42424
 O17 O 0.79667 0.20842 0.32158
 O18 O 0.72398 0.29330 0.39829
 O19 O 0.70337 0.28786 0.12549
 O20 O 0.77854 0.20588 0.04534
 O21 O 0.70228 0.20832 0.14756
 O22 O 0.78007 0.28578 0.02913
 Cu23 Cu 0.76195 0.25071 0.38822
 Cu24 Cu 0.73894 0.24652 0.06099
 C25 C 0.80392 0.29946 0.14730
 C26 C 0.69635 0.19864 0.30591
 C27 C 0.80116 0.19351 0.17002
 C28 C 0.70153 0.30548 0.27229
 O29 O 0.72249 0.79597 0.61280
 O30 O 0.79705 0.71247 0.66027
 O31 O 0.71982 0.71674 0.56822
 O32 O 0.79895 0.79082 0.70567
 O33 O 0.78333 0.78117 0.98129
 O34 O 0.70099 0.71043 0.84258
 O35 O 0.77778 0.70303 0.93274
 O36 O 0.70562 0.78914 0.88926
 Cu37 Cu 0.76133 0.75483 0.61072
 Cu38 Cu 0.73981 0.74521 0.93797
 C39 C 0.70186 0.80746 0.74412
 C40 C 0.79990 0.69312 0.80318
 C41 C 0.69651 0.70105 0.68334
 C42 C 0.80569 0.79809 0.86570
 O43 O 0.30060 0.78821 0.90656
 O44 O 0.22561 0.70446 0.95827
 O45 O 0.30153 0.70840 0.86668
 O46 O 0.22245 0.78260 0.99890
 O47 O 0.20724 0.79171 0.72206
 O48 O 0.28305 0.71387 0.59099
 O49 O 0.20670 0.71337 0.68437
 O50 O 0.28398 0.79412 0.62922
 Cu51 Cu 0.26507 0.74556 0.95952
 Cu52 Cu 0.24369 0.75425 0.63051
 C53 C 0.30477 0.80587 0.76026
 C54 C 0.20350 0.69443 0.82807
 C55 C 0.30423 0.69665 0.70990
 C56 C 0.20045 0.79947 0.88150
 C57 C 1.02252 0.12141 0.13532
 C58 C 0.98024 0.12105 0.13671
 C59 C 0.96813 0.08050 0.12403
 N60 N 1.00180 0.05613 0.11855
 C61 C 1.03512 0.08107 0.12215
 C62 C 0.92646 0.06709 0.11791
 C63 C 0.91415 0.02558 0.10615
 C64 C 0.87403 0.01160 0.12840
 C65 C 0.87457 -0.02987 0.10069
 C66 C 0.91486 -0.04021 0.06003
 N67 N 0.93864 -0.00621 0.06257
 C68 C 0.92783 -0.07995 0.01284
 C69 C 0.96942 -0.09158 -0.01155
 C70 C 0.98194 -0.12939 -0.07297
 C71 C 1.02422 -0.12908 -0.07222
 C72 C 1.03621 -0.09108 -0.01050
 N73 N 1.00267 -0.06840 0.02787
 C74 C 1.07763 -0.07882 0.01524
 C75 C 1.09003 -0.03878 0.06119
 C76 C 1.13013 -0.02775 0.10337
 C77 C 1.13009 0.01378 0.12937
 C78 C 1.08982 0.02706 0.10462
 N79 N 1.06580 -0.00516 0.06102
 C80 C 1.07693 0.06835 0.11496
 H81 H 1.04174 0.14841 0.14305
 H82 H 0.96069 0.14774 0.14563
 H83 H 1.03587 -0.00353 0.01477
 H84 H 0.84692 0.02929 0.16013
 H85 H 0.84809 -0.05000 0.10713
 H86 H 0.96264 -0.15462 -0.11405
 H87 H 1.04387 -0.15402 -0.11260
 H88 H 1.15688 0.03197 0.16213
 H89 H 0.96862 -0.00411 0.01819
 H90 H 1.15685 -0.04747 0.11203
 C91 C 0.52199 0.62177 0.65120
 C92 C 0.47971 0.62118 0.65557
 C93 C 0.46746 0.58461 0.58070
 N94 N 0.50084 0.56294 0.53046
 C95 C 0.53423 0.58544 0.57463
 C96 C 0.42596 0.57266 0.55488
 C97 C 0.41370 0.53376 0.49283
 C98 C 0.37364 0.52368 0.44590
 C99 C 0.37368 0.48293 0.40408
 C100 C 0.41390 0.46908 0.42472
 N101 N 0.43788 0.50019 0.48173
 C102 C 0.42679 0.42826 0.39487
 C103 C 0.46848 0.41525 0.39388
 C104 C 0.48104 0.37524 0.36834
 C105 C 0.52335 0.37556 0.36804
 C106 C 0.53547 0.41577 0.39327
 N107 N 0.50183 0.43996 0.40728
 C108 C 0.57701 0.42944 0.39307
 C109 C 0.58937 0.47059 0.42079
 C110 C 0.62914 0.48527 0.39584
 C111 C 0.62856 0.52625 0.43420
 C112 C 0.58862 0.53560 0.48412
 N113 N 0.56512 0.50140 0.47792
 C114 C 0.57567 0.57471 0.54045
 H115 H 0.54148 0.64617 0.69931
 H116 H 0.46026 0.64502 0.70781
 H117 H 0.53541 0.49848 0.52503
 H118 H 0.34695 0.54352 0.44359
 H119 H 0.34690 0.46560 0.36348
 H120 H 0.46181 0.34857 0.34931
 H121 H 0.54286 0.34917 0.34862
 H122 H 0.65473 0.54676 0.42713
 H123 H 0.46779 0.49768 0.52770
 H124 H 0.65598 0.46840 0.35365
 C125 C -0.01954 0.37645 0.14302
 C126 C 0.02274 0.37652 0.14366
 C127 C 0.03495 0.41457 0.08285
 N128 N 0.00158 0.43757 0.04441
 C129 C -0.03178 0.41445 0.08167
 C130 C 0.07633 0.42628 0.05400
 C131 C 0.08920 0.46606 0.00649
 C132 C 0.12933 0.47628 -0.03815
 C133 C 0.12959 0.51740 -0.07299
 C134 C 0.08944 0.53126 -0.05145
 N135 N 0.06531 0.49989 0.00122
 C136 C 0.07663 0.57216 -0.07935
 C137 C 0.03505 0.58529 -0.08317
 C138 C 0.02270 0.62540 -0.10875
 C139 C -0.01956 0.62520 -0.11200
 C140 C -0.03182 0.58497 -0.08822
 N141 N 0.00166 0.56064 -0.07249
 C142 C -0.07333 0.57149 -0.09003
 C143 C -0.08612 0.53056 -0.06172
 C144 C -0.12618 0.51647 -0.08555
 C145 C -0.12598 0.47547 -0.04796
 C146 C -0.08597 0.46555 0.00025
 N147 N -0.06210 0.49944 -0.00548
 C148 C -0.07316 0.42597 0.05109
 H149 H -0.03904 0.35113 0.18145
 H150 H 0.04226 0.35128 0.18280
 H151 H -0.03219 0.50192 0.04021
 H152 H 0.15581 0.45624 -0.04475
 H153 H 0.15644 0.53486 -0.11132
 H154 H 0.04206 0.65206 -0.12592
 H155 H -0.03896 0.65170 -0.13196
 H156 H -0.15242 0.45530 -0.05522
 H157 H 0.03528 0.50214 0.04499
 H158 H -0.15294 0.53372 -0.12673
 C159 C 0.52219 1.12066 0.32879
 C160 C 0.47992 1.12035 0.33050
 C161 C 0.46815 1.08403 0.40951
 N162 N 0.50179 1.06228 0.45635
 C163 C 0.53487 1.08448 0.40641
 C164 C 0.42695 1.07312 0.44747
 C165 C 0.41463 1.03483 0.51563
 C166 C 0.37505 1.02584 0.57212
 C167 C 0.37520 0.98566 0.62421
 C168 C 0.41505 0.97121 0.60048
 N169 N 0.43860 1.00120 0.53093
 C170 C 0.42803 0.93082 0.63839
 C171 C 0.46966 0.91785 0.64030
 C172 C 0.48228 0.87803 0.67141
 C173 C 0.52452 0.87830 0.66904
 C174 C 0.53648 0.91829 0.63667
 N175 N 0.50288 0.94246 0.62128
 C176 C 0.57793 0.93178 0.63046
 C177 C 0.59030 0.97230 0.59142
 C178 C 0.63017 0.98715 0.61107
 C179 C 0.62963 1.02733 0.55901
 C180 C 0.58956 1.03592 0.50692
 N181 N 0.56599 1.00203 0.52458
 C182 C 0.57641 1.07409 0.44042
 H183 H 0.54137 1.14502 0.27807
 H184 H 0.46014 1.14441 0.28132
 H185 H 0.53620 0.99828 0.47860
 H186 H 0.34867 1.04607 0.57491
 H187 H 0.34884 0.96914 0.67435
 H188 H 0.46315 0.85150 0.69540
 H189 H 0.54411 0.85202 0.69073
 H190 H 0.65587 1.04781 0.55881
 H191 H 0.46805 0.99777 0.48148
 H192 H 0.65701 0.97089 0.65842
 C193 C 1.14796 0.15726 -0.01936
 C194 C 1.17008 0.16332 0.14067
 C195 C 1.16026 0.13823 0.28425
 C196 C 1.13077 0.10754 0.27252
 C197 C 1.10949 0.10060 0.11728
 C198 C 1.11786 0.12534 -0.03027
 C199 C 1.15226 0.18367 -0.16478
 C200 C 1.12878 0.17830 -0.31545
 C201 C 1.10073 0.14633 -0.32690
 C202 C 1.09557 0.11974 -0.18701
 H203 H 1.17239 0.20965 -0.16420
 H204 H 1.13227 0.19924 -0.42394
 H205 H 1.08248 0.14241 -0.44405
 H206 H 1.07323 0.09539 -0.20140
 H207 H 1.17636 0.14158 0.40738
 H208 H 1.12447 0.08884 0.38613
 C209 C 0.64094 0.67166 0.48050
 C210 C 0.66485 0.67015 0.63615
 C211 C 0.65893 0.63760 0.75311
 C212 C 0.63064 0.60672 0.71822
 C213 C 0.60757 0.60701 0.56416
 C214 C 0.61301 0.63913 0.44218
 C215 C 0.64280 0.70525 0.36487
 C216 C 0.62033 0.70527 0.20946
 C217 C 0.59487 0.67243 0.16790
 C218 C 0.59077 0.63981 0.28372
 H219 H 0.66074 0.73218 0.39423
 H220 H 0.62253 0.73104 0.12119
 H221 H 0.57765 0.67255 0.04677
 H222 H 0.57007 0.61520 0.24824
 H223 H 0.67659 0.63588 0.87309
 H224 H 0.62644 0.58245 0.81287
 C225 C -0.14157 0.33336 -0.04892
 C226 C -0.16446 0.33112 0.10905
 C227 C -0.15677 0.36003 0.24037
 C228 C -0.12752 0.39062 0.21858
 C229 C -0.10515 0.39364 0.06406
 C230 C -0.11233 0.36547 -0.07247
 C231 C -0.14573 0.30392 -0.18180
 C232 C -0.12368 0.30723 -0.33708
 C233 C -0.09648 0.33958 -0.36246
 C234 C -0.09053 0.36836 -0.23125
 H235 H -0.16526 0.27770 -0.16662
 H236 H -0.12759 0.28446 -0.43792
 H237 H -0.07954 0.34209 -0.48346
 H238 H -0.06868 0.39276 -0.25501
 H239 H -0.17365 0.35902 0.36205
 H240 H -0.12209 0.41204 0.32369
 C241 C 0.34415 0.86857 0.87219
 C242 C 0.33483 0.83968 0.73898
 C243 C 0.35526 0.84249 0.57845
 C244 C 0.38500 0.87223 0.54908
 C245 C 0.39584 0.89990 0.67976
 C246 C 0.37596 0.89799 0.84375
 C247 C 0.32196 0.87004 1.03052
 C248 C 0.33248 0.89799 1.16035
 C249 C 0.36503 0.92511 1.13563
 C250 C 0.38661 0.92528 0.97888
 H251 H 0.29565 0.85066 1.05505
 H252 H 0.31520 0.89864 1.28085
 H253 H 0.37322 0.94649 1.23750
 H254 H 0.41133 0.94726 0.96364
 H255 H 0.34853 0.82106 0.47474
 H256 H 0.40023 0.87337 0.42359
 C257 C -0.15929 0.63261 -0.31523
 C258 C -0.16951 0.65994 -0.17792
 C259 C -0.14848 0.65710 -0.01838
 C260 C -0.11731 0.62860 0.00631
 C261 C -0.10585 0.60226 -0.12797
 C262 C -0.12625 0.60444 -0.29135
 C263 C -0.18176 0.63152 -0.47351
 C264 C -0.17055 0.60497 -0.60719
 C265 C -0.13697 0.57896 -0.58647
 C266 C -0.11493 0.57857 -0.43027
 H267 H -0.20878 0.65016 -0.49490
 H268 H -0.18806 0.60455 -0.72762
 H269 H -0.12823 0.55867 -0.69133
 H270 H -0.08929 0.55758 -0.41847
 H271 H -0.15575 0.67762 0.08785
 H272 H -0.10163 0.62728 0.13108
 C273 C 0.36132 1.16925 0.50623
 C274 C 0.33716 1.16746 0.35123
 C275 C 0.34320 1.13514 0.23419
 C276 C 0.37176 1.10454 0.26904
 C277 C 0.39490 1.10502 0.42286
 C278 C 0.38943 1.13700 0.54458
 C279 C 0.35949 1.20286 0.62123
 C280 C 0.38217 1.20308 0.77607
 C281 C 0.40781 1.17041 0.81781
 C282 C 0.41188 1.13782 0.70263
 H283 H 0.34148 1.22972 0.59176
 H284 H 0.38001 1.22886 0.86367
 H285 H 0.42519 1.17066 0.93854
 H286 H 0.43274 1.11337 0.73828
 H287 H 0.32538 1.13337 0.11468
 H288 H 0.37606 1.08031 0.17483
 C289 C 1.14756 -0.17193 0.08659
 C290 C 1.16904 -0.17233 -0.07602
 C291 C 1.15855 -0.14279 -0.20258
 C292 C 1.12979 -0.11245 -0.16882
 C293 C 1.11022 -0.11029 -0.00751
 C294 C 1.11917 -0.13971 0.12259
 C295 C 1.15070 -0.20421 0.20882
 C296 C 1.13024 -0.20254 0.36842
 C297 C 1.10521 -0.16941 0.40809
 C298 C 1.09925 -0.13843 0.28593
 H299 H 1.16725 -0.23194 0.18050
 H300 H 1.13345 -0.22737 0.46095
 H301 H 1.08945 -0.16826 0.53223
 H302 H 1.07852 -0.11379 0.31953
 H303 H 1.17349 -0.14231 -0.32881
 H304 H 1.12254 -0.09044 -0.27014
 C305 C 0.66215 0.36828 0.16340
 C306 C 0.67210 0.33969 0.29756
 C307 C 0.65183 0.34240 0.45838
 C308 C 0.62137 0.37159 0.48635
 C309 C 0.60975 0.39878 0.35410
 C310 C 0.62967 0.39695 0.19011
 C311 C 0.68437 0.37002 0.00507
 C312 C 0.67320 0.39736 -0.12656
 C313 C 0.63992 0.42357 -0.10383
 C314 C 0.61829 0.42352 0.05283
 H315 H 0.71121 0.35132 -0.01786
 H316 H 0.69049 0.39821 -0.24706
 H317 H 0.63115 0.44442 -0.20730
 H318 H 0.59294 0.44476 0.06617
 H319 H 0.65899 0.32113 0.56261
 H320 H 0.60613 0.37259 0.61174
 C321 C 0.85849 -0.17402 0.07445
 C322 C 0.83728 -0.17401 -0.08924
 C323 C 0.84795 -0.14408 -0.21371
 C324 C 0.87646 -0.11363 -0.17648
 C325 C 0.89564 -0.11177 -0.01377
 C326 C 0.88670 -0.14175 0.11390
 C327 C 0.85522 -0.20671 0.19456
 C328 C 0.87547 -0.20548 0.35522
 C329 C 0.90040 -0.17238 0.39809
 C330 C 0.90641 -0.14093 0.27824
 H331 H 0.83864 -0.23435 0.16381
 H332 H 0.87219 -0.23062 0.44613
 H333 H 0.91600 -0.17158 0.52303
 H334 H 0.92702 -0.11630 0.31438
 H335 H 0.83322 -0.14328 -0.34072
 H336 H 0.88376 -0.09124 -0.27607
 C337 C 0.34135 0.36742 0.16360
 C338 C 0.33141 0.33872 0.29725
 C339 C 0.35196 0.34110 0.45805
 C340 C 0.38269 0.37009 0.48659
 C341 C 0.39430 0.39735 0.35476
 C342 C 0.37406 0.39589 0.19090
 C343 C 0.31888 0.36951 0.00538
 C344 C 0.32999 0.39703 -0.12553
 C345 C 0.36338 0.42319 -0.10195
 C346 C 0.38525 0.42280 0.05462
 H347 H 0.29188 0.35096 -0.01794
 H348 H 0.31253 0.39810 -0.24600
 H349 H 0.37202 0.44427 -0.20460
 H350 H 0.41066 0.44404 0.06864
 H351 H 0.34476 0.31976 0.56184
 H352 H 0.39799 0.37101 0.61226
 C353 C 0.16349 0.63374 -0.29368
 C354 C 0.17299 0.66109 -0.15510
 C355 C 0.15138 0.65799 0.00232
 C356 C 0.12016 0.62931 0.02330
 C357 C 0.10918 0.60318 -0.11302
 C358 C 0.13023 0.60564 -0.27427
 C359 C 0.18691 0.63258 -0.44897
 C360 C 0.17618 0.60632 -0.58474
 C361 C 0.14222 0.58055 -0.56890
 C362 C 0.11940 0.58007 -0.41528
 H363 H 0.21432 0.65090 -0.46628
 H364 H 0.19437 0.60591 -0.70288
 H365 H 0.13385 0.56049 -0.67537
 H366 H 0.09354 0.55920 -0.40714
 H367 H 0.15823 0.67845 0.10949
 H368 H 0.10406 0.62768 0.14665
 C369 C 0.64422 1.16866 0.51029
 C370 C 0.66524 1.17001 0.34682
 C371 C 0.65495 1.14082 0.21916
 C372 C 0.62698 1.10965 0.25317
 C373 C 0.60790 1.10657 0.41535
 C374 C 0.61636 1.13591 0.54584
 C375 C 0.64732 1.20053 0.63391
 C376 C 0.62693 1.19820 0.79355
 C377 C 0.60206 1.16478 0.83205
 C378 C 0.59643 1.13402 0.70921
 H379 H 0.66375 1.22845 0.60638
 H380 H 0.63000 1.22277 0.88697
 H381 H 0.58625 1.16317 0.95599
 H382 H 0.57587 1.10911 0.74231
 H383 H 0.66970 1.14114 0.09255
 H384 H 0.62001 1.08770 0.15165
 C385 C 0.14468 0.33417 -0.05027
 C386 C 0.16769 0.33154 0.10785
 C387 C 0.16016 0.36009 0.24049
 C388 C 0.13086 0.39062 0.22010
 C389 C 0.10830 0.39397 0.06565
 C390 C 0.11540 0.36625 -0.07241
 C391 C 0.14877 0.30513 -0.18467
 C392 C 0.12660 0.30884 -0.34003
 C393 C 0.09937 0.34117 -0.36401
 C394 C 0.09350 0.36956 -0.23135
 H395 H 0.16834 0.27895 -0.17064
 H396 H 0.13047 0.28638 -0.44208
 H397 H 0.08234 0.34399 -0.48510
 H398 H 0.07163 0.39397 -0.25414
 H399 H 0.17716 0.35879 0.36226
 H400 H 0.12552 0.41174 0.32624
 C401 C 0.66303 0.86992 0.85869
 C402 C 0.67212 0.84147 0.72400
 C403 C 0.65134 0.84456 0.56386
 C404 C 0.62134 0.87411 0.53655
 C405 C 0.61068 0.90130 0.66889
 C406 C 0.63109 0.89924 0.83218
 C407 C 0.68553 0.87098 1.01683
 C408 C 0.67525 0.89850 1.14824
 C409 C 0.64267 0.92564 1.12514
 C410 C 0.62076 0.92618 0.96863
 H411 H 0.71188 0.85155 1.03988
 H412 H 0.69274 0.89884 1.26869
 H413 H 0.63468 0.94672 1.22818
 H414 H 0.59602 0.94814 0.95468
 H415 H 0.65783 0.82337 0.45914
 H416 H 0.60571 0.87541 0.41161
 C417 C 0.85576 0.15625 -0.01449
 C418 C 0.83278 0.16112 0.14264
 C419 C 0.84106 0.13489 0.28369
 C420 C 0.87108 0.10468 0.27320
 C421 C 0.89348 0.09889 0.11999
 C422 C 0.88563 0.12432 -0.02626
 C423 C 0.85118 0.18297 -0.15840
 C424 C 0.87422 0.17778 -0.30986
 C425 C 0.90220 0.14583 -0.32260
 C426 C 0.90775 0.11911 -0.18310
 H427 H 0.83060 0.20858 -0.15650
 H428 H 0.87030 0.19872 -0.41813
 H429 H 0.91995 0.14191 -0.44066
 H430 H 0.92991 0.09470 -0.19856
 H431 H 0.82415 0.13785 0.40461
 H432 H 0.87695 0.08552 0.38595
 C433 C 0.33604 0.62747 0.77856
 C434 C 0.33227 0.66236 0.66822
 C435 C 0.35719 0.66547 0.51987
 C436 C 0.38701 0.63602 0.48447
 C437 C 0.39300 0.60275 0.59693
 C438 C 0.36742 0.59811 0.74502
 C439 C 0.30877 0.62043 0.91928
 C440 C 0.31378 0.58673 1.02890
 C441 C 0.34561 0.55914 1.00014
 C442 C 0.37228 0.56466 0.86005
 H443 H 0.28274 0.64009 0.94417
 H444 H 0.29270 0.58189 1.13623
 H445 H 0.34930 0.53297 1.08508
 H446 H 0.39642 0.54228 0.84210
 H447 H 0.35435 0.69151 0.43321
 H448 H 0.40612 0.63950 0.36972
   
