data_POSCAR
  _audit_creation_date              2014-09-24
  _audit_creation_method            'ToBaCCo'
  _symmetry_space_group_name_H-M    'P1'
  _symmetry_Int_Tables_number       1
  _symmetry_cell_setting            triclinic
  loop_
  _symmetry_equiv_pos_as_xyz
 x,y,z
_cell_length_a 26.7717
_cell_length_b 26.9606
_cell_length_c 9.0424
_cell_angle_alpha 90.058200
_cell_angle_beta 89.930700
_cell_angle_gamma 120.034500
loop_
  _atom_site_label
  _atom_site_type_symbol
  _atom_site_fract_x
  _atom_site_fract_y
  _atom_site_fract_z
C1 C 0.15126 0.39722 0.50067
 C2 C 0.17236 0.42852 0.36808
 C3 C 0.22853 0.47642 0.37038
 C4 C 0.25981 0.49545 0.50563
 C5 C 0.22815 0.47293 0.63888
 C6 C 0.17283 0.42435 0.63762
 C7 C 0.32374 0.53872 0.50943
 C8 C 0.35442 0.55288 0.64556
 C9 C 0.41441 0.58697 0.64985
 C10 C 0.44462 0.61025 0.51878
 C11 C 0.41735 0.59143 0.38203
 C12 C 0.35697 0.55739 0.37722
 H13 H 0.11060 0.35734 0.49874
 H14 H 0.24605 0.49965 0.26864
 H15 H 0.24461 0.49395 0.74355
 H16 H 0.33388 0.53277 0.74826
 H17 H 0.49141 0.63201 0.52206
 H18 H 0.33781 0.54051 0.27075
 C19 C 0.60447 -0.24613 0.50619
 C20 C 0.57551 -0.25498 0.37149
 C21 C 0.52741 -0.24723 0.36910
 C22 C 0.50635 -0.23582 0.50199
 C23 C 0.52571 -0.24728 0.63745
 C24 C 0.57337 -0.25595 0.63862
 C25 C 0.46427 -0.21390 0.49785
 C26 C 0.44583 -0.19899 0.63001
 C27 C 0.41275 -0.17184 0.62521
 C28 C 0.39519 -0.16243 0.48698
 C29 C 0.41799 -0.17040 0.35518
 C30 C 0.45123 -0.19695 0.36115
 H31 H 0.64487 -0.24623 0.50734
 H32 H 0.50527 -0.25319 0.26532
 H33 H 0.50292 -0.25225 0.73983
 H34 H 0.46181 -0.20224 0.73686
 H35 H 0.37330 -0.13782 0.48341
 H36 H 0.47144 -0.19811 0.25907
 C37 C 1.24429 0.84954 0.50699
 C38 C 1.25564 0.82956 0.37442
 C39 C 1.24863 0.77435 0.37513
 C40 C 1.23323 0.74113 0.50705
 C41 C 1.23853 0.77020 0.64272
 C42 C 1.24654 0.82581 0.64321
 C43 C 1.21264 0.67769 0.50104
 C44 C 1.19890 0.64388 0.63182
 C45 C 1.17154 0.58381 0.62530
 C46 C 1.16169 0.55781 0.48508
 C47 C 1.17038 0.58911 0.35413
 C48 C 1.19604 0.64855 0.36316
 H49 H 1.24589 0.89037 0.50718
 H50 H 1.25767 0.75878 0.27433
 H51 H 1.23872 0.75164 0.74801
 H52 H 1.20354 0.66255 0.73993
 H53 H 1.13708 0.51145 0.47923
 H54 H 1.19663 0.67036 0.26265
 C55 C 0.83343 0.38954 0.48341
 C56 C 0.82675 0.41287 0.35246
 C57 C 0.80150 0.44727 0.35729
 C58 C 0.78564 0.46193 0.49369
 C59 C 0.79985 0.44308 0.62560
 C60 C 0.82545 0.40861 0.62032
 C61 C 0.76608 0.50577 0.49786
 C62 C 0.75349 0.52461 0.63302
 C63 C 0.74525 0.57237 0.63522
 C64 C 0.75555 0.60358 0.50270
 C65 C 0.75205 0.57742 0.36604
 C66 C 0.75822 0.52893 0.36469
 H67 H 0.85804 0.36753 0.47975
 H68 H 0.80122 0.46719 0.25442
 H69 H 0.79803 0.46023 0.73205
 H70 H 0.74740 0.50128 0.73465
 H71 H 0.75383 0.64278 0.50329
 H72 H 0.75384 0.50845 0.25940
 C73 C 0.60448 0.44280 0.52457
 C74 C 0.58702 0.41568 0.38636
 C75 C 0.55389 0.35573 0.38222
 C76 C 0.53503 0.32274 0.51451
 C77 C 0.54808 0.35282 0.65103
 C78 C 0.58218 0.41251 0.65765
 C79 C 0.49265 0.25905 0.51021
 C80 C 0.47159 0.22634 0.64257
 C81 C 0.42374 0.17045 0.63906
 C82 C 0.39475 0.15081 0.50440
 C83 C 0.42515 0.17314 0.37218
 C84 C 0.47305 0.22874 0.37438
 H85 H 0.62665 0.48920 0.52691
 H86 H 0.53815 0.33655 0.27528
 H87 H 0.52754 0.33140 0.75273
 H88 H 0.49363 0.24233 0.74656
 H89 H 0.35487 0.11010 0.50175
 H90 H 0.49573 0.24620 0.27187
 C91 C 0.55470 0.16545 0.48827
 C92 C 0.58517 0.17219 0.35757
 C93 C 0.64513 0.19755 0.36292
 C94 C 0.67552 0.21440 0.49936
 C95 C 0.64217 0.20020 0.63116
 C96 C 0.58175 0.17367 0.62534
 C97 C 0.73946 0.23516 0.50277
 C98 C 0.77084 0.24446 0.63709
 C99 C 0.82763 0.25368 0.63425
 C100 C 0.84809 0.24530 0.49936
 C101 C 0.82647 0.25414 0.36732
 C102 C 0.77136 0.24779 0.36901
 H103 H 0.50790 0.14073 0.48443
 H104 H 0.66610 0.19737 0.26117
 H105 H 0.66131 0.20316 0.73804
 H106 H 0.75321 0.24757 0.74176
 H107 H 0.88901 0.24628 0.49699
 H108 H 0.75535 0.25571 0.26750
 O109 O 0.92047 0.45493 -0.30073
 O110 O 0.85441 0.38139 -0.15498
 C111 C 0.86836 0.41579 -0.26777
 O112 O 1.08112 0.36995 -0.26616
 O113 O 1.14699 0.44804 -0.13557
 C114 C 1.13341 0.41164 -0.24390
 O115 O 0.92223 0.29865 -0.28270
 O116 O 0.85426 0.30289 -0.13887
 C117 C 0.86873 0.28370 -0.25334
 O118 O 1.07919 0.53887 -0.29197
 O119 O 1.14576 0.52843 -0.15567
 C120 C 1.13153 0.55080 -0.26449
 Zr121 Zr 0.99973 0.47427 -0.20661
 O122 O 0.99267 0.46168 -0.43707
 O123 O 0.99843 0.55178 -0.22518
 Zr124 Zr 1.00082 0.34832 -0.16667
 O125 O 0.99166 0.29184 -0.34209
 O126 O 1.00068 0.27541 -0.08052
 O127 O 0.95090 0.38567 -0.21856
 O128 O 1.04898 0.43518 -0.21859
 O129 O 1.07840 0.54751 0.25209
 O130 O 1.14528 0.53355 0.12771
 C131 C 1.13066 0.55793 0.23048
 O132 O 0.92097 0.29735 0.27497
 O133 O 0.85510 0.30875 0.13986
 C134 C 0.86903 0.28681 0.24950
 O135 O 1.07974 0.37745 0.27789
 O136 O 1.14605 0.45394 0.14179
 C137 C 1.13210 0.41845 0.25308
 O138 O 0.92127 0.46142 0.26450
 O139 O 0.85424 0.38634 0.12574
 C140 C 0.86867 0.42199 0.23551
 Zr141 Zr 0.99975 0.48744 0.15155
 O142 O 1.00051 0.52834 0.35229
 O143 O 0.99732 0.55925 0.06564
 Zr144 Zr 1.00008 0.36128 0.19117
 O145 O 1.00102 0.37607 0.42053
 O146 O 0.99607 0.28174 0.22803
 Zr147 Zr 0.91237 0.37387 -0.00778
 Zr148 Zr 1.08845 0.46203 -0.00745
 O149 O 1.04824 0.44904 0.20136
 O150 O 0.95015 0.40020 0.20308
 O151 O 1.05398 0.51722 -0.02987
 O152 O 0.94770 0.31992 0.01293
 O153 O 0.94655 0.46284 -0.02891
 O154 O 1.05460 0.37252 0.01529
 H155 H 1.07063 0.44590 -0.31275
 H156 H 0.91993 0.27813 0.01596
 H157 H 1.06973 0.46047 0.29544
 H158 H 0.91827 0.47635 -0.03438
 H159 H 1.03849 0.27939 -0.10654
 H160 H 1.03006 0.28311 0.18041
 H161 H 0.96244 0.36886 0.45108
 H162 H 0.99391 0.56067 0.33054
 H163 H 1.03547 0.59321 0.08669
 H164 H 0.99734 0.55878 -0.33241
 H165 H 1.03116 0.47396 -0.47923
 H166 H 1.01133 0.31317 -0.43221
 O167 O 0.62386 0.70213 -0.27447
 O168 O 0.54724 0.69164 -0.13786
 C169 C 0.58266 0.71302 -0.24921
 O170 O 0.53174 0.45301 -0.25082
 O171 O 0.61210 0.46692 -0.12447
 C172 C 0.57334 0.44239 -0.22775
 O173 O 0.46041 0.53876 -0.26305
 O174 O 0.46857 0.61359 -0.12374
 C175 C 0.44722 0.57795 -0.23354
 O176 O 0.70448 0.62385 -0.27360
 O177 O 0.69271 0.54655 -0.13949
 C178 C 0.71505 0.58243 -0.24980
 Zr179 Zr 0.64014 0.63923 -0.18957
 O180 O 0.62935 0.62643 -0.42011
 O181 O 0.71839 0.71768 -0.21335
 Zr182 Zr 0.51281 0.51285 -0.15077
 O183 O 0.47372 0.47241 -0.35298
 O184 O 0.43727 0.44096 -0.06824
 O185 O 0.55098 0.60009 -0.20195
 O186 O 0.60008 0.55145 -0.19980
 O187 O 0.71318 0.63153 0.26406
 O188 O 0.69941 0.55253 0.13607
 C189 C 0.72346 0.58996 0.24147
 O190 O 0.46556 0.54500 0.30230
 O191 O 0.47367 0.61859 0.15672
 C192 C 0.45290 0.58414 0.26951
 O193 O 0.54026 0.46208 0.29539
 O194 O 0.61747 0.47254 0.15927
 C195 C 0.58062 0.45032 0.26819
 O196 O 0.62549 0.70135 0.28616
 O197 O 0.55310 0.69695 0.14298
 C198 C 0.58684 0.71592 0.25779
 Zr199 Zr 0.65370 0.65226 0.16725
 O200 O 0.70062 0.70963 0.34186
 O201 O 0.72686 0.72480 0.07833
 Zr202 Zr 0.52559 0.52608 0.20810
 O203 O 0.53246 0.54017 0.43798
 O204 O 0.44426 0.45073 0.23420
 Zr205 Zr 0.53937 0.62635 0.00909
 Zr206 Zr 0.62675 0.53837 0.00924
 O207 O 0.61445 0.56551 0.22013
 O208 O 0.56599 0.61457 0.21939
 O209 O 0.68302 0.62780 -0.01402
 O210 O 0.48416 0.53729 0.02989
 O211 O 0.62899 0.68059 -0.01204
 O212 O 0.53660 0.48297 0.03128
 H213 H 0.61033 0.54022 -0.29387
 H214 H 0.44224 0.52369 0.03544
 H215 H 0.62599 0.55525 0.31379
 H216 H 0.64316 0.72235 -0.01539
 H217 H 0.44113 0.40701 -0.09008
 H218 H 0.44669 0.41807 0.19216
 H219 H 0.55885 0.52828 0.48017
 H220 H 0.70290 0.68902 0.42901
 H221 H 0.76085 0.72134 0.10540
 H222 H 0.72544 0.72462 -0.32092
 H223 H 0.59692 0.63171 -0.45143
 H224 H 0.43428 0.44019 -0.33297
 O225 O 0.37506 0.07916 0.28055
 O226 O 0.45215 0.14463 0.14467
 C227 C 0.41611 0.13086 0.25445
 O228 O 0.46848 -0.07825 0.25631
 O229 O 0.38776 -0.14438 0.13111
 C230 C 0.42672 -0.13014 0.23368
 O231 O 0.53958 0.07838 0.26985
 O232 O 0.53099 0.14487 0.13114
 C233 C 0.55254 0.13059 0.24063
 O234 O 0.29591 -0.07858 0.28411
 O235 O 0.30736 -0.14418 0.14868
 C236 C 0.28540 -0.13038 0.25979
 Zr237 Zr 0.35965 0.00017 0.19730
 O238 O 0.37150 -0.00062 0.42764
 O239 O 0.28102 0.00015 0.22077
 Zr240 Zr 0.48705 0.00042 0.15764
 O241 O 0.52612 -0.00079 0.36006
 O242 O 0.56267 0.00382 0.07476
 O243 O 0.44882 0.04971 0.20915
 O244 O 0.39986 -0.04771 0.20747
 O245 O 0.28569 -0.08140 -0.25363
 O246 O 0.30027 -0.14646 -0.12760
 C247 C 0.27562 -0.13321 -0.23179
 O248 O 0.53341 0.07911 -0.29609
 O249 O 0.52574 0.14468 -0.14927
 C250 C 0.54623 0.13088 -0.26268
 O251 O 0.45932 -0.07853 -0.28619
 O252 O 0.38216 -0.14458 -0.14963
 C253 C 0.41913 -0.13040 -0.25802
 O254 O 0.37387 0.07669 -0.27730
 O255 O 0.44643 0.14422 -0.13415
 C256 C 0.41257 0.12973 -0.24850
 Zr257 Zr 0.34575 -0.00083 -0.15979
 O258 O 0.29992 0.00977 -0.33716
 O259 O 0.27255 -0.00075 -0.07182
 Zr260 Zr 0.47381 0.00043 -0.20124
 O261 O 0.46616 0.00669 -0.43109
 O262 O 0.55527 0.00635 -0.22900
 Zr263 Zr 0.46017 0.08715 -0.00187
 Zr264 Zr 0.37294 -0.08755 -0.00142
 O265 O 0.38492 -0.04864 -0.21265
 O266 O 0.43338 0.04873 -0.21221
 O267 O 0.31660 -0.05414 0.02199
 O268 O 0.51544 0.05307 -0.02331
 O269 O 0.37053 0.05222 0.01937
 O270 O 0.46309 -0.05327 -0.02416
 H271 H 0.38998 -0.06896 0.30175
 H272 H 0.55733 0.08120 -0.02923
 H273 H 0.37310 -0.07082 -0.30574
 H274 H 0.35623 0.07980 0.02228
 H275 H 0.55890 -0.03393 0.09617
 H276 H 0.55333 -0.02828 -0.18565
 H277 H 0.44030 -0.03174 -0.47252
 H278 H 0.29649 -0.01469 -0.42183
 H279 H 0.23852 -0.03783 -0.09982
 H280 H 0.27417 0.00071 0.32831
 H281 H 0.40395 0.03712 0.45770
 H282 H 0.56530 0.00548 0.33993
   
