data_POSCAR
  _audit_creation_date              2014-09-24
  _audit_creation_method            'ToBaCCo'
  _symmetry_space_group_name_H-M    'P1'
  _symmetry_Int_Tables_number       1
  _symmetry_cell_setting            triclinic
  loop_
  _symmetry_equiv_pos_as_xyz
 x,y,z
_cell_length_a 49.3596
_cell_length_b 28.6398
_cell_length_c 16.7354
_cell_angle_alpha 89.991800
_cell_angle_beta 89.990800
_cell_angle_gamma 89.992400
loop_
  _atom_site_label
  _atom_site_type_symbol
  _atom_site_fract_x
  _atom_site_fract_y
  _atom_site_fract_z
C1 C 0.72801 0.26678 0.54335
 C2 C 0.72810 0.26683 0.45902
 C3 C 0.74969 0.24624 0.41764
 C4 C 0.77128 0.22561 0.45903
 C5 C 0.77118 0.22549 0.54350
 C6 C 0.74955 0.24607 0.58487
 H7 H 0.74949 0.24600 0.64979
 H8 H 0.74966 0.24636 0.35276
 C9 C 0.22796 0.76658 0.54354
 C10 C 0.22799 0.76685 0.45931
 C11 C 0.24956 0.74630 0.41780
 C12 C 0.27109 0.72557 0.45920
 C13 C 0.27107 0.72528 0.54347
 C14 C 0.24949 0.74583 0.58502
 H15 H 0.24941 0.74574 0.64989
 H16 H 0.24961 0.74649 0.35296
 C17 C 0.26992 0.27380 -0.54308
 C18 C 0.26981 0.27404 -0.45895
 C19 C 0.24824 0.25363 -0.41732
 C20 C 0.22665 0.23288 -0.45859
 C21 C 0.22664 0.23296 -0.54311
 C22 C 0.24831 0.25342 -0.58456
 H23 H 0.24841 0.25349 -0.64944
 H24 H 0.24831 0.25389 -0.35244
 C25 C -0.23004 0.77372 -0.54262
 C26 C -0.23038 0.77440 -0.45851
 C27 C -0.25201 0.75392 -0.41730
 C28 C -0.27335 0.73265 -0.45898
 C29 C -0.27307 0.73213 -0.54351
 C30 C -0.25138 0.75276 -0.58451
 H31 H -0.25102 0.75249 -0.64938
 H32 H -0.25217 0.75450 -0.35243
 O33 O -0.03732 0.92086 0.14922
 O34 O -0.06744 0.96169 0.07129
 C35 C -0.06166 0.93258 0.12801
 O36 O 0.03817 1.08541 0.14058
 O37 O 0.06810 1.04090 0.06807
 C38 C 0.06246 1.07292 0.12012
 O39 O -0.03762 1.08177 0.14732
 O40 O -0.06756 1.03984 0.07066
 C41 C -0.06191 1.06957 0.12647
 O42 O 0.03843 0.91610 0.13968
 O43 O 0.06831 0.96066 0.06687
 C44 C 0.06273 0.92862 0.11903
 Zr45 Zr 0.00035 0.94135 0.09990
 O46 O 0.00159 0.93397 0.22552
 O47 O -0.00076 0.86808 0.08560
 Zr48 Zr 0.00023 1.05961 0.10107
 O49 O 0.00292 1.06023 0.22733
 O50 O -0.00272 1.13338 0.09868
 O51 O -0.02375 1.00044 0.11658
 O52 O 0.02374 1.00051 0.11536
 O53 O 0.03800 0.91555 -0.13966
 O54 O 0.06793 0.96035 -0.06774
 C55 C 0.06228 0.92811 -0.11939
 O56 O -0.03775 1.08199 -0.14622
 O57 O -0.06761 1.03995 -0.06937
 C58 C -0.06201 1.06974 -0.12514
 O59 O 0.03803 1.08615 -0.13975
 O60 O 0.06798 1.04166 -0.06742
 C61 C 0.06233 1.07370 -0.11944
 O62 O -0.03769 0.92016 -0.14758
 O63 O -0.06759 0.96176 -0.07019
 C64 C -0.06197 0.93233 -0.12655
 Zr65 Zr 0.00015 0.94185 -0.10061
 O66 O 0.00318 0.94081 -0.22677
 O67 O -0.00263 0.86809 -0.09761
 Zr68 Zr 0.00016 1.06002 -0.10020
 O69 O 0.00303 1.06108 -0.22640
 O70 O -0.00293 1.13375 -0.09714
 Zr71 Zr -0.04039 1.00072 0.00040
 Zr72 Zr 0.04071 1.00093 0.00000
 O73 O 0.02365 1.00097 -0.11528
 O74 O -0.02399 1.00095 -0.11606
 O75 O 0.02464 0.93272 -0.00043
 O76 O -0.02350 1.06822 0.00059
 O77 O -0.02365 0.93315 -0.00007
 O78 O 0.02450 1.06905 0.00040
 H79 H 0.03583 1.00046 0.16259
 H80 H -0.03578 1.09560 0.00073
 H81 H 0.03572 1.00099 -0.16259
 H82 H -0.03609 0.90599 0.00006
 H83 H 0.01329 1.14550 0.06980
 H84 H 0.01297 1.14580 -0.06763
 H85 H -0.01147 1.04073 -0.24753
 H86 H -0.01095 0.96190 -0.24798
 H87 H 0.01215 0.85651 -0.06293
 H88 H -0.00104 0.85484 0.14028
 H89 H 0.00346 0.96568 0.24791
 H90 H -0.01190 1.04040 0.24821
 O91 O 0.46307 0.41908 0.14635
 O92 O 0.43300 0.46017 0.06872
 C93 C 0.43874 0.43094 0.12531
 O94 O 0.53896 0.58354 0.13807
 O95 O 0.56880 0.53927 0.06474
 C96 C 0.56324 0.57114 0.11718
 O97 O 0.46305 0.57979 0.14587
 O98 O 0.43301 0.53818 0.06898
 C99 C 0.43874 0.56761 0.12521
 O100 O 0.53866 0.41414 0.13738
 O101 O 0.56857 0.45890 0.06520
 C102 C 0.56294 0.42672 0.11702
 Zr103 Zr 0.50076 0.43969 0.09724
 O104 O 0.50169 0.43231 0.22293
 O105 O 0.49964 0.36643 0.08267
 Zr106 Zr 0.50084 0.55803 0.09878
 O107 O 0.50356 0.55891 0.22502
 O108 O 0.49788 0.63179 0.09596
 O109 O 0.47680 0.49886 0.11412
 O110 O 0.52425 0.49880 0.11288
 O111 O 0.53856 0.41436 -0.14272
 O112 O 0.56851 0.45932 -0.07112
 C113 C 0.56286 0.42706 -0.12276
 O114 O 0.46281 0.58054 -0.14888
 O115 O 0.43290 0.53863 -0.07202
 C116 C 0.43853 0.56832 -0.12801
 O117 O 0.53852 0.58465 -0.14170
 O118 O 0.56847 0.54001 -0.06958
 C119 C 0.56281 0.57217 -0.12134
 O120 O 0.46275 0.41884 -0.14998
 O121 O 0.43288 0.46052 -0.07255
 C122 C 0.43849 0.43108 -0.12888
 Zr123 Zr 0.50064 0.44045 -0.10334
 O124 O 0.50360 0.43958 -0.22954
 O125 O 0.49788 0.36668 -0.10069
 Zr126 Zr 0.50064 0.55866 -0.10220
 O127 O 0.50349 0.56052 -0.22836
 O128 O 0.49759 0.63239 -0.09788
 Zr129 Zr 0.46010 0.49930 -0.00198
 Zr130 Zr 0.54120 0.49922 -0.00245
 O131 O 0.52410 0.49959 -0.11770
 O132 O 0.47651 0.49962 -0.11843
 O133 O 0.52510 0.43105 -0.00314
 O134 O 0.47698 0.56679 -0.00146
 O135 O 0.47681 0.43169 -0.00281
 O136 O 0.52507 0.56743 -0.00179
 H137 H 0.53640 0.49878 0.15998
 H138 H 0.46464 0.59409 -0.00120
 H139 H 0.53612 0.49973 -0.16511
 H140 H 0.46436 0.40453 -0.00274
 H141 H 0.51412 0.64389 0.06817
 H142 H 0.51379 0.64434 -0.06971
 H143 H 0.48962 0.53895 -0.24968
 H144 H 0.48922 0.46019 -0.25069
 H145 H 0.51274 0.35506 -0.06633
 H146 H 0.49932 0.35312 0.13729
 H147 H 0.50540 0.46355 0.24532
 H148 H 0.48926 0.53796 0.24586
 C149 C 0.29198 0.29421 0.41219
 C150 C 0.31048 0.31130 0.37527
 C151 C 0.33263 0.33185 0.33167
 C152 C 0.35300 0.35611 0.37259
 C153 C 0.37450 0.37623 0.33042
 C154 C 0.37577 0.37211 0.24708
 C155 C 0.35541 0.34783 0.20610
 C156 C 0.33388 0.32776 0.24831
 C157 C 0.39794 0.39279 0.20377
 C158 C 0.41656 0.41017 0.16780
 H159 H 0.35227 0.35943 0.43697
 H160 H 0.39011 0.39497 0.36273
 H161 H 0.35618 0.34445 0.14166
 H162 H 0.31824 0.30910 0.21602
 C163 C -0.20798 0.79421 0.41302
 C164 C -0.18949 0.81140 0.37635
 C165 C -0.16739 0.83212 0.33306
 C166 C -0.14656 0.85481 0.37455
 C167 C -0.12516 0.87534 0.33263
 C168 C -0.12446 0.87314 0.24904
 C169 C -0.14526 0.85036 0.20750
 C170 C -0.16670 0.82988 0.24946
 C171 C -0.10237 0.89414 0.20607
 C172 C -0.08379 0.91171 0.17033
 H173 H -0.14688 0.85663 0.43917
 H174 H -0.10918 0.89287 0.36532
 H175 H -0.14491 0.84847 0.14285
 H176 H -0.18270 0.81238 0.21681
 C177 C 0.70658 0.71193 0.41297
 C178 C 0.68876 0.69424 0.37394
 C179 C 0.66748 0.67312 0.32740
 C180 C 0.64755 0.64632 0.36529
 C181 C 0.62670 0.62607 0.32072
 C182 C 0.62567 0.63237 0.23779
 C183 C 0.64569 0.65895 0.19957
 C184 C 0.66656 0.67932 0.24433
 C185 C 0.60398 0.61146 0.19267
 C186 C 0.58551 0.59337 0.15705
 H187 H 0.64812 0.64108 0.42919
 H188 H 0.61137 0.60552 0.35093
 H189 H 0.64515 0.66396 0.13542
 H190 H 0.68191 0.69987 0.21429
 C191 C 0.20599 1.21346 0.41385
 C192 C 0.18790 1.19632 0.37539
 C193 C 0.16635 1.17575 0.32948
 C194 C 0.16768 1.17518 0.24582
 C195 C 0.14677 1.15478 0.20141
 C196 C 0.12451 1.13486 0.24061
 C197 C 0.12319 1.13552 0.32420
 C198 C 0.14403 1.15599 0.36849
 C199 C 0.10298 1.11352 0.19570
 C200 C 0.08462 1.09523 0.16006
 H201 H 0.18484 1.19043 0.21503
 H202 H 0.14799 1.15447 0.13677
 H203 H 0.10607 1.12018 0.35509
 H204 H 0.14275 1.15640 0.43302
 C205 C 0.70735 0.28654 -0.41397
 C206 C 0.68923 0.30389 -0.37571
 C207 C 0.66759 0.32464 -0.33015
 C208 C 0.64765 0.35097 -0.36896
 C209 C 0.62656 0.37116 -0.32522
 C210 C 0.62532 0.36524 -0.24224
 C211 C 0.64527 0.33894 -0.20316
 C212 C 0.66638 0.31866 -0.24707
 C213 C 0.60355 0.38639 -0.19785
 C214 C 0.58507 0.40466 -0.16257
 H215 H 0.64840 0.35592 -0.43291
 H216 H 0.61125 0.39139 -0.35610
 H217 H 0.64452 0.33412 -0.13899
 H218 H 0.68171 0.29838 -0.21636
 C219 C 0.20618 0.78733 -0.41123
 C220 C 0.18810 0.80457 -0.37284
 C221 C 0.16652 0.82522 -0.32708
 C222 C 0.16659 0.82230 -0.24347
 C223 C 0.14558 0.84260 -0.19930
 C224 C 0.12448 0.86587 -0.23870
 C225 C 0.12443 0.86869 -0.32222
 C226 C 0.14539 0.84841 -0.36624
 C227 C 0.10286 0.88717 -0.19413
 C228 C 0.08446 0.90557 -0.15888
 H229 H 0.18284 0.80441 -0.21256
 H230 H 0.14581 0.84022 -0.13469
 H231 H 0.10821 0.88661 -0.35328
 H232 H 0.14513 0.85084 -0.43065
 C233 C 0.29179 0.70537 -0.41435
 C234 C 0.31017 0.68782 -0.37758
 C235 C 0.33221 0.66700 -0.33397
 C236 C 0.33806 0.68191 -0.25612
 C237 C 0.35963 0.66201 -0.21395
 C238 C 0.37543 0.62702 -0.24938
 C239 C 0.36955 0.61204 -0.32719
 C240 C 0.34800 0.63198 -0.36940
 C241 C 0.39764 0.60650 -0.20604
 C242 C 0.41628 0.58917 -0.17012
 H243 H 0.32596 0.70893 -0.22813
 H244 H 0.36400 0.67390 -0.15386
 H245 H 0.38163 0.58500 -0.35518
 H246 H 0.34364 0.62013 -0.42952
 C247 C -0.20824 1.20575 -0.41348
 C248 C -0.19010 1.18838 -0.37552
 C249 C -0.16833 1.16762 -0.33079
 C250 C -0.15103 1.13549 -0.36780
 C251 C -0.12951 1.11587 -0.32527
 C252 C -0.12528 1.12808 -0.24524
 C253 C -0.14273 1.15988 -0.20778
 C254 C -0.16421 1.17968 -0.25056
 C255 C -0.10302 1.10792 -0.20197
 C256 C -0.08428 1.09068 -0.16658
 H257 H -0.15418 1.12561 -0.42939
 H258 H -0.11617 1.09125 -0.35476
 H259 H -0.13969 1.16940 -0.14578
 H260 H -0.17755 1.20437 -0.22122
 C261 C 0.70609 0.71280 -0.41604
 C262 C 0.68812 0.69541 -0.37738
 C263 C 0.66670 0.67466 -0.33114
 C264 C 0.66584 0.68067 -0.24805
 C265 C 0.64492 0.66044 -0.20341
 C266 C 0.62483 0.63415 -0.24182
 C267 C 0.62570 0.62825 -0.32483
 C268 C 0.64659 0.64839 -0.36929
 C269 C 0.60329 0.61298 -0.19673
 C270 C 0.58495 0.59465 -0.16110
 H271 H 0.68129 0.70094 -0.21791
 H272 H 0.64441 0.66526 -0.13923
 H273 H 0.61024 0.60806 -0.35515
 H274 H 0.64707 0.64349 -0.43328
 C275 C 0.20614 1.21292 -0.41538
 C276 C 0.18819 1.19539 -0.37668
 C277 C 0.16676 1.17456 -0.33037
 C278 C 0.16442 1.18422 -0.24852
 C279 C 0.14340 1.16429 -0.20387
 C280 C 0.12463 1.13466 -0.24095
 C281 C 0.12703 1.12496 -0.32270
 C282 C 0.14808 1.14473 -0.36719
 C283 C 0.10292 1.11395 -0.19568
 C284 C 0.08451 1.09595 -0.15969
 H285 H 0.17881 1.20713 -0.21934
 H286 H 0.14177 1.17200 -0.14068
 H287 H 0.11263 1.10212 -0.35201
 H288 H 0.14979 1.13673 -0.43017
 C289 C 0.29162 0.29505 -0.41425
 C290 C 0.30989 0.31261 -0.37716
 C291 C 0.33179 0.33352 -0.33331
 C292 C 0.33833 0.31724 -0.25676
 C293 C 0.35992 0.33713 -0.21468
 C294 C 0.37505 0.37330 -0.24911
 C295 C 0.36840 0.38976 -0.32545
 C296 C 0.34677 0.36997 -0.36739
 C297 C 0.39743 0.39346 -0.20634
 C298 C 0.41621 0.41050 -0.17083
 H299 H 0.32681 0.28916 -0.22976
 H300 H 0.36485 0.32426 -0.15557
 H301 H 0.37995 0.41778 -0.35253
 H302 H 0.34176 0.38303 -0.42627
 C303 C -0.20868 0.79570 -0.41349
 C304 C -0.19045 0.81339 -0.37627
 C305 C -0.16855 0.83437 -0.33223
 C306 C -0.16190 0.81787 -0.25588
 C307 C -0.14036 0.83783 -0.21361
 C308 C -0.12535 0.87432 -0.24758
 C309 C -0.13208 0.89094 -0.32379
 C310 C -0.15366 0.87107 -0.36595
 C311 C -0.10301 0.89459 -0.20450
 C312 C -0.08426 0.91170 -0.16874
 H313 H -0.17330 0.78956 -0.22918
 H314 H -0.13537 0.82475 -0.15467
 H315 H -0.12064 0.91916 -0.35062
 H316 H -0.15871 0.88425 -0.42474
 C317 C 0.29294 0.70486 0.41410
 C318 C 0.31126 0.68747 0.37700
 C319 C 0.33319 0.66664 0.33313
 C320 C 0.33100 0.66020 0.25040
 C321 C 0.35235 0.63993 0.20777
 C322 C 0.37596 0.62610 0.24774
 C323 C 0.37812 0.63248 0.33049
 C324 C 0.35678 0.65273 0.37311
 C325 C 0.39801 0.60552 0.20397
 C326 C 0.41658 0.58826 0.16773
 H327 H 0.31284 0.67086 0.21895
 H328 H 0.35046 0.63510 0.14380
 H329 H 0.39629 0.62188 0.36196
 H330 H 0.35868 0.65759 0.43706
 C331 C -0.20800 1.20613 0.41607
 C332 C -0.18976 1.18898 0.37810
 C333 C -0.16790 1.16838 0.33329
 C334 C -0.16473 1.17836 0.25182
 C335 C -0.14333 1.15839 0.20881
 C336 C -0.12502 1.12844 0.24719
 C337 C -0.12827 1.11837 0.32850
 C338 C -0.14966 1.13825 0.37132
 C339 C -0.10286 1.10802 0.20362
 C340 C -0.08417 1.09062 0.16808
 H341 H -0.17874 1.20154 0.22167
 H342 H -0.14105 1.16631 0.14586
 H343 H -0.11427 1.09520 0.35876
 H344 H -0.15197 1.13013 0.43397
 C345 C 0.70644 0.28777 0.41330
 C346 C 0.68853 0.30513 0.37438
 C347 C 0.66716 0.32583 0.32785
 C348 C 0.66622 0.31924 0.24489
 C349 C 0.64528 0.33923 0.20001
 C350 C 0.62523 0.36581 0.23804
 C351 C 0.62625 0.37248 0.32086
 C352 C 0.64718 0.35260 0.36556
 C353 C 0.60357 0.38651 0.19277
 C354 C 0.58514 0.40451 0.15700
 H355 H 0.68163 0.29870 0.21504
 H356 H 0.64473 0.33396 0.13592
 H357 H 0.61089 0.39304 0.35086
 H358 H 0.64777 0.35812 0.42940
 C359 C 0.20628 0.78802 0.41409
 C360 C 0.18833 0.80561 0.37550
 C361 C 0.16695 0.82663 0.32922
 C362 C 0.14657 0.85221 0.36749
 C363 C 0.12568 0.87245 0.32298
 C364 C 0.12509 0.86734 0.23977
 C365 C 0.14556 0.84196 0.20121
 C366 C 0.16645 0.82161 0.24589
 C367 C 0.10343 0.88830 0.19467
 C368 C 0.08498 0.90639 0.15899
 H369 H 0.14682 0.85656 0.43162
 H370 H 0.11001 0.89207 0.35344
 H371 H 0.14536 0.83790 0.13686
 H372 H 0.18216 0.80203 0.21557
   
