data_POSCAR
  _audit_creation_date              2014-09-24
  _audit_creation_method            'ToBaCCo'
  _symmetry_space_group_name_H-M    'P1'
  _symmetry_Int_Tables_number       1
  _symmetry_cell_setting            triclinic
  loop_
  _symmetry_equiv_pos_as_xyz
 x,y,z
_cell_length_a 45.4436
_cell_length_b 43.9071
_cell_length_c 44.6916
_cell_angle_alpha 88.471000
_cell_angle_beta 90.788500
_cell_angle_gamma 90.313700
loop_
  _atom_site_label
  _atom_site_type_symbol
  _atom_site_fract_x
  _atom_site_fract_y
  _atom_site_fract_z
N1 N 0.29261 0.37250 1.35444
 N2 N 0.29389 0.34774 1.37163
 C3 C 0.27011 0.34650 1.38926
 C4 C 0.25323 0.37206 1.38308
 C5 C 0.26812 0.38809 1.36074
 H6 H 0.26576 0.32868 1.40582
 H7 H 0.26174 0.40929 1.34969
 Cu8 Cu 0.32704 0.31990 1.37030
 Cu9 Cu 0.32277 0.38175 1.32480
 Cu10 Cu 0.39013 0.35316 1.34837
 N11 N 0.36478 0.29976 1.37615
 N12 N 0.38950 0.31363 1.36897
 C13 C 0.41235 0.29581 1.37722
 C14 C 0.40135 0.26904 1.38968
 C15 C 0.37098 0.27227 1.38869
 H16 H 0.43524 0.30164 1.37377
 H17 H 0.35464 0.25630 1.39700
 N18 N 0.38575 0.38491 1.31657
 N19 N 0.36002 0.39517 1.30678
 C20 C 0.36412 0.41288 1.28207
 C21 C 0.39393 0.41350 1.27600
 C22 C 0.40690 0.39569 1.29834
 H23 H 0.34656 0.42282 1.26854
 H24 H 0.42981 0.38918 1.29985
 H25 H 0.35099 0.34356 1.32718
 H26 H 0.34894 0.36985 1.35934
 N27 N 1.18613 0.62297 0.86884
 N28 N 1.18014 0.64006 0.89164
 C29 C 1.20127 0.63659 0.91279
 C30 C 1.22170 0.61629 0.90274
 C31 C 1.21143 0.60796 0.87473
 H32 H 1.20220 0.64865 0.93358
 H33 H 1.22183 0.59280 0.85947
 Cu34 Cu 1.14662 0.66691 0.89082
 Cu35 Cu 1.16149 0.62323 0.83261
 Cu36 Cu 1.10939 0.68079 0.82663
 N37 N 1.12169 0.70218 0.88565
 N38 N 1.10682 0.70770 0.86068
 C39 C 1.09173 0.73385 0.86327
 C40 C 1.09794 0.74526 0.89135
 C41 C 1.11699 0.72461 0.90483
 H42 H 1.07796 0.74402 0.84584
 H43 H 1.12699 0.72601 0.92687
 N44 N 1.11549 0.65087 0.79503
 N45 N 1.13445 0.62822 0.79784
 C46 C 1.13259 0.61112 0.77328
 C47 C 1.11171 0.62386 0.75403
 C48 C 1.10146 0.64905 0.76838
 H49 H 1.14588 0.59131 0.76936
 H50 H 1.08476 0.66468 0.76005
 H51 H 1.15235 0.66890 0.83696
 H52 H 1.12303 0.64138 0.84904
 N53 N 0.70412 -0.13741 0.13598
 N54 N 0.69611 -0.15517 0.11405
 C55 C 0.71582 -0.15227 0.09184
 C56 C 0.73729 -0.13169 0.10037
 C57 C 0.72914 -0.12271 0.12854
 H58 H 0.71468 -0.16408 0.07093
 H59 H 0.74025 -0.10640 0.14249
 Cu60 Cu 0.66064 -0.18023 0.11699
 Cu61 Cu 0.68100 -0.13361 0.17214
 Cu62 Cu 0.61652 -0.17604 0.17646
 N63 N 0.62465 -0.20446 0.11997
 N64 N 0.60739 -0.20248 0.14321
 C65 C 0.58465 -0.22201 0.14023
 C66 C 0.58784 -0.23720 0.11381
 C67 C 0.61347 -0.22542 0.10140
 H68 H 0.56742 -0.22549 0.15644
 H69 H 0.62355 -0.23191 0.08079
 N70 N 0.62956 -0.14817 0.20793
 N71 N 0.65454 -0.13271 0.20676
 C72 C 0.65746 -0.11637 0.23176
 C73 C 0.63306 -0.12155 0.24927
 C74 C 0.61584 -0.14187 0.23355
 H75 H 0.67570 -0.10134 0.23672
 H76 H 0.59498 -0.15151 0.24036
 H77 H 0.66165 -0.17628 0.17136
 H78 H 0.64114 -0.14437 0.15233
 N79 N -0.18169 1.09751 -0.39451
 N80 N -0.17741 1.12073 -0.41315
 C81 C -0.19714 1.11927 -0.43589
 C82 C -0.21490 1.09404 -0.43078
 C83 C -0.20436 1.08066 -0.40446
 H84 H -0.19944 1.13617 -0.45381
 H85 H -0.21304 1.06068 -0.39290
 Cu86 Cu -0.14822 1.15195 -0.40415
 Cu87 Cu -0.15876 1.09204 -0.35775
 Cu88 Cu -0.13558 1.16118 -0.33051
 N89 N -0.12637 1.18685 -0.38949
 N90 N -0.12223 1.19078 -0.36066
 C91 C -0.10823 1.21747 -0.35661
 C92 C -0.10298 1.23081 -0.38440
 C93 C -0.11481 1.21072 -0.40486
 H94 H -0.10225 1.22646 -0.33504
 H95 H -0.11562 1.21343 -0.42897
 N96 N -0.13939 1.12379 -0.30520
 N97 N -0.14698 1.09715 -0.31599
 C98 C -0.14579 1.07578 -0.29390
 C99 C -0.13702 1.08961 -0.26789
 C100 C -0.13311 1.12009 -0.27581
 H101 H -0.15079 1.05189 -0.29660
 H102 H -0.12543 1.13810 -0.26160
 H103 H -0.16652 1.13700 -0.35483
 H104 H -0.12681 1.12756 -0.35914
 N105 N 0.73397 0.63001 0.66876
 N106 N 0.73096 0.64520 0.64318
 C107 C 0.75464 0.64008 0.62621
 C108 C 0.77334 0.62066 0.64227
 C109 C 0.75963 0.61495 0.66915
 H110 H 0.75754 0.64909 0.60369
 H111 H 0.76707 0.59956 0.68694
 Cu112 Cu 0.69548 0.66856 0.63398
 Cu113 Cu 0.70228 0.62671 0.69711
 Cu114 Cu 0.64325 0.67524 0.68704
 N115 N 0.66532 0.69983 0.63128
 N116 N 0.64491 0.70229 0.65166
 C117 C 0.62772 0.72636 0.64435
 C118 C 0.63806 0.73968 0.61805
 C119 C 0.66188 0.72227 0.61044
 H120 H 0.60958 0.73397 0.65759
 H121 H 0.67601 0.72605 0.59140
 N122 N 0.64686 0.64600 0.72142
 N123 N 0.67049 0.62906 0.72599
 C124 C 0.66761 0.61280 0.75168
 C125 C 0.64069 0.61921 0.76357
 C126 C 0.62792 0.64036 0.74394
 H127 H 0.68352 0.59671 0.76078
 H128 H 0.60669 0.65104 0.74609
 H129 H 0.66589 0.63987 0.67041
 H130 H 0.68812 0.67103 0.68753
 N131 N 0.79300 0.39337 0.14259
 N132 N 0.79047 0.37331 0.12134
 C133 C 0.76674 0.38017 0.10413
 C134 C 0.75390 0.40601 0.11506
 C135 C 0.77119 0.41391 0.13932
 H136 H 0.75947 0.36749 0.08497
 H137 H 0.76772 0.43278 0.15391
 Cu138 Cu 0.81857 0.34038 0.11789
 Cu139 Cu 0.82316 0.39019 0.17403
 Cu140 Cu 0.87094 0.32919 0.17048
 N141 N 0.84626 0.30683 0.11582
 N142 N 0.86619 0.30233 0.13703
 C143 C 0.88271 0.27821 0.13045
 C144 C 0.87270 0.26697 0.10357
 C145 C 0.84960 0.28568 0.09481
 H146 H 0.90122 0.27012 0.14380
 H147 H 0.83650 0.28411 0.07452
 N148 N 0.87267 0.35874 0.20257
 N149 N 0.85508 0.38249 0.20374
 C150 C 0.86254 0.39869 0.22797
 C151 C 0.88589 0.38424 0.24253
 C152 C 0.89164 0.35912 0.22590
 H153 H 0.85172 0.41927 0.23457
 H154 H 0.90868 0.34247 0.23047
 H155 H 0.85361 0.36786 0.14916
 H156 H 0.82747 0.34383 0.17156
 N157 N 0.29198 0.11387 0.85944
 N158 N 0.30011 0.13086 0.88194
 C159 C 0.28007 0.12807 0.90378
 C160 C 0.25800 0.10874 0.89422
 C161 C 0.26621 0.10010 0.86600
 H162 H 0.28119 0.13961 0.92485
 H163 H 0.25471 0.08439 0.85167
 Cu164 Cu 0.33528 0.15624 0.88030
 Cu165 Cu 0.31656 0.10928 0.82442
 Cu166 Cu 0.37273 0.16172 0.81580
 N167 N 0.36216 0.18994 0.87185
 N168 N 0.37610 0.19243 0.84631
 C169 C 0.39203 0.21836 0.84584
 C170 C 0.38801 0.23280 0.87253
 C171 C 0.36890 0.21415 0.88860
 H172 H 0.40548 0.22627 0.82740
 H173 H 0.35994 0.21820 0.91041
 N174 N 0.36572 0.12867 0.78760
 N175 N 0.34426 0.10853 0.79083
 C176 C 0.34595 0.08816 0.76888
 C177 C 0.36957 0.09590 0.75101
 C178 C 0.38159 0.12174 0.76352
 H179 H 0.33147 0.06875 0.76635
 H180 H 0.40085 0.13418 0.75615
 H181 H 0.35603 0.12544 0.84149
 H182 H 0.32891 0.15443 0.82654
 N183 N 0.20621 0.88794 0.35491
 N184 N 0.20380 0.87349 0.38091
 C185 C 0.22847 0.87778 0.39724
 C186 C 0.24735 0.89599 0.38055
 C187 C 0.23258 0.90200 0.35382
 H188 H 0.23226 0.86826 0.41951
 H189 H 0.24039 0.91580 0.33513
 Cu190 Cu 0.16896 0.85027 0.39117
 Cu191 Cu 0.17449 0.88821 0.32505
 Cu192 Cu 0.11546 0.84012 0.33972
 N193 N 0.13998 0.81812 0.39567
 N194 N 0.11884 0.81445 0.37572
 C195 C 0.10276 0.78978 0.38357
 C196 C 0.11462 0.77734 0.40981
 C197 C 0.13820 0.79586 0.41685
 H198 H 0.08463 0.78094 0.37046
 H199 H 0.15346 0.79280 0.43547
 N200 N 0.11697 0.86767 0.30436
 N201 N 0.13990 0.88520 0.29810
 C202 C 0.13448 0.90074 0.27221
 C203 C 0.10676 0.89262 0.26194
 C204 C 0.09627 0.87179 0.28284
 H205 H 0.14921 0.91731 0.26206
 H206 H 0.07506 0.86053 0.28235
 H207 H 0.13995 0.87774 0.35305
 H208 H 0.16075 0.84500 0.33785
 Zn209 Zn 0.02737 0.99034 -0.00382
 Zn210 Zn -0.00693 1.04681 -0.01662
 Zn211 Zn -0.03665 0.98592 -0.02211
 Zn212 Zn -0.01891 1.00902 0.03804
 O213 O -0.00884 1.00794 -0.00122
 O214 O 0.05419 1.01493 -0.02107
 O215 O -0.03180 1.05277 -0.04708
 O216 O -0.02089 0.95336 -0.03938
 O217 O 0.02867 1.05690 -0.03085
 O218 O 0.02602 0.95675 -0.02548
 O219 O -0.05395 1.00808 -0.05205
 O220 O -0.05209 0.98875 0.04555
 O221 O -0.01653 1.07491 0.00976
 O222 O -0.06606 0.97146 0.00143
 O223 O -0.02502 1.04673 0.05054
 O224 O 0.00819 0.99273 0.06281
 O225 O 0.04295 0.97904 0.03183
 C226 C 0.05246 1.04199 -0.03163
 C227 C -0.05014 1.03576 -0.06023
 C228 C 0.00527 0.94332 -0.03926
 C229 C -0.07006 0.97414 0.02935
 C230 C -0.02399 1.07240 0.03696
 C231 C 0.03307 0.98097 0.05808
 Zn232 Zn 0.48735 -0.00183 0.46296
 Zn233 Zn 0.48528 -0.02377 0.52677
 Zn234 Zn 0.54289 -0.02062 0.49393
 Zn235 Zn 0.51234 0.03665 0.51060
 O236 O 0.50701 -0.00247 0.49867
 O237 O 0.45385 -0.02258 0.46450
 O238 O 0.50507 -0.05579 0.54245
 O239 O 0.54905 -0.03260 0.45622
 O240 O 0.45153 -0.03907 0.51159
 O241 O 0.50756 -0.01830 0.43362
 O242 O 0.54707 -0.05405 0.51771
 O243 O 0.55021 0.04619 0.51600
 O244 O 0.47475 -0.00084 0.55778
 O245 O 0.57309 0.00411 0.50323
 O246 O 0.49541 0.04344 0.54552
 O247 O 0.49681 0.06466 0.48499
 O248 O 0.47726 0.03557 0.45021
 C249 C 0.44075 -0.03713 0.48527
 C250 C 0.53028 -0.06654 0.53704
 C251 C 0.53271 -0.03056 0.43298
 C252 C 0.57362 0.03119 0.51254
 C253 C 0.48024 0.02690 0.56318
 C254 C 0.48203 0.06157 0.46094
 Zn255 Zn 1.01305 0.46341 0.47813
 Zn256 Zn 1.04209 0.51775 0.50502
 Zn257 Zn 0.98206 0.52284 0.47804
 Zn258 Zn 0.99097 0.48767 0.53566
 O259 O 1.00708 0.49786 0.49929
 O260 O 1.05098 0.45811 0.46884
 O261 O 1.04245 0.55543 0.48867
 O262 O 0.96893 0.50696 0.44412
 O263 O 1.07232 0.49862 0.48845
 O264 O 0.99259 0.46312 0.44342
 O265 O 0.99821 0.55855 0.46764
 O266 O 0.95654 0.50672 0.54152
 O267 O 1.05122 0.52201 0.54388
 O268 O 0.95028 0.53211 0.49845
 O269 O 1.01427 0.49813 0.56653
 O270 O 0.98387 0.44744 0.54015
 O271 O 1.00131 0.42974 0.49797
 C272 C 1.07370 0.47425 0.47390
 C273 C 1.02320 0.57001 0.47337
 C274 C 0.97460 0.48213 0.43171
 C275 C 0.94182 0.52483 0.52454
 C276 C 1.03832 0.51293 0.56755
 C277 C 0.98905 0.42548 0.52306
 Zn278 Zn 0.47231 0.48798 0.96028
 Zn279 Zn 0.46493 0.52735 1.01376
 Zn280 Zn 0.48883 0.46374 1.02086
 Zn281 Zn 0.52500 0.51230 0.99167
 O282 O 0.48767 0.49793 0.99673
 O283 O 0.43885 0.50734 0.95228
 O284 O 0.45077 0.51488 1.04944
 O285 O 0.47339 0.43087 1.00343
 O286 O 0.43309 0.53737 0.99085
 O287 O 0.46361 0.44824 0.95744
 O288 O 0.46920 0.46838 1.05482
 O289 O 0.55253 0.48925 1.01018
 O290 O 0.48529 0.56219 1.02083
 O291 O 0.52550 0.45301 1.03174
 O292 O 0.52960 0.54958 1.00539
 O293 O 0.53496 0.51608 0.95324
 O294 O 0.49563 0.49837 0.92964
 C295 C 0.42438 0.52718 0.96584
 C296 C 0.45415 0.49022 1.06454
 C297 C 0.46415 0.42668 0.97694
 C298 C 0.55032 0.46505 1.02618
 C299 C 0.51230 0.56853 1.01662
 C300 C 0.52098 0.51052 0.92923
 C301 C 1.22704 0.37940 0.39714
 C302 C 1.21301 0.40738 0.39272
 C303 C 1.18569 0.41474 0.40821
 N304 N 1.17781 0.44426 0.41111
 N305 N 1.15309 0.45131 0.42498
 C306 C 1.13517 0.42907 0.43621
 N307 N 1.14287 0.39952 0.43301
 N308 N 1.16777 0.39248 0.41943
 C309 C 1.10735 0.43660 0.45071
 C310 C 1.10231 0.46539 0.46194
 H311 H 1.22297 0.42509 0.37886
 H312 H 1.09063 0.41903 0.45288
 H313 H 1.21795 0.36294 0.41303
 H314 H 1.11990 0.48216 0.46180
 C315 C 0.24907 0.60747 0.91860
 C316 C 0.26989 0.58860 0.90619
 C317 C 0.29772 0.58081 0.92170
 N318 N 0.31720 0.56248 0.90836
 N319 N 0.34254 0.55518 0.92195
 C320 C 0.34942 0.56596 0.94940
 N321 N 0.32994 0.58436 0.96277
 N322 N 0.30455 0.59167 0.94916
 C323 C 0.37732 0.55757 0.96462
 C324 C 0.39698 0.53792 0.95144
 H325 H 0.26598 0.57942 0.88425
 H326 H 0.38214 0.56639 0.98656
 H327 H 0.25312 0.61670 0.94052
 H328 H 0.39173 0.52905 0.92961
 C329 C -0.23718 0.87858 0.08258
 C330 C -0.21578 0.89807 0.09410
 C331 C -0.19031 0.90927 0.07690
 N332 N -0.16999 0.92708 0.09052
 N333 N -0.14684 0.93780 0.07558
 C334 C -0.14308 0.93122 0.04636
 N335 N -0.16345 0.91340 0.03265
 N336 N -0.18665 0.90259 0.04765
 C337 C -0.11746 0.94337 0.02979
 C338 C -0.09589 0.96058 0.04419
 H339 H -0.21747 0.90554 0.11688
 H340 H -0.11557 0.93880 0.00621
 H341 H -0.23521 0.87048 0.06002
 H342 H -0.09793 0.96460 0.06788
 C343 C 0.75865 0.08521 0.55220
 C344 C 0.73462 0.07246 0.56700
 C345 C 0.70721 0.06399 0.55163
 N346 N 0.68165 0.06402 0.56690
 N347 N 0.65660 0.05538 0.55385
 C348 C 0.65623 0.04595 0.52518
 N349 N 0.68187 0.04559 0.50994
 N350 N 0.70693 0.05469 0.52288
 C351 C 0.62873 0.03496 0.51149
 C352 C 0.60167 0.04537 0.52109
 H353 H 0.73515 0.07042 0.59121
 H354 H 0.62973 0.01827 0.49411
 H355 H 0.75714 0.09090 0.52851
 H356 H 0.60101 0.06425 0.53620
 C357 C 0.41815 0.24457 0.40061
 C358 C 0.40587 0.21664 0.40945
 C359 C 0.42417 0.19115 0.42059
 N360 N 0.41361 0.16225 0.41955
 N361 N 0.42985 0.13892 0.42968
 C362 C 0.45715 0.14363 0.44148
 N363 N 0.46760 0.17258 0.44284
 N364 N 0.45148 0.19591 0.43239
 C365 C 0.47465 0.11802 0.45376
 C366 C 0.46871 0.08820 0.44559
 H367 H 0.38249 0.21259 0.40665
 H368 H 0.49217 0.12264 0.46971
 H369 H 0.44188 0.24720 0.40116
 H370 H 0.45261 0.08404 0.42803
 C371 C 0.91090 0.25885 0.61031
 C372 C 0.91692 0.27028 0.58160
 C373 C 0.93078 0.30025 0.57627
 N374 N 0.94035 0.30811 0.54850
 N375 N 0.95231 0.33541 0.54302
 C376 C 0.95503 0.35597 0.56507
 N377 N 0.94540 0.34816 0.59286
 N378 N 0.93358 0.32076 0.59840
 C379 C 0.96709 0.38666 0.55884
 C380 C 0.98008 0.39424 0.53156
 H381 H 0.91182 0.25684 0.56224
 H382 H 0.96513 0.40371 0.57576
 H383 H 0.91754 0.27197 0.62949
 H384 H 0.98293 0.37678 0.51518
 C385 C 0.08857 0.77204 -0.09584
 C386 C 0.06824 0.79202 -0.10921
 C387 C 0.06041 0.82049 -0.09463
 N388 N 0.03612 0.83634 -0.10355
 N389 N 0.02893 0.86197 -0.09011
 C390 C 0.04592 0.87273 -0.06742
 N391 N 0.07033 0.85705 -0.05877
 N392 N 0.07739 0.83138 -0.07204
 C393 C 0.03873 0.90095 -0.05225
 C394 C 0.01162 0.91543 -0.05548
 H395 H 0.05741 0.78654 -0.13012
 H396 H 0.05518 0.91004 -0.03709
 H397 H 0.09761 0.77725 -0.07399
 H398 H -0.00549 0.90572 -0.06946
 C399 C 0.56942 0.73964 1.10342
 C400 C 0.57488 0.72406 1.07726
 C401 C 0.55720 0.69769 1.06786
 N402 N 0.56625 0.68129 1.04446
 N403 N 0.55146 0.65658 1.03624
 C404 C 0.52692 0.64730 1.05101
 N405 N 0.51757 0.66395 1.07419
 N406 N 0.53248 0.68866 1.08253
 C407 C 0.51142 0.61903 1.04274
 C408 C 0.52478 0.59834 1.02418
 H409 H 0.59363 0.73026 1.06370
 H410 H 0.49034 0.61363 1.05263
 H411 H 0.55064 0.73304 1.11684
 H412 H 0.54661 0.60338 1.01589
 C413 C 0.40894 0.42531 1.24911
 C414 C 0.39479 0.44214 1.22635
 C415 C 0.40933 0.44894 1.19766
 N416 N 0.39682 0.46841 1.17716
 N417 N 0.40935 0.47367 1.15069
 C418 C 0.43474 0.45942 1.14372
 N419 N 0.44716 0.43992 1.16418
 N420 N 0.43475 0.43483 1.19066
 C421 C 0.44845 0.46385 1.11432
 C422 C 0.44019 0.48695 1.09398
 H423 H 0.37239 0.44970 1.22916
 H424 H 0.46611 0.44860 1.10876
 H425 H 0.43183 0.41922 1.24662
 H426 H 0.42382 0.50344 1.10004
 C427 C 0.62700 -0.10774 0.27824
 C428 C 0.59895 -0.10832 0.29048
 C429 C 0.59207 -0.09393 0.31888
 N430 N 0.56355 -0.08984 0.32626
 N431 N 0.55669 -0.07692 0.35184
 C432 C 0.57809 -0.06777 0.37117
 N433 N 0.60667 -0.07211 0.36394
 N434 N 0.61355 -0.08485 0.33820
 C435 C 0.57048 -0.05373 0.39963
 C436 C 0.54213 -0.04315 0.40452
 H437 H 0.58091 -0.11856 0.27822
 H438 H 0.58741 -0.05135 0.41672
 H439 H 0.64468 -0.09575 0.28946
 H440 H 0.52587 -0.04407 0.38661
 C441 C -0.13152 1.07411 -0.23876
 C442 C -0.12324 1.09000 -0.21345
 C443 C -0.11448 1.07461 -0.18515
 N444 N -0.10441 1.09149 -0.16220
 N445 N -0.09482 1.07806 -0.13690
 C446 C -0.09498 1.04722 -0.13352
 N447 N -0.10546 1.03030 -0.15633
 N448 N -0.11501 1.04375 -0.18173
 C449 C -0.08249 1.03236 -0.10631
 C450 C -0.06679 1.04930 -0.08552
 H451 H -0.12189 1.11461 -0.21458
 H452 H -0.08379 1.00780 -0.10370
 H453 H -0.13329 1.04950 -0.23752
 H454 H -0.06472 1.07373 -0.08903
 C455 C 1.10262 0.61384 0.72412
 C456 C 1.10576 0.58381 0.71538
 C457 C 1.09627 0.57398 0.68553
 N458 N 1.08969 0.54426 0.68097
 N459 N 1.08079 0.53517 0.65408
 C460 C 1.07854 0.55544 0.63067
 N461 N 1.08555 0.58507 0.63513
 N462 N 1.09410 0.59421 0.66209
 C463 C 1.06852 0.54592 0.60089
 C464 C 1.05099 0.52014 0.59699
 H465 H 1.11387 0.56675 0.73133
 H466 H 1.07297 0.56096 0.58186
 H467 H 1.09180 0.63020 0.70917
 H468 H 1.04410 0.50670 0.61635
 C469 C 0.80044 0.60584 0.63272
 C470 C 0.80982 0.60695 0.60322
 C471 C 0.83497 0.58895 0.59346
 N472 N 0.84232 0.58941 0.56417
 N473 N 0.86473 0.57286 0.55489
 C474 C 0.88059 0.55516 0.57453
 N475 N 0.87324 0.55469 0.60385
 N476 N 0.85080 0.57124 0.61314
 C477 C 0.90585 0.53742 0.56455
 C478 C 0.91453 0.53858 0.53480
 H479 H 0.79778 0.62032 0.58649
 H480 H 0.91856 0.52441 0.58105
 H481 H 0.81229 0.59199 0.64923
 H482 H 0.90193 0.55202 0.51852
 C483 C 0.72740 0.42189 1.10375
 C484 C 0.70641 0.40732 1.08609
 C485 C 0.67971 0.42272 1.07474
 N486 N 0.65657 0.40593 1.06485
 N487 N 0.63227 0.41947 1.05428
 C488 C 0.63032 0.45033 1.05294
 N489 N 0.65358 0.46714 1.06254
 N490 N 0.67780 0.45359 1.07338
 C491 C 0.60376 0.46551 1.04088
 C492 C 0.57690 0.45022 1.03854
 H493 H 0.70892 0.38340 1.08145
 H494 H 0.60513 0.48949 1.03466
 H495 H 0.72371 0.44502 1.11061
 H496 H 0.57501 0.42694 1.04698
 C497 C 0.23204 1.09886 -0.08870
 C498 C 0.20598 1.09006 -0.10284
 C499 C 0.18017 1.07954 -0.08588
 N500 N 0.15289 1.08148 -0.09848
 N501 N 0.12939 1.07142 -0.08360
 C502 C 0.13238 1.05869 -0.05569
 N503 N 0.15970 1.05648 -0.04320
 N504 N 0.18316 1.06691 -0.05793
 C505 C 0.10679 1.04619 -0.03964
 C506 C 0.07828 1.05629 -0.04581
 H507 H 0.20400 1.09212 -0.12699
 H508 H 0.11055 1.02902 -0.02217
 H509 H 0.23303 1.09994 -0.06452
 H510 H 0.07479 1.07548 -0.06117
 C511 C 0.27673 -0.09265 0.38894
 C512 C 0.28922 -0.09821 0.41722
 C513 C 0.31820 -0.08590 0.42564
 N514 N 0.32894 -0.09044 0.45389
 N515 N 0.35506 -0.07904 0.46185
 C516 C 0.37134 -0.06274 0.44176
 N517 N 0.36063 -0.05832 0.41352
 N518 N 0.33455 -0.06966 0.40559
 C519 C 0.39998 -0.04957 0.44984
 C520 C 0.41234 -0.05183 0.47856
 H521 H 0.27735 -0.11145 0.43391
 H522 H 0.41160 -0.03713 0.43235
 H523 H 0.28856 -0.07905 0.37244
 H524 H 0.40095 -0.06412 0.49630
 C525 C 0.62765 -0.23278 0.60164
 C526 C 0.60308 -0.21636 0.61011
 C527 C 0.59353 -0.18845 0.59374
 N528 N 0.56859 -0.17409 0.60179
 N529 N 0.55976 -0.14878 0.58724
 C530 C 0.57559 -0.13683 0.56414
 N531 N 0.60056 -0.15116 0.55615
 N532 N 0.60935 -0.17649 0.57065
 C533 C 0.56622 -0.10888 0.54778
 C534 C 0.53988 -0.09419 0.55375
 H535 H 0.59037 -0.22409 0.62918
 H536 H 0.58031 -0.09987 0.53027
 H537 H 0.63994 -0.22523 0.58220
 H538 H 0.52552 -0.10349 0.57089
 C539 C 1.10625 0.74898 0.42578
 C540 C 1.08156 0.73211 0.41756
 C541 C 1.07464 0.70240 0.43163
 N542 N 1.04970 0.68750 0.42351
 N543 N 1.04347 0.66014 0.43539
 C544 C 1.06199 0.64663 0.45575
 N545 N 1.08694 0.66154 0.46389
 N546 N 1.09316 0.68895 0.45206
 C547 C 1.05562 0.61616 0.46849
 C548 C 1.02959 0.60082 0.46168
 H549 H 1.06698 0.74057 0.39993
 H550 H 1.07179 0.60558 0.48340
 H551 H 1.12027 0.74097 0.44409
 H552 H 1.01317 0.61173 0.44728
 C553 C -0.11506 1.24165 0.08686
 C554 C -0.09476 1.22155 0.10003
 C555 C -0.08113 1.19692 0.08363
 N556 N -0.06532 1.17531 0.09886
 N557 N -0.05272 1.15276 0.08446
 C558 C -0.05526 1.15116 0.05424
 N559 N -0.07081 1.17296 0.03895
 N560 N -0.08357 1.19543 0.05338
 C561 C -0.04224 1.12588 0.03819
 C562 C -0.03253 1.09950 0.05318
 H563 H -0.08892 1.22342 0.12346
 H564 H -0.04248 1.12705 0.01394
 H565 H -0.12234 1.23870 0.06394
 H566 H -0.03412 1.09753 0.07732
 C567 C 0.40080 0.26239 0.88070
 C568 C 0.39977 0.27334 0.90966
 C569 C 0.41225 0.30320 0.91738
 N570 N 0.41485 0.31096 0.94649
 N571 N 0.42588 0.33799 0.95379
 C572 C 0.43460 0.35836 0.93222
 N573 N 0.43185 0.35066 0.90311
 N574 N 0.42097 0.32357 0.89581
 C575 C 0.44631 0.38856 0.93984
 C576 C 0.45354 0.39612 0.96915
 H577 H 0.39010 0.25946 0.92737
 H578 H 0.44956 0.40517 0.92182
 H579 H 0.41190 0.27561 0.86340
 H580 H 0.45151 0.37910 0.98702
 C581 C 0.62923 0.60533 0.79128
 C582 C 0.59933 0.60119 0.79638
 C583 C 0.58918 0.58381 0.82293
 N584 N 0.56113 0.57313 0.82419
 N585 N 0.55206 0.55689 0.84799
 C586 C 0.57073 0.55080 0.87139
 N587 N 0.59867 0.56168 0.87020
 N588 N 0.60777 0.57773 0.84636
 C589 C 0.56080 0.53449 0.89857
 C590 C 0.53354 0.51993 0.90027
 H591 H 0.58332 0.60891 0.77972
 H592 H 0.57485 0.53536 0.91832
 H593 H 0.64512 0.59533 0.80687
 H594 H 0.51998 0.51786 0.88029
 C595 C 0.38003 0.07901 0.72513
 C596 C 0.40368 0.08929 0.70798
 C597 C 0.41500 0.07265 0.68243
 N598 N 0.43700 0.08517 0.66594
 N599 N 0.44774 0.07067 0.64273
 C600 C 0.43696 0.04297 0.63513
 N601 N 0.41500 0.03033 0.65170
 N602 N 0.40420 0.04490 0.67493
 C603 C 0.44858 0.02703 0.60919
 C604 C 0.46907 0.04096 0.59025
 H605 H 0.41442 0.11057 0.71320
 H606 H 0.44030 0.00447 0.60444
 H607 H 0.36884 0.05804 0.71953
 H608 H 0.47656 0.06389 0.59471
 C609 C 0.09055 0.90419 0.23539
 C610 C 0.10419 0.92007 0.21198
 C611 C 0.08728 0.93175 0.18589
 N612 N 0.10135 0.94113 0.16066
 N613 N 0.08614 0.95170 0.13691
 C614 C 0.05632 0.95347 0.13766
 N615 N 0.04230 0.94436 0.16297
 N616 N 0.05748 0.93359 0.18661
 C617 C 0.03908 0.96532 0.11192
 C618 C 0.05095 0.96930 0.08349
 H619 H 0.12783 0.92324 0.21231
 H620 H 0.01603 0.97014 0.11530
 H621 H 0.06720 0.89922 0.23394
 H622 H 0.07353 0.96291 0.07957
 C623 C 0.90210 0.39259 0.26979
 C624 C 0.89717 0.41937 0.28487
 C625 C 0.91437 0.42690 0.31185
 N626 N 0.90998 0.45371 0.32546
 N627 N 0.92547 0.46070 0.34989
 C628 C 0.94593 0.44113 0.36159
 N629 N 0.95030 0.41433 0.34799
 N630 N 0.93483 0.40736 0.32356
 C631 C 0.96290 0.44825 0.38879
 C632 C 0.95939 0.47558 0.40338
 H633 H 0.88067 0.43532 0.27666
 H634 H 0.97810 0.43133 0.39781
 H635 H 0.91898 0.37703 0.27796
 H636 H 0.94425 0.49251 0.39426
   
