data_POSCAR
  _audit_creation_date              2014-09-24
  _audit_creation_method            'ToBaCCo'
  _symmetry_space_group_name_H-M    'P1'
  _symmetry_Int_Tables_number       1
  _symmetry_cell_setting            triclinic
  loop_
  _symmetry_equiv_pos_as_xyz
 x,y,z
_cell_length_a 32.1458
_cell_length_b 32.0598
_cell_length_c 23.0343
_cell_angle_alpha 89.971500
_cell_angle_beta 89.642100
_cell_angle_gamma 87.837300
loop_
  _atom_site_label
  _atom_site_type_symbol
  _atom_site_fract_x
  _atom_site_fract_y
  _atom_site_fract_z
C1 C -0.04035 0.25846 0.04696
 C2 C -0.03976 0.26127 -0.01504
 C3 C -0.00074 0.26118 -0.04375
 C4 C 0.03741 0.25380 -0.01454
 C5 C 0.03546 0.24491 0.04569
 C6 C -0.00263 0.24833 0.07538
 H7 H -0.00172 0.24472 0.12202
 H8 H -0.00044 0.26589 -0.08976
 C9 C 0.46077 0.76706 0.55161
 C10 C 0.46262 0.76242 0.49037
 C11 C 0.50187 0.76200 0.46263
 C12 C 0.53869 0.76796 0.49386
 C13 C 0.53614 0.77471 0.55450
 C14 C 0.49743 0.77329 0.58261
 H15 H 0.49556 0.77797 0.62918
 H16 H 0.50384 0.75472 0.41688
 C17 C 1.04404 0.73907 0.04580
 C18 C 1.04340 0.73610 -0.01631
 C19 C 1.00461 0.73431 -0.04469
 C20 C 0.96648 0.73629 -0.01436
 C21 C 0.96717 0.74068 0.04676
 C22 C 1.00544 0.74119 0.07554
 H23 H 1.00497 0.74541 0.12224
 H24 H 1.00461 0.72873 -0.09099
 C25 C 0.54037 0.22407 0.53850
 C26 C 0.53463 0.21507 0.47905
 C27 C 0.49491 0.21936 0.45473
 C28 C 0.46046 0.23254 0.48843
 C29 C 0.46554 0.24031 0.54839
 C30 C 0.50550 0.23664 0.57246
 H31 H 0.50911 0.24454 0.61774
 H32 H 0.49105 0.21379 0.40867
 C33 C 0.71762 -0.03749 0.05436
 C34 C 0.70517 -0.03577 -0.00484
 C35 C 0.70126 0.00267 -0.03354
 C36 C 0.71037 0.03993 -0.00579
 C37 C 0.72247 0.03903 0.05299
 C38 C 0.72586 0.00051 0.08244
 H39 H 0.73720 0.00052 0.12632
 H40 H 0.69096 0.00353 -0.07828
 C41 C 0.24327 0.46517 0.49821
 C42 C 0.25102 0.47006 0.43800
 C43 C 0.25438 0.51027 0.41499
 C44 C 0.24946 0.54651 0.44960
 C45 C 0.24344 0.54145 0.51032
 C46 C 0.24059 0.50111 0.53348
 H47 H 0.23779 0.49800 0.58013
 H48 H 0.26220 0.51254 0.36946
 C49 C 0.29185 1.04406 0.00052
 C50 C 0.27762 1.04471 -0.05839
 C51 C 0.27187 1.00607 -0.08668
 C52 C 0.28110 0.96736 -0.05988
 C53 C 0.29655 0.96719 -0.00266
 C54 C 0.30159 1.00505 0.02647
 H55 H 0.31534 1.00377 0.06924
 H56 H 0.25724 1.00571 -0.12846
 C57 C 0.76009 0.54085 0.55362
 C58 C 0.77228 0.53615 0.49496
 C59 C 0.77447 0.49621 0.47009
 C60 C 0.76451 0.46055 0.50254
 C61 C 0.75318 0.46555 0.56190
 C62 C 0.75008 0.50553 0.58602
 H63 H 0.73956 0.50897 0.63061
 H64 H 0.78534 0.49308 0.42571
 O65 O 0.23702 0.26521 0.18072
 O66 O 0.31533 0.23402 0.28908
 O67 O 0.28643 0.19932 0.19445
 O68 O 0.26169 0.29611 0.27911
 O69 O 0.21397 0.26245 0.32774
 O70 O 0.24013 0.16644 0.24690
 O71 O 0.26851 0.20021 0.33941
 O72 O 0.19008 0.23039 0.22924
 Cu73 Cu 0.27990 0.25192 0.23085
 Cu74 Cu 0.22335 0.21182 0.29087
 C75 C 0.20030 0.25273 0.18610
 C76 C 0.30544 0.21220 0.33265
 C77 C 0.26727 0.16632 0.20680
 C78 C 0.23344 0.29543 0.31808
 O79 O 0.76360 0.81373 0.28761
 O80 O 0.76913 0.70507 0.34054
 O81 O 0.82063 0.75311 0.28815
 O82 O 0.71251 0.76511 0.34118
 O83 O 0.68896 0.74409 0.25663
 O84 O 0.79698 0.73189 0.20374
 O85 O 0.74510 0.68321 0.25673
 O86 O 0.74038 0.79156 0.20352
 Cu87 Cu 0.76879 0.76149 0.32283
 Cu88 Cu 0.74067 0.73538 0.22167
 C89 C 0.75094 0.82112 0.23637
 C90 C 0.75782 0.67569 0.30787
 C91 C 0.82710 0.74063 0.23653
 C92 C 0.68239 0.75665 0.30820
 O93 O 0.81506 0.23688 0.28857
 O94 O 0.70620 0.23517 0.33972
 O95 O 0.75709 0.18265 0.29060
 O96 O 0.76468 0.28941 0.34569
 O97 O 0.74316 0.31553 0.26191
 O98 O 0.73569 0.20862 0.20657
 O99 O 0.68465 0.26218 0.25640
 O100 O 0.79292 0.26341 0.20536
 Cu101 Cu 0.76316 0.23389 0.32484
 Cu102 Cu 0.73714 0.26509 0.22408
 C103 C 0.82235 0.24979 0.23748
 C104 C 0.67692 0.24786 0.30644
 C105 C 0.74470 0.17753 0.23912
 C106 C 0.75467 0.32054 0.31393
 O107 O 0.29198 0.69111 0.21633
 O108 O 0.30397 0.79762 0.15840
 O109 O 0.34997 0.74742 0.22325
 O110 O 0.26205 0.73418 0.12689
 O111 O 0.21858 0.75896 0.19427
 O112 O 0.30826 0.77105 0.29346
 O113 O 0.26216 0.82192 0.22794
 O114 O 0.24986 0.71699 0.28445
 Cu115 Cu 0.30564 0.74019 0.17585
 Cu116 Cu 0.25596 0.76934 0.25612
 C117 C 0.26906 0.68615 0.26103
 C118 C 0.28436 0.82798 0.18342
 C119 C 0.34471 0.76126 0.27431
 C120 C 0.22553 0.74513 0.14284
 O121 O 0.69492 0.25061 0.75932
 O122 O 0.80030 0.25553 0.81525
 O123 O 0.75840 0.29612 0.73408
 O124 O 0.74243 0.19974 0.81927
 O125 O 0.76462 0.16249 0.74367
 O126 O 0.78322 0.25702 0.66176
 O127 O 0.82511 0.21636 0.74342
 O128 O 0.71844 0.21385 0.68417
 Cu129 Cu 0.74688 0.25425 0.78934
 Cu130 Cu 0.77557 0.20924 0.70228
 C131 C 0.68842 0.23143 0.71257
 C132 C 0.83063 0.23671 0.78997
 C133 C 0.77401 0.29253 0.68310
 C134 C 0.75049 0.16452 0.79501
 O135 O 0.27897 0.76448 0.68060
 O136 O 0.18813 0.74768 0.77471
 O137 O 0.22277 0.70896 0.68200
 O138 O 0.24375 0.80496 0.76571
 O139 O 0.20586 0.84183 0.70298
 O140 O 0.18163 0.74621 0.62386
 O141 O 0.14931 0.78635 0.71530
 O142 O 0.23965 0.80044 0.61857
 Cu143 Cu 0.23684 0.75243 0.73206
 Cu144 Cu 0.18967 0.79701 0.65933
 C145 C 0.27500 0.78536 0.63394
 C146 C 0.15350 0.76562 0.76210
 C147 C 0.19961 0.71171 0.63736
 C148 C 0.22920 0.83996 0.74716
 O149 O 0.15740 0.25017 0.72481
 O150 O 0.25040 0.22794 0.63566
 O151 O 0.20961 0.18613 0.71107
 O152 O 0.20161 0.29285 0.65066
 O153 O 0.23661 0.31610 0.72550
 O154 O 0.25023 0.20904 0.78018
 O155 O 0.28959 0.25371 0.70443
 O156 O 0.19626 0.26916 0.79829
 Cu157 Cu 0.20048 0.23719 0.67363
 Cu158 Cu 0.24714 0.26446 0.75912
 C159 C 0.16083 0.26219 0.77696
 C160 C 0.28577 0.23740 0.65442
 C161 C 0.23192 0.17946 0.75568
 C162 C 0.21787 0.32255 0.67790
 O163 O 0.70672 0.77063 0.70565
 O164 O 0.81555 0.76527 0.75484
 O165 O 0.76618 0.71397 0.70434
 O166 O 0.75466 0.82116 0.75995
 O167 O 0.73187 0.79600 0.84307
 O168 O 0.74762 0.68893 0.78968
 O169 O 0.79466 0.74172 0.83984
 O170 O 0.68605 0.74349 0.78862
 Cu171 Cu 0.76290 0.77027 0.72271
 Cu172 Cu 0.73803 0.74028 0.82399
 C173 C 0.67797 0.75736 0.73811
 C174 C 0.82366 0.75265 0.80587
 C175 C 0.75885 0.68329 0.73739
 C176 C 0.74074 0.82673 0.81111
 C177 C 0.29712 0.08127 0.03305
 C178 C 0.29275 0.08357 0.09106
 C179 C 0.29199 0.12407 0.12203
 C180 C 0.27539 0.12679 0.17534
 H181 H 0.28473 0.05625 0.11580
 H182 H 0.30182 0.15191 0.09990
 H183 H 0.30227 0.11033 0.01095
 H184 H 0.26376 0.09888 0.19538
 C185 C 0.75608 0.58292 0.58010
 C186 C 0.76426 0.59019 0.63582
 C187 C 0.76182 0.63299 0.65818
 C188 C 0.76277 0.64058 0.71498
 H189 H 0.77358 0.56493 0.66474
 H190 H 0.75812 0.65866 0.62771
 H191 H 0.74754 0.60913 0.55232
 H192 H 0.76439 0.61491 0.74565
 C193 C 0.72328 0.92326 0.08252
 C194 C 0.73318 0.91667 0.13849
 C195 C 0.73712 0.87344 0.16050
 C196 C 0.74827 0.86455 0.21509
 H197 H 0.73769 0.94185 0.16862
 H198 H 0.73049 0.84815 0.13111
 H199 H 0.71951 0.89535 0.05712
 H200 H 0.75541 0.88951 0.24470
 C201 C 0.24187 0.42286 0.52486
 C202 C 0.22185 0.41484 0.57456
 C203 C 0.22101 0.37202 0.59744
 C204 C 0.21574 0.36503 0.65408
 H205 H 0.20580 0.43953 0.59879
 H206 H 0.22687 0.34595 0.56812
 H207 H 0.25772 0.39699 0.50274
 H208 H 0.21356 0.39107 0.68408
 C209 C 0.92250 0.26616 0.07963
 C210 C 0.91569 0.25373 0.13454
 C211 C 0.87430 0.26120 0.16131
 C212 C 0.86530 0.24748 0.21461
 H213 H 0.93858 0.23538 0.15862
 H214 H 0.85004 0.27652 0.13560
 H215 H 0.89698 0.28347 0.05962
 H216 H 0.88941 0.23238 0.24073
 C217 C 0.42223 0.76313 0.58635
 C218 C 0.38597 0.78268 0.57373
 C219 C 0.34933 0.77646 0.61085
 C220 C 0.31165 0.79228 0.59699
 H221 H 0.38328 0.80296 0.53618
 H222 H 0.35323 0.75788 0.64993
 H223 H 0.42466 0.74491 0.62597
 H224 H 0.30755 0.81049 0.55764
 C225 C 0.07959 0.74053 0.08224
 C226 C 0.11925 0.74706 0.06753
 C227 C 0.15154 0.74798 0.11312
 C228 C 0.19188 0.74299 0.09970
 H229 H 0.12871 0.75359 0.02371
 H230 H 0.14217 0.75208 0.15813
 H231 H 0.07397 0.73721 0.12855
 H232 H 0.20085 0.73712 0.05490
 C233 C 0.58329 0.22352 0.56272
 C234 C 0.59234 0.22036 0.61904
 C235 C 0.63598 0.22031 0.63784
 C236 C 0.64533 0.22957 0.69241
 H237 H 0.56813 0.21794 0.65155
 H238 H 0.66067 0.21431 0.60628
 H239 H 0.60915 0.22607 0.53270
 H240 H 0.62054 0.23775 0.72296
 C241 C 0.70763 0.07967 0.96111
 C242 C 0.72376 0.08264 0.90779
 C243 C 0.72648 0.12318 0.87831
 C244 C 0.74419 0.12515 0.82590
 H245 H 0.73744 0.05505 0.88687
 H246 H 0.71510 0.15141 0.90000
 H247 H 0.69541 0.10763 0.98264
 H248 H 0.75502 0.09655 0.80460
 C249 C 0.25369 0.58881 0.42316
 C250 C 0.25122 0.59645 0.36588
 C251 C 0.25591 0.63863 0.34208
 C252 C 0.26498 0.64423 0.28583
 H253 H 0.24522 0.57198 0.33522
 H254 H 0.25263 0.66527 0.37097
 H255 H 0.25921 0.61487 0.45158
 H256 H 0.27097 0.61746 0.25788
 C257 C 0.27141 0.92705 0.91089
 C258 C 0.26612 0.92238 0.85360
 C259 C 0.25580 0.88159 0.82862
 C260 C 0.23976 0.87944 0.77535
 H261 H 0.26937 0.94835 0.82417
 H262 H 0.26051 0.85345 0.85425
 H263 H 0.26779 0.89972 0.93783
 H264 H 0.23330 0.90807 0.75141
 C265 C 0.76587 0.41864 0.47464
 C266 C 0.76090 0.41258 0.41767
 C267 C 0.76246 0.37004 0.39374
 C268 C 0.75552 0.36307 0.33756
 H269 H 0.75455 0.43856 0.38863
 H270 H 0.76861 0.34396 0.42286
 H271 H 0.76976 0.39125 0.50163
 H272 H 0.74877 0.38910 0.30861
 C273 C 0.07613 0.25295 0.95503
 C274 C 0.08142 0.26726 0.90061
 C275 C 0.12168 0.26334 0.86966
 C276 C 0.12271 0.26807 0.81194
 H277 H 0.05630 0.28257 0.87703
 H278 H 0.14984 0.25489 0.89323
 H279 H 0.10360 0.24020 0.97654
 H280 H 0.09382 0.27373 0.78865
 C281 C 0.58033 0.76351 0.46515
 C282 C 0.58766 0.76875 0.40843
 C283 C 0.63071 0.76472 0.38630
 C284 C 0.63923 0.76131 0.32968
 H285 H 0.56272 0.77661 0.37858
 H286 H 0.65600 0.76358 0.41729
 H287 H 0.60681 0.75543 0.49236
 H288 H 0.61406 0.76056 0.29865
 C289 C 0.92803 0.73198 0.95685
 C290 C 0.92082 0.73935 0.90039
 C291 C 0.87787 0.73743 0.87840
 C292 C 0.86727 0.75129 0.82562
 H293 H 0.94495 0.74994 0.87158
 H294 H 0.85397 0.72603 0.90714
 H295 H 0.90131 0.72370 0.98268
 H296 H 0.89094 0.76287 0.79671
 C297 C 0.42123 0.24320 0.45812
 C298 C 0.40117 0.21471 0.42807
 C299 C 0.36614 0.22726 0.39055
 C300 C 0.33738 0.20042 0.37544
 H301 H 0.41159 0.18216 0.42965
 H302 H 0.36428 0.25899 0.37411
 H303 H 0.40937 0.27528 0.45957
 H304 H 0.33708 0.16970 0.39504
 C305 C 0.69740 0.92608 0.96140
 C306 C 0.71635 0.91881 0.91050
 C307 C 0.71549 0.87748 0.88345
 C308 C 0.73595 0.86935 0.83393
 H309 H 0.73559 0.94229 0.89129
 H310 H 0.69995 0.85275 0.90611
 H311 H 0.67891 0.90210 0.98079
 H312 H 0.75070 0.89425 0.81060
 C313 C 0.25926 0.43448 0.39755
 C314 C 0.23443 0.40211 0.39299
 C315 C 0.24492 0.36710 0.35311
 C316 C 0.22273 0.33264 0.35365
 H317 H 0.20666 0.40099 0.41980
 H318 H 0.27184 0.36889 0.32476
 H319 H 0.28576 0.43630 0.36841
 H320 H 0.19650 0.33085 0.38325
 C321 C 0.26665 0.08300 0.91334
 C322 C 0.25851 0.08799 0.85650
 C323 C 0.25084 0.13029 0.83300
 C324 C 0.23686 0.13688 0.77914
 H325 H 0.25948 0.06234 0.82612
 H326 H 0.25715 0.15677 0.86046
 H327 H 0.26464 0.11133 0.93850
 H328 H 0.22869 0.11078 0.75216
 C329 C 0.78415 0.57302 0.46063
 C330 C 0.77008 0.58067 0.40707
 C331 C 0.77515 0.62213 0.38089
 C332 C 0.75821 0.63248 0.32979
 H333 H 0.75167 0.55796 0.38500
 H334 H 0.79098 0.64547 0.40563
 H335 H 0.80114 0.59690 0.48260
 H336 H 0.74282 0.60914 0.30454
 C337 C 0.08118 0.73136 0.94613
 C338 C 0.08366 0.75175 0.89534
 C339 C 0.11961 0.74689 0.85535
 C340 C 0.11775 0.76437 0.80245
 H341 H 0.05831 0.77308 0.88278
 H342 H 0.14766 0.73018 0.86958
 H343 H 0.10618 0.70975 0.95884
 H344 H 0.08923 0.78071 0.78914
 C345 C 0.57061 0.20318 0.44165
 C346 C 0.58012 0.22575 0.39509
 C347 C 0.62222 0.22225 0.36994
 C348 C 0.63346 0.24675 0.32618
 H349 H 0.55856 0.25013 0.37986
 H350 H 0.64513 0.20116 0.38987
 H351 H 0.59314 0.18010 0.45798
 H352 H 0.61041 0.26690 0.30488
 C353 C 0.92268 0.26180 0.95236
 C354 C 0.91966 0.25421 0.89508
 C355 C 0.87834 0.25424 0.86781
 C356 C 0.87256 0.23808 0.81509
 H357 H 0.94631 0.24563 0.86831
 H358 H 0.85180 0.26670 0.89239
 H359 H 0.89320 0.26530 0.97457
 H360 H 0.89872 0.22448 0.79090
 C361 C 0.42453 0.75527 0.45566
 C362 C 0.42004 0.76888 0.40099
 C363 C 0.38142 0.76324 0.36811
 C364 C 0.38174 0.76664 0.31030
 H365 H 0.44496 0.78507 0.37989
 H366 H 0.35311 0.75547 0.39084
 H367 H 0.39901 0.73945 0.47585
 H368 H 0.41093 0.77159 0.28794
 C369 C 0.30781 0.92740 0.02725
 C370 C 0.29704 0.92050 0.08242
 C371 C 0.30258 0.87874 0.10831
 C372 C 0.28577 0.87054 0.16001
 H373 H 0.28096 0.94496 0.10727
 H374 H 0.31787 0.85392 0.08323
 H375 H 0.32225 0.90213 0.00213
 H376 H 0.26966 0.89538 0.18410
 C377 C 0.74302 0.43043 0.60052
 C378 C 0.77104 0.40003 0.61282
 C379 C 0.76120 0.36549 0.65208
 C380 C 0.78283 0.32932 0.64782
 H381 H 0.80146 0.39994 0.59214
 H382 H 0.73526 0.36887 0.68222
 H383 H 0.71323 0.43160 0.62290
 H384 H 0.80667 0.32559 0.61449
 C385 C 0.73437 0.07822 0.08164
 C386 C 0.73015 0.08560 0.13839
 C387 C 0.73782 0.12743 0.16073
 C388 C 0.74015 0.13498 0.21740
 H389 H 0.71900 0.06207 0.16776
 H390 H 0.74113 0.15277 0.12999
 H391 H 0.74549 0.10309 0.05444
 H392 H 0.73877 0.10956 0.24833
 C393 C 0.24486 0.57631 0.55273
 C394 C 0.21759 0.60892 0.55357
 C395 C 0.22035 0.64192 0.59836
 C396 C 0.19426 0.67548 0.59865
 H397 H 0.19350 0.61139 0.52089
 H398 H 0.24526 0.63961 0.62985
 H399 H 0.26750 0.57311 0.58730
 H400 H 0.17026 0.67820 0.56587
 C401 C 0.92778 0.74903 0.07980
 C402 C 0.92038 0.73516 0.13346
 C403 C 0.87806 0.74027 0.15778
 C404 C 0.87006 0.73640 0.21437
 H405 H 0.94430 0.71837 0.15793
 H406 H 0.85263 0.74775 0.12832
 H407 H 0.90283 0.76627 0.05785
 H408 H 0.89535 0.73160 0.24483
 C409 C 0.43027 0.25220 0.58761
 C410 C 0.39395 0.23336 0.58535
 C411 C 0.35951 0.24394 0.62582
 C412 C 0.32210 0.22852 0.61679
 H413 H 0.38959 0.20905 0.55355
 H414 H 0.36448 0.26463 0.66212
 H415 H 0.43541 0.27460 0.62183
 H416 H 0.31742 0.20913 0.57897
 C417 C 0.07170 0.23141 0.08110
 C418 C 0.10386 0.25556 0.09046
 C419 C 0.13494 0.24340 0.13456
 C420 C 0.16954 0.26448 0.14144
 H421 H 0.10622 0.28489 0.06744
 H422 H 0.12938 0.21664 0.16198
 H423 H 0.06877 0.20322 0.10662
 H424 H 0.17610 0.29011 0.11250
 C425 C 0.57391 0.78451 0.58793
 C426 C 0.58268 0.76844 0.64022
 C427 C 0.62407 0.77391 0.66571
 C428 C 0.63489 0.75675 0.71659
 H429 H 0.56079 0.74875 0.66203
 H430 H 0.64686 0.79063 0.64083
 H431 H 0.59696 0.80314 0.56660
 H432 H 0.61207 0.74049 0.74197
   
