data_POSCAR
  _audit_creation_date              2014-09-24
  _audit_creation_method            'ToBaCCo'
  _symmetry_space_group_name_H-M    'P1'
  _symmetry_Int_Tables_number       1
  _symmetry_cell_setting            triclinic
  loop_
  _symmetry_equiv_pos_as_xyz
 x,y,z
_cell_length_a 39.9766
_cell_length_b 39.9315
_cell_length_c 39.9176
_cell_angle_alpha 89.984700
_cell_angle_beta 89.996900
_cell_angle_gamma 89.900600
loop_
  _atom_site_label
  _atom_site_type_symbol
  _atom_site_fract_x
  _atom_site_fract_y
  _atom_site_fract_z
C1 C 0.16736 0.16860 0.20694
 N2 N 0.19514 0.15439 0.19346
 C3 C 0.20898 0.16752 0.16533
 N4 N 0.19498 0.19480 0.15063
 C5 C 0.16721 0.20900 0.16410
 N6 N 0.15337 0.19587 0.19222
 C7 C -0.16340 0.83484 0.21068
 N8 N -0.19151 0.84873 0.19754
 C9 C -0.20615 0.83479 0.17024
 N10 N -0.19264 0.80701 0.15602
 C11 C -0.16454 0.79313 0.16916
 N12 N -0.14990 0.80707 0.19646
 C13 C -0.16978 0.16379 -0.20854
 N14 N -0.19705 0.14918 -0.19458
 C15 C -0.21126 0.16271 -0.16681
 N16 N -0.19813 0.19080 -0.15296
 C17 C -0.17086 0.20542 -0.16692
 N18 N -0.15666 0.19188 -0.19468
 C19 C 0.16879 0.83505 -0.20725
 N20 N 0.15395 0.80734 -0.19441
 C21 C 0.16684 0.79236 -0.16675
 N22 N 0.19453 0.80516 -0.15186
 C23 C 0.20938 0.83288 -0.16469
 N24 N 0.19648 0.84785 -0.19236
 C25 C 0.16861 1.16674 0.79354
 N26 N 0.15439 1.19446 0.80716
 C27 C 0.16759 1.20829 0.83525
 N28 N 0.19496 1.19433 0.84977
 C29 C 0.20918 1.16662 0.83617
 N30 N 0.19598 1.15279 0.80808
 C31 C 0.83452 0.83621 0.78925
 N32 N 0.84839 0.80809 0.80242
 C33 C 0.83449 0.79345 0.82975
 N34 N 0.80676 0.80701 0.84398
 C35 C 0.79289 0.83512 0.83082
 N36 N 0.80679 0.84975 0.80349
 C37 C 0.16407 0.83178 1.20920
 N38 N 0.14952 0.80445 1.19527
 C39 C 0.16315 0.79013 1.16762
 N40 N 0.19127 0.80320 1.15383
 C41 C 0.20583 0.83053 1.16775
 N42 N 0.19220 0.84485 1.19541
 C43 C 0.83505 1.16832 1.20848
 N44 N 0.80741 1.15346 1.19558
 C45 C 0.79256 1.16631 1.16784
 N46 N 0.80541 1.19399 1.15293
 C47 C 0.83306 1.20888 1.16581
 N48 N 0.84791 1.19601 1.19357
 O49 O 0.54730 0.93831 0.94249
 O50 O 0.58398 0.96874 0.97463
 C51 C 0.57722 0.94722 0.95135
 O52 O 0.45299 1.05745 0.94517
 O53 O 0.41639 1.02555 0.97596
 C54 C 0.42309 1.04860 0.95417
 O55 O 0.54705 1.05435 0.94194
 O56 O 0.58385 1.02418 0.97432
 C57 C 0.57701 1.04557 0.95092
 O58 O 0.45338 0.93488 0.94584
 O59 O 0.41667 0.96785 0.97548
 C60 C 0.42344 0.94427 0.95426
 Zr61 Zr 0.50026 0.95379 0.96181
 O62 O 0.49695 0.95147 0.90895
 O63 O 0.50203 0.90106 0.96597
 Zr64 Zr 0.50008 1.03868 0.96106
 O65 O 0.49622 1.03825 0.90816
 O66 O 0.50376 1.09157 0.96091
 O67 O 0.52987 0.99621 0.95479
 O68 O 0.47121 0.99620 0.95532
 O69 O 0.45339 0.93533 1.06200
 O70 O 0.41658 0.96765 1.03170
 C71 C 0.42342 0.94437 1.05324
 O72 O 0.54729 1.05517 1.06451
 O73 O 0.58396 1.02458 1.03239
 C74 C 0.57721 1.04630 1.05551
 O75 O 0.45327 1.05818 1.06175
 O76 O 0.41660 1.02540 1.03204
 C77 C 0.42335 1.04895 1.05326
 O78 O 0.54749 0.93869 1.06527
 O79 O 0.58404 0.96903 1.03285
 C80 C 0.57738 0.94758 1.05625
 Zr81 Zr 0.50038 0.95442 1.04633
 O82 O 0.49670 0.95489 1.09924
 O83 O 0.50367 0.90152 1.04640
 Zr84 Zr 0.50025 1.03925 1.04577
 O85 O 0.49664 1.03957 1.09868
 O86 O 0.50391 1.09213 1.04507
 Zr87 Zr 0.54992 0.99659 1.00363
 Zr88 Zr 0.45052 0.99660 1.00379
 O89 O 0.47132 0.99685 1.05223
 O90 O 0.53010 0.99688 1.05258
 O91 O 0.47042 0.94771 1.00411
 O92 O 0.52920 1.04507 1.00332
 O93 O 0.52954 0.94806 1.00403
 O94 O 0.47030 1.04552 1.00343
 H95 H 0.45616 0.99611 0.93560
 H96 H 0.54435 1.06468 1.00315
 H97 H 0.45621 0.99686 1.07191
 H98 H 0.54484 0.92851 1.00409
 H99 H 0.48499 1.10040 0.97443
 H100 H 0.48492 1.10077 1.03171
 H101 H 0.51523 1.02578 1.10749
 H102 H 0.51541 0.96855 1.10788
 H103 H 0.48781 0.89323 1.02928
 H104 H 0.50212 0.89235 0.94273
 H105 H 0.51310 0.96786 0.89990
 H106 H 0.51508 1.02478 0.89942
 O107 O 0.05462 0.54671 -0.06466
 O108 O 0.02430 0.58349 -0.03240
 C109 C 0.04587 0.57669 -0.05562
 O110 O -0.06482 0.45291 -0.06185
 O111 O -0.03273 0.41609 -0.03138
 C112 C -0.05591 0.42292 -0.05298
 O113 O -0.06152 0.54709 -0.06491
 O114 O -0.03121 0.58368 -0.03254
 C115 C -0.05266 0.57701 -0.05589
 O116 O 0.05780 0.45258 -0.06138
 O117 O 0.02530 0.41590 -0.03127
 C118 C 0.04871 0.42263 -0.05265
 Zr119 Zr 0.03885 0.49966 -0.04563
 O120 O 0.04039 0.49634 -0.09853
 O121 O 0.09157 0.50117 -0.04215
 Zr122 Zr -0.04587 0.49992 -0.04596
 O123 O -0.04551 0.49616 -0.09887
 O124 O -0.09868 0.50387 -0.04598
 O125 O -0.00345 0.52959 -0.05234
 O126 O -0.00352 0.47074 -0.05195
 O127 O 0.05774 0.45252 0.05444
 O128 O 0.02516 0.41586 0.02441
 C129 C 0.04859 0.42258 0.04578
 O130 O -0.06172 0.54700 0.05784
 O131 O -0.03135 0.58366 0.02557
 C132 C -0.05283 0.57694 0.04889
 O133 O -0.06500 0.45286 0.05475
 O134 O -0.03288 0.41608 0.02429
 C135 C -0.05605 0.42289 0.04592
 O136 O 0.05453 0.54660 0.05789
 O137 O 0.02413 0.58345 0.02575
 C138 C 0.04567 0.57659 0.04900
 Zr139 Zr 0.03857 0.49961 0.03900
 O140 O 0.03806 0.49577 0.09190
 O141 O 0.09141 0.50257 0.03905
 Zr142 Zr -0.04610 0.49986 0.03882
 O143 O -0.04630 0.49607 0.09172
 O144 O -0.09892 0.50383 0.03830
 Zr145 Zr -0.00360 0.54951 -0.00342
 Zr146 Zr -0.00374 0.45001 -0.00349
 O147 O -0.00380 0.47066 0.04501
 O148 O -0.00374 0.52955 0.04549
 O149 O 0.04508 0.46975 -0.00335
 O150 O -0.05205 0.52899 -0.00357
 O151 O 0.04481 0.52880 -0.00331
 O152 O -0.05257 0.47007 -0.00360
 H153 H -0.00344 0.45560 -0.07160
 H154 H -0.07159 0.54428 -0.00360
 H155 H -0.00379 0.45543 0.06462
 H156 H 0.06442 0.54395 -0.00325
 H157 H -0.10749 0.48525 -0.03226
 H158 H -0.10764 0.48484 0.02503
 H159 H -0.03224 0.51442 0.10052
 H160 H 0.02491 0.51487 0.10063
 H161 H 0.09959 0.48732 0.02131
 H162 H 0.10000 0.50110 -0.06550
 H163 H 0.02494 0.51355 -0.10741
 H164 H -0.03205 0.51500 -0.10759
 O165 O 1.06119 -0.05720 0.45302
 O166 O 1.03083 -0.02492 0.41625
 C167 C 1.05232 -0.04825 0.42304
 O168 O 0.94210 -0.05446 0.54708
 O169 O 0.97404 -0.02396 0.58388
 C170 C 0.95096 -0.04562 0.57706
 O171 O 0.94525 -0.05734 0.45295
 O172 O 0.97542 -0.02495 0.41624
 C173 C 0.95401 -0.04828 0.42299
 O174 O 1.06461 -0.05385 0.54723
 O175 O 1.03204 -0.02377 0.58396
 C176 C 1.05546 -0.04518 0.57720
 Zr177 Zr 1.04567 -0.03804 0.50017
 O178 O 1.04759 -0.09090 0.50351
 O179 O 1.09838 -0.03441 0.49849
 Zr180 Zr 0.96102 -0.03852 0.50007
 O181 O 0.96179 -0.09141 0.50381
 O182 O 0.90820 -0.03885 0.49629
 O183 O 1.00340 -0.04479 0.47029
 O184 O 1.00335 -0.04443 0.52918
 O185 O 1.06427 0.06200 0.54731
 O186 O 1.03175 0.03190 0.58401
 C187 C 1.05512 0.05329 0.57728
 O188 O 0.94461 0.06513 0.45295
 O189 O 0.97524 0.03309 0.41623
 C190 C 0.95353 0.05621 0.42298
 O191 O 0.94131 0.06186 0.54715
 O192 O 0.97367 0.03161 0.58391
 C193 C 0.95025 0.05299 0.57713
 O194 O 1.06133 0.06535 0.45320
 O195 O 1.03138 0.03284 0.41645
 C196 C 1.05275 0.05620 0.42322
 Zr197 Zr 1.04514 0.04657 0.50020
 O198 O 1.04426 0.09945 0.50397
 O199 O 1.09799 0.04680 0.49724
 Zr200 Zr 0.96052 0.04633 0.50008
 O201 O 0.96074 0.09921 0.50395
 O202 O 0.90771 0.04636 0.49623
 Zr203 Zr 1.00306 0.00412 0.45035
 Zr204 Zr 1.00295 0.00401 0.54988
 O205 O 1.00276 0.05252 0.52927
 O206 O 1.00284 0.05303 0.47024
 O207 O 1.05178 0.00422 0.53007
 O208 O 0.95465 0.00390 0.47104
 O209 O 1.05148 0.00425 0.47101
 O210 O 0.95415 0.00385 0.52986
 H211 H 1.00349 -0.06410 0.54432
 H212 H 0.93505 0.00386 0.45585
 H213 H 1.00267 0.07206 0.54456
 H214 H 1.07112 0.00420 0.45587
 H215 H 0.89933 -0.02500 0.51481
 H216 H 0.89898 0.03211 0.51451
 H217 H 0.97398 0.10799 0.48496
 H218 H 1.03133 0.10811 0.48469
 H219 H 1.10622 0.02896 0.51236
 H220 H 1.10689 -0.05773 0.49845
 H221 H 1.03170 -0.09984 0.48679
 H222 H 0.97476 -0.10009 0.48457
 C223 C 1.12762 0.08675 0.32402
 C224 C 1.10982 0.09315 0.29016
 C225 C 1.12512 0.12841 0.28923
 C226 C 1.14317 0.12224 0.32265
 C227 C 1.09712 0.10136 0.34235
 C228 C 1.11241 0.13662 0.34145
 C229 C 1.07908 0.10753 0.30892
 C230 C 1.09460 0.14303 0.30755
 C231 C 1.14063 0.14323 0.25947
 C232 C 1.15327 0.15523 0.23484
 C233 C 1.08144 0.08588 0.37166
 C234 C 1.06841 0.07263 0.39543
 H235 H 1.14103 0.06344 0.33112
 H236 H 1.10892 0.07544 0.26875
 H237 H 1.16970 0.12845 0.32796
 H238 H 1.11329 0.15431 0.36287
 H239 H 1.05254 0.10133 0.30361
 H240 H 1.08119 0.16633 0.30043
 C241 C 0.88259 -0.12183 0.34513
 C242 C 0.86200 -0.10311 0.31807
 C243 C 0.88072 -0.12280 0.29082
 C244 C 0.90107 -0.14178 0.31743
 C245 C 0.90951 -0.09453 0.34284
 C246 C 0.92825 -0.11421 0.31559
 C247 C 0.88917 -0.07557 0.31623
 C248 C 0.90765 -0.09549 0.28854
 C249 C 0.86465 -0.13837 0.26178
 C250 C 0.85143 -0.15102 0.23779
 C251 C 0.92546 -0.07848 0.37168
 C252 C 0.93852 -0.06492 0.39524
 H253 H 0.87247 -0.13249 0.36873
 H254 H 0.83458 -0.09871 0.31877
 H255 H 0.90578 -0.16918 0.31759
 H256 H 0.95567 -0.11859 0.31491
 H257 H 0.88446 -0.04816 0.31606
 H258 H 0.91778 -0.08483 0.26495
 C259 C 0.86599 0.09041 0.66721
 C260 C 0.87686 0.08491 0.70406
 C261 C 0.87368 0.12277 0.71017
 C262 C 0.86255 0.12851 0.67377
 C263 C 0.90281 0.09579 0.65760
 C264 C 0.89963 0.13365 0.66370
 C265 C 0.91392 0.09006 0.69400
 C266 C 0.91049 0.12814 0.70055
 C267 C 0.85766 0.13776 0.73958
 C268 C 0.84468 0.15004 0.76392
 C269 C 0.91932 0.08069 0.62853
 C270 C 0.93324 0.06813 0.60488
 H271 H 0.84789 0.07472 0.65316
 H272 H 0.86733 0.06503 0.72098
 H273 H 0.84125 0.14450 0.66579
 H274 H 0.90918 0.15352 0.64677
 H275 H 0.93522 0.07408 0.70199
 H276 H 0.92862 0.14381 0.71458
 C277 C 1.08365 -0.09402 0.69180
 C278 C 1.09571 -0.13087 0.69317
 C279 C 1.12814 -0.11918 0.71014
 C280 C 1.11631 -0.08257 0.70921
 C281 C 1.10093 -0.09010 0.65765
 C282 C 1.13336 -0.07839 0.67460
 C283 C 1.11276 -0.12672 0.65857
 C284 C 1.14544 -0.11528 0.67599
 C285 C 1.14298 -0.13547 0.73948
 C286 C 1.15490 -0.14891 0.76374
 C287 C 1.08533 -0.07400 0.62861
 C288 C 1.07199 -0.06082 0.60497
 H289 H 1.05806 -0.08510 0.69798
 H290 H 1.08038 -0.15262 0.70113
 H291 H 1.11793 -0.06459 0.73035
 H292 H 1.14866 -0.05663 0.66662
 H293 H 1.11112 -0.14469 0.63743
 H294 H 1.17102 -0.12421 0.66982
 C295 C 0.33459 1.13311 1.09401
 C296 C 0.29771 1.12393 1.08643
 C297 C 0.29032 1.12436 1.12420
 C298 C 0.32673 1.13379 1.13203
 C299 C 0.34291 1.09564 1.09686
 C300 C 0.33551 1.09606 1.13463
 C301 C 0.30649 1.08622 1.08904
 C302 C 0.29865 1.08689 1.12704
 C303 C 0.26089 1.14019 1.13932
 C304 C 0.23654 1.15309 1.15162
 C305 C 0.37197 1.07939 1.08151
 C306 C 0.39561 1.06569 1.06871
 H307 H 0.34970 1.15193 1.08025
 H308 H 0.28185 1.13555 1.06677
 H309 H 0.33472 1.15353 1.14987
 H310 H 0.35139 1.08443 1.15427
 H311 H 0.29849 1.06648 1.07120
 H312 H 0.28355 1.06805 1.14078
 C313 C 0.34467 0.87053 0.88360
 C314 C 0.31544 0.85304 0.90214
 C315 C 0.29053 0.87236 0.88006
 C316 C 0.31929 0.88960 0.86127
 C317 C 0.34305 0.89925 0.90915
 C318 C 0.31812 0.91854 0.88707
 C319 C 0.31430 0.88201 0.92795
 C320 C 0.28893 0.90108 0.90562
 C321 C 0.26116 0.85770 0.86380
 C322 C 0.23687 0.84591 0.85040
 C323 C 0.37210 0.91466 0.92528
 C324 C 0.39572 0.92787 0.93852
 H325 H 0.36792 0.85814 0.87474
 H326 H 0.31400 0.82594 0.90815
 H327 H 0.32101 0.89257 0.83368
 H328 H 0.31954 0.94565 0.88106
 H329 H 0.31258 0.87906 0.95556
 H330 H 0.26570 0.91349 0.91449
 C331 C 0.65727 0.87792 1.13030
 C332 C 0.68403 0.85716 1.11135
 C333 C 0.71154 0.87673 1.12972
 C334 C 0.68525 0.89726 1.14892
 C335 C 0.65837 0.90419 1.10220
 C336 C 0.68588 0.92377 1.12056
 C337 C 0.68468 0.88367 1.08303
 C338 C 0.71262 0.90300 1.10162
 C339 C 0.74132 0.86144 1.14475
 C340 C 0.76595 0.84889 1.15684
 C341 C 0.62902 0.91954 1.08644
 C342 C 0.60522 0.93226 1.07296
 H343 H 0.63418 0.86779 1.14192
 H344 H 0.68361 0.82960 1.10773
 H345 H 0.68583 0.90268 1.17618
 H346 H 0.68630 0.95133 1.12417
 H347 H 0.68412 0.87824 1.05575
 H348 H 0.73570 0.91315 1.08998
 C349 C 0.65456 1.11592 0.87593
 C350 C 0.68090 1.13760 0.89432
 C351 C 0.70876 1.11865 0.87574
 C352 C 0.68288 1.09721 0.85709
 C353 C 0.65688 1.08994 0.90423
 C354 C 0.68474 1.07099 0.88566
 C355 C 0.68277 1.11138 0.92287
 C356 C 0.71107 1.09268 0.90405
 C357 C 0.73774 1.13470 0.86008
 C358 C 0.76167 1.14789 0.84736
 C359 C 0.62812 1.07404 0.92042
 C360 C 0.60465 1.06102 0.93411
 H361 H 0.63100 1.12528 0.86455
 H362 H 0.67964 1.16516 0.89772
 H363 H 0.68326 1.09157 0.82987
 H364 H 0.68598 1.04342 0.88228
 H365 H 0.68240 1.11702 0.95010
 H366 H 0.73462 1.08330 0.91545
 C367 C 0.12203 0.34484 0.11763
 C368 C 0.10344 0.31738 0.13774
 C369 C 0.12371 0.29055 0.11903
 C370 C 0.14256 0.31754 0.09917
 C371 C 0.09513 0.34248 0.09025
 C372 C 0.11540 0.31565 0.07153
 C373 C 0.07630 0.31547 0.11011
 C374 C 0.09681 0.28820 0.09165
 C375 C 0.13944 0.26155 0.13511
 C376 C 0.15220 0.23761 0.14836
 C377 C 0.07894 0.37128 0.07431
 C378 C 0.06529 0.39482 0.06126
 H379 H 0.13222 0.36845 0.12813
 H380 H 0.09869 0.31777 0.16513
 H381 H 0.16999 0.31806 0.09485
 H382 H 0.12013 0.31527 0.04413
 H383 H 0.04887 0.31495 0.11443
 H384 H 0.08661 0.26459 0.08114
 C385 C -0.08257 0.31511 -0.11604
 C386 C -0.10239 0.28786 -0.09689
 C387 C -0.12948 0.28915 -0.12416
 C388 C -0.10989 0.31597 -0.14354
 C389 C -0.10186 0.34218 -0.09664
 C390 C -0.12895 0.34350 -0.12390
 C391 C -0.12145 0.31536 -0.07725
 C392 C -0.14880 0.31621 -0.10476
 C393 C -0.14456 0.25945 -0.13947
 C394 C -0.15669 0.23486 -0.15203
 C395 C -0.08606 0.37144 -0.08124
 C396 C -0.07258 0.39517 -0.06843
 H397 H -0.05516 0.31498 -0.12050
 H398 H -0.09162 0.26466 -0.08595
 H399 H -0.10529 0.31588 -0.17097
 H400 H -0.13970 0.36671 -0.13483
 H401 H -0.12603 0.31545 -0.04982
 H402 H -0.17621 0.31632 -0.10029
 C403 C 0.11930 0.65532 -0.12671
 C404 C 0.10140 0.68330 -0.14684
 C405 C 0.12094 0.70963 -0.12677
 C406 C 0.13909 0.68212 -0.10689
 C407 C 0.09142 0.65711 -0.10029
 C408 C 0.11096 0.68345 -0.08024
 C409 C 0.07325 0.68462 -0.12016
 C410 C 0.09306 0.71140 -0.10034
 C411 C 0.13740 0.73901 -0.14126
 C412 C 0.15090 0.76330 -0.15297
 C413 C 0.07506 0.62806 -0.08507
 C414 C 0.06168 0.60442 -0.07198
 H415 H 0.12989 0.63192 -0.13739
 H416 H 0.09765 0.68357 -0.17439
 H417 H 0.16634 0.68142 -0.10158
 H418 H 0.11471 0.68319 -0.05269
 H419 H 0.04600 0.68531 -0.12545
 H420 H 0.08245 0.73478 -0.08965
 C421 C -0.13001 0.65758 0.11351
 C422 C -0.11442 0.67727 0.14309
 C423 C -0.12280 0.71019 0.12498
 C424 C -0.13862 0.69096 0.09567
 C425 C -0.09579 0.65754 0.09600
 C426 C -0.10417 0.69047 0.07791
 C427 C -0.07996 0.67676 0.12531
 C428 C -0.08858 0.71013 0.10746
 C429 C -0.13779 0.73964 0.14094
 C430 C -0.15005 0.76399 0.15390
 C431 C -0.08065 0.62842 0.07959
 C432 C -0.06805 0.60474 0.06577
 H433 H -0.14687 0.63564 0.11582
 H434 H -0.11880 0.67217 0.17007
 H435 H -0.16290 0.69714 0.08365
 H436 H -0.09978 0.69557 0.05093
 H437 H -0.05566 0.67058 0.13731
 H438 H -0.07170 0.73206 0.10515
 C439 C 1.12795 0.12413 0.65695
 C440 C 1.10877 0.14404 0.68420
 C441 C 1.12810 0.12473 0.71131
 C442 C 1.14752 0.10505 0.68453
 C443 C 1.10074 0.09704 0.65821
 C444 C 1.12006 0.07772 0.68532
 C445 C 1.08134 0.11671 0.68500
 C446 C 1.10089 0.09764 0.71254
 C447 C 1.14307 0.14011 0.74105
 C448 C 1.15517 0.15268 0.76567
 C449 C 1.08508 0.08155 0.62889
 C450 C 1.07170 0.06872 0.60511
 H451 H 1.13890 0.13484 0.63375
 H452 H 1.10429 0.17149 0.68407
 H453 H 1.17491 0.10043 0.68469
 H454 H 1.12453 0.05027 0.68544
 H455 H 1.05394 0.12134 0.68486
 H456 H 1.08991 0.08691 0.73572
 C457 C 0.88748 -0.07167 0.68575
 C458 C 0.85820 -0.09700 0.68399
 C459 C 0.87675 -0.11954 0.70909
 C460 C 0.90577 -0.09447 0.71129
 C461 C 0.90491 -0.09055 0.65710
 C462 C 0.92344 -0.11309 0.68221
 C463 C 0.87589 -0.11562 0.65488
 C464 C 0.89419 -0.13841 0.68044
 C465 C 0.86124 -0.13570 0.73813
 C466 C 0.84862 -0.14895 0.76212
 C467 C 0.92089 -0.07447 0.62829
 C468 C 0.93439 -0.06128 0.60477
 H469 H 0.88490 -0.04405 0.68760
 H470 H 0.83120 -0.09057 0.68506
 H471 H 0.91789 -0.08595 0.73481
 H472 H 0.95045 -0.11952 0.68115
 H473 H 0.86378 -0.12413 0.63135
 H474 H 0.89678 -0.16603 0.67858
 C475 C 1.12129 -0.12398 0.34455
 C476 C 1.10182 -0.14287 0.31682
 C477 C 1.12272 -0.12460 0.29021
 C478 C 1.14242 -0.10596 0.31747
 C479 C 1.09547 -0.09550 0.34266
 C480 C 1.11637 -0.07723 0.31604
 C481 C 1.07577 -0.11413 0.31540
 C482 C 1.09690 -0.09612 0.28834
 C483 C 1.13785 -0.14063 0.26088
 C484 C 1.15022 -0.15367 0.23664
 C485 C 1.08023 -0.07903 0.37167
 C486 C 1.06757 -0.06517 0.39530
 H487 H 1.13113 -0.13525 0.36799
 H488 H 1.09600 -0.17005 0.31681
 H489 H 1.16999 -0.10278 0.31798
 H490 H 1.12217 -0.05006 0.31604
 H491 H 1.04819 -0.11730 0.31489
 H492 H 1.08704 -0.08483 0.26491
 C493 C 0.92727 0.12034 0.31456
 C494 C 0.90651 0.10105 0.28811
 C495 C 0.87965 0.12857 0.28979
 C496 C 0.90017 0.14812 0.31578
 C497 C 0.90861 0.10149 0.34241
 C498 C 0.88177 0.12901 0.34410
 C499 C 0.88810 0.08197 0.31640
 C500 C 0.86101 0.10971 0.31764
 C501 C 0.86346 0.14335 0.26036
 C502 C 0.85011 0.15521 0.23602
 C503 C 0.92467 0.08597 0.37152
 C504 C 0.93785 0.07269 0.39520
 H505 H 0.95470 0.12454 0.31363
 H506 H 0.91650 0.08971 0.26477
 H507 H 0.90495 0.17549 0.31519
 H508 H 0.87179 0.14033 0.36746
 H509 H 0.88332 0.05460 0.31698
 H510 H 0.83359 0.10550 0.31858
 C511 C 0.10628 0.33990 -0.13291
 C512 C 0.14010 0.32455 -0.12167
 C513 C 0.12435 0.28953 -0.12338
 C514 C 0.09079 0.30441 -0.13485
 C515 C 0.09555 0.34210 -0.09602
 C516 C 0.07982 0.30706 -0.09773
 C517 C 0.12911 0.32722 -0.08453
 C518 C 0.11362 0.29174 -0.08648
 C519 C 0.14023 0.26012 -0.13854
 C520 C 0.15315 0.23581 -0.15092
 C521 C 0.07925 0.37117 -0.08070
 C522 C 0.06551 0.39484 -0.06797
 H523 H 0.10308 0.36003 -0.15183
 H524 H 0.16507 0.33141 -0.13169
 H525 H 0.07520 0.29470 -0.15570
 H526 H 0.05485 0.30020 -0.08771
 H527 H 0.14468 0.33693 -0.06367
 H528 H 0.11680 0.27161 -0.06755
 C529 C -0.12065 0.31504 0.07300
 C530 C -0.10099 0.28818 0.09297
 C531 C -0.12755 0.28998 0.12074
 C532 C -0.14746 0.31639 0.10103
 C533 C -0.10091 0.34248 0.09130
 C534 C -0.12746 0.34429 0.11906
 C535 C -0.08102 0.31606 0.11101
 C536 C -0.10780 0.31742 0.13901
 C537 C -0.14211 0.26062 0.13717
 C538 C -0.15387 0.23635 0.15068
 C539 C -0.08560 0.37152 0.07500
 C540 C -0.07245 0.39516 0.06168
 H541 H -0.12577 0.31440 0.04567
 H542 H -0.09026 0.26479 0.08243
 H543 H -0.17495 0.31618 0.09711
 H544 H -0.13818 0.36770 0.12958
 H545 H -0.05353 0.31625 0.11492
 H546 H -0.10266 0.31807 0.16634
 C547 C -0.13238 0.66927 -0.09613
 C548 C -0.11998 0.70572 -0.09165
 C549 C -0.12356 0.71115 -0.12958
 C550 C -0.13620 0.67515 -0.13431
 C551 C -0.09607 0.65802 -0.10193
 C552 C -0.09963 0.66343 -0.13987
 C553 C -0.08345 0.69403 -0.09721
 C554 C -0.08724 0.69991 -0.13539
 C555 C -0.13886 0.74092 -0.14467
 C556 C -0.15141 0.76555 -0.15681
 C557 C -0.08071 0.62868 -0.08611
 C558 C -0.06798 0.60488 -0.07260
 H559 H -0.15078 0.65634 -0.07981
 H560 H -0.12851 0.72343 -0.07197
 H561 H -0.15806 0.66772 -0.14973
 H562 H -0.09108 0.64570 -0.15952
 H563 H -0.06158 0.70147 -0.08179
 H564 H -0.06885 0.71284 -0.15169
 C565 C 0.10493 0.68637 0.07652
 C566 C 0.08758 0.71048 0.10149
 C567 C 0.11852 0.70847 0.12423
 C568 C 0.13611 0.68480 0.09950
 C569 C 0.09000 0.65653 0.09564
 C570 C 0.12094 0.65451 0.11838
 C571 C 0.07239 0.68019 0.12036
 C572 C 0.10359 0.67864 0.14336
 C573 C 0.13445 0.73749 0.13994
 C574 C 0.14757 0.76146 0.15267
 C575 C 0.07416 0.62774 0.07943
 C576 C 0.06116 0.60425 0.06574
 H577 H 0.10530 0.68922 0.04886
 H578 H 0.07404 0.73381 0.09471
 H579 H 0.16249 0.68702 0.09110
 H580 H 0.13447 0.63117 0.12514
 H581 H 0.04601 0.67796 0.12874
 H582 H 0.10322 0.67580 0.17102
 C583 C 0.31566 1.11433 0.92843
 C584 C 0.31741 1.14215 0.90141
 C585 C 0.29095 1.12330 0.88087
 C586 C 0.28876 1.09574 0.90764
 C587 C 0.34298 1.09489 0.90956
 C588 C 0.31651 1.07605 0.88902
 C589 C 0.34519 1.12244 0.88280
 C590 C 0.31827 1.10385 0.86201
 C591 C 0.26189 1.13895 0.86487
 C592 C 0.23788 1.15165 0.85174
 C593 C 0.37181 1.07879 0.92550
 C594 C 0.39535 1.06521 0.93859
 H595 H 0.31492 1.11846 0.95592
 H596 H 0.31744 1.16951 0.90633
 H597 H 0.26524 1.08493 0.91768
 H598 H 0.31647 1.04868 0.88411
 H599 H 0.36872 1.13324 0.87277
 H600 H 0.31902 1.09970 0.83452
 C601 C 0.34390 0.87030 1.12309
 C602 C 0.31761 0.88928 1.14443
 C603 C 0.28966 0.87151 1.12495
 C604 C 0.31547 0.85228 1.10384
 C605 C 0.34272 0.89875 1.09720
 C606 C 0.31477 0.88098 1.07771
 C607 C 0.31690 0.91795 1.11830
 C608 C 0.28851 0.89996 1.09905
 C609 C 0.25993 0.85662 1.14034
 C610 C 0.23531 0.84461 1.15292
 C611 C 0.37199 0.91437 1.08167
 C612 C 0.39571 0.92775 1.06877
 H613 H 0.36702 0.85828 1.13278
 H614 H 0.31845 0.89253 1.17203
 H615 H 0.31454 0.82511 1.09807
 H616 H 0.31393 0.87774 1.05010
 H617 H 0.31781 0.94513 1.12407
 H618 H 0.26541 0.91199 1.08934
 C619 C 0.68379 1.11151 1.08075
 C620 C 0.68243 1.13913 1.10795
 C621 C 0.71001 1.12065 1.12740
 C622 C 0.71180 1.09327 1.10042
 C623 C 0.65758 1.09147 1.10048
 C624 C 0.68515 1.07298 1.11992
 C625 C 0.65577 1.11885 1.12745
 C626 C 0.68382 1.10061 1.14715
 C627 C 0.73933 1.13695 1.14211
 C628 C 0.76357 1.15037 1.15397
 C629 C 0.62856 1.07530 1.08506
 C630 C 0.60494 1.06204 1.07187
 H631 H 0.68345 1.11580 1.05327
 H632 H 0.68165 1.16651 1.10318
 H633 H 0.73516 1.08293 1.08946
 H634 H 0.68593 1.04559 1.12467
 H635 H 0.63240 1.12917 1.13839
 H636 H 0.68417 1.09631 1.17462
 C637 C 0.68437 0.88347 0.92246
 C638 C 0.68309 0.85726 0.89389
 C639 C 0.71014 0.87704 0.87507
 C640 C 0.71187 0.90302 0.90340
 C641 C 0.65762 0.90417 0.90410
 C642 C 0.68468 0.92396 0.88529
 C643 C 0.65588 0.87820 0.87578
 C644 C 0.68340 0.89775 0.85671
 C645 C 0.73952 0.86198 0.85909
 C646 C 0.76382 0.84967 0.84611
 C647 C 0.62858 0.91935 0.92055
 C648 C 0.60495 0.93198 0.93441
 H649 H 0.68444 0.87777 0.94968
 H650 H 0.68277 0.82966 0.89725
 H651 H 0.73520 0.91307 0.91459
 H652 H 0.68499 0.95156 0.88195
 H653 H 0.63253 0.86817 0.86460
 H654 H 0.68334 0.90345 0.82949
   
