data_POSCAR
  _audit_creation_date              2014-09-24
  _audit_creation_method            'ToBaCCo'
  _symmetry_space_group_name_H-M    'P1'
  _symmetry_Int_Tables_number       1
  _symmetry_cell_setting            triclinic
  loop_
  _symmetry_equiv_pos_as_xyz
 x,y,z
_cell_length_a 29.9291
_cell_length_b 29.9288
_cell_length_c 29.9748
_cell_angle_alpha 90.088800
_cell_angle_beta 90.088800
_cell_angle_gamma 89.999700
loop_
  _atom_site_label
  _atom_site_type_symbol
  _atom_site_fract_x
  _atom_site_fract_y
  _atom_site_fract_z
O1 O 0.45681 0.96260 -0.54327
 O2 O 0.54352 0.96268 -0.45581
 O3 O 0.45653 0.96205 -0.45643
 O4 O 0.54379 0.96197 -0.54268
 O5 O 0.54360 1.03566 -0.54302
 O6 O 0.45674 1.03573 -0.45597
 O7 O 0.54375 1.03630 -0.45616
 O8 O 0.45663 1.03628 -0.54281
 Cu9 Cu 0.50017 0.95495 -0.49955
 Cu10 Cu 0.50019 1.04337 -0.49948
 C11 C 0.44181 0.99949 -0.55796
 C12 C 0.55863 0.99956 -0.44097
 C13 C 0.44169 0.99884 -0.44137
 C14 C 0.55861 0.99874 -0.55772
 O15 O -0.54579 1.45543 -0.03664
 O16 O -0.45849 1.54231 -0.03673
 O17 O -0.45885 1.45534 -0.03718
 O18 O -0.54548 1.54250 -0.03737
 O19 O -0.54573 1.54264 0.03613
 O20 O -0.45855 1.45565 0.03639
 O21 O -0.45876 1.54264 0.03685
 O22 O -0.54559 1.45569 0.03686
 Cu23 Cu -0.50218 1.49887 -0.04434
 Cu24 Cu -0.50216 1.49917 0.04391
 C25 C -0.56070 1.44056 0.00017
 C26 C -0.44370 1.55737 0.00011
 C27 C -0.44379 1.44058 -0.00042
 C28 C -0.56057 1.55761 -0.00071
 O29 O 0.03669 0.45615 0.45732
 O30 O 0.03657 0.54339 0.54386
 O31 O 0.03598 0.45636 0.54413
 O32 O 0.03610 0.54316 0.45702
 O33 O -0.03759 0.54304 0.45688
 O34 O -0.03771 0.45652 0.54388
 O35 O -0.03705 0.54347 0.54379
 O36 O -0.03700 0.45610 0.45699
 Cu37 Cu 0.04371 0.49977 0.50061
 Cu38 Cu -0.04471 0.49979 0.50037
 C39 C -0.00009 0.44116 0.44229
 C40 C -0.00020 0.55848 0.55878
 C41 C -0.00094 0.44158 0.55892
 C42 C -0.00078 0.55793 0.44200
 O43 O -0.11562 1.00044 -0.06059
 O44 O 0.11418 0.99753 -0.06067
 O45 O -0.00224 1.05942 -0.11493
 O46 O 0.00077 0.93854 -0.11507
 O47 O 0.00070 0.88409 -0.06078
 O48 O -0.00232 1.11388 -0.06049
 O49 O 0.05964 0.99741 -0.11502
 O50 O -0.06126 1.00060 -0.11497
 Zr51 Zr -0.00074 0.99899 -0.07872
 O52 O 0.03986 0.95843 -0.04083
 O53 O -0.04123 1.03955 -0.04070
 C54 C -0.10261 1.00123 -0.10190
 C55 C 0.10104 0.99677 -0.10197
 C56 C -0.00300 1.10080 -0.10182
 C57 C 0.00141 0.89717 -0.10207
 H58 H 0.05870 1.05842 -0.05955
 O59 O 0.03967 1.03935 -0.04053
 H60 H -0.06015 0.93959 -0.05968
 O61 O -0.04104 0.95866 -0.04062
 O62 O 0.11442 1.00045 0.06002
 O63 O -0.11538 0.99758 0.06012
 O64 O 0.05984 1.11389 0.00143
 O65 O 0.05978 0.88409 -0.00186
 O66 O -0.06108 0.88412 0.00105
 O67 O -0.06106 1.11392 -0.00153
 O68 O 0.00121 1.05949 0.11450
 O69 O -0.00181 0.93864 0.11437
 O70 O 0.00097 1.11393 0.06021
 O71 O -0.00213 0.88415 0.05996
 O72 O 0.11430 1.05944 0.00118
 O73 O -0.11549 1.05946 -0.00174
 O74 O -0.11551 0.93859 0.00127
 O75 O 0.11426 0.93852 -0.00203
 O76 O 0.06007 1.00063 0.11439
 O77 O -0.06081 0.99746 0.11444
 Zr78 Zr 0.07795 0.99899 -0.00032
 Zr79 Zr -0.07916 0.99902 -0.00025
 Zr80 Zr -0.00061 1.07757 -0.00017
 Zr81 Zr -0.00064 0.92045 -0.00037
 Zr82 Zr -0.00044 0.99904 0.07814
 O83 O -0.04109 0.95848 0.04017
 O84 O 0.04004 1.03957 0.04023
 C85 C 0.10142 1.00125 0.10133
 C86 C -0.10221 0.99681 0.10142
 C87 C 0.10122 1.10082 0.00200
 C88 C 0.10116 0.89714 -0.00266
 C89 C -0.10245 0.89721 0.00184
 C90 C -0.10243 1.10084 -0.00230
 C91 C 0.00182 1.10086 0.10150
 C92 C -0.00264 0.89726 0.10128
 H93 H -0.05991 1.05845 0.05916
 O94 O -0.04088 1.03938 0.04008
 H95 H 0.05892 0.93960 0.05895
 O96 O 0.03982 0.95866 0.03993
 C97 C 0.34004 1.00036 0.34026
 C98 C 0.35587 1.04058 0.35863
 C99 C 0.38892 1.04027 0.39160
 C100 C 0.40683 0.99971 0.40704
 C101 C 0.39097 0.95946 0.38871
 C102 C 0.35798 0.95979 0.35563
 C103 C 0.30497 1.00077 0.30518
 C104 C 0.30781 0.97192 0.26826
 C105 C 0.27491 0.97249 0.23512
 C106 C 0.23836 1.00181 0.23826
 C107 C 0.23546 1.03058 0.27524
 C108 C 0.26844 1.03012 0.30829
 C109 C 0.20332 1.00226 0.20315
 C110 C 0.15795 1.00545 0.21469
 C111 C 0.12492 1.00534 0.18169
 C112 C 0.13650 1.00214 0.13633
 C113 C 0.18197 0.99930 0.12482
 C114 C 0.21496 0.99929 0.15786
 H115 H 0.34311 1.07238 0.34707
 H116 H 0.40047 1.07188 0.40494
 H117 H 0.40400 0.92764 0.39993
 H118 H 0.34607 0.92823 0.34248
 H119 H 0.33578 0.94924 0.26472
 H120 H 0.27781 0.94961 0.20726
 H121 H 0.20792 1.05382 0.27837
 H122 H 0.26510 1.05243 0.33656
 H123 H 0.14792 1.00729 0.24934
 H124 H 0.09027 1.00758 0.19183
 H125 H 0.19217 0.99689 0.09026
 H126 H 0.24968 0.99739 0.14791
 C127 C -0.33986 0.99775 0.34058
 C128 C -0.35550 0.95756 0.35901
 C129 C -0.38845 0.95790 0.39197
 C130 C -0.40644 0.99848 0.40736
 C131 C -0.39074 1.03870 0.38899
 C132 C -0.35786 1.03833 0.35592
 C133 C -0.30495 0.99730 0.30545
 C134 C -0.30807 1.02596 0.26848
 C135 C -0.27531 1.02535 0.23530
 C136 C -0.23863 0.99620 0.23844
 C137 C -0.23546 0.96761 0.27546
 C138 C -0.26829 0.96810 0.30856
 C139 C -0.20373 0.99574 0.20331
 C140 C -0.15830 0.99285 0.21482
 C141 C -0.12539 0.99298 0.18180
 C142 C -0.13716 0.99590 0.13644
 C143 C -0.18269 0.99843 0.12495
 C144 C -0.21556 0.99843 0.15801
 H145 H -0.34268 0.92574 0.34747
 H146 H -0.39986 0.92632 0.40535
 H147 H -0.40384 1.07053 0.40017
 H148 H -0.34610 1.06986 0.34272
 H149 H -0.33614 1.04851 0.26494
 H150 H -0.27843 1.04809 0.20740
 H151 H -0.20780 0.94450 0.27860
 H152 H -0.26475 0.94594 0.33686
 H153 H -0.14813 0.99123 0.24946
 H154 H -0.09070 0.99098 0.19192
 H155 H -0.19304 1.00061 0.09039
 H156 H -0.25032 1.00010 0.14810
 C157 C -0.34127 1.00043 -0.34079
 C158 C -0.35853 0.95986 -0.35694
 C159 C -0.39149 0.95949 -0.39003
 C160 C -0.40817 0.99978 -0.40772
 C161 C -0.39079 1.04039 -0.39133
 C162 C -0.35774 1.04066 -0.35836
 C163 C -0.30620 1.00084 -0.30571
 C164 C -0.27004 1.03067 -0.30836
 C165 C -0.23705 1.03112 -0.27531
 C166 C -0.23959 1.00186 -0.23878
 C167 C -0.27578 0.97206 -0.23609
 C168 C -0.30867 0.97149 -0.26924
 C169 C -0.20454 1.00229 -0.20369
 C170 C -0.21615 0.99880 -0.15843
 C171 C -0.18315 0.99881 -0.12540
 C172 C -0.13771 1.00213 -0.13688
 C173 C -0.12617 1.00584 -0.18221
 C174 C -0.15921 1.00599 -0.21520
 H175 H -0.34609 0.92830 -0.34438
 H176 H -0.40381 0.92750 -0.40171
 H177 H -0.40269 1.07218 -0.40386
 H178 H -0.34548 1.07246 -0.34617
 H179 H -0.26700 1.05338 -0.33628
 H180 H -0.20978 1.05472 -0.27809
 H181 H -0.27840 0.94881 -0.20858
 H182 H -0.33636 0.94842 -0.26606
 H183 H -0.25085 0.99649 -0.14851
 H184 H -0.19332 0.99599 -0.09087
 H185 H -0.09155 1.00848 -0.19232
 H186 H -0.14922 1.00825 -0.24982
 C187 C 0.33958 0.99802 -0.34024
 C188 C 0.35542 0.95779 -0.35854
 C189 C 0.38859 0.95808 -0.39129
 C190 C 0.40660 0.99864 -0.40659
 C191 C 0.39072 1.03890 -0.38832
 C192 C 0.35762 1.03858 -0.35546
 C193 C 0.30443 0.99762 -0.30535
 C194 C 0.30725 1.02642 -0.26837
 C195 C 0.27432 1.02581 -0.23538
 C196 C 0.23776 0.99651 -0.23870
 C197 C 0.23486 0.96782 -0.27575
 C198 C 0.26787 0.96832 -0.30867
 C199 C 0.20275 0.99596 -0.20367
 C200 C 0.15736 0.99280 -0.21528
 C201 C 0.12438 0.99283 -0.18233
 C202 C 0.13604 0.99592 -0.13695
 C203 C 0.18153 0.99871 -0.12537
 C204 C 0.21446 0.99879 -0.15835
 H205 H 0.34258 0.92599 -0.34709
 H206 H 0.40014 0.92647 -0.40459
 H207 H 0.40383 1.07071 -0.39943
 H208 H 0.34571 1.07014 -0.34236
 H209 H 0.33523 1.04906 -0.26468
 H210 H 0.27722 1.04864 -0.20746
 H211 H 0.20730 0.94460 -0.27902
 H212 H 0.26455 0.94605 -0.33699
 H213 H 0.14728 0.99105 -0.24995
 H214 H 0.08971 0.99064 -0.19252
 H215 H 0.19180 1.00103 -0.09078
 H216 H 0.24920 1.00066 -0.14834
 C217 C 0.33928 1.34030 0.00103
 C218 C 0.35598 1.35783 0.04121
 C219 C 0.38899 1.39084 0.04094
 C220 C 0.40609 1.40732 0.00039
 C221 C 0.38918 1.38968 -0.03985
 C222 C 0.35626 1.35654 -0.03948
 C223 C 0.30430 1.30513 0.00144
 C224 C 0.30664 1.26868 -0.02808
 C225 C 0.27384 1.23545 -0.02750
 C226 C 0.23787 1.23803 0.00248
 C227 C 0.23546 1.27454 0.03192
 C228 C 0.26835 1.30768 0.03146
 C229 C 0.20291 1.20284 0.00294
 C230 C 0.15758 1.21431 0.00703
 C231 C 0.12462 1.18124 0.00693
 C232 C 0.13624 1.13587 0.00287
 C233 C 0.18168 1.12442 -0.00086
 C234 C 0.21460 1.15754 -0.00091
 H235 H 0.34395 1.34556 0.07296
 H236 H 0.40107 1.40334 0.07268
 H237 H 0.40129 1.40142 -0.07179
 H238 H 0.34364 1.34403 -0.07099
 H239 H 0.33416 1.26558 -0.05129
 H240 H 0.27635 1.20796 -0.05089
 H241 H 0.20836 1.27724 0.05567
 H242 H 0.26541 1.33558 0.05430
 H243 H 0.14752 1.24898 0.00957
 H244 H 0.09001 1.19134 0.00988
 H245 H 0.19191 1.08986 -0.00398
 H246 H 0.24930 1.14764 -0.00354
 C247 C 0.33969 0.65815 -0.00167
 C248 C 0.35584 0.64098 0.03885
 C249 C 0.38877 0.60787 0.03924
 C250 C 0.40631 0.59094 -0.00098
 C251 C 0.38992 0.60822 -0.04155
 C252 C 0.35711 0.64143 -0.04183
 C253 C 0.30473 0.69334 -0.00209
 C254 C 0.30750 0.72939 -0.03195
 C255 C 0.27455 0.76248 -0.03240
 C256 C 0.23800 0.76014 -0.00312
 C257 C 0.23521 0.72407 0.02671
 C258 C 0.26826 0.69108 0.02729
 C259 C 0.20294 0.79521 -0.00363
 C260 C 0.15760 0.78363 -0.00007
 C261 C 0.12458 0.81664 -0.00012
 C262 C 0.13615 0.86206 -0.00355
 C263 C 0.18156 0.87359 -0.00732
 C264 C 0.21455 0.84053 -0.00743
 H265 H 0.34340 0.65360 0.07035
 H266 H 0.40045 0.59564 0.07119
 H267 H 0.40236 0.59614 -0.07327
 H268 H 0.34491 0.65362 -0.07359
 H269 H 0.33544 0.73226 -0.05468
 H270 H 0.27740 0.78965 -0.05603
 H271 H 0.20768 0.72161 0.04998
 H272 H 0.26499 0.66349 0.05038
 H273 H 0.14760 0.74895 0.00232
 H274 H 0.08998 0.80647 0.00276
 H275 H 0.19174 0.90820 -0.01003
 H276 H 0.24924 0.85050 -0.00975
 C277 C -0.34178 0.65900 0.00095
 C278 C -0.36016 0.64338 0.04111
 C279 C -0.39318 0.61038 0.04081
 C280 C -0.40867 0.59232 0.00032
 C281 C -0.39033 0.60798 -0.03987
 C282 C -0.35720 0.64091 -0.03955
 C283 C -0.30664 0.69401 0.00134
 C284 C -0.26966 0.69095 -0.02734
 C285 C -0.23646 0.72379 -0.02678
 C286 C -0.23960 0.76050 0.00235
 C287 C -0.27663 0.76361 0.03095
 C288 C -0.30974 0.73069 0.03051
 C289 C -0.20443 0.79548 0.00278
 C290 C -0.21599 0.84089 0.00574
 C291 C -0.18294 0.87387 0.00564
 C292 C -0.13750 0.86219 0.00269
 C293 C -0.12598 0.81669 0.00006
 C294 C -0.15907 0.78375 0.00004
 H295 H -0.34855 0.65626 0.07286
 H296 H -0.40652 0.59899 0.07237
 H297 H -0.40159 0.59483 -0.07163
 H298 H -0.34405 0.65266 -0.07105
 H299 H -0.26612 0.66286 -0.04987
 H300 H -0.20856 0.72072 -0.04953
 H301 H -0.27976 0.79128 0.05405
 H302 H -0.33805 0.73419 0.05269
 H303 H -0.25069 0.85098 0.00740
 H304 H -0.19309 0.90854 0.00769
 H305 H -0.09136 0.80641 -0.00216
 H306 H -0.14911 0.74900 -0.00169
 C307 C -0.34189 1.33893 -0.00114
 C308 C -0.35723 1.35701 0.03934
 C309 C -0.39036 1.38994 0.03963
 C310 C -0.40878 1.40560 -0.00057
 C311 C -0.39337 1.38755 -0.04105
 C312 C -0.36035 1.35455 -0.04132
 C313 C -0.30674 1.30393 -0.00152
 C314 C -0.30990 1.26726 -0.03071
 C315 C -0.27677 1.23437 -0.03119
 C316 C -0.23965 1.23749 -0.00259
 C317 C -0.23645 1.27417 0.02658
 C318 C -0.26967 1.30699 0.02716
 C319 C -0.20446 1.20253 -0.00306
 C320 C -0.15909 1.21428 -0.00033
 C321 C -0.12598 1.18136 -0.00042
 C322 C -0.13749 1.13585 -0.00309
 C323 C -0.18294 1.12416 -0.00602
 C324 C -0.21600 1.15712 -0.00606
 H325 H -0.34400 1.34526 0.07086
 H326 H -0.40155 1.40310 0.07138
 H327 H -0.40678 1.39894 -0.07262
 H328 H -0.34882 1.34168 -0.07306
 H329 H -0.33828 1.26376 -0.05290
 H330 H -0.27995 1.20672 -0.05431
 H331 H -0.20848 1.27725 0.04933
 H332 H -0.26609 1.33506 0.04971
 H333 H -0.14915 1.24903 0.00144
 H334 H -0.09136 1.19165 0.00179
 H335 H -0.19309 1.08949 -0.00811
 H336 H -0.25071 1.14701 -0.00770
 C337 C 0.00090 1.33924 0.34067
 C338 C -0.03969 1.35710 0.35607
 C339 C -0.04006 1.39011 0.38912
 C340 C 0.00018 1.40608 0.40740
 C341 C 0.04076 1.38823 0.39195
 C342 C 0.04111 1.35515 0.35901
 C343 C 0.00135 1.30419 0.30557
 C344 C 0.03078 1.26771 0.30862
 C345 C 0.03128 1.23477 0.27553
 C346 C 0.00248 1.23765 0.23857
 C347 C -0.02691 1.27415 0.23550
 C348 C -0.02752 1.30701 0.26867
 C349 C 0.00296 1.20265 0.20343
 C350 C -0.00008 1.21434 0.15815
 C351 C -0.00010 1.18138 0.12508
 C352 C 0.00279 1.13590 0.13654
 C353 C 0.00609 1.12427 0.18188
 C354 C 0.00622 1.15727 0.21492
 H355 H -0.07123 1.34512 0.34295
 H356 H -0.07189 1.40310 0.40034
 H357 H 0.07236 1.39986 0.40525
 H358 H 0.07293 1.34245 0.34742
 H359 H 0.05312 1.26439 0.33687
 H360 H 0.05458 1.20726 0.27862
 H361 H -0.04982 1.27704 0.20766
 H362 H -0.05025 1.33494 0.26517
 H363 H -0.00204 1.24907 0.14825
 H364 H -0.00258 1.19163 0.09053
 H365 H 0.00837 1.08962 0.19198
 H366 H 0.00813 1.14720 0.24955
 C367 C -0.00198 1.33995 -0.33947
 C368 C 0.03861 1.35527 -0.35734
 C369 C 0.03900 1.38833 -0.39024
 C370 C -0.00122 1.40668 -0.40611
 C371 C -0.04181 1.39130 -0.38826
 C372 C -0.04217 1.35836 -0.35528
 C373 C -0.00245 1.30485 -0.30454
 C374 C -0.03171 1.30804 -0.26804
 C375 C -0.03222 1.27496 -0.23520
 C376 C -0.00360 1.23786 -0.23820
 C377 C 0.02563 1.23463 -0.27473
 C378 C 0.02625 1.26780 -0.30749
 C379 C -0.00409 1.20272 -0.20330
 C380 C -0.00137 1.15734 -0.21505
 C381 C -0.00137 1.12427 -0.18219
 C382 C -0.00395 1.13583 -0.13675
 C383 C -0.00692 1.18128 -0.12507
 C384 C -0.00704 1.21431 -0.15796
 H385 H 0.07014 1.34209 -0.34544
 H386 H 0.07083 1.39950 -0.40323
 H387 H -0.07339 1.40466 -0.39981
 H388 H -0.07399 1.34683 -0.34257
 H389 H -0.05391 1.33641 -0.26463
 H390 H -0.05538 1.27816 -0.20766
 H391 H 0.04840 1.20667 -0.27771
 H392 H 0.04886 1.26419 -0.33544
 H393 H 0.00035 1.14736 -0.24975
 H394 H 0.00084 1.08965 -0.19248
 H395 H -0.00895 1.19146 -0.09045
 H396 H -0.00870 1.24903 -0.14786
 C397 C 0.00051 0.65882 -0.34126
 C398 C 0.04078 0.64211 -0.35856
 C399 C 0.04056 0.60901 -0.39147
 C400 C -0.00002 0.59180 -0.40808
 C401 C -0.04035 0.60871 -0.39070
 C402 C -0.04004 0.64174 -0.35766
 C403 C 0.00087 0.69389 -0.30618
 C404 C -0.02877 0.69160 -0.26994
 C405 C -0.02822 0.72446 -0.23677
 C406 C 0.00185 0.76044 -0.23920
 C407 C 0.03140 0.76280 -0.27551
 C408 C 0.03097 0.72985 -0.30859
 C409 C 0.00231 0.79542 -0.20403
 C410 C 0.00652 0.84074 -0.21543
 C411 C 0.00643 0.87372 -0.18238
 C412 C 0.00225 0.86213 -0.13711
 C413 C -0.00161 0.81671 -0.12574
 C414 C -0.00166 0.78377 -0.15883
 H415 H 0.07256 0.65423 -0.34616
 H416 H 0.07237 0.59693 -0.40377
 H417 H -0.07232 0.59653 -0.40256
 H418 H -0.07161 0.65435 -0.34534
 H419 H -0.05205 0.66407 -0.26695
 H420 H -0.05170 0.72198 -0.20944
 H421 H 0.05523 0.78990 -0.27808
 H422 H 0.05391 0.73275 -0.33633
 H423 H 0.00916 0.85078 -0.25001
 H424 H 0.00949 0.90834 -0.19240
 H425 H -0.00482 0.80650 -0.09125
 H426 H -0.00437 0.74907 -0.14899
 C427 C -0.00150 0.65901 0.33985
 C428 C -0.04175 0.64071 0.35553
 C429 C -0.04149 0.60798 0.38872
 C430 C -0.00095 0.59270 0.40690
 C431 C 0.03931 0.61097 0.39118
 C432 C 0.03903 0.64381 0.35807
 C433 C -0.00186 0.69389 0.30469
 C434 C 0.02681 0.73097 0.30760
 C435 C 0.02624 0.76396 0.27466
 C436 C -0.00289 0.76051 0.23799
 C437 C -0.03145 0.72336 0.23499
 C438 C -0.03100 0.69045 0.26802
 C439 C -0.00342 0.79554 0.20298
 C440 C -0.00628 0.78383 0.15765
 C441 C -0.00624 0.81679 0.12467
 C442 C -0.00345 0.86227 0.13627
 C443 C -0.00096 0.87394 0.18169
 C444 C -0.00087 0.84096 0.21463
 H445 H -0.07352 0.65215 0.34254
 H446 H -0.07310 0.59467 0.40014
 H447 H 0.07111 0.59987 0.40443
 H448 H 0.07060 0.65692 0.34629
 H449 H 0.04932 0.73476 0.33567
 H450 H 0.04896 0.79196 0.27764
 H451 H -0.05454 0.71999 0.20734
 H452 H -0.05316 0.66205 0.26464
 H453 H -0.00780 0.74909 0.14763
 H454 H -0.00819 0.80653 0.09006
 H455 H 0.00111 0.90860 0.19192
 H456 H 0.00076 0.85103 0.24931
   
