data_POSCAR
  _audit_creation_date              2014-09-24
  _audit_creation_method            'ToBaCCo'
  _symmetry_space_group_name_H-M    'P1'
  _symmetry_Int_Tables_number       1
  _symmetry_cell_setting            triclinic
  loop_
  _symmetry_equiv_pos_as_xyz
 x,y,z
_cell_length_a 24.7998
_cell_length_b 27.8849
_cell_length_c 33.1748
_cell_angle_alpha 91.120700
_cell_angle_beta 90.771700
_cell_angle_gamma 80.955300
loop_
  _atom_site_label
  _atom_site_type_symbol
  _atom_site_fract_x
  _atom_site_fract_y
  _atom_site_fract_z
C1 C 1.20984 0.22288 0.20510
 C2 C 1.24420 0.25303 0.18109
 C3 C 1.27528 0.27897 0.20402
 C4 C 1.26980 0.27260 0.24942
 C5 C 1.25114 0.19152 0.23220
 C6 C 1.28254 0.21726 0.25546
 C7 C 1.17682 0.25901 0.23446
 C8 C 1.20809 0.28521 0.25760
 H9 H 1.24528 0.25253 0.14842
 H10 H 1.29536 0.29384 0.26810
 H11 H 1.25338 0.15256 0.23446
 H12 H 1.13306 0.26185 0.23791
 C13 C 0.73109 -0.27209 0.19733
 C14 C 0.77144 -0.24610 0.17555
 C15 C 0.79866 -0.21803 0.19965
 C16 C 0.78361 -0.21912 0.24472
 C17 C 0.76524 -0.30118 0.23026
 C18 C 0.79252 -0.27375 0.25582
 C19 C 0.69418 -0.23230 0.22064
 C20 C 0.72097 -0.20468 0.24582
 H21 H 0.77728 -0.24904 0.14322
 H22 H 0.80551 -0.19545 0.26399
 H23 H 0.76438 -0.33940 0.23474
 H24 H 0.65038 -0.23131 0.22123
 C25 C 0.70892 0.22651 -0.28937
 C26 C 0.73491 0.26018 -0.31202
 C27 C 0.77319 0.28369 -0.28935
 C28 C 0.77754 0.26846 -0.24685
 C29 C 0.75358 0.19274 -0.27213
 C30 C 0.79107 0.21502 -0.24768
 C31 C 0.68396 0.25425 -0.25496
 C32 C 0.72127 0.27852 -0.23158
 H33 H 0.72629 0.26653 -0.34380
 H34 H 0.80762 0.28509 -0.22875
 H35 H 0.75093 0.15452 -0.26976
 H36 H 0.64112 0.25658 -0.24771
 C37 C 1.23619 -0.27823 -0.30329
 C38 C 1.27463 -0.25010 -0.32536
 C39 C 1.30520 -0.22579 -0.30053
 C40 C 1.29477 -0.23112 -0.25571
 C41 C 1.27342 -0.31095 -0.27415
 C42 C 1.30393 -0.28628 -0.24887
 C43 C 1.20243 -0.24078 -0.27565
 C44 C 1.23286 -0.21604 -0.25093
 H45 H 1.27693 -0.24902 -0.35792
 H46 H 1.31909 -0.20997 -0.23600
 H47 H 1.27230 -0.34942 -0.27150
 H48 H 1.15830 -0.23641 -0.27414
 C49 C 0.22330 0.21307 0.78551
 C50 C 0.25018 0.24463 0.81091
 C51 C 0.28804 0.26923 0.79069
 C52 C 0.29138 0.25764 0.74729
 C53 C 0.19653 0.24516 0.75171
 C54 C 0.23165 0.26906 0.73156
 C55 C 0.26920 0.17875 0.76468
 C56 C 0.30459 0.20163 0.74400
 H57 H 0.24291 0.24827 0.84307
 H58 H 0.32025 0.27636 0.73077
 H59 H 0.15360 0.24780 0.74398
 H60 H 0.26810 0.14024 0.76096
 C61 C 0.70320 0.71982 0.80127
 C62 C 0.72968 0.75494 0.82384
 C63 C 0.76044 0.78279 0.79990
 C64 C 0.75753 0.77075 0.75676
 C65 C 0.66987 0.74762 0.77088
 C66 C 0.69912 0.77585 0.74599
 C67 C 0.74652 0.69013 0.77799
 C68 C 0.77675 0.71820 0.75298
 H69 H 0.72918 0.75752 0.85651
 H70 H 0.77912 0.79334 0.73750
 H71 H 0.62669 0.74637 0.76742
 H72 H 0.75137 0.65087 0.77587
 C73 C 0.71953 0.21712 0.29261
 C74 C 0.75586 0.24542 0.31780
 C75 C 0.79065 0.26692 0.29580
 C76 C 0.78653 0.25809 0.25022
 C77 C 0.69087 0.25372 0.26233
 C78 C 0.72593 0.27512 0.23973
 C79 C 0.75889 0.18148 0.26716
 C80 C 0.79282 0.20292 0.24425
 H81 H 0.75205 0.25047 0.35018
 H82 H 0.81635 0.27526 0.23320
 H83 H 0.64707 0.25944 0.25748
 H84 H 0.75407 0.14386 0.26220
 C85 C 0.19533 0.72703 0.29800
 C86 C 0.23080 0.75751 0.32224
 C87 C 0.25997 0.78412 0.29956
 C88 C 0.25149 0.77751 0.25389
 C89 C 0.16047 0.76278 0.27010
 C90 C 0.18931 0.78949 0.24714
 C91 C 0.23498 0.69578 0.26918
 C92 C 0.26447 0.72213 0.24603
 H93 H 0.23234 0.75807 0.35491
 H94 H 0.27533 0.79908 0.23518
 H95 H 0.11719 0.76254 0.26569
 H96 H 0.23718 0.65683 0.26570
 O97 O 1.10675 0.00612 0.03933
 O98 O 0.91527 -0.00525 0.04882
 O99 O 0.99469 0.08659 0.04492
 O100 O 1.03368 -0.08639 0.04211
 O101 O 0.91391 0.07624 0.02881
 O102 O 1.10785 -0.07589 0.01565
 O103 O 0.93908 -0.07648 0.02486
 O104 O 1.08241 0.07581 0.01591
 C105 C 1.10320 0.05046 0.04411
 C106 C 0.91968 -0.04966 0.05336
 C107 C 0.94626 0.09045 0.05387
 C108 C 1.08364 -0.08911 0.04502
 O109 O 1.09159 -0.04362 -0.06074
 O110 O 0.91107 0.04722 -0.05134
 O111 O 1.03599 0.07420 -0.05844
 O112 O 0.96380 -0.07534 -0.05469
 O113 O 0.89465 -0.03116 -0.02862
 O114 O 1.11142 0.03218 -0.04077
 O115 O 1.05767 -0.10270 -0.03787
 O116 O 0.94934 0.10461 -0.02834
 Co117 Co 1.09518 -0.01817 -0.01086
 Co118 Co 0.91814 0.01990 -0.00138
 Co119 Co 1.01479 0.07714 -0.00662
 Co120 Co 0.99962 -0.07688 -0.00640
 O121 O 1.00681 0.00038 -0.00636
 C122 C 1.08079 -0.08487 -0.06576
 C123 C 0.92188 0.08867 -0.05556
 C124 C 1.08411 0.05856 -0.06610
 C125 C 0.91400 -0.06132 -0.05508
 O126 O 1.08271 0.51489 0.55337
 O127 O 0.89714 0.48620 0.55698
 O128 O 0.95776 0.58949 0.55539
 O129 O 1.01527 0.41740 0.55476
 O130 O 0.88396 0.56898 0.53409
 O131 O 1.09140 0.43178 0.53363
 O132 O 0.92497 0.41672 0.53187
 O133 O 1.04955 0.58484 0.53147
 C134 C 1.07696 0.55947 0.55745
 C135 C 0.90060 0.44173 0.55948
 C136 C 0.90984 0.58552 0.56209
 C137 C 1.06451 0.41648 0.56083
 O138 O 1.07893 0.46047 0.45388
 O139 O 0.89123 0.53603 0.45682
 O140 O 1.01353 0.57998 0.45460
 O141 O 0.95886 0.42239 0.45430
 O142 O 0.88377 0.45787 0.47786
 O143 O 1.08937 0.54022 0.47506
 O144 O 1.05060 0.40004 0.47807
 O145 O 0.92060 0.60004 0.47659
 Co146 Co 1.07607 0.48793 0.50400
 Co147 Co 0.89829 0.51112 0.50659
 Co148 Co 0.98523 0.58011 0.50464
 Co149 Co 0.98736 0.42279 0.50466
 O150 O 0.98678 0.50070 0.50491
 C151 C 1.07130 0.41818 0.44932
 C152 C 0.89740 0.57810 0.44983
 C153 C 1.06294 0.56669 0.44928
 C154 C 0.90912 0.43385 0.45007
 O155 O 0.60631 0.05000 0.52428
 O156 O 0.41573 -0.04902 0.52801
 O157 O 0.43602 0.09499 0.51319
 O158 O 0.58603 -0.09528 0.53184
 O159 O 0.41438 0.03446 0.54199
 O160 O 0.60652 -0.02748 0.55059
 O161 O 0.49297 -0.07923 0.55308
 O162 O 0.52746 0.08466 0.54217
 C163 C 0.57682 0.07455 0.54977
 C164 C 0.44287 -0.06875 0.55683
 C165 C 0.41721 0.07818 0.54326
 C166 C 0.60558 -0.07035 0.55806
 O167 O 0.62253 -0.06716 0.47504
 O168 O 0.40535 0.05075 0.45995
 O169 O 0.56627 0.08219 0.46628
 O170 O 0.46134 -0.09723 0.47727
 O171 O 0.42408 -0.03436 0.44703
 O172 O 0.60285 0.01188 0.44749
 O173 O 0.55182 -0.09340 0.45306
 O174 O 0.47795 0.07460 0.43982
 Co175 Co 0.60053 -0.00771 0.49898
 Co176 Co 0.42410 0.00024 0.49453
 Co177 Co 0.50305 0.07573 0.49115
 Co178 Co 0.52220 -0.08253 0.50297
 O179 O 0.51242 -0.00358 0.49696
 C180 C 0.59995 -0.08852 0.44793
 C181 C 0.43030 0.06872 0.43303
 C182 C 0.59166 0.05546 0.44027
 C183 C 0.43396 -0.07916 0.44810
 O184 O 0.58346 0.51271 0.05735
 O185 O 0.39599 0.48982 0.05633
 O186 O 0.45486 0.58830 0.05265
 O187 O 0.51635 0.41644 0.05683
 O188 O 0.38334 0.56965 0.02660
 O189 O 0.59291 0.42848 0.03597
 O190 O 0.42730 0.41822 0.03644
 O191 O 0.54871 0.58245 0.03476
 C192 C 0.57662 0.55754 0.06099
 C193 C 0.40382 0.44586 0.06303
 C194 C 0.40561 0.58738 0.05576
 C195 C 0.56526 0.41517 0.06344
 O196 O 0.58525 0.45756 -0.04214
 O197 O 0.39682 0.52820 -0.04647
 O198 O 0.52123 0.57475 -0.04463
 O199 O 0.45947 0.41956 -0.04376
 O200 O 0.38453 0.45261 -0.01947
 O201 O 0.59527 0.53783 -0.01960
 O202 O 0.55114 0.39797 -0.02058
 O203 O 0.42732 0.59341 -0.02952
 Co204 Co 0.57933 0.48528 0.00769
 Co205 Co 0.40001 0.50879 0.00462
 Co206 Co 0.48778 0.57666 0.00367
 Co207 Co 0.48860 0.42109 0.00679
 O208 O 0.48919 0.49809 0.00567
 C209 C 0.57540 0.41599 -0.04770
 C210 C 0.40463 0.56935 -0.05523
 C211 C 0.57112 0.56268 -0.04717
 C212 C 0.40934 0.42678 -0.04644
 C213 C 1.16622 0.12085 0.14389
 C214 C 1.12943 0.14650 0.11657
 N215 N 1.11536 0.19531 0.12098
 C216 C 1.13759 0.22001 0.15096
 C217 C 1.17662 0.19495 0.17733
 N218 N 1.18942 0.14565 0.17331
 N219 N 1.18017 0.07191 0.13927
 C220 C 1.15951 0.04758 0.10813
 C221 C 1.12430 0.07362 0.07986
 N222 N 1.10990 0.12246 0.08514
 H223 H 1.12698 0.25913 0.15305
 H224 H 1.17152 0.00867 0.10491
 C225 C 1.17040 0.62567 0.64312
 C226 C 1.13607 0.65352 0.61542
 N227 N 1.13447 0.70230 0.61487
 C228 C 1.16591 0.72461 0.64068
 C229 C 1.20090 0.69694 0.66828
 N230 N 1.20205 0.64792 0.66887
 N231 N 1.17203 0.57677 0.64341
 C232 C 1.14128 0.55441 0.61693
 C233 C 1.10753 0.58222 0.58872
 N234 N 1.10567 0.63124 0.58892
 H235 H 1.16392 0.76362 0.63962
 H236 H 1.14383 0.51531 0.61750
 C237 C 0.65922 0.13525 0.64454
 C238 C 0.60970 0.16043 0.62983
 N239 N 0.59205 0.20640 0.64354
 C240 C 0.62201 0.22841 0.67097
 C241 C 0.67214 0.20321 0.68564
 N242 N 0.68885 0.15712 0.67159
 N243 N 0.67872 0.09032 0.62992
 C244 C 0.65135 0.06951 0.60053
 C245 C 0.60219 0.09468 0.58503
 N246 N 0.58198 0.13957 0.60034
 H247 H 0.60767 0.26555 0.68039
 H248 H 0.66856 0.03410 0.58867
 C249 C 0.66795 0.62794 0.14591
 C250 C 0.63581 0.65400 0.11601
 N251 N 0.63555 0.70239 0.11293
 C252 C 0.66598 0.72612 0.13840
 C253 C 0.69841 0.70047 0.16857
 N254 N 0.69848 0.65169 0.17160
 N255 N 0.66832 0.57928 0.14845
 C256 C 0.63838 0.55553 0.12225
 C257 C 0.60650 0.58165 0.09208
 N258 N 0.60606 0.63038 0.08998
 H259 H 0.66482 0.76485 0.13532
 H260 H 0.63995 0.51668 0.12466
 C261 C 0.84936 -0.11618 0.14944
 C262 C 0.89201 -0.14188 0.12657
 N263 N 0.90794 -0.18997 0.13284
 C264 C 0.88202 -0.21404 0.15997
 C265 C 0.83717 -0.18932 0.18139
 N266 N 0.82221 -0.14057 0.17584
 N267 N 0.83328 -0.06805 0.14260
 C268 C 0.85704 -0.04481 0.11341
 C269 C 0.89774 -0.07118 0.08897
 N270 N 0.91452 -0.11909 0.09670
 H271 H 0.89394 -0.25287 0.16292
 H272 H 0.84268 -0.00671 0.10818
 C273 C 0.81057 0.36142 0.63183
 C274 C 0.85478 0.38047 0.64890
 N275 N 0.87040 0.36873 0.68746
 C276 C 0.84425 0.33843 0.70944
 C277 C 0.80087 0.31780 0.69170
 N278 N 0.78551 0.33076 0.65331
 N279 N 0.79445 0.37229 0.59346
 C280 C 0.82122 0.40082 0.57086
 C281 C 0.86656 0.41908 0.58712
 N282 N 0.88251 0.40859 0.62603
 H283 H 0.85864 0.32977 0.73968
 H284 H 0.80844 0.40783 0.53990
 C285 C 0.35124 -0.12854 0.64250
 C286 C 0.40754 -0.14538 0.63930
 N287 N 0.43005 -0.18543 0.65987
 C288 C 0.39845 -0.21016 0.68243
 C289 C 0.34181 -0.19478 0.68351
 N290 N 0.31971 -0.15399 0.66391
 N291 N 0.32819 -0.08920 0.62163
 C292 C 0.35839 -0.06688 0.59636
 C293 C 0.41394 -0.08552 0.59081
 N294 N 0.43764 -0.12382 0.61316
 H295 H 0.41678 -0.24293 0.69748
 H296 H 0.33851 -0.03632 0.57922
 C297 C 0.32925 0.37978 0.15608
 C298 C 0.37231 0.35386 0.13371
 N299 N 0.38655 0.30537 0.13877
 C300 C 0.35855 0.28119 0.16434
 C301 C 0.31374 0.30644 0.18527
 N302 N 0.30038 0.35540 0.18103
 N303 N 0.31448 0.42819 0.15009
 C304 C 0.33988 0.45155 0.12200
 C305 C 0.38095 0.42497 0.09809
 N306 N 0.39656 0.37687 0.10513
 H307 H 0.36923 0.24216 0.16669
 H308 H 0.32645 0.48981 0.11717
 C309 C 0.86049 0.17923 -0.15230
 C310 C 0.87095 0.12846 -0.15736
 N311 N 0.86149 0.10833 -0.19368
 C312 C 0.83964 0.13627 -0.22468
 C313 C 0.82460 0.18706 -0.21906
 N314 N 0.83733 0.20735 -0.18306
 N315 N 0.87134 0.19931 -0.11608
 C316 C 0.89157 0.17094 -0.08470
 C317 C 0.90015 0.11997 -0.08929
 N318 N 0.88997 0.10002 -0.12581
 H319 H 0.83342 0.11851 -0.25325
 H320 H 0.89988 0.18798 -0.05617
 C321 C 0.83306 0.64014 0.33978
 C322 C 0.86218 0.66680 0.36616
 N323 N 0.86963 0.71220 0.35569
 C324 C 0.84897 0.73222 0.32035
 C325 C 0.81914 0.70570 0.29389
 N326 N 0.81244 0.66006 0.30469
 N327 N 0.82530 0.59486 0.34975
 C328 C 0.84530 0.57480 0.38493
 C329 C 0.87456 0.60111 0.41187
 N330 N 0.88241 0.64681 0.40166
 H331 H 0.85599 0.76834 0.31335
 H332 H 0.83839 0.53844 0.39171
 C333 C 0.33919 0.12999 0.33361
 C334 C 0.38508 0.14930 0.34755
 N335 N 0.39751 0.19015 0.33066
 C336 C 0.36577 0.21282 0.30067
 C337 C 0.31959 0.19362 0.28686
 N338 N 0.30790 0.15237 0.30365
 N339 N 0.32552 0.09008 0.35108
 C340 C 0.35532 0.06884 0.38239
 C341 C 0.40105 0.08822 0.39676
 N342 N 0.41519 0.12790 0.37873
 H343 H 0.37680 0.24515 0.28766
 H344 H 0.34310 0.03743 0.39623
 C345 C 0.34216 0.62778 -0.16577
 C346 C 0.37815 0.65137 -0.14251
 N347 N 0.39239 0.69331 -0.15581
 C348 C 0.37128 0.71333 -0.19083
 C349 C 0.33347 0.69071 -0.21342
 N350 N 0.32062 0.64803 -0.20032
 N351 N 0.32809 0.58568 -0.15295
 C352 C 0.34808 0.56612 -0.11766
 C353 C 0.38329 0.59006 -0.09371
 N354 N 0.39777 0.63217 -0.10689
 H355 H 0.38394 0.74656 -0.20050
 H356 H 0.33601 0.53244 -0.10821
 C357 C 1.14264 -0.16869 -0.16665
 C358 C 1.16431 -0.12706 -0.15463
 N359 N 1.20735 -0.11470 -0.17465
 C360 C 1.23004 -0.14237 -0.20610
 C361 C 1.20830 -0.18397 -0.21826
 N362 N 1.16485 -0.19594 -0.19828
 N363 N 1.10071 -0.18192 -0.14586
 C364 C 1.07958 -0.15546 -0.11330
 C365 C 1.10111 -0.11369 -0.10129
 N366 N 1.14284 -0.10037 -0.12247
 H367 H 1.26437 -0.13183 -0.22157
 H368 H 1.04633 -0.16683 -0.09706
 C369 C 1.12534 0.33346 0.34618
 C370 C 1.14727 0.37568 0.35611
 N371 N 1.18762 0.38822 0.33315
 C372 C 1.20739 0.36023 0.30092
 C373 C 1.18553 0.31792 0.29089
 N374 N 1.14466 0.30581 0.31378
 N375 N 1.08615 0.32005 0.36974
 C376 C 1.06806 0.34677 0.40298
 C377 C 1.08978 0.38915 0.41306
 N378 N 1.12876 0.40276 0.38909
 H379 H 1.23966 0.37103 0.28323
 H380 H 1.03683 0.33515 0.42126
 C381 C 0.69009 -0.14838 0.34687
 C382 C 0.63368 -0.13203 0.34363
 N383 N 0.60810 -0.13509 0.30754
 C384 C 0.63593 -0.15520 0.27479
 C385 C 0.69188 -0.17438 0.27840
 N386 N 0.71771 -0.16959 0.31442
 N387 N 0.71594 -0.14421 0.38277
 C388 C 0.68785 -0.12476 0.41567
 C389 C 0.63105 -0.10987 0.41284
 N390 N 0.60535 -0.11363 0.37668
 H391 H 0.61412 -0.15713 0.24651
 H392 H 0.70947 -0.12171 0.44393
 C393 C 0.63430 0.33131 -0.14922
 C394 C 0.66469 0.36494 -0.13201
 N395 N 0.71403 0.36908 -0.14763
 C396 C 0.73450 0.34106 -0.17968
 C397 C 0.70362 0.30773 -0.19768
 N398 N 0.65403 0.30427 -0.18170
 N399 N 0.58586 0.32569 -0.13292
 C400 C 0.56631 0.35233 -0.10005
 C401 C 0.59600 0.38687 -0.08319
 N402 N 0.64461 0.39249 -0.09970
 H403 H 0.77339 0.34654 -0.19147
 H404 H 0.52764 0.34704 -0.08753
 C405 C 1.16995 0.11819 -0.15556
 C406 C 1.12062 0.14367 -0.14083
 N407 N 1.10398 0.19028 -0.15191
 C408 C 1.13484 0.21285 -0.17670
 C409 C 1.18465 0.18759 -0.19122
 N410 N 1.20066 0.14069 -0.18021
 N411 N 1.18804 0.07240 -0.14305
 C412 C 1.15956 0.05123 -0.11566
 C413 C 1.11089 0.07710 -0.10009
 N414 N 1.09216 0.12255 -0.11349
 H415 H 1.12146 0.25049 -0.18411
 H416 H 1.17544 0.01509 -0.10535
 C417 C 1.14908 0.63040 0.36102
 C418 C 1.10159 0.65608 0.37853
 N419 N 1.08551 0.70338 0.36964
 C420 C 1.11454 0.72632 0.34388
 C421 C 1.16143 0.70064 0.32518
 N422 N 1.17780 0.65310 0.33462
 N423 N 1.16664 0.58376 0.37186
 C424 C 1.13909 0.56184 0.39959
 C425 C 1.09137 0.58750 0.41691
 N426 N 1.07371 0.63402 0.40569
 H427 H 1.10134 0.76450 0.33833
 H428 H 1.15434 0.52489 0.40818
 C429 C 0.66199 0.12082 0.34601
 C430 C 0.62504 0.14841 0.37225
 N431 N 0.61587 0.19755 0.36987
 C432 C 0.64327 0.22054 0.34298
 C433 C 0.68215 0.19308 0.31787
 N434 N 0.68976 0.14377 0.31974
 N435 N 0.67224 0.07175 0.34901
 C436 C 0.64809 0.04898 0.37796
 C437 C 0.61297 0.07682 0.40538
 N438 N 0.60164 0.12581 0.40139
 H439 H 0.63650 0.25982 0.34228
 H440 H 0.65770 0.00989 0.38039
 C441 C 0.66038 0.62551 -0.13418
 C442 C 0.61130 0.65053 -0.11858
 N443 N 0.59381 0.69698 -0.12925
 C444 C 0.62281 0.71971 -0.15511
 C445 C 0.67134 0.69457 -0.17242
 N446 N 0.68913 0.64785 -0.16089
 N447 N 0.67918 0.57984 -0.12135
 C448 C 0.65118 0.55830 -0.09360
 C449 C 0.60164 0.58323 -0.07848
 N450 N 0.58296 0.62876 -0.09159
 H451 H 0.60823 0.75736 -0.16194
 H452 H 0.66724 0.52210 -0.08354
 C453 C 0.81136 -0.14096 -0.12239
 C454 C 0.85727 -0.12746 -0.14056
 N455 N 0.86857 -0.14136 -0.17945
 C456 C 0.83656 -0.16871 -0.20073
 C457 C 0.79204 -0.18467 -0.18176
 N458 N 0.78090 -0.16971 -0.14297
 N459 N 0.79835 -0.12591 -0.08417
 C460 C 0.82968 -0.09838 -0.06292
 C461 C 0.87728 -0.08654 -0.08013
 N462 N 0.89007 -0.10137 -0.11880
 H463 H 0.84793 -0.17967 -0.23122
 H464 H 0.81869 -0.08745 -0.03224
 C465 C 0.82227 0.36469 0.36321
 C466 C 0.87958 0.35740 0.36271
 N467 N 0.90661 0.32389 0.33678
 C468 C 0.87880 0.29633 0.31223
 C469 C 0.82175 0.30171 0.31478
 N470 N 0.79494 0.33629 0.33978
 N471 N 0.79488 0.39766 0.38909
 C472 C 0.82223 0.42279 0.41562
 C473 C 0.87959 0.41351 0.41706
 N474 N 0.90707 0.38158 0.38999
 H475 H 0.90104 0.26873 0.29272
 H476 H 0.79926 0.44815 0.43656
 C477 C 0.35443 -0.17221 0.37388
 C478 C 0.35393 -0.12386 0.36261
 N479 N 0.32586 -0.10744 0.32876
 C480 C 0.29761 -0.13694 0.30626
 C481 C 0.29620 -0.18463 0.31878
 N482 N 0.32514 -0.20093 0.35221
 N483 N 0.38267 -0.18939 0.40710
 C484 C 0.40994 -0.16032 0.43017
 C485 C 0.40807 -0.11117 0.42028
 N486 N 0.38022 -0.09403 0.38633
 H487 H 0.27455 -0.12269 0.28003
 H488 H 0.43159 -0.17529 0.45676
 C489 C 0.32378 0.34485 -0.12575
 C490 C 0.37276 0.35861 -0.13818
 N491 N 0.39195 0.34462 -0.17557
 C492 C 0.36467 0.31699 -0.20075
 C493 C 0.31671 0.30117 -0.18734
 N494 N 0.29793 0.31624 -0.15010
 N495 N 0.30292 0.35959 -0.08926
 C496 C 0.32922 0.38725 -0.06413
 C497 C 0.37953 0.39976 -0.07545
 N498 N 0.40033 0.38520 -0.11247
 H499 H 0.38190 0.30590 -0.22984
 H500 H 0.31175 0.39810 -0.03499
 C501 C 1.16710 -0.15182 0.14754
 C502 C 1.11091 -0.13404 0.14851
 N503 N 1.08259 -0.13770 0.18264
 C504 C 1.10751 -0.15966 0.21559
 C505 C 1.16324 -0.17994 0.21418
 N506 N 1.19191 -0.17467 0.18023
 N507 N 1.19542 -0.14744 0.11341
 C508 C 1.16991 -0.12658 0.08007
 C509 C 1.11329 -0.11026 0.08064
 N510 N 1.08532 -0.11411 0.11509
 H511 H 1.08362 -0.16193 0.24233
 H512 H 1.19337 -0.12368 0.05319
 C513 C 1.13484 0.34437 0.66387
 C514 C 1.16845 0.35558 0.63290
 N515 N 1.22323 0.34026 0.63549
 C516 C 1.24570 0.31372 0.66740
 C517 C 1.21166 0.30151 0.69795
 N518 N 1.15710 0.31775 0.69523
 N519 N 1.08015 0.35859 0.66151
 C520 C 1.05710 0.38302 0.62912
 C521 C 1.09018 0.39350 0.59736
 N522 N 1.14544 0.37993 0.60017
 H523 H 1.28918 0.30109 0.66800
 H524 H 1.01318 0.39349 0.62795
 C525 C 0.67713 -0.13990 0.66185
 C526 C 0.62862 -0.15160 0.64489
 N527 N 0.60412 -0.18617 0.66170
 C528 C 0.62561 -0.20976 0.69492
 C529 C 0.67504 -0.19908 0.71211
 N530 N 0.69968 -0.16436 0.69461
 N531 N 0.70066 -0.10418 0.64527
 C532 C 0.67787 -0.07995 0.61238
 C533 C 0.63008 -0.09280 0.59486
 N534 N 0.60679 -0.12844 0.61162
 H535 H 0.60499 -0.23800 0.70611
 H536 H 0.69769 -0.05212 0.59936
 C537 C 0.63136 0.34937 0.16990
 C538 C 0.66574 0.35681 0.13810
 N539 N 0.71988 0.33944 0.14082
 C540 C 0.74114 0.31447 0.17368
 C541 C 0.70651 0.30620 0.20531
 N542 N 0.65244 0.32433 0.20246
 N543 N 0.57705 0.36542 0.16705
 C544 C 0.55524 0.38797 0.13343
 C545 C 0.58927 0.39454 0.10105
 N546 N 0.64401 0.37926 0.10432
 H547 H 0.78411 0.29989 0.17398
 H548 H 0.51158 0.39998 0.13180
 C549 C 0.88735 0.15977 0.16160
 C550 C 0.85386 0.13553 0.13645
 N551 N 0.80167 0.13391 0.14689
 C552 C 0.78137 0.15518 0.18165
 C553 C 0.81484 0.17911 0.20711
 N554 N 0.86697 0.18142 0.19629
 N555 N 0.93976 0.16088 0.15102
 C556 C 0.96017 0.13875 0.11642
 C557 C 0.92643 0.11476 0.09126
 N558 N 0.87406 0.11385 0.10194
 H559 H 0.73924 0.15397 0.18908
 H560 H 1.00207 0.14011 0.10858
 C561 C 0.83016 0.63593 0.67067
 C562 C 0.86926 0.66084 0.65398
 N563 N 0.87900 0.70297 0.67160
 C564 C 0.85067 0.72198 0.70457
 C565 C 0.81100 0.69738 0.72150
 N566 N 0.80277 0.65423 0.70426
 N567 N 0.81794 0.59538 0.65169
 C568 C 0.84287 0.57867 0.61674
 C569 C 0.88283 0.60297 0.60024
 N570 N 0.89533 0.64347 0.61957
 H571 H 0.86004 0.75551 0.71766
 H572 H 0.83171 0.54659 0.60211
 C573 C 0.36220 0.16778 0.64323
 C574 C 0.38130 0.11801 0.64792
 N575 N 0.38153 0.09833 0.68497
 C576 C 0.36161 0.12574 0.71732
 C577 C 0.33899 0.17489 0.71231
 N578 N 0.34091 0.19495 0.67536
 N579 N 0.36265 0.18749 0.60617
 C580 C 0.38075 0.15957 0.57353
 C581 C 0.39783 0.10938 0.57793
 N582 N 0.39812 0.08991 0.61522
 H583 H 0.36115 0.10875 0.74635
 H584 H 0.38075 0.17617 0.54431
 C585 C 0.31216 0.64611 0.15628
 C586 C 0.36248 0.66095 0.14839
 N587 N 0.38001 0.69533 0.17268
 C588 C 0.34950 0.71554 0.20437
 C589 C 0.29953 0.70013 0.21268
 N590 N 0.28224 0.66559 0.18830
 N591 N 0.29336 0.61327 0.13126
 C592 C 0.32255 0.59445 0.09869
 C593 C 0.37352 0.60834 0.09094
 N594 N 0.39238 0.64139 0.11620
 H595 H 0.36431 0.74299 0.22312
 H596 H 0.30627 0.56850 0.07922
   
