data_POSCAR
  _audit_creation_date              2014-09-24
  _audit_creation_method            'ToBaCCo'
  _symmetry_space_group_name_H-M    'P1'
  _symmetry_Int_Tables_number       1
  _symmetry_cell_setting            triclinic
  loop_
  _symmetry_equiv_pos_as_xyz
 x,y,z
_cell_length_a 20.8925
_cell_length_b 21.5953
_cell_length_c 23.4706
_cell_angle_alpha 90.102400
_cell_angle_beta 89.709800
_cell_angle_gamma 90.136000
loop_
  _atom_site_label
  _atom_site_type_symbol
  _atom_site_fract_x
  _atom_site_fract_y
  _atom_site_fract_z
Si1 Si 1.25415 0.23985 0.25576
 Si2 Si 0.75630 -0.24455 0.24014
 Si3 Si 0.75283 0.25117 -0.25279
 Si4 Si 1.25457 -0.26496 -0.24518
 Si5 Si 0.25613 0.26027 0.75093
 Si6 Si 0.74940 0.74509 0.75353
 Si7 Si 0.75431 0.23855 0.24964
 Si8 Si 0.25185 0.75309 0.25284
 O9 O 1.11839 0.01869 0.07163
 O10 O 0.89167 -0.02181 0.05823
 O11 O 0.98478 0.10567 0.07009
 O12 O 1.03596 -0.10992 0.06365
 O13 O 0.89772 0.08362 0.03008
 O14 O 1.12695 -0.08415 0.03269
 O15 O 0.92670 -0.10992 0.03067
 O16 O 1.09454 0.10829 0.04263
 C17 C 1.11772 0.07494 0.08036
 C18 C 0.89544 -0.07835 0.06567
 C19 C 0.92578 0.10260 0.07330
 C20 C 1.09465 -0.11198 0.06949
 O21 O 1.12158 -0.03565 -0.07360
 O22 O 0.91383 0.04931 -0.08039
 O23 O 1.05998 0.10384 -0.06994
 O24 O 0.96963 -0.10150 -0.07859
 O25 O 0.88502 -0.05623 -0.05135
 O26 O 1.14319 0.06398 -0.03530
 O27 O 1.07493 -0.11910 -0.04825
 O28 O 0.95515 0.12878 -0.04260
 Co29 Co 1.11581 -0.00806 -0.00138
 Co30 Co 0.90849 0.01270 -0.01065
 Co31 Co 1.02258 0.10066 -0.00031
 Co32 Co 1.00287 -0.09945 -0.00754
 O33 O 1.01215 0.00109 -0.00479
 C34 C 1.10782 -0.08996 -0.08379
 C35 C 0.92298 0.10582 -0.08188
 C36 C 1.11767 0.09368 -0.07437
 C37 C 0.91292 -0.08935 -0.08718
 O38 O 1.11924 0.56696 0.54300
 O39 O 0.87385 0.43707 0.53068
 O40 O 0.92794 0.62643 0.52856
 O41 O 1.06706 0.37883 0.53208
 O42 O 0.88629 0.54320 0.55988
 O43 O 1.10117 0.46168 0.56907
 O44 O 0.95943 0.39758 0.56187
 O45 O 1.03150 0.60893 0.56814
 C46 C 1.08799 0.59746 0.57860
 C47 C 0.90213 0.40882 0.56952
 C48 C 0.89411 0.59984 0.56477
 C49 C 1.09537 0.40476 0.57216
 O50 O 1.11914 0.42885 0.45837
 O51 O 0.88414 0.57847 0.44837
 O52 O 1.08280 0.61976 0.46256
 O53 O 0.92167 0.38766 0.45193
 O54 O 0.89259 0.47383 0.41923
 O55 O 1.11200 0.53350 0.43039
 O56 O 1.03247 0.39831 0.42133
 O57 O 0.97607 0.61232 0.42235
 Co58 Co 1.10194 0.49851 0.49975
 Co59 Co 0.89538 0.50722 0.49017
 Co60 Co 1.00418 0.60528 0.49520
 Co61 Co 0.99556 0.40233 0.49183
 O62 O 0.99923 0.50346 0.49456
 C63 C 1.09149 0.40373 0.41759
 C64 C 0.91784 0.60793 0.41333
 C65 C 1.11083 0.58987 0.42472
 C66 C 0.89515 0.41739 0.41328
 O67 O 0.62004 0.01792 0.57069
 O68 O 0.39933 -0.03846 0.58377
 O69 O 0.47915 0.09998 0.57952
 O70 O 0.53292 -0.11740 0.56988
 O71 O 0.38804 0.06867 0.55310
 O72 O 0.62118 -0.08673 0.53660
 O73 O 0.42458 -0.12278 0.54402
 O74 O 0.58592 0.10556 0.54265
 C75 C 0.61653 0.07449 0.57820
 C76 C 0.40120 -0.09565 0.58602
 C77 C 0.42083 0.09856 0.58770
 C78 C 0.59086 -0.11066 0.57673
 O79 O 0.60647 -0.04530 0.42793
 O80 O 0.39160 0.02973 0.44385
 O81 O 0.53936 0.09848 0.43421
 O82 O 0.45685 -0.10697 0.43218
 O83 O 0.37440 -0.07158 0.47250
 O84 O 0.62677 0.05788 0.46122
 O85 O 0.56687 -0.12911 0.45864
 O86 O 0.43316 0.11420 0.47067
 Co87 Co 0.60756 -0.01362 0.49969
 Co88 Co 0.40020 -0.00348 0.51325
 Co89 Co 0.50867 0.09350 0.50664
 Co90 Co 0.49620 -0.10798 0.50140
 O91 O 0.50339 -0.00776 0.50528
 C92 C 0.59654 -0.10117 0.42033
 C93 C 0.39806 0.08551 0.43657
 C94 C 0.59673 0.08854 0.42525
 C95 C 0.39818 -0.09872 0.43068
 O96 O 0.62378 0.52294 0.06515
 O97 O 0.40651 0.46454 0.08693
 O98 O 0.48092 0.60334 0.08342
 O99 O 0.53944 0.38796 0.07243
 O100 O 0.38975 0.56942 0.05872
 O101 O 0.62474 0.41789 0.03272
 O102 O 0.42851 0.37908 0.04877
 O103 O 0.58691 0.61041 0.04034
 C104 C 0.61980 0.57916 0.07374
 C105 C 0.40608 0.40795 0.09031
 C106 C 0.42273 0.59973 0.09294
 C107 C 0.59845 0.39365 0.07493
 O108 O 0.60090 0.45771 -0.07545
 O109 O 0.38682 0.53476 -0.05105
 O110 O 0.53457 0.60652 -0.06393
 O111 O 0.45890 0.39644 -0.06477
 O112 O 0.37667 0.42976 -0.02360
 O113 O 0.62247 0.56132 -0.04446
 O114 O 0.56776 0.37327 -0.04131
 O115 O 0.43064 0.61855 -0.02294
 Co116 Co 0.60691 0.49044 -0.00466
 Co117 Co 0.40119 0.49875 0.01714
 Co118 Co 0.50774 0.59832 0.00920
 Co119 Co 0.49904 0.39563 0.00404
 O120 O 0.50390 0.49621 0.00615
 C121 C 0.59404 0.40130 -0.08148
 C122 C 0.39554 0.59092 -0.05750
 C123 C 0.59074 0.59524 -0.07653
 C124 C 0.40123 0.40876 -0.06807
 C125 C 1.12117 0.15894 0.14982
 C126 C 1.15328 0.19792 0.18685
 C127 C 1.21523 0.18433 0.20490
 C128 C 1.24574 0.12950 0.18445
 C129 C 1.21179 0.08841 0.14813
 C130 C 1.14964 0.10470 0.12921
 C131 C 1.24254 0.03371 0.13038
 N132 N 1.30332 0.02164 0.14644
 N133 N 1.33601 0.06100 0.17867
 C134 C 1.30966 0.11440 0.19767
 H135 H 1.07404 0.17259 0.13547
 H136 H 1.12941 0.23982 0.19986
 H137 H 1.21941 -0.00007 0.10445
 H138 H 1.33993 0.14420 0.22199
 C139 C 1.13845 0.69028 0.61852
 C140 C 1.18086 0.71887 0.65579
 C141 C 1.20952 0.68586 0.70060
 C142 C 1.19832 0.62078 0.70398
 C143 C 1.14964 0.59379 0.67009
 C144 C 1.12177 0.62813 0.62561
 C145 C 1.13082 0.53257 0.68142
 N146 N 1.16436 0.49802 0.71894
 N147 N 1.21580 0.52067 0.74494
 C148 C 1.23450 0.58038 0.73785
 H149 H 1.11883 0.71680 0.58358
 H150 H 1.18934 0.76808 0.65091
 H151 H 1.08921 0.51249 0.66145
 H152 H 1.27932 0.59385 0.75591
 C153 C 0.70033 0.14970 0.60358
 C154 C 0.73281 0.18710 0.64220
 C155 C 0.71771 0.18656 0.70057
 C156 C 0.67695 0.13805 0.72085
 C157 C 0.64643 0.09739 0.68136
 C158 C 0.65529 0.10626 0.62213
 C159 C 0.60675 0.05005 0.70254
 N160 N 0.59765 0.04405 0.75945
 N161 N 0.62525 0.08239 0.79642
 C162 C 0.66427 0.12904 0.77911
 H163 H 0.71029 0.15500 0.55848
 H164 H 0.76916 0.21733 0.62518
 H165 H 0.58290 0.01771 0.67451
 H166 H 0.68446 0.15850 0.81118
 C167 C 0.69821 0.65938 0.09676
 C168 C 0.73030 0.69759 0.13456
 C169 C 0.72302 0.69084 0.19366
 C170 C 0.68982 0.63763 0.21442
 C171 C 0.65802 0.59751 0.17538
 C172 C 0.66004 0.61072 0.11632
 C173 C 0.62312 0.54701 0.19712
 N174 N 0.62078 0.53702 0.25409
 N175 N 0.65032 0.57445 0.29067
 C176 C 0.68441 0.62439 0.27288
 H177 H 0.70218 0.66879 0.05151
 H178 H 0.75960 0.73370 0.11645
 H179 H 0.59762 0.51543 0.16956
 H180 H 0.70585 0.65352 0.30480
 C181 C 0.89102 -0.13540 0.15680
 C182 C 0.85940 -0.17271 0.19652
 C183 C 0.79352 -0.18379 0.19233
 C184 C 0.75805 -0.15178 0.14992
 C185 C 0.79089 -0.11664 0.10787
 C186 C 0.85808 -0.10932 0.11104
 C187 C 0.75541 -0.09166 0.06272
 N188 N 0.69097 -0.09839 0.06149
 N189 N 0.65971 -0.12919 0.10204
 C190 C 0.69092 -0.15611 0.14595
 H191 H 0.94197 -0.12790 0.16097
 H192 H 0.88713 -0.19422 0.22985
 H193 H 0.77825 -0.06762 0.02807
 H194 H 0.66272 -0.18097 0.17671
 C195 C 0.80263 0.36408 0.61121
 C196 C 0.77019 0.32973 0.65252
 C197 C 0.80150 0.30740 0.70115
 C198 C 0.86322 0.33218 0.71363
 C199 C 0.89527 0.37005 0.67252
 C200 C 0.86662 0.38142 0.61879
 C201 C 0.95372 0.39795 0.68774
 N202 N 0.97937 0.38720 0.73964
 N203 N 0.94999 0.35143 0.77777
 C204 C 0.89292 0.32404 0.76672
 H205 H 0.77799 0.37515 0.57204
 H206 H 0.72086 0.31708 0.64440
 H207 H 0.97877 0.42929 0.65952
 H208 H 0.87043 0.29930 0.80087
 C209 C 0.34967 -0.19286 0.61566
 C210 C 0.32277 -0.23331 0.65484
 C211 C 0.31399 -0.21618 0.71179
 C212 C 0.34286 -0.15995 0.73040
 C213 C 0.36679 -0.11639 0.68989
 C214 C 0.37002 -0.13325 0.63148
 C215 C 0.39086 -0.05962 0.71025
 N216 N 0.39538 -0.04943 0.76706
 N217 N 0.37878 -0.09262 0.80470
 C218 C 0.35393 -0.14773 0.78804
 H219 H 0.35355 -0.20846 0.57187
 H220 H 0.30748 -0.27812 0.63946
 H221 H 0.40807 -0.02395 0.68216
 H222 H 0.34892 -0.18345 0.81916
 C223 C 0.39563 0.31686 0.15278
 C224 C 0.36066 0.27820 0.18873
 C225 C 0.29859 0.29384 0.20601
 C226 C 0.27221 0.35108 0.18717
 C227 C 0.31168 0.39446 0.15826
 C228 C 0.37214 0.37500 0.13685
 C229 C 0.28759 0.45481 0.15030
 N230 N 0.22584 0.46779 0.16314
 N231 N 0.18653 0.42473 0.18358
 C232 C 0.20738 0.36689 0.19534
 H233 H 0.44153 0.30102 0.13694
 H234 H 0.38219 0.23515 0.20154
 H235 H 0.31675 0.49263 0.13574
 H236 H 0.17252 0.33407 0.20997
 C237 C 0.88826 0.13442 -0.17985
 C238 C 0.84852 0.16686 -0.21722
 C239 C 0.80074 0.20693 -0.19672
 C240 C 0.79378 0.21356 -0.13644
 C241 C 0.84130 0.18953 -0.09974
 C242 C 0.88597 0.14580 -0.12107
 C243 C 0.83987 0.20791 -0.04205
 N244 N 0.78950 0.24027 -0.02127
 N245 N 0.73999 0.25421 -0.05401
 C246 C 0.74002 0.24050 -0.11030
 H247 H 0.92190 0.10105 -0.19701
 H248 H 0.85428 0.15952 -0.26261
 H249 H 0.87782 0.19749 -0.01294
 H250 H 0.69632 0.24651 -0.13243
 C251 C 0.83940 0.68712 0.38695
 C252 C 0.80495 0.72186 0.34797
 C253 C 0.81580 0.71634 0.28910
 C254 C 0.86482 0.67550 0.26985
 C255 C 0.90002 0.63991 0.31003
 C256 C 0.88659 0.64566 0.36895
 C257 C 0.94570 0.59764 0.28963
 N258 N 0.95630 0.59206 0.23284
 N259 N 0.92425 0.62588 0.19521
 C260 C 0.87908 0.66731 0.21170
 H261 H 0.82821 0.69191 0.43191
 H262 H 0.76741 0.75092 0.36475
 H263 H 0.97243 0.56845 0.31824
 H264 H 0.85554 0.69375 0.17907
 C265 C 0.39104 0.16853 0.36514
 C266 C 0.35928 0.20300 0.32414
 C267 C 0.29525 0.19078 0.31082
 C268 C 0.26346 0.14021 0.33788
 C269 C 0.29755 0.10173 0.37615
 C270 C 0.36139 0.11804 0.39180
 C271 C 0.26558 0.04885 0.39761
 N272 N 0.20378 0.03742 0.38432
 N273 N 0.17110 0.07501 0.35073
 C274 C 0.19860 0.12570 0.32736
 H275 H 0.44002 0.18073 0.37533
 H276 H 0.38558 0.23941 0.30298
 H277 H 0.28806 0.01509 0.42359
 H278 H 0.16883 0.15329 0.30077
 C279 C 0.39370 0.65423 -0.14499
 C280 C 0.36160 0.68527 -0.18829
 C281 C 0.29459 0.68720 -0.18916
 C282 C 0.25914 0.65688 -0.14536
 C283 C 0.29206 0.62900 -0.09963
 C284 C 0.35965 0.62557 -0.10078
 C285 C 0.25611 0.60708 -0.05312
 N286 N 0.19132 0.60756 -0.05481
 N287 N 0.16011 0.62936 -0.09973
 C288 C 0.19164 0.65396 -0.14496
 H289 H 0.44552 0.65242 -0.14608
 H290 H 0.38949 0.70773 -0.22132
 H291 H 0.27892 0.59151 -0.01485
 H292 H 0.16336 0.67050 -0.18006
 C293 C 1.19995 -0.14829 -0.11419
 C294 C 1.22874 -0.19216 -0.14847
 C295 C 1.20102 -0.21248 -0.19967
 C296 C 1.13684 -0.19340 -0.21083
 C297 C 1.10946 -0.14482 -0.17799
 C298 C 1.14102 -0.12369 -0.12875
 C299 C 1.04953 -0.12120 -0.19367
 N300 N 1.01555 -0.14957 -0.23522
 N301 N 1.03726 -0.20050 -0.26070
 C302 C 1.09591 -0.22395 -0.24887
 H303 H 1.22252 -0.13574 -0.07427
 H304 H 1.27170 -0.21263 -0.13197
 H305 H 1.02939 -0.08098 -0.17284
 H306 H 1.10649 -0.26914 -0.26453
 C307 C 1.10355 0.31865 0.34742
 C308 C 1.14063 0.28000 0.31325
 C309 C 1.20612 0.29132 0.30488
 C310 C 1.23432 0.34418 0.33101
 C311 C 1.19530 0.38622 0.36180
 C312 C 1.12985 0.37141 0.37299
 C313 C 1.22343 0.44232 0.37947
 N314 N 1.28665 0.45309 0.37179
 N315 N 1.32421 0.41161 0.34682
 C316 C 1.30036 0.35778 0.32644
 H317 H 1.05427 0.30576 0.35541
 H318 H 1.11725 0.24056 0.29440
 H319 H 1.19617 0.47873 0.39750
 H320 H 1.33373 0.32715 0.30645
 C321 C 0.68956 -0.11563 0.35588
 C322 C 0.72418 -0.14753 0.31436
 C323 C 0.69765 -0.19811 0.28522
 C324 C 0.63242 -0.21304 0.29545
 C325 C 0.59963 -0.18551 0.34239
 C326 C 0.62813 -0.13509 0.37235
 C327 C 0.53866 -0.20881 0.35623
 N328 N 0.50985 -0.25091 0.32204
 N329 N 0.53782 -0.27129 0.27467
 C330 C 0.59767 -0.25315 0.25998
 H331 H 0.71257 -0.07728 0.37752
 H332 H 0.77325 -0.13362 0.30632
 H333 H 0.51275 -0.19386 0.39303
 H334 H 0.61557 -0.26774 0.21936
 C335 C 0.68721 0.38723 -0.14574
 C336 C 0.72138 0.35658 -0.18844
 C337 C 0.69393 0.30754 -0.21916
 C338 C 0.62807 0.29489 -0.21066
 C339 C 0.59616 0.31976 -0.16204
 C340 C 0.62536 0.36822 -0.13010
 C341 C 0.53672 0.29397 -0.14726
 N342 N 0.50754 0.25346 -0.18296
 N343 N 0.53413 0.23667 -0.23225
 C344 C 0.59325 0.25666 -0.24751
 H345 H 0.71106 0.42374 -0.12223
 H346 H 0.77118 0.36873 -0.19450
 H347 H 0.51246 0.30599 -0.10840
 H348 H 0.61173 0.24392 -0.28878
 C349 C 1.19724 0.17187 -0.10105
 C350 C 1.22863 0.20869 -0.14076
 C351 C 1.22020 0.19980 -0.19957
 C352 C 1.18436 0.14732 -0.21803
 C353 C 1.15081 0.11076 -0.17723
 C354 C 1.15612 0.12473 -0.11855
 C355 C 1.11297 0.06121 -0.19658
 N356 N 1.10953 0.04872 -0.25309
 N357 N 1.14099 0.08270 -0.29140
 C358 C 1.17807 0.13148 -0.27589
 H359 H 1.20309 0.18198 -0.05612
 H360 H 1.25898 0.24492 -0.12440
 H361 H 1.08646 0.03212 -0.16731
 H362 H 1.20117 0.15778 -0.30909
 C363 C 1.18969 0.66859 0.39777
 C364 C 1.22438 0.70315 0.35868
 C365 C 1.21683 0.69527 0.29954
 C366 C 1.18055 0.64289 0.28068
 C367 C 1.14684 0.60573 0.32130
 C368 C 1.14916 0.62119 0.38006
 C369 C 1.11006 0.55564 0.30137
 N370 N 1.10692 0.54360 0.24481
 N371 N 1.13770 0.57843 0.20679
 C372 C 1.17411 0.62746 0.22266
 H373 H 1.19494 0.67892 0.44274
 H374 H 1.25693 0.73660 0.37636
 H375 H 1.08331 0.52607 0.32992
 H376 H 1.19649 0.65423 0.18950
 C377 C 0.67952 0.16251 0.39684
 C378 C 0.71487 0.19542 0.35692
 C379 C 0.70415 0.18832 0.29828
 C380 C 0.65783 0.14422 0.28000
 C381 C 0.62066 0.11151 0.32117
 C382 C 0.63163 0.12145 0.37989
 C383 C 0.57487 0.06854 0.30214
 N384 N 0.56715 0.05869 0.24554
 N385 N 0.60219 0.08877 0.20692
 C386 C 0.64727 0.13088 0.22217
 H387 H 0.68929 0.16971 0.44170
 H388 H 0.75123 0.22640 0.37294
 H389 H 0.54560 0.04235 0.33169
 H390 H 0.67399 0.15353 0.18885
 C391 C 0.63593 0.69250 -0.11207
 C392 C 0.67881 0.72468 -0.14664
 C393 C 0.71264 0.69420 -0.19027
 C394 C 0.70769 0.62889 -0.19458
 C395 C 0.65813 0.59819 -0.16482
 C396 C 0.62423 0.62956 -0.12145
 C397 C 0.64411 0.53676 -0.17971
 N398 N 0.68333 0.50573 -0.21595
 N399 N 0.73601 0.53198 -0.23706
 C400 C 0.75018 0.59221 -0.22652
 H401 H 0.61204 0.71676 -0.07759
 H402 H 0.68334 0.77410 -0.14056
 H403 H 0.60161 0.51401 -0.16392
 H404 H 0.79551 0.60975 -0.24116
 C405 C 0.89426 -0.18314 -0.14586
 C406 C 0.85589 -0.22037 -0.18025
 C407 C 0.79840 -0.19829 -0.20286
 C408 C 0.77800 -0.13740 -0.18749
 C409 C 0.81974 -0.09796 -0.15649
 C410 C 0.87666 -0.12213 -0.13263
 C411 C 0.80220 -0.03557 -0.14953
 N412 N 0.74371 -0.01587 -0.16588
 N413 N 0.70135 -0.05473 -0.18829
 C414 C 0.71613 -0.11473 -0.19867
 H415 H 0.93685 -0.20330 -0.12748
 H416 H 0.87028 -0.26791 -0.18720
 H417 H 0.83437 -0.00213 -0.13200
 H418 H 0.67796 -0.14413 -0.21206
 C419 C 0.89424 0.33627 0.33898
 C420 C 0.86258 0.29598 0.30215
 C421 C 0.79599 0.29841 0.29589
 C422 C 0.76189 0.34732 0.32322
 C423 C 0.79586 0.39344 0.35407
 C424 C 0.86170 0.38458 0.36628
 C425 C 0.76194 0.44600 0.37253
 N426 N 0.69763 0.44893 0.36623
 N427 N 0.66489 0.40287 0.34248
 C428 C 0.69466 0.35216 0.32117
 H429 H 0.94481 0.32962 0.34632
 H430 H 0.89072 0.26210 0.27959
 H431 H 0.78574 0.48590 0.38959
 H432 H 0.66504 0.31610 0.30372
 C433 C 0.38785 -0.14511 0.33387
 C434 C 0.35479 -0.17728 0.29152
 C435 C 0.28863 -0.18696 0.29570
 C436 C 0.25472 -0.15502 0.33962
 C437 C 0.28881 -0.13007 0.38690
 C438 C 0.35718 -0.12506 0.38402
 C439 C 0.25231 -0.11352 0.43553
 N440 N 0.18755 -0.11377 0.43371
 N441 N 0.15612 -0.13092 0.38726
 C442 C 0.18742 -0.15160 0.34044
 H443 H 0.43863 -0.13784 0.32812
 H444 H 0.38201 -0.19634 0.25631
 H445 H 0.27287 -0.10194 0.47582
 H446 H 0.15918 -0.16492 0.30454
 C447 C 0.39466 0.36345 -0.16583
 C448 C 0.36190 0.32884 -0.20664
 C449 C 0.29548 0.32157 -0.20326
 C450 C 0.26096 0.35889 -0.16375
 C451 C 0.29475 0.39532 -0.12315
 C452 C 0.36260 0.39078 -0.11962
 C453 C 0.25920 0.43629 -0.08905
 N454 N 0.19446 0.43696 -0.09164
 N455 N 0.16263 0.39965 -0.12665
 C456 C 0.19357 0.36073 -0.16266
 H457 H 0.44582 0.36763 -0.16956
 H458 H 0.38928 0.30540 -0.23940
 H459 H 0.28198 0.47044 -0.06322
 H460 H 0.16488 0.33249 -0.19028
 C461 C 1.19189 -0.13428 0.12629
 C462 C 1.22552 -0.16193 0.17045
 C463 C 1.19682 -0.20573 0.20659
 C464 C 1.12955 -0.21637 0.20041
 C465 C 1.09651 -0.19184 0.15222
 C466 C 1.12716 -0.14762 0.11618
 C467 C 1.03415 -0.21374 0.14175
 N468 N 1.00368 -0.24919 0.18092
 N469 N 1.03131 -0.26445 0.22976
 C470 C 1.09265 -0.24855 0.24105
 H471 H 1.21790 -0.10307 0.09868
 H472 H 1.27597 -0.15089 0.17437
 H473 H 1.00900 -0.20406 0.10294
 H474 H 1.11032 -0.25880 0.28273
 C475 C 1.19159 0.38606 0.63113
 C476 C 1.22639 0.35383 0.67207
 C477 C 1.19869 0.30547 0.70359
 C478 C 1.13282 0.29196 0.69468
 C479 C 1.10044 0.31840 0.64739
 C480 C 1.12898 0.36846 0.61706
 C481 C 1.03975 0.29452 0.63367
 N482 N 1.01028 0.25371 0.66892
 N483 N 1.03720 0.23573 0.71731
 C484 C 1.09684 0.25453 0.73177
 H485 H 1.21481 0.42378 0.60867
 H486 H 1.27595 0.36663 0.67878
 H487 H 1.01488 0.30788 0.59596
 H488 H 1.11375 0.24259 0.77325
 C489 C 0.69127 -0.14043 0.62473
 C490 C 0.72502 -0.17431 0.66465
 C491 C 0.69338 -0.21074 0.70540
 C492 C 0.62513 -0.20934 0.70779
 C493 C 0.59163 -0.16783 0.67194
 C494 C 0.62433 -0.13823 0.62628
 C495 C 0.52654 -0.15709 0.68363
 N496 N 0.49517 -0.19199 0.72266
 N497 N 0.52477 -0.23657 0.75108
 C498 C 0.58835 -0.24658 0.74469
 H499 H 0.71803 -0.11662 0.59171
 H500 H 0.77683 -0.17364 0.66216
 H501 H 0.50089 -0.11981 0.66395
 H502 H 0.60790 -0.28504 0.76678
 C503 C 0.60699 0.31994 0.15639
 C504 C 0.64179 0.28456 0.19507
 C505 C 0.70848 0.28988 0.19869
 C506 C 0.74022 0.33495 0.16467
 C507 C 0.70408 0.37466 0.12896
 C508 C 0.63705 0.36411 0.12141
 C509 C 0.73678 0.42433 0.10315
 N510 N 0.80110 0.42992 0.10740
 N511 N 0.83553 0.38942 0.13657
 C512 C 0.80747 0.34226 0.16518
 H513 H 0.55604 0.31169 0.15318
 H514 H 0.61604 0.25228 0.22183
 H515 H 0.71233 0.46041 0.08182
 H516 H 0.83859 0.31125 0.18765
 C517 C 0.82999 0.15784 0.10538
 C518 C 0.79173 0.18734 0.14501
 C519 C 0.80751 0.18846 0.20287
 C520 C 0.86122 0.15336 0.22093
 C521 C 0.90277 0.12572 0.17951
 C522 C 0.88764 0.12990 0.12071
 C523 C 0.95608 0.09243 0.19884
 N524 N 0.96646 0.08637 0.25556
 N525 N 0.92695 0.11089 0.29414
 C526 C 0.87448 0.14363 0.27878
 H527 H 0.81405 0.15759 0.06174
 H528 H 0.74899 0.20921 0.12913
 H529 H 0.98887 0.07004 0.16970
 H530 H 0.84369 0.16171 0.31193
 C531 C 0.89151 0.67234 0.64701
 C532 C 0.85885 0.70531 0.68935
 C533 C 0.79221 0.69975 0.69574
 C534 C 0.75770 0.66358 0.65521
 C535 C 0.79050 0.63685 0.60852
 C536 C 0.85801 0.63653 0.60727
 C537 C 0.75432 0.61355 0.56309
 N538 N 0.68990 0.60865 0.56780
 N539 N 0.65941 0.62662 0.61484
 C540 C 0.69107 0.65366 0.65860
 H541 H 0.94327 0.67511 0.64503
 H542 H 0.88641 0.73474 0.71714
 H543 H 0.77651 0.60266 0.52301
 H544 H 0.66376 0.66642 0.69553
 C545 C 0.34162 0.17979 0.60902
 C546 C 0.30619 0.21732 0.64565
 C547 C 0.31570 0.21611 0.70476
 C548 C 0.36444 0.17681 0.72670
 C549 C 0.40124 0.13905 0.68888
 C550 C 0.38891 0.14001 0.62964
 C551 C 0.44751 0.09954 0.71201
 N552 N 0.45656 0.09774 0.76910
 N553 N 0.42259 0.13305 0.80453
 C554 C 0.37713 0.17246 0.78537
 H555 H 0.33126 0.18121 0.56383
 H556 H 0.26905 0.24538 0.62710
 H557 H 0.47588 0.06941 0.68529
 H558 H 0.35209 0.20023 0.81635
 C559 C 0.34001 0.67650 0.11412
 C560 C 0.30127 0.71096 0.15027
 C561 C 0.31017 0.71150 0.20967
 C562 C 0.36126 0.67463 0.23203
 C563 C 0.40076 0.63891 0.19437
 C564 C 0.38964 0.63999 0.13502
 C565 C 0.44854 0.60111 0.21766
 N566 N 0.45691 0.59925 0.27481
 N567 N 0.42092 0.63285 0.31008
 C568 C 0.37389 0.67045 0.29078
 H569 H 0.32977 0.67708 0.06887
 H570 H 0.26194 0.73456 0.13036
 H571 H 0.47890 0.57260 0.19102
 H572 H 0.34746 0.69682 0.32181
   
