data_POSCAR
  _audit_creation_date              2014-09-24
  _audit_creation_method            'ToBaCCo'
  _symmetry_space_group_name_H-M    'P1'
  _symmetry_Int_Tables_number       1
  _symmetry_cell_setting            triclinic
  loop_
  _symmetry_equiv_pos_as_xyz
 x,y,z
_cell_length_a 29.4022
_cell_length_b 29.4358
_cell_length_c 29.4915
_cell_angle_alpha 114.025700
_cell_angle_beta 65.505600
_cell_angle_gamma 65.081700
loop_
  _atom_site_label
  _atom_site_type_symbol
  _atom_site_fract_x
  _atom_site_fract_y
  _atom_site_fract_z
C1 C 0.54219 0.50764 0.00583
 C2 C 0.50835 0.54161 -0.00812
 C3 C 0.46674 0.53416 -0.01455
 C4 C 0.45836 0.49342 -0.00718
 C5 C 0.49214 0.45955 0.00676
 C6 C 0.53373 0.46692 0.01318
 H7 H 0.55962 0.44074 0.02395
 H8 H 0.44072 0.56024 -0.02531
 C9 C -0.00741 0.46008 0.50854
 C10 C 0.00767 0.49246 0.54088
 C11 C 0.01501 0.53314 0.53236
 C12 C 0.00742 0.54192 0.49189
 C13 C -0.00765 0.50943 0.45948
 C14 C -0.01498 0.46879 0.46809
 H15 H -0.02660 0.44380 0.44316
 H16 H 0.02664 0.55803 0.55739
 C17 C 0.49371 0.00599 0.45887
 C18 C 0.46024 -0.00813 0.49216
 C19 C 0.46736 -0.01421 0.53400
 C20 C 0.50751 -0.00631 0.54312
 C21 C 0.54113 0.00783 0.50967
 C22 C 0.53387 0.01390 0.46784
 H23 H 0.55958 0.02481 0.44207
 H24 H 0.44144 -0.02513 0.55954
 O25 O 0.45514 0.01224 -0.04092
 O26 O 0.42972 0.05498 0.10865
 O27 O 0.42846 0.10957 0.05689
 O28 O 0.45638 -0.04233 0.01079
 O29 O 0.57166 -0.11041 -0.05723
 O30 O 0.54374 0.04148 -0.01114
 O31 O 0.54499 -0.01307 0.04058
 O32 O 0.57041 -0.05581 -0.10899
 Cu33 Cu 0.43080 0.04043 0.04068
 Cu34 Cu 0.56932 -0.04127 -0.04101
 C35 C 0.51668 -0.02756 -0.09964
 C36 C 0.48345 0.02675 0.09931
 C37 C 0.48176 0.10062 0.02921
 C38 C 0.51836 -0.10147 -0.02957
 O39 O -0.10961 0.57066 1.05486
 O40 O 0.04152 0.54447 1.01109
 O41 O -0.01028 0.54318 0.95687
 O42 O -0.05780 0.57199 1.10916
 O43 O 0.01064 0.45743 1.04277
 O44 O 0.05815 0.42862 0.89046
 O45 O 0.11000 0.42991 0.94473
 O46 O -0.04114 0.45610 0.98851
 Cu47 Cu -0.04090 0.56913 1.03965
 Cu48 Cu 0.04127 0.43146 0.95997
 C49 C -0.10031 0.51740 1.02761
 C50 C 0.10070 0.48316 0.97197
 C51 C 0.03047 0.48142 0.89852
 C52 C -0.03012 0.51919 1.10112
 O53 O 0.05602 -0.10939 0.42905
 O54 O 0.00939 0.04351 0.45814
 O55 O 0.10977 -0.05715 0.42857
 O56 O -0.04431 -0.00871 0.45860
 O57 O -0.11058 0.05704 0.57217
 O58 O 0.04350 0.00860 0.54215
 O59 O -0.05683 0.10930 0.57171
 O60 O -0.01020 -0.04359 0.54262
 Cu61 Cu 0.03935 -0.03952 0.43214
 Cu62 Cu -0.04016 0.03943 0.56862
 C63 C 0.02928 -0.10170 0.48134
 C64 C -0.03009 0.10161 0.51942
 C65 C 0.10205 -0.03095 0.48071
 C66 C -0.10286 0.03084 0.52004
 C67 C -0.25037 0.53304 1.03954
 C68 C -0.25791 0.54064 0.99799
 C69 C -0.29966 0.53401 0.98965
 C70 C -0.33667 0.52360 1.02589
 C71 C -0.33166 0.51916 1.06993
 C72 C -0.28798 0.52343 1.07640
 C73 C -0.28298 0.51788 1.11991
 C74 C -0.32032 0.50865 1.15628
 C75 C -0.36318 0.50465 1.15012
 C76 C -0.36895 0.50976 1.10748
 C77 C -0.30320 0.53789 0.94476
 C78 C -0.26976 0.55190 0.91219
 C79 C -0.23136 0.56130 0.92268
 C80 C -0.22433 0.55464 0.96409
 C81 C -0.38036 0.51807 1.01843
 C82 C -0.41668 0.51332 1.01245
 C83 C -0.20022 0.53032 1.04023
 C84 C -0.15599 0.52560 1.03696
 H85 H -0.25057 0.52104 1.12659
 H86 H -0.31604 0.50467 1.18949
 H87 H -0.39209 0.49749 1.17850
 H88 H -0.40285 0.50620 1.10428
 H89 H -0.33288 0.53142 0.93539
 H90 H -0.27423 0.55613 0.87917
 H91 H -0.20614 0.57299 0.89792
 H92 H -0.19301 0.56136 0.96982
 C93 C 0.25092 0.46748 0.95971
 C94 C 0.25835 0.46025 1.00147
 C95 C 0.30018 0.46689 1.00963
 C96 C 0.33737 0.47695 0.97302
 C97 C 0.33248 0.48100 0.92876
 C98 C 0.28873 0.47672 0.92246
 C99 C 0.28385 0.48188 0.87872
 C100 C 0.32139 0.49075 0.84198
 C101 C 0.36431 0.49477 0.84798
 C102 C 0.36996 0.49004 0.89083
 C103 C 0.30361 0.46338 1.05472
 C104 C 0.26994 0.44976 1.08772
 C105 C 0.23146 0.44034 1.07740
 C106 C 0.22456 0.44662 1.03578
 C107 C 0.38105 0.48260 0.98038
 C108 C 0.41734 0.48751 0.98629
 C109 C 0.20069 0.47021 0.95918
 C110 C 0.15641 0.47495 0.96255
 H111 H 0.25139 0.47869 0.87216
 H112 H 0.31719 0.49444 0.80861
 H113 H 0.39337 0.50166 0.81931
 H114 H 0.40392 0.49359 0.89389
 H115 H 0.33338 0.46982 1.06393
 H116 H 0.27432 0.44581 1.12090
 H117 H 0.20610 0.42891 1.10245
 H118 H 0.19318 0.43990 1.03019
 C119 C 0.04316 -0.25303 0.46346
 C120 C 0.08126 -0.29200 0.47173
 C121 C 0.07474 -0.33561 0.47604
 C122 C 0.02941 -0.33920 0.47298
 C123 C -0.00783 -0.30107 0.46360
 C124 C 0.00057 -0.25936 0.45694
 C125 C -0.03441 -0.22451 0.44409
 C126 C -0.07690 -0.23029 0.43856
 C127 C -0.08747 -0.26868 0.44799
 C128 C -0.05383 -0.30337 0.46088
 C129 C 0.11350 -0.37423 0.48415
 C130 C 0.15737 -0.36983 0.48795
 C131 C 0.16358 -0.32703 0.48390
 C132 C 0.12602 -0.28839 0.47595
 C133 C 0.02133 -0.38225 0.47929
 C134 C 0.01475 -0.41790 0.48494
 C135 C 0.04340 -0.20258 0.46676
 C136 C 0.03955 -0.15796 0.47215
 H137 H -0.02867 -0.19316 0.43740
 H138 H -0.10247 -0.20411 0.42774
 H139 H -0.12135 -0.27217 0.44466
 H140 H -0.06329 -0.33298 0.46740
 H141 H 0.11033 -0.40815 0.48766
 H142 H 0.18667 -0.39975 0.49411
 H143 H 0.19774 -0.32381 0.48686
 H144 H 0.13279 -0.25608 0.47269
 C145 C -0.04389 0.25293 0.53736
 C146 C -0.08188 0.29187 0.52901
 C147 C -0.07532 0.33547 0.52474
 C148 C -0.03006 0.33910 0.52793
 C149 C 0.00704 0.30103 0.53744
 C150 C -0.00138 0.25930 0.54402
 C151 C 0.03350 0.22447 0.55695
 C152 C 0.07589 0.23031 0.56264
 C153 C 0.08644 0.26875 0.55332
 C154 C 0.05292 0.30340 0.54034
 C155 C -0.11397 0.37406 0.51654
 C156 C -0.15779 0.36963 0.51262
 C157 C -0.16403 0.32684 0.51662
 C158 C -0.12657 0.28822 0.52466
 C159 C -0.02190 0.38210 0.52160
 C160 C -0.01524 0.41769 0.51593
 C161 C -0.04416 0.20247 0.53402
 C162 C -0.04033 0.15787 0.52862
 H163 H 0.02775 0.19309 0.56358
 H164 H 0.10139 0.20414 0.57351
 H165 H 0.12025 0.27230 0.55678
 H166 H 0.06240 0.33303 0.53387
 H167 H -0.11078 0.40798 0.51306
 H168 H -0.18701 0.39953 0.50639
 H169 H -0.19814 0.32359 0.51357
 H170 H -0.13337 0.25591 0.52788
 C171 C 0.53192 -0.03905 -0.24874
 C172 C 0.53952 0.00238 -0.25659
 C173 C 0.53303 0.01064 -0.29843
 C174 C 0.52277 -0.02560 -0.33518
 C175 C 0.51824 -0.06946 -0.32973
 C176 C 0.52236 -0.07582 -0.28599
 C177 C 0.51673 -0.11916 -0.28058
 C178 C 0.50756 -0.15546 -0.31758
 C179 C 0.50371 -0.14941 -0.36049
 C180 C 0.50890 -0.10694 -0.36667
 C181 C 0.53687 0.05544 -0.30233
 C182 C 0.55075 0.08798 -0.26910
 C183 C 0.56007 0.07752 -0.23059
 C184 C 0.55341 0.03623 -0.22325
 C185 C 0.51753 -0.01835 -0.37906
 C186 C 0.51300 -0.01261 -0.41556
 C187 C 0.52926 -0.03978 -0.19879
 C188 C 0.52466 -0.03664 -0.15485
 H189 H 0.51977 -0.12575 -0.24809
 H190 H 0.50351 -0.18853 -0.31297
 H191 H 0.49659 -0.17772 -0.38913
 H192 H 0.50546 -0.10382 -0.40060
 H193 H 0.53046 0.06478 -0.33208
 H194 H 0.55498 0.12091 -0.27383
 H195 H 0.57171 0.10220 -0.20558
 H196 H 0.56004 0.03054 -0.19187
 C197 C 0.46821 0.03869 0.24860
 C198 C 0.47817 0.07525 0.28543
 C199 C 0.48235 0.06904 0.32922
 C200 C 0.47746 0.02554 0.33513
 C201 C 0.46674 -0.01043 0.29885
 C202 C 0.46023 -0.00234 0.25694
 C203 C 0.44596 -0.03597 0.22401
 C204 C 0.43894 -0.07689 0.23181
 C205 C 0.44823 -0.08717 0.27041
 C206 C 0.46247 -0.05482 0.30327
 C207 C 0.49213 0.10628 0.36571
 C208 C 0.49768 0.14838 0.35907
 C209 C 0.49376 0.15429 0.31612
 C210 C 0.48417 0.11822 0.27954
 C211 C 0.48291 0.01833 0.37895
 C212 C 0.48763 0.01261 0.41536
 C213 C 0.47086 0.03922 0.19856
 C214 C 0.47546 0.03594 0.15456
 H215 H 0.43931 -0.03040 0.19258
 H216 H 0.42703 -0.10142 0.20710
 H217 H 0.44371 -0.11980 0.27552
 H218 H 0.46885 -0.06402 0.33310
 H219 H 0.49563 0.10325 0.39966
 H220 H 0.50512 0.17651 0.38738
 H221 H 0.49808 0.18708 0.31115
 H222 H 0.48110 0.12469 0.24701
 C223 C 0.53594 -0.25283 -0.04373
 C224 C 0.54523 -0.26204 -0.00372
 C225 C 0.53853 -0.30372 0.00473
 C226 C 0.52638 -0.33900 -0.02996
 C227 C 0.52050 -0.33252 -0.07273
 C228 C 0.52483 -0.28889 -0.07925
 C229 C 0.51776 -0.28233 -0.12140
 C230 C 0.50701 -0.31813 -0.15642
 C231 C 0.50295 -0.36095 -0.15022
 C232 C 0.50953 -0.36821 -0.10888
 C233 C 0.54399 -0.30885 0.04824
 C234 C 0.55965 -0.27704 0.07929
 C235 C 0.56913 -0.23872 0.06863
 C236 C 0.56091 -0.23013 0.02863
 C237 C 0.52027 -0.38220 -0.02201
 C238 C 0.51489 -0.41799 -0.01548
 C239 C 0.53264 -0.20228 -0.04384
 C240 C 0.52733 -0.15763 -0.03988
 H241 H 0.52091 -0.24989 -0.12807
 H242 H 0.50188 -0.31268 -0.18861
 H243 H 0.49460 -0.38865 -0.17754
 H244 H 0.50588 -0.40202 -0.10560
 H245 H 0.53748 -0.33849 0.05772
 H246 H 0.56508 -0.28272 0.11125
 H247 H 0.58205 -0.21474 0.09222
 H248 H 0.56776 -0.19894 0.02271
 C249 C 0.46416 0.25194 0.04325
 C250 C 0.45423 0.26155 0.00370
 C251 C 0.46090 0.30320 -0.00484
 C252 C 0.47367 0.33804 0.02930
 C253 C 0.48018 0.33117 0.07161
 C254 C 0.47588 0.28758 0.07822
 C255 C 0.48359 0.28061 0.11990
 C256 C 0.49495 0.31599 0.15439
 C257 C 0.49898 0.35877 0.14810
 C258 C 0.49178 0.36643 0.10721
 C259 C 0.45479 0.30874 -0.04789
 C260 C 0.43854 0.27736 -0.07838
 C261 C 0.42911 0.23906 -0.06762
 C262 C 0.43795 0.23008 -0.02807
 C263 C 0.47978 0.38119 0.02123
 C264 C 0.48517 0.41693 0.01461
 C265 C 0.46747 0.20140 0.04340
 C266 C 0.47279 0.15677 0.03948
 H267 H 0.48047 0.24819 0.12663
 H268 H 0.50056 0.31022 0.18622
 H269 H 0.50780 0.38614 0.17499
 H270 H 0.49544 0.40019 0.10383
 H271 H 0.46129 0.33833 -0.05746
 H272 H 0.43264 0.28333 -0.10999
 H273 H 0.41577 0.21537 -0.09081
 H274 H 0.43112 0.19891 -0.02207
 C275 C -0.25514 0.04570 0.53875
 C276 C -0.29187 0.08126 0.52747
 C277 C -0.33528 0.07441 0.52307
 C278 C -0.34089 0.03125 0.52904
 C279 C -0.30502 -0.00341 0.54144
 C280 C -0.26357 0.00539 0.54819
 C281 C -0.23102 -0.02696 0.56401
 C282 C -0.23877 -0.06732 0.57232
 C283 C -0.27687 -0.07833 0.56283
 C284 C -0.30930 -0.04727 0.54704
 C285 C -0.37161 0.11056 0.51186
 C286 C -0.36516 0.15223 0.50514
 C287 C -0.32254 0.15876 0.50928
 C288 C -0.28614 0.12375 0.52026
 C289 C -0.38363 0.02273 0.52258
 C290 C -0.41899 0.01572 0.51678
 C291 C -0.20448 0.04580 0.53523
 C292 C -0.15957 0.04165 0.52959
 H293 H -0.19995 -0.02081 0.57086
 H294 H -0.21422 -0.09101 0.58523
 H295 H -0.28186 -0.11059 0.56829
 H296 H -0.33872 -0.05704 0.54049
 H297 H -0.40530 0.10703 0.50815
 H298 H -0.39333 0.17954 0.49662
 H299 H -0.31771 0.19120 0.50404
 H300 H -0.25390 0.13068 0.52347
 C301 C 0.25446 -0.04610 0.46200
 C302 C 0.29124 -0.08189 0.47310
 C303 C 0.33470 -0.07517 0.47754
 C304 C 0.34032 -0.03193 0.47176
 C305 C 0.30445 0.00291 0.45947
 C306 C 0.26291 -0.00572 0.45272
 C307 C 0.23028 0.02689 0.43709
 C308 C 0.23805 0.06731 0.42895
 C309 C 0.27629 0.07811 0.43839
 C310 C 0.30880 0.04679 0.45399
 C311 C 0.37107 -0.11154 0.48859
 C312 C 0.36460 -0.15328 0.49512
 C313 C 0.32194 -0.15968 0.49095
 C314 C 0.28550 -0.12445 0.48012
 C315 C 0.38300 -0.02344 0.47839
 C316 C 0.41828 -0.01644 0.48437
 C317 C 0.20373 -0.04606 0.46551
 C318 C 0.15879 -0.04182 0.47115
 H319 H 0.19914 0.02088 0.43027
 H320 H 0.21345 0.09119 0.41619
 H321 H 0.28131 0.11040 0.43303
 H322 H 0.33832 0.05640 0.46049
 H323 H 0.40480 -0.10812 0.49232
 H324 H 0.39281 -0.18076 0.50352
 H325 H 0.31710 -0.19218 0.49604
 H326 H 0.25322 -0.13129 0.47688
 C327 C -0.04480 0.53749 1.25247
 C328 C -0.00500 0.54738 1.26148
 C329 C 0.00362 0.54088 1.30312
 C330 C -0.03071 0.52827 1.33851
 C331 C -0.07331 0.52177 1.33220
 C332 C -0.07998 0.52593 1.28865
 C333 C -0.12192 0.51821 1.28224
 C334 C -0.15658 0.50697 1.31811
 C335 C -0.15023 0.50308 1.36087
 C336 C -0.10910 0.51030 1.36799
 C337 C 0.04699 0.54693 1.30806
 C338 C 0.07770 0.56293 1.27605
 C339 C 0.06684 0.57218 1.23772
 C340 C 0.02699 0.56342 1.22936
 C341 C -0.02245 0.52217 1.38152
 C342 C -0.01568 0.51667 1.41710
 C343 C -0.04486 0.53397 1.20197
 C344 C -0.04076 0.52845 1.15733
 H345 H -0.12869 0.52121 1.24986
 H346 H -0.18859 0.50134 1.31277
 H347 H -0.17727 0.49435 1.38863
 H348 H -0.10570 0.50676 1.40176
 H349 H 0.05669 0.54051 1.33760
 H350 H 0.10958 0.56874 1.28152
 H351 H 0.09021 0.58529 1.21351
 H352 H 0.02095 0.57009 1.19815
 C353 C 0.04511 0.46330 0.74724
 C354 C 0.08042 0.47476 0.71103
 C355 C 0.07371 0.47907 0.66755
 C356 C 0.03097 0.47279 0.66134
 C357 C -0.00346 0.46023 0.69672
 C358 C 0.00516 0.45363 0.73832
 C359 C -0.02700 0.43772 0.77050
 C360 C -0.06700 0.42919 0.76225
 C361 C -0.07783 0.43852 0.72394
 C362 C -0.04693 0.45436 0.69184
 C363 C 0.10961 0.49046 0.63175
 C364 C 0.15088 0.49747 0.63879
 C365 C 0.15726 0.49342 0.68146
 C366 C 0.12250 0.48226 0.71735
 C367 C 0.02259 0.47915 0.61849
 C368 C 0.01574 0.48490 0.58305
 C369 C 0.04519 0.46671 0.79770
 C370 C 0.04110 0.47219 0.84231
 H371 H -0.02097 0.43099 0.80169
 H372 H -0.09050 0.41619 0.78651
 H373 H -0.10981 0.43287 0.71853
 H374 H -0.05658 0.46081 0.66228
 H375 H 0.10618 0.49411 0.59804
 H376 H 0.17800 0.50613 0.61101
 H377 H 0.18939 0.49889 0.68674
 H378 H 0.12931 0.47914 0.74968
   
