data_POSCAR
  _audit_creation_date              2014-09-24
  _audit_creation_method            'ToBaCCo'
  _symmetry_space_group_name_H-M    'P1'
  _symmetry_Int_Tables_number       1
  _symmetry_cell_setting            triclinic
  loop_
  _symmetry_equiv_pos_as_xyz
 x,y,z
_cell_length_a 66.8249
_cell_length_b 65.6444
_cell_length_c 27.7426
_cell_angle_alpha 89.775600
_cell_angle_beta 90.240700
_cell_angle_gamma 119.719300
loop_
  _atom_site_label
  _atom_site_type_symbol
  _atom_site_fract_x
  _atom_site_fract_y
  _atom_site_fract_z
C1 C 0.18584 0.47844 0.49113
 C2 C 0.19755 0.47973 0.44831
 C3 C 0.21697 0.47676 0.45107
 C4 C 0.22434 0.47188 0.49534
 C5 C 0.21102 0.46905 0.53696
 C6 C 0.19258 0.47372 0.53596
 C7 C 0.24705 0.47222 0.49889
 C8 C 0.25917 0.47722 0.54326
 C9 C 0.28144 0.48029 0.54581
 C10 C 0.29222 0.47919 0.50368
 C11 C 0.28091 0.47462 0.45920
 C12 C 0.25805 0.46999 0.45727
 H13 H 0.17019 0.47946 0.48913
 H14 H 0.22717 0.48009 0.41894
 H15 H 0.21586 0.46471 0.57092
 H16 H 0.25220 0.48010 0.57590
 H17 H 0.30971 0.48224 0.50538
 H18 H 0.24952 0.46574 0.42263
 C19 C 0.57579 -0.25938 0.49953
 C20 C 0.57149 -0.25161 0.45530
 C21 C 0.56698 -0.23279 0.45630
 C22 C 0.56800 -0.22115 0.49971
 C23 C 0.57298 -0.22912 0.54296
 C24 C 0.57631 -0.24868 0.54377
 C25 C 0.56349 -0.20094 0.50004
 C26 C 0.55396 -0.19628 0.54109
 C27 C 0.54937 -0.17763 0.54139
 C28 C 0.55378 -0.16383 0.49998
 C29 C 0.56315 -0.16805 0.45865
 C30 C 0.56829 -0.18635 0.45915
 H31 H 0.57619 -0.27562 0.50004
 H32 H 0.56304 -0.22687 0.42315
 H33 H 0.57495 -0.21964 0.57601
 H34 H 0.54944 -0.20743 0.57263
 H35 H 0.54976 -0.14973 0.49995
 H36 H 0.57635 -0.18883 0.42770
 C37 C 1.28217 0.80575 0.51568
 C38 C 1.27184 0.80031 0.46973
 C39 C 1.24864 0.78219 0.46635
 C40 C 1.23691 0.76798 0.50666
 C41 C 1.24831 0.77373 0.55173
 C42 C 1.27059 0.79277 0.55642
 C43 C 1.21390 0.74601 0.50102
 C44 C 1.19936 0.73535 0.54127
 C45 C 1.18011 0.71252 0.53844
 C46 C 1.17393 0.70181 0.49282
 C47 C 1.18726 0.71249 0.45204
 C48 C 1.20734 0.73422 0.45630
 H49 H 1.29923 0.82072 0.52059
 H50 H 1.24021 0.77823 0.43171
 H51 H 1.24060 0.76304 0.58332
 H52 H 1.20392 0.74415 0.57560
 H53 H 1.15832 0.68510 0.48826
 H54 H 1.21816 0.74103 0.42483
 C55 C 0.81099 0.51873 0.49767
 C56 C 0.80104 0.51984 0.45398
 C57 C 0.78403 0.52642 0.45408
 C58 C 0.77731 0.53260 0.49740
 C59 C 0.78837 0.53226 0.54070
 C60 C 0.80454 0.52454 0.54117
 C61 C 0.75780 0.53772 0.49778
 C62 C 0.74368 0.53263 0.53893
 C63 C 0.72393 0.53514 0.53847
 C64 C 0.71846 0.54287 0.49561
 C65 C 0.73227 0.54830 0.45444
 C66 C 0.75208 0.54611 0.45601
 H67 H 0.82402 0.51348 0.49786
 H68 H 0.77553 0.52572 0.42038
 H69 H 0.78404 0.53726 0.57449
 H70 H 0.74696 0.52491 0.57030
 H71 H 0.70344 0.54502 0.49404
 H72 H 0.76287 0.55089 0.42433
 C73 C 0.46823 0.28968 0.50011
 C74 C 0.46089 0.27647 0.45772
 C75 C 0.45128 0.25207 0.46008
 C76 C 0.45057 0.24084 0.50410
 C77 C 0.45818 0.25466 0.54636
 C78 C 0.46657 0.27905 0.54518
 C79 C 0.44336 0.21519 0.50554
 C80 C 0.43611 0.20224 0.54899
 C81 C 0.43166 0.17889 0.55196
 C82 C 0.43280 0.16795 0.50934
 C83 C 0.43989 0.18036 0.46584
 C84 C 0.44528 0.20385 0.46418
 H85 H 0.47416 0.30827 0.49755
 H86 H 0.44503 0.24217 0.42707
 H87 H 0.45905 0.24683 0.58001
 H88 H 0.43352 0.21010 0.58077
 H89 H 0.43003 0.15025 0.51020
 H90 H 0.45220 0.21339 0.43095
 C91 C 0.70079 0.18504 0.48813
 C92 C 0.71267 0.19467 0.44516
 C93 C 0.73660 0.20956 0.44662
 C94 C 0.74911 0.21394 0.49026
 C95 C 0.73666 0.20322 0.53283
 C96 C 0.71252 0.18953 0.53218
 C97 C 0.77480 0.23011 0.49117
 C98 C 0.78633 0.24204 0.53379
 C99 C 0.81035 0.25777 0.53458
 C100 C 0.82230 0.26258 0.49052
 C101 C 0.81135 0.25125 0.44770
 C102 C 0.78792 0.23442 0.44878
 H103 H 0.68230 0.17344 0.48722
 H104 H 0.74511 0.21798 0.41340
 H105 H 0.74542 0.20559 0.56689
 H106 H 0.77663 0.23883 0.56652
 H107 H 0.84000 0.27657 0.48835
 H108 H 0.78010 0.22495 0.41595
 N109 N 0.96819 0.50915 0.05505
 N110 N 0.95090 0.51294 0.06422
 N111 N 1.01704 0.52060 0.08775
 N112 N 1.03437 0.53156 0.11797
 N113 N 1.01667 0.53533 0.05613
 N114 N 1.03375 0.55685 0.06430
 N115 N 0.96861 0.49435 0.08648
 N116 N 0.95162 0.48757 0.11759
 C117 C 0.94063 0.49919 0.10322
 C118 C 1.04467 0.55414 0.10306
 N119 N 1.02011 0.46462 0.05079
 N120 N 1.03889 0.46283 0.05611
 N121 N 0.97091 0.45165 0.08383
 N122 N 0.95662 0.43881 0.11826
 N123 N 0.97153 0.43821 0.04960
 N124 N 0.95745 0.41585 0.05973
 N125 N 1.01916 0.47813 0.08441
 N126 N 1.03720 0.48605 0.11308
 Mn127 Mn 0.99388 0.48617 0.08602
 C128 C 1.04935 0.47637 0.09527
 C129 C 0.94805 0.41655 0.10244
 N130 N 1.01705 0.53721 -0.04805
 N131 N 1.03339 0.55920 -0.05533
 N132 N 0.96937 0.49734 -0.08267
 N133 N 0.95287 0.49189 -0.11464
 N134 N 0.96867 0.51105 -0.04918
 N135 N 0.95173 0.51550 -0.05785
 N136 N 1.01781 0.52347 -0.08137
 N137 N 1.03474 0.53554 -0.11171
 Mn138 Mn 0.99263 0.52347 0.00355
 C139 C 1.04439 0.55775 -0.09510
 C140 C 0.94191 0.50321 -0.09865
 N141 N 0.97182 0.44000 -0.05457
 N142 N 0.95696 0.41813 -0.06690
 N143 N 1.01984 0.48098 -0.08470
 N144 N 1.03698 0.48810 -0.11545
 N145 N 1.02035 0.46620 -0.05340
 N146 N 1.03782 0.46267 -0.06242
 N147 N 0.97155 0.45475 -0.08634
 N148 N 0.95673 0.44340 -0.12110
 Mn149 Mn 0.99595 0.45197 -0.00189
 Mn150 Mn 0.99462 0.48915 -0.08413
 Cl151 Cl 0.99421 0.48764 0.00089
 C152 C 0.94750 0.42062 -0.10835
 C153 C 1.04813 0.47665 -0.10112
 N154 N 0.48003 0.45905 0.04758
 N155 N 0.47410 0.43695 0.05635
 N156 N 0.47209 0.49932 0.08249
 N157 N 0.46145 0.50481 0.11550
 N158 N 0.45739 0.48539 0.04995
 N159 N 0.43628 0.48085 0.06029
 N160 N 0.49482 0.47294 0.08005
 N161 N 0.49957 0.46077 0.11131
 C162 C 0.48667 0.43838 0.09602
 C163 C 0.43916 0.49331 0.10112
 N164 N 0.53012 0.55613 0.04986
 N165 N 0.53710 0.57821 0.06125
 N166 N 0.53862 0.51564 0.08065
 N167 N 0.55022 0.51248 0.11562
 N168 N 0.55273 0.52960 0.04736
 N169 N 0.57430 0.53612 0.05881
 N170 N 0.51600 0.54190 0.08279
 N171 N 0.51311 0.55385 0.11747
 Mn172 Mn 0.50534 0.50742 0.08184
 C173 C 0.52610 0.57645 0.10336
 C174 C 0.57242 0.52499 0.10118
 N175 N 0.45669 0.48635 -0.05427
 N176 N 0.43567 0.48291 -0.06170
 N177 N 0.49353 0.47435 -0.08946
 N178 N 0.49954 0.46311 -0.12016
 N179 N 0.47945 0.45991 -0.05678
 N180 N 0.47532 0.43829 -0.06474
 N181 N 0.47101 0.50088 -0.08657
 N182 N 0.46026 0.50786 -0.11649
 Mn183 Mn 0.46810 0.47238 -0.00343
 C184 C 0.43826 0.49662 -0.10056
 C185 C 0.48810 0.44067 -0.10447
 N186 N 0.55193 0.53019 -0.05687
 N187 N 0.57256 0.53278 -0.06530
 N188 N 0.51496 0.54335 -0.08716
 N189 N 0.51266 0.55603 -0.12140
 N190 N 0.52951 0.55696 -0.05408
 N191 N 0.53733 0.57928 -0.06485
 N192 N 0.53711 0.51656 -0.08952
 N193 N 0.54706 0.50936 -0.12065
 Mn194 Mn 0.54131 0.54344 -0.00346
 Mn195 Mn 0.50409 0.50878 -0.08855
 Cl196 Cl 0.50472 0.50803 -0.00334
 C197 C 0.56913 0.51953 -0.10524
 C198 C 0.52639 0.57840 -0.10666
 N199 N 0.44127 -0.03028 0.05334
 N200 N 0.42053 -0.04763 0.06451
 N201 N 0.47738 0.01992 0.08571
 N202 N 0.48250 0.03658 0.11762
 N203 N 0.46195 0.01889 0.05491
 N204 N 0.45602 0.03484 0.06538
 N205 N 0.45665 -0.02923 0.08433
 N206 N 0.44690 -0.04591 0.11701
 C207 C 0.42441 -0.05740 0.10406
 C208 C 0.46918 0.04585 0.10454
 N209 N 0.53625 0.02530 0.04724
 N210 N 0.55695 0.04362 0.05453
 N211 N 0.50141 -0.02520 0.08017
 N212 N 0.50101 -0.03893 0.11531
 N213 N 0.51549 -0.02391 0.04587
 N214 N 0.52502 -0.03683 0.05710
 N215 N 0.52199 0.02388 0.08118
 N216 N 0.53245 0.04118 0.11221
 Mn217 Mn 0.48934 -0.00266 0.08316
 C218 C 0.55421 0.05342 0.09516
 C219 C 0.51547 -0.04641 0.10026
 N220 N 0.45999 0.01955 -0.04909
 N221 N 0.45199 0.03406 -0.05700
 N222 N 0.45388 -0.02766 -0.08522
 N223 N 0.44384 -0.04544 -0.11528
 N224 N 0.43962 -0.02951 -0.05086
 N225 N 0.41932 -0.04855 -0.05700
 N226 N 0.47452 0.02162 -0.08305
 N227 N 0.47701 0.03781 -0.11462
 Mn228 Mn 0.45042 -0.00538 0.00208
 C229 C 0.46300 0.04555 -0.09767
 C230 C 0.42231 -0.05832 -0.09738
 N231 N 0.51351 -0.02316 -0.05855
 N232 N 0.51936 -0.03917 -0.06890
 N233 N 0.51938 0.02540 -0.08782
 N234 N 0.52956 0.04185 -0.12087
 N235 N 0.53455 0.02601 -0.05674
 N236 N 0.55548 0.04285 -0.06804
 N237 N 0.49847 -0.02380 -0.09001
 N238 N 0.49355 -0.04031 -0.12229
 Mn239 Mn 0.52518 0.00104 -0.00561
 Mn240 Mn 0.48657 -0.00105 -0.08699
 Cl241 Cl 0.48789 -0.00203 -0.00186
 C242 C 0.50660 -0.04984 -0.10869
 C243 C 0.55206 0.05278 -0.10783
 C244 C 1.17000 0.48935 0.31737
 C245 C 1.16969 0.50083 0.35967
 C246 C 1.17924 0.49811 0.40222
 C247 C 1.18986 0.48415 0.40381
 C248 C 1.19155 0.47395 0.36035
 C249 C 1.18132 0.47616 0.31785
 C250 C 1.15711 0.49016 0.27456
 N251 N 1.14830 0.47248 0.24173
 N252 N 1.13411 0.47185 0.20700
 C253 C 1.12827 0.48892 0.20366
 N254 N 1.13767 0.50688 0.23567
 N255 N 1.15172 0.50747 0.27036
 C256 C 1.11017 0.48698 0.16971
 C257 C 1.10308 0.50387 0.17118
 C258 C 1.08383 0.50063 0.14536
 C259 C 1.07131 0.48063 0.11680
 C260 C 1.07911 0.46442 0.11249
 C261 C 1.09835 0.46749 0.13904
 H262 H 1.16128 0.51130 0.36050
 H263 H 1.17849 0.50733 0.43383
 H264 H 1.19935 0.46291 0.35967
 H265 H 1.18190 0.46721 0.28563
 H266 H 1.11181 0.51922 0.19391
 H267 H 1.07836 0.51358 0.14878
 H268 H 1.06972 0.44887 0.09055
 H269 H 1.10342 0.45420 0.13692
 C270 C 0.56487 0.70731 0.33160
 C271 C 0.58003 0.70981 0.36900
 C272 C 0.58310 0.72429 0.40809
 C273 C 0.57065 0.73644 0.41188
 C274 C 0.55672 0.73523 0.37216
 C275 C 0.55389 0.72081 0.33252
 C276 C 0.55924 0.68909 0.29468
 N277 N 0.55231 0.69092 0.24949
 N278 N 0.54665 0.67378 0.21740
 C279 C 0.54737 0.65408 0.22966
 N280 N 0.55426 0.65233 0.27478
 N281 N 0.56016 0.66950 0.30651
 C282 C 0.54040 0.63447 0.19567
 C283 C 0.52962 0.61144 0.21355
 C284 C 0.52430 0.59265 0.18295
 C285 C 0.53010 0.59649 0.13392
 C286 C 0.54051 0.61948 0.11560
 C287 C 0.54538 0.63836 0.14622
 H288 H 0.58929 0.70016 0.36850
 H289 H 0.59538 0.72583 0.43541
 H290 H 0.54655 0.74389 0.37269
 H291 H 0.54208 0.71919 0.30398
 H292 H 0.52544 0.60796 0.25146
 H293 H 0.51626 0.57514 0.19812
 H294 H 0.54508 0.62286 0.07785
 H295 H 0.55376 0.65600 0.13170
 C296 C 0.31249 -0.16460 0.34635
 C297 C 0.28860 -0.17318 0.34562
 C298 C 0.27500 -0.18493 0.38583
 C299 C 0.28507 -0.18794 0.42826
 C300 C 0.30908 -0.17932 0.42811
 C301 C 0.32245 -0.16799 0.38798
 C302 C 0.32743 -0.15179 0.30484
 N303 N 0.34958 -0.14722 0.30401
 N304 N 0.36374 -0.13455 0.26875
 C305 C 0.35645 -0.12582 0.23261
 N306 N 0.33416 -0.13065 0.23287
 N307 N 0.31991 -0.14342 0.26826
 C308 C 0.37312 -0.11010 0.19592
 C309 C 0.36647 -0.09997 0.15883
 C310 C 0.38298 -0.08345 0.12740
 C311 C 0.40637 -0.07667 0.13287
 C312 C 0.41283 -0.08744 0.16866
 C313 C 0.39643 -0.10400 0.19963
 H314 H 0.28041 -0.17079 0.31402
 H315 H 0.25679 -0.19069 0.38397
 H316 H 0.31776 -0.18212 0.45828
 H317 H 0.34077 -0.16178 0.38988
 H318 H 0.34866 -0.10435 0.15485
 H319 H 0.37756 -0.07539 0.10001
 H320 H 0.43072 -0.08270 0.17345
 H321 H 0.40224 -0.11150 0.22744
 C322 C 0.82834 0.50534 0.32682
 C323 C 0.82075 0.48962 0.36596
 C324 C 0.81103 0.49388 0.40639
 C325 C 0.80851 0.51385 0.40856
 C326 C 0.81486 0.52890 0.36848
 C327 C 0.82478 0.52475 0.32802
 C328 C 0.84140 0.50231 0.28702
 N329 N 0.85152 0.51887 0.25204
 N330 N 0.86502 0.51707 0.21905
 C331 C 0.86898 0.49866 0.21970
 N332 N 0.85851 0.48193 0.25412
 N333 N 0.84503 0.48371 0.28701
 C334 C 0.88573 0.49764 0.18625
 C335 C 0.89234 0.48056 0.19295
 C336 C 0.90976 0.48081 0.16501
 C337 C 0.92087 0.49799 0.12937
 C338 C 0.91368 0.51450 0.12104
 C339 C 0.89632 0.51440 0.14941
 H340 H 0.82302 0.47440 0.36623
 H341 H 0.80596 0.48183 0.43658
 H342 H 0.81312 0.54444 0.36937
 H343 H 0.83032 0.53713 0.29841
 H344 H 0.88456 0.46734 0.22082
 H345 H 0.91483 0.46775 0.17197
 H346 H 0.92195 0.52792 0.09370
 H347 H 0.89157 0.52775 0.14316
 C348 C 0.47068 0.31544 0.32649
 C349 C 0.48901 0.32138 0.35884
 C350 C 0.48581 0.30826 0.40057
 C351 C 0.46429 0.28874 0.41098
 C352 C 0.44617 0.28200 0.37779
 C353 C 0.44930 0.29533 0.33595
 C354 C 0.47378 0.33118 0.28518
 N355 N 0.45586 0.32740 0.25599
 N356 N 0.45848 0.34283 0.22167
 C357 C 0.47912 0.36268 0.21521
 N358 N 0.49706 0.36616 0.24380
 N359 N 0.49446 0.35077 0.27794
 C360 C 0.48175 0.38117 0.18072
 C361 C 0.50123 0.40366 0.18370
 C362 C 0.50297 0.42196 0.15507
 C363 C 0.48547 0.41819 0.12221
 C364 C 0.46645 0.39552 0.11736
 C365 C 0.46450 0.37717 0.14669
 H366 H 0.50576 0.33662 0.35274
 H367 H 0.50014 0.31360 0.42530
 H368 H 0.42940 0.26700 0.38512
 H369 H 0.43485 0.29022 0.31172
 H370 H 0.51487 0.40743 0.20940
 H371 H 0.51790 0.43924 0.15930
 H372 H 0.45271 0.39220 0.09226
 H373 H 0.44933 0.36002 0.14337
 C374 C 0.67230 0.16927 0.31561
 C375 C 0.66485 0.17790 0.35378
 C376 C 0.67847 0.18722 0.39490
 C377 C 0.69991 0.18826 0.39874
 C378 C 0.70805 0.18102 0.35946
 C379 C 0.69435 0.17157 0.31832
 C380 C 0.65632 0.15618 0.27553
 N381 N 0.66237 0.14569 0.24084
 N382 N 0.64712 0.13191 0.20787
 C383 C 0.62516 0.12801 0.20828
 N384 N 0.61929 0.13890 0.24234
 N385 N 0.63452 0.15267 0.27520
 C386 C 0.60738 0.11071 0.17527
 C387 C 0.58401 0.10347 0.18289
 C388 C 0.56688 0.08530 0.15578
 C389 C 0.57268 0.07410 0.11999
 C390 C 0.59602 0.08198 0.11054
 C391 C 0.61324 0.10006 0.13816
 H392 H 0.64807 0.17664 0.35283
 H393 H 0.67194 0.19301 0.42438
 H394 H 0.72448 0.18154 0.36157
 H395 H 0.70069 0.16522 0.28950
 H396 H 0.57881 0.11127 0.21098
 H397 H 0.54902 0.07971 0.16353
 H398 H 0.60093 0.07363 0.08307
 H399 H 0.63108 0.10529 0.13121
 C400 C 0.42979 0.14407 -0.31782
 C401 C 0.44151 0.16865 -0.31994
 C402 C 0.44055 0.18023 -0.36157
 C403 C 0.42860 0.16743 -0.40296
 C404 C 0.41568 0.14274 -0.39922
 C405 C 0.41608 0.13127 -0.35702
 C406 C 0.43379 0.13179 -0.27743
 N407 N 0.41728 0.10993 -0.26394
 N408 N 0.42180 0.09790 -0.23106
 C409 C 0.44309 0.10710 -0.21095
 N410 N 0.45953 0.12903 -0.22412
 N411 N 0.45493 0.14118 -0.25652
 C412 C 0.44876 0.09278 -0.17852
 C413 C 0.47066 0.09474 -0.18041
 C414 C 0.47539 0.07955 -0.15356
 C415 C 0.45854 0.06262 -0.12330
 C416 C 0.43697 0.06131 -0.11978
 C417 C 0.43200 0.07603 -0.14776
 H418 H 0.45211 0.17891 -0.28996
 H419 H 0.45100 0.19916 -0.36242
 H420 H 0.40536 0.13213 -0.42910
 H421 H 0.40670 0.11227 -0.35616
 H422 H 0.48383 0.10740 -0.20412
 H423 H 0.49215 0.08089 -0.15675
 H424 H 0.42368 0.04830 -0.09680
 H425 H 0.41501 0.07422 -0.14567
 C426 C 0.68069 0.52096 -0.33930
 C427 C 0.67145 0.51627 -0.38605
 C428 C 0.68559 0.52068 -0.42596
 C429 C 0.70951 0.52957 -0.42051
 C430 C 0.71856 0.53323 -0.37320
 C431 C 0.70436 0.52936 -0.33315
 C432 C 0.66546 0.51772 -0.29799
 N433 N 0.67375 0.53052 -0.25695
 N434 N 0.65944 0.52903 -0.22192
 C435 C 0.63632 0.51457 -0.22648
 N436 N 0.62820 0.50148 -0.26709
 N437 N 0.64243 0.50306 -0.30208
 C438 C 0.61986 0.51425 -0.19034
 C439 C 0.59630 0.49786 -0.19506
 C440 C 0.58009 0.49920 -0.16591
 C441 C 0.58698 0.51686 -0.13103
 C442 C 0.61058 0.53246 -0.12405
 C443 C 0.62694 0.53120 -0.15360
 H444 H 0.65322 0.50963 -0.39203
 H445 H 0.67745 0.51639 -0.46109
 H446 H 0.73683 0.54036 -0.36694
 H447 H 0.71192 0.53307 -0.29741
 H448 H 0.59019 0.48437 -0.22245
 H449 H 0.56202 0.48671 -0.17166
 H450 H 0.61631 0.54620 -0.09725
 H451 H 0.64497 0.54404 -0.14894
 C452 C 0.84804 0.29632 -0.34171
 C453 C 0.85890 0.29118 -0.37892
 C454 C 0.84633 0.27774 -0.41823
 C455 C 0.82239 0.26934 -0.42247
 C456 C 0.81135 0.27347 -0.38327
 C457 C 0.82405 0.28676 -0.34342
 C458 C 0.86221 0.31313 -0.30382
 N459 N 0.85372 0.31273 -0.25914
 N460 N 0.86664 0.32874 -0.22624
 C461 C 0.88839 0.34587 -0.23710
 N462 N 0.89680 0.34617 -0.28165
 N463 N 0.88404 0.33008 -0.31420
 C464 C 0.90247 0.36472 -0.20271
 C465 C 0.91664 0.38751 -0.22027
 C466 C 0.93076 0.40559 -0.18911
 C467 C 0.93150 0.40120 -0.13978
 C468 C 0.91733 0.37841 -0.12188
 C469 C 0.90261 0.36031 -0.15312
 H470 H 0.87731 0.29779 -0.37792
 H471 H 0.85565 0.27383 -0.44501
 H472 H 0.79320 0.26794 -0.38413
 H473 H 0.81526 0.29055 -0.31515
 H474 H 0.91673 0.39139 -0.25829
 H475 H 0.94153 0.42296 -0.20395
 H476 H 0.91758 0.37466 -0.08390
 H477 H 0.89185 0.34281 -0.13886
 C478 C 0.52687 -0.15479 -0.33566
 C479 C 0.51498 -0.15942 -0.37980
 C480 C 0.52168 -0.16783 -0.41911
 C481 C 0.54025 -0.17204 -0.41510
 C482 C 0.55134 -0.16875 -0.37036
 C483 C 0.54479 -0.16007 -0.33102
 C484 C 0.52160 -0.14294 -0.29629
 N485 N 0.53562 -0.13422 -0.25716
 N486 N 0.53197 -0.12170 -0.22414
 C487 C 0.51414 -0.11741 -0.22887
 N488 N 0.49993 -0.12651 -0.26754
 N489 N 0.50358 -0.13896 -0.30050
 C490 C 0.51110 -0.10178 -0.19478
 C491 C 0.49352 -0.09627 -0.20265
 C492 C 0.49181 -0.07986 -0.17377
 C493 C 0.50754 -0.06861 -0.13610
 C494 C 0.52457 -0.07471 -0.12675
 C495 C 0.52638 -0.09111 -0.15592
 H496 H 0.50102 -0.15570 -0.38470
 H497 H 0.51273 -0.17046 -0.45315
 H498 H 0.56578 -0.17180 -0.36649
 H499 H 0.55422 -0.15684 -0.29748
 H500 H 0.48135 -0.10418 -0.23199
 H501 H 0.47836 -0.07567 -0.18157
 H502 H 0.53689 -0.06633 -0.09783
 H503 H 0.54008 -0.09500 -0.14872
 C504 C 0.32126 0.49359 -0.32442
 C505 C 0.32997 0.50900 -0.36397
 C506 C 0.31666 0.50509 -0.40538
 C507 C 0.29424 0.48587 -0.40804
 C508 C 0.28496 0.47117 -0.36773
 C509 C 0.29842 0.47490 -0.32632
 C510 C 0.33668 0.49617 -0.28344
 N511 N 0.33045 0.47897 -0.24979
 N512 N 0.34536 0.48036 -0.21604
 C513 C 0.36710 0.49902 -0.21457
 N514 N 0.37308 0.51641 -0.24756
 N515 N 0.35823 0.51502 -0.28121
 C516 C 0.38467 0.49960 -0.18085
 C517 C 0.40783 0.51720 -0.18569
 C518 C 0.42502 0.51648 -0.15837
 C519 C 0.41950 0.49833 -0.12509
 C520 C 0.39628 0.48135 -0.11819
 C521 C 0.37900 0.48189 -0.14607
 H522 H 0.34742 0.52362 -0.36382
 H523 H 0.32407 0.51679 -0.43590
 H524 H 0.26769 0.45623 -0.36911
 H525 H 0.29116 0.46279 -0.29640
 H526 H 0.41290 0.53117 -0.21187
 H527 H 0.44276 0.52993 -0.16410
 H528 H 0.39160 0.46717 -0.09267
 H529 H 0.36131 0.46813 -0.14128
 C530 C 1.14618 0.67334 -0.33557
 C531 C 1.14757 0.66223 -0.37740
 C532 C 1.15822 0.67510 -0.41864
 C533 C 1.16822 0.69976 -0.41965
 C534 C 1.16681 0.71092 -0.37728
 C535 C 1.15565 0.69780 -0.33597
 C536 C 1.13488 0.65895 -0.29236
 N537 N 1.12523 0.66606 -0.25799
 N538 N 1.11357 0.65189 -0.22137
 C539 C 1.11128 0.63015 -0.21757
 N540 N 1.12140 0.62340 -0.25142
 N541 N 1.13289 0.63744 -0.28794
 C542 C 1.09650 0.61309 -0.18027
 C543 C 1.09416 0.59059 -0.17937
 C544 C 1.07789 0.57307 -0.14986
 C545 C 1.06372 0.57761 -0.11992
 C546 C 1.06697 0.60043 -0.11801
 C547 C 1.08319 0.61806 -0.14823
 H548 H 1.14043 0.64339 -0.37840
 H549 H 1.15958 0.66548 -0.44884
 H550 H 1.17361 0.72968 -0.37613
 H551 H 1.15471 0.70682 -0.30420
 H552 H 1.10426 0.58611 -0.20297
 H553 H 1.07592 0.55568 -0.15156
 H554 H 1.05619 0.60430 -0.09513
 H555 H 1.08465 0.63524 -0.14785
 C556 C 0.83431 0.51459 -0.32929
 C557 C 0.83369 0.53552 -0.33632
 C558 C 0.82343 0.53867 -0.37776
 C559 C 0.81387 0.52104 -0.41298
 C560 C 0.81381 0.49990 -0.40511
 C561 C 0.82382 0.49666 -0.36378
 C562 C 0.84691 0.51166 -0.28812
 N563 N 0.84750 0.49140 -0.28296
 N564 N 0.86029 0.48915 -0.24881
 C565 C 0.87307 0.50706 -0.21815
 N566 N 0.87217 0.52722 -0.22255
 N567 N 0.85935 0.52949 -0.25688
 C568 C 0.88903 0.50510 -0.18364
 C569 C 0.90064 0.52214 -0.14785
 C570 C 0.91724 0.52108 -0.11849
 C571 C 0.92270 0.50320 -0.12504
 C572 C 0.91059 0.48581 -0.15965
 C573 C 0.89385 0.48664 -0.18834
 H574 H 0.84155 0.54965 -0.31039
 H575 H 0.82363 0.55513 -0.38308
 H576 H 0.80619 0.48588 -0.43136
 H577 H 0.82380 0.48025 -0.35958
 H578 H 0.89724 0.53651 -0.14317
 H579 H 0.92638 0.53471 -0.09200
 H580 H 0.91436 0.47174 -0.16520
 H581 H 0.88526 0.47319 -0.21542
 C582 C 0.48235 0.32131 -0.32915
 C583 C 0.46615 0.29727 -0.32711
 C584 C 0.46172 0.28303 -0.36775
 C585 C 0.47295 0.29264 -0.41197
 C586 C 0.48996 0.31659 -0.41279
 C587 C 0.49464 0.33060 -0.37204
 C588 C 0.48552 0.33714 -0.28831
 N589 N 0.50335 0.35951 -0.28848
 N590 N 0.50513 0.37466 -0.25475
 C591 C 0.48914 0.36818 -0.21933
 N592 N 0.47152 0.34564 -0.21848
 N593 N 0.46976 0.33042 -0.25227
 C594 C 0.49004 0.38601 -0.18532
 C595 C 0.47293 0.38025 -0.15009
 C596 C 0.47266 0.39787 -0.12207
 C597 C 0.48937 0.42147 -0.12923
 C598 C 0.50696 0.42705 -0.16288
 C599 C 0.50737 0.40956 -0.19038
 H600 H 0.45647 0.28955 -0.29445
 H601 H 0.44830 0.26487 -0.36505
 H602 H 0.50005 0.32468 -0.44479
 H603 H 0.50748 0.34900 -0.37479
 H604 H 0.45937 0.36227 -0.14514
 H605 H 0.45894 0.39314 -0.09621
 H606 H 0.52023 0.44509 -0.16875
 H607 H 0.52093 0.41471 -0.21679
 C608 C 0.67085 0.15887 -0.34154
 C609 C 0.69141 0.15817 -0.34764
 C610 C 0.70544 0.16871 -0.38790
 C611 C 0.69910 0.18004 -0.42280
 C612 C 0.67907 0.18151 -0.41564
 C613 C 0.66513 0.17108 -0.37558
 C614 C 0.65466 0.14593 -0.30175
 N615 N 0.63374 0.14458 -0.29997
 N616 N 0.61843 0.13174 -0.26643
 C617 C 0.62336 0.11970 -0.23304
 N618 N 0.64443 0.12130 -0.23428
 N619 N 0.65976 0.13412 -0.26798
 C620 C 0.60556 0.10407 -0.19812
 C621 C 0.61105 0.09357 -0.15986
 C622 C 0.59378 0.07749 -0.12928
 C623 C 0.57067 0.07141 -0.13676
 C624 C 0.56527 0.08236 -0.17409
 C625 C 0.58252 0.09860 -0.20425
 H626 H 0.69634 0.14894 -0.32205
 H627 H 0.72078 0.16729 -0.39261
 H628 H 0.67401 0.19053 -0.44151
 H629 H 0.64959 0.17222 -0.37191
 H630 H 0.62864 0.09749 -0.15400
 H631 H 0.59841 0.06929 -0.10072
 H632 H 0.54761 0.07808 -0.18052
 H633 H 0.57764 0.10634 -0.23329
 C634 C 1.15910 0.47776 -0.33694
 C635 C 1.16803 0.46240 -0.33859
 C636 C 1.17942 0.46115 -0.37996
 C637 C 1.18154 0.47480 -0.42121
 C638 C 1.17262 0.49027 -0.41863
 C639 C 1.16176 0.49179 -0.37729
 C640 C 1.14646 0.47912 -0.29446
 N641 N 1.14287 0.49762 -0.28971
 N642 N 1.12989 0.49830 -0.25432
 C643 C 1.11984 0.48050 -0.22198
 N644 N 1.12378 0.46213 -0.22598
 N645 N 1.13688 0.46147 -0.26149
 C646 C 1.10341 0.48051 -0.18616
 C647 C 1.09179 0.46191 -0.15328
 C648 C 1.07440 0.46103 -0.12366
 C649 C 1.06824 0.47857 -0.12696
 C650 C 1.08054 0.49760 -0.15817
 C651 C 1.09797 0.49864 -0.18716
 H652 H 1.16620 0.45133 -0.30797
 H653 H 1.18553 0.44867 -0.38004
 H654 H 1.17470 0.50208 -0.44797
 H655 H 1.15519 0.50392 -0.37731
 H656 H 1.09562 0.44772 -0.15145
 H657 H 1.06515 0.44618 -0.09975
 H658 H 1.07632 0.51150 -0.16104
 H659 H 1.10662 0.51334 -0.21164
 C660 C 0.57446 0.71302 -0.33131
 C661 C 0.58736 0.71369 -0.37156
 C662 C 0.58947 0.72771 -0.41116
 C663 C 0.57834 0.74123 -0.41228
 C664 C 0.56746 0.74237 -0.36953
 C665 C 0.56548 0.72833 -0.32959
 C666 C 0.56838 0.69452 -0.29453
 N667 N 0.56198 0.69658 -0.24914
 N668 N 0.55508 0.67893 -0.21768
 C669 C 0.55397 0.65845 -0.23077
 N670 N 0.56043 0.65649 -0.27599
 N671 N 0.56755 0.67416 -0.30712
 C672 C 0.54538 0.63826 -0.19753
 C673 C 0.53335 0.61543 -0.21624
 C674 C 0.52636 0.59604 -0.18614
 C675 C 0.53171 0.59905 -0.13680
 C676 C 0.54331 0.62187 -0.11769
 C677 C 0.54985 0.64136 -0.14780
 H678 H 0.59517 0.70267 -0.37322
 H679 H 0.59958 0.72750 -0.44134
 H680 H 0.55857 0.75235 -0.36798
 H681 H 0.55555 0.72826 -0.29877
 H682 H 0.52950 0.61257 -0.25440
 H683 H 0.51746 0.57868 -0.20189
 H684 H 0.54758 0.62462 -0.07969
 H685 H 0.55914 0.65882 -0.13260
 C686 C 0.30843 -0.18114 -0.31175
 C687 C 0.28557 -0.18563 -0.31516
 C688 C 0.27263 -0.19550 -0.35708
 C689 C 0.28244 -0.20077 -0.39634
 C690 C 0.30473 -0.19755 -0.39191
 C691 C 0.31754 -0.18799 -0.35000
 C692 C 0.32357 -0.16738 -0.27116
 N693 N 0.34559 -0.16317 -0.26881
 N694 N 0.36025 -0.14852 -0.23620
 C695 C 0.35357 -0.13738 -0.20443
 N696 N 0.33136 -0.14202 -0.20586
 N697 N 0.31667 -0.15672 -0.23858
 C698 C 0.37082 -0.11888 -0.17253
 C699 C 0.36423 -0.10799 -0.13730
 C700 C 0.38094 -0.08879 -0.11119
 C701 C 0.40445 -0.08001 -0.12043
 C702 C 0.41100 -0.09141 -0.15426
 C703 C 0.39441 -0.11070 -0.17975
 H704 H 0.27800 -0.18069 -0.28627
 H705 H 0.25544 -0.19783 -0.35987
 H706 H 0.31253 -0.20171 -0.42167
 H707 H 0.33500 -0.18496 -0.34863
 H708 H 0.34620 -0.11392 -0.13073
 H709 H 0.37548 -0.08029 -0.08516
 H710 H 0.42903 -0.08514 -0.16173
 H711 H 0.40017 -0.11864 -0.20643
 C712 C 0.56523 -0.12760 0.33487
 C713 C 0.55836 -0.15149 0.32977
 C714 C 0.55896 -0.16447 0.36942
 C715 C 0.56651 -0.15374 0.41469
 C716 C 0.57504 -0.12950 0.41865
 C717 C 0.57435 -0.11660 0.37927
 C718 C 0.56063 -0.11473 0.29643
 N719 N 0.55926 -0.09538 0.30788
 N720 N 0.55290 -0.08485 0.27515
 C721 C 0.54774 -0.09311 0.22941
 N722 N 0.54956 -0.11218 0.21741
 N723 N 0.55575 -0.12288 0.25041
 C724 C 0.53892 -0.08223 0.19491
 C725 C 0.54315 -0.08149 0.14515
 C726 C 0.53541 -0.07001 0.11374
 C727 C 0.52285 -0.05971 0.13165
 C728 C 0.51805 -0.06122 0.18115
 C729 C 0.52619 -0.07211 0.21242
 H730 H 0.55127 -0.16046 0.29601
 H731 H 0.55222 -0.18315 0.36537
 H732 H 0.58144 -0.12066 0.45283
 H733 H 0.58016 -0.09813 0.38419
 H734 H 0.55292 -0.08921 0.13083
 H735 H 0.53930 -0.06909 0.07568
 H736 H 0.50846 -0.05343 0.19610
 H737 H 0.52244 -0.07266 0.25051
 C738 C 0.32167 0.48297 0.33319
 C739 C 0.29976 0.46291 0.33812
 C740 C 0.28604 0.46022 0.37848
 C741 C 0.29419 0.47740 0.41468
 C742 C 0.31573 0.49765 0.40895
 C743 C 0.32925 0.50044 0.36877
 C744 C 0.33728 0.48554 0.29285
 N745 N 0.35823 0.50518 0.28945
 N746 N 0.37317 0.50717 0.25574
 C747 C 0.36786 0.48963 0.22375
 N748 N 0.34673 0.47008 0.22645
 N749 N 0.33173 0.46807 0.26035
 C750 C 0.38550 0.49137 0.18915
 C751 C 0.38000 0.47475 0.15226
 C752 C 0.39730 0.47578 0.12220
 C753 C 0.42037 0.49322 0.12905
 C754 C 0.42573 0.51013 0.16498
 C755 C 0.40851 0.50931 0.19445
 H756 H 0.29337 0.44916 0.31127
 H757 H 0.26942 0.44449 0.38211
 H758 H 0.32221 0.51136 0.43595
 H759 H 0.34591 0.51618 0.36623
 H760 H 0.36243 0.46077 0.14710
 H761 H 0.39274 0.46252 0.09470
 H762 H 0.44336 0.52386 0.17085
 H763 H 0.41343 0.52243 0.22238
 C764 C 1.16084 0.67280 0.32200
 C765 C 1.16558 0.69621 0.32398
 C766 C 1.17545 0.70973 0.36540
 C767 C 1.18041 0.69992 0.40557
 C768 C 1.17669 0.67699 0.40279
 C769 C 1.16719 0.66363 0.36136
 C770 C 1.14763 0.65723 0.28139
 N771 N 1.14455 0.63522 0.27883
 N772 N 1.13064 0.62013 0.24589
 C773 C 1.11912 0.62633 0.21399
 N774 N 1.12259 0.64854 0.21571
 N775 N 1.13656 0.66369 0.24875
 C776 C 1.10166 0.60847 0.18131
 C777 C 1.08965 0.61436 0.14730
 C778 C 1.07156 0.59683 0.12029
 C779 C 1.06505 0.57315 0.12733
 C780 C 1.07756 0.56739 0.15999
 C781 C 1.09571 0.58481 0.18641
 H782 H 1.16100 0.70382 0.29420
 H783 H 1.17816 0.72740 0.36701
 H784 H 1.18053 0.66917 0.43337
 H785 H 1.16388 0.64573 0.36115
 H786 H 1.09385 0.63242 0.14237
 H787 H 1.06218 0.60170 0.09520
 H788 H 1.07305 0.54929 0.16585
 H789 H 1.10457 0.57955 0.21205
 C790 C 0.45226 0.14793 0.34386
 C791 C 0.46205 0.14847 0.38912
 C792 C 0.45792 0.15897 0.42848
 C793 C 0.44412 0.16942 0.42348
 C794 C 0.43463 0.16936 0.37818
 C795 C 0.43848 0.15848 0.33873
 C796 C 0.45628 0.13598 0.30299
 N797 N 0.44236 0.12902 0.26348
 N798 N 0.44542 0.11701 0.22832
 C799 C 0.46261 0.11164 0.23118
 N800 N 0.47666 0.11896 0.27034
 N801 N 0.47356 0.13082 0.30546
 C802 C 0.46531 0.09686 0.19441
 C803 C 0.48396 0.09268 0.19783
 C804 C 0.48547 0.07674 0.16727
 C805 C 0.46846 0.06461 0.13229
 C806 C 0.45040 0.06956 0.12687
 C807 C 0.44880 0.08556 0.15781
 H808 H 0.47269 0.14046 0.39442
 H809 H 0.46567 0.15907 0.46293
 H810 H 0.42396 0.17738 0.37360
 H811 H 0.43077 0.15841 0.30427
 H812 H 0.49715 0.10124 0.22511
 H813 H 0.49976 0.07350 0.17190
 H814 H 0.43710 0.06045 0.10005
 H815 H 0.43427 0.08845 0.15410
 C816 C 0.70022 0.55746 0.32862
 C817 C 0.70267 0.57045 0.37053
 C818 C 0.71481 0.56901 0.41018
 C819 C 0.72453 0.55433 0.40903
 C820 C 0.72379 0.54292 0.36572
 C821 C 0.71179 0.54454 0.32573
 C822 C 0.68336 0.55513 0.29123
 N823 N 0.68406 0.54769 0.24591
 N824 N 0.66741 0.54352 0.21413
 C825 C 0.64928 0.54630 0.22676
 N826 N 0.64874 0.55394 0.27183
 N827 N 0.66545 0.55833 0.30332
 C828 C 0.62978 0.54000 0.19353
 C829 C 0.60749 0.53088 0.21233
 C830 C 0.58883 0.52527 0.18190
 C831 C 0.59212 0.52919 0.13208
 C832 C 0.61438 0.53815 0.11300
 C833 C 0.63306 0.54321 0.14349
 H834 H 0.69428 0.58090 0.37350
 H835 H 0.71557 0.57844 0.44271
 H836 H 0.73106 0.53142 0.36383
 H837 H 0.71022 0.53437 0.29387
 H838 H 0.60446 0.52801 0.25073
 H839 H 0.57188 0.51847 0.19762
 H840 H 0.61731 0.54130 0.07465
 H841 H 0.65011 0.55023 0.12820
 C842 C 0.85112 0.28359 0.32073
 C843 C 0.82722 0.27493 0.32045
 C844 C 0.81387 0.26289 0.36054
 C845 C 0.82416 0.25908 0.40137
 C846 C 0.84766 0.26582 0.39954
 C847 C 0.86103 0.27811 0.35985
 C848 C 0.86607 0.30071 0.28398
 N849 N 0.88797 0.31709 0.29573
 N850 N 0.90085 0.33434 0.26528
 C851 C 0.89246 0.33584 0.22161
 N852 N 0.87073 0.31919 0.20922
 N853 N 0.85771 0.30204 0.24000
 C854 C 0.90624 0.35623 0.19016
 C855 C 0.90540 0.35413 0.13971
 C856 C 0.91908 0.37372 0.11076
 C857 C 0.93314 0.39576 0.13192
 C858 C 0.93347 0.39787 0.18225
 C859 C 0.92041 0.37826 0.21108
 H860 H 0.81912 0.27891 0.29080
 H861 H 0.79585 0.25805 0.36083
 H862 H 0.85599 0.26262 0.42990
 H863 H 0.87935 0.28423 0.36070
 H864 H 0.89458 0.33729 0.12284
 H865 H 0.91856 0.37172 0.07197
 H866 H 0.94425 0.41463 0.19948
 H867 H 0.92118 0.38038 0.24987
   
