data_POSCAR
  _audit_creation_date              2014-09-24
  _audit_creation_method            'ToBaCCo'
  _symmetry_space_group_name_H-M    'P1'
  _symmetry_Int_Tables_number       1
  _symmetry_cell_setting            triclinic
  loop_
  _symmetry_equiv_pos_as_xyz
 x,y,z
_cell_length_a 52.4749
_cell_length_b 52.4785
_cell_length_c 48.0254
_cell_angle_alpha 90.058100
_cell_angle_beta 89.940700
_cell_angle_gamma 119.980700
loop_
  _atom_site_label
  _atom_site_type_symbol
  _atom_site_fract_x
  _atom_site_fract_y
  _atom_site_fract_z
O1 O -0.00205 0.52417 0.03510
 O2 O -0.03717 0.45678 -0.00744
 O3 O -0.00189 0.47478 0.03547
 O4 O -0.03732 0.50616 -0.00786
 O5 O 0.00108 0.52524 -0.03606
 O6 O 0.03646 0.49379 0.00718
 O7 O 0.00118 0.47584 -0.03573
 O8 O 0.03636 0.54321 0.00689
 Cu9 Cu -0.02346 0.48857 0.01665
 Cu10 Cu 0.02262 0.51144 -0.01726
 C11 C 0.02326 0.54502 0.02841
 C12 C -0.02410 0.45497 -0.02897
 C13 C 0.02343 0.47918 0.02883
 C14 C -0.02430 0.52078 -0.02953
 O15 O 0.54257 0.50564 -0.00728
 O16 O 0.47521 0.47357 0.03537
 O17 O 0.49317 0.45615 -0.00756
 O18 O 0.52463 0.52307 0.03563
 O19 O 0.50549 0.54230 0.00741
 O20 O 0.47412 0.47538 -0.03585
 O21 O 0.45611 0.49276 0.00707
 O22 O 0.52348 0.52491 -0.03550
 Cu23 Cu 0.51081 0.48767 0.01688
 Cu24 Cu 0.48788 0.51076 -0.01705
 C25 C 0.54436 0.52049 -0.02880
 C26 C 0.45432 0.47795 0.02862
 C27 C 0.47856 0.45447 -0.02925
 C28 C 0.52016 0.54395 0.02902
 O29 O 0.49434 1.03727 -0.00760
 O30 O 0.52648 1.00214 0.03501
 O31 O 0.54387 1.03739 -0.00795
 O32 O 0.47695 1.00198 0.03527
 O33 O 0.45773 0.96361 0.00701
 O34 O 0.52469 0.99904 -0.03619
 O35 O 0.50726 0.96375 0.00678
 O36 O 0.47514 0.99892 -0.03589
 Cu37 Cu 0.51235 1.02355 0.01651
 Cu38 Cu 0.48929 0.97748 -0.01742
 C39 C 0.47950 1.02420 -0.02913
 C40 C 0.52206 0.97683 0.02832
 C41 C 0.54558 1.02440 -0.02961
 C42 C 0.45608 0.97666 0.02864
 O43 O 1.00179 0.47556 0.53534
 O44 O 1.03713 0.54257 0.49226
 O45 O 1.00187 0.52507 0.53525
 O46 O 1.03708 0.49308 0.49238
 O47 O 0.99875 0.47391 0.46414
 O48 O 0.96345 0.50581 0.50709
 O49 O 0.99871 0.52336 0.46410
 O50 O 0.96345 0.45634 0.50709
 Cu51 Cu 1.02331 0.51100 0.51664
 Cu52 Cu 0.97724 0.48793 0.48278
 C53 C 0.97649 0.45467 0.52868
 C54 C 1.02405 0.54424 0.47069
 C55 C 0.97654 0.52063 0.52863
 C56 C 1.02408 0.47832 0.47078
 O57 O 0.52555 0.52420 0.46474
 O58 O 0.49346 0.45697 0.50743
 O59 O 0.47602 0.47483 0.46454
 O60 O 0.54300 0.50634 0.50764
 O61 O 0.52382 0.52556 0.53589
 O62 O 0.45682 0.49397 0.49287
 O63 O 0.47431 0.47616 0.53576
 O64 O 0.50632 0.54338 0.49300
 Cu65 Cu 0.51144 0.48866 0.48324
 Cu66 Cu 0.48839 0.51170 0.51722
 C67 C 0.52113 0.54509 0.47144
 C68 C 0.47868 0.45525 0.52900
 C69 C 0.45514 0.47927 0.47124
 C70 C 0.54468 0.52106 0.52925
 O71 O 0.54356 0.03675 0.50696
 O72 O 0.47636 0.00177 0.46422
 O73 O 0.49420 0.03699 0.50719
 O74 O 0.52567 0.00151 0.46398
 O75 O 0.50643 -0.03688 0.49213
 O76 O 0.47496 -0.00139 0.53540
 O77 O 0.45710 -0.03664 0.49240
 O78 O 0.52433 -0.00163 0.53515
 Cu79 Cu 0.51189 0.02311 0.48277
 Cu80 Cu 0.48878 -0.02298 0.51661
 C81 C 0.54526 0.02364 0.52847
 C82 C 0.45542 -0.02351 0.47088
 C83 C 0.47945 0.02395 0.52878
 C84 C 0.52113 -0.02389 0.47049
 C85 C 0.14167 0.43821 0.26474
 C86 C 0.14165 0.43829 0.23618
 C87 C 0.15914 0.42679 0.22780
 N88 N 0.16981 0.41965 0.25027
 C89 C 0.15919 0.42667 0.27288
 C90 C 0.16428 0.42208 0.19989
 C91 C 0.18654 0.41571 0.19231
 C92 C 0.18849 0.40450 0.16674
 C93 C 0.21462 0.40434 0.16667
 C94 C 0.22792 0.41548 0.19219
 N95 N 0.21055 0.42214 0.20777
 C96 C 0.25650 0.42162 0.19959
 C97 C 0.26655 0.42647 0.22742
 C98 C 0.29560 0.43793 0.23555
 C99 C 0.29574 0.43808 0.26410
 C100 C 0.26677 0.42668 0.27250
 N101 N 0.24895 0.41955 0.25004
 C102 C 0.25696 0.42207 0.30042
 C103 C 0.22837 0.41579 0.30801
 C104 C 0.21522 0.40464 0.33358
 C105 C 0.18896 0.40455 0.33365
 C106 C 0.18681 0.41567 0.30813
 N107 N 0.21081 0.42225 0.29254
 C108 C 0.16440 0.42186 0.30071
 H109 H 0.13043 0.44621 0.27791
 H110 H 0.13040 0.44637 0.22318
 H111 H 0.21667 0.43407 0.27401
 H112 H 0.17289 0.39751 0.14974
 H113 H 0.22305 0.39722 0.14960
 H114 H 0.31481 0.44584 0.22237
 H115 H 0.31508 0.44612 0.27710
 H116 H 0.17343 0.39748 0.35072
 H117 H 0.21655 0.43400 0.22630
 H118 H 0.22381 0.39765 0.35058
 C119 C 0.59395 0.71964 0.23589
 C120 C 0.59403 0.71976 0.26444
 C121 C 0.58449 0.73894 0.27266
 N122 N 0.57873 0.75065 0.25013
 C123 C 0.58438 0.73876 0.22763
 C124 C 0.57860 0.74331 0.30040
 C125 C 0.57342 0.76633 0.30816
 C126 C 0.56036 0.76750 0.33288
 C127 C 0.56030 0.79365 0.33284
 C128 C 0.57333 0.80779 0.30809
 N129 N 0.58131 0.79100 0.29316
 C130 C 0.57842 0.83592 0.30027
 C131 C 0.58440 0.84610 0.27252
 C132 C 0.59401 0.87479 0.26426
 C133 C 0.59412 0.87477 0.23570
 C134 C 0.58456 0.84606 0.22748
 N135 N 0.57876 0.82858 0.25002
 C136 C 0.57873 0.83582 0.19974
 C137 C 0.57352 0.80762 0.19199
 C138 C 0.56050 0.79343 0.16726
 C139 C 0.56039 0.76719 0.16730
 C140 C 0.57337 0.76604 0.19206
 N141 N 0.58135 0.79080 0.20699
 C142 C 0.57841 0.74297 0.19989
 H143 H 0.59999 0.70674 0.22274
 H144 H 0.60015 0.70697 0.27762
 H145 H 0.59390 0.79708 0.22512
 H146 H 0.55144 0.75109 0.34917
 H147 H 0.55132 0.80116 0.34909
 H148 H 0.60007 0.89374 0.27741
 H149 H 0.60027 0.89369 0.22252
 H150 H 0.55143 0.75073 0.15105
 H151 H 0.59388 0.79726 0.27504
 H152 H 0.55163 0.80096 0.15096
 C153 C 0.12535 0.72000 0.23535
 C154 C 0.12537 0.71990 0.26391
 C155 C 0.15408 0.73899 0.27214
 N156 N 0.17156 0.75084 0.24962
 C157 C 0.15405 0.73913 0.22710
 C158 C 0.16431 0.74319 0.29986
 C159 C 0.19245 0.76623 0.30767
 C160 C 0.20663 0.76735 0.33239
 C161 C 0.23278 0.79356 0.33243
 C162 C 0.23390 0.80776 0.30773
 N163 N 0.20921 0.79098 0.29276
 C164 C 0.25691 0.83593 0.29997
 C165 C 0.26124 0.84616 0.27224
 C166 C 0.28039 0.87486 0.26403
 C167 C 0.28047 0.87486 0.23547
 C168 C 0.26134 0.84618 0.22720
 N169 N 0.24949 0.82868 0.24970
 C170 C 0.25710 0.83597 0.19946
 C171 C 0.23401 0.80787 0.19162
 C172 C 0.23284 0.79371 0.16685
 C173 C 0.20660 0.76758 0.16681
 C174 C 0.19244 0.76646 0.19157
 N175 N 0.20927 0.79112 0.20657
 C176 C 0.16425 0.74347 0.19935
 H177 H 0.10642 0.70721 0.22219
 H178 H 0.10646 0.70703 0.27708
 H179 H 0.20301 0.79741 0.22472
 H180 H 0.19915 0.75088 0.34862
 H181 H 0.24922 0.80106 0.34869
 H182 H 0.29321 0.89377 0.27721
 H183 H 0.29334 0.89379 0.22233
 H184 H 0.19906 0.75117 0.15051
 H185 H 0.20292 0.79728 0.27466
 H186 H 0.24929 0.80118 0.15058
 C187 C 0.71997 0.59421 0.73609
 C188 C 0.71999 0.59423 0.76464
 C189 C 0.73910 0.58463 0.77284
 N190 N 0.75086 0.57888 0.75030
 C191 C 0.73906 0.58460 0.72781
 C192 C 0.74337 0.57867 0.80057
 C193 C 0.76636 0.57348 0.80833
 C194 C 0.76746 0.56040 0.83304
 C195 C 0.79362 0.56033 0.83301
 C196 C 0.80782 0.57337 0.80828
 N197 N 0.79107 0.58137 0.79336
 C198 C 0.83595 0.57843 0.80046
 C199 C 0.84618 0.58439 0.77272
 C200 C 0.87488 0.59395 0.76446
 C201 C 0.87489 0.59400 0.73591
 C202 C 0.84620 0.58448 0.72769
 N203 N 0.82870 0.57875 0.75022
 C204 C 0.83599 0.57859 0.69994
 C205 C 0.80784 0.57349 0.69218
 C206 C 0.79368 0.56049 0.66743
 C207 C 0.76750 0.56050 0.66746
 C208 C 0.76635 0.57352 0.69222
 N209 N 0.79106 0.58142 0.70717
 C210 C 0.74332 0.57865 0.70005
 H211 H 0.70713 0.60032 0.72295
 H212 H 0.70718 0.60035 0.77784
 H213 H 0.79734 0.59397 0.72531
 H214 H 0.75101 0.55147 0.84931
 H215 H 0.80108 0.55134 0.84925
 H216 H 0.89379 0.59999 0.77762
 H217 H 0.89382 0.60009 0.72273
 H218 H 0.75106 0.55159 0.65119
 H219 H 0.79738 0.59395 0.77525
 H220 H 0.80118 0.55155 0.65113
 C221 C 0.43837 0.14240 0.76455
 C222 C 0.43843 0.14238 0.73600
 C223 C 0.42695 0.15990 0.72770
 N224 N 0.41985 0.17057 0.75021
 C225 C 0.42687 0.15994 0.77277
 C226 C 0.42225 0.16506 0.69981
 C227 C 0.41598 0.18737 0.69230
 C228 C 0.40480 0.18938 0.66676
 C229 C 0.40475 0.21557 0.66675
 C230 C 0.41591 0.22884 0.69228
 N231 N 0.42248 0.21140 0.70781
 C232 C 0.42213 0.25743 0.69975
 C233 C 0.42693 0.26744 0.72761
 C234 C 0.43842 0.29647 0.73582
 C235 C 0.43846 0.29655 0.76437
 C236 C 0.42700 0.26757 0.77268
 N237 N 0.41991 0.24979 0.75018
 C238 C 0.42229 0.25771 0.80058
 C239 C 0.41600 0.22911 0.80810
 C240 C 0.40483 0.21594 0.83366
 C241 C 0.40475 0.18970 0.83367
 C242 C 0.41589 0.18756 0.80812
 N243 N 0.42247 0.21156 0.79258
 C244 C 0.42208 0.16516 0.80063
 H245 H 0.44636 0.13115 0.77767
 H246 H 0.44648 0.13110 0.72293
 H247 H 0.43431 0.21743 0.77404
 H248 H 0.39776 0.17379 0.64974
 H249 H 0.39768 0.22404 0.64971
 H250 H 0.44640 0.31571 0.72269
 H251 H 0.44648 0.31587 0.77743
 H252 H 0.39768 0.17415 0.85071
 H253 H 0.43433 0.21736 0.72632
 H254 H 0.39782 0.22452 0.85069
 C255 C 0.70380 0.14146 0.76406
 C256 C 0.70393 0.14146 0.73551
 C257 C 0.73298 0.15899 0.72734
 N258 N 0.75059 0.16963 0.74994
 C259 C 0.73278 0.15898 0.77242
 C260 C 0.74303 0.16420 0.69950
 C261 C 0.77163 0.18658 0.69206
 C262 C 0.78493 0.18869 0.66654
 C263 C 0.81109 0.21494 0.66658
 C264 C 0.81304 0.22813 0.69213
 N265 N 0.78902 0.21060 0.70762
 C266 C 0.83531 0.25674 0.69966
 C267 C 0.84041 0.26663 0.72756
 C268 C 0.85788 0.29563 0.73589
 C269 C 0.85781 0.29558 0.76444
 C270 C 0.84028 0.26655 0.77263
 N271 N 0.82972 0.24888 0.75006
 C272 C 0.83504 0.25657 0.80049
 C273 C 0.81267 0.22798 0.80795
 C274 C 0.81052 0.21476 0.83350
 C275 C 0.78430 0.18857 0.83346
 C276 C 0.77117 0.18651 0.80788
 N277 N 0.78870 0.21051 0.79237
 C278 C 0.74259 0.16419 0.80033
 H279 H 0.68446 0.13021 0.77708
 H280 H 0.68471 0.13021 0.72235
 H281 H 0.78284 0.21644 0.77383
 H282 H 0.77649 0.17313 0.64949
 H283 H 0.82668 0.22350 0.64956
 H284 H 0.86916 0.31493 0.72284
 H285 H 0.86902 0.31483 0.77757
 H286 H 0.77572 0.17301 0.85048
 H287 H 0.78301 0.21648 0.72613
 H288 H 0.82603 0.22327 0.85057
 N289 N 0.07985 0.46467 0.05780
 C290 C 0.06691 0.45025 0.08171
 N291 N 0.03937 0.44467 0.08788
 N292 N 0.02524 0.45336 0.07072
 C293 C 0.03821 0.46796 0.04684
 N294 N 0.06573 0.47336 0.04065
 C295 C 0.08289 0.44268 0.10106
 C296 C 0.09672 0.43723 0.11766
 C297 C 0.11366 0.43184 0.13780
 N298 N 0.10045 0.41471 0.16034
 N299 N 0.11644 0.41114 0.17986
 C300 C 0.14620 0.42469 0.17754
 N301 N 0.15931 0.44164 0.15480
 N302 N 0.14332 0.44518 0.13529
 N303 N 0.53435 0.61466 0.05841
 C304 C 0.54893 0.61618 0.08220
 N305 N 0.55475 0.59434 0.08812
 N306 N 0.54614 0.57161 0.07084
 C307 C 0.53137 0.56993 0.04708
 N308 N 0.52573 0.59194 0.04112
 C309 C 0.55628 0.63949 0.10181
 C310 C 0.56153 0.65842 0.11880
 C311 C 0.56670 0.68013 0.13959
 N312 N 0.55350 0.67168 0.16481
 N313 N 0.55749 0.69167 0.18400
 C314 C 0.57484 0.72084 0.17866
 N315 N 0.58808 0.72925 0.15335
 N316 N 0.58407 0.70922 0.13413
 N317 N 0.40570 0.96087 0.08778
 C318 C 0.38385 0.93323 0.08181
 N319 N 0.38535 0.92017 0.05797
 N320 N 0.40808 0.93428 0.04068
 C321 C 0.43009 0.96189 0.04669
 N322 N 0.42843 0.97498 0.07050
 C323 C 0.36055 0.91726 0.10141
 C324 C 0.34162 0.90359 0.11839
 C325 C 0.31991 0.88704 0.13916
 N326 N 0.29081 0.87529 0.13371
 N327 N 0.27079 0.85929 0.15292
 C328 C 0.27922 0.85450 0.17822
 N329 N 0.30839 0.86633 0.18356
 N330 N 0.32837 0.88232 0.16437
 N331 N 0.96091 0.55552 0.58761
 C332 C 0.93323 0.54964 0.58174
 N333 N 0.92009 0.53496 0.55800
 N334 N 0.93417 0.52629 0.54070
 C335 C 0.96184 0.53198 0.54662
 N336 N 0.97499 0.54686 0.57033
 C337 C 0.91727 0.55695 0.60141
 C338 C 0.90362 0.56215 0.61847
 C339 C 0.88709 0.56722 0.63936
 N340 N 0.87528 0.58454 0.63405
 N341 N 0.85928 0.58845 0.65337
 C342 C 0.85455 0.57515 0.67863
 N343 N 0.86646 0.55785 0.68381
 N344 N 0.88245 0.55396 0.66453
 N345 N 0.46390 0.38411 0.55760
 C346 C 0.44936 0.38251 0.58148
 N347 N 0.44375 0.40443 0.58773
 N348 N 0.45254 0.42734 0.57068
 C349 C 0.46726 0.42911 0.54683
 N350 N 0.47268 0.40702 0.54055
 C351 C 0.44183 0.35894 0.60078
 C352 C 0.43646 0.33967 0.61737
 C353 C 0.43123 0.31740 0.63751
 N354 N 0.41411 0.31343 0.66010
 N355 N 0.41075 0.29399 0.67966
 C356 C 0.42449 0.27795 0.67734
 N357 N 0.44143 0.28185 0.65456
 N358 N 0.44477 0.30127 0.63501
 N359 N 0.59606 0.03929 0.58715
 C360 C 0.61801 0.06682 0.58099
 N361 N 0.61642 0.07983 0.55719
 N362 N 0.59351 0.06579 0.54012
 C363 C 0.57141 0.03828 0.54631
 N364 N 0.57315 0.02524 0.57008
 C365 C 0.64158 0.08276 0.60032
 C366 C 0.66084 0.09659 0.61693
 C367 C 0.68311 0.11354 0.63712
 N368 N 0.69926 0.14321 0.63473
 N369 N 0.71867 0.15922 0.65432
 C370 C 0.72253 0.14611 0.67704
 N371 N 0.70648 0.11634 0.67924
 N372 N 0.68705 0.10033 0.65963
 N373 N 0.46445 0.08045 0.94247
 C374 C 0.44981 0.06749 0.91867
 N375 N 0.44423 0.03997 0.91239
 N376 N 0.45314 0.02589 0.92936
 C377 C 0.46798 0.03888 0.95313
 N378 N 0.47337 0.06637 0.95944
 C379 C 0.44214 0.08348 0.89945
 C380 C 0.43667 0.09735 0.88292
 C381 C 0.43133 0.11435 0.86283
 N382 N 0.41414 0.10119 0.84031
 N383 N 0.41072 0.11725 0.82076
 C384 C 0.42447 0.14702 0.82304
 N385 N 0.44148 0.16008 0.84575
 N386 N 0.44488 0.14402 0.86529
 N387 N 0.61529 0.53497 0.94214
 C388 C 0.61691 0.54967 0.91840
 N389 N 0.59510 0.55552 0.91244
 N390 N 0.57228 0.54680 0.92963
 C391 C 0.57049 0.53190 0.95333
 N392 N 0.59247 0.52625 0.95934
 C393 C 0.64024 0.55701 0.89883
 C394 C 0.65915 0.56222 0.88184
 C395 C 0.68079 0.56728 0.86101
 N396 N 0.67223 0.55408 0.83581
 N397 N 0.69214 0.55796 0.81657
 C398 C 0.72133 0.57520 0.82185
 N399 N 0.72986 0.58845 0.84715
 N400 N 0.70991 0.58454 0.86642
 N401 N 0.91957 0.38375 0.94252
 C402 C 0.93252 0.38203 0.91870
 N403 N 0.96006 0.40391 0.91246
 N404 N 0.97418 0.42689 0.92946
 C405 C 0.96119 0.42876 0.95325
 N406 N 0.93367 0.40671 0.95952
 C407 C 0.91652 0.35838 0.89944
 C408 C 0.90266 0.33905 0.88289
 C409 C 0.88570 0.31671 0.86276
 N410 N 0.89891 0.31269 0.84024
 N411 N 0.88289 0.29319 0.82068
 C412 C 0.85312 0.27713 0.82292
 N413 N 0.84002 0.28107 0.84563
 N414 N 0.85603 0.30055 0.86519
 N415 N 0.55517 0.96105 0.41225
 C416 C 0.54932 0.93339 0.41816
 N417 N 0.53475 0.92032 0.44196
 N418 N 0.52613 0.93443 0.45927
 C419 C 0.53170 0.96206 0.45331
 N420 N 0.54656 0.97517 0.42954
 C421 C 0.55662 0.91740 0.39850
 C422 C 0.56182 0.90371 0.38148
 C423 C 0.56692 0.88713 0.36065
 N424 N 0.55376 0.88249 0.33544
 N425 N 0.55768 0.86647 0.31622
 C426 C 0.57492 0.85451 0.32153
 N427 N 0.58812 0.85923 0.34683
 N428 N 0.58418 0.87527 0.36608
 N429 N 0.40448 0.44460 0.41234
 C430 C 0.38258 0.45026 0.41854
 N431 N 0.38416 0.46479 0.44241
 N432 N 0.40702 0.47350 0.45952
 C433 C 0.42908 0.46802 0.45330
 N434 N 0.42734 0.45331 0.42944
 C435 C 0.35899 0.44268 0.39922
 C436 C 0.33969 0.43722 0.38264
 C437 C 0.31734 0.43182 0.36252
 N438 N 0.30108 0.44522 0.36501
 N439 N 0.28154 0.44169 0.34550
 C440 C 0.27765 0.42468 0.32277
 N441 N 0.29382 0.41108 0.32047
 N442 N 0.31338 0.41464 0.33998
 N443 N 0.08048 0.61494 0.44131
 C444 C 0.06735 0.61645 0.41756
 N445 N 0.03968 0.59461 0.41167
 N446 N 0.02562 0.57190 0.42894
 C447 C 0.03877 0.57023 0.45267
 N448 N 0.06641 0.59223 0.45860
 C449 C 0.08326 0.63975 0.39795
 C450 C 0.09687 0.65867 0.38096
 C451 C 0.11335 0.68038 0.36017
 N452 N 0.11798 0.67192 0.33489
 N453 N 0.13392 0.69189 0.31570
 C454 C 0.14579 0.72106 0.32109
 N455 N 0.14108 0.72949 0.34645
 N456 N 0.12512 0.70947 0.36567
 N457 N 0.96073 0.55475 0.91222
 C458 C 0.93310 0.54901 0.91818
 N459 N 0.92002 0.53453 0.94201
 N460 N 0.93409 0.52588 0.95930
 C461 C 0.96169 0.53135 0.95329
 N462 N 0.97480 0.54611 0.92949
 C463 C 0.91716 0.55635 0.89856
 C464 C 0.90351 0.56160 0.88157
 C465 C 0.88698 0.56675 0.86078
 N466 N 0.87518 0.58406 0.86625
 N467 N 0.85919 0.58806 0.84703
 C468 C 0.85447 0.57486 0.82170
 N469 N 0.86636 0.55756 0.81635
 N470 N 0.88234 0.55359 0.83555
 N471 N 0.44445 0.40511 0.91273
 C472 C 0.45009 0.38320 0.91889
 N473 N 0.46459 0.38477 0.94275
 N474 N 0.47333 0.40765 0.95987
 C475 C 0.46796 0.42979 0.95367
 N476 N 0.45319 0.42799 0.92984
 C477 C 0.44254 0.35962 0.89954
 C478 C 0.43713 0.34033 0.88293
 C479 C 0.43179 0.31800 0.86277
 N480 N 0.44524 0.30177 0.86524
 N481 N 0.44177 0.28226 0.84569
 C482 C 0.42480 0.27836 0.82296
 N483 N 0.41116 0.29449 0.82069
 N484 N 0.41464 0.31401 0.84024
 N485 N 0.59502 0.03945 0.91245
 C486 C 0.61691 0.06702 0.91858
 N487 N 0.61528 0.08003 0.94240
 N488 N 0.59239 0.06596 0.95950
 C489 C 0.57027 0.03842 0.95333
 N490 N 0.57212 0.02537 0.92955
 C491 C 0.64051 0.08296 0.89925
 C492 C 0.65983 0.09676 0.88265
 C493 C 0.68219 0.11367 0.86250
 N494 N 0.69846 0.14332 0.86495
 N495 N 0.71800 0.15928 0.84541
 C496 C 0.72189 0.14614 0.82270
 N497 N 0.70571 0.11638 0.82044
 N498 N 0.68616 0.10042 0.83999
 N499 N 0.03912 0.44369 0.41302
 C500 C 0.06667 0.44933 0.41920
 N501 N 0.07964 0.46398 0.44300
 N502 N 0.06557 0.47287 0.46003
 C503 C 0.03806 0.46751 0.45382
 N504 N 0.02504 0.45258 0.43006
 C505 C 0.08267 0.44171 0.39988
 C506 C 0.09655 0.43628 0.38328
 C507 C 0.11356 0.43099 0.36310
 N508 N 0.14323 0.44452 0.36554
 N509 N 0.15930 0.44117 0.34594
 C510 C 0.14625 0.42422 0.32318
 N511 N 0.11648 0.41049 0.32092
 N512 N 0.10041 0.41387 0.34053
 N513 N 0.55598 0.59562 0.41253
 C514 C 0.55011 0.61742 0.41849
 N515 N 0.53546 0.61588 0.44228
 N516 N 0.52682 0.59314 0.45952
 C517 C 0.53249 0.57116 0.45352
 N518 N 0.54734 0.57287 0.42977
 C519 C 0.55736 0.64066 0.39887
 C520 C 0.56249 0.65949 0.38184
 C521 C 0.56746 0.68104 0.36097
 N522 N 0.58471 0.71018 0.36628
 N523 N 0.58853 0.73003 0.34698
 C524 C 0.57522 0.72138 0.32173
 N525 N 0.55798 0.69217 0.31654
 N526 N 0.55419 0.67235 0.33582
 N527 N 0.38457 0.92018 0.44168
 C528 C 0.38305 0.93330 0.41793
 N529 N 0.40490 0.96095 0.41201
 N530 N 0.42766 0.97500 0.42924
 C531 C 0.42935 0.96184 0.45295
 N532 N 0.40733 0.93422 0.45892
 C533 C 0.35979 0.91736 0.39831
 C534 C 0.34093 0.90368 0.38130
 C535 C 0.31933 0.88710 0.36046
 N536 N 0.29020 0.87524 0.36583
 N537 N 0.27030 0.85920 0.34655
 C538 C 0.27889 0.85449 0.32127
 N539 N 0.30810 0.86643 0.31603
 N540 N 0.32796 0.88246 0.33527
 N541 N 0.53623 0.92032 0.05762
 C542 C 0.55086 0.93342 0.08140
 N543 N 0.55679 0.96113 0.08729
 N544 N 0.54822 0.97525 0.07001
 C545 C 0.53339 0.96212 0.04627
 N546 N 0.52766 0.93444 0.04033
 C547 C 0.55801 0.91741 0.10108
 C548 C 0.56306 0.90369 0.11816
 C549 C 0.56792 0.88708 0.13907
 N550 N 0.58515 0.87514 0.13383
 N551 N 0.58887 0.85907 0.15317
 C552 C 0.57546 0.85442 0.17838
 N553 N 0.55825 0.86645 0.18350
 N554 N 0.55455 0.88250 0.16419
 N555 N 0.40339 0.44300 0.08729
 C556 C 0.38149 0.44864 0.08107
 N557 N 0.38315 0.46320 0.05723
 N558 N 0.40608 0.47198 0.04018
 C559 C 0.42814 0.46652 0.04642
 N560 N 0.42632 0.45177 0.07024
 C561 C 0.35790 0.44112 0.10039
 C562 C 0.33863 0.43577 0.11700
 C563 C 0.31636 0.43056 0.13718
 N564 N 0.30029 0.44417 0.13477
 N565 N 0.28090 0.44088 0.15437
 C566 C 0.27697 0.42392 0.17712
 N567 N 0.29295 0.41011 0.17935
 N568 N 0.31236 0.41342 0.15973
 N569 N 0.03896 0.59570 0.08724
 C570 C 0.06666 0.61745 0.08130
 N571 N 0.07977 0.61581 0.05755
 N572 N 0.06565 0.59305 0.04032
 C573 C 0.03797 0.57113 0.04630
 N574 N 0.02484 0.57294 0.07001
 C575 C 0.08268 0.64071 0.10093
 C576 C 0.09640 0.65956 0.11795
 C577 C 0.11301 0.68113 0.13881
 N578 N 0.12490 0.71026 0.13350
 N579 N 0.14096 0.73014 0.15279
 C580 C 0.14566 0.72152 0.17803
 N581 N 0.13368 0.69231 0.18322
 N582 N 0.11763 0.67247 0.16396
 N583 N 0.46492 0.08044 0.55769
 C584 C 0.45035 0.06750 0.58154
 N585 N 0.44468 0.03993 0.58769
 N586 N 0.45342 0.02579 0.57057
 C587 C 0.46817 0.03876 0.54675
 N588 N 0.47366 0.06630 0.54057
 C589 C 0.44276 0.08351 0.60088
 C590 C 0.43730 0.09737 0.61747
 C591 C 0.43190 0.11434 0.63762
 N592 N 0.44530 0.14400 0.63514
 N593 N 0.44179 0.16002 0.65468
 C594 C 0.42480 0.14694 0.67741
 N595 N 0.41120 0.11718 0.67970
 N596 N 0.41474 0.10116 0.66016
 N597 N 0.59506 0.55560 0.58833
 C598 C 0.61686 0.54971 0.58238
 N599 N 0.61534 0.53512 0.55856
 N600 N 0.59263 0.52656 0.54128
 C601 C 0.57067 0.53226 0.54727
 N602 N 0.57236 0.54704 0.57106
 C603 C 0.64012 0.55697 0.60199
 C604 C 0.65901 0.56214 0.61897
 C605 C 0.68068 0.56721 0.63975
 N606 N 0.67214 0.55400 0.66495
 N607 N 0.69207 0.55789 0.68414
 C608 C 0.72126 0.57516 0.67882
 N609 N 0.72976 0.58841 0.65353
 N610 N 0.70979 0.58449 0.63431
 N611 N 0.96053 0.40403 0.58758
 C612 C 0.93299 0.38211 0.58140
 N613 N 0.92007 0.38367 0.55753
 N614 N 0.93420 0.40652 0.54041
 C615 C 0.96172 0.42860 0.54661
 N616 N 0.97467 0.42689 0.57046
 C617 C 0.91697 0.35856 0.60075
 C618 C 0.90309 0.33928 0.61735
 C619 C 0.88610 0.31698 0.63750
 N620 N 0.85645 0.30069 0.63497
 N621 N 0.84041 0.28120 0.65450
 C622 C 0.85345 0.27738 0.67729
 N623 N 0.88320 0.29358 0.67964
 N624 N 0.89925 0.31309 0.66010
   
