data_POSCAR
  _audit_creation_date              2014-09-24
  _audit_creation_method            'ToBaCCo'
  _symmetry_space_group_name_H-M    'P1'
  _symmetry_Int_Tables_number       1
  _symmetry_cell_setting            triclinic
  loop_
  _symmetry_equiv_pos_as_xyz
 x,y,z
_cell_length_a 56.1279
_cell_length_b 56.3454
_cell_length_c 42.1976
_cell_angle_alpha 89.974400
_cell_angle_beta 89.175200
_cell_angle_gamma 89.950500
loop_
  _atom_site_label
  _atom_site_type_symbol
  _atom_site_fract_x
  _atom_site_fract_y
  _atom_site_fract_z
C1 C 0.26939 0.27399 0.23496
 C2 C 0.24986 0.26163 0.24804
 C3 C 0.23039 0.27441 0.26057
 C4 C 0.23056 0.29926 0.26030
 C5 C 0.24997 0.31145 0.24695
 C6 C 0.26933 0.29884 0.23414
 C7 C 0.24981 0.23542 0.24872
 C8 C 0.26884 0.22301 0.26228
 C9 C 0.26863 0.19817 0.26334
 C10 C 0.24963 0.18561 0.25027
 C11 C 0.23073 0.19786 0.23643
 C12 C 0.23070 0.22271 0.23594
 H13 H 0.28439 0.26427 0.22497
 H14 H 0.21536 0.26502 0.27102
 H15 H 0.28354 0.23269 0.27251
 H16 H 0.21604 0.23215 0.22517
 H17 H 0.25002 0.33069 0.24655
 H18 H 0.24955 0.16636 0.25091
 C19 C 0.76968 0.77471 0.23726
 C20 C 0.75018 0.76237 0.25043
 C21 C 0.73076 0.77514 0.26312
 C22 C 0.73095 0.80001 0.26294
 C23 C 0.75035 0.81220 0.24948
 C24 C 0.76966 0.79958 0.23650
 C25 C 0.75008 0.73617 0.25098
 C26 C 0.76903 0.72368 0.26461
 C27 C 0.76877 0.69883 0.26552
 C28 C 0.74981 0.68635 0.25222
 C29 C 0.73099 0.69868 0.23830
 C30 C 0.73101 0.72354 0.23795
 H31 H 0.78460 0.76492 0.22716
 H32 H 0.71578 0.76568 0.27360
 H33 H 0.78370 0.73330 0.27501
 H34 H 0.71643 0.73304 0.22711
 H35 H 0.75041 0.83147 0.24913
 H36 H 0.74969 0.66710 0.25274
 C37 C 0.76915 0.27409 0.73795
 C38 C 0.74957 0.26170 0.75081
 C39 C 0.73008 0.27443 0.76337
 C40 C 0.73029 0.29930 0.76339
 C41 C 0.74978 0.31152 0.75024
 C42 C 0.76914 0.29894 0.73739
 C43 C 0.74949 0.23548 0.75119
 C44 C 0.76844 0.22295 0.76477
 C45 C 0.76818 0.19808 0.76558
 C46 C 0.74919 0.18565 0.75222
 C47 C 0.73038 0.19804 0.73836
 C48 C 0.73041 0.22289 0.73811
 H49 H 0.78416 0.26440 0.72793
 H50 H 0.71502 0.26494 0.77362
 H51 H 0.78308 0.23260 0.77521
 H52 H 0.71583 0.23243 0.72733
 H53 H 0.74992 0.33078 0.75000
 H54 H 0.74899 0.16639 0.75263
 C55 C 0.26943 0.77512 0.73492
 C56 C 0.24992 0.76265 0.74788
 C57 C 0.23032 0.77531 0.76024
 C58 C 0.23033 0.80016 0.75996
 C59 C 0.24971 0.81248 0.74674
 C60 C 0.26923 0.79998 0.73407
 C61 C 0.25005 0.73643 0.74861
 C62 C 0.26918 0.72415 0.76213
 C63 C 0.26914 0.69931 0.76321
 C64 C 0.25020 0.68662 0.75023
 C65 C 0.23118 0.69873 0.73644
 C66 C 0.23099 0.72358 0.73589
 H67 H 0.28451 0.76542 0.72508
 H68 H 0.21532 0.76583 0.77061
 H69 H 0.28383 0.73393 0.77231
 H70 H 0.21626 0.73291 0.72515
 H71 H 0.24959 0.83174 0.74638
 H72 H 0.25024 0.66737 0.75090
 C73 C 0.03248 0.03716 0.01104
 H74 H 0.03246 0.03858 -0.01453
 C75 C 0.04710 0.05196 0.02878
 H76 H 0.05847 0.06479 0.01687
 C77 C 0.01767 0.01872 0.05788
 H78 H 0.00600 0.00595 0.06916
 C79 C 0.03203 0.03320 0.07651
 H80 H 0.03156 0.03135 0.10207
 N81 N 0.01843 0.02070 0.02571
 C82 C 0.00848 -0.03460 -0.04533
 H83 H -0.01076 -0.03547 -0.04604
 C84 C 0.02224 -0.04992 -0.06414
 H85 H 0.01363 -0.06258 -0.07952
 C86 C 0.04331 -0.01739 -0.02403
 H87 H 0.05150 -0.00502 -0.00798
 C88 C 0.05771 -0.03237 -0.04240
 H89 H 0.07692 -0.03129 -0.04068
 Zn90 Zn -0.00050 0.00120 -0.00041
 N91 N 0.01915 -0.01857 -0.02604
 C92 C -0.01872 0.02026 -0.05790
 N93 N -0.01922 0.02157 -0.02567
 C94 C -0.03294 0.03793 -0.01023
 C95 C -0.04754 0.05328 -0.02723
 C96 C -0.03307 0.03530 -0.07581
 C97 C -0.00988 -0.03548 0.04306
 C98 C -0.02381 -0.05088 0.06152
 C99 C -0.05909 -0.03218 0.04084
 C100 C -0.04454 -0.01714 0.02279
 N101 N -0.02039 -0.01883 0.02448
 H102 H -0.00731 0.00755 -0.06978
 H103 H -0.03273 0.03881 0.01537
 H104 H -0.05869 0.06600 -0.01471
 H105 H -0.03284 0.03396 -0.10142
 H106 H 0.00935 -0.03673 0.04354
 H107 H -0.01532 -0.06399 0.07639
 H108 H -0.07829 -0.03065 0.03944
 H109 H -0.05260 -0.00427 0.00731
 C110 C 0.04709 -0.04874 -0.06267
 C111 C 0.04698 0.04985 0.06179
 C112 C -0.04864 -0.04914 0.06044
 C113 C -0.04772 0.05183 -0.06030
 C114 C 0.03332 0.53700 0.51201
 H115 H 0.03331 0.53846 0.48645
 C116 C 0.04788 0.55183 0.52980
 H117 H 0.05920 0.56473 0.51794
 C118 C 0.01859 0.51841 0.55878
 H119 H 0.00697 0.50557 0.57002
 C120 C 0.03289 0.53291 0.57747
 H121 H 0.03242 0.53102 0.60302
 N122 N 0.01935 0.52044 0.52663
 C123 C 0.00962 0.46514 0.45558
 H124 H -0.00962 0.46417 0.45499
 C125 C 0.02341 0.44987 0.43675
 H126 H 0.01481 0.43712 0.42148
 C127 C 0.04443 0.48260 0.47663
 H128 H 0.05260 0.49504 0.49258
 C129 C 0.05886 0.46766 0.45821
 H130 H 0.07806 0.46885 0.45982
 Zn131 Zn 0.00054 0.50091 0.50042
 N132 N 0.02027 0.48127 0.47477
 C133 C -0.01748 0.52005 0.44290
 N134 N -0.01818 0.52125 0.47513
 C135 C -0.03206 0.53749 0.49054
 C136 C -0.04660 0.55286 0.47349
 C137 C -0.03176 0.53512 0.42494
 C138 C -0.00877 0.46413 0.54372
 C139 C -0.02265 0.44855 0.56194
 C140 C -0.05798 0.46705 0.54108
 C141 C -0.04346 0.48228 0.52327
 N142 N -0.01931 0.48076 0.52516
 H143 H -0.00595 0.50742 0.43106
 H144 H -0.03200 0.53827 0.51616
 H145 H -0.05786 0.56549 0.48597
 H146 H -0.03136 0.53389 0.39932
 H147 H 0.01047 0.46302 0.54433
 H148 H -0.01414 0.43543 0.57677
 H149 H -0.07719 0.46841 0.53948
 H150 H -0.05155 0.49513 0.50778
 C151 C 0.04825 0.45119 0.43807
 C152 C 0.04777 0.54965 0.56281
 C153 C -0.04749 0.45008 0.56063
 C154 C -0.04655 0.55155 0.44041
 C155 C 0.53298 0.03768 0.51165
 H156 H 0.53311 0.03918 0.48609
 C157 C 0.54733 0.05257 0.52964
 H158 H 0.55864 0.06555 0.51794
 C159 C 0.51807 0.01893 0.55821
 H160 H 0.50647 0.00599 0.56928
 C161 C 0.53216 0.03349 0.57710
 H162 H 0.53155 0.03155 0.60264
 N163 N 0.51902 0.02101 0.52607
 C164 C 0.51017 -0.03422 0.45469
 H165 H 0.49094 -0.03533 0.45385
 C166 C 0.52420 -0.04930 0.43589
 H167 H 0.51580 -0.06202 0.42039
 C168 C 0.54469 -0.01659 0.47629
 H169 H 0.55265 -0.00415 0.49243
 C170 C 0.55935 -0.03133 0.45792
 H171 H 0.57854 -0.02999 0.45975
 Zn172 Zn 0.50051 0.00139 0.49957
 N173 N 0.52056 -0.01809 0.47412
 C174 C 0.48278 0.02045 0.44185
 N175 N 0.48184 0.02163 0.47408
 C176 C 0.46776 0.03779 0.48931
 C177 C 0.45324 0.05307 0.47208
 C178 C 0.46853 0.03542 0.42370
 C179 C 0.49113 -0.03551 0.54268
 C180 C 0.47720 -0.05117 0.56074
 C181 C 0.44192 -0.03281 0.53953
 C182 C 0.45648 -0.01750 0.52189
 N183 N 0.48062 -0.01892 0.52403
 H184 H 0.49447 0.00790 0.43014
 H185 H 0.46763 0.03858 0.51493
 H186 H 0.44182 0.06564 0.48441
 H187 H 0.46912 0.03418 0.39809
 H188 H 0.51036 -0.03654 0.54350
 H189 H 0.48569 -0.06425 0.57565
 H190 H 0.42272 -0.03152 0.53774
 H191 H 0.44843 -0.00467 0.50634
 C192 C 0.54902 -0.04778 0.43750
 C193 C 0.54703 0.05034 0.56264
 C194 C 0.45237 -0.04974 0.55918
 C195 C 0.45352 0.05175 0.43899
 C196 C 0.53362 0.53839 0.01119
 H197 H 0.53373 0.53984 -0.01438
 C198 C 0.54809 0.55323 0.02909
 H199 H 0.55947 0.56612 0.01732
 C200 C 0.51865 0.51983 0.05785
 H201 H 0.50699 0.50698 0.06899
 C202 C 0.53285 0.53434 0.07665
 H203 H 0.53225 0.53246 0.10220
 N204 N 0.51958 0.52184 0.02569
 C205 C 0.51028 0.46647 -0.04540
 H206 H 0.49105 0.46546 -0.04618
 C207 C 0.52420 0.45125 -0.06415
 H208 H 0.51571 0.43852 -0.07954
 C209 C 0.54494 0.48398 -0.02401
 H210 H 0.55300 0.49643 -0.00796
 C211 C 0.55949 0.46911 -0.04233
 H212 H 0.57869 0.47035 -0.04057
 Zn213 Zn 0.50090 0.50227 -0.00066
 N214 N 0.52080 0.48261 -0.02610
 C215 C 0.48309 0.52128 -0.05838
 N216 N 0.48228 0.52257 -0.02616
 C217 C 0.46835 0.53887 -0.01093
 C218 C 0.45386 0.55418 -0.02815
 C219 C 0.46886 0.53629 -0.07651
 C220 C 0.49137 0.46551 0.04263
 C221 C 0.47738 0.45001 0.06085
 C222 C 0.44217 0.46859 0.03977
 C223 C 0.45679 0.48373 0.02196
 N224 N 0.48093 0.48214 0.02396
 H225 H 0.49466 0.50862 -0.07009
 H226 H 0.46832 0.53973 0.01469
 H227 H 0.44256 0.56685 -0.01580
 H228 H 0.46934 0.53497 -0.10213
 H229 H 0.51059 0.46434 0.04334
 H230 H 0.48581 0.43691 0.07578
 H231 H 0.42298 0.47003 0.03811
 H232 H 0.44878 0.49659 0.00640
 C233 C 0.54904 0.45265 -0.06263
 C234 C 0.54781 0.55107 0.06210
 C235 C 0.45255 0.45164 0.05945
 C236 C 0.45401 0.55276 -0.06123
 C237 C 0.21076 -0.18689 -0.22599
 C238 C 0.19469 -0.17580 -0.21382
 C239 C 0.17592 -0.16228 -0.19883
 C240 C 0.15927 -0.17350 -0.17890
 C241 C 0.14170 -0.16017 -0.16320
 C242 C 0.14058 -0.13539 -0.16724
 C243 C 0.15723 -0.12433 -0.18765
 C244 C 0.17477 -0.13770 -0.20331
 C245 C 0.12262 -0.12102 -0.14954
 C246 C 0.11121 -0.10173 -0.16416
 C247 C 0.09509 -0.08760 -0.14702
 C248 C 0.09015 -0.09255 -0.11510
 C249 C 0.10116 -0.11188 -0.10047
 C250 C 0.11727 -0.12604 -0.11755
 C251 C 0.07448 -0.07733 -0.09701
 C252 C 0.06177 -0.06439 -0.08154
 H253 H 0.15999 -0.19252 -0.17527
 H254 H 0.12898 -0.16923 -0.14794
 H255 H 0.15707 -0.10527 -0.19090
 H256 H 0.18766 -0.12881 -0.21854
 H257 H 0.11473 -0.09759 -0.18884
 H258 H 0.08666 -0.07268 -0.15858
 H259 H 0.09756 -0.11580 -0.07572
 H260 H 0.12599 -0.14054 -0.10550
 C261 C 0.21111 0.31233 0.27443
 C262 C 0.19514 0.32352 0.28665
 C263 C 0.17648 0.33717 0.30168
 C264 C 0.15967 0.32603 0.32144
 C265 C 0.14221 0.33948 0.33717
 C266 C 0.14136 0.36428 0.33332
 C267 C 0.15817 0.37525 0.31306
 C268 C 0.17561 0.36177 0.29738
 C269 C 0.12352 0.37875 0.35106
 C270 C 0.11232 0.39820 0.33654
 C271 C 0.09630 0.41241 0.35372
 C272 C 0.09124 0.40737 0.38558
 C273 C 0.10205 0.38789 0.40012
 C274 C 0.11806 0.37365 0.38300
 C275 C 0.07563 0.42262 0.40370
 C276 C 0.06294 0.43556 0.41919
 H277 H 0.16019 0.30698 0.32492
 H278 H 0.12935 0.33048 0.35230
 H279 H 0.15821 0.39433 0.30996
 H280 H 0.18863 0.37059 0.28227
 H281 H 0.11593 0.40241 0.31190
 H282 H 0.08802 0.42745 0.34223
 H283 H 0.09836 0.38390 0.42483
 H284 H 0.12663 0.35902 0.39497
 C285 C 0.71257 -0.18763 0.27643
 C286 C 0.69659 -0.17647 0.28869
 C287 C 0.67790 -0.16288 0.30373
 C288 C 0.66831 -0.14310 0.28840
 C289 C 0.65091 -0.12926 0.30361
 C290 C 0.64288 -0.13504 0.33440
 C291 C 0.65240 -0.15515 0.34943
 C292 C 0.66981 -0.16895 0.33418
 C293 C 0.62517 -0.11978 0.35117
 C294 C 0.60698 -0.12990 0.37008
 C295 C 0.59089 -0.11545 0.38678
 C296 C 0.59275 -0.09073 0.38478
 C297 C 0.61060 -0.08050 0.36577
 C298 C 0.62669 -0.09490 0.34904
 C299 C 0.57687 -0.07582 0.40299
 C300 C 0.56396 -0.06313 0.41856
 H301 H 0.67445 -0.13825 0.26481
 H302 H 0.64371 -0.11406 0.29127
 H303 H 0.64684 -0.15987 0.37329
 H304 H 0.67720 -0.18416 0.34633
 H305 H 0.60517 -0.14899 0.37190
 H306 H 0.57713 -0.12356 0.40143
 H307 H 0.61228 -0.06138 0.36419
 H308 H 0.64068 -0.08656 0.33506
 C309 C 0.71186 0.31164 -0.22318
 C310 C 0.69586 0.32281 -0.21097
 C311 C 0.67718 0.33644 -0.19596
 C312 C 0.66706 0.35573 -0.21177
 C313 C 0.64971 0.36966 -0.19661
 C314 C 0.64226 0.36448 -0.16537
 C315 C 0.65232 0.34484 -0.14986
 C316 C 0.66967 0.33094 -0.16506
 C317 C 0.62462 0.37987 -0.14869
 C318 C 0.60693 0.36993 -0.12879
 C319 C 0.59094 0.38454 -0.11216
 C320 C 0.59242 0.40923 -0.11518
 C321 C 0.60977 0.41927 -0.13518
 C322 C 0.62576 0.40471 -0.15185
 C323 C 0.57667 0.42432 -0.09703
 C324 C 0.56386 0.43714 -0.08151
 H325 H 0.67275 0.36014 -0.23569
 H326 H 0.64211 0.38448 -0.20931
 H327 H 0.64722 0.34058 -0.12568
 H328 H 0.67748 0.31612 -0.15254
 H329 H 0.60542 0.35088 -0.12616
 H330 H 0.57757 0.37658 -0.09674
 H331 H 0.61115 0.43837 -0.13757
 H332 H 0.63937 0.41292 -0.16660
 C333 C -0.21397 0.18600 -0.21995
 C334 C -0.19845 0.17517 -0.20674
 C335 C -0.18029 0.16208 -0.19049
 C336 C -0.18467 0.15383 -0.15968
 C337 C -0.16726 0.14087 -0.14385
 C338 C -0.14517 0.13596 -0.15864
 C339 C -0.14090 0.14437 -0.18962
 C340 C -0.15836 0.15736 -0.20542
 C341 C -0.12683 0.12190 -0.14187
 C342 C -0.11343 0.10447 -0.15806
 C343 C -0.09675 0.09070 -0.14196
 C344 C -0.09321 0.09420 -0.10953
 C345 C -0.10624 0.11168 -0.09332
 C346 C -0.12293 0.12545 -0.10935
 C347 C -0.07676 0.07943 -0.09264
 C348 C -0.06332 0.06692 -0.07810
 H349 H -0.20162 0.15731 -0.14795
 H350 H -0.17123 0.13436 -0.12022
 H351 H -0.12399 0.14110 -0.20149
 H352 H -0.15477 0.16370 -0.22926
 H353 H -0.11623 0.10112 -0.18299
 H354 H -0.08683 0.07714 -0.15472
 H355 H -0.10362 0.11455 -0.06822
 H356 H -0.13272 0.13893 -0.09632
 C357 C -0.21235 0.68611 0.28080
 C358 C -0.19680 0.67533 0.29400
 C359 C -0.17859 0.66230 0.31021
 C360 C -0.15746 0.65594 0.29435
 C361 C -0.13999 0.64294 0.31009
 C362 C -0.14343 0.63617 0.34194
 C363 C -0.16470 0.64276 0.35768
 C364 C -0.18214 0.65572 0.34190
 C365 C -0.12513 0.62201 0.35862
 C366 C -0.11981 0.62679 0.39047
 C367 C -0.10319 0.61293 0.40650
 C368 C -0.09167 0.59413 0.39095
 C369 C -0.09662 0.58941 0.35916
 C370 C -0.11322 0.60326 0.34306
 C371 C -0.07535 0.57929 0.40794
 C372 C -0.06202 0.56671 0.42254
 H373 H -0.15452 0.66098 0.26982
 H374 H -0.12369 0.63837 0.29746
 H375 H -0.16805 0.63752 0.38203
 H376 H -0.19847 0.66048 0.35436
 H377 H -0.12844 0.64129 0.40296
 H378 H -0.09948 0.61676 0.43111
 H379 H -0.08787 0.57483 0.34694
 H380 H -0.11714 0.59895 0.31869
 C381 C 0.28761 0.18554 0.27855
 C382 C 0.30323 0.17485 0.29171
 C383 C 0.32154 0.16195 0.30789
 C384 C 0.31901 0.15722 0.34031
 C385 C 0.33651 0.14434 0.35610
 C386 C 0.35681 0.13597 0.33963
 C387 C 0.35925 0.14090 0.30704
 C388 C 0.34172 0.15382 0.29129
 C389 C 0.37511 0.12183 0.35634
 C390 C 0.38552 0.10179 0.34182
 C391 C 0.40209 0.08798 0.35804
 C392 C 0.40851 0.09404 0.38892
 C393 C 0.39850 0.11411 0.40341
 C394 C 0.38193 0.12793 0.38725
 C395 C 0.42479 0.07929 0.40613
 C396 C 0.43808 0.06680 0.42092
 H397 H 0.30342 0.16334 0.35336
 H398 H 0.33393 0.14054 0.38107
 H399 H 0.37480 0.13493 0.29380
 H400 H 0.34387 0.15742 0.26619
 H401 H 0.38042 0.09645 0.31821
 H402 H 0.40965 0.07242 0.34665
 H403 H 0.40337 0.11898 0.42730
 H404 H 0.37448 0.14343 0.39890
 C405 C 0.28822 0.68680 -0.22162
 C406 C 0.30392 0.67618 -0.20850
 C407 C 0.32230 0.66333 -0.19235
 C408 C 0.34186 0.65417 -0.20929
 C409 C 0.35939 0.64122 -0.19359
 C410 C 0.35757 0.63728 -0.16070
 C411 C 0.33790 0.64670 -0.14389
 C412 C 0.32040 0.65962 -0.15963
 C413 C 0.37582 0.62306 -0.14401
 C414 C 0.38353 0.62978 -0.11372
 C415 C 0.40004 0.61590 -0.09753
 C416 C 0.40910 0.59514 -0.11137
 C417 C 0.40179 0.58846 -0.14165
 C418 C 0.38528 0.60232 -0.15790
 C419 C 0.42533 0.58037 -0.09410
 C420 C 0.43859 0.56785 -0.07929
 H421 H 0.34352 0.65698 -0.23463
 H422 H 0.37445 0.63444 -0.20711
 H423 H 0.33579 0.64368 -0.11866
 H424 H 0.30528 0.66654 -0.14631
 H425 H 0.37682 0.64580 -0.10258
 H426 H 0.40560 0.62125 -0.07411
 H427 H 0.40861 0.57236 -0.15253
 H428 H 0.37949 0.59651 -0.18100
 C429 C -0.21188 -0.18847 0.22257
 C430 C -0.19585 -0.17764 0.20993
 C431 C -0.17712 -0.16439 0.19446
 C432 C -0.16472 -0.14695 0.21109
 C433 C -0.14729 -0.13331 0.19563
 C434 C -0.14205 -0.13695 0.16327
 C435 C -0.15440 -0.15475 0.14689
 C436 C -0.17182 -0.16835 0.16239
 C437 C -0.12432 -0.12179 0.14642
 C438 C -0.10857 -0.13161 0.12369
 C439 C -0.09254 -0.11712 0.10697
 C440 C -0.09202 -0.09267 0.11275
 C441 C -0.10740 -0.08279 0.13555
 C442 C -0.12343 -0.09723 0.15230
 C443 C -0.07627 -0.07759 0.09460
 C444 C -0.06346 -0.06474 0.07916
 H445 H -0.16868 -0.14373 0.23592
 H446 H -0.13790 -0.11994 0.20897
 H447 H -0.15103 -0.15776 0.12188
 H448 H -0.18141 -0.18172 0.14925
 H449 H -0.10863 -0.15048 0.11890
 H450 H -0.08070 -0.12496 0.08937
 H451 H -0.10723 -0.06386 0.14009
 H452 H -0.13553 -0.08908 0.16930
 C453 C -0.21126 0.31163 0.72301
 C454 C -0.19518 0.32253 0.71062
 C455 C -0.17638 0.33589 0.69545
 C456 C -0.17357 0.35999 0.70241
 C457 C -0.15603 0.37329 0.68669
 C458 C -0.14107 0.36266 0.66370
 C459 C -0.14386 0.33833 0.65715
 C460 C -0.16141 0.32505 0.67293
 C461 C -0.12316 0.37707 0.64602
 C462 C -0.11968 0.37383 0.61321
 C463 C -0.10359 0.38810 0.59628
 C464 C -0.09074 0.40575 0.61188
 C465 C -0.09383 0.40891 0.64458
 C466 C -0.10992 0.39466 0.66156
 C467 C -0.07504 0.42112 0.59413
 C468 C -0.06227 0.43422 0.57899
 H469 H -0.18515 0.36858 0.71967
 H470 H -0.15457 0.39204 0.69194
 H471 H -0.13244 0.32958 0.63986
 H472 H -0.16345 0.30640 0.66736
 H473 H -0.12983 0.36068 0.60049
 H474 H -0.10143 0.38559 0.57095
 H475 H -0.08396 0.42251 0.65689
 H476 H -0.11198 0.39739 0.68685
 C477 C 0.28773 -0.18795 0.72045
 C478 C 0.30384 -0.17704 0.70810
 C479 C 0.32269 -0.16371 0.69299
 C480 C 0.32553 -0.13962 0.69998
 C481 C 0.34317 -0.12635 0.68438
 C482 C 0.35819 -0.13702 0.66150
 C483 C 0.35537 -0.16134 0.65492
 C484 C 0.33772 -0.17458 0.67057
 C485 C 0.37623 -0.12266 0.64397
 C486 C 0.37986 -0.12590 0.61119
 C487 C 0.39607 -0.11169 0.59440
 C488 C 0.40891 -0.09409 0.61011
 C489 C 0.40569 -0.09093 0.64278
 C490 C 0.38946 -0.10512 0.65963
 C491 C 0.42471 -0.07873 0.59248
 C492 C 0.43754 -0.06563 0.57744
 H493 H 0.31391 -0.13100 0.71717
 H494 H 0.34465 -0.10761 0.68965
 H495 H 0.36683 -0.17012 0.63771
 H496 H 0.33567 -0.19323 0.66499
 H497 H 0.36972 -0.13902 0.59837
 H498 H 0.39834 -0.11420 0.56908
 H499 H 0.41554 -0.07736 0.65519
 H500 H 0.38729 -0.10240 0.68491
 C501 C 0.28887 0.31149 0.21956
 C502 C 0.30490 0.32238 0.20702
 C503 C 0.32364 0.33570 0.19166
 C504 C 0.32845 0.33242 0.15933
 C505 C 0.34590 0.34608 0.14400
 C506 C 0.35878 0.36327 0.16083
 C507 C 0.35401 0.36623 0.19343
 C508 C 0.33655 0.35252 0.20872
 C509 C 0.37658 0.37849 0.14421
 C510 C 0.37800 0.40289 0.15108
 C511 C 0.39409 0.41742 0.13457
 C512 C 0.40900 0.40779 0.11102
 C513 C 0.40796 0.38350 0.10427
 C514 C 0.39186 0.36893 0.12075
 C515 C 0.42480 0.42299 0.09314
 C516 C 0.43766 0.43594 0.07791
 H517 H 0.31847 0.31954 0.14586
 H518 H 0.34890 0.34362 0.11881
 H519 H 0.36381 0.37910 0.20710
 H520 H 0.33297 0.35521 0.23376
 H521 H 0.36626 0.41085 0.16867
 H522 H 0.39466 0.43622 0.13986
 H523 H 0.41943 0.37586 0.08610
 H524 H 0.39140 0.35018 0.11519
 C525 C 0.21160 0.18488 0.22215
 C526 C 0.19584 0.17385 0.20983
 C527 C 0.17735 0.16052 0.19469
 C528 C 0.16887 0.16773 0.16519
 C529 C 0.15154 0.15433 0.14988
 C530 C 0.14247 0.13347 0.16388
 C531 C 0.15094 0.12651 0.19371
 C532 C 0.16827 0.13995 0.20899
 C533 C 0.12470 0.11877 0.14707
 C534 C 0.12647 0.09385 0.14728
 C535 C 0.11020 0.08001 0.13066
 C536 C 0.09195 0.09085 0.11365
 C537 C 0.08989 0.11560 0.11352
 C538 C 0.10615 0.12949 0.13012
 C539 C 0.07575 0.07656 0.09570
 C540 C 0.06247 0.06445 0.08039
 H541 H 0.17586 0.18356 0.15384
 H542 H 0.14563 0.15999 0.12676
 H543 H 0.14410 0.11071 0.20529
 H544 H 0.17471 0.13421 0.23183
 H545 H 0.14073 0.08507 0.15972
 H546 H 0.11203 0.06086 0.13079
 H547 H 0.07582 0.12417 0.10043
 H548 H 0.10415 0.14860 0.12982
 C549 C 0.21209 0.68560 0.72232
 C550 C 0.19635 0.67443 0.71018
 C551 C 0.17788 0.66090 0.69530
 C552 C 0.17079 0.63905 0.70808
 C553 C 0.15352 0.62545 0.69295
 C554 C 0.14312 0.63352 0.66476
 C555 C 0.15017 0.65565 0.65232
 C556 C 0.16745 0.66922 0.66749
 C557 C 0.12543 0.61870 0.64799
 C558 C 0.10539 0.62911 0.63389
 C559 C 0.08916 0.61516 0.61733
 C560 C 0.09274 0.59065 0.61465
 C561 C 0.11250 0.58011 0.62881
 C562 C 0.12873 0.59401 0.64538
 C563 C 0.07651 0.57637 0.59674
 C564 C 0.06323 0.56426 0.58144
 H565 H 0.17874 0.63245 0.72961
 H566 H 0.14825 0.60865 0.70334
 H567 H 0.14274 0.66221 0.63046
 H568 H 0.17290 0.68605 0.65731
 H569 H 0.10221 0.64801 0.63580
 H570 H 0.07391 0.62350 0.60647
 H571 H 0.11550 0.56117 0.62674
 H572 H 0.14415 0.58551 0.65557
 C573 C 0.71124 0.18520 0.72388
 C574 C 0.69544 0.17430 0.71143
 C575 C 0.67690 0.16111 0.69619
 C576 C 0.66658 0.14146 0.71133
 C577 C 0.64921 0.12811 0.69601
 C578 C 0.64193 0.13423 0.66529
 C579 C 0.65221 0.15419 0.65043
 C580 C 0.66959 0.16751 0.66579
 C581 C 0.62415 0.11954 0.64847
 C582 C 0.60657 0.13025 0.62977
 C583 C 0.59036 0.11632 0.61314
 C584 C 0.59149 0.09155 0.61498
 C585 C 0.60875 0.08074 0.63376
 C586 C 0.62496 0.09462 0.65041
 C587 C 0.57542 0.07718 0.59693
 C588 C 0.56229 0.06501 0.58147
 H589 H 0.67209 0.13637 0.73488
 H590 H 0.64141 0.11304 0.70823
 H591 H 0.64724 0.15917 0.62664
 H592 H 0.67754 0.18262 0.65379
 H593 H 0.60531 0.14938 0.62810
 H594 H 0.57706 0.12488 0.59868
 H595 H 0.60986 0.06157 0.63522
 H596 H 0.63848 0.08583 0.66423
 C597 C 0.71190 0.68579 0.22381
 C598 C 0.69616 0.67485 0.21131
 C599 C 0.67767 0.66162 0.19599
 C600 C 0.67021 0.66821 0.16574
 C601 C 0.65288 0.65489 0.15030
 C602 C 0.64280 0.63474 0.16493
 C603 C 0.65024 0.62841 0.19551
 C604 C 0.66758 0.64177 0.21091
 C605 C 0.62505 0.62007 0.14803
 C606 C 0.62603 0.59514 0.14960
 C607 C 0.60983 0.58130 0.13286
 C608 C 0.59242 0.59215 0.11439
 C609 C 0.59112 0.61693 0.11291
 C610 C 0.60732 0.63082 0.12962
 C611 C 0.57633 0.57783 0.09631
 C612 C 0.56315 0.56570 0.08087
 H613 H 0.67799 0.68348 0.15392
 H614 H 0.64777 0.66003 0.12663
 H615 H 0.64261 0.61318 0.20756
 H616 H 0.67322 0.63653 0.23434
 H617 H 0.63966 0.58633 0.16318
 H618 H 0.61107 0.56213 0.13404
 H619 H 0.57770 0.62552 0.09869
 H620 H 0.60592 0.64996 0.12824
   
