data_POSCAR
  _audit_creation_date              2014-09-24
  _audit_creation_method            'ToBaCCo'
  _symmetry_space_group_name_H-M    'P1'
  _symmetry_Int_Tables_number       1
  _symmetry_cell_setting            triclinic
  loop_
  _symmetry_equiv_pos_as_xyz
 x,y,z
_cell_length_a 28.7675
_cell_length_b 28.6342
_cell_length_c 12.1499
_cell_angle_alpha 90.283000
_cell_angle_beta 89.734900
_cell_angle_gamma 122.141200
loop_
  _atom_site_label
  _atom_site_type_symbol
  _atom_site_fract_x
  _atom_site_fract_y
  _atom_site_fract_z
C1 C 0.48054 0.95626 0.55598
 C2 C 0.49176 0.95480 0.44236
 C3 C 0.51854 1.00601 0.38548
 C4 C 0.53495 1.05692 0.43646
 C5 C 0.52092 1.05681 0.54862
 C6 C 0.49262 1.00630 0.60427
 H7 H 0.48651 1.00739 0.69210
 H8 H 0.52267 1.00666 0.29727
 C9 C 0.04272 0.53191 0.56633
 C10 C 0.04981 0.52461 0.45435
 C11 C 0.00438 0.50124 0.38371
 C12 C -0.04811 0.48699 0.42134
 C13 C -0.05491 0.49309 0.53531
 C14 C -0.00944 0.51571 0.60572
 H15 H -0.01500 0.51931 0.69307
 H16 H 0.01122 0.49798 0.29693
 C17 C 0.45656 0.51224 0.55226
 C18 C 0.47260 0.52613 0.44083
 C19 C 0.50466 0.50888 0.38982
 C20 C 0.52266 0.47916 0.44752
 C21 C 0.50831 0.46626 0.56012
 C22 C 0.47375 0.48146 0.60939
 H23 H 0.46577 0.47502 0.69661
 H24 H 0.51353 0.51631 0.30265
 O25 O 0.40429 0.64491 -0.11401
 O26 O 0.40413 0.73490 -0.14311
 C27 C 0.38210 0.76314 -0.14860
 O28 O 0.34546 0.75740 -0.08102
 O29 O 0.24974 0.66520 -0.10045
 C30 C 0.22118 0.61390 -0.12141
 O31 O 0.22968 0.57891 -0.07673
 O32 O 0.31672 0.57729 -0.13126
 C33 C 0.36641 0.60180 -0.16118
 O34 O 0.41467 0.66408 0.10403
 O35 O 0.42167 0.75849 0.07356
 C36 C 0.39297 0.76680 0.14123
 O37 O 0.34106 0.73973 0.13859
 O38 O 0.24377 0.65142 0.11915
 C39 C 0.23442 0.60809 0.16759
 O40 O 0.25554 0.58111 0.13709
 O41 O 0.34156 0.57829 0.08349
 C42 C 0.38657 0.61339 0.13021
 Cr43 Cr 0.40821 0.69904 -0.01907
 Cr44 Cr 0.29632 0.70187 0.01822
 Cr45 Cr 0.28759 0.58198 0.00286
 O46 O 0.33049 0.66071 0.00043
 O47 O 0.57542 0.34819 -0.07885
 O48 O 0.57667 0.25877 -0.11811
 C49 C 0.60408 0.23843 -0.15175
 O50 O 0.64988 0.25094 -0.11145
 O51 O 0.73643 0.34587 -0.15526
 C52 C 0.76066 0.39708 -0.17341
 O53 O 0.75393 0.42911 -0.11289
 O54 O 0.65804 0.41815 -0.13084
 C55 C 0.60610 0.38945 -0.13982
 O56 O 0.58903 0.33846 0.13749
 O57 O 0.58708 0.24799 0.09893
 C58 C 0.62361 0.24085 0.13823
 O59 O 0.67304 0.26671 0.10467
 O60 O 0.76280 0.36252 0.06069
 C61 C 0.77256 0.40454 0.11654
 O62 O 0.74498 0.42724 0.10668
 O63 O 0.65243 0.42395 0.08842
 C64 C 0.61373 0.39019 0.15076
 Cr65 Cr 0.58515 0.30002 0.00911
 Cr66 Cr 0.70396 0.30792 -0.02434
 Cr67 Cr 0.70080 0.42148 -0.01191
 O68 O 0.66322 0.34286 -0.00849
 C69 C 0.47698 0.87335 -0.38496
 C70 C 0.46079 0.91078 -0.37419
 C71 C 0.42299 0.90075 -0.28673
 C72 C 0.39807 0.85373 -0.21660
 C73 C 0.40351 0.80789 -0.23021
 C74 C 0.43601 0.81122 -0.31659
 C75 C 0.45591 0.76541 -0.40666
 C76 C 0.50971 0.84089 -0.49837
 H77 H 0.40972 0.92931 -0.27320
 H78 H 0.37238 0.85309 -0.15041
 H79 H 0.42084 0.72680 -0.44185
 H80 H 0.47910 0.75132 -0.35798
 H81 H 0.50556 0.83811 -0.58945
 H82 H 0.55457 0.85827 -0.48528
 C83 C 0.09852 0.51757 -0.29783
 C84 C 0.08806 0.55344 -0.35406
 C85 C 0.11686 0.60915 -0.32140
 C86 C 0.16003 0.62915 -0.24471
 C87 C 0.17451 0.59347 -0.19814
 C88 C 0.14081 0.53714 -0.22213
 C89 C 0.15528 0.49641 -0.25732
 C90 C 0.10883 0.47488 -0.34037
 H91 H 0.10707 0.63737 -0.35751
 H92 H 0.18282 0.67266 -0.22434
 H93 H 0.14732 0.46624 -0.19136
 H94 H 0.19664 0.51631 -0.29600
 H95 H 0.07416 0.43235 -0.32218
 H96 H 0.12343 0.48210 -0.42699
 C97 C 0.38023 0.49977 -0.33006
 C98 C 0.42855 0.53319 -0.39094
 C99 C 0.44874 0.59035 -0.39226
 C100 C 0.42644 0.61284 -0.32181
 C101 C 0.38168 0.57856 -0.25243
 C102 C 0.35623 0.52167 -0.26687
 C103 C 0.33232 0.47482 -0.18774
 C104 C 0.35852 0.45033 -0.25753
 H105 H 0.48539 0.61851 -0.43853
 H106 H 0.44643 0.65717 -0.31644
 H107 H 0.28672 0.45008 -0.19048
 H108 H 0.35035 0.48771 -0.10402
 H109 H 0.32789 0.41162 -0.30036
 H110 H 0.39035 0.44821 -0.21083
 C111 C 0.50824 0.10638 -0.30127
 C112 C 0.54060 0.10507 -0.38683
 C113 C 0.59596 0.14938 -0.39192
 C114 C 0.61622 0.19392 -0.31766
 C115 C 0.58148 0.19612 -0.23835
 C116 C 0.52794 0.15080 -0.22965
 C117 C 0.47497 0.14860 -0.22991
 C118 C 0.45321 0.09972 -0.30784
 H119 H 0.62428 0.14876 -0.44999
 H120 H 0.65913 0.22667 -0.32208
 H121 H 0.47863 0.18558 -0.26841
 H122 H 0.45462 0.13737 -0.14793
 H123 H 0.44395 0.10816 -0.39153
 H124 H 0.42047 0.06029 -0.27063
 C125 C 0.85174 0.41317 -0.41471
 C126 C 0.89058 0.46992 -0.41290
 C127 C 0.87881 0.50346 -0.34888
 C128 C 0.83339 0.47961 -0.27730
 C129 C 0.79973 0.42167 -0.26623
 C130 C 0.80754 0.38950 -0.34235
 C131 C 0.81107 0.33978 -0.32639
 C132 C 0.85934 0.36571 -0.40609
 H133 H 0.90697 0.54778 -0.34819
 H134 H 0.82778 0.50663 -0.22391
 H135 H 0.77443 0.30174 -0.35934
 H136 H 0.82282 0.33641 -0.24108
 H137 H 0.85037 0.34274 -0.48507
 H138 H 0.89899 0.37726 -0.36709
 C139 C 0.58480 0.45594 -0.38647
 C140 C 0.53012 0.44165 -0.37448
 C141 C 0.49865 0.40321 -0.29112
 C142 C 0.52273 0.38412 -0.21808
 C143 C 0.57936 0.40429 -0.22389
 C144 C 0.60880 0.43808 -0.31282
 C145 C 0.66238 0.49191 -0.31496
 C146 C 0.63629 0.51166 -0.39552
 H147 H 0.45552 0.38838 -0.28105
 H148 H 0.49756 0.35603 -0.15328
 H149 H 0.69557 0.48812 -0.35239
 H150 H 0.67273 0.51388 -0.23452
 H151 H 0.65503 0.51961 -0.47879
 H152 H 0.63148 0.54506 -0.36195
 C153 C 0.90612 0.44018 0.24948
 C154 C 0.90914 0.47011 0.34375
 C155 C 0.86998 0.48571 0.35224
 C156 C 0.82614 0.46574 0.27706
 C157 C 0.81992 0.42921 0.19210
 C158 C 0.86242 0.41961 0.17711
 C159 C 0.86080 0.36712 0.16002
 C160 C 0.90886 0.38969 0.23921
 H161 H 0.87312 0.51365 0.41617
 H162 H 0.79613 0.47724 0.28817
 H163 H 0.87177 0.36292 0.07428
 H164 H 0.82257 0.33054 0.19253
 H165 H 0.94749 0.39849 0.19896
 H166 H 0.89858 0.36617 0.31746
 C167 C 0.59942 0.11607 0.29099
 C168 C 0.55952 0.10506 0.37065
 C169 C 0.54379 0.14445 0.37719
 C170 C 0.56606 0.19004 0.30412
 C171 C 0.60619 0.19894 0.22477
 C172 C 0.62283 0.16147 0.22521
 C173 C 0.65610 0.14474 0.16220
 C174 C 0.63077 0.09394 0.23792
 H175 H 0.51193 0.13851 0.43380
 H176 H 0.55090 0.21747 0.30800
 H177 H 0.70090 0.17377 0.17459
 H178 H 0.64261 0.13447 0.07511
 H179 H 0.66080 0.09390 0.29510
 H180 H 0.60404 0.05464 0.19290
 C181 C 0.53280 0.40124 0.38475
 C182 C 0.55153 0.45749 0.38463
 C183 C 0.59808 0.49270 0.32050
 C184 C 0.62079 0.47090 0.24983
 C185 C 0.59666 0.41324 0.23991
 C186 C 0.55466 0.37958 0.31405
 C187 C 0.49986 0.32824 0.29553
 C188 C 0.47606 0.35204 0.37355
 H189 H 0.61533 0.53678 0.32146
 H190 H 0.65487 0.49914 0.19769
 H191 H 0.49790 0.29114 0.32888
 H192 H 0.48534 0.32422 0.20931
 H193 H 0.46068 0.32885 0.45203
 H194 H 0.44771 0.36180 0.33272
 C195 C 0.14347 0.60162 0.39999
 C196 C 0.10467 0.54503 0.40677
 C197 C 0.11645 0.50899 0.35209
 C198 C 0.16229 0.52989 0.28151
 C199 C 0.19575 0.58708 0.26122
 C200 C 0.18748 0.62219 0.32770
 C201 C 0.18403 0.67099 0.29970
 C202 C 0.13589 0.64849 0.37926
 H203 H 0.08801 0.46481 0.35742
 H204 H 0.16803 0.50107 0.23462
 H205 H 0.17194 0.67072 0.21279
 H206 H 0.22074 0.71032 0.32798
 H207 H 0.09620 0.63524 0.33836
 H208 H 0.14505 0.67493 0.45326
 C209 C 0.42504 0.84829 0.40779
 C210 C 0.47067 0.90172 0.37619
 C211 C 0.49331 0.90523 0.26991
 C212 C 0.46833 0.86181 0.19400
 C213 C 0.42099 0.81184 0.22223
 C214 C 0.40142 0.80527 0.32980
 C215 C 0.39670 0.76274 0.40553
 C216 C 0.42001 0.80643 0.49849
 H217 H 0.53110 0.94167 0.24362
 H218 H 0.48610 0.86749 0.11263
 H219 H 0.42396 0.74814 0.37897
 H220 H 0.35320 0.72887 0.41820
 H221 H 0.50896 0.83323 0.65170
 H222 H 0.38052 0.79690 0.53958
 C223 C 0.48190 0.60483 0.33043
 C224 C 0.44946 0.55125 0.37175
 C225 C 0.39301 0.52169 0.34711
 C226 C 0.37190 0.54264 0.27099
 C227 C 0.40678 0.59397 0.21936
 C228 C 0.46090 0.62593 0.25726
 C229 C 0.51389 0.65748 0.19585
 C230 C 0.53698 0.63434 0.27643
 H231 H 0.36595 0.48108 0.38169
 H232 H 0.32888 0.51758 0.24918
 H233 H 0.53299 0.70279 0.20400
 H234 H 0.51073 0.64226 0.11013
 H235 H 0.56923 0.66636 0.33098
 H236 H 0.54758 0.60619 0.23660
   
