data_POSCAR
  _audit_creation_date              2014-09-24
  _audit_creation_method            'ToBaCCo'
  _symmetry_space_group_name_H-M    'P1'
  _symmetry_Int_Tables_number       1
  _symmetry_cell_setting            triclinic
  loop_
  _symmetry_equiv_pos_as_xyz
 x,y,z
_cell_length_a 24.8160
_cell_length_b 37.4170
_cell_length_c 32.5373
_cell_angle_alpha 89.896100
_cell_angle_beta 89.991900
_cell_angle_gamma 89.969500
loop_
  _atom_site_label
  _atom_site_type_symbol
  _atom_site_fract_x
  _atom_site_fract_y
  _atom_site_fract_z
O1 O 0.23897 0.28502 0.30322
 O2 O 0.18343 0.21546 0.23557
 O3 O 0.24023 0.21536 0.30325
 O4 O 0.18199 0.28425 0.23583
 O5 O 0.25730 0.28554 0.19968
 O6 O 0.31500 0.21591 0.26671
 O7 O 0.25870 0.21564 0.19935
 O8 O 0.31396 0.28553 0.26682
 Cu9 Cu 0.20375 0.24992 0.27327
 Cu10 Cu 0.29376 0.25071 0.22947
 C11 C 0.28593 0.29726 0.29656
 C12 C 0.21144 0.20386 0.20577
 C13 C 0.28758 0.20372 0.29661
 C14 C 0.20963 0.29657 0.20619
 O15 O 0.73797 0.21490 0.19655
 O16 O 0.67828 0.28319 0.26374
 O17 O 0.73626 0.28463 0.19670
 O18 O 0.67989 0.21461 0.26343
 O19 O 0.75418 0.21460 0.30054
 O20 O 0.81045 0.28525 0.23400
 O21 O 0.75272 0.28433 0.30089
 O22 O 0.81217 0.21542 0.23385
 Cu23 Cu 0.70085 0.24930 0.22617
 Cu24 Cu 0.78990 0.24997 0.27098
 C25 C 0.78517 0.20332 0.20376
 C26 C 0.70498 0.29508 0.29406
 C27 C 0.78294 0.29704 0.20395
 C28 C 0.70695 0.20282 0.29372
 O29 O 0.74874 0.78344 0.79880
 O30 O 0.69293 0.71438 0.73083
 O31 O 0.75281 0.71366 0.79678
 O32 O 0.68924 0.78293 0.73253
 O33 O 0.76278 0.78616 0.69448
 O34 O 0.82585 0.71636 0.75839
 O35 O 0.76651 0.71644 0.69269
 O36 O 0.82206 0.78611 0.76061
 Cu37 Cu 0.71378 0.74838 0.76879
 Cu38 Cu 0.80172 0.75159 0.72278
 C39 C 0.79483 0.79672 0.79133
 C40 C 0.71995 0.70383 0.70001
 C41 C 0.80015 0.70285 0.78843
 C42 C 0.71487 0.79603 0.70226
 O43 O 0.31962 0.78596 0.73809
 O44 O 0.26441 0.71609 0.80606
 O45 O 0.32046 0.71632 0.73841
 O46 O 0.26383 0.78603 0.80569
 O47 O 0.18808 0.78470 0.77036
 O48 O 0.24532 0.71618 0.70222
 O49 O 0.18905 0.71605 0.76998
 O50 O 0.24410 0.78585 0.70235
 Cu51 Cu 0.29964 0.75112 0.77569
 Cu52 Cu 0.20922 0.75067 0.73246
 C53 C 0.29125 0.79787 0.70859
 C54 C 0.21707 0.70439 0.79976
 C55 C 0.29261 0.70442 0.70868
 C56 C 0.21594 0.79705 0.79986
 C57 C 1.02982 0.02432 0.02575
 C58 C 0.97268 0.02423 0.02520
 C59 C 0.94552 0.00000 -0.00028
 C60 C 0.97361 -0.02456 -0.02477
 C61 C 1.03073 -0.02542 -0.02320
 C62 C 1.05789 -0.00075 0.00183
 H63 H 1.10155 -0.00103 0.00269
 H64 H 0.90183 0.00026 -0.00107
 C65 C 0.53042 0.52469 0.52469
 C66 C 0.47326 0.52548 0.52567
 C67 C 0.44405 0.50139 0.50136
 C68 C 0.47013 0.47599 0.47680
 C69 C 0.52717 0.47395 0.47728
 C70 C 0.55648 0.49866 0.50076
 H71 H 0.60013 0.49755 0.50044
 H72 H 0.40038 0.50241 0.50157
 C73 C -0.03152 0.47645 0.02445
 C74 C 0.02559 0.47636 0.02673
 C75 C 0.05491 0.50096 0.00302
 C76 C 0.02912 0.52489 -0.02372
 C77 C -0.02775 0.52360 -0.02766
 C78 C -0.05731 0.49984 -0.00305
 H79 H -0.10088 0.49941 -0.00551
 H80 H 0.09849 0.50137 0.00524
 C81 C 0.47156 0.97696 0.52554
 C82 C 0.52865 0.97574 0.52420
 C83 C 0.55657 1.00112 0.50053
 C84 C 0.52896 1.02694 0.47722
 C85 C 0.47179 1.02672 0.47684
 C86 C 0.44401 1.00208 0.50144
 H87 H 0.40032 1.00240 0.50178
 H88 H 0.60024 1.00072 0.50015
 C89 C 1.14300 0.12584 0.12606
 C90 C 1.19884 0.12580 0.13278
 C91 C 1.22153 0.15158 0.15849
 C92 C 1.18845 0.17669 0.17815
 C93 C 1.13280 0.17567 0.17074
 N94 N 1.11180 0.15086 0.14487
 C95 C 1.11716 0.09951 0.09889
 N96 N 1.07676 0.11034 0.07350
 C97 C 1.04967 0.08714 0.04897
 C98 C 1.06135 0.05043 0.05039
 C99 C 1.10345 0.03882 0.07595
 C100 C 1.13168 0.06330 0.10005
 H101 H 1.26469 0.15163 0.16346
 H102 H 1.10612 0.19490 0.18501
 H103 H 1.01852 0.09731 0.02884
 H104 H 1.11366 0.01072 0.07793
 H105 H 1.22466 0.10646 0.11780
 H106 H 1.16319 0.05388 0.12038
 C107 C 0.64945 0.62634 0.62069
 C108 C 0.70550 0.62631 0.62639
 C109 C 0.72895 0.65201 0.65186
 C110 C 0.69641 0.67695 0.67229
 C111 C 0.64057 0.67597 0.66580
 N112 N 0.61882 0.65127 0.64017
 C113 C 0.62264 0.59999 0.59410
 N114 N 0.58137 0.61085 0.56956
 C115 C 0.55287 0.58761 0.54604
 C116 C 0.56389 0.55081 0.54779
 C117 C 0.60699 0.53917 0.57235
 C118 C 0.63670 0.56371 0.59534
 H119 H 0.77223 0.65205 0.65613
 H120 H 0.61430 0.69509 0.68068
 H121 H 0.52101 0.59780 0.52659
 H122 H 0.61676 0.51102 0.57454
 H123 H 0.73084 0.60700 0.61090
 H124 H 0.66889 0.55428 0.61503
 C125 C -0.14935 0.37722 0.12549
 C126 C -0.19950 0.36212 0.11560
 C127 C -0.22182 0.33618 0.14136
 C128 C -0.19446 0.32521 0.17698
 C129 C -0.14492 0.34146 0.18615
 N130 N -0.12401 0.36668 0.16060
 C131 C -0.12283 0.40408 0.09883
 N132 N -0.08637 0.42688 0.11584
 C133 C -0.05829 0.45100 0.09305
 C134 C -0.06519 0.45250 0.05028
 C135 C -0.10319 0.42978 0.03214
 C136 C -0.13198 0.40549 0.05622
 H137 H -0.26035 0.32459 0.13326
 H138 H -0.12264 0.33407 0.21347
 H139 H -0.02975 0.46845 0.10817
 H140 H -0.10924 0.43002 -0.00082
 H141 H -0.22170 0.37040 0.08861
 H142 H -0.15945 0.38725 0.04126
 C143 C 0.35774 0.87730 0.62861
 C144 C 0.30627 0.86339 0.62045
 C145 C 0.28439 0.83766 0.64668
 C146 C 0.31346 0.82577 0.68109
 C147 C 0.36432 0.84083 0.68857
 N148 N 0.38479 0.86584 0.66257
 C149 C 0.38371 0.90403 0.60151
 N150 N 0.42276 0.92548 0.61745
 C151 C 0.45014 0.94959 0.59418
 C152 C 0.43955 0.95256 0.55198
 C153 C 0.39904 0.93115 0.53493
 C154 C 0.37116 0.90678 0.55948
 H155 H 0.24480 0.82701 0.63993
 H156 H 0.38797 0.83268 0.71491
 H157 H 0.48078 0.96598 0.60845
 H158 H 0.39015 0.93257 0.50237
 H159 H 0.28271 0.87245 0.59448
 H160 H 0.34154 0.88960 0.54526
 C161 C -0.12880 0.62189 -0.13964
 C162 C -0.10058 0.63604 -0.17333
 C163 C -0.12408 0.66288 -0.19714
 C164 C -0.17581 0.67586 -0.18765
 C165 C -0.20254 0.66100 -0.15348
 N166 N -0.17857 0.63501 -0.13060
 C167 C -0.10477 0.59434 -0.11252
 N168 N -0.12029 0.59282 -0.07238
 C169 C -0.09789 0.56950 -0.04518
 C170 C -0.05688 0.54622 -0.05788
 C171 C -0.04214 0.54607 -0.09947
 C172 C -0.06582 0.57010 -0.12685
 H173 H -0.10146 0.67349 -0.22289
 H174 H -0.24231 0.67010 -0.14467
 H175 H -0.11063 0.57007 -0.01337
 H176 H -0.01144 0.52787 -0.11050
 H177 H -0.06022 0.62724 -0.18079
 H178 H -0.05365 0.56960 -0.15877
 C179 C 0.35623 1.12636 0.37473
 C180 C 0.30404 1.13904 0.38277
 C181 C 0.28103 1.16448 0.35671
 C182 C 0.30979 1.17749 0.32255
 C183 C 0.36164 1.16356 0.31531
 N184 N 0.38304 1.13872 0.34111
 C185 C 0.38306 1.09986 0.40161
 N186 N 0.42177 1.07833 0.38529
 C187 C 0.44956 1.05425 0.40836
 C188 C 0.43984 1.05146 0.45072
 C189 C 0.39980 1.07307 0.46815
 C190 C 0.37141 1.09734 0.44379
 H191 H 0.24079 1.17401 0.36354
 H192 H 0.38538 1.17238 0.28930
 H193 H 0.47974 1.03768 0.39377
 H194 H 0.39151 1.07178 0.50080
 H195 H 0.28079 1.12918 0.40852
 H196 H 0.34201 1.11461 0.45819
 C197 C 1.14647 -0.12707 -0.12131
 C198 C 1.20185 -0.13379 -0.11867
 C199 C 1.22508 -0.15932 -0.14447
 C200 C 1.19341 -0.17728 -0.17379
 C201 C 1.13805 -0.16909 -0.17564
 N202 N 1.11622 -0.14493 -0.14936
 C203 C 1.12018 -0.10108 -0.09419
 N204 N 1.07758 -0.11160 -0.07084
 C205 C 1.04989 -0.08832 -0.04679
 C206 C 1.06313 -0.05181 -0.04688
 C207 C 1.10768 -0.04065 -0.07022
 C208 C 1.13662 -0.06530 -0.09363
 H209 H 1.26786 -0.16457 -0.14178
 H210 H 1.11176 -0.18234 -0.19736
 H211 H 1.01698 -0.09824 -0.02819
 H212 H 1.11929 -0.01277 -0.07109
 H213 H 1.22656 -0.11989 -0.09641
 H214 H 1.17025 -0.05638 -0.11222
 C215 C 0.63170 0.36886 0.37666
 C216 C 0.59953 0.34436 0.35527
 C217 C 0.62349 0.32071 0.32774
 C218 C 0.67950 0.32098 0.32210
 C219 C 0.71034 0.34585 0.34416
 N220 N 0.68591 0.36922 0.37022
 C221 C 0.60721 0.39479 0.40509
 N222 N 0.62316 0.42958 0.40397
 C223 C 0.59937 0.45505 0.42762
 C224 C 0.55689 0.44595 0.45415
 C225 C 0.54206 0.40987 0.45737
 C226 C 0.56653 0.38433 0.43247
 H227 H 0.59837 0.30185 0.31135
 H228 H 0.75364 0.34697 0.34034
 H229 H 0.61241 0.48254 0.42472
 H230 H 0.51070 0.40161 0.47848
 H231 H 0.55621 0.34391 0.35930
 H232 H 0.55382 0.35670 0.43455
 C233 C 0.86089 -0.12388 -0.12869
 C234 C 0.81002 -0.13855 -0.12005
 C235 C 0.78837 -0.16430 -0.14625
 C236 C 0.81699 -0.17542 -0.18117
 C237 C 0.86718 -0.15956 -0.18917
 N238 N 0.88751 -0.13458 -0.16314
 C239 C 0.88669 -0.09723 -0.10142
 N240 N 0.92502 -0.07511 -0.11733
 C241 C 0.95211 -0.05104 -0.09387
 C242 C 0.94198 -0.04882 -0.05153
 C243 C 0.90222 -0.07093 -0.03455
 C244 C 0.87466 -0.09524 -0.05926
 H245 H 0.74926 -0.17552 -0.13909
 H246 H 0.89046 -0.16710 -0.21592
 H247 H 0.98221 -0.03412 -0.10807
 H248 H 0.89370 -0.07010 -0.00191
 H249 H 0.78672 -0.13010 -0.09372
 H250 H 0.84571 -0.11296 -0.04505
 C251 C 0.35306 0.37704 0.37545
 C252 C 0.30198 0.36281 0.38435
 C253 C 0.27987 0.33693 0.35850
 C254 C 0.30834 0.32523 0.32375
 C255 C 0.35881 0.34061 0.31556
 N256 N 0.37950 0.36574 0.34118
 C257 C 0.37940 0.40389 0.40210
 N258 N 0.41817 0.42529 0.38558
 C259 C 0.44622 0.44930 0.40841
 C260 C 0.43675 0.45216 0.45077
 C261 C 0.39640 0.43091 0.46840
 C262 C 0.36775 0.40667 0.44426
 H263 H 0.24060 0.32603 0.36581
 H264 H 0.38199 0.33262 0.28894
 H265 H 0.47670 0.46558 0.39370
 H266 H 0.38834 0.43226 0.50108
 H267 H 0.27890 0.37171 0.41060
 H268 H 0.33837 0.38955 0.45893
 C269 C 0.14740 0.62661 -0.12047
 C270 C 0.20354 0.62721 -0.12567
 C271 C 0.22668 0.65291 -0.15140
 C272 C 0.19381 0.67733 -0.17248
 C273 C 0.13790 0.67572 -0.16646
 N274 N 0.11644 0.65097 -0.14065
 C275 C 0.12080 0.60033 -0.09354
 N276 N 0.07738 0.61078 -0.07103
 C277 C 0.04897 0.58755 -0.04736
 C278 C 0.06251 0.55112 -0.04678
 C279 C 0.10779 0.53990 -0.06916
 C280 C 0.13723 0.56447 -0.09242
 H281 H 0.27002 0.65343 -0.15524
 H282 H 0.11131 0.69439 -0.18182
 H283 H 0.01518 0.59741 -0.02968
 H284 H 0.11945 0.51201 -0.06953
 H285 H 0.22921 0.60843 -0.10957
 H286 H 0.17112 0.55529 -0.11052
 C287 C 0.63769 1.12838 0.37465
 C288 C 0.60612 1.14355 0.34361
 C289 C 0.62943 1.16755 0.31608
 C290 C 0.68401 1.17719 0.32004
 C291 C 0.71420 1.16108 0.35177
 N292 N 0.69068 1.13718 0.37775
 C293 C 0.61341 1.10337 0.40404
 N294 N 0.62711 1.06818 0.40304
 C295 C 0.60211 1.04355 0.42723
 C296 C 0.56052 1.05400 0.45393
 C297 C 0.54797 1.09050 0.45679
 C298 C 0.57369 1.11517 0.43136
 H299 H 0.60426 1.17911 0.29232
 H300 H 0.75642 1.16736 0.35596
 H301 H 0.61326 1.01569 0.42448
 H302 H 0.51719 1.09974 0.47784
 H303 H 0.56386 1.13675 0.34068
 H304 H 0.56238 1.14311 0.43262
 C305 C 0.13855 0.37497 0.12800
 C306 C 0.19446 0.37548 0.13443
 C307 C 0.21802 0.34954 0.15957
 C308 C 0.18575 0.32377 0.17893
 C309 C 0.13002 0.32430 0.17179
 N310 N 0.10815 0.34932 0.14648
 C311 C 0.11191 0.40142 0.10132
 N312 N 0.07173 0.39052 0.07582
 C313 C 0.04450 0.41371 0.05124
 C314 C 0.05599 0.45044 0.05256
 C315 C 0.09758 0.46215 0.07848
 C316 C 0.12584 0.43770 0.10271
 H317 H 0.26121 0.34989 0.16436
 H318 H 0.10395 0.30458 0.18586
 H319 H 0.01373 0.40346 0.03087
 H320 H 0.10761 0.49026 0.08042
 H321 H 0.21966 0.39532 0.11966
 H322 H 0.15716 0.44716 0.12314
 C323 C 0.63786 0.87069 0.62239
 C324 C 0.60675 0.84550 0.64377
 C325 C 0.63191 0.82160 0.67050
 C326 C 0.68803 0.82232 0.67534
 C327 C 0.71775 0.84794 0.65340
 N328 N 0.69219 0.87150 0.62812
 C329 C 0.61217 0.89670 0.59456
 N330 N 0.62735 0.93164 0.59580
 C331 C 0.60252 0.95711 0.57267
 C332 C 0.55971 0.94784 0.54657
 C333 C 0.54568 0.91165 0.54317
 C334 C 0.57122 0.88611 0.56753
 H335 H 0.60762 0.80217 0.68682
 H336 H 0.76110 0.84944 0.65662
 H337 H 0.61495 0.98470 0.57569
 H338 H 0.51408 0.90328 0.52236
 H339 H 0.56337 0.84466 0.64030
 H340 H 0.55912 0.85837 0.56532
 C341 C 0.85565 0.12427 0.12549
 C342 C 0.80472 0.13838 0.11583
 C343 C 0.78160 0.16402 0.14147
 C344 C 0.80891 0.17566 0.17676
 C345 C 0.85931 0.16044 0.18569
 N346 N 0.88100 0.13548 0.16027
 C347 C 0.88273 0.09757 0.09905
 N348 N 0.92012 0.07537 0.11609
 C349 C 0.94818 0.05115 0.09349
 C350 C 0.94013 0.04886 0.05091
 C351 C 0.90140 0.07110 0.03273
 C352 C 0.87276 0.09554 0.05659
 H353 H 0.74242 0.17478 0.13357
 H354 H 0.88159 0.16838 0.21277
 H355 H 0.97736 0.03412 0.10862
 H356 H 0.89445 0.07022 -0.00011
 H357 H 0.78249 0.12950 0.08915
 H358 H 0.84455 0.11332 0.04158
 C359 C 0.36103 0.62601 0.62856
 C360 C 0.30966 0.63996 0.62001
 C361 C 0.28717 0.66534 0.64630
 C362 C 0.31553 0.67686 0.68115
 C363 C 0.36633 0.66177 0.68900
 N364 N 0.38740 0.63707 0.66295
 C365 C 0.38742 0.59955 0.60141
 N366 N 0.42553 0.57738 0.61755
 C367 C 0.45265 0.55316 0.59430
 C368 C 0.44267 0.55074 0.55196
 C369 C 0.40337 0.57308 0.53469
 C370 C 0.37581 0.59757 0.55919
 H371 H 0.24767 0.67602 0.63922
 H372 H 0.38943 0.66964 0.71570
 H373 H 0.48234 0.53606 0.60875
 H374 H 0.39494 0.57211 0.50205
 H375 H 0.28662 0.63116 0.59370
 H376 H 0.34700 0.61534 0.54485
   
