data_POSCAR
  _audit_creation_date              2014-09-24
  _audit_creation_method            'ToBaCCo'
  _symmetry_space_group_name_H-M    'P1'
  _symmetry_Int_Tables_number       1
  _symmetry_cell_setting            triclinic
  loop_
  _symmetry_equiv_pos_as_xyz
 x,y,z
_cell_length_a 38.9165
_cell_length_b 41.4700
_cell_length_c 28.3527
_cell_angle_alpha 89.911800
_cell_angle_beta 89.728200
_cell_angle_gamma 90.011700
loop_
  _atom_site_label
  _atom_site_type_symbol
  _atom_site_fract_x
  _atom_site_fract_y
  _atom_site_fract_z
C1 C 1.27890 0.21528 0.26786
 C2 C 1.25059 0.23256 0.25082
 C3 C 1.22215 0.21594 0.23323
 C4 C 1.22182 0.18223 0.23223
 C5 C 1.25030 0.16510 0.24930
 C6 C 1.27928 0.18126 0.26764
 C7 C 1.25073 0.26814 0.25127
 C8 C 1.27906 0.28523 0.23350
 C9 C 1.27971 0.31925 0.23371
 C10 C 1.25098 0.33560 0.25281
 C11 C 1.22249 0.31865 0.27060
 C12 C 1.22255 0.28494 0.26959
 H13 H 1.30088 0.22879 0.28013
 H14 H 1.20025 0.22932 0.22015
 H15 H 1.30084 0.27158 0.22065
 H16 H 1.20063 0.27169 0.28322
 H17 H 1.24906 0.13906 0.24932
 H18 H 1.24993 0.36164 0.25280
 C19 C 0.77813 -0.28664 0.26728
 C20 C 0.74995 -0.26941 0.24981
 C21 C 0.72174 -0.28606 0.23165
 C22 C 0.72154 -0.31976 0.23042
 C23 C 0.74987 -0.33686 0.24803
 C24 C 0.77860 -0.32065 0.26702
 C25 C 0.75012 -0.23385 0.25015
 C26 C 0.77874 -0.21687 0.23313
 C27 C 0.77902 -0.18307 0.23299
 C28 C 0.75035 -0.16631 0.25054
 C29 C 0.72155 -0.18305 0.26787
 C30 C 0.72160 -0.21685 0.26734
 H31 H 0.79998 -0.27308 0.27989
 H32 H 0.69996 -0.27269 0.21817
 H33 H 0.80077 -0.23004 0.21975
 H34 H 0.69946 -0.22999 0.28046
 H35 H 0.74872 -0.36291 0.24789
 H36 H 0.75043 -0.14019 0.25068
 C37 C 0.77918 0.21485 -0.23002
 C38 C 0.75050 0.23100 -0.24826
 C39 C 0.72312 0.21318 -0.26679
 C40 C 0.72436 0.17939 -0.26767
 C41 C 0.75315 0.16354 -0.24907
 C42 C 0.78068 0.18109 -0.23024
 C43 C 0.74951 0.26655 -0.24892
 C44 C 0.77778 0.28406 -0.26594
 C45 C 0.77754 0.31807 -0.26678
 C46 C 0.74799 0.33399 -0.24943
 C47 C 0.71952 0.31663 -0.23236
 C48 C 0.72044 0.28290 -0.23242
 H49 H 0.80038 0.22863 -0.21576
 H50 H 0.70140 0.22570 -0.28207
 H51 H 0.80023 0.27076 -0.27732
 H52 H 0.69859 0.26932 -0.21933
 H53 H 0.75384 0.13742 -0.24843
 H54 H 0.74632 0.36000 -0.25017
 C55 C 1.27669 -0.28641 -0.23360
 C56 C 1.24919 -0.26803 -0.25067
 C57 C 1.21972 -0.28348 -0.26738
 C58 C 1.21761 -0.31713 -0.26747
 C59 C 1.24526 -0.33534 -0.25028
 C60 C 1.27516 -0.32039 -0.23263
 C61 C 1.25105 -0.23252 -0.25018
 C62 C 1.28033 -0.21673 -0.26761
 C63 C 1.28243 -0.18300 -0.26686
 C64 C 1.25496 -0.16514 -0.24813
 C65 C 1.22560 -0.18066 -0.23023
 C66 C 1.22374 -0.21440 -0.23170
 H67 H 1.29830 -0.27370 -0.21855
 H68 H 1.19844 -0.26924 -0.28050
 H69 H 1.30146 -0.23075 -0.28184
 H70 H 1.20154 -0.22667 -0.21704
 H71 H 1.24382 -0.36130 -0.25320
 H72 H 1.25608 -0.13904 -0.24846
 C73 C 0.21254 0.27618 0.73056
 C74 C 0.23082 0.25023 0.74974
 C75 C 0.21281 0.22420 0.76970
 C76 C 0.17645 0.22372 0.77140
 C77 C 0.15875 0.25014 0.75109
 C78 C 0.17647 0.27623 0.73046
 C79 C 0.26895 0.25044 0.74929
 C80 C 0.28705 0.27642 0.76886
 C81 C 0.32343 0.27691 0.76969
 C82 C 0.34101 0.25055 0.74893
 C83 C 0.32319 0.22451 0.72869
 C84 C 0.28712 0.22454 0.72965
 H85 H 0.22655 0.29630 0.71545
 H86 H 0.22774 0.20533 0.78617
 H87 H 0.27222 0.29524 0.78570
 H88 H 0.27303 0.20445 0.71485
 H89 H 0.13104 0.24990 0.74871
 H90 H 0.36871 0.25081 0.74589
 C91 C 0.71271 0.77781 0.73106
 C92 C 0.73063 0.75187 0.75091
 C93 C 0.71238 0.72583 0.77013
 C94 C 0.67609 0.72530 0.77060
 C95 C 0.65866 0.75167 0.74978
 C96 C 0.67644 0.77809 0.72937
 C97 C 0.76876 0.75164 0.75058
 C98 C 0.78719 0.77740 0.77025
 C99 C 0.82335 0.77718 0.77081
 C100 C 0.84091 0.75102 0.75023
 C101 C 0.82287 0.72517 0.72985
 C102 C 0.78673 0.72560 0.73069
 H103 H 0.72766 0.79672 0.71451
 H104 H 0.72702 0.70568 0.78361
 H105 H 0.77324 0.79713 0.78643
 H106 H 0.77243 0.70611 0.71463
 H107 H 0.63106 0.75296 0.75294
 H108 H 0.86873 0.75076 0.75012
 C109 C 0.71304 0.27680 0.22769
 C110 C 0.73094 0.25079 0.24762
 C111 C 0.71247 0.22480 0.26688
 C112 C 0.67632 0.22472 0.26692
 C113 C 0.65882 0.25083 0.24629
 C114 C 0.67691 0.27692 0.22630
 C115 C 0.76901 0.25074 0.24846
 C116 C 0.78699 0.27664 0.26849
 C117 C 0.82312 0.27666 0.26992
 C118 C 0.84114 0.25060 0.24986
 C119 C 0.82355 0.22461 0.22913
 C120 C 0.78740 0.22479 0.22914
 H121 H 0.72737 0.29690 0.21307
 H122 H 0.72638 0.20510 0.28312
 H123 H 0.77271 0.29672 0.28317
 H124 H 0.77344 0.20517 0.21283
 H125 H 0.63102 0.25041 0.24464
 H126 H 0.86893 0.25010 0.25154
 C127 C 0.21260 0.77611 0.23267
 C128 C 0.23069 0.75016 0.25216
 C129 C 0.21261 0.72414 0.27173
 C130 C 0.17632 0.72367 0.27293
 C131 C 0.15872 0.75007 0.25246
 C132 C 0.17632 0.77648 0.23174
 C133 C 0.26881 0.75004 0.25133
 C134 C 0.28720 0.77580 0.27101
 C135 C 0.32335 0.77581 0.27112
 C136 C 0.34096 0.74982 0.25019
 C137 C 0.32296 0.72395 0.22976
 C138 C 0.28681 0.72417 0.23104
 H139 H 0.22741 0.79502 0.21585
 H140 H 0.22736 0.70399 0.28497
 H141 H 0.27320 0.79539 0.28750
 H142 H 0.27254 0.70425 0.21608
 H143 H 0.13115 0.75141 0.25618
 H144 H 0.36877 0.75018 0.24863
 N145 N 1.06149 0.03384 0.05272
 N146 N 1.08530 0.05554 0.06173
 N147 N 1.03783 -0.03399 0.08628
 N148 N 1.04344 -0.05720 0.11729
 N149 N 1.06179 -0.03395 0.05347
 N150 N 1.08435 -0.05714 0.06125
 N151 N 1.03775 0.03384 0.08579
 N152 N 1.04482 0.05557 0.11834
 C153 C 1.07421 0.06916 0.10222
 C154 C 1.07241 -0.07147 0.10096
 N155 N 0.94022 -0.03402 0.05288
 N156 N 0.91630 -0.05564 0.06213
 N157 N 0.96361 0.03391 0.08548
 N158 N 0.95769 0.05725 0.11614
 N159 N 0.94001 0.03375 0.05251
 N160 N 0.91737 0.05697 0.05982
 N161 N 0.96366 -0.03389 0.08607
 N162 N 0.95624 -0.05543 0.11893
 Mn163 Mn 1.00071 -0.00004 0.08642
 C164 C 0.92698 -0.06905 0.10290
 C165 C 0.92892 0.07146 0.09941
 N166 N 1.06224 -0.03395 -0.04802
 N167 N 1.08653 -0.05519 -0.05706
 N168 N 1.03848 0.03365 -0.08187
 N169 N 1.04425 0.05685 -0.11291
 N170 N 1.06207 0.03384 -0.04887
 N171 N 1.08454 0.05717 -0.05656
 N172 N 1.03887 -0.03418 -0.08131
 N173 N 1.04679 -0.05558 -0.11408
 Mn174 Mn 1.06220 -0.00005 0.00232
 C175 C 1.07620 -0.06880 -0.09776
 C176 C 1.07292 0.07136 -0.09641
 N177 N 0.94059 0.03318 -0.04904
 N178 N 0.91689 0.05497 -0.05811
 N179 N 0.96461 -0.03469 -0.08152
 N180 N 0.95877 -0.05775 -0.11261
 N181 N 0.94066 -0.03460 -0.04871
 N182 N 0.91789 -0.05758 -0.05655
 N183 N 0.96435 0.03314 -0.08210
 N184 N 0.95739 0.05493 -0.11470
 Mn185 Mn 0.94006 -0.00043 0.00191
 Mn186 Mn 1.00158 -0.00054 -0.08222
 Cl187 Cl 1.00114 -0.00027 0.00210
 C188 C 0.92804 0.06858 -0.09864
 C189 C 0.92971 -0.07190 -0.09627
 N190 N 1.05918 0.53421 0.55253
 N191 N 1.08247 0.55646 0.56123
 N192 N 1.03581 0.46622 0.58584
 N193 N 1.04146 0.44294 0.61674
 N194 N 1.05982 0.46641 0.55310
 N195 N 1.08244 0.44327 0.56080
 N196 N 1.03534 0.53407 0.58546
 N197 N 1.04179 0.55626 0.61758
 C198 C 1.07093 0.57024 0.60139
 C199 C 1.07050 0.42880 0.60041
 N200 N 0.93821 0.46592 0.55222
 N201 N 0.91414 0.44447 0.56165
 N202 N 0.96128 0.53387 0.58502
 N203 N 0.95531 0.55723 0.61564
 N204 N 0.93773 0.53371 0.55196
 N205 N 0.91509 0.55694 0.55919
 N206 N 0.96162 0.46607 0.58544
 N207 N 0.95402 0.44473 0.61851
 Mn208 Mn 0.99851 0.50005 0.58595
 C209 C 0.92472 0.43116 0.60254
 C210 C 0.92655 0.57143 0.59883
 N211 N 1.06047 0.46654 0.45156
 N212 N 1.08464 0.44511 0.44268
 N213 N 1.03646 0.53410 0.41790
 N214 N 1.04230 0.55730 0.38685
 N215 N 1.05999 0.53431 0.45098
 N216 N 1.08248 0.55763 0.44335
 N217 N 1.03707 0.46628 0.41833
 N218 N 1.04476 0.44465 0.38580
 Mn219 Mn 1.06018 0.50037 0.50205
 C220 C 1.07414 0.43139 0.40210
 C221 C 1.07094 0.57181 0.40346
 N222 N 0.93846 0.53321 0.45035
 N223 N 0.91423 0.55435 0.44058
 N224 N 0.96287 0.46549 0.41789
 N225 N 0.95729 0.44234 0.38687
 N226 N 0.93887 0.46546 0.45064
 N227 N 0.91631 0.44229 0.44281
 N228 N 0.96229 0.53328 0.41738
 N229 N 0.95484 0.55449 0.38416
 Mn230 Mn 0.93801 0.49958 0.50129
 Mn231 Mn 0.99968 0.49978 0.41736
 Cl232 Cl 0.99909 0.49993 0.50165
 C233 C 0.92516 0.56772 0.39977
 C234 C 0.92832 0.42802 0.40318
 N235 N 0.56139 0.03461 0.54775
 N236 N 0.58570 0.05582 0.55664
 N237 N 0.53805 -0.03302 0.58225
 N238 N 0.54399 -0.05606 0.61342
 N239 N 0.56165 -0.03318 0.54896
 N240 N 0.58430 -0.05632 0.55658
 N241 N 0.53798 0.03479 0.58129
 N242 N 0.54589 0.05611 0.61407
 C243 C 0.57532 0.06937 0.59751
 C244 C 0.57278 -0.07043 0.59670
 N245 N 0.44019 -0.03328 0.55061
 N246 N 0.41689 -0.05551 0.55984
 N247 N 0.46375 0.03485 0.58234
 N248 N 0.45801 0.05823 0.61303
 N249 N 0.43979 0.03451 0.54984
 N250 N 0.41711 0.05764 0.55751
 N251 N 0.46397 -0.03298 0.58332
 N252 N 0.45746 -0.05502 0.61582
 Mn253 Mn 0.50093 0.00093 0.58281
 C254 C 0.42834 -0.06907 0.60011
 C255 C 0.42898 0.07228 0.59681
 N256 N 0.56109 -0.03345 0.44738
 N257 N 0.58504 -0.05503 0.43818
 N258 N 0.53701 0.03412 0.41374
 N259 N 0.54251 0.05727 0.38252
 N260 N 0.56094 0.03431 0.44626
 N261 N 0.58338 0.05758 0.43809
 N262 N 0.53736 -0.03369 0.41460
 N263 N 0.54458 -0.05546 0.38208
 Mn264 Mn 0.56157 0.00056 0.49758
 C265 C 0.57405 -0.06882 0.39790
 C266 C 0.57138 0.07174 0.39844
 N267 N 0.43934 0.03364 0.44825
 N268 N 0.41522 0.05501 0.43904
 N269 N 0.46321 -0.03423 0.41577
 N270 N 0.45733 -0.05754 0.38511
 N271 N 0.43958 -0.03414 0.44902
 N272 N 0.41697 -0.05738 0.44189
 N273 N 0.46283 0.03357 0.41482
 N274 N 0.45525 0.05491 0.38184
 Mn275 Mn 0.43940 0.00018 0.49945
 Mn276 Mn 0.50010 -0.00005 0.41423
 Cl277 Cl 0.50050 0.00041 0.49851
 C278 C 0.42585 0.06836 0.39805
 C279 C 0.42857 -0.07183 0.40213
 N280 N 0.56013 0.53427 0.04730
 N281 N 0.58421 0.55570 0.05641
 N282 N 0.53671 0.46637 0.08051
 N283 N 0.54271 0.44315 0.11137
 N284 N 0.56035 0.46651 0.04727
 N285 N 0.58308 0.44340 0.05460
 N286 N 0.53664 0.53417 0.08071
 N287 N 0.54417 0.55552 0.11359
 C288 C 0.57354 0.56904 0.09731
 C289 C 0.57156 0.42899 0.09447
 N290 N 0.43884 0.46641 0.04885
 N291 N 0.41484 0.44494 0.05859
 N292 N 0.46246 0.53427 0.08171
 N293 N 0.45677 0.55747 0.11269
 N294 N 0.43854 0.53420 0.04917
 N295 N 0.41593 0.55735 0.05708
 N296 N 0.46257 0.46645 0.08164
 N297 N 0.45529 0.44499 0.11468
 Mn298 Mn 0.49959 0.50032 0.08165
 C299 C 0.42583 0.43148 0.09918
 C300 C 0.42780 0.57171 0.09660
 N301 N 0.55988 0.46703 -0.05430
 N302 N 0.58350 0.44512 -0.06340
 N303 N 0.53587 0.53492 -0.08682
 N304 N 0.54144 0.55834 -0.11762
 N305 N 0.55977 0.53482 -0.05424
 N306 N 0.58223 0.55815 -0.06194
 N307 N 0.53615 0.46706 -0.08709
 N308 N 0.54304 0.44514 -0.11953
 Mn309 Mn 0.56034 0.50066 -0.00351
 C310 C 0.57233 0.43144 -0.10367
 C311 C 0.57032 0.57265 -0.10136
 N312 N 0.43820 0.53413 -0.05235
 N313 N 0.41378 0.55520 -0.06149
 N314 N 0.46202 0.46653 -0.08604
 N315 N 0.45624 0.44336 -0.11696
 N316 N 0.43840 0.46634 -0.05277
 N317 N 0.41590 0.44305 -0.06015
 N318 N 0.46163 0.53434 -0.08586
 N319 N 0.45365 0.55555 -0.11886
 Mn320 Mn 0.43819 0.50026 -0.00178
 Mn321 Mn 0.49892 0.50073 -0.08698
 Cl322 Cl 0.49926 0.50050 -0.00265
 C323 C 0.42414 0.56871 -0.10246
 C324 C 0.42753 0.42887 -0.10009
 C325 C 1.13780 0.12975 0.17249
 C326 C 1.15010 0.15756 0.15013
 C327 C 1.17694 0.17509 0.17016
 C328 C 1.19188 0.16485 0.21270
 C329 C 1.17872 0.13735 0.23555
 C330 C 1.15186 0.11987 0.21547
 C331 C 1.11328 0.10961 0.14907
 C332 C 1.09440 0.09170 0.12826
 H333 H 1.13964 0.16515 0.11655
 H334 H 1.18682 0.19599 0.15159
 H335 H 1.18944 0.12921 0.26868
 H336 H 1.14264 0.09822 0.23285
 C337 C 1.13288 0.63196 0.67215
 C338 C 1.14616 0.62221 0.71564
 C339 C 1.17307 0.63939 0.73607
 C340 C 1.18704 0.66648 0.71308
 C341 C 1.17270 0.67679 0.67021
 C342 C 1.14581 0.65953 0.64978
 C343 C 1.10885 0.61165 0.64816
 C344 C 1.09049 0.59337 0.62719
 H345 H 1.13646 0.60075 0.73301
 H346 H 1.18339 0.63120 0.76942
 H347 H 1.18322 0.69738 0.65154
 H348 H 1.13594 0.66701 0.61581
 C349 C 0.64336 0.12555 0.66746
 C350 C 0.63528 0.15168 0.69659
 C351 C 0.66161 0.16923 0.71806
 C352 C 0.69621 0.16068 0.71055
 C353 C 0.70394 0.13433 0.68127
 C354 C 0.67767 0.11691 0.65992
 C355 C 0.61694 0.10734 0.64457
 C356 C 0.59670 0.09073 0.62385
 H357 H 0.60875 0.15849 0.70265
 H358 H 0.65495 0.18926 0.74079
 H359 H 0.73033 0.12754 0.67422
 H360 H 0.68414 0.09677 0.63724
 C361 C 0.63799 0.62826 0.16858
 C362 C 0.65168 0.61805 0.21162
 C363 C 0.67847 0.63530 0.23232
 C364 C 0.69191 0.66289 0.21002
 C365 C 0.67742 0.67338 0.16732
 C366 C 0.65065 0.65609 0.14668
 C367 C 0.61331 0.60855 0.14474
 C368 C 0.59416 0.59106 0.12362
 H369 H 0.64217 0.59638 0.22864
 H370 H 0.68885 0.62696 0.26555
 H371 H 0.68753 0.69434 0.14914
 H372 H 0.64048 0.66393 0.11305
 C373 C 0.86294 -0.12968 0.17339
 C374 C 0.85122 -0.15764 0.15115
 C375 C 0.82438 -0.17542 0.17110
 C376 C 0.80888 -0.16532 0.21349
 C377 C 0.82141 -0.13761 0.23618
 C378 C 0.84827 -0.11987 0.21616
 C379 C 0.88756 -0.10941 0.15002
 C380 C 0.90658 -0.09150 0.12912
 H381 H 0.86214 -0.16517 0.11771
 H382 H 0.81497 -0.19643 0.15256
 H383 H 0.81022 -0.12954 0.26916
 H384 H 0.85704 -0.09809 0.23342
 C385 C 0.86007 0.37194 0.67461
 C386 C 0.83960 0.38536 0.71003
 C387 C 0.81285 0.36750 0.73005
 C388 C 0.80591 0.33569 0.71486
 C389 C 0.82768 0.32227 0.67988
 C390 C 0.85435 0.34031 0.65993
 C391 C 0.88484 0.39166 0.65052
 C392 C 0.90404 0.40914 0.62915
 H393 H 0.84394 0.40989 0.72170
 H394 H 0.79828 0.37868 0.75817
 H395 H 0.82316 0.29855 0.66541
 H396 H 0.86979 0.32990 0.63193
 C397 C 0.36663 -0.13118 0.67166
 C398 C 0.35363 -0.15853 0.64911
 C399 C 0.32690 -0.17607 0.66985
 C400 C 0.31279 -0.16626 0.71326
 C401 C 0.32682 -0.13937 0.73640
 C402 C 0.35357 -0.12191 0.71563
 C403 C 0.39054 -0.11063 0.64748
 C404 C 0.40884 -0.09224 0.62628
 H405 H 0.36333 -0.16564 0.61478
 H406 H 0.31634 -0.19647 0.65104
 H407 H 0.31671 -0.13157 0.77015
 H408 H 0.36333 -0.10062 0.73316
 C409 C 0.36192 0.37232 0.17265
 C410 C 0.34270 0.38561 0.20947
 C411 C 0.31611 0.36797 0.23030
 C412 C 0.30805 0.33652 0.21455
 C413 C 0.32863 0.32317 0.17818
 C414 C 0.35514 0.34099 0.15741
 C415 C 0.38642 0.39195 0.14787
 C416 C 0.40539 0.40942 0.12609
 H417 H 0.34787 0.40989 0.22160
 H418 H 0.30253 0.37903 0.25944
 H419 H 0.32322 0.29974 0.16331
 H420 H 0.36961 0.33069 0.12838
 C421 C 0.86481 0.12936 -0.16933
 C422 C 0.85149 0.11974 -0.21281
 C423 C 0.82462 0.13703 -0.23325
 C424 C 0.81071 0.16409 -0.21025
 C425 C 0.82494 0.17414 -0.16720
 C426 C 0.85180 0.15678 -0.14680
 C427 C 0.88923 0.10924 -0.14562
 C428 C 0.90800 0.09126 -0.12470
 H429 H 0.86126 0.09839 -0.23032
 H430 H 0.81444 0.12905 -0.26674
 H431 H 0.81448 0.19468 -0.14849
 H432 H 0.86169 0.16416 -0.11282
 C433 C 0.86080 0.62627 0.32694
 C434 C 0.85397 0.65756 0.34236
 C435 C 0.82741 0.67533 0.32204
 C436 C 0.80684 0.66200 0.28590
 C437 C 0.81488 0.63055 0.27004
 C438 C 0.84152 0.61294 0.29045
 C439 C 0.88544 0.60676 0.35129
 C440 C 0.90455 0.58948 0.37288
 H441 H 0.86846 0.66788 0.37118
 H442 H 0.82198 0.69873 0.33706
 H443 H 0.80127 0.61948 0.24111
 H444 H 0.84671 0.58867 0.27823
 C445 C 0.36158 0.12770 0.32638
 C446 C 0.35513 0.15906 0.34184
 C447 C 0.32858 0.17703 0.32182
 C448 C 0.30764 0.16381 0.28601
 C449 C 0.31535 0.13232 0.27003
 C450 C 0.34198 0.11453 0.29011
 C451 C 0.38617 0.10795 0.35043
 C452 C 0.40525 0.09042 0.37167
 H453 H 0.36990 0.16927 0.37047
 H454 H 0.32345 0.20049 0.33686
 H455 H 0.30147 0.12135 0.24126
 H456 H 0.34689 0.09023 0.27781
 C457 C 0.35615 0.62474 -0.17297
 C458 C 0.36310 0.65496 -0.19248
 C459 C 0.33661 0.67298 -0.21270
 C460 C 0.30251 0.66104 -0.21369
 C461 C 0.29632 0.63015 -0.19422
 C462 C 0.32285 0.61233 -0.17413
 C463 C 0.38251 0.60652 -0.14989
 C464 C 0.40272 0.58997 -0.12900
 H465 H 0.38895 0.66467 -0.19194
 H466 H 0.34342 0.69581 -0.22868
 H467 H 0.27075 0.62006 -0.19196
 H468 H 0.31718 0.58903 -0.15855
 C469 C 1.14432 -0.12581 -0.16686
 C470 C 1.13635 -0.15170 -0.19643
 C471 C 1.16278 -0.16958 -0.21736
 C472 C 1.19738 -0.16164 -0.20888
 C473 C 1.20500 -0.13555 -0.17916
 C474 C 1.17863 -0.11777 -0.15835
 C475 C 1.11780 -0.10726 -0.14448
 C476 C 1.09753 -0.09040 -0.12402
 H477 H 1.10983 -0.15804 -0.20323
 H478 H 1.15621 -0.18940 -0.24046
 H479 H 1.23137 -0.12921 -0.17139
 H480 H 1.18501 -0.09784 -0.13532
 C481 C 1.13876 0.37132 0.33180
 C482 C 1.15112 0.34356 0.35404
 C483 C 1.17793 0.32602 0.33362
 C484 C 1.19277 0.33620 0.29079
 C485 C 1.17961 0.36370 0.26813
 C486 C 1.15278 0.38119 0.28860
 C487 C 1.11403 0.39131 0.35536
 C488 C 1.09484 0.40906 0.37618
 H489 H 1.14068 0.33597 0.38777
 H490 H 1.18780 0.30511 0.35204
 H491 H 1.19026 0.37179 0.23479
 H492 H 1.14350 0.40279 0.27130
 C493 C 0.63783 -0.12959 0.32754
 C494 C 0.64933 -0.15774 0.34962
 C495 C 0.67611 -0.17554 0.32964
 C496 C 0.69177 -0.16526 0.28740
 C497 C 0.67945 -0.13737 0.26486
 C498 C 0.65265 -0.11961 0.28491
 C499 C 0.61329 -0.10932 0.35094
 C500 C 0.59435 -0.09136 0.37180
 H501 H 0.63828 -0.16540 0.38296
 H502 H 0.68535 -0.19671 0.34804
 H503 H 0.69075 -0.12916 0.23200
 H504 H 0.64405 -0.09770 0.26777
 C505 C 0.63501 0.36945 -0.17367
 C506 C 0.64910 0.37876 -0.21708
 C507 C 0.67599 0.36103 -0.23696
 C508 C 0.68915 0.33386 -0.21347
 C509 C 0.67404 0.32407 -0.17062
 C510 C 0.64718 0.34185 -0.15079
 C511 C 0.61077 0.39008 -0.15031
 C512 C 0.59218 0.40842 -0.12957
 H513 H 0.63998 0.40024 -0.23488
 H514 H 0.68684 0.36882 -0.27033
 H515 H 0.68391 0.30342 -0.15157
 H516 H 0.63668 0.33469 -0.11689
 C517 C 1.12257 0.14603 -0.16238
 C518 C 1.15553 0.14123 -0.18081
 C519 C 1.17319 0.16659 -0.20278
 C520 C 1.15827 0.19762 -0.20695
 C521 C 1.12471 0.20182 -0.18831
 C522 C 1.10722 0.17636 -0.16631
 C523 C 1.10468 0.11987 -0.13917
 C524 C 1.09001 0.09784 -0.11967
 H525 H 1.16762 0.11776 -0.17841
 H526 H 1.19806 0.16113 -0.21788
 H527 H 1.11215 0.22507 -0.18854
 H528 H 1.08178 0.18049 -0.15185
 C529 C 1.12156 0.64633 0.33861
 C530 C 1.15514 0.65352 0.35226
 C531 C 1.17319 0.67876 0.33066
 C532 C 1.15804 0.69767 0.29466
 C533 C 1.12398 0.68987 0.28135
 C534 C 1.10608 0.66454 0.30307
 C535 C 1.10314 0.62022 0.36114
 C536 C 1.08817 0.59823 0.38030
 H537 H 1.16737 0.63975 0.38002
 H538 H 1.19853 0.68403 0.34405
 H539 H 1.11123 0.70235 0.25287
 H540 H 1.08017 0.65903 0.29182
 C541 C 0.62090 0.14633 0.33230
 C542 C 0.65028 0.14012 0.30510
 C543 C 0.66816 0.16551 0.28356
 C544 C 0.65690 0.19757 0.28890
 C545 C 0.62719 0.20353 0.31605
 C546 C 0.60936 0.17810 0.33759
 C547 C 0.60296 0.12016 0.35536
 C548 C 0.58832 0.09816 0.37490
 H549 H 0.65945 0.11564 0.30066
 H550 H 0.69065 0.16003 0.26242
 H551 H 0.61809 0.22793 0.32140
 H552 H 0.58675 0.18326 0.35869
 C553 C 0.62088 0.64762 -0.16521
 C554 C 0.60571 0.66590 -0.20095
 C555 C 0.62374 0.69136 -0.22215
 C556 C 0.65763 0.69922 -0.20812
 C557 C 0.67246 0.68027 -0.17191
 C558 C 0.65427 0.65490 -0.15084
 C559 C 0.60235 0.62136 -0.14321
 C560 C 0.58740 0.59924 -0.12435
 H561 H 0.57994 0.66033 -0.21275
 H562 H 0.61125 0.70388 -0.25081
 H563 H 0.69763 0.68558 -0.15797
 H564 H 0.66625 0.64110 -0.12291
 C565 C 0.87904 -0.14549 -0.16238
 C566 C 0.88991 -0.17747 -0.15701
 C567 C 0.87195 -0.20255 -0.17888
 C568 C 0.84275 -0.19604 -0.20649
 C569 C 0.83209 -0.16380 -0.21177
 C570 C 0.85011 -0.13875 -0.18989
 C571 C 0.89729 -0.11967 -0.13924
 C572 C 0.91230 -0.09797 -0.11971
 H573 H 0.91215 -0.18305 -0.13567
 H574 H 0.88056 -0.22709 -0.17349
 H575 H 0.81000 -0.15791 -0.23320
 H576 H 0.84144 -0.11412 -0.19440
 C577 C 0.87803 0.35405 0.33760
 C578 C 0.89041 0.34092 0.29534
 C579 C 0.87257 0.31585 0.27322
 C580 C 0.84200 0.30356 0.29305
 C581 C 0.82977 0.31698 0.33551
 C582 C 0.84765 0.34201 0.35756
 C583 C 0.89629 0.37997 0.36043
 C584 C 0.91117 0.40179 0.37982
 H585 H 0.91382 0.35009 0.27941
 H586 H 0.88248 0.30634 0.24032
 H587 H 0.80663 0.30779 0.35209
 H588 H 0.83782 0.35191 0.39029
 C589 C 0.37849 -0.14624 0.33721
 C590 C 0.38994 -0.17807 0.34219
 C591 C 0.37220 -0.20336 0.32047
 C592 C 0.34265 -0.19720 0.29342
 C593 C 0.33145 -0.16509 0.28844
 C594 C 0.34924 -0.13985 0.31016
 C595 C 0.39649 -0.12018 0.36012
 C596 C 0.41129 -0.09823 0.37932
 H597 H 0.41247 -0.18338 0.36313
 H598 H 0.38126 -0.22780 0.32555
 H599 H 0.30910 -0.15945 0.26739
 H600 H 0.34015 -0.11533 0.30590
 C601 C 0.37765 0.35441 -0.16521
 C602 C 0.34460 0.35926 -0.18287
 C603 C 0.32682 0.33397 -0.20448
 C604 C 0.34172 0.30295 -0.20905
 C605 C 0.37538 0.29869 -0.19120
 C606 C 0.39299 0.32409 -0.16956
 C607 C 0.39565 0.38049 -0.14233
 C608 C 0.41039 0.40246 -0.12309
 H609 H 0.33252 0.38272 -0.18014
 H610 H 0.30186 0.33947 -0.21898
 H611 H 0.38794 0.27545 -0.19176
 H612 H 0.41851 0.31992 -0.15570
 C613 C 1.12210 -0.14594 0.16660
 C614 C 1.15502 -0.14101 0.18470
 C615 C 1.17279 -0.16633 0.20634
 C616 C 1.15802 -0.19744 0.21051
 C617 C 1.12451 -0.20178 0.19221
 C618 C 1.10690 -0.17636 0.17053
 C619 C 1.10415 -0.11984 0.14360
 C620 C 1.08946 -0.09787 0.12420
 H621 H 1.16699 -0.11747 0.18226
 H622 H 1.19763 -0.16080 0.22117
 H623 H 1.11210 -0.22511 0.19245
 H624 H 1.08151 -0.18059 0.15631
 C625 C 1.12089 0.35412 0.66456
 C626 C 1.10917 0.34097 0.70724
 C627 C 1.12718 0.31570 0.72872
 C628 C 1.15727 0.30321 0.70785
 C629 C 1.16879 0.31661 0.66493
 C630 C 1.15075 0.34183 0.64352
 C631 C 1.10253 0.38031 0.64238
 C632 C 1.08763 0.40234 0.62342
 H633 H 1.08617 0.35031 0.72399
 H634 H 1.11782 0.30619 0.76197
 H635 H 1.19153 0.30728 0.64754
 H636 H 1.16006 0.35172 0.61045
 C637 C 0.62268 -0.14460 0.66280
 C638 C 0.65539 -0.13954 0.68151
 C639 C 0.67302 -0.16477 0.70359
 C640 C 0.65831 -0.19591 0.70763
 C641 C 0.62502 -0.20038 0.68866
 C642 C 0.60755 -0.17506 0.66654
 C643 C 0.60478 -0.11857 0.63952
 C644 C 0.59003 -0.09670 0.61998
 H645 H 0.66730 -0.11596 0.67923
 H646 H 0.69769 -0.15914 0.71889
 H647 H 0.61268 -0.22375 0.68873
 H648 H 0.58232 -0.17939 0.65186
 C649 C 0.62218 0.35475 0.15917
 C650 C 0.65249 0.34272 0.13905
 C651 C 0.67032 0.31755 0.16093
 C652 C 0.65810 0.30397 0.20336
 C653 C 0.62761 0.31626 0.22334
 C654 C 0.60982 0.34146 0.20140
 C655 C 0.60393 0.38078 0.13652
 C656 C 0.58896 0.40268 0.11739
 H657 H 0.66230 0.35274 0.10634
 H658 H 0.69341 0.30838 0.14424
 H659 H 0.61773 0.30662 0.25623
 H660 H 0.58647 0.35062 0.21744
 C661 C 0.87882 0.14619 0.16399
 C662 C 0.89045 0.17794 0.15866
 C663 C 0.87266 0.20339 0.18009
 C664 C 0.84289 0.19745 0.20717
 C665 C 0.83151 0.16542 0.21250
 C666 C 0.84936 0.14001 0.19107
 C667 C 0.89685 0.11999 0.14130
 C668 C 0.91166 0.09794 0.12221
 H669 H 0.91314 0.18307 0.13768
 H670 H 0.88185 0.22777 0.17475
 H671 H 0.80897 0.15996 0.23358
 H672 H 0.84013 0.11554 0.19557
 C673 C 0.87689 0.64645 0.66342
 C674 C 0.88852 0.67817 0.65760
 C675 C 0.87110 0.70372 0.67934
 C676 C 0.84171 0.69794 0.70727
 C677 C 0.83029 0.66594 0.71302
 C678 C 0.84776 0.64043 0.69127
 C679 C 0.89465 0.62012 0.64062
 C680 C 0.90933 0.59799 0.62152
 H681 H 0.91095 0.68318 0.63602
 H682 H 0.88030 0.72806 0.67364
 H683 H 0.80804 0.66060 0.73473
 H684 H 0.83853 0.61600 0.69617
 C685 C 0.37851 0.14681 0.66153
 C686 C 0.39042 0.15988 0.70394
 C687 C 0.37249 0.18508 0.72584
 C688 C 0.34228 0.19758 0.70564
 C689 C 0.33055 0.18426 0.66299
 C690 C 0.34852 0.15910 0.64116
 C691 C 0.39681 0.12069 0.63897
 C692 C 0.41173 0.09870 0.61984
 H693 H 0.41352 0.15053 0.72018
 H694 H 0.38201 0.19452 0.75888
 H695 H 0.30771 0.19360 0.64612
 H696 H 0.33905 0.14927 0.60831
 C697 C 0.37772 0.64618 0.16198
 C698 C 0.34766 0.65855 0.14193
 C699 C 0.32986 0.68373 0.16397
 C700 C 0.34185 0.69699 0.20652
 C701 C 0.37213 0.68442 0.22640
 C702 C 0.38989 0.65919 0.20429
 C703 C 0.39586 0.62006 0.13919
 C704 C 0.41067 0.59809 0.11987
 H705 H 0.33799 0.64876 0.10916
 H706 H 0.30696 0.69313 0.14734
 H707 H 0.38184 0.69380 0.25936
 H708 H 0.41305 0.64979 0.22029
   
