data_POSCAR
  _audit_creation_date              2014-09-24
  _audit_creation_method            'ToBaCCo'
  _symmetry_space_group_name_H-M    'P1'
  _symmetry_Int_Tables_number       1
  _symmetry_cell_setting            triclinic
  loop_
  _symmetry_equiv_pos_as_xyz
 x,y,z
_cell_length_a 27.7985
_cell_length_b 27.4218
_cell_length_c 27.8812
_cell_angle_alpha 92.949400
_cell_angle_beta 92.228400
_cell_angle_gamma 93.436800
loop_
  _atom_site_label
  _atom_site_type_symbol
  _atom_site_fract_x
  _atom_site_fract_y
  _atom_site_fract_z
N1 N 0.22908 1.32365 0.19441
 N2 N 0.19547 1.32259 0.22623
 C3 C 0.15819 1.34737 0.21051
 C4 C 0.16875 1.36470 0.16596
 C5 C 0.21464 1.34976 0.15749
 H6 H 0.12519 1.35046 0.22937
 H7 H 0.23474 1.35490 0.12549
 Cu8 Cu 0.20024 1.28281 0.28144
 Cu9 Cu 0.28607 1.28588 0.20060
 Cu10 Cu 0.28290 1.19992 0.28873
 N11 N 0.19131 1.22749 0.32144
 N12 N 0.22416 1.19519 0.32449
 C13 C 0.20765 1.15846 0.35076
 C14 C 0.16113 1.16735 0.36362
 C15 C 0.15234 1.21211 0.34498
 H16 H 0.22696 1.12623 0.35746
 H17 H 0.11947 1.23120 0.34648
 N18 N 0.32940 1.20022 0.23716
 N19 N 0.33100 1.23293 0.20404
 C20 C 0.36040 1.21818 0.16963
 C21 C 0.37719 1.17344 0.18089
 C22 C 0.35733 1.16369 0.22443
 H23 H 0.36532 1.23608 0.13635
 H24 H 0.35963 1.13063 0.24360
 H25 H 0.24736 1.23072 0.23245
 H26 H 0.28770 1.27273 0.27261
 N27 N 0.81542 0.70937 0.13014
 N28 N 0.83580 0.69797 0.17106
 C29 C 0.86774 0.66406 0.16244
 C30 C 0.86787 0.65374 0.11339
 C31 C 0.83398 0.68306 0.09390
 H32 H 0.89036 0.64894 0.18968
 H33 H 0.82360 0.68530 0.05637
 Cu34 Cu 0.82240 0.73166 0.23122
 Cu35 Cu 0.76595 0.75710 0.12755
 Cu36 Cu 0.73703 0.81183 0.23708
 N37 N 0.82255 0.78091 0.28388
 N38 N 0.78842 0.81187 0.28675
 C39 C 0.80035 0.84566 0.32263
 C40 C 0.84470 0.83572 0.34335
 C41 C 0.85766 0.79430 0.31737
 H42 H 0.78109 0.87830 0.32940
 H43 H 0.89223 0.77820 0.31914
 N44 N 0.70369 0.82402 0.17584
 N45 N 0.71619 0.80549 0.13381
 C46 C 0.68998 0.82504 0.09875
 C47 C 0.65973 0.85751 0.11989
 C48 C 0.66923 0.85553 0.16874
 H49 H 0.69320 0.81672 0.06077
 H50 H 0.65357 0.87719 0.19694
 H51 H 0.78927 0.79790 0.18931
 H52 H 0.74297 0.74671 0.19476
 N53 N 0.79474 1.28014 -0.17770
 N54 N 0.82798 1.27750 -0.20976
 C55 C 0.86568 1.30881 -0.19587
 C56 C 0.85543 1.33251 -0.15265
 C57 C 0.80980 1.31368 -0.14259
 H58 H 0.89915 1.31135 -0.21429
 H59 H 0.79075 1.32101 -0.11014
 Cu60 Cu 0.82137 1.22903 -0.26328
 Cu61 Cu 0.73810 1.23458 -0.18074
 Cu62 Cu 0.75179 1.12670 -0.24869
 N63 N 0.82754 1.17000 -0.30298
 N64 N 0.80185 1.12932 -0.29613
 C65 C 0.81642 1.09326 -0.32585
 C66 C 0.85340 1.11259 -0.35268
 C67 C 0.85910 1.16147 -0.33724
 H68 H 0.80149 1.05590 -0.32719
 H69 H 0.88554 1.18838 -0.34898
 N70 N 0.70286 1.13292 -0.19930
 N71 N 0.69712 1.17452 -0.17479
 C72 C 0.66258 1.16731 -0.14308
 C73 C 0.64537 1.11894 -0.14776
 C74 C 0.67169 1.09809 -0.18382
 H75 H 0.65192 1.19477 -0.11703
 H76 H 0.66944 1.06016 -0.19674
 H77 H 0.78311 1.18205 -0.20254
 H78 H 0.73821 1.19869 -0.24930
 N79 N 0.17415 0.70660 -0.17458
 N80 N 0.13306 0.71089 -0.19855
 C81 C 0.10046 0.67622 -0.18543
 C82 C 0.12254 0.64863 -0.15160
 C83 C 0.16924 0.66903 -0.14571
 H84 H 0.06307 0.67277 -0.19798
 H85 H 0.19703 0.65849 -0.12074
 Cu86 Cu 0.12581 0.76385 -0.24173
 Cu87 Cu 0.23022 0.75193 -0.17989
 Cu88 Cu 0.20505 0.86051 -0.23061
 N89 N 0.12395 0.81558 -0.28711
 N90 N 0.15596 0.85297 -0.28248
 C91 C 0.14661 0.88461 -0.31625
 C92 C 0.10624 0.86654 -0.34361
 C93 C 0.09279 0.82231 -0.32420
 H94 H 0.16711 0.91888 -0.32011
 H95 H 0.06258 0.79722 -0.33562
 N96 N 0.26357 0.85302 -0.19070
 N97 N 0.27410 0.81136 -0.17242
 C98 C 0.31387 0.81935 -0.14319
 C99 C 0.32925 0.86837 -0.14333
 C100 C 0.29626 0.88847 -0.17386
 H101 H 0.32803 0.79263 -0.12009
 H102 H 0.29379 0.92676 -0.18031
 H103 H 0.18415 0.80609 -0.18401
 H104 H 0.21179 0.78826 -0.24179
 C105 C 0.46800 1.04492 0.05207
 C106 C 0.50738 1.01578 0.07480
 C107 C 0.52845 0.98456 0.04327
 C108 C 0.50685 0.98486 -0.00861
 C109 C 0.49238 1.07007 0.01076
 C110 C 0.51252 1.03892 -0.02161
 C111 C 0.43225 1.00616 0.02723
 C112 C 0.45207 0.97424 -0.00445
 H113 H 0.51655 1.01830 0.11310
 H114 H 0.52262 0.95923 -0.03440
 H115 H 0.49745 1.10959 0.01002
 H116 H 0.39357 1.00804 0.03009
 C117 C 0.04954 0.45751 1.03760
 C118 C 0.07561 0.48373 0.99792
 C119 C 0.04572 0.50536 0.96627
 C120 C -0.00801 0.49927 0.97837
 C121 C 0.02029 0.49685 1.06167
 C122 C -0.00969 0.51933 1.03096
 C123 C 0.01188 0.42209 1.01068
 C124 C -0.01894 0.44364 0.98010
 H125 H 0.11463 0.48915 0.99816
 H126 H -0.03239 0.51613 0.95284
 H127 H 0.02221 0.50534 1.10021
 H128 H 0.01266 0.38278 1.01287
 C129 C 1.03570 0.03862 0.45519
 C130 C 1.00175 0.06325 0.48957
 C131 C 0.97088 0.03157 0.51152
 C132 C 0.97749 -0.02269 0.49681
 C133 C 1.06149 0.00271 0.48592
 C134 C 1.03145 -0.03008 0.50748
 C135 C 1.00239 0.00624 0.42010
 C136 C 0.97144 -0.02577 0.44150
 H137 H 1.00293 0.10259 0.49695
 H138 H 0.95311 -0.04940 0.51364
 H139 H 1.10015 0.00632 0.49366
 H140 H 1.00544 0.00777 0.38165
 C141 C 0.13775 0.38828 1.13330
 C142 C 0.13975 0.36867 1.08065
 C143 C 0.11140 0.39176 1.04929
 C144 C 0.08284 0.43216 1.07308
 C145 C 0.05520 0.40660 1.11245
 C146 C 0.08363 0.38367 1.14376
 C147 C 0.15009 0.44358 1.13204
 C148 C 0.12141 0.46652 1.10070
 H149 H 0.16117 0.33879 1.06893
 H150 H 0.10907 0.38183 1.01104
 H151 H 0.01627 0.40565 1.11479
 H152 H 0.06817 0.36282 1.17200
 H153 H 0.17884 0.46311 1.15406
 H154 H 0.12574 0.50555 1.09598
 C155 C -0.10028 0.61863 1.08851
 C156 C -0.04664 0.62964 1.10270
 C157 C -0.01706 0.59737 1.08256
 C158 C -0.04352 0.55656 1.04990
 C159 C -0.08190 0.53320 1.08127
 C160 C -0.11137 0.56555 1.10146
 C161 C -0.10226 0.61669 1.03315
 C162 C -0.07243 0.58438 1.01290
 H163 H -0.03292 0.66086 1.12582
 H164 H 0.02185 0.60124 1.08841
 H165 H -0.08586 0.49426 1.08669
 H166 H -0.14044 0.55424 1.12414
 H167 H -0.12360 0.63986 1.01154
 H168 H -0.06865 0.58138 0.97439
 C169 C -0.11069 0.36330 0.88188
 C170 C -0.13015 0.41233 0.89887
 C171 C -0.10040 0.43894 0.93191
 C172 C -0.05361 0.41426 0.94475
 C173 C -0.07140 0.36376 0.96126
 C174 C -0.10071 0.33717 0.92830
 C175 C -0.06048 0.37717 0.86343
 C176 C -0.03081 0.40370 0.89632
 H177 H -0.16470 0.42464 0.88663
 H178 H -0.11002 0.47361 0.94822
 H179 H -0.06395 0.35073 0.99670
 H180 H -0.11690 0.30139 0.93544
 H181 H -0.04920 0.36819 0.82744
 H182 H 0.00548 0.41682 0.88830
 C183 C 0.10040 0.60939 0.87803
 C184 C 0.13084 0.56459 0.88093
 C185 C 0.11245 0.52970 0.90927
 C186 C 0.06519 0.54270 0.93255
 C187 C 0.07670 0.59287 0.95879
 C188 C 0.09512 0.62758 0.93043
 C189 C 0.04976 0.58788 0.86110
 C190 C 0.03144 0.55280 0.88951
 H191 H 0.16329 0.56000 0.86117
 H192 H 0.12913 0.49526 0.91320
 H193 H 0.07054 0.60051 0.99659
 H194 H 0.10467 0.66487 0.94399
 H195 H 0.03094 0.59717 0.82834
 H196 H -0.00248 0.53226 0.88016
 C197 C 1.12831 0.13474 0.38672
 C198 C 1.13303 0.08036 0.37193
 C199 C 1.10304 0.04914 0.39477
 C200 C 1.07021 0.07464 0.43008
 C201 C 1.10509 0.10679 0.46440
 C202 C 1.13545 0.13803 0.44174
 C203 C 1.07434 0.14250 0.37713
 C204 C 1.04417 0.11122 0.39984
 H205 H 1.15715 0.06730 0.34509
 H206 H 1.10218 0.00978 0.38774
 H207 H 1.10571 0.10517 0.50323
 H208 H 1.16195 0.16302 0.46129
 H209 H 1.06054 0.16902 0.35343
 H210 H 1.00521 0.11177 0.39585
 C211 C 1.08469 -0.10933 0.61745
 C212 C 1.07347 -0.05652 0.63208
 C213 C 1.05575 -0.03133 0.59541
 C214 C 1.05016 -0.06081 0.54708
 C215 C 1.10030 -0.07987 0.53850
 C216 C 1.11835 -0.10484 0.57528
 C217 C 1.03682 -0.13254 0.59426
 C218 C 1.01886 -0.10714 0.55732
 H219 H 1.07873 -0.04029 0.66841
 H220 H 1.04635 0.00632 0.60045
 H221 H 1.11922 -0.07600 0.50545
 H222 H 1.15273 -0.12156 0.57363
 H223 H 1.01891 -0.16628 0.60483
 H224 H 0.98644 -0.12007 0.53646
 C225 C 0.87705 -0.12924 0.36969
 C226 C 0.85392 -0.09872 0.40954
 C227 C 0.88499 -0.06399 0.43264
 C228 C 0.93649 -0.06298 0.41416
 C229 C 0.95174 -0.11562 0.41821
 C230 C 0.92072 -0.15029 0.39520
 C231 C 0.89881 -0.09141 0.33671
 C232 C 0.92943 -0.05672 0.35969
 H233 H 0.81649 -0.10396 0.41890
 H234 H 0.87387 -0.03940 0.46132
 H235 H 0.98389 -0.12489 0.43826
 H236 H 0.92634 -0.18905 0.39627
 H237 H 0.88927 -0.09067 0.29860
 H238 H 0.94422 -0.02634 0.34051
 C239 C 0.88201 0.08888 0.61261
 C240 C 0.93623 0.09543 0.62616
 C241 C 0.96476 0.07563 0.59287
 C242 C 0.93701 0.05046 0.54874
 C243 C 0.90089 0.01312 0.56972
 C244 C 0.87221 0.03319 0.60314
 C245 C 0.87667 0.10982 0.56273
 C246 C 0.90519 0.08972 0.52946
 H247 H 0.95106 0.11431 0.65914
 H248 H 1.00379 0.07830 0.59731
 H249 H 0.89662 -0.02541 0.55898
 H250 H 0.84482 0.01117 0.62023
 H251 H 0.85184 0.13748 0.55400
 H252 H 0.90454 0.10022 0.49243
 C253 C 0.40175 1.13868 0.14731
 C254 C 0.45607 1.15127 0.14389
 C255 C 0.47821 1.12065 0.11287
 C256 C 0.44399 1.08014 0.08770
 C257 C 0.41997 1.05421 0.12903
 C258 C 0.39795 1.08460 0.16009
 C259 C 0.38129 1.13789 0.09517
 C260 C 0.40348 1.10771 0.06411
 H261 H 0.47549 1.18152 0.16434
 H262 H 0.51654 1.12478 0.10683
 H263 H 0.41977 1.01504 0.13312
 H264 H 0.37881 1.07068 0.19013
 H265 H 0.35149 1.15890 0.08359
 H266 H 0.39286 1.10349 0.02617
 C267 C 0.60921 1.09513 -0.11599
 C268 C 0.56272 1.12254 -0.11308
 C269 C 0.53040 1.10328 -0.08278
 C270 C 0.54736 1.05825 -0.05765
 C271 C 0.55901 1.02252 -0.09953
 C272 C 0.59159 1.04177 -0.12995
 C273 C 0.62873 1.09422 -0.06382
 C274 C 0.59656 1.07494 -0.03347
 H275 H 0.55524 1.15363 -0.13416
 H276 H 0.49527 1.11781 -0.07840
 H277 H 0.54135 0.98640 -0.10665
 H278 H 0.60171 1.02154 -0.16207
 H279 H 0.66512 1.10715 -0.05185
 H280 H 0.60548 1.07138 0.00441
 C281 C 0.36377 0.89597 -0.10705
 C282 C 0.37714 0.94926 -0.11850
 C283 C 0.40654 0.97413 -0.08438
 C284 C 0.42048 0.94384 -0.04177
 C285 C 0.37228 0.92370 -0.02290
 C286 C 0.34268 0.89919 -0.05704
 C287 C 0.41263 0.87336 -0.09908
 C288 C 0.44235 0.89835 -0.06474
 H289 H 0.36629 0.96575 -0.15143
 H290 H 0.41999 1.01169 -0.08811
 H291 H 0.36291 0.92654 0.01452
 H292 H 0.30797 0.88205 -0.04877
 H293 H 0.42261 0.84017 -0.11808
 H294 H 0.47729 0.88586 -0.05411
 C295 C 0.62542 0.89069 0.09665
 C296 C 0.57280 0.87877 0.10880
 C297 C 0.54124 0.90946 0.09010
 C298 C 0.56486 0.94974 0.06091
 C299 C 0.60453 0.97537 0.09495
 C300 C 0.63598 0.94460 0.11362
 C301 C 0.62455 0.89102 0.04139
 C302 C 0.59306 0.92209 0.02267
 H303 H 0.56124 0.84834 0.12990
 H304 H 0.50273 0.90522 0.09525
 H305 H 0.60837 1.01466 0.10268
 H306 H 0.66642 0.95765 0.13739
 H307 H 0.64800 0.87056 0.01882
 H308 H 0.59114 0.92802 -0.01544
   
