data_POSCAR
  _audit_creation_date              2014-09-24
  _audit_creation_method            'ToBaCCo'
  _symmetry_space_group_name_H-M    'P1'
  _symmetry_Int_Tables_number       1
  _symmetry_cell_setting            triclinic
  loop_
  _symmetry_equiv_pos_as_xyz
 x,y,z
_cell_length_a 26.5426
_cell_length_b 26.5744
_cell_length_c 66.3814
_cell_angle_alpha 86.317100
_cell_angle_beta 91.739600
_cell_angle_gamma 120.077300
loop_
  _atom_site_label
  _atom_site_type_symbol
  _atom_site_fract_x
  _atom_site_fract_y
  _atom_site_fract_z
C1 C 0.01426 0.10249 0.52653
 H2 H 0.05554 0.10370 0.52590
 C3 C 0.00811 0.13984 0.53872
 H4 H 0.04470 0.16985 0.54758
 C5 C -0.08373 0.06213 0.51560
 H6 H -0.11909 0.03213 0.50639
 C7 C -0.09177 0.09893 0.52765
 H8 H -0.13351 0.09698 0.52784
 N9 N -0.03138 0.06431 0.51543
 C10 C 0.00722 -0.07415 0.50707
 H11 H 0.01017 -0.07251 0.49080
 C12 C 0.01034 -0.11818 0.51878
 H13 H 0.01622 -0.15028 0.51154
 C14 C -0.00737 -0.03645 0.53639
 H15 H -0.01618 -0.00583 0.54320
 C16 C -0.00442 -0.07960 0.54862
 H17 H -0.01020 -0.08148 0.56480
 Zn18 Zn -0.01554 0.01776 0.49932
 N19 N -0.00182 -0.03463 0.51600
 C20 C 0.10013 0.06682 0.48354
 N21 N 0.05032 0.06967 0.48349
 C22 C 0.04591 0.11224 0.47247
 C23 C 0.09232 0.15360 0.46056
 C24 C 0.14779 0.10752 0.47177
 C25 C -0.12924 -0.07084 0.49113
 C26 C -0.17407 -0.11108 0.47927
 C27 C -0.11490 -0.06183 0.44962
 C28 C -0.07125 -0.02272 0.46203
 N29 N -0.07889 -0.02812 0.48240
 H30 H 0.10306 0.03328 0.49270
 H31 H 0.00603 0.11383 0.47295
 H32 H 0.08819 0.18710 0.45174
 H33 H 0.18728 0.10501 0.47175
 H34 H -0.13363 -0.07492 0.50740
 H35 H -0.21329 -0.14591 0.48645
 H36 H -0.10750 -0.05791 0.43347
 H37 H -0.03045 0.01037 0.45539
 C38 C 0.00382 -0.12121 0.53973
 C39 C -0.04533 0.13804 0.53932
 C40 C -0.16646 -0.10699 0.45831
 C41 C 0.14367 0.15120 0.46017
 C42 C 1.13201 0.05656 0.13972
 H43 H 1.13376 0.09808 0.13996
 C44 C 1.17112 0.05104 0.12782
 H45 H 1.20304 0.08836 0.11877
 C46 C 1.08836 -0.04277 0.15133
 H47 H 1.05633 -0.07895 0.16067
 C48 C 1.12683 -0.05020 0.13958
 H49 H 1.12413 -0.09227 0.13975
 N50 N 1.09134 0.00994 0.15100
 C51 C 0.95134 0.04798 0.15794
 H52 H 0.94985 0.04891 0.17418
 C53 C 0.90911 0.05190 0.14592
 H54 H 0.87526 0.05637 0.15288
 C55 C 0.99496 0.03736 0.12906
 H56 H 1.02713 0.02968 0.12257
 C57 C 0.95372 0.04120 0.11653
 H58 H 0.95483 0.03720 0.10043
 Zn59 Zn 1.04197 0.02439 0.16657
 N60 N 0.99285 0.04037 0.14939
 C61 C 1.08792 0.13782 0.18184
 N62 N 1.09102 0.08816 0.18217
 C63 C 1.13158 0.08226 0.19345
 C64 C 1.17042 0.12686 0.20539
 C65 C 1.12611 0.18367 0.19363
 C66 C 0.95122 -0.09001 0.17517
 C67 C 0.90879 -0.13627 0.18718
 C68 C 0.95295 -0.08108 0.21659
 C69 C 0.99439 -0.03589 0.20406
 N70 N 0.99260 -0.04089 0.18374
 H71 H 1.05600 0.14194 0.17249
 H72 H 1.13344 0.04256 0.19321
 H73 H 1.20225 0.12150 0.21445
 H74 H 1.12330 0.22298 0.19347
 H75 H 0.94998 -0.09232 0.15894
 H76 H 0.87503 -0.17456 0.18022
 H77 H 0.95380 -0.07606 0.23268
 H78 H 1.02645 0.00396 0.21056
 C79 C 0.90996 0.04772 0.12505
 C80 C 1.16845 -0.00279 0.12769
 C81 C 0.90932 -0.13136 0.20805
 C82 C 1.16759 0.17793 0.20554
 C83 C 0.04428 0.92926 0.86079
 H84 H 0.00440 0.88775 0.86029
 C85 C 0.09049 0.93425 0.87273
 H86 H 0.08620 0.89653 0.88154
 C87 C 0.09870 1.02907 0.84976
 H88 H 0.10178 1.06563 0.84061
 C89 C 0.14616 1.03596 0.86155
 H90 H 0.18565 1.07800 0.86161
 N91 N 0.04889 0.97636 0.84978
 C92 C -0.13058 0.93717 0.84218
 H93 H -0.13484 0.93692 0.82592
 C94 C -0.17551 0.93245 0.85408
 H95 H -0.21471 0.92803 0.84695
 C96 C -0.07282 0.94702 0.87126
 H97 H -0.03207 0.95478 0.87788
 C98 C -0.11660 0.94236 0.88369
 H99 H -0.10945 0.94578 0.89983
 Zn100 Zn -0.01677 0.96247 0.83395
 N101 N -0.08029 0.94485 0.85089
 C102 C -0.08480 0.84993 0.81768
 N103 N -0.03245 0.90015 0.81784
 C104 C 0.01332 0.90774 0.80674
 C105 C 0.00730 0.86430 0.79455
 C106 C -0.09271 0.80516 0.80563
 C107 C 0.00619 1.07725 0.82621
 C108 C 0.00947 1.12448 0.81450
 C109 C -0.00507 1.07125 0.78466
 C110 C -0.00819 1.02507 0.79688
 N111 N -0.00282 1.02870 0.81728
 H112 H -0.12026 0.84448 0.82690
 H113 H 0.05460 0.94784 0.80737
 H114 H 0.04399 0.87097 0.78569
 H115 H -0.13445 0.76533 0.80544
 H116 H 0.00899 1.07847 0.84248
 H117 H 0.01533 1.16244 0.82173
 H118 H -0.01071 1.06743 0.76848
 H119 H -0.01698 0.98565 0.79008
 C120 C -0.16806 0.93588 0.87501
 C121 C 0.14183 0.98804 0.87315
 C122 C 0.00314 1.12109 0.79355
 C123 C -0.04614 0.81261 0.79395
 C124 C 0.35335 -0.01037 -0.01018
 C125 C 0.35660 -0.00743 0.01039
 C126 C 0.40763 -0.00654 0.01629
 N127 N 0.43526 -0.00911 -0.00002
 C128 C 0.40232 -0.01152 -0.01624
 C129 C 0.42672 -0.00471 0.03649
 C130 C 0.47959 -0.00212 0.04259
 C131 C 0.49544 -0.00520 0.06255
 C132 C 0.54902 -0.00130 0.06231
 C133 C 0.56454 0.00359 0.04221
 N134 N 0.52248 0.00417 0.03030
 C135 C 0.61627 0.00661 0.03561
 C136 C 0.62693 -0.00113 0.01560
 C137 C 0.67503 -0.00399 0.00964
 C138 C 0.66784 -0.01485 -0.01046
 C139 C 0.61587 -0.01766 -0.01626
 N140 N 0.59102 -0.00938 -0.00028
 C141 C 0.59401 -0.02536 -0.03622
 C142 C 0.54424 -0.02222 -0.04265
 C143 C 0.53021 -0.01726 -0.06271
 C144 C 0.48063 -0.01316 -0.06277
 C145 C 0.46515 -0.01620 -0.04276
 N146 N 0.50373 -0.02267 -0.03061
 C147 C 0.41608 -0.01337 -0.03649
 H148 H 0.31878 -0.01156 -0.01959
 H149 H 0.32495 -0.00605 0.01990
 H150 H 0.50038 -0.03126 -0.01513
 H151 H 0.47080 -0.01015 0.07596
 H152 H 0.57322 -0.00311 0.07549
 H153 H 0.71125 0.00050 0.01885
 H154 H 0.69794 -0.01936 -0.01979
 H155 H 0.45872 -0.00809 -0.07611
 H156 H 0.52512 0.01278 0.01483
 H157 H 0.55392 -0.01550 -0.07596
 C158 C -0.01604 0.64427 0.67731
 C159 C -0.01221 0.64945 0.65664
 C160 C -0.02413 0.59575 0.65039
 N161 N -0.03522 0.55805 0.66656
 C162 C -0.02973 0.58772 0.68304
 C163 C -0.02844 0.58135 0.63006
 C164 C -0.03961 0.52664 0.62407
 C165 C -0.05751 0.50637 0.60494
 C166 C -0.06135 0.45274 0.60506
 C167 C -0.04523 0.44190 0.62422
 N168 N -0.03169 0.48740 0.63563
 C169 C -0.03965 0.39287 0.63019
 C170 C -0.02965 0.37894 0.65025
 C171 C -0.01599 0.33608 0.65597
 C172 C -0.01220 0.33471 0.67663
 C173 C -0.02412 0.37648 0.68289
 N174 N -0.03517 0.40310 0.66674
 C175 C -0.02849 0.38654 0.70323
 C176 C -0.03967 0.43005 0.70924
 C177 C -0.05764 0.43237 0.72839
 C178 C -0.06151 0.48213 0.72827
 C179 C -0.04533 0.50914 0.70909
 N180 N -0.03173 0.47724 0.69766
 C181 C -0.03977 0.56375 0.70312
 H182 H -0.00960 0.67824 0.68700
 H183 H -0.00262 0.68810 0.64727
 H184 H -0.01176 0.49016 0.68361
 H185 H -0.06676 0.52799 0.59220
 H186 H -0.07377 0.42527 0.59237
 H187 H -0.00955 0.30855 0.64627
 H188 H -0.00265 0.30565 0.68599
 H189 H -0.07399 0.49714 0.74096
 H190 H -0.01177 0.49446 0.64966
 H191 H -0.06693 0.40146 0.74113
 C192 C 0.35591 0.36866 0.32300
 C193 C 0.35577 0.36481 0.34368
 C194 C 0.40567 0.41390 0.34980
 N195 N 0.43636 0.44719 0.33349
 C196 C 0.40621 0.41968 0.31706
 C197 C 0.42033 0.42783 0.37016
 C198 C 0.46792 0.48062 0.37645
 C199 C 0.47495 0.49934 0.39590
 C200 C 0.52457 0.55305 0.39584
 C201 C 0.54707 0.56578 0.37638
 N202 N 0.51268 0.52086 0.36476
 C203 C 0.59835 0.61784 0.37016
 C204 C 0.61935 0.63364 0.35009
 C205 C 0.67052 0.68381 0.34420
 C206 C 0.67468 0.68363 0.32366
 C207 C 0.62576 0.63354 0.31760
 N208 N 0.59224 0.60323 0.33378
 C209 C 0.61394 0.61636 0.29747
 C210 C 0.56319 0.56620 0.29107
 C211 C 0.55443 0.54735 0.27158
 C212 C 0.50080 0.49769 0.27132
 C213 C 0.47815 0.48700 0.29069
 N214 N 0.51595 0.52960 0.30252
 C215 C 0.42414 0.43818 0.29678
 H216 H 0.32303 0.33699 0.31344
 H217 H 0.32224 0.33011 0.35311
 H218 H 0.50792 0.53550 0.31709
 H219 H 0.44658 0.47719 0.40876
 H220 H 0.54185 0.57985 0.40868
 H221 H 0.70174 0.71711 0.35369
 H222 H 0.70977 0.71671 0.31429
 H223 H 0.48130 0.47171 0.25839
 H224 H 0.52132 0.51584 0.35016
 H225 H 0.58381 0.56706 0.25884
 C226 C -0.05157 0.17643 0.55206
 C227 C -0.05401 0.20939 0.56312
 C228 C -0.05413 0.24853 0.57649
 C229 C -0.05243 0.28205 0.58826
 C230 C -0.04883 0.32113 0.60242
 C231 C -0.04489 0.35406 0.61485
 C232 C 0.86308 0.82451 0.22063
 C233 C 0.82420 0.78941 0.23153
 C234 C 0.77875 0.75023 0.24471
 C235 C 0.74023 0.71817 0.25629
 C236 C 0.69563 0.68196 0.27021
 C237 C 0.65816 0.65187 0.28242
 C238 C 0.18926 -0.00671 -0.11433
 C239 C 0.22735 -0.00463 -0.10344
 C240 C 0.27015 -0.00440 -0.09024
 C241 C 0.30528 -0.00555 -0.07857
 C242 C 0.34494 -0.00797 -0.06446
 C243 C 0.37773 -0.01044 -0.05199
 C244 C 0.00195 0.83136 0.55209
 C245 C -0.00128 0.79165 0.56292
 C246 C -0.00645 0.74547 0.57611
 C247 C -0.01155 0.70656 0.58780
 C248 C -0.01786 0.66187 0.60198
 C249 C -0.02302 0.62468 0.61452
 C250 C 0.20703 0.22351 0.21815
 C251 C 0.24065 0.25994 0.22916
 C252 C 0.28031 0.30066 0.24253
 C253 C 0.31408 0.33396 0.25434
 C254 C 0.35318 0.37138 0.26861
 C255 C 0.38589 0.40220 0.28120
 C256 C 0.79157 -0.06281 -0.11317
 C257 C 0.75768 -0.05973 -0.10234
 C258 C 0.72010 -0.05420 -0.08920
 C259 C 0.68955 -0.04832 -0.07762
 C260 C 0.65530 -0.04054 -0.06366
 C261 C 0.62708 -0.03359 -0.05138
 C262 C 0.20820 -0.00867 0.11510
 C263 C 0.24208 -0.01125 0.10412
 C264 C 0.28204 -0.01205 0.09078
 C265 C 0.31605 -0.01134 0.07898
 C266 C 0.35540 -0.00940 0.06471
 C267 C 0.38829 -0.00728 0.05211
 C268 C 0.79488 0.85295 0.44700
 C269 C 0.76099 0.81593 0.43621
 C270 C 0.72348 0.77276 0.42312
 C271 C 0.69305 0.73628 0.41158
 C272 C 0.65901 0.69423 0.39763
 C273 C 0.63103 0.65907 0.38535
 C274 C 0.00139 0.16670 0.78119
 C275 C -0.00174 0.20324 0.77037
 C276 C -0.00682 0.24429 0.75718
 C277 C -0.01185 0.27811 0.74548
 C278 C -0.01806 0.31653 0.73130
 C279 C -0.02314 0.34860 0.71877
 C280 C 0.86395 0.04575 0.11246
 C281 C 0.82526 0.04213 0.10155
 C282 C 0.78006 0.03611 0.08837
 C283 C 0.74176 0.02992 0.07679
 C284 C 0.69745 0.02192 0.06286
 C285 C 0.66020 0.01487 0.05065
 C286 C 0.19135 0.19353 0.44768
 C287 C 0.22970 0.22966 0.43683
 C288 C 0.27284 0.27235 0.42368
 C289 C 0.30830 0.30876 0.41207
 C290 C 0.34837 0.35099 0.39801
 C291 C 0.38151 0.38639 0.38558
 C292 C -0.05224 0.76806 0.78122
 C293 C -0.05456 0.73271 0.77015
 C294 C -0.05456 0.69351 0.75679
 C295 C -0.05276 0.66172 0.74503
 C296 C -0.04906 0.62627 0.73088
 C297 C -0.04506 0.59729 0.71846
   
