data_POSCAR
  _audit_creation_date              2014-09-24
  _audit_creation_method            'ToBaCCo'
  _symmetry_space_group_name_H-M    'P1'
  _symmetry_Int_Tables_number       1
  _symmetry_cell_setting            triclinic
  loop_
  _symmetry_equiv_pos_as_xyz
 x,y,z
_cell_length_a 21.8787
_cell_length_b 21.8715
_cell_length_c 21.8691
_cell_angle_alpha 97.614700
_cell_angle_beta 83.074600
_cell_angle_gamma 96.971600
loop_
  _atom_site_label
  _atom_site_type_symbol
  _atom_site_fract_x
  _atom_site_fract_y
  _atom_site_fract_z
O1 O 0.57617 0.51583 0.05843
 O2 O 0.41186 0.50290 0.03388
 O3 O 0.48668 0.42638 0.05629
 O4 O 0.50243 0.59074 0.02999
 O5 O 0.52704 0.56373 -0.06992
 O6 O 0.51234 0.39984 -0.04365
 O7 O 0.43533 0.47413 -0.06578
 O8 O 0.60090 0.48792 -0.04138
 Cu9 Cu 0.49190 0.51177 0.05458
 Cu10 Cu 0.52119 0.47921 -0.06537
 C11 C 0.61647 0.50287 0.01323
 C12 C 0.39509 0.48625 -0.01996
 C13 C 0.49795 0.38518 0.01085
 C14 C 0.51697 0.60528 -0.02465
 O15 O -0.06427 0.58056 0.53166
 O16 O -0.03907 0.41604 0.51732
 O17 O -0.03515 0.50708 0.60531
 O18 O -0.06102 0.49074 0.44014
 O19 O 0.03877 0.51634 0.41542
 O20 O 0.06445 0.53288 0.57988
 O21 O 0.06069 0.44038 0.49123
 O22 O 0.03508 0.60565 0.50494
 Cu23 Cu -0.05989 0.49615 0.52594
 Cu24 Cu 0.05976 0.52615 0.49544
 C25 C -0.01930 0.62140 0.52035
 C26 C 0.01512 0.40006 0.50276
 C27 C 0.01933 0.52240 0.62070
 C28 C -0.01548 0.50164 0.39964
 O29 O 0.49981 0.03005 0.59062
 O30 O 0.51156 0.05616 0.42624
 O31 O 0.42403 0.05879 0.51757
 O32 O 0.58817 0.03382 0.50069
 O33 O 0.56383 -0.06631 0.47439
 O34 O 0.39869 -0.04078 0.48882
 O35 O 0.48652 -0.04395 0.40006
 O36 O 0.47245 -0.06936 0.56428
 Cu37 Cu 0.50831 0.05464 0.51156
 Cu38 Cu 0.47806 -0.06529 0.47968
 C39 C 0.48423 -0.02435 0.60572
 C40 C 0.50022 0.01056 0.38519
 C41 C 0.38347 0.01383 0.50456
 C42 C 0.60428 -0.02031 0.48495
 C43 C 0.50206 -0.13014 -0.13210
 C44 C 0.48912 -0.07138 -0.14307
 C45 C 0.48425 -0.02437 -0.09266
 C46 C 0.49909 -0.03259 -0.03336
 C47 C 0.51507 -0.09132 -0.02512
 C48 C 0.51299 -0.14112 -0.07276
 C49 C 0.49808 0.01957 0.01936
 C50 C 0.49526 0.00779 0.08175
 C51 C 0.49684 0.05632 0.13082
 C52 C 0.49741 0.11739 0.11773
 C53 C 0.49839 0.13072 0.05669
 C54 C 0.50043 0.08194 0.00794
 H55 H 0.50342 -0.16755 -0.16968
 H56 H 0.46812 0.01832 -0.10046
 H57 H 0.52972 -0.09938 0.01821
 H58 H 0.49240 -0.03902 0.09302
 H59 H 0.49725 0.15491 0.15536
 H60 H 0.50359 0.09344 -0.03882
 C61 C -0.11906 0.49643 1.12788
 C62 C -0.13162 0.49522 1.06636
 C63 C -0.08232 0.49346 1.01892
 C64 C -0.02018 0.49728 1.03205
 C65 C -0.00915 0.49944 1.09467
 C66 C -0.05824 0.49752 1.14261
 C67 C 0.03239 0.49990 0.98066
 C68 C 0.09188 0.48486 0.98822
 C69 C 0.14130 0.48968 0.94075
 C70 C 0.12928 0.50387 0.88285
 C71 C 0.07005 0.51607 0.87300
 C72 C 0.02344 0.51767 0.92296
 H73 H -0.15694 0.49682 1.16460
 H74 H -0.09321 0.48994 0.97174
 H75 H 0.03753 0.50256 1.10683
 H76 H 0.10041 0.46867 1.03059
 H77 H 0.16606 0.50545 0.84518
 H78 H -0.01976 0.53336 0.91582
 C79 C -0.12726 -0.11888 0.49865
 C80 C -0.06864 -0.12869 0.51290
 C81 C -0.02264 -0.07807 0.51738
 C82 C -0.03153 -0.01973 0.50083
 C83 C -0.09047 -0.01217 0.48463
 C84 C -0.13931 -0.06031 0.48660
 C85 C 0.02051 0.03233 0.50034
 C86 C 0.00913 0.09496 0.50290
 C87 C 0.05801 0.14323 0.50150
 C88 C 0.11888 0.12881 0.50085
 C89 C 0.13165 0.06734 0.49930
 C90 C 0.08264 0.01964 0.49709
 H91 H -0.16388 -0.15678 0.49743
 H92 H 0.01989 -0.08493 0.53457
 H93 H -0.09926 0.03085 0.46995
 H94 H -0.03759 0.10688 0.50564
 H95 H 0.15665 0.16567 0.50156
 H96 H 0.09375 -0.02746 0.49338
 C97 C -0.27826 0.46734 0.98433
 C98 C -0.31837 0.50329 1.02494
 C99 C -0.29669 0.53690 1.07872
 C100 C -0.23612 0.53460 1.09173
 C101 C -0.19609 0.49766 1.05187
 C102 C -0.21796 0.46410 0.99790
 H103 H -0.29408 0.44026 0.94295
 H104 H -0.32656 0.56522 1.11071
 H105 H -0.22054 0.56226 1.13289
 H106 H -0.18895 0.43435 0.96664
 C107 C 0.28845 0.50311 1.02016
 C108 C 0.33199 0.48242 0.97129
 C109 C 0.31102 0.45952 0.91338
 C110 C 0.24873 0.45892 0.90426
 C111 C 0.20591 0.48263 0.95225
 C112 C 0.22659 0.50388 1.01055
 H113 H 0.30244 0.52107 1.06554
 H114 H 0.34271 0.44218 0.87482
 H115 H 0.23444 0.44039 0.85920
 H116 H 0.19555 0.52341 1.04846
 C117 C 0.01694 -0.27166 0.50227
 C118 C -0.03006 -0.31615 0.52343
 C119 C -0.08880 -0.29712 0.54547
 C120 C -0.10060 -0.23584 0.54477
 C121 C -0.05453 -0.19218 0.52058
 C122 C 0.00462 -0.21084 0.50009
 H123 H 0.06277 -0.28426 0.48486
 H124 H -0.12603 -0.32960 0.56312
 H125 H -0.14616 -0.22303 0.56273
 H126 H 0.04112 -0.17910 0.48014
 C127 C -0.01738 0.29393 0.53391
 C128 C 0.02518 0.33412 0.50067
 C129 C 0.07791 0.31105 0.46694
 C130 C 0.08786 0.24902 0.46639
 C131 C 0.04600 0.20885 0.50067
 C132 C -0.00685 0.23220 0.53436
 H133 H -0.05817 0.31064 0.56088
 H134 H 0.11122 0.34086 0.44051
 H135 H 0.12831 0.23249 0.43868
 H136 H -0.03955 0.20325 0.56223
 C137 C 0.45920 -0.09358 -0.31328
 C138 C 0.48130 -0.03491 -0.33184
 C139 C 0.50233 0.01245 -0.28672
 C140 C 0.50388 0.00073 -0.22568
 C141 C 0.48291 -0.05822 -0.20731
 C142 C 0.45931 -0.10481 -0.25178
 H143 H 0.44177 -0.13113 -0.34627
 H144 H 0.51989 0.05824 -0.29889
 H145 H 0.52354 0.03761 -0.19343
 H146 H 0.44113 -0.15028 -0.23938
 C147 C 0.46683 -0.02076 0.27921
 C148 C 0.50129 0.02114 0.31978
 C149 C 0.53488 0.07406 0.29781
 C150 C 0.53412 0.08485 0.23637
 C151 C 0.49863 0.04366 0.19585
 C152 C 0.46505 -0.00937 0.21810
 H153 H 0.43989 -0.06161 0.29521
 H154 H 0.56215 0.10688 0.32802
 H155 H 0.56176 0.12538 0.22055
 H156 H 0.43632 -0.04153 0.18878
 C157 C 0.54798 -0.30952 -0.09234
 C158 C 0.52043 -0.32903 -0.03573
 C159 C 0.49362 -0.28565 0.00953
 C160 C 0.49251 -0.22465 -0.00226
 C161 C 0.51900 -0.20509 -0.05929
 C162 C 0.54764 -0.24811 -0.10385
 H163 H 0.56944 -0.34185 -0.12793
 H164 H 0.47162 -0.29933 0.05344
 H165 H 0.46892 -0.19336 0.03274
 H166 H 0.56951 -0.23454 -0.14781
 C167 C 0.46155 0.29794 0.07407
 C168 C 0.49608 0.31980 0.02156
 C169 C 0.53077 0.27914 -0.01985
 C170 C 0.53185 0.21800 -0.00841
 C171 C 0.49726 0.19580 0.04412
 C172 C 0.46160 0.23642 0.08488
 H173 H 0.43413 0.32829 0.10650
 H174 H 0.55846 0.29510 -0.06032
 H175 H 0.56081 0.18860 -0.04015
 H176 H 0.43332 0.22062 0.12506
 C177 C -0.30769 -0.08539 0.45229
 C178 C -0.32937 -0.02948 0.48054
 C179 C -0.28724 0.01753 0.50664
 C180 C -0.22534 0.00804 0.50670
 C181 C -0.20368 -0.04844 0.47995
 C182 C -0.24540 -0.09462 0.45159
 H183 H -0.33896 -0.12219 0.43119
 H184 H -0.30252 0.06110 0.52896
 H185 H -0.19503 0.04423 0.52995
 H186 H -0.23015 -0.13822 0.42944
 C187 C 0.29693 0.07922 0.54010
 C188 C 0.31839 0.02577 0.50564
 C189 C 0.27816 -0.01430 0.46934
 C190 C 0.21789 -0.00057 0.46664
 C191 C 0.19616 0.05296 0.50115
 C192 C 0.23633 0.09237 0.53835
 H193 H 0.32698 0.11080 0.56864
 H194 H 0.29387 -0.05535 0.44156
 H195 H 0.18878 -0.03138 0.43658
 H196 H 0.22082 0.13322 0.56660
 C197 C 0.01664 0.53214 1.29341
 C198 C -0.02561 0.49876 1.33370
 C199 C -0.07802 0.46420 1.31073
 C200 C -0.08793 0.46293 1.24859
 C201 C -0.04635 0.49733 1.20831
 C202 C 0.00612 0.53192 1.23162
 H203 H 0.05714 0.55978 1.31010
 H204 H -0.11108 0.43769 1.34069
 H205 H -0.12811 0.43464 1.23206
 H206 H 0.03852 0.55997 1.20259
 C207 C 0.08719 0.55387 0.70655
 C208 C 0.03057 0.52609 0.68643
 C209 C -0.01420 0.49881 0.72903
 C210 C -0.00174 0.49713 0.78981
 C211 C 0.05548 0.52346 0.80980
 C212 C 0.09938 0.55292 0.76772
 H213 H 0.12237 0.57574 0.67481
 H214 H -0.05811 0.47668 0.71481
 H215 H -0.03624 0.47304 0.82049
 H216 H 0.14343 0.57470 0.78179
   
