data_POSCAR
  _audit_creation_date              2014-09-24
  _audit_creation_method            'ToBaCCo'
  _symmetry_space_group_name_H-M    'P1'
  _symmetry_Int_Tables_number       1
  _symmetry_cell_setting            triclinic
  loop_
  _symmetry_equiv_pos_as_xyz
 x,y,z
_cell_length_a 42.6380
_cell_length_b 42.6494
_cell_length_c 14.2991
_cell_angle_alpha 89.756100
_cell_angle_beta 90.398800
_cell_angle_gamma 120.228600
loop_
  _atom_site_label
  _atom_site_type_symbol
  _atom_site_fract_x
  _atom_site_fract_y
  _atom_site_fract_z
C1 C 0.31235 0.49573 0.59469
 C2 C 0.32860 0.49508 0.51074
 C3 C 0.31388 0.49596 0.42399
 C4 C 0.28057 0.49570 0.42024
 C5 C 0.26324 0.49581 0.50483
 C6 C 0.27936 0.49620 0.59245
 C7 C 0.26180 0.49639 0.67514
 C8 C 0.22925 0.49656 0.67217
 C9 C 0.21242 0.49563 0.58646
 C10 C 0.22977 0.49555 0.50177
 C11 C 0.26417 0.49532 0.33444
 C12 C 0.23197 0.49613 0.33135
 C13 C 0.21404 0.49578 0.41398
 C14 C 0.18145 0.49700 0.41142
 C15 C 0.16554 0.49835 0.49550
 C16 C 0.17948 0.49632 0.58280
 H17 H 0.27326 0.49663 0.74310
 H18 H 0.21736 0.49752 0.73795
 H19 H 0.27635 0.49486 0.26868
 H20 H 0.22118 0.49695 0.26322
 H21 H 0.35387 0.49474 0.51287
 H22 H 0.14035 0.49891 0.49283
 C23 C 0.51221 -0.30871 0.41046
 C24 C 0.50772 -0.32767 0.49309
 C25 C 0.50304 -0.31529 0.57970
 C26 C 0.50691 -0.28014 0.58408
 C27 C 0.51367 -0.25950 0.50018
 C28 C 0.51519 -0.27437 0.41283
 C29 C 0.51923 -0.25484 0.33016
 C30 C 0.52243 -0.22079 0.33283
 C31 C 0.52217 -0.20488 0.41840
 C32 C 0.51745 -0.22448 0.50290
 C33 C 0.50194 -0.26591 0.66772
 C34 C 0.50623 -0.23129 0.67057
 C35 C 0.51451 -0.20998 0.58936
 C36 C 0.51814 -0.17520 0.59111
 C37 C 0.52489 -0.15544 0.50808
 C38 C 0.52533 -0.17031 0.42170
 H39 H 0.51996 -0.26581 0.26259
 H40 H 0.52531 -0.20694 0.26709
 H41 H 0.49409 -0.28155 0.73170
 H42 H 0.50252 -0.22151 0.73697
 H43 H 0.50724 -0.35333 0.48904
 H44 H 0.52644 -0.12925 0.50981
 C45 C 1.31747 0.81182 0.44226
 C46 C 1.32901 0.82691 0.53135
 C47 C 1.31118 0.80842 0.61304
 C48 C 1.27867 0.77451 0.60495
 C49 C 1.26521 0.75957 0.51471
 C50 C 1.28475 0.77807 0.43312
 C51 C 1.26986 0.76358 0.34467
 C52 C 1.23640 0.73183 0.33617
 C53 C 1.21643 0.71340 0.41569
 C54 C 1.23114 0.72701 0.50585
 C55 C 1.25800 0.75643 0.68409
 C56 C 1.22504 0.72432 0.67543
 C57 C 1.21094 0.70922 0.58709
 C58 C 1.17598 0.67822 0.57748
 C59 C 1.16174 0.66555 0.48821
 C60 C 1.18135 0.68258 0.40763
 H61 H 1.28352 0.77723 0.28091
 H62 H 1.22592 0.72224 0.26652
 H63 H 1.26675 0.76735 0.75371
 H64 H 1.21013 0.71208 0.73893
 H65 H 1.35332 0.85339 0.53716
 H66 H 1.13455 0.64228 0.48117
 C67 C 0.82199 0.50802 0.42888
 C68 C 0.83472 0.50400 0.51537
 C69 C 0.81793 0.50394 0.59934
 C70 C 0.78637 0.50716 0.59608
 C71 C 0.77361 0.51222 0.50842
 C72 C 0.79134 0.51232 0.42448
 C73 C 0.77756 0.51589 0.33816
 C74 C 0.74710 0.51964 0.33389
 C75 C 0.72903 0.51948 0.41569
 C76 C 0.74221 0.51571 0.50413
 C77 C 0.76615 0.50346 0.67690
 C78 C 0.73501 0.50625 0.67263
 C79 C 0.72277 0.51299 0.58736
 C80 C 0.69006 0.51407 0.58114
 C81 C 0.67868 0.51943 0.49299
 C82 C 0.69697 0.52112 0.41064
 H83 H 0.79014 0.51564 0.27291
 H84 H 0.73755 0.52228 0.26557
 H85 H 0.77400 0.49781 0.74425
 H86 H 0.72031 0.50237 0.73696
 H87 H 0.85885 0.50151 0.51720
 H88 H 0.65341 0.51972 0.48733
 C89 C 0.49116 0.17827 0.59364
 C90 C 0.49587 0.16456 0.50922
 C91 C 0.49541 0.17970 0.42336
 C92 C 0.49293 0.21133 0.42002
 C93 C 0.49243 0.22831 0.50465
 C94 C 0.49137 0.21175 0.59239
 C95 C 0.48824 0.22802 0.67448
 C96 C 0.48847 0.26085 0.67104
 C97 C 0.49059 0.27807 0.58523
 C98 C 0.49126 0.26099 0.50102
 C99 C 0.48968 0.22558 0.33427
 C100 C 0.48697 0.25667 0.33110
 C101 C 0.48980 0.27599 0.41306
 C102 C 0.49072 0.30963 0.40971
 C103 C 0.49217 0.32709 0.49401
 C104 C 0.49148 0.31166 0.58119
 H105 H 0.48571 0.21566 0.74226
 H106 H 0.48649 0.27249 0.73635
 H107 H 0.48887 0.21256 0.26877
 H108 H 0.48362 0.26592 0.26326
 H109 H 0.49657 0.13944 0.50982
 H110 H 0.49326 0.35306 0.49171
 C111 C 0.67251 0.18378 0.56951
 C112 C 0.65934 0.17018 0.48003
 C113 C 0.67850 0.18759 0.39949
 C114 C 0.71228 0.21995 0.40710
 C115 C 0.72631 0.23446 0.49709
 C116 C 0.70658 0.21630 0.57884
 C117 C 0.72228 0.23015 0.66706
 C118 C 0.75613 0.26163 0.67503
 C119 C 0.77577 0.28020 0.59515
 C120 C 0.76083 0.26641 0.50531
 C121 C 0.73277 0.23751 0.32736
 C122 C 0.76648 0.26891 0.33546
 C123 C 0.78096 0.28379 0.42362
 C124 C 0.81559 0.31506 0.43250
 C125 C 0.82954 0.32879 0.52101
 C126 C 0.81052 0.31163 0.60217
 H127 H 0.70861 0.21655 0.73085
 H128 H 0.76701 0.27117 0.74442
 H129 H 0.72297 0.22698 0.25789
 H130 H 0.78127 0.28124 0.27183
 H131 H 0.63351 0.14510 0.47264
 H132 H 0.85647 0.35254 0.52691
 O133 O 0.95324 0.41832 0.18187
 O134 O 0.91011 0.42328 0.09715
 C135 C 0.91969 0.40792 0.16085
 O136 O 1.05039 0.58238 0.15609
 O137 O 1.09025 0.57330 0.06970
 C138 C 1.08301 0.59162 0.12943
 O139 O 0.94951 0.52696 0.17680
 O140 O 0.90821 0.47549 0.09832
 C141 C 0.91665 0.50150 0.15806
 O142 O 1.05437 0.46901 0.15988
 O143 O 1.09180 0.51981 0.07369
 C144 C 1.08613 0.49480 0.13444
 Zr145 Zr 1.00233 0.45915 0.12153
 O146 O 1.00880 0.46072 0.26861
 O147 O 1.00289 0.41006 0.11161
 Zr148 Zr 0.99950 0.53654 0.12280
 O149 O 1.00646 0.53565 0.26956
 O150 O 0.99587 0.58373 0.14038
 O151 O 0.96871 0.48075 0.14499
 O152 O 1.03296 0.51497 0.13536
 O153 O 1.04771 0.46547 -0.16328
 O154 O 1.08837 0.51780 -0.08660
 C155 C 1.08043 0.49171 -0.14548
 O156 O 0.94212 0.52263 -0.15750
 O157 O 0.90473 0.47353 -0.06627
 C158 C 0.91040 0.49736 -0.13048
 O159 O 1.04282 0.57786 -0.16551
 O160 O 1.08610 0.57120 -0.08712
 C161 C 1.07636 0.58783 -0.14669
 O162 O 0.94568 0.41397 -0.15721
 O163 O 0.90636 0.42151 -0.06409
 C164 C 0.91318 0.40447 -0.12858
 Zr165 Zr 0.99725 0.45670 -0.11294
 O166 O 0.99763 0.45786 -0.26104
 O167 O 0.99668 0.40684 -0.11307
 Zr168 Zr 0.99413 0.53412 -0.11334
 O169 O 0.99451 0.53276 -0.26143
 O170 O 0.98818 0.58041 -0.11787
 Zr171 Zr 0.94395 0.46792 0.01166
 Zr172 Zr 1.05253 0.52595 -0.00255
 O173 O 1.02692 0.51212 -0.13440
 O174 O 0.96276 0.47791 -0.12737
 O175 O 1.03268 0.46959 0.00022
 O176 O 0.96527 0.52446 0.00876
 O177 O 0.96826 0.43545 0.00864
 O178 O 1.02870 0.55890 0.00031
 H179 H 1.05053 0.52442 0.18803
 H180 H 0.94871 0.53440 0.01017
 H181 H 1.04201 0.52018 -0.19154
 H182 H 0.95284 0.40866 0.01107
 H183 H 0.99985 0.59521 0.07824
 H184 H 1.00652 0.59842 -0.07472
 H185 H 0.97247 0.51032 -0.28202
 H186 H 0.97549 0.45785 -0.28219
 H187 H 1.01376 0.40834 -0.06373
 H188 H 1.00604 0.40370 0.17637
 H189 H 0.99119 0.46679 0.29532
 H190 H 0.98311 0.51694 0.29651
 O191 O 0.42218 0.47316 0.17353
 O192 O 0.43061 0.52174 0.08638
 C193 C 0.41374 0.49758 0.15060
 O194 O 0.58543 0.53434 0.16071
 O195 O 0.57376 0.48283 0.08093
 C196 C 0.59239 0.50889 0.14057
 O197 O 0.53405 0.58321 0.16743
 O198 O 0.48413 0.57420 0.08325
 C199 C 0.50967 0.59158 0.14456
 O200 O 0.46673 0.41692 0.15780
 O201 O 0.51722 0.42698 0.07810
 C202 C 0.49058 0.40790 0.13512
 Zr203 Zr 0.46250 0.46266 0.12198
 O204 O 0.46884 0.46338 0.26922
 O205 O 0.41103 0.41525 0.13396
 Zr206 Zr 0.54224 0.54152 0.11631
 O207 O 0.54464 0.53969 0.26397
 O208 O 0.59067 0.59255 0.11366
 O209 O 0.48661 0.51861 0.13879
 O210 O 0.51800 0.48594 0.13580
 O211 O 0.46741 0.41806 -0.15998
 O212 O 0.51780 0.42811 -0.07822
 C213 C 0.49257 0.41021 -0.13940
 O214 O 0.52727 0.57824 -0.17805
 O215 O 0.48097 0.57180 -0.08403
 C216 C 0.50297 0.58631 -0.15380
 O217 O 0.57981 0.53042 -0.17305
 O218 O 0.57136 0.48132 -0.08627
 C219 C 0.58745 0.50543 -0.15177
 O220 O 0.41880 0.47208 -0.16191
 O221 O 0.42835 0.52039 -0.07267
 C222 C 0.41084 0.49663 -0.13690
 Zr223 Zr 0.45942 0.46089 -0.11274
 O224 O 0.45713 0.45688 -0.26050
 O225 O 0.40934 0.41200 -0.10019
 Zr226 Zr 0.53962 0.54038 -0.11822
 O227 O 0.54367 0.54258 -0.26561
 O228 O 0.58762 0.59170 -0.10875
 Zr229 Zr 0.47421 0.52866 0.00303
 Zr230 Zr 0.52780 0.47385 0.00038
 O231 O 0.51443 0.48489 -0.13293
 O232 O 0.48343 0.51661 -0.13344
 O233 O 0.47093 0.43939 0.00398
 O234 O 0.53093 0.56278 -0.00104
 O235 O 0.43958 0.47200 0.00565
 O236 O 0.56337 0.53048 -0.00237
 H237 H 0.52609 0.47731 0.19018
 H238 H 0.54103 0.58939 -0.00338
 H239 H 0.52051 0.47687 -0.19069
 H240 H 0.41293 0.46166 0.00715
 H241 H 0.60755 0.59065 0.07011
 H242 H 0.60783 0.58751 -0.09276
 H243 H 0.51929 0.52519 -0.29021
 H244 H 0.46052 0.48002 -0.28568
 H245 H 0.40047 0.40431 -0.16497
 H246 H 0.40704 0.40137 0.07553
 H247 H 0.46697 0.48402 0.29389
 H248 H 0.52226 0.53813 0.28851
 O249 O 0.46942 0.04592 0.18674
 O250 O 0.51205 0.08659 0.08471
 C251 C 0.49081 0.07858 0.15634
 O252 O 0.53934 -0.04650 0.15344
 O253 O 0.48623 -0.09055 0.08621
 C254 C 0.51466 -0.08008 0.13924
 O255 O 0.58222 0.05452 0.14755
 O256 O 0.56600 0.09056 0.06716
 C257 C 0.58711 0.08620 0.12458
 O258 O 0.42214 -0.05542 0.19088
 O259 O 0.43078 -0.09472 0.10218
 C260 C 0.41475 -0.08807 0.16927
 Zr261 Zr 0.45976 -0.00430 0.13350
 O262 O 0.46252 -0.00478 0.28133
 O263 O 0.40889 -0.00702 0.13612
 Zr264 Zr 0.54147 0.00170 0.10738
 O265 O 0.54674 0.00116 0.25472
 O266 O 0.59398 0.00889 0.09069
 O267 O 0.51580 0.03128 0.13544
 O268 O 0.48759 -0.03223 0.14125
 O269 O 0.40534 -0.06134 -0.12868
 O270 O 0.42329 -0.09787 -0.05790
 C271 C 0.40071 -0.09316 -0.10915
 O272 O 0.56496 0.04829 -0.18843
 O273 O 0.55892 0.08789 -0.09402
 C274 C 0.57315 0.08105 -0.16501
 O275 O 0.52353 -0.05296 -0.17116
 O276 O 0.47850 -0.09392 -0.07461
 C277 C 0.50127 -0.08572 -0.14282
 O278 O 0.45427 0.03860 -0.15777
 O279 O 0.50402 0.08315 -0.08342
 C280 C 0.47726 0.07227 -0.14314
 Zr281 Zr 0.44856 -0.00885 -0.09826
 O282 O 0.43702 -0.01652 -0.24340
 O283 O 0.40057 -0.00672 -0.07645
 Zr284 Zr 0.53020 -0.00281 -0.12547
 O285 O 0.52201 -0.00961 -0.27183
 O286 O 0.58309 0.00508 -0.14001
 Zr287 Zr 0.51902 0.05071 -0.00228
 Zr288 Zr 0.47097 -0.05775 0.00994
 O289 O 0.47466 -0.03730 -0.12611
 O290 O 0.50271 0.02591 -0.13453
 O291 O 0.43342 -0.03972 0.02332
 O292 O 0.55572 0.03152 -0.01457
 O293 O 0.46256 0.02511 0.01562
 O294 O 0.52767 -0.03276 -0.00745
 H295 H 0.48311 -0.04712 0.19833
 H296 H 0.58193 0.04911 -0.02257
 H297 H 0.46478 -0.05391 -0.18020
 H298 H 0.45134 0.04054 0.01863
 H299 H 0.59162 -0.01093 0.05020
 H300 H 0.58361 -0.01521 -0.10775
 H301 H 0.51533 0.00827 -0.29386
 H302 H 0.45875 0.00192 -0.27700
 H303 H 0.38524 -0.02638 -0.03231
 H304 H 0.40337 -0.00616 0.20291
 H305 H 0.48813 0.01172 0.29911
 H306 H 0.54564 0.02213 0.28010
 C307 C 1.14594 0.46713 0.26724
 C308 C 1.16394 0.49765 0.32799
 C309 C 1.15943 0.52771 0.31318
 C310 C 1.13652 0.52745 0.24353
 C311 C 1.11727 0.49725 0.18592
 C312 C 1.12280 0.46731 0.19487
 C313 C 1.14826 0.43548 0.28026
 C314 C 1.13010 0.40585 0.22026
 C315 C 1.10870 0.40673 0.14751
 C316 C 1.10474 0.43699 0.13518
 H317 H 1.16388 0.43316 0.33689
 H318 H 1.13248 0.38197 0.23065
 H319 H 1.09470 0.38365 0.10119
 H320 H 1.08749 0.43652 0.07868
 H321 H 1.17250 0.55106 0.35921
 H322 H 1.13131 0.54973 0.24028
 C323 C 0.54467 0.68013 0.27856
 C324 C 0.51215 0.67256 0.32361
 C325 C 0.47934 0.64182 0.29787
 C326 C 0.47881 0.61698 0.23452
 C327 C 0.51087 0.62247 0.19375
 C328 C 0.54386 0.65529 0.21109
 C329 C 0.57814 0.71121 0.30122
 C330 C 0.60986 0.71843 0.25534
 C331 C 0.60880 0.69500 0.18623
 C332 C 0.57614 0.66375 0.16387
 H333 H 0.58004 0.73021 0.35397
 H334 H 0.63534 0.74243 0.27311
 H335 H 0.63343 0.70099 0.15002
 H336 H 0.57630 0.64662 0.10858
 H337 H 0.45436 0.63555 0.33286
 H338 H 0.45365 0.59191 0.22305
 C339 C 0.35782 -0.17862 0.30657
 C340 C 0.33841 -0.16751 0.36528
 C341 C 0.34272 -0.13308 0.35279
 C342 C 0.36578 -0.10952 0.28552
 C343 C 0.38659 -0.11862 0.22774
 C344 C 0.38136 -0.15459 0.23529
 C345 C 0.35588 -0.21238 0.32100
 C346 C 0.37465 -0.22354 0.26386
 C347 C 0.39584 -0.20141 0.19156
 C348 C 0.39926 -0.16749 0.17717
 H349 H 0.33997 -0.23046 0.37689
 H350 H 0.37269 -0.24955 0.27570
 H351 H 0.41023 -0.21036 0.14692
 H352 H 0.41660 -0.15222 0.12054
 H353 H 0.32824 -0.12402 0.39694
 H354 H 0.36794 -0.08314 0.28107
 C355 C 0.86503 0.53801 0.29257
 C356 C 0.84164 0.50666 0.34517
 C357 C 0.84004 0.47373 0.32558
 C358 C 0.86279 0.47193 0.25937
 C359 C 0.88746 0.50281 0.20978
 C360 C 0.88735 0.53577 0.22236
 C361 C 0.86752 0.57177 0.30987
 C362 C 0.89004 0.60213 0.25586
 C363 C 0.91051 0.59952 0.18418
 C364 C 0.90931 0.56675 0.16746
 H365 H 0.85206 0.57500 0.36478
 H366 H 0.89148 0.62778 0.26938
 H367 H 0.92760 0.62306 0.14170
 H368 H 0.92539 0.56582 0.11064
 H369 H 0.82251 0.44965 0.36601
 H370 H 0.86294 0.44688 0.25192
 C371 C 0.51416 0.33996 0.24855
 C372 C 0.48790 0.32700 0.32123
 C373 C 0.45930 0.33405 0.31554
 C374 C 0.45905 0.35759 0.24883
 C375 C 0.48704 0.37469 0.18286
 C376 C 0.51245 0.36234 0.17576
 C377 C 0.54374 0.33377 0.25016
 C378 C 0.56851 0.34551 0.17692
 C379 C 0.56460 0.36392 0.10140
 C380 C 0.53698 0.37235 0.10072
 H381 H 0.54827 0.32023 0.30819
 H382 H 0.59070 0.34005 0.17849
 H383 H 0.58334 0.37209 0.04347
 H384 H 0.53446 0.38560 0.03953
 H385 H 0.43818 0.32330 0.36803
 H386 H 0.43760 0.36407 0.25346
 C387 C 0.64342 0.17832 0.24766
 C388 C 0.66294 0.16849 0.30997
 C389 C 0.66333 0.13639 0.29528
 C390 C 0.64119 0.11180 0.22790
 C391 C 0.61801 0.11854 0.17148
 C392 C 0.62220 0.15402 0.17429
 C393 C 0.64417 0.21158 0.25777
 C394 C 0.62631 0.22194 0.19376
 C395 C 0.60784 0.19966 0.11825
 C396 C 0.60593 0.16623 0.10798
 H397 H 0.65902 0.23007 0.31424
 H398 H 0.62742 0.24770 0.20175
 H399 H 0.59489 0.20834 0.06722
 H400 H 0.59257 0.15116 0.04599
 H401 H 0.67878 0.12896 0.34162
 H402 H 0.64057 0.08612 0.22479
 C403 C 0.45070 0.11835 -0.33762
 C404 C 0.48052 0.15435 -0.32875
 C405 C 0.50304 0.16323 -0.25001
 C406 C 0.49882 0.13641 -0.18663
 C407 C 0.47336 0.09951 -0.20165
 C408 C 0.44708 0.09026 -0.27595
 C409 C 0.42407 0.11033 -0.40769
 C410 C 0.39628 0.07505 -0.42341
 C411 C 0.39305 0.04718 -0.36659
 C412 C 0.41700 0.05459 -0.29191
 H413 H 0.42459 0.13156 -0.45077
 H414 H 0.37680 0.06955 -0.47886
 H415 H 0.37095 0.01967 -0.37801
 H416 H 0.40927 0.03157 -0.24712
 H417 H 0.52564 0.19055 -0.24054
 H418 H 0.51705 0.14450 -0.12728
 C419 C 0.62896 0.47870 -0.35028
 C420 C 0.66600 0.50632 -0.34270
 C421 C 0.67680 0.52997 -0.26561
 C422 C 0.65130 0.52789 -0.20077
 C423 C 0.61417 0.50292 -0.21255
 C424 C 0.60278 0.47858 -0.28923
 C425 C 0.61741 0.45082 -0.41767
 C426 C 0.58061 0.42653 -0.43263
 C427 C 0.55488 0.42968 -0.38158
 C428 C 0.56578 0.45464 -0.30891
 H429 H 0.63689 0.44762 -0.45821
 H430 H 0.57176 0.40498 -0.48325
 H431 H 0.52629 0.41138 -0.39490
 H432 H 0.54486 0.45413 -0.26756
 H433 H 0.70478 0.55158 -0.25856
 H434 H 0.66041 0.54723 -0.14378
 C435 C 0.85879 0.32053 -0.28105
 C436 C 0.83019 0.32641 -0.30831
 C437 C 0.82524 0.35217 -0.26064
 C438 C 0.85056 0.37482 -0.19406
 C439 C 0.88200 0.37304 -0.17567
 C440 C 0.88453 0.34356 -0.21288
 C441 C 0.86265 0.29252 -0.32156
 C442 C 0.89061 0.28661 -0.29316
 C443 C 0.91488 0.30816 -0.22368
 C444 C 0.91186 0.33625 -0.18347
 H445 H 0.84374 0.27465 -0.37410
 H446 H 0.89315 0.26490 -0.32419
 H447 H 0.93607 0.30299 -0.20035
 H448 H 0.93037 0.35139 -0.12738
 H449 H 0.80309 0.35652 -0.27978
 H450 H 0.84686 0.39561 -0.16182
 C451 C 0.47684 -0.15806 -0.32875
 C452 C 0.50868 -0.16059 -0.32667
 C453 C 0.53473 -0.14259 -0.25652
 C454 C 0.53058 -0.12039 -0.19215
 C455 C 0.50056 -0.11535 -0.19731
 C456 C 0.47324 -0.13452 -0.26542
 C457 C 0.44945 -0.17688 -0.39677
 C458 C 0.42060 -0.17054 -0.40637
 C459 C 0.41830 -0.14591 -0.34771
 C460 C 0.44361 -0.12889 -0.27639
 H461 H 0.45052 -0.19609 -0.44402
 H462 H 0.40028 -0.18436 -0.46026
 H463 H 0.39682 -0.13986 -0.35685
 H464 H 0.44003 -0.11084 -0.23139
 H465 H 0.55937 -0.14404 -0.25511
 H466 H 0.55191 -0.10541 -0.14125
 C467 C 0.35163 0.52775 -0.26919
 C468 C 0.33025 0.49576 -0.32222
 C469 C 0.33211 0.46467 -0.30224
 C470 C 0.35606 0.46518 -0.23554
 C471 C 0.38007 0.49708 -0.18713
 C472 C 0.37613 0.52843 -0.19889
 C473 C 0.35078 0.55980 -0.28907
 C474 C 0.37218 0.59150 -0.23901
 C475 C 0.39473 0.59203 -0.16791
 C476 C 0.39673 0.56107 -0.14755
 H477 H 0.33378 0.56078 -0.34407
 H478 H 0.37110 0.61574 -0.25541
 H479 H 0.41102 0.61677 -0.12855
 H480 H 0.41440 0.56393 -0.09053
 H481 H 0.31597 0.44004 -0.34226
 H482 H 0.35707 0.44050 -0.22572
 C483 C 1.12232 0.66380 -0.32750
 C484 C 1.15349 0.66099 -0.34545
 C485 C 1.16183 0.63992 -0.28630
 C486 C 1.13788 0.61868 -0.21647
 C487 C 1.10504 0.61816 -0.20270
 C488 C 1.09878 0.64343 -0.25296
 C489 C 1.11496 0.68769 -0.37955
 C490 C 1.08558 0.69199 -0.35732
 C491 C 1.06365 0.67346 -0.28167
 C492 C 1.07039 0.64983 -0.22924
 H493 H 1.13230 0.70393 -0.43621
 H494 H 1.08045 0.71058 -0.39725
 H495 H 1.04166 0.67787 -0.26241
 H496 H 1.05422 0.63808 -0.16766
 H497 H 1.18608 0.63830 -0.29767
 H498 H 1.14427 0.60099 -0.17651
 C499 C 0.85001 0.52754 -0.24834
 C500 C 0.83356 0.49981 -0.31751
 C501 C 0.83880 0.46981 -0.31223
 C502 C 0.86149 0.46799 -0.24529
 C503 C 0.87919 0.49558 -0.17969
 C504 C 0.87236 0.52480 -0.17781
 C505 C 0.84735 0.55929 -0.25133
 C506 C 0.86385 0.58602 -0.18283
 C507 C 0.88411 0.58230 -0.11151
 C508 C 0.88873 0.55221 -0.10938
 H509 H 0.83287 0.56406 -0.30658
 H510 H 0.86106 0.60988 -0.18546
 H511 H 0.89680 0.60311 -0.05845
 H512 H 0.90514 0.55050 -0.05386
 H513 H 0.82698 0.44858 -0.36466
 H514 H 0.86777 0.44646 -0.25027
 C515 C 0.52330 0.35173 -0.27757
 C516 C 0.49190 0.33202 -0.33383
 C517 C 0.46115 0.33451 -0.31561
 C518 C 0.46160 0.35781 -0.24723
 C519 C 0.49299 0.38019 -0.19423
 C520 C 0.52406 0.37566 -0.20600
 C521 C 0.55471 0.34947 -0.29485
 C522 C 0.58618 0.36956 -0.24248
 C523 C 0.58713 0.39230 -0.17220
 C524 C 0.55676 0.39542 -0.15394
 H525 H 0.55544 0.33247 -0.34967
 H526 H 0.61005 0.36765 -0.25689
 H527 H 0.61179 0.40804 -0.13190
 H528 H 0.56055 0.41392 -0.09902
 H529 H 0.43684 0.31926 -0.35770
 H530 H 0.43725 0.35948 -0.23911
 C531 C 0.63311 0.17355 -0.29250
 C532 C 0.65167 0.16250 -0.35426
 C533 C 0.64539 0.12710 -0.34814
 C534 C 0.62115 0.10257 -0.28429
 C535 C 0.60117 0.11169 -0.22352
 C536 C 0.60812 0.14838 -0.22523
 C537 C 0.63751 0.20861 -0.29968
 C538 C 0.61964 0.21978 -0.23934
 C539 C 0.59669 0.19625 -0.17155
 C540 C 0.59066 0.16103 -0.16486
 H541 H 0.65472 0.22778 -0.35217
 H542 H 0.62360 0.24684 -0.24541
 H543 H 0.58291 0.20513 -0.12451
 H544 H 0.57214 0.14487 -0.11132
 H545 H 0.65918 0.11803 -0.39484
 H546 H 0.61771 0.07562 -0.28423
 C547 C 1.14144 0.46499 -0.27741
 C548 C 1.15968 0.49576 -0.33744
 C549 C 1.15329 0.52480 -0.32614
 C550 C 1.12922 0.52368 -0.25948
 C551 C 1.11021 0.49343 -0.20176
 C552 C 1.11692 0.46417 -0.20836
 C553 C 1.14508 0.43402 -0.28787
 C554 C 1.12697 0.40421 -0.22840
 C555 C 1.10445 0.40427 -0.15851
 C556 C 1.09920 0.43380 -0.14874
 H557 H 1.16170 0.43237 -0.34210
 H558 H 1.13036 0.38088 -0.23675
 H559 H 1.09063 0.38113 -0.11229
 H560 H 1.08126 0.43271 -0.09410
 H561 H 1.16629 0.54826 -0.37187
 H562 H 1.12368 0.54579 -0.25706
 C563 C 0.47078 0.62310 -0.35182
 C564 C 0.49572 0.66110 -0.34277
 C565 C 0.51908 0.67335 -0.26445
 C566 C 0.51966 0.64879 -0.20047
 C567 C 0.49820 0.61138 -0.21508
 C568 C 0.47397 0.59823 -0.29202
 C569 C 0.44330 0.60931 -0.42151
 C570 C 0.42270 0.57218 -0.43892
 C571 C 0.42853 0.54807 -0.38628
 C572 C 0.45357 0.56081 -0.31282
 H573 H 0.43811 0.62728 -0.46411
 H574 H 0.40252 0.56218 -0.49424
 H575 H 0.41297 0.51927 -0.40077
 H576 H 0.45686 0.54113 -0.27281
 H577 H 0.53917 0.70181 -0.25641
 H578 H 0.53869 0.65900 -0.14246
 C579 C 0.34173 -0.18517 -0.23233
 C580 C 0.32538 -0.17350 -0.30092
 C581 C 0.32787 -0.13976 -0.28970
 C582 C 0.34895 -0.11617 -0.21950
 C583 C 0.36926 -0.12476 -0.15742
 C584 C 0.36268 -0.16110 -0.15777
 C585 C 0.33984 -0.21914 -0.23926
 C586 C 0.35536 -0.23051 -0.17076
 C587 C 0.37319 -0.20836 -0.09457
 C588 C 0.37684 -0.17408 -0.08789
 H589 H 0.32624 -0.23733 -0.29712
 H590 H 0.35314 -0.25686 -0.17612
 H591 H 0.38435 -0.21776 -0.04037
 H592 H 0.38966 -0.15872 -0.02579
 H593 H 0.31489 -0.13060 -0.33945
 H594 H 0.35143 -0.08962 -0.21934
 C595 C 0.55270 -0.13078 0.27657
 C596 C 0.52305 -0.15109 0.33726
 C597 C 0.49082 -0.15043 0.32409
 C598 C 0.48820 -0.12871 0.25554
 C599 C 0.51726 -0.10766 0.19604
 C600 C 0.54957 -0.10928 0.20437
 C601 C 0.58558 -0.13080 0.28713
 C602 C 0.61432 -0.11110 0.22587
 C603 C 0.61092 -0.09090 0.15378
 C604 C 0.57893 -0.08982 0.14303
 H605 H 0.58920 -0.14623 0.34214
 H606 H 0.63929 -0.11166 0.23407
 H607 H 0.63324 -0.07597 0.10600
 H608 H 0.57717 -0.07410 0.08576
 H609 H 0.46808 -0.16542 0.37078
 H610 H 0.46420 -0.12624 0.25356
 C611 C 0.35267 0.52643 0.27942
 C612 C 0.33445 0.49613 0.33998
 C613 C 0.33880 0.46613 0.32730
 C614 C 0.36285 0.46671 0.26171
 C615 C 0.38305 0.49696 0.20340
 C616 C 0.37527 0.52597 0.20634
 C617 C 0.34923 0.55743 0.29084
 C618 C 0.36481 0.58599 0.22721
 C619 C 0.38392 0.58421 0.15115
 C620 C 0.38911 0.55466 0.14036
 H621 H 0.33408 0.55969 0.34813
 H622 H 0.36131 0.60924 0.23576
 H623 H 0.39495 0.60597 0.10017
 H624 H 0.40329 0.55489 0.07844
 H625 H 0.32499 0.44269 0.37277
 H626 H 0.36660 0.44341 0.25981
 C627 C 1.13389 0.67394 0.28775
 C628 C 1.16240 0.66822 0.31698
 C629 C 1.16902 0.64393 0.26749
 C630 C 1.14526 0.62228 0.19698
 C631 C 1.11368 0.62355 0.17640
 C632 C 1.10975 0.65194 0.21552
 C633 C 1.12854 0.70072 0.33005
 C634 C 1.10062 0.70641 0.29984
 C635 C 1.07785 0.68585 0.22680
 C636 C 1.08240 0.65900 0.18454
 H637 H 1.14621 0.71779 0.38557
 H638 H 1.09694 0.72719 0.33241
 H639 H 1.05666 0.69083 0.20236
 H640 H 1.06499 0.64456 0.12592
 H641 H 1.19123 0.63986 0.28802
 H642 H 1.15011 0.60242 0.16368
 C643 C 0.45974 0.13293 0.29936
 C644 C 0.49349 0.15869 0.33941
 C645 C 0.52547 0.16029 0.30982
 C646 C 0.52422 0.13531 0.24557
 C647 C 0.49110 0.10838 0.20858
 C648 C 0.45860 0.10789 0.23212
 C649 C 0.42696 0.13083 0.32670
 C650 C 0.39397 0.10525 0.28672
 C651 C 0.39298 0.08152 0.21871
 C652 C 0.42492 0.08277 0.19125
 H653 H 0.42655 0.14898 0.37861
 H654 H 0.36906 0.10399 0.30820
 H655 H 0.36733 0.06199 0.18717
 H656 H 0.42302 0.06420 0.13726
 H657 H 0.55132 0.17957 0.34111
 H658 H 0.54899 0.13537 0.22983
 C659 C 0.64579 0.48137 0.30420
 C660 C 0.67652 0.51562 0.32173
 C661 C 0.68158 0.54562 0.26946
 C662 C 0.65534 0.54206 0.20421
 C663 C 0.62231 0.50913 0.19474
 C664 C 0.61685 0.47892 0.24898
 C665 C 0.64164 0.45008 0.34937
 C666 C 0.60767 0.41904 0.35446
 C667 C 0.57776 0.41949 0.31715
 C668 C 0.58231 0.44791 0.25967
 H669 H 0.66408 0.45025 0.38576
 H670 H 0.60413 0.39575 0.39387
 H671 H 0.55094 0.39825 0.33496
 H672 H 0.55835 0.44636 0.22963
 H673 H 0.70496 0.57217 0.28263
 H674 H 0.65971 0.56588 0.16581
 C675 C 0.87030 0.32950 0.33447
 C676 C 0.83960 0.33305 0.35168
 C677 C 0.83281 0.35575 0.29503
 C678 C 0.85762 0.37729 0.22708
 C679 C 0.89048 0.37765 0.21577
 C680 C 0.89548 0.35121 0.26409
 C681 C 0.87626 0.30449 0.38538
 C682 C 0.90585 0.30024 0.36568
 C683 C 0.92945 0.32007 0.29379
 C684 C 0.92414 0.34495 0.24262
 H685 H 0.85783 0.28764 0.43965
 H686 H 0.91001 0.28089 0.40505
 H687 H 0.95176 0.31585 0.27683
 H688 H 0.94177 0.35796 0.18397
 H689 H 0.80880 0.35784 0.30605
 H690 H 0.85172 0.39503 0.18597
   
