data_POSCAR
  _audit_creation_date              2014-09-24
  _audit_creation_method            'ToBaCCo'
  _symmetry_space_group_name_H-M    'P1'
  _symmetry_Int_Tables_number       1
  _symmetry_cell_setting            triclinic
  loop_
  _symmetry_equiv_pos_as_xyz
 x,y,z
_cell_length_a 9.7608
_cell_length_b 38.3090
_cell_length_c 9.7573
_cell_angle_alpha 90.038600
_cell_angle_beta 93.739500
_cell_angle_gamma 89.428400
loop_
  _atom_site_label
  _atom_site_type_symbol
  _atom_site_fract_x
  _atom_site_fract_y
  _atom_site_fract_z
N1 N 0.17865 0.03836 0.22654
 N2 N 0.24254 0.06820 0.25005
 N3 N 0.05913 -0.03464 0.28628
 N4 N 0.03536 -0.06508 0.34284
 N5 N 0.18138 -0.03489 0.23694
 N6 N 0.24328 -0.06529 0.26100
 N7 N 0.05698 0.03916 0.27668
 N8 N 0.03519 0.06973 0.33408
 C9 C 0.15250 0.08744 0.31846
 C10 C 0.15170 -0.08376 0.32832
 N11 N -0.27806 -0.03663 0.04774
 N12 N -0.33233 -0.06766 0.02446
 N13 N -0.22420 0.03837 0.16367
 N14 N -0.24390 0.06931 0.21987
 N15 N -0.28168 0.03728 0.03822
 N16 N -0.34094 0.06968 0.00527
 N17 N -0.22181 -0.03505 0.17375
 N18 N -0.23923 -0.06472 0.23903
 Mn19 Mn -0.08289 0.00199 0.22667
 C20 C -0.30971 -0.08468 0.14533
 C21 C -0.31510 0.08838 0.12161
 N22 N 0.27737 -0.03768 -0.03617
 N23 N 0.33511 -0.07016 -0.00181
 N24 N 0.21641 0.03462 -0.17296
 N25 N 0.23197 0.06454 -0.23734
 N26 N 0.27281 0.03620 -0.04702
 N27 N 0.32551 0.06737 -0.02303
 N28 N 0.21945 -0.03900 -0.16143
 N29 N 0.23749 -0.07020 -0.21605
 Mn30 Mn 0.22890 0.00051 0.09541
 C31 C 0.30778 -0.08919 -0.11697
 C32 C 0.30158 0.08459 -0.14314
 N33 N -0.18578 0.03474 -0.23513
 N34 N -0.24637 0.06531 -0.25928
 N35 N -0.06208 -0.04007 -0.27399
 N36 N -0.03869 -0.07130 -0.32553
 N37 N -0.18545 -0.03846 -0.22787
 N38 N -0.25184 -0.07017 -0.25229
 N39 N -0.06421 0.03396 -0.28589
 N40 N -0.03990 0.06412 -0.34434
 Mn41 Mn -0.23406 -0.00078 -0.09442
 Mn42 Mn 0.07778 -0.00269 -0.22520
 Cl43 Cl -0.00257 -0.00027 0.00057
 C44 C -0.15481 0.08330 -0.32879
 C45 C -0.15550 -0.08957 -0.31206
 N46 N 0.78680 0.53530 0.55666
 N47 N 0.84357 0.56560 0.53245
 N48 N 0.73600 0.46172 0.67629
 N49 N 0.76098 0.43138 0.73774
 N50 N 0.78390 0.46158 0.55351
 N51 N 0.84127 0.43108 0.52875
 N52 N 0.73744 0.53543 0.67892
 N53 N 0.76018 0.56585 0.73987
 C54 C 0.82806 0.58429 0.64797
 C55 C 0.82815 0.41263 0.64516
 N56 N 0.33715 0.46340 0.71903
 N57 N 0.27581 0.43328 0.73605
 N58 N 0.46554 0.53632 0.77861
 N59 N 0.49314 0.56621 0.84145
 N60 N 0.33962 0.53688 0.72217
 N61 N 0.27876 0.56699 0.74666
 N62 N 0.46364 0.46227 0.77432
 N63 N 0.49116 0.43109 0.82750
 Mn64 Mn 0.60120 0.49894 0.72880
 C65 C 0.37243 0.41349 0.80523
 C66 C 0.37515 0.58492 0.82256
 N67 N 0.66659 0.46284 0.27464
 N68 N 0.72583 0.43238 0.25225
 N69 N 0.54311 0.53762 0.22251
 N70 N 0.51503 0.56895 0.17121
 N71 N 0.66974 0.53640 0.27738
 N72 N 0.73059 0.56666 0.26175
 N73 N 0.54070 0.46359 0.21800
 N74 N 0.51162 0.43353 0.15728
 Mn75 Mn 0.72824 0.49899 0.41513
 C76 C 0.62849 0.41446 0.17748
 C77 C 0.63350 0.58659 0.19406
 N78 N 0.22300 0.53832 0.44334
 N79 N 0.16614 0.56885 0.46835
 N80 N 0.26877 0.46474 0.31723
 N81 N 0.24423 0.43459 0.25495
 N82 N 0.22011 0.46468 0.43972
 N83 N 0.16239 0.43449 0.46311
 N84 N 0.27074 0.53819 0.32048
 N85 N 0.24574 0.56852 0.25907
 Mn86 Mn 0.27850 0.50084 0.58147
 Mn87 Mn 0.40541 0.50104 0.26783
 Cl88 Cl 0.50334 0.49995 0.49836
 C89 C 0.17911 0.58727 0.35188
 C90 C 0.17627 0.41612 0.34655
 C91 C 0.17556 0.19863 0.33457
 C92 C 0.05019 0.18196 0.34457
 C93 C 0.04485 0.14566 0.34674
 C94 C 0.16437 0.12548 0.33757
 C95 C 0.29109 0.14232 0.33072
 C96 C 0.29656 0.17884 0.32924
 C97 C 0.17750 0.23604 0.32931
 C98 C 0.17353 0.26744 0.32694
 C99 C 0.16625 0.30485 0.32933
 C100 C 0.17090 0.32205 0.45564
 C101 C 0.16699 0.35839 0.46035
 C102 C 0.15977 0.37801 0.33865
 C103 C 0.15188 0.36063 0.21170
 C104 C 0.15435 0.32411 0.20716
 H105 H -0.04366 0.19708 0.34973
 H106 H -0.05328 0.13327 0.35226
 H107 H 0.38474 0.12730 0.32251
 H108 H 0.39421 0.19162 0.32191
 H109 H 0.17811 0.30730 0.55045
 H110 H 0.17325 0.37119 0.55924
 H111 H 0.14628 0.37529 0.11666
 H112 H 0.14917 0.31090 0.10898
 C113 C 0.67770 0.80419 0.18258
 C114 C 0.70249 0.81975 0.05731
 C115 C 0.70278 0.85601 0.04571
 C116 C 0.67902 0.87722 0.15897
 C117 C 0.65735 0.86157 0.28574
 C118 C 0.65578 0.82512 0.29713
 C119 C 0.67366 0.76676 0.19129
 C120 C 0.66904 0.73535 0.19346
 C121 C 0.66101 0.69790 0.19228
 C122 C 0.53760 0.68179 0.21868
 C123 C 0.52808 0.64547 0.21459
 C124 C 0.64227 0.62483 0.18570
 C125 C 0.76637 0.64106 0.16051
 C126 C 0.77518 0.67750 0.16240
 H127 H 0.72113 0.80382 -0.03142
 H128 H 0.72505 0.86767 -0.05068
 H129 H 0.64236 0.87750 0.37534
 H130 H 0.63801 0.81323 0.39477
 H131 H 0.44888 0.69733 0.24216
 H132 H 0.43276 0.63338 0.23757
 H133 H 0.85614 0.62554 0.14020
 H134 H 0.87097 0.68981 0.14188
 C135 C 0.83521 0.19485 0.65972
 C136 C 0.71186 0.17640 0.65298
 C137 C 0.71396 0.13983 0.65153
 C138 C 0.83957 0.12155 0.65539
 C139 C 0.96234 0.14037 0.65890
 C140 C 0.96012 0.17676 0.66168
 C141 C 0.83539 0.23234 0.66365
 C142 C 0.83931 0.26375 0.66532
 C143 C 0.84535 0.30120 0.66299
 C144 C 0.84810 0.32051 0.78507
 C145 C 0.84942 0.35704 0.78061
 C146 C 0.84759 0.37446 0.65380
 C147 C 0.84881 0.35478 0.53247
 C148 C 0.84723 0.31841 0.53700
 H149 H 0.61473 0.19030 0.65019
 H150 H 0.61814 0.12583 0.64902
 H151 H 1.06020 0.12689 0.66216
 H152 H 1.05576 0.19086 0.66504
 H153 H 0.84731 0.30732 0.88309
 H154 H 0.84794 0.37166 0.87549
 H155 H 0.84719 0.36758 0.43372
 H156 H 0.84614 0.30369 0.44210
 C157 C 0.34140 0.80250 0.86793
 C158 C 0.31293 0.82147 0.74681
 C159 C 0.30583 0.85795 0.75057
 C160 C 0.32862 0.87603 0.87572
 C161 C 0.36412 0.85657 0.99572
 C162 C 0.36773 0.82014 0.99200
 C163 C 0.34301 0.76495 0.86573
 C164 C 0.34516 0.73348 0.86506
 C165 C 0.35057 0.69595 0.86393
 C166 C 0.22995 0.67649 0.84672
 C167 C 0.23698 0.64003 0.83990
 C168 C 0.36490 0.62273 0.84956
 C169 C 0.48488 0.64244 0.87074
 C170 C 0.47778 0.67881 0.87713
 H171 H 0.29444 0.80802 0.64986
 H172 H 0.28296 0.87195 0.65541
 H173 H 0.38275 0.86928 1.09418
 H174 H 0.38981 0.80568 1.08635
 H175 H 0.13093 0.68954 0.83624
 H176 H 0.14298 0.62541 0.82330
 H177 H 0.58443 0.62975 0.87837
 H178 H 0.57159 0.69362 0.89072
 C179 C 0.31579 0.19589 0.82385
 C180 C 0.33945 0.17515 0.70921
 C181 C 0.33624 0.13867 0.71912
 C182 C 0.31172 0.12277 0.84463
 C183 C 0.28713 0.14377 0.95846
 C184 C 0.28838 0.18008 0.94800
 C185 C 0.32277 0.23335 0.81671
 C186 C 0.32992 0.26475 0.81510
 C187 C 0.34044 0.30221 0.81595
 C188 C 0.22493 0.32312 0.83570
 C189 C 0.23535 0.35954 0.83583
 C190 C 0.36212 0.37530 0.81801
 C191 C 0.47775 0.35415 0.79978
 C192 C 0.46691 0.31782 0.79802
 H193 H 0.35994 0.18720 0.61256
 H194 H 0.35293 0.12291 0.62944
 H195 H 0.26446 0.13198 1.05475
 H196 H 0.26929 0.19586 1.03700
 H197 H 0.12680 0.31122 0.84954
 H198 H 0.14451 0.37539 0.84825
 H199 H 0.57546 0.36586 0.78337
 H200 H 0.55690 0.30190 0.78269
 C201 C 0.82475 0.80235 0.65345
 C202 C 0.94506 0.81977 0.62706
 C203 C 0.94888 0.85616 0.63003
 C204 C 0.83322 0.87586 0.66357
 C205 C 0.70983 0.85805 0.68243
 C206 C 0.70610 0.82152 0.67821
 C207 C 0.82578 0.76481 0.65778
 C208 C 0.83106 0.73337 0.66063
 C209 C 0.83914 0.69586 0.66036
 C210 C 0.84579 0.67819 0.53574
 C211 C 0.84906 0.64177 0.53298
 C212 C 0.84489 0.62250 0.65498
 C213 C 0.84254 0.64037 0.78054
 C214 C 0.83987 0.67693 0.78316
 H215 H 1.03700 0.80515 0.60660
 H216 H 1.04465 0.86870 0.61206
 H217 H 0.61741 0.87215 0.70569
 H218 H 0.61179 0.80825 0.69732
 H219 H 0.84783 0.69262 0.44061
 H220 H 0.85146 0.62868 0.43497
 H221 H 0.84019 0.62605 0.87588
 H222 H 0.83644 0.69044 0.88029
 C223 C 0.16836 0.80483 0.33199
 C224 C 0.28918 0.82375 0.35875
 C225 C 0.28446 0.86028 0.36121
 C226 C 0.15831 0.87798 0.33957
 C227 C 0.03785 0.85873 0.31439
 C228 C 0.04298 0.82240 0.30987
 C229 C 0.17070 0.76738 0.32966
 C230 C 0.16826 0.73599 0.32934
 C231 C 0.16350 0.69858 0.33297
 C232 C 0.15273 0.67917 0.21115
 C233 C 0.15193 0.64267 0.21631
 C234 C 0.16110 0.62542 0.34363
 C235 C 0.16876 0.64519 0.46497
 C236 C 0.17051 0.68153 0.45972
 H237 H 0.38644 0.81023 0.37708
 H238 H 0.37864 0.87471 0.37964
 H239 H -0.05990 0.87186 0.29565
 H240 H -0.05082 0.80793 0.29025
 H241 H 0.14664 0.69227 0.11269
 H242 H 0.14708 0.62792 0.12146
 H243 H 0.17711 0.63246 0.56394
 H244 H 0.17822 0.69635 0.55448
 C245 C 0.64901 0.19655 0.14155
 C246 C 0.67633 0.17727 0.26211
 C247 C 0.68312 0.14079 0.25694
 C248 C 0.66188 0.12305 0.13080
 C249 C 0.62622 0.14280 0.01168
 C250 C 0.62278 0.17922 0.01683
 C251 C 0.64923 0.23410 0.14454
 C252 C 0.64881 0.26557 0.14495
 C253 C 0.64548 0.30313 0.14490
 C254 C 0.76743 0.32218 0.15559
 C255 C 0.76268 0.35870 0.16027
 C256 C 0.63581 0.37644 0.15422
 C257 C 0.51427 0.35712 0.13958
 C258 C 0.51909 0.32070 0.13584
 H259 H 0.69482 0.19046 0.35961
 H260 H 0.70600 0.12654 0.35163
 H261 H 0.60807 0.13035 -0.08731
 H262 H 0.60138 0.19391 -0.07702
 H263 H 0.86580 0.30878 0.16248
 H264 H 0.85771 0.37306 0.17160
 H265 H 0.41544 0.37018 0.13448
 H266 H 0.42429 0.30620 0.12664
   
