data_POSCAR
  _audit_creation_date              2014-09-24
  _audit_creation_method            'ToBaCCo'
  _symmetry_space_group_name_H-M    'P1'
  _symmetry_Int_Tables_number       1
  _symmetry_cell_setting            triclinic
  loop_
  _symmetry_equiv_pos_as_xyz
 x,y,z
_cell_length_a 33.6171
_cell_length_b 33.0641
_cell_length_c 32.4988
_cell_angle_alpha 89.763800
_cell_angle_beta 89.996800
_cell_angle_gamma 89.815400
loop_
  _atom_site_label
  _atom_site_type_symbol
  _atom_site_fract_x
  _atom_site_fract_y
  _atom_site_fract_z
O1 O 0.39691 0.34434 -0.03616
 O2 O 0.34395 0.40229 0.04313
 O3 O 0.40006 0.34729 0.04426
 O4 O 0.34134 0.39910 -0.03645
 O5 O 0.29423 0.35352 -0.02903
 O6 O 0.35601 0.29781 0.04527
 O7 O 0.30043 0.35265 0.04971
 O8 O 0.34974 0.29810 -0.03466
 Cu9 Cu 0.37532 0.37794 0.00337
 Cu10 Cu 0.32068 0.32052 0.00812
 C11 C 0.38181 0.31191 -0.04977
 C12 C 0.31323 0.38726 0.05986
 C13 C 0.38826 0.31331 0.05785
 C14 C 0.30672 0.38620 -0.04502
 O15 O 0.59213 0.65115 -0.03559
 O16 O 0.65281 0.60405 0.04593
 O17 O 0.59813 0.66001 0.04325
 O18 O 0.65044 0.59698 -0.03292
 O19 O 0.69039 0.64809 -0.04682
 O20 O 0.64558 0.70567 0.03796
 O21 O 0.70055 0.64835 0.03380
 O22 O 0.63542 0.70122 -0.04013
 Cu23 Cu 0.61880 0.62317 0.00585
 Cu24 Cu 0.67298 0.68037 -0.00414
 C25 C 0.60283 0.68493 -0.05057
 C26 C 0.68750 0.61736 0.05267
 C27 C 0.61280 0.69397 0.05318
 C28 C 0.67869 0.61232 -0.05372
 O29 O 0.64465 0.40326 0.96413
 O30 O 0.58674 0.35198 1.04556
 O31 O 0.64070 0.40771 1.04384
 O32 O 0.58699 0.34950 0.96496
 O33 O 0.63111 0.30017 0.97118
 O34 O 0.68739 0.36122 1.04579
 O35 O 0.63379 0.30555 1.05069
 O36 O 0.68846 0.35344 0.96643
 Cu37 Cu 0.61008 0.38285 1.00390
 Cu38 Cu 0.66471 0.32530 1.00857
 C39 C 0.67713 0.38732 0.95226
 C40 C 0.60112 0.32059 1.06284
 C41 C 0.67312 0.39456 1.05877
 C42 C 0.59937 0.31445 0.95556
 O43 O 0.34950 0.59107 0.96640
 O44 O 0.40577 0.65272 1.04075
 O45 O 0.35283 0.59545 1.04740
 O46 O 0.40446 0.64637 0.96167
 O47 O 0.35607 0.69123 0.95820
 O48 O 0.30566 0.64154 1.04517
 O49 O 0.35844 0.69910 1.03769
 O50 O 0.30137 0.63679 0.96580
 Cu51 Cu 0.38270 0.61649 1.00438
 Cu52 Cu 0.32567 0.67178 1.00172
 C53 C 0.31604 0.60373 0.95329
 C54 C 0.39201 0.68709 1.05089
 C55 C 0.32066 0.60999 1.06157
 C56 C 0.38895 0.67733 0.94490
 O57 O 0.04064 0.34867 0.39823
 O58 O -0.04572 0.40093 0.35249
 O59 O -0.03518 0.34265 0.40752
 O60 O 0.03172 0.40626 0.34496
 O61 O 0.03259 0.35907 0.29712
 O62 O -0.04312 0.30192 0.35447
 O63 O -0.04408 0.35873 0.29990
 O64 O 0.03492 0.30051 0.35161
 Cu65 Cu -0.00227 0.37939 0.38078
 Cu66 Cu -0.00496 0.32535 0.32088
 C67 C 0.05178 0.31516 0.38314
 C68 C -0.05882 0.38928 0.31783
 C69 C -0.05083 0.31161 0.39139
 C70 C 0.04406 0.39311 0.31056
 O71 O 0.03167 0.65350 0.60267
 O72 O -0.04080 0.59286 0.66102
 O73 O -0.04657 0.64849 0.60533
 O74 O 0.03558 0.60010 0.66289
 O75 O 0.03296 0.64916 0.70857
 O76 O -0.04901 0.69672 0.65165
 O77 O -0.04388 0.64105 0.70795
 O78 O 0.02759 0.70210 0.64896
 Cu79 Cu -0.00434 0.61913 0.62799
 Cu80 Cu -0.00825 0.67708 0.68391
 C81 C 0.04150 0.68823 0.61555
 C82 C -0.05449 0.60671 0.69447
 C83 C -0.06257 0.68057 0.61917
 C84 C 0.04734 0.61580 0.69641
 O85 O 0.95843 0.64912 0.40923
 O86 O 1.03628 0.59634 0.35007
 O87 O 1.03556 0.65212 0.40701
 O88 O 0.95887 0.59217 0.35406
 O89 O 0.95515 0.63864 0.30528
 O90 O 1.02880 0.69973 0.35997
 O91 O 1.03249 0.64390 0.30232
 O92 O 0.95284 0.69481 0.35959
 Cu93 Cu 0.99792 0.61762 0.38488
 Cu94 Cu 0.99240 0.67380 0.32666
 C95 C 0.94237 0.68078 0.39428
 C96 C 1.04717 0.61098 0.31572
 C97 C 1.04370 0.68731 0.39364
 C98 C 0.94347 0.60552 0.32098
 O99 O 1.03200 0.41035 0.65452
 O100 O 0.96141 0.34740 0.59498
 O101 O 0.95463 0.40507 0.65033
 O102 O 1.03845 0.35712 0.59629
 O103 O 1.03873 0.30812 0.64228
 O104 O 0.95766 0.35861 0.69897
 O105 O 0.96212 0.30250 0.64519
 O106 O 1.03501 0.36199 0.70152
 Cu107 Cu 0.99621 0.38478 0.61921
 Cu108 Cu 0.99894 0.32823 0.67683
 C109 C 1.04528 0.39658 0.68845
 C110 C 0.95012 0.31368 0.61004
 C111 C 0.94161 0.39015 0.68373
 C112 C 1.05302 0.32425 0.60983
 O113 O 0.39981 0.03689 0.35869
 O114 O 0.33765 -0.04048 0.40966
 O115 O 0.39688 -0.04210 0.35763
 O116 O 0.34372 0.03740 0.41482
 O117 O 0.30014 0.04216 0.36406
 O118 O 0.35224 -0.03896 0.30804
 O119 O 0.29385 -0.03561 0.35926
 O120 O 0.35616 0.03966 0.30791
 Cu121 Cu 0.37408 -0.00248 0.39015
 Cu122 Cu 0.32136 0.00253 0.32968
 C123 C 0.38864 0.05079 0.32403
 C124 C 0.30465 -0.05044 0.39348
 C125 C 0.38330 -0.05481 0.32363
 C126 C 0.31251 0.05281 0.39935
 O127 O 0.59319 0.04113 0.65038
 O128 O 0.64559 -0.03880 0.59297
 O129 O 0.59259 -0.03728 0.65177
 O130 O 0.64687 0.04047 0.59248
 O131 O 0.69267 0.04162 0.64074
 O132 O 0.64106 -0.03888 0.69773
 O133 O 0.69388 -0.03762 0.63901
 O134 O 0.63982 0.03960 0.69818
 Cu135 Cu 0.61487 0.00135 0.61708
 Cu136 Cu 0.67177 0.00103 0.67345
 C137 C 0.60757 0.05406 0.68397
 C138 C 0.67863 -0.05199 0.60646
 C139 C 0.60771 -0.05130 0.68470
 C140 C 0.67856 0.05537 0.60719
 O141 O 0.33603 1.04287 0.59933
 O142 O 0.39588 0.96091 0.64613
 O143 O 0.33625 0.96434 0.59476
 O144 O 0.39720 1.03974 0.64956
 O145 O 0.35771 1.03394 0.70363
 O146 O 0.29277 0.96542 0.64572
 O147 O 0.35182 0.95643 0.69611
 O148 O 0.29778 1.04355 0.65413
 Cu149 Cu 0.37059 1.00232 0.61711
 Cu150 Cu 0.32084 0.99970 0.68010
 C151 C 0.30630 1.05712 0.61876
 C152 C 0.38346 0.94407 0.67888
 C153 C 0.30363 0.95278 0.61059
 C154 C 0.38832 1.04866 0.68641
 O155 O 0.65726 1.03529 0.41133
 O156 O 0.59438 0.96309 0.35476
 O157 O 0.64977 0.95800 0.41024
 O158 O 0.59656 1.04206 0.36085
 O159 O 0.63719 1.03936 0.30751
 O160 O 0.69531 0.96062 0.36131
 O161 O 0.63961 0.96077 0.30541
 O162 O 0.69653 1.04002 0.35698
 Cu163 Cu 0.61995 0.99980 0.38929
 Cu164 Cu 0.67161 0.99998 0.32771
 C165 C 0.68701 1.05079 0.39304
 C166 C 0.60700 0.94905 0.32080
 C167 C 0.68186 0.94523 0.39448
 C168 C 0.60758 1.05503 0.32589
 C169 C 0.82490 0.77221 0.48435
 C170 C 0.82157 0.77098 0.52785
 C171 C 0.79509 0.79755 0.54759
 C172 C 0.77190 0.82495 0.52492
 C173 C 0.77505 0.82581 0.48165
 C174 C 0.80172 0.79988 0.46187
 H175 H 0.80448 0.80127 0.42865
 H176 H 0.79297 0.79738 0.58088
 C177 C 0.17016 0.22933 0.47735
 C178 C 0.17050 0.23378 0.52063
 C179 C 0.19612 0.20953 0.54416
 C180 C 0.21821 0.17818 0.52617
 C181 C 0.21771 0.17361 0.48276
 C182 C 0.19447 0.20005 0.45890
 H183 H 0.19357 0.19634 0.42577
 H184 H 0.19649 0.21297 0.57734
 C185 C 0.15693 0.78242 0.52575
 C186 C 0.15685 0.78252 0.48227
 C187 C 0.18396 0.80707 0.46101
 C188 C 0.20930 0.83325 0.48235
 C189 C 0.20910 0.83338 0.52576
 C190 C 0.18358 0.80721 0.54710
 H191 H 0.18260 0.80814 0.58043
 H192 H 0.18346 0.80780 0.42766
 C193 C 0.83504 0.21656 0.52194
 C194 C 0.84113 0.21017 0.47919
 C195 C 0.81581 0.18364 0.45820
 C196 C 0.78438 0.16389 0.47834
 C197 C 0.77831 0.17058 0.52092
 C198 C 0.80323 0.19739 0.54189
 H199 H 0.79904 0.20189 0.57465
 H200 H 0.82067 0.17819 0.42570
 C201 C 0.47500 0.82668 0.77163
 C202 C 0.51668 0.83047 0.77641
 C203 C 0.53600 0.80713 0.80661
 C204 C 0.51495 0.77961 0.83113
 C205 C 0.47359 0.77468 0.82512
 C206 C 0.45408 0.79864 0.79578
 H207 H 0.42212 0.79597 0.79218
 H208 H 0.56769 0.81082 0.81148
 C209 C 0.47572 0.17425 0.23679
 C210 C 0.51744 0.17744 0.23945
 C211 C 0.53741 0.20595 0.21527
 C212 C 0.51650 0.23047 0.18744
 C213 C 0.47477 0.22708 0.18438
 C214 C 0.45461 0.19957 0.20975
 H215 H 0.42272 0.19597 0.20648
 H216 H 0.56961 0.20754 0.21647
 C217 C 0.51817 0.16647 0.78349
 C218 C 0.47626 0.16393 0.78295
 C219 C 0.45378 0.18957 0.80809
 C220 C 0.47248 0.21658 0.83492
 C221 C 0.51444 0.21759 0.83704
 C222 C 0.53691 0.19305 0.81073
 H223 H 0.56912 0.19393 0.81215
 H224 H 0.42159 0.18783 0.80749
 C225 C 0.51620 0.83503 0.22539
 C226 C 0.47415 0.83248 0.22513
 C227 C 0.45531 0.80718 0.19664
 C228 C 0.47748 0.78458 0.16833
 C229 C 0.51930 0.78719 0.16847
 C230 C 0.53817 0.81248 0.19673
 H231 H 0.57030 0.81515 0.19590
 H232 H 0.42309 0.80573 0.19587
 C233 C 0.77211 0.47453 0.83363
 C234 C 0.77373 0.51737 0.83660
 C235 C 0.80357 0.53791 0.81461
 C236 C 0.82932 0.51741 0.78796
 C237 C 0.82530 0.47526 0.78268
 C238 C 0.79703 0.45426 0.80588
 H239 H 0.79548 0.42158 0.80359
 H240 H 0.80695 0.57029 0.81837
 C241 C 0.22236 0.48129 0.17604
 C242 C 0.22493 0.52404 0.17857
 C243 C 0.19795 0.54502 0.20372
 C244 C 0.16808 0.52454 0.22529
 C245 C 0.16545 0.48211 0.22266
 C246 C 0.19279 0.46091 0.19841
 H247 H 0.19011 0.42835 0.19577
 H248 H 0.19909 0.57776 0.20512
 C249 C 0.77457 0.52316 0.17234
 C250 C 0.77012 0.48061 0.17485
 C251 C 0.79380 0.45861 0.20273
 C252 C 0.82106 0.47828 0.22840
 C253 C 0.82376 0.52087 0.22726
 C254 C 0.80055 0.54284 0.19925
 H255 H 0.80372 0.57543 0.19744
 H256 H 0.79184 0.42590 0.20364
 C257 C 0.21927 0.51824 0.83606
 C258 C 0.21519 0.47576 0.83669
 C259 C 0.18809 0.45738 0.80975
 C260 C 0.16310 0.48090 0.78455
 C261 C 0.16625 0.52344 0.78525
 C262 C 0.19522 0.54162 0.80995
 H263 H 0.19731 0.57432 0.81081
 H264 H 0.18475 0.42478 0.81023
 C265 C 0.29474 0.40181 0.13354
 C266 C 0.29169 0.41064 0.09105
 C267 C 0.26738 0.44240 0.07759
 C268 C 0.24542 0.46503 0.10556
 C269 C 0.24795 0.45725 0.14792
 C270 C 0.27318 0.42568 0.16235
 C271 C 0.31916 0.37002 0.14801
 C272 C 0.32300 0.36245 0.19005
 C273 C 0.30268 0.38633 0.21834
 C274 C 0.27801 0.41767 0.20480
 H275 H 0.33544 0.35089 0.12697
 H276 H 0.34201 0.33809 0.20072
 H277 H 0.30606 0.38055 0.25096
 H278 H 0.26324 0.43575 0.22789
 H279 H 0.26478 0.44919 0.04504
 H280 H 0.22589 0.48860 0.09400
 C281 C 0.74571 0.57161 0.06930
 C282 C 0.71300 0.59558 0.08218
 C283 C 0.70225 0.59622 0.12373
 C284 C 0.72321 0.57341 0.15258
 C285 C 0.75426 0.54778 0.14039
 C286 C 0.76623 0.54710 0.09858
 C287 C 0.75813 0.57100 0.02784
 C288 C 0.78958 0.54633 0.01537
 C289 C 0.80958 0.52231 0.04396
 C290 C 0.79838 0.52287 0.08527
 H291 H 0.74383 0.58970 0.00484
 H292 H 0.79860 0.54600 -0.01661
 H293 H 0.83409 0.50335 0.03412
 H294 H 0.81512 0.50423 0.10658
 H295 H 0.67729 0.61445 0.13388
 H296 H 0.71443 0.57488 0.18461
 C297 C 0.74451 0.41211 0.92826
 C298 C 0.70273 0.40878 0.92244
 C299 C 0.68498 0.42654 0.88772
 C300 C 0.70786 0.44684 0.85849
 C301 C 0.74913 0.44956 0.86302
 C302 C 0.76799 0.43155 0.89765
 C303 C 0.76335 0.39858 0.96480
 C304 C 0.80428 0.40246 0.97012
 C305 C 0.82733 0.42031 0.93961
 C306 C 0.80951 0.43505 0.90387
 H307 H 0.74685 0.38596 0.99024
 H308 H 0.81812 0.39194 0.99829
 H309 H 0.85908 0.42347 0.94401
 H310 H 0.82856 0.44989 0.88170
 H311 H 0.65311 0.42465 0.88320
 H312 H 0.69327 0.46098 0.83240
 C313 C 0.30642 0.57760 0.88104
 C314 C 0.29385 0.58030 0.92256
 C315 C 0.25792 0.56260 0.93461
 C316 C 0.23443 0.54221 0.90624
 C317 C 0.24614 0.53920 0.86501
 C318 C 0.28248 0.55661 0.85206
 C319 C 0.34177 0.59621 0.86744
 C320 C 0.35389 0.59316 0.82653
 C321 C 0.33095 0.57178 0.79841
 C322 C 0.29549 0.55369 0.81088
 H323 H 0.36002 0.61347 0.88821
 H324 H 0.38116 0.60753 0.81657
 H325 H 0.34056 0.56940 0.76672
 H326 H 0.27844 0.53746 0.78808
 H327 H 0.24786 0.56488 0.96620
 H328 H 0.20662 0.52901 0.91637
 C329 C 0.12382 0.30704 0.40379
 C330 C 0.08420 0.29273 0.40337
 C331 C 0.07463 0.25712 0.42442
 C332 C 0.10275 0.23753 0.44879
 C333 C 0.14181 0.25181 0.45096
 C334 C 0.15322 0.28563 0.42679
 C335 C 0.13507 0.34154 0.38097
 C336 C 0.17454 0.35438 0.38044
 C337 C 0.20347 0.33292 0.40217
 C338 C 0.19309 0.29870 0.42497
 H339 H 0.11362 0.35842 0.36294
 H340 H 0.18278 0.38085 0.36270
 H341 H 0.23412 0.34280 0.40131
 H342 H 0.21647 0.28267 0.44117
 H343 H 0.04487 0.24494 0.42280
 H344 H 0.09406 0.21083 0.46600
 C345 C 0.05879 0.75200 0.57647
 C346 C 0.06936 0.71310 0.59145
 C347 C 0.10773 0.69802 0.58455
 C348 C 0.13597 0.72121 0.56393
 C349 C 0.12645 0.75991 0.54932
 C350 C 0.08777 0.77582 0.55571
 C351 C 0.01978 0.76743 0.58084
 C352 C 0.00992 0.80578 0.56594
 C353 C 0.03861 0.82953 0.54672
 C354 C 0.07724 0.81488 0.54175
 H355 H -0.00350 0.74991 0.59526
 H356 H -0.02013 0.81716 0.56941
 H357 H 0.03088 0.85940 0.53548
 H358 H 0.09869 0.83435 0.52686
 H359 H 0.11605 0.66827 0.59581
 H360 H 0.16544 0.70879 0.55898
 C361 C 0.87030 0.69684 0.40804
 C362 C 0.91108 0.70180 0.41739
 C363 C 0.92259 0.72840 0.44846
 C364 C 0.89429 0.75074 0.46989
 C365 C 0.85360 0.74633 0.46158
 C366 C 0.84119 0.71864 0.43085
 C367 C 0.85782 0.67046 0.37660
 C368 C 0.81751 0.66449 0.36877
 C369 C 0.78896 0.68478 0.39191
 C370 C 0.80051 0.71165 0.42261
 H371 H 0.87909 0.65426 0.35791
 H372 H 0.80840 0.64385 0.34480
 H373 H 0.75769 0.67975 0.38598
 H374 H 0.77728 0.72641 0.44005
 H375 H 0.95382 0.73260 0.45550
 H376 H 0.90426 0.77204 0.49290
 C377 C 0.92127 0.24441 0.59307
 C378 C 0.92225 0.28717 0.58715
 C379 C 0.89452 0.30528 0.56052
 C380 C 0.86584 0.28226 0.54048
 C381 C 0.86319 0.24053 0.54727
 C382 C 0.89005 0.22144 0.57500
 C383 C 0.95170 0.22340 0.61457
 C384 C 0.94944 0.18185 0.62135
 C385 C 0.91758 0.15998 0.60604
 C386 C 0.88846 0.17927 0.58263
 H387 H 0.97848 0.23802 0.62495
 H388 H 0.97290 0.16643 0.63807
 H389 H 0.91612 0.12765 0.61114
 H390 H 0.86561 0.16040 0.56956
 H391 H 0.89486 0.33766 0.55530
 H392 H 0.84560 0.29707 0.51924
 C393 C 0.42562 0.07323 0.26032
 C394 C 0.41363 0.08002 0.30158
 C395 C 0.42369 0.11632 0.32095
 C396 C 0.44378 0.14661 0.29952
 C397 C 0.45440 0.14127 0.25825
 C398 C 0.44588 0.10427 0.23838
 C399 C 0.41876 0.03587 0.24065
 C400 C 0.43082 0.02961 0.20012
 C401 C 0.44998 0.06026 0.17844
 C402 C 0.45756 0.09725 0.19726
 H403 H 0.40468 0.01098 0.25654
 H404 H 0.42542 0.00076 0.18554
 H405 H 0.45931 0.05524 0.14699
 H406 H 0.47299 0.12004 0.17949
 H407 H 0.41489 0.12172 0.35254
 H408 H 0.45071 0.17464 0.31506
 C409 C 0.56788 0.11979 0.68891
 C410 C 0.58621 0.08552 0.70760
 C411 C 0.58410 0.08066 0.75042
 C412 C 0.56289 0.10781 0.77454
 C413 C 0.54281 0.14049 0.75661
 C414 C 0.54575 0.14730 0.71369
 C415 C 0.57206 0.12822 0.64650
 C416 C 0.55385 0.16200 0.62877
 C417 C 0.53165 0.18838 0.65291
 C418 C 0.52783 0.18142 0.69504
 H419 H 0.59003 0.10953 0.62676
 H420 H 0.55734 0.16794 0.59618
 H421 H 0.51777 0.21468 0.63902
 H422 H 0.51112 0.20319 0.71289
 H423 H 0.59824 0.05498 0.76529
 H424 H 0.56124 0.10270 0.80745
 C425 C 0.43062 0.88249 0.67818
 C426 C 0.40667 0.91139 0.69929
 C427 C 0.40481 0.90996 0.74240
 C428 C 0.42673 0.88197 0.76471
 C429 C 0.45165 0.85435 0.74495
 C430 C 0.45362 0.85401 0.70143
 C431 C 0.43142 0.88006 0.63478
 C432 C 0.45547 0.85172 0.61496
 C433 C 0.47848 0.82468 0.63773
 C434 C 0.47728 0.82537 0.68056
 H435 H 0.41301 0.89906 0.61554
 H436 H 0.45588 0.85042 0.58168
 H437 H 0.49687 0.80262 0.62211
 H438 H 0.49471 0.80310 0.69714
 H439 H 0.38676 0.93139 0.75934
 H440 H 0.42492 0.88245 0.79801
 C441 C 0.59358 0.87689 0.30039
 C442 C 0.58367 0.91849 0.29884
 C443 C 0.55149 0.93155 0.27499
 C444 C 0.52969 0.90412 0.25182
 C445 C 0.53811 0.86254 0.25351
 C446 C 0.56953 0.84847 0.27912
 C447 C 0.62699 0.86290 0.32257
 C448 C 0.63513 0.82165 0.32588
 C449 C 0.61017 0.79366 0.30727
 C450 C 0.57768 0.80678 0.28406
 H451 H 0.64710 0.88372 0.33736
 H452 H 0.66068 0.81135 0.34334
 H453 H 0.61621 0.76163 0.31054
 H454 H 0.55896 0.78398 0.27031
 H455 H 0.54409 0.96344 0.27314
 H456 H 0.50658 0.91562 0.23172
 C457 C 0.42103 0.30833 0.88325
 C458 C 0.40253 0.28918 0.91747
 C459 C 0.40490 0.24702 0.92156
 C460 C 0.42717 0.22405 0.89418
 C461 C 0.44760 0.24246 0.86170
 C462 C 0.44392 0.28469 0.85528
 C463 C 0.41626 0.35013 0.87527
 C464 C 0.43462 0.36826 0.84146
 C465 C 0.45744 0.34521 0.81457
 C466 C 0.46181 0.30375 0.82105
 H467 H 0.39762 0.36911 0.89423
 H468 H 0.43072 0.40033 0.83583
 H469 H 0.47136 0.35942 0.78821
 H470 H 0.47895 0.28674 0.79883
 H471 H 0.39029 0.23173 0.94690
 H472 H 0.42922 0.19165 0.89889
 C473 C 0.54799 0.73476 0.93437
 C474 C 0.57684 0.70669 0.92046
 C475 C 0.58479 0.70340 0.87838
 C476 C 0.56484 0.72767 0.85001
 C477 C 0.53687 0.75637 0.86302
 C478 C 0.52924 0.76111 0.90560
 C479 C 0.53777 0.73766 0.97636
 C480 C 0.51147 0.76746 0.98996
 C481 C 0.49541 0.79512 0.96211
 C482 C 0.50408 0.79207 0.92031
 H483 H 0.55006 0.71701 0.99888
 H484 H 0.50418 0.76961 1.02233
 H485 H 0.47612 0.81906 0.97285
 H486 H 0.49108 0.81420 0.89966
 H487 H 0.60671 0.68205 0.86737
 H488 H 0.57109 0.72392 0.81753
 C489 C 0.42074 0.75523 0.07093
 C490 C 0.41517 0.71330 0.07868
 C491 C 0.43121 0.69589 0.11441
 C492 C 0.45123 0.71942 0.14311
 C493 C 0.45621 0.76094 0.13669
 C494 C 0.44108 0.77927 0.10046
 C495 C 0.40742 0.77376 0.03413
 C496 C 0.41245 0.81511 0.02752
 C497 C 0.43165 0.83865 0.05676
 C498 C 0.44603 0.82102 0.09284
 H499 H 0.39363 0.75664 0.00980
 H500 H 0.40188 0.82886 -0.00074
 H501 H 0.43574 0.87069 0.05128
 H502 H 0.46105 0.84037 0.11461
 H503 H 0.42733 0.66392 0.12066
 H504 H 0.46266 0.70519 0.17079
 C505 C 0.56069 0.32090 0.12956
 C506 C 0.57950 0.30006 0.09661
 C507 C 0.57909 0.25766 0.09620
 C508 C 0.55896 0.23587 0.12616
 C509 C 0.53919 0.25566 0.15808
 C510 C 0.54059 0.29832 0.16069
 C511 C 0.56259 0.36336 0.13337
 C512 C 0.54463 0.38305 0.16642
 C513 C 0.52496 0.36092 0.19665
 C514 C 0.52317 0.31891 0.19412
 H515 H 0.57841 0.38177 0.11150
 H516 H 0.54637 0.41564 0.16881
 H517 H 0.51136 0.37635 0.22240
 H518 H 0.50833 0.30267 0.21866
 H519 H 0.59410 0.24107 0.07206
 H520 H 0.55837 0.20316 0.12417
 C521 C 0.23998 0.09483 0.60618
 C522 C 0.28178 0.08971 0.59947
 C523 C 0.30108 0.11524 0.57125
 C524 C 0.28037 0.14452 0.54914
 C525 C 0.23928 0.14899 0.55362
 C526 C 0.21867 0.12435 0.58255
 C527 C 0.21814 0.07066 0.63435
 C528 C 0.17722 0.07528 0.63902
 C529 C 0.15659 0.10309 0.61517
 C530 C 0.17683 0.12708 0.58697
 H531 H 0.23129 0.04742 0.65307
 H532 H 0.16125 0.05642 0.66071
 H533 H 0.12462 0.10579 0.61818
 H534 H 0.15894 0.14701 0.56818
 H535 H 0.33277 0.11235 0.56589
 H536 H 0.29646 0.16328 0.52742
 C537 C 0.71323 0.12003 0.39747
 C538 C 0.70975 0.07992 0.41283
 C539 C 0.73020 0.06859 0.44852
 C540 C 0.75576 0.09547 0.46776
 C541 C 0.75877 0.13575 0.45443
 C542 C 0.73668 0.14860 0.41941
 C543 C 0.69174 0.13313 0.36243
 C544 C 0.69266 0.17343 0.34983
 C545 C 0.71459 0.20154 0.37193
 C546 C 0.73623 0.18948 0.40646
 H547 H 0.67338 0.11264 0.34497
 H548 H 0.67570 0.18302 0.32318
 H549 H 0.71461 0.23296 0.36242
 H550 H 0.75188 0.21269 0.42320
 H551 H 0.72804 0.03796 0.46039
 H552 H 0.77298 0.08481 0.49380
 C553 C 0.68289 0.87728 0.57607
 C554 C 0.70004 0.91563 0.58430
 C555 C 0.73980 0.92267 0.57366
 C556 C 0.76245 0.89291 0.55450
 C557 C 0.74659 0.85460 0.54697
 C558 C 0.70696 0.84604 0.55885
 C559 C 0.64277 0.86873 0.58553
 C560 C 0.62716 0.83022 0.57925
 C561 C 0.65122 0.79936 0.56412
 C562 C 0.69084 0.80701 0.55424
 H563 H 0.62315 0.89130 0.59840
 H564 H 0.59642 0.82409 0.58693
 H565 H 0.63913 0.76935 0.56000
 H566 H 0.70871 0.78215 0.54296
 H567 H 0.75330 0.95175 0.57979
 H568 H 0.79277 0.89972 0.54562
 C569 C 0.23691 0.92772 0.42033
 C570 C 0.27839 0.92069 0.41503
 C571 C 0.29572 0.88565 0.43166
 C572 C 0.27281 0.85730 0.45263
 C573 C 0.23214 0.86378 0.45879
 C574 C 0.21394 0.89939 0.44324
 C575 C 0.21782 0.96289 0.40491
 C576 C 0.17753 0.96997 0.41219
 C577 C 0.15549 0.94268 0.43535
 C578 C 0.17345 0.90786 0.45091
 H579 H 0.23361 0.98608 0.38826
 H580 H 0.16358 0.99725 0.40054
 H581 H 0.12440 0.94868 0.44162
 H582 H 0.15556 0.88809 0.46965
 H583 H 0.32726 0.87990 0.42785
 H584 H 0.28698 0.83021 0.46453
 C585 C 0.06551 0.42879 0.75570
 C586 C 0.07288 0.42082 0.71350
 C587 C 0.10841 0.43400 0.69548
 C588 C 0.13732 0.45332 0.71897
 C589 C 0.13116 0.46071 0.76088
 C590 C 0.09484 0.44903 0.77950
 C591 C 0.02932 0.41765 0.77469
 C592 C 0.02272 0.42529 0.81627
 C593 C 0.05137 0.44514 0.83947
 C594 C 0.08698 0.45721 0.82130
 H595 H 0.00565 0.40338 0.75765
 H596 H -0.00505 0.41628 0.83041
 H597 H 0.04582 0.45156 0.87160
 H598 H 0.10809 0.47320 0.84017
 H599 H 0.11439 0.42804 0.66330
 H600 H 0.16494 0.46228 0.70444
 C601 C 0.07112 0.58042 0.24864
 C602 C 0.07710 0.58926 0.29092
 C603 C 0.11239 0.57693 0.31025
 C604 C 0.14198 0.55683 0.28834
 C605 C 0.13698 0.54827 0.24657
 C606 C 0.10166 0.56036 0.22618
 C607 C 0.03503 0.58982 0.22840
 C608 C 0.02974 0.58088 0.18687
 C609 C 0.06016 0.56252 0.16465
 C610 C 0.09585 0.55238 0.18395
 H611 H 0.01035 0.60354 0.24441
 H612 H 0.00189 0.58825 0.17186
 H613 H 0.05599 0.55586 0.13236
 H614 H 0.11873 0.53815 0.16557
 H615 H 0.11720 0.58322 0.34257
 H616 H 0.16886 0.54745 0.30416
 C617 C 0.86928 0.41166 0.31173
 C618 C 0.90904 0.41185 0.29729
 C619 C 0.91848 0.43251 0.26100
 C620 C 0.88941 0.45345 0.23919
 C621 C 0.84986 0.45393 0.25268
 C622 C 0.83925 0.43244 0.28887
 C623 C 0.85858 0.39072 0.34796
 C624 C 0.81918 0.39029 0.36139
 C625 C 0.78983 0.41048 0.33901
 C626 C 0.79961 0.43131 0.30302
 H627 H 0.88047 0.37455 0.36610
 H628 H 0.81137 0.37410 0.38925
 H629 H 0.75930 0.40995 0.34958
 H630 H 0.77592 0.44648 0.28646
 H631 H 0.94875 0.43270 0.24959
 H632 H 0.89783 0.46955 0.21143
 C633 C 0.93009 0.55510 0.74934
 C634 C 0.91724 0.58244 0.71845
 C635 C 0.87657 0.58854 0.71174
 C636 C 0.84851 0.56761 0.73496
 C637 C 0.86043 0.54065 0.76599
 C638 C 0.90145 0.53536 0.77449
 C639 C 0.97082 0.54713 0.75597
 C640 C 0.98312 0.52226 0.78833
 C641 C 0.95514 0.50509 0.81466
 C642 C 0.91464 0.51138 0.80784
 H643 H 0.99334 0.56006 0.73623
 H644 H 1.01452 0.51677 0.79332
 H645 H 0.96479 0.48669 0.84040
 H646 H 0.89381 0.49750 0.82895
 H647 H 0.86652 0.60953 0.68821
 H648 H 0.81719 0.57219 0.72849
 C649 C 0.70436 0.60204 0.87563
 C650 C 0.69842 0.58897 0.91685
 C651 C 0.71468 0.55206 0.92967
 C652 C 0.74039 0.53073 0.90429
 C653 C 0.74573 0.54157 0.86286
 C654 C 0.72583 0.57677 0.84778
 C655 C 0.68697 0.63816 0.86064
 C656 C 0.68941 0.64852 0.81912
 C657 C 0.70848 0.62287 0.79160
 C658 C 0.72622 0.58721 0.80555
 H659 H 0.67068 0.65829 0.88060
 H660 H 0.67562 0.67615 0.80809
 H661 H 0.70936 0.63054 0.75919
 H662 H 0.73955 0.56770 0.78274
 H663 H 0.71049 0.54143 0.96095
 H664 H 0.75686 0.50613 0.91793
 C665 C 0.24003 0.41027 0.93130
 C666 C 0.28237 0.40816 0.92750
 C667 C 0.30084 0.42923 0.89510
 C668 C 0.27857 0.44940 0.86529
 C669 C 0.23705 0.45072 0.86748
 C670 C 0.21741 0.43165 0.90094
 C671 C 0.21972 0.39499 0.96632
 C672 C 0.17857 0.39850 0.97001
 C673 C 0.15666 0.41833 0.93984
 C674 C 0.17580 0.43525 0.90599
 H675 H 0.23501 0.38169 0.99222
 H676 H 0.16369 0.38652 0.99696
 H677 H 0.12476 0.42151 0.94317
 H678 H 0.15770 0.45198 0.88445
 H679 H 0.33292 0.42881 0.89171
 H680 H 0.29397 0.46453 0.84035
 C681 C 0.31876 0.56457 0.12405
 C682 C 0.30029 0.59069 0.09431
 C683 C 0.25894 0.59700 0.09692
 C684 C 0.23565 0.57567 0.12471
 C685 C 0.25258 0.54795 0.15218
 C686 C 0.29450 0.54338 0.15323
 C687 C 0.36063 0.56090 0.12772
 C688 C 0.37777 0.53579 0.15744
 C689 C 0.35397 0.51491 0.18521
 C690 C 0.31282 0.51920 0.18372
 H691 H 0.38098 0.57832 0.10924
 H692 H 0.40982 0.53329 0.15957
 H693 H 0.36752 0.49604 0.20866
 H694 H 0.29553 0.50401 0.20714
 H695 H 0.24371 0.61697 0.07554
 H696 H 0.20369 0.58000 0.12389
 C697 C 0.67644 0.44520 0.11699
 C698 C 0.69418 0.41666 0.08912
 C699 C 0.73535 0.40911 0.09255
 C700 C 0.75904 0.43000 0.12021
 C701 C 0.74263 0.45829 0.14709
 C702 C 0.70095 0.46472 0.14700
 C703 C 0.63495 0.45329 0.11817
 C704 C 0.61848 0.47898 0.14754
 C705 C 0.64237 0.49658 0.17722
 C706 C 0.68308 0.48917 0.17739
 H707 H 0.61394 0.43986 0.09758
 H708 H 0.58673 0.48458 0.14776
 H709 H 0.62925 0.51578 0.20049
 H710 H 0.70039 0.50249 0.20187
 H711 H 0.75011 0.38781 0.07234
 H712 H 0.79080 0.42430 0.12031
 C713 C 0.87784 0.67897 0.57230
 C714 C 0.90550 0.69956 0.59830
 C715 C 0.90110 0.74160 0.60347
 C716 C 0.87331 0.76362 0.58112
 C717 C 0.84768 0.74462 0.55355
 C718 C 0.84854 0.70189 0.55024
 C719 C 0.87638 0.63622 0.56969
 C720 C 0.84848 0.61700 0.54482
 C721 C 0.82044 0.63953 0.52319
 C722 C 0.81988 0.68147 0.52643
 H723 H 0.89535 0.61672 0.58775
 H724 H 0.84801 0.58431 0.54314
 H725 H 0.79841 0.62438 0.50453
 H726 H 0.79639 0.69772 0.51072
 H727 H 0.92096 0.75837 0.62333
 H728 H 0.87268 0.79622 0.58445
 C729 C 0.93765 0.26386 0.44845
 C730 C 0.92377 0.28709 0.41446
 C731 C 0.88487 0.28129 0.40017
 C732 C 0.85863 0.25630 0.42147
 C733 C 0.87163 0.23291 0.45499
 C734 C 0.91247 0.23371 0.46569
 C735 C 0.97674 0.26768 0.46391
 C736 C 0.99151 0.24028 0.49295
 C737 C 0.96824 0.20792 0.50590
 C738 C 0.92915 0.20435 0.49205
 H739 H 0.99641 0.29127 0.45328
 H740 H 1.02160 0.24339 0.50437
 H741 H 0.98033 0.18576 0.52712
 H742 H 0.91186 0.17864 0.50216
 H743 H 0.87404 0.29788 0.37358
 H744 H 0.82781 0.25535 0.41175
 C745 C 0.11383 0.32541 0.56488
 C746 C 0.08407 0.30465 0.58835
 C747 C 0.08527 0.26216 0.58989
 C748 C 0.11273 0.24027 0.56698
 C749 C 0.14136 0.25974 0.54287
 C750 C 0.14296 0.30251 0.54272
 C751 C 0.11777 0.36808 0.56553
 C752 C 0.14811 0.38739 0.54387
 C753 C 0.17622 0.36488 0.52249
 C754 C 0.17422 0.32287 0.52261
 H755 H 0.09885 0.38727 0.58383
 H756 H 0.15049 0.42002 0.54467
 H757 H 0.20029 0.38001 0.50660
 H758 H 0.19794 0.30640 0.50776
 H759 H 0.06344 0.24534 0.60750
 H760 H 0.11159 0.20754 0.56807
 C761 C 0.06587 0.75559 0.41631
 C762 C 0.06933 0.71249 0.41622
 C763 C 0.09959 0.69422 0.43977
 C764 C 0.12792 0.71733 0.46005
 C765 C 0.12651 0.75956 0.45868
 C766 C 0.09511 0.77910 0.43713
 C767 C 0.03243 0.77597 0.39935
 C768 C 0.02947 0.81799 0.40018
 C769 C 0.05896 0.84076 0.41879
 C770 C 0.09116 0.82161 0.43747
 H771 H 0.00721 0.76015 0.38684
 H772 H 0.00375 0.83292 0.38693
 H773 H 0.05637 0.87339 0.41973
 H774 H 0.11226 0.84043 0.45310
 H775 H 0.10255 0.66159 0.44110
 H776 H 0.15144 0.70206 0.47685
 C777 C 0.59770 0.87622 0.70721
 C778 C 0.58621 0.91742 0.70806
 C779 C 0.55290 0.92917 0.73088
 C780 C 0.53113 0.90080 0.75315
 C781 C 0.54067 0.85948 0.75150
 C782 C 0.57388 0.84679 0.72766
 C783 C 0.63213 0.86356 0.68598
 C784 C 0.64191 0.82265 0.68328
 C785 C 0.61746 0.79368 0.70125
 C786 C 0.58371 0.80545 0.72316
 H787 H 0.65171 0.88510 0.67126
 H788 H 0.66826 0.81337 0.66661
 H789 H 0.62474 0.76191 0.69833
 H790 H 0.56536 0.78182 0.73612
 H791 H 0.54413 0.96072 0.73209
 H792 H 0.50662 0.91129 0.77194
 C793 C 0.42544 0.88042 0.32022
 C794 C 0.40451 0.91281 0.30078
 C795 C 0.40441 0.91533 0.25768
 C796 C 0.42617 0.88831 0.23397
 C797 C 0.44907 0.85788 0.25241
 C798 C 0.44830 0.85310 0.29574
 C799 C 0.42330 0.87353 0.36313
 C800 C 0.44449 0.84194 0.38150
 C801 C 0.46751 0.81604 0.35764
 C802 C 0.46910 0.82115 0.31511
 H803 H 0.40457 0.89148 0.38295
 H804 H 0.44264 0.83722 0.41443
 H805 H 0.48366 0.79142 0.37208
 H806 H 0.48631 0.79958 0.29755
 H807 H 0.38821 0.93923 0.24205
 H808 H 0.42625 0.89203 0.20082
 C809 C 0.57438 0.12436 0.32640
 C810 C 0.58538 0.08819 0.30573
 C811 C 0.57507 0.08317 0.26433
 C812 C 0.55326 0.11256 0.24353
 C813 C 0.54110 0.14788 0.26345
 C814 C 0.55177 0.15433 0.30500
 C815 C 0.58626 0.13211 0.36732
 C816 C 0.57527 0.16792 0.38686
 C817 C 0.55246 0.19672 0.36615
 C818 C 0.54083 0.19018 0.32554
 H819 H 0.60467 0.11116 0.38445
 H820 H 0.58467 0.17342 0.41820
 H821 H 0.54402 0.22443 0.38152
 H822 H 0.52349 0.21347 0.31031
 H823 H 0.58346 0.05588 0.24808
 H824 H 0.54553 0.10760 0.21159
 C825 C 0.43372 0.06308 0.74632
 C826 C 0.41392 0.07610 0.71011
 C827 C 0.41616 0.11668 0.69795
 C828 C 0.43650 0.14472 0.72189
 C829 C 0.45546 0.13283 0.75836
 C830 C 0.45419 0.09176 0.77097
 C831 C 0.43391 0.02200 0.75838
 C832 C 0.45307 0.00963 0.79436
 C833 C 0.47199 0.03789 0.81916
 C834 C 0.47244 0.07862 0.80784
 H835 H 0.41968 -0.00088 0.73991
 H836 H 0.45307 -0.02200 0.80311
 H837 H 0.48649 0.02819 0.84727
 H838 H 0.48728 0.09961 0.82811
 H839 H 0.40106 0.12693 0.67033
 H840 H 0.43723 0.17606 0.71207
 C841 C 0.58422 0.76224 0.07502
 C842 C 0.59073 0.72018 0.08218
 C843 C 0.57366 0.70176 0.11682
 C844 C 0.55096 0.72399 0.14451
 C845 C 0.54396 0.76522 0.13808
 C846 C 0.56057 0.78480 0.10331
 C847 C 0.59912 0.78224 0.03970
 C848 C 0.59142 0.82317 0.03283
 C849 C 0.56871 0.84510 0.06071
 C850 C 0.55335 0.82625 0.09563
 H851 H 0.61582 0.76665 0.01627
 H852 H 0.60282 0.83786 0.00546
 H853 H 0.56269 0.87683 0.05510
 H854 H 0.53554 0.84437 0.11629
 H855 H 0.57810 0.66977 0.12262
 H856 H 0.53860 0.70886 0.17120
 C857 C 0.42857 0.25235 0.07982
 C858 C 0.41230 0.29101 0.08839
 C859 C 0.41725 0.30781 0.12752
 C860 C 0.43660 0.28628 0.15859
 C861 C 0.45268 0.24794 0.15099
 C862 C 0.44896 0.23066 0.11135
 C863 C 0.42570 0.23513 0.04027
 C864 C 0.44195 0.19715 0.03217
 C865 C 0.46157 0.17576 0.06310
 C866 C 0.46520 0.19226 0.10234
 H867 H 0.41129 0.25102 0.01525
 H868 H 0.43946 0.18436 0.00167
 H869 H 0.47427 0.14636 0.05659
 H870 H 0.48091 0.17476 0.12541
 H871 H 0.40532 0.33749 0.13435
 H872 H 0.43921 0.29972 0.18879
 C873 C 0.55809 0.25277 0.93953
 C874 C 0.57617 0.28942 0.92683
 C875 C 0.57296 0.30195 0.88577
 C876 C 0.55309 0.27823 0.85701
 C877 C 0.53532 0.24169 0.86871
 C878 C 0.53785 0.22850 0.91017
 C879 C 0.55923 0.23995 0.98098
 C880 C 0.54183 0.20358 0.99304
 C881 C 0.52300 0.17931 0.96413
 C882 C 0.52096 0.19150 0.92306
 H883 H 0.57329 0.25807 1.00434
 H884 H 0.54301 0.19417 1.02496
 H885 H 0.50973 0.15098 0.97362
 H886 H 0.50606 0.17172 0.90159
 H887 H 0.58662 0.32995 0.87575
 H888 H 0.55154 0.28843 0.82534
 C889 C 0.43599 0.68011 0.88203
 C890 C 0.40959 0.69890 0.91070
 C891 C 0.40244 0.74065 0.90722
 C892 C 0.42197 0.76409 0.87808
 C893 C 0.44972 0.74687 0.85133
 C894 C 0.45573 0.70446 0.85189
 C895 C 0.44277 0.63784 0.88152
 C896 C 0.46814 0.62034 0.85264
 C897 C 0.48689 0.64419 0.82322
 C898 C 0.48053 0.68579 0.82249
 H899 H 0.42829 0.61731 0.90241
 H900 H 0.47284 0.58793 0.85274
 H901 H 0.50618 0.63033 0.80059
 H902 H 0.49497 0.70317 0.79851
 H903 H 0.38240 0.75582 0.92827
 H904 H 0.41672 0.79645 0.87766
 C905 C 0.68625 0.87596 0.42860
 C906 C 0.70426 0.91264 0.41537
 C907 C 0.74496 0.91869 0.42217
 C908 C 0.76762 0.89000 0.44319
 C909 C 0.75054 0.85378 0.45657
 C910 C 0.71018 0.84563 0.44767
 C911 C 0.64537 0.86806 0.42253
 C912 C 0.62902 0.83084 0.43352
 C913 C 0.65298 0.80059 0.45019
 C914 C 0.69326 0.80771 0.45699
 H915 H 0.62562 0.88995 0.40858
 H916 H 0.59773 0.82519 0.42829
 H917 H 0.64030 0.77149 0.45793
 H918 H 0.71108 0.78327 0.46946
 H919 H 0.75906 0.94653 0.41234
 H920 H 0.79862 0.89629 0.44957
 C921 C 0.23687 0.93072 0.58198
 C922 C 0.27815 0.92390 0.58819
 C923 C 0.29550 0.88802 0.57392
 C924 C 0.27257 0.85859 0.55467
 C925 C 0.23167 0.86428 0.54894
 C926 C 0.21336 0.90039 0.56279
 C927 C 0.21859 0.96753 0.59321
 C928 C 0.17795 0.97370 0.58715
 C929 C 0.15484 0.94366 0.56943
 C930 C 0.17223 0.90734 0.55728
 H931 H 0.23560 0.99210 0.60587
 H932 H 0.16434 1.00206 0.59590
 H933 H 0.12332 0.94865 0.56475
 H934 H 0.15316 0.88493 0.54345
 H935 H 0.32700 0.88244 0.57832
 H936 H 0.28685 0.83117 0.54399
 C937 C 0.26051 0.07022 0.45236
 C938 C 0.28931 0.08250 0.42311
 C939 C 0.29357 0.12358 0.41375
 C940 C 0.27015 0.15255 0.43339
 C941 C 0.24048 0.14111 0.46144
 C942 C 0.23410 0.09940 0.46934
 C943 C 0.25693 0.02944 0.46471
 C944 C 0.22625 0.01732 0.49088
 C945 C 0.19808 0.04531 0.50413
 C946 C 0.20167 0.08595 0.49319
 H947 H 0.27767 0.00670 0.45419
 H948 H 0.22366 -0.01413 0.49986
 H949 H 0.17341 0.03560 0.52308
 H950 H 0.17897 0.10677 0.50353
 H951 H 0.31543 0.13330 0.39131
 H952 H 0.27512 0.18424 0.42657
 C953 C 0.68318 0.11704 0.55771
 C954 C 0.70066 0.08815 0.58527
 C955 C 0.74166 0.09051 0.59327
 C956 C 0.76552 0.11882 0.57377
 C957 C 0.74958 0.14611 0.54527
 C958 C 0.70804 0.14637 0.53797
 C959 C 0.64185 0.11838 0.54953
 C960 C 0.62579 0.14697 0.52251
 C961 C 0.65014 0.17533 0.50353
 C962 C 0.69082 0.17543 0.51146
 H963 H 0.62105 0.09813 0.56381
 H964 H 0.59410 0.14735 0.51658
 H965 H 0.63740 0.19761 0.48284
 H966 H 0.70868 0.19854 0.49680
 H967 H 0.75594 0.06930 0.61407
 H968 H 0.79726 0.11820 0.57964
 C969 C 0.87858 0.56537 0.32016
 C970 C 0.91195 0.58253 0.29965
 C971 C 0.91450 0.58002 0.25667
 C972 C 0.88557 0.56024 0.23395
 C973 C 0.85267 0.54285 0.25331
 C974 C 0.84840 0.54600 0.29654
 C975 C 0.87343 0.56831 0.36323
 C976 C 0.83965 0.55265 0.38236
 C977 C 0.81008 0.53432 0.35913
 C978 C 0.81412 0.53132 0.31660
 H979 H 0.89469 0.58335 0.38269
 H980 H 0.83613 0.55533 0.41535
 H981 H 0.78367 0.52273 0.37409
 H982 H 0.78994 0.51797 0.29951
 H983 H 0.93938 0.59329 0.24041
 H984 H 0.88900 0.55820 0.20086
 C985 C 0.87793 0.43337 0.68690
 C986 C 0.90856 0.41024 0.70634
 C987 C 0.90853 0.40668 0.74940
 C988 C 0.88056 0.42682 0.77325
 C989 C 0.85213 0.45212 0.75509
 C990 C 0.85002 0.45503 0.71167
 C991 C 0.87328 0.43457 0.64366
 C992 C 0.84354 0.45805 0.62542
 C993 C 0.81721 0.48004 0.64966
 C994 C 0.81998 0.47823 0.69238
 H995 H 0.89146 0.41666 0.62329
 H996 H 0.84058 0.45876 0.59226
 H997 H 0.79404 0.49799 0.63529
 H998 H 0.79812 0.49475 0.71011
 H999 H 0.93103 0.38883 0.76504
 H1000 H 0.88200 0.42379 0.80643
 C1001 C 0.07530 0.59072 0.76516
 C1002 C 0.07779 0.59452 0.72150
 C1003 C 0.10940 0.57592 0.70063
 C1004 C 0.13833 0.55402 0.72180
 C1005 C 0.13630 0.54942 0.76449
 C1006 C 0.10488 0.56794 0.78667
 C1007 C 0.04341 0.60744 0.78800
 C1008 C 0.04111 0.60239 0.83053
 C1009 C 0.07017 0.58048 0.85135
 C1010 C 0.10172 0.56331 0.82980
 H1011 H 0.01915 0.62353 0.77368
 H1012 H 0.01633 0.61518 0.84737
 H1013 H 0.06808 0.57646 0.88435
 H1014 H 0.12333 0.54616 0.84733
 H1015 H 0.11176 0.57841 0.66746
 H1016 H 0.16231 0.54006 0.70464
 C1017 C 0.06956 0.42281 0.24312
 C1018 C 0.07285 0.41726 0.28639
 C1019 C 0.10513 0.43426 0.30733
 C1020 C 0.13482 0.45489 0.28615
 C1021 C 0.13301 0.45957 0.24340
 C1022 C 0.10019 0.44370 0.22144
 C1023 C 0.03599 0.40927 0.22099
 C1024 C 0.03322 0.41513 0.17858
 C1025 C 0.06359 0.43461 0.15735
 C1026 C 0.09678 0.44884 0.17843
 H1027 H 0.01119 0.39479 0.23609
 H1028 H 0.00726 0.40462 0.16212
 H1029 H 0.06127 0.43905 0.12442
 H1030 H 0.11945 0.46419 0.16073
 H1031 H 0.10790 0.43077 0.34037
 H1032 H 0.15969 0.46708 0.30324
   
