data_POSCAR
  _audit_creation_date              2014-09-24
  _audit_creation_method            'ToBaCCo'
  _symmetry_space_group_name_H-M    'P1'
  _symmetry_Int_Tables_number       1
  _symmetry_cell_setting            triclinic
  loop_
  _symmetry_equiv_pos_as_xyz
 x,y,z
_cell_length_a 34.4559
_cell_length_b 34.4366
_cell_length_c 34.5449
_cell_angle_alpha 83.920800
_cell_angle_beta 96.970000
_cell_angle_gamma 68.454000
loop_
  _atom_site_label
  _atom_site_type_symbol
  _atom_site_fract_x
  _atom_site_fract_y
  _atom_site_fract_z
O1 O 0.55183 0.50031 0.03581
 O2 O 0.43938 0.52031 0.03388
 O3 O 0.50653 0.45327 0.03533
 O4 O 0.48391 0.56715 0.03276
 O5 O 0.47403 0.57636 -0.03243
 O6 O 0.49652 0.46303 -0.02984
 O7 O 0.42827 0.52960 -0.03120
 O8 O 0.54164 0.50957 -0.02934
 Cu9 Cu 0.49652 0.50923 0.04093
 Cu10 Cu 0.48393 0.52061 -0.03722
 C11 C 0.56594 0.50225 0.00367
 C12 C 0.41450 0.52783 0.00125
 C13 C 0.50493 0.43881 0.00305
 C14 C 0.47587 0.59102 -0.00034
 O15 O -0.02529 0.55633 0.49345
 O16 O -0.02409 0.44870 0.50039
 O17 O -0.02351 0.50001 0.55015
 O18 O -0.02606 0.50523 0.44299
 O19 O 0.04383 0.47674 0.45314
 O20 O 0.04633 0.47532 0.56016
 O21 O 0.04579 0.42230 0.51195
 O22 O 0.04442 0.53025 0.50142
 Cu23 Cu -0.03175 0.50521 0.49564
 Cu24 Cu 0.05213 0.47361 0.50759
 C25 C 0.00937 0.56186 0.49645
 C26 C 0.01101 0.41704 0.50765
 C27 C 0.01174 0.48724 0.57349
 C28 C 0.00847 0.49120 0.42979
 O29 O 0.49199 0.02922 0.55067
 O30 O 0.48882 0.02962 0.44372
 O31 O 0.43847 0.02503 0.49295
 O32 O 0.54294 0.03280 0.50142
 O33 O 0.57396 -0.03686 0.51190
 O34 O 0.46988 -0.04457 0.50390
 O35 O 0.52027 -0.04000 0.45455
 O36 O 0.52350 -0.04030 0.56167
 Cu37 Cu 0.48744 0.03615 0.49618
 Cu38 Cu 0.52496 -0.04740 0.50918
 C39 C 0.50805 -0.00555 0.57461
 C40 C 0.50433 -0.00509 0.43083
 C41 C 0.43634 -0.01120 0.49710
 C42 C 0.57631 -0.00076 0.50753
 C43 C 0.49327 -0.00079 0.01287
 C44 C 0.50040 0.02520 -0.01526
 C45 C 0.50005 0.01705 -0.05648
 C46 C 0.50678 0.06419 -0.00712
 C47 C 0.49620 0.00517 0.05472
 C48 C 0.48625 -0.03917 0.00424
 C49 C 0.53677 -0.01034 -0.06782
 C50 C 0.53715 -0.01567 -0.10735
 C51 C 0.50095 0.00677 -0.13629
 C52 C 0.46411 0.03395 -0.12466
 C53 C 0.46371 0.03906 -0.08507
 C54 C 0.54190 0.07142 -0.01773
 C55 C 0.54617 0.10972 -0.01391
 C56 C 0.51536 0.14164 0.00059
 C57 C 0.48067 0.13406 0.01203
 C58 C 0.47622 0.09584 0.00787
 C59 C 0.45944 0.02066 0.07139
 C60 C 0.46242 0.02201 0.11188
 C61 C 0.50223 0.00723 0.13646
 C62 C 0.53901 -0.00745 0.11949
 C63 C 0.53598 -0.00833 0.07888
 C64 C 0.44607 -0.04078 0.00348
 C65 C 0.44048 -0.07857 0.00005
 C66 C 0.47489 -0.11514 -0.00327
 C67 C 0.51483 -0.11315 -0.00365
 C68 C 0.52057 -0.07561 0.00064
 H69 H 0.56538 -0.02681 -0.04621
 H70 H 0.56617 -0.03630 -0.11549
 H71 H 0.43564 0.05134 -0.14623
 H72 H 0.43525 0.06058 -0.07675
 H73 H 0.56581 0.04761 -0.02950
 H74 H 0.57341 0.11456 -0.02265
 H75 H 0.44814 0.09165 0.01501
 H76 H 0.42847 0.03119 0.05316
 H77 H 0.43359 0.03314 0.12423
 H78 H 0.57007 -0.01870 0.13774
 H79 H 0.56463 -0.02067 0.06644
 H80 H 0.41921 -0.01304 0.00631
 H81 H 0.40939 -0.07940 0.00029
 H82 H 0.54191 -0.14113 -0.00566
 H83 H 0.55203 -0.07531 0.00231
 H84 H 0.45608 0.15836 0.02265
 C85 C -0.01999 0.50588 0.98332
 C86 C 0.00821 0.50804 1.01332
 C87 C 0.04883 0.51168 1.00721
 C88 C 0.00081 0.50540 1.05467
 C89 C -0.06092 0.50310 0.98976
 C90 C -0.01126 0.50520 0.94237
 C91 C 0.08668 0.48334 1.03111
 C92 C 0.12479 0.48813 1.02866
 C93 C 0.12599 0.52143 1.00225
 C94 C 0.08837 0.54919 0.97741
 C95 C 0.04997 0.54457 0.98011
 C96 C 0.00181 0.46760 1.07528
 C97 C -0.00056 0.46406 1.11555
 C98 C -0.00461 0.49850 1.13547
 C99 C -0.00691 0.53668 1.11442
 C100 C -0.00368 0.53991 1.07443
 C101 C -0.08968 0.53306 1.00788
 C102 C -0.12878 0.53095 1.01199
 C103 C -0.14021 0.49939 0.99729
 C104 C -0.11152 0.46961 0.97902
 C105 C -0.07228 0.47141 0.97536
 C106 C -0.04041 0.53545 0.91157
 C107 C -0.03475 0.53337 0.87245
 C108 C -0.00006 0.50065 0.86330
 C109 C 0.02963 0.47081 0.89431
 C110 C 0.02399 0.47299 0.93356
 H111 H 0.08665 0.45768 1.05213
 H112 H 0.15341 0.46593 1.04773
 H113 H 0.08844 0.57529 0.95701
 H114 H 0.02105 0.56729 0.96187
 H115 H 0.00579 0.44053 1.06048
 H116 H 0.00127 0.43435 1.13129
 H117 H -0.00411 0.56914 1.05893
 H118 H -0.08224 0.55856 1.01814
 H119 H -0.15061 0.55467 1.02566
 H120 H -0.11942 0.44479 0.96770
 H121 H -0.05074 0.44810 0.96109
 H122 H -0.06782 0.56047 0.91787
 H123 H -0.05775 0.55725 0.84929
 H124 H 0.05639 0.44498 0.88815
 H125 H 0.04641 0.44893 0.95695
 H126 H -0.00958 0.56345 1.12932
 C127 C 0.02539 -0.02860 0.50206
 C128 C -0.00868 0.00692 0.50394
 C129 C -0.05190 0.00698 0.50349
 C130 C -0.00453 0.04798 0.50668
 C131 C 0.06760 -0.02722 0.49939
 C132 C 0.02257 -0.07069 0.50253
 C133 C -0.07061 -0.00885 0.47389
 C134 C -0.11127 -0.00853 0.47416
 C135 C -0.13424 0.00855 0.50345
 C136 C -0.11585 0.02521 0.53246
 C137 C -0.07506 0.02437 0.53250
 C138 C -0.03024 0.08374 0.47889
 C139 C -0.02712 0.12271 0.48119
 C140 C 0.00162 0.12669 0.51151
 C141 C 0.02717 0.09088 0.53952
 C142 C 0.02391 0.05188 0.53729
 C143 C 0.10309 -0.05437 0.52697
 C144 C 0.14302 -0.05368 0.52486
 C145 C 0.14826 -0.02592 0.49498
 C146 C 0.11273 0.00100 0.46711
 C147 C 0.07279 0.00013 0.46912
 C148 C 0.00502 -0.08698 0.53175
 C149 C 0.00227 -0.12642 0.53131
 C150 C 0.01813 -0.15071 0.50236
 C151 C 0.03670 -0.13494 0.47386
 C152 C 0.03877 -0.09524 0.47388
 H153 H -0.05377 -0.02140 0.45062
 H154 H -0.12504 -0.02104 0.45117
 H155 H -0.13281 0.03827 0.55551
 H156 H -0.06134 0.03697 0.55546
 H157 H -0.05245 0.08134 0.45516
 H158 H -0.04684 0.14965 0.45893
 H159 H 0.04339 0.02479 0.55950
 H160 H 0.09974 -0.07579 0.55044
 H161 H 0.16974 -0.07446 0.54696
 H162 H 0.11599 0.02225 0.44344
 H163 H 0.04593 0.02065 0.44701
 H164 H -0.00656 -0.06916 0.55483
 H165 H -0.01165 -0.13829 0.55390
 H166 H 0.04898 -0.15308 0.45118
 H167 H 0.05270 -0.08345 0.45125
 H168 H 0.04916 0.09320 0.56350
 C169 C -0.30618 0.49539 1.00643
 C170 C -0.33010 0.49328 0.97093
 C171 C -0.37147 0.49466 0.97031
 C172 C -0.38940 0.49752 1.00481
 C173 C -0.36496 0.49789 1.04026
 C174 C -0.32399 0.49690 1.04114
 C175 C -0.26300 0.49607 1.00538
 C176 C -0.23794 0.50127 1.03831
 C177 C -0.19823 0.50241 1.03558
 C178 C -0.18231 0.49805 1.00015
 C179 C -0.20698 0.49290 0.96718
 C180 C -0.24724 0.49241 0.96938
 C181 C -0.31271 0.48999 0.93624
 C182 C -0.27201 0.48909 0.93559
 H183 H -0.33085 0.48804 0.90912
 H184 H -0.26000 0.48642 0.90799
 H185 H -0.38983 0.49389 0.94281
 H186 H -0.37786 0.49990 1.06739
 H187 H -0.17968 0.50632 1.06142
 H188 H -0.19520 0.49030 0.93945
 H189 H -0.30697 0.49754 1.06923
 H190 H -0.24851 0.50494 1.06632
 C191 C 0.28907 0.53562 1.00414
 C192 C 0.30281 0.53945 0.96747
 C193 C 0.34395 0.53831 0.96637
 C194 C 0.37209 0.53288 1.00155
 C195 C 0.35749 0.53063 1.03770
 C196 C 0.31675 0.53208 1.03902
 C197 C 0.24603 0.53436 1.00434
 C198 C 0.23048 0.52860 1.03948
 C199 C 0.19130 0.52525 1.03837
 C200 C 0.16629 0.52778 1.00230
 C201 C 0.18071 0.53490 0.96696
 C202 C 0.22055 0.53774 0.96775
 C203 C 0.27573 0.54353 0.93221
 C204 C 0.23546 0.54283 0.93235
 H205 H 0.28602 0.54677 0.90405
 H206 H 0.21600 0.54557 0.90429
 H207 H 0.35432 0.54047 0.93809
 H208 H 0.37784 0.52699 1.06546
 H209 H 0.18051 0.52046 1.06599
 H210 H 0.16161 0.53670 0.93895
 H211 H 0.30795 0.52976 1.06780
 H212 H 0.24820 0.52594 1.06825
 C213 C 0.00817 -0.31457 0.49648
 C214 C 0.04653 -0.34914 0.49677
 C215 C 0.04674 -0.38996 0.49654
 C216 C 0.00893 -0.39704 0.49502
 C217 C -0.02932 -0.36221 0.49294
 C218 C -0.02972 -0.32165 0.49381
 C219 C 0.00961 -0.27186 0.49857
 C220 C -0.02608 -0.23622 0.50196
 C221 C -0.02308 -0.19709 0.50369
 C222 C 0.01539 -0.19246 0.50175
 C223 C 0.05123 -0.22776 0.49893
 C224 C 0.04880 -0.26743 0.49794
 C225 C 0.08443 -0.34277 0.49702
 C226 C 0.08542 -0.30267 0.49697
 H227 H 0.11377 -0.36915 0.49690
 H228 H 0.11547 -0.29933 0.49676
 H229 H 0.07656 -0.41618 0.49749
 H230 H -0.05919 -0.36623 0.49131
 H231 H -0.05108 -0.17014 0.50593
 H232 H 0.08124 -0.22441 0.49819
 H233 H -0.06006 -0.29633 0.49223
 H234 H -0.05648 -0.23791 0.50363
 C235 C 0.01204 0.29096 0.51436
 C236 C -0.02677 0.32662 0.50655
 C237 C -0.02684 0.36751 0.50490
 C238 C 0.01133 0.37375 0.51069
 C239 C 0.04975 0.33839 0.51872
 C240 C 0.05019 0.29754 0.52059
 C241 C 0.01066 0.24787 0.51508
 C242 C 0.04741 0.21032 0.52241
 C243 C 0.04438 0.17106 0.52173
 C244 C 0.00474 0.16819 0.51373
 C245 C -0.03202 0.20526 0.50708
 C246 C -0.02939 0.24487 0.50764
 C247 C -0.06533 0.32138 0.50003
 C248 C -0.06660 0.28139 0.50052
 H249 H -0.09503 0.34868 0.49414
 H250 H -0.09725 0.27905 0.49498
 H251 H -0.05677 0.39457 0.49868
 H252 H 0.07969 0.34226 0.52337
 H253 H 0.07322 0.14289 0.52666
 H254 H -0.06283 0.20325 0.50154
 H255 H 0.08073 0.27171 0.52667
 H256 H 0.07877 0.21050 0.52839
 C257 C 0.50751 -0.00553 -0.30238
 C258 C 0.48944 0.03285 -0.32949
 C259 C 0.49013 0.03263 -0.37004
 C260 C 0.50833 -0.00551 -0.38459
 C261 C 0.52618 -0.04354 -0.35750
 C262 C 0.52586 -0.04360 -0.31707
 C263 C 0.50610 -0.00377 -0.25927
 C264 C 0.52375 -0.03998 -0.22972
 C265 C 0.52183 -0.03652 -0.18998
 C266 C 0.50214 0.00300 -0.17861
 C267 C 0.48435 0.03920 -0.20780
 C268 C 0.48632 0.03616 -0.24779
 C269 C 0.47053 0.07131 -0.31610
 C270 C 0.46891 0.07291 -0.27618
 H271 H 0.45663 0.10070 -0.33685
 H272 H 0.45385 0.10349 -0.26738
 H273 H 0.47604 0.06241 -0.39028
 H274 H 0.54048 -0.07359 -0.36746
 H275 H 0.53553 -0.06497 -0.16804
 H276 H 0.46969 0.07000 -0.19927
 H277 H 0.54000 -0.07384 -0.29793
 H278 H 0.53927 -0.07124 -0.23656
 C279 C 0.50716 -0.00376 0.30618
 C280 C 0.48125 0.03267 0.31997
 C281 C 0.48044 0.03203 0.36059
 C282 C 0.50447 -0.00479 0.38795
 C283 C 0.52925 -0.04116 0.37410
 C284 C 0.53073 -0.04071 0.33385
 C285 C 0.50777 -0.00148 0.26264
 C286 C 0.53421 -0.03513 0.24615
 C287 C 0.53292 -0.03177 0.20535
 C288 C 0.50521 0.00508 0.17988
 C289 C 0.47939 0.03912 0.19600
 C290 C 0.48076 0.03628 0.23705
 C291 C 0.45600 0.06938 0.29314
 C292 C 0.45540 0.07098 0.25256
 H293 H 0.43600 0.09722 0.30365
 H294 H 0.43492 0.09998 0.23303
 H295 H 0.46079 0.06022 0.37087
 H296 H 0.54805 -0.07003 0.39452
 H297 H 0.55299 -0.05854 0.19356
 H298 H 0.45837 0.06796 0.17651
 H299 H 0.55037 -0.06968 0.32508
 H300 H 0.55604 -0.06432 0.26415
 C301 C 0.46566 -0.28030 -0.00157
 C302 C 0.47892 -0.30180 -0.03331
 C303 C 0.48018 -0.34301 -0.03348
 C304 C 0.47028 -0.36417 -0.00153
 C305 C 0.45782 -0.34315 0.03021
 C306 C 0.45513 -0.30162 0.03010
 C307 C 0.46530 -0.23649 -0.00234
 C308 C 0.44999 -0.21123 0.02633
 C309 C 0.45211 -0.17139 0.02524
 C310 C 0.46984 -0.15592 -0.00417
 C311 C 0.48398 -0.18016 -0.03354
 C312 C 0.48121 -0.21989 -0.03321
 C313 C 0.49237 -0.28273 -0.06396
 C314 C 0.49420 -0.24299 -0.06355
 H315 H 0.50274 -0.29927 -0.08816
 H316 H 0.50587 -0.23010 -0.08745
 H317 H 0.49073 -0.35935 -0.05776
 H318 H 0.45032 -0.35896 0.05531
 H319 H 0.44088 -0.15302 0.04810
 H320 H 0.49702 -0.16792 -0.05673
 H321 H 0.44579 -0.28723 0.05551
 H322 H 0.43635 -0.22165 0.04982
 C323 C 0.51816 0.30951 0.00116
 C324 C 0.50949 0.32801 0.03548
 C325 C 0.50695 0.36959 0.03656
 C326 C 0.51164 0.39373 0.00339
 C327 C 0.52029 0.37528 -0.03050
 C328 C 0.52377 0.33374 -0.03161
 C329 C 0.51954 0.26545 0.00081
 C330 C 0.52901 0.24386 -0.03145
 C331 C 0.52832 0.20355 -0.03099
 C332 C 0.51812 0.18359 0.00151
 C333 C 0.50952 0.20439 0.03419
 C334 C 0.51049 0.24488 0.03420
 C335 C 0.50220 0.30536 0.06805
 C336 C 0.50230 0.26489 0.06728
 H337 H 0.49551 0.31947 0.09431
 H338 H 0.49573 0.24906 0.09299
 H339 H 0.49974 0.38371 0.06276
 H340 H 0.52406 0.39318 -0.05650
 H341 H 0.53482 0.18830 -0.05667
 H342 H 0.50223 0.18893 0.05970
 H343 H 0.53003 0.32162 -0.05869
 H344 H 0.53682 0.25753 -0.05743
 C345 C -0.30200 0.00783 0.50759
 C346 C -0.30669 -0.03099 0.50488
 C347 C -0.34621 -0.03369 0.50585
 C348 C -0.38176 0.00203 0.50863
 C349 C -0.37719 0.04057 0.51096
 C350 C -0.33786 0.04348 0.51063
 C351 C -0.25914 0.00927 0.50653
 C352 C -0.25065 0.04582 0.51060
 C353 C -0.21018 0.04547 0.50946
 C354 C -0.17724 0.00888 0.50398
 C355 C -0.18526 -0.02767 0.49989
 C356 C -0.22569 -0.02788 0.50152
 C357 C -0.27213 -0.06676 0.50060
 C358 C -0.23260 -0.06515 0.49863
 H359 H -0.27579 -0.09643 0.49836
 H360 H -0.20695 -0.09363 0.49501
 H361 H -0.34946 -0.06355 0.50353
 H362 H -0.40415 0.06864 0.51300
 H363 H -0.20465 0.07408 0.51256
 H364 H -0.15970 -0.05626 0.49630
 H365 H -0.33640 0.07401 0.51233
 H366 H -0.27464 0.07489 0.51493
 C367 C 0.31513 -0.02200 0.49248
 C368 C 0.31750 0.01833 0.48646
 C369 C 0.35702 0.02168 0.48750
 C370 C 0.39458 -0.01470 0.49455
 C371 C 0.39206 -0.05460 0.49996
 C372 C 0.35298 -0.05829 0.49892
 C373 C 0.27242 -0.02420 0.49219
 C374 C 0.26677 -0.06274 0.49874
 C375 C 0.22649 -0.06310 0.49923
 C376 C 0.19073 -0.02517 0.49307
 C377 C 0.19586 0.01339 0.48592
 C378 C 0.23630 0.01415 0.48562
 C379 C 0.28049 0.05507 0.47979
 C380 C 0.24078 0.05303 0.47932
 H381 H 0.28226 0.08595 0.47506
 H382 H 0.21314 0.08240 0.47425
 H383 H 0.35849 0.05272 0.48317
 H384 H 0.42047 -0.08322 0.50534
 H385 H 0.22326 -0.09326 0.50426
 H386 H 0.16843 0.04289 0.48157
 H387 H 0.35328 -0.08986 0.50347
 H388 H 0.29294 -0.09297 0.50378
 C389 C 0.00510 0.48911 1.30507
 C390 C -0.02878 0.51900 1.31884
 C391 C -0.02772 0.51922 1.35959
 C392 C 0.00749 0.49111 1.38696
 C393 C 0.04170 0.46261 1.37319
 C394 C 0.04051 0.46137 1.33283
 C395 C 0.00229 0.48923 1.26142
 C396 C 0.03242 0.45848 1.24492
 C397 C 0.02925 0.46090 1.20400
 C398 C -0.00377 0.49410 1.17860
 C399 C -0.03471 0.52409 1.19461
 C400 C -0.03232 0.52149 1.23573
 C401 C -0.06303 0.54903 1.29189
 C402 C -0.06436 0.55076 1.25122
 H403 H -0.08883 0.57213 1.30239
 H404 H -0.09110 0.57518 1.23158
 H405 H -0.05398 0.54188 1.36998
 H406 H 0.06929 0.44071 1.39377
 H407 H 0.05337 0.43740 1.19212
 H408 H -0.06070 0.54939 1.17495
 H409 H 0.06780 0.43884 1.32400
 H410 H 0.05864 0.43237 1.26303
 C411 C 0.01271 0.48851 0.69831
 C412 C -0.02564 0.49791 0.67208
 C413 C -0.02556 0.49704 0.63160
 C414 C 0.01231 0.48677 0.61644
 C415 C 0.05040 0.47682 0.64250
 C416 C 0.05069 0.47768 0.68288
 C417 C 0.01098 0.49075 0.74125
 C418 C 0.04708 0.48288 0.76978
 C419 C 0.04355 0.48595 0.80933
 C420 C 0.00402 0.49695 0.82144
 C421 C -0.03198 0.50445 0.79332
 C422 C -0.02888 0.50167 0.75355
 C423 C -0.06397 0.50831 0.68627
 C424 C -0.06553 0.51002 0.72615
 H425 H -0.09329 0.51536 0.66620
 H426 H -0.09601 0.51832 0.73563
 H427 H -0.05521 0.50458 0.61183
 H428 H 0.08012 0.46871 0.63162
 H429 H 0.07176 0.48034 0.83040
 H430 H -0.06259 0.51219 0.80247
 H431 H 0.08092 0.46992 0.70138
 H432 H 0.07824 0.47463 0.76221
   
