data_POSCAR
  _audit_creation_date              2014-09-24
  _audit_creation_method            'ToBaCCo'
  _symmetry_space_group_name_H-M    'P1'
  _symmetry_Int_Tables_number       1
  _symmetry_cell_setting            triclinic
  loop_
  _symmetry_equiv_pos_as_xyz
 x,y,z
_cell_length_a 28.5406
_cell_length_b 27.5592
_cell_length_c 28.4729
_cell_angle_alpha 90.836600
_cell_angle_beta 90.401100
_cell_angle_gamma 90.778000
loop_
  _atom_site_label
  _atom_site_type_symbol
  _atom_site_fract_x
  _atom_site_fract_y
  _atom_site_fract_z
C1 C 0.15086 0.12665 0.20411
 C2 C 0.19174 0.11176 0.18122
 C3 C 0.21023 0.13796 0.14313
 C4 C 0.18634 0.17924 0.12789
 C5 C 0.14390 0.19298 0.14866
 C6 C 0.12666 0.16692 0.18683
 H7 H 0.21020 0.08117 0.19533
 H8 H 0.19934 0.19902 0.09792
 H9 H 0.09345 0.17742 0.20177
 C10 C -0.16567 0.85495 0.20614
 C11 C -0.14314 0.81237 0.19016
 C12 C -0.16311 0.78335 0.15384
 C13 C -0.20652 0.79618 0.13460
 C14 C -0.22958 0.83789 0.15022
 C15 C -0.20854 0.86752 0.18515
 H16 H -0.10969 0.80214 0.20471
 H17 H -0.22218 0.77391 0.10682
 H18 H -0.22580 0.90057 0.19613
 C19 C -0.16527 0.15882 -0.22045
 C20 C -0.21103 0.14471 -0.20804
 C21 C -0.23471 0.16730 -0.17071
 C22 C -0.21174 0.20520 -0.14552
 C23 C -0.16564 0.21904 -0.15625
 C24 C -0.14271 0.19617 -0.19393
 H25 H -0.22848 0.11555 -0.22767
 H26 H -0.22824 0.22269 -0.11581
 H27 H -0.10829 0.20934 -0.20335
 C28 C 0.16819 0.83832 -0.23393
 C29 C 0.14434 0.79946 -0.21288
 C30 C 0.16361 0.77614 -0.17404
 C31 C 0.20673 0.79276 -0.15537
 C32 C 0.23157 0.83140 -0.17589
 C33 C 0.21155 0.85425 -0.21527
 H34 H 0.11047 0.78751 -0.22644
 H35 H 0.22095 0.77554 -0.12449
 H36 H 0.22857 0.88518 -0.23112
 C37 C 0.16551 1.15944 0.77755
 C38 C 0.14540 1.19895 0.80139
 C39 C 0.16994 1.22280 0.83826
 C40 C 0.21485 1.20720 0.85063
 C41 C 0.23489 1.16737 0.82737
 C42 C 0.21012 1.14402 0.79080
 H43 H 0.11150 1.21199 0.79040
 H44 H 0.23307 1.22481 0.87985
 H45 H 0.22544 1.11312 0.77289
 C46 C 0.85645 0.85124 0.79800
 C47 C 0.81161 0.86948 0.80842
 C48 C 0.78799 0.85508 0.84896
 C49 C 0.80817 0.82050 0.87830
 C50 C 0.85149 0.80004 0.86762
 C51 C 0.87586 0.81649 0.82787
 H52 H 0.79586 0.89723 0.78728
 H53 H 0.78918 0.80808 0.90881
 H54 H 0.91063 0.80323 0.82049
 C55 C 0.16783 0.85826 1.21922
 C56 C 0.14614 0.81387 1.20529
 C57 C 0.16617 0.78392 1.17101
 C58 C 0.20773 0.79870 1.14928
 C59 C 0.22979 0.84256 1.16206
 C60 C 0.20960 0.87245 1.19674
 H61 H 0.11283 0.80252 1.21954
 H62 H 0.22255 0.77660 1.12147
 H63 H 0.22621 0.90695 1.20589
 C64 C 0.84634 1.14826 1.20756
 C65 C 0.80574 1.12949 1.18533
 C66 C 0.78209 1.15590 1.15100
 C67 C 0.79983 1.20115 1.13792
 C68 C 0.84082 1.22041 1.15854
 C69 C 0.86372 1.19433 1.19404
 H70 H 0.79152 1.09476 1.19610
 H71 H 0.78207 1.22114 1.11067
 H72 H 0.89625 1.20866 1.20857
 O73 O 0.43261 0.91686 0.90534
 O74 O 0.38164 0.95988 0.95148
 C75 C 0.39062 0.92840 0.91869
 O76 O 0.56485 0.91841 1.07665
 O77 O 0.61573 0.96267 1.03160
 C78 C 0.60686 0.93139 1.06385
 O79 O 0.43248 0.91403 1.07339
 O80 O 0.38172 0.95852 1.02901
 C81 C 0.39061 0.92664 1.06061
 O82 O 0.56517 0.92137 0.90422
 O83 O 0.61532 0.96568 0.95187
 C84 C 0.60694 0.93424 0.91861
 Zr85 Zr 0.49881 0.94319 0.93053
 O86 O 0.50295 0.86656 0.92831
 O87 O 0.49464 0.94517 0.85633
 Zr88 Zr 0.49854 0.93971 1.04941
 O89 O 0.50266 0.86328 1.04233
 O90 O 0.49453 0.93339 1.12322
 O91 O 0.45677 0.93144 0.98926
 O92 O 0.53921 0.93314 0.99011
 O93 O 0.56530 1.09167 0.91185
 O94 O 0.61591 1.04512 0.95433
 C95 C 0.60713 1.07811 0.92374
 O96 O 0.43241 1.08835 1.07760
 O97 O 0.38189 1.04204 1.03212
 C98 C 0.39061 1.07416 1.06472
 O99 O 0.56469 1.08508 1.08288
 O100 O 0.61550 1.04228 1.03652
 C101 C 0.60654 1.07210 1.07072
 O102 O 0.43360 1.09436 0.91532
 O103 O 0.38210 1.04385 0.95322
 C104 C 0.39156 1.07970 0.92582
 Zr105 Zr 0.49918 1.06597 0.93560
 O106 O 0.50444 1.14263 0.93668
 O107 O 0.49410 1.06569 0.86135
 Zr108 Zr 0.49861 1.06310 1.05425
 O109 O 0.50419 1.13982 1.05520
 O110 O 0.49329 1.06296 1.12836
 Zr111 Zr 0.42924 1.00202 0.99189
 Zr112 Zr 0.56797 1.00385 0.99334
 O113 O 0.53963 1.07385 0.99581
 O114 O 0.45704 1.07335 0.99488
 O115 O 0.54077 1.00535 0.92440
 O116 O 0.45831 1.00074 1.06006
 O117 O 0.45832 1.00440 0.92419
 O118 O 0.53995 1.00165 1.06159
 H119 H 0.56050 0.90505 0.98936
 H120 H 0.43763 1.00016 1.08785
 H121 H 0.56120 1.10231 0.99739
 H122 H 0.43712 1.00512 0.89651
 H123 H 0.51527 0.95890 1.13705
 H124 H 0.51760 1.04098 1.14030
 H125 H 0.47568 1.15253 1.04004
 H126 H 0.48181 1.15461 0.96013
 H127 H 0.52258 1.05016 0.84889
 H128 H 0.52041 0.96650 0.84552
 H129 H 0.47643 0.85362 0.94671
 H130 H 0.47245 0.85130 1.02906
 O131 O 0.09122 0.43617 -0.08212
 O132 O 0.04886 0.38108 -0.03948
 C133 C 0.07965 0.39215 -0.07095
 O134 O 0.09092 0.57285 0.08656
 O135 O 0.04405 0.62417 0.04502
 C136 C 0.07656 0.61581 0.07563
 O137 O 0.10130 0.43769 0.07768
 O138 O 0.05381 0.38165 0.03964
 C139 C 0.08912 0.39347 0.06668
 O140 O 0.08506 0.57238 -0.08243
 O141 O 0.04212 0.62405 -0.03619
 C142 C 0.07224 0.61551 -0.06910
 Zr143 Zr 0.06466 0.50335 -0.05725
 O144 O 0.13869 0.50974 -0.05838
 O145 O 0.06217 0.50667 -0.13158
 Zr146 Zr 0.06814 0.50350 0.06150
 O147 O 0.14173 0.51109 0.06711
 O148 O 0.06528 0.49706 0.13550
 O149 O 0.07674 0.46069 0.00115
 O150 O 0.07400 0.54582 0.00251
 O151 O -0.07443 0.56449 -0.08343
 O152 O -0.03557 0.61986 -0.03597
 C153 C -0.06345 0.60851 -0.07068
 O154 O -0.07178 0.42878 0.08843
 O155 O -0.02849 0.37751 0.04199
 C156 C -0.05891 0.38576 0.07461
 O157 O -0.07326 0.56582 0.09236
 O158 O -0.03337 0.62092 0.04726
 C159 C -0.06245 0.60996 0.08049
 O160 O -0.07960 0.42964 -0.07682
 O161 O -0.03189 0.37777 -0.03695
 C162 C -0.06574 0.38654 -0.06624
 Zr163 Zr -0.05377 0.49826 -0.05384
 O164 O -0.12763 0.50238 -0.04901
 O165 O -0.05870 0.49246 -0.12785
 Zr166 Zr -0.04993 0.49835 0.06455
 O167 O -0.12410 0.49959 0.06435
 O168 O -0.04854 0.49421 0.13870
 Zr169 Zr 0.00925 0.42839 0.00250
 Zr170 Zr 0.00551 0.57309 0.00472
 O171 O -0.06151 0.54049 0.00599
 O172 O -0.05986 0.45441 0.00495
 O173 O 0.00415 0.54372 -0.06400
 O174 O 0.01080 0.45848 0.07090
 O175 O 0.00615 0.45862 -0.06483
 O176 O 0.00833 0.54431 0.07290
 H177 H 0.10113 0.56861 0.00212
 H178 H 0.01312 0.43624 0.09783
 H179 H -0.08912 0.56191 0.00637
 H180 H 0.00516 0.43656 -0.09258
 H181 H 0.05444 0.52835 0.14865
 H182 H -0.02698 0.52010 0.15047
 H183 H -0.13552 0.46930 0.04882
 H184 H -0.13880 0.47313 -0.03251
 H185 H -0.03069 0.50913 -0.14051
 H186 H 0.04842 0.47602 -0.14424
 H187 H 0.15163 0.48190 -0.04122
 H188 H 0.15411 0.50730 0.03500
 O189 O 1.07167 -0.08378 0.57098
 O190 O 1.02951 -0.03568 0.62123
 C191 C 1.05985 -0.06923 0.61282
 O192 O 1.07686 0.09201 0.43897
 O193 O 1.03688 0.04339 0.38579
 C194 C 1.06580 0.07856 0.39643
 O195 O 1.08025 0.08714 0.57038
 O196 O 1.03228 0.04573 0.62079
 C197 C 1.06600 0.07627 0.61214
 O198 O 1.06756 -0.09232 0.43952
 O199 O 1.03368 -0.04210 0.38564
 C200 C 1.05917 -0.07892 0.39684
 Zr201 Zr 1.04998 -0.05885 0.50413
 O202 O 1.12405 -0.05431 0.50059
 O203 O 1.05543 -0.13518 0.50687
 Zr204 Zr 1.05509 0.06283 0.50386
 O205 O 1.12887 0.05696 0.49990
 O206 O 1.06167 0.13928 0.50936
 O207 O 1.06067 0.00242 0.54655
 O208 O 1.06203 0.00098 0.46272
 O209 O 0.91344 -0.08732 0.43415
 O210 O 0.95557 -0.04053 0.38303
 C211 C 0.92661 -0.07583 0.39222
 O212 O 0.91088 0.09257 0.56593
 O213 O 0.95245 0.04767 0.61868
 C214 C 0.92218 0.08055 0.60846
 O215 O 0.92413 0.09980 0.43505
 O216 O 0.95987 0.04760 0.38340
 C217 C 0.93525 0.08580 0.39295
 O218 O 0.90026 -0.07446 0.56424
 O219 O 0.94714 -0.03356 0.61788
 C220 C 0.91214 -0.06220 0.60683
 Zr221 Zr 0.93141 -0.05525 0.49989
 O222 O 0.85800 -0.05153 0.48965
 O223 O 0.92624 -0.13151 0.50671
 Zr224 Zr 0.93622 0.06631 0.50019
 O225 O 0.86265 0.06114 0.49048
 O226 O 0.92952 0.14249 0.50451
 Zr227 Zr 0.99155 0.00496 0.57210
 Zr228 Zr 0.99494 0.00265 0.43157
 O229 O 0.92635 0.00523 0.45797
 O230 O 0.92377 0.00657 0.54198
 O231 O 0.99140 -0.06733 0.46065
 O232 O 0.99509 0.07443 0.54249
 O233 O 0.98908 -0.06553 0.54286
 O234 O 0.99715 0.07350 0.46085
 H235 H 1.08943 -0.00019 0.44155
 H236 H 0.99591 0.10358 0.56326
 H237 H 0.90045 0.00577 0.43460
 H238 H 0.98669 -0.09339 0.56433
 H239 H 1.03810 0.15307 0.48789
 H240 H 0.96166 0.15615 0.50647
 H241 H 0.84852 0.05457 0.52142
 H242 H 0.84542 -0.03063 0.51498
 H243 H 0.95022 -0.14589 0.48600
 H244 H 1.02421 -0.14808 0.51533
 H245 H 1.13597 -0.04440 0.53206
 H246 H 1.13975 0.04130 0.52899
 C247 C 1.13500 0.09995 0.24276
 C248 C 1.10690 0.11787 0.27601
 C249 C 1.09132 0.08751 0.31500
 C250 C 1.08589 0.10663 0.35790
 H251 H 1.09719 0.15572 0.27647
 H252 H 1.08452 0.04918 0.30851
 H253 H 1.14870 0.06380 0.24770
 H254 H 1.09612 0.14409 0.36489
 C255 C 0.85321 -0.11384 0.24145
 C256 C 0.88591 -0.12646 0.27285
 C257 C 0.90215 -0.09195 0.30982
 C258 C 0.90916 -0.10732 0.35353
 H259 H 0.89823 -0.16336 0.27441
 H260 H 0.90661 -0.05387 0.30169
 H261 H 0.83815 -0.07808 0.24554
 H262 H 0.90066 -0.14470 0.36179
 C263 C 0.85550 0.13532 0.74068
 C264 C 0.90112 0.13832 0.72970
 C265 C 0.92110 0.11125 0.68970
 C266 C 0.89987 0.10672 0.64767
 H267 H 0.92605 0.15682 0.75263
 H268 H 0.95604 0.09726 0.69444
 H269 H 0.83345 0.11133 0.71925
 H270 H 0.86688 0.12455 0.64128
 C271 C 1.14737 -0.13608 0.72571
 C272 C 1.12368 -0.15970 0.69135
 C273 C 1.10316 -0.13514 0.65046
 C274 C 1.08200 -0.09213 0.65373
 H275 H 1.12172 -0.19897 0.69132
 H276 H 1.10246 -0.15508 0.61738
 H277 H 1.15377 -0.09737 0.72303
 H278 H 1.07909 -0.07411 0.68765
 C279 C 0.25151 1.12428 1.11970
 C280 C 0.27090 1.08036 1.12316
 C281 C 0.31187 1.06568 1.09575
 C282 C 0.35013 1.09366 1.09010
 H283 H 0.25372 1.05148 1.14195
 H284 H 0.31175 1.02843 1.08296
 H285 H 0.26692 1.14959 1.09518
 H286 H 0.35284 1.12912 1.10691
 C287 C 0.27447 0.84655 0.84497
 C288 C 0.30633 0.87597 0.82497
 C289 C 0.34959 0.89248 0.84972
 C290 C 0.34974 0.90536 0.89525
 H291 H 0.30266 0.88664 0.78878
 H292 H 0.38055 0.89908 0.82883
 H293 H 0.28313 0.83207 0.87914
 H294 H 0.31735 0.90370 0.91485
 C295 C 0.72583 0.85161 1.12745
 C296 C 0.69035 0.87156 1.15128
 C297 C 0.64709 0.88845 1.12811
 C298 C 0.64806 0.90958 1.08612
 H299 H 0.69238 0.87475 1.18920
 H300 H 0.61487 0.88769 1.14798
 H301 H 0.72171 0.84373 1.09024
 H302 H 0.68129 0.91427 1.06843
 C303 C 0.72079 1.14900 0.84172
 C304 C 0.69078 1.17140 0.87072
 C305 C 0.64755 1.14720 0.88698
 C306 C 0.64791 1.10138 0.90186
 H307 H 0.69651 1.20860 0.88208
 H308 H 0.61658 1.16899 0.89173
 H309 H 0.70977 1.11428 0.82657
 H310 H 0.68044 1.08153 0.90169
 C311 C 0.11492 0.23192 0.12892
 C312 C 0.13320 0.27214 0.11047
 C313 C 0.10265 0.30950 0.09087
 C314 C 0.11844 0.35486 0.08569
 H315 H 0.17079 0.27832 0.11106
 H316 H 0.06663 0.30013 0.08185
 H317 H 0.07714 0.22809 0.13129
 H318 H 0.15360 0.36456 0.09747
 C319 C -0.14295 0.25875 -0.12831
 C320 C -0.09676 0.26067 -0.11901
 C321 C -0.07391 0.30047 -0.09143
 C322 C -0.09027 0.34581 -0.09032
 H323 H -0.07476 0.23104 -0.13022
 H324 H -0.04084 0.29273 -0.07444
 H325 H -0.16562 0.28572 -0.11285
 H326 H -0.12139 0.35450 -0.11030
 C327 C 0.13750 0.73528 -0.15275
 C328 C 0.15926 0.69661 -0.13534
 C329 C 0.13441 0.65452 -0.11519
 C330 C 0.09389 0.65786 -0.09190
 H331 H 0.19693 0.69392 -0.13848
 H332 H 0.15232 0.62013 -0.11670
 H333 H 0.09957 0.73569 -0.15430
 H334 H 0.07775 0.69287 -0.08678
 C335 C -0.13971 0.73944 0.13497
 C336 C -0.09315 0.73694 0.12936
 C337 C -0.06996 0.69588 0.10514
 C338 C -0.08583 0.64983 0.10607
 H339 H -0.07131 0.76812 0.13856
 H340 H -0.03749 0.70407 0.08725
 H341 H -0.16192 0.71039 0.12103
 H342 H -0.11619 0.64073 0.12694
 C343 C 1.14184 0.13428 0.73772
 C344 C 1.09530 0.12805 0.73480
 C345 C 1.07244 0.10142 0.69538
 C346 C 1.08968 0.10131 0.65173
 H347 H 1.07328 0.14004 0.76340
 H348 H 1.03928 0.08352 0.70232
 H349 H 1.16396 0.11752 0.71150
 H350 H 1.12102 0.12221 0.64399
 C351 C 0.88371 -0.13204 0.76030
 C352 C 0.86721 -0.10636 0.72437
 C353 C 0.89884 -0.08867 0.68767
 C354 C 0.88257 -0.08123 0.64442
 H355 H 0.83016 -0.09977 0.72018
 H356 H 0.93566 -0.08265 0.69580
 H357 H 0.92045 -0.14172 0.75952
 H358 H 0.84649 -0.09070 0.63581
 C359 C 1.14855 -0.11075 0.25377
 C360 C 1.11549 -0.12472 0.28424
 C361 C 1.09646 -0.09131 0.31990
 C362 C 1.07869 -0.10931 0.35935
 H363 H 1.10374 -0.16211 0.28560
 H364 H 1.09802 -0.05245 0.31459
 H365 H 1.16275 -0.07415 0.25746
 H366 H 1.08085 -0.14792 0.36573
 C367 C 0.86795 0.11927 0.24159
 C368 C 0.89887 0.13533 0.27393
 C369 C 0.91596 0.10209 0.31013
 C370 C 0.92054 0.11743 0.35456
 H371 H 0.90814 0.17344 0.27713
 H372 H 0.92148 0.06426 0.30103
 H373 H 0.85633 0.08169 0.24397
 H374 H 0.91128 0.15442 0.36364
 C375 C 0.14991 0.26430 -0.13570
 C376 C 0.10408 0.26750 -0.12658
 C377 C 0.08391 0.30750 -0.09866
 C378 C 0.10230 0.35251 -0.09694
 H379 H 0.08047 0.23822 -0.13723
 H380 H 0.05104 0.29995 -0.08124
 H381 H 0.17416 0.29094 -0.12072
 H382 H 0.13297 0.36146 -0.11742
 C383 C -0.13943 0.26549 0.13860
 C384 C -0.11460 0.29881 0.16321
 C385 C -0.09576 0.34318 0.14103
 C386 C -0.07942 0.34276 0.09699
 H387 H -0.11010 0.29509 0.20076
 H388 H -0.09269 0.37593 0.16239
 H389 H -0.14772 0.27246 0.10212
 H390 H -0.07819 0.30881 0.07739
 C391 C -0.13097 0.76423 -0.10260
 C392 C -0.09974 0.73122 -0.11605
 C393 C -0.08510 0.69311 -0.08394
 C394 C -0.08175 0.64753 -0.09967
 H395 H -0.08795 0.72889 -0.15206
 H396 H -0.07809 0.70221 -0.04737
 H397 H -0.14643 0.76045 -0.06808
 H398 H -0.09236 0.63851 -0.13543
 C399 C 0.14123 0.73902 0.15594
 C400 C 0.16370 0.69927 0.14134
 C401 C 0.13908 0.65578 0.12254
 C402 C 0.09885 0.65840 0.09831
 H403 H 0.20152 0.69780 0.14402
 H404 H 0.15680 0.62142 0.12528
 H405 H 0.10333 0.73850 0.15800
 H406 H 0.08305 0.69330 0.09227
 C407 C 0.27930 1.14617 0.84329
 C408 C 0.31352 1.17164 0.86510
 C409 C 0.35494 1.14770 0.88476
 C410 C 0.35142 1.10436 0.90518
 H411 H 0.31199 1.21080 0.86774
 H412 H 0.38801 1.16746 0.88508
 H413 H 0.28393 1.10771 0.83661
 H414 H 0.31741 1.08679 0.90844
 C415 C 0.27229 0.85712 1.13625
 C416 C 0.30852 0.88088 1.15644
 C417 C 0.35102 0.89483 1.13020
 C418 C 0.34991 0.90568 1.08450
 H419 H 0.30817 0.88867 1.19383
 H420 H 0.38312 0.90059 1.15017
 H421 H 0.27489 0.84488 1.10004
 H422 H 0.31690 0.90513 1.06550
 C423 C 0.73850 1.13734 1.12852
 C424 C 0.73036 1.08995 1.12083
 C425 C 0.68854 1.07113 1.09585
 C426 C 0.64661 1.09243 1.09739
 H427 H 0.75698 1.06384 1.12936
 H428 H 0.69243 1.03704 1.07691
 H429 H 0.71405 1.16361 1.11516
 H430 H 0.64123 1.12423 1.11939
 C431 C 0.74272 0.87742 0.86099
 C432 C 0.73175 0.88712 0.90570
 C433 C 0.68915 0.91196 0.92073
 C434 C 0.64793 0.91049 0.89769
 H435 H 0.75697 0.88000 0.93327
 H436 H 0.69170 0.92982 0.95483
 H437 H 0.72006 0.88922 0.83282
 H438 H 0.64364 0.88962 0.86540
   
