data_POSCAR
  _audit_creation_date              2014-09-24
  _audit_creation_method            'ToBaCCo'
  _symmetry_space_group_name_H-M    'P1'
  _symmetry_Int_Tables_number       1
  _symmetry_cell_setting            triclinic
  loop_
  _symmetry_equiv_pos_as_xyz
 x,y,z
_cell_length_a 29.5198
_cell_length_b 36.8993
_cell_length_c 20.6316
_cell_angle_alpha 89.955700
_cell_angle_beta 90.033100
_cell_angle_gamma 90.004100
loop_
  _atom_site_label
  _atom_site_type_symbol
  _atom_site_fract_x
  _atom_site_fract_y
  _atom_site_fract_z
O1 O 0.24262 0.29230 0.16813
 O2 O 0.30628 0.21368 0.22913
 O3 O 0.23353 0.22264 0.15772
 O4 O 0.31299 0.28388 0.24139
 O5 O 0.26838 0.28356 0.32719
 O6 O 0.19261 0.21865 0.24667
 O7 O 0.26407 0.21320 0.31752
 O8 O 0.19727 0.28958 0.25312
 Cu9 Cu 0.27826 0.25312 0.19037
 Cu10 Cu 0.22619 0.25119 0.29485
 C11 C 0.20932 0.30448 0.20029
 C12 C 0.29591 0.19998 0.28361
 C13 C 0.19956 0.20989 0.18798
 C14 C 0.30387 0.29449 0.29846
 O15 O 0.81911 0.28642 0.26044
 O16 O 0.75095 0.21813 0.34532
 O17 O 0.81773 0.21665 0.26358
 O18 O 0.75083 0.28926 0.33934
 O19 O 0.70295 0.28783 0.25716
 O20 O 0.76905 0.21431 0.18266
 O21 O 0.70279 0.21682 0.26451
 O22 O 0.77162 0.28468 0.17781
 Cu23 Cu 0.78917 0.25280 0.31072
 Cu24 Cu 0.73158 0.25089 0.21251
 C25 C 0.80753 0.29671 0.20416
 C26 C 0.71595 0.20470 0.31916
 C27 C 0.80457 0.20269 0.21057
 C28 C 0.71612 0.30153 0.31032
 O29 O 0.79669 0.71617 0.77046
 O30 O 0.73005 0.78570 0.68499
 O31 O 0.79832 0.78729 0.76452
 O32 O 0.72824 0.71587 0.69085
 O33 O 0.68238 0.71724 0.77552
 O34 O 0.75040 0.79101 0.84548
 O35 O 0.68189 0.78729 0.76679
 O36 O 0.75073 0.72017 0.85441
 Cu37 Cu 0.76837 0.75095 0.71969
 Cu38 Cu 0.71188 0.75425 0.81916
 C39 C 0.78454 0.70578 0.82652
 C40 C 0.69401 0.79775 0.71076
 C41 C 0.78551 0.80253 0.81667
 C42 C 0.69336 0.70454 0.72059
 O43 O 0.18716 0.78645 0.72823
 O44 O 0.25746 0.71651 0.65104
 O45 O 0.18805 0.71611 0.72729
 O46 O 0.25681 0.78777 0.65156
 O47 O 0.30421 0.78628 0.73434
 O48 O 0.23006 0.72019 0.81532
 O49 O 0.30074 0.71455 0.73818
 O50 O 0.23509 0.78920 0.81040
 Cu51 Cu 0.21813 0.75170 0.68064
 Cu52 Cu 0.27271 0.75223 0.78261
 C53 C 0.19911 0.79975 0.78239
 C54 C 0.28985 0.70243 0.68267
 C55 C 0.19606 0.70712 0.78566
 C56 C 0.29166 0.79974 0.68062
 C57 C 0.97928 0.00457 -0.01458
 C58 C 1.02559 0.00449 -0.01187
 C59 C 1.05209 0.03368 0.02120
 C60 C 1.05202 -0.02482 -0.04363
 C61 C 0.95342 -0.02662 -0.04141
 C62 C 0.95154 0.03465 0.01231
 C63 C 1.09080 0.04808 -0.00891
 C64 C 1.11401 0.07721 0.01876
 C65 C 1.09763 0.09392 0.07531
 C66 C 1.06069 0.07803 0.10763
 C67 C 1.03918 0.04751 0.08199
 C68 C 1.04591 -0.03274 -0.10968
 C69 C 1.06914 -0.06159 -0.13817
 C70 C 1.09902 -0.08270 -0.10113
 C71 C 1.10654 -0.07392 -0.03588
 C72 C 1.08318 -0.04516 -0.00730
 C73 C 0.95992 -0.06196 -0.01748
 C74 C 0.93334 -0.09058 -0.04042
 C75 C 0.89946 -0.08407 -0.08657
 C76 C 0.89312 -0.04895 -0.11084
 C77 C 0.91986 -0.02042 -0.08834
 C78 C 0.91748 0.02665 0.05756
 C79 C 0.89404 0.05447 0.08850
 C80 C 0.90476 0.09082 0.07563
 C81 C 0.93664 0.09894 0.02725
 C82 C 0.95957 0.07100 -0.00476
 H83 H 1.10265 0.03726 -0.05464
 H84 H 1.14401 0.08746 -0.00523
 H85 H 1.04795 0.08949 0.15234
 H86 H 1.01133 0.03560 0.10861
 H87 H 1.02272 -0.01685 -0.13884
 H88 H 1.06356 -0.06772 -0.18888
 H89 H 1.08862 -0.03923 0.04352
 H90 H 0.98488 -0.06720 0.01983
 H91 H 0.93833 -0.11757 -0.02102
 H92 H 0.86693 -0.04361 -0.14637
 H93 H 0.91409 0.00663 -0.10701
 H94 H 0.91012 -0.00116 0.07065
 H95 H 0.86850 0.04768 0.12418
 H96 H 0.94463 0.12684 0.01562
 H97 H 0.98482 0.07771 -0.04088
 H98 H 1.12985 -0.08979 -0.00689
 C99 C 0.47934 0.49729 0.50768
 C100 C 0.52541 0.49791 0.51186
 C101 C 0.54981 0.52786 0.54509
 C102 C 0.55374 0.46932 0.48143
 C103 C 0.45480 0.46627 0.47826
 C104 C 0.45112 0.52785 0.53129
 C105 C 0.58427 0.54656 0.51229
 C106 C 0.60601 0.57589 0.54155
 C107 C 0.59334 0.58723 0.60388
 C108 C 0.56022 0.56764 0.63785
 C109 C 0.53878 0.53803 0.60881
 C110 C 0.54961 0.46127 0.41511
 C111 C 0.57668 0.43451 0.38698
 C112 C 0.60882 0.41592 0.42445
 C113 C 0.61301 0.42393 0.49065
 C114 C 0.58586 0.45062 0.51884
 C115 C 0.46110 0.43078 0.50132
 C116 C 0.43854 0.40178 0.47202
 C117 C 0.40946 0.40788 0.41927
 C118 C 0.40228 0.44342 0.39739
 C119 C 0.42472 0.47240 0.42672
 C120 C 0.41755 0.52140 0.57797
 C121 C 0.39078 0.54983 0.60080
 C122 C 0.39647 0.58504 0.57624
 C123 C 0.43018 0.59158 0.52973
 C124 C 0.45715 0.56313 0.50708
 H125 H 0.59372 0.53888 0.46347
 H126 H 0.63230 0.59013 0.51524
 H127 H 0.55058 0.57560 0.68644
 H128 H 0.51318 0.52334 0.63569
 H129 H 0.52562 0.47585 0.38515
 H130 H 0.57307 0.42863 0.33581
 H131 H 0.58964 0.45654 0.56997
 H132 H 0.48348 0.42561 0.54189
 H133 H 0.44370 0.37459 0.49039
 H134 H 0.37951 0.44865 0.35726
 H135 H 0.41919 0.49959 0.40857
 H136 H 0.41248 0.49439 0.59725
 H137 H 0.36537 0.54440 0.63739
 H138 H 0.43518 0.61860 0.51050
 H139 H 0.48260 0.56854 0.47055
 H140 H 0.63748 0.40962 0.52028
 C141 C 0.02447 0.50435 -0.00245
 C142 C -0.02166 0.50397 0.00223
 C143 C -0.04612 0.47236 0.02969
 C144 C -0.05037 0.53473 -0.01926
 C145 C 0.04957 0.53398 -0.03642
 C146 C 0.05205 0.47544 0.02892
 C147 C -0.04056 0.43760 0.00317
 C148 C -0.06326 0.40798 0.03006
 C149 C -0.09164 0.41274 0.08394
 C150 C -0.09819 0.44760 0.10925
 C151 C -0.07566 0.47723 0.08222
 C152 C -0.08549 0.52843 -0.06367
 C153 C -0.11308 0.55686 -0.08429
 C154 C -0.10667 0.59195 -0.05980
 C155 C -0.07150 0.59839 -0.01546
 C156 C -0.04370 0.56989 0.00509
 C157 C 0.08942 0.54810 -0.00896
 C158 C 0.11224 0.57683 -0.03854
 C159 C 0.09468 0.59319 -0.09472
 C160 C 0.05623 0.57791 -0.12410
 C161 C 0.03457 0.54809 -0.09610
 C162 C 0.04745 0.46805 0.09547
 C163 C 0.07341 0.44091 0.12469
 C164 C 0.10500 0.42128 0.08815
 C165 C 0.10975 0.42866 0.02173
 C166 C 0.08362 0.45568 -0.00760
 H167 H -0.01862 0.43348 -0.03824
 H168 H -0.05855 0.38132 0.00921
 H169 H -0.12036 0.45176 0.15040
 H170 H -0.08065 0.50390 0.10291
 H171 H -0.09113 0.50152 -0.08301
 H172 H -0.13957 0.55152 -0.11937
 H173 H -0.01706 0.57517 0.03994
 H174 H 0.10261 0.53725 0.03604
 H175 H 0.14305 0.58697 -0.01653
 H176 H 0.04262 0.58928 -0.16842
 H177 H 0.00558 0.53651 -0.12060
 H178 H 0.02387 0.48341 0.12477
 H179 H 0.06939 0.43557 0.17600
 H180 H 0.13386 0.41358 -0.00718
 H181 H 0.08776 0.46107 -0.05887
 H182 H -0.06590 0.62537 0.00357
 C183 C 0.52587 1.00154 0.49246
 C184 C 0.47982 1.00081 0.48842
 C185 C 0.45285 0.97078 0.51702
 C186 C 0.45380 1.02991 0.45554
 C187 C 0.55299 1.03291 0.46927
 C188 C 0.55142 0.97082 0.52115
 C189 C 0.42211 0.95159 0.47807
 C190 C 0.39589 0.92376 0.50450
 C191 C 0.39968 0.91499 0.57045
 C192 C 0.43063 0.93389 0.60940
 C193 C 0.45675 0.96183 0.58302
 C194 C 0.46198 1.03885 0.39037
 C195 C 0.43601 1.06554 0.35968
 C196 C 0.40127 1.08329 0.39354
 C197 C 0.39369 1.07474 0.45893
 C198 C 0.41943 1.04801 0.48946
 C199 C 0.54346 1.06842 0.48998
 C200 C 0.56981 1.09749 0.46820
 C201 C 0.60649 1.09129 0.42658
 C202 C 0.61635 1.05591 0.40640
 C203 C 0.58985 1.02693 0.42766
 C204 C 0.57952 0.97679 0.57494
 C205 C 0.60165 0.94778 0.60475
 C206 C 0.59612 0.91244 0.58100
 C207 C 0.56955 0.90665 0.52552
 C208 C 0.54727 0.93565 0.49582
 H209 H 0.41853 0.95814 0.42714
 H210 H 0.37223 0.90930 0.47381
 H211 H 0.43384 0.92746 0.66043
 H212 H 0.47969 0.97671 0.61415
 H213 H 0.48804 1.02487 0.36322
 H214 H 0.44245 1.07193 0.30927
 H215 H 0.41269 1.04151 0.53975
 H216 H 0.51592 1.07357 0.52335
 H217 H 0.56207 1.12469 0.48447
 H218 H 0.64468 1.05080 0.37434
 H219 H 0.59798 0.99979 0.41145
 H220 H 0.58337 1.00379 0.59476
 H221 H 0.62251 0.95276 0.64703
 H222 H 0.56571 0.87963 0.50579
 H223 H 0.52639 0.93068 0.45357
 H224 H 0.36745 1.08855 0.48604
 C225 C 1.12877 0.12819 0.16887
 C226 C 1.15209 0.15704 0.19640
 C227 C 1.17050 0.18475 0.15783
 C228 C 1.15970 0.18546 0.09047
 C229 C 1.13332 0.15697 0.06311
 C230 C 1.12013 0.12694 0.10212
 C231 C 1.11921 0.16041 -0.00186
 N232 N 1.13201 0.18951 -0.03746
 N233 N 1.15708 0.21591 -0.01226
 C234 C 1.17093 0.21514 0.05034
 H235 H 1.11850 0.10609 0.20015
 H236 H 1.15846 0.15611 0.24809
 H237 H 1.09692 0.14094 -0.02437
 H238 H 1.18884 0.23855 0.06825
 C239 C 0.63873 0.61406 0.69267
 C240 C 0.66296 0.64236 0.72084
 C241 C 0.66518 0.67628 0.69067
 C242 C 0.64082 0.68242 0.63258
 C243 C 0.61539 0.65384 0.60453
 C244 C 0.61559 0.61905 0.63398
 C245 C 0.58973 0.66137 0.54860
 N246 N 0.59058 0.69500 0.52207
 N247 N 0.61506 0.72166 0.54786
 C248 C 0.64013 0.71656 0.60218
 H249 H 0.63893 0.58777 0.71609
 H250 H 0.68118 0.63746 0.76560
 H251 H 0.56843 0.64109 0.52625
 H252 H 0.65879 0.73934 0.62144
 C253 C -0.16271 0.38124 0.11221
 C254 C -0.18699 0.35289 0.13997
 C255 C -0.16460 0.32391 0.16994
 C256 C -0.11648 0.32290 0.16973
 C257 C -0.09176 0.35218 0.14252
 C258 C -0.11529 0.38146 0.11336
 C259 C -0.04415 0.35139 0.14645
 N260 N -0.02294 0.32233 0.17284
 N261 N -0.04605 0.29412 0.19575
 C262 C -0.09197 0.29333 0.19494
 H263 H -0.18112 0.40341 0.08996
 H264 H -0.22367 0.35412 0.13962
 H265 H -0.02353 0.37357 0.12908
 H266 H -0.10864 0.26933 0.21312
 C267 C 0.39080 0.85475 0.62161
 C268 C 0.36471 0.82694 0.64799
 C269 C 0.31751 0.83017 0.65239
 C270 C 0.29632 0.86278 0.63188
 C271 C 0.32292 0.89102 0.60481
 C272 C 0.37044 0.88663 0.59902
 C273 C 0.30113 0.92334 0.58625
 N274 N 0.25582 0.92699 0.59447
 N275 N 0.23089 0.90068 0.62046
 C276 C 0.24952 0.86887 0.63976
 H277 H 0.42717 0.85124 0.61813
 H278 H 0.38147 0.80246 0.66438
 H279 H 0.31969 0.94597 0.56619
 H280 H 0.22755 0.84910 0.66208
 C281 C -0.11593 0.65062 -0.11624
 C282 C -0.14230 0.67753 -0.14482
 C283 C -0.18970 0.67664 -0.14063
 C284 C -0.21093 0.64783 -0.10632
 C285 C -0.18387 0.62094 -0.07585
 C286 C -0.13608 0.62192 -0.08253
 C287 C -0.20566 0.59374 -0.03956
 N288 N -0.25149 0.59252 -0.03698
 N289 N -0.27698 0.61664 -0.06814
 C290 C -0.25839 0.64407 -0.10289
 H291 H -0.07946 0.65169 -0.12195
 H292 H -0.12548 0.69921 -0.17084
 H293 H -0.18673 0.57352 -0.01296
 H294 H -0.28114 0.66212 -0.12801
 C295 C 0.39406 1.14214 0.33668
 C296 C 0.36859 1.17032 0.31026
 C297 C 0.32124 1.16829 0.30800
 C298 C 0.29923 1.13631 0.32960
 C299 C 0.32519 1.10747 0.35586
 C300 C 0.37290 1.11099 0.36105
 C301 C 0.30248 1.07561 0.37470
 N302 N 0.25688 1.07319 0.36830
 N303 N 0.23249 1.10030 0.34387
 C304 C 0.25206 1.13165 0.32411
 H305 H 0.43052 1.14508 0.33976
 H306 H 0.38592 1.19441 0.29328
 H307 H 0.32053 1.05237 0.39343
 H308 H 0.23060 1.15228 0.30337
 C309 C 1.16976 -0.11204 -0.13731
 C310 C 1.19381 -0.14046 -0.16517
 C311 C 1.17149 -0.17163 -0.18713
 C312 C 1.12390 -0.17464 -0.17900
 C313 C 1.09936 -0.14554 -0.15087
 C314 C 1.12264 -0.11391 -0.13059
 C315 C 1.05233 -0.14956 -0.14220
 N316 N 1.03155 -0.18068 -0.16046
 N317 N 1.05460 -0.20813 -0.18624
 C318 C 1.09998 -0.20628 -0.19582
 H319 H 1.18799 -0.08814 -0.12148
 H320 H 1.23019 -0.13786 -0.17057
 H321 H 1.03196 -0.12851 -0.12035
 H322 H 1.11683 -0.22984 -0.21536
 C323 C 0.61745 0.35669 0.36992
 C324 C 0.64334 0.32916 0.34241
 C325 C 0.69059 0.33211 0.33860
 C326 C 0.71204 0.36424 0.36081
 C327 C 0.68561 0.39223 0.38902
 C328 C 0.63802 0.38803 0.39433
 C329 C 0.70766 0.42410 0.40923
 N330 N 0.75306 0.42755 0.40158
 N331 N 0.77782 0.40147 0.37460
 C332 C 0.75893 0.37010 0.35365
 H333 H 0.58104 0.35331 0.37304
 H334 H 0.62638 0.30503 0.32493
 H335 H 0.68926 0.44655 0.43013
 H336 H 0.78076 0.35052 0.33055
 C337 C 0.88457 -0.13775 -0.15423
 C338 C 0.85624 -0.16446 -0.17899
 C339 C 0.81105 -0.16828 -0.15770
 C340 C 0.79407 -0.14268 -0.11128
 C341 C 0.82381 -0.11604 -0.08517
 C342 C 0.86896 -0.11352 -0.10755
 C343 C 0.80727 -0.09202 -0.03780
 N344 N 0.76317 -0.09319 -0.02013
 N345 N 0.73447 -0.11651 -0.04707
 C346 C 0.74807 -0.14086 -0.09225
 H347 H 0.91901 -0.13577 -0.17208
 H348 H 0.87055 -0.18287 -0.21440
 H349 H 0.82892 -0.07214 -0.01489
 H350 H 0.72194 -0.15718 -0.11379
 C351 C 0.33752 0.37763 0.39156
 C352 C 0.31225 0.35001 0.36342
 C353 C 0.33344 0.32129 0.33096
 C354 C 0.38151 0.32001 0.32850
 C355 C 0.40728 0.34855 0.35646
 C356 C 0.38488 0.37744 0.38848
 C357 C 0.45474 0.34740 0.35054
 N358 N 0.47492 0.31876 0.32127
 N359 N 0.45090 0.29130 0.29739
 C360 C 0.40500 0.29087 0.30014
 H361 H 0.31991 0.39948 0.41594
 H362 H 0.27563 0.35154 0.36581
 H363 H 0.47604 0.36898 0.36863
 H364 H 0.38759 0.26748 0.28096
 C365 C 0.12630 0.62514 -0.19055
 C366 C 0.14993 0.65333 -0.21990
 C367 C 0.16763 0.68203 -0.18311
 C368 C 0.15630 0.68427 -0.11605
 C369 C 0.13027 0.65621 -0.08683
 C370 C 0.11731 0.62543 -0.12385
 C371 C 0.11624 0.66075 -0.02207
 N372 N 0.12836 0.69078 0.01141
 N373 N 0.15276 0.71701 -0.01570
 C374 C 0.16669 0.71503 -0.07816
 H375 H 0.11605 0.60232 -0.22013
 H376 H 0.15705 0.65126 -0.27131
 H377 H 0.09456 0.64137 0.00189
 H378 H 0.18408 0.73830 -0.09775
 C379 C 0.61961 1.14303 0.35368
 C380 C 0.64684 1.16982 0.32685
 C381 C 0.69111 1.17655 0.34985
 C382 C 0.70799 1.15430 0.40189
 C383 C 0.67924 1.12740 0.42967
 C384 C 0.63530 1.12160 0.40449
 C385 C 0.69550 1.10639 0.48167
 N386 N 0.73848 1.11076 0.50297
 N387 N 0.76634 1.13449 0.47545
 C388 C 0.75298 1.15601 0.42570
 H389 H 0.58607 1.13858 0.33380
 H390 H 0.63247 1.18568 0.28768
 H391 H 0.67448 1.08640 0.50548
 H392 H 0.77869 1.17303 0.40521
 C393 C 0.11176 0.36215 0.14410
 C394 C 0.13689 0.33412 0.17171
 C395 C 0.18421 0.33623 0.17546
 C396 C 0.20647 0.36811 0.15375
 C397 C 0.18086 0.39657 0.12542
 C398 C 0.13322 0.39310 0.11950
 C399 C 0.20380 0.42807 0.10536
 N400 N 0.24926 0.43074 0.11334
 N401 N 0.27327 0.40420 0.14044
 C402 C 0.25349 0.37313 0.16118
 H403 H 0.07529 0.35934 0.14059
 H404 H 0.11933 0.31012 0.18862
 H405 H 0.18603 0.45083 0.08429
 H406 H 0.27469 0.35309 0.18438
 C407 C 0.66633 0.88178 0.61589
 C408 C 0.68985 0.85386 0.64625
 C409 C 0.66675 0.82507 0.67574
 C410 C 0.61870 0.82393 0.67268
 C411 C 0.59469 0.85275 0.64259
 C412 C 0.61894 0.88176 0.61373
 C413 C 0.54702 0.85176 0.64328
 N414 N 0.52516 0.82295 0.66945
 N415 N 0.54768 0.79519 0.69518
 C416 C 0.59358 0.79461 0.69757
 H417 H 0.68531 0.90372 0.59394
 H418 H 0.72651 0.85516 0.64792
 H419 H 0.52685 0.87359 0.62353
 H420 H 0.60976 0.77100 0.71808
 C421 C 0.85730 0.14606 0.07890
 C422 C 0.83243 0.17230 0.11168
 C423 C 0.83121 0.17327 0.17969
 C424 C 0.85601 0.14683 0.21532
 C425 C 0.88305 0.12115 0.18167
 C426 C 0.88233 0.12009 0.11292
 C427 C 0.91023 0.09732 0.21818
 N428 N 0.90782 0.09743 0.28374
 N429 N 0.88020 0.11979 0.31524
 C430 C 0.85408 0.14425 0.28346
 H431 H 0.85640 0.14566 0.02640
 H432 H 0.81392 0.19214 0.08338
 H433 H 0.93359 0.07873 0.19535
 H434 H 0.83161 0.16071 0.31213
 C435 C 0.38828 0.64401 0.63218
 C436 C 0.36252 0.67183 0.65906
 C437 C 0.31514 0.67158 0.65458
 C438 C 0.29326 0.64217 0.62288
 C439 C 0.31964 0.61433 0.59411
 C440 C 0.36749 0.61501 0.60003
 C441 C 0.29710 0.58670 0.55987
 N442 N 0.25123 0.58599 0.55787
 N443 N 0.22639 0.61105 0.58761
 C444 C 0.24572 0.63895 0.62020
 H445 H 0.42481 0.64485 0.63726
 H446 H 0.37980 0.69394 0.68322
 H447 H 0.31543 0.56574 0.53440
 H448 H 0.22354 0.65784 0.64433
   
