data_POSCAR
  _audit_creation_date              2014-09-24
  _audit_creation_method            'ToBaCCo'
  _symmetry_space_group_name_H-M    'P1'
  _symmetry_Int_Tables_number       1
  _symmetry_cell_setting            triclinic
  loop_
  _symmetry_equiv_pos_as_xyz
 x,y,z
_cell_length_a 16.9961
_cell_length_b 16.9961
_cell_length_c 29.1239
_cell_angle_alpha 89.869600
_cell_angle_beta 90.130400
_cell_angle_gamma 89.999700
loop_
  _atom_site_label
  _atom_site_type_symbol
  _atom_site_fract_x
  _atom_site_fract_y
  _atom_site_fract_z
O1 O 0.06455 0.57758 1.04383
 O2 O 0.06446 0.42438 0.95464
 O3 O 0.06440 0.57789 0.95459
 O4 O 0.06455 0.42419 1.04388
 O5 O -0.06521 0.42419 1.04376
 O6 O -0.06524 0.57790 0.95446
 O7 O -0.06530 0.42438 0.95452
 O8 O -0.06521 0.57759 1.04370
 Cu9 Cu 0.07748 0.50102 0.99923
 Cu10 Cu -0.07823 0.50102 0.99908
 C11 C -0.00031 0.60412 1.05889
 C12 C -0.00044 0.39777 0.93950
 C13 C -0.00044 0.60477 0.93935
 C14 C -0.00031 0.39756 1.05896
 O15 O 0.57791 -0.06526 0.54554
 O16 O 0.42421 -0.06522 0.45625
 O17 O 0.57760 -0.06522 0.45630
 O18 O 0.42440 -0.06532 0.54548
 O19 O 0.42440 0.06444 0.54536
 O20 O 0.57760 0.06454 0.45617
 O21 O 0.42421 0.06454 0.45612
 O22 O 0.57791 0.06438 0.54541
 Cu23 Cu 0.50104 -0.07824 0.50092
 Cu24 Cu 0.50103 0.07746 0.50077
 C25 C 0.60479 -0.00045 0.56065
 C26 C 0.39758 -0.00033 0.44104
 C27 C 0.60413 -0.00032 0.44111
 C28 C 0.39778 -0.00046 0.56050
 Si29 Si 0.00007 0.00006 0.25000
 Si30 Si -0.00048 -0.00049 0.75000
 C31 C -0.00017 -0.20857 0.15764
 C32 C -0.07143 -0.23983 0.14189
 C33 C -0.07156 -0.30157 0.11025
 C34 C -0.00026 -0.33278 0.09388
 C35 C 0.07108 -0.30162 0.11040
 C36 C 0.07104 -0.23987 0.14204
 C37 C -0.00012 -0.14262 0.18851
 C38 C -0.00006 -0.08639 0.21363
 H39 H -0.12689 -0.21588 0.15367
 H40 H -0.12748 -0.32420 0.09823
 H41 H 0.12696 -0.32427 0.09849
 H42 H 0.12654 -0.21596 0.15393
 C43 C -0.00017 0.20949 0.15771
 C44 C 0.07104 0.24092 0.14212
 C45 C 0.07108 0.30292 0.11048
 C46 C -0.00027 0.33422 0.09396
 C47 C -0.07156 0.30288 0.11034
 C48 C -0.07143 0.24088 0.14197
 C49 C -0.00012 0.14326 0.18856
 C50 C -0.00006 0.08681 0.21365
 H51 H 0.12654 0.21690 0.15400
 H52 H 0.12696 0.32567 0.09858
 H53 H -0.12748 0.32560 0.09831
 H54 H -0.12690 0.21683 0.15373
 C55 C 0.20923 -0.00053 0.65845
 C56 C 0.24078 0.07071 0.64288
 C57 C 0.30299 0.07082 0.61155
 C58 C 0.33438 -0.00049 0.59530
 C59 C 0.30295 -0.07182 0.61167
 C60 C 0.24074 -0.07176 0.64301
 C61 C 0.14282 -0.00055 0.68899
 C62 C 0.08627 -0.00054 0.71387
 H63 H 0.21669 0.12618 0.65454
 H64 H 0.32579 0.12673 0.59963
 H65 H 0.32573 -0.12771 0.59985
 H66 H 0.21662 -0.12725 0.65476
 C67 C -0.20981 -0.00053 0.65759
 C68 C -0.24127 -0.07171 0.64205
 C69 C -0.30336 -0.07185 0.61048
 C70 C -0.33492 -0.00048 0.59380
 C71 C -0.30338 0.07085 0.61034
 C72 C -0.24129 0.07067 0.64192
 C73 C -0.14352 -0.00055 0.68841
 C74 C -0.08708 -0.00054 0.71352
 H75 H -0.21720 -0.12719 0.65394
 H76 H -0.32583 -0.12800 0.59880
 H77 H -0.32587 0.12702 0.59855
 H78 H -0.21724 0.12613 0.65370
 C79 C -0.00052 -0.20982 0.84241
 C80 C 0.07068 -0.24131 0.85809
 C81 C 0.07087 -0.30339 0.88966
 C82 C -0.00047 -0.33494 0.90620
 C83 C -0.07183 -0.30337 0.88952
 C84 C -0.07169 -0.24128 0.85795
 C85 C -0.00053 -0.14354 0.81159
 C86 C -0.00052 -0.08710 0.78648
 H87 H 0.12614 -0.21726 0.84631
 H88 H 0.12704 -0.32588 0.90145
 H89 H -0.12798 -0.32585 0.90120
 H90 H -0.12717 -0.21722 0.84606
 C91 C -0.00052 0.20922 0.84156
 C92 C 0.07072 0.24077 0.85712
 C93 C 0.07084 0.30297 0.88846
 C94 C -0.00047 0.33436 0.90470
 C95 C -0.07181 0.30293 0.88833
 C96 C -0.07174 0.24073 0.85700
 C97 C -0.00053 0.14280 0.81101
 C98 C -0.00053 0.08626 0.78613
 H99 H 0.12620 0.21668 0.84546
 H100 H 0.12674 0.32578 0.90037
 H101 H -0.12769 0.32571 0.90015
 H102 H -0.12723 0.21660 0.84524
 C103 C -0.20856 -0.00019 0.34236
 C104 C -0.23981 -0.07145 0.35811
 C105 C -0.30156 -0.07158 0.38975
 C106 C -0.33277 -0.00028 0.40613
 C107 C -0.30160 0.07106 0.38960
 C108 C -0.23986 0.07102 0.35796
 C109 C -0.14260 -0.00014 0.31149
 C110 C -0.08637 -0.00007 0.28637
 H111 H -0.21586 -0.12691 0.34634
 H112 H -0.32418 -0.12749 0.40177
 H113 H -0.32426 0.12694 0.40151
 H114 H -0.21594 0.12652 0.34607
 C115 C 0.20950 -0.00019 0.34230
 C116 C 0.24090 -0.07145 0.35803
 C117 C 0.30290 -0.07158 0.38967
 C118 C 0.33424 -0.00028 0.40604
 C119 C 0.30294 0.07106 0.38952
 C120 C 0.24094 0.07102 0.35788
 C121 C 0.14328 -0.00014 0.31144
 C122 C 0.08683 -0.00007 0.28635
 H123 H 0.21684 -0.12691 0.34627
 H124 H 0.32562 -0.12749 0.40169
 H125 H 0.32569 0.12694 0.40142
 H126 H 0.21692 0.12652 0.34600
   
