data_POSCAR
  _audit_creation_date              2014-09-24
  _audit_creation_method            'ToBaCCo'
  _symmetry_space_group_name_H-M    'P1'
  _symmetry_Int_Tables_number       1
  _symmetry_cell_setting            triclinic
  loop_
  _symmetry_equiv_pos_as_xyz
 x,y,z
_cell_length_a 29.6904
_cell_length_b 29.5457
_cell_length_c 29.7551
_cell_angle_alpha 89.900800
_cell_angle_beta 88.708700
_cell_angle_gamma 89.206300
loop_
  _atom_site_label
  _atom_site_type_symbol
  _atom_site_fract_x
  _atom_site_fract_y
  _atom_site_fract_z
C1 C 0.33171 0.34077 1.39474
 C2 C 0.28870 0.35500 1.40960
 C3 C 0.26621 0.39132 1.38844
 C4 C 0.28849 0.41419 1.35304
 C5 C 0.33130 0.39982 1.33739
 C6 C 0.35298 0.36293 1.35835
 C7 C 0.35315 0.30393 1.41536
 C8 C 0.39564 0.28778 1.39948
 C9 C 0.41653 0.31043 1.36304
 C10 C 0.39556 0.34771 1.34247
 C11 C 0.41601 0.36919 1.30541
 C12 C 0.39450 0.40557 1.28373
 C13 C 0.35209 0.42089 1.30022
 H14 H 0.27364 0.33797 1.43828
 H15 H 0.27186 0.44242 1.33658
 H16 H 0.33536 0.28784 1.44289
 H17 H 0.44908 0.29864 1.35012
 H18 H 0.44848 0.35693 1.29277
 H19 H 0.33418 0.44801 1.28358
 C20 C 1.17109 0.66322 0.87777
 C21 C 1.21037 0.64216 0.89399
 C22 C 1.23036 0.60466 0.87123
 C23 C 1.21000 0.58873 0.83215
 C24 C 1.17082 0.60920 0.81585
 C25 C 1.15120 0.64651 0.83872
 C26 C 1.15182 0.70117 0.89970
 C27 C 1.11282 0.72304 0.88288
 C28 C 1.09294 0.70498 0.84445
 C29 C 1.11179 0.66723 0.82229
 C30 C 1.09221 0.65038 0.78336
 C31 C 1.11211 0.61382 0.76000
 C32 C 1.15120 0.59304 0.77671
 H33 H 1.22516 0.65588 0.92378
 H34 H 1.22479 0.56012 0.81405
 H35 H 1.16803 0.71314 0.92942
 H36 H 1.06291 0.72089 0.83108
 H37 H 1.06195 0.66632 0.77061
 H38 H 1.16610 0.56394 0.75963
 C39 C 0.66485 -0.17338 0.10303
 C40 C 0.70487 -0.15592 0.08426
 C41 C 0.72377 -0.11622 0.10169
 C42 C 0.70201 -0.09442 0.13832
 C43 C 0.66226 -0.11157 0.15761
 C44 C 0.64357 -0.15116 0.13979
 C45 C 0.64619 -0.21319 0.08607
 C46 C 0.60648 -0.23146 0.10523
 C47 C 0.58569 -0.20863 0.14208
 C48 C 0.60399 -0.16895 0.15927
 C49 C 0.58355 -0.14734 0.19644
 C50 C 0.60208 -0.10829 0.21499
 C51 C 0.64144 -0.09026 0.19505
 H52 H 0.72133 -0.17406 0.05684
 H53 H 0.71645 -0.06413 0.15225
 H54 H 0.66292 -0.23017 0.05790
 H55 H 0.55566 -0.22130 0.15853
 H56 H 0.55331 -0.16153 0.21159
 H57 H 0.65654 -0.06031 0.20863
 C58 C -0.16727 1.16954 -0.37284
 C59 C -0.20551 1.15150 -0.39242
 C60 C -0.22709 1.11341 -0.37392
 C61 C -0.20866 1.09295 -0.33521
 C62 C -0.17013 1.11066 -0.31530
 C63 C -0.14956 1.14930 -0.33403
 C64 C -0.14685 1.20797 -0.39136
 C65 C -0.10958 1.22739 -0.37110
 C66 C -0.09175 1.20702 -0.33238
 C67 C -0.11145 1.16791 -0.31385
 C68 C -0.09383 1.14725 -0.27539
 C69 C -0.11362 1.10832 -0.25654
 C70 C -0.15217 1.09052 -0.27662
 H71 H -0.21886 1.16772 -0.42215
 H72 H -0.22367 1.06348 -0.31989
 H73 H -0.16059 1.22349 -0.42124
 H74 H -0.06233 1.22110 -0.31703
 H75 H -0.06451 1.16157 -0.25997
 H76 H -0.16898 1.06157 -0.26209
 C77 C 0.65761 0.67040 0.61089
 C78 C 0.69158 0.64930 0.58438
 C79 C 0.71116 0.60786 0.59801
 C80 C 0.69505 0.58698 0.63755
 C81 C 0.66133 0.60763 0.66434
 C82 C 0.64286 0.64971 0.65124
 C83 C 0.63876 0.71227 0.59815
 C84 C 0.60606 0.73436 0.62599
 C85 C 0.59235 0.71351 0.66637
 C86 C 0.60982 0.67124 0.67872
 C87 C 0.59485 0.65035 0.71843
 C88 C 0.61301 0.60853 0.73164
 C89 C 0.64624 0.58715 0.70441
 H90 H 0.70247 0.66545 0.55345
 H91 H 0.70969 0.55497 0.64814
 H92 H 0.65128 0.72802 0.56759
 H93 H 0.56732 0.72998 0.68815
 H94 H 0.56924 0.66687 0.73945
 H95 H 0.65990 0.55442 0.71391
 C96 C 0.84348 0.34648 0.09760
 C97 C 0.80707 0.36918 0.07795
 C98 C 0.78833 0.40878 0.09773
 C99 C 0.80823 0.42639 0.13630
 C100 C 0.84365 0.40319 0.15704
 C101 C 0.86107 0.36281 0.13791
 C102 C 0.86212 0.30733 0.07774
 C103 C 0.89696 0.28281 0.09843
 C104 C 0.91375 0.29898 0.13942
 C105 C 0.89614 0.33884 0.15905
 C106 C 0.91301 0.35510 0.19960
 C107 C 0.89514 0.39502 0.21925
 C108 C 0.86116 0.41924 0.19724
 H109 H 0.79422 0.35613 0.04687
 H110 H 0.79467 0.45715 0.15157
 H111 H 0.84861 0.29527 0.04642
 H112 H 0.94130 0.28181 0.15577
 H113 H 0.94038 0.33692 0.21532
 H114 H 0.84753 0.45015 0.21211
 C115 C 0.32664 0.16844 0.88641
 C116 C 0.29071 0.14768 0.90920
 C117 C 0.27361 0.10627 0.89441
 C118 C 0.29304 0.08606 0.85534
 C119 C 0.32879 0.10688 0.83182
 C120 C 0.34579 0.14816 0.84754
 C121 C 0.34362 0.20932 0.90205
 C122 C 0.37914 0.23080 0.87913
 C123 C 0.39842 0.21044 0.84034
 C124 C 0.38193 0.16920 0.82443
 C125 C 0.40086 0.14869 0.78578
 C126 C 0.38349 0.10814 0.76922
 C127 C 0.34765 0.08722 0.79263
 H128 H 0.27617 0.16386 0.93897
 H129 H 0.28012 0.05493 0.84204
 H130 H 0.32892 0.22477 0.93211
 H131 H 0.42663 0.22610 0.82298
 H132 H 0.42861 0.16475 0.76793
 H133 H 0.33478 0.05537 0.78073
 C134 C 0.18718 0.82496 0.39365
 C135 C 0.22533 0.84526 0.41142
 C136 C 0.24715 0.88040 0.38827
 C137 C 0.22981 0.89610 0.34737
 C138 C 0.19116 0.87669 0.32958
 C139 C 0.16978 0.84091 0.35281
 C140 C 0.16655 0.78859 0.41590
 C141 C 0.12837 0.76769 0.39834
 C142 C 0.11045 0.78486 0.35799
 C143 C 0.13100 0.82113 0.33523
 C144 C 0.11355 0.83764 0.29482
 C145 C 0.13472 0.87302 0.27127
 C146 C 0.17350 0.89255 0.28901
 H147 H 0.23868 0.83315 0.44294
 H148 H 0.24598 0.92384 0.32975
 H149 H 0.18071 0.77620 0.44698
 H150 H 0.08129 0.76996 0.34318
 H151 H 0.08359 0.82266 0.28133
 H152 H 0.18947 0.92067 0.27191
 Zn153 Zn 0.01223 1.05014 -0.01117
 Zn154 Zn -0.02999 0.95983 -0.02555
 Zn155 Zn 0.06146 0.96609 0.01523
 Zn156 Zn -0.01914 0.99636 0.06790
 O157 O 0.00597 0.99302 0.01145
 O158 O -0.01911 1.05886 -0.06096
 O159 O -0.00215 0.90843 -0.04549
 O160 O 0.10539 0.99911 -0.00981
 O161 O -0.04797 0.99161 -0.07445
 O162 O 0.06924 1.06245 -0.02758
 O163 O 0.06421 0.91362 -0.01352
 O164 O 0.01548 0.97182 0.11018
 O165 O -0.08101 0.94195 0.00303
 O166 O 0.07751 0.95303 0.07175
 O167 O -0.07201 0.96845 0.07188
 O168 O -0.02948 1.05327 0.08614
 O169 O -0.00638 1.09347 0.02738
 C170 C -0.04208 1.03291 -0.08509
 C171 C 0.03685 0.89237 -0.03756
 C172 C 0.10498 1.03846 -0.02696
 C173 C 0.05526 0.95573 0.10862
 C174 C -0.09493 0.94728 0.04346
 C175 C -0.02311 1.09103 0.06694
 Zn176 Zn 0.50292 -0.03674 0.45975
 Zn177 Zn 0.53281 -0.00693 0.55003
 Zn178 Zn 0.54595 0.05326 0.46950
 Zn179 Zn 0.45298 0.03619 0.50834
 O180 O 0.50878 0.01160 0.49692
 O181 O 0.52451 -0.08790 0.48317
 O182 O 0.58520 0.01953 0.56061
 O183 O 0.56711 0.03527 0.41485
 O184 O 0.54484 -0.06657 0.55103
 O185 O 0.53308 -0.03034 0.40810
 O186 O 0.59488 0.06503 0.50210
 O187 O 0.44906 0.09279 0.48804
 O188 O 0.49766 0.00656 0.59834
 O189 O 0.51745 0.10644 0.46022
 O190 O 0.43870 0.03933 0.56706
 O191 O 0.40822 0.00596 0.48252
 O192 O 0.44595 -0.04745 0.44505
 C193 C 0.54123 -0.09678 0.52101
 C194 C 0.60803 0.04886 0.53923
 C195 C 0.55902 -0.00014 0.39250
 C196 C 0.47710 0.11899 0.46883
 C197 C 0.45963 0.02655 0.60168
 C198 C 0.40911 -0.02793 0.45640
 Zn199 Zn 1.00244 0.44117 0.47383
 Zn200 Zn 1.04305 0.52763 0.50357
 Zn201 Zn 0.95217 0.52911 0.46292
 Zn202 Zn 0.96491 0.48886 0.55453
 O203 O 0.99056 0.49671 0.49867
 O204 O 1.06111 0.43198 0.46142
 O205 O 1.04294 0.58011 0.47365
 O206 O 0.93689 0.49819 0.41379
 O207 O 1.09091 0.49675 0.48211
 O208 O 0.97478 0.43368 0.42175
 O209 O 0.97605 0.58110 0.44241
 O210 O 0.91041 0.51493 0.55936
 O211 O 1.05551 0.54107 0.56036
 O212 O 0.90057 0.54490 0.49189
 O213 O 0.99736 0.51286 0.59829
 O214 O 0.95758 0.43044 0.56947
 O215 O 0.98502 0.39503 0.50919
 C216 C 1.09492 0.45734 0.46566
 C217 C 1.01389 0.59909 0.44901
 C218 C 0.94850 0.45913 0.39967
 C219 C 0.88684 0.53745 0.53195
 C220 C 1.03451 0.53352 0.59716
 C221 C 0.96690 0.39416 0.54819
 Zn222 Zn 0.46957 0.48950 0.94702
 Zn223 Zn 0.46989 0.53138 1.03858
 Zn224 Zn 0.50516 0.43690 1.02412
 Zn225 Zn 0.55666 0.51517 0.98827
 O226 O 0.50024 0.49330 0.99951
 O227 O 0.41853 0.52269 0.94808
 O228 O 0.45412 0.50386 1.09042
 O229 O 0.47984 0.39408 0.99121
 O230 O 0.41867 0.55371 1.01579
 O231 O 0.45400 0.43273 0.93328
 O232 O 0.47926 0.43379 1.07868
 O233 O 0.60052 0.47756 1.00571
 O234 O 0.50226 0.57992 1.05331
 O235 O 0.56232 0.41855 1.03076
 O236 O 0.56648 0.56769 1.01584
 O237 O 0.56722 0.52553 0.92996
 O238 O 0.50207 0.50876 0.89968
 C239 C 0.40049 0.54810 0.97805
 C240 C 0.45939 0.46314 1.10336
 C241 C 0.46008 0.39559 0.95393
 C242 C 0.59930 0.43815 1.02260
 C243 C 0.54184 0.59186 1.04182
 C244 C 0.54231 0.52229 0.89606
 C245 C 1.22251 0.40587 0.40166
 C246 C 1.19403 0.38150 0.42749
 C247 C 1.14869 0.39805 0.44092
 C248 C 1.13996 0.44144 0.45099
 H249 H 1.20187 0.34696 0.43667
 H250 H 1.12263 0.37305 0.44547
 H251 H 1.21032 0.43784 0.38834
 H252 H 1.16685 0.46587 0.44985
 C253 C 0.27025 0.58251 0.88488
 C254 C 0.29330 0.59154 0.92204
 C255 C 0.33537 0.56627 0.93115
 C256 C 0.35779 0.57225 0.96912
 H257 H 0.28197 0.61694 0.94595
 H258 H 0.34831 0.54246 0.90618
 H259 H 0.28352 0.55555 0.86342
 H260 H 0.34459 0.59564 0.99434
 C261 C -0.23297 0.90284 0.08456
 C262 C -0.21090 0.88957 0.04676
 C263 C -0.16706 0.90837 0.03146
 C264 C -0.13845 0.92882 0.05888
 H265 H -0.22559 0.86519 0.02466
 H266 H -0.15756 0.90356 -0.00358
 H267 H -0.21928 0.92999 0.10414
 H268 H -0.14647 0.93208 0.09437
 C269 C 0.73363 0.09828 0.60498
 C270 C 0.70847 0.06302 0.61849
 C271 C 0.66640 0.04877 0.59688
 C272 C 0.65074 0.06470 0.55776
 H273 H 0.71727 0.04340 0.64766
 H274 H 0.64750 0.02302 0.61476
 H275 H 0.72284 0.11745 0.57611
 H276 H 0.66909 0.08955 0.53833
 C277 C 0.41730 0.24890 0.41708
 C278 C 0.40129 0.22397 0.45168
 C279 C 0.42084 0.18032 0.46632
 C280 C 0.46230 0.16475 0.45547
 H281 H 0.37057 0.23322 0.46949
 H282 H 0.39895 0.15983 0.48742
 H283 H 0.44818 0.23780 0.40026
 H284 H 0.48579 0.18518 0.43630
 C285 C 0.90976 0.26864 0.60810
 C286 C 0.92886 0.30158 0.63172
 C287 C 0.94277 0.34520 0.61146
 C288 C 0.95591 0.34986 0.56828
 H289 H 0.93045 0.29872 0.66792
 H290 H 0.94275 0.37434 0.63351
 H291 H 0.90400 0.27384 0.57264
 H292 H 0.95909 0.32041 0.54677
 C293 C 0.09316 0.76275 -0.09821
 C294 C 0.10911 0.78530 -0.06287
 C295 C 0.09050 0.82876 -0.04550
 C296 C 0.05101 0.84815 -0.05663
 H297 H 0.13887 0.77363 -0.04605
 H298 H 0.11136 0.84551 -0.02136
 H299 H 0.06387 0.77661 -0.11457
 H300 H 0.02842 0.83173 -0.07922
 C301 C 0.58987 0.72788 1.08720
 C302 C 0.55191 0.70710 1.10135
 C303 C 0.53526 0.66404 1.08298
 C304 C 0.56024 0.63458 1.05856
 H305 H 0.53003 0.72191 1.12684
 H306 H 0.50070 0.65579 1.09167
 H307 H 0.60915 0.71287 1.05965
 H308 H 0.59521 0.64123 1.05050
 C309 C 0.41612 0.42388 1.24215
 C310 C 0.40292 0.46194 1.22112
 C311 C 0.42227 0.47691 1.17737
 C312 C 0.44212 0.44852 1.14767
 H313 H 0.37762 0.48403 1.23627
 H314 H 0.41752 0.51220 1.16850
 H315 H 0.44441 0.40461 1.22834
 H316 H 0.44510 0.41278 1.15513
 C317 C 0.57971 -0.08951 0.25618
 C318 C 0.59287 -0.05332 0.27933
 C319 C 0.56944 -0.04213 0.32216
 C320 C 0.58071 -0.00709 0.34785
 H321 H 0.62109 -0.03311 0.26826
 H322 H 0.54283 -0.06440 0.33371
 H323 H 0.55087 -0.10794 0.26927
 H324 H 0.60674 0.01591 0.33653
 C325 C -0.09368 1.08870 -0.21510
 C326 C -0.10319 1.04750 -0.19815
 C327 C -0.08332 1.02821 -0.15668
 C328 C -0.06177 1.05255 -0.12603
 H329 H -0.12532 1.02535 -0.21583
 H330 H -0.08779 0.99232 -0.15095
 H331 H -0.06890 1.10914 -0.19892
 H332 H -0.05808 1.08863 -0.13035
 C333 C 1.09103 0.59763 0.71860
 C334 C 1.11521 0.58023 0.68403
 C335 C 1.09507 0.56514 0.64188
 C336 C 1.05323 0.54901 0.63969
 H337 H 1.15163 0.57950 0.68511
 H338 H 1.11664 0.56533 0.61203
 H339 H 1.05506 0.60294 0.71553
 H340 H 1.03249 0.54572 0.66989
 C341 C 0.74938 0.58547 0.57339
 C342 C 0.77619 0.60595 0.54288
 C343 C 0.81795 0.58456 0.52436
 C344 C 0.84299 0.55542 0.54813
 H345 H 0.76864 0.63979 0.53129
 H346 H 0.83028 0.59637 0.49193
 H347 H 0.75727 0.55093 0.58298
 H348 H 0.83256 0.54618 0.58198
 C349 C 0.75008 0.43113 1.08090
 C350 C 0.72034 0.41181 1.05395
 C351 C 0.67930 0.43649 1.04111
 C352 C 0.64148 0.41427 1.03302
 H353 H 0.72360 0.37660 1.04435
 H354 H 0.67932 0.47320 1.04079
 H355 H 0.74205 0.46484 1.09346
 H356 H 0.64081 0.37776 1.03660
 C357 C 0.23699 1.08782 -0.08110
 C358 C 0.22027 1.04631 -0.08709
 C359 C 0.18061 1.02965 -0.06149
 C360 C 0.14631 1.05667 -0.04781
 H361 H 0.23670 1.02224 -0.10949
 H362 H 0.17802 0.99334 -0.05728
 H363 H 0.22188 1.10845 -0.05452
 H364 H 0.14672 1.09251 -0.05549
 C365 C 0.28768 -0.09958 0.40788
 C366 C 0.32314 -0.08674 0.38254
 C367 C 0.36524 -0.07007 0.40170
 C368 C 0.36638 -0.04466 0.43893
 H369 H 0.32307 -0.09215 0.34656
 H370 H 0.39615 -0.07702 0.38276
 H371 H 0.28978 -0.09886 0.44418
 H372 H 0.33528 -0.03425 0.45589
 C373 C 0.58728 -0.22292 0.61606
 C374 C 0.58928 -0.20291 0.57573
 C375 C 0.56946 -0.15753 0.56963
 C376 C 0.55821 -0.14294 0.52894
 H377 H 0.60377 -0.22000 0.54660
 H378 H 0.56389 -0.13598 0.59876
 H379 H 0.56827 -0.20554 0.64260
 H380 H 0.56199 -0.16543 0.50030
 C381 C 1.11101 0.72966 0.42141
 C382 C 1.07417 0.70657 0.41042
 C383 C 1.06207 0.66504 0.43525
 C384 C 1.02442 0.64247 0.42676
 H385 H 1.05302 0.71703 0.38313
 H386 H 1.08498 0.65215 0.46026
 H387 H 1.12936 0.71762 0.45034
 H388 H 1.00110 0.65570 0.40232
 C389 C -0.08633 1.24338 0.07686
 C390 C -0.06048 1.21158 0.09609
 C391 C -0.04586 1.17115 0.07053
 C392 C -0.03563 1.13256 0.09161
 H393 H -0.05209 1.21326 0.13121
 H394 H -0.04549 1.17238 0.03409
 H395 H -0.09691 1.23713 0.04275
 H396 H -0.03898 1.13065 0.12792
 C397 C 0.39608 0.27347 0.89801
 C398 C 0.41514 0.30619 0.87311
 C399 C 0.43032 0.34929 0.89256
 C400 C 0.44426 0.35287 0.93494
 H401 H 0.41727 0.30290 0.83691
 H402 H 0.43192 0.37838 0.87040
 H403 H 0.38981 0.27915 0.93356
 H404 H 0.44602 0.32317 0.95623
 C405 C 0.59557 0.58797 0.77362
 C406 C 0.62048 0.56121 0.79995
 C407 C 0.60329 0.54426 0.84357
 C408 C 0.55971 0.53536 0.85145
 H409 H 0.65565 0.55478 0.79160
 H410 H 0.62759 0.53854 0.86966
 H411 H 0.56201 0.59825 0.78487
 H412 H 0.53583 0.53777 0.82453
 C413 C 0.40370 0.08840 0.72753
 C414 C 0.37935 0.06647 0.69722
 C415 C 0.39810 0.05177 0.65311
 C416 C 0.44054 0.03661 0.64683
 H417 H 0.34331 0.06350 0.70248
 H418 H 0.37556 0.05297 0.62500
 H419 H 0.43866 0.09576 0.71972
 H420 H 0.46225 0.03234 0.67536
 C421 C 0.11436 0.88977 0.22921
 C422 C 0.13820 0.90914 0.19565
 C423 C 0.11793 0.92523 0.15341
 C424 C 0.07506 0.93965 0.15084
 H425 H 0.17447 0.91104 0.19758
 H426 H 0.13997 0.92704 0.12397
 H427 H 0.07883 0.88368 0.22499
 H428 H 0.05362 0.94064 0.18075
 C429 C 0.91133 0.41294 0.26236
 C430 C 0.92828 0.38653 0.29475
 C431 C 0.94365 0.40353 0.33846
 C432 C 0.93136 0.44364 0.35634
 H433 H 0.93189 0.35045 0.28941
 H434 H 0.96532 0.38091 0.35716
 H435 H 0.90750 0.44899 0.26772
 H436 H 0.90825 0.46602 0.33925
   
