data_POSCAR
  _audit_creation_date              2014-09-24
  _audit_creation_method            'ToBaCCo'
  _symmetry_space_group_name_H-M    'P1'
  _symmetry_Int_Tables_number       1
  _symmetry_cell_setting            triclinic
  loop_
  _symmetry_equiv_pos_as_xyz
 x,y,z
_cell_length_a 71.4897
_cell_length_b 71.5969
_cell_length_c 20.2776
_cell_angle_alpha 90.027000
_cell_angle_beta 89.965400
_cell_angle_gamma 119.880700
loop_
  _atom_site_label
  _atom_site_type_symbol
  _atom_site_fract_x
  _atom_site_fract_y
  _atom_site_fract_z
C1 C 0.22843 0.49308 0.46789
 C2 C 0.22769 0.49088 0.53811
 C3 C 0.24438 0.48935 0.57012
 C4 C 0.26247 0.49137 0.53601
 C5 C 0.26329 0.49407 0.46643
 C6 C 0.24665 0.49533 0.43401
 H7 H 0.24708 0.49609 0.38058
 H8 H 0.24442 0.48882 0.62352
 C9 C 0.50771 -0.26435 0.46915
 C10 C 0.50642 -0.26446 0.53922
 C11 C 0.50636 -0.24722 0.57195
 C12 C 0.50775 -0.22950 0.53757
 C13 C 0.50799 -0.22987 0.46741
 C14 C 0.50785 -0.24721 0.43464
 H15 H 0.50853 -0.24690 0.38122
 H16 H 0.50589 -0.24744 0.62540
 C17 C 1.26511 0.76979 0.46472
 C18 C 1.26456 0.77002 0.53499
 C19 C 1.24733 0.75304 0.56868
 C20 C 1.23069 0.73562 0.53487
 C21 C 1.23123 0.73517 0.46519
 C22 C 1.24860 0.75189 0.43127
 H23 H 1.24830 0.75161 0.37781
 H24 H 1.24724 0.75302 0.62216
 C25 C 0.77203 0.51100 0.46769
 C26 C 0.77124 0.50880 0.53754
 C27 C 0.75306 0.50681 0.57123
 C28 C 0.73666 0.50866 0.53850
 C29 C 0.73773 0.51085 0.46863
 C30 C 0.75536 0.51203 0.43472
 H31 H 0.75564 0.51281 0.38128
 H32 H 0.75283 0.50611 0.62463
 C33 C 0.49565 0.26408 0.46845
 C34 C 0.49562 0.26384 0.53863
 C35 C 0.49434 0.24577 0.57086
 C36 C 0.49319 0.22818 0.53597
 C37 C 0.49405 0.22913 0.46583
 C38 C 0.49517 0.24696 0.43354
 H39 H 0.49548 0.24743 0.38006
 H40 H 0.49406 0.24531 0.62425
 C41 C 0.73637 0.22935 0.46737
 C42 C 0.73638 0.22988 0.53708
 C43 C 0.75330 0.24725 0.57031
 C44 C 0.77089 0.26388 0.53605
 C45 C 0.77057 0.26339 0.46572
 C46 C 0.75346 0.24609 0.43279
 H47 H 0.75305 0.24602 0.37931
 H48 H 0.75339 0.24691 0.62376
 N49 N 0.97664 0.46914 0.11777
 N50 N 0.96006 0.45899 0.15800
 N51 N 1.02190 0.47804 0.07259
 N52 N 1.03799 0.47424 0.08168
 N53 N 1.02204 0.49115 0.11809
 N54 N 1.03822 0.49662 0.15939
 N55 N 0.97650 0.45594 0.07254
 N56 N 0.95983 0.43641 0.08096
 C57 C 0.94971 0.43857 0.13452
 C58 C 1.04805 0.48596 0.13604
 N59 N 1.02217 0.49091 -0.11527
 N60 N 1.03881 0.49689 -0.15503
 N61 N 0.97657 0.45577 -0.06953
 N62 N 0.96025 0.43608 -0.07849
 N63 N 0.97676 0.46879 -0.11539
 N64 N 0.96057 0.45833 -0.15677
 N65 N 1.02196 0.47787 -0.06942
 N66 N 1.03845 0.47459 -0.07684
 Mn67 Mn 0.99923 0.46667 0.00154
 C68 C 1.04881 0.48655 -0.13055
 C69 C 0.95038 0.43793 -0.13309
 N70 N 1.02270 0.53168 0.11732
 N71 N 1.03909 0.54204 0.15811
 N72 N 0.97757 0.52272 0.07138
 N73 N 0.96128 0.52629 0.07933
 N74 N 0.97728 0.50960 0.11705
 N75 N 0.96074 0.50379 0.15713
 N76 N 1.02294 0.54472 0.07140
 N77 N 1.03950 0.56431 0.07973
 Mn78 Mn 0.99967 0.50040 0.11835
 C79 C 1.04944 0.56239 0.13406
 C80 C 0.95092 0.51435 0.13307
 N81 N 0.97731 0.50929 -0.11598
 N82 N 0.96087 0.50353 -0.15646
 N83 N 1.02294 0.54455 -0.07068
 N84 N 1.03941 0.56415 -0.07959
 N85 N 1.02277 0.53137 -0.11602
 N86 N 1.03918 0.54163 -0.15685
 N87 N 0.97758 0.52251 -0.07064
 N88 N 0.96138 0.52617 -0.07914
 Mn89 Mn 0.99974 0.50009 -0.11648
 Mn90 Mn 1.00027 0.53386 0.00037
 Cl91 Cl 0.99973 0.50025 0.00094
 C92 C 0.95108 0.51421 -0.13289
 C93 C 1.04942 0.56208 -0.13353
 N94 N 0.47729 0.45401 0.07176
 N95 N 0.47405 0.43436 0.08091
 N96 N 0.46673 0.48919 0.11645
 N97 N 0.45598 0.49500 0.15645
 N98 N 0.45395 0.47612 0.07059
 N99 N 0.43414 0.47268 0.07819
 N100 N 0.49009 0.46711 0.11750
 N101 N 0.49592 0.45675 0.15900
 C102 C 0.48580 0.43632 0.13553
 C103 C 0.43565 0.48457 0.13205
 N104 N 0.51945 0.54279 0.07140
 N105 N 0.52303 0.56253 0.08102
 N106 N 0.52991 0.50762 0.11781
 N107 N 0.54057 0.50191 0.15856
 N108 N 0.54288 0.52083 0.07252
 N109 N 0.56273 0.52454 0.08140
 N110 N 0.50653 0.52971 0.11702
 N111 N 0.50094 0.54020 0.15885
 Mn112 Mn 0.49832 0.49840 0.11800
 C113 C 0.51131 0.56067 0.13567
 C114 C 0.56105 0.51261 0.13527
 N115 N 0.45430 0.47599 -0.07152
 N116 N 0.43452 0.47251 -0.08028
 N117 N 0.49073 0.46702 -0.11561
 N118 N 0.49720 0.45677 -0.15544
 N119 N 0.47770 0.45392 -0.07022
 N120 N 0.47494 0.43440 -0.07799
 N121 N 0.46730 0.48904 -0.11702
 N122 N 0.45675 0.49484 -0.15785
 Mn123 Mn 0.46557 0.46477 0.00014
 C124 C 0.43629 0.48438 -0.13440
 C125 C 0.48720 0.43641 -0.13144
 N126 N 0.54322 0.52076 -0.06945
 N127 N 0.56311 0.52445 -0.07712
 N128 N 0.50699 0.52951 -0.11645
 N129 N 0.50045 0.53957 -0.15672
 N130 N 0.51972 0.54269 -0.07075
 N131 N 0.52228 0.56213 -0.07888
 N132 N 0.53050 0.50754 -0.11511
 N133 N 0.54138 0.50183 -0.15500
 Mn134 Mn 0.53154 0.53201 0.00091
 Mn135 Mn 0.49889 0.49827 -0.11685
 Cl136 Cl 0.49858 0.49836 0.00057
 C137 C 0.56173 0.51253 -0.13071
 C138 C 0.51016 0.55993 -0.13282
 N139 N 0.45571 -0.02365 0.07109
 N140 N 0.43595 -0.03994 0.07923
 N141 N 0.49110 0.02163 0.11787
 N142 N 0.49719 0.03820 0.15792
 N143 N 0.47819 0.02168 0.07193
 N144 N 0.47508 0.03824 0.07966
 N145 N 0.46860 -0.02375 0.11698
 N146 N 0.45798 -0.04016 0.15745
 C147 C 0.43761 -0.05013 0.13330
 C148 C 0.48703 0.04840 0.13362
 N149 N 0.54465 0.02199 0.07405
 N150 N 0.56430 0.03837 0.08332
 N151 N 0.50895 -0.02354 0.11816
 N152 N 0.50277 -0.04016 0.15803
 N153 N 0.52226 -0.02331 0.07312
 N154 N 0.52557 -0.03973 0.08128
 N155 N 0.53141 0.02183 0.11919
 N156 N 0.54166 0.03815 0.16024
 Mn157 Mn 0.50001 -0.00097 0.11886
 C158 C 0.56218 0.04832 0.13729
 C159 C 0.51330 -0.05011 0.13450
 N160 N 0.47866 0.02189 -0.07019
 N161 N 0.47470 0.03782 -0.07989
 N162 N 0.46952 -0.02331 -0.11598
 N163 N 0.45937 -0.03982 -0.15639
 N164 N 0.45625 -0.02343 -0.07099
 N165 N 0.43667 -0.03999 -0.07978
 N166 N 0.49186 0.02202 -0.11546
 N167 N 0.49724 0.03805 -0.15718
 Mn168 Mn 0.46697 -0.00087 0.00046
 C169 C 0.48645 0.04781 -0.13430
 C170 C 0.43887 -0.05007 -0.13331
 N171 N 0.52285 -0.02298 -0.06895
 N172 N 0.52662 -0.03907 -0.07783
 N173 N 0.53227 0.02231 -0.11410
 N174 N 0.54284 0.03868 -0.15472
 N175 N 0.54519 0.02234 -0.06805
 N176 N 0.56491 0.03873 -0.07615
 N177 N 0.50988 -0.02304 -0.11482
 N178 N 0.50440 -0.03922 -0.15602
 Mn179 Mn 0.53397 -0.00048 0.00256
 Mn180 Mn 0.50089 -0.00050 -0.11588
 Cl181 Cl 0.50046 -0.00070 0.00149
 C182 C 0.51497 -0.04910 -0.13234
 C183 C 0.56319 0.04880 -0.13045
 C184 C 1.17533 0.48807 0.35870
 C185 C 1.17191 0.47430 0.41221
 C186 C 1.18933 0.47556 0.44703
 C187 C 1.21073 0.49090 0.43008
 C188 C 1.21406 0.50393 0.37418
 C189 C 1.19658 0.50261 0.33928
 C190 C 1.15675 0.48765 0.32460
 C191 C 1.15646 0.48931 0.25559
 C192 C 1.13901 0.48920 0.22397
 C193 C 1.12158 0.48755 0.26074
 C194 C 1.12189 0.48586 0.32972
 C195 C 1.13926 0.48589 0.36126
 C196 C 1.10309 0.48759 0.22756
 C197 C 1.09382 0.49917 0.25466
 C198 C 1.07606 0.49879 0.22453
 C199 C 1.06718 0.48679 0.16675
 C200 C 1.07657 0.47541 0.13911
 C201 C 1.09438 0.47583 0.16917
 H202 H 1.15570 0.46247 0.42711
 H203 H 1.18600 0.46435 0.48716
 H204 H 1.23018 0.51601 0.35938
 H205 H 1.19972 0.51352 0.29843
 H206 H 1.16964 0.49053 0.22603
 H207 H 1.13930 0.49069 0.17079
 H208 H 1.10858 0.48433 0.35934
 H209 H 1.13914 0.48485 0.41455
 H210 H 1.10038 0.50864 0.29903
 H211 H 1.06923 0.50782 0.24673
 H212 H 1.07005 0.46603 0.09454
 H213 H 1.10105 0.46659 0.14748
 C214 C 0.51053 0.68576 0.36352
 C215 C 0.49809 0.69453 0.33991
 C216 C 0.49753 0.71124 0.37386
 C217 C 0.50914 0.71942 0.43307
 C218 C 0.52231 0.71115 0.45485
 C219 C 0.52287 0.69447 0.42086
 C220 C 0.51043 0.66739 0.32907
 C221 C 0.51016 0.65053 0.36536
 C222 C 0.50993 0.63316 0.33321
 C223 C 0.50994 0.63220 0.26398
 C224 C 0.51020 0.64905 0.22764
 C225 C 0.51043 0.66644 0.25982
 C226 C 0.50984 0.61376 0.22994
 C227 C 0.52250 0.61711 0.17332
 C228 C 0.52280 0.59983 0.14229
 C229 C 0.51048 0.57884 0.16728
 C230 C 0.49764 0.57541 0.22335
 C231 C 0.49730 0.59268 0.25433
 H232 H 0.48825 0.68805 0.29616
 H233 H 0.48706 0.71695 0.35536
 H234 H 0.53259 0.71785 0.49760
 H235 H 0.53316 0.68854 0.43916
 H236 H 0.50988 0.65064 0.41876
 H237 H 0.51000 0.62058 0.36265
 H238 H 0.50999 0.64868 0.17426
 H239 H 0.51084 0.67926 0.23046
 H240 H 0.53253 0.63317 0.15376
 H241 H 0.53287 0.60294 0.09915
 H242 H 0.48788 0.55938 0.24345
 H243 H 0.48711 0.58951 0.29720
 C244 C 0.31384 -0.17819 0.35446
 C245 C 0.30644 -0.19958 0.33515
 C246 C 0.29010 -0.21668 0.37057
 C247 C 0.28109 -0.21283 0.42733
 C248 C 0.28818 -0.19128 0.44511
 C249 C 0.30436 -0.17422 0.40930
 C250 C 0.33161 -0.16005 0.31819
 C251 C 0.33033 -0.14160 0.30252
 C252 C 0.34738 -0.12422 0.27015
 C253 C 0.36613 -0.12485 0.25335
 C254 C 0.36734 -0.14336 0.26863
 C255 C 0.35021 -0.16083 0.30043
 C256 C 0.38451 -0.10607 0.22121
 C257 C 0.40571 -0.09862 0.24309
 C258 C 0.42299 -0.08048 0.21434
 C259 C 0.41940 -0.06955 0.16278
 C260 C 0.39825 -0.07718 0.14017
 C261 C 0.38096 -0.09520 0.16933
 H262 H 0.31332 -0.20307 0.29252
 H263 H 0.28522 -0.23295 0.35506
 H264 H 0.28091 -0.18749 0.48603
 H265 H 0.30968 -0.15788 0.42513
 H266 H 0.31611 -0.14065 0.31521
 H267 H 0.34608 -0.11009 0.25944
 H268 H 0.38154 -0.14433 0.25577
 H269 H 0.35168 -0.17478 0.31241
 H270 H 0.40889 -0.10657 0.28339
 H271 H 0.43914 -0.07497 0.23264
 H272 H 0.39504 -0.06909 0.10038
 H273 H 0.36480 -0.10074 0.15108
 C274 C 0.82203 0.50954 0.35282
 C275 C 0.81668 0.52576 0.34265
 C276 C 0.80025 0.52603 0.37924
 C277 C 0.78879 0.51007 0.42667
 C278 C 0.79353 0.49340 0.43521
 C279 C 0.81010 0.49324 0.39915
 C280 C 0.84032 0.50993 0.31661
 C281 C 0.83931 0.49068 0.29602
 C282 C 0.85686 0.49109 0.26421
 C283 C 0.87571 0.51075 0.25172
 C284 C 0.87664 0.53000 0.27132
 C285 C 0.85919 0.52960 0.30368
 C286 C 0.89457 0.51121 0.21971
 C287 C 0.90591 0.52614 0.16947
 C288 C 0.92407 0.52697 0.14064
 C289 C 0.93136 0.51305 0.16205
 C290 C 0.91995 0.49802 0.21193
 C291 C 0.90166 0.49704 0.24027
 H292 H 0.82523 0.53830 0.30644
 H293 H 0.79676 0.53895 0.37147
 H294 H 0.78466 0.48073 0.47082
 H295 H 0.81389 0.48063 0.40877
 H296 H 0.82490 0.47529 0.30412
 H297 H 0.85564 0.47603 0.24887
 H298 H 0.89111 0.54536 0.26312
 H299 H 0.86072 0.54470 0.31995
 H300 H 0.90065 0.53710 0.15233
 H301 H 0.93254 0.53867 0.10214
 H302 H 0.92519 0.48706 0.22922
 H303 H 0.89332 0.48550 0.27930
 C304 C 0.49197 0.31356 0.35871
 C305 C 0.50881 0.30919 0.34721
 C306 C 0.50978 0.29286 0.38207
 C307 C 0.49406 0.28076 0.42950
 C308 C 0.47694 0.28473 0.43996
 C309 C 0.47593 0.30102 0.40505
 C310 C 0.49133 0.33138 0.32338
 C311 C 0.47174 0.32879 0.29941
 C312 C 0.47110 0.34575 0.26739
 C313 C 0.49004 0.36570 0.25889
 C314 C 0.50965 0.36825 0.28253
 C315 C 0.51030 0.35127 0.31432
 C316 C 0.48928 0.38388 0.22637
 C317 C 0.50120 0.40488 0.25182
 C318 C 0.50015 0.42193 0.22207
 C319 C 0.48720 0.41835 0.16620
 C320 C 0.47544 0.39743 0.14029
 C321 C 0.47643 0.38035 0.17015
 H322 H 0.52121 0.31837 0.31112
 H323 H 0.52304 0.28994 0.37303
 H324 H 0.46453 0.27539 0.47590
 H325 H 0.46286 0.30412 0.41535
 H326 H 0.45690 0.31360 0.30514
 H327 H 0.45572 0.34337 0.25028
 H328 H 0.52454 0.38336 0.27613
 H329 H 0.52560 0.35382 0.33286
 H330 H 0.51104 0.40805 0.29551
 H331 H 0.50939 0.43791 0.24309
 H332 H 0.46539 0.39422 0.09709
 H333 H 0.46729 0.36440 0.14894
 C334 C 0.68455 0.17751 0.35974
 C335 C 0.68016 0.18908 0.40748
 C336 C 0.69696 0.20617 0.44150
 C337 C 0.71849 0.21183 0.42932
 C338 C 0.72295 0.20061 0.38085
 C339 C 0.70617 0.18365 0.34636
 C340 C 0.66666 0.15894 0.32479
 C341 C 0.66809 0.14049 0.31020
 C342 C 0.65121 0.12291 0.27812
 C343 C 0.63242 0.12328 0.26037
 C344 C 0.63092 0.14168 0.27485
 C345 C 0.64789 0.15935 0.30647
 C346 C 0.61435 0.10441 0.22762
 C347 C 0.59298 0.09672 0.24830
 C348 C 0.57600 0.07852 0.21879
 C349 C 0.58006 0.06777 0.16767
 C350 C 0.60138 0.07563 0.14628
 C351 C 0.61837 0.09372 0.17620
 H352 H 0.66371 0.18469 0.41952
 H353 H 0.69315 0.21484 0.47791
 H354 H 0.73945 0.20479 0.37037
 H355 H 0.71015 0.17537 0.30906
 H356 H 0.68211 0.13944 0.32472
 H357 H 0.65265 0.10880 0.26842
 H358 H 0.61671 0.14249 0.26098
 H359 H 0.64639 0.17343 0.31592
 H360 H 0.58945 0.10455 0.28820
 H361 H 0.55971 0.07283 0.23613
 H362 H 0.60496 0.06769 0.10684
 H363 H 0.63467 0.09944 0.15885
 C364 C 0.48807 0.17441 -0.35907
 C365 C 0.50157 0.19547 -0.33613
 C366 C 0.50289 0.21310 -0.36986
 C367 C 0.49097 0.21018 -0.42812
 C368 C 0.47675 0.18893 -0.44916
 C369 C 0.47545 0.17133 -0.41542
 C370 C 0.48749 0.15574 -0.32517
 C371 C 0.48690 0.13882 -0.36198
 C372 C 0.48683 0.12146 -0.33037
 C373 C 0.48734 0.12060 -0.26119
 C374 C 0.48780 0.13745 -0.22432
 C375 C 0.48790 0.15485 -0.25597
 C376 C 0.48742 0.10219 -0.22777
 C377 C 0.47505 0.09305 -0.17060
 C378 C 0.47486 0.07548 -0.13991
 C379 C 0.48703 0.06669 -0.16575
 C380 C 0.49956 0.07593 -0.22244
 C381 C 0.49975 0.09349 -0.25314
 H382 H 0.51165 0.19838 -0.29318
 H383 H 0.51418 0.22910 -0.35202
 H384 H 0.46626 0.18581 -0.49115
 H385 H 0.46440 0.15525 -0.43316
 H386 H 0.48683 0.13916 -0.41537
 H387 H 0.48620 0.10860 -0.36014
 H388 H 0.48839 0.13735 -0.17098
 H389 H 0.48816 0.16755 -0.22624
 H390 H 0.46520 0.09924 -0.15027
 H391 H 0.46503 0.06866 -0.09627
 H392 H 0.50920 0.06955 -0.24324
 H393 H 0.50971 0.10038 -0.29649
 C394 C 0.68721 0.51029 -0.34944
 C395 C 0.69448 0.49595 -0.33277
 C396 C 0.71104 0.49569 -0.36879
 C397 C 0.72038 0.50942 -0.42351
 C398 C 0.71340 0.52420 -0.43858
 C399 C 0.69700 0.52456 -0.40223
 C400 C 0.66924 0.51021 -0.31267
 C401 C 0.67036 0.52969 -0.29455
 C402 C 0.65306 0.52965 -0.26234
 C403 C 0.63423 0.51015 -0.24798
 C404 C 0.63320 0.49066 -0.26545
 C405 C 0.65057 0.49069 -0.29722
 C406 C 0.61555 0.51022 -0.21635
 C407 C 0.59452 0.49667 -0.23979
 C408 C 0.57700 0.49733 -0.21173
 C409 C 0.58016 0.51147 -0.15941
 C410 C 0.60113 0.52476 -0.13521
 C411 C 0.61866 0.52420 -0.16357
 H412 H 0.68736 0.48494 -0.29175
 H413 H 0.71584 0.48405 -0.35540
 H414 H 0.72091 0.53589 -0.47775
 H415 H 0.69177 0.53585 -0.41607
 H416 H 0.68463 0.54496 -0.30537
 H417 H 0.65423 0.54492 -0.24996
 H418 H 0.61894 0.47540 -0.25447
 H419 H 0.64922 0.47546 -0.31110
 H420 H 0.59167 0.48589 -0.28083
 H421 H 0.56100 0.48687 -0.23126
 H422 H 0.60402 0.53575 -0.09475
 H423 H 0.63467 0.53465 -0.14407
 C424 C 0.82349 0.31341 -0.35749
 C425 C 0.82718 0.30414 -0.41344
 C426 C 0.80997 0.28757 -0.44758
 C427 C 0.78848 0.27996 -0.42743
 C428 C 0.78495 0.28865 -0.36939
 C429 C 0.80222 0.30525 -0.33523
 C430 C 0.84179 0.33174 -0.32325
 C431 C 0.84254 0.33303 -0.25405
 C432 C 0.85981 0.35036 -0.22217
 C433 C 0.87669 0.36678 -0.25881
 C434 C 0.87590 0.36549 -0.32800
 C435 C 0.85866 0.34818 -0.35983
 C436 C 0.89517 0.38513 -0.22521
 C437 C 0.90408 0.40613 -0.25058
 C438 C 0.92189 0.42331 -0.22025
 C439 C 0.93116 0.41986 -0.16390
 C440 C 0.92211 0.39896 -0.13787
 C441 C 0.90430 0.38176 -0.16823
 H442 H 0.84344 0.30958 -0.43055
 H443 H 0.81359 0.28043 -0.48917
 H444 H 0.76875 0.28342 -0.35207
 H445 H 0.79884 0.31216 -0.29248
 H446 H 0.82987 0.32053 -0.22451
 H447 H 0.85986 0.35100 -0.16881
 H448 H 0.88877 0.37774 -0.35762
 H449 H 0.85842 0.34779 -0.41322
 H450 H 0.89720 0.40931 -0.29376
 H451 H 0.92845 0.43928 -0.24113
 H452 H 0.92895 0.39584 -0.09447
 H453 H 0.89796 0.36575 -0.14791
 C454 C 0.51130 -0.17685 -0.35484
 C455 C 0.52472 -0.17318 -0.40957
 C456 C 0.52376 -0.19044 -0.44459
 C457 C 0.50925 -0.21189 -0.42600
 C458 C 0.49642 -0.21541 -0.36941
 C459 C 0.49727 -0.19813 -0.33481
 C460 C 0.51173 -0.15854 -0.31935
 C461 C 0.49238 -0.15925 -0.30167
 C462 C 0.49272 -0.14174 -0.26999
 C463 C 0.51242 -0.12325 -0.25479
 C464 C 0.53178 -0.12265 -0.27170
 C465 C 0.53144 -0.14008 -0.30395
 C466 C 0.51279 -0.10450 -0.22240
 C467 C 0.52715 -0.09372 -0.17034
 C468 C 0.52769 -0.07584 -0.14054
 C469 C 0.51405 -0.06829 -0.16268
 C470 C 0.49964 -0.07911 -0.21453
 C471 C 0.49896 -0.09709 -0.24393
 H472 H 0.53577 -0.15692 -0.42594
 H473 H 0.53475 -0.18691 -0.48549
 H474 H 0.48496 -0.23159 -0.35339
 H475 H 0.48693 -0.20139 -0.29226
 H476 H 0.47696 -0.17320 -0.31347
 H477 H 0.47757 -0.14269 -0.25705
 H478 H 0.54719 -0.10853 -0.26104
 H479 H 0.54658 -0.13918 -0.31659
 H480 H 0.53783 -0.09923 -0.15236
 H481 H 0.53892 -0.06783 -0.10054
 H482 H 0.48891 -0.07365 -0.23250
 H483 H 0.48788 -0.10498 -0.28435
 C484 C 0.31343 0.49124 -0.35557
 C485 C 0.29181 0.47763 -0.33744
 C486 C 0.27511 0.47785 -0.37257
 C487 C 0.27952 0.49154 -0.42747
 C488 C 0.30131 0.50565 -0.44391
 C489 C 0.31797 0.50537 -0.40888
 C490 C 0.33118 0.49054 -0.31957
 C491 C 0.35067 0.50958 -0.30660
 C492 C 0.36761 0.50883 -0.27472
 C493 C 0.36541 0.48903 -0.25483
 C494 C 0.34583 0.47003 -0.26693
 C495 C 0.32892 0.47076 -0.29904
 C496 C 0.38363 0.48816 -0.22284
 C497 C 0.38000 0.47444 -0.16890
 C498 C 0.39714 0.47333 -0.13975
 C499 C 0.41821 0.48583 -0.16423
 C500 C 0.42187 0.49964 -0.21784
 C501 C 0.40476 0.50083 -0.24677
 H502 H 0.28777 0.46678 -0.29593
 H503 H 0.25866 0.46662 -0.35807
 H504 H 0.30563 0.51739 -0.48297
 H505 H 0.33446 0.51610 -0.42413
 H506 H 0.35280 0.52510 -0.32071
 H507 H 0.38240 0.52377 -0.26515
 H508 H 0.34377 0.45451 -0.25300
 H509 H 0.31425 0.45578 -0.30920
 H510 H 0.36393 0.46468 -0.14895
 H511 H 0.39388 0.46260 -0.09829
 H512 H 0.43796 0.50948 -0.23768
 H513 H 0.40801 0.51137 -0.28872
 C514 C 1.17899 0.68419 -0.35576
 C515 C 1.19065 0.67970 -0.40295
 C516 C 1.20771 0.69638 -0.43745
 C517 C 1.21325 0.71790 -0.42636
 C518 C 1.20195 0.72247 -0.37839
 C519 C 1.18502 0.70581 -0.34340
 C520 C 1.16041 0.66639 -0.32044
 C521 C 1.14189 0.66779 -0.30628
 C522 C 1.12427 0.65096 -0.27410
 C523 C 1.12469 0.63226 -0.25584
 C524 C 1.14316 0.63081 -0.26980
 C525 C 1.16087 0.64772 -0.30148
 C526 C 1.10574 0.61420 -0.22322
 C527 C 1.09810 0.59287 -0.24381
 C528 C 1.07982 0.57591 -0.21452
 C529 C 1.06896 0.57995 -0.16365
 C530 C 1.07679 0.60123 -0.14231
 C531 C 1.09494 0.61821 -0.17205
 H532 H 1.18634 0.66325 -0.41425
 H533 H 1.21644 0.69248 -0.47341
 H534 H 1.20602 0.73896 -0.36875
 H535 H 1.17668 0.70988 -0.30654
 H536 H 1.14079 0.68173 -0.32128
 H537 H 1.11010 0.65237 -0.26477
 H538 H 1.14400 0.61667 -0.25552
 H539 H 1.17501 0.64625 -0.31055
 H540 H 1.10602 0.58935 -0.28352
 H541 H 1.07416 0.55964 -0.23181
 H542 H 1.06876 0.60479 -0.10308
 H543 H 1.10063 0.63448 -0.15479
 C544 C 0.82294 0.51083 -0.35293
 C545 C 0.80145 0.49639 -0.33552
 C546 C 0.78444 0.49599 -0.37074
 C547 C 0.78849 0.50967 -0.42539
 C548 C 0.81013 0.52453 -0.44128
 C549 C 0.82709 0.52504 -0.40571
 C550 C 0.84105 0.51098 -0.31675
 C551 C 0.85931 0.53056 -0.29909
 C552 C 0.87669 0.53073 -0.26702
 C553 C 0.87625 0.51133 -0.25237
 C554 C 0.85791 0.49174 -0.26956
 C555 C 0.84045 0.49157 -0.30116
 C556 C 0.89505 0.51161 -0.22042
 C557 C 0.90271 0.49811 -0.24331
 C558 C 0.92087 0.49889 -0.21471
 C559 C 0.93165 0.51309 -0.16237
 C560 C 0.92382 0.52635 -0.13881
 C561 C 0.90575 0.52568 -0.16772
 H562 H 0.79781 0.48543 -0.29448
 H563 H 0.76809 0.48427 -0.35674
 H564 H 0.81406 0.53618 -0.48040
 H565 H 0.84351 0.53640 -0.42011
 H566 H 0.86013 0.54575 -0.31001
 H567 H 0.89068 0.54607 -0.25486
 H568 H 0.85707 0.47655 -0.25836
 H569 H 0.82665 0.47625 -0.31469
 H570 H 0.89490 0.48726 -0.28427
 H571 H 0.92654 0.48846 -0.23377
 H572 H 0.93177 0.53739 -0.09836
 H573 H 0.90006 0.53609 -0.14862
 C574 C 0.49709 0.31487 -0.34938
 C575 C 0.51039 0.31935 -0.40495
 C576 C 0.51033 0.30267 -0.44088
 C577 C 0.49672 0.28095 -0.42294
 C578 C 0.48412 0.27664 -0.36539
 C579 C 0.48422 0.29335 -0.32944
 C580 C 0.49622 0.33251 -0.31340
 C581 C 0.47640 0.32971 -0.29065
 C582 C 0.47538 0.34649 -0.25880
 C583 C 0.49414 0.36648 -0.24909
 C584 C 0.51400 0.36924 -0.27121
 C585 C 0.51503 0.35243 -0.30295
 C586 C 0.49288 0.38453 -0.21745
 C587 C 0.50478 0.40554 -0.24277
 C588 C 0.50303 0.42241 -0.21452
 C589 C 0.48938 0.41864 -0.16026
 C590 C 0.47770 0.39772 -0.13429
 C591 C 0.47939 0.38083 -0.16268
 H592 H 0.52057 0.33577 -0.42155
 H593 H 0.52127 0.30690 -0.48225
 H594 H 0.47327 0.26026 -0.34965
 H595 H 0.47406 0.28938 -0.28615
 H596 H 0.46156 0.31471 -0.29894
 H597 H 0.45980 0.34399 -0.24326
 H598 H 0.52877 0.38436 -0.26358
 H599 H 0.53059 0.35499 -0.31896
 H600 H 0.51511 0.40886 -0.28537
 H601 H 0.51225 0.43839 -0.23552
 H602 H 0.46713 0.39437 -0.09227
 H603 H 0.47023 0.36486 -0.14158
 C604 C 0.68661 0.17757 -0.35139
 C605 C 0.69920 0.17378 -0.39689
 C606 C 0.71555 0.19080 -0.43239
 C607 C 0.71956 0.21192 -0.42341
 C608 C 0.70735 0.21585 -0.37706
 C609 C 0.69095 0.19881 -0.34155
 C610 C 0.66877 0.15936 -0.31529
 C611 C 0.64883 0.15847 -0.30682
 C612 C 0.63179 0.14096 -0.27488
 C613 C 0.63433 0.12397 -0.25053
 C614 C 0.65436 0.12501 -0.25819
 C615 C 0.67138 0.14249 -0.29031
 C616 C 0.61601 0.10502 -0.21856
 C617 C 0.61933 0.09557 -0.16228
 C618 C 0.60214 0.07741 -0.13326
 C619 C 0.58130 0.06828 -0.16007
 C620 C 0.57792 0.07780 -0.21595
 C621 C 0.59509 0.09599 -0.24486
 H622 H 0.69612 0.15759 -0.40603
 H623 H 0.72497 0.18748 -0.46744
 H624 H 0.71028 0.23205 -0.36922
 H625 H 0.68172 0.20226 -0.30621
 H626 H 0.64626 0.17112 -0.32607
 H627 H 0.61662 0.14072 -0.26911
 H628 H 0.65676 0.11208 -0.24053
 H629 H 0.68663 0.14283 -0.29549
 H630 H 0.63521 0.10233 -0.14041
 H631 H 0.60518 0.07045 -0.09003
 H632 H 0.56203 0.07111 -0.23769
 H633 H 0.59206 0.10273 -0.28865
 C634 C 1.17920 0.49334 -0.34651
 C635 C 1.18849 0.50720 -0.40060
 C636 C 1.20477 0.50678 -0.43751
 C637 C 1.21198 0.49219 -0.42223
 C638 C 1.20327 0.47902 -0.36604
 C639 C 1.18703 0.47951 -0.32902
 C640 C 1.16095 0.49287 -0.30986
 C641 C 1.14344 0.47316 -0.28899
 C642 C 1.12579 0.47254 -0.25721
 C643 C 1.12521 0.49160 -0.24579
 C644 C 1.14283 0.51134 -0.26580
 C645 C 1.16052 0.51197 -0.29736
 C646 C 1.10602 0.49079 -0.21476
 C647 C 1.09755 0.50335 -0.23982
 C648 C 1.07902 0.50203 -0.21223
 C649 C 1.06863 0.48820 -0.15884
 C650 C 1.07722 0.47586 -0.13311
 C651 C 1.09570 0.47710 -0.16093
 H652 H 1.18285 0.51807 -0.41544
 H653 H 1.21174 0.51799 -0.47813
 H654 H 1.20824 0.46752 -0.35231
 H655 H 1.18047 0.46890 -0.28687
 H656 H 1.14308 0.45812 -0.29887
 H657 H 1.11232 0.45707 -0.24322
 H658 H 1.14296 0.52631 -0.25677
 H659 H 1.17391 0.52744 -0.31183
 H660 H 1.10501 0.51386 -0.28173
 H661 H 1.07277 0.51176 -0.23298
 H662 H 1.06958 0.46514 -0.09177
 H663 H 1.10200 0.46742 -0.14012
 C664 C 0.50098 0.68196 -0.34916
 C665 C 0.51689 0.70314 -0.33349
 C666 C 0.51827 0.72055 -0.36864
 C667 C 0.50375 0.71712 -0.42004
 C668 C 0.48723 0.69605 -0.43374
 C669 C 0.48598 0.67861 -0.39904
 C670 C 0.50066 0.66343 -0.31552
 C671 C 0.49817 0.64571 -0.35227
 C672 C 0.49897 0.62870 -0.32132
 C673 C 0.50215 0.62895 -0.25280
 C674 C 0.50429 0.64656 -0.21593
 C675 C 0.50364 0.66366 -0.24701
 C676 C 0.50369 0.61114 -0.22034
 C677 C 0.51851 0.61544 -0.16893
 C678 C 0.52044 0.59877 -0.13991
 C679 C 0.50772 0.57748 -0.16201
 C680 C 0.49275 0.57310 -0.21282
 C681 C 0.49070 0.58972 -0.24151
 H682 H 0.52875 0.70617 -0.29563
 H683 H 0.53113 0.73668 -0.35726
 H684 H 0.47564 0.69310 -0.47246
 H685 H 0.47337 0.66247 -0.41144
 H686 H 0.49621 0.64529 -0.40531
 H687 H 0.49767 0.61561 -0.35142
 H688 H 0.50637 0.64710 -0.16296
 H689 H 0.50538 0.67703 -0.21745
 H690 H 0.52898 0.63176 -0.15205
 H691 H 0.53214 0.60260 -0.10088
 H692 H 0.48259 0.55679 -0.23041
 H693 H 0.47885 0.58577 -0.28011
 C694 C 0.31699 -0.18023 -0.35382
 C695 C 0.32096 -0.19206 -0.40158
 C696 C 0.30390 -0.20864 -0.43633
 C697 C 0.28259 -0.21343 -0.42483
 C698 C 0.27853 -0.20208 -0.37568
 C699 C 0.29559 -0.18563 -0.34045
 C700 C 0.33517 -0.16184 -0.31966
 C701 C 0.33439 -0.15886 -0.25147
 C702 C 0.35137 -0.14119 -0.21982
 C703 C 0.36942 -0.12604 -0.25581
 C704 C 0.37015 -0.12912 -0.32408
 C705 C 0.35326 -0.14685 -0.35556
 C706 C 0.38730 -0.10694 -0.22271
 C707 C 0.40882 -0.09907 -0.24235
 C708 C 0.42555 -0.08066 -0.21305
 C709 C 0.42117 -0.06980 -0.16308
 C710 C 0.39977 -0.07782 -0.14244
 C711 C 0.38299 -0.09615 -0.17212
 H712 H 0.33728 -0.18846 -0.41210
 H713 H 0.30734 -0.21749 -0.47312
 H714 H 0.26221 -0.20555 -0.36594
 H715 H 0.29209 -0.17667 -0.30420
 H716 H 0.32072 -0.17031 -0.22254
 H717 H 0.35044 -0.13952 -0.16704
 H718 H 0.38357 -0.11756 -0.35357
 H719 H 0.35411 -0.14857 -0.40838
 H720 H 0.41277 -0.10721 -0.28022
 H721 H 0.44194 -0.07494 -0.22950
 H722 H 0.39595 -0.06972 -0.10407
 H723 H 0.36660 -0.10158 -0.15639
 C724 C 0.50646 -0.17992 0.35320
 C725 C 0.52214 -0.18589 0.34085
 C726 C 0.52235 -0.20238 0.37707
 C727 C 0.50688 -0.21326 0.42633
 C728 C 0.49069 -0.20794 0.43704
 C729 C 0.49058 -0.19132 0.40124
 C730 C 0.50706 -0.16147 0.31752
 C731 C 0.48787 -0.16195 0.29890
 C732 C 0.48853 -0.14427 0.26732
 C733 C 0.50838 -0.12581 0.25320
 C734 C 0.52755 -0.12541 0.27105
 C735 C 0.52690 -0.14299 0.30307
 C736 C 0.50915 -0.10683 0.22118
 C737 C 0.52399 -0.09583 0.17037
 C738 C 0.52515 -0.07754 0.14158
 C739 C 0.51164 -0.06979 0.16351
 C740 C 0.49668 -0.08087 0.21392
 C741 C 0.49538 -0.09927 0.24230
 H742 H 0.53433 -0.17777 0.30330
 H743 H 0.53490 -0.20632 0.36771
 H744 H 0.47843 -0.21633 0.47423
 H745 H 0.47839 -0.18703 0.41250
 H746 H 0.47233 -0.17605 0.30829
 H747 H 0.47351 -0.14510 0.25337
 H748 H 0.54306 -0.11126 0.26166
 H749 H 0.54197 -0.14188 0.31787
 H750 H 0.53463 -0.10144 0.15271
 H751 H 0.53679 -0.06934 0.10265
 H752 H 0.48603 -0.07528 0.23165
 H753 H 0.48393 -0.10733 0.28178
 C754 C 0.31191 0.49083 0.34955
 C755 C 0.30817 0.50825 0.34263
 C756 C 0.29211 0.50911 0.37967
 C757 C 0.27963 0.49267 0.42470
 C758 C 0.28289 0.47495 0.43027
 C759 C 0.29893 0.47409 0.39331
 C760 C 0.32966 0.49038 0.31281
 C761 C 0.32684 0.47103 0.28605
 C762 C 0.34388 0.47044 0.25421
 C763 C 0.36414 0.48919 0.24848
 C764 C 0.36685 0.50861 0.27424
 C765 C 0.34980 0.50920 0.30602
 C766 C 0.38254 0.48836 0.21743
 C767 C 0.40329 0.49980 0.24516
 C768 C 0.42053 0.49865 0.21713
 C769 C 0.41742 0.48601 0.16081
 C770 C 0.39676 0.47470 0.13265
 C771 C 0.37949 0.47584 0.16071
 H772 H 0.31767 0.52123 0.30859
 H773 H 0.28972 0.52283 0.37430
 H774 H 0.27324 0.46196 0.46412
 H775 H 0.30153 0.46056 0.40024
 H776 H 0.31144 0.45631 0.28986
 H777 H 0.34133 0.45519 0.23541
 H778 H 0.38218 0.52338 0.26992
 H779 H 0.35256 0.52432 0.32667
 H780 H 0.40611 0.50934 0.28936
 H781 H 0.43628 0.50753 0.23993
 H782 H 0.39393 0.46491 0.08901
 H783 H 0.36376 0.46706 0.13774
 C784 C 1.17874 0.68508 0.35519
 C785 C 1.17502 0.69786 0.40000
 C786 C 1.19210 0.71429 0.43507
 C787 C 1.21322 0.71817 0.42636
 C788 C 1.21708 0.70573 0.38079
 C789 C 1.19998 0.68925 0.34571
 C790 C 1.16047 0.66728 0.31924
 C791 C 1.15938 0.64725 0.31144
 C792 C 1.14180 0.63027 0.27955
 C793 C 1.12495 0.63295 0.25457
 C794 C 1.12619 0.65307 0.26162
 C795 C 1.14373 0.67003 0.29366
 C796 C 1.10595 0.61475 0.22246
 C797 C 1.09670 0.61816 0.16585
 C798 C 1.07844 0.60111 0.13677
 C799 C 1.06903 0.58032 0.16381
 C800 C 1.07837 0.57683 0.21997
 C801 C 1.09664 0.59386 0.24898
 H802 H 1.15883 0.69491 0.40887
 H803 H 1.18883 0.72389 0.46949
 H804 H 1.23329 0.70856 0.37318
 H805 H 1.20337 0.67985 0.31089
 H806 H 1.17193 0.64458 0.33116
 H807 H 1.14141 0.61503 0.27427
 H808 H 1.11336 0.65558 0.24348
 H809 H 1.14422 0.68533 0.29830
 H810 H 1.10367 0.63400 0.14378
 H811 H 1.07164 0.60424 0.09329
 H812 H 1.07145 0.56096 0.24187
 H813 H 1.10323 0.59077 0.29301
 C814 C 0.49545 0.17918 0.35109
 C815 C 0.48034 0.18579 0.33728
 C816 C 0.48022 0.20232 0.37362
 C817 C 0.49521 0.21260 0.42448
 C818 C 0.51090 0.20668 0.43659
 C819 C 0.51091 0.19002 0.40066
 C820 C 0.49464 0.16063 0.31539
 C821 C 0.51371 0.16060 0.29848
 C822 C 0.51282 0.14280 0.26696
 C823 C 0.49287 0.12471 0.25122
 C824 C 0.47382 0.12483 0.26731
 C825 C 0.47469 0.14254 0.29924
 C826 C 0.49184 0.10555 0.21951
 C827 C 0.47730 0.09486 0.16776
 C828 C 0.47590 0.07642 0.13926
 C829 C 0.48888 0.06821 0.16239
 C830 C 0.50354 0.07897 0.21376
 C831 C 0.50506 0.09750 0.24187
 H832 H 0.46850 0.17811 0.29856
 H833 H 0.46808 0.20674 0.36313
 H834 H 0.52280 0.21461 0.47506
 H835 H 0.52266 0.18524 0.41302
 H836 H 0.52934 0.17439 0.30921
 H837 H 0.52776 0.14324 0.25438
 H838 H 0.45821 0.11097 0.25668
 H839 H 0.45968 0.14182 0.31268
 H840 H 0.46707 0.10085 0.14913
 H841 H 0.46451 0.06849 0.09956
 H842 H 0.51379 0.07302 0.23244
 H843 H 0.51626 0.10529 0.28209
 C844 C 0.68560 0.50899 0.35653
 C845 C 0.68156 0.49276 0.40280
 C846 C 0.69850 0.49306 0.43797
 C847 C 0.71980 0.50979 0.42859
 C848 C 0.72396 0.52569 0.38125
 C849 C 0.70705 0.52529 0.34554
 C850 C 0.66749 0.50921 0.32105
 C851 C 0.66809 0.52880 0.30798
 C852 C 0.65093 0.52904 0.27586
 C853 C 0.63268 0.50971 0.25662
 C854 C 0.63203 0.49012 0.26947
 C855 C 0.64928 0.48987 0.30104
 C856 C 0.61427 0.51003 0.22420
 C857 C 0.59301 0.49580 0.24449
 C858 C 0.57569 0.49661 0.21549
 C859 C 0.57930 0.51151 0.16518
 C860 C 0.60052 0.52550 0.14412
 C861 C 0.61785 0.52485 0.17361
 H862 H 0.66525 0.48009 0.41304
 H863 H 0.69495 0.48043 0.47352
 H864 H 0.74028 0.53866 0.37283
 H865 H 0.71081 0.53778 0.30934
 H866 H 0.68163 0.54396 0.32384
 H867 H 0.65172 0.54435 0.26740
 H868 H 0.61824 0.47500 0.25443
 H869 H 0.64842 0.47452 0.30926
 H870 H 0.58982 0.48434 0.28376
 H871 H 0.55949 0.48559 0.23254
 H872 H 0.60375 0.53712 0.10532
 H873 H 0.63406 0.53585 0.15662
 C874 C 0.81945 0.31624 0.35360
 C875 C 0.81419 0.29496 0.33940
 C876 C 0.79795 0.27776 0.37477
 C877 C 0.78669 0.28154 0.42490
 C878 C 0.79127 0.30272 0.43708
 C879 C 0.80764 0.31993 0.40220
 C880 C 0.83774 0.33458 0.31960
 C881 C 0.85277 0.35256 0.35580
 C882 C 0.87048 0.36954 0.32449
 C883 C 0.87351 0.36903 0.25610
 C884 C 0.85830 0.35111 0.21980
 C885 C 0.84066 0.33403 0.25127
 C886 C 0.89265 0.38695 0.22321
 C887 C 0.90341 0.38274 0.17222
 C888 C 0.92180 0.39954 0.14278
 C889 C 0.92991 0.42086 0.16404
 C890 C 0.91908 0.42514 0.21439
 C891 C 0.90061 0.40839 0.24348
 H892 H 0.82312 0.29167 0.30249
 H893 H 0.79463 0.26154 0.36449
 H894 H 0.78249 0.30596 0.47468
 H895 H 0.81115 0.33615 0.41338
 H896 H 0.85111 0.35323 0.40872
 H897 H 0.88207 0.38286 0.35420
 H898 H 0.85994 0.35034 0.16694
 H899 H 0.82919 0.32046 0.22211
 H900 H 0.89791 0.36641 0.15601
 H901 H 0.92986 0.39579 0.10411
 H902 H 0.92487 0.44147 0.23133
 H903 H 0.89251 0.41226 0.28169
   
