data_POSCAR
  _audit_creation_date              2014-09-24
  _audit_creation_method            'ToBaCCo'
  _symmetry_space_group_name_H-M    'P1'
  _symmetry_Int_Tables_number       1
  _symmetry_cell_setting            triclinic
  loop_
  _symmetry_equiv_pos_as_xyz
 x,y,z
_cell_length_a 45.2454
_cell_length_b 45.2737
_cell_length_c 19.4963
_cell_angle_alpha 90.117900
_cell_angle_beta 90.290500
_cell_angle_gamma 120.333900
loop_
  _atom_site_label
  _atom_site_type_symbol
  _atom_site_fract_x
  _atom_site_fract_y
  _atom_site_fract_z
C1 C 0.30567 0.43076 0.54626
 C2 C 0.30725 0.43275 0.47605
 C3 C 0.28416 0.44263 0.45553
 N4 N 0.26831 0.44643 0.51052
 C5 C 0.28159 0.43938 0.56606
 C6 C 0.28120 0.45238 0.38843
 C7 C 0.25511 0.45908 0.36898
 C8 C 0.25644 0.47830 0.31261
 C9 C 0.22589 0.47786 0.31040
 C10 C 0.20645 0.45782 0.36479
 N11 N 0.22465 0.44675 0.40068
 C12 C 0.17257 0.44959 0.38007
 C13 C 0.15926 0.43860 0.44666
 C14 C 0.12477 0.42057 0.46283
 C15 C 0.12298 0.41792 0.53283
 C16 C 0.15645 0.43448 0.55715
 N17 N 0.17868 0.44663 0.50433
 C18 C 0.16610 0.44130 0.62719
 C19 C 0.19874 0.44770 0.64976
 C20 C 0.21486 0.46363 0.71095
 C21 C 0.24564 0.46442 0.71302
 C22 C 0.24786 0.44954 0.65259
 N23 N 0.21916 0.43927 0.61445
 C24 C 0.27579 0.44548 0.63426
 H25 H 0.32127 0.42480 0.57919
 H26 H 0.32429 0.42862 0.44396
 H27 H 0.21273 0.42515 0.56897
 H28 H 0.27746 0.49171 0.27732
 H29 H 0.21905 0.49119 0.27332
 H30 H 0.10318 0.41064 0.42778
 H31 H 0.09973 0.40573 0.56270
 H32 H 0.26458 0.47545 0.75368
 H33 H 0.21560 0.42923 0.44083
 H34 H 0.20589 0.47437 0.74961
 C35 C 0.53018 -0.31795 0.52971
 C36 C 0.53012 -0.31766 0.45957
 C37 C 0.54770 -0.28361 0.44000
 N38 N 0.55855 -0.26299 0.49604
 C39 C 0.54822 -0.28405 0.55110
 C40 C 0.55350 -0.27222 0.37102
 C41 C 0.55727 -0.24004 0.35298
 C42 C 0.56861 -0.22372 0.29025
 C43 C 0.56560 -0.19491 0.29221
 C44 C 0.55343 -0.19387 0.35662
 N45 N 0.54845 -0.22135 0.39331
 C46 C 0.54550 -0.16899 0.37908
 C47 C 0.54251 -0.16297 0.44890
 C48 C 0.52986 -0.14275 0.47343
 C49 C 0.53424 -0.14099 0.54318
 C50 C 0.54934 -0.16023 0.55871
 N51 N 0.55447 -0.17358 0.50106
 C52 C 0.55966 -0.16407 0.62472
 C53 C 0.56777 -0.18958 0.63960
 C54 C 0.58401 -0.19096 0.69892
 C55 C 0.58276 -0.22194 0.69777
 C56 C 0.56558 -0.23856 0.63794
 N57 N 0.55707 -0.21845 0.60226
 C58 C 0.55500 -0.27279 0.62043
 H59 H 0.51754 -0.34065 0.56110
 H60 H 0.51758 -0.34000 0.42660
 H61 H 0.54049 -0.22630 0.56022
 H62 H 0.57788 -0.23178 0.24720
 H63 H 0.57188 -0.17666 0.25115
 H64 H 0.51882 -0.13037 0.44413
 H65 H 0.52703 -0.12721 0.57832
 H66 H 0.59249 -0.23159 0.73733
 H67 H 0.53628 -0.22876 0.44054
 H68 H 0.59472 -0.17206 0.73963
 C69 C 1.12250 0.69597 0.46038
 C70 C 1.12518 0.69533 0.53037
 C71 C 1.15983 0.71438 0.54617
 N72 N 1.17829 0.72746 0.48847
 C73 C 1.15550 0.71595 0.43609
 C74 C 1.17459 0.71704 0.61170
 C75 C 1.20885 0.74304 0.62522
 C76 C 1.22983 0.74178 0.67589
 C77 C 1.26047 0.77201 0.67270
 C78 C 1.25745 0.79097 0.62016
 N79 N 1.22611 0.77292 0.59067
 C80 C 1.28289 0.82456 0.60167
 C81 C 1.28377 0.83672 0.53436
 C82 C 1.30080 0.87084 0.51523
 C83 C 1.29803 0.87131 0.44524
 C84 C 1.27935 0.83747 0.42382
 N85 N 1.27011 0.81630 0.47853
 C86 C 1.27307 0.82630 0.35446
 C87 C 1.24537 0.79332 0.33742
 C88 C 1.24219 0.77523 0.27753
 C89 C 1.21147 0.74495 0.28105
 C90 C 1.19695 0.74514 0.34331
 N91 N 1.21772 0.77462 0.37742
 C92 C 1.16478 0.71907 0.36659
 H93 H 1.09909 0.68263 0.43051
 H94 H 1.10411 0.68168 0.56544
 H95 H 1.21207 0.78266 0.42313
 H96 H 1.22398 0.72099 0.71074
 H97 H 1.28265 0.77898 0.70482
 H98 H 1.31398 0.89308 0.54828
 H99 H 1.30867 0.89397 0.41359
 H100 H 1.20129 0.72489 0.24256
 H101 H 1.21614 0.78186 0.55301
 H102 H 1.26033 0.78266 0.23603
 C103 C 0.85314 0.52504 0.52214
 C104 C 0.85389 0.52663 0.45184
 C105 C 0.83411 0.54074 0.43273
 N106 N 0.82138 0.54784 0.48890
 C107 C 0.83283 0.53810 0.54351
 C108 C 0.82922 0.54824 0.36471
 C109 C 0.80477 0.55775 0.34742
 C110 C 0.80349 0.57220 0.28568
 C111 C 0.77448 0.57487 0.28714
 C112 C 0.75877 0.56178 0.34959
 N113 N 0.77748 0.55159 0.38608
 C114 C 0.72611 0.55595 0.36835
 C115 C 0.71306 0.54702 0.43555
 C116 C 0.67873 0.53199 0.45228
 C117 C 0.67681 0.52819 0.52207
 C118 C 0.71012 0.54165 0.54606
 N119 N 0.73226 0.55293 0.49286
 C120 C 0.71994 0.54369 0.61597
 C121 C 0.75308 0.55019 0.63403
 C122 C 0.76913 0.56301 0.69686
 C123 C 0.79936 0.56277 0.69558
 C124 C 0.80113 0.55021 0.63178
 N125 N 0.77304 0.54295 0.59423
 C126 C 0.82647 0.54250 0.61242
 H127 H 0.86596 0.51525 0.55381
 H128 H 0.86739 0.51824 0.41873
 H129 H 0.76582 0.52961 0.54787
 H130 H 0.82129 0.57952 0.24355
 H131 H 0.76547 0.58446 0.24612
 H132 H 0.65719 0.52385 0.41765
 H133 H 0.65340 0.51626 0.55141
 H134 H 0.81773 0.57047 0.73726
 H135 H 0.76961 0.53713 0.43065
 H136 H 0.75983 0.57129 0.73953
 C137 C 0.43556 0.13297 0.47800
 C138 C 0.43072 0.12993 0.54754
 C139 C 0.44181 0.16259 0.57290
 N140 N 0.45248 0.18533 0.52084
 C141 C 0.44879 0.16723 0.46295
 C142 C 0.44433 0.17147 0.64342
 C143 C 0.44862 0.20350 0.66454
 C144 C 0.46083 0.21855 0.72832
 C145 C 0.46068 0.24874 0.72877
 C146 C 0.44936 0.25216 0.66449
 N147 N 0.44168 0.22420 0.62589
 C148 C 0.44407 0.27941 0.64495
 C149 C 0.43940 0.28591 0.57580
 C150 C 0.43170 0.31052 0.55417
 C151 C 0.43533 0.31272 0.48428
 C152 C 0.44560 0.28982 0.46532
 N153 N 0.44794 0.27340 0.52117
 C154 C 0.45625 0.28708 0.39878
 C155 C 0.46423 0.26168 0.38078
 C156 C 0.48245 0.26259 0.32303
 C157 C 0.48381 0.23294 0.32298
 C158 C 0.46632 0.21472 0.38063
 N159 N 0.45438 0.23233 0.41549
 C160 C 0.45998 0.18174 0.39754
 H161 H 0.43010 0.11237 0.44253
 H162 H 0.42059 0.10640 0.57629
 H163 H 0.43752 0.22316 0.45657
 H164 H 0.46936 0.20909 0.77035
 H165 H 0.46803 0.26601 0.77214
 H166 H 0.42538 0.32632 0.58527
 H167 H 0.43200 0.33011 0.45152
 H168 H 0.49618 0.22562 0.28469
 H169 H 0.42955 0.21816 0.57817
 H170 H 0.49370 0.28258 0.28492
 C171 C 0.68911 0.11741 0.48277
 C172 C 0.69026 0.12188 0.55250
 C173 C 0.71292 0.15635 0.56529
 N174 N 0.72603 0.17296 0.50571
 C175 C 0.71126 0.14919 0.45524
 C176 C 0.71895 0.17244 0.63052
 C177 C 0.74873 0.20459 0.64446
 C178 C 0.75299 0.22567 0.70012
 C179 C 0.78533 0.25374 0.69572
 C180 C 0.79976 0.24958 0.63672
 N181 N 0.77744 0.21950 0.60589
 C182 C 0.83278 0.27346 0.61273
 C183 C 0.84192 0.27475 0.54329
 C184 C 0.87430 0.29623 0.51720
 C185 C 0.87104 0.29403 0.44713
 C186 C 0.83689 0.27095 0.43292
 N187 N 0.81914 0.25909 0.49169
 C188 C 0.82181 0.26466 0.36712
 C189 C 0.78890 0.23680 0.35202
 C190 C 0.77083 0.23282 0.29166
 C191 C 0.74067 0.20207 0.29618
 C192 C 0.74108 0.18831 0.35937
 N193 N 0.77069 0.20941 0.39278
 C194 C 0.71481 0.15672 0.38450
 H195 H 0.67336 0.09363 0.45536
 H196 H 0.67569 0.10211 0.58963
 H197 H 0.77911 0.20401 0.43831
 H198 H 0.73456 0.22173 0.73938
 H199 H 0.79650 0.27528 0.73085
 H200 H 0.89755 0.31278 0.54564
 H201 H 0.89124 0.30843 0.41070
 H202 H 0.72053 0.19140 0.25779
 H203 H 0.78251 0.20861 0.56374
 H204 H 0.77847 0.25026 0.24880
 O205 O 0.97128 0.52257 -0.09545
 O206 O 1.02825 0.52630 0.12996
 O207 O 0.93770 0.49492 0.03620
 O208 O 1.08390 0.55422 -0.05876
 O209 O 0.96426 0.49538 0.12821
 O210 O 1.03580 0.55197 -0.09337
 O211 O 1.05179 0.55847 0.03914
 O212 O 0.92636 0.47317 -0.07916
 C213 C 0.93978 0.50268 -0.10400
 C214 C 1.04621 0.55561 0.10267
 C215 C 0.94334 0.50142 0.09842
 C216 C 1.06826 0.56473 -0.09994
 O217 O 1.03017 0.49322 -0.13967
 O218 O 0.96042 0.43653 0.08911
 O219 O 0.94735 0.43008 -0.05467
 O220 O 1.07029 0.51464 0.06423
 O221 O 1.02580 0.46723 0.09607
 O222 O 0.96820 0.46432 -0.14194
 O223 O 1.05509 0.48956 -0.04958
 O224 O 0.91262 0.43130 0.04198
 Co225 Co 1.00093 0.50712 -0.10916
 Co226 Co 0.99502 0.48233 0.10120
 Co227 Co 0.94633 0.46414 -0.00677
 Co228 Co 1.04957 0.52249 -0.00866
 O229 O 0.99780 0.49373 -0.00545
 C230 C 1.04873 0.48374 -0.11135
 C231 C 0.92758 0.42192 0.08710
 C232 C 0.95295 0.43435 -0.11758
 C233 C 1.05756 0.48708 0.09700
 O234 O 0.49925 0.46898 -0.12938
 O235 O 0.44946 0.48553 0.09180
 O236 O 0.52966 0.45022 0.06964
 O237 O 0.43969 0.49850 -0.03510
 O238 O 0.48248 0.45212 0.09352
 O239 O 0.46726 0.50266 -0.13091
 O240 O 0.44830 0.53316 0.06768
 O241 O 0.49420 0.44174 -0.03242
 C242 C 0.48984 0.44140 -0.09652
 C243 C 0.43695 0.50504 0.10331
 C244 C 0.50187 0.43951 0.10610
 C245 C 0.43959 0.49420 -0.09915
 O246 O 0.52713 0.56018 -0.10700
 O247 O 0.53773 0.50981 0.13779
 O248 O 0.55613 0.48388 -0.05913
 O249 O 0.51391 0.56975 0.04783
 O250 O 0.50675 0.54059 0.13755
 O251 O 0.55791 0.52811 -0.10579
 O252 O 0.48358 0.56012 -0.06048
 O253 O 0.56660 0.51553 0.04810
 Co254 Co 0.51235 0.51446 -0.10907
 Co255 Co 0.49485 0.49772 0.10536
 Co256 Co 0.52824 0.48026 0.01167
 Co257 Co 0.47843 0.53173 0.01034
 O258 O 0.50637 0.50894 -0.00212
 C259 C 0.50883 0.57338 -0.09979
 C260 C 0.56613 0.52109 0.10974
 C261 C 0.56993 0.50873 -0.09936
 C262 C 0.51849 0.56913 0.10988
 O263 O 0.54776 0.03322 -0.10863
 O264 O 0.48181 -0.03548 0.14236
 O265 O 0.55693 0.05158 0.04720
 O266 O 0.51176 -0.05544 -0.04650
 O267 O 0.52750 0.02540 0.13592
 O268 O 0.51255 -0.02781 -0.13643
 O269 O 0.50754 -0.04822 0.06966
 O270 O 0.54573 0.07423 -0.05893
 C271 C 0.56070 0.06434 -0.09817
 C272 C 0.49992 -0.04803 0.12939
 C273 C 0.55603 0.04329 0.10817
 C274 C 0.51914 -0.04810 -0.10718
 O275 O 0.45726 -0.02538 -0.13961
 O276 O 0.47941 0.04046 0.09494
 O277 O 0.48201 0.05143 -0.02407
 O278 O 0.43934 -0.06649 0.05327
 O279 O 0.43815 -0.02088 0.08400
 O280 O 0.49116 0.03831 -0.12453
 O281 O 0.44774 -0.06887 -0.07270
 O282 O 0.52702 0.08577 0.06394
 Co283 Co 0.50178 0.00458 -0.11559
 Co284 Co 0.48337 0.00222 0.10313
 Co285 Co 0.51848 0.04905 0.01238
 Co286 Co 0.47786 -0.05490 0.00135
 O287 O 0.49550 -0.00183 -0.00494
 C288 C 0.43991 -0.05647 -0.12336
 C289 C 0.50162 0.07156 0.10711
 C290 C 0.47853 0.05150 -0.08730
 C291 C 0.42337 -0.05260 0.07715
 C292 C 1.11458 0.46632 0.22931
 C293 C 1.13338 0.45079 0.21077
 C294 C 1.15215 0.44476 0.26044
 C295 C 1.15246 0.45425 0.32965
 C296 C 1.13293 0.46947 0.34741
 C297 C 1.11427 0.47544 0.29773
 C298 C 1.09543 0.47310 0.17890
 C299 C 1.07865 0.47931 0.13957
 H300 H 1.13356 0.44334 0.15800
 H301 H 1.16602 0.43218 0.24485
 H302 H 1.13305 0.47799 0.39942
 H303 H 1.09985 0.48756 0.31264
 C304 C 0.54726 0.65431 0.22694
 C305 C 0.56687 0.66111 0.28669
 C306 C 0.57016 0.68641 0.33252
 C307 C 0.55370 0.70538 0.31980
 C308 C 0.53527 0.69927 0.25773
 C309 C 0.53201 0.67388 0.21197
 C310 C 0.53987 0.62515 0.18461
 C311 C 0.53154 0.59987 0.15025
 H312 H 0.57876 0.64614 0.29900
 H313 H 0.58517 0.69075 0.37886
 H314 H 0.52139 0.71241 0.24656
 H315 H 0.51640 0.66857 0.16621
 C316 C 0.34281 -0.11142 0.20003
 C317 C 0.35466 -0.11402 0.26481
 C318 C 0.33172 -0.13423 0.31544
 C319 C 0.29610 -0.15247 0.30266
 C320 C 0.28441 -0.14946 0.23705
 C321 C 0.30759 -0.12911 0.18618
 C322 C 0.36769 -0.09101 0.14885
 C323 C 0.39154 -0.07350 0.11189
 H324 H 0.38188 -0.10070 0.27602
 H325 H 0.34209 -0.13651 0.36403
 H326 H 0.25727 -0.16234 0.22540
 H327 H 0.29807 -0.12724 0.13625
 C328 C 0.88944 0.53326 0.21383
 C329 C 0.90557 0.55907 0.26352
 C330 C 0.88599 0.56508 0.31084
 C331 C 0.85004 0.54515 0.30925
 C332 C 0.83400 0.52021 0.25769
 C333 C 0.85360 0.51426 0.21036
 C334 C 0.90939 0.52406 0.17063
 C335 C 0.92539 0.51470 0.13648
 H336 H 0.93325 0.57381 0.26706
 H337 H 0.89881 0.58443 0.35023
 H338 H 0.80635 0.50448 0.25581
 H339 H 0.84080 0.49407 0.17250
 C340 C 0.47625 0.36397 0.24749
 C341 C 0.45053 0.32994 0.23582
 C342 C 0.44362 0.30496 0.28544
 C343 C 0.46235 0.31380 0.34724
 C344 C 0.48799 0.34798 0.35873
 C345 C 0.49484 0.37290 0.30921
 C346 C 0.48417 0.38977 0.19608
 C347 C 0.49172 0.41204 0.15420
 H348 H 0.43602 0.32268 0.18826
 H349 H 0.42389 0.27870 0.27555
 H350 H 0.50292 0.35522 0.40575
 H351 H 0.51486 0.39909 0.31878
 C352 C 0.63669 0.09105 0.23986
 C353 C 0.67066 0.09930 0.22975
 C354 C 0.69606 0.11993 0.27770
 C355 C 0.68771 0.13256 0.33598
 C356 C 0.65351 0.12375 0.34604
 C357 C 0.62823 0.10310 0.29845
 C358 C 0.61039 0.07220 0.18913
 C359 C 0.58653 0.05792 0.14974
 H360 H 0.67759 0.09036 0.18441
 H361 H 0.72232 0.12658 0.26883
 H362 H 0.64655 0.13355 0.39002
 H363 H 0.60212 0.09717 0.30658
 C364 C 0.45222 0.10772 -0.20649
 C365 C 0.46987 0.11444 -0.26844
 C366 C 0.46684 0.13496 -0.31791
 C367 C 0.44589 0.14929 -0.30680
 C368 C 0.42785 0.14202 -0.24427
 C369 C 0.43104 0.12140 -0.19449
 C370 C 0.45744 0.08748 -0.15610
 C371 C 0.46515 0.07070 -0.12013
 H372 H 0.48659 0.10424 -0.27814
 H373 H 0.48202 0.14066 -0.36399
 H374 H 0.41107 0.15207 -0.23415
 H375 H 0.41719 0.11635 -0.14674
 C376 C 0.64794 0.52765 -0.22863
 C377 C 0.65211 0.54880 -0.28437
 C378 C 0.67612 0.55455 -0.33507
 C379 C 0.69642 0.53907 -0.33122
 C380 C 0.69249 0.51844 -0.27375
 C381 C 0.66836 0.51270 -0.22313
 C382 C 0.62164 0.52041 -0.17910
 C383 C 0.59859 0.51472 -0.14059
 H384 H 0.63654 0.56066 -0.28898
 H385 H 0.67909 0.57147 -0.37700
 H386 H 0.70716 0.50563 -0.26923
 H387 H 0.66523 0.49612 -0.18041
 C388 C 0.90058 0.35442 -0.25002
 C389 C 0.88861 0.36184 -0.31015
 C390 C 0.86684 0.33553 -0.35485
 C391 C 0.85688 0.30138 -0.34024
 C392 C 0.86903 0.29399 -0.27998
 C393 C 0.89080 0.32042 -0.23504
 C394 C 0.92100 0.38170 -0.20227
 C395 C 0.93665 0.40539 -0.16315
 H396 H 0.89564 0.38796 -0.32192
 H397 H 0.85739 0.34172 -0.40055
 H398 H 0.86143 0.26779 -0.26764
 H399 H 0.89959 0.31431 -0.18831
 C400 C 0.55171 -0.10089 -0.22193
 C401 C 0.57540 -0.08573 -0.27495
 C402 C 0.57948 -0.10629 -0.32312
 C403 C 0.55962 -0.14211 -0.31882
 C404 C 0.53711 -0.15708 -0.26369
 C405 C 0.53317 -0.13654 -0.21549
 C406 C 0.54310 -0.08050 -0.17928
 C407 C 0.53342 -0.06482 -0.14540
 H408 H 0.58963 -0.05817 -0.28067
 H409 H 0.59694 -0.09438 -0.36542
 H410 H 0.52146 -0.18466 -0.25987
 H411 H 0.51454 -0.14849 -0.17500
 C412 C 0.35571 0.46615 -0.22001
 C413 C 0.36221 0.48734 -0.27687
 C414 C 0.33603 0.48075 -0.32337
 C415 C 0.30291 0.45276 -0.31386
 C416 C 0.29622 0.43179 -0.25617
 C417 C 0.32259 0.43844 -0.20942
 C418 C 0.38353 0.47341 -0.17364
 C419 C 0.40839 0.48164 -0.13790
 H420 H 0.38766 0.50891 -0.28550
 H421 H 0.34161 0.49734 -0.36728
 H422 H 0.27081 0.41013 -0.24800
 H423 H 0.31723 0.42193 -0.16547
 C424 C 1.12074 0.64148 -0.23700
 C425 C 1.13955 0.67605 -0.21825
 C426 C 1.15710 0.70104 -0.26807
 C427 C 1.15604 0.69186 -0.33770
 C428 C 1.13686 0.65683 -0.35555
 C429 C 1.11941 0.63199 -0.30570
 C430 C 1.10282 0.61545 -0.18627
 C431 C 1.08735 0.59276 -0.14570
 H432 H 1.14066 0.68369 -0.16517
 H433 H 1.17106 0.72766 -0.25229
 H434 H 1.13629 0.64843 -0.40784
 H435 H 1.10513 0.60526 -0.32073
 C436 C 0.88427 0.52738 -0.23118
 C437 C 0.90108 0.55387 -0.27858
 C438 C 0.88229 0.55922 -0.32908
 C439 C 0.84657 0.53797 -0.33263
 C440 C 0.82981 0.51184 -0.28420
 C441 C 0.84861 0.50655 -0.23373
 C442 C 0.90374 0.51987 -0.18331
 C443 C 0.92010 0.51254 -0.14548
 H444 H 0.92871 0.56994 -0.27726
 H445 H 0.89553 0.57957 -0.36593
 H446 H 0.80227 0.49522 -0.28636
 H447 H 0.83543 0.48582 -0.19762
 C448 C 0.46040 0.35624 -0.21205
 C449 C 0.42734 0.33438 -0.23770
 C450 C 0.42157 0.30836 -0.28421
 C451 C 0.44889 0.30409 -0.30537
 C452 C 0.48189 0.32606 -0.27884
 C453 C 0.48754 0.35185 -0.23239
 C454 C 0.46761 0.38474 -0.16841
 C455 C 0.47633 0.40997 -0.13405
 H456 H 0.40624 0.33780 -0.22266
 H457 H 0.39596 0.29177 -0.30418
 H458 H 0.50343 0.32366 -0.29529
 H459 H 0.51327 0.36888 -0.21341
 C460 C 0.64172 0.12467 -0.21925
 C461 C 0.63315 0.12801 -0.28657
 C462 C 0.65863 0.14385 -0.33575
 C463 C 0.69336 0.15676 -0.31856
 C464 C 0.70174 0.15367 -0.25012
 C465 C 0.67605 0.13761 -0.20092
 C466 C 0.61469 0.10561 -0.17127
 C467 C 0.59065 0.08783 -0.13528
 H468 H 0.60662 0.11793 -0.30136
 H469 H 0.65116 0.14644 -0.38728
 H470 H 0.72805 0.16267 -0.23522
 H471 H 0.68290 0.13472 -0.14906
 C472 C 1.10054 0.45336 -0.23497
 C473 C 1.10515 0.46610 -0.30161
 C474 C 1.12642 0.46179 -0.34681
 C475 C 1.14366 0.44448 -0.32647
 C476 C 1.13838 0.43126 -0.25924
 C477 C 1.11704 0.43577 -0.21382
 C478 C 1.08082 0.46092 -0.18799
 C479 C 1.06533 0.46987 -0.15150
 H480 H 1.09291 0.48020 -0.31822
 H481 H 1.13043 0.47328 -0.39710
 H482 H 1.15042 0.41710 -0.24201
 H483 H 1.11373 0.42591 -0.16213
 C484 C 0.53444 0.65413 -0.22471
 C485 C 0.55296 0.65514 -0.28275
 C486 C 0.56060 0.67976 -0.33312
 C487 C 0.54963 0.70373 -0.32643
 C488 C 0.53204 0.70314 -0.26628
 C489 C 0.52438 0.67840 -0.21604
 C490 C 0.52461 0.62701 -0.17621
 C491 C 0.51682 0.60308 -0.13898
 H492 H 0.56106 0.63653 -0.28959
 H493 H 0.57514 0.68009 -0.37738
 H494 H 0.52273 0.72079 -0.25956
 H495 H 0.50992 0.67772 -0.17132
 C496 C 0.36042 -0.11553 -0.25231
 C497 C 0.36885 -0.11564 -0.32117
 C498 C 0.34333 -0.13492 -0.36948
 C499 C 0.30871 -0.15459 -0.34979
 C500 C 0.30061 -0.15388 -0.28010
 C501 C 0.32625 -0.13452 -0.23190
 C502 C 0.38712 -0.09570 -0.20325
 C503 C 0.41058 -0.07834 -0.16482
 H504 H 0.39528 -0.10108 -0.33748
 H505 H 0.35095 -0.13544 -0.42184
 H506 H 0.27430 -0.16797 -0.26299
 H507 H 0.31941 -0.13439 -0.17877
 C508 C 0.52420 -0.10504 0.25255
 C509 C 0.55483 -0.09078 0.29014
 C510 C 0.56298 -0.11194 0.32791
 C511 C 0.54055 -0.14754 0.32831
 C512 C 0.51057 -0.16182 0.28836
 C513 C 0.50244 -0.14063 0.25058
 C514 C 0.51545 -0.08339 0.21419
 C515 C 0.50815 -0.06628 0.17853
 H516 H 0.57204 -0.06333 0.29130
 H517 H 0.58603 -0.10053 0.35913
 H518 H 0.49282 -0.18916 0.28888
 H519 H 0.47889 -0.15193 0.22092
 C520 C 0.35985 0.47676 0.24040
 C521 C 0.32632 0.45042 0.22683
 C522 C 0.30076 0.44193 0.27564
 C523 C 0.30862 0.45971 0.33838
 C524 C 0.34235 0.48592 0.35183
 C525 C 0.36784 0.49434 0.30309
 C526 C 0.38618 0.48610 0.19019
 C527 C 0.40895 0.49452 0.14951
 H528 H 0.31991 0.43669 0.17844
 H529 H 0.27481 0.42182 0.26437
 H530 H 0.34874 0.50015 0.39961
 H531 H 0.39371 0.51478 0.31399
 C532 C 1.09904 0.63742 0.22958
 C533 C 1.11171 0.63066 0.28942
 C534 C 1.13296 0.65730 0.33373
 C535 C 1.14173 0.69111 0.31891
 C536 C 1.12886 0.69785 0.25892
 C537 C 1.10758 0.67105 0.21430
 C538 C 1.07880 0.60969 0.18301
 C539 C 1.06306 0.58539 0.14559
 H540 H 1.10552 0.60480 0.30140
 H541 H 1.14286 0.65163 0.37942
 H542 H 1.13541 0.72378 0.24670
 H543 H 1.09810 0.67655 0.16779
 C544 C 0.48183 0.12642 0.24653
 C545 C 0.49963 0.13566 0.30910
 C546 C 0.49233 0.15348 0.35834
 C547 C 0.46711 0.16219 0.34549
 C548 C 0.44926 0.15280 0.28270
 C549 C 0.45660 0.13497 0.23343
 C550 C 0.48913 0.10769 0.19638
 C551 C 0.49506 0.09154 0.15512
 H552 H 0.51913 0.12909 0.31978
 H553 H 0.50645 0.16068 0.40637
 H554 H 0.42972 0.15931 0.27202
 H555 H 0.44261 0.12783 0.18524
 C556 C 0.65202 0.55055 0.22365
 C557 C 0.66674 0.53004 0.21482
 C558 C 0.69218 0.53304 0.25995
 C559 C 0.70319 0.55666 0.31436
 C560 C 0.68944 0.57827 0.32117
 C561 C 0.66383 0.57513 0.27610
 C562 C 0.62254 0.54355 0.18309
 C563 C 0.59700 0.53488 0.14955
 H564 H 0.65757 0.51074 0.17473
 H565 H 0.70220 0.51592 0.25434
 H566 H 0.69753 0.59652 0.36310
 H567 H 0.65242 0.59093 0.28369
 C568 C 0.87322 0.34201 0.21528
 C569 C 0.86866 0.30934 0.20467
 C570 C 0.85186 0.28386 0.25398
 C571 C 0.83969 0.29110 0.31408
 C572 C 0.84419 0.32383 0.32408
 C573 C 0.86090 0.34915 0.27494
 C574 C 0.89160 0.36890 0.16681
 C575 C 0.90762 0.39260 0.12890
 H576 H 0.87829 0.30367 0.15872
 H577 H 0.84849 0.25868 0.24565
 H578 H 0.83476 0.32969 0.37007
 H579 H 0.86443 0.37439 0.28368
   
