data_POSCAR
  _audit_creation_date              2014-09-24
  _audit_creation_method            'ToBaCCo'
  _symmetry_space_group_name_H-M    'P1'
  _symmetry_Int_Tables_number       1
  _symmetry_cell_setting            triclinic
  loop_
  _symmetry_equiv_pos_as_xyz
 x,y,z
_cell_length_a 27.1476
_cell_length_b 27.1654
_cell_length_c 62.2773
_cell_angle_alpha 91.216600
_cell_angle_beta 89.381500
_cell_angle_gamma 120.048800
loop_
  _atom_site_label
  _atom_site_type_symbol
  _atom_site_fract_x
  _atom_site_fract_y
  _atom_site_fract_z
C1 C 0.00967 0.05047 0.53879
 H2 H 0.02520 0.02424 0.54529
 C3 C 0.01047 0.09357 0.55160
 H4 H 0.02510 0.09904 0.56805
 C5 C -0.02441 0.07807 0.50913
 H6 H -0.03572 0.07311 0.49230
 C7 C -0.02491 0.12142 0.52149
 H8 H -0.03732 0.14938 0.51416
 N9 N -0.00712 0.04380 0.51792
 C10 C 0.06788 -0.05858 0.51505
 H11 H 0.10135 -0.03228 0.50399
 C12 C 0.07231 -0.09927 0.52705
 H13 H 0.10954 -0.10379 0.52517
 C14 C -0.02291 -0.08716 0.53008
 H15 H -0.06023 -0.08255 0.53094
 C16 C -0.02012 -0.12782 0.54239
 H17 H -0.05509 -0.15345 0.55306
 Zn18 Zn 0.00564 -0.00561 0.49991
 N19 N 0.02061 -0.05351 0.51681
 C20 C 0.11891 0.07701 0.49038
 N21 N 0.06674 0.04163 0.48173
 C22 C 0.05517 0.04590 0.46088
 C23 C 0.09647 0.08794 0.44799
 C24 C 0.16182 0.11930 0.47793
 C25 C -0.10975 -0.05907 0.48379
 C26 C -0.15503 -0.10059 0.47149
 C27 C -0.09277 -0.13388 0.45822
 C28 C -0.04917 -0.09190 0.47065
 N29 N -0.05813 -0.05562 0.48309
 H30 H 0.12643 0.07385 0.50719
 H31 H 0.01296 0.01870 0.45449
 H32 H 0.08611 0.09173 0.43158
 H33 H 0.20266 0.14830 0.48515
 H34 H -0.11637 -0.03068 0.49428
 H35 H -0.19576 -0.10304 0.47350
 H36 H -0.08141 -0.15900 0.44784
 H37 H -0.00748 -0.08797 0.47038
 C38 C 0.02754 -0.13496 0.54079
 C39 C -0.00606 0.13024 0.54287
 C40 C -0.14780 -0.14008 0.45843
 C41 C 0.15018 0.12589 0.45661
 C42 C 1.07200 0.02428 0.13665
 H43 H 1.06711 0.06138 0.13601
 C44 C 1.11377 0.02180 0.12435
 H45 H 1.14003 0.05679 0.11390
 C46 C 1.04304 -0.06620 0.15115
 H47 H 1.01616 -0.09964 0.16203
 C48 C 1.08482 -0.07033 0.13912
 H49 H 1.08958 -0.10732 0.14077
 N50 N 1.03768 -0.01920 0.14969
 C51 C 0.90611 0.02662 0.15763
 H52 H 0.91032 0.03854 0.17448
 C53 C 0.86384 0.02747 0.14527
 H54 H 0.83590 0.04069 0.15263
 C55 C 0.93472 -0.00900 0.12786
 H56 H 0.96097 -0.02518 0.12132
 C57 C 0.89274 -0.00942 0.11504
 H58 H 0.88817 -0.02441 0.09853
 Zn59 Zn 0.98862 -0.00412 0.16670
 N60 N 0.94038 0.00842 0.14878
 C61 C 1.04318 0.11242 0.18230
 N62 N 1.03776 0.06001 0.18370
 C63 C 1.07210 0.05076 0.19668
 C64 C 1.11397 0.09496 0.20897
 C65 C 1.08504 0.15828 0.19433
 C66 C 0.90605 -0.11738 0.17576
 C67 C 0.86386 -0.16060 0.18814
 C68 C 0.89298 -0.09492 0.21840
 C69 C 0.93486 -0.05326 0.20557
 N70 N 0.94038 -0.06494 0.18462
 H71 H 1.01626 0.11905 0.17148
 H72 H 1.06716 0.00874 0.19726
 H73 H 1.14027 0.08617 0.21936
 H74 H 1.08985 0.20008 0.19274
 H75 H 0.91016 -0.12502 0.15890
 H76 H 0.83589 -0.20176 0.18076
 H77 H 0.88853 -0.08459 0.23494
 H78 H 0.96117 -0.01086 0.21213
 C79 C 0.85612 0.00812 0.12382
 C80 C 1.12130 -0.02551 0.12568
 C81 C 0.85630 -0.14909 0.20962
 C82 C 1.12156 0.14984 0.20769
 C83 C 0.05289 1.00636 0.87235
 H84 H 0.01061 0.99113 0.87870
 C85 C 0.09415 1.00566 0.88526
 H86 H 0.08369 0.99132 0.90164
 C87 C 0.11688 1.03959 0.84293
 H88 H 0.12453 1.05050 0.82615
 C89 C 0.15975 1.04022 0.85540
 H90 H 0.20067 1.05230 0.84821
 N91 N 0.06461 1.02253 0.85153
 C92 C -0.11211 0.94692 0.84900
 H93 H -0.11870 0.91223 0.83834
 C94 C -0.15757 0.94307 0.86120
 H95 H -0.19868 0.90510 0.85927
 C96 C -0.05123 1.03979 0.86277
 H97 H -0.00945 1.07744 0.86325
 C98 C -0.09504 1.03795 0.87513
 H99 H -0.08465 1.07405 0.88562
 Zn100 Zn 0.00368 1.00885 0.83331
 N101 N -0.06025 0.99488 0.85006
 C102 C -0.02654 0.89513 0.82397
 N103 N -0.00896 0.94683 0.81524
 C104 C 0.00821 0.95717 0.79441
 C105 C 0.00912 0.91496 0.78158
 C106 C -0.02693 0.85137 0.81159
 C107 C 0.06608 1.12428 0.81833
 C108 C 0.07064 1.16950 0.80635
 C109 C -0.02159 1.10563 0.79086
 C110 C -0.02452 1.06210 0.80315
 N111 N 0.01885 1.07191 0.81649
 H112 H -0.03816 0.88861 0.84077
 H113 H 0.02395 0.99904 0.78797
 H114 H 0.02405 0.92429 0.76516
 H115 H -0.03957 0.81088 0.81887
 H116 H 0.09942 1.13141 0.82945
 H117 H 0.10785 1.21128 0.80830
 H118 H -0.05643 1.09634 0.78013
 H119 H -0.06181 1.02013 0.80222
 C120 C -0.14994 0.98939 0.87445
 C121 C 0.14799 1.02175 0.87669
 C122 C 0.02605 1.16047 0.79255
 C123 C -0.00769 0.86161 0.79026
 O124 O 0.55906 0.03044 -0.02028
 O125 O 0.45929 0.02729 0.02116
 O126 O 0.55740 0.03214 0.02145
 O127 O 0.46524 0.03456 -0.02050
 O128 O 0.41675 -0.05927 -0.02170
 O129 O 0.51248 -0.06162 0.01961
 O130 O 0.41360 -0.06650 0.01979
 O131 O 0.51122 -0.06330 -0.02209
 Cu132 Cu 0.51486 0.04042 0.00060
 Cu133 Cu 0.45886 -0.07204 -0.00126
 C134 C 0.55227 -0.01614 -0.02819
 C135 C 0.41914 -0.02039 0.02749
 C136 C 0.55149 -0.01476 0.02755
 C137 C 0.42480 -0.01158 -0.02809
 O138 O -0.01983 0.44177 0.68734
 O139 O -0.01958 0.53708 0.64585
 O140 O -0.02414 0.43906 0.64558
 O141 O -0.02443 0.53520 0.68760
 O142 O 0.06945 0.58377 0.68745
 O143 O 0.06974 0.48448 0.64589
 O144 O 0.07428 0.58316 0.64584
 O145 O 0.07403 0.48966 0.68751
 Cu146 Cu -0.03131 0.48361 0.66659
 Cu147 Cu 0.08124 0.53995 0.66668
 C148 C 0.02734 0.44937 0.69442
 C149 C 0.02768 0.57675 0.63886
 C150 C 0.02246 0.44458 0.63871
 C151 C 0.02207 0.57630 0.69455
 O152 O 0.41838 0.47697 0.35534
 O153 O 0.51381 0.57570 0.31410
 O154 O 0.41485 0.48171 0.31388
 O155 O 0.51300 0.57541 0.35580
 O156 O 0.56076 0.52951 0.35356
 O157 O 0.46034 0.43347 0.31218
 O158 O 0.55849 0.52669 0.31186
 O159 O 0.46677 0.43159 0.35382
 Cu160 Cu 0.46037 0.53218 0.33498
 Cu161 Cu 0.51617 0.47559 0.33269
 C162 C 0.42643 0.43721 0.36155
 C163 C 0.55263 0.56786 0.30597
 C164 C 0.42022 0.44119 0.30601
 C165 C 0.55414 0.56921 0.36167
 C166 C 0.00926 0.27008 0.58111
 C167 C -0.04131 0.23569 0.56965
 C168 C -0.04589 0.19050 0.55681
 C169 C -0.00073 0.17910 0.55576
 C170 C 0.04978 0.21425 0.56725
 C171 C 0.05509 0.25995 0.57990
 C172 C 0.01393 0.31694 0.59497
 C173 C 0.06438 0.35114 0.60652
 C174 C 0.06794 0.39455 0.62019
 C175 C 0.02102 0.40295 0.62267
 C176 C -0.02892 0.36875 0.61071
 C177 C -0.03263 0.32581 0.59678
 C178 C 0.10509 0.29539 0.59151
 C179 C 0.10971 0.34031 0.60455
 C180 C -0.08654 0.24668 0.57154
 C181 C -0.08235 0.29085 0.58494
 H182 H 0.14082 0.28810 0.59063
 H183 H 0.14884 0.36634 0.61337
 H184 H -0.12576 0.22051 0.56279
 H185 H -0.11850 0.29742 0.58616
 H186 H -0.08490 0.16336 0.54806
 H187 H 0.08496 0.20609 0.56625
 H188 H 0.10634 0.42037 0.62946
 H189 H -0.06516 0.37508 0.61244
 C190 C 0.72084 0.72745 0.24818
 C191 C 0.75459 0.71124 0.23609
 C192 C 0.79832 0.75149 0.22317
 C193 C 0.80890 0.80774 0.22263
 C194 C 0.77437 0.82311 0.23474
 C195 C 0.73015 0.78308 0.24750
 C196 C 0.67557 0.68567 0.26214
 C197 C 0.64206 0.70197 0.27433
 C198 C 0.60019 0.66253 0.28807
 C199 C 0.59263 0.60759 0.28995
 C200 C 0.62609 0.59178 0.27734
 C201 C 0.66752 0.63059 0.26336
 C202 C 0.69542 0.79769 0.25975
 C203 C 0.65202 0.75777 0.27290
 C204 C 0.74445 0.65536 0.23744
 C205 C 0.70176 0.61577 0.25090
 H206 H 0.70208 0.84045 0.25929
 H207 H 0.62651 0.77092 0.28222
 H208 H 0.77014 0.64230 0.22820
 H209 H 0.69581 0.57332 0.25167
 H210 H 0.82498 0.73958 0.21396
 H211 H 0.78185 0.86619 0.23414
 H212 H 0.57493 0.67519 0.29782
 H213 H 0.62041 0.54949 0.27859
 C214 C 0.26878 0.00475 -0.08521
 C215 C 0.28623 0.05569 -0.09610
 C216 C 0.24684 0.06087 -0.10889
 C217 C 0.19023 0.01595 -0.11042
 C218 C 0.17357 -0.03489 -0.09947
 C219 C 0.21275 -0.04083 -0.08692
 C220 C 0.30967 -0.00063 -0.07146
 C221 C 0.29216 -0.05151 -0.06053
 C222 C 0.33078 -0.05581 -0.04699
 C223 C 0.38606 -0.00921 -0.04400
 C224 C 0.40308 0.04121 -0.05533
 C225 C 0.36513 0.04565 -0.06915
 C226 C 0.19691 -0.09124 -0.07590
 C227 C 0.23600 -0.09655 -0.06298
 C228 C 0.34246 0.10064 -0.09372
 C229 C 0.38117 0.09579 -0.08040
 H230 H 0.15383 -0.12677 -0.07717
 H231 H 0.22193 -0.13600 -0.05463
 H232 H 0.35647 0.14014 -0.10202
 H233 H 0.42393 0.13173 -0.07879
 H234 H 0.25971 0.10013 -0.11722
 H235 H 0.13019 -0.06987 -0.10085
 H236 H 0.31720 -0.09457 -0.03820
 H237 H 0.44565 0.07721 -0.05320
 C238 C 0.03031 0.73784 0.57959
 C239 C -0.02039 0.72621 0.56945
 C240 C -0.02038 0.76723 0.55621
 C241 C 0.02957 0.82018 0.55336
 C242 C 0.08038 0.83065 0.56332
 C243 C 0.08095 0.78958 0.57648
 C244 C 0.03004 0.69551 0.59411
 C245 C 0.08057 0.70737 0.60446
 C246 C 0.07977 0.66764 0.61867
 C247 C 0.02869 0.61671 0.62283
 C248 C -0.02151 0.60531 0.61214
 C249 C -0.02102 0.64452 0.59771
 C250 C 0.13082 0.79964 0.58695
 C251 C 0.13067 0.75917 0.60066
 C252 C -0.07038 0.67422 0.57309
 C253 C -0.07073 0.63413 0.58703
 H254 H 0.17020 0.83931 0.58468
 H255 H 0.16996 0.76880 0.60855
 H256 H -0.10976 0.66477 0.56532
 H257 H -0.11034 0.59489 0.58960
 H258 H -0.05946 0.75815 0.54828
 H259 H 0.11892 0.87131 0.56141
 H260 H 0.11861 0.67701 0.62688
 H261 H -0.06095 0.56621 0.61515
 C262 C 0.25312 0.28151 0.24641
 C263 C 0.20128 0.28062 0.24400
 C264 C 0.15877 0.23852 0.23081
 C265 C 0.16790 0.19747 0.22017
 C266 C 0.22095 0.20030 0.22230
 C267 C 0.26343 0.24180 0.23554
 C268 C 0.29696 0.32397 0.26099
 C269 C 0.34806 0.32366 0.26389
 C270 C 0.38870 0.36270 0.27839
 C271 C 0.37863 0.40202 0.28988
 C272 C 0.32758 0.40245 0.28643
 C273 C 0.28641 0.36322 0.27212
 C274 C 0.31556 0.24359 0.23848
 C275 C 0.35710 0.28375 0.25246
 C276 C 0.19258 0.32106 0.25522
 C277 C 0.23447 0.36174 0.26900
 H278 H 0.32399 0.21318 0.23013
 H279 H 0.39641 0.28319 0.25449
 H280 H 0.15286 0.32095 0.25348
 H281 H 0.22584 0.39184 0.27748
 H282 H 0.11805 0.23653 0.22941
 H283 H 0.22894 0.16970 0.21384
 H284 H 0.42789 0.36214 0.28085
 H285 H 0.31924 0.43236 0.29524
 C286 C 0.71836 -0.01399 -0.08707
 C287 C 0.76316 0.03817 -0.09397
 C288 C 0.80567 0.03882 -0.10710
 C289 C 0.80472 -0.01223 -0.11326
 C290 C 0.75803 -0.06443 -0.10648
 C291 C 0.71515 -0.06542 -0.09334
 C292 C 0.67446 -0.01466 -0.07270
 C293 C 0.63009 -0.06683 -0.06547
 C294 C 0.58942 -0.06712 -0.05131
 C295 C 0.59319 -0.01565 -0.04423
 C296 C 0.63757 0.03625 -0.05194
 C297 C 0.67832 0.03697 -0.06617
 C298 C 0.66967 -0.11688 -0.08595
 C299 C 0.62786 -0.11757 -0.07227
 C300 C 0.76501 0.08892 -0.08744
 C301 C 0.72337 0.08834 -0.07374
 H302 H 0.66659 -0.15696 -0.09064
 H303 H 0.59380 -0.15815 -0.06681
 H304 H 0.79934 0.12953 -0.09275
 H305 H 0.72676 0.12846 -0.06888
 H306 H 0.83857 0.07953 -0.11287
 H307 H 0.75605 -0.10441 -0.11031
 H308 H 0.55554 -0.10735 -0.04548
 H309 H 0.64088 0.07608 -0.04667
 C310 C 0.25249 -0.02638 0.08698
 C311 C 0.20064 -0.07729 0.08954
 C312 C 0.15825 -0.07742 0.10271
 C313 C 0.16750 -0.02700 0.11319
 C314 C 0.22055 0.02319 0.11091
 C315 C 0.26291 0.02389 0.09768
 C316 C 0.29622 -0.02533 0.07242
 C317 C 0.34733 0.02602 0.06938
 C318 C 0.38787 0.02729 0.05490
 C319 C 0.37769 -0.02239 0.04359
 C320 C 0.32662 -0.07379 0.04720
 C321 C 0.28556 -0.07539 0.06147
 C322 C 0.31504 0.07417 0.09460
 C323 C 0.35648 0.07525 0.08064
 C324 C 0.19183 -0.12669 0.07848
 C325 C 0.23361 -0.12579 0.06473
 H326 H 0.32356 0.11321 0.10281
 H327 H 0.39580 0.11507 0.07850
 H328 H 0.15210 -0.16627 0.08033
 H329 H 0.22490 -0.16472 0.05638
 H330 H 0.11753 -0.11613 0.10421
 H331 H 0.22864 0.06196 0.11925
 H332 H 0.42707 0.06698 0.05232
 H333 H 0.31819 -0.11225 0.03852
 C334 C 0.72159 0.73292 0.42026
 C335 C 0.71694 0.77956 0.42757
 C336 C 0.75993 0.82143 0.44069
 C337 C 0.80857 0.81782 0.44648
 C338 C 0.81068 0.76888 0.43916
 C339 C 0.76799 0.72707 0.42608
 C340 C 0.67738 0.68966 0.40598
 C341 C 0.68253 0.64331 0.39849
 C342 C 0.64140 0.60328 0.38438
 C343 C 0.59541 0.60945 0.37768
 C344 C 0.59040 0.65574 0.38569
 C345 C 0.63138 0.69604 0.39979
 C346 C 0.77116 0.67952 0.41860
 C347 C 0.72921 0.63841 0.40501
 C348 C 0.66984 0.78412 0.42122
 C349 C 0.62782 0.74310 0.40757
 H350 H 0.80674 0.67436 0.42308
 H351 H 0.73363 0.60278 0.39941
 H352 H 0.66562 0.81995 0.42671
 H353 H 0.59249 0.74852 0.40294
 H354 H 0.75627 0.85818 0.44506
 H355 H 0.84411 0.76108 0.44420
 H356 H 0.64573 0.56789 0.37837
 H357 H 0.55525 0.66103 0.38066
 C358 C 0.02928 0.29065 0.75373
 C359 C 0.07989 0.28959 0.75693
 C360 C 0.07917 0.24790 0.77010
 C361 C 0.02823 0.20745 0.77998
 C362 C -0.02168 0.21041 0.77705
 C363 C -0.02154 0.25149 0.76379
 C364 C 0.02918 0.33277 0.73920
 C365 C -0.02184 0.33267 0.73551
 C366 C -0.02216 0.37145 0.72107
 C367 C 0.02817 0.41034 0.71045
 C368 C 0.07920 0.41053 0.71470
 C369 C 0.07984 0.37154 0.72893
 C370 C -0.07149 0.25344 0.76007
 C371 C -0.07167 0.29325 0.74611
 C372 C 0.12988 0.32950 0.74653
 C373 C 0.12989 0.36987 0.73281
 H374 H -0.11096 0.22345 0.76778
 H375 H -0.11126 0.29284 0.74347
 H376 H 0.16924 0.32925 0.74888
 H377 H 0.16927 0.39961 0.72498
 H378 H 0.11768 0.24580 0.77208
 H379 H -0.06086 0.18034 0.78492
 H380 H -0.06157 0.37108 0.71798
 H381 H 0.11814 0.44007 0.70655
 C382 C 0.72022 -0.00481 0.08532
 C383 C 0.72955 -0.05110 0.08614
 C384 C 0.77390 -0.04660 0.09888
 C385 C 0.80856 0.00357 0.11084
 C386 C 0.79796 0.04920 0.11018
 C387 C 0.75409 0.04542 0.09726
 C388 C 0.67482 -0.00862 0.07138
 C389 C 0.66676 0.03836 0.07001
 C390 C 0.62521 0.03543 0.05603
 C391 C 0.59162 -0.01413 0.04357
 C392 C 0.59919 -0.06146 0.04560
 C393 C 0.64119 -0.05871 0.05934
 C394 C 0.74394 0.09111 0.09578
 C395 C 0.70113 0.08771 0.08232
 C396 C 0.69468 -0.10072 0.07404
 C397 C 0.65115 -0.10451 0.06091
 H398 H 0.76972 0.13007 0.10490
 H399 H 0.69517 0.12419 0.08144
 H400 H 0.70136 -0.13679 0.07461
 H401 H 0.62555 -0.14337 0.05171
 H402 H 0.78140 -0.08216 0.09959
 H403 H 0.82472 0.08798 0.11927
 H404 H 0.61952 0.07200 0.05466
 H405 H 0.57383 -0.09959 0.03597
 C406 C 0.27075 0.26413 0.41858
 C407 C 0.21469 0.25352 0.42034
 C408 C 0.17559 0.20825 0.43287
 C409 C 0.19235 0.17407 0.44374
 C410 C 0.24900 0.18592 0.44217
 C411 C 0.28831 0.23063 0.42940
 C412 C 0.31156 0.31057 0.40486
 C413 C 0.36704 0.31988 0.40248
 C414 C 0.40492 0.36244 0.38868
 C415 C 0.38779 0.39588 0.37744
 C416 C 0.33248 0.38704 0.38050
 C417 C 0.29395 0.34395 0.39401
 C418 C 0.34456 0.24206 0.42695
 C419 C 0.38319 0.28578 0.41365
 C420 C 0.19875 0.28810 0.40940
 C421 C 0.23776 0.33268 0.39651
 H422 H 0.35866 0.21657 0.43519
 H423 H 0.42596 0.29269 0.41200
 H424 H 0.15564 0.28044 0.41071
 H425 H 0.22362 0.35807 0.38823
 H426 H 0.13217 0.19970 0.43429
 H427 H 0.26194 0.15953 0.45045
 H428 H 0.44750 0.36913 0.38650
 H429 H 0.31883 0.41225 0.37178
 C430 C 0.00809 0.73730 0.75205
 C431 C 0.05393 0.79328 0.75336
 C432 C 0.04846 0.83360 0.76598
 C433 C -0.00222 0.81817 0.77736
 C434 C -0.04740 0.76160 0.77622
 C435 C -0.04266 0.72105 0.76340
 C436 C 0.01294 0.69518 0.73822
 C437 C -0.03362 0.63974 0.73632
 C438 C -0.02972 0.60058 0.72242
 C439 C 0.02041 0.61640 0.71057
 C440 C 0.06732 0.67172 0.71314
 C441 C 0.06357 0.71152 0.72678
 C442 C -0.08789 0.66481 0.76142
 C443 C -0.08352 0.62489 0.74805
 C444 C 0.10411 0.80792 0.74186
 C445 C 0.10890 0.76769 0.72884
 H446 H -0.12724 0.65170 0.77009
 H447 H -0.11967 0.58216 0.74676
 H448 H 0.13985 0.85096 0.74281
 H449 H 0.14817 0.78086 0.72011
 H450 H 0.08366 0.87696 0.76705
 H451 H -0.08655 0.74965 0.78488
 H452 H -0.06595 0.55800 0.72062
 H453 H 0.10586 0.68438 0.70396
   
