data_POSCAR
  _audit_creation_date              2014-09-24
  _audit_creation_method            'ToBaCCo'
  _symmetry_space_group_name_H-M    'P1'
  _symmetry_Int_Tables_number       1
  _symmetry_cell_setting            triclinic
  loop_
  _symmetry_equiv_pos_as_xyz
 x,y,z
_cell_length_a 36.8915
_cell_length_b 36.8371
_cell_length_c 12.5623
_cell_angle_alpha 89.995800
_cell_angle_beta 89.915500
_cell_angle_gamma 119.962400
loop_
  _atom_site_label
  _atom_site_type_symbol
  _atom_site_fract_x
  _atom_site_fract_y
  _atom_site_fract_z
C1 C 0.15596 0.50764 0.50410
 C2 C 0.17528 0.51064 0.40693
 C3 C 0.21395 0.51212 0.40358
 C4 C 0.23277 0.50816 0.49836
 C5 C 0.21137 0.50365 0.59609
 C6 C 0.17377 0.50436 0.59838
 C7 C 0.27362 0.50783 0.49508
 C8 C 0.29628 0.51143 0.58982
 C9 C 0.33316 0.50940 0.58634
 C10 C 0.34929 0.50614 0.48927
 C11 C 0.32840 0.50329 0.39510
 C12 C 0.29041 0.50316 0.39734
 H13 H 0.12609 0.50685 0.50616
 H14 H 0.22847 0.51619 0.32660
 H15 H 0.22273 0.49882 0.67075
 H16 H 0.28607 0.51568 0.66689
 H17 H 0.37814 0.50498 0.48716
 H18 H 0.27447 0.49870 0.32251
 C19 C 0.49359 -0.35160 0.50521
 C20 C 0.49077 -0.33516 0.40811
 C21 C 0.48962 -0.29774 0.40485
 C22 C 0.49379 -0.27483 0.49963
 C23 C 0.49815 -0.29185 0.59729
 C24 C 0.49707 -0.33039 0.59951
 C25 C 0.49452 -0.23340 0.49647
 C26 C 0.49101 -0.21424 0.59124
 C27 C 0.49351 -0.17507 0.58824
 C28 C 0.49712 -0.15545 0.49096
 C29 C 0.49965 -0.17377 0.39639
 C30 C 0.49938 -0.21188 0.39880
 H31 H 0.49411 -0.38086 0.50721
 H32 H 0.48566 -0.28721 0.32792
 H33 H 0.50316 -0.27556 0.67192
 H34 H 0.48641 -0.22891 0.66814
 H35 H 0.49854 -0.12529 0.48893
 H36 H 0.50363 -0.22357 0.32393
 C37 C 1.34770 0.84663 0.50833
 C38 C 1.33207 0.82720 0.41060
 C39 C 1.29560 0.78791 0.40708
 C40 C 1.27276 0.76849 0.50148
 C41 C 1.28904 0.78978 0.59946
 C42 C 1.32668 0.82799 0.60258
 C43 C 1.23224 0.72699 0.49751
 C44 C 1.21321 0.70381 0.59188
 C45 C 1.17483 0.66629 0.58769
 C46 C 1.15607 0.65007 0.49005
 C47 C 1.17412 0.67155 0.39629
 C48 C 1.21133 0.71013 0.39940
 H49 H 1.37629 0.87686 0.51119
 H50 H 1.28578 0.77327 0.33011
 H51 H 1.27297 0.77781 0.67407
 H52 H 1.22734 0.71421 0.66915
 H53 H 1.12646 0.62077 0.48695
 H54 H 1.22269 0.72649 0.32489
 C55 C 0.84612 0.49830 0.49061
 C56 C 0.82792 0.50095 0.39609
 C57 C 0.79004 0.50115 0.39901
 C58 C 0.76872 0.49664 0.49711
 C59 C 0.78783 0.49305 0.59150
 C60 C 0.82667 0.49507 0.58799
 C61 C 0.72750 0.49624 0.50130
 C62 C 0.71039 0.50040 0.59929
 C63 C 0.67198 0.49962 0.60193
 C64 C 0.65113 0.49669 0.50707
 C65 C 0.66767 0.49378 0.40991
 C66 C 0.70477 0.49232 0.40681
 H67 H 0.87607 0.49937 0.48850
 H68 H 0.77840 0.50546 0.32425
 H69 H 0.77339 0.48878 0.66861
 H70 H 0.72646 0.50495 0.67399
 H71 H 0.62205 0.49742 0.50850
 H72 H 0.71517 0.48827 0.32978
 C73 C 0.50102 0.34775 0.49285
 C74 C 0.49879 0.32679 0.39866
 C75 C 0.49923 0.28900 0.40229
 C76 C 0.50404 0.27262 0.50067
 C77 C 0.50723 0.29539 0.59473
 C78 C 0.50452 0.33192 0.59070
 C79 C 0.50529 0.23220 0.50543
 C80 C 0.50102 0.21097 0.60360
 C81 C 0.50269 0.17374 0.60644
 C82 C 0.50667 0.15625 0.51224
 C83 C 0.50945 0.17546 0.41518
 C84 C 0.51003 0.21364 0.41126
 H85 H 0.49949 0.37643 0.48988
 H86 H 0.49523 0.27292 0.32781
 H87 H 0.51182 0.28544 0.67184
 H88 H 0.49564 0.22215 0.67796
 H89 H 0.50653 0.12667 0.51399
 H90 H 0.51395 0.22789 0.33403
 C91 C 0.65074 0.15667 0.49248
 C92 C 0.67221 0.17420 0.39849
 C93 C 0.71097 0.21132 0.40123
 C94 C 0.72791 0.23254 0.49928
 C95 C 0.70472 0.21388 0.59361
 C96 C 0.66711 0.17574 0.58959
 C97 C 0.76937 0.27306 0.50336
 C98 C 0.79077 0.28974 0.60126
 C99 C 0.82902 0.32759 0.60359
 C100 C 0.84733 0.34820 0.50857
 C101 C 0.82766 0.33208 0.41156
 C102 C 0.78856 0.29562 0.40875
 H103 H 0.62134 0.12718 0.49029
 H104 H 0.72737 0.22237 0.32666
 H105 H 0.71513 0.22805 0.67082
 H106 H 0.77879 0.27379 0.67605
 H107 H 0.87752 0.37686 0.50978
 H108 H 0.77394 0.28563 0.33190
 O109 O 1.05868 0.59480 0.18342
 O110 O 1.10565 0.58419 0.08755
 C111 C 1.09628 0.60311 0.16027
 O112 O 0.94277 0.41049 0.19915
 O113 O 0.89570 0.41834 0.09614
 C114 C 0.90510 0.40112 0.17324
 O115 O 1.05925 0.47322 0.20752
 O116 O 1.10605 0.52521 0.09681
 C117 C 1.09689 0.50079 0.17866
 O118 O 0.94255 0.53938 0.17650
 O119 O 0.89571 0.47963 0.08752
 C120 C 0.90496 0.50945 0.15596
 Zr121 Zr 1.00064 0.54852 0.12125
 O122 O 0.99771 0.55479 0.28805
 O123 O 1.00191 0.60570 0.09329
 Zr124 Zr 1.00107 0.45649 0.13657
 O125 O 0.99865 0.45145 0.30427
 O126 O 1.00579 0.40154 0.12937
 O127 O 1.03756 0.52143 0.15040
 O128 O 0.96514 0.48497 0.14977
 O129 O 0.94215 0.53166 -0.20222
 O130 O 0.89542 0.47593 -0.10018
 C131 C 0.90458 0.50296 -0.17627
 O132 O 1.05875 0.46485 -0.19446
 O133 O 1.10577 0.52130 -0.09566
 C134 C 1.09641 0.49369 -0.17015
 O135 O 0.94259 0.40291 -0.18397
 O136 O 0.89566 0.41474 -0.09164
 C137 C 0.90493 0.39470 -0.16165
 O138 O 1.05878 0.58690 -0.21123
 O139 O 1.10575 0.58051 -0.10442
 C140 C 1.09644 0.59649 -0.18438
 Zr141 Zr 1.00059 0.54331 -0.14303
 O142 O 0.99686 0.54170 -0.31122
 O143 O 1.00448 0.60266 -0.14197
 Zr144 Zr 1.00084 0.45119 -0.12718
 O145 O 0.99854 0.43973 -0.29250
 O146 O 1.00535 0.39682 -0.10012
 Zr147 Zr 1.06380 0.53162 -0.00362
 Zr148 Zr 0.93772 0.46825 -0.00248
 O149 O 0.96496 0.47896 -0.15527
 O150 O 1.03741 0.51530 -0.15724
 O151 O 0.96233 0.53362 -0.01163
 O152 O 1.03852 0.46629 0.00542
 O153 O 1.03797 0.57116 -0.01215
 O154 O 0.96256 0.42758 0.00623
 H155 H 0.94777 0.47764 0.21500
 H156 H 1.05848 0.45571 0.00870
 H157 H 0.94742 0.46913 -0.22010
 H158 H 1.05738 0.60182 -0.01577
 H159 H 0.97767 0.37777 0.11285
 H160 H 0.97714 0.37377 -0.08081
 H161 H 0.99955 0.46413 -0.32809
 H162 H 1.01532 0.53132 -0.33752
 H163 H 0.97866 0.59914 -0.10812
 H164 H 1.00256 0.61758 0.16447
 H165 H 1.01487 0.54408 0.32100
 H166 H 1.00139 0.47782 0.33173
 O167 O 0.40548 0.46381 0.18407
 O168 O 0.41650 0.52160 0.08838
 C169 C 0.39737 0.49328 0.16089
 O170 O 0.58956 0.53090 0.19850
 O171 O 0.58133 0.47576 0.09536
 C172 C 0.59869 0.50237 0.17236
 O173 O 0.52748 0.58549 0.20798
 O174 O 0.47567 0.58075 0.09784
 C175 C 0.50010 0.59587 0.17949
 O176 O 0.46043 0.40249 0.17723
 O177 O 0.51993 0.41483 0.08761
 C178 C 0.49021 0.39455 0.15657
 Zr179 Zr 0.45159 0.45165 0.12184
 O180 O 0.44531 0.44258 0.28869
 O181 O 0.39439 0.39594 0.09421
 Zr182 Zr 0.54382 0.54368 0.13661
 O183 O 0.54886 0.54620 0.30427
 O184 O 0.59890 0.60313 0.12922
 O185 O 0.47900 0.51572 0.15101
 O186 O 0.51504 0.47924 0.14978
 O187 O 0.46807 0.40974 -0.20241
 O188 O 0.52358 0.41820 -0.10090
 C189 C 0.49660 0.40059 -0.17700
 O190 O 0.53580 0.59335 -0.19403
 O191 O 0.47957 0.58439 -0.09473
 C192 C 0.50717 0.60248 -0.16938
 O193 O 0.59701 0.53826 -0.18450
 O194 O 0.58485 0.47929 -0.09248
 C195 C 0.60498 0.50858 -0.16252
 O196 O 0.41336 0.47181 -0.20985
 O197 O 0.42019 0.52540 -0.10286
 C198 C 0.40401 0.50009 -0.18260
 Zr199 Zr 0.45675 0.45678 -0.14250
 O200 O 0.45829 0.45471 -0.31073
 O201 O 0.39736 0.40156 -0.14106
 Zr202 Zr 0.54906 0.54873 -0.12715
 O203 O 0.56046 0.55777 -0.29257
 O204 O 0.60358 0.60738 -0.10041
 Zr205 Zr 0.46895 0.53194 -0.00283
 Zr206 Zr 0.53156 0.46830 -0.00270
 O207 O 0.52099 0.48504 -0.15526
 O208 O 0.48507 0.52166 -0.15669
 O209 O 0.46624 0.42796 -0.01133
 O210 O 0.53423 0.57156 0.00572
 O211 O 0.42916 0.46661 -0.01126
 O212 O 0.57248 0.53375 0.00590
 H213 H 0.52231 0.46914 0.21495
 H214 H 0.54497 0.60216 0.00906
 H215 H 0.53071 0.47725 -0.22031
 H216 H 0.39856 0.45554 -0.01465
 H217 H 0.62251 0.59854 0.11227
 H218 H 0.62648 0.60197 -0.08130
 H219 H 0.53591 0.53463 -0.32799
 H220 H 0.46868 0.48358 -0.33693
 H221 H 0.40077 0.37913 -0.10750
 H222 H 0.38247 0.38479 0.16546
 H223 H 0.45598 0.47048 0.32152
 H224 H 0.52237 0.52280 0.33186
 O225 O 0.47203 0.05829 0.21058
 O226 O 0.52503 0.10508 0.10218
 C227 C 0.50013 0.09589 0.18291
 O228 O 0.53853 -0.05894 0.17887
 O229 O 0.47930 -0.10567 0.08840
 C230 C 0.50885 -0.09653 0.15716
 O231 O 0.59355 0.05739 0.18896
 O232 O 0.58399 0.10469 0.09144
 C233 C 0.60253 0.09519 0.16483
 O234 O 0.41003 -0.05837 0.20331
 O235 O 0.41827 -0.10547 0.10071
 C236 C 0.40086 -0.09611 0.17769
 Zr237 Zr 0.45681 -0.00011 0.14258
 O238 O 0.45496 -0.00328 0.31089
 O239 O 0.40053 0.00175 0.13735
 Zr240 Zr 0.54862 -0.00050 0.12277
 O241 O 0.55837 -0.00297 0.28766
 O242 O 0.60710 0.00359 0.09298
 O243 O 0.52167 0.03645 0.15450
 O244 O 0.48517 -0.03611 0.15312
 O245 O 0.40180 -0.05800 -0.17706
 O246 O 0.41409 -0.10520 -0.08750
 C247 C 0.39381 -0.09572 -0.15607
 O248 O 0.58566 0.05809 -0.20867
 O249 O 0.57984 0.10499 -0.09972
 C250 C 0.59553 0.09576 -0.18040
 O251 O 0.53000 -0.05890 -0.20229
 O252 O 0.47500 -0.10573 -0.09860
 C253 C 0.50156 -0.09657 -0.17587
 O254 O 0.46367 0.05823 -0.18705
 O255 O 0.52065 0.10511 -0.08984
 C256 C 0.49270 0.09591 -0.16321
 Zr257 Zr 0.45044 0.00014 -0.12110
 O258 O 0.43857 -0.00205 -0.28613
 O259 O 0.39610 0.00440 -0.09192
 Zr260 Zr 0.54223 -0.00033 -0.14119
 O261 O 0.54006 -0.00378 -0.30942
 O262 O 0.60156 0.00372 -0.14247
 Zr263 Zr 0.53121 0.06290 0.00087
 Zr264 Zr 0.46782 -0.06335 0.00074
 O265 O 0.47791 -0.03587 -0.15163
 O266 O 0.51433 0.03671 -0.15292
 O267 O 0.42745 -0.03836 0.01216
 O268 O 0.57063 0.03699 -0.01033
 O269 O 0.46604 0.03757 0.01211
 O270 O 0.53311 -0.03882 -0.01063
 H271 H 0.47768 -0.05362 0.21815
 H272 H 0.60121 0.05658 -0.01416
 H273 H 0.46779 -0.05333 -0.21661
 H274 H 0.45522 0.05734 0.01607
 H275 H 0.60169 -0.02480 0.07441
 H276 H 0.59775 -0.02331 -0.11626
 H277 H 0.53004 0.01509 -0.33479
 H278 H 0.46327 -0.00002 -0.32247
 H279 H 0.37418 -0.02310 -0.06442
 H280 H 0.39265 0.00236 0.21247
 H281 H 0.48403 0.01416 0.33635
 H282 H 0.53578 -0.00087 0.32423
 C283 C 1.15377 0.50917 0.31755
 C284 C 1.12993 0.50603 0.24802
 C285 C 0.49209 0.64467 0.31867
 C286 C 0.49508 0.62384 0.24904
 C287 C 0.35224 -0.15159 0.32039
 C288 C 0.37274 -0.12860 0.24875
 C289 C 0.84994 0.50418 0.29813
 C290 C 0.87277 0.50661 0.22602
 C291 C 0.49552 0.34526 0.30015
 C292 C 0.49307 0.36538 0.22738
 C293 C 0.65322 0.15160 0.30200
 C294 C 0.63219 0.12787 0.23249
 C295 C 0.49907 0.15227 -0.30201
 C296 C 0.49611 0.12869 -0.23154
 C297 C 0.65415 0.50273 -0.30551
 C298 C 0.63404 0.50535 -0.23287
 C299 C 0.84995 0.34532 -0.30396
 C300 C 0.87269 0.36547 -0.23159
 C301 C 0.49459 -0.15271 -0.31648
 C302 C 0.49717 -0.12932 -0.24590
 C303 C 0.35455 0.50795 -0.31957
 C304 C 0.37570 0.50493 -0.25108
 C305 C 1.15315 0.64580 -0.32327
 C306 C 1.12934 0.62474 -0.25381
 C307 C 0.84884 0.49613 -0.31682
 C308 C 0.87201 0.49867 -0.24608
 C309 C 0.50336 0.35198 -0.31928
 C310 C 0.50085 0.37242 -0.24772
 C311 C 0.64540 0.15302 -0.31665
 C312 C 0.62401 0.12888 -0.24843
 C313 C 1.15237 0.50056 -0.31007
 C314 C 1.12897 0.49737 -0.23915
 C315 C 0.50071 0.65191 -0.30902
 C316 C 0.50372 0.63155 -0.23820
 C317 C 0.34487 -0.15027 -0.29916
 C318 C 0.36478 -0.12770 -0.22649
 C319 C 0.50317 -0.15171 0.29867
 C320 C 0.50583 -0.12883 0.22668
 C321 C 0.34718 0.49949 0.29853
 C322 C 0.36794 0.49657 0.22866
 C323 C 1.15203 0.65295 0.29918
 C324 C 1.12873 0.63239 0.22865
 C325 C 0.50824 0.15284 0.32105
 C326 C 0.50520 0.12889 0.25201
 C327 C 0.64682 0.49496 0.31434
 C328 C 0.62652 0.49771 0.24301
 C329 C 0.84974 0.35290 0.31585
 C330 C 0.87274 0.37320 0.24429
   
