data_POSCAR
  _audit_creation_date              2014-09-24
  _audit_creation_method            'ToBaCCo'
  _symmetry_space_group_name_H-M    'P1'
  _symmetry_Int_Tables_number       1
  _symmetry_cell_setting            triclinic
  loop_
  _symmetry_equiv_pos_as_xyz
 x,y,z
_cell_length_a 32.2137
_cell_length_b 32.2637
_cell_length_c 32.2410
_cell_angle_alpha 70.245500
_cell_angle_beta 100.221100
_cell_angle_gamma 80.772000
loop_
  _atom_site_label
  _atom_site_type_symbol
  _atom_site_fract_x
  _atom_site_fract_y
  _atom_site_fract_z
O1 O 0.56578 0.49409 0.03258
 O2 O 0.44925 0.49960 0.02321
 O3 O 0.51496 0.43969 0.02700
 O4 O 0.49939 0.55439 0.02851
 O5 O 0.48684 0.58342 -0.04632
 O6 O 0.50192 0.46868 -0.04786
 O7 O 0.43610 0.52968 -0.05156
 O8 O 0.55275 0.52344 -0.04229
 Cu9 Cu 0.50874 0.49402 0.03535
 Cu10 Cu 0.49320 0.52902 -0.05454
 C11 C 0.57913 0.50834 -0.00329
 C12 C 0.42259 0.51559 -0.01573
 C13 C 0.51045 0.43459 -0.01076
 C14 C 0.49061 0.58854 -0.00859
 O15 O 0.01963 0.54109 0.50735
 O16 O 0.03080 0.41966 0.52832
 O17 O 0.01801 0.49256 0.45654
 O18 O 0.03131 0.46829 0.57930
 O19 O -0.03950 0.47704 0.56976
 O20 O -0.05282 0.50194 0.44726
 O21 O -0.04005 0.42907 0.51897
 O22 O -0.05106 0.55045 0.49877
 Cu23 Cu 0.03198 0.47952 0.51881
 Cu24 Cu -0.05293 0.49073 0.50762
 C25 C -0.01748 0.56652 0.50032
 C26 C -0.00277 0.40368 0.52665
 C27 C -0.01965 0.50053 0.43107
 C28 C -0.00194 0.46882 0.59546
 O29 O 0.50956 0.03911 0.54450
 O30 O 0.49956 0.05149 0.42558
 O31 O 0.44544 0.05074 0.47689
 O32 O 0.56357 0.03874 0.49343
 O33 O 0.57321 -0.03520 0.51250
 O34 O 0.45574 -0.02360 0.49952
 O35 O 0.50781 -0.02243 0.44588
 O36 O 0.52068 -0.03507 0.56560
 Cu37 Cu 0.50354 0.05246 0.48304
 Cu38 Cu 0.51538 -0.03653 0.50790
 C39 C 0.51667 0.00006 0.57552
 C40 C 0.50202 0.01666 0.41533
 C41 C 0.43050 0.01544 0.48608
 C42 C 0.58853 -0.00023 0.50525
 C43 C 0.47654 0.01617 -0.05850
 C44 C 0.47245 -0.02171 -0.02275
 C45 C 0.47051 -0.01838 0.01910
 C46 C 0.47328 0.02158 0.02646
 C47 C 0.47782 0.05941 -0.00921
 C48 C 0.47893 0.05629 -0.05135
 H49 H 0.48238 0.08526 -0.07876
 H50 H 0.46752 -0.04759 0.04656
 C51 C -0.00121 0.50056 1.05101
 C52 C -0.03190 0.48801 1.02323
 C53 C -0.02175 0.47941 0.98584
 C54 C 0.01829 0.48302 0.97523
 C55 C 0.04932 0.49453 1.00363
 C56 C 0.03904 0.50359 1.04069
 H57 H 0.06336 0.51157 1.06274
 H58 H -0.04601 0.47131 0.96383
 C59 C 0.05357 -0.00324 0.49779
 C60 C 0.02156 0.02536 0.50711
 C61 C -0.01844 0.01405 0.50959
 C62 C -0.02747 -0.02478 0.50292
 C63 C 0.00452 -0.05325 0.49321
 C64 C 0.04452 -0.04175 0.49057
 H65 H 0.06969 -0.06404 0.48452
 H66 H -0.04346 0.03652 0.51561
 C67 C -0.36099 0.53382 0.96249
 C68 C -0.31747 0.53552 0.96624
 C69 C -0.28627 0.51107 1.00755
 C70 C -0.29954 0.48535 1.04546
 C71 C -0.34323 0.48414 1.04189
 C72 C -0.37440 0.50830 1.00033
 C73 C -0.24060 0.51421 1.01011
 C74 C -0.20666 0.48024 1.03755
 C75 C -0.16132 0.48256 1.03660
 C76 C -0.13115 0.44320 1.04254
 C77 C -0.08883 0.44488 1.03891
 C78 C -0.07565 0.48570 1.03057
 C79 C -0.10517 0.52474 1.02648
 C80 C -0.14778 0.52326 1.02931
 H81 H -0.38427 0.55315 0.93012
 H82 H -0.30808 0.55581 0.93665
 H83 H -0.27647 0.46698 1.07811
 H84 H -0.35262 0.46441 1.07172
 H85 H -0.23483 0.54421 0.98606
 H86 H -0.21217 0.44830 1.05817
 H87 H -0.14078 0.41143 1.04852
 H88 H -0.06638 0.41443 1.04221
 H89 H -0.09551 0.55653 1.01997
 H90 H -0.17008 0.55391 1.02570
 C91 C 0.34745 0.53885 0.93847
 C92 C 0.30325 0.54092 0.93537
 C93 C 0.28888 0.52056 0.97423
 C94 C 0.31927 0.49918 1.01661
 C95 C 0.36331 0.49797 1.01998
 C96 C 0.37815 0.51749 0.98090
 C97 C 0.24199 0.52354 0.97028
 C98 C 0.22718 0.48923 0.99491
 C99 C 0.18058 0.49228 0.99314
 C100 C 0.16476 0.45302 1.00017
 C101 C 0.12156 0.45417 1.00188
 C102 C 0.09379 0.49441 0.99759
 C103 C 0.10946 0.53374 0.99052
 C104 C 0.15243 0.53283 0.98792
 H105 H 0.35740 0.55453 0.90761
 H106 H 0.28025 0.55797 0.90245
 H107 H 0.30889 0.48415 1.04733
 H108 H 0.38572 0.48133 1.05329
 H109 H 0.21925 0.55395 0.94530
 H110 H 0.24986 0.45720 1.01632
 H111 H 0.18601 0.42134 1.00470
 H112 H 0.11010 0.42339 1.00789
 H113 H 0.08850 0.56496 0.98754
 H114 H 0.16398 0.56337 0.98358
 C115 C -0.06119 -0.36015 0.49199
 C116 C -0.06397 -0.31597 0.49076
 C117 C -0.02713 -0.29796 0.49198
 C118 C 0.01276 -0.32515 0.49459
 C119 C 0.01574 -0.36949 0.49642
 C120 C -0.02111 -0.38788 0.49555
 C121 C -0.03063 -0.25201 0.49335
 C122 C -0.00506 -0.22500 0.47659
 C123 C -0.00648 -0.18002 0.47985
 C124 C 0.00708 -0.14728 0.44733
 C125 C 0.00925 -0.10569 0.45099
 C126 C -0.00153 -0.09609 0.48767
 C127 C -0.01516 -0.12881 0.52030
 C128 C -0.01789 -0.17027 0.51632
 H129 H -0.09035 -0.37287 0.49135
 H130 H -0.09501 -0.29583 0.48907
 H131 H 0.04209 -0.31284 0.49680
 H132 H 0.04726 -0.38957 0.49930
 H133 H -0.05588 -0.23976 0.50742
 H134 H 0.01717 -0.23552 0.45848
 H135 H 0.01638 -0.15407 0.41914
 H136 H 0.01994 -0.08113 0.42541
 H137 H -0.02253 -0.12284 0.54958
 H138 H -0.02722 -0.19522 0.54279
 C139 C -0.03450 0.33591 0.53619
 C140 C -0.03136 0.29119 0.53924
 C141 C 0.00737 0.26518 0.53789
 C142 C 0.04360 0.28430 0.53524
 C143 C 0.04058 0.32895 0.53260
 C144 C 0.00132 0.35546 0.53245
 C145 C 0.00869 0.21836 0.53973
 C146 C 0.03488 0.19752 0.52097
 C147 C 0.03326 0.15228 0.51950
 C148 C 0.04477 0.14189 0.48351
 C149 C 0.04170 0.10047 0.47978
 C150 C 0.02790 0.06812 0.51256
 C151 C 0.01768 0.07790 0.54936
 C152 C 0.02041 0.11946 0.55291
 H153 H -0.06513 0.35528 0.53642
 H154 H -0.05961 0.27714 0.54173
 H155 H 0.07437 0.26486 0.53550
 H156 H 0.06885 0.34292 0.52999
 H157 H -0.01526 0.20210 0.55391
 H158 H 0.05579 0.21553 0.50275
 H159 H 0.05498 0.16646 0.45746
 H160 H 0.04907 0.09417 0.45065
 H161 H 0.00733 0.05336 0.57530
 H162 H 0.01263 0.12563 0.58192
 C163 C 0.52500 -0.04664 -0.34445
 C164 C 0.52457 -0.05002 -0.30015
 C165 C 0.51804 -0.01103 -0.28973
 C166 C 0.51417 0.03132 -0.32393
 C167 C 0.51449 0.03480 -0.36817
 C168 C 0.51914 -0.00402 -0.37931
 C169 C 0.51555 -0.01551 -0.24306
 C170 C 0.49244 0.01777 -0.23451
 C171 C 0.48852 0.01479 -0.18858
 C172 C 0.45489 0.04619 -0.18533
 C173 C 0.45072 0.04615 -0.14300
 C174 C 0.48011 0.01463 -0.10305
 C175 C 0.51387 -0.01680 -0.10598
 C176 C 0.51815 -0.01676 -0.14837
 H177 H 0.52909 -0.07740 -0.35145
 H178 H 0.52831 -0.08310 -0.27417
 H179 H 0.51099 0.06192 -0.31672
 H180 H 0.51066 0.06816 -0.39370
 H181 H 0.53094 -0.04796 -0.21586
 H182 H 0.47382 0.04838 -0.26275
 H183 H 0.43185 0.07105 -0.21572
 H184 H 0.42460 0.07081 -0.14136
 H185 H 0.53741 -0.04076 -0.07547
 H186 H 0.54532 -0.04061 -0.14931
 C187 C 0.49907 0.06336 0.33468
 C188 C 0.49738 0.06777 0.28977
 C189 C 0.49460 0.03090 0.27663
 C190 C 0.49435 -0.01088 0.30946
 C191 C 0.49640 -0.01541 0.35445
 C192 C 0.49874 0.02167 0.36752
 C193 C 0.49383 0.03652 0.22905
 C194 C 0.47419 0.01262 0.20840
 C195 C 0.47388 0.01740 0.16112
 C196 C 0.43979 0.00676 0.13614
 C197 C 0.43924 0.00909 0.09204
 C198 C 0.47302 0.02169 0.07228
 C199 C 0.50743 0.03190 0.09732
 C200 C 0.50784 0.02994 0.14133
 H201 H 0.50120 0.09247 0.34377
 H202 H 0.49805 0.10014 0.26516
 H203 H 0.49359 -0.04041 0.30080
 H204 H 0.49642 -0.04805 0.37906
 H205 H 0.50815 0.06260 0.21004
 H206 H 0.45602 -0.01004 0.22597
 H207 H 0.41353 -0.00340 0.15083
 H208 H 0.41254 0.00079 0.07335
 H209 H 0.53438 0.04051 0.08313
 H210 H 0.53538 0.03686 0.16019
 C211 C 0.48776 -0.35883 0.03329
 C212 C 0.48493 -0.31554 0.03420
 C213 C 0.47962 -0.27791 -0.00591
 C214 C 0.47707 -0.28446 -0.04721
 C215 C 0.47976 -0.32774 -0.04814
 C216 C 0.48550 -0.36542 -0.00786
 C217 C 0.47964 -0.23327 -0.00260
 C218 C 0.46493 -0.19357 -0.03814
 C219 C 0.46743 -0.14975 -0.03390
 C220 C 0.43748 -0.11000 -0.06500
 C221 C 0.43898 -0.06815 -0.06166
 C222 C 0.47087 -0.06545 -0.02749
 C223 C 0.50131 -0.10495 0.00304
 C224 C 0.49986 -0.14668 -0.00027
 H225 H 0.49222 -0.38719 0.06491
 H226 H 0.48731 -0.31150 0.06650
 H227 H 0.47432 -0.25672 -0.07870
 H228 H 0.47828 -0.33179 -0.08034
 H229 H 0.49151 -0.23337 0.03103
 H230 H 0.44904 -0.19254 -0.07110
 H231 H 0.41254 -0.11144 -0.09150
 H232 H 0.41509 -0.03798 -0.08541
 H233 H 0.52652 -0.10336 0.02922
 H234 H 0.52461 -0.17621 0.02313
 C235 C 0.51335 0.38148 -0.05221
 C236 C 0.51378 0.33852 -0.05335
 C237 C 0.51398 0.30219 -0.01411
 C238 C 0.51584 0.30899 0.02694
 C239 C 0.51580 0.35181 0.02819
 C240 C 0.51386 0.38866 -0.01151
 C241 C 0.51258 0.25769 -0.01701
 C242 C 0.49367 0.22846 0.00908
 C243 C 0.49043 0.18489 0.00469
 C244 C 0.45542 0.16637 0.01574
 C245 C 0.45104 0.12563 0.01117
 C246 C 0.48213 0.10234 -0.00368
 C247 C 0.51756 0.12041 -0.01394
 C248 C 0.52181 0.16121 -0.00967
 H249 H 0.51213 0.40915 -0.08329
 H250 H 0.51288 0.33389 -0.08522
 H251 H 0.51748 0.28130 0.05814
 H252 H 0.51651 0.35619 0.06014
 H253 H 0.52468 0.25043 -0.04369
 H254 H 0.47746 0.23791 0.03238
 H255 H 0.43103 0.18388 0.02716
 H256 H 0.42328 0.11243 0.01890
 H257 H 0.54217 0.10264 -0.02492
 H258 H 0.54996 0.17372 -0.01701
 C259 C -0.34550 0.03118 0.51174
 C260 C -0.30103 0.02711 0.51561
 C261 C -0.27456 -0.01260 0.51698
 C262 C -0.29318 -0.04885 0.51577
 C263 C -0.33760 -0.04501 0.51250
 C264 C -0.36427 -0.00482 0.51008
 C265 C -0.22768 -0.01536 0.52089
 C266 C -0.20348 -0.03993 0.50365
 C267 C -0.15734 -0.03951 0.50546
 C268 C -0.14026 -0.04254 0.46917
 C269 C -0.09766 -0.03883 0.46859
 C270 C -0.07120 -0.03308 0.50486
 C271 C -0.08771 -0.03212 0.54209
 C272 C -0.13032 -0.03536 0.54247
 H273 H -0.36515 0.06246 0.51024
 H274 H -0.28732 0.05532 0.51692
 H275 H -0.27345 -0.08039 0.51800
 H276 H -0.35113 -0.07339 0.51144
 H277 H -0.21343 0.00625 0.53569
 H278 H -0.21855 -0.05777 0.48448
 H279 H -0.16042 -0.04609 0.44046
 H280 H -0.08579 -0.03918 0.43929
 H281 H -0.06771 -0.02822 0.57067
 H282 H -0.14209 -0.03442 0.57164
 C283 C 0.35326 0.06075 0.45477
 C284 C 0.30878 0.06428 0.45119
 C285 C 0.29388 0.02711 0.47558
 C286 C 0.32408 -0.01413 0.50255
 C287 C 0.36837 -0.01792 0.50545
 C288 C 0.38345 0.01954 0.48186
 C289 C 0.24677 0.03131 0.47108
 C290 C 0.23093 0.01002 0.50603
 C291 C 0.18429 0.01101 0.50178
 C292 C 0.16755 0.00616 0.54004
 C293 C 0.12451 0.00318 0.53825
 C294 C 0.09777 0.00418 0.49837
 C295 C 0.11430 0.00924 0.45997
 C296 C 0.15713 0.01293 0.46151
 H297 H 0.36398 0.09007 0.43600
 H298 H 0.28600 0.09622 0.42980
 H299 H 0.31344 -0.04373 0.52080
 H300 H 0.39088 -0.05011 0.52655
 H301 H 0.22476 0.05352 0.43874
 H302 H 0.25286 -0.00829 0.53945
 H303 H 0.18800 0.00413 0.57154
 H304 H 0.11242 -0.00127 0.56837
 H305 H 0.09416 0.00968 0.42905
 H306 H 0.16937 0.01545 0.43181
 C307 C -0.06428 0.50524 1.35674
 C308 C -0.06794 0.50631 1.31248
 C309 C -0.03250 0.50933 1.29276
 C310 C 0.00683 0.51146 1.31827
 C311 C 0.01064 0.50991 1.36272
 C312 C -0.02474 0.50636 1.38264
 C313 C -0.03660 0.50684 1.24711
 C314 C -0.01296 0.52518 1.21862
 C315 C -0.01454 0.52009 1.17434
 C316 C -0.00226 0.55254 1.14027
 C317 C 0.00032 0.54701 1.09956
 C318 C -0.00886 0.50858 1.09217
 C319 C -0.02161 0.47625 1.12602
 C320 C -0.02460 0.48198 1.16663
 H321 H -0.09207 0.50214 1.37116
 H322 H -0.09846 0.50425 1.29372
 H323 H 0.03523 0.51255 1.30473
 H324 H 0.04162 0.51053 1.38185
 H325 H -0.06066 0.49016 1.23644
 H326 H 0.00794 0.54565 1.22747
 H327 H 0.00597 0.58200 1.14545
 H328 H 0.01036 0.57237 1.07409
 H329 H -0.02763 0.44567 1.12181
 H330 H -0.03287 0.45553 1.19262
 C331 C -0.03272 0.45492 0.66373
 C332 C -0.02935 0.45015 0.70901
 C333 C 0.00918 0.45206 0.73574
 C334 C 0.04511 0.45688 0.71677
 C335 C 0.04188 0.46121 0.67152
 C336 C 0.00271 0.46097 0.64429
 C337 C 0.01044 0.44901 0.78295
 C338 C 0.03569 0.46862 0.80442
 C339 C 0.03312 0.47003 0.84947
 C340 C 0.04334 0.50666 0.85983
 C341 C 0.03915 0.51056 0.90086
 C342 C 0.02556 0.47731 0.93295
 C343 C 0.01653 0.43992 0.92323
 C344 C 0.02036 0.43619 0.88198
 H345 H -0.06327 0.45427 0.64382
 H346 H -0.05736 0.44603 0.72290
 H347 H 0.07576 0.45714 0.73675
 H348 H 0.06984 0.46557 0.65762
 H349 H -0.01316 0.43359 0.79876
 H350 H 0.05618 0.48794 0.78680
 H351 H 0.05335 0.53311 0.83548
 H352 H 0.04548 0.54021 0.90700
 H353 H 0.00630 0.41366 0.94754
 H354 H 0.01347 0.40676 0.87580
   
