data_POSCAR
  _audit_creation_date              2014-09-24
  _audit_creation_method            'ToBaCCo'
  _symmetry_space_group_name_H-M    'P1'
  _symmetry_Int_Tables_number       1
  _symmetry_cell_setting            triclinic
  loop_
  _symmetry_equiv_pos_as_xyz
 x,y,z
_cell_length_a 39.9612
_cell_length_b 38.2090
_cell_length_c 37.1505
_cell_angle_alpha 88.822400
_cell_angle_beta 90.011100
_cell_angle_gamma 89.996400
loop_
  _atom_site_label
  _atom_site_type_symbol
  _atom_site_fract_x
  _atom_site_fract_y
  _atom_site_fract_z
N1 N 0.18641 1.25405 0.15372
 N2 N 0.16551 1.25495 0.18094
 C3 C 0.14187 1.27925 0.17408
 C4 C 0.14808 1.29455 0.14044
 C5 C 0.17685 1.27783 0.12856
 H6 H 0.12113 1.28428 0.19190
 H7 H 0.18939 1.28157 0.10302
 Cu8 Cu 0.16939 1.22225 0.22139
 Cu9 Cu 0.22262 1.21993 0.15145
 Cu10 Cu 0.22216 1.15403 0.21686
 N11 N 0.16492 1.18177 0.25342
 N12 N 0.18567 1.15523 0.25169
 C13 C 0.17581 1.13001 0.27517
 C14 C 0.14699 1.14115 0.29256
 C15 C 0.14107 1.17441 0.27797
 H16 H 0.18819 1.10500 0.27821
 H17 H 0.12042 1.19169 0.28366
 N18 N 0.25670 1.15768 0.17904
 N19 N 0.25685 1.18275 0.15408
 C20 C 0.28187 1.17670 0.13074
 C21 C 0.29827 1.14624 0.14137
 C22 C 0.28163 1.13506 0.17225
 H23 H 0.28703 1.19274 0.10711
 H24 H 0.28625 1.11127 0.18768
 H25 H 0.19493 1.18264 0.17926
 H26 H 0.22679 1.20715 0.20567
 N27 N 0.81549 0.74576 0.15517
 N28 N 0.83973 0.74736 0.17896
 C29 C 0.86266 0.72265 0.17176
 C30 C 0.85233 0.70459 0.14173
 C31 C 0.82214 0.72000 0.13207
 H32 H 0.88599 0.71933 0.18612
 H33 H 0.80668 0.71388 0.10918
 Cu34 Cu 0.84080 0.78407 0.21448
 Cu35 Cu 0.77899 0.77955 0.15346
 Cu36 Cu 0.78041 0.84515 0.21663
 N37 N 0.84135 0.82100 0.24978
 N38 N 0.81768 0.84480 0.25045
 C39 C 0.82528 0.86860 0.27537
 C40 C 0.85566 0.85949 0.29123
 C41 C 0.86489 0.82885 0.27426
 H42 H 0.81026 0.89149 0.28041
 H43 H 0.88761 0.81401 0.27827
 N44 N 0.74486 0.84104 0.18016
 N45 N 0.74434 0.81612 0.15610
 C46 C 0.71868 0.82205 0.13327
 C47 C 0.70223 0.85226 0.14328
 C48 C 0.71954 0.86344 0.17325
 H49 H 0.71317 0.80623 0.11026
 H50 H 0.71515 0.88718 0.18781
 H51 H 0.80547 0.82053 0.17550
 H52 H 0.78073 0.79217 0.20716
 N53 N 0.81547 1.25383 -0.15470
 N54 N 0.83968 1.25237 -0.17852
 C55 C 0.86269 1.27694 -0.17109
 C56 C 0.85244 1.29475 -0.14087
 C57 C 0.82221 1.27935 -0.13134
 H58 H 0.88600 1.28036 -0.18546
 H59 H 0.80679 1.28530 -0.10838
 Cu60 Cu 0.84065 1.21601 -0.21441
 Cu61 Cu 0.77886 1.22019 -0.15331
 Cu62 Cu 0.78014 1.15513 -0.21707
 N63 N 0.84109 1.17941 -0.25007
 N64 N 0.81736 1.15568 -0.25095
 C65 C 0.82486 1.13211 -0.27613
 C66 C 0.85525 1.14128 -0.29192
 C67 C 0.86457 1.17173 -0.27465
 H68 H 0.80977 1.10934 -0.28138
 H69 H 0.88734 1.18654 -0.27853
 N70 N 0.74463 1.15898 -0.18052
 N71 N 0.74414 1.18374 -0.15629
 C72 C 0.71849 1.17769 -0.13350
 C73 C 0.70202 1.14756 -0.14370
 C74 C 0.71929 1.13656 -0.17377
 H75 H 0.71302 1.19337 -0.11037
 H76 H 0.71486 1.11293 -0.18851
 H77 H 0.80522 1.17943 -0.17569
 H78 H 0.78053 1.20810 -0.20715
 N79 N 0.18587 0.74596 -0.15427
 N80 N 0.16497 0.74516 -0.18152
 C81 C 0.14146 0.72067 -0.17483
 C82 C 0.14786 0.70517 -0.14142
 C83 C 0.17641 0.72194 -0.12930
 H84 H 0.12070 0.71547 -0.19258
 H85 H 0.18865 0.71813 -0.10358
 Cu86 Cu 0.16873 0.77815 -0.22171
 Cu87 Cu 0.22187 0.78031 -0.15168
 Cu88 Cu 0.22122 0.84657 -0.21675
 N89 N 0.16411 0.81877 -0.25353
 N90 N 0.18478 0.84537 -0.25165
 C91 C 0.17487 0.87065 -0.27503
 C92 C 0.14611 0.85950 -0.29253
 C93 C 0.14026 0.82617 -0.27811
 H94 H 0.18719 0.89571 -0.27793
 H95 H 0.11968 0.80884 -0.28393
 N96 N 0.25568 0.84288 -0.17883
 N97 N 0.25588 0.81772 -0.15397
 C98 C 0.28088 0.82373 -0.13059
 C99 C 0.29724 0.85425 -0.14111
 C100 C 0.28056 0.86553 -0.17193
 H101 H 0.28610 0.80759 -0.10704
 H102 H 0.28516 0.88936 -0.18728
 H103 H 0.19400 0.81773 -0.17927
 H104 H 0.22599 0.79350 -0.20575
 C105 C 0.46313 0.97615 -0.02136
 C106 C 0.48078 0.99986 -0.00012
 C107 C 0.46326 1.02359 0.02121
 C108 C 0.42822 1.02347 0.02140
 C109 C 0.41072 0.99988 0.00007
 C110 C 0.42809 0.97629 -0.02137
 C111 C 0.51755 0.99981 -0.00021
 C112 C 0.53512 1.02382 -0.02218
 C113 C 0.57017 1.02363 -0.02236
 C114 C 0.58761 0.99968 -0.00041
 C115 C 0.57020 0.97579 0.02165
 C116 C 0.53516 0.97572 0.02166
 H117 H 0.47664 0.95787 -0.03792
 H118 H 0.47686 1.04188 0.03769
 H119 H 0.52155 1.04237 -0.03916
 H120 H 0.52161 0.95720 0.03868
 H121 H 0.38357 0.99989 0.00015
 H122 H 0.61476 0.99963 -0.00047
 C123 C -0.02583 0.46202 0.98038
 C124 C -0.00229 0.48016 1.00093
 C125 C 0.02139 0.46150 1.02159
 C126 C 0.02141 0.42484 1.02181
 C127 C -0.00192 0.40685 1.00103
 C128 C -0.02546 0.42536 0.98023
 C129 C -0.00232 0.51864 1.00067
 C130 C -0.02584 0.53676 1.02127
 C131 C -0.02562 0.57342 1.02127
 C132 C -0.00226 0.59195 1.00027
 C133 C 0.02105 0.57399 0.97945
 C134 C 0.02119 0.53733 0.97984
 H135 H -0.04407 0.47641 0.96434
 H136 H 0.03951 0.47548 1.03760
 H137 H -0.04396 0.52235 1.03744
 H138 H 0.03930 0.52338 0.96380
 H139 H -0.00171 0.37846 1.00099
 H140 H -0.00219 0.62035 1.00016
 C141 C 0.97442 -0.02013 0.46111
 C142 C 0.99711 0.00072 0.47994
 C143 C 1.02008 0.02183 0.46093
 C144 C 1.02033 0.02211 0.42324
 C145 C 0.99781 0.00110 0.40454
 C146 C 0.97490 -0.02005 0.42340
 C147 C 0.99704 0.00023 0.51951
 C148 C 1.01993 -0.02089 0.53863
 C149 C 1.01994 -0.02128 0.57633
 C150 C 0.99729 -0.00033 0.59492
 C151 C 0.97453 0.02092 0.57594
 C152 C 0.97426 0.02106 0.53823
 H153 H 0.95673 -0.03652 0.47577
 H154 H 1.03758 0.03801 0.47545
 H155 H 1.03755 -0.03700 0.52420
 H156 H 0.95666 0.03750 0.52348
 H157 H 0.99817 0.00115 0.37534
 H158 H 0.99747 -0.00047 0.62412
 C159 C 0.08688 0.36647 1.08227
 C160 C 0.11659 0.35436 1.06709
 C161 C 0.13722 0.33123 1.08652
 C162 C 0.12837 0.31957 1.12158
 C163 C 0.09872 0.33286 1.13683
 C164 C 0.07819 0.35598 1.11728
 C165 C 0.06446 0.38815 1.06128
 C166 C 0.04513 0.40539 1.04341
 H167 H 0.12354 0.36231 1.03994
 H168 H 0.15973 0.32225 1.07351
 H169 H 0.09076 0.32519 1.16364
 H170 H 0.05518 0.36519 1.12928
 C171 C -0.08937 0.63077 1.08241
 C172 C -0.11828 0.64542 1.06713
 C173 C -0.13781 0.66867 1.08674
 C174 C -0.12858 0.67774 1.12193
 C175 C -0.09996 0.66204 1.13737
 C176 C -0.08049 0.63880 1.11771
 C177 C -0.06773 0.60929 1.06117
 C178 C -0.04891 0.59235 1.04309
 H179 H -0.12531 0.63950 1.03974
 H180 H -0.15954 0.68018 1.07382
 H181 H -0.09226 0.66796 1.16448
 H182 H -0.05814 0.62763 1.12981
 C183 C -0.08918 0.36812 0.91892
 C184 C -0.08031 0.36029 0.88357
 C185 C -0.09980 0.33717 0.86377
 C186 C -0.12841 0.32140 0.87913
 C187 C -0.13761 0.33025 0.91439
 C188 C -0.11806 0.35337 0.93414
 C189 C -0.06755 0.38952 0.94026
 C190 C -0.04874 0.40643 0.95839
 H191 H -0.05797 0.37153 0.87151
 H192 H -0.09212 0.33141 0.83661
 H193 H -0.15932 0.31864 0.92725
 H194 H -0.12508 0.35913 0.96156
 C195 C 0.08572 0.63244 0.91810
 C196 C 0.11719 0.64160 0.93144
 C197 C 0.13773 0.66464 0.91178
 C198 C 0.12702 0.67897 0.87847
 C199 C 0.09559 0.66888 0.86499
 C200 C 0.07511 0.64586 0.88471
 C201 C 0.06360 0.61074 0.93943
 C202 C 0.04451 0.59348 0.95757
 H203 H 0.12561 0.63139 0.95732
 H204 H 0.16178 0.67142 0.92302
 H205 H 0.08632 0.67922 0.83960
 H206 H 0.05072 0.63905 0.87419
 C207 C 1.08528 0.08263 0.36436
 C208 C 1.07671 0.11698 0.35461
 C209 C 1.09739 0.13661 0.33153
 C210 C 1.12707 0.12211 0.31754
 C211 C 1.13576 0.08766 0.32848
 C212 C 1.11499 0.06816 0.35157
 C213 C 1.06285 0.06168 0.38611
 C214 C 1.04367 0.04380 0.40348
 H215 H 1.05372 0.12845 0.36439
 H216 H 1.08955 0.16293 0.32444
 H217 H 1.15828 0.07523 0.31898
 H218 H 1.12187 0.04154 0.35899
 C219 C 1.08450 -0.08189 0.63561
 C220 C 1.11414 -0.06741 0.64857
 C221 C 1.13485 -0.08693 0.67172
 C222 C 1.12618 -0.12142 0.68252
 C223 C 1.09654 -0.13591 0.66843
 C224 C 1.07591 -0.11626 0.64530
 C225 C 1.06219 -0.06094 0.61372
 C226 C 1.04313 -0.04303 0.59621
 H227 H 1.12101 -0.04078 0.64122
 H228 H 1.15732 -0.07448 0.68135
 H229 H 1.08870 -0.16224 0.67547
 H230 H 1.05296 -0.12772 0.63542
 C231 C 0.91311 -0.08175 0.36443
 C232 C 0.92490 -0.11391 0.35249
 C233 C 0.90565 -0.13373 0.32901
 C234 C 0.87417 -0.12161 0.31678
 C235 C 0.86222 -0.08953 0.32998
 C236 C 0.88159 -0.06980 0.35347
 C237 C 0.93412 -0.06025 0.38637
 C238 C 0.95237 -0.04202 0.40377
 H239 H 0.94930 -0.12344 0.36083
 H240 H 0.91601 -0.15824 0.32022
 H241 H 0.83820 -0.07903 0.32188
 H242 H 0.87220 -0.04489 0.36259
 C243 C 0.91266 0.08272 0.63469
 C244 C 0.88109 0.07083 0.64551
 C245 C 0.86170 0.09053 0.66900
 C246 C 0.87371 0.12252 0.68239
 C247 C 0.90524 0.13462 0.67026
 C248 C 0.92449 0.11483 0.64676
 C249 C 0.93370 0.06119 0.61281
 C250 C 0.95196 0.04292 0.59547
 H251 H 0.87168 0.04596 0.63631
 H252 H 0.83764 0.08007 0.67698
 H253 H 0.91562 0.15906 0.67919
 H254 H 0.94893 0.12432 0.63854
 C255 C 0.37189 1.08835 0.08273
 C256 C 0.36455 1.07903 0.11846
 C257 C 0.34136 1.09846 0.13792
 C258 C 0.32502 1.12745 0.12181
 C259 C 0.33339 1.13719 0.08616
 C260 C 0.35659 1.11770 0.06678
 C261 C 0.39317 1.06637 0.06164
 C262 C 0.40982 1.04721 0.04352
 H263 H 0.37619 1.05626 0.13104
 H264 H 0.33595 1.09034 0.16536
 H265 H 0.32136 1.15916 0.07269
 H266 H 0.36194 1.12501 0.03903
 C267 C 0.62706 1.08935 -0.08493
 C268 C 0.64206 1.11857 -0.06961
 C269 C 0.66566 1.13820 -0.08910
 C270 C 0.67476 1.12873 -0.12421
 C271 C 0.65868 1.09993 -0.13976
 C272 C 0.63508 1.08035 -0.12020
 C273 C 0.60548 1.06711 -0.06353
 C274 C 0.58866 1.04770 -0.04504
 H275 H 0.63618 1.12564 -0.04223
 H276 H 0.67743 1.16004 -0.07608
 H277 H 0.66464 1.09205 -0.16680
 H278 H 0.62370 1.05769 -0.13229
 C279 C 0.37135 0.91169 -0.08264
 C280 C 0.36391 0.92110 -0.11834
 C281 C 0.34055 0.90181 -0.13773
 C282 C 0.32413 0.87290 -0.12160
 C283 C 0.33260 0.86305 -0.08601
 C284 C 0.35597 0.88239 -0.06668
 C285 C 0.39278 0.93355 -0.06158
 C286 C 0.40955 0.95263 -0.04347
 H287 H 0.37561 0.94381 -0.13094
 H288 H 0.33508 0.90998 -0.16515
 H289 H 0.32053 0.84111 -0.07254
 H290 H 0.36140 0.87499 -0.03898
 C291 C 0.62720 0.91022 0.08432
 C292 C 0.63521 0.91931 0.11956
 C293 C 0.65884 0.89982 0.13918
 C294 C 0.67496 0.87100 0.12371
 C295 C 0.66588 0.86144 0.08863
 C296 C 0.64225 0.88098 0.06908
 C297 C 0.60558 0.93238 0.06285
 C298 C 0.58873 0.95174 0.04433
 H299 H 0.62377 0.94197 0.13160
 H300 H 0.66477 0.90777 0.16621
 H301 H 0.67769 0.83957 0.07568
 H302 H 0.63638 0.87383 0.04172
   
