data_POSCAR
  _audit_creation_date              2014-09-24
  _audit_creation_method            'ToBaCCo'
  _symmetry_space_group_name_H-M    'P1'
  _symmetry_Int_Tables_number       1
  _symmetry_cell_setting            triclinic
  loop_
  _symmetry_equiv_pos_as_xyz
 x,y,z
_cell_length_a 36.7285
_cell_length_b 36.7659
_cell_length_c 36.8563
_cell_angle_alpha 89.948900
_cell_angle_beta 90.146600
_cell_angle_gamma 90.157100
loop_
  _atom_site_label
  _atom_site_type_symbol
  _atom_site_fract_x
  _atom_site_fract_y
  _atom_site_fract_z
N1 N 0.27759 0.27852 0.25373
 N2 N 0.70273 -0.29628 0.28406
 N3 N 0.79450 0.21480 0.77200
 N4 N 0.21571 -0.20482 0.77173
 N5 N 0.77891 -0.22262 0.78853
 N6 N 0.29135 0.29347 0.69350
 N7 N 0.26559 -0.28561 0.27496
 N8 N 0.71008 0.26190 0.27276
 O9 O 0.22608 0.03982 0.44453
 O10 O 0.21950 -0.02428 0.52101
 O11 O 0.22494 0.04601 0.51457
 O12 O 0.22098 -0.03102 0.45054
 O13 O 0.28101 -0.03504 0.45236
 O14 O 0.28498 0.04161 0.51621
 O15 O 0.27952 -0.02855 0.52278
 O16 O 0.28612 0.03571 0.44625
 Cu17 Cu 0.21680 0.00791 0.48237
 Cu18 Cu 0.28895 0.00286 0.48445
 C19 C 0.25723 0.04909 0.43291
 C20 C 0.24836 -0.03701 0.53500
 C21 C 0.25571 0.05689 0.52603
 C22 C 0.25040 -0.04612 0.44080
 O23 O 0.72236 0.02436 0.53777
 O24 O 0.71062 -0.04880 0.47049
 O25 O 0.72016 -0.04585 0.54050
 O26 O 0.71242 0.02240 0.46782
 O27 O 0.77201 0.02068 0.45968
 O28 O 0.77980 -0.04768 0.53247
 O29 O 0.77022 -0.05058 0.46239
 O30 O 0.78198 0.02256 0.52964
 Cu31 Cu 0.71033 -0.01181 0.50470
 Cu32 Cu 0.78199 -0.01397 0.49497
 C33 C 0.75420 0.03547 0.54541
 C34 C 0.73847 -0.06230 0.45537
 C35 C 0.75134 -0.05788 0.54912
 C36 C 0.74091 0.03340 0.45179
 O37 O 0.46327 0.22484 0.01182
 O38 O 0.53987 0.21763 -0.05201
 O39 O 0.53320 0.21839 0.01827
 O40 O 0.46937 0.22456 -0.05898
 O41 O 0.47538 0.28442 -0.05884
 O42 O 0.53901 0.27830 0.01802
 O43 O 0.54578 0.27750 -0.05210
 O44 O 0.46919 0.28472 0.01183
 Cu45 Cu 0.50073 0.21531 -0.02041
 Cu46 Cu 0.50782 0.28728 -0.02046
 C47 C 0.45377 0.25596 0.02313
 C48 C 0.55598 0.24629 -0.06255
 C49 C 0.54667 0.24742 0.03131
 C50 C 0.46169 0.25559 -0.07197
 O51 O 0.52300 0.71332 0.03116
 O52 O 0.45451 0.72492 -0.04114
 O53 O 0.52589 0.72224 -0.03888
 O54 O 0.45272 0.71552 0.02893
 O55 O 0.45470 0.77513 0.03678
 O56 O 0.52788 0.78183 -0.03104
 O57 O 0.45654 0.78451 -0.03328
 O58 O 0.52496 0.77295 0.03895
 Cu59 Cu 0.48882 0.71301 -0.00605
 Cu60 Cu 0.49121 0.78466 0.00335
 C61 C 0.53517 0.74115 0.04758
 C62 C 0.44364 0.75667 -0.04908
 C63 C 0.53959 0.75311 -0.04602
 C64 C 0.44175 0.74410 0.04470
 O65 O 0.02302 0.45565 0.21914
 O66 O -0.05000 0.52403 0.22452
 O67 O 0.02117 0.52621 0.22233
 O68 O -0.04820 0.45342 0.22188
 O69 O -0.04576 0.45105 0.28179
 O70 O 0.02326 0.52363 0.28225
 O71 O -0.04768 0.52147 0.28444
 O72 O 0.02524 0.45327 0.27907
 Cu73 Cu -0.01375 0.49006 0.21590
 Cu74 Cu -0.01101 0.48708 0.28791
 C75 C 0.03672 0.44323 0.24824
 C76 C -0.06136 0.53405 0.25541
 C77 C 0.03414 0.53695 0.25243
 C78 C -0.05893 0.44024 0.25185
 O79 O 0.03509 0.54533 0.71669
 O80 O -0.02951 0.46826 0.71713
 O81 O -0.03488 0.53905 0.72300
 O82 O 0.04095 0.47506 0.71047
 O83 O 0.04712 0.47031 0.76999
 O84 O -0.02873 0.53443 0.78254
 O85 O -0.02327 0.46375 0.77665
 O86 O 0.04116 0.54045 0.77622
 Cu87 Cu 0.00219 0.50724 0.71080
 Cu88 Cu 0.00957 0.50160 0.78235
 C89 C 0.04883 0.55602 0.74648
 C90 C -0.03716 0.45293 0.74703
 C91 C -0.04416 0.54806 0.75487
 C92 C 0.05701 0.46210 0.73808
 C93 C 0.33785 0.26854 0.16220
 C94 C 0.33912 0.23018 0.14582
 C95 C 0.36130 0.22755 0.11632
 C96 C 0.38002 0.26353 0.10614
 C97 C 0.39982 0.27572 0.14078
 C98 C 0.37769 0.27834 0.17019
 C99 C 0.32668 0.29350 0.13067
 C100 C 0.34887 0.29087 0.10116
 C101 C 0.31464 0.27158 0.19437
 C102 C 0.29690 0.27458 0.22169
 C103 C 0.40459 0.26077 0.07495
 C104 C 0.42627 0.25858 0.05055
 H105 H 0.32390 0.20716 0.15639
 H106 H 0.36508 0.20227 0.10162
 H107 H 0.42875 0.28177 0.14209
 H108 H 0.38768 0.28664 0.19668
 H109 H 0.30337 0.31158 0.13142
 H110 H 0.34458 0.30668 0.07664
 C111 C 0.64333 0.71910 0.19235
 C112 C 0.66191 0.70695 0.15712
 C113 C 0.64082 0.71153 0.12695
 C114 C 0.60325 0.72781 0.13503
 C115 C 0.61116 0.76334 0.15547
 C116 C 0.63224 0.75876 0.18561
 C117 C 0.60737 0.69779 0.19352
 C118 C 0.58632 0.70237 0.16342
 C119 C 0.66561 0.71401 0.22503
 C120 C 0.68316 0.70941 0.25234
 C121 C 0.58010 0.73265 0.10290
 C122 C 0.56011 0.73654 0.07721
 H123 H 0.68921 0.69578 0.15597
 H124 H 0.65004 0.70429 0.09995
 H125 H 0.60114 0.78978 0.14698
 H126 H 0.64028 0.78127 0.20295
 H127 H 0.59916 0.68058 0.21603
 H128 H 0.56008 0.68907 0.16015
 C129 C 0.70303 0.22897 -0.16815
 C130 C 0.69214 0.26877 -0.16199
 C131 C 0.66182 0.27267 -0.14108
 C132 C 0.64540 0.23639 -0.12840
 C133 C 0.67670 0.21661 -0.10910
 C134 C 0.70696 0.21271 -0.12998
 C135 C 0.66898 0.21072 -0.18422
 C136 C 0.63867 0.21462 -0.16332
 C137 C 0.73578 0.22450 -0.19037
 C138 C 0.76300 0.22024 -0.20809
 C139 C 0.61297 0.24037 -0.10560
 C140 C 0.58672 0.24326 -0.08627
 H141 H 0.70690 0.29184 -0.17309
 H142 H 0.65062 0.29909 -0.13427
 H143 H 0.67522 0.20654 -0.08143
 H144 H 0.73140 0.19931 -0.12019
 H145 H 0.66869 0.19607 -0.20978
 H146 H 0.61242 0.20331 -0.17097
 C147 C 0.30495 0.77978 -0.16499
 C148 C 0.30157 0.80012 -0.12882
 C149 C 0.33051 0.79520 -0.10622
 C150 C 0.36007 0.77041 -0.12194
 C151 C 0.37029 0.78773 -0.15847
 C152 C 0.34128 0.79266 -0.18112
 C153 C 0.31125 0.73988 -0.15444
 C154 C 0.34022 0.73495 -0.13180
 C155 C 0.27342 0.78517 -0.18888
 C156 C 0.24682 0.78977 -0.20757
 C157 C 0.39090 0.76522 -0.09709
 C158 C 0.41543 0.76119 -0.07568
 H159 H 0.27846 0.81696 -0.12160
 H160 H 0.33217 0.80783 -0.07965
 H161 H 0.39785 0.79539 -0.16589
 H162 H 0.34398 0.80455 -0.20796
 H163 H 0.29446 0.71747 -0.16396
 H164 H 0.34827 0.70832 -0.12194
 C165 C 0.18401 0.33651 0.24683
 C166 C 0.15201 0.31947 0.26759
 C167 C 0.12127 0.34016 0.26705
 C168 C 0.12554 0.37584 0.24579
 C169 C 0.13850 0.36435 0.20792
 C170 C 0.16927 0.34365 0.20846
 C171 C 0.18912 0.37434 0.26366
 C172 C 0.15843 0.39498 0.26311
 C173 C 0.21735 0.31468 0.24799
 C174 C 0.24524 0.29755 0.25017
 C175 C 0.09279 0.39860 0.24567
 C176 C 0.06669 0.41839 0.24643
 H177 H 0.15337 0.29343 0.28142
 H178 H 0.09628 0.33184 0.28041
 H179 H 0.12470 0.37177 0.18291
 H180 H 0.18185 0.33334 0.18393
 H181 H 0.21465 0.38410 0.27499
 H182 H 0.15769 0.42241 0.27398
 C183 C 0.15546 0.70352 0.75786
 C184 C 0.11713 0.70776 0.77375
 C185 C 0.09610 0.67741 0.77040
 C186 C 0.11539 0.64572 0.75146
 C187 C 0.15036 0.63959 0.77351
 C188 C 0.17143 0.66998 0.77687
 C189 C 0.14934 0.69170 0.71835
 C190 C 0.12825 0.66128 0.71498
 C191 C 0.17784 0.73637 0.76193
 C192 C 0.19568 0.76364 0.76617
 C193 C 0.09240 0.61317 0.74835
 C194 C 0.07285 0.58683 0.74690
 H195 H 0.10735 0.73247 0.78651
 H196 H 0.06829 0.67613 0.78027
 H197 H 0.15795 0.61365 0.78538
 H198 H 0.19706 0.67007 0.79162
 H199 H 0.16059 0.70594 0.69510
 H200 H 0.12143 0.64944 0.68885
 C201 C -0.20592 0.64338 0.27074
 C202 C -0.19210 0.64078 0.23155
 C203 C -0.16202 0.61943 0.22789
 C204 C -0.14876 0.60281 0.26378
 C205 C -0.18192 0.58256 0.27912
 C206 C -0.21193 0.60386 0.28278
 C207 C -0.17305 0.65668 0.29293
 C208 C -0.14298 0.63534 0.28926
 C209 C -0.23849 0.66596 0.27496
 C210 C -0.26569 0.68379 0.27898
 C211 C -0.11670 0.57941 0.26012
 C212 C -0.09102 0.55921 0.25768
 H213 H -0.20479 0.65451 0.20872
 H214 H -0.14893 0.61488 0.20191
 H215 H -0.18184 0.55395 0.28645
 H216 H -0.23755 0.59349 0.29324
 H217 H -0.17334 0.68076 0.30995
 H218 H -0.11752 0.64114 0.30315
 C219 C -0.14508 0.30631 0.75804
 C220 C -0.16627 0.34048 0.74680
 C221 C -0.14494 0.37075 0.74357
 C222 C -0.10456 0.36383 0.75191
 C223 C -0.09351 0.33277 0.72642
 C224 C -0.11482 0.30253 0.72964
 C225 C -0.12537 0.31685 0.79326
 C226 C -0.10409 0.34705 0.79004
 C227 C -0.16767 0.27359 0.76200
 C228 C -0.18554 0.24635 0.76628
 C229 C -0.08129 0.39619 0.74894
 C230 C -0.06149 0.42236 0.74752
 H231 H -0.19540 0.34086 0.74178
 H232 H -0.15581 0.39707 0.73579
 H233 H -0.07099 0.33441 0.70746
 H234 H -0.11055 0.27827 0.71344
 H235 H -0.12792 0.30192 0.81856
 H236 H -0.08843 0.35796 0.81259
 C237 C 0.26914 0.18766 0.31574
 C238 C 0.28606 0.15296 0.29996
 C239 C 0.28364 0.12360 0.32252
 C240 C 0.26454 0.13189 0.35858
 C241 C 0.22743 0.14777 0.34780
 C242 C 0.22985 0.17709 0.32528
 C243 C 0.28823 0.19321 0.35240
 C244 C 0.28581 0.16394 0.37489
 C245 C 0.27186 0.21965 0.29208
 C246 C 0.27439 0.24676 0.27380
 C247 C 0.26196 0.10084 0.38348
 C248 C 0.25984 0.07650 0.40532
 H249 H 0.29876 0.15157 0.27344
 H250 H 0.29426 0.09704 0.31533
 H251 H 0.20153 0.13689 0.35699
 H252 H 0.20603 0.19134 0.31517
 H253 H 0.30245 0.21799 0.36004
 H254 H 0.29796 0.16366 0.40178
 C255 C 0.77858 0.15177 0.68301
 C256 C 0.79319 0.16712 0.64710
 C257 C 0.78802 0.14444 0.61825
 C258 C 0.76876 0.10869 0.62820
 C259 C 0.73323 0.12024 0.64670
 C260 C 0.73839 0.14289 0.67553
 C261 C 0.79717 0.11469 0.68738
 C262 C 0.79201 0.09207 0.65860
 C263 C 0.78421 0.17565 0.71439
 C264 C 0.78896 0.19426 0.74093
 C265 C 0.76330 0.08379 0.59757
 C266 C 0.75902 0.06227 0.57326
 H267 H 0.80638 0.19346 0.64456
 H268 H 0.79678 0.15135 0.59098
 H269 H 0.70638 0.11146 0.63791
 H270 H 0.71597 0.15351 0.69142
 H271 H 0.81303 0.10688 0.71102
 H272 H 0.80346 0.06489 0.65760
 C273 C 0.23102 -0.14447 0.68077
 C274 C 0.26596 -0.15234 0.65942
 C275 C 0.27002 -0.13103 0.62937
 C276 C 0.23874 -0.10396 0.62368
 C277 C 0.23666 -0.08235 0.65921
 C278 C 0.23261 -0.10362 0.68920
 C279 C 0.20001 -0.14866 0.65306
 C280 C 0.20407 -0.12737 0.62306
 C281 C 0.22630 -0.16705 0.71325
 C282 C 0.22167 -0.18491 0.74032
 C283 C 0.24282 -0.08074 0.59156
 C284 C 0.24562 -0.06106 0.56553
 H285 H 0.28573 -0.17284 0.66719
 H286 H 0.29328 -0.13326 0.61140
 H287 H 0.23828 -0.05289 0.66070
 H288 H 0.23076 -0.09238 0.71636
 H289 H 0.17693 -0.16680 0.65667
 H290 H 0.18446 -0.12727 0.60097
 C291 C 0.71722 -0.20573 0.34539
 C292 C 0.75548 -0.20249 0.36194
 C293 C 0.75989 -0.17277 0.38358
 C294 C 0.72560 -0.14918 0.38657
 C295 C 0.69561 -0.17523 0.39953
 C296 C 0.69121 -0.20493 0.37790
 C297 C 0.71093 -0.16951 0.32559
 C298 C 0.71534 -0.13975 0.34726
 C299 C 0.71234 -0.23797 0.32245
 C300 C 0.70802 -0.26493 0.30431
 C301 C 0.73027 -0.11744 0.41024
 C302 C 0.73403 -0.09193 0.43045
 H303 H 0.77722 -0.22182 0.35704
 H304 H 0.78541 -0.16663 0.39723
 H305 H 0.67923 -0.17073 0.42359
 H306 H 0.67105 -0.22586 0.38344
 H307 H 0.70368 -0.16743 0.29709
 H308 H 0.71188 -0.11217 0.33732
 C309 C 0.68626 0.76585 -0.15277
 C310 C 0.65791 0.79548 -0.16060
 C311 C 0.62739 0.79267 -0.13980
 C312 C 0.62822 0.76051 -0.11324
 C313 C 0.66332 0.76571 -0.09113
 C314 C 0.69379 0.76852 -0.11189
 C315 C 0.66577 0.72974 -0.15774
 C316 C 0.63523 0.72692 -0.13694
 C317 C 0.71933 0.76919 -0.17476
 C318 C 0.74692 0.77268 -0.19211
 C319 C 0.59568 0.75765 -0.09041
 C320 C 0.56964 0.75552 -0.07067
 H321 H 0.66147 0.81675 -0.18074
 H322 H 0.60481 0.81153 -0.14213
 H323 H 0.66416 0.76704 -0.06171
 H324 H 0.72073 0.77224 -0.10025
 H325 H 0.67446 0.70830 -0.17599
 H326 H 0.61774 0.70308 -0.13737
 C327 C 0.35314 0.27619 -0.21670
 C328 C 0.33649 0.29084 -0.18147
 C329 C 0.35804 0.28581 -0.15173
 C330 C 0.39412 0.26661 -0.16015
 C331 C 0.41198 0.28979 -0.18987
 C332 C 0.39046 0.29481 -0.21957
 C333 C 0.36158 0.23606 -0.20881
 C334 C 0.38315 0.23103 -0.17906
 C335 C 0.33022 0.28189 -0.24884
 C336 C 0.31192 0.28710 -0.27555
 C337 C 0.41759 0.26159 -0.12828
 C338 C 0.43745 0.25834 -0.10240
 H339 H 0.31009 0.30397 -0.18001
 H340 H 0.35010 0.29462 -0.12479
 H341 H 0.43918 0.30124 -0.18778
 H342 H 0.39923 0.31058 -0.24291
 H343 H 0.35150 0.21361 -0.22513
 H344 H 0.39153 0.20426 -0.16988
 C345 C 0.32727 0.72721 0.18467
 C346 C 0.31188 0.70982 0.14998
 C347 C 0.33411 0.71359 0.12061
 C348 C 0.36949 0.73437 0.12886
 C349 C 0.38707 0.71370 0.16053
 C350 C 0.36491 0.70994 0.18983
 C351 C 0.33499 0.76698 0.17447
 C352 C 0.35720 0.77075 0.14511
 C353 C 0.30389 0.72299 0.21659
 C354 C 0.28568 0.71914 0.24351
 C355 C 0.39393 0.73825 0.09768
 C356 C 0.41516 0.74110 0.07296
 H357 H 0.28584 0.69584 0.14861
 H358 H 0.32711 0.70283 0.09406
 H359 H 0.41457 0.70293 0.15999
 H360 H 0.37342 0.69596 0.21437
 H361 H 0.32395 0.79013 0.18898
 H362 H 0.36518 0.79712 0.13447
 C363 C 0.65148 0.25050 0.18002
 C364 C 0.66702 0.27252 0.14819
 C365 C 0.64636 0.27061 0.11749
 C366 C 0.61218 0.24686 0.12162
 C367 C 0.59192 0.26276 0.15430
 C368 C 0.61255 0.26467 0.18496
 C369 C 0.64694 0.21166 0.16534
 C370 C 0.62624 0.20975 0.13459
 C371 C 0.67338 0.25320 0.21323
 C372 C 0.69072 0.25676 0.24083
 C373 C 0.58960 0.24546 0.08877
 C374 C 0.57035 0.24565 0.06224
 H375 H 0.69210 0.28817 0.14962
 H376 H 0.65374 0.28462 0.09262
 H377 H 0.56377 0.27170 0.15345
 H378 H 0.60207 0.27524 0.21036
 H379 H 0.65892 0.18782 0.17795
 H380 H 0.62049 0.18426 0.12084
 C381 C -0.15976 0.68666 0.77596
 C382 C -0.15020 0.67860 0.73626
 C383 C -0.12799 0.64928 0.73209
 C384 C -0.11753 0.63088 0.76803
 C385 C -0.15389 0.62170 0.78641
 C386 C -0.17613 0.65107 0.79058
 C387 C -0.12297 0.69058 0.79539
 C388 C -0.10080 0.66130 0.79123
 C389 C -0.18310 0.71863 0.78046
 C390 C -0.20118 0.74570 0.78418
 C391 C -0.09297 0.59982 0.76350
 C392 C -0.07142 0.57547 0.75965
 H393 H -0.16005 0.69449 0.71343
 H394 H -0.11883 0.64005 0.70568
 H395 H -0.16150 0.59458 0.79530
 H396 H -0.20281 0.64912 0.80307
 H397 H -0.11503 0.71430 0.81110
 H398 H -0.07387 0.65994 0.80337
 C399 C -0.19964 0.32473 0.26160
 C400 C -0.20960 0.36518 0.25929
 C401 C -0.18021 0.38761 0.25642
 C402 C -0.14368 0.36747 0.25613
 C403 C -0.14689 0.33996 0.22495
 C404 C -0.17636 0.31746 0.22783
 C405 C -0.17314 0.32193 0.29374
 C406 C -0.14372 0.34439 0.29086
 C407 C -0.23162 0.30102 0.26502
 C408 C -0.25853 0.28246 0.26843
 C409 C -0.11237 0.39217 0.25345
 C410 C -0.08746 0.41355 0.25219
 H411 H -0.23733 0.37531 0.25981
 H412 H -0.18279 0.41697 0.25449
 H413 H -0.12773 0.33828 0.20264
 H414 H -0.18245 0.29650 0.20798
 H415 H -0.17709 0.30383 0.31669
 H416 H -0.12246 0.34554 0.31136
 C417 C 0.20130 0.35443 0.71179
 C418 C 0.16529 0.33653 0.70022
 C419 C 0.13557 0.35792 0.70589
 C420 C 0.14482 0.39508 0.72258
 C421 C 0.17290 0.41202 0.69680
 C422 C 0.20258 0.39067 0.69114
 C423 C 0.19585 0.36497 0.75170
 C424 C 0.16614 0.38634 0.75738
 C425 C 0.23345 0.33173 0.70554
 C426 C 0.26024 0.31368 0.70007
 C427 C 0.11303 0.41837 0.72851
 C428 C 0.08726 0.43807 0.73305
 H429 H 0.16330 0.30946 0.68863
 H430 H 0.10812 0.34917 0.69917
 H431 H 0.16976 0.43849 0.68409
 H432 H 0.22484 0.39884 0.67358
 H433 H 0.21372 0.35636 0.77358
 H434 H 0.15856 0.39605 0.78411
 C435 C 0.17486 0.65239 0.26279
 C436 C 0.14027 0.66783 0.28022
 C437 C 0.11077 0.64541 0.27722
 C438 C 0.11880 0.60979 0.25709
 C439 C 0.15085 0.59274 0.27770
 C440 C 0.18027 0.61510 0.28069
 C441 C 0.16413 0.64398 0.22338
 C442 C 0.13463 0.62156 0.22038
 C443 C 0.20693 0.67597 0.26641
 C444 C 0.23398 0.69426 0.27012
 C445 C 0.08746 0.58513 0.25430
 C446 C 0.06259 0.56372 0.25293
 H447 H 0.13903 0.69407 0.29365
 H448 H 0.08425 0.65244 0.28808
 H449 H 0.15048 0.56544 0.28896
 H450 H 0.20509 0.60694 0.29452
 H451 H 0.17840 0.65473 0.19993
 H452 H 0.12362 0.61310 0.19435
 C453 C 0.76702 -0.16415 0.69584
 C454 C 0.78552 -0.18084 0.66247
 C455 C 0.78223 -0.16020 0.63188
 C456 C 0.76076 -0.12492 0.63771
 C457 C 0.78040 -0.10540 0.66895
 C458 C 0.78369 -0.12601 0.69948
 C459 C 0.72740 -0.15773 0.68420
 C460 C 0.72410 -0.13710 0.65362
 C461 C 0.77077 -0.18599 0.72894
 C462 C 0.77434 -0.20327 0.75655
 C463 C 0.75731 -0.10224 0.60512
 C464 C 0.75458 -0.08256 0.57909
 H465 H 0.79989 -0.20661 0.66282
 H466 H 0.79377 -0.16827 0.60603
 H467 H 0.79083 -0.07779 0.66724
 H468 H 0.79692 -0.11604 0.72391
 H469 H 0.70400 -0.16848 0.69867
 H470 H 0.69788 -0.13017 0.64189
 C471 C 0.25475 -0.19350 0.33446
 C472 C 0.27404 -0.19728 0.37124
 C473 C 0.27206 -0.16689 0.39219
 C474 C 0.25098 -0.13562 0.37437
 C475 C 0.21362 -0.15184 0.36471
 C476 C 0.21560 -0.18231 0.34370
 C477 C 0.27186 -0.15973 0.31681
 C478 C 0.26988 -0.12929 0.33779
 C479 C 0.25745 -0.22643 0.31222
 C480 C 0.26081 -0.25385 0.29461
 C481 C 0.24940 -0.10307 0.39729
 C482 C 0.24926 -0.07678 0.41681
 H483 H 0.28802 -0.22173 0.38009
 H484 H 0.28435 -0.16533 0.41898
 H485 H 0.18791 -0.14040 0.37354
 H486 H 0.19160 -0.19697 0.33453
 H487 H 0.28436 -0.15970 0.29014
 H488 H 0.28068 -0.10319 0.32910
 C489 C 0.72359 0.17207 0.33532
 C490 C 0.73252 0.13645 0.31555
 C491 C 0.73643 0.10738 0.33828
 C492 C 0.73101 0.11687 0.37848
 C493 C 0.69329 0.13461 0.38032
 C494 C 0.68939 0.16360 0.35765
 C495 C 0.75416 0.17686 0.36339
 C496 C 0.75806 0.14786 0.38607
 C497 C 0.71918 0.20370 0.31145
 C498 C 0.71512 0.23050 0.29300
 C499 C 0.73501 0.08603 0.40343
 C500 C 0.73790 0.06153 0.42499
 H501 H 0.73551 0.13425 0.28634
 H502 H 0.74276 0.08027 0.32854
 H503 H 0.67150 0.12518 0.39786
 H504 H 0.66427 0.17899 0.35577
 H505 H 0.77131 0.20089 0.36524
 H506 H 0.77853 0.14706 0.40735
 C507 C 0.27414 0.20293 0.63287
 C508 C 0.28922 0.20728 0.59432
 C509 C 0.28449 0.17728 0.57319
 C510 C 0.26514 0.14580 0.59265
 C511 C 0.22931 0.16204 0.60652
 C512 C 0.23405 0.19211 0.62769
 C513 C 0.29271 0.16876 0.64801
 C514 C 0.28798 0.13872 0.62686
 C515 C 0.27961 0.23538 0.65535
 C516 C 0.28482 0.26231 0.67331
 C517 C 0.26052 0.11362 0.56959
 C518 C 0.25775 0.08751 0.55002
 H519 H 0.30243 0.23181 0.58445
 H520 H 0.29365 0.17612 0.54523
 H521 H 0.20261 0.15090 0.60030
 H522 H 0.21141 0.20674 0.63961
 H523 H 0.30816 0.16820 0.67316
 H524 H 0.29937 0.11242 0.63390
   
