data_POSCAR
  _audit_creation_date              2014-09-24
  _audit_creation_method            'ToBaCCo'
  _symmetry_space_group_name_H-M    'P1'
  _symmetry_Int_Tables_number       1
  _symmetry_cell_setting            triclinic
  loop_
  _symmetry_equiv_pos_as_xyz
 x,y,z
_cell_length_a 37.8399
_cell_length_b 37.9316
_cell_length_c 38.9208
_cell_angle_alpha 89.782000
_cell_angle_beta 89.845800
_cell_angle_gamma 89.973100
loop_
  _atom_site_label
  _atom_site_type_symbol
  _atom_site_fract_x
  _atom_site_fract_y
  _atom_site_fract_z
C1 C 0.25074 0.39170 0.00493
 C2 C 0.27086 0.38735 0.03464
 C3 C 0.30021 0.36484 0.03433
 C4 C 0.30936 0.34571 0.00445
 C5 C 0.28935 0.35178 -0.02569
 C6 C 0.26014 0.37464 -0.02563
 C7 C 0.33858 0.31877 0.00494
 C8 C 0.35434 0.30681 -0.02599
 C9 C 0.37931 0.27928 -0.02605
 C10 C 0.39112 0.26618 0.00570
 C11 C 0.37755 0.27885 0.03655
 C12 C 0.35059 0.30403 0.03626
 H13 H 0.22865 0.40995 0.00525
 H14 H 0.31564 0.36283 0.05756
 H15 H 0.29485 0.33759 -0.04911
 H16 H 0.34830 0.31942 -0.05020
 H17 H 0.41087 0.24546 0.00669
 H18 H 0.33941 0.31164 0.06069
 C19 C 0.73496 0.60047 0.00072
 C20 C 0.72042 0.61152 0.03173
 C21 C 0.69507 0.63828 0.03208
 C22 C 0.68556 0.65645 0.00155
 C23 C 0.70100 0.64476 -0.02969
 C24 C 0.72479 0.61633 -0.03006
 C25 C 0.66116 0.68802 0.00278
 C26 C 0.64686 0.70328 -0.02753
 C27 C 0.62807 0.73536 -0.02638
 C28 C 0.61992 0.75002 0.00568
 C29 C 0.63168 0.73433 0.03597
 C30 C 0.65290 0.70432 0.03451
 H31 H 0.75403 0.57911 0.00051
 H32 H 0.68350 0.64436 0.05666
 H33 H 0.69530 0.65727 -0.05397
 H34 H 0.65134 0.69158 -0.05237
 H35 H 0.60337 0.77333 0.00719
 H36 H 0.66297 0.69481 0.05867
 C37 C 0.74572 0.38502 0.99841
 C38 C 0.73167 0.37252 0.96768
 C39 C 0.70346 0.34873 0.96842
 C40 C 0.68771 0.33815 0.99991
 C41 C 0.70177 0.35229 1.03063
 C42 C 0.73149 0.37438 1.02994
 C43 C 0.65839 0.31119 1.00057
 C44 C 0.64960 0.29249 1.03104
 C45 C 0.62542 0.26436 1.03061
 C46 C 0.60945 0.25503 0.99950
 C47 C 0.61617 0.27421 0.96954
 C48 C 0.63996 0.30240 0.97020
 H49 H 0.76801 0.40299 0.99780
 H50 H 0.69504 0.33816 0.94410
 H51 H 0.69050 0.34613 1.05542
 H52 H 0.66272 0.29783 1.05503
 H53 H 0.59046 0.23362 0.99881
 H54 H 0.64363 0.31700 0.94661
 C55 C 0.25366 0.61737 0.99920
 C56 C 0.27023 0.62170 0.96744
 C57 C 0.29902 0.64468 0.96428
 C58 C 0.31084 0.66460 0.99271
 C59 C 0.29339 0.65981 1.02463
 C60 C 0.26538 0.63585 1.02794
 C61 C 0.34144 0.68962 0.98915
 C62 C 0.36199 0.69913 1.01808
 C63 C 0.39124 0.72192 1.01488
 C64 C 0.39941 0.73548 0.98226
 C65 C 0.38047 0.72556 0.95329
 C66 C 0.35108 0.70355 0.95665
 H67 H 0.23205 0.59875 1.00176
 H68 H 0.31221 0.64616 0.93967
 H69 H 0.30099 0.67461 1.04710
 H70 H 0.35667 0.68750 1.04294
 H71 H 0.42073 0.75432 0.97908
 H72 H 0.33617 0.69761 0.93376
 C73 C 0.00676 0.25289 0.37865
 C74 C 0.03882 0.26308 0.36400
 C75 C 0.03958 0.28997 0.33930
 C76 C 0.00835 0.30825 0.32991
 C77 C -0.02376 0.29775 0.34586
 C78 C -0.02455 0.26989 0.36965
 C79 C 0.00948 0.33817 0.30422
 C80 C -0.02172 0.35066 0.28806
 C81 C -0.02092 0.37948 0.26513
 C82 C 0.01177 0.39495 0.25727
 C83 C 0.04293 0.38266 0.27198
 C84 C 0.04180 0.35510 0.29590
 H85 H 0.00629 0.23206 0.39783
 H86 H 0.06480 0.29587 0.32765
 H87 H -0.04836 0.31115 0.34082
 H88 H -0.04709 0.33917 0.29392
 H89 H 0.01318 0.41663 0.23904
 H90 H 0.06637 0.34784 0.30800
 C91 C -0.00468 0.73618 0.60905
 C92 C 0.02775 0.72109 0.61753
 C93 C 0.02906 0.69276 0.64073
 C94 C -0.00188 0.68074 0.65782
 C95 C -0.03437 0.69721 0.64901
 C96 C -0.03575 0.72435 0.62456
 C97 C -0.00005 0.65356 0.68639
 C98 C -0.03127 0.63870 0.70064
 C99 C -0.03041 0.61926 0.73146
 C100 C 0.00239 0.61044 0.74568
 C101 C 0.03381 0.62167 0.73037
 C102 C 0.03265 0.64375 0.70148
 H103 H -0.00563 0.75785 0.59081
 H104 H 0.05465 0.68132 0.64556
 H105 H -0.05889 0.69057 0.66159
 H106 H -0.05680 0.64347 0.68932
 H107 H 0.00357 0.59380 0.76839
 H108 H 0.05759 0.65350 0.69201
 C109 C 0.99177 0.73935 0.39859
 C110 C 0.95997 0.72477 0.38772
 C111 C 0.95974 0.70019 0.36104
 C112 C 0.99121 0.69156 0.34314
 C113 C 1.02290 0.70829 0.35377
 C114 C 1.02384 0.73054 0.38263
 C115 C 0.99114 0.66510 0.31413
 C116 C 1.02316 0.65045 0.30159
 C117 C 1.02350 0.62543 0.27500
 C118 C 0.99123 0.61451 0.26104
 C119 C 0.95925 0.62744 0.27355
 C120 C 0.95915 0.65329 0.29914
 H121 H 0.99140 0.75700 0.42046
 H122 H 0.93470 0.68822 0.35499
 H123 H 1.04713 0.70527 0.33947
 H124 H 1.04835 0.65846 0.31173
 H125 H 0.99080 0.59437 0.24131
 H126 H 0.93375 0.66335 0.30699
 C127 C 0.99984 0.25858 0.60113
 C128 C 0.96797 0.26814 0.61655
 C129 C 0.96813 0.29065 0.64497
 C130 C 0.99981 0.30658 0.65653
 C131 C 1.03173 0.29696 0.63970
 C132 C 1.03172 0.27236 0.61287
 C133 C 0.99922 0.33305 0.68549
 C134 C 1.03077 0.34400 0.70197
 C135 C 1.03012 0.36946 0.72815
 C136 C 0.99759 0.38205 0.73994
 C137 C 0.96625 0.37216 0.72412
 C138 C 0.96701 0.34847 0.69666
 H139 H 0.99983 0.24042 0.57966
 H140 H 0.94306 0.29537 0.65736
 H141 H 1.05684 0.30826 0.64669
 H142 H 1.05614 0.33308 0.69512
 H143 H 0.99668 0.40153 0.76028
 H144 H 0.94220 0.34320 0.68413
 C145 C 0.38285 -0.00161 0.24440
 C146 C 0.37683 0.02830 0.26439
 C147 C 0.35551 0.02587 0.29368
 C148 C 0.33910 -0.00624 0.30311
 C149 C 0.34675 -0.03648 0.28314
 C150 C 0.36851 -0.03442 0.25376
 C151 C 0.31395 -0.00778 0.33321
 C152 C 0.30456 -0.04023 0.34899
 C153 C 0.28030 -0.04118 0.37632
 C154 C 0.26653 -0.00983 0.38931
 C155 C 0.27587 0.02243 0.37481
 C156 C 0.29847 0.02346 0.34634
 H157 H 0.40047 0.00044 0.22245
 H158 H 0.35257 0.04935 0.30900
 H159 H 0.33474 -0.06161 0.28903
 H160 H 0.31576 -0.06495 0.34066
 H161 H 0.24848 -0.01054 0.41101
 H162 H 0.30332 0.04893 0.33483
 C163 C 0.61651 0.01965 0.75046
 C164 C 0.62349 0.04907 0.72996
 C165 C 0.64399 0.04559 0.70021
 C166 C 0.65980 0.01291 0.69179
 C167 C 0.65277 -0.01637 0.71347
 C168 C 0.63086 -0.01341 0.74259
 C169 C 0.68402 0.00939 0.66120
 C170 C 0.69220 -0.02414 0.64735
 C171 C 0.71654 -0.02760 0.62044
 C172 C 0.73110 0.00238 0.60523
 C173 C 0.72250 0.03582 0.61738
 C174 C 0.69993 0.03937 0.64577
 H175 H 0.59865 0.02255 0.77211
 H176 H 0.64734 0.06865 0.68419
 H177 H 0.66532 -0.04150 0.70906
 H178 H 0.68010 -0.04797 0.65700
 H179 H 0.74926 -0.00031 0.58379
 H180 H 0.69544 0.06563 0.65543
 C181 C 0.39312 1.00399 0.73777
 C182 C 0.38416 0.97130 0.72413
 C183 C 0.35917 0.96917 0.69773
 C184 C 0.34100 0.99963 0.68603
 C185 C 0.34992 1.03237 0.70126
 C186 C 0.37669 1.03463 0.72598
 C187 C 0.31344 0.99728 0.65809
 C188 C 0.30193 1.02778 0.64012
 C189 C 0.27585 1.02591 0.61448
 C190 C 0.26208 0.99281 0.60581
 C191 C 0.27391 0.96212 0.62198
 C192 C 0.29831 0.96450 0.64886
 H193 H 0.41316 1.00561 0.75758
 H194 H 0.35448 0.94350 0.68684
 H195 H 0.33669 1.05655 0.69440
 H196 H 0.31221 1.05347 0.64628
 H197 H 0.24275 0.99071 0.58538
 H198 H 0.30498 0.94037 0.66209
 C199 C 0.60268 0.99233 0.26372
 C200 C 0.61692 0.96109 0.27620
 C201 C 0.64434 0.96191 0.30005
 C202 C 0.65609 0.99431 0.31392
 C203 C 0.63991 1.02579 0.30183
 C204 C 0.61432 1.02514 0.27559
 C205 C 0.68464 0.99518 0.34086
 C206 C 0.70302 1.02675 0.34838
 C207 C 0.72945 1.02743 0.37350
 C208 C 0.73883 0.99642 0.39062
 C209 C 0.72150 0.96479 0.38357
 C210 C 0.69421 0.96433 0.35930
 H211 H 0.58261 0.99079 0.24392
 H212 H 0.65589 0.93699 0.30731
 H213 H 0.64591 1.05092 0.31335
 H214 H 0.69772 1.05098 0.33470
 H215 H 0.75955 0.99698 0.40981
 H216 H 0.68074 0.93960 0.35554
 O217 O 0.81139 0.86919 0.54205
 O218 O 0.86192 0.81945 0.47787
 O219 O 0.81304 0.86809 0.47595
 O220 O 0.86275 0.82396 0.54382
 O221 O 0.82280 0.78169 0.54654
 O222 O 0.77298 0.82588 0.47640
 O223 O 0.82233 0.77676 0.47976
 O224 O 0.77038 0.82767 0.54280
 Cu225 Cu 0.84124 0.84933 0.50966
 Cu226 Cu 0.79315 0.79863 0.51152
 C227 C 0.78194 0.85733 0.55267
 C228 C 0.85136 0.78915 0.46866
 C229 C 0.78415 0.85540 0.46517
 C230 C 0.85160 0.79541 0.55686
 O231 O 0.17759 0.12479 0.52960
 O232 O 0.13092 0.16838 0.45919
 O233 O 0.17898 0.12044 0.46408
 O234 O 0.12871 0.17378 0.52564
 O235 O 0.16980 0.21501 0.52395
 O236 O 0.22038 0.16139 0.46176
 O237 O 0.17176 0.20985 0.45696
 O238 O 0.21906 0.16521 0.52809
 Cu239 Cu 0.14976 0.14296 0.49509
 Cu240 Cu 0.19930 0.19218 0.49277
 C241 C 0.20715 0.13636 0.54002
 C242 C 0.14346 0.19614 0.44563
 C243 C 0.20858 0.13140 0.45296
 C244 C 0.14010 0.20381 0.53465
 O245 O 0.18349 0.86753 0.46797
 O246 O 0.12879 0.82128 0.53170
 O247 O 0.17988 0.86689 0.53417
 O248 O 0.12978 0.82543 0.46528
 O249 O 0.16584 0.78013 0.46520
 O250 O 0.21772 0.82283 0.53450
 O251 O 0.16613 0.77652 0.53172
 O252 O 0.22089 0.82291 0.46712
 Cu253 Cu 0.15180 0.84965 0.49981
 Cu254 Cu 0.19652 0.79617 0.49954
 C255 C 0.21174 0.85340 0.45694
 C256 C 0.13799 0.79099 0.54251
 C257 C 0.20769 0.85263 0.54585
 C258 C 0.13849 0.79549 0.45353
 O259 O 0.82896 0.12628 0.45646
 O260 O 0.87207 0.17434 0.52593
 O261 O 0.82359 0.12583 0.52266
 O262 O 0.87613 0.17591 0.45988
 O263 O 0.83463 0.21675 0.45746
 O264 O 0.78188 0.16647 0.52073
 O265 O 0.83075 0.21507 0.52433
 O266 O 0.78683 0.16644 0.45398
 Cu267 Cu 0.85429 0.14653 0.49146
 Cu268 Cu 0.80431 0.19529 0.48885
 C269 C 0.80052 0.13781 0.44342
 C270 C 0.85944 0.20327 0.53674
 C271 C 0.79349 0.13722 0.53195
 C272 C 0.86480 0.20523 0.44854
 O273 O 0.47042 0.87790 0.82671
 O274 O 0.53717 0.83340 0.87941
 O275 O 0.53728 0.88647 0.83669
 O276 O 0.46980 0.82679 0.87098
 O277 O 0.47897 0.78985 0.82820
 O278 O 0.55009 0.84837 0.79603
 O279 O 0.54685 0.79465 0.83827
 O280 O 0.48246 0.84218 0.78354
 Cu281 Cu 0.50262 0.85984 0.85763
 Cu282 Cu 0.51556 0.81504 0.80716
 C283 C 0.46532 0.86795 0.79604
 C284 C 0.55327 0.80639 0.86813
 C285 C 0.55572 0.87768 0.81088
 C286 C 0.46306 0.79804 0.85585
 O287 O 0.53493 0.16947 0.12645
 O288 O 0.46308 0.12951 0.17530
 O289 O 0.46711 0.17845 0.12845
 O290 O 0.52998 0.12414 0.17681
 O291 O 0.53611 0.16626 0.21550
 O292 O 0.47177 0.22021 0.16749
 O293 O 0.46826 0.17017 0.21541
 O294 O 0.54085 0.21152 0.16491
 Cu295 Cu 0.49834 0.14649 0.14768
 Cu296 Cu 0.50448 0.19660 0.19451
 C297 C 0.55058 0.19684 0.13706
 C298 C 0.45461 0.14168 0.20444
 C299 C 0.45908 0.20887 0.13948
 C300 C 0.54291 0.13547 0.20476
 O301 O 0.45968 0.18300 0.86991
 O302 O 0.52894 0.14063 0.81926
 O303 O 0.52643 0.18445 0.86925
 O304 O 0.46046 0.13552 0.82034
 O305 O 0.45661 0.17884 0.78260
 O306 O 0.52473 0.22779 0.83120
 O307 O 0.52546 0.18266 0.77993
 O308 O 0.45672 0.22671 0.83226
 Cu309 Cu 0.49368 0.15626 0.84816
 Cu310 Cu 0.49038 0.20822 0.80244
 C311 C 0.44809 0.21301 0.86088
 C312 C 0.53922 0.15437 0.79120
 C313 C 0.53613 0.21481 0.85927
 C314 C 0.44804 0.14808 0.79265
 O315 O 0.47537 0.82360 0.11347
 O316 O 0.52969 0.87298 0.17456
 O317 O 0.54122 0.82847 0.12707
 O318 O 0.46265 0.87243 0.16031
 O319 O 0.45542 0.83091 0.19943
 O320 O 0.53424 0.78491 0.16429
 O321 O 0.52318 0.83050 0.21305
 O322 O 0.46691 0.78177 0.15231
 Cu323 Cu 0.50236 0.85380 0.14013
 Cu324 Cu 0.49391 0.80283 0.18625
 C325 C 0.46316 0.79362 0.12201
 C326 C 0.53619 0.85993 0.20395
 C327 C 0.55117 0.79924 0.13960
 C328 C 0.44584 0.85994 0.18579
 O329 O 0.87336 0.53138 0.82721
 O330 O 0.82779 0.45924 0.87039
 O331 O 0.87328 0.46371 0.82077
 O332 O 0.82376 0.52692 0.87369
 O333 O 0.78248 0.53000 0.83387
 O334 O 0.83107 0.46520 0.78172
 O335 O 0.78472 0.46143 0.83228
 O336 O 0.83248 0.53369 0.78696
 Cu337 Cu 0.85373 0.49520 0.85184
 Cu338 Cu 0.80347 0.49778 0.80472
 C339 C 0.86131 0.54480 0.79979
 C340 C 0.79845 0.44815 0.85924
 C341 C 0.86085 0.45408 0.79201
 C342 C 0.79418 0.53858 0.86318
 O343 O 0.12706 0.54506 0.17971
 O344 O 0.17896 0.48182 0.13018
 O345 O 0.13362 0.47788 0.18038
 O346 O 0.17257 0.54974 0.12996
 O347 O 0.21620 0.55442 0.16715
 O348 O 0.17642 0.48218 0.21854
 O349 O 0.22259 0.48587 0.16751
 O350 O 0.16991 0.55042 0.21734
 Cu351 Cu 0.14887 0.51316 0.15124
 Cu352 Cu 0.20076 0.51857 0.19639
 C353 C 0.13893 0.55814 0.20736
 C354 C 0.20978 0.47342 0.13994
 C355 C 0.14756 0.46852 0.20859
 C356 C 0.20093 0.56441 0.13974
 O357 O 0.87570 0.46694 0.17582
 O358 O 0.82041 0.52989 0.12937
 O359 O 0.86844 0.53410 0.17753
 O360 O 0.82788 0.46254 0.12835
 O361 O 0.78564 0.45731 0.16730
 O362 O 0.82720 0.52877 0.21738
 O363 O 0.77873 0.52519 0.16887
 O364 O 0.83425 0.46063 0.21555
 Cu365 Cu 0.85218 0.49904 0.14879
 Cu366 Cu 0.80224 0.49250 0.19632
 C367 C 0.86477 0.45354 0.20375
 C368 C 0.78977 0.53745 0.14040
 C369 C 0.85567 0.54270 0.20651
 C370 C 0.79967 0.44805 0.13903
 O371 O 0.11984 0.46445 0.82435
 O372 O 0.17105 0.52696 0.87597
 O373 O 0.12474 0.53238 0.82723
 O374 O 0.16292 0.45966 0.87607
 O375 O 0.20710 0.45535 0.83935
 O376 O 0.16736 0.52848 0.78857
 O377 O 0.21477 0.52376 0.83841
 O378 O 0.16398 0.45975 0.78760
 Cu379 Cu 0.14027 0.49622 0.85455
 Cu380 Cu 0.19278 0.49169 0.80970
 C381 C 0.13293 0.45162 0.79699
 C382 C 0.20199 0.53542 0.86633
 C383 C 0.13903 0.54275 0.79953
 C384 C 0.19133 0.44495 0.86651
 C385 C 0.21365 0.41827 0.10722
 C386 C 0.22840 0.39738 0.08164
 C387 C 0.26035 0.40679 0.06594
 C388 C 0.27867 0.43710 0.07741
 C389 C 0.26369 0.45845 0.10363
 C390 C 0.23043 0.44920 0.11805
 C391 C 0.28171 0.48938 0.11302
 N392 N 0.31272 0.49787 0.09753
 N393 N 0.32677 0.47779 0.07307
 C394 C 0.31075 0.44783 0.06236
 H395 H 0.18810 0.41100 0.11771
 H396 H 0.21393 0.37448 0.07287
 H397 H 0.27153 0.50703 0.13233
 H398 H 0.32318 0.43284 0.04208
 C399 C 0.78332 0.58867 0.10225
 C400 C 0.76678 0.60636 0.07544
 C401 C 0.73347 0.59581 0.06400
 C402 C 0.71545 0.56826 0.08119
 C403 C 0.73221 0.55011 0.10869
 C404 C 0.76707 0.55987 0.11851
 C405 C 0.71398 0.52170 0.12396
 N406 N 0.68133 0.51270 0.11270
 N407 N 0.66569 0.52989 0.08702
 C408 C 0.68167 0.55726 0.07080
 H409 H 0.80989 0.59646 0.10925
 H410 H 0.78081 0.62745 0.06240
 H411 H 0.72503 0.50643 0.14468
 H412 H 0.66788 0.57011 0.04991
 C413 C 0.74397 0.42726 0.88797
 C414 C 0.72788 0.40926 0.91515
 C415 C 0.74698 0.38478 0.93474
 C416 C 0.78172 0.37566 0.92467
 C417 C 0.79798 0.39370 0.89689
 C418 C 0.77957 0.42123 0.87983
 C419 C 0.83243 0.38370 0.88730
 N420 N 0.84938 0.35781 0.90485
 N421 N 0.83423 0.34121 0.93125
 C422 C 0.80100 0.34923 0.94177
 H423 H 0.72937 0.44803 0.87516
 H424 H 0.70114 0.41627 0.92247
 H425 H 0.84576 0.39575 0.86563
 H426 H 0.78978 0.33459 0.96306
 C427 C 0.20708 0.58957 0.90054
 C428 C 0.22373 0.61066 0.92475
 C429 C 0.25691 0.60147 0.93781
 C430 C 0.27415 0.57085 0.92553
 C431 C 0.25717 0.54920 0.90088
 C432 C 0.22313 0.55868 0.88857
 C433 C 0.27418 0.51782 0.89089
 N434 N 0.30619 0.50937 0.90418
 N435 N 0.32221 0.52990 0.92702
 C436 C 0.30725 0.56022 0.93827
 H437 H 0.18097 0.59697 0.89174
 H438 H 0.21006 0.63375 0.93432
 H439 H 0.26237 0.49964 0.87304
 H440 H 0.32127 0.57558 0.95719
 C441 C 0.11867 0.24999 0.41902
 C442 C 0.09302 0.26641 0.39890
 C443 C 0.07159 0.24662 0.37693
 C444 C 0.07850 0.21028 0.37252
 C445 C 0.10484 0.19362 0.39262
 C446 C 0.12344 0.21337 0.41765
 C447 C 0.11152 0.15759 0.38703
 N448 N 0.09236 0.13958 0.36349
 N449 N 0.06711 0.15515 0.34511
 C450 C 0.05950 0.18987 0.34882
 H451 H 0.13287 0.26562 0.43768
 H452 H 0.08799 0.29429 0.40248
 H453 H 0.13221 0.14372 0.40060
 H454 H 0.03907 0.20133 0.33291
 C455 C 0.10516 0.73710 0.55877
 C456 C 0.07828 0.71998 0.57688
 C457 C 0.06032 0.73719 0.60345
 C458 C 0.07134 0.77129 0.61361
 C459 C 0.09862 0.78870 0.59522
 C460 C 0.11457 0.77192 0.56664
 C461 C 0.10918 0.82235 0.60632
 N462 N 0.09298 0.83752 0.63365
 N463 N 0.06710 0.82129 0.65070
 C464 C 0.05576 0.78872 0.64169
 H465 H 0.11721 0.72382 0.53709
 H466 H 0.07014 0.69388 0.56893
 H467 H 0.13056 0.83650 0.59400
 H468 H 0.03507 0.77655 0.65682
 C469 C 0.88834 0.78576 0.41670
 C470 C 0.91440 0.76999 0.39672
 C471 C 0.92706 0.73632 0.40479
 C472 C 0.91192 0.71738 0.43251
 C473 C 0.88529 0.73340 0.45302
 C474 C 0.87403 0.76833 0.44532
 C475 C 0.87248 0.71443 0.48162
 N476 N 0.88501 0.68167 0.48854
 N477 N 0.90970 0.66663 0.46906
 C478 C 0.92369 0.68341 0.44139
 H479 H 0.88027 0.81247 0.41056
 H480 H 0.92613 0.78491 0.37581
 H481 H 0.85287 0.72517 0.49877
 H482 H 0.94390 0.67008 0.42664
 C483 C 0.90248 0.20256 0.58400
 C484 C 0.92929 0.21798 0.60300
 C485 C 0.93460 0.25437 0.60207
 C486 C 0.91048 0.27604 0.58383
 C487 C 0.88241 0.26042 0.56487
 C488 C 0.87991 0.22289 0.56322
 C489 C 0.85905 0.28323 0.54742
 N490 N 0.86413 0.31859 0.54821
 N491 N 0.89100 0.33294 0.56508
 C492 C 0.91440 0.31292 0.58275
 H493 H 0.90072 0.17404 0.58405
 H494 H 0.94736 0.20113 0.61706
 H495 H 0.83644 0.27398 0.53350
 H496 H 0.93577 0.32616 0.59573
 C497 C 0.40074 0.10596 0.20912
 C498 C 0.38257 0.07744 0.22311
 C499 C 0.39332 0.06219 0.25415
 C500 C 0.42156 0.07757 0.27267
 C501 C 0.43993 0.10702 0.25861
 C502 C 0.43020 0.12032 0.22575
 C503 C 0.46874 0.12060 0.27717
 N504 N 0.47827 0.10572 0.30749
 N505 N 0.46124 0.07799 0.32044
 C506 C 0.43339 0.06330 0.30402
 H507 H 0.39311 0.11548 0.18391
 H508 H 0.36101 0.06596 0.20868
 H509 H 0.48400 0.14274 0.26809
 H510 H 0.42100 0.04049 0.31557
 C511 C 0.55838 0.12285 0.73896
 C512 C 0.57914 0.09671 0.72380
 C513 C 0.60885 0.08336 0.74088
 C514 C 0.61988 0.09905 0.77199
 C515 C 0.59878 0.12541 0.78739
 C516 C 0.56683 0.13590 0.77155
 C517 C 0.61002 0.13996 0.81869
 N518 N 0.64040 0.12856 0.83344
 N519 N 0.66020 0.10359 0.81902
 C520 C 0.65098 0.08842 0.78885
 H521 H 0.53398 0.13061 0.72657
 H522 H 0.57037 0.08482 0.70003
 H523 H 0.59515 0.16058 0.83125
 H524 H 0.66815 0.06845 0.77812
 C525 C 0.45214 0.90183 0.74325
 C526 C 0.43253 0.92737 0.72580
 C527 C 0.40030 0.93934 0.73913
 C528 C 0.38642 0.92371 0.76934
 C529 C 0.40632 0.89781 0.78708
 C530 C 0.44014 0.88800 0.77463
 C531 C 0.39167 0.88269 0.81696
 N532 N 0.35955 0.89342 0.82839
 N533 N 0.34111 0.91818 0.81199
 C534 C 0.35344 0.93373 0.78291
 H535 H 0.47797 0.89467 0.73342
 H536 H 0.44346 0.93929 0.70277
 H537 H 0.40521 0.86213 0.83103
 H538 H 0.33726 0.95354 0.77052
 C539 C 0.59172 0.89168 0.21384
 C540 C 0.61243 0.91543 0.23197
 C541 C 0.60137 0.92787 0.26398
 C542 C 0.57012 0.91429 0.27912
 C543 C 0.54886 0.89018 0.26063
 C544 C 0.55946 0.87967 0.22723
 C545 C 0.51669 0.87928 0.27550
 N546 N 0.50722 0.89114 0.30704
 N547 N 0.52746 0.91342 0.32455
 C548 C 0.55848 0.92554 0.31161
 H549 H 0.60011 0.88399 0.18832
 H550 H 0.63589 0.92619 0.21984
 H551 H 0.49879 0.86174 0.26242
 H552 H 0.57380 0.94379 0.32681
 C553 C 0.44759 0.24411 0.91521
 C554 C 0.43106 0.26020 0.94273
 C555 C 0.39429 0.26588 0.94320
 C556 C 0.37422 0.25582 0.91363
 C557 C 0.39177 0.24023 0.88497
 C558 C 0.42845 0.23364 0.88646
 C559 C 0.37175 0.23004 0.85637
 N560 N 0.33619 0.23414 0.85672
 N561 N 0.31940 0.24723 0.88393
 C562 C 0.33701 0.25772 0.91244
 H563 H 0.47578 0.23920 0.91666
 H564 H 0.44750 0.26826 0.96407
 H565 H 0.38403 0.21852 0.83392
 H566 H 0.32141 0.26640 0.93402
 C567 C 0.57785 0.75136 0.89346
 C568 C 0.59665 0.73373 0.91918
 C569 C 0.61638 0.75263 0.94350
 C570 C 0.62119 0.78953 0.93847
 C571 C 0.60262 0.80721 0.91195
 C572 C 0.57900 0.78823 0.89076
 C573 C 0.60909 0.84337 0.90683
 N574 N 0.63236 0.86063 0.92712
 N575 N 0.65000 0.84406 0.95192
 C576 C 0.64549 0.80916 0.95807
 H577 H 0.56054 0.73628 0.87697
 H578 H 0.59301 0.70552 0.92190
 H579 H 0.59681 0.85777 0.88616
 H580 H 0.66172 0.79693 0.97756
 C581 C 0.41098 0.76157 0.09969
 C582 C 0.39359 0.74266 0.07407
 C583 C 0.41129 0.73283 0.04368
 C584 C 0.44851 0.73842 0.04166
 C585 C 0.46567 0.75903 0.06687
 C586 C 0.44636 0.77146 0.09562
 C587 C 0.50206 0.76566 0.06289
 N588 N 0.52030 0.75083 0.03665
 N589 N 0.50466 0.72967 0.01416
 C590 C 0.46959 0.72265 0.01597
 H591 H 0.39621 0.77009 0.12206
 H592 H 0.36545 0.73835 0.07700
 H593 H 0.51633 0.78203 0.08058
 H594 H 0.45860 0.70434 -0.00235
 C595 C 0.58262 0.24940 0.11467
 C596 C 0.60150 0.26608 0.08836
 C597 C 0.61567 0.24649 0.06101
 C598 C 0.61581 0.20912 0.06344
 C599 C 0.59824 0.19220 0.09117
 C600 C 0.57873 0.21262 0.11517
 C601 C 0.60119 0.15528 0.09410
 N602 N 0.61950 0.13675 0.07024
 N603 N 0.63547 0.15259 0.04388
 C604 C 0.63444 0.18807 0.03976
 H605 H 0.56875 0.26559 0.13320
 H606 H 0.60165 0.29465 0.08751
 H607 H 0.59021 0.14100 0.11569
 H608 H 0.64901 0.19955 0.01856
 C609 C 0.20823 0.08772 0.58190
 C610 C 0.22468 0.05970 0.59819
 C611 C 0.26159 0.05655 0.59887
 C612 C 0.28230 0.08382 0.58351
 C613 C 0.26533 0.11324 0.56736
 C614 C 0.22763 0.11399 0.56478
 C615 C 0.28711 0.13991 0.55345
 N616 N 0.32273 0.13630 0.55365
 N617 N 0.33832 0.10780 0.56656
 C618 C 0.31941 0.08138 0.58111
 H619 H 0.17959 0.08785 0.58146
 H620 H 0.20807 0.04000 0.61043
 H621 H 0.27686 0.16398 0.54284
 H622 H 0.33372 0.05846 0.58990
 C623 C 0.74546 0.11180 0.42070
 C624 C 0.72809 0.08450 0.40381
 C625 C 0.74697 0.06069 0.38337
 C626 C 0.78331 0.06659 0.37702
 C627 C 0.80092 0.09462 0.39379
 C628 C 0.78217 0.11592 0.41759
 C629 C 0.83687 0.10022 0.38621
 N630 N 0.85395 0.07854 0.36404
 N631 N 0.83752 0.05177 0.34887
 C632 C 0.80281 0.04503 0.35460
 H633 H 0.73052 0.12797 0.43844
 H634 H 0.70020 0.08035 0.40876
 H635 H 0.85138 0.12202 0.39708
 H636 H 0.79064 0.02324 0.34124
 C637 C 0.73236 0.89832 0.55917
 C638 C 0.71651 0.92681 0.57555
 C639 C 0.72799 0.93751 0.60803
 C640 C 0.75428 0.91768 0.62531
 C641 C 0.77029 0.88863 0.60858
 C642 C 0.76015 0.87998 0.57475
 C643 C 0.79653 0.86957 0.62605
 N644 N 0.80642 0.87947 0.65806
 N645 N 0.79186 0.90715 0.67361
 C646 C 0.76624 0.92667 0.65831
 H647 H 0.72465 0.89226 0.53313
 H648 H 0.69667 0.94195 0.56193
 H649 H 0.80880 0.84665 0.61466
 H650 H 0.75539 0.94887 0.67213
 C651 C 0.21559 0.89089 0.40550
 C652 C 0.23236 0.91626 0.38546
 C653 C 0.26761 0.92537 0.39149
 C654 C 0.28715 0.90661 0.41652
 C655 C 0.27018 0.88037 0.43688
 C656 C 0.23356 0.87357 0.43210
 C657 C 0.29018 0.86343 0.46249
 N658 N 0.32463 0.87206 0.46707
 N659 N 0.34040 0.89670 0.44803
 C660 C 0.32281 0.91439 0.42305
 H661 H 0.18769 0.88605 0.40137
 H662 H 0.21701 0.93063 0.36655
 H663 H 0.27904 0.84342 0.47892
 H664 H 0.33687 0.93431 0.40851
 C665 C 0.08916 0.40397 0.79479
 C666 C 0.06438 0.38331 0.77813
 C667 C 0.06107 0.38400 0.74225
 C668 C 0.08467 0.40547 0.72266
 C669 C 0.10955 0.42740 0.73988
 C670 C 0.11126 0.42690 0.77646
 C671 C 0.13009 0.45074 0.71979
 N672 N 0.12661 0.45135 0.68517
 N673 N 0.10356 0.43080 0.66912
 C674 C 0.08229 0.40826 0.68657
 H675 H 0.09009 0.40299 0.82262
 H676 H 0.04661 0.36739 0.79363
 H677 H 0.14843 0.46913 0.73085
 H678 H 0.06350 0.39331 0.67184
 C679 C 0.08772 0.59768 0.20889
 C680 C 0.05872 0.61241 0.22509
 C681 C 0.05537 0.61215 0.26098
 C682 C 0.08353 0.59773 0.28095
 C683 C 0.11398 0.58342 0.26420
 C684 C 0.11490 0.58148 0.22757
 C685 C 0.14149 0.57034 0.28504
 N686 N 0.13787 0.56964 0.31967
 N687 N 0.10854 0.58072 0.33508
 C688 C 0.08118 0.59424 0.31698
 H689 H 0.08805 0.59765 0.18104
 H690 H 0.03834 0.62402 0.20910
 H691 H 0.16608 0.56091 0.27476
 H692 H 0.05766 0.60128 0.33110
 C693 C 0.91644 0.44997 0.24054
 C694 C 0.94491 0.43203 0.25448
 C695 C 0.94788 0.39510 0.25204
 C696 C 0.92023 0.37606 0.23542
 C697 C 0.89087 0.39475 0.22149
 C698 C 0.88962 0.43191 0.22362
 C699 C 0.86439 0.37577 0.20440
 N700 N 0.86752 0.34040 0.20066
 N701 N 0.89552 0.32294 0.21247
 C702 C 0.92208 0.33950 0.22930
 H703 H 0.91596 0.47851 0.24196
 H704 H 0.96501 0.44741 0.26738
 H705 H 0.84140 0.38880 0.19381
 H706 H 0.94467 0.32393 0.23677
 C707 C 0.88589 0.57089 0.74621
 C708 C 0.91295 0.58910 0.72931
 C709 C 0.93825 0.60816 0.74801
 C710 C 0.93257 0.61340 0.78381
 C711 C 0.90447 0.59570 0.80072
 C712 C 0.88277 0.57208 0.78209
 C713 C 0.89865 0.60267 0.83581
 N714 N 0.91985 0.62554 0.85271
 N715 N 0.94620 0.64223 0.83686
 C716 C 0.95312 0.63720 0.80305
 H717 H 0.86905 0.55364 0.73137
 H718 H 0.91607 0.58531 0.70189
 H719 H 0.87678 0.59108 0.84976
 H720 H 0.97396 0.65262 0.79137
 C721 C 0.79132 0.58780 0.90434
 C722 C 0.77444 0.60735 0.92975
 C723 C 0.73881 0.60157 0.93757
 C724 C 0.71936 0.57658 0.91844
 C725 C 0.73655 0.55626 0.89273
 C726 C 0.77317 0.56171 0.88604
 C727 C 0.71672 0.52986 0.87620
 N728 N 0.68215 0.52510 0.88424
 N729 N 0.66603 0.54457 0.90794
 C730 C 0.68346 0.56998 0.92543
 H731 H 0.81924 0.59222 0.89977
 H732 H 0.78974 0.62596 0.94463
 H733 H 0.72808 0.51252 0.85732
 H734 H 0.66910 0.58467 0.94468
 C735 C 0.24412 0.41355 0.88898
 C736 C 0.26115 0.39579 0.91567
 C737 C 0.24184 0.38273 0.94386
 C738 C 0.20437 0.38226 0.94196
 C739 C 0.18706 0.39862 0.91383
 C740 C 0.20723 0.41738 0.88892
 C741 C 0.15006 0.39521 0.91148
 N742 N 0.13183 0.37772 0.93626
 N743 N 0.14804 0.36297 0.96300
 C744 C 0.18361 0.36445 0.96660
 H745 H 0.26017 0.42672 0.86975
 H746 H 0.28979 0.39586 0.91607
 H747 H 0.13549 0.40509 0.88965
 H748 H 0.19542 0.35083 0.98817
 C749 C 0.25416 0.59028 0.11259
 C750 C 0.27004 0.60789 0.08510
 C751 C 0.24959 0.62722 0.06173
 C752 C 0.21316 0.63216 0.06839
 C753 C 0.19704 0.61461 0.09656
 C754 C 0.21741 0.59148 0.11733
 C755 C 0.16091 0.62075 0.10280
 N756 N 0.14230 0.64229 0.08162
 N757 N 0.15735 0.65817 0.05475
 C758 C 0.19212 0.65385 0.04740
 H759 H 0.27036 0.57326 0.12846
 H760 H 0.29800 0.60395 0.08039
 H761 H 0.14745 0.60931 0.12469
 H762 H 0.20316 0.66778 0.02557
 C763 C 0.74550 0.42629 0.11090
 C764 C 0.72893 0.40895 0.08383
 C765 C 0.74821 0.38673 0.06210
 C766 C 0.78405 0.37924 0.06982
 C767 C 0.80092 0.39700 0.09724
 C768 C 0.78183 0.42215 0.11670
 C769 C 0.83641 0.38873 0.10439
 N770 N 0.85371 0.36454 0.08505
 N771 N 0.83791 0.34798 0.05920
 C772 C 0.80371 0.35443 0.05096
 H773 H 0.73031 0.44497 0.12582
 H774 H 0.70139 0.41458 0.07856
 H775 H 0.85035 0.40067 0.12558
 H776 H 0.79206 0.33969 0.03015
 C777 C 0.87825 0.74035 0.57927
 C778 C 0.90616 0.72294 0.59543
 C779 C 0.93050 0.74166 0.61532
 C780 C 0.92454 0.77782 0.62195
 C781 C 0.89629 0.79561 0.60549
 C782 C 0.87422 0.77699 0.58229
 C783 C 0.89131 0.83162 0.61275
 N784 N 0.91336 0.84839 0.63471
 N785 N 0.94001 0.83165 0.64996
 C786 C 0.94635 0.79698 0.64435
 H787 H 0.86150 0.72550 0.56208
 H788 H 0.91025 0.69516 0.59038
 H789 H 0.86985 0.84653 0.60172
 H790 H 0.96803 0.78457 0.65782
 C791 C 0.90427 0.20777 0.39828
 C792 C 0.93092 0.22352 0.37894
 C793 C 0.94221 0.25787 0.38603
 C794 C 0.92498 0.27741 0.41212
 C795 C 0.89756 0.26145 0.43178
 C796 C 0.88784 0.22589 0.42524
 C797 C 0.88233 0.28115 0.45857
 N798 N 0.89356 0.31445 0.46484
 N799 N 0.91924 0.32932 0.44641
 C800 C 0.93547 0.31191 0.42043
 H801 H 0.89736 0.18060 0.39301
 H802 H 0.94411 0.20814 0.35931
 H803 H 0.86179 0.27057 0.47477
 H804 H 0.95648 0.32519 0.40672
 C805 C 0.10268 0.20931 0.58625
 C806 C 0.07673 0.22612 0.60561
 C807 C 0.06481 0.25984 0.59665
 C808 C 0.08064 0.27771 0.56860
 C809 C 0.10713 0.26063 0.54872
 C810 C 0.11764 0.22570 0.55735
 C811 C 0.12057 0.27855 0.51976
 N812 N 0.10881 0.31140 0.51196
 N813 N 0.08429 0.32746 0.53086
 C814 C 0.06969 0.31169 0.55880
 H815 H 0.11013 0.18261 0.59309
 H816 H 0.06446 0.21193 0.62671
 H817 H 0.14006 0.26690 0.50304
 H818 H 0.04966 0.32583 0.57308
 C819 C 0.08382 0.79739 0.41919
 C820 C 0.05546 0.78146 0.40316
 C821 C 0.05573 0.74545 0.39505
 C822 C 0.08741 0.72587 0.40124
 C823 C 0.11735 0.74290 0.41624
 C824 C 0.11432 0.77837 0.42803
 C825 C 0.14887 0.72336 0.41929
 N826 N 0.14942 0.68866 0.41125
 N827 N 0.12065 0.67201 0.40040
 C828 C 0.08970 0.68922 0.39551
 H829 H 0.08084 0.82486 0.42616
 H830 H 0.03256 0.79766 0.39756
 H831 H 0.17348 0.73516 0.42689
 H832 H 0.06726 0.67369 0.38782
 C833 C 0.59053 0.90007 0.76145
 C834 C 0.60962 0.92632 0.74458
 C835 C 0.62076 0.95664 0.76209
 C836 C 0.61734 0.95736 0.79850
 C837 C 0.59798 0.93051 0.81585
 C838 C 0.58241 0.90268 0.79656
 C839 C 0.59581 0.93227 0.85199
 N840 N 0.61213 0.95860 0.86923
 N841 N 0.63084 0.98323 0.85299
 C842 C 0.63429 0.98332 0.81836
 H843 H 0.57993 0.87873 0.74620
 H844 H 0.61238 0.92438 0.71693
 H845 H 0.58240 0.91266 0.86714
 H846 H 0.65101 1.00319 0.80675
 C847 C 0.41184 0.88006 0.23682
 C848 C 0.39246 0.90619 0.25365
 C849 C 0.37850 0.93504 0.23535
 C850 C 0.37906 0.93393 0.19882
 C851 C 0.39763 0.90660 0.18169
 C852 C 0.41676 0.88122 0.20108
 C853 C 0.39599 0.90537 0.14556
 N854 N 0.37755 0.93018 0.12799
 N855 N 0.36028 0.95591 0.14403
 C856 C 0.36019 0.95850 0.17875
 H857 H 0.42545 0.86049 0.25222
 H858 H 0.39189 0.90578 0.28149
 H859 H 0.40808 0.88429 0.13111
 H860 H 0.34456 0.97916 0.19037
 C861 C 0.54448 0.08215 0.23948
 C862 C 0.56166 0.05567 0.25733
 C863 C 0.59859 0.05604 0.26191
 C864 C 0.61805 0.08582 0.24937
 C865 C 0.59984 0.11355 0.23202
 C866 C 0.56308 0.11086 0.22632
 C867 C 0.61933 0.14225 0.21917
 N868 N 0.65493 0.14281 0.22264
 N869 N 0.67228 0.11640 0.23761
 C870 C 0.65525 0.08784 0.25063
 H871 H 0.51626 0.07982 0.23533
 H872 H 0.54573 0.03414 0.26722
 H873 H 0.60663 0.16400 0.20605
 H874 H 0.67130 0.06687 0.26091
 C875 C 0.39982 0.10464 0.78968
 C876 C 0.38243 0.07691 0.77366
 C877 C 0.38907 0.06901 0.73919
 C878 C 0.41217 0.09085 0.71986
 C879 C 0.43019 0.11909 0.73617
 C880 C 0.42460 0.12531 0.77184
 C881 C 0.45470 0.13856 0.71645
 N882 N 0.45999 0.13070 0.68287
 N883 N 0.44287 0.10445 0.66764
 C884 C 0.41935 0.08415 0.68499
 H885 H 0.39529 0.10879 0.81687
 H886 H 0.36507 0.06022 0.78880
 H887 H 0.47001 0.15980 0.72703
 H888 H 0.40663 0.06292 0.67133
 C889 C 0.57605 0.74482 0.11488
 C890 C 0.59537 0.72907 0.08853
 C891 C 0.61973 0.74875 0.06925
 C892 C 0.62795 0.78352 0.07938
 C893 C 0.60850 0.79947 0.10625
 C894 C 0.58056 0.78067 0.12232
 C895 C 0.61728 0.83412 0.11570
 N896 N 0.64353 0.85149 0.09894
 N897 N 0.66157 0.83655 0.07341
 C898 C 0.65467 0.80317 0.06305
 H899 H 0.55492 0.72992 0.12689
 H900 H 0.58902 0.70229 0.08118
 H901 H 0.60396 0.84727 0.13664
 H902 H 0.67044 0.79208 0.04254
 C903 C 0.40490 0.21524 0.10505
 C904 C 0.38440 0.23245 0.08052
 C905 C 0.39361 0.26612 0.06883
 C906 C 0.42297 0.28359 0.08346
 C907 C 0.44419 0.26600 0.10821
 C908 C 0.43529 0.23113 0.11854
 C909 C 0.47475 0.28333 0.12002
 N910 N 0.48260 0.31622 0.10856
 N911 N 0.46232 0.33286 0.08580
 C912 C 0.43291 0.31764 0.07274
 H913 H 0.39787 0.18857 0.11244
 H914 H 0.36239 0.21857 0.06906
 H915 H 0.49280 0.27119 0.13789
 H916 H 0.41760 0.33225 0.05406
 C917 C 0.58847 0.21669 0.89639
 C918 C 0.60753 0.23079 0.92352
 C919 C 0.59858 0.26360 0.93731
 C920 C 0.57088 0.28346 0.92228
 C921 C 0.55144 0.26919 0.89439
 C922 C 0.55991 0.23498 0.88197
 C923 C 0.52292 0.28900 0.88139
 N924 N 0.51493 0.32082 0.89515
 N925 N 0.53322 0.33411 0.92122
 C926 C 0.56077 0.31648 0.93536
 H927 H 0.59506 0.19040 0.88766
 H928 H 0.62855 0.21526 0.93489
 H929 H 0.50657 0.27964 0.86072
 H930 H 0.57427 0.32837 0.95683
 C931 C 0.40583 0.78909 0.88477
 C932 C 0.38466 0.77105 0.90827
 C933 C 0.39413 0.73737 0.91961
 C934 C 0.42355 0.72022 0.90459
 C935 C 0.44537 0.73857 0.88081
 C936 C 0.43708 0.77400 0.87201
 C937 C 0.47600 0.72142 0.86873
 N938 N 0.48343 0.68808 0.87917
 N939 N 0.46266 0.67081 0.90115
 C940 C 0.43310 0.68578 0.91434
 H941 H 0.39917 0.81614 0.87851
 H942 H 0.36259 0.78470 0.92002
 H943 H 0.49426 0.73391 0.85125
 H944 H 0.41725 0.67067 0.93228
 C945 C 0.78320 0.89423 0.41457
 C946 C 0.76832 0.92133 0.39535
 C947 C 0.73343 0.93209 0.40105
 C948 C 0.71234 0.91346 0.42519
 C949 C 0.72734 0.88526 0.44453
 C950 C 0.76370 0.87665 0.44007
 C951 C 0.70569 0.86809 0.46885
 N952 N 0.67176 0.87859 0.47348
 N953 N 0.65798 0.90528 0.45572
 C954 C 0.67713 0.92319 0.43194
 H955 H 0.81090 0.88811 0.41067
 H956 H 0.78474 0.93519 0.37686
 H957 H 0.71508 0.84657 0.48448
 H958 H 0.66464 0.94498 0.41878
 C959 C 0.20828 0.89439 0.59406
 C960 C 0.22414 0.92145 0.61238
 C961 C 0.26043 0.92771 0.60959
 C962 C 0.28166 0.90400 0.59040
 C963 C 0.26557 0.87578 0.57212
 C964 C 0.22804 0.87250 0.57220
 C965 C 0.28777 0.85309 0.55330
 N966 N 0.32313 0.85876 0.55236
 N967 N 0.33795 0.88567 0.56873
 C968 C 0.31846 0.90856 0.58752
 H969 H 0.17975 0.89209 0.59522
 H970 H 0.20756 0.93921 0.62706
 H971 H 0.27792 0.83058 0.53967
 H972 H 0.33203 0.92999 0.60001
 C973 C 0.21100 0.09072 0.40386
 C974 C 0.22727 0.06451 0.38453
 C975 C 0.26236 0.05501 0.39077
 C976 C 0.28197 0.07319 0.41605
 C977 C 0.26540 0.09975 0.43604
 C978 C 0.22929 0.10816 0.43008
 C979 C 0.28520 0.11541 0.46252
 N980 N 0.31927 0.10573 0.46773
 N981 N 0.33488 0.08121 0.44859
 C982 C 0.31739 0.06452 0.42305
 H983 H 0.18340 0.09655 0.39912
 H984 H 0.21190 0.05042 0.36557
 H985 H 0.27412 0.13494 0.47943
 H986 H 0.33129 0.04456 0.40854
 C987 C 0.78945 0.09997 0.58382
 C988 C 0.77220 0.07590 0.60508
 C989 C 0.73697 0.06679 0.59911
 C990 C 0.71830 0.08313 0.57191
 C991 C 0.73588 0.10744 0.54991
 C992 C 0.77205 0.11557 0.55584
 C993 C 0.71697 0.12111 0.52170
 N994 N 0.68276 0.11182 0.51676
 N995 N 0.66620 0.08951 0.53779
 C996 C 0.68281 0.07474 0.56507
 H997 H 0.81706 0.10567 0.58862
 H998 H 0.78690 0.06310 0.62547
 H999 H 0.72886 0.13870 0.50320
 H1000 H 0.66816 0.05651 0.58110
 C1001 C 0.89053 0.59740 0.21118
 C1002 C 0.91549 0.61845 0.22748
 C1003 C 0.92623 0.61100 0.26108
 C1004 C 0.91000 0.58294 0.27933
 C1005 C 0.88476 0.56116 0.26271
 C1006 C 0.87560 0.56810 0.22787
 C1007 C 0.87145 0.53190 0.28108
 N1008 N 0.88200 0.52574 0.31382
 N1009 N 0.90527 0.54647 0.32944
 C1010 C 0.91976 0.57469 0.31329
 H1011 H 0.88417 0.60297 0.18457
 H1012 H 0.92812 0.63946 0.21305
 H1013 H 0.85312 0.51349 0.26999
 H1014 H 0.93883 0.59031 0.32716
 C1015 C 0.89610 0.39998 0.78594
 C1016 C 0.92116 0.37947 0.76910
 C1017 C 0.93317 0.38872 0.73624
 C1018 C 0.91811 0.41812 0.71917
 C1019 C 0.89246 0.43907 0.73628
 C1020 C 0.88214 0.43025 0.77037
 C1021 C 0.87975 0.46935 0.71928
 N1022 N 0.89152 0.47747 0.68728
 N1023 N 0.91541 0.45766 0.67123
 C1024 C 0.92925 0.42841 0.68612
 H1025 H 0.88868 0.39301 0.81200
 H1026 H 0.93290 0.35739 0.78265
 H1027 H 0.86083 0.48687 0.73100
 H1028 H 0.94885 0.41359 0.67200
 C1029 C 0.11251 0.56342 0.74501
 C1030 C 0.08629 0.58271 0.72809
 C1031 C 0.06769 0.60941 0.74520
 C1032 C 0.07821 0.61928 0.77865
 C1033 C 0.10488 0.59983 0.79578
 C1034 C 0.12061 0.57035 0.77946
 C1035 C 0.11454 0.61025 0.82911
 N1036 N 0.09818 0.63805 0.84415
 N1037 N 0.07286 0.65610 0.82813
 C1038 C 0.06230 0.64765 0.79593
 H1039 H 0.12419 0.54096 0.73213
 H1040 H 0.07848 0.57484 0.70249
 H1041 H 0.13529 0.59689 0.84309
 H1042 H 0.04191 0.66343 0.78394
 C1043 C 0.11482 0.41272 0.21296
 C1044 C 0.08928 0.39158 0.22845
 C1045 C 0.07653 0.39936 0.26133
 C1046 C 0.09175 0.42739 0.28002
 C1047 C 0.11797 0.44898 0.26435
 C1048 C 0.12852 0.44225 0.22988
 C1049 C 0.13096 0.47777 0.28318
 N1050 N 0.11885 0.48399 0.31543
 N1051 N 0.09437 0.46365 0.33005
 C1052 C 0.08029 0.43568 0.31341
 H1053 H 0.12236 0.40725 0.18663
 H1054 H 0.07756 0.37042 0.21373
 H1055 H 0.15058 0.49545 0.27284
 H1056 H 0.06031 0.42019 0.32642
   
