data_POSCAR
  _audit_creation_date              2014-09-24
  _audit_creation_method            'ToBaCCo'
  _symmetry_space_group_name_H-M    'P1'
  _symmetry_Int_Tables_number       1
  _symmetry_cell_setting            triclinic
  loop_
  _symmetry_equiv_pos_as_xyz
 x,y,z
_cell_length_a 35.1909
_cell_length_b 36.1551
_cell_length_c 35.5593
_cell_angle_alpha 89.831700
_cell_angle_beta 90.077400
_cell_angle_gamma 90.748300
loop_
  _atom_site_label
  _atom_site_type_symbol
  _atom_site_fract_x
  _atom_site_fract_y
  _atom_site_fract_z
N1 N 0.36630 0.33024 0.32665
 N2 N 0.33963 0.86771 -0.14128
 N3 N 0.85000 0.34852 -0.16511
 N4 N 0.84247 0.81352 0.34452
 N5 N 0.65123 0.65149 0.37558
 N6 N 0.66302 0.17474 -0.17934
 N7 N 0.16476 0.64164 -0.14330
 N8 N 0.14190 0.15700 0.32588
 N9 N 0.67488 0.35883 0.63379
 N10 N 0.64650 0.82755 1.16321
 N11 N 0.14103 0.35277 1.15348
 N12 N 0.16310 0.86872 0.67263
 N13 N 0.33393 0.65457 0.64501
 N14 N 0.34651 0.14262 1.16256
 N15 N 0.83915 0.63990 1.13266
 N16 N 0.85789 0.13801 0.64688
 N17 N 0.33414 0.34471 0.64198
 N18 N 0.34756 0.83917 0.16881
 N19 N 0.81920 0.35074 0.15990
 N20 N 0.85402 0.84923 0.67679
 N21 N 0.64516 0.66787 0.67077
 N22 N 0.67670 0.12546 0.13582
 N23 N 0.17220 0.64829 0.16198
 N24 N 0.15880 0.15857 0.64192
 N25 N 0.31999 0.65110 0.36046
 N26 N 0.36348 0.18801 0.85323
 N27 N 0.84007 0.66961 0.83905
 N28 N 0.85126 0.13242 0.34464
 N29 N 0.65909 0.33974 0.34639
 N30 N 0.62692 0.86206 0.85830
 N31 N 0.15443 0.34523 0.85445
 N32 N 0.12932 0.84671 0.34262
 O33 O 0.26845 0.95182 0.23693
 O34 O 0.21283 1.02785 0.28022
 O35 O 0.20999 0.95442 0.28312
 O36 O 0.28048 1.02105 0.25223
 O37 O 0.24964 1.02877 0.19856
 O38 O 0.17646 0.96119 0.23094
 O39 O 0.18131 1.03291 0.22683
 O40 O 0.23495 0.95896 0.18500
 Cu41 Cu 0.24529 0.98784 0.26763
 Cu42 Cu 0.20761 0.99606 0.20519
 C43 C 0.26111 0.94308 0.20294
 C44 C 0.18775 1.04367 0.25999
 C45 C 0.18147 0.94617 0.26305
 C46 C 0.27760 1.03623 0.22035
 O47 O 0.28579 0.45330 0.72408
 O48 O 0.25717 0.51862 0.79733
 O49 O 0.24169 0.44965 0.78302
 O50 O 0.30188 0.52185 0.73898
 O51 O 0.25380 0.53798 0.70267
 O52 O 0.19282 0.46832 0.74916
 O53 O 0.21023 0.53703 0.76069
 O54 O 0.23584 0.46820 0.68976
 Cu55 Cu 0.27659 0.48407 0.76433
 Cu56 Cu 0.21837 0.50453 0.72178
 C57 C 0.26537 0.44912 0.69492
 C58 C 0.22892 0.53923 0.79115
 C59 C 0.20680 0.44719 0.77403
 C60 C 0.28798 0.54225 0.71346
 O61 O 0.76836 -0.06539 0.19447
 O62 O 0.82603 0.00515 0.24230
 O63 O 0.81619 -0.06539 0.25216
 O64 O 0.77863 0.00476 0.18698
 O65 O 0.73168 0.01547 0.22653
 O66 O 0.76832 -0.05627 0.29109
 O67 O 0.77917 0.01455 0.28234
 O68 O 0.72109 -0.05625 0.23410
 Cu69 Cu 0.80210 -0.03170 0.21516
 Cu70 Cu 0.74522 -0.01983 0.26246
 C71 C 0.73475 -0.07219 0.20549
 C72 C 0.81225 0.02220 0.27011
 C73 C 0.79907 -0.07229 0.28287
 C74 C 0.74899 0.02237 0.19586
 O75 O 0.79526 0.54941 0.76299
 O76 O 0.75449 0.48355 0.69449
 O77 O 0.75726 0.55349 0.70064
 O78 O 0.81203 0.48029 0.74301
 O79 O 0.76580 0.46667 0.78268
 O80 O 0.70871 0.54195 0.73847
 O81 O 0.70850 0.46958 0.73462
 O82 O 0.74712 0.53659 0.80091
 Cu83 Cu 0.78456 0.51729 0.72241
 Cu84 Cu 0.72905 0.50235 0.76790
 C85 C 0.77650 0.55552 0.79296
 C86 C 0.72374 0.46625 0.70266
 C87 C 0.72379 0.56014 0.71127
 C88 C 0.79888 0.46057 0.76943
 O89 O 0.27706 0.44514 0.28582
 O90 O 0.21170 0.51918 0.25770
 O91 O 0.21938 0.44981 0.23996
 O92 O 0.26811 0.51554 0.30304
 O93 O 0.30873 0.52922 0.25758
 O94 O 0.25585 0.46787 0.19257
 O95 O 0.25107 0.53487 0.21173
 O96 O 0.31312 0.45802 0.23656
 Cu97 Cu 0.24045 0.48056 0.27646
 Cu98 Cu 0.28691 0.49916 0.22046
 C99 C 0.30526 0.43804 0.26493
 C100 C 0.22058 0.53970 0.22995
 C101 C 0.22847 0.44848 0.20542
 C102 C 0.29615 0.53421 0.29065
 O103 O 0.71906 1.04596 0.78320
 O104 O 0.78246 0.97161 0.75894
 O105 O 0.77650 1.03986 0.73675
 O106 O 0.71694 0.97436 0.79376
 O107 O 0.68090 0.96585 0.74361
 O108 O 0.74321 1.02390 0.68648
 O109 O 0.74795 0.95689 0.70917
 O110 O 0.68706 1.03789 0.73034
 Cu111 Cu 0.75195 1.00903 0.77306
 Cu112 Cu 0.71086 0.99442 0.71301
 C113 C 0.69345 1.05593 0.76054
 C114 C 0.77705 0.95206 0.73001
 C115 C 0.77004 1.04220 0.70145
 C116 C 0.68788 0.95978 0.77793
 O117 O 0.78152 0.47219 0.23635
 O118 O 0.75360 0.54173 0.30601
 O119 O 0.75229 0.47008 0.30317
 O120 O 0.78473 0.54386 0.23870
 O121 O 0.72682 0.54791 0.21507
 O122 O 0.69622 0.46980 0.27505
 O123 O 0.69602 0.54237 0.28119
 O124 O 0.72531 0.47600 0.20892
 Cu125 Cu 0.77386 0.50703 0.27360
 Cu126 Cu 0.70527 0.50941 0.24261
 C127 C 0.75815 0.46208 0.21101
 C128 C 0.71978 0.55351 0.30569
 C129 C 0.71903 0.45667 0.29922
 C130 C 0.76130 0.55853 0.21615
 O131 O 0.25546 0.00301 0.81822
 O132 O 0.22109 0.06905 0.74728
 O133 O 0.20616 0.00064 0.76359
 O134 O 0.26806 0.07384 0.80397
 O135 O 0.31290 0.05896 0.76351
 O136 O 0.25215 -0.01629 0.72536
 O137 O 0.26708 0.05288 0.70856
 O138 O 0.30206 -0.01195 0.77985
 Cu139 Cu 0.23327 0.03820 0.78738
 Cu140 Cu 0.28838 0.01895 0.74084
 C141 C 0.28433 -0.01625 0.81062
 C142 C 0.23841 0.07235 0.71607
 C143 C 0.21839 -0.02014 0.73766
 C144 C 0.30036 0.07991 0.78917
 O145 O 0.25555 0.30274 0.98163
 O146 O 0.29151 0.24357 1.05791
 O147 O 0.30558 0.24914 0.98703
 O148 O 0.23741 0.29151 1.05220
 O149 O 0.19529 0.24792 1.03767
 O150 O 0.26224 0.20750 0.97046
 O151 O 0.24848 0.20089 1.04312
 O152 O 0.21245 0.26031 0.96673
 Cu153 Cu 0.27672 0.27621 1.02077
 Cu154 Cu 0.22544 0.22489 1.00268
 C155 C 0.22792 0.29187 0.96137
 C156 C 0.27554 0.21249 1.06391
 C157 C 0.29555 0.22099 0.96794
 C158 C 0.20514 0.27593 1.05690
 O159 O 0.23387 0.80751 0.46585
 O160 O 0.27276 0.74700 0.53998
 O161 O 0.26857 0.74364 0.46730
 O162 O 0.24134 0.81211 0.53832
 O163 O 0.18657 0.78271 0.54646
 O164 O 0.21202 0.71664 0.47090
 O165 O 0.21767 0.71706 0.54277
 O166 O 0.17768 0.78038 0.47233
 Cu167 Cu 0.25960 0.78044 0.50227
 Cu168 Cu 0.19261 0.74682 0.50881
 C169 C 0.19912 0.80422 0.45652
 C170 C 0.25205 0.72086 0.55290
 C171 C 0.24534 0.71840 0.45711
 C172 C 0.20966 0.80880 0.55497
 O173 O 0.32126 0.75202 -0.03035
 O174 O 0.27733 0.68786 0.03677
 O175 O 0.26544 0.70048 -0.03827
 O176 O 0.32486 0.73988 0.03783
 O177 O 0.27789 0.77783 0.05088
 O178 O 0.22138 0.74222 -0.02823
 O179 O 0.22831 0.72484 0.04353
 O180 O 0.27462 0.79145 -0.02135
 Cu181 Cu 0.30023 0.71499 -0.00107
 Cu182 Cu 0.24580 0.76294 0.01228
 C183 C 0.30610 0.78309 -0.03643
 C184 C 0.24630 0.69589 0.05267
 C185 C 0.23415 0.71549 -0.04698
 C186 C 0.31094 0.76566 0.05748
 O187 O 0.29900 0.25338 0.44666
 O188 O 0.23444 0.20362 0.51339
 O189 O 0.24990 0.19990 0.43952
 O190 O 0.29879 0.23974 0.51918
 O191 O 0.26017 0.28744 0.51939
 O192 O 0.21019 0.24665 0.43671
 O193 O 0.19571 0.25105 0.51009
 O194 O 0.25996 0.30078 0.44755
 Cu195 Cu 0.27357 0.21976 0.47978
 Cu196 Cu 0.22775 0.27533 0.47825
 C197 C 0.29015 0.28600 0.43615
 C198 C 0.20418 0.21991 0.52375
 C199 C 0.22291 0.21639 0.42357
 C200 C 0.28829 0.26995 0.53321
 O201 O 0.75374 0.72237 0.94860
 O202 O 0.69039 0.74447 1.02666
 O203 O 0.69773 0.76858 0.95703
 O204 O 0.75210 0.70515 1.01863
 O205 O 0.79246 0.75133 1.02937
 O206 O 0.73373 0.81511 0.97677
 O207 O 0.73111 0.78771 1.04515
 O208 O 0.78999 0.77134 0.96056
 Cu209 Cu 0.71932 0.73068 0.98620
 Cu210 Cu 0.76527 0.78623 1.00462
 C211 C 0.78254 0.74253 0.94130
 C212 C 0.70050 0.76907 1.04998
 C213 C 0.70663 0.80287 0.95683
 C214 C 0.78284 0.71769 1.03291
 O215 O 0.75179 0.27595 0.44940
 O216 O 0.81728 0.23439 0.51781
 O217 O 0.79815 0.22043 0.44901
 O218 O 0.77215 0.29024 0.51824
 O219 O 0.72470 0.25424 0.53745
 O220 O 0.75053 0.18423 0.46737
 O221 O 0.77052 0.19800 0.53776
 O222 O 0.70516 0.23957 0.46975
 Cu223 Cu 0.78955 0.25890 0.48147
 Cu224 Cu 0.73326 0.21499 0.50533
 C225 C 0.71734 0.26503 0.44820
 C226 C 0.80480 0.20928 0.53968
 C227 C 0.77870 0.19082 0.44603
 C228 C 0.74384 0.28419 0.53946
 O229 O 0.75467 0.20102 0.02295
 O230 O 0.80252 0.26511 -0.04398
 O231 O 0.80824 0.25302 0.02831
 O232 O 0.76709 0.20178 -0.05011
 O233 O 0.71792 0.23925 -0.05158
 O234 O 0.75676 0.28720 0.03260
 O235 O 0.75350 0.30235 -0.03976
 O236 O 0.70379 0.23595 0.01964
 Cu237 Cu 0.78720 0.22724 -0.01053
 Cu238 Cu 0.72846 0.26971 -0.00929
 C239 C 0.72026 0.20746 0.03173
 C240 C 0.78590 0.29501 -0.05283
 C241 C 0.79001 0.27873 0.04387
 C242 C 0.73626 0.21202 -0.06504
 O243 O 0.70327 0.76825 0.47983
 O244 O 0.76546 0.81706 0.54486
 O245 O 0.76597 0.79938 0.47695
 O246 O 0.70116 0.77684 0.55650
 O247 O 0.73050 0.72387 0.56488
 O248 O 0.79708 0.74820 0.49023
 O249 O 0.79280 0.76480 0.56144
 O250 O 0.73196 0.71543 0.49172
 Cu251 Cu 0.72953 0.79496 0.51521
 Cu252 Cu 0.76591 0.73291 0.52865
 C253 C 0.70855 0.73443 0.47264
 C254 C 0.79007 0.79985 0.56376
 C255 C 0.79237 0.77666 0.46994
 C256 C 0.70490 0.74629 0.57393
 O257 O 1.01579 0.32065 0.25982
 O258 O 0.95450 0.25809 0.31448
 O259 O 1.02432 0.26351 0.30614
 O260 O 0.94017 0.31166 0.26964
 O261 O 0.94157 0.27832 0.21775
 O262 O 1.01806 0.22355 0.25946
 O263 O 0.94637 0.22296 0.26413
 O264 O 1.01685 0.28071 0.21307
 Cu265 Cu 0.98440 0.29361 0.29143
 Cu266 Cu 0.98069 0.24818 0.23307
 C267 C 1.02820 0.31073 0.22802
 C268 C 0.94048 0.22960 0.29873
 C269 C 1.03301 0.23327 0.29045
 C270 C 0.92622 0.30283 0.23788
 O271 O 0.54899 0.32963 0.72338
 O272 O 0.47936 0.29522 0.79403
 O273 O 0.55247 0.29196 0.78441
 O274 O 0.47400 0.33550 0.73451
 O275 O 0.46517 0.28534 0.70008
 O276 O 0.54225 0.23992 0.75322
 O277 O 0.46995 0.24468 0.76027
 O278 O 0.54034 0.27740 0.69227
 Cu279 Cu 0.51441 0.31853 0.76197
 Cu280 Cu 0.50328 0.25709 0.72248
 C281 C 0.55834 0.30756 0.69732
 C282 C 0.46291 0.26407 0.78897
 C283 C 0.56085 0.25871 0.77737
 C284 C 0.45515 0.31746 0.71020
 O285 O -0.03281 0.27805 0.76239
 O286 O 0.04503 0.22973 0.71569
 O287 O -0.02895 0.22142 0.71617
 O288 O 0.04142 0.27676 0.77133
 O289 O 0.03622 0.23470 0.81614
 O290 O -0.02797 0.17794 0.76009
 O291 O 0.04223 0.18549 0.75864
 O292 O -0.03926 0.23188 0.80279
 Cu293 Cu 0.00642 0.25588 0.73728
 Cu294 Cu 0.00386 0.20444 0.78979
 C295 C -0.05048 0.26251 0.78922
 C296 C 0.05590 0.19882 0.72824
 C297 C -0.03962 0.18977 0.72874
 C298 C 0.05018 0.26475 0.80383
 O299 O 0.56038 0.23912 0.27821
 O300 O 0.48373 0.18377 0.23141
 O301 O 0.55842 0.17529 0.23949
 O302 O 0.48922 0.22782 0.28824
 O303 O 0.48386 0.26746 0.24122
 O304 O 0.56137 0.21513 0.19248
 O305 O 0.48796 0.22146 0.18259
 O306 O 0.55704 0.27822 0.23055
 Cu307 Cu 0.52366 0.20256 0.26292
 Cu308 Cu 0.52254 0.24911 0.20760
 C309 C 0.56968 0.26985 0.26257
 C310 C 0.47278 0.19397 0.19869
 C311 C 0.57196 0.18503 0.20823
 C312 C 0.47408 0.25597 0.27406
 O313 O 1.05383 0.78939 0.76011
 O314 O 0.97694 0.72919 0.79858
 O315 O 1.04903 0.72831 0.80380
 O316 O 0.97604 0.78742 0.76391
 O317 O 0.97928 0.75933 0.70886
 O318 O 1.04669 0.69401 0.75247
 O319 O 0.97508 0.69937 0.74430
 O320 O 1.05627 0.75381 0.70993
 Cu321 Cu 1.01575 0.76302 0.78583
 Cu322 Cu 1.01555 0.72413 0.72310
 C323 C 1.06910 0.78061 0.72912
 C324 C 0.96165 0.70536 0.77676
 C325 C 1.05876 0.69983 0.78571
 C326 C 0.96304 0.78160 0.73117
 O327 O 0.53098 0.79181 0.27942
 O328 O 0.45397 0.74450 0.32907
 O329 O 0.53011 0.73269 0.32713
 O330 O 0.46003 0.79497 0.28473
 O331 O 0.45635 0.75771 0.23554
 O332 O 0.52113 0.69227 0.28156
 O333 O 0.44786 0.70418 0.28269
 O334 O 0.53017 0.74945 0.23480
 Cu335 Cu 0.49641 0.76848 0.31059
 Cu336 Cu 0.48894 0.72174 0.25392
 C337 C 0.54313 0.77964 0.24832
 C338 C 0.43596 0.71826 0.31317
 C339 C 0.53678 0.70158 0.31225
 C340 C 0.44566 0.78631 0.25315
 O341 O -0.04777 0.77168 0.23546
 O342 O 0.03550 0.73811 0.18817
 O343 O -0.03761 0.71811 0.18885
 O344 O 0.02586 0.77429 0.25063
 O345 O 0.02978 0.72557 0.28812
 O346 O -0.03177 0.67120 0.22840
 O347 O 0.03935 0.69023 0.22664
 O348 O -0.04539 0.72579 0.27652
 Cu349 Cu -0.00626 0.75483 0.21199
 Cu350 Cu -0.00240 0.69954 0.25865
 C351 C -0.06137 0.75465 0.26342
 C352 C 0.05222 0.70934 0.19913
 C353 C -0.04566 0.68492 0.19886
 C354 C 0.03953 0.75827 0.27969
 O355 O 0.44822 0.80759 0.74898
 O356 O 0.52573 0.74745 0.71802
 O357 O 0.45565 0.75699 0.69783
 O358 O 0.52026 0.80047 0.76630
 O359 O 0.50454 0.75807 0.80858
 O360 O 0.43669 0.71674 0.74099
 O361 O 0.50737 0.70484 0.75904
 O362 O 0.43343 0.76710 0.79348
 Cu363 Cu 0.48912 0.78237 0.72854
 Cu364 Cu 0.46877 0.73243 0.77975
 C365 C 0.42804 0.79770 0.77694
 C366 C 0.52948 0.71579 0.73305
 C367 C 0.43503 0.72967 0.70773
 C368 C 0.52376 0.78652 0.79888
 N369 N 0.43599 0.26029 0.33170
 N370 N 0.40776 0.27933 0.34561
 C371 C 0.39734 0.30508 0.32025
 C372 C 0.42142 0.30299 0.28898
 C373 C 0.44484 0.27348 0.29731
 H374 H 0.42277 0.32012 0.26411
 H375 H 0.44884 0.23833 0.34578
 H376 H 0.39646 0.27447 0.37229
 N377 N 0.37582 0.84282 0.76872
 N378 N 0.35181 0.86080 0.79036
 C379 C 0.35949 0.85269 0.82669
 C380 C 0.38846 0.82702 0.82796
 C381 C 0.39827 0.82208 0.79072
 H382 H 0.40122 0.81393 0.85214
 H383 H 0.37598 0.84396 0.73937
 H384 H 0.32983 0.87698 0.77993
 N385 N -0.11925 0.26057 0.80424
 N386 N -0.14603 0.28389 0.81410
 C387 C -0.12997 0.31748 0.81953
 C388 C -0.09127 0.31571 0.81238
 C389 C -0.08576 0.27896 0.80288
 H390 H -0.06993 0.33736 0.81493
 H391 H -0.12406 0.23275 0.79770
 H392 H -0.17472 0.27679 0.81717
 N393 N -0.12628 0.77883 0.25723
 N394 N -0.15197 0.79458 0.27864
 C395 C -0.13929 0.79435 0.31434
 C396 C -0.10378 0.77804 0.31581
 C397 C -0.09696 0.76820 0.27894
 H398 H -0.08446 0.77640 0.33944
 H399 H -0.12835 0.77642 0.22802
 H400 H -0.17716 0.80594 0.26864
 N401 N 0.56438 0.63961 0.32518
 N402 N 0.59444 0.62624 0.34264
 C403 C 0.61414 0.65461 0.35820
 C404 C 0.59453 0.68718 0.35197
 C405 C 0.56379 0.67649 0.33023
 H406 H 0.60210 0.71510 0.36002
 H407 H 0.54484 0.62370 0.30986
 H408 H 0.60101 0.59819 0.34364
 N409 N 0.62182 0.26342 0.81180
 N410 N 0.64944 0.24137 0.82240
 C411 C 0.63925 0.20626 0.81407
 C412 C 0.60372 0.20589 0.79714
 C413 C 0.59386 0.24282 0.79617
 H414 H 0.58774 0.18244 0.78636
 H415 H 0.62295 0.29223 0.81385
 H416 H 0.67523 0.25065 0.83370
 N417 N 1.08447 0.63683 0.79574
 N418 N 1.11180 0.62125 0.81546
 C419 C 1.13024 0.64771 0.83541
 C420 C 1.11253 0.68135 0.82944
 C421 C 1.08426 0.67321 0.80350
 H422 H 1.11986 0.70823 0.84077
 H423 H 1.06629 0.62267 0.77735
 H424 H 1.11750 0.59300 0.81490
 N425 N 1.04397 0.17383 0.32214
 N426 N 1.07301 0.15353 0.33261
 C427 C 1.10514 0.17348 0.32757
 C428 C 1.09638 0.20809 0.31321
 C429 C 1.05714 0.20693 0.31014
 H430 H 1.11579 0.22903 0.30248
 H431 H 1.01580 0.16438 0.32125
 H432 H 1.07100 0.12573 0.34052
 N433 N 0.61438 0.28521 0.66376
 N434 N 0.64611 0.29816 0.64889
 C435 C 0.64544 0.33541 0.64967
 C436 C 0.61214 0.34675 0.66719
 C437 C 0.59309 0.31370 0.67522
 H438 H 0.60323 0.37463 0.67324
 H439 H 0.60831 0.25708 0.66760
 H440 H 0.66814 0.28133 0.63989
 N441 N 0.57585 0.83885 0.23339
 N442 N 0.60241 0.85176 0.21056
 C443 C 0.61578 0.82355 0.18993
 C444 C 0.59636 0.79110 0.19978
 C445 C 0.57130 0.80226 0.22763
 H446 H 0.60040 0.76345 0.18909
 H447 H 0.56071 0.85512 0.25226
 H448 H 0.61068 0.87955 0.20910
 N449 N 1.07043 0.36602 0.22376
 N450 N 1.10044 0.37697 0.20430
 C451 C 1.10769 0.35159 0.17750
 C452 C 1.07952 0.32417 0.17897
 C453 C 1.05734 0.33387 0.20950
 H454 H 1.07570 0.30002 0.16152
 H455 H 1.05995 0.37987 0.24723
 H456 H 1.11572 0.40118 0.21018
 N457 N 1.13705 0.78196 0.71178
 N458 N 1.16219 0.80540 0.69741
 C459 C 1.14533 0.83824 0.69228
 C460 C 1.10776 0.83586 0.70422
 C461 C 1.10389 0.79952 0.71640
 H462 H 1.08572 0.85627 0.70186
 H463 H 1.14240 0.75419 0.71770
 H464 H 1.19004 0.79866 0.69032
 N465 N 0.40922 0.72087 0.64309
 N466 N 0.38257 0.70078 0.62633
 C467 C 0.36489 0.67989 0.65258
 C468 C 0.38109 0.68658 0.68749
 C469 C 0.40907 0.71285 0.68014
 H470 H 0.37339 0.67441 0.71430
 H471 H 0.42740 0.73944 0.62921
 H472 H 0.37719 0.70108 0.59744
 N473 N 0.44216 0.16658 0.14213
 N474 N 0.40812 0.15428 0.13206
 C475 C 0.38522 0.15565 0.16224
 C476 C 0.40542 0.16891 0.19299
 C477 C 0.44159 0.17500 0.17905
 H478 H 0.39501 0.17458 0.22098
 H479 H 0.46531 0.16934 0.12392
 H480 H 0.40101 0.14483 0.10521
 N481 N -0.07138 0.62497 0.17542
 N482 N -0.10249 0.61272 0.15846
 C483 C -0.12412 0.64203 0.15016
 C484 C -0.10601 0.67434 0.16151
 C485 C -0.07254 0.66220 0.17730
 H486 H -0.11654 0.70230 0.16010
 H487 H -0.05002 0.60803 0.18598
 H488 H -0.10838 0.58497 0.15261
 N489 N -0.06796 0.12876 0.71348
 N490 N -0.09509 0.11486 0.69196
 C491 C -0.11044 0.14266 0.67209
 C492 C -0.09209 0.17578 0.68093
 C493 C -0.06537 0.16553 0.70743
 H494 H -0.09829 0.20333 0.67087
 H495 H -0.05166 0.11321 0.73216
 H496 H -0.10270 0.08686 0.69109
 N497 N 0.34102 0.38260 0.24561
 N498 N 0.35619 0.35333 0.26177
 C499 C 0.35437 0.35750 0.29942
 C500 C 0.33546 0.39007 0.30740
 C501 C 0.32811 0.40528 0.27253
 H502 H 0.32706 0.40096 0.33434
 H503 H 0.33742 0.38576 0.21661
 H504 H 0.36454 0.32999 0.24694
 N505 N 0.27529 -0.05760 0.86609
 N506 N 0.28951 -0.08910 0.87833
 C507 C 0.31928 -0.09793 0.85637
 C508 C 0.32512 -0.07011 0.83005
 C509 C 0.29599 -0.04566 0.83652
 H510 H 0.34622 -0.06848 0.80801
 H511 H 0.25063 -0.04567 0.87663
 H512 H 0.27775 -0.10468 0.90024
 N513 N 0.85946 0.42616 0.77389
 N514 N 0.87309 0.39663 0.79088
 C515 C 0.84552 0.38158 0.81246
 C516 C 0.81254 0.40222 0.80852
 C517 C 0.82288 0.43055 0.78406
 H518 H 0.78488 0.39700 0.82082
 H519 H 0.87514 0.44303 0.75555
 H520 H 0.90089 0.38754 0.78777
 N521 N 0.84842 -0.09054 0.32884
 N522 N 0.85925 -0.12088 0.34643
 C523 C 0.83403 -0.14815 0.33890
 C524 C 0.80584 -0.13471 0.31538
 C525 C 0.81612 -0.09798 0.30983
 H526 H 0.78321 -0.15010 0.30167
 H527 H 0.86394 -0.06572 0.32839
 H528 H 0.88484 -0.12350 0.36104
 N529 N 0.34995 0.57262 0.69783
 N530 N 0.36206 0.60224 0.67932
 C531 C 0.33164 0.62035 0.66588
 C532 C 0.29872 0.60157 0.67633
 C533 C 0.31170 0.57133 0.69628
 H534 H 0.26953 0.60911 0.67104
 H535 H 0.36766 0.55353 0.71094
 H536 H 0.39065 0.60955 0.67580
 N537 N 0.33750 1.07119 0.23086
 N538 N 0.35585 1.09958 0.21582
 C539 C 0.33682 1.11043 0.18481
 C540 C 0.30581 1.08695 0.17914
 C541 C 0.30687 1.06320 0.20953
 H542 H 0.28467 1.08770 0.15705
 H543 H 0.34537 1.05825 0.25594
 H544 H 0.38019 1.11138 0.22769
 N545 N 0.75334 0.61743 0.18082
 N546 N 0.77410 0.63921 0.15885
 C547 C 0.80818 0.62338 0.15355
 C548 C 0.80977 0.59097 0.17440
 C549 C 0.77428 0.58811 0.19084
 H550 H 0.83297 0.57191 0.17726
 H551 H 0.72587 0.62335 0.18991
 H552 H 0.76555 0.66525 0.14970
 N553 N 0.79152 1.06388 0.63876
 N554 N 0.81462 1.08905 0.62415
 C555 C 0.83142 1.10775 0.65243
 C556 C 0.81878 1.09370 0.68674
 C557 C 0.79332 1.06586 0.67660
 H558 H 0.82628 1.10291 0.71475
 H559 H 0.77481 1.04560 0.62291
 H560 H 0.81887 1.09296 0.59534
 N561 N 0.72652 0.58730 0.36643
 N562 N 0.70782 0.61267 0.38536
 C563 C 0.67671 0.62212 0.36544
 C564 C 0.67604 0.60225 0.33209
 C565 C 0.70783 0.58029 0.33412
 H566 H 0.65655 0.60448 0.30868
 H567 H 0.75165 0.57511 0.37559
 H568 H 0.71670 0.62322 0.41122
 N569 N 0.65835 1.11289 0.74298
 N570 N 0.65146 1.14517 0.75887
 C571 C 0.66142 1.14337 0.79552
 C572 C 0.67493 1.10838 0.80323
 C573 C 0.67307 1.09010 0.76906
 H574 H 0.68735 1.09850 0.82918
 H575 H 0.65586 1.10771 0.71419
 H576 H 0.64274 1.16853 0.74404
 N577 N 0.22678 0.56475 0.85617
 N578 N 0.20892 0.59154 0.87385
 C579 C 0.18764 0.60993 0.84854
 C580 C 0.19263 0.59468 0.81333
 C581 C 0.21716 0.56588 0.81953
 H582 H 0.18031 0.60327 0.78685
 H583 H 0.24448 0.54560 0.86923
 H584 H 0.21082 0.59611 0.90270
 N585 N 0.13690 1.08979 0.25366
 N586 N 0.12516 1.11996 0.27053
 C587 C 0.14648 1.12557 0.30148
 C588 C 0.17276 1.09724 0.30494
 C589 C 0.16580 1.07533 0.27357
 H590 H 0.19431 1.09359 0.32632
 H591 H 0.12574 1.07984 0.22835
 H592 H 0.10360 1.13682 0.26025
 N593 N 0.70549 0.45115 0.63723
 N594 N 0.68972 0.42321 0.61896
 C595 C 0.67909 0.39699 0.64400
 C596 C 0.68789 0.40902 0.67997
 C597 C 0.70509 0.44325 0.67419
 H598 H 0.68665 0.39323 0.70586
 H599 H 0.71782 0.47439 0.62439
 H600 H 0.68925 0.42081 0.58969
 N601 N 0.70970 -0.09715 0.14568
 N602 N 0.68527 -0.12278 0.13438
 C603 C 0.67116 -0.14032 0.16492
 C604 C 0.68661 -0.12474 0.19720
 C605 C 0.71102 -0.09756 0.18350
 H606 H 0.68191 -0.13282 0.22617
 H607 H 0.72482 -0.07941 0.12774
 H608 H 0.67861 -0.12801 0.10626
 N609 N 0.20034 0.43225 0.14325
 N610 N 0.17630 0.40728 0.12960
 C611 C 0.16740 0.38325 0.15729
 C612 C 0.18616 0.39325 0.19000
 C613 C 0.20654 0.42467 0.17988
 H614 H 0.18438 0.38018 0.21737
 H615 H 0.21099 0.45491 0.12812
 H616 H 0.16528 0.40765 0.10233
 N617 N 0.15491 -0.04997 0.72782
 N618 N 0.14016 -0.07887 0.71011
 C619 C 0.16823 -0.09663 0.69221
 C620 C 0.20260 -0.07843 0.69922
 C621 C 0.19272 -0.04875 0.72178
 H622 H 0.23078 -0.08629 0.69044
 H623 H 0.13920 -0.03141 0.74378
 H624 H 0.11133 -0.08588 0.71029
 N625 N 0.32678 0.34225 0.41749
 N626 N 0.34649 0.35434 0.38823
 C627 C 0.34636 0.32764 0.36194
 C628 C 0.32653 0.29684 0.37519
 C629 C 0.31478 0.30735 0.41068
 H630 H 0.32122 0.27086 0.36098
 H631 H 0.32202 0.35754 0.44187
 H632 H 0.36033 0.38002 0.38681
 N633 N 0.36317 0.81731 -0.05930
 N634 N 0.37192 0.84071 -0.08664
 C635 C 0.34011 0.84786 -0.10626
 C636 C 0.30963 0.82868 -0.09072
 C637 C 0.32563 0.80973 -0.06092
 H638 H 0.28070 0.82690 -0.10096
 H639 H 0.38268 0.80649 -0.04017
 H640 H 0.39928 0.85085 -0.09214
 N641 N 0.79593 0.35731 -0.08112
 N642 N 0.81303 0.37164 -0.11094
 C643 C 0.83094 0.34429 -0.12931
 C644 C 0.82655 0.31154 -0.10914
 C645 C 0.80358 0.32096 -0.07938
 H646 H 0.83667 0.28423 -0.11577
 H647 H 0.77900 0.37219 -0.06257
 H648 H 0.81218 0.39962 -0.11805
 N649 N 0.83916 0.75419 0.42413
 N650 N 0.85175 0.76312 0.39039
 C651 C 0.83797 0.79655 0.38098
 C652 C 0.81503 0.80920 0.40988
 C653 C 0.81652 0.78122 0.43663
 H654 H 0.79766 0.83367 0.41017
 H655 H 0.84423 0.72884 0.43727
 H656 H 0.86778 0.74537 0.37394
 N657 N 0.75772 0.33704 0.58188
 N658 N 0.73950 0.35636 0.60744
 C659 C 0.70319 0.34401 0.60898
 C660 C 0.69790 0.31590 0.58309
 C661 C 0.73334 0.31208 0.56702
 H662 H 0.67214 0.30052 0.57661
 H663 H 0.78653 0.34037 0.57550
 H664 H 0.75205 0.37707 0.62388
 N665 N 0.63876 0.76768 1.08462
 N666 N 0.62430 0.78304 1.11508
 C667 C 0.65236 0.80141 1.13322
 C668 C 0.68611 0.79735 1.11352
 C669 C 0.67608 0.77644 1.08260
 H670 H 0.71350 0.81006 1.11932
 H671 H 0.62277 0.75339 1.06446
 H672 H 0.59539 0.78295 1.12160
 N673 N 0.16066 0.26643 1.11009
 N674 N 0.14439 0.28651 1.13638
 C675 C 0.15144 0.32260 1.12906
 C676 C 0.17490 0.32530 1.09764
 C677 C 0.17954 0.28910 1.08633
 H678 H 0.18798 0.34964 1.08530
 H679 H 0.16098 0.23754 1.11000
 H680 H 0.13176 0.27510 1.16031
 N681 N 0.21617 0.86967 0.58723
 N682 N 0.20383 0.88580 0.61815
 C683 C 0.18044 0.86196 0.63638
 C684 C 0.17671 0.82971 0.61520
 C685 C 0.20028 0.83565 0.58457
 H686 H 0.16037 0.80495 0.62164
 H687 H 0.23533 0.88183 0.56834
 H688 H 0.21167 0.91254 0.62615
 N689 N 0.25912 0.65716 0.57762
 N690 N 0.28162 0.63924 0.60096
 C691 C 0.30526 0.66394 0.61756
 C692 C 0.29788 0.69907 0.60361
 C693 C 0.26843 0.69339 0.57838
 H694 H 0.31182 0.72502 0.61053
 H695 H 0.23884 0.64447 0.56030
 H696 H 0.28140 0.61054 0.60412
 N697 N 0.26163 0.17726 1.12195
 N698 N 0.28034 0.16004 1.14882
 C699 C 0.31776 0.16105 1.14056
 C700 C 0.32329 0.18139 1.10771
 C701 C 0.28672 0.19048 1.09664
 H702 H 0.34961 0.18792 1.09336
 H703 H 0.23221 0.18075 1.12157
 H704 H 0.26743 0.14870 1.17270
 N705 N 0.84654 0.69967 1.05384
 N706 N 0.86162 0.67912 1.08043
 C707 C 0.83347 0.66038 1.09822
 C708 C 0.79905 0.66787 1.08060
 C709 C 0.80874 0.69379 1.05348
 H710 H 0.77073 0.65835 1.08769
 H711 H 0.86183 0.71855 1.03728
 H712 H 0.89058 0.67928 1.08680
 N713 N 0.86828 0.19862 0.56861
 N714 N 0.88241 0.17970 0.59713
 C715 C 0.85352 0.16223 0.61497
 C716 C 0.81962 0.17013 0.59704
 C717 C 0.83033 0.19319 0.56774
 H718 H 0.79128 0.16051 0.60420
 H719 H 0.88451 0.21445 0.54982
 H720 H 0.91134 0.17822 0.60343
 N721 N 0.68587 0.73829 0.40719
 N722 N 0.67209 0.71619 0.38095
 C723 C 0.66643 0.68247 0.39616
 C724 C 0.67800 0.68259 0.43350
 C725 C 0.69000 0.71882 0.43927
 H726 H 0.67786 0.65985 0.45336
 H727 H 0.69380 0.76590 0.40268
 H728 H 0.66766 0.72395 0.35299
 N729 N 0.74486 0.17156 -0.12075
 N730 N 0.72569 0.16184 -0.15121
 C731 C 0.69065 0.17630 -0.14923
 C732 C 0.68748 0.19635 -0.11607
 C733 C 0.72267 0.19283 -0.09904
 H734 H 0.66367 0.21244 -0.10650
 H735 H 0.77330 0.16513 -0.11588
 H736 H 0.73733 0.14726 -0.17363
 N737 N 0.21047 0.72377 -0.11193
 N738 N 0.19193 0.70424 -0.13754
 C739 C 0.18210 0.67133 -0.12235
 C740 C 0.19560 0.66936 -0.08573
 C741 C 0.21337 0.70328 -0.08041
 H742 H 0.19294 0.64690 -0.06575
 H743 H 0.22206 0.75015 -0.11646
 H744 H 0.18756 0.71285 -0.16525
 N745 N 0.23119 0.18493 0.36278
 N746 N 0.21001 0.16898 0.33669
 C747 C 0.17328 0.17359 0.34583
 C748 C 0.17079 0.19435 0.37857
 C749 C 0.20838 0.20051 0.38850
 H750 H 0.14557 0.20155 0.39415
 H751 H 0.26087 0.18461 0.36322
 H752 H 0.22085 0.15519 0.31339
 N753 N 0.24997 0.39646 0.65304
 N754 N 0.26839 0.36767 0.63981
 C755 C 0.30594 0.37314 0.64569
 C756 C 0.31157 0.40703 0.66299
 C757 C 0.27537 0.42040 0.66799
 H758 H 0.33781 0.41858 0.67406
 H759 H 0.22041 0.39785 0.65509
 H760 H 0.25503 0.34356 0.63013
 N761 N 0.27486 0.90375 0.14794
 N762 N 0.29774 0.87667 0.13876
 C763 C 0.32018 0.86884 0.16851
 C764 C 0.31206 0.89345 0.19748
 C765 C 0.28247 0.91428 0.18344
 H766 H 0.32548 0.89676 0.22458
 H767 H 0.25432 0.91471 0.13000
 H768 H 0.29778 0.86442 0.11224
 N769 N 0.74496 0.41655 0.16000
 N770 N 0.76104 0.38645 0.14668
 C771 C 0.79515 0.38258 0.16352
 C772 C 0.80153 0.41215 0.18749
 C773 C 0.76868 0.43246 0.18513
 H774 H 0.82553 0.41707 0.20594
 H775 H 0.71745 0.42488 0.15332
 H776 H 0.74773 0.36841 0.12790
 N777 N 0.83913 0.92258 0.74047
 N778 N 0.86004 0.89629 0.72593
 C779 C 0.84102 0.88121 0.69682
 C780 C 0.80627 0.89871 0.69240
 C781 C 0.80630 0.92477 0.72102
 H782 H 0.78400 0.89270 0.67222
 H783 H 0.84739 0.93875 0.76345
 H784 H 0.88673 0.88878 0.73607
 N785 N 0.71047 0.59567 0.65366
 N786 N 0.68980 0.62378 0.64253
 C787 C 0.66830 0.63506 0.67158
 C788 C 0.67591 0.61288 0.70287
 C789 C 0.70282 0.58819 0.68997
 H790 H 0.66554 0.61578 0.73132
 H791 H 0.73000 0.58214 0.63659
 H792 H 0.69124 0.63470 0.61548
 N793 N 0.74393 0.05272 0.13310
 N794 N 0.72475 0.07977 0.11716
 C795 C 0.70285 0.09576 0.14346
 C796 C 0.70842 0.07797 0.17777
 C797 C 0.73447 0.05064 0.16976
 H798 H 0.69550 0.08381 0.20465
 H799 H 0.76247 0.03540 0.11877
 H800 H 0.72607 0.08622 0.08855
 N801 N 0.17757 0.59181 0.24368
 N802 N 0.16556 0.62147 0.22565
 C803 C 0.17603 0.61897 0.18925
 C804 C 0.19535 0.58636 0.18388
 C805 C 0.19620 0.57034 0.21915
 H806 H 0.20913 0.57679 0.15859
 H807 H 0.17551 0.58785 0.27271
 H808 H 0.15277 0.64390 0.23876
 N809 N 0.24851 0.12184 0.66834
 N810 N 0.22744 0.14537 0.64920
 C811 C 0.19046 0.13752 0.65607
 C812 C 0.18818 0.10884 0.68206
 C813 C 0.22543 0.09954 0.68859
 H814 H 0.16346 0.09662 0.69536
 H815 H 0.27819 0.12248 0.66907
 H816 H 0.23867 0.16768 0.63405
 N817 N 0.34639 0.56078 0.33256
 N818 N 0.35203 0.59153 0.35200
 C819 C 0.32216 0.61386 0.34648
 C820 C 0.29634 0.59681 0.32255
 C821 C 0.31288 0.56317 0.31448
 H822 H 0.27005 0.60762 0.31152
 H823 H 0.36509 0.53860 0.33190
 H824 H 0.37592 0.59701 0.36863
 N825 N 0.33741 0.13584 0.77227
 N826 N 0.35258 0.16522 0.78861
 C827 C 0.34827 0.16188 0.82617
 C828 C 0.32808 0.12931 0.83397
 C829 C 0.32224 0.11351 0.79876
 H830 H 0.31933 0.11853 0.86107
 H831 H 0.33625 0.13186 0.74319
 H832 H 0.36447 0.18740 0.77373
 N833 N 0.76021 0.60866 0.83287
 N834 N 0.77656 0.63991 0.84376
 C835 C 0.81394 0.63856 0.83559
 C836 C 0.82153 0.60494 0.81844
 C837 C 0.78654 0.58714 0.81681
 H838 H 0.84796 0.59580 0.80630
 H839 H 0.73091 0.60367 0.83342
 H840 H 0.76149 0.66253 0.85371
 N841 N 0.86673 0.06629 0.27267
 N842 N 0.87667 0.09594 0.29206
 C843 C 0.85053 0.10140 0.31919
 C844 C 0.82347 0.07320 0.31773
 C845 C 0.83439 0.05220 0.28729
 H846 H 0.79902 0.06838 0.33548
 H847 H 0.88133 0.05666 0.24918
 H848 H 0.90074 0.11209 0.28617
 N849 N 0.71493 0.42165 0.35951
 N850 N 0.69854 0.39092 0.37212
 C851 C 0.68027 0.37419 0.34328
 C852 C 0.68506 0.39540 0.31097
 C853 C 0.70686 0.42531 0.32269
 H854 H 0.67496 0.38983 0.28278
 H855 H 0.73057 0.44015 0.37612
 H856 H 0.69939 0.38229 0.40013
 N857 N 0.62325 0.93551 0.79186
 N858 N 0.60688 0.90992 0.81313
 C859 C 0.63392 0.89338 0.83381
 C860 C 0.66909 0.90976 0.82596
 C861 C 0.66087 0.93628 0.79899
 H862 H 0.69673 0.90221 0.83668
 H863 H 0.60878 0.95206 0.77259
 H864 H 0.57775 0.90412 0.81321
 N865 N 0.14374 0.41935 0.78960
 N866 N 0.12983 0.39270 0.81123
 C867 C 0.15894 0.37583 0.82863
 C868 C 0.19294 0.39247 0.81769
 C869 C 0.18189 0.42004 0.79294
 H870 H 0.22149 0.38558 0.82633
 H871 H 0.12721 0.43711 0.77334
 H872 H 0.10087 0.38686 0.81441
 N873 N 0.11714 0.92464 0.28309
 N874 N 0.10363 0.89899 0.30631
 C875 C 0.13238 0.87671 0.31617
 C876 C 0.16522 0.88798 0.29821
 C877 C 0.15453 0.91880 0.27797
 H878 H 0.19346 0.87682 0.30124
 H879 H 0.10167 0.94716 0.27326
 H880 H 0.07585 0.89804 0.31657
 N881 N 0.39542 0.35007 0.72138
 N882 N 0.36272 0.35574 0.70437
 C883 C 0.36495 0.34291 0.66889
 C884 C 0.40056 0.32741 0.66339
 C885 C 0.41890 0.33273 0.69757
 H886 H 0.41133 0.31381 0.63861
 H887 H 0.40073 0.35614 0.74963
 H888 H 0.33901 0.36670 0.71771
 N889 N 0.38589 0.82091 0.25952
 N890 N 0.35903 0.83377 0.23725
 C891 C 0.37066 0.83075 0.20126
 C892 C 0.40572 0.81350 0.20070
 C893 C 0.41445 0.80828 0.23819
 H894 H 0.42207 0.80440 0.17687
 H895 H 0.38332 0.81827 0.28867
 H896 H 0.33218 0.84112 0.24681
 N897 N 0.86577 0.33624 0.24765
 N898 N 0.83688 0.34777 0.22718
 C899 C 0.84380 0.34017 0.19068
 C900 C 0.87801 0.32159 0.18808
 C901 C 0.89121 0.32036 0.22479
 H902 H 0.89184 0.31072 0.16346
 H903 H 0.86745 0.33845 0.27689
 H904 H 0.81264 0.35983 0.23844
 N905 N 0.89781 0.79796 0.74819
 N906 N 0.86775 0.81353 0.73318
 C907 C 0.87572 0.82255 0.69729
 C908 C 0.91253 0.81174 0.68868
 C909 C 0.92559 0.79670 0.72224
 H910 H 0.92848 0.81717 0.66322
 H911 H 0.89943 0.78899 0.77610
 H912 H 0.84306 0.81981 0.74800
 N913 N 0.58766 0.33460 0.27609
 N914 N 0.61047 0.35345 0.29861
 C915 C 0.63103 0.32925 0.31870
 C916 C 0.62009 0.29326 0.30932
 C917 C 0.59261 0.29811 0.28195
 H918 H 0.63061 0.26750 0.32057
 H919 H 0.56807 0.34667 0.25785
 H920 H 0.61066 0.38223 0.30086
 N921 N 0.55004 0.79736 0.86308
 N922 N 0.57705 0.81781 0.87885
 C923 C 0.59512 0.83728 0.85169
 C924 C 0.57890 0.82899 0.81713
 C925 C 0.55033 0.80366 0.82572
 H926 H 0.58696 0.83937 0.78966
 H927 H 0.53147 0.77984 0.87781
 H928 H 0.58245 0.81862 0.90772
 N929 N 0.07719 0.28204 0.86591
 N930 N 0.10454 0.30349 0.87949
 C931 C 0.12209 0.32062 0.85052
 C932 C 0.10475 0.31019 0.81699
 C933 C 0.07647 0.28555 0.82817
 H934 H 0.11232 0.31837 0.78865
 H935 H 0.05921 0.26544 0.88235
 H936 H 0.11058 0.30642 0.90809
 N937 N 0.09516 0.75630 0.32177
 N938 N 0.11932 0.77932 0.33808
 C939 C 0.10823 0.81420 0.33105
 C940 C 0.07638 0.81332 0.30773
 C941 C 0.06892 0.77592 0.30302
 H942 H 0.06111 0.83618 0.29557
 H943 H 0.09771 0.72754 0.32213
 H944 H 0.14401 0.77086 0.35172
 N945 N 0.56271 0.65539 0.72772
 N946 N 0.59342 0.64258 0.71105
 C947 C 0.61124 0.67093 0.69330
 C948 C 0.59035 0.70282 0.69804
 C949 C 0.56011 0.69181 0.72022
 H950 H 0.59592 0.73018 0.68679
 H951 H 0.54350 0.63922 0.74320
 H952 H 0.60089 0.61475 0.71109
 N953 N 0.59888 0.12292 0.19908
 N954 N 0.62659 0.10689 0.18056
 C955 C 0.64538 0.13297 0.16067
 C956 C 0.62824 0.16717 0.16599
 C957 C 0.59889 0.15938 0.19083
 H958 H 0.63628 0.19368 0.15401
 H959 H 0.57988 0.10885 0.21675
 H960 H 0.63149 0.07848 0.18088
 N961 N 0.11063 0.72519 0.16382
 N962 N 0.14293 0.70947 0.15467
 C963 C 0.14112 0.67365 0.16516
 C964 C 0.10632 0.66633 0.18222
 C965 C 0.08805 0.69991 0.18090
 H966 H 0.09625 0.64076 0.19484
 H967 H 0.10504 0.75327 0.16014
 H968 H 0.16620 0.72378 0.14334
 N969 N 0.07818 0.14065 0.69924
 N970 N 0.10370 0.13042 0.67424
 C971 C 0.12504 0.16018 0.66474
 C972 C 0.11238 0.19088 0.68412
 C973 C 0.08259 0.17713 0.70582
 H974 H 0.12343 0.21893 0.68293
 H975 H 0.05731 0.12312 0.71061
 H976 H 0.10618 0.10360 0.66380
 N977 N 0.37324 0.73273 0.33924
 N978 N 0.34211 0.71540 0.35053
 C979 C 0.34762 0.67861 0.34833
 C980 C 0.38347 0.67231 0.33311
 C981 C 0.39882 0.70755 0.32854
 H982 H 0.39688 0.64632 0.32688
 H983 H 0.37644 0.76147 0.33790
 H984 H 0.31742 0.72896 0.35851
 N985 N 0.41683 0.27145 0.84154
 N986 N 0.38974 0.25138 0.85773
 C987 C 0.38942 0.21734 0.84228
 C988 C 0.41801 0.21534 0.81571
 C989 C 0.43426 0.25045 0.81573
 H990 H 0.42580 0.19198 0.79854
 H991 H 0.42238 0.29931 0.84734
 H992 H 0.37139 0.26119 0.87837
 N993 N 0.90380 0.66893 0.76191
 N994 N 0.87087 0.66082 0.77773
 C995 C 0.87175 0.67271 0.81358
 C996 C 0.90662 0.68962 0.82089
 C997 C 0.92605 0.68657 0.78717
 H998 H 0.91583 0.70347 0.84632
 H999 H 0.90998 0.66426 0.73361
 H1000 H 0.84782 0.64903 0.76341
 N1001 N 0.92942 0.19373 0.35705
 N1002 N 0.90674 0.16680 0.36890
 C1003 C 0.88157 0.15914 0.34143
 C1004 C 0.88871 0.18138 0.31044
 C1005 C 0.91929 0.20300 0.32173
 H1006 H 0.87390 0.18171 0.28375
 H1007 H 0.95226 0.20462 0.37242
 H1008 H 0.90922 0.15348 0.39487
 N1009 N 0.32940 0.26174 0.58909
 N1010 N 0.34151 0.28130 0.61810
 C1011 C 0.32902 0.31617 0.61417
 C1012 C 0.30774 0.31887 0.58134
 C1013 C 0.30855 0.28359 0.56653
 H1014 H 0.29303 0.34267 0.57031
 H1015 H 0.33416 0.23349 0.58568
 H1016 H 0.35645 0.27023 0.64077
 N1017 N 0.37062 0.79105 0.08529
 N1018 N 0.38027 0.81146 0.11467
 C1019 C 0.34946 0.81512 0.13671
 C1020 C 0.31882 0.79673 0.12064
 C1021 C 0.33341 0.78218 0.08790
 H1022 H 0.28958 0.79623 0.13008
 H1023 H 0.38855 0.78554 0.06266
 H1024 H 0.40667 0.82454 0.11800
 N1025 N 0.84530 0.31075 0.07297
 N1026 N 0.85293 0.33053 0.10328
 C1027 C 0.82130 0.33192 0.12442
 C1028 C 0.79196 0.31275 0.10667
 C1029 C 0.80856 0.29983 0.07404
 H1030 H 0.76317 0.30802 0.11631
 H1031 H 0.86472 0.30569 0.05146
 H1032 H 0.87904 0.34347 0.10874
 N1033 N 0.82097 0.85830 0.58378
 N1034 N 0.83830 0.87159 0.61383
 C1035 C 0.84377 0.84362 0.63819
 C1036 C 0.82982 0.81084 0.62294
 C1037 C 0.81508 0.82166 0.58847
 H1038 H 0.82677 0.78422 0.63668
 H1039 H 0.81159 0.87451 0.56133
 H1040 H 0.84434 0.89959 0.61828
 N1041 N 0.23477 0.66573 0.41225
 N1042 N 0.25473 0.64758 0.38687
 C1043 C 0.29066 0.66110 0.38697
 C1044 C 0.29379 0.68834 0.41428
 C1045 C 0.25758 0.69100 0.42905
 H1046 H 0.31858 0.70480 0.42168
 H1047 H 0.20579 0.66146 0.41719
 H1048 H 0.24330 0.62733 0.36919
 N1049 N 0.36059 0.20242 0.95053
 N1050 N 0.37862 0.19177 0.92000
 C1051 C 0.35306 0.18642 0.89221
 C1052 C 0.31696 0.19354 0.90578
 C1053 C 0.32322 0.20398 0.94282
 H1054 H 0.29095 0.19598 0.88975
 H1055 H 0.37398 0.21056 0.97546
 H1056 H 0.40817 0.19131 0.91737
 N1057 N 0.82695 0.75446 0.88760
 N1058 N 0.84204 0.73481 0.86017
 C1059 C 0.83271 0.69884 0.86558
 C1060 C 0.81109 0.69548 0.89787
 C1061 C 0.80752 0.73134 0.91052
 H1062 H 0.79828 0.67071 0.90976
 H1063 H 0.82832 0.78328 0.88934
 H1064 H 0.85664 0.74625 0.83730
 N1065 N 0.76455 0.14811 0.39301
 N1066 N 0.78401 0.13334 0.36513
 C1067 C 0.82145 0.13924 0.37151
 C1068 C 0.82568 0.15962 0.40417
 C1069 C 0.78917 0.16447 0.41690
 H1070 H 0.85112 0.17193 0.41596
 H1071 H 0.73495 0.14975 0.39378
 H1072 H 0.77139 0.12284 0.34078
 N1073 N 0.65308 0.27553 0.42165
 N1074 N 0.63754 0.29572 0.39490
 C1075 C 0.66529 0.31543 0.37776
 C1076 C 0.70001 0.30756 0.39402
 C1077 C 0.69086 0.28216 0.42184
 H1078 H 0.72781 0.31834 0.38649
 H1079 H 0.63794 0.25777 0.43954
 H1080 H 0.60850 0.29610 0.38887
 N1081 N 0.69058 0.86627 0.93556
 N1082 N 0.66972 0.88208 0.90931
 C1083 C 0.65179 0.85531 0.88964
 C1084 C 0.66135 0.82092 0.90401
 C1085 C 0.68608 0.82924 0.93314
 H1086 H 0.65247 0.79388 0.89410
 H1087 H 0.70769 0.88072 0.95469
 H1088 H 0.66775 0.91061 0.90532
 N1089 N 0.22126 0.35293 0.92934
 N1090 N 0.20163 0.36716 0.90118
 C1091 C 0.18113 0.33983 0.88484
 C1092 C 0.18797 0.30675 0.90350
 C1093 C 0.21338 0.31641 0.93169
 H1094 H 0.17578 0.27969 0.89791
 H1095 H 0.23880 0.36831 0.94732
 H1096 H 0.20139 0.39527 0.89443
 N1097 N 0.20220 0.85735 0.41177
 N1098 N 0.18349 0.86892 0.38180
 C1099 C 0.15330 0.84615 0.37593
 C1100 C 0.15178 0.82021 0.40491
 C1101 C 0.18396 0.82762 0.42622
 H1102 H 0.13156 0.79778 0.40901
 H1103 H 0.22760 0.86915 0.42149
 H1104 H 0.19224 0.89156 0.36565
 N1105 N 0.68283 0.75415 0.63943
 N1106 N 0.66898 0.73202 0.66589
 C1107 C 0.65803 0.69990 0.64986
 C1108 C 0.66456 0.70184 0.61154
 C1109 C 0.68083 0.73654 0.60612
 H1110 H 0.66018 0.68062 0.59058
 H1111 H 0.69640 0.77949 0.64467
 H1112 H 0.66910 0.73805 0.69459
 N1113 N 0.66019 0.17960 0.05463
 N1114 N 0.64850 0.15764 0.08203
 C1115 C 0.67912 0.14598 0.10121
 C1116 C 0.71195 0.16071 0.08514
 C1117 C 0.69840 0.18207 0.05573
 H1118 H 0.74093 0.15841 0.09500
 H1119 H 0.64212 0.19330 0.03605
 H1120 H 0.62002 0.15157 0.08787
 N1121 N 0.25680 0.65531 0.10765
 N1122 N 0.23765 0.64398 0.13751
 C1123 C 0.20099 0.65370 0.13341
 C1124 C 0.19676 0.67236 0.09946
 C1125 C 0.23299 0.67304 0.08428
 H1126 H 0.17156 0.68521 0.08822
 H1127 H 0.28623 0.65321 0.10472
 H1128 H 0.25026 0.63193 0.16105
 N1129 N 0.14747 0.22098 0.56522
 N1130 N 0.13595 0.20553 0.59699
 C1131 C 0.16073 0.17906 0.60684
 C1132 C 0.18853 0.17667 0.57898
 C1133 C 0.17954 0.20450 0.55368
 H1134 H 0.21273 0.15864 0.57763
 H1135 H 0.13436 0.24362 0.55261
 H1136 H 0.11217 0.21410 0.61194
   
