data_POSCAR
  _audit_creation_date              2014-09-24
  _audit_creation_method            'ToBaCCo'
  _symmetry_space_group_name_H-M    'P1'
  _symmetry_Int_Tables_number       1
  _symmetry_cell_setting            triclinic
  loop_
  _symmetry_equiv_pos_as_xyz
 x,y,z
_cell_length_a 42.7760
_cell_length_b 36.9973
_cell_length_c 32.7429
_cell_angle_alpha 90.114800
_cell_angle_beta 89.735800
_cell_angle_gamma 87.235700
loop_
  _atom_site_label
  _atom_site_type_symbol
  _atom_site_fract_x
  _atom_site_fract_y
  _atom_site_fract_z
C1 C 1.22906 0.22319 0.20575
 C2 C 1.24853 0.25121 0.18443
 C3 C 1.26310 0.27336 0.21095
 C4 C 1.25675 0.26546 0.25658
 C5 C 1.25165 0.20293 0.23467
 C6 C 1.26609 0.22491 0.26130
 C7 C 1.20643 0.24496 0.23357
 C8 C 1.22074 0.26690 0.26028
 H9 H 1.25141 0.25261 0.15149
 H10 H 1.26853 0.28352 0.27820
 H11 H 1.25539 0.17366 0.23470
 H12 H 1.18126 0.24203 0.23346
 C13 C 0.73198 -0.28052 0.21405
 C14 C 0.74936 -0.25506 0.18597
 C15 C 0.76602 -0.23051 0.20674
 C16 C 0.76395 -0.23354 0.25348
 C17 C 0.75722 -0.29786 0.24176
 C18 C 0.77392 -0.27321 0.26233
 C19 C 0.71191 -0.25556 0.24207
 C20 C 0.72867 -0.23103 0.26261
 H21 H 0.74893 -0.25666 0.15284
 H22 H 0.77757 -0.21352 0.27034
 H23 H 0.76166 -0.32692 0.24462
 H24 H 0.68663 -0.25662 0.24472
 C25 C 0.73154 0.22533 -0.29128
 C26 C 0.75711 0.24076 -0.31388
 C27 C 0.77605 0.26282 -0.28882
 C28 C 0.76573 0.26524 -0.24605
 C29 C 0.74613 0.20566 -0.25737
 C30 C 0.76503 0.22761 -0.23241
 C31 C 0.71392 0.25589 -0.27294
 C32 C 0.73274 0.27794 -0.24782
 H33 H 0.76162 0.23612 -0.34623
 H34 H 0.78034 0.28245 -0.22662
 H35 H 0.74557 0.17646 -0.25359
 H36 H 0.68857 0.25970 -0.27450
 C37 C 1.22398 -0.27198 -0.29486
 C38 C 1.24643 -0.24897 -0.31892
 C39 C 1.26715 -0.23206 -0.29474
 C40 C 1.26369 -0.23976 -0.24875
 C41 C 1.24490 -0.29826 -0.26982
 C42 C 1.26561 -0.28136 -0.24564
 C43 C 1.20850 -0.24614 -0.26353
 C44 C 1.22921 -0.22929 -0.23952
 H45 H 1.24516 -0.24509 -0.35177
 H46 H 1.28063 -0.22605 -0.22909
 H47 H 1.24292 -0.32743 -0.27027
 H48 H 1.18332 -0.24092 -0.26117
 C49 C 0.23064 0.22625 0.79708
 C50 C 0.24839 0.25341 0.81721
 C51 C 0.26302 0.27710 0.78924
 C52 C 0.25719 0.26931 0.74612
 C53 C 0.20739 0.24708 0.76947
 C54 C 0.22116 0.26951 0.74263
 C55 C 0.25353 0.20648 0.76768
 C56 C 0.26740 0.22894 0.74086
 H57 H 0.25173 0.25452 0.85007
 H58 H 0.26847 0.28774 0.72436
 H59 H 0.18233 0.24336 0.76998
 H60 H 0.25770 0.17726 0.76726
 C61 C 0.73044 0.72235 0.78590
 C62 C 0.74752 0.74649 0.81207
 C63 C 0.76504 0.77188 0.78931
 C64 C 0.76222 0.76826 0.74498
 C65 C 0.71099 0.74591 0.75977
 C66 C 0.72856 0.77122 0.73722
 C67 C 0.75390 0.70497 0.75895
 C68 C 0.77143 0.73040 0.73639
 H69 H 0.74788 0.74490 0.84523
 H70 H 0.77579 0.78794 0.72732
 H71 H 0.68562 0.74527 0.75813
 H72 H 0.75838 0.67584 0.75672
 C73 C 0.73172 0.22721 0.29249
 C74 C 0.75821 0.24445 0.31562
 C75 C 0.77636 0.26494 0.29136
 C76 C 0.76628 0.26651 0.24619
 C77 C 0.71341 0.25863 0.27194
 C78 C 0.73142 0.27914 0.24757
 C79 C 0.74781 0.20605 0.25748
 C80 C 0.76585 0.22656 0.23330
 H81 H 0.76265 0.24020 0.34795
 H82 H 0.78099 0.28333 0.22649
 H83 H 0.68809 0.26250 0.27377
 H84 H 0.74647 0.17698 0.25352
 C85 C 0.22313 0.72999 0.29505
 C86 C 0.24548 0.75327 0.31883
 C87 C 0.26582 0.77076 0.29440
 C88 C 0.26207 0.76328 0.24834
 C89 C 0.20710 0.75577 0.26441
 C90 C 0.22733 0.77319 0.24005
 C91 C 0.24424 0.70426 0.26915
 C92 C 0.26458 0.72164 0.24465
 H93 H 0.24466 0.75654 0.35181
 H94 H 0.27863 0.77746 0.22843
 H95 H 0.18184 0.76028 0.26251
 H96 H 0.24283 0.67501 0.26955
 O97 O 1.04005 0.05965 0.07102
 O98 O 1.07564 0.02489 0.03348
 C99 C 1.06836 0.04943 0.06050
 O100 O 0.95439 -0.06817 0.06630
 O101 O 0.91961 -0.03213 0.02941
 C102 C 0.92633 -0.05783 0.05523
 O103 O 1.04172 -0.06799 0.07195
 O104 O 1.07636 -0.03643 0.03381
 C105 C 1.06981 -0.05970 0.06164
 O106 O 0.95295 0.06696 0.06466
 O107 O 0.91885 0.03258 0.02926
 C108 C 0.92509 0.05861 0.05404
 Zr109 Zr 0.99674 0.04197 0.04930
 O110 O 0.99222 0.03650 0.11345
 O111 O 0.99793 0.09856 0.05725
 Zr112 Zr 0.99797 -0.04857 0.04843
 O113 O 0.99339 -0.04710 0.11285
 O114 O 1.00224 -0.10581 0.04929
 O115 O 1.02550 -0.00431 0.05741
 O116 O 0.96954 -0.00218 0.05561
 O117 O 0.95492 0.06617 -0.07319
 O118 O 0.91985 0.03266 -0.03809
 C119 C 0.92678 0.05828 -0.06304
 O120 O 1.04406 -0.06741 -0.07677
 O121 O 1.07748 -0.03616 -0.03668
 C122 C 1.07178 -0.05918 -0.06511
 O123 O 0.95661 -0.06809 -0.07467
 O124 O 0.92071 -0.03216 -0.03886
 C125 C 0.92821 -0.05788 -0.06458
 O126 O 1.04222 0.05958 -0.07490
 O127 O 1.07663 0.02502 -0.03589
 C128 C 1.07018 0.04946 -0.06315
 Zr129 Zr 0.99832 0.04248 -0.05436
 O130 O 0.99588 0.03977 -0.11890
 O131 O 1.00064 0.09945 -0.05697
 Zr132 Zr 0.99957 -0.04823 -0.05493
 O133 O 0.99692 -0.04610 -0.11946
 O134 O 1.00397 -0.10544 -0.05681
 Zr135 Zr 1.04492 -0.00465 -0.00195
 Zr136 Zr 0.95112 -0.00118 -0.00391
 O137 O 0.97145 -0.00178 -0.06257
 O138 O 1.02727 -0.00385 -0.06202
 O139 O 0.96986 0.05057 -0.00307
 O140 O 1.02597 -0.05613 -0.00274
 O141 O 1.02427 0.04818 -0.00196
 O142 O 0.97101 -0.05452 -0.00387
 H143 H 0.95462 -0.00145 0.07888
 H144 H 1.04018 -0.07808 -0.00259
 H145 H 0.95739 -0.00109 -0.08655
 H146 H 1.03749 0.06943 -0.00167
 H147 H 0.98620 -0.11482 0.03068
 H148 H 0.98797 -0.11464 -0.03816
 H149 H 1.01547 -0.03378 -0.12950
 H150 H 1.01606 0.02895 -0.12906
 H151 H 0.98528 0.10986 -0.03698
 H152 H 0.99707 0.10925 0.02966
 H153 H 1.01311 0.02934 0.12448
 H154 H 1.01133 -0.03429 0.12379
 O155 O 1.05318 0.44712 0.57639
 O156 O 1.02610 0.40653 0.53887
 C157 C 1.04682 0.41459 0.56585
 O158 O 0.93646 0.54943 0.57160
 O159 O 0.96565 0.58939 0.53588
 C160 C 0.94347 0.58184 0.56121
 O161 O 0.94201 0.44890 0.57589
 O162 O 0.97193 0.40752 0.53826
 C163 C 0.95065 0.41611 0.56554
 O164 O 1.05373 0.54702 0.57097
 O165 O 1.02215 0.58827 0.53614
 C166 C 1.04508 0.57970 0.56059
 Zr167 Zr 1.03480 0.49744 0.55519
 O168 O 1.02864 0.50200 0.61929
 O169 O 1.08372 0.49461 0.56425
 Zr170 Zr 0.95681 0.49875 0.55349
 O171 O 0.95766 0.50313 0.61798
 O172 O 0.90753 0.49568 0.55448
 O173 O 0.99672 0.46519 0.56238
 O174 O 0.99485 0.53032 0.56162
 O175 O 1.05460 0.54657 0.43407
 O176 O 1.02306 0.58799 0.46927
 C177 C 1.04610 0.57930 0.44466
 O178 O 0.94431 0.44821 0.42765
 O179 O 0.97316 0.40717 0.46650
 C180 C 0.95268 0.41553 0.43845
 O181 O 0.93856 0.54874 0.43126
 O182 O 0.96672 0.58903 0.46776
 C183 C 0.94528 0.58123 0.44174
 O184 O 1.05485 0.44657 0.43039
 O185 O 1.02719 0.40630 0.46780
 C186 C 1.04833 0.41414 0.44103
 Zr187 Zr 1.03650 0.49696 0.45172
 O188 O 1.03441 0.50082 0.38722
 O189 O 1.08600 0.49280 0.44943
 Zr190 Zr 0.95834 0.49825 0.45038
 O191 O 0.96100 0.50212 0.38592
 O192 O 0.90912 0.49509 0.44759
 Zr193 Zr 0.99843 0.44316 0.50279
 Zr194 Zr 0.99515 0.55238 0.50245
 O195 O 0.99664 0.52961 0.44352
 O196 O 0.99855 0.46474 0.44316
 O197 O 1.04109 0.52893 0.50343
 O198 O 0.95272 0.46712 0.50191
 O199 O 1.04261 0.46591 0.50363
 O200 O 0.95036 0.53083 0.50169
 H201 H 0.99425 0.54737 0.58504
 H202 H 0.93450 0.45158 0.50159
 H203 H 0.99662 0.54621 0.41980
 H204 H 1.06196 0.45009 0.50384
 H205 H 0.89882 0.51390 0.53505
 H206 H 0.89983 0.51358 0.46645
 H207 H 0.97240 0.48002 0.37564
 H208 H 1.02668 0.47786 0.37661
 H209 H 1.09373 0.50905 0.47076
 H210 H 1.09346 0.49323 0.53686
 H211 H 1.02415 0.47778 0.62997
 H212 H 0.96888 0.48118 0.62872
 O213 O 0.54131 0.06317 0.57490
 O214 O 0.57675 0.02858 0.53692
 C215 C 0.56959 0.05307 0.56413
 O216 O 0.45607 -0.06481 0.57175
 O217 O 0.42069 -0.02833 0.53630
 C218 C 0.42783 -0.05427 0.56170
 O219 O 0.54333 -0.06440 0.57567
 O220 O 0.57765 -0.03262 0.53720
 C221 C 0.57131 -0.05598 0.56513
 O222 O 0.45422 0.07024 0.57001
 O223 O 0.41979 0.03606 0.53491
 C224 C 0.42625 0.06202 0.55972
 Zr225 Zr 0.49788 0.04536 0.55379
 O226 O 0.49408 0.03988 0.61801
 O227 O 0.49888 0.10199 0.56157
 Zr228 Zr 0.49940 -0.04538 0.55261
 O229 O 0.49563 -0.04502 0.61711
 O230 O 0.50393 -0.10262 0.55210
 O231 O 0.52680 -0.00090 0.56127
 O232 O 0.47097 0.00100 0.56053
 O233 O 0.45450 0.06902 0.43179
 O234 O 0.41995 0.03450 0.46651
 C235 C 0.42649 0.06040 0.44170
 O236 O 0.54408 -0.06354 0.42656
 O237 O 0.57802 -0.03217 0.46580
 C238 C 0.57194 -0.05522 0.43745
 O239 O 0.45692 -0.06464 0.43020
 O240 O 0.42116 -0.02941 0.46708
 C241 C 0.42856 -0.05481 0.44086
 O242 O 0.54179 0.06327 0.42865
 O243 O 0.57696 0.02893 0.46688
 C244 C 0.56997 0.05329 0.43963
 Zr245 Zr 0.49829 0.04618 0.45040
 O246 O 0.49523 0.04454 0.38587
 O247 O 0.50030 0.10323 0.44913
 Zr248 Zr 0.49993 -0.04474 0.44956
 O249 O 0.49660 -0.04306 0.38507
 O250 O 0.50458 -0.10196 0.44819
 Zr251 Zr 0.54573 -0.00098 0.50165
 Zr252 Zr 0.45179 0.00202 0.50143
 O253 O 0.47167 0.00164 0.44249
 O254 O 0.52729 -0.00008 0.44201
 O255 O 0.47025 0.05393 0.50204
 O256 O 0.52703 -0.05258 0.50109
 O257 O 0.52494 0.05177 0.50218
 O258 O 0.47180 -0.05127 0.50097
 H259 H 0.45639 0.00176 0.58415
 H260 H 0.54144 -0.07436 0.50093
 H261 H 0.45756 0.00213 0.41855
 H262 H 0.53819 0.07301 0.50225
 H263 H 0.48666 -0.11156 0.53548
 H264 H 0.48826 -0.11117 0.46636
 H265 H 0.51454 -0.02986 0.37465
 H266 H 0.51475 0.03242 0.37529
 H267 H 0.48394 0.11331 0.46796
 H268 H 0.49858 0.11261 0.53392
 H269 H 0.51506 0.03252 0.62859
 H270 H 0.51277 -0.03073 0.62781
 O271 O 0.54173 0.55872 0.07316
 O272 O 0.57716 0.52519 0.03401
 C273 C 0.57000 0.54888 0.06212
 O274 O 0.45736 0.43129 0.07013
 O275 O 0.42162 0.46710 0.03450
 C276 C 0.42897 0.44159 0.06040
 O277 O 0.54466 0.43252 0.07284
 O278 O 0.57863 0.46368 0.03313
 C279 C 0.57256 0.44088 0.06176
 O280 O 0.45449 0.56436 0.07018
 O281 O 0.42020 0.53093 0.03384
 C282 C 0.42652 0.55603 0.05992
 Zr283 Zr 0.49842 0.54185 0.05081
 O284 O 0.49494 0.53971 0.11532
 O285 O 0.50055 0.59886 0.05303
 Zr286 Zr 0.50046 0.45082 0.04992
 O287 O 0.49712 0.45067 0.11445
 O288 O 0.50529 0.39359 0.04884
 O289 O 0.52755 0.49563 0.05817
 O290 O 0.47205 0.49705 0.05801
 O291 O 0.45430 0.56459 -0.07099
 O292 O 0.42011 0.53091 -0.03448
 C293 C 0.42639 0.55606 -0.06044
 O294 O 0.54458 0.43305 -0.07681
 O295 O 0.57860 0.46404 -0.03728
 C296 C 0.57250 0.44130 -0.06602
 O297 O 0.45725 0.43205 -0.07298
 O298 O 0.42157 0.46746 -0.03615
 C299 C 0.42889 0.44226 -0.06264
 O300 O 0.54164 0.55961 -0.07496
 O301 O 0.57717 0.52563 -0.03698
 C302 C 0.56996 0.54976 -0.06446
 Zr303 Zr 0.49835 0.54239 -0.05234
 O304 O 0.49490 0.54129 -0.11685
 O305 O 0.50034 0.59945 -0.05300
 Zr306 Zr 0.50040 0.45135 -0.05308
 O307 O 0.49698 0.45195 -0.11756
 O308 O 0.50519 0.39411 -0.05315
 Zr309 Zr 0.54632 0.49557 -0.00155
 Zr310 Zr 0.45233 0.49780 -0.00079
 O311 O 0.47199 0.49763 -0.05990
 O312 O 0.52748 0.49624 -0.06097
 O313 O 0.47030 0.54995 -0.00051
 O314 O 0.52784 0.44381 -0.00183
 O315 O 0.52535 0.54822 -0.00090
 O316 O 0.47249 0.44461 -0.00143
 H317 H 0.45795 0.49749 0.08212
 H318 H 0.54234 0.42211 -0.00210
 H319 H 0.45793 0.49825 -0.08387
 H320 H 0.53868 0.56939 -0.00079
 H321 H 0.48770 0.38467 0.03280
 H322 H 0.48768 0.38504 -0.03689
 H323 H 0.51384 0.46678 -0.12814
 H324 H 0.51408 0.52864 -0.12769
 H325 H 0.48350 0.60941 -0.03484
 H326 H 0.48472 0.60907 0.03382
 H327 H 0.51437 0.52748 0.12572
 H328 H 0.51379 0.46568 0.12506
 C329 C 1.15153 0.14021 0.08538
 C330 C 1.14475 0.16557 0.12237
 C331 C 1.17667 0.15349 0.14024
 C332 C 1.18387 0.12849 0.10358
 C333 C 1.13682 0.10939 0.10899
 C334 C 1.16873 0.09721 0.12684
 C335 C 1.12975 0.13444 0.14564
 C336 C 1.16194 0.12265 0.16378
 C337 C 1.19733 0.17844 0.15987
 C338 C 1.21265 0.19896 0.17889
 C339 C 1.11348 0.08609 0.09220
 C340 C 1.09325 0.06842 0.07819
 H341 H 1.14692 0.14709 0.05291
 H342 H 1.13518 0.19395 0.12068
 H343 H 1.20637 0.12645 0.08652
 H344 H 1.17823 0.06880 0.12854
 H345 H 1.10729 0.13657 0.16281
 H346 H 1.16650 0.11574 0.19627
 C347 C 1.11434 0.68805 0.60081
 C348 C 1.11963 0.69197 0.64744
 C349 C 1.15428 0.68018 0.64117
 C350 C 1.14948 0.67662 0.59492
 C351 C 1.10726 0.64821 0.60754
 C352 C 1.14194 0.63650 0.60130
 C353 C 1.11214 0.65183 0.65376
 C354 C 1.14709 0.64037 0.64776
 C355 C 1.18020 0.69696 0.66155
 C356 C 1.20071 0.71065 0.68019
 C357 C 1.08234 0.62768 0.58982
 C358 C 1.06383 0.60751 0.57607
 H359 H 1.10051 0.70740 0.58138
 H360 H 1.11084 0.71503 0.66672
 H361 H 1.16521 0.68691 0.57099
 H362 H 1.15080 0.61344 0.58206
 H363 H 1.09647 0.64156 0.67777
 H364 H 1.16087 0.62093 0.66716
 C365 C 0.66974 0.10270 0.62999
 C366 C 0.68273 0.13628 0.60863
 C367 C 0.67568 0.15860 0.64748
 C368 C 0.66308 0.12544 0.66914
 C369 C 0.63689 0.11402 0.61454
 C370 C 0.62993 0.13638 0.65339
 C371 C 0.64947 0.14718 0.59284
 C372 C 0.64282 0.16986 0.63201
 C373 C 0.69652 0.18342 0.66726
 C374 C 0.71304 0.20337 0.68545
 C375 C 0.61425 0.09022 0.59669
 C376 C 0.59445 0.07221 0.58200
 H377 H 0.68050 0.07481 0.62900
 H378 H 0.70467 0.13659 0.59044
 H379 H 0.66895 0.11681 0.70076
 H380 H 0.60803 0.13612 0.67168
 H381 H 0.64364 0.15578 0.56121
 H382 H 0.63203 0.19775 0.63301
 C383 C 0.62900 0.63105 0.15376
 C384 C 0.65942 0.61789 0.17570
 C385 C 0.67681 0.64788 0.15416
 C386 C 0.64668 0.66133 0.13251
 C387 C 0.63773 0.60563 0.11790
 C388 C 0.65512 0.63562 0.09636
 C389 C 0.66784 0.59207 0.13951
 C390 C 0.68563 0.62249 0.11830
 C391 C 0.69753 0.67235 0.17476
 C392 C 0.71358 0.69327 0.19220
 C393 C 0.61484 0.58346 0.09790
 C394 C 0.59491 0.56677 0.08154
 H395 H 0.60549 0.63432 0.16816
 H396 H 0.66143 0.61091 0.20857
 H397 H 0.63820 0.69006 0.12983
 H398 H 0.65310 0.64263 0.06350
 H399 H 0.67626 0.56332 0.14216
 H400 H 0.70917 0.61930 0.10396
 C401 C 0.83345 -0.13720 0.08877
 C402 C 0.84388 -0.17142 0.11327
 C403 C 0.82129 -0.15929 0.14778
 C404 C 0.81047 -0.12541 0.12364
 C405 C 0.85915 -0.11648 0.10986
 C406 C 0.83657 -0.10428 0.14438
 C407 C 0.86986 -0.15039 0.13404
 C408 C 0.84699 -0.13856 0.16883
 C409 C 0.80101 -0.18394 0.16898
 C410 C 0.78488 -0.20489 0.18631
 C411 C 0.88147 -0.09384 0.08931
 C412 C 0.90122 -0.07658 0.07321
 H413 H 0.82812 -0.13634 0.05563
 H414 H 0.84669 -0.19931 0.10076
 H415 H 0.78578 -0.11545 0.11967
 H416 H 0.83381 -0.07640 0.15688
 H417 H 0.89453 -0.16043 0.13810
 H418 H 0.85234 -0.13943 0.20197
 C419 C 0.86682 0.32796 0.60146
 C420 C 0.87220 0.29459 0.62957
 C421 C 0.84912 0.31218 0.66076
 C422 C 0.84345 0.34520 0.63291
 C423 C 0.89363 0.34632 0.62317
 C424 C 0.87051 0.36380 0.65439
 C425 C 0.89943 0.31330 0.65102
 C426 C 0.87590 0.33052 0.68255
 C427 C 0.82331 0.29407 0.68070
 C428 C 0.80139 0.27950 0.69577
 C429 C 0.91681 0.36771 0.60201
 C430 C 0.93373 0.38813 0.58490
 H431 H 0.86332 0.32698 0.56791
 H432 H 0.87261 0.26588 0.61958
 H433 H 0.82023 0.35826 0.62568
 H434 H 0.87001 0.39249 0.66445
 H435 H 0.92269 0.30032 0.65819
 H436 H 0.87935 0.33148 0.71611
 C437 C 0.33701 -0.13575 0.59562
 C438 C 0.34813 -0.17018 0.61926
 C439 C 0.32530 -0.15937 0.65403
 C440 C 0.31383 -0.12528 0.63069
 C441 C 0.36222 -0.11469 0.61727
 C442 C 0.33942 -0.10380 0.65204
 C443 C 0.37363 -0.14880 0.64063
 C444 C 0.35051 -0.13832 0.67569
 C445 C 0.30495 -0.18492 0.67372
 C446 C 0.28801 -0.20633 0.68881
 C447 C 0.38387 -0.09109 0.59679
 C448 C 0.40309 -0.07326 0.58034
 H449 H 0.33165 -0.13440 0.56250
 H450 H 0.35155 -0.19775 0.60605
 H451 H 0.28897 -0.11590 0.62689
 H452 H 0.33605 -0.07621 0.66521
 H453 H 0.39847 -0.15823 0.64448
 H454 H 0.35587 -0.13969 0.70881
 C455 C 0.35787 0.38533 0.16744
 C456 C 0.32189 0.38604 0.16132
 C457 C 0.32352 0.34444 0.16053
 C458 C 0.35911 0.34339 0.16697
 C459 C 0.36234 0.38519 0.12080
 C460 C 0.36389 0.34359 0.12008
 C461 C 0.32675 0.38626 0.11432
 C462 C 0.32803 0.34435 0.11389
 C463 C 0.30202 0.32052 0.18124
 C464 C 0.28435 0.29967 0.19620
 C465 C 0.38477 0.40679 0.09846
 C466 C 0.40426 0.42335 0.08054
 H467 H 0.37036 0.40245 0.18928
 H468 H 0.30444 0.40328 0.17858
 H469 H 0.37226 0.32560 0.18884
 H470 H 0.38132 0.32628 0.10286
 H471 H 0.31364 0.40406 0.09243
 H472 H 0.31558 0.32723 0.09201
 C473 C 0.86493 0.13527 -0.16274
 C474 C 0.82951 0.13102 -0.16903
 C475 C 0.82356 0.17120 -0.15805
 C476 C 0.85872 0.17575 -0.15207
 C477 C 0.86083 0.12567 -0.11747
 C478 C 0.85494 0.16583 -0.10638
 C479 C 0.82567 0.12110 -0.12345
 C480 C 0.81935 0.16167 -0.11277
 C481 C 0.80280 0.19483 -0.18275
 C482 C 0.78534 0.21175 -0.20515
 C483 C 0.88260 0.10034 -0.09650
 C484 C 0.90191 0.08030 -0.08062
 H485 H 0.88383 0.12406 -0.18312
 H486 H 0.81887 0.11696 -0.19513
 H487 H 0.87207 0.19848 -0.16401
 H488 H 0.86563 0.17979 -0.08025
 H489 H 0.81234 0.09834 -0.11150
 H490 H 0.80042 0.17294 -0.09248
 C491 C 0.88944 0.65867 0.33517
 C492 C 0.85503 0.64820 0.33151
 C493 C 0.84439 0.68815 0.33718
 C494 C 0.87853 0.69899 0.34050
 C495 C 0.88730 0.65369 0.38165
 C496 C 0.87679 0.69367 0.38754
 C497 C 0.85313 0.64302 0.37820
 C498 C 0.84220 0.68321 0.38366
 C499 C 0.81979 0.70465 0.31138
 C500 C 0.79905 0.71583 0.28935
 C501 C 0.90998 0.63141 0.40509
 C502 C 0.92711 0.61000 0.42278
 H503 H 0.90912 0.64839 0.31548
 H504 H 0.84586 0.62961 0.30827
 H505 H 0.88866 0.72224 0.32468
 H506 H 0.88606 0.71209 0.41087
 H507 H 0.84288 0.61979 0.39395
 H508 H 0.82249 0.69348 0.40331
 C509 C 0.34155 0.15877 0.40270
 C510 C 0.35230 0.18204 0.36630
 C511 C 0.32391 0.17047 0.34185
 C512 C 0.31276 0.14761 0.37777
 C513 C 0.36046 0.12600 0.38489
 C514 C 0.33208 0.11449 0.36042
 C515 C 0.37153 0.14890 0.34896
 C516 C 0.34288 0.13767 0.32421
 C517 C 0.30370 0.19343 0.31564
 C518 C 0.28682 0.20964 0.29189
 C519 C 0.38204 0.10125 0.40703
 C520 C 0.40138 0.08171 0.42364
 H521 H 0.34120 0.16704 0.43532
 H522 H 0.36040 0.21003 0.36846
 H523 H 0.28835 0.14745 0.38940
 H524 H 0.32399 0.08649 0.35822
 H525 H 0.39592 0.14908 0.33726
 H526 H 0.34332 0.12927 0.29164
 C527 C 0.32998 0.63776 -0.10680
 C528 C 0.34005 0.67155 -0.13058
 C529 C 0.32269 0.65833 -0.16833
 C530 C 0.31224 0.62492 -0.14501
 C531 C 0.35959 0.61679 -0.12226
 C532 C 0.34221 0.60361 -0.16001
 C533 C 0.36998 0.65022 -0.14560
 C534 C 0.35231 0.63733 -0.18366
 C535 C 0.30252 0.68094 -0.19504
 C536 C 0.28592 0.69870 -0.21779
 C537 C 0.38145 0.59400 -0.09803
 C538 C 0.40103 0.57603 -0.07981
 H539 H 0.32102 0.63760 -0.07494
 H540 H 0.33901 0.69973 -0.11878
 H541 H 0.28823 0.61478 -0.14507
 H542 H 0.34327 0.57543 -0.17182
 H543 H 0.39398 0.66038 -0.14557
 H544 H 0.36135 0.63741 -0.21550
 C545 C 1.14602 -0.11780 -0.16896
 C546 C 1.18198 -0.11526 -0.16640
 C547 C 1.18527 -0.15664 -0.16273
 C548 C 1.14960 -0.15939 -0.16560
 C549 C 1.14402 -0.11551 -0.12221
 C550 C 1.14736 -0.15689 -0.11862
 C551 C 1.17964 -0.11255 -0.11911
 C552 C 1.18334 -0.15446 -0.11595
 C553 C 1.20527 -0.18116 -0.18753
 C554 C 1.21823 -0.20267 -0.21022
 C555 C 1.11940 -0.09404 -0.10106
 C556 C 1.09798 -0.07760 -0.08449
 H557 H 1.13037 -0.10257 -0.19050
 H558 H 1.19654 -0.09843 -0.18622
 H559 H 1.13741 -0.17892 -0.18496
 H560 H 1.13282 -0.17378 -0.09883
 H561 H 1.19160 -0.09294 -0.09964
 H562 H 1.19900 -0.16975 -0.09448
 C563 C 1.14030 0.32448 0.40221
 C564 C 1.13695 0.29587 0.36793
 C565 C 1.15938 0.31687 0.34103
 C566 C 1.16315 0.34511 0.37482
 C567 C 1.11264 0.34680 0.38372
 C568 C 1.13514 0.36769 0.35677
 C569 C 1.10890 0.31858 0.34990
 C570 C 1.13169 0.33924 0.32270
 C571 C 1.18416 0.30042 0.31498
 C572 C 1.20243 0.28603 0.29120
 C573 C 1.08719 0.36625 0.40597
 C574 C 1.06791 0.38594 0.42283
 H575 H 1.14344 0.31846 0.43518
 H576 H 1.13809 0.26609 0.37236
 H577 H 1.18565 0.35591 0.38480
 H578 H 1.13409 0.39746 0.35226
 H579 H 1.08641 0.30779 0.33989
 H580 H 1.12846 0.34534 0.28976
 C581 C 0.64164 -0.11638 0.32976
 C582 C 0.67782 -0.11568 0.33056
 C583 C 0.67962 -0.15711 0.33436
 C584 C 0.64378 -0.15808 0.33322
 C585 C 0.64109 -0.11379 0.37658
 C586 C 0.64296 -0.15523 0.38030
 C587 C 0.67693 -0.11267 0.37788
 C588 C 0.67912 -0.15458 0.38119
 C589 C 0.69928 -0.18236 0.30987
 C590 C 0.71363 -0.20413 0.28878
 C591 C 0.61805 -0.09106 0.39923
 C592 C 0.59765 -0.07386 0.41707
 H593 H 0.62599 -0.10045 0.30884
 H594 H 0.69243 -0.09973 0.30984
 H595 H 0.63035 -0.17704 0.31462
 H596 H 0.62838 -0.17126 0.40097
 H597 H 0.69024 -0.09367 0.39655
 H598 H 0.69478 -0.17056 0.40205
 C599 C 0.66904 0.36118 -0.11189
 C600 C 0.66042 0.33161 -0.14286
 C601 C 0.68343 0.34690 -0.17381
 C602 C 0.69246 0.37618 -0.14326
 C603 C 0.64298 0.38643 -0.12969
 C604 C 0.66596 0.40184 -0.16062
 C605 C 0.63411 0.35713 -0.16029
 C606 C 0.65735 0.37218 -0.19152
 C607 C 0.70410 0.32344 -0.19948
 C608 C 0.71881 0.30275 -0.22168
 C609 C 0.61909 0.40730 -0.10596
 C610 C 0.59833 0.42336 -0.08729
 H611 H 0.67360 0.35685 -0.07887
 H612 H 0.65832 0.30249 -0.13574
 H613 H 0.71669 0.38378 -0.13652
 H614 H 0.66798 0.43096 -0.16770
 H615 H 0.60992 0.34943 -0.16715
 H616 H 0.65272 0.37653 -0.22453
 C617 C 1.17506 0.10697 -0.10086
 C618 C 1.18055 0.11412 -0.14696
 C619 C 1.17948 0.15494 -0.13800
 C620 C 1.17440 0.14829 -0.09227
 C621 C 1.13962 0.10991 -0.10842
 C622 C 1.13858 0.15073 -0.09948
 C623 C 1.14476 0.11665 -0.15411
 C624 C 1.14401 0.15774 -0.14541
 C625 C 1.19991 0.18050 -0.15703
 C626 C 1.21486 0.20153 -0.17589
 C627 C 1.11610 0.08625 -0.09272
 C628 C 1.09557 0.06844 -0.07968
 H629 H 1.18746 0.08568 -0.08239
 H630 H 1.19814 0.09944 -0.16666
 H631 H 1.18684 0.16163 -0.06713
 H632 H 1.12100 0.16547 -0.07981
 H633 H 1.13234 0.10337 -0.17931
 H634 H 1.13149 0.17897 -0.16386
 C635 C 1.10389 0.67720 0.36294
 C636 C 1.12814 0.69980 0.38551
 C637 C 1.15449 0.68035 0.36058
 C638 C 1.13063 0.65814 0.33775
 C639 C 1.10812 0.64779 0.39573
 C640 C 1.13453 0.62848 0.37076
 C641 C 1.13195 0.66998 0.41866
 C642 C 1.15869 0.65092 0.39334
 C643 C 1.18004 0.69769 0.33946
 C644 C 1.20023 0.71193 0.32040
 C645 C 1.08340 0.62711 0.41429
 C646 C 1.06493 0.60703 0.42866
 H647 H 1.08113 0.68785 0.35065
 H648 H 1.12589 0.72937 0.39139
 H649 H 1.13043 0.65333 0.30427
 H650 H 1.13688 0.59893 0.36477
 H651 H 1.13211 0.67473 0.45214
 H652 H 1.18145 0.64024 0.40561
 C653 C 0.67275 0.11225 0.39485
 C654 C 0.67685 0.11822 0.34830
 C655 C 0.67538 0.15930 0.35571
 C656 C 0.67167 0.15378 0.40190
 C657 C 0.63711 0.11427 0.38900
 C658 C 0.63567 0.15535 0.39639
 C659 C 0.64088 0.11983 0.34283
 C660 C 0.63974 0.16122 0.34994
 C661 C 0.69589 0.18432 0.33569
 C662 C 0.71225 0.20431 0.31733
 C663 C 0.61464 0.09037 0.40700
 C664 C 0.59487 0.07232 0.42173
 H665 H 0.68605 0.09178 0.41347
 H666 H 0.69407 0.10329 0.32827
 H667 H 0.68455 0.16811 0.42589
 H668 H 0.61846 0.17030 0.41640
 H669 H 0.62801 0.10554 0.31880
 H670 H 0.62638 0.18164 0.33134
 C671 C 0.66693 0.59559 -0.14300
 C672 C 0.65807 0.62317 -0.17712
 C673 C 0.67632 0.65186 -0.15459
 C674 C 0.68556 0.62470 -0.12078
 C675 C 0.63742 0.60851 -0.11919
 C676 C 0.65566 0.63721 -0.09665
 C677 C 0.62827 0.63571 -0.15301
 C678 C 0.64679 0.66470 -0.13077
 C679 C 0.69698 0.67675 -0.17499
 C680 C 0.71299 0.69776 -0.19265
 C681 C 0.61465 0.58561 -0.09964
 C682 C 0.59483 0.56829 -0.08361
 H683 H 0.67496 0.56691 -0.14785
 H684 H 0.65927 0.61767 -0.21045
 H685 H 0.70935 0.62048 -0.10772
 H686 H 0.65445 0.64271 -0.06332
 H687 H 0.60450 0.64000 -0.16614
 H688 H 0.63871 0.69335 -0.12591
 C689 C 0.83218 -0.13189 -0.09901
 C690 C 0.81302 -0.12208 -0.13789
 C691 C 0.82232 -0.15955 -0.15574
 C692 C 0.84110 -0.16970 -0.11720
 C693 C 0.86131 -0.11706 -0.11943
 C694 C 0.87053 -0.15454 -0.13732
 C695 C 0.84254 -0.10686 -0.15798
 C696 C 0.85145 -0.14471 -0.17613
 C697 C 0.80114 -0.18390 -0.17591
 C698 C 0.78410 -0.20445 -0.19233
 C699 C 0.88393 -0.09441 -0.09939
 C700 C 0.90355 -0.07698 -0.08324
 H701 H 0.82448 -0.12636 -0.06709
 H702 H 0.78912 -0.10900 -0.13837
 H703 H 0.84031 -0.19580 -0.10065
 H704 H 0.89440 -0.16769 -0.13689
 H705 H 0.84336 -0.08076 -0.17452
 H706 H 0.85917 -0.15024 -0.20805
 C707 C 0.86679 0.36526 0.36220
 C708 C 0.87121 0.34248 0.32275
 C709 C 0.85164 0.31321 0.34206
 C710 C 0.84695 0.33578 0.38124
 C711 C 0.89642 0.34614 0.37998
 C712 C 0.87684 0.31687 0.39929
 C713 C 0.90123 0.32361 0.34077
 C714 C 0.88121 0.29393 0.35976
 C715 C 0.82561 0.29587 0.32210
 C716 C 0.80344 0.28193 0.30717
 C717 C 0.91956 0.36711 0.40141
 C718 C 0.93626 0.38745 0.41879
 H719 H 0.86104 0.39483 0.36342
 H720 H 0.86860 0.35291 0.29112
 H721 H 0.82437 0.34074 0.39765
 H722 H 0.87941 0.30647 0.43093
 H723 H 0.92384 0.31873 0.32444
 H724 H 0.88684 0.26435 0.35846
 C725 C 0.33276 -0.10220 0.36220
 C726 C 0.34218 -0.12747 0.32586
 C727 C 0.32533 -0.15829 0.34668
 C728 C 0.31556 -0.13342 0.38269
 C729 C 0.36291 -0.11489 0.38436
 C730 C 0.34605 -0.14572 0.40513
 C731 C 0.37265 -0.13977 0.34834
 C732 C 0.35549 -0.17091 0.36885
 C733 C 0.30451 -0.18314 0.32644
 C734 C 0.28717 -0.20400 0.31101
 C735 C 0.38478 -0.09174 0.40530
 C736 C 0.40398 -0.07402 0.42201
 H737 H 0.32360 -0.07371 0.35973
 H738 H 0.34042 -0.12024 0.29304
 H739 H 0.29185 -0.13105 0.39663
 H740 H 0.34779 -0.15299 0.43795
 H741 H 0.39636 -0.14218 0.33438
 H742 H 0.36470 -0.19938 0.37135
 C743 C 0.36662 0.34555 -0.12889
 C744 C 0.33192 0.34142 -0.11708
 C745 C 0.32287 0.34633 -0.16221
 C746 C 0.35730 0.35017 -0.17428
 C747 C 0.36199 0.38668 -0.12281
 C748 C 0.35299 0.39167 -0.16794
 C749 C 0.32756 0.38284 -0.11072
 C750 C 0.31816 0.38745 -0.15619
 C751 C 0.30120 0.32257 -0.18260
 C752 C 0.28335 0.30181 -0.19716
 C753 C 0.38456 0.40799 -0.10060
 C754 C 0.40413 0.42430 -0.08274
 H755 H 0.38672 0.32847 -0.11739
 H756 H 0.32309 0.32048 -0.09633
 H757 H 0.36934 0.33656 -0.20063
 H758 H 0.36187 0.41261 -0.18864
 H759 H 0.31554 0.39644 -0.08436
 H760 H 0.29803 0.40447 -0.16773
 C761 C 1.16289 -0.14534 0.10232
 C762 C 1.19031 -0.13086 0.12756
 C763 C 1.18182 -0.15605 0.16273
 C764 C 1.15483 -0.17083 0.13787
 C765 C 1.14077 -0.11583 0.12121
 C766 C 1.13247 -0.14107 0.15639
 C767 C 1.16773 -0.10089 0.14599
 C768 C 1.15966 -0.12650 0.18150
 C769 C 1.20209 -0.17986 0.18787
 C770 C 1.21557 -0.20076 0.21065
 C771 C 1.11644 -0.09465 0.09931
 C772 C 1.09544 -0.07825 0.08198
 H773 H 1.16389 -0.15285 0.06948
 H774 H 1.21434 -0.12695 0.11599
 H775 H 1.14975 -0.19985 0.13470
 H776 H 1.10849 -0.14512 0.16807
 H777 H 1.17271 -0.07185 0.14907
 H778 H 1.15858 -0.11894 0.21432
 C779 C 1.11247 0.34506 0.66910
 C780 C 1.12517 0.30535 0.66476
 C781 C 1.15870 0.31865 0.66375
 C782 C 1.14628 0.35806 0.66839
 C783 C 1.11140 0.34795 0.62234
 C784 C 1.14495 0.36120 0.62132
 C785 C 1.12374 0.30850 0.61756
 C786 C 1.15774 0.32145 0.61697
 C787 C 1.18383 0.30252 0.68906
 C788 C 1.20242 0.28838 0.71229
 C789 C 1.08572 0.36708 0.60065
 C790 C 1.06635 0.38658 0.58405
 H791 H 1.09357 0.35475 0.69035
 H792 H 1.11733 0.28215 0.68297
 H793 H 1.15586 0.37835 0.68934
 H794 H 1.15280 0.38440 0.60312
 H795 H 1.11410 0.28829 0.59655
 H796 H 1.17669 0.31175 0.59580
 C797 C 0.67090 -0.13208 0.60834
 C798 C 0.68831 -0.12108 0.64766
 C799 C 0.67957 -0.15681 0.66757
 C800 C 0.66257 -0.16817 0.62871
 C801 C 0.64051 -0.11420 0.62577
 C802 C 0.63192 -0.14996 0.64575
 C803 C 0.65749 -0.10279 0.66463
 C804 C 0.64916 -0.13889 0.68487
 C805 C 0.69958 -0.18174 0.69183
 C806 C 0.71413 -0.20335 0.71272
 C807 C 0.61729 -0.09178 0.60327
 C808 C 0.59689 -0.07470 0.58549
 H809 H 0.67957 -0.12899 0.57659
 H810 H 0.71176 -0.10951 0.64870
 H811 H 0.66487 -0.19530 0.61416
 H812 H 0.60851 -0.16165 0.64481
 H813 H 0.65516 -0.07565 0.67916
 H814 H 0.64042 -0.14194 0.71660
 C815 C 0.63721 0.37806 0.17111
 C816 C 0.64861 0.33855 0.16229
 C817 C 0.68232 0.34869 0.17136
 C818 C 0.67118 0.38798 0.18053
 C819 C 0.64256 0.38719 0.12594
 C820 C 0.67624 0.39749 0.13489
 C821 C 0.65371 0.34789 0.11682
 C822 C 0.68777 0.35774 0.12618
 C823 C 0.70256 0.32572 0.19764
 C824 C 0.71701 0.30530 0.22007
 C825 C 0.61898 0.40752 0.10169
 C826 C 0.59835 0.42323 0.08285
 H827 H 0.61618 0.38656 0.18937
 H828 H 0.63740 0.31409 0.17381
 H829 H 0.67861 0.40426 0.20698
 H830 H 0.68732 0.42200 0.12330
 H831 H 0.64628 0.33158 0.09040
 H832 H 0.70881 0.34918 0.10800
 C833 C 0.86689 0.16358 0.12146
 C834 C 0.83368 0.17781 0.10869
 C835 C 0.82196 0.16989 0.15200
 C836 C 0.85481 0.15605 0.16507
 C837 C 0.85855 0.12519 0.10884
 C838 C 0.84675 0.11742 0.15213
 C839 C 0.82571 0.13895 0.09559
 C840 C 0.81361 0.13151 0.13935
 C841 C 0.80204 0.19313 0.17839
 C842 C 0.78566 0.20992 0.20239
 C843 C 0.88025 0.10027 0.08699
 C844 C 0.89979 0.08046 0.07099
 H845 H 0.88908 0.17645 0.11383
 H846 H 0.82810 0.20295 0.09122
 H847 H 0.86660 0.16340 0.19384
 H848 H 0.85228 0.09232 0.16973
 H849 H 0.81402 0.13152 0.06678
 H850 H 0.79142 0.11863 0.14701
 C851 C 0.88757 0.69358 0.63675
 C852 C 0.85365 0.70361 0.62240
 C853 C 0.84119 0.69059 0.66368
 C854 C 0.87460 0.68095 0.67843
 C855 C 0.88442 0.65515 0.61984
 C856 C 0.87184 0.64232 0.66113
 C857 C 0.85100 0.66481 0.60510
 C858 C 0.83821 0.65218 0.64668
 C859 C 0.81637 0.70774 0.68915
 C860 C 0.79545 0.71942 0.71097
 C861 C 0.90740 0.63244 0.59686
 C862 C 0.92484 0.61082 0.57958
 H863 H 0.90813 0.71037 0.63234
 H864 H 0.84586 0.72905 0.60677
 H865 H 0.88406 0.68775 0.70886
 H866 H 0.87952 0.61690 0.67690
 H867 H 0.84153 0.65799 0.57468
 H868 H 0.81772 0.63526 0.65099
 C869 C 0.36289 0.17098 0.61504
 C870 C 0.32670 0.17522 0.61169
 C871 C 0.32452 0.17490 0.65853
 C872 C 0.36028 0.17103 0.66225
 C873 C 0.36056 0.12963 0.61520
 C874 C 0.35826 0.12943 0.66202
 C875 C 0.32480 0.13341 0.61139
 C876 C 0.32225 0.13354 0.65859
 C877 C 0.30457 0.19806 0.68514
 C878 C 0.28788 0.21416 0.70944
 C879 C 0.38190 0.10427 0.59318
 C880 C 0.40114 0.08413 0.57698
 H881 H 0.37986 0.18605 0.59678
 H882 H 0.31357 0.19442 0.59131
 H883 H 0.37468 0.18678 0.68333
 H884 H 0.37133 0.11027 0.68251
 H885 H 0.31047 0.11760 0.59030
 H886 H 0.30532 0.11837 0.67683
 C887 C 0.32434 0.61487 0.12606
 C888 C 0.32726 0.61984 0.17288
 C889 C 0.32276 0.66104 0.16742
 C890 C 0.31949 0.65646 0.12096
 C891 C 0.35984 0.61846 0.12184
 C892 C 0.35536 0.65966 0.11634
 C893 C 0.36304 0.62311 0.16829
 C894 C 0.35827 0.66458 0.16315
 C895 C 0.30232 0.68409 0.19394
 C896 C 0.28538 0.70194 0.21664
 C897 C 0.38170 0.59496 0.09778
 C898 C 0.40120 0.57646 0.07954
 H899 H 0.31057 0.59422 0.11058
 H900 H 0.31554 0.60366 0.19645
 H901 H 0.30141 0.67050 0.10170
 H902 H 0.36710 0.67580 0.09275
 H903 H 0.38111 0.60912 0.18761
 H904 H 0.37208 0.68522 0.17858
   
