data_POSCAR
  _audit_creation_date              2014-09-24
  _audit_creation_method            'ToBaCCo'
  _symmetry_space_group_name_H-M    'P1'
  _symmetry_Int_Tables_number       1
  _symmetry_cell_setting            triclinic
  loop_
  _symmetry_equiv_pos_as_xyz
 x,y,z
_cell_length_a 30.1891
_cell_length_b 28.5216
_cell_length_c 14.2221
_cell_angle_alpha 92.706100
_cell_angle_beta 90.054200
_cell_angle_gamma 127.652000
loop_
  _atom_site_label
  _atom_site_type_symbol
  _atom_site_fract_x
  _atom_site_fract_y
  _atom_site_fract_z
C1 C 0.42486 0.81767 0.44911
 C2 C 0.44884 0.83639 0.36367
 C3 C 0.47008 0.89535 0.36141
 N4 N 0.46010 0.91326 0.44276
 C5 C 0.43280 0.86592 0.49661
 C6 C 0.49440 0.93010 0.28267
 C7 C 0.51901 0.99107 0.28481
 C8 C 0.52554 1.02140 0.20654
 C9 C 0.55006 1.07903 0.23795
 C10 C 0.55960 1.08307 0.33496
 N11 N 0.54020 1.02876 0.36243
 C12 C 0.58636 1.13512 0.39673
 C13 C 0.58619 1.13031 0.49529
 C14 C 0.62838 1.17241 0.55913
 C15 C 0.60833 1.15438 0.64721
 C16 C 0.55447 1.10130 0.63444
 N17 N 0.54143 1.08677 0.54119
 C18 C 0.51457 1.07061 0.70487
 C19 C 0.47222 1.00796 0.69356
 C20 C 0.43301 0.97210 0.75944
 C21 C 0.40451 0.91438 0.72522
 C22 C 0.42776 0.91573 0.64058
 N23 N 0.46929 0.97262 0.62254
 C24 C 0.41310 0.86481 0.58686
 H25 H 0.40406 0.77361 0.47354
 H26 H 0.45004 0.80936 0.30935
 H27 H 0.49809 0.98607 0.57034
 H28 H 0.51234 1.00341 0.13449
 H29 H 0.55831 1.11266 0.19273
 H30 H 0.66914 1.21233 0.54358
 H31 H 0.63183 1.17783 0.71219
 H32 H 0.37207 0.87570 0.76115
 H33 H 0.54500 1.01876 0.42936
 H34 H 0.42748 0.98451 0.82873
 C35 C -0.15075 0.39981 0.34719
 C36 C -0.17042 0.38315 0.43578
 C37 C -0.12748 0.42537 0.49839
 N38 N -0.08203 0.46684 0.45125
 C39 C -0.09607 0.45184 0.35836
 C40 C -0.13151 0.42842 0.59718
 C41 C -0.08342 0.45324 0.65738
 C42 C -0.07822 0.46911 0.75321
 C43 C -0.02631 0.48799 0.78445
 C44 C -0.00038 0.48503 0.70688
 N45 N -0.03523 0.46374 0.62993
 C46 C 0.05374 0.50048 0.70922
 C47 C 0.08689 0.51721 0.62938
 C48 C 0.13820 0.52767 0.62658
 C49 C 0.15873 0.54785 0.53970
 C50 C 0.11907 0.54844 0.49200
 N51 N 0.07528 0.52994 0.54698
 C52 C 0.12501 0.56830 0.40072
 C53 C 0.08101 0.56014 0.34709
 C54 C 0.08754 0.58548 0.26251
 C55 C 0.03501 0.56367 0.22968
 C56 C -0.00269 0.52655 0.29629
 N57 N 0.02604 0.52380 0.36636
 C58 C -0.06226 0.49020 0.28674
 H59 H -0.17441 0.37506 0.28293
 H60 H -0.21164 0.34430 0.45234
 H61 H 0.00862 0.49402 0.41913
 H62 H -0.10746 0.46890 0.79718
 H63 H -0.00898 0.50373 0.85572
 H64 H 0.15899 0.52174 0.68136
 H65 H 0.19826 0.56044 0.51442
 H66 H 0.02646 0.57169 0.16107
 H67 H -0.02821 0.45214 0.56419
 H68 H 0.12594 0.61503 0.22609
 C69 C 0.57862 0.42987 0.57212
 C70 C 0.60141 0.45089 0.48634
 C71 C 0.58712 0.48663 0.46164
 N72 N 0.55718 0.48889 0.52966
 C73 C 0.55156 0.45394 0.59710
 C74 C 0.60399 0.51902 0.38017
 C75 C 0.58373 0.55005 0.35387
 C76 C 0.60891 0.59458 0.29100
 C77 C 0.57227 0.60688 0.27375
 C78 C 0.52499 0.56836 0.32446
 N79 N 0.53297 0.53494 0.37514
 C80 C 0.47359 0.55962 0.31462
 C81 C 0.43566 0.53786 0.38886
 C82 C 0.38340 0.52537 0.38672
 C83 C 0.36241 0.50819 0.47482
 C84 C 0.40192 0.50955 0.52715
 N85 N 0.44672 0.52816 0.47499
 C86 C 0.39665 0.49408 0.62144
 C87 C 0.43362 0.48664 0.66666
 C88 C 0.44144 0.49000 0.76369
 C89 C 0.47644 0.47569 0.78006
 C90 C 0.48899 0.46357 0.69278
 N91 N 0.46357 0.47146 0.62360
 C92 C 0.52151 0.44340 0.67976
 H93 H 0.58100 0.39954 0.61037
 H94 H 0.62558 0.44089 0.44666
 H95 H 0.46140 0.46030 0.55207
 H96 H 0.64892 0.61523 0.25906
 H97 H 0.57900 0.63922 0.22664
 H98 H 0.36187 0.52763 0.32857
 H99 H 0.32217 0.49495 0.49725
 H100 H 0.49110 0.47444 0.84869
 H101 H 0.50221 0.49765 0.41005
 H102 H 0.42369 0.50156 0.81737
 O103 O 0.35772 0.61284 -0.16634
 O104 O 0.38177 0.71850 -0.16024
 C105 C 0.34036 0.71697 -0.18368
 O106 O 0.29850 0.69611 -0.13306
 O107 O 0.21996 0.61770 -0.02867
 C108 C 0.19650 0.56360 -0.05318
 O109 O 0.21947 0.53890 -0.04316
 O110 O 0.30455 0.53821 -0.07212
 C111 C 0.32835 0.55836 -0.14994
 O112 O 0.41164 0.63826 0.00025
 O113 O 0.42990 0.74151 0.01085
 C114 C 0.41565 0.77362 0.03699
 O115 O 0.36685 0.75870 0.02190
 O116 O 0.28905 0.67783 0.12563
 C117 C 0.26477 0.63053 0.16837
 O118 O 0.25608 0.58373 0.13310
 O119 O 0.34509 0.58849 0.10444
 C120 C 0.39309 0.60962 0.07445
 Cr121 Cr 0.39268 0.67654 -0.07653
 Cr122 Cr 0.29470 0.68608 -0.00398
 Cr123 Cr 0.28297 0.56528 0.02908
 O124 O 0.32331 0.64267 -0.01687
 O125 O 0.56964 0.33390 -0.04780
 O126 O 0.56908 0.24720 0.00404
 C127 C 0.58701 0.22954 -0.05851
 O128 O 0.63842 0.25769 -0.07535
 O129 O 0.73762 0.35461 -0.11157
 C130 C 0.73377 0.38338 -0.17215
 O131 O 0.71362 0.41058 -0.15422
 O132 O 0.64290 0.42472 -0.08360
 C133 C 0.59122 0.38043 -0.09182
 O134 O 0.61703 0.39463 0.11886
 O135 O 0.62087 0.31109 0.16976
 C136 C 0.64173 0.28424 0.17754
 O137 O 0.66494 0.27709 0.11003
 O138 O 0.76076 0.37864 0.07444
 C139 C 0.79200 0.43377 0.06195
 O140 O 0.77823 0.45780 0.00790
 O141 O 0.70454 0.46731 0.08094
 C142 C 0.66249 0.44702 0.13144
 Cr143 Cr 0.59670 0.32289 0.05941
 Cr144 Cr 0.69933 0.31849 -0.00034
 Cr145 Cr 0.70844 0.43737 -0.03582
 O146 O 0.66797 0.35971 0.00759
 C147 C 0.37476 0.80705 -0.37110
 C148 C 0.31789 0.76856 -0.39078
 C149 C 0.29691 0.72738 -0.32460
 C150 C 0.34285 0.74400 -0.27034
 O151 O 0.39003 0.79244 -0.29803
 H152 H 0.29448 0.77245 -0.44317
 H153 H 0.25336 0.69103 -0.31480
 C154 C 0.07837 0.50194 -0.19987
 C155 C 0.05720 0.45266 -0.14923
 C156 C 0.09827 0.46989 -0.08349
 C157 C 0.14068 0.52855 -0.09831
 O158 O 0.12885 0.54807 -0.16878
 H159 H 0.01837 0.40853 -0.16318
 H160 H 0.09837 0.44250 -0.03350
 C161 C 0.35528 0.48909 -0.32442
 C162 C 0.31687 0.43951 -0.27593
 C163 C 0.29719 0.45781 -0.20947
 C164 C 0.32593 0.51754 -0.22065
 O165 O 0.36091 0.53656 -0.29064
 H166 H 0.30782 0.39645 -0.28339
 H167 H 0.26922 0.43206 -0.15406
 C168 C 0.51582 0.10391 -0.21634
 C169 C 0.46934 0.09371 -0.17443
 C170 C 0.48963 0.13862 -0.10707
 C171 C 0.54682 0.17361 -0.11355
 O172 O 0.56261 0.15334 -0.17998
 H173 H 0.42564 0.06042 -0.19491
 H174 H 0.46564 0.14631 -0.06167
 C175 C 0.81676 0.40932 -0.36484
 C176 C 0.77602 0.40885 -0.41149
 C177 C 0.73781 0.39630 -0.34606
 C178 C 0.75710 0.38892 -0.26481
 O179 O 0.80443 0.39639 -0.27586
 H180 H 0.77621 0.42112 -0.48240
 H181 H 0.70170 0.39541 -0.35521
 C182 C 0.52356 0.41233 -0.24805
 C183 C 0.47799 0.37163 -0.19620
 C184 C 0.49727 0.35277 -0.13385
 C185 C 0.55337 0.38385 -0.15062
 O186 O 0.56955 0.41965 -0.22049
 H187 H 0.43549 0.35693 -0.20380
 H188 H 0.47368 0.32140 -0.08042
 C189 C 0.91082 0.49428 0.20919
 C190 C 0.92889 0.54608 0.16760
 C191 C 0.88733 0.53049 0.10415
 C192 C 0.84669 0.47068 0.11214
 O193 O 0.86048 0.44907 0.17576
 H194 H 0.96549 0.59094 0.18646
 H195 H 0.88582 0.55957 0.06046
 C196 C 0.61027 0.19182 0.36195
 C197 C 0.61775 0.23881 0.41414
 C198 C 0.63376 0.28107 0.35244
 C199 C 0.63568 0.25779 0.26714
 O200 O 0.62182 0.20416 0.27246
 H201 H 0.60811 0.24065 0.48681
 H202 H 0.64022 0.32250 0.36675
 C203 C 0.64091 0.51668 0.31538
 C204 C 0.69706 0.56186 0.30618
 C205 C 0.71325 0.54182 0.23544
 C206 C 0.66568 0.48588 0.20741
 O207 O 0.62181 0.47052 0.25602
 H208 H 0.72266 0.60445 0.34531
 H209 H 0.75458 0.56519 0.20730
 C210 C 0.18085 0.60119 0.35950
 C211 C 0.22681 0.65672 0.39284
 C212 C 0.26632 0.67475 0.32699
 C213 C 0.24154 0.62828 0.25961
 O214 O 0.18964 0.58383 0.27876
 H215 H 0.22971 0.68203 0.45482
 H216 H 0.30732 0.71734 0.32621
 C217 C 0.49044 0.89956 0.19245
 C218 C 0.53595 0.91055 0.14687
 C219 C 0.51401 0.86509 0.07966
 C220 C 0.45685 0.83050 0.08887
 O221 O 0.44246 0.85123 0.15712
 H222 H 0.57980 0.94529 0.16463
 H223 H 0.53685 0.85707 0.03173
 C224 C 0.45972 0.57240 0.22267
 C225 C 0.47689 0.56517 0.13659
 C226 C 0.45659 0.58146 0.07134
 C227 C 0.42692 0.59577 0.12115
 O228 O 0.42825 0.59002 0.21286
 H229 H 0.50057 0.54875 0.12253
 H230 H 0.46056 0.58028 -0.00423
   
