data_POSCAR
  _audit_creation_date              2014-09-24
  _audit_creation_method            'ToBaCCo'
  _symmetry_space_group_name_H-M    'P1'
  _symmetry_Int_Tables_number       1
  _symmetry_cell_setting            triclinic
  loop_
  _symmetry_equiv_pos_as_xyz
 x,y,z
_cell_length_a 48.2753
_cell_length_b 48.9582
_cell_length_c 48.7194
_cell_angle_alpha 89.144900
_cell_angle_beta 90.432900
_cell_angle_gamma 87.338300
loop_
  _atom_site_label
  _atom_site_type_symbol
  _atom_site_fract_x
  _atom_site_fract_y
  _atom_site_fract_z
C1 C 0.21124 0.51047 1.03068
 H2 H 0.20909 0.52601 1.01469
 C3 C 0.19273 0.51072 1.05258
 H4 H 0.17627 0.52645 1.05243
 C5 C 0.23421 0.47011 1.04815
 H6 H 0.25032 0.45420 1.04628
 C7 C 0.21611 0.46943 1.07033
 H8 H 0.21968 0.45333 1.08555
 N9 N 0.23149 0.49040 1.02888
 C10 C 0.29940 0.51846 0.97924
 H11 H 0.30178 0.50136 0.96550
 C12 C 0.31884 0.53866 0.97910
 H13 H 0.33604 0.53719 0.96497
 C14 C 0.27445 0.54074 1.01486
 H15 H 0.25750 0.54116 1.02920
 C16 C 0.29324 0.56162 1.01515
 H17 H 0.29057 0.57800 1.02973
 Zn18 Zn 0.25446 0.48970 0.99756
 N19 N 0.27783 0.51973 0.99703
 C20 C 0.23625 0.50719 0.94421
 N21 N 0.23130 0.49053 0.96606
 C22 C 0.20902 0.47453 0.96643
 C23 C 0.19049 0.47503 0.94429
 C24 C 0.21846 0.50801 0.92144
 C25 C 0.29963 0.45675 1.01586
 C26 C 0.31882 0.43457 1.01606
 C27 C 0.29201 0.41388 0.98049
 C28 C 0.27351 0.43669 0.98068
 N29 N 0.27767 0.45754 0.99818
 H30 H 0.25387 0.51997 0.94443
 H31 H 0.20552 0.46156 0.98413
 H32 H 0.17278 0.46225 0.94492
 H33 H 0.22250 0.52152 0.90426
 H34 H 0.30248 0.47368 1.02946
 H35 H 0.33638 0.43437 1.03004
 H36 H 0.28873 0.39758 0.96620
 H37 H 0.25607 0.43787 0.96661
 C38 C 0.31596 0.56049 0.99733
 C39 C 0.19464 0.48982 1.07295
 C40 C 0.31519 0.41287 0.99809
 C41 C 0.19513 0.49195 0.92145
 C42 C 0.79561 0.51580 -0.03273
 H43 H 0.79875 0.53027 -0.01656
 C44 C 0.81370 0.51448 -0.05496
 H45 H 0.83084 0.52797 -0.05564
 C46 C 0.77031 0.47963 -0.05057
 H47 H 0.75364 0.46579 -0.04861
 C48 C 0.78783 0.47767 -0.07318
 H49 H 0.78407 0.46261 -0.08866
 N50 N 0.77446 0.49849 -0.03092
 C51 C 0.70846 0.53262 0.02005
 H52 H 0.70617 0.51549 0.03400
 C53 C 0.68926 0.55479 0.02034
 H54 H 0.67229 0.55478 0.03476
 C55 C 0.73296 0.55309 -0.01627
 H56 H 0.74964 0.55204 -0.03092
 C57 C 0.71443 0.57590 -0.01639
 H58 H 0.71700 0.59234 -0.03114
 Zn59 Zn 0.75228 0.49948 0.00092
 N60 N 0.72962 0.53203 0.00178
 C61 C 0.77370 0.51557 0.05233
 N62 N 0.77624 0.49710 0.03183
 C63 C 0.79689 0.47725 0.03218
 C64 C 0.81610 0.47544 0.05377
 C65 C 0.79236 0.51441 0.07440
 C66 C 0.70648 0.47198 -0.01690
 C67 C 0.68687 0.45195 -0.01700
 C68 C 0.71280 0.42785 0.01923
 C69 C 0.73178 0.44856 0.01888
 N70 N 0.72831 0.47003 0.00093
 H71 H 0.75732 0.53137 0.05153
 H72 H 0.79867 0.46308 0.01539
 H73 H 0.83277 0.45989 0.05327
 H74 H 0.78978 0.52914 0.09065
 H75 H 0.70413 0.48939 -0.03079
 H76 H 0.66953 0.45389 -0.03124
 H77 H 0.71558 0.41105 0.03385
 H78 H 0.74903 0.44760 0.03315
 C79 C 0.69202 0.57667 0.00181
 C80 C 0.81005 0.49508 -0.07548
 C81 C 0.68986 0.42961 0.00132
 C82 C 0.81407 0.49426 0.07524
 C83 C -0.03977 0.30051 0.46500
 H84 H -0.05560 0.30136 0.48061
 C85 C -0.04069 0.31972 0.44352
 H86 H -0.05724 0.33537 0.44353
 C87 C 0.00190 0.28001 0.44811
 H88 H 0.01856 0.26458 0.45010
 C89 C 0.00206 0.29905 0.42646
 H90 H 0.01858 0.29698 0.41166
 N91 N -0.01885 0.28105 0.46681
 C92 C -0.04905 0.21420 0.51658
 H93 H -0.03193 0.21161 0.53099
 C94 C -0.07030 0.19584 0.51700
 H95 H -0.06960 0.17923 0.53197
 C96 C -0.07042 0.23865 0.47912
 H97 H -0.07007 0.25491 0.46394
 C98 C -0.09235 0.22097 0.47909
 H99 H -0.10877 0.22385 0.46392
 Zn100 Zn -0.01807 0.25699 0.49760
 N101 N -0.04939 0.23503 0.49778
 C102 C -0.03775 0.27707 0.54863
 N103 N -0.01764 0.27875 0.52935
 C104 C 0.00240 0.29725 0.53138
 C105 C 0.00284 0.31495 0.55356
 C106 C -0.03814 0.29444 0.57113
 C107 C 0.01372 0.21314 0.47716
 C108 C 0.03481 0.19268 0.47679
 C109 C 0.05590 0.21335 0.51603
 C110 C 0.03415 0.23324 0.51590
 N111 N 0.01359 0.23271 0.49668
 H112 H -0.05377 0.26256 0.54642
 H113 H 0.01782 0.29849 0.51547
 H114 H 0.01864 0.32989 0.55452
 H115 H -0.05428 0.29279 0.58630
 H116 H -0.00305 0.21304 0.46231
 H117 H 0.03436 0.17697 0.46140
 H118 H 0.07182 0.21364 0.53179
 H119 H 0.03341 0.24860 0.53158
 C120 C -0.09224 0.19907 0.49802
 C121 C -0.01943 0.31953 0.42373
 C122 C 0.05609 0.19250 0.49657
 C123 C -0.01773 0.31380 0.57373
 C124 C 0.98946 0.71430 0.53404
 H125 H 0.97509 0.71348 0.51695
 C126 C 0.98752 0.69612 0.55617
 H127 H 0.97125 0.68163 0.55618
 C128 C 1.02837 0.73404 0.55443
 H129 H 1.04463 0.74844 0.55334
 C130 C 1.02719 0.71620 0.57702
 H131 H 1.04265 0.71705 0.59316
 N132 N 1.00967 0.73272 0.53352
 C133 C 0.98172 0.79780 0.47668
 H134 H 0.99908 0.79754 0.46277
 C135 C 0.96075 0.81831 0.47419
 H136 H 0.96188 0.83367 0.45806
 C137 C 0.95967 0.77861 0.51527
 H138 H 0.95973 0.76361 0.53175
 C139 C 0.93808 0.79857 0.51332
 H140 H 0.92163 0.79869 0.52831
 Zn141 Zn 1.01232 0.75428 0.50125
 N142 N 0.98096 0.77865 0.49713
 C143 C 0.99561 0.73073 0.45109
 N144 N 1.01483 0.72978 0.47168
 C145 C 1.03516 0.70965 0.47313
 C146 C 1.03666 0.68925 0.45344
 C147 C 0.99630 0.71066 0.43097
 C148 C 1.04266 0.79677 0.52106
 C149 C 1.06381 0.81520 0.52194
 C150 C 1.08721 0.79007 0.48588
 C151 C 1.06539 0.77228 0.48545
 N152 N 1.04370 0.77593 0.50290
 H153 H 0.97924 0.74655 0.45067
 H154 H 1.04991 0.70916 0.48998
 H155 H 1.05303 0.67341 0.45500
 H156 H 0.98034 0.71127 0.41521
 H157 H 1.02500 0.79937 0.53447
 H158 H 1.06252 0.83185 0.53633
 H159 H 1.10410 0.78724 0.47155
 H160 H 1.06557 0.75597 0.47076
 C161 C 0.93873 0.81900 0.49285
 C162 C 1.00675 0.69670 0.57791
 C163 C 1.08634 0.81207 0.50405
 C164 C 1.01684 0.68935 0.43219
 C165 C 0.45801 -0.02778 0.29058
 H166 H 0.47523 -0.04257 0.29312
 C167 C 0.43564 -0.02814 0.30859
 H168 H 0.43558 -0.04342 0.32489
 C169 C 0.43759 0.01082 0.26690
 H170 H 0.43872 0.02647 0.25117
 C171 C 0.41463 0.01093 0.28414
 H172 H 0.39826 0.02664 0.28146
 N173 N 0.45871 -0.00834 0.27039
 C174 C 0.51365 -0.03491 0.20480
 H175 H 0.52762 -0.01826 0.20491
 C176 C 0.51561 -0.05435 0.18422
 H177 H 0.53200 -0.05264 0.16938
 C178 C 0.47612 -0.05699 0.22499
 H179 H 0.46032 -0.05749 0.24056
 C180 C 0.47753 -0.07717 0.20496
 H181 H 0.46216 -0.09254 0.20549
 Zn182 Zn 0.49128 -0.00700 0.24912
 N183 N 0.49401 -0.03638 0.22447
 C184 C 0.54272 -0.02799 0.27116
 N185 N 0.52196 -0.00845 0.27358
 C186 C 0.52188 0.00978 0.29437
 C187 C 0.54342 0.00894 0.31369
 C188 C 0.56470 -0.02954 0.29002
 C189 C 0.47172 0.02776 0.20676
 C190 C 0.47094 0.05045 0.18908
 C191 C 0.50941 0.06799 0.21427
 C192 C 0.50941 0.04496 0.23154
 N193 N 0.49064 0.02548 0.22757
 H194 H 0.54221 -0.04254 0.25474
 H195 H 0.50485 0.02481 0.29606
 H196 H 0.54271 0.02334 0.33034
 H197 H 0.58118 -0.04506 0.28758
 H198 H 0.45743 0.01166 0.20370
 H199 H 0.45604 0.05161 0.17233
 H200 H 0.52443 0.08335 0.21775
 H201 H 0.52464 0.04253 0.24784
 C202 C 0.49717 -0.07591 0.18366
 C203 C 0.41371 -0.00847 0.30553
 C204 C 0.49004 0.07089 0.19264
 C205 C 0.56521 -0.01096 0.31170
 C206 C 0.52856 -0.02217 0.70628
 H207 H 0.51170 -0.03598 0.70635
 C208 C 0.54783 -0.02309 0.68505
 H209 H 0.54594 -0.03793 0.66897
 C210 C 0.55096 0.01461 0.72670
 H211 H 0.55167 0.02979 0.74250
 C212 C 0.57087 0.01418 0.70604
 H213 H 0.58681 0.02902 0.70621
 N214 N 0.53029 -0.00337 0.72642
 C215 C 0.48373 -0.03180 0.79685
 H216 H 0.46921 -0.01450 0.79921
 C217 C 0.48387 -0.05358 0.81565
 H218 H 0.46944 -0.05284 0.83256
 C219 C 0.52094 -0.05310 0.77250
 H220 H 0.53553 -0.05266 0.75581
 C221 C 0.52189 -0.07529 0.79093
 H222 H 0.53702 -0.09200 0.78800
 Zn223 Zn 0.50104 -0.00097 0.75208
 N224 N 0.50194 -0.03201 0.77569
 C225 C 0.44659 -0.01538 0.73644
 N226 N 0.46750 0.00174 0.73164
 C227 C 0.46594 0.02038 0.71064
 C228 C 0.44283 0.02209 0.69322
 C229 C 0.42289 -0.01408 0.71974
 C230 C 0.52590 0.02985 0.79237
 C231 C 0.52888 0.05164 0.81012
 C232 C 0.48729 0.07351 0.79043
 C233 C 0.48508 0.05126 0.77305
 N234 N 0.50432 0.03008 0.77426
 H235 H 0.44841 -0.03043 0.75285
 H236 H 0.48299 0.03353 0.70711
 H237 H 0.44205 0.03680 0.67638
 H238 H 0.40662 -0.02814 0.72348
 H239 H 0.54072 0.01259 0.79309
 H240 H 0.54634 0.05118 0.82423
 H241 H 0.47153 0.08998 0.78951
 H242 H 0.46779 0.05080 0.75889
 C243 C 0.50317 -0.07570 0.81285
 C244 C 0.56918 -0.00457 0.68466
 C245 C 0.50935 0.07382 0.80937
 C246 C 0.42104 0.00458 0.69760
 C247 C 0.29148 0.02580 0.47302
 H248 H 0.29367 0.03942 0.49011
 C249 C 0.31173 0.02435 0.45277
 H250 H 0.32931 0.03724 0.45412
 C251 C 0.26647 -0.00844 0.45117
 H252 H 0.24925 -0.02175 0.45109
 C253 C 0.28611 -0.01031 0.43026
 H254 H 0.28378 -0.02503 0.41413
 N255 N 0.26962 0.00929 0.47209
 C256 C 0.20262 0.04211 0.52277
 H257 H 0.19988 0.02467 0.53621
 C258 C 0.18362 0.06446 0.52325
 H259 H 0.16636 0.06428 0.53731
 C260 C 0.22797 0.06317 0.48743
 H261 H 0.24491 0.06228 0.47306
 C262 C 0.20968 0.08615 0.48753
 H263 H 0.21269 0.10287 0.47322
 Zn264 Zn 0.24646 0.00905 0.50319
 N265 N 0.22408 0.04172 0.50484
 C266 C 0.26858 0.02325 0.55521
 N267 N 0.27023 0.00536 0.53412
 C268 C 0.29104 -0.01425 0.53288
 C269 C 0.31184 -0.01589 0.55291
 C270 C 0.28882 0.02211 0.57594
 C271 C 0.20121 -0.01819 0.48321
 C272 C 0.18152 -0.03815 0.48237
 C273 C 0.20639 -0.06267 0.51903
 C274 C 0.22545 -0.04205 0.51940
 N275 N 0.22252 -0.02037 0.50164
 H276 H 0.25211 0.03896 0.55554
 H277 H 0.29201 -0.02798 0.51568
 H278 H 0.32864 -0.03122 0.55127
 H279 H 0.28777 0.03696 0.59219
 H280 H 0.19925 -0.00061 0.46951
 H281 H 0.16454 -0.03600 0.46773
 H282 H 0.20870 -0.07957 0.53359
 H283 H 0.24228 -0.04318 0.53417
 C284 C 0.18693 0.08672 0.50530
 C285 C 0.30938 0.00582 0.43128
 C286 C 0.18391 -0.06065 0.50057
 C287 C 0.31111 0.00273 0.57453
 C288 C 0.70365 0.02112 0.53117
 H289 H 0.69919 0.03474 0.51385
 C290 C 0.68588 0.02128 0.55366
 H291 H 0.66785 0.03529 0.55370
 C292 C 0.73222 -0.01422 0.55189
 H293 H 0.74998 -0.02841 0.55090
 C294 C 0.71525 -0.01444 0.57498
 H295 H 0.72009 -0.02883 0.59161
 N296 N 0.72616 0.00338 0.53058
 C297 C 0.79120 0.03108 0.47735
 H298 H 0.79300 0.01393 0.46362
 C299 C 0.81072 0.05119 0.47645
 H300 H 0.82742 0.04960 0.46175
 C301 C 0.76767 0.05352 0.51380
 H302 H 0.75119 0.05398 0.52869
 C303 C 0.78654 0.07433 0.51332
 H304 H 0.78449 0.09075 0.52792
 Zn305 Zn 0.74743 0.00220 0.49813
 N306 N 0.77042 0.03239 0.49604
 C307 C 0.72444 0.02167 0.44734
 N308 N 0.72254 0.00278 0.46791
 C309 C 0.70185 -0.01514 0.46822
 C310 C 0.68199 -0.01454 0.44721
 C311 C 0.70505 0.02296 0.42589
 C312 C 0.79382 -0.03014 0.51453
 C313 C 0.81312 -0.05224 0.51428
 C314 C 0.78475 -0.07376 0.48054
 C315 C 0.76615 -0.05102 0.48114
 N316 N 0.77095 -0.02984 0.49804
 H317 H 0.74082 0.03595 0.44765
 H318 H 0.70054 -0.02962 0.48510
 H319 H 0.66535 -0.02860 0.44817
 H320 H 0.70703 0.03800 0.40960
 H321 H 0.79726 -0.01292 0.52759
 H322 H 0.83130 -0.05208 0.52742
 H323 H 0.78086 -0.09035 0.46679
 H324 H 0.74811 -0.05024 0.46786
 C325 C 0.80866 0.07301 0.49477
 C326 C 0.69156 0.00323 0.57584
 C327 C 0.80871 -0.07435 0.49705
 C328 C 0.68336 0.00478 0.42571
 C329 C 0.49833 0.20256 1.03506
 H330 H 0.48390 0.20128 1.01808
 C331 C 0.49695 0.18449 1.05736
 H332 H 0.48143 0.16922 1.05730
 C333 C 0.53707 0.22312 1.05487
 H334 H 0.55297 0.23787 1.05357
 C335 C 0.53645 0.20542 1.07759
 H336 H 0.55165 0.20709 1.09385
 N337 N 0.51815 0.22137 1.03421
 C338 C 0.48916 0.28669 0.97825
 H339 H 0.50654 0.28682 0.96437
 C340 C 0.46805 0.30707 0.97606
 H341 H 0.46908 0.32274 0.96023
 C342 C 0.46720 0.26662 1.01643
 H343 H 0.46735 0.25129 1.03261
 C344 C 0.44544 0.28642 1.01475
 H345 H 0.42893 0.28613 1.02966
 Zn346 Zn 0.52011 0.24306 1.00197
 N347 N 0.48853 0.26718 0.99836
 C348 C 0.50274 0.21989 0.95198
 N349 N 0.52236 0.21882 0.97220
 C350 C 0.54279 0.19876 0.97308
 C351 C 0.54394 0.17853 0.95320
 C352 C 0.50307 0.20001 0.93169
 C353 C 0.55015 0.28568 1.02167
 C354 C 0.57117 0.30423 1.02263
 C355 C 0.59454 0.27957 0.98624
 C356 C 0.57287 0.26162 0.98577
 N357 N 0.55126 0.26499 1.00336
 H358 H 0.48631 0.23565 0.95202
 H359 H 0.55786 0.19817 0.98965
 H360 H 0.56035 0.16271 0.95432
 H361 H 0.48677 0.20071 0.91628
 H362 H 0.53256 0.28804 1.03521
 H363 H 0.56984 0.32073 1.03719
 H364 H 0.61137 0.27698 0.97179
 H365 H 0.57309 0.24539 0.97098
 C366 C 0.44599 0.30722 0.99466
 C367 C 0.51631 0.18565 1.07893
 C368 C 0.59362 0.30140 1.00461
 C369 C 0.52367 0.17876 0.93235
 C370 C 0.46505 0.79083 -0.02994
 H371 H 0.45059 0.79251 -0.01313
 C372 C 0.46353 0.81004 -0.05142
 H373 H 0.44788 0.82660 -0.05085
 C374 C 0.50380 0.76782 -0.05027
 H375 H 0.51969 0.75154 -0.04955
 C376 C 0.50301 0.78658 -0.07219
 H377 H 0.51807 0.78421 -0.08843
 N378 N 0.48490 0.77021 -0.02978
 C379 C 0.45568 0.70376 0.02085
 H380 H 0.47302 0.70114 0.03499
 C381 C 0.43453 0.68530 0.02142
 H382 H 0.43552 0.66859 0.03627
 C383 C 0.43375 0.72834 -0.01623
 H384 H 0.43388 0.74472 -0.03131
 C385 C 0.41194 0.71053 -0.01614
 H386 H 0.39537 0.71338 -0.03116
 Zn387 Zn 0.48654 0.74620 0.00103
 N388 N 0.45506 0.72461 0.00208
 C389 C 0.46782 0.76714 0.05196
 N390 N 0.48808 0.76790 0.03275
 C391 C 0.50897 0.78544 0.03486
 C392 C 0.51031 0.80288 0.05718
 C393 C 0.46816 0.78446 0.07447
 C394 C 0.51714 0.70204 -0.02041
 C395 C 0.53818 0.68159 -0.02170
 C396 C 0.56090 0.70210 0.01670
 C397 C 0.53919 0.72196 0.01752
 N398 N 0.51789 0.72159 -0.00092
 H399 H 0.45100 0.75354 0.04956
 H400 H 0.52457 0.78594 0.01906
 H401 H 0.52741 0.81633 0.05863
 H402 H 0.45141 0.78402 0.08909
 H403 H 0.49978 0.70202 -0.03458
 H404 H 0.53710 0.66596 -0.03712
 H405 H 0.57746 0.70233 0.03180
 H406 H 0.53913 0.73721 0.03329
 C407 C 0.41244 0.68845 0.00260
 C408 C 0.48273 0.80813 -0.07291
 C409 C 0.56031 0.68139 -0.00286
 C410 C 0.48956 0.80276 0.07729
 C411 C 1.03928 0.48869 0.20733
 H412 H 1.02377 0.47346 0.20661
 C413 C 1.06049 0.48843 0.18799
 H414 H 1.06117 0.47288 0.17240
 C415 C 1.05622 0.52840 0.22759
 H416 H 1.05416 0.54431 0.24264
 C417 C 1.07769 0.52897 0.20859
 H418 H 1.09232 0.54504 0.20962
 N419 N 1.03754 0.50845 0.22664
 C420 C 0.98722 0.47825 0.29361
 H421 H 0.97266 0.49560 0.29545
 C422 C 0.98650 0.45643 0.31231
 H423 H 0.97144 0.45738 0.32866
 C424 C 1.02537 0.45689 0.27077
 H425 H 1.04074 0.45732 0.25481
 C426 C 1.02523 0.43449 0.28890
 H427 H 1.04025 0.41765 0.28623
 Zn428 Zn 1.00643 0.50949 0.25011
 N429 N 1.00639 0.47810 0.27332
 C430 C 0.95445 0.49303 0.22962
 N431 N 0.97451 0.51151 0.22730
 C432 C 0.97327 0.53123 0.20734
 C433 C 0.95120 0.53294 0.18864
 C434 C 0.93191 0.49406 0.21141
 C435 C 1.02768 0.54066 0.29215
 C436 C 1.02895 0.56238 0.31028
 C437 C 0.98764 0.58302 0.28884
 C438 C 0.98713 0.56085 0.27113
 N439 N 1.00708 0.54034 0.27299
 H440 H 0.95601 0.47725 0.24536
 H441 H 0.98977 0.54537 0.20569
 H442 H 0.95102 0.54839 0.17251
 H443 H 0.91604 0.47931 0.21372
 H444 H 1.04311 0.52394 0.29334
 H445 H 1.04570 0.56238 0.32519
 H446 H 0.97139 0.59898 0.28733
 H447 H 0.97061 0.55995 0.25615
 C448 C 1.00566 0.43408 0.31013
 C449 C 1.07990 0.50893 0.18830
 C450 C 1.00872 0.58391 0.30881
 C451 C 0.93016 0.51412 0.19044
 C452 C -0.03425 0.48200 0.79026
 H453 H -0.01775 0.46644 0.79290
 C454 C -0.05611 0.48345 0.80883
 H455 H -0.05617 0.46892 0.82580
 C456 C -0.05303 0.52091 0.76589
 H457 H -0.05141 0.53586 0.74953
 C458 C -0.07535 0.52305 0.78393
 H459 H -0.09105 0.53933 0.78082
 N460 N -0.03302 0.50063 0.76940
 C461 C 0.02261 0.46468 0.70834
 H462 H 0.03771 0.48030 0.70713
 C463 C 0.02427 0.44264 0.69049
 H464 H 0.04071 0.44154 0.67550
 C465 C -0.01811 0.44821 0.72834
 H466 H -0.03490 0.45076 0.74274
 C467 C -0.01724 0.42583 0.71085
 H468 H -0.03316 0.41103 0.71237
 Zn469 Zn -0.00067 0.49929 0.74773
 N470 N 0.00164 0.46709 0.72674
 C471 C 0.05065 0.48099 0.77277
 N472 N 0.02970 0.50058 0.77231
 C473 C 0.02835 0.52072 0.79122
 C474 C 0.04830 0.52142 0.81203
 C475 C 0.07127 0.48113 0.79305
 C476 C -0.02069 0.52935 0.70236
 C477 C -0.02126 0.54960 0.68191
 C478 C 0.01833 0.56906 0.70353
 C479 C 0.01815 0.54838 0.72362
 N480 N -0.00119 0.52908 0.72264
 H481 H 0.05103 0.46483 0.75792
 H482 H 0.01127 0.53583 0.79054
 H483 H 0.04668 0.53735 0.82720
 H484 H 0.08748 0.46508 0.79359
 H485 H -0.03561 0.51354 0.70194
 H486 H -0.03703 0.54949 0.66599
 H487 H 0.03425 0.58391 0.70424
 H488 H 0.03381 0.54746 0.73961
 C489 C 0.00402 0.42297 0.69141
 C490 C -0.07693 0.50435 0.80597
 C491 C -0.00141 0.56967 0.68216
 C492 C 0.06992 0.50127 0.81326
 C493 C 0.06961 0.14264 0.49651
 C494 C 0.07752 0.16985 0.49774
 C495 C 0.10577 0.17520 0.50044
 C496 C 0.12593 0.15356 0.50168
 C497 C 0.11765 0.12625 0.50078
 C498 C 0.08947 0.12102 0.49817
 C499 C 0.13768 0.10460 0.50233
 C500 C 0.16599 0.10980 0.50425
 C501 C 0.17411 0.13697 0.50470
 C502 C 0.15423 0.15869 0.50365
 H503 H 0.11203 0.19616 0.50117
 H504 H 0.08278 0.10022 0.49740
 H505 H 0.13131 0.08367 0.50154
 H506 H 0.16098 0.17947 0.50426
 H507 H 0.04794 0.13809 0.49471
 H508 H 0.19585 0.14136 0.50621
 C509 C 0.67886 0.62682 0.00074
 C510 C 0.67093 0.59958 0.00080
 C511 C 0.64263 0.59414 -0.00024
 C512 C 0.62241 0.61563 -0.00125
 C513 C 0.63051 0.64301 -0.00075
 C514 C 0.65880 0.64839 0.00018
 C515 C 0.61017 0.66449 -0.00124
 C516 C 0.58189 0.65891 -0.00275
 C517 C 0.57415 0.63163 -0.00369
 C518 C 0.59422 0.61017 -0.00279
 H519 H 0.63641 0.57315 -0.00062
 H520 H 0.66540 0.66923 0.00046
 H521 H 0.61628 0.68551 -0.00075
 H522 H 0.58767 0.58930 -0.00326
 H523 H 0.70058 0.63138 0.00157
 H524 H 0.55247 0.62691 -0.00460
 C525 C 0.92550 -0.13111 0.48930
 C526 C 0.91743 -0.15823 0.49196
 C527 C 0.88914 -0.16333 0.49457
 C528 C 0.86914 -0.14156 0.49467
 C529 C 0.87759 -0.11435 0.49251
 C530 C 0.90577 -0.10935 0.48969
 C531 C 0.85773 -0.09256 0.49331
 C532 C 0.82944 -0.09754 0.49588
 C533 C 0.82115 -0.12464 0.49742
 C534 C 0.84085 -0.14649 0.49699
 H535 H 0.88274 -0.18421 0.49637
 H536 H 0.91259 -0.08862 0.48795
 H537 H 0.86424 -0.07169 0.49170
 H538 H 0.83398 -0.16721 0.49856
 H539 H 0.94720 -0.12671 0.48756
 H540 H 0.79943 -0.12888 0.49948
 C541 C 0.32792 0.36265 0.99785
 C542 C 0.33607 0.38982 0.99715
 C543 C 0.36437 0.39504 0.99554
 C544 C 0.38440 0.37341 0.99479
 C545 C 0.37610 0.34609 0.99608
 C546 C 0.34779 0.34094 0.99750
 C547 C 0.39626 0.32447 0.99594
 C548 C 0.42455 0.32984 0.99408
 C549 C 0.43247 0.35706 0.99233
 C550 C 0.41260 0.37866 0.99280
 H551 H 0.37076 0.41598 0.99458
 H552 H 0.34104 0.32015 0.99839
 H553 H 0.39000 0.30350 0.99707
 H554 H 0.41929 0.39947 0.99174
 H555 H 0.30619 0.35825 0.99913
 H556 H 0.45417 0.36163 0.99116
 C557 C 0.85758 0.18796 0.49618
 C558 C 0.88567 0.17909 0.49738
 C559 C 0.89272 0.15092 0.49779
 C560 C 0.87201 0.13179 0.49696
 C561 C 0.84376 0.14085 0.49619
 C562 C 0.83678 0.16900 0.49579
 C563 C 0.82306 0.12161 0.49569
 C564 C 0.83030 0.09347 0.49536
 C565 C 0.85844 0.08475 0.49580
 C566 C 0.87911 0.10372 0.49675
 H567 H 0.91437 0.14394 0.49831
 H568 H 0.81526 0.17634 0.49511
 H569 H 0.80138 0.12847 0.49512
 H570 H 0.90066 0.09643 0.49728
 H571 H 0.85175 0.20959 0.49592
 H572 H 0.86443 0.06316 0.49581
 C573 C 0.36547 0.57315 -0.00074
 C574 C 0.33719 0.58134 -0.00154
 C575 C 0.32940 0.60936 -0.00112
 C576 C 0.34968 0.62900 -0.00017
 C577 C 0.37806 0.62047 0.00091
 C578 C 0.38572 0.59252 0.00061
 C579 C 0.39834 0.64000 0.00209
 C580 C 0.39075 0.66806 0.00177
 C581 C 0.36253 0.67640 0.00032
 C582 C 0.34214 0.65703 -0.00045
 H583 H 0.30762 0.61583 -0.00199
 H584 H 0.40738 0.58564 0.00139
 H585 H 0.42010 0.63342 0.00276
 H586 H 0.32050 0.66397 -0.00136
 H587 H 0.37189 0.55165 -0.00077
 H588 H 0.35627 0.69794 0.00013
 C589 C 0.13636 -0.17619 0.50327
 C590 C 0.10817 -0.16766 0.50360
 C591 C 0.10077 -0.13956 0.50317
 C592 C 0.12122 -0.12016 0.50239
 C593 C 0.14956 -0.12890 0.50245
 C594 C 0.15690 -0.15697 0.50288
 C595 C 0.17000 -0.10941 0.50195
 C596 C 0.16246 -0.08132 0.50095
 C597 C 0.13422 -0.07293 0.50060
 C598 C 0.11378 -0.09216 0.50144
 H599 H 0.07905 -0.13283 0.50298
 H600 H 0.17850 -0.16404 0.50285
 H601 H 0.19175 -0.11605 0.50197
 H602 H 0.09217 -0.08513 0.50135
 H603 H 0.14247 -0.19776 0.50368
 H604 H 0.12797 -0.05139 0.50012
 C605 C 0.64037 0.41686 1.00246
 C606 C 0.66866 0.40873 1.00221
 C607 C 0.67650 0.38071 1.00276
 C608 C 0.65626 0.36101 1.00328
 C609 C 0.62786 0.36948 1.00374
 C610 C 0.62015 0.39743 1.00335
 C611 C 0.60762 0.34989 1.00440
 C612 C 0.61527 0.32185 1.00425
 C613 C 0.64351 0.31359 1.00346
 C614 C 0.66386 0.33301 1.00315
 H615 H 0.69829 0.37429 1.00230
 H616 H 0.59847 0.40425 1.00367
 H617 H 0.58585 0.35643 1.00456
 H618 H 0.68551 0.32614 1.00274
 H619 H 0.63391 0.43835 1.00231
 H620 H 0.64982 0.29207 1.00344
 C621 C 0.46536 0.10727 1.16365
 C622 C 0.49035 0.09448 1.17320
 C623 C 0.51562 0.10361 1.16323
 C624 C 0.51593 0.12471 1.14345
 C625 C 0.49065 0.13706 1.13363
 C626 C 0.46550 0.12842 1.14411
 C627 C 0.49092 0.15746 1.11312
 C628 C 0.51614 0.16554 1.10203
 C629 C 0.54117 0.15345 1.11233
 C630 C 0.54107 0.13325 1.13287
 H631 H 0.53502 0.09369 1.17017
 H632 H 0.44593 0.13776 1.13691
 H633 H 0.47150 0.16688 1.10563
 H634 H 0.56064 0.12398 1.14014
 H635 H 0.44564 0.10085 1.17129
 H636 H 0.56085 0.15904 1.10393
 C637 C 0.01081 0.68406 0.62804
 C638 C 0.00606 0.67636 0.60077
 C639 C 0.00089 0.64894 0.59530
 C640 C 0.00032 0.62950 0.61666
 C641 C 0.00505 0.63743 0.64401
 C642 C 0.01027 0.66477 0.64948
 C643 C 0.00448 0.61788 0.66537
 C644 C -0.00081 0.59048 0.65973
 C645 C -0.00538 0.58291 0.63239
 C646 C -0.00483 0.60221 0.61108
 H647 H -0.00231 0.64262 0.57432
 H648 H 0.01390 0.67125 0.67031
 H649 H 0.00780 0.62403 0.68638
 H650 H -0.00836 0.59577 0.59021
 H651 H 0.01462 0.70509 0.63282
 H652 H -0.00903 0.56189 0.62743
 C653 C 0.52964 0.89029 -0.15676
 C654 C 0.50409 0.90131 -0.16688
 C655 C 0.47939 0.89078 -0.15698
 C656 C 0.48015 0.86988 -0.13692
 C657 C 0.50595 0.85925 -0.12660
 C658 C 0.53057 0.86947 -0.13679
 C659 C 0.50669 0.83885 -0.10601
 C660 C 0.48195 0.82889 -0.09552
 C661 C 0.45644 0.83936 -0.10629
 C662 C 0.45554 0.85964 -0.12679
 H663 H 0.45957 0.89886 -0.16489
 H664 H 0.55053 0.86158 -0.12910
 H665 H 0.52651 0.83125 -0.09769
 H666 H 0.43558 0.86744 -0.13458
 H667 H 0.54894 0.89823 -0.16383
 H668 H 0.43710 0.83176 -0.09891
 C669 C 0.95552 0.35256 0.39258
 C670 C 0.98056 0.33958 0.40228
 C671 C 1.00562 0.34760 0.39033
 C672 C 1.00567 0.36827 0.37003
 C673 C 0.98039 0.38099 0.36087
 C674 C 0.95546 0.37281 0.37208
 C675 C 0.98045 0.40196 0.34089
 C676 C 1.00558 0.41088 0.33026
 C677 C 1.03065 0.39797 0.33954
 C678 C 1.03068 0.37682 0.35912
 H679 H 1.02540 0.33898 0.39770
 H680 H 0.93583 0.38219 0.36511
 H681 H 0.96091 0.41133 0.33370
 H682 H 1.05033 0.36741 0.36601
 H683 H 0.93561 0.34658 0.40005
 H684 H 1.05035 0.40462 0.33213
 C685 C 0.50775 0.91215 0.13576
 C686 C 0.49796 0.90487 0.16204
 C687 C 0.48867 0.87810 0.16592
 C688 C 0.48918 0.85936 0.14434
 C689 C 0.49872 0.86732 0.11825
 C690 C 0.50797 0.89370 0.11421
 C691 C 0.49877 0.84883 0.09654
 C692 C 0.48980 0.82214 0.10055
 C693 C 0.48074 0.81428 0.12677
 C694 C 0.48035 0.83273 0.14842
 H695 H 0.48195 0.87125 0.18592
 H696 H 0.51521 0.90020 0.09426
 H697 H 0.50538 0.85545 0.07641
 H698 H 0.47317 0.82614 0.16836
 H699 H 0.51413 0.93258 0.13114
 H700 H 0.47414 0.79376 0.13066
 C701 C -0.04375 0.34588 0.60504
 C702 C -0.01844 0.33336 0.59674
 C703 C 0.00622 0.34029 0.60997
 C704 C 0.00567 0.35980 0.63080
 C705 C -0.01986 0.37253 0.63866
 C706 C -0.04446 0.36527 0.62580
 C707 C -0.02033 0.39266 0.65887
 C708 C 0.00443 0.40040 0.67134
 C709 C 0.02965 0.38723 0.66370
 C710 C 0.03027 0.36709 0.64366
 H711 H 0.02583 0.33054 0.60399
 H712 H -0.06422 0.37485 0.63153
 H713 H -0.03989 0.40289 0.66426
 H714 H 0.05002 0.35744 0.63801
 H715 H -0.06300 0.34116 0.59499
 H716 H 0.04897 0.39253 0.67324
 C717 C 0.50583 0.12393 0.81994
 C718 C 0.51157 0.09675 0.82874
 C719 C 0.51912 0.09150 0.85632
 C720 C 0.52078 0.11299 0.87487
 C721 C 0.51486 0.14021 0.86584
 C722 C 0.50752 0.14547 0.83830
 C723 C 0.51619 0.16167 0.88454
 C724 C 0.52324 0.15627 0.91224
 C725 C 0.52918 0.12907 0.92089
 C726 C 0.52800 0.10765 0.90239
 H727 H 0.52318 0.07062 0.86349
 H728 H 0.50298 0.16621 0.83098
 H729 H 0.51184 0.18256 0.87752
 H730 H 0.53249 0.08689 0.90968
 H731 H 0.50027 0.12854 0.79874
 H732 H 0.53419 0.12425 0.94217
 C733 C 1.02285 0.63961 0.42104
 C734 C 1.01692 0.66674 0.41217
 C735 C 1.01063 0.67199 0.38427
 C736 C 1.01023 0.65045 0.36557
 C737 C 1.01627 0.62331 0.37480
 C738 C 1.02257 0.61812 0.40256
 C739 C 1.01579 0.60176 0.35619
 C740 C 1.00931 0.60687 0.32835
 C741 C 1.00331 0.63395 0.31936
 C742 C 1.00381 0.65554 0.33779
 H743 H 1.00627 0.69281 0.37708
 H744 H 1.02712 0.59742 0.41001
 H745 H 1.02004 0.58095 0.36348
 H746 H 0.99918 0.67622 0.33031
 H747 H 1.02726 0.63490 0.44246
 H748 H 0.99854 0.63846 0.29797
 C749 C 1.16949 0.46403 0.10811
 C750 C 1.17536 0.48902 0.09490
 C751 C 1.16112 0.51311 0.10397
 C752 C 1.14156 0.51219 0.12511
 C753 C 1.13581 0.48693 0.13763
 C754 C 1.14999 0.46304 0.12908
 C755 C 1.11586 0.48596 0.15840
 C756 C 1.10162 0.51001 0.16696
 C757 C 1.10782 0.53512 0.15461
 C758 C 1.12758 0.53620 0.13388
 H759 H 1.16572 0.53289 0.09540
 H760 H 1.14574 0.44344 0.13838
 H761 H 1.11153 0.46652 0.16802
 H762 H 1.13173 0.55580 0.12454
 H763 H 1.17887 0.44476 0.10157
 H764 H 1.09692 0.55390 0.16058
 C765 C 0.57877 -0.00469 0.63428
 C766 C 0.58877 -0.00393 0.66141
 C767 C 0.61736 -0.00188 0.66614
 C768 C 0.63576 -0.00062 0.64401
 C769 C 0.62539 -0.00100 0.61680
 C770 C 0.59690 -0.00311 0.61217
 C771 C 0.64370 0.00064 0.59468
 C772 C 0.67234 0.00215 0.59933
 C773 C 0.68251 0.00212 0.62642
 C774 C 0.66436 0.00094 0.64859
 H775 H 0.62527 -0.00154 0.68701
 H776 H 0.58861 -0.00348 0.59145
 H777 H 0.63575 0.00023 0.57382
 H778 H 0.67269 0.00117 0.66930
 H779 H 0.55680 -0.00595 0.63017
 H780 H 0.70452 0.00334 0.63041
 C781 C -0.16155 0.46634 0.89194
 C782 C -0.17018 0.49237 0.90138
 C783 C -0.15931 0.51568 0.88903
 C784 C -0.13979 0.51302 0.86792
 C785 C -0.13111 0.48675 0.85882
 C786 C -0.14227 0.46356 0.87082
 C787 C -0.11112 0.48406 0.83816
 C788 C -0.09938 0.50730 0.82658
 C789 C -0.10846 0.53336 0.83558
 C790 C -0.12852 0.53620 0.85598
 H791 H -0.16604 0.53588 0.89582
 H792 H -0.13580 0.44325 0.86415
 H793 H -0.10464 0.46386 0.83117
 H794 H -0.13489 0.55651 0.86273
 H795 H -0.16925 0.44803 0.90131
 H796 H -0.09951 0.55159 0.82735
 C797 C 0.36305 -0.00430 0.31643
 C798 C 0.39074 -0.00712 0.32548
 C799 C 0.39660 -0.00741 0.35376
 C800 C 0.37511 -0.00445 0.37282
 C801 C 0.34726 -0.00177 0.36357
 C802 C 0.34145 -0.00188 0.33532
 C803 C 0.32577 0.00134 0.38272
 C804 C 0.33185 0.00235 0.41094
 C805 C 0.35962 -0.00021 0.41984
 C806 C 0.38105 -0.00372 0.40098
 H807 H 0.41797 -0.00914 0.36085
 H808 H 0.32025 0.00022 0.32784
 H809 H 0.30441 0.00349 0.37569
 H810 H 0.40227 -0.00573 0.40842
 H811 H 0.35815 -0.00406 0.29469
 H812 H 0.36471 0.00018 0.44152
 C813 C 0.18496 0.49140 0.87095
 C814 C 0.17537 0.49327 0.89804
 C815 C 0.14676 0.49655 0.90277
 C816 C 0.12788 0.49798 0.88072
 C817 C 0.13766 0.49564 0.85353
 C818 C 0.16625 0.49239 0.84887
 C819 C 0.11868 0.49667 0.83151
 C820 C 0.09010 0.50050 0.83633
 C821 C 0.08068 0.50317 0.86342
 C822 C 0.09938 0.50179 0.88543
 H823 H 0.13925 0.49839 0.92361
 H824 H 0.17414 0.49065 0.82817
 H825 H 0.12610 0.49483 0.81064
 H826 H 0.09155 0.50366 0.90614
 H827 H 0.20695 0.48877 0.86691
 H828 H 0.05873 0.50585 0.86758
 C829 C 0.59866 -0.03819 0.34225
 C830 C 0.58801 -0.01263 0.33240
 C831 C 0.59900 0.01131 0.34273
 C832 C 0.62008 0.00977 0.36277
 C833 C 0.63046 -0.01603 0.37262
 C834 C 0.61970 -0.03988 0.36213
 C835 C 0.65131 -0.01756 0.39290
 C836 C 0.66190 0.00639 0.40363
 C837 C 0.65150 0.03194 0.39351
 C838 C 0.63083 0.03362 0.37326
 H839 H 0.59128 0.03114 0.33506
 H840 H 0.62737 -0.05984 0.36948
 H841 H 0.65938 -0.03740 0.40021
 H842 H 0.62307 0.05358 0.36599
 H843 H 0.59035 -0.05694 0.33494
 H844 H 0.65898 0.05072 0.40166
 C845 C 0.84581 0.46811 0.10844
 C846 C 0.83492 0.49332 0.09792
 C847 C 0.84453 0.51767 0.10876
 C848 C 0.86492 0.51686 0.12948
 C849 C 0.87599 0.49141 0.13955
 C850 C 0.86617 0.46716 0.12902
 C851 C 0.89695 0.49061 0.15972
 C852 C 0.90706 0.51498 0.17003
 C853 C 0.89550 0.54018 0.16015
 C854 C 0.87468 0.54112 0.14005
 H855 H 0.83669 0.53727 0.10062
 H856 H 0.87431 0.44745 0.13660
 H857 H 0.90587 0.47103 0.16682
 H858 H 0.86632 0.56082 0.13268
 H859 H 0.83849 0.44905 0.10084
 H860 H 0.90254 0.55924 0.16803
 C861 C 0.36987 0.00516 0.68811
 C862 C 0.39718 0.00489 0.67833
 C863 C 0.40179 0.00435 0.64992
 C864 C 0.37943 0.00395 0.63143
 C865 C 0.35197 0.00459 0.64139
 C866 C 0.34742 0.00523 0.66978
 C867 C 0.32961 0.00438 0.62277
 C868 C 0.33445 0.00297 0.59439
 C869 C 0.36185 0.00209 0.58481
 C870 C 0.38414 0.00272 0.60314
 H871 H 0.42283 0.00369 0.64225
 H872 H 0.32653 0.00564 0.67781
 H873 H 0.30852 0.00487 0.63030
 H874 H 0.40505 0.00219 0.59518
 H875 H 0.36592 0.00563 0.70996
 H876 H 0.36601 0.00133 0.56301
   
