data_POSCAR
  _audit_creation_date              2014-09-24
  _audit_creation_method            'ToBaCCo'
  _symmetry_space_group_name_H-M    'P1'
  _symmetry_Int_Tables_number       1
  _symmetry_cell_setting            triclinic
  loop_
  _symmetry_equiv_pos_as_xyz
 x,y,z
_cell_length_a 42.7950
_cell_length_b 42.7818
_cell_length_c 41.1704
_cell_angle_alpha 89.943700
_cell_angle_beta 89.882500
_cell_angle_gamma 102.675400
loop_
  _atom_site_label
  _atom_site_type_symbol
  _atom_site_fract_x
  _atom_site_fract_y
  _atom_site_fract_z
O1 O -0.02664 0.28950 0.02831
 O2 O 0.03457 0.28374 -0.03324
 O3 O -0.02684 0.28344 -0.03476
 O4 O 0.03391 0.29017 0.02953
 O5 O 0.02356 0.23748 0.03411
 O6 O -0.03867 0.23088 -0.02878
 O7 O 0.02208 0.23106 -0.02899
 O8 O -0.03725 0.23692 0.03417
 Cu9 Cu 0.00486 0.29199 -0.00326
 Cu10 Cu -0.00868 0.22881 0.00311
 C11 C -0.04204 0.26417 0.04209
 C12 C 0.03874 0.25638 -0.04172
 C13 C -0.04334 0.25605 -0.04254
 C14 C 0.03903 0.26500 0.04287
 O15 O 0.54458 0.81059 0.47114
 O16 O 0.48460 0.81361 0.53464
 O17 O 0.54450 0.81057 0.53409
 O18 O 0.48443 0.81377 0.47106
 O19 O 0.46983 0.76098 0.47137
 O20 O 0.53087 0.75772 0.53365
 O21 O 0.47075 0.76078 0.53499
 O22 O 0.52970 0.75779 0.47045
 Cu23 Cu 0.51582 0.81744 0.50270
 Cu24 Cu 0.49876 0.75402 0.50264
 C25 C 0.54736 0.78366 0.45997
 C26 C 0.46776 0.78770 0.54598
 C27 C 0.54809 0.78363 0.54449
 C28 C 0.46701 0.78794 0.46029
 O29 O 0.95964 0.70191 -0.02607
 O30 O 1.02152 0.71346 0.03750
 O31 O 0.96048 0.71186 0.03601
 O32 O 1.02120 0.70366 -0.02493
 O33 O 1.03022 0.75558 -0.03483
 O34 O 0.97138 0.76418 0.02808
 O35 O 1.03307 0.76546 0.02752
 O36 O 0.96971 0.75412 -0.03443
 Cu37 Cu 0.98972 0.70249 0.00649
 Cu38 Cu 1.00212 0.76512 -0.00410
 C39 C 0.95399 0.72607 -0.04105
 C40 C 1.03812 0.74137 0.04303
 C41 C 0.95553 0.73938 0.04243
 C42 C 1.03589 0.72818 -0.04056
 O43 O 0.46336 0.23607 0.47012
 O44 O 0.52390 0.23134 0.53244
 O45 O 0.46443 0.23629 0.53326
 O46 O 0.52271 0.23040 0.46897
 O47 O 0.53969 0.28303 0.46933
 O48 O 0.47966 0.28904 0.53201
 O49 O 0.53959 0.28409 0.53179
 O50 O 0.48041 0.28865 0.46839
 Cu51 Cu 0.49198 0.22823 0.50127
 Cu52 Cu 0.51127 0.29153 0.50038
 C53 C 0.46183 0.26316 0.45839
 C54 C 0.54221 0.25696 0.54254
 C55 C 0.46194 0.26362 0.54348
 C56 C 0.54141 0.25567 0.45851
 O57 O 0.71613 0.01604 -0.03464
 O58 O 0.71802 -0.04693 0.02656
 O59 O 0.71797 0.01391 0.02877
 O60 O 0.71346 -0.04542 -0.03620
 O61 O 0.76624 -0.03670 -0.03772
 O62 O 0.77063 0.02693 0.02375
 O63 O 0.77083 -0.03402 0.02546
 O64 O 0.76871 0.02420 -0.03943
 Cu65 Cu 0.71110 -0.01659 -0.00355
 Cu66 Cu 0.77441 -0.00383 -0.00717
 C67 C 0.74221 0.03027 -0.04800
 C68 C 0.74493 -0.05094 0.03673
 C69 C 0.74492 0.03088 0.03703
 C70 C 0.73895 -0.05155 -0.04779
 O71 O 0.23577 0.47321 0.53354
 O72 O 0.23250 0.53332 0.47020
 O73 O 0.23508 0.47312 0.47043
 O74 O 0.23247 0.53342 0.53359
 O75 O 0.28525 0.54828 0.53233
 O76 O 0.28792 0.48663 0.47051
 O77 O 0.28535 0.54724 0.46993
 O78 O 0.28854 0.48826 0.53407
 Cu79 Cu 0.22865 0.50183 0.50199
 Cu80 Cu 0.29209 0.51883 0.50162
 C81 C 0.26273 0.47067 0.54475
 C82 C 0.25842 0.55073 0.45953
 C83 C 0.26191 0.46946 0.45981
 C84 C 0.25838 0.55146 0.54336
 O85 O 0.28822 0.97860 -0.03041
 O86 O 0.29633 1.04038 0.03311
 O87 O 0.28806 0.97865 0.03294
 O88 O 0.29560 1.04088 -0.03038
 O89 O 0.24312 1.03536 -0.03034
 O90 O 0.23566 0.97406 0.03356
 O91 O 0.24399 1.03635 0.03256
 O92 O 0.23578 0.97336 -0.02989
 Cu93 Cu 0.29732 1.01013 0.00117
 Cu94 Cu 0.23438 1.00420 0.00150
 C95 C 0.26064 0.96530 -0.04098
 C96 C 0.27156 1.04889 0.04365
 C97 C 0.26057 0.96597 0.04426
 C98 C 0.27059 1.04879 -0.04117
 O99 O 0.80993 0.53454 0.52257
 O100 O 0.80990 0.47137 0.46223
 O101 O 0.80811 0.53169 0.45980
 O102 O 0.81037 0.47382 0.52580
 O103 O 0.75752 0.46075 0.52623
 O104 O 0.75526 0.51985 0.46178
 O105 O 0.75703 0.45937 0.46263
 O106 O 0.75710 0.52126 0.52487
 Cu107 Cu 0.81489 0.50396 0.49249
 Cu108 Cu 0.75142 0.48893 0.49395
 C109 C 0.78358 0.53868 0.53404
 C110 C 0.78351 0.45492 0.45173
 C111 C 0.78124 0.53587 0.44981
 C112 C 0.78426 0.45757 0.53742
 C113 C 0.23504 0.26271 0.25393
 C114 C 0.25813 0.24534 0.25185
 C115 C 0.26038 0.22394 0.22375
 C116 C 0.28097 0.24547 0.27887
 C117 C 0.23517 0.28652 0.28020
 C118 C 0.20851 0.25872 0.23011
 C119 C 0.26423 0.19257 0.22922
 C120 C 0.26476 0.17174 0.20319
 C121 C 0.26089 0.18171 0.17128
 C122 C 0.25811 0.21333 0.16560
 C123 C 0.25854 0.23445 0.19155
 C124 C 0.26986 0.23311 0.30937
 C125 C 0.29147 0.23204 0.33450
 C126 C 0.32449 0.24363 0.32959
 C127 C 0.33547 0.25646 0.29918
 C128 C 0.31389 0.25694 0.27384
 C129 C 0.26175 0.31190 0.28487
 C130 C 0.26122 0.33480 0.30895
 C131 C 0.23398 0.33297 0.32869
 C132 C 0.20756 0.30718 0.32414
 C133 C 0.20808 0.28439 0.29997
 C134 C 0.20421 0.28500 0.21175
 C135 C 0.18063 0.28110 0.18779
 C136 C 0.16054 0.25086 0.18191
 C137 C 0.16410 0.22482 0.20152
 C138 C 0.18792 0.22873 0.22528
 H139 H 0.26607 0.18390 0.25371
 H140 H 0.26711 0.14747 0.20805
 H141 H 0.25580 0.22170 0.14108
 H142 H 0.25695 0.25888 0.18649
 H143 H 0.24450 0.22398 0.31352
 H144 H 0.28235 0.22244 0.35785
 H145 H 0.32278 0.26642 0.25037
 H146 H 0.28272 0.31423 0.26953
 H147 H 0.28196 0.35430 0.31173
 H148 H 0.18652 0.30419 0.33940
 H149 H 0.18740 0.26488 0.29683
 H150 H 0.21976 0.30838 0.21532
 H151 H 0.17856 0.30179 0.17347
 H152 H 0.14853 0.20140 0.19892
 H153 H 0.19050 0.20831 0.23978
 H154 H 0.36082 0.26550 0.29484
 C155 C 0.74539 0.72584 0.24289
 C156 C 0.72488 0.74588 0.24215
 C157 C 0.72477 0.76847 0.21507
 C158 C 0.70180 0.74650 0.26869
 C159 C 0.74476 0.70246 0.26960
 C160 C 0.76891 0.72549 0.21659
 C161 C 0.74315 0.79981 0.21712
 C162 C 0.74223 0.82171 0.19216
 C163 C 0.72215 0.81285 0.16523
 C164 C 0.70365 0.78139 0.16329
 C165 C 0.70512 0.75928 0.18799
 C166 C 0.71207 0.76175 0.29811
 C167 C 0.69004 0.76271 0.32300
 C168 C 0.65757 0.74789 0.31900
 C169 C 0.64742 0.73259 0.28945
 C170 C 0.66935 0.73218 0.26438
 C171 C 0.71768 0.67782 0.27499
 C172 C 0.71778 0.65515 0.29944
 C173 C 0.74506 0.65669 0.31898
 C174 C 0.77225 0.68130 0.31317
 C175 C 0.77210 0.70389 0.28869
 C176 C 0.76581 0.69834 0.19687
 C177 C 0.78899 0.69660 0.17345
 C178 C 0.81602 0.72189 0.16961
 C179 C 0.81866 0.74937 0.18904
 C180 C 0.79541 0.75106 0.21250
 H181 H 0.75813 0.80729 0.23812
 H182 H 0.75664 0.84583 0.19424
 H183 H 0.68833 0.77383 0.14257
 H184 H 0.69072 0.73514 0.18619
 H185 H 0.73708 0.77304 0.30164
 H186 H 0.69838 0.77471 0.34553
 H187 H 0.66109 0.72045 0.24170
 H188 H 0.69670 0.67576 0.25981
 H189 H 0.69676 0.63602 0.30231
 H190 H 0.79368 0.68314 0.32763
 H191 H 0.79335 0.72257 0.28462
 H192 H 0.74546 0.67840 0.19978
 H193 H 0.78558 0.67546 0.15833
 H194 H 0.83918 0.76921 0.18672
 H195 H 0.79850 0.77193 0.22800
 H196 H 0.62245 0.72149 0.28551
 C197 C 0.72721 0.22081 0.24887
 C198 C 0.75301 0.24617 0.24863
 C199 C 0.78098 0.24662 0.22708
 C200 C 0.75451 0.27433 0.27009
 C201 C 0.70164 0.21779 0.27406
 C202 C 0.72355 0.19502 0.22396
 C203 C 0.79715 0.22144 0.22781
 C204 C 0.82130 0.22031 0.20525
 C205 C 0.82974 0.24440 0.18148
 C206 C 0.81467 0.27051 0.18208
 C207 C 0.79058 0.27165 0.20474
 C208 C 0.78032 0.28374 0.29143
 C209 C 0.78037 0.30811 0.31398
 C210 C 0.75464 0.32364 0.31555
 C211 C 0.72962 0.31530 0.29288
 C212 C 0.72962 0.29093 0.27032
 C213 C 0.66925 0.21115 0.26490
 C214 C 0.64525 0.21034 0.28820
 C215 C 0.65335 0.21655 0.32095
 C216 C 0.68558 0.22213 0.33028
 C217 C 0.70945 0.22199 0.30716
 C218 C 0.72768 0.20254 0.19074
 C219 C 0.72686 0.17837 0.16782
 C220 C 0.72039 0.14617 0.17748
 C221 C 0.71451 0.13843 0.21040
 C222 C 0.71628 0.16269 0.23349
 H223 H 0.79056 0.20229 0.24543
 H224 H 0.83318 0.20050 0.20653
 H225 H 0.82078 0.28961 0.16436
 H226 H 0.77853 0.29141 0.20400
 H227 H 0.79986 0.27137 0.29145
 H228 H 0.80014 0.31413 0.33088
 H229 H 0.70984 0.28449 0.25348
 H230 H 0.66260 0.20748 0.23959
 H231 H 0.62050 0.20611 0.28050
 H232 H 0.69227 0.22660 0.35549
 H233 H 0.73413 0.22597 0.31503
 H234 H 0.73215 0.22720 0.18261
 H235 H 0.73102 0.18477 0.14247
 H236 H 0.70954 0.11368 0.21835
 H237 H 0.71270 0.15628 0.25890
 H238 H 0.71000 0.32750 0.29246
 C239 C 0.26366 0.76697 0.25218
 C240 C 0.23633 0.74336 0.25300
 C241 C 0.21037 0.74125 0.22844
 C242 C 0.23133 0.71781 0.27832
 C243 C 0.29071 0.76675 0.27473
 C244 C 0.26807 0.79406 0.22880
 C245 C 0.17828 0.73544 0.23873
 C246 C 0.15351 0.73224 0.21611
 C247 C 0.16039 0.73526 0.18278
 C248 C 0.19238 0.74118 0.17237
 C249 C 0.21712 0.74344 0.19495
 C250 C 0.23558 0.72544 0.31145
 C251 C 0.23372 0.70121 0.33457
 C252 C 0.22606 0.66895 0.32515
 C253 C 0.21982 0.66120 0.29235
 C254 C 0.22265 0.68546 0.26908
 C255 C 0.30526 0.74040 0.27615
 C256 C 0.32872 0.73923 0.29943
 C257 C 0.33819 0.76452 0.32168
 C258 C 0.32468 0.79157 0.31899
 C259 C 0.30123 0.79269 0.29571
 C260 C 0.29509 0.80040 0.20853
 C261 C 0.29890 0.82470 0.18525
 C262 C 0.27588 0.84347 0.18203
 C263 C 0.24914 0.83749 0.20288
 C264 C 0.24541 0.81320 0.22625
 H265 H 0.17240 0.73337 0.26436
 H266 H 0.12897 0.72781 0.22465
 H267 H 0.19812 0.74323 0.14671
 H268 H 0.24151 0.74672 0.18623
 H269 H 0.24117 0.75018 0.31932
 H270 H 0.23834 0.70761 0.35984
 H271 H 0.21893 0.67899 0.24373
 H272 H 0.29798 0.72046 0.25961
 H273 H 0.33937 0.71853 0.29984
 H274 H 0.33159 0.81157 0.33551
 H275 H 0.29047 0.81335 0.29480
 H276 H 0.31282 0.78585 0.21009
 H277 H 0.31940 0.82800 0.16918
 H278 H 0.23108 0.85160 0.20111
 H279 H 0.22463 0.80903 0.24204
 H280 H 0.21404 0.63642 0.28460
 C281 C 0.75370 0.26158 0.75443
 C282 C 0.72962 0.23473 0.75353
 C283 C 0.70486 0.22920 0.72753
 C284 C 0.72636 0.21004 0.77931
 C285 C 0.77998 0.26521 0.77862
 C286 C 0.75508 0.28835 0.73108
 C287 C 0.67226 0.22027 0.73587
 C288 C 0.64869 0.21727 0.71192
 C289 C 0.65737 0.22351 0.67928
 C290 C 0.68990 0.23127 0.67074
 C291 C 0.71345 0.23333 0.69456
 C292 C 0.71889 0.21708 0.81130
 C293 C 0.71592 0.19367 0.83553
 C294 C 0.72090 0.16307 0.82814
 C295 C 0.72838 0.15614 0.79609
 C296 C 0.73058 0.17930 0.77175
 C297 C 0.79850 0.24201 0.78136
 C298 C 0.82283 0.24536 0.80449
 C299 C 0.82961 0.27229 0.82494
 C300 C 0.81132 0.29575 0.82177
 C301 C 0.78685 0.29227 0.79873
 C302 C 0.78187 0.29785 0.71082
 C303 C 0.78207 0.32073 0.68652
 C304 C 0.75552 0.33470 0.68208
 C305 C 0.72946 0.32641 0.70373
 C306 C 0.72928 0.30348 0.72798
 H307 H 0.66499 0.21663 0.76105
 H308 H 0.62371 0.21143 0.71904
 H309 H 0.69705 0.23586 0.64562
 H310 H 0.73839 0.23900 0.68733
 H311 H 0.71540 0.24070 0.81743
 H312 H 0.71053 0.19969 0.86014
 H313 H 0.73625 0.17351 0.74713
 H314 H 0.79413 0.22132 0.76553
 H315 H 0.83660 0.22699 0.80617
 H316 H 0.81535 0.31646 0.83754
 H317 H 0.77287 0.31046 0.79695
 H318 H 0.80213 0.28662 0.71303
 H319 H 0.80264 0.32674 0.67053
 H320 H 0.70911 0.33749 0.70204
 H321 H 0.70869 0.29698 0.74391
 H322 H 0.73232 0.13271 0.78988
 C323 C 0.23628 0.74286 0.75147
 C324 C 0.26421 0.76532 0.75431
 C325 C 0.29198 0.76530 0.73269
 C326 C 0.26817 0.79106 0.77916
 C327 C 0.21012 0.74155 0.77532
 C328 C 0.23101 0.71805 0.72548
 C329 C 0.30554 0.73834 0.73050
 C330 C 0.32937 0.73732 0.70751
 C331 C 0.34012 0.76331 0.68625
 C332 C 0.32767 0.79095 0.68989
 C333 C 0.30391 0.79195 0.71293
 C334 C 0.29306 0.79451 0.80188
 C335 C 0.29661 0.81823 0.82577
 C336 C 0.27542 0.83914 0.82725
 C337 C 0.25072 0.83580 0.80420
 C338 C 0.24735 0.81224 0.78019
 C339 C 0.18221 0.75137 0.76627
 C340 C 0.15850 0.75249 0.78934
 C341 C 0.16201 0.74284 0.82150
 C342 C 0.18936 0.73174 0.83017
 C343 C 0.21348 0.73148 0.80731
 C344 C 0.23792 0.72630 0.69276
 C345 C 0.23614 0.70248 0.66922
 C346 C 0.22595 0.67005 0.67767
 C347 C 0.21705 0.66184 0.70992
 C348 C 0.21971 0.68563 0.73365
 H349 H 0.29708 0.71780 0.74609
 H350 H 0.33918 0.71611 0.70647
 H351 H 0.33555 0.81150 0.67419
 H352 H 0.29389 0.81306 0.71446
 H353 H 0.30939 0.77843 0.80144
 H354 H 0.31551 0.81964 0.84348
 H355 H 0.22849 0.81053 0.76237
 H356 H 0.17932 0.75912 0.74162
 H357 H 0.13740 0.76084 0.78213
 H358 H 0.19245 0.72420 0.85486
 H359 H 0.23490 0.72372 0.81454
 H360 H 0.24552 0.75116 0.68557
 H361 H 0.24279 0.70933 0.64439
 H362 H 0.20930 0.63696 0.71703
 H363 H 0.21395 0.67861 0.75860
 H364 H 0.23418 0.85166 0.80454
 C365 C 0.25966 0.24609 0.75330
 C366 C 0.24113 0.26804 0.75323
 C367 C 0.24156 0.29042 0.72585
 C368 C 0.21828 0.26969 0.77976
 C369 C 0.25679 0.22172 0.77930
 C370 C 0.28330 0.24503 0.72718
 C371 C 0.25499 0.32313 0.72981
 C372 C 0.25486 0.34444 0.70411
 C373 C 0.24055 0.33344 0.67438
 C374 C 0.22710 0.30060 0.67050
 C375 C 0.22777 0.27922 0.69604
 C376 C 0.22813 0.28852 0.80727
 C377 C 0.20606 0.29098 0.83174
 C378 C 0.17404 0.27414 0.82920
 C379 C 0.16443 0.25495 0.80181
 C380 C 0.18628 0.25319 0.77700
 C381 C 0.22926 0.19710 0.78174
 C382 C 0.22683 0.17376 0.80591
 C383 C 0.25204 0.17455 0.82803
 C384 C 0.27989 0.19895 0.82499
 C385 C 0.28224 0.22232 0.80080
 C386 C 0.28069 0.21720 0.70855
 C387 C 0.30306 0.21562 0.68421
 C388 C 0.32893 0.24171 0.67838
 C389 C 0.33128 0.26968 0.69704
 C390 C 0.30875 0.27127 0.72129
 H391 H 0.26572 0.33208 0.75273
 H392 H 0.26537 0.36963 0.70767
 H393 H 0.21637 0.29144 0.64767
 H394 H 0.21728 0.25398 0.69272
 H395 H 0.25277 0.30149 0.80961
 H396 H 0.21407 0.30567 0.85281
 H397 H 0.17831 0.23885 0.75568
 H398 H 0.20985 0.19568 0.76460
 H399 H 0.20550 0.15474 0.80667
 H400 H 0.29979 0.20011 0.84148
 H401 H 0.30385 0.24097 0.79891
 H402 H 0.26107 0.19679 0.71264
 H403 H 0.29966 0.19404 0.66978
 H404 H 0.35083 0.29020 0.69324
 H405 H 0.31137 0.29282 0.73574
 H406 H 0.13984 0.24187 0.79931
 C407 C 0.74468 0.75007 0.74473
 C408 C 0.76352 0.72840 0.74517
 C409 C 0.76143 0.70379 0.71975
 C410 C 0.78822 0.72943 0.77035
 C411 C 0.74834 0.77568 0.76944
 C412 C 0.71957 0.74918 0.71981
 C413 C 0.74795 0.67164 0.72695
 C414 C 0.74586 0.64825 0.70294
 C415 C 0.75789 0.65668 0.67160
 C416 C 0.77182 0.68887 0.66464
 C417 C 0.77328 0.71234 0.68849
 C418 C 0.78000 0.71578 0.80101
 C419 C 0.80334 0.71806 0.82514
 C420 C 0.83493 0.73469 0.81908
 C421 C 0.84310 0.74799 0.78819
 C422 C 0.81997 0.74501 0.76387
 C423 C 0.77587 0.80046 0.77014
 C424 C 0.77941 0.82418 0.79399
 C425 C 0.75534 0.82356 0.81749
 C426 C 0.72747 0.79899 0.81612
 C427 C 0.72401 0.77529 0.79230
 C428 C 0.72045 0.77594 0.69991
 C429 C 0.69676 0.77564 0.67657
 C430 C 0.67157 0.74860 0.67272
 C431 C 0.67051 0.72195 0.69315
 C432 C 0.69429 0.72228 0.71647
 H433 H 0.73885 0.66476 0.75109
 H434 H 0.73553 0.62352 0.70905
 H435 H 0.78133 0.69586 0.64067
 H436 H 0.78390 0.73711 0.68273
 H437 H 0.75552 0.70365 0.80624
 H438 H 0.79659 0.70761 0.84880
 H439 H 0.82660 0.75552 0.74021
 H440 H 0.79452 0.80150 0.75210
 H441 H 0.80071 0.84325 0.79352
 H442 H 0.70842 0.79788 0.83374
 H443 H 0.70251 0.75640 0.79189
 H444 H 0.73966 0.79701 0.70231
 H445 H 0.69831 0.79660 0.66137
 H446 H 0.65102 0.70109 0.69179
 H447 H 0.69274 0.70173 0.73225
 H448 H 0.86742 0.76052 0.78285
 C449 C 0.25441 0.11408 0.09538
 C450 C 0.27962 0.11835 0.11785
 N451 N 0.30207 0.10046 0.11522
 C452 C 0.30038 0.07835 0.09120
 C453 C 0.27472 0.07344 0.06915
 N454 N 0.25230 0.09151 0.07184
 N455 N 0.23244 0.13257 0.09749
 C456 C 0.23443 0.15504 0.12118
 C457 C 0.25920 0.15885 0.14421
 N458 N 0.28122 0.14028 0.14196
 H459 H 0.31852 0.06432 0.08975
 H460 H 0.21643 0.16926 0.12254
 C461 C 0.75664 0.58570 0.59988
 C462 C 0.78369 0.61065 0.60418
 N463 N 0.81013 0.61164 0.58564
 C464 C 0.81080 0.58874 0.56296
 C465 C 0.78366 0.56383 0.55836
 N466 N 0.75714 0.56302 0.57697
 N467 N 0.73046 0.58435 0.61894
 C468 C 0.73013 0.60680 0.64223
 C469 C 0.75713 0.63196 0.64648
 N470 N 0.78324 0.63327 0.62713
 H471 H 0.83222 0.59012 0.54851
 H472 H 0.70890 0.60524 0.65700
 C473 C 0.71877 0.88258 0.09300
 C474 C 0.74794 0.87991 0.10698
 N475 N 0.77550 0.89992 0.09726
 C476 C 0.77529 0.92260 0.07418
 C477 C 0.74601 0.92582 0.06037
 N478 N 0.71841 0.90556 0.07029
 N479 N 0.69129 0.86207 0.10229
 C480 C 0.69167 0.83902 0.12501
 C481 C 0.72082 0.83660 0.13946
 N482 N 0.74827 0.85729 0.13001
 H483 H 0.79777 0.93813 0.06703
 H484 H 0.66935 0.82326 0.13224
 C485 C 0.23815 0.40060 0.59938
 C486 C 0.26555 0.40277 0.61866
 N487 N 0.29161 0.42673 0.61323
 C488 C 0.29152 0.44874 0.58940
 C489 C 0.26393 0.44696 0.57035
 N490 N 0.23786 0.42283 0.57590
 N491 N 0.21229 0.37633 0.60446
 C492 C 0.21254 0.35409 0.62803
 C493 C 0.23979 0.35640 0.64772
 N494 N 0.26565 0.38087 0.64249
 H495 H 0.31261 0.46764 0.58566
 H496 H 0.19142 0.33523 0.63180
 C497 C 0.89693 0.23957 0.10661
 C498 C 0.89133 0.26910 0.11688
 N499 N 0.90732 0.29651 0.10242
 C500 C 0.92875 0.29573 0.07813
 C501 C 0.93450 0.26614 0.06782
 N502 N 0.91832 0.23875 0.08243
 N503 N 0.88076 0.21216 0.12085
 C504 C 0.85929 0.21287 0.14507
 C505 C 0.85369 0.24248 0.15577
 N506 N 0.86991 0.26987 0.14106
 H507 H 0.94122 0.31798 0.06713
 H508 H 0.84630 0.19043 0.15518
 C509 C 0.40615 0.76071 0.60960
 C510 C 0.40258 0.78989 0.62288
 N511 N 0.42005 0.81781 0.61072
 C512 C 0.44103 0.81789 0.58585
 C513 C 0.44476 0.78866 0.57247
 N514 N 0.42711 0.76073 0.58480
 N515 N 0.38845 0.73284 0.62158
 C516 C 0.36736 0.73275 0.64636
 C517 C 0.36374 0.76199 0.66001
 N518 N 0.38154 0.78985 0.64759
 H519 H 0.45470 0.84053 0.57674
 H520 H 0.35312 0.71005 0.65459
 C521 C 0.08597 0.72557 0.11368
 C522 C 0.11208 0.75196 0.11268
 N523 N 0.11320 0.77477 0.08949
 C524 C 0.08943 0.77232 0.06712
 C525 C 0.06359 0.74556 0.06762
 N526 N 0.06257 0.72280 0.09098
 N527 N 0.08439 0.70319 0.13736
 C528 C 0.10782 0.70594 0.16011
 C529 C 0.13431 0.73201 0.15885
 N530 N 0.13580 0.75441 0.13502
 H531 H 0.09101 0.79076 0.04879
 H532 H 0.10608 0.68770 0.17867
 C533 C 0.58646 0.22686 0.60882
 C534 C 0.61375 0.25181 0.61161
 N535 N 0.61700 0.27796 0.59218
 C536 C 0.59416 0.28033 0.57001
 C537 C 0.56697 0.25521 0.56677
 N538 N 0.56386 0.22895 0.58628
 N539 N 0.58282 0.20116 0.62898
 C540 C 0.60524 0.19933 0.65188
 C541 C 0.63278 0.22412 0.65444
 N542 N 0.63634 0.24975 0.63407
 H543 H 0.59741 0.30144 0.55478
 H544 H 0.60178 0.17865 0.66774
 C545 C 0.71812 0.09294 0.90135
 C546 C 0.74272 0.09890 0.87804
 N547 N 0.76644 0.08250 0.87932
 C548 C 0.76677 0.06038 0.90292
 C549 C 0.74201 0.05400 0.92614
 N550 N 0.71812 0.07043 0.92470
 N551 N 0.69493 0.11010 0.90051
 C552 C 0.69525 0.13297 0.87741
 C553 C 0.71966 0.13869 0.85380
 N554 N 0.74275 0.12132 0.85473
 H555 H 0.78603 0.04768 0.90337
 H556 H 0.67642 0.14622 0.87720
 C557 C 0.22898 0.59636 0.39399
 C558 C 0.25449 0.62316 0.39093
 N559 N 0.28088 0.62548 0.40973
 C560 C 0.28295 0.60222 0.43160
 C561 C 0.25724 0.57562 0.43521
 N562 N 0.23076 0.57339 0.41628
 N563 N 0.20300 0.59366 0.37446
 C564 C 0.20137 0.61658 0.35196
 C565 C 0.22665 0.64367 0.34926
 N566 N 0.25261 0.64627 0.36893
 H567 H 0.30424 0.60477 0.44640
 H568 H 0.18044 0.61390 0.33662
 C569 C 0.28304 0.91032 0.90035
 C570 C 0.25319 0.89553 0.88739
 N571 N 0.22632 0.90399 0.89846
 C572 C 0.22791 0.92664 0.92194
 C573 C 0.25786 0.94173 0.93499
 N574 N 0.28471 0.93303 0.92368
 N575 N 0.30990 0.90183 0.88931
 C576 C 0.30829 0.87906 0.86596
 C577 C 0.27837 0.86401 0.85288
 N578 N 0.25155 0.87289 0.86399
 H579 H 0.20598 0.93279 0.93017
 H580 H 0.33024 0.87327 0.85738
 C581 C 0.75444 0.39238 0.38981
 C582 C 0.78323 0.38644 0.37771
 N583 N 0.81151 0.40261 0.39013
 C584 C 0.81233 0.42460 0.41411
 C585 C 0.78351 0.43071 0.42631
 N586 N 0.75520 0.41432 0.41377
 N587 N 0.72619 0.37607 0.37747
 C588 C 0.72537 0.35410 0.35344
 C589 C 0.75424 0.34811 0.34103
 N590 N 0.78246 0.36450 0.35379
 H591 H 0.83526 0.43721 0.42344
 H592 H 0.70237 0.34104 0.34480
 C593 C 0.10490 0.28017 0.90119
 C594 C 0.10741 0.25046 0.88832
 N595 N 0.08748 0.22330 0.89915
 C596 C 0.06501 0.22442 0.92225
 C597 C 0.06187 0.25424 0.93483
 N598 N 0.08206 0.28142 0.92381
 N599 N 0.12542 0.30726 0.89095
 C600 C 0.14831 0.30601 0.86830
 C601 C 0.15048 0.27633 0.85487
 N602 N 0.12982 0.24925 0.86527
 H603 H 0.04953 0.20224 0.93032
 H604 H 0.16417 0.32799 0.86033
 C605 C 0.59078 0.75221 0.39392
 C606 C 0.61532 0.77888 0.38654
 N607 N 0.61721 0.80663 0.40313
 C608 C 0.59562 0.80895 0.42681
 C609 C 0.57114 0.78219 0.43446
 N610 N 0.56943 0.75440 0.41777
 N611 N 0.58852 0.72463 0.37695
 C612 C 0.60964 0.72253 0.35276
 C613 C 0.63435 0.74917 0.34531
 N614 N 0.63662 0.77670 0.36262
 H615 H 0.59771 0.83138 0.43964
 H616 H 0.60738 0.70018 0.33976
 C617 C 0.90454 0.74521 0.89332
 C618 C 0.88432 0.71528 0.88712
 N619 N 0.88768 0.68937 0.90471
 C620 C 0.91036 0.69199 0.92826
 C621 C 0.93046 0.72210 0.93489
 N622 N 0.92684 0.74796 0.91712
 N623 N 0.90180 0.77099 0.87523
 C624 C 0.87974 0.76820 0.85110
 C625 C 0.85920 0.73833 0.84498
 N626 N 0.86193 0.71255 0.86335
 H627 H 0.91241 0.67083 0.94180
 H628 H 0.87795 0.78917 0.83711
 C629 C 0.39140 0.24002 0.40429
 C630 C 0.39449 0.26722 0.38444
 N631 N 0.41914 0.29274 0.38937
 C632 C 0.44095 0.29227 0.41324
 C633 C 0.43824 0.26486 0.43286
 N634 N 0.41342 0.23935 0.42781
 N635 N 0.36643 0.21473 0.39975
 C636 C 0.34435 0.21538 0.37620
 C637 C 0.34755 0.24243 0.35596
 N638 N 0.37273 0.26770 0.36060
 H639 H 0.46043 0.31292 0.41655
 H640 H 0.32486 0.19474 0.37291
 C641 C 0.76261 0.89455 0.89069
 C642 C 0.73272 0.87802 0.87919
 N643 N 0.70555 0.88466 0.89164
 C644 C 0.70688 0.90717 0.91514
 C645 C 0.73679 0.92387 0.92680
 N646 N 0.76401 0.91707 0.91420
 N647 N 0.78973 0.88770 0.87827
 C648 C 0.78835 0.86514 0.85472
 C649 C 0.75836 0.84859 0.84292
 N650 N 0.73131 0.85554 0.85576
 H651 H 0.68477 0.91195 0.92458
 H652 H 0.81043 0.85989 0.84588
 C653 C 0.23367 0.40480 0.39989
 C654 C 0.26250 0.39817 0.38874
 N655 N 0.29071 0.41503 0.40078
 C656 C 0.29138 0.43822 0.42355
 C657 C 0.26248 0.44483 0.43491
 N658 N 0.23430 0.42784 0.42266
 N659 N 0.20550 0.38823 0.38765
 C660 C 0.20474 0.36510 0.36486
 C661 C 0.23359 0.35794 0.35376
 N662 N 0.26181 0.37502 0.36603
 H663 H 0.31422 0.45122 0.43275
 H664 H 0.18181 0.35301 0.35521
 C665 C 0.24673 0.10345 0.90099
 C666 C 0.27629 0.11902 0.88785
 N667 N 0.30356 0.11108 0.89847
 C668 C 0.30260 0.08821 0.92168
 C669 C 0.27291 0.07242 0.93493
 N670 N 0.24572 0.08063 0.92409
 N671 N 0.21948 0.11145 0.89055
 C672 C 0.22037 0.13421 0.86730
 C673 C 0.24995 0.14975 0.85367
 N674 N 0.27725 0.14175 0.86461
 H675 H 0.32480 0.08247 0.92959
 H676 H 0.19821 0.14036 0.86003
 C677 C 0.74902 0.58751 0.39208
 C678 C 0.77696 0.60446 0.37683
 N679 N 0.80577 0.59874 0.38553
 C680 C 0.80793 0.57678 0.40886
 C681 C 0.77996 0.55966 0.42421
 N682 N 0.75112 0.56554 0.41533
 N683 N 0.72027 0.59346 0.38359
 C684 C 0.71810 0.61549 0.36033
 C685 C 0.74605 0.63242 0.34463
 N686 N 0.77483 0.62641 0.35360
 H687 H 0.83124 0.57276 0.41531
 H688 H 0.69482 0.62000 0.35473
 C689 C 0.09310 0.74947 0.89329
 C690 C 0.10338 0.72081 0.88875
 N691 N 0.09077 0.69493 0.90742
 C692 C 0.06836 0.69639 0.93053
 C693 C 0.05844 0.72533 0.93567
 N694 N 0.07124 0.75115 0.91676
 N695 N 0.10497 0.77510 0.87404
 C696 C 0.12677 0.77341 0.85041
 C697 C 0.13758 0.74494 0.84617
 N698 N 0.12564 0.71928 0.86560
 H699 H 0.05880 0.67529 0.94498
 H700 H 0.13603 0.79424 0.83549
 C701 C 0.58304 0.22394 0.39110
 C702 C 0.61125 0.24777 0.38819
 N703 N 0.61586 0.27387 0.40776
 C704 C 0.59354 0.27722 0.43026
 C705 C 0.56553 0.25312 0.43373
 N706 N 0.56100 0.22696 0.41400
 N707 N 0.57808 0.19829 0.37085
 C708 C 0.60011 0.19536 0.34781
 C709 C 0.62864 0.21890 0.34526
 N710 N 0.63348 0.24455 0.36564
 H711 H 0.59789 0.29823 0.44564
 H712 H 0.59565 0.17467 0.33199
 C713 C 0.90248 0.27933 0.89609
 C714 C 0.88488 0.24941 0.88571
 N715 N 0.89105 0.22226 0.89875
 C716 C 0.91403 0.22364 0.92180
 C717 C 0.93176 0.25359 0.93231
 N718 N 0.92548 0.28075 0.91905
 N719 N 0.89625 0.30646 0.88305
 C720 C 0.87307 0.30508 0.86020
 C721 C 0.85516 0.27510 0.84979
 N722 N 0.86181 0.24800 0.86286
 H723 H 0.91836 0.20156 0.93177
 H724 H 0.86913 0.32718 0.84998
 C725 C 0.40465 0.76142 0.39753
 C726 C 0.40067 0.79071 0.38483
 N727 N 0.41808 0.81854 0.39713
 C728 C 0.43941 0.81841 0.42155
 C729 C 0.44357 0.78908 0.43435
 N730 N 0.42594 0.76124 0.42192
 N731 N 0.38711 0.73362 0.38534
 C732 C 0.36581 0.73373 0.36088
 C733 C 0.36181 0.76309 0.34780
 N734 N 0.37941 0.79087 0.36045
 H735 H 0.45303 0.84099 0.43077
 H736 H 0.35175 0.71110 0.35238
 C737 C 0.28328 0.91328 0.10745
 C738 C 0.25332 0.89730 0.11944
 N739 N 0.22626 0.90392 0.10671
 C740 C 0.22779 0.92584 0.08247
 C741 C 0.25780 0.94186 0.07029
 N742 N 0.28485 0.93510 0.08322
 N743 N 0.31033 0.90681 0.12031
 C744 C 0.30882 0.88482 0.14445
 C745 C 0.27879 0.86832 0.15633
 N746 N 0.25177 0.87530 0.14349
 H747 H 0.20581 0.93065 0.07282
 H748 H 0.33091 0.88068 0.15444
 C749 C 0.75559 0.39821 0.60262
 C750 C 0.78438 0.39412 0.61634
 N751 N 0.81268 0.41045 0.60385
 C752 C 0.81348 0.43080 0.57828
 C753 C 0.78463 0.43507 0.56451
 N754 N 0.75636 0.41853 0.57715
 N755 N 0.72732 0.38176 0.61493
 C756 C 0.72645 0.36144 0.64050
 C757 C 0.75527 0.35735 0.65467
 N758 N 0.78357 0.37384 0.64188
 H759 H 0.83639 0.44360 0.56894
 H760 H 0.70343 0.34817 0.64902
 C761 C 0.72059 0.07464 0.10685
 C762 C 0.74602 0.10157 0.10879
 N763 N 0.77106 0.10457 0.08784
 C764 C 0.77175 0.08188 0.06486
 C765 C 0.74593 0.05526 0.06236
 N766 N 0.72096 0.05236 0.08353
 N767 N 0.69593 0.07120 0.12830
 C768 C 0.69547 0.09359 0.15161
 C769 C 0.72055 0.12095 0.15319
 N770 N 0.74526 0.12425 0.13163
 H771 H 0.79190 0.08492 0.04834
 H772 H 0.67546 0.09040 0.16832
 C773 C 0.22869 0.59774 0.60833
 C774 C 0.25449 0.62417 0.61174
 N775 N 0.28112 0.62614 0.59323
 C776 C 0.28315 0.60288 0.57136
 C777 C 0.25718 0.57657 0.56748
 N778 N 0.23047 0.57473 0.58611
 N779 N 0.20241 0.59540 0.62750
 C780 C 0.20079 0.61827 0.65001
 C781 C 0.22645 0.64496 0.65322
 N782 N 0.25269 0.64723 0.63383
 H783 H 0.30465 0.60515 0.55684
 H784 H 0.17960 0.61583 0.66501
 C785 C 0.88969 0.71617 0.10221
 C786 C 0.88313 0.74584 0.11057
 N787 N 0.90056 0.77303 0.09685
 C788 C 0.92421 0.77186 0.07502
 C789 C 0.93076 0.74209 0.06650
 N790 N 0.91324 0.71497 0.08047
 N791 N 0.87240 0.68899 0.11592
 C792 C 0.84861 0.69004 0.13752
 C793 C 0.84161 0.71972 0.14586
 N794 N 0.85938 0.74696 0.13219
 H795 H 0.93762 0.79389 0.06436
 H796 H 0.83582 0.66791 0.14845
 C797 C 0.39886 0.23821 0.60584
 C798 C 0.39286 0.26756 0.61614
 N799 N 0.40964 0.29523 0.60275
 C800 C 0.43217 0.29484 0.57943
 C801 C 0.43810 0.26540 0.56890
 N802 N 0.42119 0.23779 0.58251
 N803 N 0.38242 0.21059 0.61944
 C804 C 0.35996 0.21087 0.64276
 C805 C 0.35335 0.24023 0.65297
 N806 N 0.37033 0.26790 0.63936
 H807 H 0.44513 0.31726 0.56915
 H808 H 0.34795 0.18836 0.65348
 C809 C 0.09222 0.24246 0.10568
 C810 C 0.10664 0.27236 0.11875
 N811 N 0.09910 0.29929 0.10669
 C812 C 0.07766 0.29766 0.08210
 C813 C 0.06291 0.26768 0.06902
 N814 N 0.07063 0.24074 0.08125
 N815 N 0.10022 0.21565 0.11745
 C816 C 0.12189 0.21731 0.14187
 C817 C 0.13623 0.24730 0.15550
 N818 N 0.12811 0.27404 0.14321
 H819 H 0.07204 0.31954 0.07306
 H820 H 0.12811 0.19541 0.14985
 C821 C 0.60018 0.75159 0.60190
 C822 C 0.61840 0.77976 0.61549
 N823 N 0.61339 0.80858 0.60582
 C824 C 0.59091 0.81054 0.58308
 C825 C 0.57251 0.78234 0.56934
 N826 N 0.57767 0.75347 0.57920
 N827 N 0.60548 0.72282 0.61142
 C828 C 0.62810 0.72090 0.63407
 C829 C 0.64636 0.74914 0.64804
 N830 N 0.64093 0.77788 0.63809
 H831 H 0.58748 0.83388 0.57585
 H832 H 0.63205 0.69758 0.64049
   
