data_POSCAR
  _audit_creation_date              2014-09-24
  _audit_creation_method            'ToBaCCo'
  _symmetry_space_group_name_H-M    'P1'
  _symmetry_Int_Tables_number       1
  _symmetry_cell_setting            triclinic
  loop_
  _symmetry_equiv_pos_as_xyz
 x,y,z
_cell_length_a 21.7964
_cell_length_b 21.7965
_cell_length_c 21.7968
_cell_angle_alpha 90.288700
_cell_angle_beta 89.999900
_cell_angle_gamma 90.007000
loop_
  _atom_site_label
  _atom_site_type_symbol
  _atom_site_fract_x
  _atom_site_fract_y
  _atom_site_fract_z
C1 C 0.50030 0.99961 -0.66665
 C2 C 0.44531 1.00780 -0.63455
 C3 C 0.44563 1.00990 -0.57037
 C4 C 0.50034 0.99986 -0.53702
 C5 C 0.55502 0.98970 -0.57046
 C6 C 0.55531 0.99155 -0.63463
 C7 C 0.50035 1.00000 -0.46810
 C8 C 0.55505 1.01018 -0.43464
 C9 C 0.55526 1.00839 -0.37052
 C10 C 0.50035 1.00027 -0.33853
 C11 C 0.44544 0.99201 -0.37057
 C12 C 0.44565 0.98995 -0.43469
 H13 H 0.50028 0.99953 -0.71647
 H14 H 0.40287 1.01975 -0.54721
 H15 H 0.59780 0.97997 -0.54739
 H16 H 0.59791 1.01988 -0.45751
 H17 H 0.50035 1.00037 -0.28876
 H18 H 0.40279 0.98013 -0.45762
 C19 C -0.66672 1.50033 0.00083
 C20 C -0.63478 1.44533 0.00911
 C21 C -0.57061 1.44552 0.01113
 C22 C -0.53709 1.50007 0.00093
 C23 C -0.57037 1.55476 -0.00932
 C24 C -0.63454 1.55520 -0.00740
 C25 C -0.46817 1.49992 0.00092
 C26 C -0.43462 1.55462 0.01088
 C27 C -0.37050 1.55469 0.00889
 C28 C -0.33861 1.49965 0.00081
 C29 C -0.37074 1.44474 -0.00722
 C30 C -0.43487 1.44508 -0.00909
 H31 H -0.71655 1.50042 0.00077
 H32 H -0.54760 1.40277 0.02103
 H33 H -0.54716 1.59740 -0.01921
 H34 H -0.45742 1.59759 0.02055
 H35 H -0.28884 1.49956 0.00074
 H36 H -0.45787 1.40219 -0.01874
 C37 C 0.00023 0.33594 0.50045
 C38 C 0.00852 0.36761 0.44544
 C39 C 0.01076 0.43178 0.44566
 C40 C 0.00078 0.46553 0.50035
 C41 C -0.00944 0.43247 0.55506
 C42 C -0.00778 0.36834 0.55535
 C43 C 0.00101 0.53446 0.50030
 C44 C 0.01120 0.56817 0.55497
 C45 C 0.00938 0.63236 0.55517
 C46 C 0.00129 0.66405 0.50014
 C47 C -0.00694 0.63168 0.44527
 C48 C -0.00903 0.56757 0.44558
 H49 H -0.00001 0.28615 0.50067
 H50 H 0.02064 0.45459 0.40287
 H51 H -0.01910 0.45567 0.59789
 H52 H 0.02091 0.54530 0.59778
 H53 H 0.00135 0.71385 0.49991
 H54 H -0.01887 0.54442 0.40276
 O55 O -0.15725 1.00303 -0.08195
 O56 O 0.15789 0.99714 -0.08193
 O57 O -0.00324 1.08226 -0.15681
 O58 O 0.00385 0.91804 -0.15782
 O59 O 0.00355 0.84225 -0.08447
 O60 O -0.00297 1.15792 -0.08254
 O61 O 0.08404 0.99743 -0.15760
 O62 O -0.08337 1.00290 -0.15760
 Zr63 Zr 0.00032 1.00010 -0.10757
 O64 O 0.05582 0.94475 -0.05548
 O65 O -0.05522 1.05534 -0.05483
 C66 C -0.14000 1.00530 -0.13875
 C67 C 0.14067 0.99501 -0.13875
 C68 C -0.00554 1.13905 -0.13926
 C69 C 0.00612 0.86122 -0.14097
 H70 H 0.08198 1.08215 -0.08110
 O71 O 0.05584 1.05584 -0.05505
 H72 H -0.08139 0.91802 -0.08215
 O73 O -0.05525 0.94426 -0.05577
 O74 O 0.15791 1.00366 0.08232
 O75 O -0.15733 0.99614 0.08223
 O76 O 0.08200 1.15779 0.00463
 O77 O 0.08264 0.84254 -0.00410
 O78 O -0.08157 0.84224 0.00256
 O79 O -0.08221 1.15738 -0.00209
 O80 O 0.00342 1.08193 0.15837
 O81 O -0.00291 0.91771 0.15736
 O82 O 0.00287 1.15773 0.08502
 O83 O -0.00234 0.84206 0.08308
 O84 O 0.15794 1.08418 0.00367
 O85 O -0.15773 1.08336 -0.00224
 O86 O -0.15738 0.91594 0.00267
 O87 O 0.15829 0.91648 -0.00313
 O88 O 0.08413 1.00294 0.15809
 O89 O -0.08357 0.99668 0.15803
 Zr90 Zr 0.10816 1.00022 0.00024
 Zr91 Zr -0.10753 0.99976 0.00020
 Zr92 Zr 0.00004 1.10784 0.00093
 Zr93 Zr 0.00049 0.89214 -0.00040
 Zr94 Zr 0.00028 0.99987 0.10811
 O95 O -0.05500 0.94442 0.05530
 O96 O 0.05556 1.05544 0.05598
 C97 C 0.14073 1.00574 0.13914
 C98 C -0.14016 0.99392 0.13903
 C99 C 0.13886 1.14074 0.00666
 C100 C 0.13942 0.85984 -0.00612
 C101 C -0.13842 0.85935 0.00486
 C102 C -0.13898 1.14002 -0.00443
 C103 C 0.00548 1.13877 0.14152
 C104 C -0.00499 0.86092 0.13980
 H105 H -0.08178 1.08157 0.08261
 O106 O -0.05550 1.05546 0.05625
 H107 H 0.08232 0.91822 0.08162
 O108 O 0.05606 0.94440 0.05557
 C109 C 0.29109 1.01696 0.26599
 C110 C 0.29796 1.03623 0.20542
 C111 C 0.24846 1.03378 0.16513
 C112 C 0.39137 1.01229 0.33410
 C113 C 0.18351 0.99451 0.24624
 C114 C 0.23362 0.99672 0.28670
 C115 C 0.34455 1.01492 0.30471
 C116 C 0.19088 1.01188 0.18462
 H117 H 0.34209 1.05200 0.18887
 H118 H 0.25563 1.04847 0.11826
 H119 H 0.13977 0.97757 0.26255
 H120 H 0.22787 0.98152 0.33359
 C121 C -0.29051 0.98239 0.26576
 C122 C -0.23303 1.00258 0.28671
 C123 C -0.18293 1.00488 0.24627
 C124 C -0.39077 0.98702 0.33395
 C125 C -0.24790 0.96582 0.16467
 C126 C -0.29739 0.96327 0.20495
 C127 C -0.34396 0.98438 0.30452
 C128 C -0.19032 0.98767 0.18443
 H129 H -0.22728 1.01767 0.33379
 H130 H -0.13919 1.02177 0.26278
 H131 H -0.25507 0.95125 0.11762
 H132 H -0.34153 0.94754 0.18821
 C133 C -0.28892 1.01700 -0.26721
 C134 C -0.29748 1.03275 -0.20566
 C135 C -0.24861 1.02990 -0.16466
 C136 C -0.38790 1.01315 -0.33715
 C137 C -0.18105 0.99706 -0.24687
 C138 C -0.23050 0.99968 -0.28805
 C139 C -0.34157 1.01551 -0.30703
 C140 C -0.18997 1.01112 -0.18443
 H141 H -0.34239 1.04619 -0.18901
 H142 H -0.25708 1.04198 -0.11715
 H143 H -0.13648 0.98261 -0.26346
 H144 H -0.22346 0.98718 -0.33569
 C145 C 0.28963 0.98355 -0.26731
 C146 C 0.23118 1.00071 -0.28801
 C147 C 0.18172 1.00327 -0.24680
 C148 C 0.38861 0.98734 -0.33723
 C149 C 0.24935 0.97071 -0.16488
 C150 C 0.29823 0.96792 -0.20590
 C151 C 0.34227 0.98502 -0.30713
 C152 C 0.19067 0.98931 -0.18448
 H153 H 0.22410 1.01311 -0.33554
 H154 H 0.13711 1.01758 -0.26327
 H155 H 0.25787 0.95873 -0.11747
 H156 H 0.34317 0.95461 -0.18936
 C157 C 0.26552 1.29126 0.01825
 C158 C 0.28644 1.23367 -0.00185
 C159 C 0.24602 1.18354 -0.00418
 C160 C 0.33373 1.39148 0.01365
 C161 C 0.16451 1.24868 0.03468
 C162 C 0.20477 1.29822 0.03724
 C163 C 0.30427 1.34471 0.01628
 C164 C 0.18423 1.19098 0.01293
 H165 H 0.33347 1.22786 -0.01684
 H166 H 0.26251 1.13971 -0.02099
 H167 H 0.11751 1.25591 0.04916
 H168 H 0.18806 1.34244 0.05290
 C169 C 0.26627 0.70953 -0.01724
 C170 C 0.28688 0.76692 0.00374
 C171 C 0.24645 0.81706 0.00583
 C172 C 0.33419 0.60916 -0.01211
 C173 C 0.16560 0.75231 -0.03506
 C174 C 0.20587 0.70278 -0.03740
 C175 C 0.30488 0.65600 -0.01495
 C176 C 0.18496 0.80977 -0.01238
 H177 H 0.33363 0.77256 0.01964
 H178 H 0.26263 0.86071 0.02340
 H179 H 0.11884 0.74525 -0.05039
 H180 H 0.18940 0.65872 -0.05375
 C181 C -0.26686 0.71036 0.01664
 C182 C -0.28785 0.76892 0.00044
 C183 C -0.24665 0.81835 -0.00232
 C184 C -0.33702 0.61149 0.01337
 C185 C -0.16410 0.75044 0.02809
 C186 C -0.20511 0.70159 0.03106
 C187 C -0.30680 0.65779 0.01547
 C188 C -0.18404 0.80927 0.01050
 H189 H -0.33566 0.77612 -0.01103
 H190 H -0.26340 0.86306 -0.01581
 H191 H -0.11645 0.74179 0.03919
 H192 H -0.18834 0.65656 0.04363
 C193 C -0.26762 1.28880 -0.01580
 C194 C -0.20619 1.29731 -0.03169
 C195 C -0.16516 1.24848 -0.02894
 C196 C -0.33750 1.38782 -0.01191
 C197 C -0.24709 1.18103 0.00408
 C198 C -0.28831 1.23045 0.00157
 C199 C -0.30743 1.34145 -0.01425
 C200 C -0.18475 1.18992 -0.01012
 H201 H -0.18965 1.34217 -0.04517
 H202 H -0.11773 1.25692 -0.04113
 H203 H -0.26354 1.13652 0.01857
 H204 H -0.33586 1.22345 0.01417
 C205 C 0.01691 1.26649 0.29179
 C206 C -0.00132 1.28738 0.23379
 C207 C -0.00377 1.24651 0.18385
 C208 C 0.01286 1.33580 0.39159
 C209 C 0.03108 1.16455 0.25006
 C210 C 0.03377 1.20524 0.29942
 C211 C 0.01526 1.30589 0.34495
 C212 C 0.01134 1.18431 0.19187
 H213 H -0.01466 1.33480 0.22747
 H214 H -0.01898 1.26308 0.13963
 H215 H 0.04400 1.11723 0.25782
 H216 H 0.04793 1.18855 0.34398
 C217 C -0.01711 1.26666 -0.28827
 C218 C -0.03518 1.20570 -0.29611
 C219 C -0.03254 1.16508 -0.24710
 C220 C -0.01267 1.33544 -0.38772
 C221 C 0.00459 1.24660 -0.18074
 C222 C 0.00219 1.28739 -0.23035
 C223 C -0.01523 1.30582 -0.34121
 C224 C -0.01164 1.18465 -0.18905
 H225 H -0.05019 1.18913 -0.34061
 H226 H -0.04633 1.11795 -0.25501
 H227 H 0.02072 1.26299 -0.13662
 H228 H 0.01648 1.33458 -0.22386
 C229 C 0.01793 0.73349 -0.29119
 C230 C 0.03473 0.79476 -0.29882
 C231 C 0.03195 0.83546 -0.24947
 C232 C 0.01383 0.66416 -0.39099
 C233 C -0.00287 0.75345 -0.18328
 C234 C -0.00032 0.71258 -0.23321
 C235 C 0.01629 0.69408 -0.34436
 C236 C 0.01216 0.81567 -0.19130
 H237 H 0.04891 0.81147 -0.34337
 H238 H 0.04480 0.88280 -0.25722
 H239 H -0.01812 0.73687 -0.13908
 H240 H -0.01363 0.66515 -0.22689
 C241 C -0.01618 0.73332 0.28885
 C242 C 0.00322 0.71264 0.23095
 C243 C 0.00551 0.75341 0.18132
 C244 C -0.01174 0.66458 0.38833
 C245 C -0.03190 0.83483 0.24764
 C246 C -0.03443 0.79423 0.29667
 C247 C -0.01427 0.69418 0.34180
 C248 C -0.01093 0.81532 0.18961
 H249 H 0.01765 0.66549 0.22448
 H250 H 0.02171 0.73707 0.13721
 H251 H -0.04585 0.88191 0.25554
 H252 H -0.04952 0.81076 0.34116
   
