data_POSCAR
  _audit_creation_date              2014-09-24
  _audit_creation_method            'ToBaCCo'
  _symmetry_space_group_name_H-M    'P1'
  _symmetry_Int_Tables_number       1
  _symmetry_cell_setting            triclinic
  loop_
  _symmetry_equiv_pos_as_xyz
 x,y,z
_cell_length_a 56.5389
_cell_length_b 32.3388
_cell_length_c 19.3102
_cell_angle_alpha 90.138000
_cell_angle_beta 89.921600
_cell_angle_gamma 90.080900
loop_
  _atom_site_label
  _atom_site_type_symbol
  _atom_site_fract_x
  _atom_site_fract_y
  _atom_site_fract_z
C1 C 0.74878 0.24591 0.46639
 C2 C 0.74881 0.24605 0.53712
 C3 C 0.72854 0.26239 0.57810
 C4 C 0.76916 0.22957 0.57705
 C5 C 0.76779 0.22509 0.42597
 C6 C 0.72986 0.26666 0.42601
 C7 C 0.73257 0.29093 0.63131
 C8 C 0.71376 0.30709 0.66966
 C9 C 0.69001 0.29533 0.65593
 C10 C 0.68642 0.26557 0.60278
 C11 C 0.70537 0.24916 0.56524
 C12 C 0.79219 0.24433 0.56555
 C13 C 0.81134 0.22704 0.60076
 C14 C 0.80776 0.19498 0.64875
 C15 C 0.78457 0.18125 0.66178
 C16 C 0.76545 0.19849 0.62641
 C17 C 0.77381 0.18366 0.43870
 C18 C 0.79257 0.16518 0.40312
 C19 C 0.80531 0.18749 0.35304
 C20 C 0.79867 0.22842 0.33848
 C21 C 0.78008 0.24703 0.37464
 C22 C 0.71755 0.24453 0.37492
 C23 C 0.69921 0.26321 0.33813
 C24 C 0.69290 0.30452 0.35144
 C25 C 0.70569 0.32697 0.40142
 C26 C 0.72409 0.30829 0.43804
 H27 H 0.75036 0.30158 0.64218
 H28 H 0.71820 0.33075 0.70701
 H29 H 0.66917 0.25284 0.59151
 H30 H 0.70191 0.22588 0.52611
 H31 H 0.79537 0.26879 0.52845
 H32 H 0.82898 0.23813 0.58928
 H33 H 0.74778 0.18698 0.63649
 H34 H 0.76416 0.16581 0.47679
 H35 H 0.79706 0.13337 0.41444
 H36 H 0.80827 0.24636 0.30037
 H37 H 0.77563 0.27892 0.36373
 H38 H 0.72190 0.21252 0.36434
 H39 H 0.69001 0.24533 0.29906
 H40 H 0.70118 0.35874 0.41323
 H41 H 0.73367 0.32615 0.47638
 H42 H 0.78119 0.15717 0.69939
 C43 C 0.24978 0.74686 0.53464
 C44 C 0.24982 0.74858 0.46401
 C45 C 0.27015 0.73308 0.42270
 C46 C 0.22961 0.76598 0.42451
 C47 C 0.23085 0.76679 0.57644
 C48 C 0.26885 0.72539 0.57351
 C49 C 0.29317 0.74762 0.43506
 C50 C 0.31231 0.73112 0.39853
 C51 C 0.30873 0.70021 0.34830
 C52 C 0.28556 0.68677 0.33439
 C53 C 0.26644 0.70316 0.37114
 C54 C 0.23365 0.79706 0.37536
 C55 C 0.21481 0.81429 0.33878
 C56 C 0.19152 0.80059 0.35032
 C57 C 0.18758 0.76876 0.39853
 C58 C 0.20646 0.75147 0.43499
 C59 C 0.21854 0.74371 0.62626
 C60 C 0.20025 0.76174 0.66448
 C61 C 0.19399 0.80332 0.65387
 C62 C 0.20678 0.82667 0.60513
 C63 C 0.22514 0.80865 0.56717
 C64 C 0.27507 0.68435 0.55790
 C65 C 0.29389 0.66535 0.59216
 C66 C 0.30649 0.68670 0.64376
 C67 C 0.29968 0.72722 0.66105
 C68 C 0.28104 0.74636 0.62624
 H69 H 0.29633 0.77136 0.47362
 H70 H 0.32992 0.74261 0.40943
 H71 H 0.28227 0.66277 0.29640
 H72 H 0.24879 0.69171 0.36068
 H73 H 0.25141 0.80839 0.36599
 H74 H 0.21848 0.83820 0.30110
 H75 H 0.20301 0.72695 0.47177
 H76 H 0.22286 0.71150 0.63476
 H77 H 0.19106 0.74315 0.70254
 H78 H 0.20231 0.85866 0.59532
 H79 H 0.23474 0.82725 0.52996
 H80 H 0.26551 0.66721 0.51862
 H81 H 0.29850 0.63385 0.57869
 H82 H 0.30917 0.74445 0.70036
 H83 H 0.27646 0.77794 0.63934
 H84 H 0.16984 0.75770 0.40892
 C85 C 0.24885 0.25550 -0.53584
 C86 C 0.24895 0.25385 -0.46517
 C87 C 0.22880 0.23627 -0.42526
 C88 C 0.26921 0.26975 -0.42403
 C89 C 0.26791 0.27687 -0.57537
 C90 C 0.22985 0.23532 -0.57693
 C91 C 0.20559 0.24992 -0.43624
 C92 C 0.18679 0.23264 -0.39925
 C93 C 0.19069 0.20167 -0.34893
 C94 C 0.21428 0.18913 -0.33707
 C95 C 0.23299 0.20617 -0.37475
 C96 C 0.26531 0.29972 -0.37269
 C97 C 0.28429 0.31637 -0.33576
 C98 C 0.30753 0.30314 -0.34917
 C99 C 0.31130 0.27215 -0.39919
 C100 C 0.29229 0.25545 -0.43604
 C101 C 0.27945 0.25623 -0.62954
 C102 C 0.29817 0.27501 -0.66483
 C103 C 0.30608 0.31508 -0.64653
 C104 C 0.29380 0.33603 -0.59317
 C105 C 0.27479 0.31742 -0.55896
 C106 C 0.22476 0.19321 -0.56874
 C107 C 0.20621 0.17485 -0.60540
 C108 C 0.19222 0.19811 -0.65187
 C109 C 0.19806 0.24032 -0.66090
 C110 C 0.21667 0.25849 -0.62421
 H111 H 0.20203 0.27418 -0.47334
 H112 H 0.16934 0.24505 -0.40865
 H113 H 0.21849 0.16469 -0.30105
 H114 H 0.25080 0.19522 -0.36537
 H115 H 0.24759 0.31082 -0.36221
 H116 H 0.28078 0.33962 -0.29664
 H117 H 0.29559 0.23184 -0.47471
 H118 H 0.27441 0.22494 -0.64327
 H119 H 0.30716 0.25682 -0.70384
 H120 H 0.29821 0.36747 -0.57895
 H121 H 0.26556 0.33460 -0.51904
 H122 H 0.23493 0.17465 -0.53292
 H123 H 0.20237 0.14282 -0.59417
 H124 H 0.18888 0.25950 -0.69788
 H125 H 0.22059 0.29095 -0.63203
 H126 H 0.32900 0.26150 -0.41095
 C127 C -0.25024 0.75168 -0.46652
 C128 C -0.25082 0.75415 -0.53705
 C129 C -0.23189 0.77544 -0.57710
 C130 C -0.27024 0.73489 -0.57777
 C131 C -0.27022 0.73381 -0.42649
 C132 C -0.22972 0.76701 -0.42584
 C133 C -0.22465 0.81572 -0.56030
 C134 C -0.20585 0.83426 -0.59553
 C135 C -0.19417 0.81350 -0.65022
 C136 C -0.20242 0.77370 -0.66873
 C137 C -0.22092 0.75498 -0.63247
 C138 C -0.28328 0.75881 -0.62434
 C139 C -0.30177 0.74126 -0.66233
 C140 C -0.30766 0.69893 -0.65532
 C141 C -0.29395 0.67501 -0.60905
 C142 C -0.27550 0.69275 -0.57114
 C143 C -0.26615 0.70109 -0.38079
 C144 C -0.28485 0.68322 -0.34419
 C145 C -0.30827 0.69790 -0.35169
 C146 C -0.31196 0.73173 -0.39675
 C147 C -0.29319 0.74941 -0.43340
 C148 C -0.20668 0.75313 -0.43993
 C149 C -0.18741 0.76983 -0.40424
 C150 C -0.19085 0.80027 -0.35310
 C151 C -0.21403 0.81297 -0.33741
 C152 C -0.23327 0.79639 -0.37332
 H153 H -0.23345 0.83275 -0.51937
 H154 H -0.20113 0.86553 -0.58100
 H155 H -0.19387 0.75565 -0.70874
 H156 H -0.22626 0.72389 -0.64649
 H157 H -0.27921 0.79131 -0.63102
 H158 H -0.31073 0.76099 -0.69893
 H159 H -0.26541 0.67359 -0.53602
 H160 H -0.24844 0.68905 -0.37395
 H161 H -0.28054 0.65876 -0.30831
 H162 H -0.32945 0.74378 -0.40673
 H163 H -0.29664 0.77505 -0.46792
 H164 H -0.20363 0.72982 -0.47930
 H165 H -0.16980 0.75891 -0.41655
 H166 H -0.21724 0.83660 -0.29872
 H167 H -0.25092 0.80738 -0.36152
 H168 H -0.29788 0.64284 -0.59923
 O169 O -0.03342 0.92881 0.12603
 O170 O -0.05905 0.96552 0.05780
 C171 C -0.05460 0.93932 0.10673
 O172 O 0.03313 1.07550 0.12227
 O173 O 0.05920 1.03622 0.05937
 C174 C 0.05446 1.06474 0.10455
 O175 O -0.03356 1.07073 0.12724
 O176 O -0.05914 1.03392 0.05854
 C177 C -0.05474 1.06007 0.10786
 O178 O 0.03323 0.92453 0.12029
 O179 O 0.05930 0.96459 0.05881
 C180 C 0.05455 0.93566 0.10311
 Zr181 Zr 0.00004 0.94762 0.08695
 O182 O 0.00244 0.94652 0.19631
 O183 O -0.00275 0.88233 0.08477
 Zr184 Zr -0.00003 1.05219 0.08827
 O185 O 0.00231 1.05231 0.19768
 O186 O -0.00288 1.11747 0.08820
 O187 O -0.02110 0.99977 0.10054
 O188 O 0.02048 0.99998 0.10084
 O189 O 0.03419 0.92540 -0.12039
 O190 O 0.05975 0.96482 -0.05599
 C191 C 0.05536 0.93632 -0.10151
 O192 O -0.03264 1.07216 -0.12637
 O193 O -0.05869 1.03412 -0.06138
 C194 C -0.05394 1.06106 -0.10902
 O195 O 0.03383 1.07661 -0.11776
 O196 O 0.05963 1.03649 -0.05579
 C197 C 0.05505 1.06557 -0.09994
 O198 O -0.03207 0.92816 -0.12884
 O199 O -0.05825 0.96498 -0.06246
 C200 C -0.05340 0.93851 -0.11095
 Zr201 Zr 0.00076 0.94815 -0.08810
 O202 O 0.00381 0.94840 -0.19737
 O203 O -0.00173 0.88281 -0.08793
 Zr204 Zr 0.00053 1.05277 -0.08680
 O205 O 0.00365 1.05286 -0.19607
 O206 O -0.00226 1.11804 -0.08624
 Zr207 Zr -0.03482 0.99999 -0.00101
 Zr208 Zr 0.03544 1.00040 0.00100
 O209 O 0.02121 1.00066 -0.09961
 O210 O -0.02038 1.00034 -0.10169
 O211 O 0.02150 0.93990 -0.00006
 O212 O -0.02031 1.05994 0.00031
 O213 O -0.02016 0.94022 -0.00122
 O214 O 0.02133 1.06072 0.00139
 H215 H 0.03105 0.99993 0.14173
 H216 H -0.03112 1.08403 0.00040
 H217 H 0.03210 1.00088 -0.13986
 H218 H -0.03090 0.91598 -0.00158
 H219 H 0.01076 1.12850 0.06197
 H220 H 0.01058 1.12888 -0.05653
 H221 H -0.00968 1.03649 -0.21484
 H222 H -0.00911 0.96582 -0.21563
 H223 H 0.01165 0.87212 -0.06037
 H224 H 0.01097 0.87162 0.05848
 H225 H -0.01022 0.96457 0.21465
 H226 H -0.01072 1.03489 0.21550
 O227 O 0.46713 0.43249 0.13288
 O228 O 0.44139 0.46755 0.06273
 C229 C 0.44591 0.44254 0.11330
 O230 O 0.53403 0.57851 0.11368
 O231 O 0.55973 0.53705 0.05349
 C232 C 0.55524 0.56692 0.09642
 O233 O 0.46750 0.57515 0.12089
 O234 O 0.44146 0.53599 0.05762
 C235 C 0.44620 0.56393 0.10386
 O236 O 0.53375 0.42798 0.12534
 O237 O 0.55962 0.46546 0.05880
 C238 C 0.55501 0.43818 0.10605
 Zr239 Zr 0.50045 0.45014 0.09115
 O240 O 0.50328 0.45280 0.20036
 O241 O 0.49757 0.38490 0.09509
 Zr242 Zr 0.50068 0.55467 0.08278
 O243 O 0.50342 0.55832 0.19195
 O244 O 0.49815 0.61988 0.07659
 O245 O 0.47953 0.50291 0.10081
 O246 O 0.52109 0.50269 0.09935
 O247 O 0.53340 0.42045 -0.11473
 O248 O 0.55945 0.46216 -0.05622
 C249 C 0.55470 0.43202 -0.09839
 O250 O 0.46715 0.56747 -0.13279
 O251 O 0.44137 0.53243 -0.06239
 C252 C 0.44590 0.55740 -0.11308
 O253 O 0.53376 0.57169 -0.12667
 O254 O 0.55966 0.53382 -0.06123
 C255 C 0.55503 0.56136 -0.10799
 O256 O 0.46692 0.42474 -0.12096
 O257 O 0.44119 0.46419 -0.05712
 C258 C 0.44571 0.43621 -0.10347
 Zr259 Zr 0.50027 0.44499 -0.08377
 O260 O 0.50288 0.44175 -0.19303
 O261 O 0.49740 0.37980 -0.07834
 Zr262 Zr 0.50047 0.54950 -0.09209
 O263 O 0.50312 0.54652 -0.20135
 O264 O 0.49782 0.61473 -0.09661
 Zr265 Zr 0.46538 0.49997 -0.00005
 Zr266 Zr 0.53559 0.49970 -0.00097
 O267 O 0.52088 0.49679 -0.10090
 O268 O 0.47931 0.49691 -0.10126
 O269 O 0.52144 0.43941 0.00406
 O270 O 0.48003 0.55972 -0.00498
 O271 O 0.47979 0.44009 0.00453
 O272 O 0.52168 0.56009 -0.00555
 H273 H 0.53183 0.50382 0.13980
 H274 H 0.46928 0.58386 -0.00680
 H275 H 0.53159 0.49558 -0.14151
 H276 H 0.46895 0.41603 0.00658
 H277 H 0.51174 0.62978 0.04888
 H278 H 0.51117 0.62633 -0.06975
 H279 H 0.49013 0.52861 -0.21808
 H280 H 0.48970 0.45809 -0.21241
 H281 H 0.51053 0.36977 -0.04907
 H282 H 0.51119 0.37327 0.06945
 H283 H 0.49057 0.47119 0.21741
 H284 H 0.49043 0.54157 0.21172
 C285 C 0.36564 0.36948 0.25321
 C286 C 0.35136 0.34083 0.21817
 C287 C 0.33189 0.32281 0.25102
 C288 C 0.32583 0.33348 0.31982
 C289 C 0.34025 0.36277 0.35429
 C290 C 0.35997 0.38015 0.32162
 C291 C 0.38624 0.38847 0.21804
 C292 C 0.40844 0.38998 0.25057
 C293 C 0.42795 0.40728 0.21652
 C294 C 0.42548 0.42401 0.14982
 C295 C 0.40317 0.42286 0.11776
 C296 C 0.38381 0.40501 0.15132
 H297 H 0.32115 0.30175 0.22088
 H298 H 0.33708 0.37123 0.40772
 H299 H 0.44490 0.40786 0.24257
 H300 H 0.40070 0.43535 0.06627
 H301 H 0.37073 0.40226 0.34971
 H302 H 0.41076 0.37720 0.30190
 H303 H 0.35538 0.33213 0.16524
 H304 H 0.36683 0.40448 0.12539
 C305 C -0.13500 0.86704 0.24666
 C306 C -0.14982 0.83915 0.21190
 C307 C -0.16922 0.82149 0.24563
 C308 C -0.17461 0.83176 0.31508
 C309 C -0.15968 0.86040 0.34918
 C310 C -0.14006 0.87743 0.31559
 C311 C -0.11434 0.88535 0.21089
 C312 C -0.09201 0.88583 0.24272
 C313 C -0.07248 0.90286 0.20857
 C314 C -0.07502 0.92032 0.14244
 C315 C -0.09742 0.91999 0.11085
 C316 C -0.11683 0.90241 0.14455
 H317 H -0.18039 0.80098 0.21580
 H318 H -0.16236 0.86853 0.40299
 H319 H -0.05547 0.90283 0.23429
 H320 H -0.09992 0.93310 0.05981
 H321 H -0.12887 0.89898 0.34344
 H322 H -0.08964 0.87258 0.29370
 H323 H -0.14628 0.83070 0.15857
 H324 H -0.13390 0.90263 0.11916
 C325 C 0.63478 0.64533 0.23295
 C326 C 0.65364 0.62077 0.25572
 C327 C 0.67253 0.63825 0.29206
 C328 C 0.67326 0.68110 0.30681
 C329 C 0.65421 0.70555 0.28296
 C330 C 0.63531 0.68790 0.24683
 C331 C 0.61444 0.62642 0.19588
 C332 C 0.59117 0.63867 0.21119
 C333 C 0.57197 0.61985 0.17816
 C334 C 0.57560 0.58834 0.12901
 C335 C 0.59892 0.57660 0.11285
 C336 C 0.61810 0.59540 0.14595
 H337 H 0.68687 0.61790 0.30622
 H338 H 0.65311 0.73822 0.29438
 H339 H 0.55426 0.62963 0.19198
 H340 H 0.60240 0.55257 0.07503
 H341 H 0.62106 0.70770 0.22966
 H342 H 0.58776 0.66216 0.24998
 H343 H 0.65369 0.58776 0.24611
 H344 H 0.63583 0.58572 0.13230
 C345 C 0.13387 1.14306 0.24205
 C346 C 0.13444 1.18578 0.25453
 C347 C 0.15360 1.20390 0.28881
 C348 C 0.17285 1.17978 0.31221
 C349 C 0.17203 1.13675 0.29916
 C350 C 0.15289 1.11880 0.26461
 C351 C 0.11348 1.12376 0.20578
 C352 C 0.11719 1.09269 0.15600
 C353 C 0.09805 1.07389 0.12278
 C354 C 0.07471 1.08566 0.13863
 C355 C 0.07101 1.11702 0.18800
 C356 C 0.09019 1.13589 0.22114
 H357 H 0.15259 1.23672 0.29912
 H358 H 0.18648 1.11660 0.31313
 H359 H 0.10160 1.04995 0.08486
 H360 H 0.05328 1.12681 0.20153
 H361 H 0.15291 1.08570 0.25601
 H362 H 0.13493 1.08309 0.14232
 H363 H 0.12006 1.20534 0.23747
 H364 H 0.08677 1.15945 0.25981
 C365 C 0.63290 0.34930 -0.23481
 C366 C 0.62933 0.33038 -0.29936
 C367 C 0.64809 0.31202 -0.33512
 C368 C 0.67140 0.31223 -0.30803
 C369 C 0.67460 0.33120 -0.24235
 C370 C 0.65572 0.34916 -0.20656
 C371 C 0.61297 0.36971 -0.19773
 C372 C 0.61662 0.40672 -0.16082
 C373 C 0.59780 0.42655 -0.12763
 C374 C 0.57481 0.41003 -0.13101
 C375 C 0.57118 0.37283 -0.16728
 C376 C 0.59004 0.35283 -0.20000
 H377 H 0.64410 0.30016 -0.38613
 H378 H 0.69139 0.33075 -0.21571
 H379 H 0.60120 0.45530 -0.10050
 H380 H 0.55373 0.35910 -0.17040
 H381 H 0.65899 0.36242 -0.15593
 H382 H 0.63395 0.42096 -0.15887
 H383 H 0.61206 0.33081 -0.32355
 H384 H 0.58667 0.32400 -0.22685
 C385 C 0.13533 0.85818 -0.23642
 C386 C 0.13415 0.81704 -0.25980
 C387 C 0.15321 0.79922 -0.29493
 C388 C 0.17395 0.82206 -0.30736
 C389 C 0.17523 0.86309 -0.28340
 C390 C 0.15614 0.88095 -0.24840
 C391 C 0.11481 0.87748 -0.20068
 C392 C 0.11824 0.90447 -0.14441
 C393 C 0.09895 0.92330 -0.11188
 C394 C 0.07576 0.91548 -0.13476
 C395 C 0.07232 0.88814 -0.19054
 C396 C 0.09162 0.86943 -0.22319
 H397 H 0.15154 0.76771 -0.31340
 H398 H 0.19105 0.88137 -0.29144
 H399 H 0.10225 0.94400 -0.06878
 H400 H 0.05472 0.88157 -0.20973
 H401 H 0.15753 0.91285 -0.23175
 H402 H 0.13585 0.91082 -0.12513
 H403 H 0.11850 0.79850 -0.25069
 H404 H 0.08838 0.84928 -0.26703
 C405 C 0.36592 0.63043 -0.25411
 C406 C 0.36332 0.62724 -0.32628
 C407 C 0.34390 0.64516 -0.35936
 C408 C 0.32683 0.66698 -0.32101
 C409 C 0.32948 0.67029 -0.24889
 C410 C 0.34877 0.65204 -0.21575
 C411 C 0.38643 0.61129 -0.21877
 C412 C 0.38320 0.58914 -0.15701
 C413 C 0.40248 0.57144 -0.12314
 C414 C 0.42550 0.57577 -0.14995
 C415 C 0.42873 0.59788 -0.21186
 C416 C 0.40937 0.61529 -0.24608
 H417 H 0.34239 0.64248 -0.41510
 H418 H 0.31651 0.68670 -0.21805
 H419 H 0.39933 0.55462 -0.07557
 H420 H 0.44621 0.60170 -0.23397
 H421 H 0.35044 0.65528 -0.16014
 H422 H 0.36568 0.58519 -0.13522
 H423 H 0.37618 0.61049 -0.35701
 H424 H 0.41238 0.63250 -0.29332
 C425 C -0.13303 1.13792 -0.24875
 C426 C -0.15209 1.11388 -0.27251
 C427 C -0.17127 1.13241 -0.30568
 C428 C -0.17186 1.17544 -0.31572
 C429 C -0.15277 1.19949 -0.29205
 C430 C -0.13356 1.18092 -0.25897
 C431 C -0.11273 1.11818 -0.21322
 C432 C -0.08944 1.13076 -0.22755
 C433 C -0.07033 1.11212 -0.19404
 C434 C -0.07412 1.08058 -0.14526
 C435 C -0.09745 1.06801 -0.13101
 C436 C -0.11651 1.08656 -0.16467
 H437 H -0.18549 1.11295 -0.32448
 H438 H -0.15285 1.23276 -0.29817
 H439 H -0.05261 1.12253 -0.20634
 H440 H -0.10104 1.04384 -0.09370
 H441 H -0.11928 1.20031 -0.24034
 H442 H -0.08596 1.15470 -0.26534
 H443 H -0.15201 1.08060 -0.26639
 H444 H -0.13428 1.07654 -0.15196
 C445 C 0.63406 0.64110 -0.24509
 C446 C 0.63276 0.68258 -0.26581
 C447 C 0.65164 0.70129 -0.30053
 C448 C 0.67257 0.67911 -0.31558
 C449 C 0.67369 0.63740 -0.29393
 C450 C 0.65475 0.61879 -0.25943
 C451 C 0.61380 0.62103 -0.20931
 C452 C 0.61764 0.59333 -0.15448
 C453 C 0.59859 0.57404 -0.12150
 C454 C 0.57523 0.58205 -0.14254
 C455 C 0.57141 0.60993 -0.19714
 C456 C 0.59046 0.62914 -0.23016
 H457 H 0.64991 0.73374 -0.31282
 H458 H 0.68870 0.61804 -0.30617
 H459 H 0.60219 0.55292 -0.07938
 H460 H 0.55367 0.61672 -0.21487
 H461 H 0.65611 0.58646 -0.24549
 H462 H 0.63539 0.58687 -0.13655
 H463 H 0.61724 0.70091 -0.25413
 H464 H 0.58693 0.64986 -0.27286
 C465 C 0.13337 1.14635 -0.23872
 C466 C 0.12988 1.16346 -0.30465
 C467 C 0.14857 1.18194 -0.34049
 C468 C 0.17154 1.18360 -0.31185
 C469 C 0.17484 1.16630 -0.24538
 C470 C 0.15605 1.14816 -0.20944
 C471 C 0.11345 1.12637 -0.20107
 C472 C 0.11714 1.09038 -0.16178
 C473 C 0.09827 1.07101 -0.12799
 C474 C 0.07524 1.08702 -0.13313
 C475 C 0.07158 1.12323 -0.17173
 C476 C 0.09047 1.14275 -0.20506
 H477 H 0.14499 1.19303 -0.39220
 H478 H 0.19169 1.16805 -0.21915
 H479 H 0.10168 1.04302 -0.09899
 H480 H 0.05410 1.13658 -0.17624
 H481 H 0.15923 1.13614 -0.15801
 H482 H 0.13454 1.07660 -0.15838
 H483 H 0.11276 1.16171 -0.32952
 H484 H 0.08707 1.17084 -0.23374
 C485 C 0.36635 0.35885 -0.24212
 C486 C 0.34734 0.38315 -0.26506
 C487 C 0.32827 0.36502 -0.29961
 C488 C 0.32776 0.32218 -0.31194
 C489 C 0.34676 0.29786 -0.28898
 C490 C 0.36586 0.31600 -0.25445
 C491 C 0.38667 0.37825 -0.20590
 C492 C 0.40994 0.36593 -0.22100
 C493 C 0.42910 0.38465 -0.18768
 C494 C 0.42541 0.41606 -0.13838
 C495 C 0.40211 0.42821 -0.12303
 C496 C 0.38297 0.40954 -0.15646
 H497 H 0.31411 0.38469 -0.31779
 H498 H 0.34671 0.26470 -0.29690
 H499 H 0.44680 0.37457 -0.20086
 H500 H 0.39860 0.45224 -0.08524
 H501 H 0.38010 0.29642 -0.23653
 H502 H 0.41335 0.34226 -0.25948
 H503 H 0.34742 0.41633 -0.25737
 H504 H 0.36522 0.41932 -0.14313
 C505 C -0.13187 0.85833 -0.25013
 C506 C -0.15223 0.84711 -0.21272
 C507 C -0.17126 0.82793 -0.24594
 C508 C -0.17036 0.81948 -0.31731
 C509 C -0.14995 0.83041 -0.35465
 C510 C -0.13092 0.84963 -0.32144
 C511 C -0.11175 0.87916 -0.21494
 C512 C -0.08830 0.86861 -0.23148
 C513 C -0.06938 0.88803 -0.19809
 C514 C -0.07345 0.91844 -0.14731
 C515 C -0.09692 0.92914 -0.13104
 C516 C -0.11583 0.90972 -0.16447
 H517 H -0.18662 0.81934 -0.21563
 H518 H -0.14889 0.82493 -0.40992
 H519 H -0.05155 0.87892 -0.21177
 H520 H -0.10073 0.95256 -0.09243
 H521 H -0.11564 0.85845 -0.35190
 H522 H -0.08458 0.84484 -0.26952
 H523 H -0.15334 0.85274 -0.15751
 H524 H -0.13368 0.91898 -0.15132
 C525 C 0.36759 0.64366 0.24269
 C526 C 0.34691 0.65392 0.20631
 C527 C 0.32787 0.67255 0.24041
 C528 C 0.32912 0.68136 0.31160
 C529 C 0.34985 0.67131 0.34790
 C530 C 0.36887 0.65266 0.31384
 C531 C 0.38772 0.62343 0.20672
 C532 C 0.41112 0.63495 0.22189
 C533 C 0.43009 0.61569 0.18851
 C534 C 0.42609 0.58445 0.13912
 C535 C 0.40266 0.57298 0.12384
 C536 C 0.38370 0.59226 0.15726
 H537 H 0.31225 0.68045 0.21091
 H538 H 0.35116 0.67708 0.40303
 H539 H 0.44788 0.62541 0.20138
 H540 H 0.39892 0.54894 0.08625
 H541 H 0.38441 0.64452 0.34352
 H542 H 0.41478 0.65924 0.25907
 H543 H 0.34554 0.64798 0.15125
 H544 H 0.36589 0.58231 0.14514
 C545 C -0.13505 1.13297 0.24848
 C546 C -0.15207 1.15530 0.21111
 C547 C -0.17144 1.17301 0.24502
 C548 C -0.17430 1.16837 0.31686
 C549 C -0.15737 1.14579 0.35416
 C550 C -0.13787 1.12844 0.32036
 C551 C -0.11443 1.11440 0.21253
 C552 C -0.09160 1.11795 0.24061
 C553 C -0.07217 1.10060 0.20646
 C554 C -0.07521 1.07896 0.14387
 C555 C -0.09809 1.07530 0.11601
 C556 C -0.11746 1.09300 0.14981
 H557 H -0.18431 1.19004 0.21500
 H558 H -0.15904 1.14208 0.40968
 H559 H -0.05479 1.10390 0.22936
 H560 H -0.10106 1.05890 0.06781
 H561 H -0.12512 1.11109 0.35030
 H562 H -0.08876 1.13462 0.28860
 H563 H -0.15022 1.15952 0.15575
 H564 H -0.13490 1.08947 0.12736
 C565 C 0.63434 0.36079 0.24424
 C566 C 0.63308 0.31944 0.26620
 C567 C 0.65209 0.30122 0.30072
 C568 C 0.67283 0.32388 0.31401
 C569 C 0.67414 0.36519 0.29183
 C570 C 0.65512 0.38343 0.25734
 C571 C 0.61401 0.38028 0.20827
 C572 C 0.61772 0.40726 0.15233
 C573 C 0.59859 0.42587 0.11896
 C574 C 0.57527 0.41789 0.14070
 C575 C 0.57156 0.39072 0.19641
 C576 C 0.59070 0.37219 0.22983
 H577 H 0.65040 0.26950 0.31787
 H578 H 0.68996 0.38334 0.30066
 H579 H 0.60211 0.44647 0.07602
 H580 H 0.55386 0.38402 0.21473
 H581 H 0.65656 0.41548 0.24177
 H582 H 0.63543 0.41366 0.13381
 H583 H 0.61745 0.30102 0.25623
 H584 H 0.58725 0.35203 0.27338
 C585 C 0.13325 0.85646 0.24130
 C586 C 0.13373 0.81356 0.25271
 C587 C 0.15262 0.79539 0.28793
 C588 C 0.17145 0.81973 0.31262
 C589 C 0.17093 0.86264 0.30123
 C590 C 0.15207 0.88078 0.26593
 C591 C 0.11311 0.87593 0.20446
 C592 C 0.11707 0.90760 0.15609
 C593 C 0.09810 0.92665 0.12267
 C594 C 0.07470 0.91454 0.13698
 C595 C 0.07076 0.88254 0.18486
 C596 C 0.08976 0.86343 0.21813
 H597 H 0.15267 0.76218 0.29497
 H598 H 0.18494 0.88235 0.32067
 H599 H 0.10181 0.95107 0.08592
 H600 H 0.05299 0.87244 0.19718
 H601 H 0.15201 0.91400 0.25901
 H602 H 0.13489 0.91750 0.14377
 H603 H 0.11963 0.79396 0.23354
 H604 H 0.08614 0.83943 0.25569
   
