data_POSCAR
  _audit_creation_date              2014-09-24
  _audit_creation_method            'ToBaCCo'
  _symmetry_space_group_name_H-M    'P1'
  _symmetry_Int_Tables_number       1
  _symmetry_cell_setting            triclinic
  loop_
  _symmetry_equiv_pos_as_xyz
 x,y,z
_cell_length_a 50.0843
_cell_length_b 38.7765
_cell_length_c 48.6808
_cell_angle_alpha 89.971600
_cell_angle_beta 90.030100
_cell_angle_gamma 89.694600
loop_
  _atom_site_label
  _atom_site_type_symbol
  _atom_site_fract_x
  _atom_site_fract_y
  _atom_site_fract_z
C1 C 0.28998 0.29745 0.23756
 H2 H 0.29080 0.29970 0.25969
 C3 C 0.30751 0.31647 0.22125
 H4 H 0.32190 0.33323 0.23101
 C5 C 0.27070 0.27204 0.19805
 H6 H 0.25659 0.25439 0.18904
 C7 C 0.28787 0.29047 0.18099
 H8 H 0.28632 0.28731 0.15895
 N9 N 0.27180 0.27613 0.22577
 C10 C 0.20740 0.26596 0.28551
 H11 H 0.20590 0.23815 0.28633
 C12 C 0.19047 0.28635 0.30153
 H13 H 0.17618 0.27396 0.31493
 C14 C 0.22838 0.31566 0.26743
 H15 H 0.24294 0.32702 0.25386
 C16 C 0.21185 0.33705 0.28313
 H17 H 0.21390 0.36476 0.28146
 Zn18 Zn 0.24880 0.25080 0.24906
 N19 N 0.22622 0.28078 0.26928
 C20 C 0.26829 0.22860 0.30093
 N21 N 0.27052 0.22459 0.27327
 C22 C 0.28888 0.20263 0.26226
 C23 C 0.30538 0.18283 0.27931
 C24 C 0.28434 0.20932 0.31870
 C25 C 0.20856 0.23702 0.21095
 C26 C 0.19173 0.21713 0.19457
 C27 C 0.21155 0.16580 0.21421
 C28 C 0.22800 0.18669 0.23024
 N29 N 0.22653 0.22162 0.22800
 H30 H 0.25421 0.24692 0.30933
 H31 H 0.29054 0.20034 0.24018
 H32 H 0.31949 0.16497 0.27018
 H33 H 0.28236 0.21307 0.34065
 H34 H 0.20758 0.26486 0.20984
 H35 H 0.17808 0.22992 0.18060
 H36 H 0.21298 0.13805 0.21628
 H37 H 0.24187 0.17491 0.24444
 C38 C 0.19274 0.32242 0.30068
 C39 C 0.30654 0.31315 0.19254
 C40 C 0.19324 0.18098 0.19592
 C41 C 0.30308 0.18588 0.30796
 C42 C 0.78842 0.79652 0.23805
 H43 H 0.78967 0.79892 0.26015
 C44 C 0.80544 0.81575 0.22129
 H45 H 0.81892 0.83348 0.23122
 C46 C 0.76820 0.77123 0.19914
 H47 H 0.75417 0.75319 0.19051
 C48 C 0.78471 0.78991 0.18161
 H49 H 0.78307 0.78485 0.15984
 N50 N 0.76996 0.77525 0.22678
 C51 C 0.70621 0.76483 0.28724
 H52 H 0.70457 0.73703 0.28783
 C53 C 0.68939 0.78514 0.30347
 H54 H 0.67508 0.77269 0.31679
 C55 C 0.72733 0.81461 0.26948
 H56 H 0.74189 0.82603 0.25595
 C57 C 0.71092 0.83592 0.28539
 H58 H 0.71306 0.86363 0.28391
 Zn59 Zn 0.74722 0.74982 0.25032
 N60 N 0.72502 0.77973 0.27105
 C61 C 0.76705 0.72675 0.30174
 N62 N 0.76905 0.72306 0.27404
 C63 C 0.78721 0.70108 0.26272
 C64 C 0.80374 0.68093 0.27949
 C65 C 0.78312 0.70712 0.31924
 C66 C 0.70625 0.73749 0.21295
 C67 C 0.68953 0.71843 0.19587
 C68 C 0.70983 0.66620 0.21337
 C69 C 0.72619 0.68630 0.23014
 N70 N 0.72451 0.72131 0.22919
 H71 H 0.75313 0.74509 0.31040
 H72 H 0.78871 0.69905 0.24061
 H73 H 0.81770 0.66307 0.27012
 H74 H 0.78132 0.71063 0.34123
 H75 H 0.70503 0.76535 0.21295
 H76 H 0.67526 0.73185 0.18294
 H77 H 0.71203 0.63841 0.21376
 H78 H 0.74043 0.67387 0.24360
 C79 C 0.69177 0.82120 0.30285
 C80 C 0.80370 0.81309 0.19238
 C81 C 0.69145 0.68228 0.19563
 C82 C 0.80165 0.68365 0.30819
 C83 C 0.79298 0.29610 0.73783
 H84 H 0.79366 0.29833 0.75997
 C85 C 0.81037 0.31548 0.72163
 H86 H 0.82452 0.33249 0.73148
 C87 C 0.77415 0.27044 0.69819
 H88 H 0.76026 0.25258 0.68908
 C89 C 0.79120 0.28922 0.68124
 H90 H 0.78977 0.28609 0.65919
 N91 N 0.77507 0.27450 0.72592
 C92 C 0.71037 0.26322 0.78514
 H93 H 0.70909 0.23539 0.78580
 C94 C 0.69316 0.28323 0.80115
 H95 H 0.67888 0.27053 0.81437
 C96 C 0.73108 0.31336 0.76751
 H97 H 0.74565 0.32503 0.75412
 C98 C 0.71426 0.33439 0.78321
 H99 H 0.71610 0.36213 0.78171
 Zn100 Zn 0.75209 0.24882 0.74898
 N101 N 0.72918 0.27844 0.76914
 C102 C 0.77145 0.22705 0.80087
 N103 N 0.77374 0.22270 0.77333
 C104 C 0.79215 0.20069 0.76267
 C105 C 0.80862 0.18113 0.77992
 C106 C 0.78741 0.20808 0.81892
 C107 C 0.71206 0.23530 0.71076
 C108 C 0.69520 0.21564 0.69425
 C109 C 0.71509 0.16404 0.71336
 C110 C 0.73158 0.18472 0.72955
 N111 N 0.73005 0.21968 0.72765
 H112 H 0.75751 0.24573 0.80903
 H113 H 0.79379 0.19799 0.74061
 H114 H 0.82176 0.16281 0.77004
 H115 H 0.78532 0.21410 0.84047
 H116 H 0.71105 0.26316 0.70992
 H117 H 0.68149 0.22862 0.68044
 H118 H 0.71654 0.13626 0.71516
 H119 H 0.74549 0.17277 0.74361
 C120 C 0.69514 0.31933 0.80051
 C121 C 0.80956 0.31222 0.69291
 C122 C 0.69670 0.17948 0.69529
 C123 C 0.80652 0.18406 0.80890
 C124 C 0.29089 0.79790 0.73860
 H125 H 0.29290 0.79911 0.76070
 C126 C 0.30733 0.81808 0.72197
 H127 H 0.32163 0.83517 0.73148
 C128 C 0.26976 0.77418 0.69943
 H129 H 0.25536 0.75675 0.69064
 C130 C 0.28574 0.79392 0.68206
 H131 H 0.28347 0.79128 0.66004
 N132 N 0.27238 0.77669 0.72718
 C133 C 0.20708 0.76319 0.78554
 H134 H 0.20329 0.73600 0.78283
 C135 C 0.19029 0.78271 0.80240
 H136 H 0.17422 0.77002 0.81323
 C137 C 0.23222 0.81275 0.77428
 H138 H 0.24822 0.82464 0.76299
 C139 C 0.21594 0.83324 0.79097
 H140 H 0.21972 0.86066 0.79227
 Zn141 Zn 0.25027 0.74947 0.75035
 N142 N 0.22794 0.77820 0.77231
 C143 C 0.26023 0.70243 0.79362
 N144 N 0.27197 0.72106 0.77329
 C145 C 0.29882 0.71938 0.76912
 C146 C 0.31499 0.69923 0.78623
 C147 C 0.27563 0.68198 0.81119
 C148 C 0.20759 0.73668 0.71462
 C149 C 0.19106 0.71717 0.69764
 C150 C 0.21672 0.66642 0.70974
 C151 C 0.23276 0.68692 0.72652
 N152 N 0.22805 0.72140 0.72848
 H153 H 0.23887 0.70330 0.79626
 H154 H 0.30783 0.73357 0.75248
 H155 H 0.33636 0.69887 0.78290
 H156 H 0.26583 0.66729 0.82716
 H157 H 0.20437 0.76419 0.71654
 H158 H 0.17526 0.72995 0.68630
 H159 H 0.22073 0.63901 0.70847
 H160 H 0.24916 0.67535 0.73771
 C161 C 0.19479 0.81820 0.80552
 C162 C 0.30477 0.81635 0.69328
 C163 C 0.19563 0.68155 0.69490
 C164 C 0.30344 0.68041 0.80777
 C165 C -0.02942 -0.01912 0.02261
 C166 C -0.01536 -0.00228 0.00167
 C167 C -0.02939 0.01463 -0.01937
 C168 C -0.05742 0.01530 -0.01942
 C169 C -0.07126 -0.00215 0.00145
 C170 C -0.05746 -0.01966 0.02243
 C171 C 0.01407 -0.00232 0.00178
 C172 C 0.02823 -0.01742 -0.01996
 C173 C 0.05628 -0.01790 -0.01992
 C174 C 0.07000 -0.00224 0.00193
 C175 C 0.05603 0.01339 0.02371
 C176 C 0.02799 0.01282 0.02361
 H177 H -0.01845 -0.03268 0.03851
 H178 H -0.01839 0.02816 -0.03518
 H179 H 0.01733 -0.02891 -0.03685
 H180 H 0.01691 0.02432 0.04042
 H181 H -0.09289 -0.00210 0.00137
 H182 H 0.09162 -0.00219 0.00198
 C183 C -0.02708 0.48625 0.52170
 C184 C -0.01403 0.50260 0.49985
 C185 C -0.02905 0.51843 0.47902
 C186 C -0.05708 0.51843 0.48003
 C187 C -0.06990 0.50150 0.50186
 C188 C -0.05509 0.48519 0.52272
 C189 C 0.01540 0.50331 0.49889
 C190 C 0.02903 0.48877 0.47654
 C191 C 0.05706 0.48872 0.47568
 C192 C 0.07131 0.50429 0.49721
 C193 C 0.05789 0.51937 0.51958
 C194 C 0.02986 0.51837 0.52037
 H195 H -0.01536 0.47420 0.53781
 H196 H -0.01883 0.53164 0.46250
 H197 H 0.01773 0.47727 0.45995
 H198 H 0.01922 0.52940 0.53767
 H199 H -0.09150 0.50025 0.50220
 H200 H 0.09292 0.50461 0.49659
 C201 C 0.47126 -0.01323 0.52309
 C202 C 0.48486 0.00273 0.50139
 C203 C 0.47034 0.01906 0.48041
 C204 C 0.44231 0.01996 0.48114
 C205 C 0.42895 0.00342 0.50280
 C206 C 0.44323 -0.01337 0.52381
 C207 C 0.51431 0.00260 0.50078
 C208 C 0.52795 -0.01205 0.47849
 C209 C 0.55599 -0.01273 0.47790
 C210 C 0.57024 0.00227 0.49968
 C211 C 0.55682 0.01744 0.52201
 C212 C 0.52878 0.01710 0.52252
 H213 H 0.48258 -0.02566 0.53932
 H214 H 0.48098 0.03197 0.46401
 H215 H 0.51665 -0.02310 0.46169
 H216 H 0.51812 0.02826 0.53975
 H217 H 0.40733 0.00286 0.50291
 H218 H 0.59186 0.00212 0.49927
 C219 C 0.47343 0.48188 0.02160
 C220 C 0.48692 0.49761 -0.00026
 C221 C 0.47230 0.51325 -0.02148
 C222 C 0.44426 0.51365 -0.02089
 C223 C 0.43099 0.49743 0.00099
 C224 C 0.44539 0.48129 0.02225
 C225 C 0.51636 0.49772 -0.00094
 C226 C 0.53001 0.48288 -0.02315
 C227 C 0.55805 0.48288 -0.02402
 C228 C 0.57226 0.49869 -0.00258
 C229 C 0.55882 0.51414 0.01961
 C230 C 0.53080 0.51308 0.02044
 H231 H 0.48483 0.46996 0.03801
 H232 H 0.48284 0.52524 -0.03838
 H233 H 0.51874 0.47126 -0.03971
 H234 H 0.52010 0.52522 0.03722
 H235 H 0.40937 0.49733 0.00145
 H236 H 0.59388 0.49828 -0.00284
 C237 C 0.14579 -0.12210 -0.13952
 C238 C 0.13418 -0.14713 -0.15636
 C239 C 0.15003 -0.16632 -0.17446
 C240 C 0.17774 -0.16073 -0.17593
 C241 C 0.18916 -0.13525 -0.15909
 C242 C 0.17327 -0.11611 -0.14100
 C243 C 0.12966 -0.10320 -0.12018
 C244 C 0.11634 -0.08765 -0.10364
 C245 C 0.10069 -0.06945 -0.08348
 C246 C 0.07739 -0.08425 -0.07303
 C247 C 0.06274 -0.06726 -0.05264
 C248 C 0.07125 -0.03522 -0.04239
 C249 C 0.09453 -0.02035 -0.05328
 C250 C 0.10915 -0.03738 -0.07369
 H251 H 0.11292 -0.15195 -0.15539
 H252 H 0.14060 -0.18542 -0.18740
 H253 H 0.21046 -0.13065 -0.15945
 H254 H 0.18248 -0.09692 -0.12795
 H255 H 0.07074 -0.10914 -0.08038
 H256 H 0.04510 -0.07957 -0.04442
 H257 H 0.10139 0.00449 -0.04607
 H258 H 0.12715 -0.02568 -0.08166
 C259 C 0.14410 0.38455 0.35424
 C260 C 0.13302 0.35624 0.34065
 C261 C 0.14868 0.33634 0.32287
 C262 C 0.17569 0.34451 0.31847
 C263 C 0.18652 0.37337 0.33190
 C264 C 0.17083 0.39321 0.34969
 C265 C 0.12837 0.40389 0.37365
 C266 C 0.11537 0.41962 0.39034
 C267 C 0.10006 0.43780 0.41078
 C268 C 0.07710 0.42279 0.42182
 C269 C 0.06288 0.43961 0.44262
 C270 C 0.07149 0.47169 0.45270
 C271 C 0.09440 0.48680 0.44119
 C272 C 0.10858 0.46993 0.42038
 H273 H 0.11235 0.34931 0.34403
 H274 H 0.13967 0.31457 0.31257
 H275 H 0.20732 0.38006 0.32924
 H276 H 0.17965 0.41496 0.36022
 H277 H 0.07041 0.39784 0.41465
 H278 H 0.04555 0.42710 0.45130
 H279 H 0.10132 0.51167 0.44827
 H280 H 0.12633 0.48179 0.41196
 C281 C 0.64313 -0.11689 0.35656
 C282 C 0.63202 -0.14506 0.34281
 C283 C 0.64770 -0.16489 0.32500
 C284 C 0.67475 -0.15681 0.32073
 C285 C 0.68561 -0.12810 0.33434
 C286 C 0.66990 -0.10832 0.35216
 C287 C 0.62736 -0.09758 0.37595
 C288 C 0.61433 -0.08186 0.39263
 C289 C 0.59901 -0.06365 0.41303
 C290 C 0.57576 -0.07835 0.42371
 C291 C 0.56153 -0.06152 0.44449
 C292 C 0.57041 -0.02974 0.45492
 C293 C 0.59360 -0.01492 0.44376
 C294 C 0.60780 -0.03180 0.42297
 H295 H 0.61132 -0.15191 0.34606
 H296 H 0.63866 -0.18654 0.31455
 H297 H 0.70643 -0.12148 0.33178
 H298 H 0.67873 -0.08667 0.36282
 H299 H 0.56886 -0.10308 0.41627
 H300 H 0.54396 -0.07379 0.45290
 H301 H 0.60074 0.00971 0.45111
 H302 H 0.62576 -0.02018 0.41483
 C303 C 0.64571 0.38015 -0.14575
 C304 C 0.63492 0.35187 -0.15963
 C305 C 0.65084 0.33242 -0.17749
 C306 C 0.67780 0.34101 -0.18167
 C307 C 0.68833 0.36985 -0.16796
 C308 C 0.67238 0.38924 -0.15010
 C309 C 0.62974 0.39903 -0.12627
 C310 C 0.61660 0.41445 -0.10950
 C311 C 0.60122 0.43239 -0.08899
 C312 C 0.57830 0.41720 -0.07800
 C313 C 0.56402 0.43385 -0.05716
 C314 C 0.57254 0.46592 -0.04698
 C315 C 0.59541 0.48119 -0.05843
 C316 C 0.60964 0.46450 -0.07929
 H317 H 0.61430 0.34462 -0.15643
 H318 H 0.64206 0.31066 -0.18802
 H319 H 0.70909 0.37685 -0.17044
 H320 H 0.68097 0.41098 -0.13934
 H321 H 0.57168 0.39226 -0.08527
 H322 H 0.54670 0.42123 -0.04853
 H323 H 0.60226 0.50606 -0.05127
 H324 H 0.62736 0.47649 -0.08765
 C325 C -0.14540 0.12553 -0.13701
 C326 C -0.13792 0.12930 -0.16444
 C327 C -0.15383 0.14854 -0.18251
 C328 C -0.17782 0.16481 -0.17357
 C329 C -0.18489 0.16019 -0.14554
 C330 C -0.16890 0.14091 -0.12767
 C331 C -0.12906 0.10604 -0.11819
 C332 C -0.11594 0.09004 -0.10173
 C333 C -0.10099 0.07134 -0.08128
 C334 C -0.07857 0.05170 -0.08865
 C335 C -0.06429 0.03349 -0.06856
 C336 C -0.07234 0.03467 -0.04087
 C337 C -0.09483 0.05462 -0.03373
 C338 C -0.10903 0.07278 -0.05379
 H339 H -0.11957 0.11768 -0.17184
 H340 H -0.14613 0.15171 -0.20306
 H341 H -0.20342 0.16979 -0.13710
 H342 H -0.17507 0.13777 -0.10649
 H343 H -0.07220 0.05036 -0.10989
 H344 H -0.04721 0.01810 -0.07472
 H345 H -0.10126 0.05650 -0.01254
 H346 H -0.12628 0.08801 -0.04785
 C347 C -0.14889 0.62350 0.36249
 C348 C -0.17591 0.62872 0.36852
 C349 C -0.19203 0.64796 0.35072
 C350 C -0.18131 0.66231 0.32659
 C351 C -0.15418 0.65657 0.32051
 C352 C -0.13807 0.63732 0.33839
 C353 C -0.13228 0.60470 0.38149
 C354 C -0.11880 0.58929 0.39799
 C355 C -0.10323 0.57130 0.41837
 C356 C -0.11065 0.57324 0.44603
 C357 C -0.09568 0.55599 0.46602
 C358 C -0.07302 0.53651 0.45863
 C359 C -0.06568 0.53471 0.43075
 C360 C -0.08073 0.55200 0.41075
 H361 H -0.18451 0.61810 0.38709
 H362 H -0.21292 0.65148 0.35576
 H363 H -0.14529 0.66758 0.30226
 H364 H -0.11714 0.63354 0.33359
 H365 H -0.12798 0.58820 0.45216
 H366 H -0.10160 0.55831 0.48734
 H367 H -0.04851 0.51963 0.42440
 H368 H -0.07484 0.55028 0.38938
 C369 C 0.35233 0.12635 0.36288
 C370 C 0.32527 0.13157 0.36873
 C371 C 0.30923 0.15066 0.35076
 C372 C 0.32006 0.16486 0.32664
 C373 C 0.34725 0.15917 0.32076
 C374 C 0.36328 0.14007 0.33881
 C375 C 0.36882 0.10756 0.38199
 C376 C 0.38216 0.09210 0.39860
 C377 C 0.39747 0.07400 0.41911
 C378 C 0.38997 0.07629 0.44672
 C379 C 0.40456 0.05874 0.46684
 C380 C 0.42691 0.03857 0.45961
 C381 C 0.43438 0.03649 0.43179
 C382 C 0.41971 0.05409 0.41166
 H383 H 0.31658 0.12102 0.38728
 H384 H 0.28831 0.15414 0.35566
 H385 H 0.35623 0.17008 0.30251
 H386 H 0.38424 0.13628 0.33414
 H387 H 0.37284 0.09172 0.45273
 H388 H 0.39856 0.06129 0.48811
 H389 H 0.45133 0.02090 0.42556
 H390 H 0.42565 0.05209 0.39032
 C391 C 0.35236 0.62078 -0.13704
 C392 C 0.33065 0.63977 -0.12698
 C393 C 0.31470 0.65903 -0.14493
 C394 C 0.32027 0.65959 -0.17326
 C395 C 0.34213 0.64035 -0.18320
 C396 C 0.35806 0.62107 -0.16519
 C397 C 0.36886 0.60132 -0.11836
 C398 C 0.38250 0.58534 -0.10235
 C399 C 0.39856 0.56666 -0.08279
 C400 C 0.39036 0.53432 -0.07334
 C401 C 0.40539 0.51682 -0.05348
 C402 C 0.42884 0.53149 -0.04279
 C403 C 0.43709 0.56382 -0.05270
 C404 C 0.42203 0.58128 -0.07254
 H405 H 0.32612 0.63983 -0.10521
 H406 H 0.29827 0.67395 -0.13658
 H407 H 0.34674 0.63993 -0.20493
 H408 H 0.37480 0.60641 -0.17320
 H409 H 0.37223 0.52276 -0.08115
 H410 H 0.39871 0.49178 -0.04653
 H411 H 0.45485 0.57598 -0.04462
 H412 H 0.42849 0.60638 -0.07962
 C413 C -0.14653 -0.12850 0.13909
 C414 C -0.17114 -0.14063 0.12991
 C415 C -0.18752 -0.15965 0.14739
 C416 C -0.17965 -0.16714 0.17471
 C417 C -0.15470 -0.15427 0.18368
 C418 C -0.13836 -0.13526 0.16601
 C419 C -0.12978 -0.10939 0.12060
 C420 C -0.11640 -0.09367 0.10431
 C421 C -0.10125 -0.07528 0.08397
 C422 C -0.10903 -0.07679 0.05640
 C423 C -0.09473 -0.05880 0.03644
 C424 C -0.07241 -0.03895 0.04377
 C425 C -0.06460 -0.03773 0.07153
 C426 C -0.07898 -0.05577 0.09152
 H427 H -0.17780 -0.13523 0.10915
 H428 H -0.20678 -0.16721 0.13947
 H429 H -0.14698 -0.15990 0.20393
 H430 H -0.11920 -0.12615 0.17329
 H431 H -0.12617 -0.09191 0.05032
 H432 H -0.10098 -0.06072 0.01520
 H433 H -0.04764 -0.02242 0.07783
 H434 H -0.07281 -0.05437 0.11283
 C435 C -0.13990 0.37233 0.64021
 C436 C -0.15126 0.38732 0.66363
 C437 C -0.16739 0.36767 0.68102
 C438 C -0.17244 0.33278 0.67513
 C439 C -0.16062 0.31786 0.65172
 C440 C -0.14449 0.33753 0.63440
 C441 C -0.12421 0.39278 0.62163
 C442 C -0.11140 0.40963 0.60558
 C443 C -0.09651 0.42939 0.58587
 C444 C -0.10590 0.46174 0.57739
 C445 C -0.09221 0.48018 0.55717
 C446 C -0.06893 0.46644 0.54515
 C447 C -0.05941 0.43414 0.55413
 C448 C -0.07315 0.41574 0.57434
 H449 H -0.14793 0.41429 0.66825
 H450 H -0.17644 0.37999 0.69870
 H451 H -0.16381 0.29096 0.64685
 H452 H -0.13577 0.32566 0.61634
 H453 H -0.12396 0.47255 0.58618
 H454 H -0.09983 0.50517 0.55093
 H455 H -0.04175 0.42269 0.54503
 H456 H -0.06579 0.39063 0.58064
 C457 C 0.35418 -0.12275 0.64001
 C458 C 0.36514 -0.13797 0.66356
 C459 C 0.34906 -0.15760 0.68103
 C460 C 0.32182 -0.16230 0.67510
 C461 C 0.31099 -0.14669 0.65146
 C462 C 0.32707 -0.12706 0.63406
 C463 C 0.37071 -0.10314 0.62164
 C464 C 0.38420 -0.08687 0.60580
 C465 C 0.39984 -0.06767 0.58635
 C466 C 0.39129 -0.03496 0.57780
 C467 C 0.40566 -0.01701 0.55782
 C468 C 0.42877 -0.03159 0.54608
 C469 C 0.43746 -0.06423 0.55517
 C470 C 0.42305 -0.08215 0.57515
 H471 H 0.38613 -0.13488 0.66830
 H472 H 0.35805 -0.16961 0.69889
 H473 H 0.29002 -0.14941 0.64654
 H474 H 0.31837 -0.11533 0.61592
 H475 H 0.37335 -0.02351 0.58635
 H476 H 0.39867 0.00825 0.55151
 H477 H 0.45498 -0.07631 0.54629
 H478 H 0.42976 -0.10753 0.58152
 C479 C 0.35795 0.37182 0.13970
 C480 C 0.34680 0.38718 0.16307
 C481 C 0.33035 0.36801 0.18049
 C482 C 0.32478 0.33323 0.17466
 C483 C 0.33635 0.31796 0.15128
 C484 C 0.35281 0.33714 0.13394
 C485 C 0.37406 0.39177 0.12115
 C486 C 0.38726 0.40817 0.10514
 C487 C 0.40263 0.42736 0.08546
 C488 C 0.39376 0.45980 0.07661
 C489 C 0.40790 0.47766 0.05640
 C490 C 0.43111 0.46324 0.04473
 C491 C 0.44011 0.43086 0.05410
 C492 C 0.42592 0.41304 0.07430
 H493 H 0.35057 0.41406 0.16766
 H494 H 0.32149 0.38060 0.19814
 H495 H 0.33276 0.29112 0.14645
 H496 H 0.36137 0.32499 0.11592
 H497 H 0.37575 0.47112 0.08512
 H498 H 0.40068 0.50272 0.04987
 H499 H 0.45771 0.41891 0.04528
 H500 H 0.43288 0.38786 0.08089
 C501 C 0.14430 0.11962 0.14252
 C502 C 0.13360 0.14894 0.15525
 C503 C 0.14938 0.16868 0.17289
 C504 C 0.17612 0.15934 0.17802
 C505 C 0.18658 0.12956 0.16538
 C506 C 0.17076 0.10988 0.14772
 C507 C 0.12840 0.10017 0.12344
 C508 C 0.11526 0.08424 0.10708
 C509 C 0.09978 0.06569 0.08710
 C510 C 0.07629 0.08024 0.07655
 C511 C 0.06184 0.06298 0.05624
 C512 C 0.07075 0.03091 0.04617
 C513 C 0.09420 0.01628 0.05717
 C514 C 0.10861 0.03359 0.07750
 H515 H 0.11313 0.15670 0.15136
 H516 H 0.14065 0.19118 0.18259
 H517 H 0.20717 0.12194 0.16861
 H518 H 0.17928 0.08732 0.13786
 H519 H 0.06935 0.10516 0.08374
 H520 H 0.04407 0.07512 0.04793
 H521 H 0.10137 -0.00856 0.05009
 H522 H 0.12677 0.02208 0.08554
 C523 C 0.14740 0.62217 0.63941
 C524 C 0.13556 0.64737 0.65606
 C525 C 0.15116 0.66643 0.67434
 C526 C 0.17885 0.66053 0.67620
 C527 C 0.19051 0.63486 0.65958
 C528 C 0.17487 0.61586 0.64130
 C529 C 0.13151 0.60346 0.61987
 C530 C 0.11832 0.58813 0.60319
 C531 C 0.10272 0.57024 0.58291
 C532 C 0.07896 0.58491 0.57313
 C533 C 0.06423 0.56817 0.55276
 C534 C 0.07310 0.53652 0.54186
 C535 C 0.09689 0.52182 0.55204
 C536 C 0.11159 0.53860 0.57242
 H537 H 0.11430 0.65245 0.65477
 H538 H 0.14155 0.68569 0.68710
 H539 H 0.21181 0.63002 0.66024
 H540 H 0.18426 0.59652 0.62841
 H541 H 0.07198 0.60947 0.58102
 H542 H 0.04619 0.58035 0.54511
 H543 H 0.10405 0.49728 0.54432
 H544 H 0.12994 0.52701 0.57987
 C545 C 0.64729 0.11925 0.64154
 C546 C 0.63673 0.14831 0.65474
 C547 C 0.65266 0.16763 0.67253
 C548 C 0.67942 0.15813 0.67733
 C549 C 0.68973 0.12857 0.66426
 C550 C 0.67377 0.10930 0.64646
 C551 C 0.63123 0.10036 0.62226
 C552 C 0.61785 0.08503 0.60574
 C553 C 0.60199 0.06730 0.58559
 C554 C 0.57843 0.08243 0.57574
 C555 C 0.56355 0.06598 0.55534
 C556 C 0.57208 0.03416 0.54447
 C557 C 0.59563 0.01895 0.55475
 C558 C 0.61048 0.03545 0.57517
 H559 H 0.61625 0.15623 0.65109
 H560 H 0.64403 0.18997 0.68256
 H561 H 0.71034 0.12083 0.66726
 H562 H 0.68218 0.08693 0.63624
 H563 H 0.57175 0.10716 0.58357
 H564 H 0.54571 0.07855 0.54761
 H565 H 0.60252 -0.00572 0.54705
 H566 H 0.62869 0.02351 0.58266
 C567 C 0.64446 0.62232 0.13941
 C568 C 0.64855 0.61057 0.16629
 C569 C 0.66370 0.63010 0.18470
 C570 C 0.67492 0.66165 0.17642
 C571 C 0.67058 0.67322 0.14938
 C572 C 0.65547 0.65368 0.13104
 C573 C 0.62933 0.60218 0.12013
 C574 C 0.61696 0.58592 0.10335
 C575 C 0.60256 0.56724 0.08260
 C576 C 0.58079 0.54657 0.08969
 C577 C 0.56660 0.52908 0.06927
 C578 C 0.57406 0.53205 0.04150
 C579 C 0.59604 0.55280 0.03465
 C580 C 0.61016 0.57024 0.05506
 H581 H 0.64009 0.58633 0.17299
 H582 H 0.66646 0.62068 0.20546
 H583 H 0.67930 0.69709 0.14222
 H584 H 0.65254 0.66293 0.11024
 H585 H 0.57475 0.54406 0.11096
 H586 H 0.54995 0.51302 0.07521
 H587 H 0.60203 0.55605 0.01344
 H588 H 0.62690 0.58631 0.04934
   
