data_POSCAR
  _audit_creation_date              2014-09-24
  _audit_creation_method            'ToBaCCo'
  _symmetry_space_group_name_H-M    'P1'
  _symmetry_Int_Tables_number       1
  _symmetry_cell_setting            triclinic
  loop_
  _symmetry_equiv_pos_as_xyz
 x,y,z
_cell_length_a 24.4810
_cell_length_b 24.2616
_cell_length_c 23.8941
_cell_angle_alpha 89.799300
_cell_angle_beta 89.303100
_cell_angle_gamma 89.176700
loop_
  _atom_site_label
  _atom_site_type_symbol
  _atom_site_fract_x
  _atom_site_fract_y
  _atom_site_fract_z
C1 C 0.48144 0.97884 -0.64205
 C2 C 0.43088 0.97610 -0.61276
 C3 C 0.43148 0.96580 -0.55487
 C4 C 0.48042 0.95595 -0.52611
 C5 C 0.52993 0.95788 -0.55632
 C6 C 0.53154 0.97021 -0.61388
 C7 C 0.47971 0.94384 -0.46458
 C8 C 0.52359 0.95938 -0.43031
 C9 C 0.52216 0.94889 -0.37239
 C10 C 0.47644 0.92384 -0.34857
 C11 C 0.43194 0.91004 -0.38114
 C12 C 0.43408 0.91856 -0.43910
 H13 H 0.48164 0.98708 -0.68627
 H14 H 0.39308 0.96641 -0.53191
 H15 H 0.56785 0.94894 -0.53501
 H16 H 0.55756 0.98176 -0.44802
 H17 H 0.47423 0.91753 -0.30361
 H18 H 0.39973 0.90574 -0.46370
 C19 C -0.65461 1.51631 0.03614
 C20 C -0.62676 1.46475 0.03839
 C21 C -0.56922 1.46424 0.04039
 C22 C -0.53943 1.51335 0.03722
 C23 C -0.56842 1.56358 0.03313
 C24 C -0.62555 1.56602 0.03374
 C25 C -0.47824 1.51314 0.03581
 C26 C -0.44981 1.55994 0.05384
 C27 C -0.39364 1.56489 0.04450
 C28 C -0.36455 1.52067 0.02034
 C29 C -0.39089 1.47201 0.00604
 C30 C -0.44787 1.46862 0.01276
 H31 H -0.69845 1.51824 0.03778
 H32 H -0.54764 1.42517 0.04425
 H33 H -0.54650 1.60167 0.02760
 H34 H -0.47133 1.59382 0.07406
 H35 H -0.32131 1.52392 0.01137
 H36 H -0.46833 1.43258 -0.00257
 C37 C 0.09996 0.34768 0.50348
 C38 C 0.07675 0.36853 0.45430
 C39 C 0.06557 0.42570 0.45043
 C40 C 0.07772 0.46131 0.49514
 C41 C 0.09978 0.43848 0.54443
 C42 C 0.10937 0.38174 0.54905
 C43 C 0.06571 0.52180 0.49141
 C44 C 0.05088 0.55180 0.53973
 C45 C 0.04276 0.60922 0.53823
 C46 C 0.04527 0.63622 0.48575
 C47 C 0.05727 0.60654 0.43639
 C48 C 0.06938 0.55001 0.43998
 H49 H 0.10740 0.30368 0.50805
 H50 H 0.04641 0.44269 0.41369
 H51 H 0.10944 0.46433 0.57967
 H52 H 0.04610 0.53042 0.57931
 H53 H 0.03853 0.68009 0.48250
 H54 H 0.08133 0.52809 0.40228
 O55 O -0.14791 1.00119 -0.09225
 O56 O 0.13048 1.02579 -0.08316
 O57 O -0.01418 1.09326 -0.15184
 O58 O 0.00556 0.94613 -0.15694
 O59 O 0.01018 0.87495 -0.09267
 O60 O -0.02727 1.15695 -0.08142
 O61 O 0.06603 1.02423 -0.15282
 O62 O -0.07912 1.01270 -0.15779
 Zr63 Zr -0.00831 1.01706 -0.10904
 O64 O 0.04497 0.97074 -0.06158
 O65 O -0.06609 1.05899 -0.06240
 C66 C -0.12980 1.00675 -0.14325
 C67 C 0.11573 1.02478 -0.13520
 C68 C -0.02063 1.14322 -0.13336
 C69 C 0.01187 0.89481 -0.14345
 H70 H 0.05477 1.09597 -0.08023
 O71 O 0.03293 1.06953 -0.05812
 H72 H -0.07190 0.93420 -0.09043
 O73 O -0.05254 0.95929 -0.06514
 O74 O 0.12426 1.02904 0.06804
 O75 O -0.15372 0.99113 0.05797
 O76 O 0.04236 1.16101 -0.00153
 O77 O 0.07839 0.88014 -0.01809
 O78 O -0.06654 0.86325 -0.01534
 O79 O -0.10387 1.14408 -0.01266
 O80 O -0.02400 1.08302 0.13486
 O81 O -0.01248 0.93397 0.13054
 O82 O -0.03196 1.15127 0.06782
 O83 O 0.00137 0.86872 0.06133
 O84 O 0.11804 1.10301 -0.00235
 O85 O -0.16133 1.06968 -0.01535
 O86 O -0.14158 0.92187 -0.01437
 O87 O 0.13717 0.95333 -0.01103
 O88 O 0.05704 1.01738 0.13565
 O89 O -0.09265 0.99811 0.13050
 Zr90 Zr 0.08359 1.02317 -0.00813
 Zr91 Zr -0.10698 1.00146 -0.01489
 Zr92 Zr -0.02472 1.10849 -0.00824
 Zr93 Zr 0.00032 0.91618 -0.01415
 Zr94 Zr -0.01593 1.00948 0.08793
 O95 O -0.05634 0.95600 0.03625
 O96 O 0.02864 1.06572 0.04247
 C97 C 0.10727 1.02627 0.11938
 C98 C -0.14140 0.99080 0.11040
 C99 C 0.09448 1.15141 0.00050
 C100 C 0.12646 0.90134 -0.01711
 C101 C -0.11854 0.87330 -0.01355
 C102 C -0.15183 1.12207 -0.01530
 C103 C -0.02907 1.13414 0.11905
 C104 C -0.00611 0.88381 0.11322
 H105 H -0.09652 1.07449 0.06294
 O106 O -0.06944 1.05445 0.03932
 H107 H 0.06655 0.94503 0.06353
 O108 O 0.04132 0.96681 0.03981
 C109 C 0.37923 0.98216 0.36168
 C110 C 0.36991 0.99701 0.30593
 C111 C 0.31424 1.00014 0.28244
 N112 N 0.30638 1.02527 0.23238
 N113 N 0.25692 1.02761 0.20980
 C114 C 0.21314 1.00472 0.23608
 N115 N 0.22098 0.97926 0.28614
 N116 N 0.27053 0.97724 0.30899
 C117 C 0.15887 1.00491 0.20896
 C118 C 0.15061 1.03560 0.16029
 H119 H 0.40326 1.00862 0.27855
 H120 H 0.12734 0.97775 0.22444
 H121 H 0.34326 0.97531 0.38759
 H122 H 0.18334 1.06187 0.14578
 C123 C -0.41640 0.97329 0.35990
 C124 C -0.40647 0.98256 0.30289
 C125 C -0.35067 0.98515 0.27867
 N126 N -0.34423 0.98553 0.22231
 N127 N -0.29462 0.98764 0.19912
 C128 C -0.24915 0.98966 0.23112
 N129 N -0.25549 0.98989 0.28770
 N130 N -0.30533 0.98748 0.31104
 C131 C -0.19422 0.99221 0.20417
 C132 C -0.18917 0.98133 0.14708
 H133 H -0.43973 0.98641 0.27383
 H134 H -0.15905 1.00395 0.22818
 H135 H -0.38078 0.96757 0.38595
 H136 H -0.22537 0.96823 0.12539
 C137 C -0.43498 0.96682 -0.33389
 C138 C -0.38045 0.97469 -0.34880
 C139 C -0.33985 0.98538 -0.30531
 N140 N -0.28580 0.98672 -0.31837
 N141 N -0.24898 0.99351 -0.27838
 C142 C -0.26498 0.99914 -0.22397
 N143 N -0.31896 0.99832 -0.21109
 N144 N -0.35565 0.99158 -0.25096
 C145 C -0.22530 1.00412 -0.17881
 C146 C -0.16928 1.00526 -0.18896
 H147 H -0.36669 0.96934 -0.39167
 H148 H -0.24083 1.00588 -0.13619
 H149 H -0.44653 0.97004 -0.29008
 H150 H -0.15378 1.00487 -0.23162
 C151 C 0.38154 0.89376 -0.35192
 C152 C 0.33413 0.92517 -0.35916
 C153 C 0.29727 0.93752 -0.31170
 N154 N 0.25721 0.97620 -0.31751
 N155 N 0.22727 0.99231 -0.27348
 C156 C 0.23670 0.97078 -0.22187
 N157 N 0.27648 0.93180 -0.21609
 N158 N 0.30639 0.91566 -0.26015
 C159 C 0.20343 0.98764 -0.17311
 C160 C 0.15799 1.02213 -0.17884
 H161 H 0.32977 0.95012 -0.39659
 H162 H 0.21157 0.96827 -0.13307
 H163 H 0.38602 0.87000 -0.31372
 H164 H 0.14788 1.03857 -0.21970
 C165 C 0.34622 1.41358 0.03805
 C166 C 0.28976 1.40713 0.03281
 C167 C 0.26365 1.35297 0.02849
 N168 N 0.20874 1.35111 0.02265
 N169 N 0.18375 1.30312 0.01754
 C170 C 0.21255 1.25486 0.01798
 N171 N 0.26763 1.25657 0.02394
 N172 N 0.29276 1.30477 0.02907
 C173 C 0.18423 1.20178 0.01197
 C174 C 0.12767 1.20111 0.00578
 H175 H 0.26248 1.44228 0.03005
 H176 H 0.20761 1.16356 0.01268
 H177 H 0.37104 1.37628 0.04025
 H178 H 0.10531 1.23999 0.00556
 C179 C 0.34930 0.61866 0.03245
 C180 C 0.29404 0.62936 0.02279
 C181 C 0.27234 0.68625 0.02120
 N182 N 0.22697 0.69792 -0.00873
 N183 N 0.20711 0.74921 -0.01112
 C184 C 0.23153 0.79083 0.01662
 N185 N 0.27649 0.77906 0.04734
 N186 N 0.29679 0.72775 0.04921
 C187 C 0.20747 0.84692 0.01574
 C188 C 0.17102 0.86156 -0.02608
 H189 H 0.26679 0.59676 0.01128
 H190 H 0.21397 0.87432 0.05065
 H191 H 0.37523 0.65424 0.03688
 H192 H 0.16557 0.83317 -0.06041
 C193 C -0.36788 0.61881 0.05437
 C194 C -0.31157 0.62509 0.05759
 C195 C -0.28527 0.67842 0.04874
 N196 N -0.23035 0.67966 0.04170
 N197 N -0.20566 0.72659 0.02902
 C198 C -0.23490 0.77415 0.02275
 N199 N -0.28986 0.77322 0.03068
 N200 N -0.31469 0.72605 0.04309
 C201 C -0.20716 0.82574 0.00812
 C202 C -0.15265 0.82440 -0.00916
 H203 H -0.28506 0.58930 0.06170
 H204 H -0.22890 0.86468 0.01282
 H205 H -0.39401 0.65525 0.05472
 H206 H -0.13206 0.78488 -0.01444
 C207 C -0.35710 1.42682 -0.01778
 C208 C -0.36700 1.37120 -0.00773
 C209 C -0.32377 1.32935 -0.01770
 N210 N -0.33174 1.27592 -0.00308
 N211 N -0.29112 1.23891 -0.00773
 C212 C -0.24105 1.25412 -0.02696
 N213 N -0.23330 1.30733 -0.04205
 N214 N -0.27385 1.34419 -0.03755
 C215 C -0.19456 1.21520 -0.02894
 C216 C -0.19974 1.15924 -0.01733
 H217 H -0.40436 1.35880 0.01318
 H218 H -0.15467 1.23155 -0.03910
 H219 H -0.31853 1.43810 -0.03706
 H220 H -0.23983 1.14214 -0.01000
 C221 C 0.06363 1.33015 0.41281
 C222 C 0.03630 1.34139 0.36298
 C223 C 0.02156 1.29615 0.32533
 N224 N -0.00148 1.30722 0.27513
 N225 N -0.01405 1.26634 0.24070
 C226 C -0.00435 1.21292 0.25537
 N227 N 0.01814 1.20187 0.30575
 N228 N 0.03078 1.24269 0.34007
 C229 C -0.01470 1.16749 0.21663
 C230 C -0.03068 1.17732 0.16183
 H231 H 0.02484 1.38287 0.35094
 H232 H -0.00495 1.12585 0.23010
 H233 H 0.07435 1.28738 0.42101
 H234 H -0.03911 1.21921 0.14823
 C235 C 0.12218 1.35537 -0.39716
 C236 C 0.08734 1.36390 -0.35139
 C237 C 0.07331 1.31824 -0.31349
 N238 N 0.03314 1.32510 -0.27439
 N239 N 0.01576 1.28242 -0.24413
 C240 C 0.03748 1.23121 -0.25245
 N241 N 0.07786 1.22445 -0.29121
 N242 N 0.09532 1.26711 -0.32130
 C243 C 0.01910 1.18350 -0.21977
 C244 C -0.01571 1.18868 -0.17354
 H245 H 0.06168 1.40065 -0.34985
 H246 H 0.03763 1.14375 -0.22935
 H247 H 0.14692 1.31799 -0.39862
 H248 H -0.03161 1.22892 -0.16169
 C249 C 0.03359 0.63678 -0.41038
 C250 C 0.03009 0.69397 -0.40367
 C251 C 0.02589 0.72053 -0.34827
 N252 N 0.02782 0.77617 -0.34526
 N253 N 0.02510 0.80150 -0.29602
 C254 C 0.02035 0.77241 -0.24755
 N255 N 0.01816 0.71656 -0.25042
 N256 N 0.02103 0.69107 -0.29989
 C257 C 0.01667 0.80151 -0.19313
 C258 C 0.02144 0.85867 -0.19197
 H259 H 0.03297 0.72138 -0.43920
 H260 H 0.00850 0.77868 -0.15499
 H261 H 0.03150 0.61196 -0.37260
 H262 H 0.02954 0.87999 -0.23106
 C263 C 0.05815 0.63370 0.38056
 C264 C 0.02375 0.67821 0.36775
 C265 C 0.02228 0.70539 0.31248
 N266 N -0.01382 0.74738 0.30433
 N267 N -0.01536 0.77408 0.25566
 C268 C 0.01908 0.75999 0.21289
 N269 N 0.05496 0.71745 0.22071
 N270 N 0.05654 0.69060 0.26963
 C271 C 0.01928 0.79260 0.16029
 C272 C -0.00977 0.84241 0.15810
 H273 H -0.00469 0.69351 0.39928
 H274 H 0.04534 0.78006 0.12554
 H275 H 0.08348 0.61576 0.34768
 H276 H -0.03263 0.85548 0.19496
   
