data_POSCAR
  _audit_creation_date              2014-09-24
  _audit_creation_method            'ToBaCCo'
  _symmetry_space_group_name_H-M    'P1'
  _symmetry_Int_Tables_number       1
  _symmetry_cell_setting            triclinic
  loop_
  _symmetry_equiv_pos_as_xyz
 x,y,z
_cell_length_a 37.6098
_cell_length_b 41.8010
_cell_length_c 42.7176
_cell_angle_alpha 89.948600
_cell_angle_beta 90.258700
_cell_angle_gamma 90.303900
loop_
  _atom_site_label
  _atom_site_type_symbol
  _atom_site_fract_x
  _atom_site_fract_y
  _atom_site_fract_z
O1 O 0.33768 0.37511 0.01146
 O2 O 0.36900 0.30589 -0.03324
 O3 O 0.32268 0.35133 -0.04226
 O4 O 0.38345 0.33004 0.02235
 O5 O 0.34251 0.29786 0.04216
 O6 O 0.28062 0.32201 -0.02021
 O7 O 0.32679 0.27567 -0.01258
 O8 O 0.29745 0.34428 0.03427
 Cu9 Cu 0.35770 0.34337 -0.01262
 Cu10 Cu 0.30764 0.30681 0.01294
 C11 C 0.31201 0.37146 0.03029
 C12 C 0.35323 0.27912 -0.03062
 C13 C 0.29078 0.34124 -0.04145
 C14 C 0.37333 0.31027 0.04312
 O15 O 0.68192 0.64771 0.04263
 O16 O 0.64503 0.68191 -0.02993
 O17 O 0.69145 0.63813 -0.01862
 O18 O 0.63640 0.69430 0.02800
 O19 O 0.67879 0.73050 0.02163
 O20 O 0.73765 0.66992 -0.01082
 O21 O 0.69335 0.71196 -0.03411
 O22 O 0.72056 0.68759 0.04530
 Cu23 Cu 0.65956 0.66144 0.00620
 Cu24 Cu 0.71218 0.70339 0.00543
 C25 C 0.70666 0.66255 0.05689
 C26 C 0.66351 0.70235 -0.04470
 C27 C 0.72440 0.64438 -0.02189
 C28 C 0.64783 0.72290 0.03065
 O29 O 0.63663 0.38408 0.96198
 O30 O 0.61856 0.32539 1.02456
 O31 O 0.63612 0.38596 1.02367
 O32 O 0.61787 0.32419 0.96421
 O33 O 0.67468 0.31082 0.96457
 O34 O 0.69257 0.37175 1.02474
 O35 O 0.67515 0.31135 1.02423
 O36 O 0.69336 0.37067 0.96296
 Cu37 Cu 0.62167 0.35664 0.99362
 Cu38 Cu 0.68982 0.34023 0.99422
 C39 C 0.66800 0.38680 0.95142
 C40 C 0.64370 0.30770 1.03423
 C41 C 0.66730 0.38889 1.03484
 C42 C 0.64309 0.30664 0.95475
 O43 O 0.36762 0.68912 1.02968
 O44 O 0.35045 0.62564 0.97118
 O45 O 0.37082 0.68526 0.96885
 O46 O 0.35149 0.62862 1.03248
 O47 O 0.29452 0.64101 1.03043
 O48 O 0.31446 0.69988 0.96818
 O49 O 0.29400 0.63972 0.96881
 O50 O 0.31044 0.70100 1.02915
 Cu51 Cu 0.36571 0.65571 1.00063
 Cu52 Cu 0.29766 0.67164 0.99874
 C53 C 0.34162 0.70543 1.03978
 C54 C 0.31937 0.62214 0.95981
 C55 C 0.34608 0.70257 0.95801
 C56 C 0.32001 0.62542 1.04265
 O57 O 0.03445 0.34585 0.36843
 O58 O -0.04033 0.37189 0.31836
 O59 O -0.03487 0.34877 0.37494
 O60 O 0.02828 0.37150 0.31321
 O61 O 0.02338 0.32311 0.29281
 O62 O -0.03874 0.29994 0.35546
 O63 O -0.04521 0.32275 0.29970
 O64 O 0.03003 0.29713 0.34876
 Cu65 Cu -0.00265 0.36432 0.34588
 Cu66 Cu -0.00776 0.30580 0.32224
 C67 C 0.04493 0.31704 0.36704
 C68 C -0.05557 0.35156 0.30063
 C69 C -0.04788 0.32069 0.37556
 C70 C 0.03602 0.35137 0.29217
 O71 O 0.02682 0.64654 0.60843
 O72 O -0.03596 0.62958 0.67273
 O73 O -0.03403 0.67006 0.62562
 O74 O 0.02480 0.60662 0.65590
 O75 O 0.05342 0.64194 0.68525
 O76 O -0.00653 0.70473 0.65645
 O77 O -0.00729 0.66436 0.70266
 O78 O 0.05377 0.68242 0.63833
 Cu79 Cu -0.00736 0.63463 0.63760
 Cu80 Cu 0.02622 0.67687 0.67360
 C81 C 0.05046 0.66798 0.61236
 C82 C -0.03180 0.64376 0.69880
 C83 C -0.03005 0.69837 0.63593
 C84 C 0.04862 0.61338 0.67605
 O85 O 0.97010 0.67705 0.37701
 O86 O 1.04064 0.62222 0.35202
 O87 O 1.03851 0.68088 0.37297
 O88 O 0.97110 0.61905 0.35461
 O89 O 0.96678 0.63842 0.30660
 O90 O 1.03580 0.69816 0.32414
 O91 O 1.03528 0.63974 0.30340
 O92 O 0.96630 0.69593 0.32876
 Cu93 Cu 1.00558 0.64784 0.36901
 Cu94 Cu 1.00068 0.67007 0.31091
 C95 C 0.95622 0.69578 0.35709
 C96 C 1.04975 0.62149 0.32345
 C97 C 1.04876 0.69990 0.35156
 C98 C 0.95730 0.61850 0.32740
 O99 O 0.95210 0.32997 0.61842
 O100 O 1.02856 0.38025 0.64220
 O101 O 1.02038 0.32451 0.61553
 O102 O 0.95873 0.38652 0.64368
 O103 O 0.95999 0.36572 0.69123
 O104 O 1.01711 0.30106 0.66179
 O105 O 1.02864 0.35676 0.68853
 O106 O 0.94942 0.31016 0.66636
 Cu107 Cu 0.99009 0.35785 0.62534
 Cu108 Cu 0.98903 0.33131 0.68173
 C109 C 0.93769 0.31166 0.63852
 C110 C 1.04190 0.37663 0.66933
 C111 C 1.02817 0.30151 0.63370
 C112 C 0.94868 0.38657 0.67204
 O113 O 0.43317 0.03880 0.36665
 O114 O 0.39030 -0.02457 0.41164
 O115 O 0.43139 -0.02370 0.36349
 O116 O 0.38838 0.03744 0.41226
 O117 O 0.34252 0.03841 0.37979
 O118 O 0.38601 -0.02291 0.33051
 O119 O 0.34417 -0.02446 0.37943
 O120 O 0.38803 0.04021 0.33342
 Cu121 Cu 0.41537 0.00695 0.39161
 Cu122 Cu 0.36061 0.00790 0.35244
 C123 C 0.41808 0.05069 0.34281
 C124 C 0.36024 -0.03549 0.40339
 C125 C 0.41589 -0.03407 0.33899
 C126 C 0.35818 0.04838 0.40435
 O127 O 0.61768 0.02670 0.67829
 O128 O 0.63604 -0.03943 0.62401
 O129 O 0.61950 -0.03545 0.68238
 O130 O 0.63434 0.02311 0.61917
 O131 O 0.69136 0.02547 0.63173
 O132 O 0.67635 -0.03204 0.69539
 O133 O 0.69304 -0.03641 0.63660
 O134 O 0.67489 0.03007 0.69000
 Cu135 Cu 0.62111 -0.00644 0.64961
 Cu136 Cu 0.68966 -0.00304 0.66470
 C137 C 0.64322 0.03976 0.69314
 C138 C 0.66770 -0.04940 0.62147
 C139 C 0.64552 -0.04376 0.69952
 C140 C 0.66536 0.03439 0.61490
 O141 O 0.30859 1.02252 0.62634
 O142 O 0.37911 0.97120 0.65938
 O143 O 0.31911 0.96104 0.62869
 O144 O 0.36899 1.03222 0.65392
 O145 O 0.34245 1.03019 0.69995
 O146 O 0.29114 0.95948 0.67406
 O147 O 0.35005 0.96869 0.70418
 O148 O 0.28150 1.02151 0.67214
 Cu149 Cu 0.34669 0.99662 0.63744
 Cu150 Cu 0.31332 0.99484 0.69207
 C151 C 0.28341 1.03123 0.64406
 C152 C 0.37656 0.96142 0.68748
 C153 C 0.29662 0.94823 0.64692
 C154 C 0.36439 1.04322 0.68123
 O155 O 0.62332 0.96371 0.31321
 O156 O 0.64221 1.02717 0.37032
 O157 O 0.62519 1.02520 0.31179
 O158 O 0.64037 0.96409 0.37258
 O159 O 0.69723 0.96266 0.35994
 O160 O 0.68231 1.02409 0.29984
 O161 O 0.69930 1.02523 0.35859
 O162 O 0.68030 0.96182 0.30092
 Cu163 Cu 0.62707 0.99503 0.34353
 Cu164 Cu 0.69556 0.99320 0.32871
 C165 C 0.64847 0.95229 0.29707
 C166 C 0.67376 1.03761 0.37361
 C167 C 0.65126 1.03510 0.29561
 C168 C 0.67134 0.95269 0.37627
 C169 C 0.80512 0.80614 0.51701
 C170 C 0.80173 0.80406 0.48534
 C171 C 0.82510 0.78462 0.46495
 C172 C 0.77562 0.82468 0.46876
 C173 C 0.78038 0.82647 0.53484
 C174 C 0.83419 0.79119 0.53533
 C175 C 0.86242 0.78607 0.46709
 C176 C 0.88343 0.77085 0.44464
 C177 C 0.86741 0.75511 0.41918
 C178 C 0.83032 0.75340 0.41720
 C179 C 0.80939 0.76764 0.44004
 C180 C 0.78805 0.85068 0.45117
 C181 C 0.76419 0.87184 0.43722
 C182 C 0.72728 0.86731 0.44047
 C183 C 0.71490 0.84082 0.45767
 C184 C 0.73887 0.81954 0.47152
 C185 C 0.75033 0.81273 0.54882
 C186 C 0.72464 0.83219 0.56248
 C187 C 0.72927 0.86550 0.56305
 C188 C 0.75994 0.87912 0.54984
 C189 C 0.78516 0.85975 0.53551
 C190 C 0.83850 0.75788 0.53712
 C191 C 0.86448 0.74476 0.55704
 C192 C 0.88635 0.76487 0.57545
 C193 C 0.88221 0.79812 0.57287
 C194 C 0.85651 0.81107 0.55317
 H195 H 0.87539 0.80007 0.48515
 H196 H 0.91210 0.77274 0.44619
 H197 H 0.81762 0.74128 0.39771
 H198 H 0.78073 0.76636 0.43768
 H199 H 0.81635 0.85502 0.44893
 H200 H 0.77483 0.89207 0.42452
 H201 H 0.72884 0.79935 0.48477
 H202 H 0.74623 0.78707 0.54815
 H203 H 0.70119 0.82133 0.57268
 H204 H 0.76377 0.90480 0.54974
 H205 H 0.80800 0.87067 0.52433
 H206 H 0.82129 0.74213 0.52372
 H207 H 0.86679 0.71904 0.55847
 H208 H 0.89870 0.81430 0.58646
 H209 H 0.85389 0.83682 0.55208
 H210 H 0.68666 0.83662 0.46043
 C211 C 0.17371 0.17707 0.51408
 C212 C 0.18517 0.18176 0.48417
 C213 C 0.16711 0.20480 0.46312
 C214 C 0.21713 0.16517 0.47191
 C215 C 0.19139 0.15425 0.53594
 C216 C 0.14378 0.19546 0.52799
 C217 C 0.13134 0.20049 0.45454
 C218 C 0.11366 0.22397 0.43713
 C219 C 0.13140 0.25228 0.42841
 C220 C 0.16744 0.25609 0.43638
 C221 C 0.18527 0.23237 0.45325
 C222 C 0.21424 0.14474 0.44595
 C223 C 0.24336 0.12644 0.43635
 C224 C 0.27608 0.12848 0.45243
 C225 C 0.27917 0.15014 0.47753
 C226 C 0.25012 0.16835 0.48707
 C227 C 0.20011 0.16465 0.56631
 C228 C 0.21257 0.14315 0.58864
 C229 C 0.21752 0.11097 0.58092
 C230 C 0.21024 0.10054 0.55032
 C231 C 0.19662 0.12193 0.52808
 C232 C 0.14528 0.22900 0.53057
 C233 C 0.12179 0.24514 0.55041
 C234 C 0.09715 0.22787 0.56850
 C235 C 0.09446 0.19465 0.56459
 C236 C 0.11726 0.17867 0.54432
 H237 H 0.11695 0.17931 0.46195
 H238 H 0.08580 0.22055 0.43157
 H239 H 0.18166 0.27764 0.42983
 H240 H 0.21286 0.23609 0.45972
 H241 H 0.18903 0.14207 0.43385
 H242 H 0.23984 0.11023 0.41687
 H243 H 0.25309 0.18435 0.50686
 H244 H 0.19633 0.18939 0.57299
 H245 H 0.21824 0.15156 0.61212
 H246 H 0.21363 0.07564 0.54413
 H247 H 0.18927 0.11310 0.50513
 H248 H 0.16610 0.24244 0.51900
 H249 H 0.12457 0.27075 0.55335
 H250 H 0.07557 0.18094 0.57824
 H251 H 0.11577 0.15281 0.54294
 H252 H 0.30399 0.15259 0.49025
 C253 C 0.19936 0.81375 0.47602
 C254 C 0.19420 0.80773 0.50714
 C255 C 0.17053 0.78140 0.51818
 C256 C 0.21152 0.82750 0.53208
 C257 C 0.22855 0.83532 0.46545
 C258 C 0.17666 0.79876 0.45128
 C259 C 0.14522 0.78767 0.54136
 C260 C 0.12440 0.76301 0.55356
 C261 C 0.12832 0.73149 0.54276
 C262 C 0.15308 0.72524 0.51907
 C263 C 0.17435 0.74993 0.50711
 C264 C 0.21125 0.86112 0.53059
 C265 C 0.22578 0.87936 0.55492
 C266 C 0.23957 0.86436 0.58171
 C267 C 0.23940 0.83090 0.58354
 C268 C 0.22591 0.81262 0.55880
 C269 C 0.26344 0.83055 0.47611
 C270 C 0.29048 0.85173 0.46763
 C271 C 0.28343 0.87788 0.44789
 C272 C 0.24872 0.88197 0.43621
 C273 C 0.22153 0.86078 0.44488
 C274 C 0.19221 0.78674 0.42384
 C275 C 0.17117 0.77237 0.40069
 C276 C 0.13443 0.76912 0.40496
 C277 C 0.11869 0.78155 0.43197
 C278 C 0.13949 0.79694 0.45457
 H279 H 0.14172 0.81173 0.55017
 H280 H 0.10502 0.76870 0.57132
 H281 H 0.15655 0.70112 0.51042
 H282 H 0.19410 0.74444 0.48958
 H283 H 0.19917 0.87331 0.51090
 H284 H 0.22511 0.90520 0.55336
 H285 H 0.22621 0.78678 0.56071
 H286 H 0.26961 0.81065 0.49142
 H287 H 0.31700 0.84777 0.47673
 H288 H 0.24231 0.90192 0.42112
 H289 H 0.19479 0.86473 0.43623
 H290 H 0.22070 0.78814 0.42048
 H291 H 0.18357 0.76299 0.37983
 H292 H 0.09021 0.77976 0.43523
 H293 H 0.12654 0.80722 0.47475
 H294 H 0.24991 0.81899 0.60408
 C295 C 0.79394 0.19363 0.48028
 C296 C 0.79059 0.19088 0.51192
 C297 C 0.81121 0.21068 0.53462
 C298 C 0.76593 0.16679 0.52546
 C299 C 0.77397 0.17165 0.45944
 C300 C 0.81679 0.21818 0.46525
 C301 C 0.84820 0.21485 0.53192
 C302 C 0.86700 0.23302 0.55401
 C303 C 0.84931 0.24636 0.57973
 C304 C 0.81258 0.24162 0.58279
 C305 C 0.79367 0.22419 0.56035
 C306 C 0.77957 0.14046 0.54176
 C307 C 0.75664 0.11721 0.55388
 C308 C 0.71958 0.12004 0.55004
 C309 C 0.70607 0.14662 0.53381
 C310 C 0.72903 0.16993 0.52186
 C311 C 0.74168 0.18157 0.44626
 C312 C 0.71922 0.15935 0.43173
 C313 C 0.72927 0.12716 0.42934
 C314 C 0.76261 0.11767 0.44087
 C315 C 0.78468 0.13974 0.45616
 C316 C 0.81350 0.25072 0.47275
 C317 C 0.83662 0.27331 0.45969
 C318 C 0.86310 0.26390 0.43852
 C319 C 0.86561 0.23137 0.43041
 C320 C 0.84259 0.20881 0.44356
 H321 H 0.86264 0.20372 0.51300
 H322 H 0.89548 0.23577 0.55158
 H323 H 0.79853 0.25161 0.60254
 H324 H 0.76525 0.22113 0.56315
 H325 H 0.80802 0.13773 0.54469
 H326 H 0.76804 0.09690 0.56586
 H327 H 0.71808 0.19043 0.50975
 H328 H 0.73300 0.20609 0.44886
 H329 H 0.69366 0.16708 0.42285
 H330 H 0.77072 0.09291 0.43947
 H331 H 0.80942 0.13174 0.46653
 H332 H 0.79334 0.25853 0.48903
 H333 H 0.83384 0.29819 0.46619
 H334 H 0.88576 0.22309 0.41443
 H335 H 0.84554 0.18383 0.43742
 H336 H 0.67770 0.14952 0.53068
 C337 C 0.52075 0.81425 0.82153
 C338 C 0.48516 0.82059 0.82252
 C339 C 0.46946 0.84572 0.80197
 C340 C 0.45978 0.80313 0.84331
 C341 C 0.53830 0.78872 0.84004
 C342 C 0.54587 0.83459 0.80332
 C343 C 0.48208 0.87748 0.80241
 C344 C 0.47063 0.89931 0.77974
 C345 C 0.44500 0.89021 0.75754
 C346 C 0.43027 0.85939 0.75864
 C347 C 0.44263 0.83719 0.78054
 C348 C 0.43421 0.82081 0.85972
 C349 C 0.40882 0.80549 0.87821
 C350 C 0.40873 0.77212 0.88129
 C351 C 0.43428 0.75422 0.86510
 C352 C 0.45921 0.76954 0.84582
 C353 C 0.56141 0.76792 0.82440
 C354 C 0.58552 0.74931 0.84114
 C355 C 0.58655 0.75064 0.87386
 C356 C 0.56164 0.76957 0.88976
 C357 C 0.53789 0.78884 0.87292
 C358 C 0.54279 0.83838 0.77074
 C359 C 0.56595 0.85897 0.75478
 C360 C 0.59316 0.87522 0.77105
 C361 C 0.59708 0.87025 0.80333
 C362 C 0.57356 0.85032 0.81933
 H363 H 0.50191 0.88490 0.81939
 H364 H 0.48179 0.92324 0.77935
 H365 H 0.41028 0.85222 0.74168
 H366 H 0.43215 0.81300 0.78008
 H367 H 0.43382 0.84668 0.85813
 H368 H 0.38940 0.81976 0.89049
 H369 H 0.47761 0.75511 0.83259
 H370 H 0.56234 0.76767 0.79905
 H371 H 0.60446 0.73482 0.82854
 H372 H 0.56233 0.77123 0.91504
 H373 H 0.52092 0.80525 0.88543
 H374 H 0.52213 0.82587 0.75784
 H375 H 0.56284 0.86195 0.72975
 H376 H 0.61790 0.88244 0.81630
 H377 H 0.57661 0.84753 0.84441
 H378 H 0.43431 0.72838 0.86672
 C379 C 0.52665 0.18095 0.17762
 C380 C 0.49209 0.18579 0.18581
 C381 C 0.47715 0.17141 0.21464
 C382 C 0.46897 0.20701 0.16706
 C383 C 0.54369 0.19868 0.15142
 C384 C 0.55030 0.15882 0.19534
 C385 C 0.45003 0.14829 0.21277
 C386 C 0.44060 0.13045 0.23929
 C387 C 0.45800 0.13579 0.26808
 C388 C 0.48327 0.16064 0.27014
 C389 C 0.49268 0.17830 0.24373
 C390 C 0.45935 0.19864 0.13637
 C391 C 0.44260 0.22092 0.11693
 C392 C 0.43615 0.25204 0.12774
 C393 C 0.44458 0.25999 0.15878
 C394 C 0.46021 0.23737 0.17856
 C395 C 0.54484 0.23230 0.15113
 C396 C 0.56517 0.24859 0.12887
 C397 C 0.58573 0.23148 0.10735
 C398 C 0.58430 0.19797 0.10738
 C399 C 0.56321 0.18171 0.12903
 C400 C 0.58417 0.16945 0.20482
 C401 C 0.60752 0.14875 0.22005
 C402 C 0.59726 0.11718 0.22662
 C403 C 0.56336 0.10645 0.21734
 C404 C 0.54028 0.12696 0.20136
 H405 H 0.43774 0.14273 0.19043
 H406 H 0.42099 0.11161 0.23680
 H407 H 0.49682 0.16563 0.29202
 H408 H 0.51340 0.19631 0.24563
 H409 H 0.46608 0.17531 0.12716
 H410 H 0.43649 0.21450 0.09295
 H411 H 0.46769 0.24421 0.20215
 H412 H 0.53148 0.24594 0.16903
 H413 H 0.56651 0.27445 0.12960
 H414 H 0.60006 0.18442 0.09095
 H415 H 0.56315 0.15579 0.12912
 H416 H 0.59263 0.19383 0.20029
 H417 H 0.63353 0.15747 0.22703
 H418 H 0.55515 0.08199 0.22169
 H419 H 0.51483 0.11785 0.19336
 H420 H 0.43970 0.28391 0.16742
 C421 C 0.48140 0.17421 0.82011
 C422 C 0.51754 0.17439 0.82125
 C423 C 0.53932 0.15618 0.79848
 C424 C 0.53765 0.19222 0.84578
 C425 C 0.46020 0.18723 0.84609
 C426 C 0.46137 0.15896 0.79403
 C427 C 0.53314 0.12342 0.79326
 C428 C 0.55574 0.10599 0.77393
 C429 C 0.58547 0.12081 0.76028
 C430 C 0.59162 0.15348 0.76546
 C431 C 0.56860 0.17107 0.78419
 C432 C 0.56549 0.17695 0.86178
 C433 C 0.58827 0.19437 0.88124
 C434 C 0.58344 0.22733 0.88543
 C435 C 0.55474 0.24246 0.87044
 C436 C 0.53224 0.22509 0.85050
 C437 C 0.43922 0.21441 0.84135
 C438 C 0.41831 0.22618 0.86563
 C439 C 0.41729 0.21026 0.89457
 C440 C 0.43788 0.18276 0.89909
 C441 C 0.45958 0.17152 0.87510
 C442 C 0.46857 0.16694 0.76278
 C443 C 0.45171 0.15048 0.73841
 C444 C 0.42705 0.12593 0.74477
 C445 C 0.41866 0.11909 0.77616
 C446 C 0.43561 0.13551 0.80050
 H447 H 0.51144 0.11116 0.80483
 H448 H 0.55088 0.08066 0.77073
 H449 H 0.61442 0.16530 0.75514
 H450 H 0.57405 0.19623 0.78812
 H451 H 0.57028 0.15166 0.85839
 H452 H 0.61010 0.18220 0.89268
 H453 H 0.51165 0.23760 0.83771
 H454 H 0.43924 0.22654 0.81893
 H455 H 0.40228 0.24724 0.86165
 H456 H 0.43737 0.17024 0.92129
 H457 H 0.47538 0.15026 0.87888
 H458 H 0.48786 0.18541 0.75729
 H459 H 0.45848 0.15655 0.71452
 H460 H 0.39976 0.10057 0.78217
 H461 H 0.42949 0.12909 0.82446
 H462 H 0.55074 0.26794 0.87294
 C463 C 0.47110 0.83008 0.17590
 C464 C 0.50631 0.83109 0.16815
 C465 C 0.53321 0.84831 0.18755
 C466 C 0.52086 0.81583 0.13970
 C467 C 0.44404 0.81356 0.15587
 C468 C 0.45880 0.84528 0.20550
 C469 C 0.52926 0.88082 0.19497
 C470 C 0.55499 0.89658 0.21300
 C471 C 0.58566 0.88038 0.22299
 C472 C 0.59015 0.84822 0.21472
 C473 C 0.56405 0.83226 0.19734
 C474 C 0.53606 0.83548 0.11681
 C475 C 0.55582 0.82231 0.09264
 C476 C 0.56159 0.78914 0.09110
 C477 C 0.54475 0.76918 0.11320
 C478 C 0.52444 0.78250 0.13736
 C479 C 0.41865 0.79328 0.16974
 C480 C 0.39421 0.77636 0.15124
 C481 C 0.39522 0.77888 0.11853
 C482 C 0.41979 0.79971 0.10458
 C483 C 0.44335 0.81753 0.12312
 C484 C 0.47329 0.83591 0.23440
 C485 C 0.46762 0.85428 0.26121
 C486 C 0.44683 0.88212 0.25990
 C487 C 0.43007 0.89010 0.23143
 C488 C 0.43598 0.87176 0.20446
 H489 H 0.50638 0.89402 0.18669
 H490 H 0.55134 0.92160 0.21854
 H491 H 0.61364 0.83537 0.22213
 H492 H 0.56786 0.80730 0.19157
 H493 H 0.53368 0.86126 0.11836
 H494 H 0.56805 0.83835 0.07590
 H495 H 0.51317 0.76704 0.15513
 H496 H 0.41817 0.79005 0.19489
 H497 H 0.37513 0.76059 0.16233
 H498 H 0.42024 0.80254 0.07939
 H499 H 0.46109 0.83429 0.11177
 H500 H 0.49066 0.81537 0.23579
 H501 H 0.48051 0.84729 0.28285
 H502 H 0.41395 0.91137 0.22954
 H503 H 0.42453 0.87936 0.18238
 H504 H 0.54848 0.74356 0.11276
 C505 C 0.81203 0.52541 0.81849
 C506 C 0.80436 0.49508 0.80908
 C507 C 0.77662 0.47621 0.82540
 C508 C 0.82501 0.47910 0.78417
 C509 C 0.83813 0.54618 0.80193
 C510 C 0.79639 0.53856 0.84757
 C511 C 0.78607 0.44946 0.84330
 C512 C 0.76106 0.43474 0.86278
 C513 C 0.72610 0.44654 0.86460
 C514 C 0.71635 0.47227 0.84523
 C515 C 0.74136 0.48695 0.82581
 C516 C 0.86098 0.47165 0.78898
 C517 C 0.88076 0.45744 0.76510
 C518 C 0.86504 0.45110 0.73585
 C519 C 0.82901 0.45850 0.73116
 C520 C 0.80898 0.47190 0.75532
 C521 C 0.83575 0.55146 0.76947
 C522 C 0.85956 0.57228 0.75457
 C523 C 0.88566 0.58868 0.77201
 C524 C 0.88780 0.58352 0.80442
 C525 C 0.86444 0.56243 0.81918
 C526 C 0.77067 0.56269 0.84604
 C527 C 0.75905 0.57761 0.87344
 C528 C 0.77382 0.56918 0.90251
 C529 C 0.79876 0.54441 0.90405
 C530 C 0.80957 0.52883 0.87681
 H531 H 0.81320 0.44088 0.84326
 H532 H 0.76948 0.41461 0.87680
 H533 H 0.68963 0.48174 0.84584
 H534 H 0.73359 0.50749 0.81195
 H535 H 0.87369 0.47699 0.81118
 H536 H 0.90855 0.45218 0.76917
 H537 H 0.78125 0.47748 0.75127
 H538 H 0.81501 0.54005 0.75577
 H539 H 0.85691 0.57621 0.72964
 H540 H 0.90776 0.59575 0.81836
 H541 H 0.86690 0.55890 0.84421
 H542 H 0.76043 0.57053 0.82358
 H543 H 0.74036 0.59716 0.87180
 H544 H 0.81078 0.53803 0.92626
 H545 H 0.82962 0.51037 0.87830
 H546 H 0.81637 0.45370 0.70882
 C547 C 0.18909 0.51296 0.18431
 C548 C 0.18251 0.48217 0.17534
 C549 C 0.20233 0.46755 0.14902
 C550 C 0.15678 0.46079 0.19176
 C551 C 0.16932 0.52832 0.20997
 C552 C 0.21611 0.53292 0.16808
 C553 C 0.20284 0.48182 0.11922
 C554 C 0.22445 0.46945 0.09573
 C555 C 0.24456 0.44185 0.10126
 C556 C 0.24250 0.42657 0.13045
 C557 C 0.22171 0.43944 0.15422
 C558 C 0.13338 0.44179 0.17390
 C559 C 0.11204 0.41866 0.18820
 C560 C 0.11315 0.41438 0.22073
 C561 C 0.13586 0.43382 0.23882
 C562 C 0.15791 0.45648 0.22441
 C563 C 0.18746 0.53762 0.23725
 C564 C 0.16900 0.55141 0.26205
 C565 C 0.13236 0.55701 0.25952
 C566 C 0.11434 0.54825 0.23190
 C567 C 0.13267 0.53375 0.20736
 C568 C 0.25188 0.52363 0.16741
 C569 C 0.27593 0.53932 0.14776
 C570 C 0.26475 0.56472 0.12852
 C571 C 0.22935 0.57524 0.13079
 C572 C 0.20532 0.55954 0.15050
 H573 H 0.18723 0.50296 0.11444
 H574 H 0.22542 0.48127 0.07319
 H575 H 0.25794 0.40531 0.13517
 H576 H 0.22146 0.42796 0.17696
 H577 H 0.13224 0.44438 0.14868
 H578 H 0.09467 0.40398 0.17385
 H579 H 0.17667 0.46977 0.23866
 H580 H 0.21579 0.53362 0.23952
 H581 H 0.18335 0.55813 0.28308
 H582 H 0.08602 0.55212 0.22957
 H583 H 0.11839 0.52681 0.18634
 H584 H 0.26075 0.50330 0.18104
 H585 H 0.30306 0.53086 0.14684
 H586 H 0.21988 0.59512 0.11693
 H587 H 0.17783 0.56713 0.15085
 H588 H 0.13760 0.43054 0.26391
 C589 C 0.79387 0.48549 0.19192
 C590 C 0.79753 0.51748 0.19761
 C591 C 0.77957 0.54228 0.17809
 C592 C 0.82137 0.52976 0.22277
 C593 C 0.81525 0.46106 0.20902
 C594 C 0.76887 0.47311 0.16766
 C595 C 0.78143 0.54170 0.14521
 C596 C 0.76648 0.56635 0.12743
 C597 C 0.75066 0.59261 0.14223
 C598 C 0.74911 0.59342 0.17499
 C599 C 0.76309 0.56836 0.19274
 C600 C 0.84836 0.55157 0.21505
 C601 C 0.87111 0.56358 0.23809
 C602 C 0.86721 0.55427 0.26956
 C603 C 0.84005 0.53242 0.27730
 C604 C 0.81718 0.52039 0.25413
 C605 C 0.79826 0.43395 0.22154
 C606 C 0.81794 0.41023 0.23666
 C607 C 0.85490 0.41338 0.24002
 C608 C 0.87202 0.44040 0.22751
 C609 C 0.85246 0.46373 0.21162
 C610 C 0.73265 0.48100 0.16804
 C611 C 0.70971 0.46938 0.14477
 C612 C 0.72245 0.44941 0.12084
 C613 C 0.75874 0.44137 0.12080
 C614 C 0.78160 0.45298 0.14403
 H615 H 0.79525 0.52266 0.13327
 H616 H 0.76872 0.56565 0.10219
 H617 H 0.73722 0.61361 0.18678
 H618 H 0.76168 0.56960 0.21803
 H619 H 0.85208 0.55903 0.19098
 H620 H 0.89192 0.57990 0.23097
 H621 H 0.79621 0.50384 0.26061
 H622 H 0.76970 0.43112 0.21953
 H623 H 0.80430 0.38947 0.24600
 H624 H 0.90062 0.44294 0.22920
 H625 H 0.86643 0.48369 0.20110
 H626 H 0.72218 0.49615 0.18634
 H627 H 0.68192 0.47590 0.14558
 H628 H 0.76977 0.42629 0.10281
 H629 H 0.80947 0.44660 0.14335
 H630 H 0.83633 0.52487 0.30131
 C631 C 0.19773 0.47097 0.80763
 C632 C 0.19664 0.50344 0.81091
 C633 C 0.22018 0.52037 0.83378
 C634 C 0.17118 0.52253 0.79181
 C635 C 0.17953 0.45446 0.78105
 C636 C 0.21170 0.45039 0.83303
 C637 C 0.20666 0.54406 0.85369
 C638 C 0.22893 0.55957 0.87537
 C639 C 0.26531 0.55185 0.87740
 C640 C 0.27874 0.52849 0.85701
 C641 C 0.25655 0.51310 0.83541
 C642 C 0.13515 0.51346 0.79073
 C643 C 0.11249 0.52635 0.76820
 C644 C 0.12490 0.54965 0.74731
 C645 C 0.15996 0.56103 0.75020
 C646 C 0.18312 0.54737 0.77226
 C647 C 0.18557 0.46414 0.75002
 C648 C 0.16503 0.45155 0.72557
 C649 C 0.13832 0.42869 0.73153
 C650 C 0.13375 0.41775 0.76245
 C651 C 0.15417 0.43046 0.78689
 C652 C 0.23988 0.42929 0.82753
 C653 C 0.25013 0.40738 0.85063
 C654 C 0.23135 0.40556 0.87890
 C655 C 0.20331 0.42675 0.88437
 C656 C 0.19386 0.44932 0.86178
 H657 H 0.17874 0.55022 0.85277
 H658 H 0.21747 0.57737 0.89056
 H659 H 0.30658 0.52212 0.85768
 H660 H 0.26788 0.49553 0.81980
 H661 H 0.12516 0.49491 0.80613
 H662 H 0.08537 0.51766 0.76654
 H663 H 0.21072 0.55487 0.77289
 H664 H 0.20539 0.48226 0.74490
 H665 H 0.16950 0.46025 0.70203
 H666 H 0.11376 0.40007 0.76816
 H667 H 0.14901 0.42251 0.81058
 H668 H 0.25353 0.42957 0.80526
 H669 H 0.27170 0.39101 0.84605
 H670 H 0.18867 0.42564 0.90611
 H671 H 0.17166 0.46508 0.86614
 H672 H 0.16988 0.57910 0.73425
 N673 N 0.28591 0.44797 0.05784
 N674 N 0.30501 0.42990 0.03886
 C675 C 0.29832 0.39927 0.04693
 C676 C 0.27465 0.39900 0.07137
 N677 N 0.26760 0.42982 0.07749
 H678 H 0.26312 0.37846 0.08307
 N679 N 0.74411 0.64967 0.13241
 N680 N 0.73310 0.66919 0.10996
 C681 C 0.71983 0.65055 0.08694
 C682 C 0.72322 0.61900 0.09577
 N683 N 0.73857 0.61948 0.12428
 H684 H 0.71630 0.59784 0.08242
 N685 N 0.66673 0.44134 0.88733
 N686 N 0.65029 0.42627 0.91048
 C687 C 0.67502 0.40833 0.92502
 C688 C 0.70701 0.41269 0.91001
 N689 N 0.70081 0.43345 0.88649
 H690 H 0.73219 0.40184 0.91597
 N691 N 0.32279 0.55958 0.90330
 N692 N 0.33813 0.57763 0.92502
 C693 C 0.31299 0.59756 0.93577
 C694 C 0.28164 0.59116 0.91989
 N695 N 0.28884 0.56722 0.89971
 H696 H 0.25642 0.60310 0.92270
 N697 N 0.12060 0.30859 0.41680
 N698 N 0.09783 0.32672 0.40113
 C699 C 0.07472 0.30669 0.38686
 C700 C 0.08393 0.27569 0.39433
 N701 N 0.11269 0.27789 0.41312
 H702 H 0.07089 0.25380 0.38694
 N703 N 0.09736 0.67976 0.54088
 N704 N 0.07638 0.66193 0.55881
 C705 C 0.07346 0.67747 0.58632
 C706 C 0.09299 0.70528 0.58471
 N707 N 0.10737 0.70602 0.55597
 H708 H 0.09575 0.72351 0.60255
 N709 N 0.88083 0.74605 0.36424
 N710 N 0.90439 0.73089 0.34680
 C711 C 0.92754 0.71705 0.36674
 C712 C 0.91768 0.72430 0.39696
 N713 N 0.88844 0.74242 0.39432
 H714 H 0.92984 0.71645 0.41864
 N715 N 0.86058 0.26231 0.63372
 N716 N 0.88379 0.27930 0.65025
 C717 C 0.90713 0.29177 0.62968
 C718 C 0.89776 0.28177 0.60002
 N719 N 0.86860 0.26336 0.60358
 H720 H 0.91098 0.28710 0.57815
 N721 N 0.47439 0.11464 0.31911
 N722 N 0.46498 0.09206 0.33914
 C723 C 0.43613 0.07735 0.32699
 C724 C 0.42798 0.09175 0.29873
 N725 N 0.45266 0.11500 0.29462
 H726 H 0.40656 0.08562 0.28281
 N727 N 0.64511 0.10852 0.74198
 N728 N 0.66160 0.08699 0.72464
 C729 C 0.63633 0.06677 0.71390
 C730 C 0.60387 0.07642 0.72513
 N731 N 0.61051 0.10253 0.74261
 H732 H 0.57806 0.06563 0.72092
 N733 N 0.45661 0.92354 0.71184
 N734 N 0.43900 0.94207 0.69196
 C735 C 0.40481 0.94196 0.70136
 C736 C 0.40191 0.92282 0.72751
 N737 N 0.43476 0.91186 0.73326
 H738 H 0.37843 0.91767 0.74125
 N739 N 0.64683 0.89016 0.24017
 N740 N 0.66468 0.90912 0.25960
 C741 C 0.64042 0.92788 0.27355
 C742 C 0.60726 0.92007 0.26206
 N743 N 0.61237 0.89650 0.24123
 H744 H 0.58194 0.93032 0.26844
 N745 N 0.37692 0.20317 0.93862
 N746 N 0.35887 0.22083 0.95875
 C747 C 0.36618 0.25163 0.95174
 C748 C 0.38908 0.25241 0.92674
 N749 N 0.39508 0.22173 0.91921
 H750 H 0.40071 0.27317 0.91548
 N751 N 0.64873 0.73633 0.88017
 N752 N 0.67043 0.72411 0.90151
 C753 C 0.64996 0.71545 0.92590
 C754 C 0.61510 0.72291 0.91909
 N755 N 0.61549 0.73593 0.89031
 H756 H 0.59204 0.72013 0.93394
 N757 N 0.33635 0.75854 0.10475
 N758 N 0.32111 0.73952 0.08376
 C759 C 0.34716 0.72903 0.06481
 C760 C 0.37892 0.74235 0.07470
 N761 N 0.37096 0.76063 0.09961
 H762 H 0.40524 0.73858 0.06527
 N763 N 0.64216 0.23693 0.08025
 N764 N 0.65882 0.25714 0.06141
 C765 C 0.63642 0.28167 0.05624
 C766 C 0.60543 0.27596 0.07249
 N767 N 0.61013 0.24778 0.08714
 H768 H 0.58160 0.29037 0.07301
 N769 N 0.21618 0.08961 0.63380
 N770 N 0.23294 0.06829 0.65131
 C771 C 0.25668 0.05378 0.63262
 C772 C 0.25387 0.06667 0.60296
 N773 N 0.22830 0.08895 0.60477
 H774 H 0.26997 0.06163 0.58262
 N775 N 0.66991 0.10498 0.42132
 N776 N 0.65412 0.08058 0.40708
 C777 C 0.68000 0.06364 0.39310
 C778 C 0.71225 0.07828 0.39935
 N779 N 0.70472 0.10404 0.41692
 H780 H 0.73836 0.07149 0.39119
 N781 N 0.66805 0.87970 0.57557
 N782 N 0.65050 0.90245 0.59050
 C783 C 0.67517 0.92318 0.60142
 C784 C 0.70826 0.91261 0.59280
 N785 N 0.70269 0.88547 0.57669
 H786 H 0.73388 0.92313 0.59839
 N787 N 0.34135 0.90216 0.45746
 N788 N 0.36223 0.92505 0.44647
 C789 C 0.34495 0.93849 0.42215
 C790 C 0.31260 0.92308 0.41852
 N791 N 0.31140 0.90047 0.44111
 H792 H 0.29241 0.92765 0.40099
 N793 N 0.11597 0.42953 0.67761
 N794 N 0.09047 0.41646 0.66022
 C795 C 0.07294 0.39575 0.67884
 C796 C 0.08848 0.39645 0.70808
 N797 N 0.11531 0.41790 0.70650
 H798 H 0.08036 0.38294 0.72844
 N799 N 0.12185 0.56743 0.31495
 N800 N 0.10008 0.58412 0.33289
 C801 C 0.07751 0.59939 0.31343
 C802 C 0.08591 0.59149 0.28308
 N803 N 0.11367 0.57146 0.28502
 H804 H 0.07349 0.59992 0.26172
 N805 N 0.86695 0.35767 0.25292
 N806 N 0.89053 0.34038 0.26853
 C807 C 0.91416 0.36111 0.28108
 C808 C 0.90451 0.39170 0.27258
 N809 N 0.87493 0.38849 0.25496
 H810 H 0.91757 0.41400 0.27867
 N811 N 0.92662 0.63402 0.77271
 N812 N 0.94861 0.64949 0.75384
 C813 C 0.94542 0.63574 0.72545
 C814 C 0.92071 0.61130 0.72743
 N815 N 0.90964 0.61098 0.75739
 H816 H 0.91304 0.59447 0.70936
 N817 N 0.79495 0.60484 0.94301
 N818 N 0.78248 0.62615 0.96296
 C819 C 0.74672 0.62384 0.96192
 C820 C 0.73752 0.60036 0.94052
 N821 N 0.76851 0.58922 0.92923
 H822 H 0.71122 0.59360 0.93241
 N823 N 0.21556 0.36437 0.91675
 N824 N 0.23095 0.34625 0.93829
 C825 C 0.26614 0.35249 0.93691
 C826 C 0.27196 0.37475 0.91354
 N827 N 0.23970 0.38159 0.90170
 H828 H 0.29672 0.38627 0.90708
 N829 N 0.32362 0.57234 0.10561
 N830 N 0.33930 0.58801 0.08245
 C831 C 0.31379 0.60502 0.06785
 C832 C 0.28193 0.59936 0.08286
 N833 N 0.28918 0.57886 0.10645
 H834 H 0.25620 0.60914 0.07693
 N835 N 0.66458 0.44563 0.09460
 N836 N 0.64880 0.42978 0.07148
 C837 C 0.67366 0.41070 0.05883
 C838 C 0.70517 0.41536 0.07485
 N839 N 0.69845 0.43733 0.09713
 H840 H 0.73002 0.40310 0.07107
 N841 N 0.92961 0.77072 0.61763
 N842 N 0.95221 0.75362 0.63442
 C843 C 0.94905 0.72317 0.62452
 C844 C 0.92360 0.72208 0.60101
 N845 N 0.91216 0.75243 0.59734
 H846 H 0.91512 0.70148 0.58756
 N847 N 0.89097 0.31689 0.43660
 N848 N 0.91506 0.33293 0.42024
 C849 C 0.92722 0.31269 0.39826
 C850 C 0.90988 0.28376 0.40163
 N851 N 0.88740 0.28730 0.42584
 H852 H 0.91292 0.26262 0.38732
 N853 N 0.07186 0.22948 0.62075
 N854 N 0.05399 0.24900 0.63923
 C855 C 0.04817 0.27598 0.62272
 C856 C 0.06329 0.27247 0.59343
 N857 N 0.07769 0.24303 0.59320
 H858 H 0.06329 0.28928 0.57414
 N859 N 0.11390 0.75959 0.35152
 N860 N 0.09047 0.74146 0.33640
 C861 C 0.07460 0.72282 0.35811
 C862 C 0.08877 0.73021 0.38704
 N863 N 0.11309 0.75324 0.38188
 H864 H 0.08218 0.71993 0.40957
 N865 N 0.64962 0.90348 0.76480
 N866 N 0.66450 0.92515 0.74631
 C867 C 0.64004 0.93262 0.72439
 C868 C 0.60978 0.91474 0.72980
 N869 N 0.61686 0.89680 0.75521
 H870 H 0.58491 0.91529 0.71696
 N871 N 0.46899 0.90229 0.30986
 N872 N 0.46206 0.92453 0.33098
 C873 C 0.43283 0.94010 0.32106
 C874 C 0.42195 0.92656 0.29300
 N875 N 0.44530 0.90296 0.28681
 H876 H 0.39920 0.93309 0.27883
 N877 N 0.65664 0.09804 0.23976
 N878 N 0.67205 0.07621 0.25768
 C879 C 0.64567 0.06007 0.27209
 C880 C 0.61360 0.07251 0.26241
 N881 N 0.62159 0.09615 0.24222
 H882 H 0.58719 0.06571 0.27000
 N883 N 0.42219 0.11025 0.68986
 N884 N 0.40622 0.08848 0.67212
 C885 C 0.38518 0.07116 0.69120
 C886 C 0.38865 0.08294 0.72114
 N887 N 0.41215 0.10736 0.71943
 H888 H 0.37603 0.07378 0.74202
 N889 N 0.60799 0.79618 0.05240
 N890 N 0.63155 0.77951 0.03653
 C891 C 0.62545 0.74849 0.04306
 C892 C 0.59709 0.74655 0.06352
 N893 N 0.58702 0.77707 0.06892
 H894 H 0.58607 0.72524 0.07417
 N895 N 0.43844 0.30483 0.10360
 N896 N 0.42299 0.32091 0.08054
 C897 C 0.39744 0.30162 0.06872
 C898 C 0.39770 0.27319 0.08508
 N899 N 0.42364 0.27617 0.10662
 H900 H 0.38102 0.25231 0.08148
 N901 N 0.64250 0.23692 0.90725
 N902 N 0.65952 0.25787 0.92516
 C903 C 0.63568 0.28041 0.93296
 C904 C 0.60347 0.27270 0.91932
 N905 N 0.60885 0.24534 0.90347
 H906 H 0.57846 0.28517 0.92151
 N907 N 0.34970 0.76791 0.90453
 N908 N 0.33199 0.74981 0.92469
 C909 C 0.35430 0.72644 0.93382
 C910 C 0.38625 0.73064 0.91848
 N911 N 0.38227 0.75679 0.90042
 H912 H 0.41032 0.71679 0.92109
 N913 N 0.66820 0.89089 0.43377
 N914 N 0.65225 0.91366 0.41732
 C915 C 0.67747 0.92723 0.39929
 C916 C 0.70924 0.91211 0.40508
 N917 N 0.70247 0.88955 0.42679
 H918 H 0.73447 0.91676 0.39387
 N919 N 0.24695 0.87614 0.63732
 N920 N 0.26133 0.89839 0.65557
 C921 C 0.27680 0.91995 0.63642
 C922 C 0.27139 0.91042 0.60591
 N923 N 0.25262 0.88303 0.60748
 H924 H 0.28028 0.92215 0.58471
 N925 N 0.33559 0.10713 0.46117
 N926 N 0.35790 0.08601 0.44933
 C927 C 0.34180 0.07308 0.42409
 C928 C 0.30874 0.08706 0.42078
 N929 N 0.30581 0.10828 0.44449
 H930 H 0.28900 0.08205 0.40294
 N931 N 0.66158 0.09369 0.55510
 N932 N 0.64606 0.07084 0.57180
 C933 C 0.67137 0.05869 0.59073
 C934 C 0.70277 0.07472 0.58519
 N935 N 0.69566 0.09642 0.56277
 H936 H 0.72783 0.07163 0.59732
 N937 N 0.89291 0.55569 0.32248
 N938 N 0.91683 0.57219 0.33886
 C939 C 0.93001 0.59466 0.31940
 C940 C 0.91353 0.59150 0.29079
 N941 N 0.89057 0.56686 0.29348
 H942 H 0.91781 0.60615 0.27027
 N943 N 0.88077 0.44502 0.68077
 N944 N 0.90312 0.42870 0.66305
 C945 C 0.92276 0.41046 0.68251
 C946 C 0.91182 0.41617 0.71281
 N947 N 0.88558 0.43789 0.71071
 H948 H 0.92120 0.40492 0.73411
 N949 N 0.08242 0.53998 0.70530
 N950 N 0.06210 0.55615 0.68553
 C951 C 0.06945 0.58741 0.69003
 C952 C 0.09515 0.58995 0.71316
 N953 N 0.10240 0.55980 0.72205
 H954 H 0.10581 0.61148 0.72380
 N955 N 0.08359 0.36224 0.22110
 N956 N 0.06345 0.34444 0.23969
 C957 C 0.05912 0.36122 0.26631
 C958 C 0.07727 0.38984 0.26354
 N959 N 0.09219 0.38955 0.23498
 H960 H 0.07851 0.40933 0.28019
   
