data_POSCAR
  _audit_creation_date              2014-09-24
  _audit_creation_method            'ToBaCCo'
  _symmetry_space_group_name_H-M    'P1'
  _symmetry_Int_Tables_number       1
  _symmetry_cell_setting            triclinic
  loop_
  _symmetry_equiv_pos_as_xyz
 x,y,z
_cell_length_a 52.4641
_cell_length_b 52.4301
_cell_length_c 49.3320
_cell_angle_alpha 93.785400
_cell_angle_beta 89.172700
_cell_angle_gamma 94.312200
loop_
  _atom_site_label
  _atom_site_type_symbol
  _atom_site_fract_x
  _atom_site_fract_y
  _atom_site_fract_z
C1 C 0.22500 0.53085 1.05430
 H2 H 0.22739 0.54713 1.04187
 C3 C 0.20730 0.53091 1.07573
 H4 H 0.19606 0.54733 1.07871
 C5 C 0.23593 0.48938 1.06342
 H6 H 0.24740 0.47337 1.05893
 C7 C 0.21852 0.48858 1.08504
 H8 H 0.21772 0.47199 1.09700
 N9 N 0.23805 0.50984 1.04781
 C10 C 0.28753 0.55310 0.99653
 H11 H 0.27760 0.54871 0.97760
 C12 C 0.30666 0.57318 0.99841
 H13 H 0.31147 0.58361 0.98060
 C14 C 0.29423 0.54396 1.04214
 H15 H 0.28944 0.53226 1.05901
 C16 C 0.31313 0.56411 1.04507
 H17 H 0.32244 0.56797 1.06450
 Zn18 Zn 0.25851 0.50938 1.01566
 N19 N 0.28214 0.53859 1.01805
 C20 C 0.21190 0.51216 0.98816
 N21 N 0.23737 0.50959 0.98478
 C22 C 0.24790 0.50645 0.95951
 C23 C 0.23278 0.50669 0.93642
 C24 C 0.19617 0.51269 0.96574
 C25 C 0.30246 0.48115 1.01126
 C26 C 0.31590 0.45911 1.00867
 C27 C 0.27567 0.43343 1.00779
 C28 C 0.26296 0.45599 1.00982
 N29 N 0.27645 0.47923 1.01210
 H30 H 0.20358 0.51390 1.00823
 H31 H 0.26809 0.50379 0.95733
 H32 H 0.24149 0.50409 0.91649
 H33 H 0.17613 0.51560 0.96909
 H34 H 0.31284 0.49977 1.01260
 H35 H 0.33660 0.46092 1.00829
 H36 H 0.26473 0.41504 1.00642
 H37 H 0.24229 0.45500 1.00998
 C38 C 0.32009 0.57868 1.02282
 C39 C 0.20297 0.50913 1.09107
 C40 C 0.30247 0.43491 1.00722
 C41 C 0.20652 0.50998 0.93939
 C42 C 0.79682 0.50869 -0.02490
 H43 H 0.79616 0.52227 -0.00745
 C44 C 0.81640 0.51147 -0.04413
 H45 H 0.83088 0.52720 -0.04114
 C46 C 0.77941 0.47088 -0.04889
 H47 H 0.76538 0.45472 -0.05032
 C48 C 0.79854 0.47306 -0.06876
 H49 H 0.79849 0.45886 -0.08572
 N50 N 0.77879 0.48871 -0.02761
 C51 C 0.71763 0.51628 0.02443
 H52 H 0.71663 0.50201 0.03935
 C53 C 0.70124 0.53606 0.02660
 H54 H 0.68831 0.53716 0.04385
 C55 C 0.73599 0.53188 -0.01595
 H56 H 0.74918 0.52978 -0.03285
 C57 C 0.71942 0.55160 -0.01499
 H58 H 0.72009 0.56434 -0.03141
 Zn59 Zn 0.75457 0.48591 0.00095
 N60 N 0.73478 0.51471 0.00360
 C61 C 0.77280 0.50145 0.05423
 N62 N 0.77346 0.48360 0.03295
 C63 C 0.78970 0.46456 0.03263
 C64 C 0.80640 0.46310 0.05416
 C65 C 0.78881 0.50040 0.07643
 C66 C 0.71755 0.45614 -0.02868
 C67 C 0.69792 0.43712 -0.03379
 C68 C 0.70627 0.42029 0.00937
 C69 C 0.72625 0.43939 0.01338
 N70 N 0.73123 0.45698 -0.00544
 H71 H 0.76047 0.51698 0.05377
 H72 H 0.79014 0.45090 0.01524
 H73 H 0.81951 0.44807 0.05347
 H74 H 0.78838 0.51492 0.09306
 H75 H 0.72161 0.47066 -0.04305
 H76 H 0.68753 0.43683 -0.05261
 H77 H 0.70180 0.40728 0.02519
 H78 H 0.73697 0.44084 0.03204
 C79 C 0.70159 0.55390 0.00647
 C80 C 0.81747 0.49351 -0.06648
 C81 C 0.69146 0.41926 -0.01430
 C82 C 0.80610 0.48126 0.07632
 C83 C -0.03385 0.26350 0.48139
 H84 H -0.04896 0.24833 0.48120
 C85 C -0.03145 0.27957 0.45980
 H86 H -0.04441 0.27550 0.44297
 C87 C 0.00141 0.28633 0.50343
 H88 H 0.01396 0.28901 0.52076
 C89 C 0.00462 0.30270 0.48238
 H90 H 0.01929 0.31829 0.48465
 N91 N -0.01716 0.26684 0.50235
 C92 C -0.04811 0.20435 0.50830
 H93 H -0.03474 0.20636 0.49155
 C94 C -0.06771 0.18475 0.50687
 H95 H -0.06945 0.17172 0.48891
 C96 C -0.06147 0.21810 0.55265
 H97 H -0.05863 0.23078 0.57069
 C98 C -0.08099 0.19848 0.55229
 H99 H -0.09333 0.19642 0.56992
 Zn100 Zn -0.01798 0.24619 0.53243
 N101 N -0.04559 0.22077 0.53079
 C102 C -0.04280 0.28175 0.56483
 N103 N -0.02113 0.26907 0.56317
 C104 C -0.00136 0.27544 0.58044
 C105 C -0.00257 0.29616 0.59966
 C106 C -0.04498 0.30224 0.58394
 C107 C 0.03045 0.23228 0.51316
 C108 C 0.05267 0.21929 0.51312
 C109 C 0.03792 0.20023 0.55431
 C110 C 0.01604 0.21385 0.55373
 N111 N 0.01272 0.22948 0.53334
 H112 H -0.05803 0.27653 0.55050
 H113 H 0.01595 0.26552 0.57823
 H114 H 0.01394 0.30194 0.61212
 H115 H -0.06229 0.31229 0.58460
 H116 H 0.02731 0.24428 0.49677
 H117 H 0.06662 0.22214 0.49702
 H118 H 0.03988 0.18739 0.57033
 H119 H 0.00146 0.21169 0.56932
 C120 C -0.08427 0.18159 0.52916
 C121 C -0.01167 0.29945 0.45969
 C122 C 0.05655 0.20275 0.53369
 C123 C -0.02434 0.31032 0.60104
 C124 C 0.99047 0.71792 0.51496
 H125 H 0.97641 0.71508 0.49901
 C126 C 0.98980 0.70129 0.53594
 H127 H 0.97528 0.68548 0.53577
 C128 C 1.02686 0.74165 0.53396
 H129 H 1.04151 0.75715 0.53297
 C130 C 1.02678 0.72560 0.55545
 H131 H 1.04105 0.72945 0.57112
 N132 N 1.00849 0.73792 0.51461
 C133 C 0.97302 0.79452 0.46998
 H134 H 0.98727 0.79767 0.45425
 C135 C 0.95123 0.80828 0.47108
 H136 H 0.94893 0.82219 0.45620
 C137 C 0.95927 0.77314 0.50906
 H138 H 0.96263 0.75971 0.52406
 C139 C 0.93724 0.78656 0.51098
 H140 H 0.92361 0.78296 0.52723
 Zn141 Zn 1.00698 0.75991 0.48584
 N142 N 0.97650 0.77715 0.48862
 C143 C 0.98621 0.73640 0.43722
 N144 N 1.00734 0.73902 0.45311
 C145 C 1.02712 0.72395 0.44823
 C146 C 1.02554 0.70446 0.42741
 C147 C 0.98384 0.71721 0.41627
 C148 C 1.03427 0.80138 0.51092
 C149 C 1.05268 0.82177 0.51455
 C150 C 1.07062 0.80973 0.47058
 C151 C 1.05199 0.78913 0.46800
 N152 N 1.03430 0.78547 0.48807
 H153 H 0.97044 0.74811 0.44172
 H154 H 1.04346 0.72609 0.46153
 H155 H 1.04080 0.69169 0.42477
 H156 H 0.96647 0.71480 0.40450
 H157 H 1.01976 0.79819 0.52639
 H158 H 1.05244 0.83379 0.53324
 H159 H 1.08406 0.81287 0.45408
 H160 H 1.05130 0.77650 0.44975
 C161 C 0.93298 0.80436 0.49178
 C162 C 1.00790 0.70525 0.55681
 C163 C 1.07095 0.82655 0.49405
 C164 C 1.00327 0.70039 0.41176
 C165 C 0.44653 -0.00260 0.25873
 H166 H 0.44667 -0.01933 0.24473
 C167 C 0.42571 0.00035 0.27644
 H168 H 0.40971 -0.01396 0.27553
 C169 C 0.46729 0.03622 0.27730
 H170 H 0.48380 0.04990 0.27775
 C171 C 0.44698 0.03992 0.29527
 H172 H 0.44811 0.05649 0.30962
 N173 N 0.46668 0.01535 0.25940
 C174 C 0.51307 -0.03582 0.21858
 H175 H 0.52767 -0.03186 0.23381
 C176 C 0.51364 -0.05779 0.20111
 H177 H 0.52823 -0.07074 0.20437
 C178 C 0.47638 -0.02366 0.19690
 H179 H 0.46232 -0.00982 0.19498
 C180 C 0.47605 -0.04555 0.17906
 H181 H 0.46173 -0.04771 0.16337
 Zn182 Zn 0.49643 0.01212 0.23769
 N183 N 0.49475 -0.01918 0.21610
 C184 C 0.54544 0.02924 0.26059
 N185 N 0.52398 0.01309 0.26221
 C186 C 0.52055 -0.00302 0.28266
 C187 C 0.53906 -0.00338 0.30257
 C188 C 0.56470 0.02922 0.27993
 C189 C 0.48211 0.05617 0.21313
 C190 C 0.48386 0.07500 0.19433
 C191 C 0.52313 0.05850 0.17717
 C192 C 0.52057 0.03988 0.19626
 N193 N 0.50036 0.03912 0.21384
 H194 H 0.54762 0.04223 0.24447
 H195 H 0.50324 -0.01554 0.28353
 H196 H 0.53601 -0.01641 0.31865
 H197 H 0.58170 0.04214 0.27852
 H198 H 0.46576 0.05482 0.22663
 H199 H 0.46872 0.08787 0.19368
 H200 H 0.53945 0.05886 0.16349
 H201 H 0.53455 0.02578 0.19685
 C202 C 0.49522 -0.06297 0.18047
 C203 C 0.42578 0.02188 0.29501
 C204 C 0.50452 0.07631 0.17591
 C205 C 0.56147 0.01286 0.30134
 C206 C 0.51653 -0.04418 0.69593
 H207 H 0.49932 -0.05694 0.69486
 C208 C 0.53573 -0.04697 0.67636
 H209 H 0.53300 -0.06183 0.66014
 C210 C 0.54029 -0.00870 0.71789
 H211 H 0.54184 0.00638 0.73390
 C212 C 0.56008 -0.01087 0.69875
 H213 H 0.57693 0.00234 0.70063
 N214 N 0.51918 -0.02545 0.71630
 C215 C 0.47107 -0.05296 0.78290
 H216 H 0.45796 -0.03801 0.78573
 C217 C 0.47068 -0.07237 0.80110
 H218 H 0.45720 -0.07217 0.81793
 C219 C 0.50570 -0.07031 0.75857
 H220 H 0.51977 -0.06918 0.74243
 C221 C 0.50590 -0.09006 0.77616
 H222 H 0.51980 -0.10423 0.77285
 Zn223 Zn 0.49124 -0.02326 0.74094
 N224 N 0.48860 -0.05212 0.76232
 C225 C 0.44055 -0.03787 0.72127
 N226 N 0.46186 -0.02156 0.71955
 C227 C 0.46367 -0.00324 0.70125
 C228 C 0.44344 -0.00043 0.68399
 C229 C 0.41972 -0.03569 0.70435
 C230 C 0.51529 0.00869 0.78275
 C231 C 0.51808 0.02963 0.80183
 C232 C 0.47987 0.04537 0.78438
 C233 C 0.47787 0.02423 0.76562
 N234 N 0.49549 0.00645 0.76503
 H235 H 0.43967 -0.05255 0.73572
 H236 H 0.48101 0.00920 0.70004
 H237 H 0.44553 0.01410 0.66934
 H238 H 0.40274 -0.04854 0.70622
 H239 H 0.52878 -0.00596 0.78221
 H240 H 0.53407 0.03116 0.81561
 H241 H 0.46524 0.05890 0.78489
 H242 H 0.46184 0.02179 0.75198
 C243 C 0.48860 -0.09100 0.79813
 C244 C 0.55797 -0.03026 0.67764
 C245 C 0.50014 0.04829 0.80290
 C246 C 0.42098 -0.01665 0.68548
 C247 C 0.22949 0.05825 0.49951
 C248 C 0.24823 0.05801 0.52315
 C249 C 0.26188 0.03681 0.52249
 C250 C 0.25574 0.01777 0.49791
 C251 C 0.24653 0.05517 0.47415
 C252 C 0.26040 0.03411 0.47316
 C253 C 0.21324 0.03295 0.50006
 C254 C 0.22664 0.01174 0.49949
 H255 H 0.25101 0.07354 0.53859
 H256 H 0.26689 0.00061 0.49735
 H257 H 0.24818 0.06910 0.45889
 H258 H 0.19254 0.03208 0.50060
 C259 C 0.76170 -0.05072 0.47774
 C260 C 0.74119 -0.05174 0.50029
 C261 C 0.72779 -0.03038 0.50349
 C262 C 0.73598 -0.00995 0.48338
 C263 C 0.74671 -0.04553 0.45229
 C264 C 0.73331 -0.02423 0.45525
 C265 C 0.77809 -0.02582 0.48460
 C266 C 0.76482 -0.00459 0.48750
 H267 H 0.73800 -0.06786 0.51285
 H268 H 0.72534 0.00758 0.48553
 H269 H 0.74439 -0.05880 0.43463
 H270 H 0.79871 -0.02506 0.48633
 C271 C 0.45461 0.26798 0.98744
 C272 C 0.45578 0.24801 0.96342
 C273 C 0.47666 0.23402 0.96302
 C274 C 0.49460 0.24107 0.98732
 C275 C 0.45642 0.25242 1.01264
 C276 C 0.47741 0.23849 1.01285
 C277 C 0.48028 0.28384 0.98664
 C278 C 0.50118 0.27002 0.98617
 H279 H 0.44096 0.24508 0.94824
 H280 H 0.51182 0.23002 0.98701
 H281 H 0.44212 0.25152 1.02853
 H282 H 0.48163 0.30458 0.98688
 C283 C 0.55403 0.72391 -0.00953
 C284 C 0.55274 0.73943 -0.03475
 C285 C 0.53318 0.75523 -0.03419
 C286 C 0.51613 0.75362 -0.00854
 C287 C 0.55451 0.74396 0.01453
 C288 C 0.53492 0.75969 0.01512
 C289 C 0.52751 0.70969 -0.00825
 C290 C 0.50775 0.72503 -0.00699
 H291 H 0.56568 0.73777 -0.05191
 H292 H 0.50002 0.76616 -0.00817
 H293 H 0.56928 0.74541 0.02978
 H294 H 0.52452 0.68904 -0.00794
 C295 C 0.99291 0.44950 0.27905
 C296 C 0.97159 0.45134 0.25838
 C297 C 0.97566 0.47122 0.24207
 C298 C 1.00092 0.48745 0.24751
 C299 C 1.01717 0.44818 0.26131
 C300 C 1.02152 0.46799 0.24483
 C301 C 0.99557 0.47595 0.29420
 C302 C 0.99973 0.49575 0.27790
 H303 H 0.95570 0.43715 0.25514
 H304 H 1.00386 0.50374 0.23425
 H305 H 1.02965 0.43269 0.26173
 H306 H 0.99383 0.47875 0.31610
 C307 C 0.02113 0.55797 0.73917
 C308 C -0.00130 0.55965 0.75943
 C309 C -0.00509 0.53916 0.77499
 C310 C 0.01438 0.51894 0.76924
 C311 C 0.04412 0.55436 0.75723
 C312 C 0.04060 0.53392 0.77302
 C313 C 0.01597 0.53215 0.72316
 C314 C 0.01238 0.51175 0.73871
 H315 H -0.01330 0.57561 0.76096
 H316 H 0.01150 0.50214 0.78172
 H317 H 0.06045 0.56813 0.75963
 H318 H 0.01568 0.53027 0.70116
 C319 C 0.11301 0.16830 0.55628
 C320 C 0.12282 0.15787 0.53136
 C321 C 0.11051 0.16317 0.50718
 C322 C 0.08909 0.17768 0.50818
 C323 C 0.07947 0.18763 0.53300
 C324 C 0.09175 0.18290 0.55698
 C325 C 0.11948 0.15386 0.48201
 C326 C 0.14019 0.13891 0.48012
 C327 C 0.15273 0.13230 0.50352
 C328 C 0.14409 0.14217 0.52958
 C329 C 0.15672 0.13563 0.55295
 C330 C 0.17651 0.11945 0.55110
 C331 C 0.18471 0.10918 0.52598
 C332 C 0.17326 0.11569 0.50178
 C333 C 0.18226 0.10449 0.47690
 C334 C 0.20111 0.08708 0.47629
 C335 C 0.21239 0.08056 0.50025
 C336 C 0.20381 0.09172 0.52508
 H337 H 0.12124 0.16563 0.57566
 H338 H 0.07956 0.18079 0.48945
 H339 H 0.08506 0.19070 0.57645
 H340 H 0.11028 0.15810 0.46346
 H341 H 0.14571 0.13265 0.45982
 H342 H 0.15154 0.14239 0.57320
 H343 H 0.18529 0.11464 0.56968
 H344 H 0.17467 0.10806 0.45748
 H345 H 0.20607 0.07792 0.45683
 H346 H 0.21102 0.08598 0.54402
 C347 C 0.64056 0.58758 0.01985
 C348 C 0.64643 0.61183 0.00944
 C349 C 0.67065 0.61638 -0.00312
 C350 C 0.68875 0.59787 -0.00344
 C351 C 0.68279 0.57398 0.00741
 C352 C 0.65831 0.56905 0.01861
 C353 C 0.67657 0.63926 -0.01556
 C354 C 0.65863 0.65741 -0.01662
 C355 C 0.63433 0.65384 -0.00418
 C356 C 0.62876 0.63133 0.01037
 C357 C 0.60596 0.62925 0.02584
 C358 C 0.58847 0.64780 0.02590
 C359 C 0.59261 0.66874 0.00999
 C360 C 0.61545 0.67208 -0.00545
 C361 C 0.61814 0.69336 -0.02179
 C362 C 0.59871 0.71012 -0.02311
 C363 C 0.57584 0.70630 -0.00827
 C364 C 0.57371 0.68618 0.00926
 H365 H 0.62202 0.58193 0.02813
 H366 H 0.70751 0.60219 -0.01219
 H367 H 0.65247 0.55051 0.02602
 H368 H 0.69509 0.64296 -0.02514
 H369 H 0.66465 0.67444 -0.02679
 H370 H 0.60139 0.61376 0.03880
 H371 H 0.57121 0.64538 0.03810
 H372 H 0.63477 0.69725 -0.03436
 H373 H 0.60194 0.72618 -0.03568
 H374 H 0.55688 0.68368 0.02210
 C375 C 0.88064 -0.15541 0.52053
 C376 C 0.86728 -0.15019 0.49699
 C377 C 0.87571 -0.16110 0.47165
 C378 C 0.89672 -0.17624 0.47019
 C379 C 0.90997 -0.18076 0.49364
 C380 C 0.90156 -0.17042 0.51878
 C381 C 0.86335 -0.15664 0.44780
 C382 C 0.84334 -0.14077 0.44824
 C383 C 0.83476 -0.12862 0.47273
 C384 C 0.84635 -0.13409 0.49762
 C385 C 0.83681 -0.12306 0.52225
 C386 C 0.81755 -0.10631 0.52256
 C387 C 0.80703 -0.09973 0.49844
 C388 C 0.81522 -0.11091 0.47318
 C389 C 0.80417 -0.10303 0.44937
 C390 C 0.78631 -0.08454 0.45068
 C391 C 0.77827 -0.07347 0.47575
 C392 C 0.78884 -0.08137 0.49952
 H393 H 0.87585 -0.14781 0.54060
 H394 H 0.90285 -0.18449 0.45065
 H395 H 0.91163 -0.17337 0.53720
 H396 H 0.86947 -0.16526 0.42844
 H397 H 0.83496 -0.13845 0.42885
 H398 H 0.84386 -0.12690 0.54183
 H399 H 0.81114 -0.09802 0.54196
 H400 H 0.80959 -0.11001 0.42925
 H401 H 0.77980 -0.07832 0.43171
 H402 H 0.78362 -0.07236 0.51903
 C403 C 0.32580 0.37108 1.02333
 C404 C 0.34593 0.36796 1.00419
 C405 C 0.34998 0.38661 0.98470
 C406 C 0.33564 0.40822 0.98570
 C407 C 0.31651 0.41141 1.00541
 C408 C 0.31133 0.39244 1.02378
 C409 C 0.36854 0.38384 0.96447
 C410 C 0.38347 0.36305 0.96316
 C411 C 0.38091 0.34439 0.98260
 C412 C 0.36225 0.34720 1.00384
 C413 C 0.36126 0.32981 1.02458
 C414 C 0.37823 0.31071 1.02491
 C415 C 0.39634 0.30757 1.00422
 C416 C 0.39724 0.32369 0.98221
 C417 C 0.41473 0.31856 0.96084
 C418 C 0.43196 0.29978 0.96249
 C419 C 0.43261 0.28525 0.98535
 C420 C 0.41399 0.28876 1.00579
 H421 H 0.32061 0.35731 1.03810
 H422 H 0.33932 0.42265 0.97108
 H423 H 0.29640 0.39446 1.03901
 H424 H 0.37166 0.39800 0.94947
 H425 H 0.39767 0.36276 0.94718
 H426 H 0.34823 0.33110 1.04159
 H427 H 0.37726 0.29835 1.04173
 H428 H 0.41566 0.32872 0.94253
 H429 H 0.44563 0.29715 0.94604
 H430 H 0.41329 0.27755 1.02338
 C431 C 0.87701 0.12199 0.54909
 C432 C 0.86013 0.11654 0.52695
 C433 C 0.86071 0.13431 0.50644
 C434 C 0.87882 0.15550 0.50726
 C435 C 0.89598 0.15994 0.52881
 C436 C 0.89455 0.14337 0.54994
 C437 C 0.84340 0.13073 0.48511
 C438 C 0.82560 0.10971 0.48341
 C439 C 0.82493 0.09086 0.50263
 C440 C 0.84291 0.09404 0.52439
 C441 C 0.84386 0.07411 0.54218
 C442 C 0.82819 0.05168 0.53861
 C443 C 0.81041 0.04844 0.51775
 C444 C 0.80773 0.06831 0.50008
 C445 C 0.78815 0.06449 0.48037
 C446 C 0.77333 0.04120 0.47718
 C447 C 0.77766 0.02111 0.49335
 C448 C 0.79571 0.02505 0.51405
 H449 H 0.87701 0.11031 0.56625
 H450 H 0.87954 0.16867 0.49115
 H451 H 0.90749 0.14667 0.56694
 H452 H 0.84366 0.14433 0.46946
 H453 H 0.81324 0.10823 0.46604
 H454 H 0.85739 0.07472 0.55846
 H455 H 0.83019 0.03658 0.55225
 H456 H 0.78385 0.07906 0.46708
 H457 H 0.75914 0.03853 0.46130
 H458 H 0.79862 0.00962 0.52702
 C459 C 0.38515 0.61119 0.04093
 C460 C 0.38627 0.63362 0.02637
 C461 C 0.36483 0.63783 0.01056
 C462 C 0.34298 0.62048 0.01016
 C463 C 0.34229 0.59821 0.02462
 C464 C 0.36367 0.59388 0.03989
 C465 C 0.36555 0.65901 -0.00525
 C466 C 0.38754 0.67549 -0.00674
 C467 C 0.40956 0.67184 0.00823
 C468 C 0.40836 0.65134 0.02613
 C469 C 0.42935 0.64910 0.04315
 C470 C 0.45163 0.66474 0.04108
 C471 C 0.45397 0.68323 0.02203
 C472 C 0.43292 0.68762 0.00569
 C473 C 0.43665 0.70697 -0.01315
 C474 C 0.46065 0.72019 -0.01646
 C475 C 0.48146 0.71452 -0.00117
 C476 C 0.47768 0.69677 0.01873
 H477 H 0.40094 0.60581 0.05245
 H478 H 0.32660 0.62424 -0.00170
 H479 H 0.36426 0.57652 0.05052
 H480 H 0.34916 0.66250 -0.01724
 H481 H 0.38664 0.69108 -0.01979
 H482 H 0.42916 0.63542 0.05852
 H483 H 0.46750 0.66186 0.05411
 H484 H 0.42174 0.71167 -0.02632
 H485 H 0.46321 0.73398 -0.03186
 H486 H 0.49367 0.69278 0.03109
 C487 C 0.09836 -0.10615 0.51420
 C488 C 0.12408 -0.10636 0.50536
 C489 C 0.13174 -0.12876 0.49079
 C490 C 0.11456 -0.15067 0.48715
 C491 C 0.08933 -0.15040 0.49704
 C492 C 0.08140 -0.12768 0.50997
 C493 C 0.15642 -0.12905 0.47983
 C494 C 0.17341 -0.10731 0.48228
 C495 C 0.16667 -0.08464 0.49681
 C496 C 0.14210 -0.08476 0.50979
 C497 C 0.13640 -0.06344 0.52715
 C498 C 0.15319 -0.04181 0.53001
 C499 C 0.17612 -0.04040 0.51546
 C500 C 0.18351 -0.06176 0.49886
 C501 C 0.20700 -0.05886 0.48436
 C502 C 0.22169 -0.03535 0.48544
 C503 C 0.21355 -0.01418 0.50108
 C504 C 0.19131 -0.01728 0.51690
 H505 H 0.09046 -0.08934 0.52367
 H506 H 0.12096 -0.16797 0.47683
 H507 H 0.06177 -0.12634 0.51666
 H508 H 0.16250 -0.14611 0.46873
 H509 H 0.19197 -0.10901 0.47298
 H510 H 0.11917 -0.06304 0.53928
 H511 H 0.14780 -0.02572 0.54325
 H512 H 0.21397 -0.07400 0.47108
 H513 H 0.23881 -0.03347 0.47305
 H514 H 0.18524 -0.00123 0.52976
 C515 C 0.62483 0.39239 0.96563
 C516 C 0.62340 0.36741 0.97496
 C517 C 0.64476 0.35987 0.98888
 C518 C 0.66712 0.37643 0.99185
 C519 C 0.66834 0.40106 0.98200
 C520 C 0.64677 0.40882 0.96925
 C521 C 0.64352 0.33603 1.00007
 C522 C 0.62120 0.31987 0.99865
 C523 C 0.59941 0.32657 0.98504
 C524 C 0.60110 0.35012 0.97177
 C525 C 0.58055 0.35558 0.95550
 C526 C 0.55827 0.33970 0.95394
 C527 C 0.55541 0.31790 0.96868
 C528 C 0.57591 0.31069 0.98423
 C529 C 0.57157 0.28835 0.99892
 C530 C 0.54762 0.27454 0.99883
 C531 C 0.52738 0.28246 0.98409
 C532 C 0.53177 0.30364 0.96836
 H533 H 0.60896 0.40028 0.95638
 H534 H 0.68353 0.37010 1.00191
 H535 H 0.64649 0.42804 0.96253
 H536 H 0.65981 0.33003 1.01064
 H537 H 0.62173 0.30197 1.00810
 H538 H 0.58123 0.37190 0.94328
 H539 H 0.54283 0.34490 0.94151
 H540 H 0.58595 0.28162 1.01148
 H541 H 0.54466 0.25824 1.01121
 H542 H 0.51640 0.30952 0.95626
 C543 C 0.51387 0.10598 1.10798
 C544 C 0.50546 0.13089 1.11343
 C545 C 0.49751 0.13767 1.14037
 C546 C 0.49804 0.12018 1.16072
 C547 C 0.50591 0.09543 1.15481
 C548 C 0.51400 0.08866 1.12829
 C549 C 0.48864 0.16174 1.14687
 C550 C 0.48656 0.17905 1.12705
 C551 C 0.49360 0.17309 1.09976
 C552 C 0.50406 0.14897 1.09303
 C553 C 0.51265 0.14372 1.06612
 C554 C 0.51009 0.16080 1.04618
 C555 C 0.49871 0.18373 1.05206
 C556 C 0.49040 0.19035 1.07890
 C557 C 0.47871 0.21376 1.08351
 C558 C 0.47500 0.22941 1.06227
 C559 C 0.48280 0.22247 1.03566
 C560 C 0.49521 0.19985 1.03098
 H561 H 0.51982 0.09893 1.08807
 H562 H 0.49206 0.12583 1.18123
 H563 H 0.51975 0.06955 1.12294
 H564 H 0.48278 0.16713 1.16750
 H565 H 0.47941 0.19709 1.13392
 H566 H 0.52162 0.12650 1.05970
 H567 H 0.51675 0.15577 1.02575
 H568 H 0.47172 0.22041 1.10314
 H569 H 0.46597 0.24711 1.06685
 H570 H 0.50152 0.19418 1.01075
 C571 C -0.01827 0.66375 0.61235
 C572 C 0.00411 0.65583 0.62399
 C573 C 0.02801 0.66538 0.61352
 C574 C 0.02917 0.68131 0.59165
 C575 C 0.00677 0.68846 0.57999
 C576 C -0.01687 0.67974 0.59081
 C577 C 0.05066 0.65896 0.62484
 C578 C 0.05027 0.64313 0.64634
 C579 C 0.02704 0.63258 0.65715
 C580 C 0.00358 0.63879 0.64554
 C581 C -0.01962 0.62729 0.65540
 C582 C -0.02001 0.61028 0.67574
 C583 C 0.00259 0.60421 0.68740
 C584 C 0.02644 0.61550 0.67872
 C585 C 0.04865 0.60874 0.69174
 C586 C 0.04715 0.59101 0.71178
 C587 C 0.02346 0.57963 0.71997
 C588 C 0.00134 0.58638 0.70737
 H589 H -0.03724 0.65830 0.61956
 H590 H 0.04762 0.68783 0.58344
 H591 H -0.03450 0.68558 0.58283
 H592 H 0.06899 0.66629 0.61699
 H593 H 0.06868 0.63913 0.65369
 H594 H -0.03799 0.63049 0.64738
 H595 H -0.03829 0.60164 0.68233
 H596 H 0.06758 0.61654 0.68675
 H597 H 0.06482 0.58574 0.72005
 H598 H -0.01707 0.57711 0.71267
 C599 C 0.47023 0.85958 -0.15051
 C600 C 0.49435 0.85282 -0.14182
 C601 C 0.51644 0.86505 -0.15363
 C602 C 0.51430 0.88316 -0.17301
 C603 C 0.49034 0.88957 -0.18142
 C604 C 0.46836 0.87765 -0.16992
 C605 C 0.54069 0.85929 -0.14605
 C606 C 0.54375 0.84153 -0.12700
 C607 C 0.52251 0.82870 -0.11451
 C608 C 0.49737 0.83450 -0.12193
 C609 C 0.47619 0.82186 -0.10915
 C610 C 0.47934 0.80422 -0.08986
 C611 C 0.50366 0.79828 -0.08249
 C612 C 0.52562 0.81034 -0.09476
 C613 C 0.54983 0.80346 -0.08665
 C614 C 0.55201 0.78561 -0.06728
 C615 C 0.53029 0.77379 -0.05520
 C616 C 0.50612 0.78031 -0.06287
 H617 H 0.45240 0.85125 -0.14285
 H618 H 0.53149 0.89262 -0.18130
 H619 H 0.44958 0.88208 -0.17617
 H620 H 0.55762 0.86863 -0.15500
 H621 H 0.56323 0.83843 -0.12249
 H622 H 0.45673 0.82523 -0.11352
 H623 H 0.46247 0.79508 -0.08058
 H624 H 0.56759 0.81149 -0.09473
 H625 H 0.57097 0.78140 -0.06139
 H626 H 0.48916 0.77114 -0.05384
 C627 C 1.01960 0.34455 0.41136
 C628 C 0.99910 0.34987 0.39487
 C629 C 0.97481 0.33735 0.40006
 C630 C 0.97140 0.32045 0.42102
 C631 C 0.99184 0.31573 0.43777
 C632 C 1.01600 0.32796 0.43223
 C633 C 0.95385 0.34197 0.38454
 C634 C 0.95625 0.35919 0.36430
 C635 C 0.97989 0.37261 0.35867
 C636 C 1.00182 0.36738 0.37374
 C637 C 1.02569 0.37993 0.36728
 C638 C 1.02804 0.39739 0.34732
 C639 C 1.00676 0.40328 0.33306
 C640 C 0.98236 0.39109 0.33848
 C641 C 0.96138 0.39854 0.32394
 C642 C 0.96465 0.41690 0.30470
 C643 C 0.98900 0.42830 0.29874
 C644 C 1.00983 0.42165 0.31362
 H645 H 1.03878 0.35295 0.40890
 H646 H 0.95231 0.31211 0.42496
 H647 H 1.03277 0.32420 0.44339
 H648 H 0.93525 0.33229 0.38821
 H649 H 0.93909 0.36139 0.35326
 H650 H 1.04317 0.37668 0.37720
 H651 H 1.04677 0.40659 0.34317
 H652 H 0.94200 0.39110 0.32740
 H653 H 0.94772 0.42255 0.29521
 H654 H 1.02858 0.43118 0.31036
 C655 C 0.47585 0.88325 0.12911
 C656 C 0.49937 0.87267 0.12254
 C657 C 0.52152 0.88429 0.13568
 C658 C 0.51992 0.90509 0.15489
 C659 C 0.49644 0.91552 0.16143
 C660 C 0.47449 0.90422 0.14799
 C661 C 0.54538 0.87531 0.12947
 C662 C 0.54795 0.85525 0.11012
 C663 C 0.52657 0.84303 0.09626
 C664 C 0.50176 0.85131 0.10319
 C665 C 0.48024 0.83777 0.09078
 C666 C 0.48282 0.81721 0.07192
 C667 C 0.50690 0.80956 0.06419
 C668 C 0.52916 0.82254 0.07596
 C669 C 0.55314 0.81464 0.06660
 C670 C 0.55481 0.79441 0.04701
 C671 C 0.53277 0.78120 0.03598
 C672 C 0.50883 0.78899 0.04464
 H673 H 0.45808 0.87599 0.11982
 H674 H 0.53752 0.91390 0.16361
 H675 H 0.45579 0.91086 0.15259
 H676 H 0.56240 0.88401 0.13959
 H677 H 0.56707 0.84947 0.10690
 H678 H 0.46094 0.84229 0.09557
 H679 H 0.46572 0.80733 0.06309
 H680 H 0.57107 0.82399 0.07350
 H681 H 0.57360 0.78945 0.04014
 H682 H 0.49158 0.77887 0.03642
 C683 C -0.03433 0.37949 0.62246
 C684 C -0.02252 0.38309 0.64817
 C685 C -0.01168 0.36176 0.65849
 C686 C -0.01301 0.33787 0.64360
 C687 C -0.02458 0.33480 0.61802
 C688 C -0.03521 0.35587 0.60775
 C689 C 0.00086 0.36449 0.68335
 C690 C 0.00380 0.38816 0.69782
 C691 C -0.00612 0.41014 0.68815
 C692 C -0.02038 0.40729 0.66346
 C693 C -0.03194 0.42877 0.65477
 C694 C -0.02840 0.45257 0.66865
 C695 C -0.01325 0.45604 0.69171
 C696 C -0.00213 0.43493 0.70215
 C697 C 0.01300 0.43979 0.72579
 C698 C 0.01726 0.46458 0.73793
 C699 C 0.00668 0.48528 0.72696
 C700 C -0.00894 0.48075 0.70415
 H701 H -0.04235 0.39470 0.61257
 H702 H -0.00477 0.32172 0.65183
 H703 H -0.04359 0.35440 0.58772
 H704 H 0.00899 0.34822 0.69149
 H705 H 0.01396 0.38856 0.71667
 H706 H -0.04406 0.42790 0.63727
 H707 H -0.03735 0.46858 0.66093
 H708 H 0.02235 0.42503 0.73507
 H709 H 0.02954 0.46765 0.75548
 H710 H -0.01769 0.49662 0.69589
 C711 C 0.50913 0.08669 0.87051
 C712 C 0.50191 0.11124 0.86466
 C713 C 0.49493 0.11475 0.83756
 C714 C 0.49521 0.09449 0.81747
 C715 C 0.50185 0.07017 0.82377
 C716 C 0.50902 0.06661 0.85042
 C717 C 0.48730 0.13834 0.83064
 C718 C 0.48549 0.15842 0.85018
 C719 C 0.49153 0.15582 0.87761
 C720 C 0.50075 0.13215 0.88479
 C721 C 0.50840 0.13016 0.91186
 C722 C 0.50614 0.15009 0.93150
 C723 C 0.49596 0.17274 0.92516
 C724 C 0.48856 0.17605 0.89816
 C725 C 0.47792 0.19931 0.89309
 C726 C 0.47449 0.21806 0.91399
 C727 C 0.48158 0.21450 0.94068
 C728 C 0.49275 0.19195 0.94591
 H729 H 0.51431 0.08206 0.89055
 H730 H 0.48999 0.09764 0.79684
 H731 H 0.51385 0.04796 0.85605
 H732 H 0.48223 0.14122 0.80989
 H733 H 0.47937 0.17589 0.84297
 H734 H 0.51641 0.11339 0.91862
 H735 H 0.51208 0.14756 0.95205
 H736 H 0.47153 0.20351 0.87334
 H737 H 0.46624 0.23551 0.90915
 H738 H 0.49820 0.18881 0.96634
 C739 C 0.97173 0.63926 0.37866
 C740 C 0.99136 0.62974 0.36174
 C741 C 1.01457 0.64529 0.35988
 C742 C 1.01831 0.66855 0.37576
 C743 C 0.99898 0.67705 0.39324
 C744 C 0.97558 0.66240 0.39411
 C745 C 1.03405 0.63740 0.34248
 C746 C 1.03124 0.61420 0.32709
 C747 C 1.00892 0.59754 0.32898
 C748 C 0.98882 0.60529 0.34694
 C749 C 0.96725 0.58795 0.35030
 C750 C 0.96542 0.56380 0.33695
 C751 C 0.98468 0.55605 0.31926
 C752 C 1.00638 0.57297 0.31431
 C753 C 1.02472 0.56432 0.29509
 C754 C 1.02212 0.53954 0.28260
 C755 C 1.00135 0.52266 0.28890
 C756 C 0.98248 0.53115 0.30686
 H757 H 0.95311 0.62937 0.38050
 H758 H 1.03634 0.68001 0.37462
 H759 H 0.96032 0.66848 0.40748
 H760 H 1.05178 0.64924 0.34083
 H761 H 1.04737 0.60949 0.31450
 H762 H 0.95166 0.59204 0.36393
 H763 H 0.94875 0.55095 0.34070
 H764 H 1.04131 0.57616 0.28926
 H765 H 1.03688 0.53330 0.26873
 H766 H 0.96609 0.51818 0.31135
 C767 C 1.15290 0.52792 0.14218
 C768 C 1.14085 0.50395 0.14849
 C769 C 1.15089 0.48167 0.13610
 C770 C 1.17159 0.48353 0.11780
 C771 C 1.18306 0.50748 0.11098
 C772 C 1.17341 0.52959 0.12384
 C773 C 1.14002 0.45748 0.14164
 C774 C 1.11922 0.45474 0.15912
 C775 C 1.10818 0.47625 0.17180
 C776 C 1.11920 0.50130 0.16645
 C777 C 1.10803 0.52281 0.17901
 C778 C 1.08697 0.52006 0.19620
 C779 C 1.07608 0.49586 0.20166
 C780 C 1.08645 0.47357 0.18960
 C781 C 1.07449 0.44951 0.19589
 C782 C 1.05350 0.44783 0.21354
 C783 C 1.04355 0.46994 0.22562
 C784 C 1.05483 0.49390 0.21927
 H785 H 1.14706 0.54589 0.15107
 H786 H 1.17762 0.46596 0.10780
 H787 H 1.18205 0.54852 0.12052
 H788 H 1.14767 0.44034 0.13226
 H789 H 1.11221 0.43531 0.16213
 H790 H 1.11503 0.54223 0.17592
 H791 H 1.07910 0.53718 0.20535
 H792 H 1.08075 0.43152 0.18757
 H793 H 1.04485 0.42901 0.21743
 H794 H 1.04743 0.51118 0.22839
 C795 C 0.60364 -0.06054 0.62695
 C796 C 0.61685 -0.03904 0.61582
 C797 C 0.61100 -0.01436 0.62653
 C798 C 0.59198 -0.01159 0.64667
 C799 C 0.57864 -0.03312 0.65693
 C800 C 0.58493 -0.05754 0.64706
 C801 C 0.62405 0.00747 0.61701
 C802 C 0.64304 0.00547 0.59724
 C803 C 0.64951 -0.01860 0.58573
 C804 C 0.63571 -0.04119 0.59467
 C805 C 0.64088 -0.06515 0.58181
 C806 C 0.65925 -0.06712 0.56144
 C807 C 0.67351 -0.04545 0.55321
 C808 C 0.66907 -0.02086 0.56529
 C809 C 0.68464 0.00035 0.55651
 C810 C 0.70348 -0.00283 0.53652
 C811 C 0.70751 -0.02714 0.52448
 C812 C 0.69230 -0.04835 0.53291
 H813 H 0.60749 -0.07999 0.62092
 H814 H 0.58727 0.00745 0.65402
 H815 H 0.57550 -0.07455 0.65513
 H816 H 0.61961 0.02639 0.62505
 H817 H 0.65198 0.02334 0.59103
 H818 H 0.63068 -0.08288 0.58665
 H819 H 0.66245 -0.08595 0.55213
 H820 H 0.68317 0.01964 0.56503
 H821 H 0.71532 0.01386 0.53097
 H822 H 0.69493 -0.06727 0.52355
 C823 C -0.13045 0.47610 0.88289
 C824 C -0.12038 0.50034 0.87495
 C825 C -0.13126 0.52237 0.88698
 C826 C -0.15174 0.51997 0.90549
 C827 C -0.16148 0.49583 0.91311
 C828 C -0.15056 0.47399 0.90165
 C829 C -0.12163 0.54676 0.88062
 C830 C -0.10098 0.54995 0.86299
 C831 C -0.08932 0.52872 0.85052
 C832 C -0.09975 0.50349 0.85584
 C833 C -0.08949 0.48231 0.84157
 C834 C -0.06946 0.48556 0.82314
 C835 C -0.05844 0.50993 0.81854
 C836 C -0.06789 0.53187 0.83244
 C837 C -0.05528 0.55605 0.82780
 C838 C -0.03486 0.55827 0.80948
 C839 C -0.02622 0.53659 0.79513
 C840 C -0.03802 0.51244 0.79994
 H841 H -0.12286 0.45839 0.87556
 H842 H -0.16015 0.53705 0.91394
 H843 H -0.15720 0.45510 0.90763
 H844 H -0.13000 0.56366 0.88961
 H845 H -0.09496 0.56947 0.85910
 H846 H -0.09692 0.46283 0.84369
 H847 H -0.06239 0.46872 0.81247
 H848 H -0.06036 0.57362 0.83832
 H849 H -0.02563 0.57712 0.80681
 H850 H -0.03171 0.49551 0.78882
 C851 C 0.37704 0.05431 0.33993
 C852 C 0.36577 0.03399 0.35461
 C853 C 0.37337 0.00898 0.34764
 C854 C 0.39248 0.00499 0.32783
 C855 C 0.40425 0.02559 0.31443
 C856 C 0.39593 0.05012 0.32033
 C857 C 0.36211 -0.01188 0.36069
 C858 C 0.34345 -0.00857 0.38063
 C859 C 0.33559 0.01598 0.38881
 C860 C 0.34730 0.03765 0.37590
 C861 C 0.34068 0.06236 0.38518
 C862 C 0.32298 0.06586 0.40594
 C863 C 0.31088 0.04498 0.41818
 C864 C 0.31674 0.01970 0.40978
 C865 C 0.30341 -0.00070 0.42279
 C866 C 0.28528 0.00399 0.44326
 C867 C 0.27975 0.02905 0.45150
 C868 C 0.29290 0.04942 0.43893
 H869 H 0.37164 0.07371 0.34286
 H870 H 0.39871 -0.01411 0.32342
 H871 H 0.40410 0.06626 0.30968
 H872 H 0.36779 -0.03105 0.35542
 H873 H 0.33593 -0.02572 0.38970
 H874 H 0.34925 0.07964 0.37722
 H875 H 0.31865 0.08524 0.41243
 H876 H 0.30620 -0.02054 0.41743
 H877 H 0.27530 -0.01219 0.45227
 H878 H 0.28945 0.06900 0.44549
 C879 C 0.18241 0.52645 0.87093
 C880 C 0.15653 0.51654 0.87145
 C881 C 0.14791 0.50344 0.89450
 C882 C 0.16458 0.50040 0.91580
 C883 C 0.18990 0.51102 0.91538
 C884 C 0.19869 0.52378 0.89259
 C885 C 0.12252 0.49380 0.89651
 C886 C 0.10503 0.49789 0.87675
 C887 C 0.11237 0.51152 0.85381
 C888 C 0.13878 0.51979 0.85038
 C889 C 0.14650 0.53092 0.82599
 C890 C 0.12893 0.53474 0.80612
 C891 C 0.10292 0.52831 0.81000
 C892 C 0.09420 0.51690 0.83403
 C893 C 0.06751 0.51202 0.83762
 C894 C 0.05041 0.51765 0.81790
 C895 C 0.05914 0.52816 0.79380
 C896 C 0.08551 0.53347 0.79002
 H897 H 0.19046 0.53719 0.85459
 H898 H 0.15763 0.49002 0.93305
 H899 H 0.21803 0.53253 0.89183
 H900 H 0.11594 0.48339 0.91387
 H901 H 0.08586 0.48967 0.87985
 H902 H 0.16618 0.53650 0.82138
 H903 H 0.13576 0.54328 0.78770
 H904 H 0.05910 0.50464 0.85583
 H905 H 0.03016 0.51429 0.82201
 H906 H 0.09257 0.54162 0.77147
 C907 C 0.59230 0.01142 0.36998
 C908 C 0.61827 0.00848 0.36313
 C909 C 0.62522 0.00769 0.33519
 C910 C 0.60686 0.01018 0.31523
 C911 C 0.58121 0.01255 0.32245
 C912 C 0.57417 0.01327 0.34993
 C913 C 0.65032 0.00386 0.32724
 C914 C 0.66858 -0.00025 0.34626
 C915 C 0.66256 -0.00021 0.37426
 C916 C 0.63733 0.00547 0.38293
 C917 C 0.63201 0.00798 0.41108
 C918 C 0.65023 0.00385 0.43010
 C919 C 0.67434 -0.00335 0.42194
 C920 C 0.68092 -0.00559 0.39393
 C921 C 0.70538 -0.01387 0.38683
 C922 C 0.72234 -0.01965 0.40671
 C923 C 0.71570 -0.01718 0.43427
 C924 C 0.69176 -0.00876 0.44175
 H925 H 0.58512 0.01155 0.39054
 H926 H 0.61234 0.00924 0.29392
 H927 H 0.55441 0.01513 0.35595
 H928 H 0.65582 0.00352 0.30596
 H929 H 0.68746 -0.00309 0.33833
 H930 H 0.61394 0.01352 0.41921
 H931 H 0.64520 0.00589 0.45149
 H932 H 0.71178 -0.01676 0.36609
 H933 H 0.74080 -0.02610 0.40047
 H934 H 0.68626 -0.00731 0.46304
 C935 C 0.83295 0.48123 0.14702
 C936 C 0.85951 0.47997 0.14191
 C937 C 0.86809 0.48007 0.11452
 C938 C 0.85054 0.48001 0.09328
 C939 C 0.82435 0.48079 0.09878
 C940 C 0.81577 0.48175 0.12575
 C941 C 0.89412 0.48029 0.10841
 C942 C 0.91203 0.48061 0.12889
 C943 C 0.90453 0.47997 0.15645
 C944 C 0.87778 0.47882 0.16298
 C945 C 0.87015 0.47578 0.19020
 C946 C 0.88792 0.47399 0.21039
 C947 C 0.91402 0.47581 0.20450
 C948 C 0.92283 0.47957 0.17765
 C949 C 0.94963 0.48273 0.17325
 C950 C 0.96674 0.48082 0.19436
 C951 C 0.95774 0.47557 0.22034
 C952 C 0.93138 0.47354 0.22539
 H953 H 0.82484 0.48235 0.16720
 H954 H 0.85729 0.47988 0.07239
 H955 H 0.79560 0.48267 0.13038
 H956 H 0.90077 0.48038 0.08750
 H957 H 0.93169 0.48050 0.12233
 H958 H 0.85041 0.47378 0.19651
 H959 H 0.88112 0.47112 0.23091
 H960 H 0.95801 0.48686 0.15381
 H961 H 0.98709 0.48269 0.19013
 H962 H 0.92437 0.47009 0.24572
 C963 C 0.36593 -0.03198 0.63641
 C964 C 0.35984 -0.00732 0.62956
 C965 C 0.37389 0.01418 0.64244
 C966 C 0.39309 0.01092 0.66114
 C967 C 0.39928 -0.01360 0.66719
 C968 C 0.38531 -0.03497 0.65487
 C969 C 0.36898 0.03891 0.63647
 C970 C 0.35088 0.04299 0.61735
 C971 C 0.33669 0.02235 0.60340
 C972 C 0.34068 -0.00320 0.61018
 C973 C 0.32533 -0.02371 0.59741
 C974 C 0.30709 -0.01952 0.57838
 C975 C 0.30358 0.00515 0.57090
 C976 C 0.31846 0.02645 0.58309
 C977 C 0.31465 0.05098 0.57412
 C978 C 0.29649 0.05415 0.55451
 C979 C 0.28143 0.03312 0.54303
 C980 C 0.28522 0.00862 0.55123
 H981 H 0.35652 -0.04942 0.62747
 H982 H 0.40341 0.02765 0.67093
 H983 H 0.38986 -0.05416 0.65892
 H984 H 0.37948 0.05541 0.64650
 H985 H 0.34830 0.06275 0.61422
 H986 H 0.32672 -0.04337 0.60190
 H987 H 0.29571 -0.03588 0.56922
 H988 H 0.32565 0.06815 0.58142
 H989 H 0.29454 0.07323 0.54802
 H990 H 0.27358 -0.00781 0.54262
   
