data_POSCAR
  _audit_creation_date              2014-09-24
  _audit_creation_method            'ToBaCCo'
  _symmetry_space_group_name_H-M    'P1'
  _symmetry_Int_Tables_number       1
  _symmetry_cell_setting            triclinic
  loop_
  _symmetry_equiv_pos_as_xyz
 x,y,z
_cell_length_a 38.1604
_cell_length_b 38.1590
_cell_length_c 38.1489
_cell_angle_alpha 90.040300
_cell_angle_beta 90.043500
_cell_angle_gamma 90.003200
loop_
  _atom_site_label
  _atom_site_type_symbol
  _atom_site_fract_x
  _atom_site_fract_y
  _atom_site_fract_z
O1 O 0.22292 1.03357 0.03359
 O2 O 0.22291 0.96532 -0.03480
 O3 O 0.22229 0.96538 0.03343
 O4 O 0.22211 1.03358 -0.03463
 O5 O 0.28007 1.03373 -0.03474
 O6 O 0.28025 0.96537 0.03347
 O7 O 0.28086 0.96544 -0.03479
 O8 O 0.28088 1.03359 0.03351
 Cu9 Cu 0.21671 0.99945 -0.00061
 Cu10 Cu 0.28637 0.99954 -0.00066
 C11 C 0.25194 1.04509 0.04508
 C12 C 0.25192 0.95385 -0.04632
 C13 C 0.25125 0.95387 0.04497
 C14 C 0.25101 1.04521 -0.04615
 O15 O 0.72350 0.53419 0.53398
 O16 O 0.72350 0.46594 0.46558
 O17 O 0.72287 0.46592 0.53388
 O18 O 0.72274 0.53421 0.46570
 O19 O 0.78068 0.53434 0.46562
 O20 O 0.78082 0.46590 0.53394
 O21 O 0.78146 0.46604 0.46562
 O22 O 0.78145 0.53419 0.53392
 Cu23 Cu 0.71731 0.50005 0.49979
 Cu24 Cu 0.78694 0.50012 0.49978
 C25 C 0.75251 0.54571 0.54548
 C26 C 0.75251 0.45449 0.45407
 C27 C 0.75181 0.45437 0.54544
 C28 C 0.75164 0.54582 0.45415
 O29 O 0.77686 0.96594 1.03552
 O30 O 0.77704 1.03414 0.96709
 O31 O 0.77762 1.03424 1.03536
 O32 O 0.77764 0.96589 0.96724
 O33 O 0.71969 0.96588 0.96705
 O34 O 0.71968 1.03437 1.03531
 O35 O 0.71909 1.03415 0.96701
 O36 O 0.71892 0.96605 1.03536
 Cu37 Cu 0.78313 1.00004 1.00133
 Cu38 Cu 0.71350 1.00011 1.00118
 C39 C 0.74783 0.95447 1.04697
 C40 C 0.74806 1.04565 0.95550
 C41 C 0.74869 1.04588 1.04683
 C42 C 0.74872 0.95434 0.95562
 O43 O 0.27682 0.46613 0.53428
 O44 O 0.27676 0.53423 0.46593
 O45 O 0.27743 0.53433 0.53418
 O46 O 0.27757 0.46601 0.46605
 O47 O 0.21961 0.46584 0.46590
 O48 O 0.21947 0.53432 0.53418
 O49 O 0.21880 0.53410 0.46591
 O50 O 0.21886 0.46609 0.53415
 Cu51 Cu 0.28300 0.50019 0.50011
 Cu52 Cu 0.21333 0.50008 0.50002
 C53 C 0.24782 0.45464 0.54574
 C54 C 0.24773 0.54565 0.45440
 C55 C 0.24848 0.54586 0.54571
 C56 C 0.24866 0.45437 0.45447
 O57 O 1.03349 0.28046 0.03345
 O58 O 0.96523 0.28059 -0.03473
 O59 O 0.96526 0.27966 0.03355
 O60 O 1.03348 0.27991 -0.03478
 O61 O 1.03345 0.22195 -0.03490
 O62 O 0.96538 0.22170 0.03328
 O63 O 0.96522 0.22264 -0.03498
 O64 O 1.03359 0.22250 0.03331
 Cu65 Cu 0.99935 0.28601 -0.00061
 Cu66 Cu 0.99940 0.21635 -0.00085
 C67 C 1.04508 0.25150 0.04488
 C68 C 0.95370 0.25167 -0.04638
 C69 C 0.95383 0.25059 0.04495
 C70 C 1.04499 0.25092 -0.04634
 O71 O 0.53416 0.78069 0.53431
 O72 O 0.46591 0.78071 0.46611
 O73 O 0.46590 0.77987 0.53443
 O74 O 0.53421 0.78006 0.46599
 O75 O 0.53421 0.72211 0.46593
 O76 O 0.46604 0.72192 0.53422
 O77 O 0.46592 0.72276 0.46593
 O78 O 0.53428 0.72273 0.53423
 Cu79 Cu 0.50004 0.78617 0.50021
 Cu80 Cu 0.50012 0.71654 0.50005
 C81 C 0.54573 0.75174 0.54581
 C82 C 0.45438 0.75178 0.45451
 C83 C 0.45446 0.75081 0.54588
 C84 C 0.54574 0.75107 0.45442
 O85 O 0.03441 0.77791 -0.03538
 O86 O -0.03406 0.77805 0.03280
 O87 O 0.03419 0.77861 0.03292
 O88 O -0.03390 0.77878 -0.03547
 O89 O -0.03411 0.72083 -0.03559
 O90 O 0.03412 0.72066 0.03293
 O91 O -0.03414 0.72010 0.03270
 O92 O 0.03422 0.71997 -0.03538
 Cu93 Cu 0.00018 0.78417 -0.00129
 Cu94 Cu 0.00002 0.71455 -0.00136
 C95 C 0.04589 0.74888 -0.04687
 C96 C -0.04565 0.74906 0.04425
 C97 C 0.04564 0.74965 0.04450
 C98 C -0.04555 0.74988 -0.04705
 O99 O 0.53429 0.27742 0.46596
 O100 O 0.46589 0.27746 0.53401
 O101 O 0.53411 0.27824 0.53419
 O102 O 0.46606 0.27808 0.46577
 O103 O 0.46603 0.22012 0.46575
 O104 O 0.53423 0.22029 0.53430
 O105 O 0.46599 0.21949 0.53400
 O106 O 0.53428 0.21945 0.46606
 Cu107 Cu 0.50008 0.28365 0.49998
 Cu108 Cu 0.50014 0.21399 0.50003
 C109 C 0.54582 0.24839 0.45454
 C110 C 0.45440 0.24844 0.54547
 C111 C 0.54567 0.24934 0.54580
 C112 C 0.45455 0.24912 0.45420
 O113 O 1.03354 0.03352 0.22340
 O114 O 0.96534 -0.03498 0.22341
 O115 O 0.96532 0.03325 0.22257
 O116 O 1.03359 -0.03473 0.22255
 O117 O 1.03374 -0.03478 0.28053
 O118 O 0.96528 0.03338 0.28054
 O119 O 0.96546 -0.03488 0.28138
 O120 O 1.03354 0.03350 0.28137
 Cu121 Cu 0.99945 -0.00074 0.21714
 Cu122 Cu 0.99951 -0.00070 0.28680
 C123 C 1.04503 0.04507 0.25243
 C124 C 0.95388 -0.04648 0.25244
 C125 C 0.95376 0.04480 0.25150
 C126 C 1.04520 -0.04624 0.25148
 O127 O 0.53409 0.53420 0.72402
 O128 O 0.46595 0.46584 0.72418
 O129 O 0.46584 0.53410 0.72336
 O130 O 0.53418 0.46598 0.72325
 O131 O 0.53441 0.46595 0.78122
 O132 O 0.46590 0.53424 0.78133
 O133 O 0.46616 0.46595 0.78215
 O134 O 0.53418 0.53420 0.78199
 Cu135 Cu 0.49999 0.50003 0.71786
 Cu136 Cu 0.50017 0.50010 0.78752
 C137 C 0.54564 0.54571 0.75302
 C138 C 0.45458 0.45435 0.75323
 C139 C 0.45432 0.54569 0.75231
 C140 C 0.54585 0.45445 0.75216
 O141 O 0.96539 1.03511 0.77699
 O142 O 1.03355 0.96661 0.77697
 O143 O 1.03364 1.03482 0.77759
 O144 O 0.96534 0.96684 0.77780
 O145 O 0.96513 0.96664 0.71983
 O146 O 1.03358 1.03477 0.71962
 O147 O 1.03336 0.96654 0.71900
 O148 O 0.96529 1.03494 0.71903
 Cu149 Cu 0.99948 1.00087 0.78318
 Cu150 Cu 0.99931 1.00072 0.71352
 C151 C 0.95384 1.04659 0.74798
 C152 C 1.04495 0.95502 0.74794
 C153 C 1.04518 1.04625 0.74862
 C154 C 0.95373 0.95523 0.74890
 O155 O 0.46628 0.53416 0.27633
 O156 O 0.53430 0.46569 0.27606
 O157 O 0.53451 0.53396 0.27697
 O158 O 0.46607 0.46593 0.27702
 O159 O 0.46581 0.46590 0.21906
 O160 O 0.53442 0.53409 0.21900
 O161 O 0.53408 0.46580 0.21809
 O162 O 0.46617 0.53415 0.21835
 Cu163 Cu 0.50032 0.49993 0.28244
 Cu164 Cu 0.50011 0.49999 0.21278
 C165 C 0.45475 0.54569 0.24734
 C166 C 0.54565 0.45419 0.24699
 C167 C 0.54602 0.54554 0.24803
 C168 C 0.45436 0.45443 0.24810
 O169 O 0.25037 0.15896 0.20117
 O170 O 0.28843 0.14887 0.24997
 O171 O 0.15878 0.20143 0.25130
 O172 O 0.14595 0.24686 0.28575
 O173 O 0.20132 0.25049 0.15861
 O174 O 0.24995 0.28872 0.14877
 O175 O 0.25089 0.29806 0.34068
 O176 O 0.21022 0.25212 0.35003
 O177 O 0.34040 0.25083 0.29813
 O178 O 0.35150 0.21175 0.24821
 O179 O 0.29797 0.34058 0.25075
 O180 O 0.24790 0.35147 0.21164
 O181 O 0.25081 0.34025 0.29854
 O182 O 0.21061 0.35080 0.24847
 O183 O 0.34022 0.29851 0.25068
 O184 O 0.35061 0.24813 0.21061
 O185 O 0.29839 0.25114 0.34045
 O186 O 0.25035 0.21095 0.35123
 O187 O 0.25052 0.20111 0.15890
 O188 O 0.28909 0.25009 0.14916
 O189 O 0.15908 0.25008 0.20076
 O190 O 0.15113 0.29117 0.24964
 O191 O 0.20091 0.15913 0.25040
 O192 O 0.24981 0.14931 0.28901
 Zr193 Zr 0.24843 0.18716 0.24860
 O194 O 0.28136 0.21718 0.28114
 Zr195 Zr 0.18693 0.24876 0.24846
 O196 O 0.21703 0.28124 0.28159
 Zr197 Zr 0.24862 0.24862 0.18695
 O198 O 0.28120 0.28152 0.21704
 Zr199 Zr 0.25091 0.25075 0.31242
 O200 O 0.21753 0.21783 0.28260
 Zr201 Zr 0.31229 0.25093 0.25063
 O202 O 0.28246 0.21766 0.21764
 Zr203 Zr 0.25056 0.31237 0.25089
 O204 O 0.21764 0.28254 0.21749
 O205 O 0.21594 0.21616 0.21593
 O206 O 0.28364 0.28376 0.28366
 C207 C 0.25123 0.16906 0.16909
 C208 C 0.16887 0.16932 0.25167
 C209 C 0.16925 0.25102 0.16870
 C210 C 0.25081 0.33012 0.33060
 C211 C 0.33040 0.25092 0.33023
 C212 C 0.33006 0.33055 0.25062
 H213 H 0.29597 0.20124 0.29537
 H214 H 0.29555 0.29602 0.20111
 H215 H 0.20096 0.20109 0.20103
 H216 H 0.20129 0.29550 0.29642
 H217 H 0.19235 0.23491 0.34237
 H218 H 0.15359 0.26055 0.30641
 H219 H 0.34600 0.26733 0.19382
 H220 H 0.30739 0.23358 0.15727
 H221 H 0.26818 0.19322 0.34502
 H222 H 0.23339 0.15749 0.30736
 H223 H 0.26601 0.34611 0.19390
 H224 H 0.23402 0.30740 0.15715
 H225 H 0.30721 0.15728 0.23418
 H226 H 0.34601 0.19390 0.26618
 H227 H 0.15826 0.30767 0.23094
 H228 H 0.19381 0.34602 0.26761
 O229 O 0.74949 0.84155 0.20132
 O230 O 0.71156 0.85154 0.25021
 O231 O 0.84121 0.79892 0.25115
 O232 O 0.85419 0.75343 0.28536
 O233 O 0.79833 0.75006 0.15835
 O234 O 0.74964 0.71186 0.14852
 O235 O 0.74937 0.70219 0.34047
 O236 O 0.79008 0.74810 0.34986
 O237 O 0.65972 0.74952 0.29824
 O238 O 0.64847 0.78866 0.24843
 O239 O 0.70202 0.65981 0.25048
 O240 O 0.75185 0.64890 0.21133
 O241 O 0.74933 0.66006 0.29821
 O242 O 0.78944 0.64969 0.24794
 O243 O 0.65976 0.70187 0.25064
 O244 O 0.64921 0.75230 0.21074
 O245 O 0.70187 0.74914 0.34047
 O246 O 0.75002 0.78933 0.35122
 O247 O 0.74917 0.79948 0.15891
 O248 O 0.71048 0.75051 0.14915
 O249 O 0.84072 0.75037 0.20042
 O250 O 0.84879 0.70916 0.24920
 O251 O 0.79910 0.84125 0.25046
 O252 O 0.75033 0.85102 0.28919
 Zr253 Zr 0.75156 0.81324 0.24866
 O254 O 0.71873 0.78318 0.28120
 Zr255 Zr 0.81304 0.75161 0.24820
 O256 O 0.78305 0.71911 0.28134
 Zr257 Zr 0.75112 0.75190 0.18682
 O258 O 0.71867 0.71894 0.21692
 Zr259 Zr 0.74927 0.74954 0.31233
 O260 O 0.78256 0.78249 0.28251
 Zr261 Zr 0.68768 0.74947 0.25067
 O262 O 0.71740 0.78280 0.21769
 Zr263 Zr 0.74941 0.68802 0.25063
 O264 O 0.78220 0.71790 0.21720
 O265 O 0.78392 0.78428 0.21584
 O266 O 0.71644 0.71658 0.28355
 C267 C 0.74852 0.83152 0.16919
 C268 C 0.83114 0.83103 0.25164
 C269 C 0.83045 0.74949 0.16836
 C270 C 0.74942 0.67013 0.33032
 C271 C 0.66981 0.74938 0.33033
 C272 C 0.66993 0.66983 0.25046
 H273 H 0.70417 0.79909 0.29550
 H274 H 0.70426 0.70446 0.20098
 H275 H 0.79886 0.79937 0.20095
 H276 H 0.79884 0.70483 0.29610
 H277 H 0.80795 0.76529 0.34219
 H278 H 0.84659 0.73979 0.30604
 H279 H 0.65379 0.73316 0.19386
 H280 H 0.69225 0.76704 0.15734
 H281 H 0.73211 0.80702 0.34514
 H282 H 0.76680 0.84280 0.30749
 H283 H 0.73384 0.65443 0.19352
 H284 H 0.76560 0.69316 0.15681
 H285 H 0.69274 0.84315 0.23442
 H286 H 0.65404 0.80649 0.26641
 H287 H 0.84164 0.69275 0.23040
 H288 H 0.80620 0.65432 0.26719
 O289 O 0.74977 0.15921 0.79918
 O290 O 0.71151 0.14899 0.75056
 O291 O 0.84143 0.20143 0.74860
 O292 O 0.85396 0.24684 0.71390
 O293 O 0.79901 0.25080 0.84128
 O294 O 0.75030 0.28915 0.85108
 O295 O 0.74980 0.29822 0.65942
 O296 O 0.79055 0.25116 0.65068
 O297 O 0.65984 0.25084 0.70185
 O298 O 0.64885 0.21159 0.75131
 O299 O 0.70213 0.34058 0.74934
 O300 O 0.75237 0.35138 0.78873
 O301 O 0.74944 0.34041 0.70161
 O302 O 0.78939 0.35109 0.75161
 O303 O 0.65993 0.29844 0.74944
 O304 O 0.64964 0.24793 0.78938
 O305 O 0.70185 0.25174 0.65955
 O306 O 0.74414 0.21200 0.64847
 O307 O 0.74981 0.20149 0.84136
 O308 O 0.71128 0.25034 0.85099
 O309 O 0.84115 0.25026 0.79901
 O310 O 0.84923 0.29082 0.74971
 O311 O 0.79937 0.15915 0.75044
 O312 O 0.74856 0.14837 0.71194
 Zr313 Zr 0.75172 0.18710 0.75157
 O314 O 0.71906 0.21722 0.71885
 Zr315 Zr 0.81317 0.24867 0.75138
 O316 O 0.78311 0.28135 0.71848
 Zr317 Zr 0.75163 0.24882 0.81308
 O318 O 0.71897 0.28159 0.78299
 Zr319 Zr 0.74922 0.25092 0.68765
 O320 O 0.78254 0.21755 0.71722
 Zr321 Zr 0.68793 0.25091 0.74935
 O322 O 0.71775 0.21776 0.78247
 Zr323 Zr 0.74961 0.31249 0.74922
 O324 O 0.78263 0.28260 0.78243
 O325 O 0.78422 0.21625 0.78410
 O326 O 0.71652 0.28388 0.71645
 C327 C 0.74901 0.16940 0.83126
 C328 C 0.83138 0.16933 0.74875
 C329 C 0.83106 0.25131 0.83110
 C330 C 0.74972 0.33030 0.66952
 C331 C 0.66983 0.25128 0.66975
 C332 C 0.67005 0.33050 0.74951
 H333 H 0.70486 0.20133 0.70407
 H334 H 0.70458 0.29607 0.79893
 H335 H 0.79923 0.20129 0.79907
 H336 H 0.79890 0.29558 0.70369
 H337 H 0.80623 0.23140 0.65677
 H338 H 0.84533 0.25882 0.69261
 H339 H 0.65417 0.26715 0.80618
 H340 H 0.69290 0.23392 0.84287
 H341 H 0.75814 0.19174 0.65637
 H342 H 0.76912 0.15140 0.69643
 H343 H 0.73385 0.34632 0.80613
 H344 H 0.76642 0.30768 0.84275
 H345 H 0.69291 0.15747 0.76652
 H346 H 0.65472 0.19370 0.73349
 H347 H 0.84219 0.30756 0.76825
 H348 H 0.80643 0.34607 0.73274
 O349 O 0.25046 0.84115 0.79927
 O350 O 0.28869 0.85132 0.75078
 O351 O 0.15881 0.79881 0.74859
 O352 O 0.14630 0.75332 0.71390
 O353 O 0.20115 0.74967 0.84140
 O354 O 0.24991 0.71129 0.85126
 O355 O 0.25053 0.70192 0.65966
 O356 O 0.20978 0.74889 0.65077
 O357 O 0.34047 0.74938 0.70216
 O358 O 0.35136 0.78879 0.75174
 O359 O 0.29816 0.65972 0.74968
 O360 O 0.24793 0.64900 0.78899
 O361 O 0.25086 0.65982 0.70188
 O362 O 0.21092 0.64919 0.75179
 O363 O 0.34036 0.70186 0.74979
 O364 O 0.35069 0.75239 0.78968
 O365 O 0.29845 0.74841 0.65980
 O366 O 0.25613 0.78815 0.64869
 O367 O 0.25040 0.79896 0.84149
 O368 O 0.28888 0.75017 0.85131
 O369 O 0.15905 0.75011 0.79904
 O370 O 0.15105 0.70940 0.74974
 O371 O 0.20087 0.84110 0.75048
 O372 O 0.25171 0.85179 0.71203
 Zr373 Zr 0.24853 0.81316 0.75171
 O374 O 0.28123 0.78301 0.71907
 Zr375 Zr 0.18707 0.75159 0.75146
 O376 O 0.21718 0.71888 0.71863
 Zr377 Zr 0.24858 0.75157 0.81327
 O378 O 0.28129 0.71878 0.78327
 Zr379 Zr 0.25108 0.74926 0.68784
 O380 O 0.21771 0.78265 0.71733
 Zr381 Zr 0.31235 0.74939 0.74965
 O382 O 0.28248 0.78257 0.78270
 Zr383 Zr 0.25068 0.68781 0.74946
 O384 O 0.21761 0.71773 0.78259
 O385 O 0.21600 0.78409 0.78420
 O386 O 0.28378 0.71636 0.71672
 C387 C 0.25120 0.83102 0.83135
 C388 C 0.16886 0.83091 0.74874
 C389 C 0.16910 0.74914 0.83116
 C390 C 0.25060 0.66988 0.66980
 C391 C 0.33048 0.74890 0.67003
 C392 C 0.33024 0.66979 0.74986
 H393 H 0.29543 0.79888 0.70432
 H394 H 0.29568 0.70435 0.79924
 H395 H 0.20099 0.79907 0.79913
 H396 H 0.20141 0.70461 0.70382
 H397 H 0.19405 0.76861 0.65683
 H398 H 0.15495 0.74131 0.69263
 H399 H 0.34608 0.73328 0.80655
 H400 H 0.30732 0.76647 0.84315
 H401 H 0.24198 0.80835 0.65649
 H402 H 0.23112 0.84878 0.69653
 H403 H 0.26643 0.65411 0.80644
 H404 H 0.23373 0.69278 0.84295
 H405 H 0.30733 0.84283 0.76670
 H406 H 0.34560 0.80654 0.73376
 H407 H 0.15806 0.69274 0.76834
 H408 H 0.19386 0.65419 0.73291
 O409 O 0.24949 0.34094 0.70166
 O410 O 0.21145 0.35107 0.75044
 O411 O 0.34097 0.29825 0.75185
 O412 O 0.35384 0.25273 0.78606
 O413 O 0.29834 0.24940 0.65893
 O414 O 0.24965 0.21126 0.64892
 O415 O 0.24879 0.20176 0.84078
 O416 O 0.28953 0.24762 0.85033
 O417 O 0.15937 0.24923 0.79822
 O418 O 0.14839 0.28843 0.74832
 O419 O 0.20164 0.15947 0.75079
 O420 O 0.25159 0.14844 0.71167
 O421 O 0.24881 0.15963 0.79852
 O422 O 0.28898 0.14907 0.74845
 O423 O 0.15948 0.20163 0.75078
 O424 O 0.14907 0.25193 0.71078
 O425 O 0.20138 0.24873 0.84061
 O426 O 0.24951 0.28886 0.85157
 O427 O 0.24924 0.29883 0.65928
 O428 O 0.21060 0.24994 0.64935
 O429 O 0.34059 0.24970 0.70113
 O430 O 0.34849 0.20850 0.74993
 O431 O 0.29891 0.34062 0.75096
 O432 O 0.25008 0.35057 0.78947
 Zr433 Zr 0.25138 0.31271 0.74900
 O434 O 0.21843 0.28275 0.78145
 Zr435 Zr 0.31278 0.25099 0.74879
 O436 O 0.28266 0.21856 0.78182
 Zr437 Zr 0.25107 0.25132 0.68720
 O438 O 0.21847 0.21847 0.71717
 Zr439 Zr 0.24885 0.24909 0.81267
 O440 O 0.28226 0.28197 0.78296
 Zr441 Zr 0.18746 0.24912 0.75078
 O442 O 0.21731 0.28234 0.71789
 Zr443 Zr 0.24908 0.18755 0.75097
 O444 O 0.28203 0.21732 0.71767
 O445 O 0.28381 0.28368 0.71631
 O446 O 0.21607 0.21620 0.78376
 C447 C 0.24859 0.33086 0.66956
 C448 C 0.33091 0.33035 0.75229
 C449 C 0.33040 0.24881 0.66907
 C450 C 0.24882 0.16972 0.83060
 C451 C 0.16937 0.24905 0.83033
 C452 C 0.16960 0.16959 0.75069
 H453 H 0.20386 0.29871 0.79569
 H454 H 0.20408 0.20400 0.70120
 H455 H 0.29881 0.29874 0.70147
 H456 H 0.29839 0.20426 0.79663
 H457 H 0.30744 0.26479 0.84273
 H458 H 0.34615 0.23917 0.80674
 H459 H 0.15368 0.23278 0.69392
 H460 H 0.19232 0.26645 0.65748
 H461 H 0.23164 0.30658 0.84544
 H462 H 0.26642 0.34231 0.80786
 H463 H 0.23349 0.15387 0.69391
 H464 H 0.26556 0.19254 0.65727
 H465 H 0.19267 0.34275 0.73456
 H466 H 0.15380 0.30616 0.76646
 H467 H 0.34139 0.19209 0.73112
 H468 H 0.30577 0.15375 0.76766
 O469 O 0.75112 0.65939 0.70161
 O470 O 0.78947 0.64921 0.75011
 O471 O 0.65950 0.70147 0.75243
 O472 O 0.64680 0.74685 0.78704
 O473 O 0.70165 0.75087 0.65969
 O474 O 0.75027 0.78933 0.64988
 O475 O 0.75106 0.79828 0.84157
 O476 O 0.71044 0.75115 0.85035
 O477 O 0.84104 0.75116 0.79888
 O478 O 0.85200 0.71194 0.74931
 O479 O 0.79835 0.84079 0.75169
 O480 O 0.74819 0.85161 0.71246
 O481 O 0.75119 0.84048 0.79945
 O482 O 0.71104 0.85102 0.74947
 O483 O 0.84067 0.79877 0.75144
 O484 O 0.85109 0.74835 0.71137
 O485 O 0.79912 0.75195 0.84128
 O486 O 0.75691 0.71205 0.85234
 O487 O 0.75093 0.70168 0.65949
 O488 O 0.78937 0.75061 0.64986
 O489 O 0.65958 0.75023 0.70202
 O490 O 0.65154 0.79084 0.75148
 O491 O 0.70163 0.65926 0.75042
 O492 O 0.75253 0.64852 0.78880
 Zr493 Zr 0.74921 0.68727 0.74924
 O494 O 0.78187 0.71741 0.78196
 Zr495 Zr 0.68763 0.74872 0.74962
 O496 O 0.71765 0.78138 0.78258
 Zr497 Zr 0.74907 0.74899 0.68783
 O498 O 0.78167 0.78181 0.71792
 Zr499 Zr 0.75168 0.75101 0.81328
 O500 O 0.71836 0.71763 0.78369
 Zr501 Zr 0.81283 0.75117 0.75145
 O502 O 0.78306 0.71799 0.71832
 Zr503 Zr 0.75099 0.81260 0.75180
 O504 O 0.71802 0.78269 0.71854
 O505 O 0.71659 0.71635 0.71681
 O506 O 0.78422 0.78405 0.78446
 C507 C 0.75180 0.66960 0.66956
 C508 C 0.66962 0.66940 0.75222
 C509 C 0.66962 0.75131 0.66992
 C510 C 0.75101 0.83035 0.83151
 C511 C 0.83112 0.75157 0.83100
 C512 C 0.83043 0.83078 0.75147
 H513 H 0.79613 0.70154 0.79668
 H514 H 0.79600 0.79633 0.70199
 H515 H 0.70158 0.70136 0.70185
 H516 H 0.70185 0.79556 0.79742
 H517 H 0.69476 0.73138 0.84423
 H518 H 0.65551 0.75855 0.80846
 H519 H 0.84647 0.76757 0.69461
 H520 H 0.80778 0.73421 0.65792
 H521 H 0.74285 0.69181 0.84447
 H522 H 0.73199 0.65147 0.80434
 H523 H 0.76654 0.84648 0.69490
 H524 H 0.73412 0.80782 0.65826
 H525 H 0.80805 0.65774 0.73415
 H526 H 0.84624 0.69405 0.76714
 H527 H 0.65840 0.80750 0.73282
 H528 H 0.69417 0.84609 0.76851
 O529 O 0.24921 0.65912 0.29840
 O530 O 0.21111 0.64879 0.24975
 O531 O 0.34087 0.70156 0.24802
 O532 O 0.35348 0.74704 0.21350
 O533 O 0.29823 0.75073 0.34070
 O534 O 0.24939 0.78905 0.35038
 O535 O 0.24928 0.79805 0.15879
 O536 O 0.29012 0.75112 0.15006
 O537 O 0.15933 0.75059 0.20096
 O538 O 0.14838 0.71115 0.25046
 O539 O 0.20138 0.84029 0.24863
 O540 O 0.25146 0.85124 0.28808
 O541 O 0.24873 0.84023 0.20101
 O542 O 0.28859 0.85101 0.25106
 O543 O 0.15926 0.79807 0.24861
 O544 O 0.14886 0.74760 0.28840
 O545 O 0.20144 0.75158 0.15876
 O546 O 0.24381 0.71183 0.14779
 O547 O 0.24910 0.70139 0.34061
 O548 O 0.21051 0.75012 0.35028
 O549 O 0.34044 0.75029 0.29851
 O550 O 0.34849 0.79096 0.24922
 O551 O 0.29888 0.65919 0.24979
 O552 O 0.24819 0.64827 0.21121
 Zr553 Zr 0.25120 0.68701 0.25085
 O554 O 0.21854 0.71702 0.21806
 Zr555 Zr 0.31255 0.74871 0.25082
 O556 O 0.28250 0.78128 0.21786
 Zr557 Zr 0.25090 0.74871 0.31239
 O558 O 0.21822 0.78137 0.28226
 Zr559 Zr 0.24873 0.75078 0.18696
 O560 O 0.28208 0.71752 0.21659
 Zr561 Zr 0.18732 0.75062 0.24854
 O562 O 0.21713 0.71758 0.28172
 Zr563 Zr 0.24889 0.81232 0.24858
 O564 O 0.28191 0.78255 0.28186
 O565 O 0.28360 0.71621 0.28346
 O566 O 0.21592 0.78365 0.21572
 C567 C 0.24837 0.66932 0.33046
 C568 C 0.33086 0.66946 0.24814
 C569 C 0.33029 0.75129 0.33058
 C570 C 0.24911 0.83010 0.16894
 C571 C 0.16940 0.75109 0.16888
 C572 C 0.16935 0.83013 0.24873
 H573 H 0.20441 0.70111 0.20325
 H574 H 0.20377 0.79580 0.29818
 H575 H 0.29860 0.70127 0.29844
 H576 H 0.29829 0.79555 0.20311
 H577 H 0.30585 0.73141 0.15619
 H578 H 0.34483 0.75883 0.19212
 H579 H 0.15343 0.76671 0.30532
 H580 H 0.19214 0.73373 0.34208
 H581 H 0.25794 0.69165 0.15566
 H582 H 0.26877 0.65131 0.19575
 H583 H 0.23298 0.84608 0.30550
 H584 H 0.26559 0.80755 0.34215
 H585 H 0.19241 0.65726 0.26562
 H586 H 0.15417 0.69343 0.23244
 H587 H 0.34145 0.80762 0.26783
 H588 H 0.30566 0.84606 0.23220
 O589 O 0.75070 0.34046 0.29803
 O590 O 0.78869 0.35039 0.24915
 O591 O 0.65899 0.29792 0.24806
 O592 O 0.64589 0.25243 0.21388
 O593 O 0.70176 0.24905 0.34084
 O594 O 0.75039 0.21083 0.35071
 O595 O 0.75067 0.20108 0.15879
 O596 O 0.70993 0.24704 0.14944
 O597 O 0.84029 0.24837 0.20109
 O598 O 0.85159 0.28754 0.25094
 O599 O 0.79790 0.15875 0.24874
 O600 O 0.74803 0.14788 0.28787
 O601 O 0.75067 0.15899 0.20102
 O602 O 0.71050 0.14865 0.25123
 O603 O 0.84019 0.20078 0.24861
 O604 O 0.85087 0.25114 0.28853
 O605 O 0.79814 0.24800 0.15885
 O606 O 0.75011 0.28816 0.14804
 O607 O 0.75094 0.29840 0.34039
 O608 O 0.78956 0.24941 0.35013
 O609 O 0.65938 0.24942 0.29876
 O610 O 0.65123 0.20820 0.24997
 O611 O 0.70116 0.34019 0.24885
 O612 O 0.74992 0.34998 0.21022
 Zr613 Zr 0.74862 0.31216 0.25067
 O614 O 0.78137 0.28206 0.21810
 Zr615 Zr 0.68706 0.25059 0.25102
 O616 O 0.71696 0.21804 0.21788
 Zr617 Zr 0.74895 0.25084 0.31243
 O618 O 0.78135 0.21785 0.28234
 Zr619 Zr 0.75077 0.24845 0.18695
 O620 O 0.71757 0.28146 0.21678
 Zr621 Zr 0.81236 0.24836 0.24864
 O622 O 0.78271 0.28172 0.28164
 Zr623 Zr 0.75055 0.18697 0.24860
 O624 O 0.71781 0.21689 0.28203
 O625 O 0.71621 0.28325 0.28343
 O626 O 0.78356 0.21549 0.21573
 C627 C 0.75164 0.33043 0.33014
 C628 C 0.66913 0.33000 0.24761
 C629 C 0.66966 0.24852 0.33079
 C630 C 0.75062 0.16904 0.16894
 C631 C 0.83018 0.24824 0.16902
 C632 C 0.82997 0.16877 0.24879
 H633 H 0.79595 0.29797 0.20381
 H634 H 0.79573 0.20337 0.29826
 H635 H 0.70128 0.29836 0.29832
 H636 H 0.70117 0.20377 0.20310
 H637 H 0.69212 0.26431 0.15710
 H638 H 0.65346 0.23879 0.19318
 H639 H 0.84622 0.23207 0.30543
 H640 H 0.80782 0.26593 0.34198
 H641 H 0.76794 0.30591 0.15420
 H642 H 0.73349 0.34176 0.19188
 H643 H 0.76608 0.15335 0.30566
 H644 H 0.73441 0.19214 0.34241
 H645 H 0.80745 0.34204 0.26501
 H646 H 0.84608 0.30533 0.23293
 H647 H 0.65836 0.19178 0.26874
 H648 H 0.69376 0.15328 0.23197
 C649 C 0.25206 0.07164 0.07170
 C650 C 0.25220 0.09397 0.09405
 C651 C 0.25224 0.12012 0.12022
 C652 C 0.25201 0.14246 0.14255
 C653 C 0.75262 0.57228 0.57207
 C654 C 0.75275 0.59462 0.59441
 C655 C 0.75279 0.62077 0.62058
 C656 C 0.75257 0.64308 0.64294
 C657 C 0.74768 0.92928 0.07211
 C658 C 0.74752 0.90689 0.09439
 C659 C 0.74747 0.88063 0.12047
 C660 C 0.74771 0.85821 0.14272
 C661 C 0.24773 0.42815 0.57233
 C662 C 0.24761 0.40588 0.59467
 C663 C 0.24758 0.37978 0.62081
 C664 C 0.24781 0.35746 0.64310
 C665 C 0.74801 0.07218 0.92886
 C666 C 0.74794 0.09447 0.90647
 C667 C 0.74796 0.12058 0.88026
 C668 C 0.74822 0.14287 0.85788
 C669 C 0.24760 0.57216 0.42783
 C670 C 0.24744 0.59444 0.40549
 C671 C 0.24738 0.62053 0.37935
 C672 C 0.24760 0.64282 0.35702
 C673 C 0.25201 0.92864 0.92857
 C674 C 0.25214 0.90624 0.90629
 C675 C 0.25218 0.88000 0.88020
 C676 C 0.25196 0.85762 0.85791
 C677 C 0.75262 0.42793 0.42745
 C678 C 0.75274 0.40561 0.40510
 C679 C 0.75275 0.37945 0.37894
 C680 C 0.75248 0.35708 0.35663
 C681 C 0.07173 0.25157 0.07140
 C682 C 0.09412 0.25172 0.09369
 C683 C 0.12033 0.25181 0.11979
 C684 C 0.14269 0.25167 0.14211
 C685 C 0.57226 0.75186 0.57244
 C686 C 0.59455 0.75202 0.59484
 C687 C 0.62066 0.75213 0.62105
 C688 C 0.64299 0.75198 0.64339
 C689 C 0.07118 0.74872 0.92810
 C690 C 0.09365 0.74852 0.90588
 C691 C 0.11997 0.74838 0.87987
 C692 C 0.14242 0.74850 0.85765
 C693 C 0.57243 0.24824 0.42807
 C694 C 0.59478 0.24804 0.40581
 C695 C 0.62092 0.24787 0.37972
 C696 C 0.64321 0.24795 0.35740
 C697 C 0.92773 0.74899 0.07081
 C698 C 0.90538 0.74885 0.09313
 C699 C 0.87923 0.74875 0.11931
 C700 C 0.85693 0.74888 0.14169
 C701 C 0.42779 0.24833 0.57193
 C702 C 0.40542 0.24816 0.59418
 C703 C 0.37925 0.24804 0.62024
 C704 C 0.35692 0.24817 0.64253
 C705 C 0.92854 0.25183 0.92847
 C706 C 0.90619 0.25202 0.90612
 C707 C 0.88002 0.25215 0.87997
 C708 C 0.85767 0.25200 0.85764
 C709 C 0.42776 0.75191 0.42795
 C710 C 0.40539 0.75208 0.40563
 C711 C 0.37921 0.75218 0.37950
 C712 C 0.35686 0.75201 0.35716
 C713 C 0.07155 0.07176 0.25255
 C714 C 0.09383 0.09417 0.25272
 C715 C 0.11994 0.12039 0.25279
 C716 C 0.14226 0.14276 0.25254
 C717 C 0.57221 0.57224 0.75309
 C718 C 0.59456 0.59452 0.75321
 C719 C 0.62073 0.62059 0.75325
 C720 C 0.64308 0.64288 0.75301
 C721 C 0.92875 0.07182 0.74789
 C722 C 0.90646 0.09422 0.74777
 C723 C 0.88033 0.12043 0.74774
 C724 C 0.85800 0.14278 0.74797
 C725 C 0.42826 0.57229 0.24730
 C726 C 0.40596 0.59462 0.24719
 C727 C 0.37984 0.62074 0.24715
 C728 C 0.35748 0.64301 0.24737
 C729 C 0.07147 0.92836 0.74783
 C730 C 0.09377 0.90598 0.74769
 C731 C 0.11990 0.87979 0.74766
 C732 C 0.14224 0.85745 0.74792
 C733 C 0.57208 0.42752 0.24677
 C734 C 0.59430 0.40511 0.24655
 C735 C 0.62032 0.37889 0.24645
 C736 C 0.64259 0.35653 0.24670
 C737 C 0.92872 0.92834 0.25256
 C738 C 0.90637 0.90601 0.25272
 C739 C 0.88016 0.87987 0.25278
 C740 C 0.85778 0.85756 0.25253
 C741 C 0.42812 0.42772 0.75340
 C742 C 0.40588 0.40533 0.75357
 C743 C 0.37982 0.37914 0.75360
 C744 C 0.35751 0.35682 0.75328
 C745 C 0.07162 0.25081 0.92718
 C746 C 0.09402 0.25045 0.90495
 C747 C 0.12028 0.24988 0.87896
 C748 C 0.14271 0.24942 0.85676
 C749 C 0.57233 0.75096 0.42780
 C750 C 0.59467 0.75063 0.40544
 C751 C 0.62084 0.75011 0.37926
 C752 C 0.64319 0.74970 0.35692
 C753 C 0.92919 0.75010 0.92786
 C754 C 0.90672 0.75048 0.90563
 C755 C 0.88037 0.75100 0.87964
 C756 C 0.85787 0.75137 0.85744
 C757 C 0.42799 0.24925 0.42757
 C758 C 0.40565 0.24960 0.40521
 C759 C 0.37946 0.25014 0.37906
 C760 C 0.35707 0.25058 0.35675
 C761 C 0.07214 0.74976 0.07121
 C762 C 0.09440 0.75007 0.09364
 C763 C 0.12049 0.75054 0.11990
 C764 C 0.14280 0.75088 0.14229
 C765 C 0.57224 0.24958 0.57243
 C766 C 0.59458 0.25000 0.59478
 C767 C 0.62078 0.25059 0.62093
 C768 C 0.64316 0.25101 0.64323
 C769 C 0.92734 0.25031 0.07157
 C770 C 0.90508 0.24983 0.09394
 C771 C 0.87902 0.24915 0.12013
 C772 C 0.85673 0.24863 0.14247
 C773 C 0.42792 0.75056 0.57255
 C774 C 0.40563 0.75013 0.59495
 C775 C 0.37950 0.74956 0.62117
 C776 C 0.35715 0.74914 0.64351
 C777 C 0.25076 0.07191 0.92743
 C778 C 0.25031 0.09438 0.90526
 C779 C 0.24967 0.12068 0.87930
 C780 C 0.24918 0.14311 0.85710
 C781 C 0.75141 0.57248 0.42759
 C782 C 0.75097 0.59487 0.40529
 C783 C 0.75034 0.62110 0.37918
 C784 C 0.74984 0.64349 0.35688
 C785 C 0.74885 0.07116 0.07188
 C786 C 0.74922 0.09364 0.09411
 C787 C 0.74978 0.11995 0.12015
 C788 C 0.75024 0.14239 0.14240
 C789 C 0.24862 0.57245 0.57231
 C790 C 0.24900 0.59478 0.59468
 C791 C 0.24961 0.62093 0.62087
 C792 C 0.25012 0.64327 0.64322
 C793 C 0.74891 0.92773 0.92903
 C794 C 0.74933 0.90539 0.90668
 C795 C 0.74996 0.87923 0.88050
 C796 C 0.75051 0.85691 0.85813
 C797 C 0.24890 0.42770 0.42794
 C798 C 0.24934 0.40530 0.40565
 C799 C 0.24996 0.37907 0.37953
 C800 C 0.25044 0.35670 0.35721
 C801 C 0.25112 0.92733 0.07155
 C802 C 0.25074 0.90504 0.09389
 C803 C 0.25012 0.87895 0.12006
 C804 C 0.24959 0.85665 0.14239
 C805 C 0.75167 0.42775 0.57204
 C806 C 0.75129 0.40541 0.59439
 C807 C 0.75069 0.37923 0.62057
 C808 C 0.75019 0.35689 0.64292
 C809 C 0.07189 0.07266 0.74874
 C810 C 0.09434 0.09484 0.74911
 C811 C 0.12062 0.12083 0.74972
 C812 C 0.14302 0.14306 0.75023
 C813 C 0.57264 0.57215 0.24823
 C814 C 0.59497 0.59452 0.24868
 C815 C 0.62110 0.62075 0.24938
 C816 C 0.64339 0.64316 0.24995
 C817 C 0.07183 0.92727 0.25124
 C818 C 0.09421 0.90500 0.25072
 C819 C 0.12040 0.87893 0.24993
 C820 C 0.14276 0.85665 0.24929
 C821 C 0.57251 0.42790 0.75190
 C822 C 0.59490 0.40559 0.75140
 C823 C 0.62110 0.37945 0.75066
 C824 C 0.64346 0.35711 0.75005
 C825 C 0.92717 0.07133 0.25127
 C826 C 0.90484 0.09364 0.25076
 C827 C 0.87873 0.11979 0.24998
 C828 C 0.85645 0.14214 0.24934
 C829 C 0.42769 0.57229 0.75213
 C830 C 0.40533 0.59463 0.75169
 C831 C 0.37916 0.62081 0.75099
 C832 C 0.35682 0.64317 0.75040
 C833 C 0.92725 0.92859 0.74918
 C834 C 0.90504 0.90617 0.74967
 C835 C 0.87906 0.87989 0.75039
 C836 C 0.85687 0.85745 0.75097
 C837 C 0.42765 0.42792 0.24834
 C838 C 0.40523 0.40564 0.24882
 C839 C 0.37899 0.37952 0.24953
 C840 C 0.35662 0.35719 0.25012
   
