data_POSCAR
  _audit_creation_date              2014-09-24
  _audit_creation_method            'ToBaCCo'
  _symmetry_space_group_name_H-M    'P1'
  _symmetry_Int_Tables_number       1
  _symmetry_cell_setting            triclinic
  loop_
  _symmetry_equiv_pos_as_xyz
 x,y,z
_cell_length_a 33.2030
_cell_length_b 33.5667
_cell_length_c 12.3900
_cell_angle_alpha 90.415300
_cell_angle_beta 90.107800
_cell_angle_gamma 120.934900
loop_
  _atom_site_label
  _atom_site_type_symbol
  _atom_site_fract_x
  _atom_site_fract_y
  _atom_site_fract_z
C1 C 0.10555 0.39957 0.52730
 C2 C 0.10731 0.39922 0.41651
 C3 C 0.15350 0.43040 0.38801
 N4 N 0.18025 0.44782 0.47840
 C5 C 0.15107 0.42901 0.56332
 C6 C 0.16985 0.44617 0.28117
 C7 C 0.21815 0.46593 0.25554
 C8 C 0.23922 0.48824 0.15965
 C9 C 0.28612 0.50373 0.16926
 C10 C 0.29300 0.49150 0.27119
 N11 N 0.25145 0.46760 0.32229
 C12 C 0.33718 0.50276 0.31271
 C13 C 0.34812 0.50122 0.42276
 C14 C 0.39363 0.52111 0.46172
 C15 C 0.39057 0.51285 0.56958
 C16 C 0.34310 0.48706 0.59447
 N17 N 0.31725 0.48144 0.50441
 C18 C 0.32517 0.47361 0.70120
 C19 C 0.28029 0.46666 0.72894
 C20 C 0.26651 0.47137 0.83184
 C21 C 0.22196 0.46430 0.82248
 C22 C 0.20901 0.45469 0.71460
 N23 N 0.24429 0.45518 0.65898
 C24 C 0.16421 0.44240 0.67199
 H25 H 0.07438 0.38007 0.57569
 H26 H 0.07767 0.37944 0.36281
 H27 H 0.24199 0.44439 0.57944
 H28 H 0.22355 0.49429 0.09000
 H29 H 0.31235 0.52317 0.10878
 H30 H 0.42602 0.54118 0.41772
 H31 H 0.42045 0.52700 0.62373
 H32 H 0.20112 0.46495 0.88873
 H33 H 0.24603 0.45075 0.39537
 H34 H 0.28627 0.47997 0.90644
 C35 C 0.50510 -0.36654 0.51530
 C36 C 0.51440 -0.36275 0.40762
 C37 C 0.52279 -0.31959 0.37617
 N38 N 0.51770 -0.29746 0.46306
 C39 C 0.50834 -0.32548 0.54960
 C40 C 0.52717 -0.30511 0.26614
 C41 C 0.52013 -0.26850 0.23646
 C42 C 0.50533 -0.26307 0.13539
 C43 C 0.50439 -0.22274 0.13962
 C44 C 0.51938 -0.20413 0.24225
 N45 N 0.52932 -0.23190 0.30046
 C46 C 0.52669 -0.16083 0.27666
 C47 C 0.53682 -0.14525 0.38451
 C48 C 0.55645 -0.09960 0.41981
 C49 C 0.55221 -0.10090 0.52988
 C50 C 0.52860 -0.14732 0.55772
 N51 N 0.51989 -0.17423 0.46902
 C52 C 0.51071 -0.16519 0.66067
 C53 C 0.49680 -0.21166 0.68687
 C54 C 0.47154 -0.23475 0.77750
 C55 C 0.46731 -0.27769 0.77609
 C56 C 0.48981 -0.28031 0.68369
 N57 N 0.50784 -0.23963 0.63030
 C58 C 0.49707 -0.31760 0.65651
 H59 H 0.49354 -0.39805 0.56019
 H60 H 0.51063 -0.39096 0.35768
 H61 H 0.53102 -0.22964 0.56599
 H62 H 0.49567 -0.28554 0.06526
 H63 H 0.49488 -0.20824 0.07344
 H64 H 0.57203 -0.06830 0.37270
 H65 H 0.56422 -0.07105 0.58273
 H66 H 0.44953 -0.30354 0.83758
 H67 H 0.54576 -0.22385 0.37573
 H68 H 0.45764 -0.22210 0.83895
 C69 C 1.07203 0.64883 0.44089
 C70 C 1.06957 0.64654 0.55093
 C71 C 1.11356 0.67953 0.59011
 N72 N 1.14163 0.70426 0.50703
 C73 C 1.11687 0.68466 0.41556
 C74 C 1.12715 0.68700 0.70101
 C75 C 1.16411 0.73080 0.73633
 C76 C 1.16766 0.75018 0.83772
 C77 C 1.20962 0.79175 0.84037
 C78 C 1.23089 0.79615 0.74116
 N79 N 1.20278 0.75912 0.67820
 C80 C 1.27668 0.83154 0.71383
 C81 C 1.29562 0.83553 0.60916
 C82 C 1.34233 0.85027 0.58911
 C83 C 1.34711 0.85069 0.47960
 C84 C 1.30342 0.83709 0.43565
 N85 N 1.27159 0.82689 0.51530
 C86 C 1.29295 0.83295 0.32356
 C87 C 1.24731 0.79869 0.28553
 C88 C 1.23136 0.79325 0.17942
 C89 C 1.18735 0.75395 0.17576
 C90 C 1.17686 0.73683 0.27973
 N91 N 1.21344 0.76406 0.34587
 C92 C 1.13439 0.69639 0.30919
 H93 H 1.04357 0.62672 0.38634
 H94 H 1.03858 0.62335 0.59664
 H95 H 1.21687 0.75632 0.42494
 H96 H 1.14240 0.73639 0.90246
 H97 H 1.22315 0.81559 0.90836
 H98 H 1.36980 0.85840 0.64770
 H99 H 1.37882 0.85838 0.43761
 H100 H 1.16520 0.73992 0.10481
 H101 H 1.21262 0.75106 0.60554
 H102 H 1.24917 0.81495 0.11089
 C103 C 0.91899 0.57040 0.56798
 C104 C 0.92068 0.58132 0.46090
 C105 C 0.87468 0.55785 0.42345
 N106 N 0.84498 0.53378 0.50420
 C107 C 0.87198 0.54102 0.59217
 C108 C 0.86111 0.55063 0.31354
 C109 C 0.81459 0.53464 0.28179
 C110 C 0.79508 0.51537 0.18191
 C111 C 0.74883 0.50335 0.18607
 C112 C 0.74159 0.51555 0.28839
 N113 N 0.78204 0.53536 0.34540
 C114 C 0.69905 0.51035 0.32424
 C115 C 0.68962 0.51610 0.43294
 C116 C 0.64867 0.51351 0.46670
 C117 C 0.65119 0.51741 0.57654
 C118 C 0.69396 0.52262 0.60821
 N119 N 0.71686 0.52088 0.51946
 C120 C 0.70733 0.52099 0.71718
 C121 C 0.74381 0.51176 0.74048
 C122 C 0.74666 0.48950 0.83166
 C123 C 0.78726 0.48813 0.82335
 C124 C 0.80939 0.51087 0.72882
 N125 N 0.78243 0.52509 0.67913
 C126 C 0.85421 0.51987 0.69275
 H127 H 0.94882 0.58265 0.62185
 H128 H 0.95217 0.60224 0.41438
 H129 H 0.79187 0.54673 0.61254
 H130 H 0.81200 0.50985 0.11366
 H131 H 0.72340 0.48725 0.12125
 H132 H 0.61887 0.50737 0.41810
 H133 H 0.62242 0.51288 0.62599
 H134 H 0.79867 0.47200 0.88139
 H135 H 0.78842 0.55180 0.42027
 H136 H 0.72180 0.47451 0.89685
 C137 C 0.42420 0.33109 0.54339
 C138 C 0.41509 0.32390 0.43478
 C139 C 0.43894 0.30280 0.39747
 N140 N 0.46249 0.29704 0.47882
 C141 C 0.45405 0.31488 0.56800
 C142 C 0.44620 0.29728 0.28785
 C143 C 0.45412 0.26185 0.25239
 C144 C 0.46457 0.25594 0.14740
 C145 C 0.46879 0.21732 0.14700
 C146 C 0.46197 0.20130 0.25241
 N147 N 0.45186 0.22799 0.31546
 C148 C 0.46600 0.16345 0.28733
 C149 C 0.47547 0.15755 0.39624
 C150 C 0.48905 0.12662 0.42799
 C151 C 0.49845 0.13339 0.53545
 C152 C 0.49046 0.16831 0.56855
 N153 N 0.47759 0.18396 0.48213
 C154 C 0.50007 0.18769 0.67521
 C155 C 0.50414 0.23095 0.70020
 C156 C 0.52733 0.25853 0.78974
 C157 C 0.52057 0.29559 0.78804
 C158 C 0.49255 0.28951 0.69872
 N159 N 0.48280 0.24999 0.64575
 C160 C 0.47598 0.31952 0.66912
 H161 H 0.41106 0.34718 0.59758
 H162 H 0.39459 0.33428 0.38760
 H163 H 0.45876 0.23427 0.58290
 H164 H 0.46884 0.27702 0.07782
 H165 H 0.47723 0.20365 0.07695
 H166 H 0.49495 0.10339 0.37901
 H167 H 0.51253 0.11611 0.58175
 H168 H 0.53510 0.32379 0.84633
 H169 H 0.44117 0.22181 0.39548
 H170 H 0.54768 0.25330 0.85008
 C171 C 0.61493 0.14903 0.47886
 C172 C 0.61621 0.14050 0.58647
 C173 C 0.66310 0.15947 0.61421
 N174 N 0.69047 0.17944 0.52697
 C175 C 0.66103 0.17305 0.44412
 C176 C 0.67992 0.15738 0.71804
 C177 C 0.72641 0.18873 0.75291
 C178 C 0.74525 0.18593 0.85065
 C179 C 0.78890 0.22534 0.86006
 C180 C 0.79571 0.25100 0.76742
 N181 N 0.75752 0.22846 0.70259
 C182 C 0.83561 0.29505 0.74718
 C183 C 0.84576 0.31552 0.64283
 C184 C 0.87504 0.36260 0.62297
 C185 C 0.87530 0.36824 0.51372
 C186 C 0.84584 0.32459 0.46949
 N187 N 0.82759 0.29231 0.54848
 C188 C 0.83613 0.31524 0.35771
 C189 C 0.79490 0.27549 0.31854
 C190 C 0.78610 0.26143 0.21109
 C191 C 0.74017 0.22540 0.20461
 C192 C 0.72224 0.21833 0.30829
 N193 N 0.75582 0.24889 0.37713
 C194 C 0.67517 0.18636 0.33614
 H195 H 0.58364 0.13897 0.43171
 H196 H 0.58603 0.12307 0.63861
 H197 H 0.75053 0.25520 0.45654
 H198 H 0.72887 0.15884 0.91028
 H199 H 0.81280 0.23421 0.92771
 H200 H 0.89302 0.39053 0.68113
 H201 H 0.89365 0.40113 0.47237
 H202 H 0.72193 0.20697 0.13162
 H203 H 0.75103 0.24224 0.63460
 H204 H 0.80993 0.27630 0.14383
 O205 O 0.96139 0.46739 -0.21040
 O206 O 1.05178 0.56542 0.17383
 O207 O 0.93537 0.50973 0.08938
 O208 O 1.07906 0.57229 -0.07439
 O209 O 0.97046 0.50684 0.22910
 O210 O 1.04491 0.52708 -0.20821
 O211 O 1.11063 0.56703 0.09652
 O212 O 0.93870 0.49812 -0.09425
 C213 C 0.94043 0.48854 -0.18883
 C214 C 1.09418 0.58764 0.14844
 C215 C 0.94260 0.51568 0.18701
 C216 C 1.06773 0.56728 -0.17115
 O217 O 1.06731 0.46585 -0.13191
 O218 O 0.98560 0.44128 0.23220
 O219 O 0.91958 0.40961 -0.06494
 O220 O 1.08450 0.47709 0.05916
 O221 O 1.07193 0.50003 0.20775
 O222 O 0.98219 0.40930 -0.11461
 O223 O 1.12833 0.53405 -0.08700
 O224 O 0.92187 0.42414 0.13594
 Co225 Co 1.01375 0.46984 -0.14879
 Co226 Co 1.01983 0.50268 0.19198
 Co227 Co 0.93563 0.46243 0.01603
 Co228 Co 1.07836 0.52332 -0.00898
 O229 O 1.00939 0.49028 0.01895
 C230 C 1.11051 0.49657 -0.14790
 C231 C 0.94200 0.41525 0.21237
 C232 C 0.93871 0.38881 -0.10597
 C233 C 1.08512 0.47656 0.15963
 O234 O 0.53111 0.47658 -0.23251
 O235 O 0.46153 0.48696 0.19113
 O236 O 0.49389 0.41528 0.07208
 O237 O 0.43398 0.49581 -0.07126
 O238 O 0.51666 0.45805 0.21240
 O239 O 0.47120 0.49885 -0.21442
 O240 O 0.45381 0.53808 0.10101
 O241 O 0.49601 0.42678 -0.11280
 C242 C 0.50578 0.43516 -0.20840
 C243 C 0.43863 0.50587 0.16867
 C244 C 0.49540 0.41882 0.17125
 C245 C 0.43293 0.48553 -0.16783
 O246 O 0.53972 0.58506 -0.15296
 O247 O 0.58788 0.53890 0.18964
 O248 O 0.59151 0.49212 -0.10173
 O249 O 0.53812 0.59989 0.03537
 O250 O 0.53481 0.57199 0.19246
 O251 O 0.59582 0.55651 -0.15009
 O252 O 0.47557 0.58267 -0.09671
 O253 O 0.58758 0.48285 0.09407
 Co254 Co 0.53291 0.52735 -0.17071
 Co255 Co 0.52457 0.51377 0.17734
 Co256 Co 0.54078 0.45864 -0.01236
 Co257 Co 0.48832 0.54516 -0.01980
 O258 O 0.52123 0.50853 0.00040
 C259 C 0.50963 0.59752 -0.16784
 C260 C 0.60741 0.51714 0.15997
 C261 C 0.61472 0.53261 -0.13996
 C262 C 0.54527 0.60593 0.13436
 O263 O 0.53206 0.03676 -0.20746
 O264 O 0.53364 -0.02723 0.13814
 O265 O 0.56540 0.11487 0.08175
 O266 O 0.47601 -0.09176 -0.10210
 O267 O 0.56090 0.05202 0.13556
 O268 O 0.47317 -0.04766 -0.22859
 O269 O 0.47174 -0.09197 0.10052
 O270 O 0.57257 0.06328 -0.05828
 C271 C 0.57122 0.05715 -0.15849
 C272 C 0.51348 -0.06986 0.13117
 C273 C 0.57694 0.09462 0.15366
 C274 C 0.47995 -0.08005 -0.19923
 O275 O 0.40625 -0.02911 -0.16244
 O276 O 0.47491 0.03609 0.19914
 O277 O 0.52669 0.10175 -0.11035
 O278 O 0.39633 -0.08610 0.08772
 O279 O 0.44753 -0.04665 0.21388
 O280 O 0.45856 0.04830 -0.14247
 O281 O 0.39729 -0.09386 -0.11166
 O282 O 0.47693 0.07172 0.05454
 Co283 Co 0.46904 0.00185 -0.17182
 Co284 Co 0.50211 0.00279 0.15706
 Co285 Co 0.52329 0.06454 0.00199
 Co286 Co 0.43969 -0.08280 -0.00605
 O287 O 0.48047 -0.00638 -0.00947
 C288 C 0.38188 -0.07157 -0.15753
 C289 C 0.46511 0.06250 0.14997
 C290 C 0.48929 0.08901 -0.15841
 C291 C 0.40568 -0.07531 0.18483
 C292 C 1.13971 0.44811 0.20130
 C293 C 1.10485 0.45514 0.22820
 H294 H 1.14935 0.45247 0.11714
 H295 H 1.09702 0.45609 0.31245
 C296 C 0.53121 0.66800 0.18227
 C297 C 0.55889 0.64992 0.18948
 H298 H 0.51054 0.66060 0.10928
 H299 H 0.58225 0.65894 0.25844
 C300 C 0.32847 -0.13988 0.24648
 C301 C 0.36850 -0.09898 0.26700
 H302 H 0.32306 -0.15246 0.16403
 H303 H 0.37524 -0.08255 0.34566
 C304 C 0.89310 0.54863 0.23321
 C305 C 0.91483 0.52598 0.25916
 H306 H 0.89457 0.56057 0.15150
 H307 H 0.91126 0.51225 0.33980
 C308 C 0.45338 0.33440 0.21113
 C309 C 0.47859 0.37894 0.24256
 H310 H 0.44290 0.32593 0.12735
 H311 H 0.49075 0.38740 0.32545
 C312 C 0.63961 0.16496 0.24767
 C313 C 0.61243 0.11884 0.23875
 H314 H 0.63797 0.18707 0.18670
 H315 H 0.61694 0.09720 0.29620
 C316 C 0.50812 0.16377 -0.24141
 C317 C 0.48038 0.11768 -0.23155
 H318 H 0.53424 0.18247 -0.17928
 H319 H 0.44940 0.09910 -0.28246
 C320 C 0.67849 0.52016 -0.19722
 C321 C 0.65974 0.54746 -0.19423
 H322 H 0.66997 0.49584 -0.13213
 H323 H 0.67240 0.57642 -0.24920
 C324 C 0.86369 0.32097 -0.16366
 C325 C 0.91056 0.34587 -0.16875
 H326 H 0.84668 0.32119 -0.08919
 H327 H 0.92805 0.34032 -0.23602
 C328 C 0.50432 -0.13580 -0.25691
 C329 C 0.48997 -0.10592 -0.28168
 H330 H 0.50912 -0.14091 -0.17270
 H331 H 0.48310 -0.10162 -0.36490
 C332 C 0.35569 0.47493 -0.21541
 C333 C 0.38920 0.46417 -0.23241
 H334 H 0.35334 0.48633 -0.13512
 H335 H 0.38992 0.44852 -0.30865
 C336 C 1.10530 0.65100 -0.22100
 C337 C 1.08385 0.60575 -0.24741
 H338 H 1.11137 0.65953 -0.13582
 H339 H 1.08195 0.59500 -0.33047
 C340 C 0.88176 0.50949 -0.23809
 C341 C 0.91438 0.49904 -0.27020
 H342 H 0.87428 0.50713 -0.15271
 H343 H 0.92035 0.49602 -0.35495
 C344 C 0.48284 0.35510 -0.25752
 C345 C 0.49282 0.39767 -0.28802
 H346 H 0.48535 0.34977 -0.17226
 H347 H 0.49683 0.40690 -0.37254
 C348 C 0.64631 0.12514 -0.20041
 C349 C 0.61415 0.08077 -0.22291
 H350 H 0.64563 0.13991 -0.12276
 H351 H 0.61399 0.06632 -0.30151
 C352 C 1.13009 0.44675 -0.25837
 C353 C 1.14231 0.48773 -0.21245
 H354 H 1.09425 0.41802 -0.25277
 H355 H 1.17781 0.51675 -0.22252
 C356 C 0.49024 0.65045 -0.26078
 C357 C 0.51829 0.63296 -0.24809
 H358 H 0.46392 0.64213 -0.19985
 H359 H 0.54885 0.64467 -0.29877
 C360 C 0.30672 -0.13980 -0.20340
 C361 C 0.33913 -0.09552 -0.22160
 H362 H 0.30439 -0.15405 -0.12377
 H363 H 0.33790 -0.07870 -0.29496
 C364 C 0.50969 -0.13781 0.20520
 C365 C 0.53604 -0.09388 0.17462
 H366 H 0.47257 -0.15744 0.18511
 H367 H 0.57329 -0.07428 0.19259
 C368 C 0.37550 0.51664 0.23454
 C369 C 0.39542 0.49099 0.22713
 H370 H 0.38821 0.54811 0.18826
 H371 H 0.38189 0.45978 0.27506
 C372 C 1.10766 0.66091 0.22514
 C373 C 1.12501 0.63537 0.18745
 H374 H 1.07065 0.64860 0.21484
 H375 H 1.16193 0.64732 0.19846
 C376 C 0.46908 0.13354 0.20257
 C377 C 0.44601 0.08708 0.20838
 H378 H 0.49541 0.15070 0.14067
 H379 H 0.42142 0.06948 0.27321
 C380 C 0.66187 0.49811 0.24276
 C381 C 0.65200 0.53006 0.21188
 H382 H 0.64005 0.46215 0.21752
 H383 H 0.67304 0.56521 0.24335
 C384 C 0.86652 0.35098 0.27735
 C385 C 0.91362 0.37498 0.28242
 H386 H 0.84899 0.35812 0.21305
 H387 H 0.93147 0.36727 0.34480
   
