data_POSCAR
  _audit_creation_date              2014-09-24
  _audit_creation_method            'ToBaCCo'
  _symmetry_space_group_name_H-M    'P1'
  _symmetry_Int_Tables_number       1
  _symmetry_cell_setting            triclinic
  loop_
  _symmetry_equiv_pos_as_xyz
 x,y,z
_cell_length_a 55.3703
_cell_length_b 55.3400
_cell_length_c 32.0330
_cell_angle_alpha 89.999400
_cell_angle_beta 90.072100
_cell_angle_gamma 87.302600
loop_
  _atom_site_label
  _atom_site_type_symbol
  _atom_site_fract_x
  _atom_site_fract_y
  _atom_site_fract_z
C1 C -0.02599 0.26741 0.02693
 C2 C -0.02538 0.26770 -0.01776
 C3 C -0.00279 0.26533 -0.03801
 C4 C 0.01926 0.26446 -0.01596
 C5 C 0.01846 0.26543 0.02835
 C6 C -0.00389 0.26731 0.04888
 H7 H -0.00383 0.26626 0.08268
 H8 H -0.00229 0.26652 -0.07176
 C9 C 0.47876 0.76094 0.53283
 C10 C 0.47787 0.76281 0.48868
 C11 C 0.49953 0.76284 0.46601
 C12 C 0.52197 0.76110 0.48614
 C13 C 0.52296 0.76002 0.53018
 C14 C 0.50133 0.75988 0.55294
 H15 H 0.50210 0.75873 0.58671
 H16 H 0.49893 0.76383 0.43220
 C17 C 1.02324 0.73390 0.03092
 C18 C 1.02319 0.73572 -0.01345
 C19 C 1.00114 0.73829 -0.03497
 C20 C 0.97874 0.73910 -0.01422
 C21 C 0.97874 0.73569 0.02980
 C22 C 1.00076 0.73330 0.05144
 H23 H 1.00010 0.73178 0.08513
 H24 H 1.00167 0.74050 -0.06857
 C25 C 0.52054 0.22909 0.53026
 C26 C 0.52076 0.23121 0.48629
 C27 C 0.49871 0.23263 0.46450
 C28 C 0.47646 0.23191 0.48551
 C29 C 0.47641 0.22915 0.52959
 C30 C 0.49850 0.22777 0.55124
 H31 H 0.49854 0.22601 0.58496
 H32 H 0.49886 0.23457 0.43082
 C33 C 0.73260 -0.01265 0.02907
 C34 C 0.73342 -0.01364 -0.01542
 C35 C 0.73299 0.00801 -0.03833
 C36 C 0.73221 0.03070 -0.01875
 C37 C 0.73156 0.03183 0.02537
 C38 C 0.73196 0.01027 0.04843
 H39 H 0.73047 0.01159 0.08210
 H40 H 0.73444 0.00719 -0.07207
 C41 C 0.22997 0.46999 0.52212
 C42 C 0.23155 0.47049 0.47814
 C43 C 0.23067 0.49282 0.45741
 C44 C 0.22857 0.51473 0.47947
 C45 C 0.22748 0.51422 0.52376
 C46 C 0.22778 0.49177 0.54436
 H47 H 0.22738 0.49119 0.57819
 H48 H 0.23140 0.49313 0.42359
 C49 C 0.27550 1.01295 0.02153
 C50 C 0.27125 1.01301 -0.02267
 C51 C 0.26769 0.99075 -0.04276
 C52 C 0.26943 0.96866 -0.02133
 C53 C 0.27536 0.96849 0.02155
 C54 C 0.27825 0.99046 0.04225
 H55 H 0.28128 0.98981 0.07565
 H56 H 0.26438 0.99030 -0.07609
 C57 C 0.77757 0.52864 0.52935
 C58 C 0.77644 0.53051 0.48519
 C59 C 0.77729 0.50931 0.46099
 C60 C 0.77810 0.48644 0.47977
 C61 C 0.77833 0.48456 0.52373
 C62 C 0.77830 0.50566 0.54795
 H63 H 0.77890 0.50414 0.58169
 H64 H 0.77619 0.51058 0.42725
 O65 O 0.24875 0.20386 0.24170
 O66 O 0.23664 0.26013 0.30079
 O67 O 0.21292 0.23607 0.24552
 O68 O 0.27262 0.22859 0.29656
 O69 O 0.28920 0.24717 0.24358
 O70 O 0.22884 0.25897 0.19732
 O71 O 0.25490 0.28055 0.25185
 O72 O 0.26263 0.22499 0.18922
 Cu73 Cu 0.24114 0.22998 0.27617
 Cu74 Cu 0.26059 0.25492 0.21535
 C75 C 0.25716 0.20489 0.20491
 C76 C 0.24411 0.27991 0.28679
 C77 C 0.21064 0.24928 0.21316
 C78 C 0.29111 0.23657 0.27868
 O79 O 0.74994 0.79544 0.24790
 O80 O 0.76031 0.73797 0.30496
 O81 O 0.78556 0.76337 0.25380
 O82 O 0.72546 0.77123 0.30114
 O83 O 0.70999 0.74975 0.25044
 O84 O 0.77002 0.74451 0.20012
 O85 O 0.74636 0.71818 0.25083
 O86 O 0.73318 0.77568 0.19644
 Cu87 Cu 0.75688 0.76896 0.28225
 Cu88 Cu 0.73823 0.74513 0.21913
 C89 C 0.73961 0.79537 0.21244
 C90 C 0.75544 0.71822 0.28721
 C91 C 0.78814 0.75282 0.21880
 C92 C 0.70754 0.76162 0.28428
 O93 O 0.78609 0.25332 0.26151
 O94 O 0.72640 0.24730 0.30983
 O95 O 0.75387 0.22054 0.26018
 O96 O 0.75863 0.28037 0.30937
 O97 O 0.74096 0.29755 0.25436
 O98 O 0.73565 0.23775 0.20579
 O99 O 0.70881 0.26500 0.25528
 O100 O 0.76852 0.26982 0.20583
 Cu101 Cu 0.75793 0.24863 0.29077
 Cu102 Cu 0.73677 0.26927 0.22478
 C103 C 0.78750 0.26244 0.22529
 C104 C 0.70742 0.25527 0.29107
 C105 C 0.74399 0.21892 0.22451
 C106 C 0.75060 0.29917 0.29018
 O107 O 0.26878 0.76224 0.19936
 O108 O 0.26014 0.70233 0.24607
 O109 O 0.23614 0.73044 0.19302
 O110 O 0.29303 0.73418 0.25092
 O111 O 0.27350 0.75215 0.30320
 O112 O 0.21608 0.74690 0.24619
 O113 O 0.24075 0.71976 0.29900
 O114 O 0.24835 0.77944 0.25138
 Cu115 Cu 0.26647 0.73047 0.21711
 Cu116 Cu 0.24269 0.75126 0.28027
 C117 C 0.25987 0.78110 0.21729
 C118 C 0.24915 0.70081 0.28073
 C119 C 0.21642 0.73814 0.20951
 C120 C 0.29310 0.74399 0.28673
 O121 O 0.70917 0.26628 0.75821
 O122 O 0.76991 0.27327 0.80311
 O123 O 0.74166 0.29823 0.75273
 O124 O 0.73710 0.24170 0.81121
 O125 O 0.75272 0.22099 0.75802
 O126 O 0.75835 0.27808 0.69988
 O127 O 0.78598 0.25239 0.75057
 O128 O 0.72554 0.24573 0.70550
 Cu129 Cu 0.73776 0.27184 0.78663
 Cu130 Cu 0.75724 0.24726 0.72314
 C131 C 0.70705 0.25497 0.72395
 C132 C 0.78835 0.26389 0.78453
 C133 C 0.75086 0.29793 0.71647
 C134 C 0.74428 0.22174 0.79490
 O135 O 0.28147 0.74026 0.73601
 O136 O 0.22260 0.73467 0.78741
 O137 O 0.24790 0.70872 0.73413
 O138 O 0.25557 0.76648 0.78874
 O139 O 0.23893 0.78617 0.73524
 O140 O 0.22972 0.72849 0.68212
 O141 O 0.20480 0.75514 0.73591
 O142 O 0.26336 0.75883 0.68270
 Cu143 Cu 0.25370 0.73557 0.76684
 Cu144 Cu 0.23228 0.75918 0.70388
 C145 C 0.28240 0.75009 0.70024
 C146 C 0.20365 0.74418 0.77068
 C147 C 0.23766 0.70882 0.69860
 C148 C 0.24868 0.78619 0.77114
 O149 O 0.24469 0.27389 0.73493
 O150 O 0.25397 0.21463 0.78637
 O151 O 0.27821 0.23967 0.73359
 O152 O 0.21985 0.24876 0.78772
 O153 O 0.20158 0.23100 0.73564
 O154 O 0.25986 0.22247 0.68098
 O155 O 0.23569 0.19723 0.73389
 O156 O 0.22560 0.25663 0.68313
 Cu157 Cu 0.25095 0.24600 0.76595
 Cu158 Cu 0.22885 0.22513 0.70311
 C159 C 0.23365 0.27537 0.70018
 C160 C 0.24647 0.19577 0.76891
 C161 C 0.27903 0.22959 0.69796
 C162 C 0.20074 0.24122 0.77114
 O163 O 0.74478 0.78434 0.78952
 O164 O 0.75630 0.72566 0.73743
 O165 O 0.77984 0.75207 0.78940
 O166 O 0.72084 0.75811 0.73692
 O167 O 0.73761 0.77652 0.68401
 O168 O 0.79678 0.77024 0.73631
 O169 O 0.77319 0.74402 0.68457
 O170 O 0.76116 0.80286 0.73625
 Cu171 Cu 0.74867 0.75321 0.76856
 Cu172 Cu 0.76882 0.77530 0.70496
 C173 C 0.75124 0.80358 0.77201
 C174 C 0.76679 0.72476 0.70217
 C175 C 0.79836 0.76017 0.77190
 C176 C 0.71914 0.76818 0.70134
 C177 C 0.28990 0.03640 0.08143
 C178 C 0.28900 0.05736 0.10582
 C179 C 0.27322 0.07688 0.09549
 C180 C 0.25764 0.07496 0.06124
 C181 C 0.25804 0.05381 0.03742
 C182 C 0.27469 0.03435 0.04625
 N183 N 0.27306 0.09831 0.12051
 N184 N 0.26479 0.11859 0.10662
 C185 C 0.26379 0.13997 0.13180
 C186 C 0.26084 0.16253 0.11230
 C187 C 0.25933 0.18373 0.13606
 C188 C 0.26013 0.18258 0.17986
 C189 C 0.26297 0.15990 0.19942
 C190 C 0.26504 0.13875 0.17557
 H191 H 0.30320 0.02218 0.08940
 H192 H 0.30104 0.05860 0.13232
 H193 H 0.24481 0.08964 0.05339
 H194 H 0.24494 0.05262 0.01250
 H195 H 0.25976 0.16367 0.07860
 H196 H 0.25695 0.20097 0.12022
 H197 H 0.26364 0.15854 0.23314
 H198 H 0.26714 0.12146 0.19129
 C199 C 0.76073 0.55312 0.58927
 C200 C 0.75940 0.57432 0.61303
 C201 C 0.77479 0.59305 0.60461
 C202 C 0.79230 0.58998 0.57306
 C203 C 0.79385 0.56866 0.54961
 C204 C 0.77764 0.55030 0.55677
 N205 N 0.77172 0.61520 0.62755
 N206 N 0.78277 0.63405 0.61783
 C207 C 0.77921 0.65633 0.64027
 C208 C 0.78979 0.67704 0.62510
 C209 C 0.78586 0.69929 0.64525
 C210 C 0.77141 0.70112 0.68129
 C211 C 0.76114 0.68018 0.69687
 C212 C 0.76492 0.65799 0.67647
 H213 H 0.74804 0.53924 0.59538
 H214 H 0.74588 0.57645 0.63733
 H215 H 0.80456 0.60412 0.56624
 H216 H 0.80731 0.56670 0.52520
 H217 H 0.80084 0.67599 0.59722
 H218 H 0.79410 0.71506 0.63256
 H219 H 0.74990 0.68099 0.72453
 H220 H 0.75657 0.64222 0.68886
 C221 C 0.74516 0.96525 0.09260
 C222 C 0.74565 0.94441 0.11719
 C223 C 0.73310 0.92431 0.10484
 C224 C 0.71933 0.92548 0.06800
 C225 C 0.71867 0.94638 0.04342
 C226 C 0.73214 0.96642 0.05466
 N227 N 0.73518 0.90284 0.12976
 N228 N 0.72578 0.88324 0.11900
 C229 C 0.72855 0.86173 0.14375
 C230 C 0.71923 0.84033 0.12878
 C231 C 0.72259 0.81878 0.15127
 C232 C 0.73529 0.81834 0.18935
 C233 C 0.74425 0.83998 0.20468
 C234 C 0.74097 0.86148 0.18206
 H235 H 0.75602 0.97999 0.10249
 H236 H 0.75632 0.94371 0.14556
 H237 H 0.70911 0.91027 0.05819
 H238 H 0.70726 0.94692 0.01595
 H239 H 0.70963 0.84029 0.09930
 H240 H 0.71540 0.80244 0.13865
 H241 H 0.75410 0.84025 0.23389
 H242 H 0.74833 0.87781 0.19433
 C243 C 0.25504 0.43496 0.54989
 C244 C 0.25730 0.41305 0.57159
 C245 C 0.23688 0.40268 0.58842
 C246 C 0.21413 0.41484 0.58432
 C247 C 0.21195 0.43708 0.56353
 C248 C 0.23235 0.44706 0.54569
 N249 N 0.23975 0.37997 0.60972
 N250 N 0.22216 0.36633 0.61537
 C251 C 0.22511 0.34385 0.63739
 C252 C 0.20816 0.32616 0.63148
 C253 C 0.21096 0.30379 0.65171
 C254 C 0.23043 0.29907 0.67915
 C255 C 0.24710 0.31706 0.68582
 C256 C 0.24463 0.33918 0.66475
 H257 H 0.27094 0.44251 0.53638
 H258 H 0.27493 0.40390 0.57469
 H259 H 0.19814 0.40726 0.59745
 H260 H 0.19433 0.44628 0.56058
 H261 H 0.19300 0.32958 0.61058
 H262 H 0.19780 0.29027 0.64619
 H263 H 0.26232 0.31384 0.70669
 H264 H 0.25784 0.35266 0.67005
 C265 C 0.93429 0.24955 0.03504
 C266 C 0.91235 0.24803 0.05603
 C267 C 0.90817 0.26060 0.09329
 C268 C 0.92647 0.27446 0.10997
 C269 C 0.94835 0.27637 0.08860
 C270 C 0.95235 0.26455 0.04996
 N271 N 0.88497 0.25951 0.11274
 N272 N 0.88099 0.26654 0.15003
 C273 C 0.85741 0.26594 0.16825
 C274 C 0.85510 0.26664 0.21173
 C275 C 0.83235 0.26546 0.23034
 C276 C 0.81145 0.26422 0.20559
 C277 C 0.81374 0.26416 0.16193
 C278 C 0.83656 0.26475 0.14338
 H279 H 0.93706 0.23886 0.00700
 H280 H 0.89853 0.23695 0.04323
 H281 H 0.92360 0.28436 0.13882
 H282 H 0.96157 0.28813 0.10141
 H283 H 0.87101 0.26767 0.23122
 H284 H 0.83107 0.26567 0.26407
 H285 H 0.79793 0.26314 0.14216
 H286 H 0.83790 0.26442 0.10967
 C287 C 0.45300 0.77476 0.59342
 C288 C 0.43184 0.77398 0.61704
 C289 C 0.41380 0.75833 0.60586
 C290 C 0.41759 0.74258 0.57186
 C291 C 0.43902 0.74287 0.54896
 C292 C 0.45661 0.75948 0.55870
 N293 N 0.39171 0.75885 0.62903
 N294 N 0.37230 0.75165 0.61294
 C295 C 0.35008 0.75162 0.63563
 C296 C 0.32840 0.75077 0.61338
 C297 C 0.30634 0.75078 0.63446
 C298 C 0.30573 0.75095 0.67829
 C299 C 0.32753 0.75145 0.70068
 C300 C 0.34957 0.75208 0.67948
 H301 H 0.46636 0.78760 0.60177
 H302 H 0.42917 0.78609 0.64337
 H303 H 0.40406 0.73000 0.56320
 H304 H 0.44171 0.73032 0.52326
 H305 H 0.32860 0.75032 0.57958
 H306 H 0.28979 0.75017 0.61650
 H307 H 0.32749 0.75158 0.73449
 H308 H 0.36619 0.75254 0.69726
 C309 C 0.04684 0.71937 0.09203
 C310 C 0.06790 0.71901 0.11615
 C311 C 0.08748 0.73235 0.10400
 C312 C 0.08556 0.74677 0.06804
 C313 C 0.06434 0.74762 0.04440
 C314 C 0.04476 0.73343 0.05524
 N315 N 0.10901 0.73123 0.12879
 N316 N 0.12915 0.73733 0.11403
 C317 C 0.15072 0.73695 0.13868
 C318 C 0.17304 0.73748 0.11845
 C319 C 0.19445 0.73735 0.14154
 C320 C 0.19377 0.73729 0.18539
 C321 C 0.17132 0.73698 0.20572
 C322 C 0.14993 0.73655 0.18253
 H323 H 0.03258 0.70785 0.10159
 H324 H 0.06916 0.70787 0.14393
 H325 H 0.10027 0.75779 0.05872
 H326 H 0.06311 0.76008 0.01840
 H327 H 0.17383 0.73789 0.08468
 H328 H 0.21150 0.73780 0.12510
 H329 H 0.17034 0.73692 0.23948
 H330 H 0.13281 0.73632 0.19878
 C331 C 0.55235 0.20864 0.57509
 C332 C 0.57376 0.20916 0.59822
 C333 C 0.58555 0.23083 0.60309
 C334 C 0.57590 0.25199 0.58386
 C335 C 0.55484 0.25134 0.55982
 C336 C 0.54294 0.22966 0.55536
 N337 N 0.60756 0.23080 0.62664
 N338 N 0.61529 0.25006 0.64254
 C339 C 0.63788 0.25029 0.66437
 C340 C 0.64231 0.26963 0.69104
 C341 C 0.66454 0.27078 0.71159
 C342 C 0.68295 0.25287 0.70478
 C343 C 0.67847 0.23346 0.67799
 C344 C 0.65603 0.23203 0.65830
 H345 H 0.54333 0.19178 0.57191
 H346 H 0.58108 0.19272 0.61271
 H347 H 0.58486 0.26888 0.58686
 H348 H 0.54774 0.26771 0.54480
 H349 H 0.62850 0.28388 0.69582
 H350 H 0.66760 0.28602 0.73180
 H351 H 0.69236 0.21942 0.67225
 H352 H 0.65308 0.21701 0.63754
 C353 C 0.71745 0.05560 0.92016
 C354 C 0.71808 0.07621 0.89505
 C355 C 0.73392 0.09440 0.90442
 C356 C 0.74982 0.09141 0.93844
 C357 C 0.74966 0.07051 0.96290
 C358 C 0.73306 0.05265 0.95462
 N359 N 0.73360 0.11570 0.87905
 N360 N 0.74179 0.13534 0.89247
 C361 C 0.74204 0.15668 0.86728
 C362 C 0.74429 0.17903 0.88688
 C363 C 0.74454 0.20023 0.86330
 C364 C 0.74320 0.19930 0.81953
 C365 C 0.74128 0.17680 0.79979
 C366 C 0.74041 0.15563 0.82353
 H367 H 0.70459 0.04204 0.91295
 H368 H 0.70584 0.07827 0.86877
 H369 H 0.76253 0.10507 0.94578
 H370 H 0.76243 0.06835 0.98840
 H371 H 0.74565 0.18002 0.92056
 H372 H 0.74625 0.21733 0.87926
 H373 H 0.74022 0.17563 0.76609
 H374 H 0.73885 0.13848 0.80776
 C375 C 0.20935 0.55566 0.46202
 C376 C 0.20934 0.57755 0.44015
 C377 C 0.22732 0.58163 0.41061
 C378 C 0.24534 0.56344 0.40297
 C379 C 0.24552 0.54168 0.42512
 C380 C 0.22770 0.53767 0.45519
 N381 N 0.22729 0.60452 0.38962
 N382 N 0.24180 0.60848 0.35985
 C383 C 0.24253 0.63153 0.33959
 C384 C 0.25736 0.63380 0.30460
 C385 C 0.25920 0.65620 0.28495
 C386 C 0.24637 0.67685 0.30033
 C387 C 0.23133 0.67448 0.33533
 C388 C 0.22935 0.65200 0.35471
 H389 H 0.19521 0.55285 0.48459
 H390 H 0.19533 0.59140 0.44629
 H391 H 0.25950 0.56617 0.38041
 H392 H 0.25987 0.52811 0.41935
 H393 H 0.26766 0.61816 0.29272
 H394 H 0.27099 0.65743 0.25816
 H395 H 0.22118 0.69002 0.34790
 H396 H 0.21782 0.65073 0.38182
 C397 C 0.24817 0.92980 0.97018
 C398 C 0.24480 0.90811 0.94909
 C399 C 0.25736 0.90278 0.91212
 C400 C 0.27351 0.91937 0.89640
 C401 C 0.27732 0.94081 0.91799
 C402 C 0.26487 0.94611 0.95532
 N403 N 0.25382 0.88025 0.89159
 N404 N 0.25993 0.87663 0.85374
 C405 C 0.25712 0.85382 0.83370
 C406 C 0.25706 0.85274 0.79007
 C407 C 0.25410 0.83076 0.76964
 C408 C 0.25186 0.80938 0.79269
 C409 C 0.25242 0.81041 0.83650
 C410 C 0.25477 0.83251 0.85689
 H411 H 0.23793 0.93373 0.99834
 H412 H 0.23223 0.89551 0.96140
 H413 H 0.28352 0.91554 0.86797
 H414 H 0.29028 0.95309 0.90592
 H415 H 0.25898 0.86904 0.77190
 H416 H 0.25386 0.83041 0.73584
 H417 H 0.25064 0.79419 0.85496
 H418 H 0.25500 0.83291 0.89068
 C419 C 0.79787 0.45469 0.43432
 C420 C 0.79700 0.43317 0.41161
 C421 C 0.77504 0.42200 0.40621
 C422 C 0.75385 0.43257 0.42391
 C423 C 0.75483 0.45377 0.44749
 C424 C 0.77687 0.46484 0.45299
 N425 N 0.77481 0.39952 0.38411
 N426 N 0.75547 0.39173 0.36864
 C427 C 0.75499 0.36870 0.34839
 C428 C 0.73611 0.36427 0.32076
 C429 C 0.73495 0.34179 0.30111
 C430 C 0.75231 0.32314 0.30986
 C431 C 0.77111 0.32751 0.33797
 C432 C 0.77261 0.35021 0.35673
 H433 H 0.81502 0.46305 0.43845
 H434 H 0.81344 0.42514 0.39825
 H435 H 0.73673 0.42412 0.42045
 H436 H 0.73850 0.46140 0.46186
 H437 H 0.72235 0.37833 0.31429
 H438 H 0.72019 0.33881 0.27978
 H439 H 0.78473 0.31343 0.34514
 H440 H 0.78723 0.35318 0.37833
 C441 C 0.06116 0.27687 0.97378
 C442 C 0.08278 0.27570 0.95128
 C443 C 0.08507 0.26157 0.91526
 C444 C 0.06532 0.24862 0.90168
 C445 C 0.04369 0.24966 0.92424
 C446 C 0.04131 0.26350 0.96120
 N447 N 0.10759 0.26068 0.89318
 N448 N 0.11050 0.24923 0.85895
 C449 C 0.13311 0.24803 0.83716
 C450 C 0.13464 0.23593 0.79886
 C451 C 0.15652 0.23397 0.77713
 C452 C 0.17737 0.24405 0.79353
 C453 C 0.17575 0.25635 0.83193
 C454 C 0.15381 0.25837 0.85354
 H455 H 0.05979 0.28911 1.00004
 H456 H 0.09774 0.28611 0.96169
 H457 H 0.06665 0.23753 0.87388
 H458 H 0.02912 0.23887 0.91341
 H459 H 0.11882 0.22788 0.78592
 H460 H 0.15714 0.22434 0.74769
 H461 H 0.19147 0.26431 0.84541
 H462 H 0.15310 0.26780 0.88315
 C463 C 0.55812 0.73732 0.45942
 C464 C 0.57879 0.73521 0.43445
 C465 C 0.58588 0.75490 0.41075
 C466 C 0.57176 0.77669 0.41157
 C467 C 0.55078 0.77863 0.43581
 C468 C 0.54402 0.75904 0.46024
 N469 N 0.60752 0.75242 0.38642
 N470 N 0.61832 0.77077 0.37345
 C471 C 0.63993 0.76845 0.34907
 C472 C 0.65545 0.78766 0.34841
 C473 C 0.67738 0.78547 0.32699
 C474 C 0.68376 0.76426 0.30476
 C475 C 0.66776 0.74532 0.30401
 C476 C 0.64610 0.74726 0.32651
 H477 H 0.55300 0.72199 0.47791
 H478 H 0.58951 0.71834 0.43402
 H479 H 0.57682 0.79209 0.39326
 H480 H 0.53999 0.79547 0.43603
 H481 H 0.65082 0.80409 0.36556
 H482 H 0.68940 0.80036 0.32781
 H483 H 0.67238 0.72876 0.28719
 H484 H 0.63422 0.73227 0.32635
 C485 C 0.93817 0.75899 0.97790
 C486 C 0.91676 0.76280 0.95533
 C487 C 0.91421 0.75240 0.91598
 C488 C 0.93342 0.73816 0.89910
 C489 C 0.95469 0.73390 0.92196
 C490 C 0.95728 0.74383 0.96226
 N491 N 0.89171 0.75590 0.89442
 N492 N 0.88955 0.75142 0.85568
 C493 C 0.86663 0.75394 0.83513
 C494 C 0.86581 0.75536 0.79153
 C495 C 0.84359 0.75770 0.77079
 C496 C 0.82187 0.75802 0.79348
 C497 C 0.82275 0.75627 0.83719
 C498 C 0.84495 0.75447 0.85790
 H499 H 0.93984 0.76843 1.00725
 H500 H 0.90216 0.77412 0.96837
 H501 H 0.93174 0.72979 0.86875
 H502 H 0.96863 0.72190 0.90864
 H503 H 0.88242 0.75484 0.77368
 H504 H 0.84336 0.75891 0.73704
 H505 H 0.80627 0.75657 0.85540
 H506 H 0.84516 0.75318 0.89162
 C507 C 0.43530 0.25171 0.47218
 C508 C 0.41336 0.25306 0.45049
 C509 C 0.40975 0.23809 0.41607
 C510 C 0.42846 0.22169 0.40336
 C511 C 0.45022 0.21990 0.42569
 C512 C 0.45371 0.23463 0.46074
 N513 N 0.38675 0.23940 0.39542
 N514 N 0.38377 0.23116 0.35876
 C515 C 0.36045 0.23192 0.33922
 C516 C 0.35889 0.23115 0.29561
 C517 C 0.33633 0.23262 0.27577
 C518 C 0.31495 0.23409 0.29940
 C519 C 0.31654 0.23411 0.34318
 C520 C 0.33910 0.23333 0.36295
 H521 H 0.43776 0.26374 0.49834
 H522 H 0.39914 0.26587 0.46045
 H523 H 0.42602 0.20987 0.37692
 H524 H 0.46414 0.20665 0.41614
 H525 H 0.37520 0.22994 0.27698
 H526 H 0.33558 0.23250 0.24198
 H527 H 0.30032 0.23537 0.36210
 H528 H 0.33988 0.23370 0.39671
 C529 C 0.75597 0.94647 0.97152
 C530 C 0.75907 0.92473 0.94951
 C531 C 0.74423 0.91998 0.91537
 C532 C 0.72602 0.93717 0.90358
 C533 C 0.72250 0.95864 0.92623
 C534 C 0.73729 0.96341 0.96068
 N535 N 0.74762 0.89743 0.89377
 N536 N 0.73974 0.89441 0.85688
 C537 C 0.74243 0.87153 0.83611
 C538 C 0.74137 0.87072 0.79246
 C539 C 0.74434 0.84862 0.77142
 C540 C 0.74767 0.82693 0.79392
 C541 C 0.74814 0.82774 0.83776
 C542 C 0.74582 0.84988 0.85869
 H543 H 0.76798 0.94996 0.99731
 H544 H 0.77322 0.91165 0.95880
 H545 H 0.71424 0.93379 0.87743
 H546 H 0.70803 0.97143 0.91716
 H547 H 0.73863 0.88729 0.77474
 H548 H 0.74383 0.84845 0.73762
 H549 H 0.75080 0.81127 0.85580
 H550 H 0.74646 0.85008 0.89247
 C551 C 0.25366 0.44506 0.42478
 C552 C 0.25641 0.42403 0.40082
 C553 C 0.24005 0.40566 0.40486
 C554 C 0.22063 0.40865 0.43289
 C555 C 0.21773 0.42979 0.45655
 C556 C 0.23439 0.44805 0.45304
 N557 N 0.24346 0.38432 0.37994
 N558 N 0.23076 0.36597 0.38491
 C559 C 0.23412 0.34476 0.35964
 C560 C 0.22181 0.32411 0.37007
 C561 C 0.22501 0.30299 0.34641
 C562 C 0.24042 0.30232 0.31153
 C563 C 0.25252 0.32320 0.30081
 C564 C 0.24950 0.34422 0.32476
 H565 H 0.26666 0.45897 0.42148
 H566 H 0.27139 0.42195 0.37922
 H567 H 0.20760 0.39480 0.43621
 H568 H 0.20237 0.43201 0.47727
 H569 H 0.20987 0.32434 0.39684
 H570 H 0.21537 0.28722 0.35536
 H571 H 0.26455 0.32323 0.27418
 H572 H 0.25914 0.36000 0.31598
 C573 C 0.28905 0.05185 0.95991
 C574 C 0.28881 0.07320 0.93652
 C575 C 0.27202 0.07720 0.90436
 C576 C 0.25570 0.05927 0.89511
 C577 C 0.25577 0.03800 0.91859
 C578 C 0.27203 0.03415 0.95220
 N579 N 0.27130 0.09984 0.88255
 N580 N 0.25733 0.10398 0.85152
 C581 C 0.25573 0.12686 0.83053
 C582 C 0.24143 0.12933 0.79461
 C583 C 0.23869 0.15162 0.77421
 C584 C 0.25008 0.17196 0.78971
 C585 C 0.26458 0.16940 0.82568
 C586 C 0.26746 0.14702 0.84586
 H587 H 0.30264 0.04921 0.98401
 H588 H 0.30168 0.08676 0.94366
 H589 H 0.24248 0.06195 0.87042
 H590 H 0.24215 0.02516 0.91167
 H591 H 0.23224 0.11394 0.78258
 H592 H 0.22736 0.15298 0.74665
 H593 H 0.27363 0.18470 0.83835
 H594 H 0.27854 0.14559 0.87369
 C595 C 0.75428 0.57082 0.47610
 C596 C 0.75144 0.59338 0.45673
 C597 C 0.76645 0.59933 0.42359
 C598 C 0.78459 0.58250 0.41012
 C599 C 0.78783 0.56013 0.43015
 C600 C 0.77285 0.55418 0.46361
 N601 N 0.76288 0.62249 0.40411
 N602 N 0.77133 0.62681 0.36811
 C603 C 0.76797 0.65003 0.34881
 C604 C 0.77022 0.65176 0.30547
 C605 C 0.76609 0.67399 0.28545
 C606 C 0.76033 0.69498 0.30874
 C607 C 0.75881 0.69339 0.35240
 C608 C 0.76231 0.67099 0.37231
 H609 H 0.74206 0.56642 0.50104
 H610 H 0.73728 0.60613 0.46715
 H611 H 0.79645 0.58677 0.38459
 H612 H 0.80220 0.54758 0.41988
 H613 H 0.77468 0.63574 0.28710
 H614 H 0.76754 0.67481 0.25177
 H615 H 0.75434 0.70934 0.37096
 H616 H 0.76070 0.67005 0.40594
 C617 C 0.06218 0.71383 0.96566
 C618 C 0.08332 0.71229 0.94175
 C619 C 0.08786 0.73014 0.91216
 C620 C 0.07098 0.74965 0.90671
 C621 C 0.05002 0.75135 0.93088
 C622 C 0.04551 0.73357 0.96081
 N623 N 0.10990 0.72844 0.88878
 N624 N 0.11376 0.74268 0.85857
 C625 C 0.13604 0.74183 0.83590
 C626 C 0.13809 0.75658 0.80074
 C627 C 0.15991 0.75700 0.77892
 C628 C 0.18017 0.74280 0.79231
 C629 C 0.17798 0.72779 0.82742
 C630 C 0.15608 0.72723 0.84896
 H631 H 0.05891 0.69976 0.98818
 H632 H 0.09619 0.69717 0.94623
 H633 H 0.07413 0.76375 0.88421
 H634 H 0.03745 0.76676 0.92668
 H635 H 0.12277 0.76796 0.79046
 H636 H 0.16104 0.76879 0.75209
 H637 H 0.19324 0.71659 0.83844
 H638 H 0.15495 0.71573 0.87616
 C639 C 0.56197 0.21358 0.46799
 C640 C 0.58392 0.21462 0.44679
 C641 C 0.58789 0.23360 0.41917
 C642 C 0.56950 0.25163 0.41281
 C643 C 0.54760 0.25076 0.43441
 C644 C 0.54376 0.23186 0.46257
 N645 N 0.61082 0.23430 0.39865
 N646 N 0.61491 0.24941 0.36985
 C647 C 0.63811 0.25028 0.35024
 C648 C 0.64063 0.26502 0.31517
 C649 C 0.66308 0.26644 0.29558
 C650 C 0.68352 0.25334 0.31119
 C651 C 0.68096 0.23861 0.34653
 C652 C 0.65844 0.23698 0.36577
 H653 H 0.55920 0.19849 0.48864
 H654 H 0.59789 0.20055 0.45177
 H655 H 0.57216 0.26652 0.39165
 H656 H 0.53379 0.26501 0.42967
 H657 H 0.62512 0.27540 0.30297
 H658 H 0.66448 0.27803 0.26854
 H659 H 0.69635 0.22827 0.35925
 H660 H 0.65699 0.22554 0.39297
 C661 C 0.93509 0.28901 0.96992
 C662 C 0.91352 0.29171 0.94736
 C663 C 0.91002 0.27803 0.91138
 C664 C 0.92883 0.26224 0.89711
 C665 C 0.95043 0.25947 0.91964
 C666 C 0.95358 0.27213 0.95736
 N667 N 0.88687 0.27960 0.89121
 N668 N 0.88247 0.26755 0.85846
 C669 C 0.85903 0.26810 0.83937
 C670 C 0.85587 0.25498 0.80261
 C671 C 0.83299 0.25396 0.78438
 C672 C 0.81276 0.26600 0.80283
 C673 C 0.81605 0.27948 0.83946
 C674 C 0.83899 0.28056 0.85757
 H675 H 0.93719 0.30003 0.99750
 H676 H 0.89928 0.30419 0.95840
 H677 H 0.92659 0.25150 0.86924
 H678 H 0.96403 0.24624 0.90875
 H679 H 0.87115 0.24524 0.78837
 H680 H 0.83111 0.24341 0.75620
 H681 H 0.80086 0.28899 0.85441
 H682 H 0.84096 0.29078 0.88609
 C683 C 0.43639 0.78156 0.47461
 C684 C 0.41423 0.78161 0.45356
 C685 C 0.41033 0.76449 0.42238
 C686 C 0.42896 0.74738 0.41216
 C687 C 0.45097 0.74719 0.43339
 C688 C 0.45478 0.76407 0.46512
 N689 N 0.38730 0.76446 0.40199
 N690 N 0.38362 0.75031 0.37158
 C691 C 0.36076 0.74933 0.35097
 C692 C 0.35920 0.73497 0.31529
 C693 C 0.33723 0.73330 0.29439
 C694 C 0.31628 0.74584 0.30918
 C695 C 0.31784 0.76017 0.34527
 C696 C 0.33995 0.76199 0.36595
 H697 H 0.43908 0.79493 0.49866
 H698 H 0.40005 0.79492 0.46164
 H699 H 0.42640 0.73393 0.38824
 H700 H 0.46488 0.73351 0.42566
 H701 H 0.37512 0.72506 0.30360
 H702 H 0.33663 0.72205 0.26678
 H703 H 0.30202 0.77008 0.35734
 H704 H 0.34075 0.77313 0.39366
 C705 C 0.29391 0.92669 0.03329
 C706 C 0.29472 0.90462 0.05466
 C707 C 0.27978 0.90132 0.08923
 C708 C 0.26429 0.92059 0.10280
 C709 C 0.26336 0.94259 0.08134
 C710 C 0.27785 0.94569 0.04598
 N711 N 0.28000 0.87808 0.10904
 N712 N 0.26724 0.87423 0.14118
 C713 C 0.26656 0.85092 0.16047
 C714 C 0.25289 0.84853 0.19679
 C715 C 0.25098 0.82592 0.21559
 C716 C 0.26266 0.80518 0.19815
 C717 C 0.27660 0.80767 0.16183
 C718 C 0.27857 0.83035 0.14317
 H719 H 0.30542 0.92880 0.00636
 H720 H 0.30677 0.88994 0.04393
 H721 H 0.25254 0.91851 0.12942
 H722 H 0.25082 0.95698 0.09159
 H723 H 0.24350 0.86424 0.21034
 H724 H 0.24009 0.82465 0.24349
 H725 H 0.28584 0.79207 0.14766
 H726 H 0.28920 0.83173 0.11500
 C727 C 0.79540 0.44250 0.53801
 C728 C 0.79394 0.41997 0.55736
 C729 C 0.77489 0.41566 0.58462
 C730 C 0.75722 0.43420 0.59238
 C731 C 0.75854 0.45661 0.57273
 C732 C 0.77752 0.46088 0.54512
 N733 N 0.77383 0.39245 0.60414
 N734 N 0.75836 0.38851 0.63236
 C735 C 0.75672 0.36551 0.65227
 C736 C 0.74146 0.36381 0.68673
 C737 C 0.73958 0.34183 0.70750
 C738 C 0.75275 0.32100 0.69373
 C739 C 0.76781 0.32262 0.65863
 C740 C 0.76991 0.34478 0.63815
 H741 H 0.81052 0.44561 0.51763
 H742 H 0.80775 0.40590 0.55136
 H743 H 0.74229 0.43133 0.61331
 H744 H 0.74459 0.47057 0.57864
 H745 H 0.73116 0.37966 0.69776
 H746 H 0.72771 0.34113 0.73429
 H747 H 0.77819 0.30688 0.64738
 H748 H 0.78174 0.34568 0.61138
 C749 C 0.71214 0.07310 0.03929
 C750 C 0.71141 0.09517 0.06068
 C751 C 0.72827 0.09942 0.09215
 C752 C 0.74592 0.08125 0.10215
 C753 C 0.74681 0.05930 0.08052
 C754 C 0.73009 0.05510 0.04862
 N755 N 0.72741 0.12239 0.11291
 N756 N 0.74080 0.12651 0.14421
 C757 C 0.74062 0.14960 0.16447
 C758 C 0.75421 0.15207 0.20095
 C759 C 0.75503 0.17449 0.22090
 C760 C 0.74240 0.19496 0.20434
 C761 C 0.72865 0.19239 0.16777
 C762 C 0.72769 0.16990 0.14807
 H763 H 0.69882 0.07012 0.01529
 H764 H 0.69769 0.10900 0.05273
 H765 H 0.75920 0.08410 0.12627
 H766 H 0.76081 0.04570 0.08825
 H767 H 0.76430 0.13657 0.21384
 H768 H 0.76583 0.17587 0.24892
 H769 H 0.71869 0.20779 0.15426
 H770 H 0.71711 0.16847 0.11981
 C771 C 0.21079 0.54011 0.58228
 C772 C 0.21066 0.56119 0.60638
 C773 C 0.22677 0.57922 0.59752
 C774 C 0.24371 0.57559 0.56527
 C775 C 0.24431 0.55426 0.54197
 C776 C 0.22743 0.53658 0.54947
 N777 N 0.22579 0.60101 0.62161
 N778 N 0.23352 0.62055 0.60689
 C779 C 0.23357 0.64241 0.63065
 C780 C 0.23497 0.66440 0.60951
 C781 C 0.23561 0.68607 0.63170
 C782 C 0.23556 0.68596 0.67555
 C783 C 0.23433 0.66386 0.69683
 C784 C 0.23304 0.64222 0.67451
 H785 H 0.19772 0.52667 0.58893
 H786 H 0.19764 0.56372 0.63137
 H787 H 0.25666 0.58911 0.55848
 H788 H 0.25790 0.55163 0.51792
 H789 H 0.23551 0.66472 0.57572
 H790 H 0.23679 0.70285 0.61459
 H791 H 0.23429 0.66335 0.73063
 H792 H 0.23218 0.62534 0.69143
 C793 C 0.93930 0.71622 0.04241
 C794 C 0.91713 0.71550 0.06311
 C795 C 0.91169 0.73136 0.09617
 C796 C 0.92900 0.74759 0.10915
 C797 C 0.95109 0.74842 0.08834
 C798 C 0.95619 0.73314 0.05418
 N799 N 0.88820 0.73139 0.11489
 N800 N 0.88255 0.74502 0.14568
 C801 C 0.85892 0.74605 0.16386
 C802 C 0.85484 0.76016 0.19956
 C803 C 0.83189 0.76222 0.21755
 C804 C 0.81248 0.75030 0.19981
 C805 C 0.81661 0.73608 0.16391
 C806 C 0.83968 0.73390 0.14611
 H807 H 0.94303 0.70408 0.01645
 H808 H 0.90399 0.70287 0.05291
 H809 H 0.92524 0.76002 0.13467
 H810 H 0.96386 0.76159 0.09793
 H811 H 0.86951 0.76968 0.21339
 H812 H 0.82931 0.77335 0.24514
 H813 H 0.80205 0.72664 0.14959
 H814 H 0.84240 0.72297 0.11834
 C815 C 0.44970 0.24442 0.58759
 C816 C 0.42803 0.24464 0.60982
 C817 C 0.40999 0.22893 0.59899
 C818 C 0.41411 0.21238 0.56617
 C819 C 0.43596 0.21193 0.54418
 C820 C 0.45375 0.22830 0.55419
 N821 N 0.38763 0.23055 0.62142
 N822 N 0.36930 0.21894 0.61077
 C823 C 0.34705 0.22120 0.63358
 C824 C 0.32664 0.21020 0.61803
 C825 C 0.30449 0.21281 0.63894
 C826 C 0.30249 0.22634 0.67605
 C827 C 0.32313 0.23706 0.69189
 C828 C 0.34517 0.23459 0.67081
 H829 H 0.46313 0.25720 0.59588
 H830 H 0.42507 0.25743 0.63510
 H831 H 0.40047 0.19992 0.55747
 H832 H 0.43885 0.19908 0.51898
 H833 H 0.32785 0.19983 0.58938
 H834 H 0.28895 0.20427 0.62600
 H835 H 0.32220 0.24761 0.72036
 H836 H 0.36069 0.24323 0.68356
 C837 C 0.05313 0.23825 0.05225
 C838 C 0.07433 0.23408 0.07541
 C839 C 0.08330 0.25242 0.10030
 C840 C 0.07023 0.27477 0.10325
 C841 C 0.04864 0.27873 0.08097
 C842 C 0.04032 0.26071 0.05446
 N843 N 0.10585 0.24809 0.12160
 N844 N 0.11880 0.26533 0.13291
 C845 C 0.14139 0.26111 0.15417
 C846 C 0.15838 0.27903 0.15318
 C847 C 0.18097 0.27512 0.17217
 C848 C 0.18664 0.25343 0.19359
 C849 C 0.16932 0.23571 0.19559
 C850 C 0.14695 0.23938 0.17557
 H851 H 0.04680 0.22407 0.03226
 H852 H 0.08417 0.21676 0.07306
 H853 H 0.07671 0.28910 0.12269
 H854 H 0.03887 0.29610 0.08322
 H855 H 0.15427 0.29588 0.13688
 H856 H 0.19395 0.28913 0.17042
 H857 H 0.17329 0.21882 0.21185
 H858 H 0.13400 0.22535 0.17697
 C859 C 0.55140 0.74164 0.58347
 C860 C 0.57318 0.74137 0.60562
 C861 C 0.59008 0.75882 0.59775
 C862 C 0.58492 0.77677 0.56758
 C863 C 0.56308 0.77718 0.54570
 C864 C 0.54623 0.75948 0.55317
 N865 N 0.61223 0.75801 0.62091
 N866 N 0.62915 0.77207 0.61286
 C867 C 0.65125 0.77133 0.63612
 C868 C 0.67028 0.78502 0.62229
 C869 C 0.69233 0.78419 0.64364
 C870 C 0.69556 0.76981 0.67958
 C871 C 0.67625 0.75644 0.69387
 C872 C 0.65430 0.75710 0.67223
 H873 H 0.53864 0.72786 0.58981
 H874 H 0.57695 0.72748 0.62885
 H875 H 0.59762 0.79058 0.56120
 H876 H 0.55922 0.79146 0.52322
 H877 H 0.66810 0.79610 0.59456
 H878 H 0.70684 0.79474 0.63194
 H879 H 0.67821 0.74515 0.72139
 H880 H 0.63979 0.74645 0.68364
   
