data_POSCAR
  _audit_creation_date              2014-09-24
  _audit_creation_method            'ToBaCCo'
  _symmetry_space_group_name_H-M    'P1'
  _symmetry_Int_Tables_number       1
  _symmetry_cell_setting            triclinic
  loop_
  _symmetry_equiv_pos_as_xyz
 x,y,z
_cell_length_a 23.1193
_cell_length_b 23.1196
_cell_length_c 23.1199
_cell_angle_alpha 90.258300
_cell_angle_beta 89.999900
_cell_angle_gamma 89.996700
loop_
  _atom_site_label
  _atom_site_type_symbol
  _atom_site_fract_x
  _atom_site_fract_y
  _atom_site_fract_z
C1 C 0.50040 1.00037 -0.65710
 C2 C 0.44859 1.00768 -0.62691
 C3 C 0.44873 1.00923 -0.56631
 C4 C 0.50039 1.00007 -0.53474
 C5 C 0.55205 0.99107 -0.56643
 C6 C 0.55220 0.99290 -0.62701
 C7 C 0.50039 0.99991 -0.46956
 C8 C 0.55201 1.00912 -0.43785
 C9 C 0.55210 1.00732 -0.37731
 C10 C 0.50040 0.99962 -0.34727
 C11 C 0.44869 0.99207 -0.37741
 C12 C 0.44877 0.99056 -0.43797
 H13 H 0.50040 1.00047 -0.70408
 H14 H 0.40827 1.01791 -0.54454
 H15 H 0.59251 0.98227 -0.54478
 H16 H 0.59252 1.01805 -0.45930
 H17 H 0.50040 0.99952 -0.30033
 H18 H 0.40826 0.98175 -0.45954
 C19 C -0.65708 1.49989 0.00036
 C20 C -0.62691 1.44815 0.00785
 C21 C -0.56631 1.44835 0.00954
 C22 C -0.53472 1.49997 0.00037
 C23 C -0.56639 1.55155 -0.00881
 C24 C -0.62698 1.55167 -0.00713
 C25 C -0.46954 1.50002 0.00037
 C26 C -0.43793 1.55172 0.00955
 C27 C -0.37738 1.55183 0.00790
 C28 C -0.34724 1.50010 0.00037
 C29 C -0.37730 1.44832 -0.00716
 C30 C -0.43785 1.44836 -0.00882
 H31 H -0.70407 1.49986 0.00036
 H32 H -0.54458 1.40796 0.01836
 H33 H -0.54471 1.59197 -0.01763
 H34 H -0.45947 1.59227 0.01834
 H35 H -0.30031 1.50013 0.00036
 H36 H -0.45933 1.40778 -0.01761
 C37 C 0.00032 0.34507 0.49996
 C38 C 0.00782 0.37507 0.44824
 C39 C 0.00948 0.43568 0.44852
 C40 C 0.00028 0.46740 0.50026
 C41 C -0.00888 0.43585 0.55180
 C42 C -0.00719 0.37531 0.55175
 C43 C 0.00024 0.53258 0.50046
 C44 C 0.00940 0.56432 0.55219
 C45 C 0.00767 0.62492 0.55248
 C46 C 0.00014 0.65491 0.50076
 C47 C -0.00734 0.62467 0.44897
 C48 C -0.00896 0.56413 0.44891
 H49 H 0.00032 0.29812 0.50002
 H50 H 0.01828 0.45730 0.40813
 H51 H -0.01768 0.45744 0.59238
 H52 H 0.01823 0.54271 0.59259
 H53 H 0.00008 0.70187 0.50070
 H54 H -0.01773 0.54253 0.40833
 O55 O -0.14835 1.00231 -0.07789
 O56 O 0.14920 0.99731 -0.07791
 O57 O -0.00192 1.07784 -0.14826
 O58 O 0.00275 0.92141 -0.14858
 O59 O 0.00269 0.85077 -0.07826
 O60 O -0.00191 1.14883 -0.07764
 O61 O 0.07869 0.99719 -0.14868
 O62 O -0.07785 1.00209 -0.14867
 Zr63 Zr 0.00042 0.99974 -0.10146
 O64 O 0.05276 0.94744 -0.05212
 O65 O -0.05192 1.05228 -0.05191
 C66 C -0.13113 1.00357 -0.13122
 C67 C 0.13198 0.99580 -0.13124
 C68 C -0.00330 1.13122 -0.13096
 C69 C 0.00410 0.86811 -0.13150
 H70 H 0.07748 1.07678 -0.07652
 O71 O 0.05278 1.05217 -0.05187
 H72 H -0.07668 0.92282 -0.07684
 O73 O -0.05196 0.94756 -0.05210
 O74 O 0.14924 1.00245 0.07853
 O75 O -0.14838 0.99791 0.07852
 O76 O 0.07868 1.14875 0.00302
 O77 O 0.07849 0.85113 -0.00229
 O78 O -0.07794 0.85128 0.00247
 O79 O -0.07775 1.14882 -0.00174
 O80 O 0.00284 1.07857 0.14932
 O81 O -0.00201 0.92215 0.14900
 O82 O 0.00288 1.14921 0.07899
 O83 O -0.00209 0.85117 0.07837
 O84 O 0.14949 1.07826 0.00287
 O85 O -0.14857 1.07836 -0.00191
 O86 O -0.14867 0.92184 0.00259
 O87 O 0.14938 0.92152 -0.00219
 O88 O 0.07879 1.00269 0.14937
 O89 O -0.07794 0.99801 0.14937
 Zr90 Zr 0.10227 0.99992 0.00034
 Zr91 Zr -0.10141 1.00007 0.00034
 Zr92 Zr 0.00046 1.10183 0.00058
 Zr93 Zr 0.00033 0.89816 0.00015
 Zr94 Zr 0.00042 1.00025 0.10221
 O95 O -0.05199 0.94780 0.05263
 O96 O 0.05283 1.05246 0.05283
 C97 C 0.13208 1.00398 0.13188
 C98 C -0.13123 0.99662 0.13186
 C99 C 0.13201 1.13156 0.00436
 C100 C 0.13184 0.86824 -0.00365
 C101 C -0.13126 0.86854 0.00391
 C102 C -0.13108 1.13163 -0.00320
 C103 C 0.00426 1.13186 0.13224
 C104 C -0.00346 0.86877 0.13170
 H105 H -0.07658 1.07727 0.07754
 O106 O -0.05189 1.05249 0.05281
 H107 H 0.07739 0.92310 0.07722
 O108 O 0.05271 0.94776 0.05258
 C109 C 0.39798 1.01137 0.34307
 C110 C 0.35409 1.01287 0.31494
 C111 C 0.30400 1.01282 0.28003
 C112 C 0.26245 1.01163 0.24857
 C113 C 0.21531 1.00928 0.20982
 C114 C 0.17648 1.00688 0.17511
 C115 C -0.39718 0.98931 0.34293
 C116 C -0.35330 0.98787 0.31479
 C117 C -0.30320 0.98798 0.27990
 C118 C -0.26163 0.98919 0.24847
 C119 C -0.21448 0.99150 0.20975
 C120 C -0.17563 0.99384 0.17507
 C121 C -0.39458 1.01134 -0.34537
 C122 C -0.35106 1.01276 -0.31671
 C123 C -0.30150 1.01259 -0.28107
 C124 C -0.26045 1.01131 -0.24899
 C125 C -0.21387 1.00889 -0.20962
 C126 C -0.17538 1.00646 -0.17456
 C127 C 0.39537 0.98795 -0.34552
 C128 C 0.35185 0.98647 -0.31687
 C129 C 0.30231 0.98658 -0.28121
 C130 C 0.26126 0.98785 -0.24910
 C131 C 0.21470 0.99030 -0.20970
 C132 C 0.17622 0.99279 -0.17461
 C133 C 0.34309 1.39754 0.01158
 C134 C 0.31498 1.35365 0.01312
 C135 C 0.28011 1.30353 0.01311
 C136 C 0.24869 1.26195 0.01194
 C137 C 0.20996 1.21479 0.00963
 C138 C 0.17526 1.17595 0.00725
 C139 C 0.34295 0.60224 -0.01086
 C140 C 0.31479 0.64610 -0.01240
 C141 C 0.27988 0.69620 -0.01239
 C142 C 0.24844 0.73777 -0.01123
 C143 C 0.20972 0.78493 -0.00892
 C144 C 0.17504 0.82380 -0.00654
 C145 C -0.34550 0.60520 0.01187
 C146 C -0.31686 0.64874 0.01325
 C147 C -0.28122 0.69829 0.01304
 C148 C -0.24913 0.73933 0.01172
 C149 C -0.20973 0.78588 0.00927
 C150 C -0.17464 0.82434 0.00681
 C151 C -0.34535 1.39500 -0.01114
 C152 C -0.31666 1.35149 -0.01252
 C153 C -0.28099 1.30196 -0.01232
 C154 C -0.24888 1.26093 -0.01100
 C155 C -0.20949 1.21438 -0.00855
 C156 C -0.17442 1.17589 -0.00609
 C157 C 0.01157 1.34486 0.39761
 C158 C 0.01311 1.31645 0.35378
 C159 C 0.01307 1.28115 0.30382
 C160 C 0.01189 1.24934 0.26240
 C161 C 0.00955 1.21022 0.21542
 C162 C 0.00715 1.17526 0.17666
 C163 C -0.01115 1.34358 -0.39494
 C164 C -0.01253 1.31520 -0.35136
 C165 C -0.01235 1.27995 -0.30168
 C166 C -0.01106 1.24822 -0.26049
 C167 C -0.00864 1.20922 -0.21376
 C168 C -0.00620 1.17441 -0.17519
 C169 C 0.01140 0.65514 -0.39690
 C170 C 0.01292 0.68354 -0.35306
 C171 C 0.01287 0.71884 -0.30310
 C172 C 0.01168 0.75065 -0.26167
 C173 C 0.00934 0.78977 -0.21469
 C174 C 0.00696 0.82472 -0.17593
 C175 C -0.01132 0.65640 0.39566
 C176 C -0.01272 0.68478 0.35208
 C177 C -0.01255 0.72003 0.30240
 C178 C -0.01127 0.75176 0.26121
 C179 C -0.00884 0.79077 0.21449
 C180 C -0.00638 0.82558 0.17592
   
