data_POSCAR
  _audit_creation_date              2014-09-24
  _audit_creation_method            'ToBaCCo'
  _symmetry_space_group_name_H-M    'P1'
  _symmetry_Int_Tables_number       1
  _symmetry_cell_setting            triclinic
  loop_
  _symmetry_equiv_pos_as_xyz
 x,y,z
_cell_length_a 38.3425
_cell_length_b 38.3514
_cell_length_c 38.4161
_cell_angle_alpha 90.047100
_cell_angle_beta 89.942000
_cell_angle_gamma 90.052100
loop_
  _atom_site_label
  _atom_site_type_symbol
  _atom_site_fract_x
  _atom_site_fract_y
  _atom_site_fract_z
C1 C 0.32370 0.36600 1.37088
 C2 C 0.34052 0.33623 1.38372
 C3 C 0.37029 0.32328 1.36687
 C4 C 0.38324 0.34019 1.33720
 C5 C 0.36645 0.36995 1.32436
 C6 C 0.33672 0.38285 1.34120
 H7 H 0.33031 0.32300 1.40654
 H8 H 0.40610 0.33010 1.32393
 H9 H 0.32362 0.40574 1.33102
 C10 C 1.17732 0.63312 0.87093
 C11 C 1.16039 0.66285 0.88382
 C12 C 1.13066 0.67572 0.86699
 C13 C 1.11783 0.65885 0.83729
 C14 C 1.13471 0.62915 0.82436
 C15 C 1.16443 0.61627 0.84119
 H16 H 1.17043 0.67613 0.90667
 H17 H 1.09499 0.66898 0.82410
 H18 H 1.17760 0.59342 0.83095
 C19 C 0.67679 -0.13389 0.12918
 C20 C 0.66373 -0.11708 0.15888
 C21 C 0.63396 -0.13005 0.17564
 C22 C 0.61719 -0.15983 0.16269
 C23 C 0.63019 -0.17669 0.13301
 C24 C 0.65999 -0.16369 0.11625
 H25 H 0.67681 -0.09417 0.16913
 H26 H 0.59430 -0.16996 0.17590
 H27 H 0.67024 -0.17688 0.09341
 C28 C -0.17600 1.13407 -0.37043
 C29 C -0.15906 1.16375 -0.38335
 C30 C -0.12928 1.17670 -0.36656
 C31 C -0.11644 1.15985 -0.33685
 C32 C -0.13338 1.13016 -0.32392
 C33 C -0.16312 1.11728 -0.34073
 H34 H -0.16926 1.17687 -0.40620
 H35 H -0.09356 1.16994 -0.32361
 H36 H -0.17639 1.09446 -0.33056
 C37 C 0.67700 0.63402 0.63059
 C38 C 0.66358 0.61773 0.66037
 C39 C 0.63381 0.63115 0.67673
 C40 C 0.61741 0.66085 0.66326
 C41 C 0.63080 0.67715 0.63348
 C42 C 0.66059 0.66371 0.61714
 H43 H 0.67644 0.59491 0.67096
 H44 H 0.59452 0.67141 0.67608
 H45 H 0.67113 0.67648 0.59425
 C46 C 0.82336 0.36554 0.13085
 C47 C 0.83964 0.33575 0.11738
 C48 C 0.86938 0.32217 0.13369
 C49 C 0.88282 0.33850 0.16347
 C50 C 0.86653 0.36830 0.17694
 C51 C 0.83683 0.38182 0.16061
 H52 H 0.82899 0.32304 0.09449
 H53 H 0.90566 0.32793 0.17633
 H54 H 0.82407 0.40472 0.17120
 C55 C 0.32155 0.13383 0.86913
 C56 C 0.33804 0.16357 0.88258
 C57 C 0.36781 0.17702 0.86620
 C58 C 0.38114 0.16071 0.83638
 C59 C 0.36470 0.13099 0.82290
 C60 C 0.33494 0.11754 0.83929
 H61 H 0.32761 0.17641 0.90551
 H62 H 0.40402 0.17128 0.82355
 H63 H 0.32211 0.09467 0.82863
 C64 C 0.17747 0.86658 0.36906
 C65 C 0.16392 0.88292 0.33937
 C66 C 0.13415 0.86941 0.32308
 C67 C 0.11788 0.83957 0.33648
 C68 C 0.13138 0.82321 0.36614
 C69 C 0.16115 0.83672 0.38243
 H70 H 0.17662 0.90588 0.32877
 H71 H 0.09500 0.82895 0.32371
 H72 H 0.17170 0.82383 0.40524
 Zn73 Zn -0.02184 1.00657 0.04204
 Zn74 Zn -0.02823 0.97211 -0.02773
 Zn75 Zn 0.00608 1.04208 -0.02127
 Zn76 Zn 0.04165 0.97878 0.00657
 O77 O -0.00062 0.99985 -0.00013
 O78 O -0.06297 0.98478 0.04504
 O79 O -0.04108 0.99332 -0.06738
 O80 O -0.00993 1.07793 0.00405
 O81 O -0.06795 0.95919 -0.00649
 O82 O -0.03066 1.05154 0.05103
 O83 O -0.01561 1.04500 -0.06232
 O84 O 0.07749 1.00417 -0.00941
 O85 O -0.00690 0.93243 -0.04056
 O86 O 0.05107 1.05116 -0.03006
 O87 O 0.04469 0.93762 -0.01505
 O88 O 0.05065 0.97011 0.05148
 O89 O 0.00351 0.99070 0.07783
 C90 C -0.07965 0.96594 0.02366
 C91 C -0.03435 1.02352 -0.07902
 C92 C -0.02482 1.07891 0.03350
 C93 C 0.07846 1.03365 -0.02427
 C94 C 0.02330 0.92083 -0.03380
 C95 C 0.03304 0.97593 0.07881
 Zn96 Zn 0.49296 -0.04154 0.47799
 Zn97 Zn 0.52737 0.02837 0.47156
 Zn98 Zn 0.45739 0.02186 0.50581
 Zn99 Zn 0.52073 -0.00596 0.54133
 O100 O 0.49965 0.00071 0.49914
 O101 O 0.51475 -0.04455 0.43694
 O102 O 0.50614 0.06806 0.45871
 O103 O 0.42157 -0.00352 0.48981
 O104 O 0.54031 0.00708 0.43192
 O105 O 0.44799 -0.05059 0.46920
 O106 O 0.45446 0.06300 0.48417
 O107 O 0.49528 0.00998 0.57710
 O108 O 0.56705 0.04126 0.49283
 O109 O 0.44827 0.03062 0.55071
 O110 O 0.56187 0.01578 0.54437
 O111 O 0.52949 -0.05093 0.55032
 O112 O 0.50888 -0.07737 0.50331
 C113 C 0.53357 -0.02313 0.42027
 C114 C 0.47593 0.07972 0.46544
 C115 C 0.42060 -0.03303 0.47498
 C116 C 0.46577 0.02480 0.57806
 C117 C 0.57865 0.03454 0.52299
 C118 C 0.52369 -0.07832 0.53277
 Zn119 Zn 1.02232 0.50560 0.45835
 Zn120 Zn 1.02873 0.47125 0.52810
 Zn121 Zn 0.99445 0.54116 0.52169
 Zn122 Zn 0.95884 0.47776 0.49383
 O123 O 1.00112 0.49891 0.50052
 O124 O 1.06345 0.48390 0.45533
 O125 O 1.04161 0.49253 0.56774
 O126 O 1.01046 0.57699 0.49637
 O127 O 1.06843 0.45836 0.50685
 O128 O 1.03112 0.55058 0.44935
 O129 O 1.01615 0.54416 0.56275
 O130 O 0.92301 0.50316 0.50975
 O131 O 1.00739 0.43157 0.54095
 O132 O 0.94947 0.55021 0.53044
 O133 O 0.95576 0.43665 0.51551
 O134 O 0.94985 0.46895 0.44892
 O135 O 0.99697 0.48962 0.42257
 C136 C 1.08014 0.46511 0.47670
 C137 C 1.03490 0.52273 0.57941
 C138 C 1.02530 0.57796 0.46690
 C139 C 0.92206 0.53267 0.52458
 C140 C 0.97716 0.41993 0.53424
 C141 C 0.96745 0.47476 0.42159
 Zn142 Zn 0.50637 0.45850 1.02172
 Zn143 Zn 0.47213 0.52845 1.02828
 Zn144 Zn 0.54200 0.52184 0.99383
 Zn145 Zn 0.47850 0.49400 0.95849
 O146 O 0.49972 0.50073 1.00062
 O147 O 0.48470 0.45556 1.06283
 O148 O 0.49351 0.56815 1.04108
 O149 O 0.57783 0.49645 1.00969
 O150 O 0.45927 0.50722 1.06795
 O151 O 0.55135 0.44943 1.03038
 O152 O 0.54511 0.56299 1.01549
 O153 O 0.50385 0.50991 0.92266
 O154 O 0.43241 0.54133 1.00712
 O155 O 0.55100 0.53056 0.94891
 O156 O 0.43739 0.51574 0.95558
 O157 O 0.46963 0.44903 0.94950
 O158 O 0.49030 0.42264 0.99644
 C159 C 0.46598 0.47702 1.07957
 C160 C 0.52373 0.57976 1.03428
 C161 C 0.57876 0.46696 1.02452
 C162 C 0.53339 0.52474 0.92162
 C163 C 0.42071 0.53455 0.97700
 C164 C 0.47541 0.42166 0.96702
 C165 C 1.29426 0.37807 0.38668
 C166 C 1.26799 0.38870 0.40030
 C167 C 1.23636 0.40141 0.41600
 C168 C 1.23237 0.43708 0.42276
 C169 C 1.20108 0.44963 0.43667
 C170 C 1.17366 0.42656 0.44390
 C171 C 1.17779 0.39083 0.43750
 C172 C 1.20909 0.37828 0.42359
 C173 C 1.14085 0.43976 0.45649
 C174 C 1.11320 0.45113 0.46621
 H175 H 1.25325 0.45521 0.41689
 H176 H 1.19810 0.47733 0.44137
 H177 H 1.15671 0.37278 0.44285
 H178 H 1.21187 0.35065 0.41837
 C179 C 0.20674 0.62112 0.88675
 C180 C 0.23298 0.61056 0.90040
 C181 C 0.26458 0.59795 0.91616
 C182 C 0.26853 0.56233 0.92317
 C183 C 0.29979 0.54987 0.93716
 C184 C 0.32722 0.57298 0.94422
 C185 C 0.32313 0.60866 0.93757
 C186 C 0.29186 0.62112 0.92358
 C187 C 0.36001 0.55985 0.95684
 C188 C 0.38765 0.54852 0.96656
 H189 H 0.24764 0.54417 0.91744
 H190 H 0.30273 0.52221 0.94205
 H191 H 0.34422 0.62673 0.94277
 H192 H 0.28911 0.64870 0.91817
 C193 C -0.29375 0.87826 0.11344
 C194 C -0.26747 0.88897 0.09988
 C195 C -0.23584 0.90179 0.08424
 C196 C -0.23184 0.93750 0.07768
 C197 C -0.20055 0.95015 0.06381
 C198 C -0.17315 0.92715 0.05642
 C199 C -0.17729 0.89139 0.06262
 C200 C -0.20858 0.87873 0.07650
 C201 C -0.14036 0.94045 0.04386
 C202 C -0.11272 0.95189 0.03415
 H203 H -0.25271 0.95557 0.08367
 H204 H -0.19758 0.97788 0.05926
 H205 H -0.15622 0.87339 0.05716
 H206 H -0.21137 0.85108 0.08156
 C207 C 0.79288 0.12135 0.61292
 C208 C 0.76659 0.11076 0.59935
 C209 C 0.73492 0.09811 0.58370
 C210 C 0.73100 0.06251 0.57649
 C211 C 0.69969 0.05000 0.56258
 C212 C 0.67218 0.07305 0.55581
 C213 C 0.67625 0.10871 0.56267
 C214 C 0.70756 0.12121 0.57657
 C215 C 0.63937 0.05987 0.54322
 C216 C 0.61172 0.04851 0.53350
 H217 H 0.75195 0.04440 0.58199
 H218 H 0.69677 0.02235 0.55753
 H219 H 0.65509 0.12673 0.55768
 H220 H 0.71029 0.14878 0.58214
 C221 C 0.38607 0.29383 0.37885
 C222 C 0.39968 0.26756 0.38940
 C223 C 0.41535 0.23593 0.40202
 C224 C 0.42245 0.23203 0.43757
 C225 C 0.43635 0.20074 0.45005
 C226 C 0.44322 0.17322 0.42703
 C227 C 0.43648 0.17726 0.39142
 C228 C 0.42259 0.20855 0.37894
 C229 C 0.45578 0.14043 0.44018
 C230 C 0.46548 0.11278 0.45151
 H231 H 0.41687 0.25299 0.45566
 H232 H 0.44131 0.19785 0.47766
 H233 H 0.44155 0.15609 0.37342
 H234 H 0.41710 0.21125 0.35142
 C235 C 0.88662 0.20609 0.62137
 C236 C 0.90032 0.23231 0.61072
 C237 C 0.91610 0.26389 0.59799
 C238 C 0.92382 0.29114 0.62106
 C239 C 0.93782 0.32239 0.60849
 C240 C 0.94416 0.32650 0.57280
 C241 C 0.93681 0.29910 0.54979
 C242 C 0.92282 0.26786 0.56236
 C243 C 0.95682 0.35927 0.55959
 C244 C 0.96660 0.38689 0.54821
 H245 H 0.91864 0.28838 0.64865
 H246 H 0.94325 0.34346 0.62649
 H247 H 0.94147 0.30206 0.52213
 H248 H 0.91685 0.24699 0.54429
 C249 C 0.11389 0.70678 -0.12030
 C250 C 0.10021 0.73303 -0.10973
 C251 C 0.08443 0.76465 -0.09711
 C252 C 0.07749 0.76869 -0.06152
 C253 C 0.06347 0.79996 -0.04906
 C254 C 0.05632 0.82732 -0.07213
 C255 C 0.06290 0.82313 -0.10777
 C256 C 0.07692 0.79185 -0.12023
 C257 C 0.04364 0.86011 -0.05901
 C258 C 0.03385 0.88776 -0.04770
 H259 H 0.08329 0.74786 -0.04340
 H260 H 0.05863 0.80298 -0.02143
 H261 H 0.05762 0.84417 -0.12581
 H262 H 0.08228 0.78904 -0.14779
 C263 C 0.61440 0.79385 1.12094
 C264 C 0.60076 0.76757 1.11032
 C265 C 0.58500 0.73595 1.09765
 C266 C 0.57855 0.73176 1.06200
 C267 C 0.56453 0.70048 1.04951
 C268 C 0.55687 0.67327 1.07262
 C269 C 0.56297 0.67760 1.10832
 C270 C 0.57699 0.70888 1.12081
 C271 C 0.54415 0.64048 1.05950
 C272 C 0.53433 0.61284 1.04819
 H273 H 0.58474 0.75248 1.04385
 H274 H 0.56006 0.69736 1.02184
 H275 H 0.55730 0.65668 1.12640
 H276 H 0.58197 0.71181 1.14842
 C277 C 0.37922 0.38669 1.29334
 C278 C 0.38984 0.40034 1.26713
 C279 C 0.40250 0.41610 1.23556
 C280 C 0.37933 0.42367 1.20842
 C281 C 0.39183 0.43766 1.17719
 C282 C 0.42755 0.44416 1.17298
 C283 C 0.45066 0.43696 1.20027
 C284 C 0.43816 0.42296 1.23149
 C285 C 0.44070 0.45680 1.14023
 C286 C 0.45203 0.46654 1.11261
 H287 H 0.35171 0.41837 1.21125
 H288 H 0.37374 0.44298 1.15620
 H289 H 0.47835 0.44173 1.19724
 H290 H 0.45632 0.41712 1.25227
 C291 C 0.62111 -0.11335 0.20666
 C292 C 0.61041 -0.09973 0.23287
 C293 C 0.59763 -0.08402 0.26443
 C294 C 0.62068 -0.07653 0.29172
 C295 C 0.60805 -0.06258 0.32294
 C296 C 0.57233 -0.05604 0.32698
 C297 C 0.54934 -0.06317 0.29954
 C298 C 0.56196 -0.07712 0.26833
 C299 C 0.55905 -0.04340 0.35969
 C300 C 0.54762 -0.03365 0.38727
 H301 H 0.64829 -0.08186 0.28902
 H302 H 0.62604 -0.05731 0.34403
 H303 H 0.52165 -0.05836 0.30244
 H304 H 0.54390 -0.08291 0.24744
 C305 C -0.12072 1.11347 -0.29286
 C306 C -0.11019 1.09987 -0.26662
 C307 C -0.09762 1.08418 -0.23502
 C308 C -0.06204 1.07690 -0.23113
 C309 C -0.04960 1.06297 -0.19989
 C310 C -0.07270 1.05625 -0.17240
 C311 C -0.10834 1.06316 -0.17643
 C312 C -0.12078 1.07709 -0.20768
 C313 C -0.05959 1.04367 -0.13965
 C314 C -0.04828 1.03396 -0.11204
 H315 H -0.04389 1.08238 -0.25207
 H316 H -0.02197 1.05788 -0.19700
 H317 H -0.12641 1.05821 -0.15530
 H318 H -0.14833 1.08270 -0.21038
 C319 C 1.12202 0.61244 0.79329
 C320 C 1.11141 0.59886 0.76703
 C321 C 1.09871 0.58323 0.73542
 C322 C 1.12176 0.57618 0.70798
 C323 C 1.10919 0.56232 0.67672
 C324 C 1.07352 0.55545 0.67277
 C325 C 1.05052 0.56213 0.70035
 C326 C 1.06309 0.57599 0.73161
 C327 C 1.06028 0.54291 0.64002
 C328 C 1.04889 0.53322 0.61242
 H329 H 1.14934 0.58177 0.71062
 H330 H 1.12718 0.55740 0.65551
 H331 H 1.02287 0.55706 0.69753
 H332 H 1.04502 0.58143 0.75262
 C333 C 0.70814 0.62075 0.61439
 C334 C 0.73444 0.60970 0.60119
 C335 C 0.76610 0.59654 0.58595
 C336 C 0.79219 0.61971 0.57503
 C337 C 0.82347 0.60689 0.56134
 C338 C 0.82878 0.57086 0.55849
 C339 C 0.80257 0.54771 0.56912
 C340 C 0.77129 0.56052 0.58281
 C341 C 0.86150 0.55761 0.54576
 C342 C 0.88907 0.54634 0.53572
 H343 H 0.78848 0.64761 0.57742
 H344 H 0.84362 0.62502 0.55331
 H345 H 0.80645 0.51979 0.56715
 H346 H 0.75133 0.54238 0.59126
 C347 C 0.79230 0.37892 1.11467
 C348 C 0.76607 0.39002 1.10146
 C349 C 0.73449 0.40320 1.08616
 C350 C 0.70879 0.38003 1.07439
 C351 C 0.67757 0.39285 1.06061
 C352 C 0.67194 0.42888 1.05855
 C353 C 0.69778 0.45204 1.07003
 C354 C 0.72898 0.43923 1.08380
 C355 C 0.63927 0.44209 1.04574
 C356 C 0.61173 0.45333 1.03566
 H357 H 0.71274 0.35212 1.07617
 H358 H 0.65772 0.37470 1.05193
 H359 H 0.69364 0.47995 1.06866
 H360 H 0.74864 0.45737 1.09291
 C361 C 0.29210 1.12125 -0.11546
 C362 C 0.26584 1.11021 -0.10213
 C363 C 0.23425 1.09711 -0.08668
 C364 C 0.20869 1.12034 -0.07476
 C365 C 0.17747 1.10761 -0.06082
 C366 C 0.17168 1.07159 -0.05874
 C367 C 0.19737 1.04836 -0.07037
 C368 C 0.22859 1.06109 -0.08431
 C369 C 0.13899 1.05845 -0.04576
 C370 C 0.11144 1.04726 -0.03555
 H371 H 0.21277 1.14824 -0.07655
 H372 H 0.15773 1.12580 -0.05202
 H373 H 0.19312 1.02046 -0.06900
 H374 H 0.24814 1.04290 -0.09353
 C375 C 0.20692 -0.12080 0.38436
 C376 C 0.23319 -0.10973 0.39761
 C377 C 0.26480 -0.09659 0.41295
 C378 C 0.27044 -0.06057 0.41532
 C379 C 0.30168 -0.04781 0.42915
 C380 C 0.32739 -0.07101 0.44069
 C381 C 0.32162 -0.10703 0.43860
 C382 C 0.29038 -0.11980 0.42477
 C383 C 0.36008 -0.05785 0.45358
 C384 C 0.38763 -0.04664 0.46373
 H385 H 0.25087 -0.04240 0.40617
 H386 H 0.30592 -0.01991 0.43053
 H387 H 0.34138 -0.12521 0.44733
 H388 H 0.28631 -0.14770 0.42298
 C389 C 0.61453 -0.29180 0.62020
 C390 C 0.60123 -0.26556 0.60920
 C391 C 0.58581 -0.23398 0.59615
 C392 C 0.57500 -0.20791 0.61934
 C393 C 0.56111 -0.17671 0.60662
 C394 C 0.55797 -0.17146 0.57067
 C395 C 0.56850 -0.19766 0.54750
 C396 C 0.58238 -0.22886 0.56021
 C397 C 0.54507 -0.13881 0.55752
 C398 C 0.53492 -0.11128 0.54634
 H399 H 0.57761 -0.21157 0.64717
 H400 H 0.55317 -0.15658 0.62477
 H401 H 0.56630 -0.19383 0.51965
 H402 H 0.59075 -0.24881 0.54205
 C403 C 1.11523 0.79202 0.37935
 C404 C 1.10206 0.76568 0.39034
 C405 C 1.08683 0.73399 0.40342
 C406 C 1.07574 0.70802 0.38024
 C407 C 1.06203 0.67672 0.39298
 C408 C 1.05935 0.67126 0.42894
 C409 C 1.07015 0.69735 0.45211
 C410 C 1.08386 0.72865 0.43938
 C411 C 1.04657 0.63853 0.44210
 C412 C 1.03649 0.61095 0.45330
 H413 H 1.07800 0.71185 0.35239
 H414 H 1.05387 0.65667 0.37484
 H415 H 1.06830 0.69335 0.47997
 H416 H 1.09243 0.74852 0.45752
 C417 C -0.11533 1.29270 0.12110
 C418 C -0.10211 1.26641 0.11005
 C419 C -0.08679 1.23478 0.09692
 C420 C -0.08477 1.22898 0.06097
 C421 C -0.07096 1.19773 0.04822
 C422 C -0.05910 1.17216 0.07138
 C423 C -0.06084 1.17808 0.10734
 C424 C -0.07465 1.20934 0.12008
 C425 C -0.04622 1.13945 0.05825
 C426 C -0.03607 1.11189 0.04707
 H427 H -0.09417 1.24844 0.04283
 H428 H -0.06985 1.19337 0.02037
 H429 H -0.05185 1.15843 0.12547
 H430 H -0.07616 1.21352 0.14794
 C431 C 0.38415 0.20808 0.87949
 C432 C 0.39749 0.23433 0.89052
 C433 C 0.41296 0.26591 0.90362
 C434 C 0.41548 0.27147 0.93958
 C435 C 0.42942 0.30268 0.95231
 C436 C 0.44090 0.32846 0.92914
 C437 C 0.43867 0.32277 0.89318
 C438 C 0.42473 0.29156 0.88044
 C439 C 0.45388 0.36113 0.94228
 C440 C 0.46410 0.38868 0.95346
 H441 H 0.40637 0.25185 0.95773
 H442 H 0.43091 0.30686 0.98017
 H443 H 0.44736 0.34258 0.87503
 H444 H 0.42283 0.28756 0.85259
 C445 C 0.62059 0.61500 0.70786
 C446 C 0.60963 0.60179 0.73416
 C447 C 0.59663 0.58650 0.76581
 C448 C 0.56064 0.58289 0.77103
 C449 C 0.54798 0.56911 0.80228
 C450 C 0.57125 0.55885 0.82843
 C451 C 0.60725 0.56217 0.82309
 C452 C 0.61992 0.57595 0.79184
 C453 C 0.55814 0.54602 0.86112
 C454 C 0.54696 0.53592 0.88866
 H455 H 0.54241 0.59104 0.75111
 H456 H 0.52008 0.56677 0.80618
 H457 H 0.62547 0.55444 0.84319
 H458 H 0.64780 0.57870 0.78810
 C459 C 0.37791 0.11483 0.79175
 C460 C 0.38889 0.10165 0.76544
 C461 C 0.40195 0.08638 0.73378
 C462 C 0.43791 0.08196 0.72904
 C463 C 0.45068 0.06822 0.69779
 C464 C 0.42754 0.05884 0.67117
 C465 C 0.39156 0.06297 0.67603
 C466 C 0.37879 0.07671 0.70728
 C467 C 0.44080 0.04605 0.63851
 C468 C 0.45208 0.03597 0.61098
 H469 H 0.45605 0.08944 0.74933
 H470 H 0.47856 0.06525 0.69427
 H471 H 0.37345 0.05592 0.65557
 H472 H 0.35094 0.08010 0.71064
 C473 C 0.12080 0.88562 0.29207
 C474 C 0.10973 0.89886 0.26587
 C475 C 0.09659 0.91419 0.23433
 C476 C 0.11980 0.92611 0.20877
 C477 C 0.10702 0.93991 0.17760
 C478 C 0.07100 0.94185 0.17188
 C479 C 0.04779 0.93023 0.19757
 C480 C 0.06056 0.91643 0.22874
 C481 C 0.05783 0.95468 0.13925
 C482 C 0.04663 0.96477 0.11173
 H483 H 0.14771 0.92442 0.21280
 H484 H 0.12520 0.94871 0.15785
 H485 H 0.01988 0.93149 0.19337
 H486 H 0.04239 0.90720 0.24830
 C487 C 0.87981 0.38448 0.20804
 C488 C 0.89084 0.39768 0.23431
 C489 C 0.90395 0.41297 0.26591
 C490 C 0.88072 0.42456 0.29161
 C491 C 0.89347 0.43834 0.32283
 C492 C 0.92950 0.44058 0.32848
 C493 C 0.95273 0.42927 0.30265
 C494 C 0.93998 0.41550 0.27144
 C495 C 0.94265 0.45342 0.36114
 C496 C 0.95385 0.46354 0.38867
 H497 H 0.85282 0.42264 0.28764
 H498 H 0.87528 0.44689 0.34267
 H499 H 0.98063 0.43078 0.30680
 H500 H 0.95817 0.40653 0.25178
   
