data_POSCAR
  _audit_creation_date              2014-09-24
  _audit_creation_method            'ToBaCCo'
  _symmetry_space_group_name_H-M    'P1'
  _symmetry_Int_Tables_number       1
  _symmetry_cell_setting            triclinic
  loop_
  _symmetry_equiv_pos_as_xyz
 x,y,z
_cell_length_a 29.7516
_cell_length_b 31.2985
_cell_length_c 28.5150
_cell_angle_alpha 92.229300
_cell_angle_beta 87.079100
_cell_angle_gamma 92.298500
loop_
  _atom_site_label
  _atom_site_type_symbol
  _atom_site_fract_x
  _atom_site_fract_y
  _atom_site_fract_z
N1 N 0.18126 0.19092 0.16912
 N2 N -0.19640 0.81453 0.16503
 N3 N -0.25469 0.24532 -0.25379
 N4 N 0.17316 0.79796 -0.18060
 N5 N 0.21199 1.20031 0.82830
 N6 N 0.82633 0.78622 0.82341
 N7 N 0.20049 0.79694 1.19424
 N8 N 0.81742 1.20035 1.21898
 O9 O 0.54545 0.94283 0.92162
 O10 O 0.46245 0.97506 1.08968
 O11 O 0.57868 0.95165 1.02336
 O12 O 0.39596 0.96841 0.96427
 O13 O 0.54395 0.97112 1.08739
 O14 O 0.45885 0.94448 0.92569
 O15 O 0.43930 0.94102 1.02724
 O16 O 0.60245 0.97985 0.94823
 C17 C 0.58716 0.94796 0.92536
 C18 C 0.44283 0.94275 1.07060
 C19 C 0.56864 0.94544 1.06503
 C20 C 0.41551 0.94456 0.93139
 O21 O 0.46688 1.02833 0.90727
 O22 O 0.55615 1.05367 1.06339
 O23 O 0.57905 1.05588 0.97188
 O24 O 0.41239 1.01864 1.04899
 O25 O 0.47150 1.05818 1.06429
 O26 O 0.55132 1.02794 0.90675
 O27 O 0.42916 1.04242 0.97185
 O28 O 0.61898 1.02347 1.03466
 Co29 Co 0.50588 0.98696 0.92234
 Co30 Co 0.50817 1.01354 1.07004
 Co31 Co 0.57386 1.00414 1.00009
 Co32 Co 0.43944 0.99164 0.99788
 O33 O 0.50650 0.99886 0.99701
 C34 C 0.43804 1.04989 0.92997
 C35 C 0.59873 1.04883 1.06586
 C36 C 0.57380 1.05740 0.92840
 C37 C 0.42944 1.05272 1.06614
 O38 O 0.03860 0.46080 0.08913
 O39 O 0.01626 0.52602 -0.10509
 O40 O 0.02090 0.40670 -0.03560
 O41 O 0.07156 0.55050 0.02665
 O42 O 0.04832 0.46089 -0.07201
 O43 O 0.03678 0.54180 0.09260
 O44 O 0.06119 0.53920 -0.05258
 O45 O 0.00409 0.40873 0.04895
 C46 C 0.03393 0.42202 0.07682
 C47 C 0.05160 0.54453 -0.09351
 C48 C 0.05166 0.42334 -0.06096
 C49 C 0.07021 0.55596 0.06962
 O50 O -0.04933 0.53762 0.08843
 O51 O -0.02545 0.45106 -0.11400
 O52 O -0.07929 0.43729 0.03315
 O53 O -0.02499 0.57014 -0.04203
 O54 O -0.06035 0.51122 -0.06505
 O55 O -0.04827 0.45718 0.09669
 O56 O -0.01292 0.58281 0.04132
 O57 O -0.06348 0.43353 -0.05006
 Co58 Co -0.00527 0.49872 0.08332
 Co59 Co -0.00649 0.48471 -0.06544
 Co60 Co -0.02711 0.42766 -0.00053
 Co61 Co 0.02167 0.55567 -0.00600
 O62 O -0.00291 0.49355 0.00555
 C63 C -0.04410 0.57413 0.07188
 C64 C -0.05545 0.42599 -0.09366
 C65 C -0.07981 0.43826 0.07650
 C66 C -0.05890 0.55128 -0.05969
 O67 O 1.08687 0.05098 0.47087
 O68 O 0.90571 0.01653 0.55508
 O69 O 0.98051 0.05661 0.43984
 O70 O 1.03164 0.07278 0.58388
 O71 O 0.91743 0.03462 0.47129
 O72 O 1.09229 0.04388 0.55728
 O73 O 0.95515 0.06371 0.57055
 O74 O 1.05068 0.02179 0.41349
 C75 C 1.07829 0.04943 0.42853
 C76 C 0.91517 0.05339 0.56948
 C77 C 0.93992 0.06214 0.44837
 C78 C 1.07313 0.07232 0.58141
 O79 O 1.08371 -0.03742 0.55077
 O80 O 0.93990 -0.04731 0.45162
 O81 O 1.01906 -0.05275 0.43906
 O82 O 0.95632 -0.02064 0.59971
 O83 O 0.93976 -0.05906 0.53708
 O84 O 1.08552 -0.03453 0.46124
 O85 O 1.03754 -0.01010 0.60681
 O86 O 0.96946 -0.01233 0.39136
 Co87 Co 1.07927 0.00571 0.50957
 Co88 Co 0.93323 -0.01152 0.50441
 Co89 Co 0.99890 0.00233 0.44340
 Co90 Co 0.99519 0.02478 0.58410
 O91 O 1.00514 0.00711 0.51302
 C92 C 1.06752 -0.03609 0.59250
 C93 C 0.93812 -0.03894 0.40833
 C94 C 1.05988 -0.05983 0.43919
 C95 C 0.94368 -0.05585 0.58055
 C96 C 1.16920 0.17747 0.21382
 C97 C 1.15850 0.16392 0.25183
 C98 C 1.14515 0.14498 0.29449
 C99 C 1.13253 0.12624 0.32901
 C100 C 1.11593 0.10157 0.36672
 C101 C 1.09987 0.07856 0.39643
 C102 C 0.81846 -0.16729 0.20677
 C103 C 0.83257 -0.15050 0.24205
 C104 C 0.85105 -0.12935 0.28150
 C105 C 0.86856 -0.11008 0.31347
 C106 C 0.89099 -0.08627 0.34873
 C107 C 0.91172 -0.06505 0.37698
 C108 C 0.76741 0.21786 0.71425
 C109 C 0.78659 0.19307 0.68747
 C110 C 0.80967 0.16305 0.65802
 C111 C 0.83059 0.13705 0.63460
 C112 C 0.85715 0.10674 0.60935
 C113 C 0.88216 0.08162 0.58987
 C114 C 1.15737 -0.18152 0.78178
 C115 C 1.14348 -0.16236 0.75012
 C116 C 1.12715 -0.13804 0.71467
 C117 C 1.11324 -0.11591 0.68553
 C118 C 1.09711 -0.08878 0.65256
 C119 C 1.08349 -0.06490 0.62496
 C120 C 0.22517 1.18242 1.15459
 C121 C 0.26251 1.17201 1.14213
 C122 C 0.30415 1.15491 1.12758
 C123 C 0.33741 1.13631 1.11479
 C124 C 0.37306 1.11037 1.09911
 C125 C 0.40051 1.08527 1.08473
 C126 C 0.21663 0.81063 0.83033
 C127 C 0.25339 0.82403 0.84085
 C128 C 0.29418 0.84351 0.85512
 C129 C 0.32665 0.86314 0.86927
 C130 C 0.36137 0.88921 0.88830
 C131 C 0.38792 0.91361 0.90677
 C132 C 0.75920 0.82166 1.15638
 C133 C 0.72161 0.83066 1.14771
 C134 C 0.68012 0.84601 1.13538
 C135 C 0.64770 0.86328 1.12266
 C136 C 0.61432 0.88810 1.10515
 C137 C 0.59051 0.91276 1.08794
 C138 C 0.71631 1.22253 0.77658
 C139 C 0.69160 1.20125 0.80206
 C140 C 0.66380 1.17413 0.83054
 C141 C 0.64115 1.14935 0.85392
 C142 C 0.61604 1.11866 0.88041
 C143 C 0.59594 1.09126 0.90251
 C144 C 0.16647 0.23073 0.15904
 C145 C 0.15146 0.26424 0.14945
 C146 C 0.13077 0.30148 0.13689
 C147 C 0.11082 0.33156 0.12494
 C148 C 0.08535 0.36475 0.10957
 C149 C 0.06229 0.39161 0.09525
 C150 C -0.22488 0.27282 -0.23029
 C151 C -0.19872 0.29664 -0.21009
 C152 C -0.16785 0.32432 -0.18651
 C153 C -0.14152 0.34782 -0.16619
 C154 C -0.11092 0.37521 -0.14187
 C155 C -0.08524 0.39846 -0.12040
 C156 C 0.16262 0.75452 -0.17955
 C157 C 0.15135 0.71733 -0.17662
 C158 C 0.13490 0.67523 -0.16917
 C159 C 0.11833 0.64103 -0.15872
 C160 C 0.09652 0.60376 -0.14132
 C161 C 0.07644 0.57482 -0.12190
 C162 C -0.18113 0.77406 0.15359
 C163 C -0.16553 0.73992 0.14295
 C164 C -0.14399 0.70179 0.12954
 C165 C -0.12329 0.67070 0.11733
 C166 C -0.09695 0.63591 0.10224
 C167 C -0.07322 0.60726 0.08871
 C168 C 1.19764 0.18802 0.78691
 C169 C 1.18270 0.17574 0.74994
 C170 C 1.16265 0.15939 0.70877
 C171 C 1.14376 0.14338 0.67563
 C172 C 1.12002 0.12188 0.63948
 C173 C 1.09885 0.10086 0.61125
 C174 C 0.84573 -0.20041 0.78082
 C175 C 0.86242 -0.18599 0.74497
 C176 C 0.88144 -0.16511 0.70506
 C177 C 0.89706 -0.14426 0.67294
 C178 C 0.91448 -0.11655 0.63777
 C179 C 0.92841 -0.09026 0.61014
 C180 C 1.18169 -0.18992 0.23472
 C181 C 1.16317 -0.17652 0.27076
 C182 C 1.14020 -0.15834 0.31096
 C183 C 1.12030 -0.14040 0.34355
 C184 C 1.09740 -0.11618 0.37960
 C185 C 1.07911 -0.09237 0.40825
 C186 C 0.83066 0.19021 0.26030
 C187 C 0.84430 0.17872 0.29685
 C188 C 0.86229 0.16159 0.33683
 C189 C 0.87897 0.14384 0.36819
 C190 C 0.89969 0.11932 0.40117
 C191 C 0.91796 0.09509 0.42538
 C192 C 0.20078 0.23881 -0.15657
 C193 C 0.18742 0.27311 -0.14233
 C194 C 0.16687 0.31100 -0.12532
 C195 C 0.14553 0.34109 -0.11062
 C196 C 0.11645 0.37335 -0.09330
 C197 C 0.08847 0.39798 -0.07850
 C198 C -0.17602 0.24021 0.20664
 C199 C -0.16913 0.27583 0.19237
 C200 C -0.15879 0.31550 0.17152
 C201 C -0.14711 0.34746 0.15118
 C202 C -0.12921 0.38240 0.12537
 C203 C -0.10945 0.40968 0.10275
 C204 C -0.16698 0.74457 -0.16398
 C205 C -0.15949 0.70934 -0.15099
 C206 C -0.14754 0.66989 -0.13328
 C207 C -0.13402 0.63811 -0.11677
 C208 C -0.11358 0.60362 -0.09650
 C209 C -0.09147 0.57735 -0.07920
 C210 C 0.19073 0.75721 0.18054
 C211 C 0.17996 0.72151 0.16651
 C212 C 0.16409 0.68141 0.14810
 C213 C 0.14758 0.64891 0.13109
 C214 C 0.12461 0.61326 0.11007
 C215 C 0.10169 0.58537 0.09164
 C216 C 0.25191 1.18756 0.83814
 C217 C 0.28726 1.17342 0.84818
 C218 C 0.32603 1.15315 0.86163
 C219 C 0.35660 1.13306 0.87463
 C220 C 0.38911 1.10659 0.89175
 C221 C 0.41356 1.08179 0.90814
 C222 C 0.24174 0.81165 1.18412
 C223 C 0.27868 0.82664 1.17302
 C224 C 0.31992 0.84660 1.15707
 C225 C 0.35296 0.86562 1.14101
 C226 C 0.38863 0.89023 1.11935
 C227 C 0.41571 0.91317 1.09842
 C228 C 0.78031 1.18101 1.20469
 C229 C 0.74734 1.16286 1.18931
 C230 C 0.71093 1.14091 1.16788
 C231 C 0.68184 1.12140 1.14714
 C232 C 0.65022 1.09749 1.12050
 C233 C 0.62544 1.07598 1.09619
 C234 C 0.78492 0.80326 0.83623
 C235 C 0.75012 0.82024 0.84767
 C236 C 0.71136 0.84311 0.86166
 C237 C 0.68003 0.86474 0.87438
 C238 C 0.64543 0.89217 0.89045
 C239 C 0.61775 0.91701 0.90549
   
