data_POSCAR
  _audit_creation_date              2014-09-24
  _audit_creation_method            'ToBaCCo'
  _symmetry_space_group_name_H-M    'P1'
  _symmetry_Int_Tables_number       1
  _symmetry_cell_setting            triclinic
  loop_
  _symmetry_equiv_pos_as_xyz
 x,y,z
_cell_length_a 21.0454
_cell_length_b 21.8556
_cell_length_c 23.1066
_cell_angle_alpha 90.736800
_cell_angle_beta 88.009800
_cell_angle_gamma 90.627500
loop_
  _atom_site_label
  _atom_site_type_symbol
  _atom_site_fract_x
  _atom_site_fract_y
  _atom_site_fract_z
C1 C 0.14298 0.16654 0.23925
 C2 C 0.18566 0.12194 0.21833
 C3 C 0.21146 0.12546 0.16142
 C4 C 0.19362 0.17313 0.12544
 C5 C 0.15237 0.21863 0.14681
 C6 C 0.12735 0.21505 0.20372
 H7 H 0.19867 0.08472 0.24601
 H8 H 0.21161 0.17484 0.08095
 H9 H 0.09546 0.25020 0.22048
 C10 C -0.12062 0.85657 0.21895
 C11 C -0.09712 0.80766 0.18569
 C12 C -0.13196 0.78256 0.14129
 C13 C -0.18941 0.80841 0.12714
 C14 C -0.21164 0.86079 0.15708
 C15 C -0.17749 0.88475 0.20398
 H16 H -0.05337 0.78579 0.19721
 H17 H -0.21510 0.78948 0.09113
 H18 H -0.19575 0.92338 0.22899
 C19 C -0.15324 0.12554 -0.21306
 C20 C -0.10337 0.16518 -0.19681
 C21 C -0.10320 0.18971 -0.14016
 C22 C -0.15155 0.17343 -0.10024
 C23 C -0.20250 0.13703 -0.11685
 C24 C -0.20236 0.11145 -0.17260
 H25 H -0.06854 0.18103 -0.22901
 H26 H -0.15378 0.19622 -0.05821
 H27 H -0.24407 0.08647 -0.18662
 C28 C 0.12558 0.87748 -0.21913
 C29 C 0.18972 0.89268 -0.21080
 C30 C 0.22395 0.86254 -0.16880
 C31 C 0.19482 0.81518 -0.13703
 C32 C 0.13094 0.79948 -0.14547
 C33 C 0.09581 0.83265 -0.18457
 H34 H 0.21350 0.92625 -0.23833
 H35 H 0.22236 0.78911 -0.10737
 H36 H 0.04691 0.81970 -0.19193
 C37 C 0.12323 1.12878 0.78969
 C38 C 0.11013 1.18883 0.80749
 C39 C 0.14600 1.21716 0.84993
 C40 C 0.19584 1.18573 0.87428
 C41 C 0.20734 1.12461 0.85793
 C42 C 0.16991 1.09582 0.81675
 H43 H 0.07192 1.21353 0.78834
 H44 H 0.22331 1.20754 0.90770
 H45 H 0.18005 1.04926 0.80297
 C46 C 0.87767 0.85802 0.77215
 C47 C 0.90697 0.80559 0.79207
 C48 C 0.89423 0.78467 0.84841
 C49 C 0.85748 0.82080 0.88721
 C50 C 0.82898 0.87449 0.86817
 C51 C 0.84030 0.89332 0.81066
 H52 H 0.93078 0.77540 0.76079
 H53 H 0.84307 0.80261 0.92912
 H54 H 0.81418 0.93153 0.79426
 C55 C 0.13514 0.88269 1.22234
 C56 C 0.09569 0.83334 1.20535
 C57 C 0.11082 0.80009 1.15390
 C58 C 0.16568 0.81562 1.12078
 C59 C 0.20379 0.86496 1.13690
 C60 C 0.18701 0.89967 1.18615
 H61 H 0.05668 0.81819 1.23363
 H62 H 0.17843 0.78942 1.08205
 H63 H 0.21861 0.93631 1.19962
 C64 C 0.85385 1.14421 1.22536
 C65 C 0.89142 1.18372 1.19092
 C66 C 0.87100 1.20183 1.13689
 C67 C 0.81478 1.17697 1.11548
 C68 C 0.77752 1.13612 1.14879
 C69 C 0.79675 1.12022 1.20415
 H70 H 0.93305 1.20560 1.20872
 H71 H 0.79916 1.19063 1.07340
 H72 H 0.76666 1.09090 1.23112
 O73 O 0.38354 1.05420 1.11190
 O74 O 0.33114 1.00666 1.03809
 C75 C 0.33189 1.03476 1.08760
 O76 O 0.58889 1.12470 0.93296
 O77 O 0.65790 1.06079 0.97650
 C78 C 0.64497 1.11018 0.94894
 O79 O 0.41372 1.11225 0.91984
 O80 O 0.34529 1.03332 0.94339
 C81 C 0.35798 1.08663 0.92163
 O82 O 0.56380 1.06917 1.13097
 O83 O 0.64535 1.03467 1.07110
 C84 C 0.62414 1.06342 1.11675
 Zr85 Zr 0.48111 1.04083 1.08460
 O86 O 0.47415 1.13541 1.10469
 O87 O 0.46427 1.01961 1.17298
 Zr88 Zr 0.50179 1.07710 0.94370
 O89 O 0.49623 1.17234 0.95975
 O90 O 0.50886 1.09405 0.85361
 O91 O 0.43384 1.06526 1.01063
 O92 O 0.54431 1.07444 1.02273
 O93 O 0.58382 0.86367 1.08708
 O94 O 0.65406 0.93785 1.05507
 C95 C 0.63984 0.88906 1.08425
 O96 O 0.44368 0.89498 0.86221
 O97 O 0.35859 0.93047 0.91706
 C98 C 0.38332 0.90106 0.87239
 O99 O 0.61658 0.91853 0.87921
 O100 O 0.67135 0.95957 0.95469
 C101 C 0.66880 0.93196 0.90473
 O102 O 0.40767 0.84759 1.06392
 O103 O 0.34171 0.91024 1.01512
 C104 C 0.35161 0.86509 1.04902
 Zr105 Zr 0.49875 0.89015 1.04835
 O106 O 0.51607 0.79965 1.01850
 O107 O 0.48393 0.85664 1.13313
 Zr108 Zr 0.52117 0.92794 0.90861
 O109 O 0.53973 0.83451 0.89029
 O110 O 0.52843 0.94820 0.81932
 Zr111 Zr 0.40749 0.97553 0.98535
 Zr112 Zr 0.59393 0.99224 1.00680
 O113 O 0.56633 0.90308 0.98253
 O114 O 0.45480 0.89225 0.96911
 O115 O 0.54352 0.96745 1.08374
 O116 O 0.45862 1.00045 0.90940
 O117 O 0.43536 0.95835 1.07063
 O118 O 0.56916 1.01074 0.92134
 H119 H 0.56723 1.11222 1.03438
 H120 H 0.43518 1.00707 0.87359
 H121 H 0.59961 0.87146 0.97830
 H122 H 0.40452 0.94767 1.10232
 H123 H 0.55379 1.08859 0.84073
 H124 H 0.55518 0.98546 0.81522
 H125 H 0.50196 0.81058 0.90366
 H126 H 0.47600 0.78342 1.00284
 H127 H 0.48328 0.89284 1.15920
 H128 H 0.49961 0.99353 1.18472
 H129 H 0.43454 1.15031 1.08808
 H130 H 0.47221 1.17769 0.99693
 O131 O 0.14713 0.42014 -0.08996
 O132 O 0.08162 0.35031 -0.04367
 C133 C 0.12979 0.36455 -0.07720
 O134 O 0.09336 0.59450 0.11110
 O135 O 0.03936 0.65586 0.05015
 C136 C 0.07552 0.64756 0.09381
 O137 O 0.10774 0.42392 0.11235
 O138 O 0.06432 0.35106 0.05290
 C139 C 0.09834 0.36750 0.09621
 O140 O 0.12927 0.59201 -0.09724
 O141 O 0.05565 0.65453 -0.05189
 C142 C 0.10465 0.64542 -0.08618
 Zr143 Zr 0.10068 0.50362 -0.06752
 O144 O 0.19880 0.51869 -0.05497
 O145 O 0.11793 0.49570 -0.15808
 Zr146 Zr 0.07386 0.50636 0.07723
 O147 O 0.17278 0.52010 0.08674
 O148 O 0.05867 0.50352 0.16820
 O149 O 0.10376 0.45139 0.00743
 O150 O 0.09435 0.55916 0.00517
 O151 O -0.08763 0.56984 -0.12459
 O152 O -0.04744 0.64480 -0.06546
 C153 C -0.07925 0.62653 -0.10991
 O154 O -0.11929 0.40519 0.08161
 O155 O -0.04267 0.34236 0.04122
 C156 C -0.09460 0.35168 0.07186
 O157 O -0.12623 0.57776 0.08517
 O158 O -0.06305 0.64757 0.03620
 C159 C -0.10908 0.63337 0.07227
 O160 O -0.08239 0.39957 -0.11505
 O161 O -0.02420 0.33936 -0.05656
 C162 C -0.06334 0.34673 -0.09794
 Zr163 Zr -0.05808 0.48893 -0.08599
 O164 O -0.15802 0.48372 -0.09145
 O165 O -0.04519 0.47994 -0.17693
 Zr166 Zr -0.08469 0.49332 0.05813
 O167 O -0.18383 0.49082 0.04573
 O168 O -0.10083 0.48880 0.14894
 Zr169 Zr 0.01507 0.40751 -0.00278
 Zr170 Zr 0.00094 0.58901 -0.00656
 O171 O -0.08673 0.54369 -0.01660
 O172 O -0.07909 0.43539 -0.01418
 O173 O 0.01902 0.55008 -0.08939
 O174 O -0.00353 0.44745 0.07939
 O175 O 0.02725 0.44354 -0.08646
 O176 O -0.01141 0.55434 0.07790
 H177 H 0.12891 0.58998 0.00881
 H178 H -0.00807 0.42108 0.11388
 H179 H -0.12539 0.56835 -0.02144
 H180 H 0.03493 0.41566 -0.12005
 H181 H 0.02639 0.53460 0.17887
 H182 H -0.08060 0.52538 0.16635
 H183 H -0.19141 0.46075 0.01428
 H184 H -0.16676 0.48060 -0.13326
 H185 H -0.01339 0.51118 -0.18928
 H186 H 0.09261 0.52739 -0.17658
 H187 H 0.21307 0.48652 -0.02882
 H188 H 0.19483 0.48378 0.07027
 O189 O 1.11035 -0.07390 0.58529
 O190 O 1.03320 -0.03653 0.64827
 C191 C 1.08561 -0.06567 0.63705
 O192 O 1.08442 0.14943 0.43828
 O193 O 1.04749 0.08821 0.36505
 C194 C 1.07880 0.13578 0.38413
 O195 O 1.07345 0.13361 0.59774
 O196 O 1.01898 0.06332 0.65377
 C197 C 1.05674 0.11003 0.64714
 O198 O 1.11996 -0.07228 0.42310
 O199 O 1.06111 -0.02177 0.35721
 C200 C 1.10659 -0.05849 0.37060
 Zr201 Zr 1.07723 -0.04712 0.50357
 O202 O 1.17671 -0.03129 0.50268
 O203 O 1.09197 -0.14281 0.50383
 Zr204 Zr 1.05184 0.10397 0.51324
 O205 O 1.15150 0.11855 0.51333
 O206 O 1.03553 0.19883 0.52516
 O207 O 1.07155 0.02674 0.56077
 O208 O 1.08123 0.03376 0.45828
 O209 O 0.91586 -0.11138 0.40891
 O210 O 0.95973 -0.03669 0.35061
 C211 C 0.93386 -0.09026 0.35871
 O212 O 0.84801 0.09774 0.58409
 O213 O 0.91001 0.04930 0.64875
 C214 C 0.86204 0.08298 0.63626
 O215 O 0.87201 0.12139 0.42674
 O216 O 0.93887 0.07532 0.35908
 C217 C 0.89331 0.11309 0.37428
 O218 O 0.88221 -0.11307 0.56906
 O219 O 0.92541 -0.05426 0.64090
 C220 C 0.89038 -0.09943 0.62309
 Zr221 Zr 0.91907 -0.07164 0.49245
 O222 O 0.82055 -0.07836 0.47712
 O223 O 0.92144 -0.16829 0.49078
 Zr224 Zr 0.89407 0.07800 0.50319
 O225 O 0.79814 0.05390 0.48842
 O226 O 0.86588 0.17003 0.51412
 Zr227 Zr 0.97691 0.00955 0.58948
 Zr228 Zr 0.99493 0.02250 0.41560
 O229 O 0.90066 0.00527 0.44509
 O230 O 0.88893 -0.00266 0.54942
 O231 O 1.00579 -0.06734 0.44652
 O232 O 0.96606 0.09891 0.55895
 O233 O 0.99489 -0.07461 0.54728
 O234 O 0.97636 0.10698 0.45778
 H235 H 1.12075 0.04094 0.43467
 H236 H 0.95804 0.13291 0.58694
 H237 H 0.86834 0.00146 0.41501
 H238 H 0.99866 -0.11183 0.57089
 H239 H 1.00931 0.21236 0.49306
 H240 H 0.90527 0.19466 0.51717
 H241 H 0.77959 0.03658 0.52467
 H242 H 0.79732 -0.07144 0.51456
 H243 H 0.96623 -0.17975 0.49545
 H244 H 1.07034 -0.16058 0.47006
 H245 H 1.18607 -0.00533 0.53675
 H246 H 1.16799 0.09669 0.54680
 N247 N 1.12426 0.16867 0.29383
 N248 N 1.10962 0.17790 0.34522
 N249 N 0.90684 -0.13290 0.26795
 N250 N 0.93683 -0.13387 0.31267
 N251 N 0.83675 0.11422 0.73221
 N252 N 0.82131 0.10665 0.68163
 N253 N 1.09181 -0.09739 0.73406
 N254 N 1.11865 -0.09047 0.68430
 N255 N 0.24565 1.08036 1.14002
 N256 N 0.27276 1.03474 1.12004
 N257 N 0.28552 0.87038 0.83268
 N258 N 0.34390 0.87424 0.82955
 N259 N 0.73349 0.89099 1.13709
 N260 N 0.68959 0.86013 1.11333
 N261 N 0.74399 1.14267 0.91276
 N262 N 0.69387 1.15434 0.93923
 N263 N 0.13364 0.26692 0.11005
 N264 N 0.12416 0.32059 0.13040
 N265 N -0.06484 0.24160 -0.12563
 N266 N -0.09147 0.29367 -0.12343
 N267 N 0.10259 0.74687 -0.11846
 N268 N 0.13338 0.69743 -0.11369
 N269 N -0.10714 0.73089 0.11079
 N270 N -0.13971 0.68253 0.10228
 N271 N 1.09377 0.10287 0.74060
 N272 N 1.08394 0.13593 0.69710
 N273 N 0.86970 -0.13730 0.71650
 N274 N 0.85855 -0.13775 0.66452
 N275 N 1.13631 -0.09859 0.27652
 N276 N 1.14829 -0.08449 0.32690
 N277 N 0.86243 0.14433 0.28100
 N278 N 0.86524 0.15217 0.33360
 N279 N 0.12495 0.27416 -0.12688
 N280 N 0.16115 0.31478 -0.10540
 N281 N -0.09668 0.25112 0.10790
 N282 N -0.12594 0.30049 0.09849
 N283 N -0.10435 0.72542 -0.14450
 N284 N -0.10933 0.66925 -0.14590
 N285 N 0.07413 0.74789 0.13621
 N286 N 0.10388 0.69964 0.12075
 N287 N 0.25803 1.09165 0.88149
 N288 N 0.30776 1.11940 0.89759
 N289 N 0.26079 0.88024 1.10482
 N290 N 0.29711 0.84115 1.07951
 N291 N 0.72255 1.10946 1.12346
 N292 N 0.67135 1.09327 1.15056
 N293 N 0.77626 0.89901 0.90150
 N294 N 0.72599 0.91250 0.87562
   
