data_POSCAR
  _audit_creation_date              2014-09-24
  _audit_creation_method            'ToBaCCo'
  _symmetry_space_group_name_H-M    'P1'
  _symmetry_Int_Tables_number       1
  _symmetry_cell_setting            triclinic
  loop_
  _symmetry_equiv_pos_as_xyz
 x,y,z
_cell_length_a 42.8302
_cell_length_b 41.8229
_cell_length_c 42.0242
_cell_angle_alpha 87.506700
_cell_angle_beta 91.305200
_cell_angle_gamma 90.470700
loop_
  _atom_site_label
  _atom_site_type_symbol
  _atom_site_fract_x
  _atom_site_fract_y
  _atom_site_fract_z
C1 C 0.26392 0.50417 1.00299
 C2 C 0.74873 0.51682 -0.00200
 C3 C -0.00722 0.24671 0.50559
 C4 C 0.99325 0.73697 0.49189
 C5 C 0.49625 -0.00483 0.26059
 C6 C 0.48763 0.02390 0.74134
 C7 C 0.28259 0.02774 0.45549
 H8 H 0.28197 0.04267 0.47585
 C9 C 0.30389 0.03451 0.43144
 H10 H 0.31953 0.05485 0.43337
 C11 C 0.26373 -0.01762 0.42897
 H12 H 0.24852 -0.03832 0.42842
 C13 C 0.28472 -0.01174 0.40436
 H14 H 0.28451 -0.02767 0.38479
 N15 N 0.26312 0.00200 0.45392
 C16 C 0.19065 0.02236 0.52108
 H17 H 0.19232 0.00081 0.53620
 C18 C 0.16864 0.04552 0.52729
 H19 H 0.15340 0.04168 0.54735
 C20 C 0.20833 0.05323 0.47632
 H21 H 0.22367 0.05595 0.45631
 C22 C 0.18648 0.07700 0.48158
 H23 H 0.18592 0.09813 0.46583
 Zn24 Zn 0.23793 -0.00717 0.48964
 N25 N 0.21008 0.02665 0.49611
 C26 C 0.26641 0.00942 0.54808
 N27 N 0.26563 -0.01260 0.52522
 C28 C 0.28682 -0.03662 0.52544
 C29 C 0.31015 -0.03898 0.54920
 C30 C 0.28945 0.00815 0.57213
 C31 C 0.19217 -0.04215 0.45859
 C32 C 0.17071 -0.06681 0.45378
 C33 C 0.19154 -0.09466 0.50108
 C34 C 0.21291 -0.06951 0.50473
 N35 N 0.21274 -0.04390 0.48367
 H36 H 0.24984 0.02878 0.54713
 H37 H 0.28607 -0.05347 0.50662
 H38 H 0.32705 -0.05808 0.54855
 H39 H 0.28903 0.02628 0.58961
 H40 H 0.19212 -0.02120 0.44255
 H41 H 0.15443 -0.06460 0.43369
 H42 H 0.19241 -0.11444 0.51844
 H43 H 0.22903 -0.07009 0.52491
 C44 C 0.16611 0.07311 0.50729
 C45 C 0.30559 0.01435 0.40574
 C46 C 0.16965 -0.09336 0.47542
 C47 C 0.31231 -0.01599 0.57263
 C48 C 0.71032 0.01631 0.55909
 H49 H 0.71634 0.03835 0.54617
 C50 C 0.68810 0.01646 0.58291
 H51 H 0.67738 0.03894 0.58786
 C52 C 0.71550 -0.03996 0.56594
 H53 H 0.72554 -0.06196 0.55844
 C54 C 0.69344 -0.04090 0.58991
 H55 H 0.68695 -0.06376 0.60107
 N56 N 0.72326 -0.01166 0.55094
 C57 C 0.79340 0.03324 0.53439
 H58 H 0.79586 0.01719 0.55505
 C59 C 0.81325 0.05980 0.53123
 H60 H 0.83119 0.06313 0.54931
 C61 C 0.76759 0.04768 0.48553
 H62 H 0.74959 0.04327 0.46788
 C63 C 0.78700 0.07443 0.48135
 H64 H 0.78398 0.09000 0.46024
 Zn65 Zn 0.74821 -0.01170 0.51450
 N66 N 0.77170 0.02711 0.51126
 C67 C 0.73293 -0.01374 0.44815
 N68 N 0.72128 -0.01501 0.47803
 C69 C 0.69005 -0.01771 0.48264
 C70 C 0.66914 -0.01859 0.45677
 C71 C 0.71285 -0.01450 0.42151
 C72 C 0.79360 -0.05116 0.54545
 C73 C 0.81615 -0.07508 0.54828
 C74 C 0.80152 -0.09106 0.49547
 C75 C 0.77917 -0.06688 0.49375
 N76 N 0.77619 -0.04689 0.51815
 H77 H 0.75786 -0.01149 0.44497
 H78 H 0.68110 -0.01885 0.50648
 H79 H 0.64464 -0.02048 0.46198
 H80 H 0.72272 -0.01299 0.39797
 H81 H 0.79001 -0.03598 0.56516
 H82 H 0.83005 -0.07753 0.57011
 H83 H 0.80308 -0.10598 0.47528
 H84 H 0.76453 -0.06398 0.47263
 C85 C 0.81046 0.08053 0.50410
 C86 C 0.67910 -0.01256 0.59843
 C87 C 0.82102 -0.09506 0.52285
 C88 C 0.68036 -0.01661 0.42543
 C89 C 0.47852 0.20409 1.03400
 H90 H 0.46349 0.20529 1.01294
 C91 C 0.47330 0.18070 1.05795
 H92 H 0.45410 0.16395 1.05518
 C93 C 0.52193 0.22443 1.06286
 H94 H 0.54101 0.24137 1.06450
 C95 C 0.51760 0.20124 1.08746
 H96 H 0.53319 0.20125 1.10804
 N97 N 0.50226 0.22558 1.03696
 C98 C 0.47018 0.30492 0.97456
 H99 H 0.48945 0.30702 0.95838
 C100 C 0.44551 0.32655 0.97157
 H101 H 0.44649 0.34527 0.95309
 C102 C 0.44719 0.27893 1.01953
 H103 H 0.44832 0.26095 1.03874
 C104 C 0.42205 0.30003 1.01741
 H105 H 0.40383 0.29775 1.03484
 Zn106 Zn 0.50646 0.25561 1.00228
 N107 N 0.47056 0.28166 0.99818
 C108 C 0.48896 0.23191 0.94195
 N109 N 0.51116 0.23156 0.96560
 C110 C 0.53607 0.21171 0.96516
 C111 C 0.53934 0.19100 0.94032
 C112 C 0.49115 0.21143 0.91670
 C113 C 0.54081 0.30206 1.03399
 C114 C 0.56355 0.32575 1.03788
 C115 C 0.58588 0.31154 0.98820
 C116 C 0.56287 0.28783 0.98549
 N117 N 0.54084 0.28368 1.00812
 H118 H 0.46900 0.24741 0.94306
 H119 H 0.55313 0.21156 0.98456
 H120 H 0.55926 0.17516 0.94079
 H121 H 0.47283 0.21247 0.89864
 H122 H 0.52259 0.29879 1.05127
 H123 H 0.56275 0.34027 1.05859
 H124 H 0.60278 0.31403 0.96957
 H125 H 0.56206 0.27348 0.96472
 C126 C 0.42095 0.32424 0.99325
 C127 C 0.49296 0.17893 1.08507
 C128 C 0.58621 0.33136 1.01455
 C129 C 0.51647 0.19010 0.91582
 C130 C 0.48616 0.81216 -0.04799
 H131 H 0.46537 0.81238 -0.03400
 C132 C 0.48906 0.83391 -0.07382
 H133 H 0.47070 0.85117 -0.07859
 C134 C 0.53537 0.78977 -0.05803
 H135 H 0.55322 0.77233 -0.05210
 C136 C 0.53935 0.81134 -0.08407
 H137 H 0.56045 0.81053 -0.09772
 N138 N 0.50928 0.79096 -0.04021
 C139 C 0.44861 0.73125 0.01682
 H140 H 0.45612 0.73812 0.04032
 C141 C 0.42266 0.71125 0.01331
 H142 H 0.40987 0.70375 0.03427
 C143 C 0.45661 0.73265 -0.03887
 H144 H 0.47041 0.74059 -0.05899
 C145 C 0.43076 0.71268 -0.04346
 H146 H 0.42464 0.70544 -0.06726
 Zn147 Zn 0.50282 0.76423 -0.00311
 N148 N 0.46517 0.74119 -0.00904
 C149 C 0.47128 0.80639 0.03469
 N150 N 0.49869 0.79065 0.03218
 C151 C 0.52237 0.79424 0.05388
 C152 C 0.51924 0.81497 0.07886
 C153 C 0.46711 0.82722 0.05918
 C154 C 0.52698 0.70288 0.00979
 C155 C 0.54936 0.67930 0.01578
 C156 C 0.58960 0.71982 0.01054
 C157 C 0.56624 0.74287 0.00547
 N158 N 0.53558 0.73402 0.00462
 H159 H 0.45241 0.80263 0.01774
 H160 H 0.54390 0.78136 0.05169
 H161 H 0.53879 0.81736 0.09528
 H162 H 0.44504 0.83958 0.06036
 H163 H 0.50263 0.69609 0.00946
 H164 H 0.54168 0.65472 0.01980
 H165 H 0.61366 0.72778 0.01111
 H166 H 0.57262 0.76784 0.00206
 C167 C 0.41397 0.70104 -0.01710
 C168 C 0.51600 0.83374 -0.09223
 C169 C 0.58122 0.68733 0.01563
 C170 C 0.49128 0.83215 0.08161
 C171 C 1.03789 0.47062 0.19030
 H172 H 1.01697 0.45594 0.19033
 C173 C 1.06090 0.46585 0.16810
 H174 H 1.05753 0.44736 0.15106
 C175 C 1.06730 0.51281 0.21236
 H176 H 1.06941 0.53141 0.22935
 C177 C 1.09094 0.50891 0.19047
 H178 H 1.11085 0.52487 0.19118
 N179 N 1.04159 0.49354 0.21204
 C180 C 0.98233 0.45848 0.28899
 H181 H 0.96552 0.47757 0.28983
 C182 C 0.98179 0.43311 0.31178
 H183 H 0.96442 0.43308 0.33005
 C184 C 1.02702 0.43712 0.26562
 H185 H 1.04533 0.43929 0.24841
 C186 C 1.02743 0.41150 0.28796
 H187 H 1.04581 0.39391 0.28734
 Zn188 Zn 1.00842 0.49777 0.24038
 N189 N 1.00485 0.46012 0.26666
 C190 C 0.94718 0.48505 0.21496
 N191 N 0.97212 0.50537 0.21479
 C192 C 0.97313 0.53142 0.19439
 C193 C 0.94830 0.53814 0.17322
 C194 C 0.92182 0.49069 0.19392
 C195 C 1.04058 0.52963 0.28859
 C196 C 1.04531 0.55248 0.31153
 C197 C 0.99875 0.57949 0.29158
 C198 C 0.99498 0.55612 0.26905
 N199 N 1.01570 0.53179 0.26797
 H200 H 0.94713 0.46413 0.23099
 H201 H 0.99350 0.54689 0.19443
 H202 H 0.94984 0.55905 0.15716
 H203 H 0.90253 0.47393 0.19484
 H204 H 1.05640 0.50969 0.28763
 H205 H 1.06510 0.54993 0.32795
 H206 H 0.98141 0.59803 0.29152
 H207 H 0.97489 0.55702 0.25305
 C208 C 1.00489 0.40942 0.31162
 C209 C 1.08794 0.48496 0.16801
 C210 C 1.02405 0.57771 0.31371
 C211 C 0.92223 0.51754 0.17236
 C212 C -0.03090 0.46376 0.80999
 H213 H -0.01362 0.44506 0.80963
 C214 C -0.05434 0.46194 0.83249
 H215 H -0.05499 0.44167 0.84941
 C216 C -0.05070 0.51298 0.78839
 H217 H -0.04900 0.53295 0.77132
 C218 C -0.07461 0.51214 0.81058
 H219 H -0.09135 0.53136 0.80961
 N220 N -0.02963 0.48883 0.78837
 C221 C 0.02203 0.44864 0.71171
 H222 H 0.04199 0.46464 0.71071
 C223 C 0.01878 0.42453 0.68987
 H224 H 0.03638 0.42243 0.67205
 C225 C -0.02619 0.43383 0.73490
 H226 H -0.04411 0.43810 0.75184
 C227 C -0.03046 0.40957 0.71342
 H228 H -0.05152 0.39506 0.71432
 Zn229 Zn 0.00378 0.48836 0.75973
 N230 N -0.00025 0.45278 0.73367
 C231 C 0.06043 0.46072 0.78467
 N232 N 0.04090 0.48615 0.78490
 C233 C 0.04628 0.51046 0.80476
 C234 C 0.07249 0.51023 0.82509
 C235 C 0.08685 0.45934 0.80478
 C236 C -0.02080 0.53063 0.71210
 C237 C -0.02018 0.55537 0.68866
 C238 C 0.03235 0.56829 0.70620
 C239 C 0.03059 0.54347 0.72939
 N240 N 0.00432 0.52517 0.73188
 H241 H 0.05531 0.44122 0.76931
 H242 H 0.02995 0.53007 0.80488
 H243 H 0.07543 0.52996 0.84060
 H244 H 0.10199 0.43874 0.80431
 H245 H -0.04108 0.51513 0.71400
 H246 H -0.04044 0.55830 0.67310
 H247 H 0.05379 0.58212 0.70438
 H248 H 0.05071 0.53817 0.74460
 C249 C -0.00788 0.40470 0.69052
 C250 C -0.07652 0.48634 0.83315
 C251 C 0.00692 0.57449 0.68515
 C252 C 0.09338 0.48430 0.82538
 C253 C 0.01967 0.22514 0.49784
 C254 C 0.03329 0.20397 0.52060
 C255 C 0.05872 0.18234 0.51299
 N256 N 0.07067 0.16182 0.53592
 N257 N 0.09361 0.14198 0.52940
 C258 C 0.10549 0.14195 0.49970
 N259 N 0.09360 0.16255 0.47679
 N260 N 0.07064 0.18238 0.48331
 C261 C 0.13055 0.11985 0.49201
 C262 C 0.14226 0.09709 0.51435
 H263 H 0.02492 0.20323 0.54476
 H264 H 0.13888 0.12091 0.46789
 H265 H 0.02732 0.22478 0.47345
 H266 H 0.13223 0.09554 0.53781
 C267 C 0.73018 0.54763 -0.00131
 C268 C 0.71041 0.55467 0.02333
 C269 C 0.69153 0.58395 0.02201
 N270 N 0.66548 0.58539 0.03963
 N271 N 0.64759 0.61135 0.03773
 C272 C 0.65531 0.63699 0.01843
 N273 N 0.68172 0.63580 0.00133
 N274 N 0.69942 0.60971 0.00296
 C275 C 0.63500 0.66523 0.01508
 C276 C 0.60300 0.66252 0.02059
 H277 H 0.70776 0.53787 0.04340
 H278 H 0.64497 0.68713 0.00505
 H279 H 0.73050 0.56407 -0.02198
 H280 H 0.59406 0.63888 0.02724
 C281 C 0.96659 -0.23928 0.48899
 C282 C 0.95743 -0.22111 0.51423
 C283 C 0.93075 -0.19914 0.51096
 N284 N 0.92239 -0.18171 0.53586
 N285 N 0.89803 -0.16205 0.53315
 C286 C 0.88110 -0.15918 0.50543
 N287 N 0.88945 -0.17663 0.48059
 N288 N 0.91378 -0.19624 0.48330
 C289 C 0.85429 -0.13744 0.50164
 C290 C 0.84526 -0.11766 0.52578
 H291 H 0.96973 -0.22361 0.53700
 H292 H 0.84241 -0.13682 0.47871
 H293 H 0.95476 -0.23536 0.46609
 H294 H 0.85858 -0.11918 0.54804
 C295 C 0.28267 0.47380 1.00038
 C296 C 0.30130 0.46929 0.97411
 C297 C 0.32271 0.44219 0.97233
 N298 N 0.32671 0.42055 0.99711
 N299 N 0.34721 0.39691 0.99547
 C300 C 0.36442 0.39401 0.96899
 N301 N 0.36023 0.41551 0.94419
 N302 N 0.33978 0.43918 0.94584
 C303 C 0.38816 0.36896 0.96720
 C304 C 0.39497 0.34751 0.99275
 H305 H 0.30071 0.48690 0.95442
 H306 H 0.40081 0.36810 0.94531
 H307 H 0.28340 0.45638 1.02024
 H308 H 0.38073 0.34793 1.01371
 C309 C 0.96485 0.22554 0.51359
 C310 C 0.94894 0.20813 0.49065
 C311 C 0.92320 0.18600 0.49874
 N312 N 0.90689 0.17164 0.47521
 N313 N 0.88381 0.15115 0.48217
 C314 C 0.87623 0.14421 0.51293
 N315 N 0.89257 0.15854 0.53646
 N316 N 0.91558 0.17913 0.52950
 C317 C 0.85168 0.12063 0.52101
 C318 C 0.83268 0.10719 0.49765
 H319 H 0.95562 0.21085 0.46596
 H320 H 0.84882 0.11374 0.54588
 H321 H 0.95863 0.22187 0.53836
 H322 H 0.83431 0.11644 0.47324
 C323 C 0.28736 0.53148 0.00531
 C324 C 0.29293 0.55506 -0.01854
 C325 C 0.31545 0.58119 -0.01339
 N326 N 0.32114 0.60344 -0.03707
 N327 N 0.34147 0.62720 -0.03246
 C328 C 0.35675 0.62958 -0.00395
 N329 N 0.35096 0.60741 0.01970
 N330 N 0.33070 0.58369 0.01509
 C331 C 0.37973 0.65509 0.00167
 C332 C 0.38838 0.67766 -0.02198
 H333 H 0.28080 0.55449 -0.04138
 H334 H 0.39132 0.65476 0.02482
 H335 H 0.30131 0.53195 0.02715
 H336 H 0.37800 0.67633 -0.04565
 C337 C 0.02342 -0.24421 0.49638
 C338 C 0.03533 -0.22388 0.47229
 C339 C 0.06300 -0.20344 0.47729
 N340 N 0.07148 -0.18165 0.45417
 N341 N 0.09606 -0.16247 0.45855
 C342 C 0.11318 -0.16445 0.48617
 N343 N 0.10486 -0.18646 0.50918
 N344 N 0.08021 -0.20557 0.50485
 C345 C 0.13985 -0.14272 0.49176
 C346 C 0.14635 -0.11677 0.47070
 H347 H 0.02339 -0.22227 0.44928
 H348 H 0.15312 -0.14666 0.51371
 H349 H 0.03430 -0.24400 0.51990
 H350 H 0.13133 -0.11371 0.44969
 C351 C 0.72631 0.48921 0.99186
 C352 C 0.70820 0.47449 1.01567
 C353 C 0.68737 0.44707 1.00996
 N354 N 0.66945 0.43494 1.03387
 N355 N 0.65084 0.40977 1.02943
 C356 C 0.64955 0.39566 1.00092
 N357 N 0.66755 0.40773 0.97701
 N358 N 0.68612 0.43298 0.98143
 C359 C 0.62901 0.36783 0.99562
 C360 C 0.60758 0.35679 1.01837
 H361 H 0.70986 0.48276 1.03969
 H362 H 0.63035 0.35709 0.97280
 H363 H 0.72326 0.48153 0.96766
 H364 H 0.60656 0.36966 1.04016
 C365 C 0.50206 0.02642 1.24166
 C366 C 0.48043 0.03937 1.21940
 C367 C 0.48755 0.06719 1.19809
 N368 N 0.46575 0.07779 1.17631
 N369 N 0.47198 0.10233 1.15615
 C370 C 0.50026 0.11724 1.15698
 N371 N 0.52203 0.10675 1.17890
 N372 N 0.51581 0.08217 1.19908
 C373 C 0.50767 0.14385 1.13417
 C374 C 0.48649 0.15378 1.11005
 H375 H 0.45761 0.02833 1.21692
 H376 H 0.53062 0.15467 1.13584
 H377 H 0.52497 0.03748 1.24324
 H378 H 0.46424 0.14139 1.10840
 C379 C -0.01274 0.71355 0.51978
 C380 C 0.01079 0.69573 0.53562
 C381 C 0.00429 0.67311 0.56249
 N382 N 0.02831 0.66015 0.58011
 N383 N 0.02287 0.63977 0.60464
 C384 C -0.00683 0.63151 0.61242
 N385 N -0.03085 0.64433 0.59468
 N386 N -0.02541 0.66485 0.57024
 C387 C -0.01318 0.60844 0.63901
 C388 C 0.01030 0.59848 0.66087
 H389 H 0.03484 0.69899 0.52872
 H390 H -0.03690 0.59982 0.64115
 H391 H -0.03675 0.70908 0.52641
 H392 H 0.03294 0.61008 0.65878
 C393 C 0.48518 0.99346 -0.23768
 C394 C 0.51050 0.97973 -0.22072
 C395 C 0.50684 0.95131 -0.19919
 N396 N 0.53214 0.93829 -0.18366
 N397 N 0.52899 0.91290 -0.16366
 C398 C 0.50040 0.89959 -0.15852
 N399 N 0.47516 0.91255 -0.17413
 N400 N 0.47831 0.93788 -0.19413
 C401 C 0.49603 0.87265 -0.13537
 C402 C 0.52083 0.85760 -0.11878
 H403 H 0.53362 0.99004 -0.22326
 H404 H 0.47229 0.86490 -0.13095
 H405 H 0.46206 0.98353 -0.23372
 H406 H 0.54456 0.86352 -0.12535
 C407 C 0.98512 0.26943 0.47736
 C408 C 1.00815 0.28816 0.46253
 C409 C 1.00147 0.31039 0.43526
 N410 N 1.02549 0.32378 0.41885
 N411 N 1.02007 0.34393 0.39399
 C412 C 0.99039 0.35158 0.38466
 N413 N 0.96632 0.33836 0.40121
 N414 N 0.97174 0.31802 0.42600
 C415 C 0.98435 0.37442 0.35763
 C416 C 1.00813 0.38406 0.33711
 H417 H 1.03222 0.28569 0.47069
 H418 H 0.96090 0.38344 0.35386
 H419 H 0.96097 0.27250 0.46964
 H420 H 1.03062 0.37245 0.33990
 C421 C 0.50257 0.96741 0.23952
 C422 C 0.48254 0.95953 0.21432
 C423 C 0.48933 0.93392 0.19267
 N424 N 0.46831 0.92695 0.16934
 N425 N 0.47408 0.90409 0.14923
 C426 C 0.50112 0.88733 0.15167
 N427 N 0.52217 0.89430 0.17503
 N428 N 0.51639 0.91716 0.19519
 C429 C 0.50796 0.86239 0.12915
 C430 C 0.48637 0.85429 0.10526
 H431 H 0.46094 0.97247 0.21034
 H432 H 0.53042 0.85092 0.13166
 H433 H 0.52420 0.95431 0.24293
 H434 H 0.46408 0.86643 0.10466
 C435 C 0.00157 0.26681 0.53369
 C436 C -0.02041 0.28558 0.54811
 C437 C -0.01239 0.30632 0.57446
 N438 N -0.03544 0.32141 0.58937
 N439 N -0.02871 0.34056 0.61310
 C440 C 0.00136 0.34541 0.62278
 N441 N 0.02445 0.33039 0.60780
 N442 N 0.01771 0.31112 0.58412
 C443 C 0.00909 0.36725 0.64837
 C444 C -0.01406 0.38047 0.66649
 H445 H -0.04455 0.28479 0.53987
 H446 H 0.03345 0.37275 0.65300
 H447 H 0.02584 0.26820 0.54146
 H448 H -0.03800 0.37252 0.66311
 C449 C 0.48534 0.05202 0.76285
 C450 C 0.50957 0.06093 0.78355
 C451 C 0.50646 0.08740 0.80522
 N452 N 0.52992 0.09388 0.82627
 N453 N 0.52732 0.11761 0.84618
 C454 C 0.50118 0.13583 0.84572
 N455 N 0.47780 0.12944 0.82455
 N456 N 0.48037 0.10568 0.80469
 C457 C 0.49750 0.16172 0.86799
 C458 C 0.51958 0.16745 0.89222
 H459 H 0.53141 0.04807 0.78396
 H460 H 0.47620 0.17529 0.86556
 H461 H 0.46320 0.06425 0.76401
 H462 H 0.54015 0.15247 0.89358
 C463 C 0.99350 0.71813 0.46182
 C464 C 1.01795 0.69828 0.45390
 C465 C 1.01605 0.67946 0.42505
 N466 N 1.03829 0.65758 0.41941
 N467 N 1.03623 0.64010 0.39362
 C468 C 1.01191 0.64400 0.37248
 N469 N 0.98988 0.66604 0.37802
 N470 N 0.99190 0.68341 0.40378
 C471 C 1.00831 0.62438 0.34437
 C472 C 1.02841 0.59921 0.33842
 H473 H 1.03855 0.69626 0.46924
 H474 H 0.98832 0.62969 0.32904
 H475 H 0.97252 0.71809 0.44689
 H476 H 1.04821 0.59540 0.35465
 C477 C 1.24583 0.50281 0.03360
 C478 C 1.22190 0.48067 0.03966
 C479 C 1.20167 0.48311 0.06727
 N480 N 1.17534 0.46498 0.06956
 N481 N 1.15602 0.46825 0.09360
 C482 C 1.16236 0.48973 0.11628
 N483 N 1.18887 0.50756 0.11418
 N484 N 1.20812 0.50436 0.09011
 C485 C 1.14073 0.49463 0.14231
 C486 C 1.11159 0.47951 0.14359
 H487 H 1.21664 0.46255 0.02265
 H488 H 1.14800 0.51111 0.16017
 H489 H 1.25015 0.52116 0.05067
 H490 H 1.10556 0.46272 0.12547
 C491 C 0.51766 0.02639 0.72275
 C492 C 0.53047 0.00054 0.70777
 C493 C 0.55916 0.00356 0.68925
 N494 N 0.57122 -0.02263 0.67623
 N495 N 0.59710 -0.02029 0.65926
 C496 C 0.61192 0.00833 0.65472
 N497 N 0.59988 0.03451 0.66778
 N498 N 0.57401 0.03217 0.68478
 C499 C 0.63993 0.01154 0.63512
 C500 C 0.65345 -0.01478 0.62158
 H501 H 0.51945 -0.02280 0.71013
 H502 H 0.64957 0.03529 0.63113
 H503 H 0.52835 0.04982 0.71916
 H504 H 0.64428 -0.03842 0.62770
 C505 C -0.22833 0.51990 0.97094
 C506 C -0.20938 0.49468 0.96270
 C507 C -0.18637 0.49837 0.93726
 N508 N -0.16858 0.47316 0.92991
 N509 N -0.14758 0.47624 0.90704
 C510 C -0.14357 0.50467 0.89067
 N511 N -0.16139 0.52986 0.89802
 N512 N -0.18240 0.52677 0.92086
 C513 C -0.12026 0.50861 0.86554
 C514 C -0.10111 0.48352 0.85742
 H515 H -0.21146 0.47167 0.97537
 H516 H -0.11785 0.53207 0.85401
 H517 H -0.22526 0.54294 0.95854
 H518 H -0.10346 0.46069 0.87038
 C519 C 0.46301 -0.00709 0.27263
 C520 C 0.44986 0.01722 0.28963
 C521 C 0.42034 0.01281 0.30658
 N522 N 0.40966 0.03652 0.32440
 N523 N 0.38389 0.03228 0.34130
 C524 C 0.36783 0.00414 0.34101
 N525 N 0.37836 -0.01946 0.32295
 N526 N 0.40412 -0.01521 0.30605
 C527 C 0.34041 -0.00171 0.36102
 C528 C 0.32990 0.02095 0.38169
 H529 H 0.46255 0.03952 0.29205
 H530 H 0.32983 -0.02525 0.36078
 H531 H 0.45071 -0.02978 0.27150
 H532 H 0.34181 0.04389 0.38208
 C533 C 0.24039 0.50980 0.97558
 C534 C 0.22875 0.48561 0.95653
 C535 C 0.20375 0.49128 0.93245
 N536 N 0.19371 0.46700 0.91434
 N537 N 0.17054 0.47146 0.89297
 C538 C 0.15652 0.50041 0.88894
 N539 N 0.16659 0.52472 0.90701
 N540 N 0.18981 0.52026 0.92834
 C541 C 0.13016 0.50553 0.86625
 C542 C 0.11984 0.48184 0.84586
 H543 H 0.23740 0.46144 0.95988
 H544 H 0.11912 0.52864 0.86608
 H545 H 0.23008 0.53336 0.97281
 H546 H 0.13325 0.45997 0.84584
 C547 C 0.51806 -0.00704 0.28962
 C548 C 0.55060 -0.00647 0.28776
 C549 C 0.57083 -0.00942 0.31651
 N550 N 0.60238 -0.00871 0.31402
 N551 N 0.62081 -0.01133 0.33999
 C552 C 0.60832 -0.01482 0.36939
 N553 N 0.57681 -0.01558 0.37183
 N554 N 0.55842 -0.01294 0.34591
 C555 C 0.62797 -0.01730 0.39854
 C556 C 0.66064 -0.01608 0.39808
 H557 H 0.56140 -0.00405 0.26472
 H558 H 0.61564 -0.01964 0.42061
 H559 H 0.50792 -0.00969 0.31302
 H560 H 0.67147 -0.01405 0.37501
 C561 C 0.76745 0.51086 0.02881
 C562 C 0.78811 0.53364 0.04069
 C563 C 0.80913 0.52652 0.06824
 N564 N 0.83146 0.54805 0.07635
 N565 N 0.85136 0.54152 0.10054
 C566 C 0.84963 0.51323 0.11761
 N567 N 0.82707 0.49184 0.10970
 N568 N 0.80722 0.49833 0.08544
 C569 C 0.87217 0.50518 0.14369
 C570 C 0.89830 0.52453 0.14962
 H571 H 0.78987 0.55693 0.02850
 H572 H 0.86850 0.48285 0.15699
 H573 H 0.76723 0.48708 0.04012
 H574 H 0.90087 0.54615 0.13469
 C575 C 0.46041 0.02557 0.71749
 C576 C 0.45086 -0.00029 0.69955
 C577 C 0.42353 0.00151 0.67765
 N578 N 0.41595 -0.02366 0.65958
 N579 N 0.39093 -0.02251 0.64010
 C580 C 0.37249 0.00382 0.63811
 N581 N 0.38004 0.02891 0.65626
 N582 N 0.40508 0.02780 0.67565
 C583 C 0.34477 0.00578 0.61674
 C584 C 0.33747 -0.01765 0.59487
 H585 H 0.46323 -0.02275 0.70224
 H586 H 0.33099 0.02716 0.61778
 H587 H 0.44875 0.04829 0.71301
 H588 H 0.35314 -0.03782 0.59409
   
