data_POSCAR
  _audit_creation_date              2014-09-24
  _audit_creation_method            'ToBaCCo'
  _symmetry_space_group_name_H-M    'P1'
  _symmetry_Int_Tables_number       1
  _symmetry_cell_setting            triclinic
  loop_
  _symmetry_equiv_pos_as_xyz
 x,y,z
_cell_length_a 54.7433
_cell_length_b 53.0849
_cell_length_c 56.0717
_cell_angle_alpha 89.544900
_cell_angle_beta 89.838500
_cell_angle_gamma 84.693100
loop_
  _atom_site_label
  _atom_site_type_symbol
  _atom_site_fract_x
  _atom_site_fract_y
  _atom_site_fract_z
C1 C 0.19918 0.49453 1.03365
 H2 H 0.19683 0.50960 1.02052
 C3 C 0.18451 0.49543 1.05409
 H4 H 0.17070 0.51124 1.05573
 C5 C 0.21880 0.45486 1.04545
 H6 H 0.23194 0.43889 1.04186
 C7 C 0.20457 0.45495 1.06616
 H8 H 0.20816 0.43929 1.07847
 N9 N 0.21577 0.47440 1.02964
 C10 C 0.26525 0.50147 0.97619
 H11 H 0.26222 0.48853 0.96192
 C12 C 0.28204 0.51942 0.97314
 H13 H 0.29124 0.52054 0.95611
 C14 C 0.25659 0.51546 1.01558
 H15 H 0.24701 0.51340 1.03226
 C16 C 0.27372 0.53335 1.01350
 H17 H 0.27714 0.54478 1.02881
 Zn18 Zn 0.23253 0.47310 1.00011
 N19 N 0.25278 0.49993 0.99706
 C20 C 0.20616 0.49491 0.96031
 N21 N 0.20839 0.47502 0.97585
 C22 C 0.19236 0.45693 0.97551
 C23 C 0.17341 0.45818 0.95879
 C24 C 0.18755 0.49687 0.94327
 C25 C 0.27319 0.44158 1.01322
 C26 C 0.29113 0.42124 1.01218
 C27 C 0.26862 0.40374 0.98023
 C28 C 0.25114 0.42465 0.98173
 N29 N 0.25376 0.44302 0.99808
 H30 H 0.21840 0.50966 0.96142
 H31 H 0.19420 0.44161 0.98841
 H32 H 0.16094 0.44350 0.95866
 H33 H 0.18584 0.51307 0.93133
 H34 H 0.27492 0.45658 1.02589
 H35 H 0.30657 0.42052 1.02429
 H36 H 0.26661 0.38945 0.96689
 H37 H 0.23585 0.42641 0.96951
 C38 C 0.28689 0.53543 0.99208
 C39 C 0.18664 0.47524 1.07080
 C40 C 0.28909 0.40211 0.99539
 C41 C 0.17083 0.47838 0.94238
 C42 C 0.79433 0.51114 -0.03124
 H43 H 0.79549 0.52548 -0.01779
 C44 C 0.80943 0.51093 -0.05137
 H45 H 0.82224 0.52519 -0.05326
 C46 C 0.77724 0.47424 -0.04431
 H47 H 0.76502 0.45969 -0.04132
 C48 C 0.79198 0.47332 -0.06468
 H49 H 0.79056 0.45828 -0.07739
 N50 N 0.77867 0.49294 -0.02806
 C51 C 0.71935 0.51974 0.01990
 H52 H 0.72010 0.50390 0.03222
 C53 C 0.70036 0.53908 0.02159
 H54 H 0.68660 0.53818 0.03540
 C55 C 0.73623 0.53997 -0.01334
 H56 H 0.74997 0.54001 -0.02718
 C57 C 0.71775 0.55992 -0.01206
 H58 H 0.71741 0.57522 -0.02499
 Zn59 Zn 0.76072 0.49245 0.00084
 N60 N 0.73675 0.52046 0.00260
 C61 C 0.77996 0.51109 0.04352
 N62 N 0.78342 0.49342 0.02610
 C63 C 0.80416 0.47725 0.02520
 C64 C 0.82266 0.47873 0.04209
 C65 C 0.79790 0.51307 0.06091
 C66 C 0.72448 0.46187 -0.01217
 C67 C 0.71093 0.44089 -0.01185
 C68 C 0.73803 0.42200 0.01865
 C69 C 0.75098 0.44350 0.01788
 N70 N 0.74411 0.46279 0.00249
 H71 H 0.76356 0.52406 0.04369
 H72 H 0.80656 0.46358 0.01098
 H73 H 0.83916 0.46587 0.04098
 H74 H 0.79510 0.52759 0.07435
 H75 H 0.71938 0.47754 -0.02415
 H76 H 0.69549 0.44043 -0.02380
 H77 H 0.74359 0.40684 0.03107
 H78 H 0.76645 0.44476 0.02959
 C79 C 0.69942 0.55948 0.00545
 C80 C 0.80855 0.49166 -0.06830
 C81 C 0.71765 0.42061 0.00371
 C82 C 0.81972 0.49697 0.06011
 C83 C -0.05281 0.29822 0.47088
 H84 H -0.06686 0.29867 0.48453
 C85 C -0.05522 0.31531 0.45179
 H86 H -0.07116 0.32895 0.45158
 C87 C -0.01424 0.28100 0.45649
 H88 H 0.00186 0.26778 0.45852
 C89 C -0.01576 0.29782 0.43719
 H90 H -0.00101 0.29619 0.42427
 N91 N -0.03255 0.28157 0.47291
 C92 C -0.05002 0.21982 0.51953
 H93 H -0.03500 0.22015 0.53200
 C94 C -0.06518 0.20015 0.52048
 H95 H -0.06196 0.18548 0.53395
 C96 C -0.07179 0.23806 0.48619
 H97 H -0.07380 0.25243 0.47242
 C98 C -0.08762 0.21883 0.48669
 H99 H -0.10182 0.21861 0.47331
 Zn100 Zn -0.02897 0.26105 0.50062
 N101 N -0.05334 0.23809 0.50241
 C102 C -0.04745 0.28019 0.54501
 N103 N -0.03091 0.28277 0.52722
 C104 C -0.01604 0.30190 0.52726
 C105 C -0.01734 0.31935 0.54580
 C106 C -0.04930 0.29718 0.56397
 C107 C 0.00347 0.22200 0.48388
 C108 C 0.02405 0.20446 0.48385
 C109 C 0.04064 0.22697 0.51647
 C110 C 0.01954 0.24396 0.51607
 N111 N 0.00144 0.24107 0.50001
 H112 H -0.05937 0.26509 0.54446
 H113 H -0.00336 0.30376 0.51265
 H114 H -0.00567 0.33473 0.54521
 H115 H -0.06239 0.29464 0.57810
 H116 H -0.01132 0.22002 0.47148
 H117 H 0.02516 0.18909 0.47118
 H118 H 0.05464 0.22905 0.52973
 H119 H 0.01737 0.25896 0.52902
 C120 C -0.08404 0.19932 0.50372
 C121 C -0.03634 0.31575 0.43458
 C122 C 0.04279 0.20665 0.50050
 C123 C -0.03417 0.31715 0.56450
 C124 C 1.01993 0.73413 0.52375
 H125 H 1.00748 0.73323 0.50889
 C126 C 1.01934 0.71686 0.54262
 H127 H 1.00645 0.70260 0.54202
 C128 C 1.05267 0.75309 0.54184
 H129 H 1.06585 0.76701 0.54134
 C130 C 1.05264 0.73628 0.56111
 H131 H 1.06557 0.73783 0.57548
 N132 N 1.03640 0.75179 0.52370
 C133 C 1.00947 0.81657 0.48014
 H134 H 1.02517 0.81786 0.46857
 C135 C 0.98985 0.83531 0.47925
 H136 H 0.99042 0.85094 0.46679
 C137 C 0.98983 0.79475 0.51068
 H138 H 0.99008 0.77915 0.52319
 C139 C 0.96965 0.81290 0.51015
 H140 H 0.95448 0.81114 0.52230
 Zn141 Zn 1.03735 0.77335 0.49673
 N142 N 1.00917 0.79685 0.49573
 C143 C 1.02148 0.75681 0.45186
 N144 N 1.03864 0.75273 0.46930
 C145 C 1.05612 0.73283 0.46833
 C146 C 1.05687 0.71609 0.44921
 C147 C 1.02151 0.74050 0.43243
 C148 C 1.06438 0.81097 0.51464
 C149 C 1.08377 0.82616 0.51638
 C150 C 1.10456 0.80207 0.48472
 C151 C 1.08461 0.78750 0.48337
 N152 N 1.06512 0.79207 0.49834
 H153 H 1.00750 0.77250 0.45312
 H154 H 1.06924 0.72972 0.48269
 H155 H 1.07062 0.70007 0.44901
 H156 H 1.00774 0.74409 0.41869
 H157 H 1.04857 0.81432 0.52619
 H158 H 1.08289 0.84110 0.52948
 H159 H 1.11986 0.79837 0.47257
 H160 H 1.08469 0.77271 0.47027
 C161 C 0.96964 0.83360 0.49442
 C162 C 1.03592 0.71773 0.56162
 C163 C 1.10418 0.82178 0.50129
 C164 C 1.03929 0.71973 0.43100
 C165 C 0.45036 -0.02962 0.26718
 H166 H 0.45182 -0.04589 0.25567
 C167 C 0.43120 -0.02658 0.28373
 H168 H 0.41802 -0.04057 0.28468
 C169 C 0.46638 0.00760 0.28091
 H170 H 0.48031 0.02075 0.27974
 C171 C 0.44759 0.01134 0.29772
 H172 H 0.44699 0.02766 0.30923
 N173 N 0.46728 -0.01243 0.26587
 C174 C 0.51368 -0.06192 0.22399
 H175 H 0.52990 -0.05889 0.23411
 C176 C 0.51405 -0.08267 0.20882
 H177 H 0.53107 -0.09462 0.20761
 C178 C 0.47341 -0.04780 0.21184
 H179 H 0.45774 -0.03385 0.21290
 C180 C 0.47275 -0.06852 0.19675
 H181 H 0.45578 -0.07033 0.18744
 Zn182 Zn 0.49406 -0.01580 0.24431
 N183 N 0.49352 -0.04507 0.22533
 C184 C 0.52550 -0.03731 0.27913
 N185 N 0.52285 -0.01801 0.26300
 C186 C 0.53955 -0.00061 0.26139
 C187 C 0.56004 -0.00243 0.27634
 C188 C 0.54571 -0.03990 0.29432
 C189 C 0.47422 0.03098 0.22402
 C190 C 0.47300 0.05076 0.20737
 C191 C 0.51008 0.03151 0.18910
 C192 C 0.51062 0.01214 0.20613
 N193 N 0.49291 0.01225 0.22318
 H194 H 0.51171 -0.05062 0.28027
 H195 H 0.53687 0.01486 0.24875
 H196 H 0.57322 0.01150 0.27481
 H197 H 0.54727 -0.05520 0.30727
 H198 H 0.45999 0.03047 0.23734
 H199 H 0.45809 0.06559 0.20846
 H200 H 0.52409 0.03076 0.17539
 H201 H 0.52501 -0.00326 0.20559
 C202 C 0.49337 -0.08655 0.19469
 C203 C 0.42965 -0.00587 0.29927
 C204 C 0.49102 0.05114 0.18952
 C205 C 0.56328 -0.02228 0.29310
 C206 C 0.54822 -0.04234 0.72107
 H207 H 0.53457 -0.05566 0.71907
 C208 C 0.56739 -0.04207 0.70461
 H209 H 0.56859 -0.05542 0.69006
 C210 C 0.56274 -0.00807 0.74196
 H211 H 0.56049 0.00564 0.75610
 C212 C 0.58241 -0.00740 0.72613
 H213 H 0.59521 0.00679 0.72828
 N214 N 0.54610 -0.02533 0.73914
 C215 C 0.50010 -0.05443 0.79454
 H216 H 0.48573 -0.03903 0.79524
 C217 C 0.49966 -0.07486 0.81025
 H218 H 0.48493 -0.07498 0.82316
 C219 C 0.53722 -0.07241 0.77730
 H220 H 0.55190 -0.07122 0.76453
 C221 C 0.53759 -0.09318 0.79284
 H222 H 0.55248 -0.10805 0.79172
 Zn223 Zn 0.51763 -0.02473 0.75841
 N224 N 0.51854 -0.05367 0.77834
 C225 C 0.47402 -0.04151 0.73895
 N226 N 0.49036 -0.02375 0.73756
 C227 C 0.48848 -0.00551 0.72032
 C228 C 0.46946 -0.00452 0.70371
 C229 C 0.45463 -0.04112 0.72279
 C230 C 0.53208 0.00473 0.79609
 C231 C 0.53058 0.02478 0.81215
 C232 C 0.49402 0.04266 0.79192
 C233 C 0.49624 0.02228 0.77622
 N234 N 0.51514 0.00390 0.77850
 H235 H 0.47605 -0.05618 0.75242
 H236 H 0.50201 0.00809 0.71934
 H237 H 0.46863 0.00985 0.68985
 H238 H 0.44164 -0.05523 0.72443
 H239 H 0.54664 -0.01041 0.79779
 H240 H 0.54403 0.02488 0.82626
 H241 H 0.47895 0.05719 0.78975
 H242 H 0.48270 0.02106 0.76242
 C243 C 0.51857 -0.09460 0.80953
 C244 C 0.58464 -0.02429 0.70696
 C245 C 0.51129 0.04405 0.81024
 C246 C 0.45219 -0.02251 0.70478
 C247 C 0.30615 0.04831 0.48567
 H248 H 0.30605 0.06250 0.49943
 C249 C 0.32394 0.04739 0.46773
 H250 H 0.33719 0.06132 0.46755
 C251 C 0.28910 0.01275 0.46952
 H252 H 0.27584 -0.00109 0.47060
 C253 C 0.30664 0.01104 0.45134
 H254 H 0.30667 -0.00422 0.43864
 N255 N 0.28920 0.03115 0.48623
 C256 C 0.22726 0.06253 0.52864
 H257 H 0.22590 0.04682 0.54083
 C258 C 0.20914 0.08277 0.52860
 H259 H 0.19396 0.08271 0.54102
 C260 C 0.24829 0.08120 0.49703
 H261 H 0.26318 0.08014 0.48429
 C262 C 0.23066 0.10202 0.49656
 H263 H 0.23216 0.11691 0.48347
 Zn264 Zn 0.26734 0.03168 0.51241
 N265 N 0.24622 0.06196 0.51288
 C266 C 0.28319 0.04590 0.55813
 N267 N 0.28651 0.02852 0.54045
 C268 C 0.30497 0.00958 0.54143
 C269 C 0.32130 0.00782 0.56059
 C270 C 0.29894 0.04470 0.57773
 C271 C 0.22939 0.00795 0.49271
 C272 C 0.21154 -0.00903 0.49111
 C273 C 0.23045 -0.03239 0.52446
 C274 C 0.24782 -0.01468 0.52566
 N275 N 0.24684 0.00508 0.50997
 H276 H 0.26863 0.06103 0.55688
 H277 H 0.30745 -0.00373 0.52692
 H278 H 0.33640 -0.00687 0.56054
 H279 H 0.29589 0.05868 0.59163
 H280 H 0.22895 0.02397 0.48062
 H281 H 0.19748 -0.00618 0.47756
 H282 H 0.23101 -0.04772 0.53736
 H283 H 0.26163 -0.01638 0.53945
 C284 C 0.21056 0.10268 0.51220
 C285 C 0.32451 0.02839 0.45037
 C286 C 0.21176 -0.02931 0.50731
 C287 C 0.31857 0.02571 0.57899
 C288 C 0.69620 0.01724 0.51660
 H289 H 0.69270 0.03086 0.50228
 C290 C 0.67857 0.01500 0.53433
 H291 H 0.66159 0.02720 0.53375
 C292 C 0.72242 -0.01561 0.53446
 H293 H 0.73931 -0.02784 0.53418
 C294 C 0.70540 -0.01828 0.55271
 H295 H 0.70935 -0.03261 0.56636
 N296 N 0.71755 0.00196 0.51689
 C297 C 0.77505 0.03619 0.47826
 H298 H 0.78058 0.02100 0.46609
 C299 C 0.78826 0.05740 0.47915
 H300 H 0.80392 0.05854 0.46748
 C301 C 0.74790 0.05308 0.50836
 H302 H 0.73234 0.05115 0.51989
 C303 C 0.76043 0.07481 0.50961
 H304 H 0.75445 0.08948 0.52221
 Zn305 Zn 0.73929 0.00441 0.49087
 N306 N 0.75533 0.03439 0.49276
 C307 C 0.72123 0.02422 0.44662
 N308 N 0.72043 0.00491 0.46260
 C309 C 0.70473 -0.01324 0.45972
 C310 C 0.68883 -0.01226 0.44023
 C311 C 0.70568 0.02591 0.42687
 C312 C 0.78177 -0.02302 0.50776
 C313 C 0.80101 -0.04219 0.50835
 C314 C 0.78262 -0.06187 0.47499
 C315 C 0.76388 -0.04211 0.47483
 N316 N 0.76373 -0.02328 0.49117
 H317 H 0.73357 0.03866 0.44937
 H318 H 0.70412 -0.02811 0.47296
 H319 H 0.67597 -0.02647 0.43864
 H320 H 0.70656 0.04146 0.41438
 H321 H 0.78130 -0.00770 0.52042
 H322 H 0.81524 -0.04168 0.52166
 H323 H 0.78262 -0.07664 0.46178
 H324 H 0.74960 -0.04179 0.46155
 C325 C 0.78098 0.07703 0.49499
 C326 C 0.68304 -0.00304 0.55261
 C327 C 0.80157 -0.06192 0.49180
 C328 C 0.68899 0.00768 0.42362
 C329 C 0.51023 0.19833 1.02299
 H330 H 0.49832 0.19643 1.00786
 C331 C 0.51034 0.18110 1.04194
 H332 H 0.49850 0.16587 1.04120
 C333 C 0.54101 0.21979 1.04163
 H334 H 0.55322 0.23465 1.04128
 C335 C 0.54168 0.20303 1.06098
 H336 H 0.55411 0.20553 1.07557
 N337 N 0.52540 0.21720 1.02317
 C338 C 0.49518 0.27762 0.97621
 H339 H 0.51099 0.27920 0.96485
 C340 C 0.47493 0.29546 0.97439
 H341 H 0.47510 0.31063 0.96137
 C342 C 0.47622 0.25644 1.00764
 H343 H 0.47712 0.24164 1.02102
 C344 C 0.45541 0.27378 1.00624
 H345 H 0.44037 0.27217 1.01859
 Zn346 Zn 0.52572 0.23854 0.99603
 N347 N 0.49562 0.25880 0.99282
 C348 C 0.51492 0.21874 0.95094
 N349 N 0.53148 0.21768 0.96904
 C350 C 0.55139 0.20035 0.96915
 C351 C 0.55512 0.18296 0.95063
 C352 C 0.51796 0.20176 0.93206
 C353 C 0.54541 0.27970 1.01580
 C354 C 0.56068 0.29917 1.01776
 C355 C 0.58584 0.28015 0.98603
 C356 C 0.56989 0.26109 0.98449
 N357 N 0.55006 0.26133 0.99921
 H358 H 0.49901 0.23237 0.95134
 H359 H 0.56403 0.19964 0.98399
 H360 H 0.57068 0.16883 0.95140
 H361 H 0.50455 0.20290 0.91785
 H362 H 0.52935 0.27957 1.02707
 H363 H 0.55645 0.31386 1.03082
 H364 H 0.60120 0.28015 0.97382
 H365 H 0.57299 0.24659 0.97113
 C366 C 0.45487 0.29388 0.98977
 C367 C 0.52632 0.18324 1.06124
 C368 C 0.58099 0.29975 1.00253
 C369 C 0.53809 0.18332 0.93189
 C370 C 0.44936 0.76263 -0.03170
 H371 H 0.43438 0.76591 -0.01915
 C372 C 0.44995 0.77754 -0.05225
 H373 H 0.43536 0.79242 -0.05529
 C374 C 0.48720 0.74003 -0.04216
 H375 H 0.50189 0.72570 -0.03791
 C376 C 0.48854 0.75455 -0.06295
 H377 H 0.50410 0.75091 -0.07479
 N378 N 0.46781 0.74435 -0.02704
 C379 C 0.43238 0.69834 0.02495
 H380 H 0.44383 0.70046 0.04037
 C381 C 0.41219 0.68418 0.02673
 H382 H 0.40804 0.67539 0.04358
 C383 C 0.42425 0.70655 -0.01605
 H384 H 0.42929 0.71495 -0.03276
 C385 C 0.40427 0.69199 -0.01519
 H386 H 0.39380 0.68942 -0.03121
 Zn387 Zn 0.46627 0.72709 0.00243
 N388 N 0.43781 0.70945 0.00388
 C389 C 0.44443 0.75822 0.03901
 N390 N 0.46544 0.75208 0.02646
 C391 C 0.48546 0.76516 0.02930
 C392 C 0.48522 0.78448 0.04608
 C393 C 0.44321 0.77780 0.05555
 C394 C 0.49439 0.68299 -0.00982
 C395 C 0.51348 0.66371 -0.00880
 C396 C 0.53066 0.68500 0.02426
 C397 C 0.51095 0.70368 0.02289
 N398 N 0.49352 0.70257 0.00575
 H399 H 0.42834 0.74844 0.03577
 H400 H 0.50157 0.76067 0.01839
 H401 H 0.50131 0.79468 0.04827
 H402 H 0.42636 0.78261 0.06534
 H403 H 0.48015 0.68241 -0.02309
 H404 H 0.51399 0.64835 -0.02143
 H405 H 0.54449 0.68613 0.03789
 H406 H 0.50961 0.71889 0.03562
 C407 C 0.39808 0.68074 0.00642
 C408 C 0.46982 0.77373 -0.06813
 C409 C 0.53200 0.66471 0.00829
 C410 C 0.46385 0.79102 0.05930
 C411 C 1.02345 0.49984 0.21907
 H412 H 1.01007 0.48607 0.21856
 C413 C 1.04205 0.49926 0.20193
 H414 H 1.04279 0.48499 0.18819
 C415 C 1.03782 0.53598 0.23691
 H416 H 1.03588 0.55055 0.25029
 C417 C 1.05669 0.53610 0.22012
 H418 H 1.06939 0.55053 0.22111
 N419 N 1.02169 0.51799 0.23612
 C420 C 0.98076 0.49075 0.29636
 H421 H 0.96727 0.50679 0.29858
 C422 C 0.98154 0.47055 0.31248
 H423 H 0.96868 0.47133 0.32723
 C424 C 1.01450 0.47092 0.27491
 H425 H 1.02746 0.47125 0.26039
 C426 C 1.01590 0.45026 0.29060
 H427 H 1.02975 0.43466 0.28771
 Zn428 Zn 0.99469 0.51915 0.25742
 N429 N 0.99694 0.49051 0.27791
 C430 C 0.94867 0.50358 0.24310
 N431 N 0.96583 0.52005 0.23878
 C432 C 0.96373 0.53635 0.21990
 C433 C 0.94398 0.53617 0.20420
 C434 C 0.92843 0.50308 0.22808
 C435 C 1.01234 0.54811 0.29356
 C436 C 1.01282 0.56829 0.30928
 C437 C 0.97613 0.58805 0.29058
 C438 C 0.97633 0.56741 0.27521
 N439 N 0.99434 0.54805 0.27693
 H440 H 0.95084 0.49043 0.25788
 H441 H 0.97778 0.54904 0.21673
 H442 H 0.94274 0.54897 0.18902
 H443 H 0.91516 0.48956 0.23150
 H444 H 1.02622 0.53227 0.29475
 H445 H 1.02706 0.56768 0.32268
 H446 H 0.96178 0.60341 0.28883
 H447 H 0.96204 0.56683 0.26202
 C448 C 0.99924 0.44988 0.30969
 C449 C 1.05889 0.51768 0.20222
 C450 C 0.99453 0.58863 0.30795
 C451 C 0.92612 0.51927 0.20817
 C452 C -0.05173 0.50527 0.76141
 H453 H -0.04984 0.49007 0.74865
 C454 C -0.07144 0.50695 0.77739
 H455 H -0.08483 0.49319 0.77651
 C456 C -0.03634 0.54128 0.77854
 H457 H -0.02225 0.55428 0.77913
 C458 C -0.05576 0.54372 0.79476
 H459 H -0.05645 0.55862 0.80788
 N460 N -0.03471 0.52235 0.76226
 C461 C 0.01266 0.47200 0.72430
 H462 H 0.02684 0.47285 0.73751
 C463 C 0.01399 0.45182 0.70841
 H464 H 0.02892 0.43705 0.71004
 C465 C -0.02361 0.49040 0.70575
 H466 H -0.03793 0.50583 0.70460
 C467 C -0.02292 0.47062 0.68941
 H468 H -0.03677 0.47104 0.67564
 Zn469 Zn -0.00653 0.51952 0.74257
 N470 N -0.00596 0.49076 0.72274
 C471 C 0.02205 0.49762 0.77949
 N472 N 0.02091 0.51671 0.76313
 C473 C 0.03819 0.53354 0.76237
 C474 C 0.05785 0.53120 0.77833
 C475 C 0.04144 0.49448 0.79563
 C476 C -0.02418 0.56745 0.72310
 C477 C -0.02432 0.58756 0.70687
 C478 C 0.01258 0.56737 0.68902
 C479 C 0.01210 0.54775 0.70568
 N480 N -0.00609 0.54810 0.72226
 H481 H 0.00788 0.48470 0.77987
 H482 H 0.03662 0.54894 0.74959
 H483 H 0.07123 0.54499 0.77769
 H484 H 0.04223 0.47877 0.80812
 H485 H -0.03875 0.56719 0.73608
 H486 H -0.03878 0.60286 0.70797
 H487 H 0.02687 0.56633 0.67559
 H488 H 0.02600 0.53188 0.70514
 C489 C -0.00379 0.45107 0.69049
 C490 C -0.07355 0.52630 0.79443
 C491 C -0.00589 0.58761 0.68938
 C492 C 0.05968 0.51143 0.79525
 C493 C 0.08794 0.19344 0.50357
 C494 C 0.10760 0.17449 0.50507
 C495 C 0.10281 0.14875 0.50551
 C496 C 0.07860 0.14236 0.50412
 C497 C 0.05924 0.16127 0.50230
 C498 C 0.06368 0.18691 0.50207
 C499 C 0.12226 0.12975 0.50728
 C500 C 0.14651 0.13607 0.50829
 C501 C 0.15145 0.16174 0.50743
 C502 C 0.13193 0.18083 0.50599
 C503 C 0.17586 0.16782 0.50792
 C504 C 0.19516 0.14865 0.50931
 C505 C 0.19033 0.12315 0.51056
 C506 C 0.16593 0.11703 0.51000
 H507 H 0.09147 0.21320 0.50323
 H508 H 0.07464 0.12274 0.50443
 H509 H 0.04067 0.15586 0.50143
 H510 H 0.11852 0.11003 0.50777
 H511 H 0.13567 0.20054 0.50547
 H512 H 0.18002 0.18738 0.50719
 H513 H 0.21386 0.15373 0.50974
 H514 H 0.16210 0.09735 0.51053
 C515 C 0.65469 0.57378 0.00836
 C516 C 0.63525 0.59295 0.00890
 C517 C 0.64026 0.61861 0.00804
 C518 C 0.66463 0.62460 0.00638
 C519 C 0.68386 0.60537 0.00545
 C520 C 0.67907 0.57985 0.00653
 C521 C 0.62084 0.63781 0.00860
 C522 C 0.59646 0.63168 0.00950
 C523 C 0.59147 0.60599 0.01000
 C524 C 0.61089 0.58682 0.00995
 C525 C 0.56710 0.59990 0.01024
 C526 C 0.54781 0.61904 0.00974
 C527 C 0.55255 0.64459 0.00940
 C528 C 0.57694 0.65081 0.00951
 H529 H 0.65085 0.55410 0.00887
 H530 H 0.66882 0.64415 0.00565
 H531 H 0.70254 0.61043 0.00416
 H532 H 0.62469 0.65749 0.00801
 H533 H 0.60704 0.56714 0.01041
 H534 H 0.56295 0.58033 0.01058
 H535 H 0.52911 0.61392 0.00978
 H536 H 0.58066 0.67051 0.00897
 C537 C 0.92456 -0.15268 0.49371
 C538 C 0.90495 -0.13364 0.49348
 C539 C 0.90980 -0.10793 0.49418
 C540 C 0.93413 -0.10172 0.49473
 C541 C 0.95351 -0.12076 0.49462
 C542 C 0.94893 -0.14636 0.49422
 C543 C 0.89030 -0.08885 0.49425
 C544 C 0.86598 -0.09509 0.49329
 C545 C 0.86111 -0.12076 0.49216
 C546 C 0.88062 -0.13988 0.49243
 C547 C 0.83677 -0.12685 0.49069
 C548 C 0.81743 -0.10771 0.49039
 C549 C 0.82208 -0.08219 0.49185
 C550 C 0.84644 -0.07602 0.49331
 H551 H 0.92091 -0.17240 0.49314
 H552 H 0.93817 -0.08213 0.49524
 H553 H 0.97215 -0.11550 0.49521
 H554 H 0.89404 -0.06915 0.49493
 H555 H 0.87687 -0.15957 0.49170
 H556 H 0.83269 -0.14640 0.48975
 H557 H 0.79878 -0.11285 0.48937
 H558 H 0.85017 -0.05634 0.49410
 C559 C 0.33346 0.38665 0.99294
 C560 C 0.35246 0.36713 0.99173
 C561 C 0.34687 0.34167 0.99096
 C562 C 0.32224 0.33630 0.99089
 C563 C 0.30336 0.35594 0.99190
 C564 C 0.30884 0.38122 0.99324
 C565 C 0.36598 0.32210 0.99038
 C566 C 0.39056 0.32773 0.99034
 C567 C 0.39600 0.35327 0.99059
 C568 C 0.37696 0.37276 0.99138
 C569 C 0.42047 0.35897 0.99015
 C570 C 0.43945 0.33958 0.98961
 C571 C 0.43436 0.31412 0.98968
 C572 C 0.40982 0.30828 0.99008
 H573 H 0.33781 0.40615 0.99355
 H574 H 0.31758 0.31692 0.99021
 H575 H 0.28449 0.35137 0.99216
 H576 H 0.36173 0.30255 0.99000
 H577 H 0.38120 0.39232 0.99179
 H578 H 0.42494 0.37843 0.99032
 H579 H 0.45823 0.34448 0.98958
 H580 H 0.40579 0.28867 0.98997
 C581 C 0.87547 0.18081 0.50122
 C582 C 0.86163 0.15980 0.50058
 C583 C 0.87373 0.13507 0.50146
 C584 C 0.89934 0.13175 0.50335
 C585 C 0.91290 0.15271 0.50431
 C586 C 0.90116 0.17736 0.50316
 C587 C 0.86010 0.11403 0.50045
 C588 C 0.83446 0.11733 0.49886
 C589 C 0.82225 0.14200 0.49845
 C590 C 0.83592 0.16310 0.49916
 C591 C 0.79655 0.14511 0.49734
 C592 C 0.78309 0.12398 0.49651
 C593 C 0.79512 0.09943 0.49648
 C594 C 0.82084 0.09627 0.49773
 H595 H 0.86630 0.19979 0.50052
 H596 H 0.90889 0.11295 0.50406
 H597 H 0.93269 0.14965 0.50555
 H598 H 0.86944 0.09510 0.50095
 H599 H 0.82658 0.18203 0.49867
 H600 H 0.78686 0.16385 0.49708
 H601 H 0.76327 0.12681 0.49545
 H602 H 0.83022 0.07736 0.49808
 C603 C 0.30406 0.57674 0.00172
 C604 C 0.32255 0.59334 -0.00024
 C605 C 0.34316 0.58691 -0.01497
 C606 C 0.34521 0.56383 -0.02703
 C607 C 0.32708 0.54718 -0.02453
 C608 C 0.30616 0.55344 -0.01033
 C609 C 0.36156 0.60347 -0.01721
 C610 C 0.35998 0.62612 -0.00439
 C611 C 0.33968 0.63235 0.01081
 C612 C 0.32091 0.61609 0.01251
 C613 C 0.33869 0.65458 0.02430
 C614 C 0.35775 0.67035 0.02289
 C615 C 0.37772 0.66444 0.00757
 C616 C 0.37867 0.64242 -0.00618
 H617 H 0.28803 0.58210 0.01254
 H618 H 0.36103 0.55848 -0.03816
 H619 H 0.32976 0.52917 -0.03351
 H620 H 0.37728 0.59856 -0.02863
 H621 H 0.30526 0.62094 0.02404
 H622 H 0.32336 0.65959 0.03613
 H623 H 0.35687 0.68727 0.03365
 H624 H 0.39429 0.63771 -0.01777
 C625 C 0.11973 -0.13547 0.50351
 C626 C 0.13896 -0.11980 0.50451
 C627 C 0.16355 -0.13065 0.50484
 C628 C 0.16843 -0.15704 0.50385
 C629 C 0.14914 -0.17251 0.50254
 C630 C 0.12466 -0.16188 0.50249
 C631 C 0.18280 -0.11496 0.50600
 C632 C 0.17777 -0.08855 0.50645
 C633 C 0.15314 -0.07777 0.50576
 C634 C 0.13393 -0.09345 0.50499
 C635 C 0.14810 -0.05141 0.50569
 C636 C 0.16724 -0.03582 0.50614
 C637 C 0.19176 -0.04625 0.50697
 C638 C 0.19693 -0.07268 0.50732
 H639 H 0.10090 -0.12712 0.50312
 H640 H 0.18714 -0.16571 0.50403
 H641 H 0.15333 -0.19284 0.50189
 H642 H 0.20166 -0.12328 0.50635
 H643 H 0.11507 -0.08513 0.50457
 H644 H 0.12935 -0.04285 0.50515
 H645 H 0.16288 -0.01549 0.50608
 H646 H 0.21584 -0.08082 0.50778
 C647 C 0.67746 0.40170 1.00423
 C648 C 0.66359 0.38079 1.00419
 C649 C 0.67557 0.35602 1.00423
 C650 C 0.70129 0.35267 1.00468
 C651 C 0.71499 0.37364 1.00486
 C652 C 0.70322 0.39831 1.00441
 C653 C 0.66166 0.33508 1.00376
 C654 C 0.63592 0.33864 1.00345
 C655 C 0.62402 0.36346 1.00381
 C656 C 0.63791 0.38433 1.00408
 C657 C 0.59835 0.36704 1.00387
 C658 C 0.58453 0.34627 1.00358
 C659 C 0.59607 0.32151 1.00305
 C660 C 0.62184 0.31780 1.00288
 H661 H 0.66821 0.42066 1.00426
 H662 H 0.71082 0.33384 1.00476
 H663 H 0.73483 0.37059 1.00486
 H664 H 0.67085 0.31608 1.00364
 H665 H 0.62872 0.40334 1.00419
 H666 H 0.58895 0.38593 1.00412
 H667 H 0.56470 0.34956 1.00343
 H668 H 0.63086 0.29874 1.00265
 C669 C 0.51103 0.08153 1.16286
 C670 C 0.50981 0.10019 1.14492
 C671 C 0.48684 0.10911 1.13509
 C672 C 0.46549 0.09928 1.14345
 C673 C 0.46687 0.08062 1.16121
 C674 C 0.48961 0.07147 1.17106
 C675 C 0.48558 0.12756 1.11697
 C676 C 0.50704 0.13708 1.10842
 C677 C 0.53001 0.12822 1.11831
 C678 C 0.53124 0.10991 1.13654
 C679 C 0.55141 0.13770 1.10966
 C680 C 0.55014 0.15565 1.09126
 C681 C 0.52744 0.16456 1.08119
 C682 C 0.50591 0.15522 1.09000
 H683 H 0.52865 0.07491 1.17051
 H684 H 0.44773 0.10584 1.13607
 H685 H 0.45013 0.07297 1.16692
 H686 H 0.46795 0.13434 1.10940
 H687 H 0.54888 0.10307 1.14407
 H688 H 0.56917 0.13106 1.11698
 H689 H 0.56704 0.16221 1.08460
 H690 H 0.48826 0.16216 1.08262
 C691 C 0.01410 0.69100 0.59048
 C692 C 0.01436 0.67286 0.60886
 C693 C 0.03698 0.66273 0.61864
 C694 C 0.05892 0.67093 0.60990
 C695 C 0.05852 0.68884 0.59149
 C696 C 0.03616 0.69905 0.58154
 C697 C 0.03733 0.64443 0.63685
 C698 C 0.01535 0.63590 0.64524
 C699 C -0.00727 0.64605 0.63547
 C700 C -0.00764 0.66455 0.61744
 C701 C -0.02917 0.63732 0.64374
 C702 C -0.02869 0.61852 0.66135
 C703 C -0.00631 0.60818 0.67118
 C704 C 0.01566 0.61719 0.66309
 H705 H -0.00329 0.69894 0.58323
 H706 H 0.07643 0.66330 0.61712
 H707 H 0.07581 0.69435 0.58474
 H708 H 0.05470 0.63664 0.64430
 H709 H -0.02501 0.67228 0.60992
 H710 H -0.04666 0.64480 0.63639
 H711 H -0.04586 0.61170 0.66691
 H712 H 0.03302 0.60968 0.67071
 C713 C 0.49663 0.87301 -0.16833
 C714 C 0.49608 0.85384 -0.15102
 C715 C 0.51780 0.84525 -0.13868
 C716 C 0.53980 0.85556 -0.14432
 C717 C 0.54017 0.87468 -0.16157
 C718 C 0.51855 0.88384 -0.17347
 C719 C 0.51707 0.82685 -0.12065
 C720 C 0.49486 0.81708 -0.11468
 C721 C 0.47327 0.82531 -0.12739
 C722 C 0.47404 0.84353 -0.14555
 C723 C 0.45112 0.81554 -0.12140
 C724 C 0.45017 0.79832 -0.10254
 C725 C 0.47136 0.79046 -0.08934
 C726 C 0.49377 0.79965 -0.09582
 H727 H 0.47993 0.87968 -0.17768
 H728 H 0.55663 0.84917 -0.13509
 H729 H 0.55724 0.88284 -0.16510
 H730 H 0.53367 0.82049 -0.11097
 H731 H 0.45740 0.85005 -0.15508
 H732 H 0.43444 0.82150 -0.13106
 H733 H 0.43278 0.79122 -0.09818
 H734 H 0.51019 0.79398 -0.08563
 C735 C 0.98391 0.34202 0.40530
 C736 C 0.98273 0.36089 0.38756
 C737 C 0.95970 0.37200 0.37972
 C738 C 0.93825 0.36394 0.38965
 C739 C 0.93952 0.34533 0.40747
 C740 C 0.96235 0.33405 0.41582
 C741 C 0.95847 0.39121 0.36231
 C742 C 0.98005 0.39969 0.35288
 C743 C 1.00312 0.38853 0.36069
 C744 C 1.00432 0.36914 0.37789
 C745 C 1.02463 0.39716 0.35134
 C746 C 1.02335 0.41690 0.33463
 C747 C 1.00052 0.42833 0.32686
 C748 C 0.97892 0.41940 0.33597
 H749 H 1.00184 0.33473 0.41167
 H750 H 0.92041 0.37209 0.38368
 H751 H 0.92237 0.33938 0.41407
 H752 H 0.94075 0.39978 0.35636
 H753 H 1.02204 0.36067 0.38393
 H754 H 1.04247 0.38886 0.35716
 H755 H 1.04027 0.42358 0.32817
 H756 H 0.96119 0.42777 0.32988
 C757 C 0.47695 0.89274 0.15937
 C758 C 0.47741 0.87238 0.14349
 C759 C 0.49499 0.85142 0.14641
 C760 C 0.51133 0.85085 0.16555
 C761 C 0.51051 0.87091 0.18157
 C762 C 0.49355 0.89255 0.17875
 C763 C 0.49594 0.83137 0.13019
 C764 C 0.47920 0.83183 0.11127
 C765 C 0.46114 0.85251 0.10870
 C766 C 0.46053 0.87276 0.12466
 C767 C 0.44393 0.85255 0.09022
 C768 C 0.44466 0.83234 0.07436
 C769 C 0.46286 0.81203 0.07646
 C770 C 0.48014 0.81187 0.09492
 H771 H 0.46414 0.90901 0.15569
 H772 H 0.52467 0.83470 0.16831
 H773 H 0.52291 0.86870 0.19653
 H774 H 0.50963 0.81539 0.13234
 H775 H 0.44684 0.88874 0.12250
 H776 H 0.42989 0.86817 0.08806
 H777 H 0.43125 0.83272 0.06016
 H778 H 0.49405 0.79605 0.09670
 C779 C -0.01506 0.34549 0.59331
 C780 C -0.01693 0.36383 0.61126
 C781 C -0.04023 0.37258 0.62044
 C782 C -0.06125 0.36274 0.61154
 C783 C -0.05925 0.34461 0.59354
 C784 C -0.03618 0.33587 0.58415
 C785 C -0.04216 0.39115 0.63820
 C786 C -0.02109 0.40124 0.64674
 C787 C 0.00222 0.39242 0.63758
 C788 C 0.00416 0.37371 0.61999
 C789 C 0.02322 0.40262 0.64602
 C790 C 0.02120 0.42153 0.66325
 C791 C -0.00185 0.43054 0.67251
 C792 C -0.02295 0.42017 0.66419
 H793 H 0.00288 0.33866 0.58652
 H794 H -0.07927 0.36926 0.61831
 H795 H -0.07585 0.33781 0.58662
 H796 H -0.06006 0.39789 0.64519
 H797 H 0.02205 0.36702 0.61294
 H798 H 0.04121 0.39616 0.63912
 H799 H 0.03771 0.42945 0.66901
 H800 H -0.04080 0.42672 0.67136
 C801 C 0.52958 0.07635 0.83553
 C802 C 0.52728 0.09576 0.85249
 C803 C 0.50386 0.10402 0.86172
 C804 C 0.48317 0.09290 0.85373
 C805 C 0.48562 0.07361 0.83687
 C806 C 0.50880 0.06506 0.82767
 C807 C 0.50148 0.12315 0.87890
 C808 C 0.52223 0.13413 0.88701
 C809 C 0.54564 0.12604 0.87768
 C810 C 0.54802 0.10693 0.86044
 C811 C 0.56631 0.13708 0.88591
 C812 C 0.56385 0.15582 0.90335
 C813 C 0.54068 0.16392 0.91287
 C814 C 0.51993 0.15297 0.90449
 H815 H 0.54752 0.07013 0.82836
 H816 H 0.46509 0.09897 0.86065
 H817 H 0.46938 0.06502 0.83137
 H818 H 0.48352 0.12938 0.88604
 H819 H 0.56599 0.10064 0.85336
 H820 H 0.58439 0.13117 0.87891
 H821 H 0.58009 0.16413 0.90930
 H822 H 0.50200 0.15870 0.91194
 C823 C 1.01679 0.69348 0.40293
 C824 C 1.01656 0.67545 0.38477
 C825 C 1.03892 0.66537 0.37444
 C826 C 1.06108 0.67368 0.38231
 C827 C 1.06115 0.69152 0.40049
 C828 C 1.03907 0.70150 0.41107
 C829 C 1.03881 0.64694 0.35667
 C830 C 1.01664 0.63823 0.34927
 C831 C 0.99426 0.64844 0.35945
 C832 C 0.99435 0.66706 0.37706
 C833 C 0.97217 0.63960 0.35207
 C834 C 0.97225 0.62048 0.33507
 C835 C 0.99440 0.60990 0.32505
 C836 C 1.01654 0.61916 0.33208
 H837 H 0.99966 0.70077 0.41116
 H838 H 1.07838 0.66623 0.37454
 H839 H 1.07852 0.69761 0.40623
 H840 H 1.05599 0.63911 0.34886
 H841 H 0.97718 0.67478 0.38497
 H842 H 0.95485 0.64719 0.35970
 H843 H 0.95497 0.61353 0.33022
 H844 H 1.03372 0.61146 0.32423
 C845 C 1.15906 0.49765 0.10040
 C846 C 1.14242 0.49726 0.11948
 C847 C 1.13740 0.47395 0.12979
 C848 C 1.14931 0.45146 0.12105
 C849 C 1.16572 0.45192 0.10198
 C850 C 1.17080 0.47497 0.09101
 C851 C 1.12036 0.47345 0.14850
 C852 C 1.10815 0.49603 0.15695
 C853 C 1.11338 0.51942 0.14682
 C854 C 1.13055 0.51990 0.12824
 C855 C 1.10114 0.54195 0.15528
 C856 C 1.08365 0.54134 0.17340
 C857 C 1.07809 0.51820 0.18349
 C858 C 1.09060 0.49558 0.17522
 H859 H 1.16314 0.51586 0.09344
 H860 H 1.14558 0.43339 0.12867
 H861 H 1.17332 0.43383 0.09526
 H862 H 1.11642 0.45549 0.15628
 H863 H 1.13442 0.53785 0.12040
 H864 H 1.10488 0.56003 0.14769
 H865 H 1.07407 0.55900 0.17918
 H866 H 1.08672 0.47765 0.18305
 C867 C 0.59808 -0.02161 0.66446
 C868 C 0.61616 -0.01866 0.64714
 C869 C 0.64074 -0.01702 0.65421
 C870 C 0.64673 -0.01813 0.67853
 C871 C 0.62852 -0.02062 0.69569
 C872 C 0.60410 -0.02244 0.68881
 C873 C 0.65883 -0.01402 0.63689
 C874 C 0.65258 -0.01221 0.61264
 C875 C 0.62792 -0.01351 0.60564
 C876 C 0.60992 -0.01693 0.62290
 C877 C 0.62162 -0.01121 0.58147
 C878 C 0.63954 -0.00761 0.56433
 C879 C 0.66413 -0.00649 0.57102
 C880 C 0.67055 -0.00890 0.59525
 H881 H 0.57919 -0.02260 0.65906
 H882 H 0.66545 -0.01685 0.68428
 H883 H 0.63350 -0.02127 0.71438
 H884 H 0.67770 -0.01284 0.64231
 H885 H 0.59104 -0.01801 0.61750
 H886 H 0.60282 -0.01215 0.57580
 H887 H 0.63424 -0.00608 0.54575
 H888 H 0.68945 -0.00781 0.60056
 C889 C -0.16912 0.51202 0.89854
 C890 C -0.15237 0.51052 0.87946
 C891 C -0.14087 0.48670 0.87263
 C892 C -0.14647 0.46482 0.88482
 C893 C -0.16307 0.46649 0.90380
 C894 C -0.17448 0.49006 0.91094
 C895 C -0.12374 0.48515 0.85394
 C896 C -0.11780 0.50713 0.84208
 C897 C -0.12945 0.53093 0.84874
 C898 C -0.14675 0.53247 0.86731
 C899 C -0.12331 0.55286 0.83693
 C900 C -0.10546 0.55129 0.81901
 C901 C -0.09352 0.52777 0.81246
 C902 C -0.10003 0.50570 0.82393
 H903 H -0.17800 0.53027 0.90370
 H904 H -0.13778 0.44643 0.87985
 H905 H -0.16659 0.44932 0.91324
 H906 H -0.11481 0.46688 0.84884
 H907 H -0.15557 0.55075 0.87251
 H908 H -0.13211 0.57125 0.84173
 H909 H -0.10096 0.56852 0.81025
 H910 H -0.09071 0.48749 0.81926
 C911 C 0.41459 0.00553 0.34043
 C912 C 0.39575 0.00903 0.35742
 C913 C 0.37152 0.00463 0.35114
 C914 C 0.36659 -0.00324 0.32798
 C915 C 0.38548 -0.00673 0.31117
 C916 C 0.40963 -0.00234 0.31719
 C917 C 0.35265 0.00807 0.36812
 C918 C 0.35775 0.01569 0.39136
 C919 C 0.38200 0.02006 0.39761
 C920 C 0.40082 0.01676 0.38060
 C921 C 0.38706 0.02751 0.42086
 C922 C 0.36835 0.03041 0.43785
 C923 C 0.34415 0.02606 0.43193
 C924 C 0.33900 0.01883 0.40851
 H925 H 0.43320 0.00861 0.34540
 H926 H 0.34813 -0.00666 0.32284
 H927 H 0.38113 -0.01253 0.29333
 H928 H 0.33407 0.00468 0.36331
 H929 H 0.41942 0.02010 0.38543
 H930 H 0.40556 0.03084 0.42597
 H931 H 0.37297 0.03556 0.45582
 H932 H 0.32039 0.01573 0.40359
 C933 C 0.15450 0.48853 0.90129
 C934 C 0.13510 0.49144 0.88490
 C935 C 0.11126 0.48641 0.89215
 C936 C 0.10730 0.47834 0.91559
 C937 C 0.12671 0.47546 0.93178
 C938 C 0.15045 0.48064 0.92487
 C939 C 0.09177 0.48957 0.87591
 C940 C 0.09582 0.49759 0.85244
 C941 C 0.11968 0.50246 0.84513
 C942 C 0.13917 0.49938 0.86140
 C943 C 0.12364 0.51032 0.82162
 C944 C 0.10417 0.51327 0.80546
 C945 C 0.08034 0.50854 0.81252
 C946 C 0.07635 0.50079 0.83617
 H947 H 0.17279 0.49227 0.89568
 H948 H 0.08915 0.47441 0.92145
 H949 H 0.12304 0.46966 0.94990
 H950 H 0.07348 0.48577 0.88151
 H951 H 0.15746 0.50320 0.85580
 H952 H 0.14182 0.51404 0.81567
 H953 H 0.10787 0.51891 0.78731
 H954 H 0.05803 0.49747 0.84202
 C955 C 0.59159 -0.00255 0.32105
 C956 C 0.61049 -0.00456 0.33802
 C957 C 0.62255 -0.02857 0.34368
 C958 C 0.61571 -0.05009 0.33204
 C959 C 0.59676 -0.04795 0.31532
 C960 C 0.58437 -0.02424 0.30981
 C961 C 0.64096 -0.03073 0.36113
 C962 C 0.64728 -0.00921 0.37319
 C963 C 0.63539 0.01483 0.36734
 C964 C 0.61716 0.01702 0.34974
 C965 C 0.64171 0.03627 0.37945
 C966 C 0.65934 0.03392 0.39746
 C967 C 0.67109 0.01010 0.40369
 C968 C 0.66507 -0.01140 0.39127
 H969 H 0.58197 0.01579 0.31717
 H970 H 0.62482 -0.06863 0.33608
 H971 H 0.59175 -0.06490 0.30667
 H972 H 0.65008 -0.04918 0.36558
 H973 H 0.60793 0.03544 0.34540
 H974 H 0.63276 0.05483 0.37523
 H975 H 0.66336 0.05074 0.40695
 H976 H 0.67421 -0.02982 0.39570
 C977 C 0.83449 0.50336 0.10179
 C978 C 0.85342 0.50649 0.11806
 C979 C 0.87786 0.50644 0.10977
 C980 C 0.88298 0.50297 0.08545
 C981 C 0.86408 0.49963 0.06944
 C982 C 0.83970 0.49988 0.07740
 C983 C 0.89681 0.50974 0.12591
 C984 C 0.89172 0.51272 0.15030
 C985 C 0.86734 0.51244 0.15866
 C986 C 0.84832 0.50953 0.14247
 C987 C 0.86245 0.51483 0.18315
 C988 C 0.88155 0.51720 0.19923
 C989 C 0.90578 0.51765 0.19107
 C990 C 0.91071 0.51558 0.16653
 H991 H 0.81576 0.50334 0.10811
 H992 H 0.90159 0.50288 0.07880
 H993 H 0.86849 0.49729 0.05070
 H994 H 0.91553 0.50977 0.11951
 H995 H 0.82962 0.50941 0.14887
 H996 H 0.84390 0.51461 0.18989
 H997 H 0.87740 0.51883 0.21809
 H998 H 0.92944 0.51553 0.16017
 C999 C 0.42037 0.00092 0.67859
 C1000 C 0.40185 0.00130 0.66130
 C1001 C 0.39467 -0.02172 0.65237
 C1002 C 0.40616 -0.04472 0.66088
 C1003 C 0.42473 -0.04493 0.67792
 C1004 C 0.43209 -0.02217 0.68695
 C1005 C 0.37631 -0.02140 0.63492
 C1006 C 0.36526 0.00168 0.62606
 C1007 C 0.37245 0.02469 0.63500
 C1008 C 0.39057 0.02437 0.65266
 C1009 C 0.36160 0.04770 0.62590
 C1010 C 0.34400 0.04796 0.60791
 C1011 C 0.33668 0.02522 0.59878
 C1012 C 0.34732 0.00210 0.60817
 H1013 H 0.42557 0.01862 0.68561
 H1014 H 0.40097 -0.06254 0.65416
 H1015 H 0.43366 -0.06298 0.68372
 H1016 H 0.37086 -0.03908 0.62805
 H1017 H 0.39610 0.04205 0.65946
 H1018 H 0.36699 0.06552 0.63246
 H1019 H 0.33653 0.06605 0.60078
 H1020 H 0.34166 -0.01559 0.60158
   
