data_POSCAR
  _audit_creation_date              2014-09-24
  _audit_creation_method            'ToBaCCo'
  _symmetry_space_group_name_H-M    'P1'
  _symmetry_Int_Tables_number       1
  _symmetry_cell_setting            triclinic
  loop_
  _symmetry_equiv_pos_as_xyz
 x,y,z
_cell_length_a 40.0428
_cell_length_b 18.7282
_cell_length_c 13.4131
_cell_angle_alpha 91.590000
_cell_angle_beta 90.331700
_cell_angle_gamma 91.889100
loop_
  _atom_site_label
  _atom_site_type_symbol
  _atom_site_fract_x
  _atom_site_fract_y
  _atom_site_fract_z
C1 C 0.74902 0.27346 0.45485
 C2 C 0.74720 0.26947 0.55675
 C3 C 0.71582 0.27964 0.61673
 C4 C 0.77813 0.25664 0.61458
 C5 C 0.77999 0.25406 0.40070
 C6 C 0.72073 0.29513 0.39140
 C7 C 0.71815 0.30578 0.71641
 C8 C 0.68954 0.31666 0.77358
 C9 C 0.65760 0.30753 0.73043
 C10 C 0.65509 0.27813 0.63253
 C11 C 0.68372 0.26098 0.57895
 C12 C 0.80388 0.30931 0.62183
 C13 C 0.83265 0.29775 0.67809
 C14 C 0.83634 0.23289 0.72618
 C15 C 0.81017 0.18083 0.72042
 C16 C 0.78120 0.19292 0.66569
 C17 C 0.79229 0.18503 0.40648
 C18 C 0.82115 0.16649 0.35500
 C19 C 0.83850 0.21689 0.29663
 C20 C 0.82551 0.28534 0.28884
 C21 C 0.79653 0.30376 0.34026
 C22 C 0.70849 0.24888 0.31434
 C23 C 0.68010 0.26567 0.25946
 C24 C 0.66339 0.32899 0.28039
 C25 C 0.67704 0.37737 0.35358
 C26 C 0.70545 0.36063 0.40827
 H27 H 0.74218 0.31897 0.75064
 H28 H 0.69261 0.33769 0.84933
 H29 H 0.63098 0.26514 0.59848
 H30 H 0.68035 0.23336 0.50774
 H31 H 0.80160 0.35930 0.58404
 H32 H 0.85244 0.33861 0.68181
 H33 H 0.76131 0.15229 0.66205
 H34 H 0.77929 0.14519 0.45015
 H35 H 0.82924 0.11221 0.35993
 H36 H 0.83801 0.32491 0.24350
 H37 H 0.78716 0.35703 0.33370
 H38 H 0.72023 0.19849 0.29908
 H39 H 0.67059 0.22806 0.20254
 H40 H 0.66591 0.42815 0.36935
 H41 H 0.71504 0.39793 0.46548
 H42 H 0.81213 0.13083 0.75834
 C43 C 0.24371 0.73008 0.54963
 C44 C 0.24291 0.73651 0.44926
 C45 C 0.27103 0.71239 0.38766
 C46 C 0.21464 0.76984 0.39952
 C47 C 0.21501 0.74946 0.61133
 C48 C 0.27412 0.70735 0.60048
 C49 C 0.29309 0.76284 0.34651
 C50 C 0.32328 0.74140 0.30566
 C51 C 0.33162 0.66882 0.30464
 C52 C 0.30870 0.61824 0.34219
 C53 C 0.27852 0.63977 0.38272
 C54 C 0.21019 0.84360 0.41080
 C55 C 0.18175 0.87417 0.37190
 C56 C 0.15765 0.83172 0.31951
 C57 C 0.16249 0.75774 0.30731
 C58 C 0.19087 0.72722 0.34671
 C59 C 0.18837 0.70015 0.62290
 C60 C 0.15941 0.72095 0.67153
 C61 C 0.15650 0.79173 0.70642
 C62 C 0.18371 0.84045 0.69760
 C63 C 0.21297 0.81910 0.65115
 C64 C 0.27673 0.63671 0.63067
 C65 C 0.30726 0.61304 0.66594
 C66 C 0.33518 0.66024 0.67357
 C67 C 0.33218 0.73141 0.64476
 C68 C 0.30187 0.75467 0.60846
 H69 H 0.28785 0.81920 0.35144
 H70 H 0.34057 0.78232 0.27992
 H71 H 0.31454 0.56216 0.34252
 H72 H 0.26169 0.60027 0.41471
 H73 H 0.22846 0.87714 0.45143
 H74 H 0.17852 0.93105 0.38279
 H75 H 0.19383 0.67006 0.33871
 H76 H 0.18975 0.64624 0.59211
 H77 H 0.13876 0.68261 0.67851
 H78 H 0.18227 0.89493 0.72607
 H79 H 0.23352 0.85750 0.64272
 H80 H 0.25555 0.59942 0.62325
 H81 H 0.30913 0.55789 0.68705
 H82 H 0.35349 0.76853 0.64719
 H83 H 0.30024 0.80902 0.58364
 H84 H 0.14398 0.72286 0.27019
 C85 C 0.25253 0.23281 -0.43582
 C86 C 0.25274 0.24143 -0.53626
 C87 C 0.28225 0.27454 -0.58660
 C88 C 0.22305 0.21802 -0.59729
 C89 C 0.22119 0.21484 -0.38311
 C90 C 0.28329 0.24155 -0.37453
 C91 C 0.29550 0.34138 -0.55330
 C92 C 0.32461 0.37043 -0.59529
 C93 C 0.34135 0.33371 -0.67215
 C94 C 0.32714 0.26750 -0.70783
 C95 C 0.29788 0.23866 -0.66563
 C96 C 0.20321 0.26804 -0.64319
 C97 C 0.17263 0.24656 -0.68812
 C98 C 0.16129 0.17415 -0.68763
 C99 C 0.18222 0.12421 -0.64488
 C100 C 0.21276 0.14574 -0.60116
 C101 C 0.21375 0.14437 -0.35688
 C102 C 0.18302 0.12659 -0.31395
 C103 C 0.15965 0.17942 -0.29262
 C104 C 0.16791 0.25086 -0.31602
 C105 C 0.19826 0.26802 -0.36204
 C106 C 0.31040 0.19732 -0.39221
 C107 C 0.34005 0.20789 -0.33733
 C108 C 0.34310 0.26368 -0.26572
 C109 C 0.31548 0.30610 -0.24547
 C110 C 0.28568 0.29460 -0.29885
 H111 H 0.28348 0.37079 -0.49362
 H112 H 0.33429 0.42167 -0.56630
 H113 H 0.33828 0.23672 -0.76732
 H114 H 0.28795 0.18723 -0.69289
 H115 H 0.21074 0.32415 -0.64057
 H116 H 0.15782 0.28766 -0.71936
 H117 H 0.22795 0.10617 -0.56709
 H118 H 0.23132 0.10282 -0.37264
 H119 H 0.17755 0.07113 -0.29724
 H120 H 0.15065 0.29331 -0.30359
 H121 H 0.20377 0.32271 -0.38240
 H122 H 0.30874 0.15549 -0.44961
 H123 H 0.36109 0.17481 -0.35405
 H124 H 0.31730 0.34917 -0.18991
 H125 H 0.26492 0.32883 -0.28375
 H126 H 0.17472 0.06810 -0.64364
 C127 C -0.24041 0.69892 -0.46205
 C128 C -0.24094 0.70947 -0.56187
 C129 C -0.21201 0.74396 -0.61213
 C130 C -0.27167 0.69198 -0.62096
 C131 C -0.27157 0.68418 -0.40741
 C132 C -0.20974 0.71133 -0.40177
 C133 C -0.19982 0.81166 -0.57927
 C134 C -0.17081 0.84167 -0.61996
 C135 C -0.15345 0.80530 -0.69567
 C136 C -0.16672 0.73826 -0.73127
 C137 C -0.19575 0.70823 -0.68985
 C138 C -0.28883 0.74612 -0.66725
 C139 C -0.32076 0.73212 -0.70768
 C140 C -0.33612 0.66325 -0.70218
 C141 C -0.31779 0.60861 -0.66023
 C142 C -0.28587 0.62261 -0.62098
 C143 C -0.27889 0.61593 -0.37197
 C144 C -0.30925 0.60173 -0.32463
 C145 C -0.33221 0.65621 -0.30941
 C146 C -0.32410 0.72536 -0.34282
 C147 C -0.29418 0.73882 -0.39237
 C148 C -0.18142 0.67085 -0.42001
 C149 C -0.15153 0.68771 -0.36907
 C150 C -0.14965 0.74607 -0.30140
 C151 C -0.17838 0.78446 -0.28014
 C152 C -0.20833 0.76672 -0.32932
 H153 H -0.21248 0.84072 -0.52053
 H154 H -0.16177 0.89344 -0.59111
 H155 H -0.15485 0.70741 -0.78932
 H156 H -0.20498 0.65605 -0.71637
 H157 H -0.27823 0.80008 -0.66750
 H158 H -0.33344 0.77645 -0.73873
 H159 H -0.27278 0.57990 -0.58654
 H160 H -0.26149 0.57341 -0.38330
 H161 H -0.31474 0.54805 -0.29980
 H162 H -0.34110 0.76875 -0.33298
 H163 H -0.28862 0.79184 -0.41948
 H164 H -0.18231 0.62760 -0.47537
 H165 H -0.12952 0.65764 -0.38602
 H166 H -0.17735 0.82930 -0.22730
 H167 H -0.22997 0.79842 -0.31432
 H168 H -0.32847 0.55495 -0.65563
 N169 N 0.03575 0.95169 -0.19734
 N170 N 0.06224 0.95309 -0.25550
 N171 N -0.03299 0.88429 -0.13663
 N172 N -0.05815 0.83796 -0.15249
 N173 N -0.03444 0.93712 -0.19853
 N174 N -0.06081 0.92885 -0.25740
 N175 N 0.03687 0.89827 -0.13634
 N176 N 0.06402 0.86166 -0.15129
 C177 C 0.07948 0.89635 -0.22608
 C178 C -0.07508 0.86658 -0.22849
 N179 N -0.03282 0.91997 0.15301
 N180 N -0.05897 0.90557 0.20957
 N181 N 0.03795 0.88777 0.07555
 N182 N 0.06391 0.84667 0.08138
 N183 N 0.03773 0.93418 0.15062
 N184 N 0.06370 0.92580 0.20997
 N185 N -0.03191 0.87420 0.07715
 N186 N -0.05710 0.82718 0.08044
 Mn187 Mn 0.00240 0.88539 -0.03011
 C188 C -0.07370 0.84724 0.16345
 C189 C 0.07978 0.87103 0.16521
 N190 N -0.03929 1.08840 -0.17869
 N191 N -0.06590 1.08913 -0.23662
 N192 N 0.02904 1.15159 -0.10397
 N193 N 0.05528 1.19642 -0.10549
 N194 N 0.03072 1.10388 -0.17726
 N195 N 0.05805 1.11436 -0.22968
 N196 N -0.04149 1.13501 -0.10419
 N197 N -0.06975 1.16957 -0.11061
 Mn198 Mn -0.00174 1.02047 -0.18895
 C199 C -0.08450 1.14023 -0.19430
 C200 C 0.07297 1.17249 -0.18477
 N201 N 0.03326 1.08778 0.17058
 N202 N 0.06122 1.09514 0.22319
 N203 N -0.04014 1.12490 0.11230
 N204 N -0.06707 1.16150 0.13356
 N205 N -0.03703 1.07265 0.17477
 N206 N -0.06159 1.07220 0.23975
 N207 N 0.03033 1.14149 0.11035
 N208 N 0.05614 1.18695 0.12121
 Mn209 Mn 0.00039 1.00369 0.16362
 Mn210 Mn -0.00576 1.13942 0.00383
 Cl211 Cl -0.00122 1.01238 -0.01272
 C212 C 0.07509 1.15757 0.19212
 C213 C -0.08013 1.12770 0.21350
 N214 N 0.53330 0.64886 -0.10836
 N215 N 0.55994 0.69197 -0.11481
 N216 N 0.46285 0.58956 -0.17785
 N217 N 0.43605 0.59187 -0.23543
 N218 N 0.46331 0.64219 -0.11126
 N219 N 0.43709 0.68207 -0.12185
 N220 N 0.53337 0.59732 -0.17708
 N221 N 0.56026 0.60148 -0.23301
 C222 C 0.57836 0.66252 -0.19600
 C223 C 0.42038 0.65009 -0.19941
 N224 N 0.46684 0.38632 -0.11021
 N225 N 0.43974 0.34384 -0.11659
 N226 N 0.53471 0.44456 -0.17884
 N227 N 0.55704 0.43321 -0.24871
 N228 N 0.53800 0.39993 -0.10590
 N229 N 0.56381 0.35878 -0.12247
 N230 N 0.46533 0.43633 -0.17680
 N231 N 0.43755 0.42960 -0.22946
 Mn232 Mn 0.49890 0.51704 -0.17852
 C233 C 0.42207 0.37133 -0.19238
 C234 C 0.57530 0.38055 -0.21217
 N235 N 0.46194 0.64703 0.10116
 N236 N 0.43496 0.68546 0.10503
 N237 N 0.53148 0.60669 0.17750
 N238 N 0.55924 0.61228 0.23112
 N239 N 0.53207 0.65427 0.10729
 N240 N 0.55991 0.69404 0.11244
 N241 N 0.46078 0.59762 0.16869
 N242 N 0.43289 0.60106 0.22036
 Mn243 Mn 0.49782 0.64892 -0.00269
 C244 C 0.41719 0.65643 0.17985
 C245 C 0.57648 0.66750 0.19046
 N246 N 0.53674 0.40482 0.11141
 N247 N 0.56452 0.36991 0.12689
 N248 N 0.46304 0.44312 0.17108
 N249 N 0.43587 0.43287 0.22518
 N250 N 0.46593 0.39090 0.10452
 N251 N 0.44075 0.34400 0.11137
 N252 N 0.53317 0.45445 0.18131
 N253 N 0.55798 0.45448 0.24607
 Mn254 Mn 0.50218 0.39427 -0.00000
 Mn255 Mn 0.49687 0.52558 0.17588
 Cl256 Cl 0.49900 0.52121 -0.00124
 C257 C 0.57733 0.40180 0.21180
 C258 C 0.42227 0.37058 0.18706
 C259 C 0.37151 0.36471 0.29156
 C260 C 0.39080 0.33567 0.22045
 H261 H 0.37994 0.41580 0.32445
 H262 H 0.38404 0.28514 0.18403
 C263 C -0.12353 0.83740 0.26926
 C264 C -0.10464 0.81058 0.19586
 H265 H -0.11519 0.88790 0.30415
 H266 H -0.11169 0.76174 0.15550
 C267 C 0.63077 0.64665 0.26685
 C268 C 0.61069 0.69073 0.21935
 H269 H 0.62083 0.59339 0.28171
 H270 H 0.61934 0.74269 0.19560
 C271 C 0.12976 1.14929 0.27522
 C272 C 0.10768 1.18849 0.22666
 H273 H 0.12289 1.09352 0.28617
 H274 H 0.11340 1.24317 0.20778
 C275 C 0.63057 0.32821 -0.21754
 C276 C 0.60190 0.35217 -0.26447
 H277 H 0.63292 0.33840 -0.13768
 H278 H 0.60280 0.36223 -0.34362
 C279 C 0.12482 0.81360 -0.24910
 C280 C 0.11166 0.87651 -0.26807
 H281 H 0.11091 0.77494 -0.20561
 H282 H 0.12415 0.91328 -0.31771
 C283 C 0.36738 0.63397 -0.29105
 C284 C 0.38867 0.67569 -0.23683
 H285 H 0.37289 0.57837 -0.30565
 H286 H 0.38204 0.72935 -0.21436
 C287 C -0.13191 1.21897 -0.22181
 C288 C -0.11772 1.15577 -0.23326
 H289 H -0.11854 1.26267 -0.18280
 H290 H -0.12966 1.11476 -0.28107
 C291 C 0.63724 0.63975 -0.26403
 C292 C 0.61538 0.68932 -0.23931
 H293 H 0.63111 0.58433 -0.24792
 H294 H 0.59644 0.67896 -0.21354
 C295 C 0.12846 1.15786 -0.25396
 C296 C 0.10583 1.20168 -0.21442
 H297 H 0.12244 1.10087 -0.25486
 H298 H 0.11137 1.25793 -0.20024
 C299 C 0.37598 0.28196 -0.22001
 C300 C 0.38822 0.34889 -0.22409
 H301 H 0.39151 0.23985 -0.19416
 H302 H 0.37365 0.38876 -0.26007
 C303 C -0.11726 0.77050 -0.25900
 C304 C -0.10685 0.83827 -0.26923
 H305 H -0.10124 0.73227 -0.22524
 H306 H -0.12193 0.87432 -0.31086
 C307 C 0.36468 0.64460 0.27173
 C308 C 0.38426 0.68122 0.20950
 H309 H 0.37291 0.59396 0.29861
 H310 H 0.37585 0.72949 0.17634
 C311 C -0.13047 1.19945 0.24150
 C312 C -0.11076 1.14641 0.26721
 H313 H -0.12317 1.23258 0.17978
 H314 H -0.11672 1.11486 0.33138
 C315 C 0.63188 0.34268 0.22540
 C316 C 0.60861 0.38520 0.26310
 H317 H 0.62725 0.31523 0.15422
 H318 H 0.61234 0.41074 0.33577
 C319 C 0.12733 0.86545 0.28165
 C320 C 0.11025 0.83913 0.20226
 H321 H 0.11949 0.91437 0.31833
 H322 H 0.11896 0.79300 0.16093
   
