data_POSCAR
  _audit_creation_date              2014-09-24
  _audit_creation_method            'ToBaCCo'
  _symmetry_space_group_name_H-M    'P1'
  _symmetry_Int_Tables_number       1
  _symmetry_cell_setting            triclinic
  loop_
  _symmetry_equiv_pos_as_xyz
 x,y,z
_cell_length_a 43.1510
_cell_length_b 44.7686
_cell_length_c 43.8044
_cell_angle_alpha 90.689600
_cell_angle_beta 88.427400
_cell_angle_gamma 87.769700
loop_
  _atom_site_label
  _atom_site_type_symbol
  _atom_site_fract_x
  _atom_site_fract_y
  _atom_site_fract_z
C1 C 0.17083 1.23369 0.18717
 N2 N 0.19545 1.21996 0.17204
 C3 C 0.21030 1.19556 0.18365
 N4 N 0.19979 1.18434 0.21048
 C5 C 0.17500 1.19748 0.22597
 N6 N 0.16092 1.22242 0.21429
 C7 C 0.81214 0.77949 0.20544
 N8 N 0.82468 0.79210 0.23047
 C9 C 0.81263 0.81828 0.24270
 N10 N 0.78764 0.83172 0.22957
 C11 C 0.77476 0.81954 0.20465
 N12 N 0.78721 0.79350 0.19269
 C13 C 0.80212 1.23440 -0.19692
 N14 N 0.77684 1.22036 -0.18600
 C15 C 0.76753 1.19488 -0.19954
 N16 N 0.78392 1.18344 -0.22419
 C17 C 0.80939 1.19703 -0.23540
 N18 N 0.81830 1.22253 -0.22153
 C19 C 0.20086 0.76101 -0.18060
 N20 N 0.22475 0.77448 -0.16715
 C21 C 0.23685 0.79949 -0.17902
 N22 N 0.22453 0.81136 -0.20459
 C23 C 0.20093 0.79804 -0.21876
 N24 N 0.18938 0.77278 -0.20666
 C25 C 0.52330 1.05730 -0.02152
 H26 H 0.50519 1.06669 -0.00639
 C27 C 0.54287 1.07635 -0.03718
 H28 H 0.53916 1.10029 -0.03437
 C29 C 0.55046 1.01481 -0.04319
 H30 H 0.55352 0.99075 -0.04495
 C31 C 0.57061 1.03302 -0.05923
 H32 H 0.58928 1.02273 -0.07317
 N33 N 0.52736 1.02714 -0.02482
 C34 C 0.47553 1.02114 0.05523
 H35 H 0.49358 1.00769 0.06563
 C36 C 0.45304 1.03633 0.07374
 H37 H 0.45440 1.03486 0.09832
 C38 C 0.45151 1.03911 0.01067
 H39 H 0.45086 1.03962 -0.01399
 C40 C 0.42855 1.05454 0.02825
 H41 H 0.41016 1.06675 0.01686
 Zn42 Zn 0.50271 1.00097 -0.00189
 N43 N 0.47443 1.02291 0.02430
 C44 C 0.55040 0.98985 0.03885
 N45 N 0.52990 0.97623 0.02080
 C46 C 0.53004 0.94594 0.01788
 C47 C 0.55122 0.92809 0.03378
 C48 C 0.57200 0.97287 0.05511
 C49 C 0.48049 0.97982 -0.05869
 C50 C 0.46064 0.96382 -0.07689
 C51 C 0.43727 0.94391 -0.03109
 C52 C 0.45755 0.96022 -0.01381
 N53 N 0.47862 0.97768 -0.02774
 H54 H 0.55015 1.01400 0.04030
 H55 H 0.51399 0.93553 0.00298
 H56 H 0.55077 0.90401 0.03139
 H57 H 0.58848 0.98420 0.06891
 H58 H 0.49698 0.99428 -0.06930
 H59 H 0.46249 0.96570 -0.10149
 H60 H 0.42019 0.93073 -0.01945
 H61 H 0.45616 0.95943 0.01086
 C62 C 0.42906 1.05324 0.06026
 C63 C 0.56706 1.06426 -0.05620
 C64 C 0.43854 0.94567 -0.06309
 C65 C 0.57265 0.94153 0.05266
 C66 C -0.02854 0.54625 1.03791
 H67 H -0.00346 0.54560 1.03831
 C68 C -0.04577 0.56669 1.05645
 H69 H -0.03363 0.58188 1.07088
 C70 C -0.07444 0.52842 1.01688
 H71 H -0.08546 0.51393 1.00091
 C72 C -0.09263 0.54841 1.03520
 H73 H -0.11762 0.54860 1.03356
 N74 N -0.04300 0.52787 1.01843
 C75 C 0.03049 0.46077 0.99790
 H76 H 0.03497 0.46524 0.97400
 C77 C 0.04828 0.43883 1.01241
 H78 H 0.06718 0.42774 0.99950
 C79 C 0.00058 0.47066 1.04322
 H80 H -0.01850 0.48277 1.05489
 C81 C 0.01691 0.44790 1.05830
 H82 H 0.00968 0.44283 1.08142
 Zn83 Zn -0.01707 0.50423 0.99151
 N84 N 0.00761 0.47661 1.01353
 C85 C 0.03913 0.53061 0.97138
 N86 N 0.00773 0.53098 0.96920
 C87 C -0.00737 0.55150 0.95176
 C88 C 0.00924 0.57193 0.93465
 C89 C 0.05667 0.55052 0.95454
 C90 C -0.05845 0.46012 0.97785
 C91 C -0.07403 0.44014 0.95964
 C92 C -0.05289 0.46393 0.91490
 C93 C -0.03762 0.48341 0.93398
 N94 N -0.04060 0.48114 0.96486
 H95 H 0.05074 0.51512 0.98633
 H96 H -0.03243 0.55189 0.95108
 H97 H -0.00328 0.58816 0.92106
 H98 H 0.08168 0.54931 0.95607
 H99 H -0.05987 0.45837 1.00245
 H100 H -0.08728 0.42297 0.97050
 H101 H -0.05013 0.46602 0.89039
 H102 H -0.02271 0.49972 0.92403
 C103 C 0.04131 0.43150 1.04297
 C104 C -0.07829 0.56825 1.05502
 C105 C -0.07109 0.44166 0.92768
 C106 C 0.04177 0.57148 0.93573
 C107 C 1.06947 -0.01607 0.54633
 H108 H 1.07279 0.00719 0.54125
 C109 C 1.08793 -0.03038 0.56780
 H110 H 1.10620 -0.01799 0.57779
 C111 C 1.04161 -0.05992 0.53880
 H112 H 1.02299 -0.07107 0.52791
 C113 C 1.05859 -0.07470 0.56118
 H114 H 1.05228 -0.09705 0.56719
 N115 N 1.04726 -0.03109 0.53188
 C116 C 1.02681 0.03002 0.45711
 H117 H 1.00173 0.03061 0.45878
 C118 C 1.04179 0.04671 0.43483
 H119 H 1.02801 0.05997 0.41932
 C120 C 1.07503 0.01068 0.47432
 H121 H 1.08795 -0.00410 0.48900
 C122 C 1.09097 0.02704 0.45242
 H123 H 1.11607 0.02534 0.45128
 Zn124 Zn 1.02081 -0.00979 0.50533
 N125 N 1.04350 0.01284 0.47665
 C126 C 0.99236 0.04542 0.52799
 N127 N 0.99416 0.01513 0.53049
 C128 C 0.97734 0.00102 0.55227
 C129 C 0.95705 0.01729 0.57205
 C130 C 0.97229 0.06262 0.54738
 C131 C 1.01314 -0.05588 0.46298
 C132 C 0.99715 -0.07428 0.44339
 C133 C 0.94890 -0.05299 0.46473
 C134 C 0.96580 -0.03486 0.48376
 N135 N 0.99735 -0.03651 0.48245
 H136 H 1.00649 0.05633 0.51109
 H137 H 0.97967 -0.02303 0.55414
 H138 H 0.94404 0.00556 0.58933
 H139 H 0.97073 0.08664 0.54475
 H140 H 1.03824 -0.05641 0.46213
 H141 H 1.01020 -0.08878 0.42733
 H142 H 0.92380 -0.05129 0.46614
 H143 H 0.95363 -0.01897 0.49895
 C144 C 1.07434 0.04543 0.43232
 C145 C 1.08231 -0.06002 0.57617
 C146 C 0.96455 -0.07271 0.44381
 C147 C 0.95414 0.04851 0.56965
 C148 C 0.11816 0.30099 1.17856
 C149 C 0.12373 0.30849 1.14766
 C150 C 0.14481 0.28978 1.13010
 C151 C 0.16114 0.26598 1.14366
 C152 C 0.15538 0.25862 1.17436
 C153 C 0.13333 0.27622 1.19145
 C154 C 0.14917 0.29459 1.09890
 C155 C 0.13214 0.31691 1.08441
 C156 C 0.11109 0.33628 1.10096
 C157 C 0.10847 0.33332 1.13335
 C158 C 0.09142 0.35569 1.15034
 C159 C 0.07680 0.37975 1.13599
 C160 C 0.07710 0.38151 1.10417
 C161 C 0.09331 0.35916 1.08624
 C162 C 0.09032 0.36006 1.05426
 C163 C 0.07304 0.38296 1.04065
 C164 C 0.05884 0.40648 1.05816
 C165 C 0.06107 0.40538 1.09015
 H166 H 0.10130 0.31321 1.19299
 H167 H 0.17749 0.25238 1.12968
 H168 H 0.12796 0.27115 1.21509
 H169 H 0.16542 0.28049 1.08536
 H170 H 0.13689 0.31931 1.06029
 H171 H 0.09008 0.35582 1.17496
 H172 H 0.06451 0.39677 1.14994
 H173 H 0.09996 0.34261 1.03924
 H174 H 0.07051 0.38167 1.01619
 H175 H 0.05045 0.42304 1.10442
 C176 C -0.13526 0.71227 1.19167
 C177 C -0.14690 0.69987 1.16458
 C178 C -0.17304 0.71463 1.15178
 C179 C -0.18681 0.74046 1.16573
 C180 C -0.17475 0.75279 1.19237
 C181 C -0.14890 0.73817 1.20517
 C182 C -0.18520 0.70382 1.12485
 C183 C -0.17145 0.67919 1.10960
 C184 C -0.14493 0.66403 1.12090
 C185 C -0.13315 0.67384 1.14944
 C186 C -0.10805 0.65731 1.16182
 C187 C -0.09405 0.63289 1.14636
 C188 C -0.10412 0.62409 1.11778
 C189 C -0.12973 0.63941 1.10459
 C190 C -0.13849 0.62987 1.07521
 C191 C -0.12225 0.60650 1.05966
 C192 C -0.09684 0.59160 1.07274
 C193 C -0.08826 0.60030 1.10209
 H194 H -0.11520 0.70294 1.20275
 H195 H -0.20674 0.75121 1.15527
 H196 H -0.13879 0.74683 1.22568
 H197 H -0.20542 0.71481 1.11514
 H198 H -0.18246 0.67244 1.08902
 H199 H -0.09869 0.66252 1.18370
 H200 H -0.07470 0.62106 1.15672
 H201 H -0.15716 0.64052 1.06308
 H202 H -0.12909 0.60078 1.03679
 H203 H -0.06889 0.58874 1.11269
 C204 C -0.19325 0.29901 0.85939
 C205 C -0.16554 0.31263 0.84992
 C206 C -0.14912 0.30014 0.82402
 C207 C -0.16009 0.27517 0.80857
 C208 C -0.18729 0.26170 0.81857
 C209 C -0.20380 0.27405 0.84398
 C210 C -0.12158 0.31236 0.81377
 C211 C -0.10930 0.33626 0.82911
 C212 C -0.12423 0.34915 0.85546
 C213 C -0.15328 0.33771 0.86553
 C214 C -0.16900 0.35164 0.89092
 C215 C -0.15636 0.37512 0.90666
 C216 C -0.12750 0.38563 0.89799
 C217 C -0.11101 0.37299 0.87220
 C218 C -0.08162 0.38439 0.86472
 C219 C -0.06917 0.40692 0.88234
 C220 C -0.08546 0.41907 0.90796
 C221 C -0.11484 0.40851 0.91538
 H222 H -0.20713 0.30668 0.87893
 H223 H -0.14700 0.26592 0.78895
 H224 H -0.22490 0.26421 0.85231
 H225 H -0.10910 0.30309 0.79379
 H226 H -0.08795 0.34417 0.81952
 H227 H -0.19133 0.34499 0.89931
 H228 H -0.16921 0.38490 0.92617
 H229 H -0.06718 0.37598 0.84587
 H230 H -0.04619 0.41423 0.87633
 H231 H -0.12786 0.41798 0.93493
 C232 C 0.18312 0.70257 0.87633
 C233 C 0.15604 0.69022 0.86476
 C234 C 0.14581 0.70048 0.83611
 C235 C 0.16123 0.72320 0.82071
 C236 C 0.18712 0.73637 0.83331
 C237 C 0.19819 0.72517 0.86095
 C238 C 0.11987 0.68843 0.82313
 C239 C 0.10338 0.66670 0.83812
 C240 C 0.11197 0.65630 0.86713
 C241 C 0.13868 0.66835 0.88074
 C242 C 0.14668 0.65874 0.91019
 C243 C 0.12927 0.63823 0.92591
 C244 C 0.10334 0.62618 0.91297
 C245 C 0.09442 0.63467 0.88328
 C246 C 0.06814 0.62120 0.87119
 C247 C 0.05133 0.60077 0.88812
 C248 C 0.05998 0.59295 0.91765
 C249 C 0.08615 0.60575 0.92983
 H250 H 0.19333 0.69545 0.89730
 H251 H 0.15244 0.73104 0.79915
 H252 H 0.21842 0.73419 0.87127
 H253 H 0.11201 0.69606 0.80115
 H254 H 0.08353 0.65895 0.82647
 H255 H 0.16605 0.66706 0.92220
 H256 H 0.13618 0.63180 0.94859
 H257 H 0.05997 0.62571 0.84865
 H258 H 0.03162 0.59078 0.87783
 H259 H 0.09293 0.60019 0.95278
 C260 C 1.12407 0.18340 0.29403
 C261 C 1.13662 0.15586 0.30470
 C262 C 1.16332 0.14333 0.28907
 C263 C 1.17648 0.15771 0.26382
 C264 C 1.16320 0.18453 0.25286
 C265 C 1.13708 0.19733 0.26863
 C266 C 1.17659 0.11616 0.29831
 C267 C 1.16338 0.10044 0.32210
 C268 C 1.13626 0.11140 0.33792
 C269 C 1.12326 0.14006 0.32979
 C270 C 1.09731 0.15185 0.34692
 C271 C 1.08384 0.13590 0.37045
 C272 C 1.09534 0.10742 0.37771
 C273 C 1.12169 0.09467 0.36161
 C274 C 1.13192 0.06540 0.36957
 C275 C 1.11670 0.04974 0.39249
 C276 C 1.09079 0.06254 0.40839
 C277 C 1.08037 0.09152 0.40091
 H278 H 1.10373 0.19453 0.30427
 H279 H 1.19674 0.14733 0.25224
 H280 H 1.12614 0.21805 0.26112
 H281 H 1.19725 0.10664 0.28667
 H282 H 1.17525 0.07970 0.32763
 H283 H 1.08681 0.17360 0.34290
 H284 H 1.06387 0.14586 0.38285
 H285 H 1.15119 0.05358 0.35815
 H286 H 1.12491 0.02717 0.39731
 H287 H 1.06053 0.10181 0.41325
 C288 C 1.15446 -0.19255 0.71125
 C289 C 1.16075 -0.16301 0.70264
 C290 C 1.18035 -0.14652 0.72140
 C291 C 1.19466 -0.15996 0.74644
 C292 C 1.18801 -0.18927 0.75497
 C293 C 1.16744 -0.20518 0.73721
 C294 C 1.18507 -0.11646 0.71547
 C295 C 1.16964 -0.10199 0.69212
 C296 C 1.15001 -0.11754 0.67277
 C297 C 1.14738 -0.14896 0.67673
 C298 C 1.13207 -0.16534 0.65433
 C299 C 1.11872 -0.15121 0.62953
 C300 C 1.11861 -0.12015 0.62701
 C301 C 1.13347 -0.10282 0.64910
 C302 C 1.13021 -0.07140 0.64729
 C303 C 1.11348 -0.05785 0.62406
 C304 C 1.10020 -0.07493 0.60104
 C305 C 1.10328 -0.10629 0.60272
 H306 H 1.13854 -0.20600 0.69908
 H307 H 1.20990 -0.14691 0.76013
 H308 H 1.16147 -0.22772 0.74309
 H309 H 1.20021 -0.10373 0.72957
 H310 H 1.17441 -0.07875 0.68898
 H311 H 1.13108 -0.18936 0.65481
 H312 H 1.10757 -0.16470 0.61263
 H313 H 1.13904 -0.05671 0.66441
 H314 H 1.11048 -0.03377 0.62485
 H315 H 1.09363 -0.12022 0.58531
 C316 C 0.82854 -0.12596 0.30349
 C317 C 0.85572 -0.13824 0.31662
 C318 C 0.86722 -0.16653 0.30551
 C319 C 0.85269 -0.18108 0.28144
 C320 C 0.82636 -0.16805 0.26788
 C321 C 0.81430 -0.14055 0.27967
 C322 C 0.89339 -0.18009 0.31824
 C323 C 0.90872 -0.16614 0.34160
 C324 C 0.89871 -0.13764 0.35305
 C325 C 0.87189 -0.12336 0.34017
 C326 C 0.86252 -0.09440 0.35077
 C327 C 0.87871 -0.07978 0.37299
 C328 C 0.90471 -0.09339 0.38587
 C329 C 0.91497 -0.12264 0.37650
 C330 C 0.94124 -0.13542 0.39095
 C331 C 0.95691 -0.11946 0.41296
 C332 C 0.94704 -0.09029 0.42148
 C333 C 0.92072 -0.07756 0.40790
 H334 H 0.81750 -0.10510 0.31102
 H335 H 0.86230 -0.20248 0.27310
 H336 H 0.79378 -0.12981 0.27032
 H337 H 0.90225 -0.20177 0.30994
 H338 H 0.92883 -0.17819 0.34981
 H339 H 0.84299 -0.08193 0.34196
 H340 H 0.87078 -0.05742 0.38009
 H341 H 0.95029 -0.15774 0.38591
 H342 H 0.97682 -0.13012 0.42347
 H343 H 0.91302 -0.05485 0.41392
 C344 C 0.87257 0.18359 0.70568
 C345 C 0.86435 0.15632 0.69192
 C346 C 0.83621 0.14391 0.70206
 C347 C 0.81794 0.15772 0.72562
 C348 C 0.82693 0.18422 0.73980
 C349 C 0.85423 0.19717 0.72909
 C350 C 0.82649 0.11749 0.68896
 C351 C 0.84428 0.10263 0.66628
 C352 C 0.87292 0.11350 0.65580
 C353 C 0.88312 0.14084 0.66880
 C354 C 0.91202 0.15141 0.65870
 C355 C 0.93058 0.13569 0.63714
 C356 C 0.92113 0.10895 0.62449
 C357 C 0.89200 0.09762 0.63323
 C358 C 0.88342 0.07060 0.61919
 C359 C 0.90336 0.05519 0.59835
 C360 C 0.93248 0.06604 0.59056
 C361 C 0.94100 0.09323 0.60341
 H362 H 0.89311 0.19507 0.69906
 H363 H 0.79677 0.14739 0.73310
 H364 H 0.86190 0.21778 0.73907
 H365 H 0.80490 0.10798 0.69651
 H366 H 0.83500 0.08227 0.65780
 H367 H 0.92139 0.17165 0.66738
 H368 H 0.95276 0.14453 0.63045
 H369 H 0.86152 0.06060 0.62372
 H370 H 0.89585 0.03460 0.58821
 H371 H 0.96355 0.10180 0.59766
 C372 C 0.27516 1.18110 0.12464
 C373 C 0.28999 1.15445 0.13495
 C374 C 0.27754 1.14134 0.16169
 C375 C 0.25178 1.15483 0.17751
 C376 C 0.23754 1.18132 0.16703
 C377 C 0.24949 1.19417 0.14041
 C378 C 0.29074 1.11475 0.17251
 C379 C 0.31578 1.10044 0.15715
 C380 C 0.32900 1.11237 0.13032
 C381 C 0.31639 1.14023 0.11948
 C382 C 0.33070 1.15304 0.09365
 C383 C 0.35574 1.13880 0.07831
 C384 C 0.36751 1.11114 0.08782
 C385 C 0.35446 1.09745 0.11395
 C386 C 0.36725 1.06914 0.12224
 C387 C 0.39161 1.05518 0.10514
 C388 C 0.40420 1.06881 0.07927
 C389 C 0.39218 1.09700 0.07100
 H390 H 0.28245 1.19233 0.10423
 H391 H 0.24271 1.14448 0.19797
 H392 H 0.23898 1.21455 0.13159
 H393 H 0.28142 1.10470 0.19303
 H394 H 0.32443 1.08005 0.16721
 H395 H 0.32330 1.17435 0.08470
 H396 H 0.36583 1.14948 0.05851
 H397 H 0.35861 1.05680 0.14140
 H398 H 0.40008 1.03319 0.11181
 H399 H 0.40202 1.10800 0.05128
 C400 C 0.70607 1.13737 -0.18895
 C401 C 0.69176 1.14586 -0.16050
 C402 C 0.70249 1.17166 -0.14563
 C403 C 0.72649 1.18796 -0.15882
 C404 C 0.74079 1.17885 -0.18670
 C405 C 0.73012 1.15355 -0.20166
 C406 C 0.68957 1.18090 -0.11742
 C407 C 0.66678 1.16468 -0.10302
 C408 C 0.65572 1.13844 -0.11641
 C409 C 0.66774 1.12937 -0.14605
 C410 C 0.65543 1.10408 -0.16017
 C411 C 0.63300 1.08758 -0.14556
 C412 C 0.62202 1.09534 -0.11621
 C413 C 0.63307 1.12090 -0.10116
 C414 C 0.62134 1.12742 -0.07119
 C415 C 0.59982 1.10928 -0.05697
 C416 C 0.58909 1.08405 -0.07197
 C417 C 0.60018 1.07739 -0.10174
 H418 H 0.69977 1.11799 -0.20180
 H419 H 0.73450 1.20744 -0.14688
 H420 H 0.74061 1.14592 -0.22326
 H421 H 0.69746 1.20077 -0.10609
 H422 H 0.65820 1.17352 -0.08132
 H423 H 0.66251 1.09637 -0.18275
 H424 H 0.62442 1.06823 -0.15728
 H425 H 0.62872 1.14597 -0.05772
 H426 H 0.59210 1.11469 -0.03376
 H427 H 0.59180 1.05812 -0.11374
 C428 C 0.30094 0.81391 -0.12392
 C429 C 0.31264 0.84125 -0.13424
 C430 C 0.29855 0.85466 -0.15983
 C431 C 0.27415 0.84090 -0.17447
 C432 C 0.26290 0.81383 -0.16389
 C433 C 0.27658 0.80057 -0.13850
 C434 C 0.30870 0.88185 -0.17064
 C435 C 0.33215 0.89651 -0.15630
 C436 C 0.34676 0.88438 -0.13052
 C437 C 0.33739 0.85590 -0.11980
 C438 C 0.35311 0.84300 -0.09504
 C439 C 0.37634 0.85775 -0.08051
 C440 C 0.38483 0.88599 -0.08981
 C441 C 0.37038 0.89976 -0.11502
 C442 C 0.37989 0.92861 -0.12321
 C443 C 0.40232 0.94309 -0.10677
 C444 C 0.41617 0.92944 -0.08169
 C445 C 0.40755 0.90067 -0.07366
 H446 H 0.30969 0.80232 -0.10437
 H447 H 0.26374 0.85154 -0.19400
 H448 H 0.26842 0.77970 -0.12967
 H449 H 0.29816 0.89211 -0.19032
 H450 H 0.33842 0.91738 -0.16624
 H451 H 0.34819 0.82129 -0.08629
 H452 H 0.38755 0.84700 -0.06145
 H453 H 0.37005 0.94098 -0.14175
 H454 H 0.40819 0.96549 -0.11325
 H455 H 0.41844 0.88968 -0.05457
 C456 C 0.70940 0.87610 0.18996
 C457 C 0.69844 0.86660 0.16138
 C458 C 0.71305 0.84071 0.14757
 C459 C 0.73737 0.82516 0.16199
 C460 C 0.74812 0.83512 0.19012
 C461 C 0.73376 0.86064 0.20392
 C462 C 0.70360 0.83059 0.11923
 C463 C 0.68040 0.84591 0.10378
 C464 C 0.66537 0.87207 0.11621
 C465 C 0.67395 0.88213 0.14587
 C466 C 0.65777 0.90735 0.15902
 C467 C 0.63471 0.92278 0.14351
 C468 C 0.62690 0.91398 0.11419
 C469 C 0.64201 0.88852 0.10002
 C470 C 0.63334 0.88095 0.07002
 C471 C 0.61079 0.89795 0.05497
 C472 C 0.59600 0.92305 0.06914
 C473 C 0.60410 0.93078 0.09889
 H474 H 0.70011 0.89569 0.20201
 H475 H 0.74830 0.80552 0.15093
 H476 H 0.74149 0.86896 0.22563
 H477 H 0.71451 0.81068 0.10866
 H478 H 0.67465 0.83641 0.08207
 H479 H 0.66216 0.91576 0.18154
 H480 H 0.62305 0.94207 0.15454
 H481 H 0.64387 0.86238 0.05719
 H482 H 0.60542 0.89173 0.03180
 H483 H 0.59256 0.94994 0.11026
   
