data_POSCAR
  _audit_creation_date              2014-09-24
  _audit_creation_method            'ToBaCCo'
  _symmetry_space_group_name_H-M    'P1'
  _symmetry_Int_Tables_number       1
  _symmetry_cell_setting            triclinic
  loop_
  _symmetry_equiv_pos_as_xyz
 x,y,z
_cell_length_a 43.8331
_cell_length_b 43.7428
_cell_length_c 44.4406
_cell_angle_alpha 89.973400
_cell_angle_beta 90.036400
_cell_angle_gamma 89.842900
loop_
  _atom_site_label
  _atom_site_type_symbol
  _atom_site_fract_x
  _atom_site_fract_y
  _atom_site_fract_z
C1 C 0.30840 0.30774 -0.01221
 C2 C 0.30910 0.30728 0.01842
 C3 C 0.28969 0.32806 0.03682
 C4 C 0.33201 0.28885 0.03488
 C5 C 0.32945 0.28875 -0.03082
 C6 C 0.28936 0.33037 -0.02847
 C7 C 0.30337 0.34749 0.05799
 C8 C 0.28577 0.36804 0.07460
 C9 C 0.25405 0.36981 0.07028
 C10 C 0.24022 0.34995 0.04952
 C11 C 0.25784 0.32899 0.03322
 C12 C 0.36254 0.29832 0.03595
 C13 C 0.38394 0.28161 0.05251
 C14 C 0.37525 0.25473 0.06744
 C15 C 0.34480 0.24499 0.06593
 C16 C 0.32317 0.26232 0.05024
 C17 C 0.33231 0.25708 -0.02640
 C18 C 0.35343 0.24000 -0.04306
 C19 C 0.37158 0.25404 -0.06537
 C20 C 0.36751 0.28567 -0.07049
 C21 C 0.34697 0.30269 -0.05335
 C22 C 0.26287 0.32109 -0.04357
 C23 C 0.24525 0.34245 -0.05937
 C24 C 0.25464 0.37306 -0.06117
 C25 C 0.28133 0.38221 -0.04626
 C26 C 0.29833 0.36109 -0.02964
 H27 H 0.32784 0.34726 0.06127
 H28 H 0.29716 0.38303 0.09037
 H29 H 0.21578 0.35049 0.04598
 H30 H 0.24665 0.31363 0.01768
 H31 H 0.36959 0.31889 0.02432
 H32 H 0.40735 0.28942 0.05337
 H33 H 0.29962 0.25489 0.04971
 H34 H 0.31825 0.24550 -0.00999
 H35 H 0.35521 0.21573 -0.03849
 H36 H 0.38064 0.29773 -0.08736
 H37 H 0.34522 0.32702 -0.05744
 H38 H 0.25579 0.29740 -0.04291
 H39 H 0.22483 0.33494 -0.07089
 H40 H 0.28889 0.40574 -0.04733
 H41 H 0.31883 0.36850 -0.01817
 H42 H 0.33766 0.22440 0.07746
 C43 C 0.69266 0.69214 -0.01771
 C44 C 0.69162 0.69266 0.01289
 C45 C 0.71060 0.67178 0.03164
 C46 C 0.66871 0.71143 0.02895
 C47 C 0.67209 0.71147 -0.03645
 C48 C 0.71165 0.66939 -0.03377
 C49 C 0.69648 0.65259 0.05274
 C50 C 0.71374 0.63234 0.07007
 C51 C 0.74556 0.63062 0.06657
 C52 C 0.75980 0.65013 0.04575
 C53 C 0.74251 0.67079 0.02871
 C54 C 0.63820 0.70195 0.03017
 C55 C 0.61688 0.71873 0.04672
 C56 C 0.62561 0.74569 0.06147
 C57 C 0.65600 0.75555 0.05963
 C58 C 0.67757 0.73817 0.04394
 C59 C 0.67087 0.74336 -0.03280
 C60 C 0.65016 0.76094 -0.04947
 C61 C 0.63079 0.74702 -0.07063
 C62 C 0.63287 0.71527 -0.07499
 C63 C 0.65321 0.69771 -0.05804
 C64 C 0.73878 0.67835 -0.04789
 C65 C 0.75659 0.65683 -0.06321
 C66 C 0.74680 0.62639 -0.06555
 C67 C 0.71941 0.61759 -0.05172
 C68 C 0.70218 0.63886 -0.03555
 H69 H 0.67195 0.65285 0.05551
 H70 H 0.70203 0.61759 0.08584
 H71 H 0.78432 0.64961 0.04281
 H72 H 0.75403 0.68598 0.01325
 H73 H 0.63113 0.68126 0.01879
 H74 H 0.59351 0.71081 0.04781
 H75 H 0.70110 0.74562 0.04327
 H76 H 0.68584 0.75463 -0.01696
 H77 H 0.64938 0.78541 -0.04586
 H78 H 0.61828 0.70380 -0.09107
 H79 H 0.65367 0.67320 -0.06138
 H80 H 0.74626 0.70191 -0.04675
 H81 H 0.77757 0.66408 -0.07389
 H82 H 0.71153 0.59419 -0.05321
 H83 H 0.68121 0.63169 -0.02480
 H84 H 0.66318 0.77619 0.07102
 C85 C 0.68890 0.31348 1.01651
 C86 C 0.68850 0.31290 0.98592
 C87 C 0.70795 0.33359 0.96770
 C88 C 0.66605 0.29417 0.96928
 C89 C 0.66839 0.29384 1.03483
 C90 C 0.70767 0.33607 1.03296
 C91 C 0.69434 0.35427 0.94760
 C92 C 0.71224 0.37426 0.93072
 C93 C 0.74416 0.37415 0.93371
 C94 C 0.75784 0.35314 0.95354
 C95 C 0.73989 0.33277 0.97009
 C96 C 0.63562 0.30387 0.96695
 C97 C 0.61472 0.28695 0.95009
 C98 C 0.62376 0.25961 0.93611
 C99 C 0.65409 0.24962 0.93897
 C100 C 0.67526 0.26713 0.95497
 C101 C 0.66829 0.26191 1.03136
 C102 C 0.64817 0.24383 1.04806
 C103 C 0.62831 0.25730 1.06908
 C104 C 0.62910 0.28914 1.07312
 C105 C 0.64883 0.30719 1.05612
 C106 C 0.73615 0.32771 1.04468
 C107 C 0.75380 0.34905 1.06030
 C108 C 0.74255 0.37877 1.06581
 C109 C 0.71360 0.38674 1.05430
 C110 C 0.69668 0.36579 1.03752
 H111 H 0.66978 0.35531 0.94528
 H112 H 0.70099 0.39019 0.91568
 H113 H 0.78240 0.35222 0.95603
 H114 H 0.75094 0.31633 0.98471
 H115 H 0.62826 0.32480 0.97781
 H116 H 0.59140 0.29498 0.94824
 H117 H 0.69874 0.25949 0.95647
 H118 H 0.68380 0.25097 1.01576
 H119 H 0.64836 0.21931 1.04471
 H120 H 0.61404 0.30025 1.08905
 H121 H 0.64835 0.33169 1.05933
 H122 H 0.74482 0.30473 1.04143
 H123 H 0.77584 0.34188 1.06883
 H124 H 0.70415 0.40937 1.05773
 H125 H 0.67472 0.37257 1.02848
 H126 H 0.66154 0.22867 0.92822
 C127 C 0.31114 0.68773 1.01642
 C128 C 0.31210 0.68800 0.98581
 C129 C 0.29317 0.66700 0.96737
 C130 C 0.33454 0.70690 0.96937
 C131 C 0.33152 0.70737 1.03497
 C132 C 0.29206 0.66527 1.03273
 C133 C 0.30734 0.64667 0.94733
 C134 C 0.28998 0.62644 0.93016
 C135 C 0.25804 0.62597 0.93282
 C136 C 0.24380 0.64665 0.95257
 C137 C 0.26120 0.66725 0.96940
 C138 C 0.36531 0.69809 0.96829
 C139 C 0.38629 0.71543 0.95194
 C140 C 0.37692 0.74228 0.93724
 C141 C 0.34621 0.75133 0.93877
 C142 C 0.32503 0.73339 0.95424
 C143 C 0.33303 0.73912 1.03045
 C144 C 0.35370 0.75694 1.04678
 C145 C 0.37265 0.74352 1.06879
 C146 C 0.36994 0.71189 1.07417
 C147 C 0.34984 0.69410 1.05736
 C148 C 0.26364 0.67393 1.04435
 C149 C 0.24580 0.65281 1.06007
 C150 C 0.25681 0.62304 1.06579
 C151 C 0.28568 0.61475 1.05435
 C152 C 0.30278 0.63547 1.03745
 H153 H 0.33194 0.64610 0.94526
 H154 H 0.30165 0.61078 0.91520
 H155 H 0.21921 0.64712 0.95481
 H156 H 0.24971 0.68343 0.98393
 H157 H 0.37290 0.67759 0.97977
 H158 H 0.40989 0.70810 0.95105
 H159 H 0.30130 0.74033 0.95479
 H160 H 0.31831 0.75015 1.01416
 H161 H 0.35461 0.78124 1.04221
 H162 H 0.38390 0.70051 1.09091
 H163 H 0.34918 0.66975 1.06154
 H164 H 0.25517 0.69696 1.04097
 H165 H 0.22383 0.66022 1.06853
 H166 H 0.29493 0.59206 1.05794
 H167 H 0.32471 0.62848 1.02854
 H168 H 0.33852 0.77185 0.92738
 C169 C -0.01784 0.31206 0.31263
 C170 C 0.01325 0.31178 0.31020
 C171 C 0.03320 0.29149 0.32865
 C172 C 0.02919 0.33439 0.29105
 C173 C -0.03679 0.33289 0.29364
 C174 C -0.03453 0.29286 0.33497
 C175 C 0.05706 0.30445 0.34538
 C176 C 0.07468 0.28651 0.36466
 C177 C 0.06881 0.25512 0.36784
 C178 C 0.04564 0.24183 0.35029
 C179 C 0.02825 0.25980 0.33055
 C180 C 0.03071 0.36511 0.29991
 C181 C 0.04711 0.38613 0.28269
 C182 C 0.06142 0.37686 0.25595
 C183 C 0.05934 0.34624 0.24677
 C184 C 0.04384 0.32498 0.26456
 C185 C -0.03375 0.33339 0.26219
 C186 C -0.05062 0.35405 0.24484
 C187 C -0.07187 0.37397 0.25842
 C188 C -0.07589 0.37228 0.28985
 C189 C -0.05838 0.35217 0.30722
 C190 C -0.06086 0.27706 0.32606
 C191 C -0.07715 0.25935 0.34667
 C192 C -0.06697 0.25624 0.37659
 C193 C -0.04069 0.27235 0.38552
 C194 C -0.02529 0.29119 0.36522
 H195 H 0.06150 0.32876 0.34434
 H196 H 0.09234 0.29752 0.37776
 H197 H 0.04080 0.21763 0.35198
 H198 H 0.01039 0.24917 0.31740
 H199 H 0.01970 0.37260 0.32045
 H200 H 0.04844 0.40967 0.29011
 H201 H 0.04298 0.30128 0.25761
 H202 H -0.01819 0.31786 0.25104
 H203 H -0.04713 0.35411 0.22071
 H204 H -0.09203 0.38700 0.30131
 H205 H -0.06140 0.35195 0.33140
 H206 H -0.06881 0.27835 0.30301
 H207 H -0.09729 0.24748 0.33882
 H208 H -0.03243 0.27121 0.40847
 H209 H -0.00604 0.30434 0.37319
 H210 H 0.07044 0.33864 0.22632
 C211 C -0.01374 0.68839 0.68897
 C212 C 0.01732 0.68794 0.68886
 C213 C 0.03537 0.70713 0.66781
 C214 C 0.03469 0.66572 0.70720
 C215 C -0.03210 0.66754 0.70838
 C216 C -0.03065 0.70732 0.66692
 C217 C 0.05535 0.69313 0.64733
 C218 C 0.07204 0.71070 0.62698
 C219 C 0.06894 0.74268 0.62650
 C220 C 0.04925 0.75675 0.64730
 C221 C 0.03293 0.73915 0.66804
 C222 C 0.03618 0.63492 0.69860
 C223 C 0.05352 0.61418 0.71538
 C224 C 0.06884 0.62385 0.74142
 C225 C 0.06700 0.65462 0.75019
 C226 C 0.05053 0.67557 0.73281
 C227 C -0.02693 0.66541 0.73952
 C228 C -0.04334 0.64459 0.75709
 C229 C -0.06609 0.62608 0.74409
 C230 C -0.07205 0.62932 0.71309
 C231 C -0.05517 0.64958 0.69552
 C232 C -0.04266 0.73575 0.67531
 C233 C -0.05827 0.75375 0.65429
 C234 C -0.06343 0.74287 0.62485
 C235 C -0.05162 0.71397 0.61686
 C236 C -0.03487 0.69671 0.63751
 H237 H 0.05771 0.66849 0.64676
 H238 H 0.08696 0.69915 0.61122
 H239 H 0.04670 0.78138 0.64775
 H240 H 0.01843 0.75051 0.68427
 H241 H 0.02420 0.62710 0.67872
 H242 H 0.05458 0.59050 0.70833
 H243 H 0.04970 0.69935 0.73954
 H244 H -0.01016 0.67984 0.75029
 H245 H -0.03829 0.64328 0.78091
 H246 H -0.08936 0.61571 0.70204
 H247 H -0.05990 0.65070 0.67166
 H248 H -0.03955 0.74416 0.69803
 H249 H -0.06704 0.77574 0.66143
 H250 H -0.05476 0.70480 0.59444
 H251 H -0.02557 0.67481 0.63073
 H252 H 0.07880 0.66252 0.77014
 C253 C 1.01646 0.68859 0.31300
 C254 C 0.98541 0.68876 0.31390
 C255 C 0.96858 0.70716 0.33637
 C256 C 0.96689 0.66799 0.29480
 C257 C 1.03301 0.66647 0.29376
 C258 C 1.03521 0.70794 0.33345
 C259 C 0.96727 0.69765 0.36648
 C260 C 0.95035 0.71440 0.38743
 C261 C 0.93531 0.74136 0.37871
 C262 C 0.93706 0.75112 0.34867
 C263 C 0.95308 0.73376 0.32749
 C264 C 0.94694 0.64709 0.30837
 C265 C 0.92982 0.62697 0.29083
 C266 C 0.93247 0.62717 0.25932
 C267 C 0.95211 0.64842 0.24570
 C268 C 0.96885 0.66892 0.26328
 C269 C 1.04446 0.67545 0.26571
 C270 C 1.05992 0.65443 0.24751
 C271 C 1.06554 0.62442 0.25775
 C272 C 1.05434 0.61584 0.28627
 C273 C 1.03770 0.63647 0.30376
 C274 C 1.03044 0.73963 0.33553
 C275 C 1.04710 0.75720 0.35603
 C276 C 1.06970 0.74362 0.37430
 C277 C 1.07531 0.71207 0.37109
 C278 C 1.05817 0.69449 0.35111
 H279 H 0.97900 0.67704 0.37357
 H280 H 0.94931 0.70656 0.41053
 H281 H 0.92544 0.77175 0.34149
 H282 H 0.95377 0.74122 0.30425
 H283 H 0.94493 0.64598 0.33263
 H284 H 0.91493 0.61086 0.30202
 H285 H 0.98329 0.68554 0.25228
 H286 H 1.04105 0.69863 0.25779
 H287 H 1.06822 0.66205 0.22582
 H288 H 1.05785 0.59296 0.29496
 H289 H 1.02887 0.62923 0.32537
 H290 H 1.01375 0.75082 0.32133
 H291 H 1.04232 0.78147 0.35734
 H292 H 1.09250 0.70059 0.38452
 H293 H 1.06258 0.67018 0.34998
 H294 H 0.95430 0.64940 0.22145
 C295 C 1.01654 0.31361 0.68421
 C296 C 0.98544 0.31179 0.68506
 C297 C 0.96859 0.29290 0.66300
 C298 C 0.96640 0.33055 0.70579
 C299 C 1.03400 0.33543 0.70333
 C300 C 1.03472 0.29459 0.66287
 C301 C 0.96643 0.30218 0.63287
 C302 C 0.94951 0.28496 0.61235
 C303 C 0.93526 0.25781 0.62154
 C304 C 0.93783 0.24833 0.65162
 C305 C 0.95389 0.26611 0.67237
 C306 C 0.94256 0.34830 0.69389
 C307 C 0.92563 0.36770 0.71234
 C308 C 0.93220 0.36999 0.74320
 C309 C 0.95543 0.35148 0.75540
 C310 C 0.97213 0.33163 0.73691
 C311 C 1.05987 0.32514 0.71910
 C312 C 1.07673 0.34526 0.73693
 C313 C 1.06766 0.37589 0.73977
 C314 C 1.04210 0.38637 0.72377
 C315 C 1.02588 0.36651 0.70509
 C316 C 1.03135 0.26270 0.66171
 C317 C 1.04777 0.24536 0.64081
 C318 C 1.06882 0.25940 0.62124
 C319 C 1.07299 0.29128 0.62341
 C320 C 1.05599 0.30862 0.64382
 H321 H 0.97748 0.32296 0.62543
 H322 H 0.94787 0.29260 0.58922
 H323 H 0.92684 0.22756 0.65918
 H324 H 0.95524 0.25883 0.69563
 H325 H 0.93756 0.34789 0.67003
 H326 H 0.90791 0.38156 0.70216
 H327 H 0.98998 0.31767 0.74673
 H328 H 1.06689 0.30142 0.71775
 H329 H 1.09650 0.33678 0.74899
 H330 H 1.03509 0.41009 0.72521
 H331 H 1.00689 0.37540 0.69216
 H332 H 1.01598 0.25118 0.67698
 H333 H 1.04414 0.22089 0.64032
 H334 H 1.08896 0.30310 0.60896
 H335 H 1.05922 0.33315 0.64452
 H336 H 0.96080 0.35247 0.77916
 C337 C 0.31119 -0.01711 0.31037
 C338 C 0.31197 0.01399 0.30992
 C339 C 0.33440 0.03064 0.29129
 C340 C 0.29294 0.03275 0.33058
 C341 C 0.29235 -0.03352 0.33274
 C342 C 0.33161 -0.03607 0.29112
 C343 C 0.36511 0.03181 0.30006
 C344 C 0.38607 0.04854 0.28310
 C345 C 0.37674 0.06350 0.25670
 C346 C 0.34611 0.06185 0.24765
 C347 C 0.32492 0.04602 0.26521
 C348 C 0.30698 0.05370 0.35003
 C349 C 0.28963 0.07077 0.37031
 C350 C 0.25782 0.06713 0.37172
 C351 C 0.24367 0.04654 0.35186
 C352 C 0.26105 0.02979 0.33123
 C353 C 0.26506 -0.04758 0.32397
 C354 C 0.24720 -0.06290 0.34521
 C355 C 0.25708 -0.06530 0.37517
 C356 C 0.28465 -0.05159 0.38377
 C357 C 0.30194 -0.03540 0.36279
 C358 C 0.33321 -0.03155 0.25989
 C359 C 0.35395 -0.04820 0.24244
 C360 C 0.37291 -0.07055 0.25570
 C361 C 0.37007 -0.07600 0.28683
 C362 C 0.34986 -0.05885 0.30428
 H363 H 0.37266 0.02016 0.32025
 H364 H 0.40963 0.04953 0.29038
 H365 H 0.33848 0.07343 0.22744
 H366 H 0.30122 0.04540 0.25833
 H367 H 0.33152 0.05646 0.34997
 H368 H 0.30125 0.08639 0.38530
 H369 H 0.24962 0.01445 0.31584
 H370 H 0.25748 -0.04634 0.30080
 H371 H 0.22608 -0.07350 0.33812
 H372 H 0.29260 -0.05312 0.40681
 H373 H 0.32302 -0.02467 0.36980
 H374 H 0.31853 -0.01500 0.24897
 H375 H 0.35492 -0.04358 0.21851
 H376 H 0.38402 -0.09302 0.29805
 H377 H 0.34900 -0.06302 0.32827
 H378 H 0.21916 0.04354 0.35214
 C379 C 0.68251 -0.01379 0.68435
 C380 C 0.68380 0.01737 0.68592
 C381 C 0.66225 0.03477 0.70508
 C382 C 0.70463 0.03603 0.66694
 C383 C 0.70131 -0.03181 0.66267
 C384 C 0.66111 -0.03155 0.70368
 C385 C 0.63153 0.03767 0.69670
 C386 C 0.61155 0.05520 0.71412
 C387 C 0.62186 0.06931 0.74060
 C388 C 0.65251 0.06601 0.74919
 C389 C 0.67273 0.04936 0.73119
 C390 C 0.69248 0.06001 0.64964
 C391 C 0.71104 0.07680 0.63032
 C392 C 0.74225 0.06996 0.62767
 C393 C 0.75469 0.04654 0.64564
 C394 C 0.73610 0.02997 0.66540
 C395 C 0.71700 -0.05797 0.67271
 C396 C 0.73450 -0.07538 0.65275
 C397 C 0.73714 -0.06658 0.62252
 C398 C 0.72121 -0.04073 0.61229
 C399 C 0.70282 -0.02395 0.63200
 C400 C 0.66078 -0.02798 0.73508
 C401 C 0.64003 -0.04425 0.75277
 C402 C 0.61983 -0.06540 0.73957
 C403 C 0.62111 -0.06970 0.70815
 C404 C 0.64133 -0.05283 0.69047
 H405 H 0.62322 0.02673 0.67644
 H406 H 0.58795 0.05740 0.70719
 H407 H 0.66092 0.07686 0.76946
 H408 H 0.69646 0.04746 0.73777
 H409 H 0.66834 0.06527 0.65041
 H410 H 0.70068 0.09467 0.61685
 H411 H 0.74612 0.01201 0.67899
 H412 H 0.71584 -0.06481 0.69611
 H413 H 0.74653 -0.09533 0.66107
 H414 H 0.72251 -0.03389 0.58890
 H415 H 0.68991 -0.00475 0.62332
 H416 H 0.67664 -0.01263 0.74597
 H417 H 0.64025 -0.04051 0.77685
 H418 H 0.60613 -0.08574 0.69697
 H419 H 0.64139 -0.05623 0.66633
 H420 H 0.77873 0.04093 0.64436
 C421 C 0.31218 1.01717 0.68754
 C422 C 0.30982 0.98605 0.68826
 C423 C 0.32820 0.96643 0.70888
 C424 C 0.29079 0.96980 0.66587
 C425 C 0.29335 1.03567 0.66632
 C426 C 0.33437 1.03433 0.70650
 C427 C 0.34501 0.94193 0.69691
 C428 C 0.36401 0.92438 0.71524
 C429 C 0.36687 0.93097 0.74605
 C430 C 0.34929 0.95485 0.75833
 C431 C 0.32980 0.97217 0.73997
 C432 C 0.30068 0.96725 0.63597
 C433 C 0.28352 0.95069 0.61514
 C434 C 0.25581 0.93725 0.62373
 C435 C 0.24561 0.94039 0.65351
 C436 C 0.26332 0.95607 0.67462
 C437 C 0.26137 1.03364 0.66627
 C438 C 0.24409 1.05033 0.64550
 C439 C 0.25841 1.07002 0.62490
 C440 C 0.29035 1.07281 0.62570
 C441 C 0.30763 1.05573 0.64615
 C442 C 0.32472 1.06070 0.72188
 C443 C 0.34525 1.07750 0.73930
 C444 C 0.37566 1.06788 0.74214
 C445 C 0.38549 1.04174 0.72660
 C446 C 0.36522 1.02556 0.70831
 H447 H 0.34422 0.93686 0.67309
 H448 H 0.37719 0.90618 0.70500
 H449 H 0.35074 0.96027 0.78206
 H450 H 0.31654 0.99050 0.74988
 H451 H 0.32195 0.97761 0.62900
 H452 H 0.29172 0.94859 0.59225
 H453 H 0.25554 0.95777 0.69769
 H454 H 0.24980 1.01907 0.68227
 H455 H 0.21951 1.04801 0.64573
 H456 H 0.30208 1.08777 0.61015
 H457 H 0.33224 1.05784 0.64596
 H458 H 0.30120 1.06823 0.72049
 H459 H 0.33725 1.09769 0.75102
 H460 H 0.40903 1.03428 0.72805
 H461 H 0.37365 1.00617 0.69565
 H462 H 0.22440 0.93000 0.66060
 C463 C 0.69000 1.01231 0.31250
 C464 C 0.68977 0.98119 0.31262
 C465 C 0.66894 0.96329 0.29296
 C466 C 0.70777 0.96364 0.33486
 C467 C 0.70932 1.03039 0.33356
 C468 C 0.66812 1.02965 0.29370
 C469 C 0.64890 0.94205 0.30590
 C470 C 0.62867 0.92554 0.28797
 C471 C 0.62784 0.93003 0.25668
 C472 C 0.64820 0.95097 0.24362
 C473 C 0.66884 0.96715 0.26157
 C474 C 0.69826 0.96213 0.36494
 C475 C 0.71475 0.94472 0.38572
 C476 C 0.74142 0.92938 0.37683
 C477 C 0.75110 0.93121 0.34678
 C478 C 0.73400 0.94775 0.32577
 C479 C 0.74090 1.02530 0.33594
 C480 C 0.75838 1.04164 0.35680
 C481 C 0.74483 1.06417 0.37517
 C482 C 0.71334 1.06990 0.37183
 C483 C 0.69588 1.05313 0.35146
 C484 C 0.67798 1.04431 0.26740
 C485 C 0.65718 1.06046 0.24954
 C486 C 0.62658 1.06311 0.25847
 C487 C 0.61689 1.04886 0.28510
 C488 C 0.63744 1.03184 0.30236
 H489 H 0.64851 0.93857 0.33001
 H490 H 0.61325 0.90964 0.29876
 H491 H 0.64838 0.95463 0.21952
 H492 H 0.68472 0.98268 0.25096
 H493 H 0.67791 0.97415 0.37215
 H494 H 0.70702 0.94367 0.40884
 H495 H 0.74143 0.94862 0.30255
 H496 H 0.75207 1.00869 0.32164
 H497 H 0.78257 1.03674 0.35825
 H498 H 0.70185 1.08701 0.38534
 H499 H 0.67164 1.05769 0.35009
 H500 H 0.70165 1.04283 0.26056
 H501 H 0.66509 1.07145 0.22916
 H502 H 0.59334 1.05058 0.29229
 H503 H 0.62958 1.02068 0.32268
 H504 H 0.77155 0.91940 0.33950
 O505 O 0.87759 0.83384 0.47377
 O506 O 0.83325 0.87724 0.52983
 O507 O 0.87702 0.83613 0.53281
 O508 O 0.83495 0.87451 0.47166
 O509 O 0.79896 0.83936 0.47479
 O510 O 0.84409 0.79796 0.53150
 O511 O 0.80066 0.83896 0.53341
 O512 O 0.84232 0.79782 0.47388
 Cu513 Cu 0.85927 0.85909 0.50212
 Cu514 Cu 0.81792 0.81492 0.50350
 C515 C 0.86730 0.80856 0.46410
 C516 C 0.80944 0.86544 0.54116
 C517 C 0.86818 0.81006 0.54181
 C518 C 0.80950 0.86372 0.46326
 O519 O 0.12274 0.16428 0.46779
 O520 O 0.16520 0.12367 0.52748
 O521 O 0.12305 0.16575 0.52673
 O522 O 0.16514 0.12256 0.46868
 O523 O 0.20075 0.15821 0.46842
 O524 O 0.15816 0.20186 0.52527
 O525 O 0.20049 0.15962 0.52670
 O526 O 0.15842 0.19984 0.46693
 Cu527 Cu 0.14044 0.14047 0.49779
 Cu528 Cu 0.18298 0.18349 0.49681
 C529 C 0.13351 0.18894 0.45713
 C530 C 0.19014 0.13469 0.53712
 C531 C 0.13341 0.19127 0.53572
 C532 C 0.19018 0.13308 0.45876
 O533 O 0.16368 0.87857 0.47030
 O534 O 0.12211 0.83613 0.52915
 O535 O 0.16322 0.87893 0.52923
 O536 O 0.12228 0.83621 0.47027
 O537 O 0.15840 0.80089 0.47094
 O538 O 0.19983 0.84409 0.52890
 O539 O 0.15852 0.80109 0.52937
 O540 O 0.20009 0.84353 0.47110
 Cu541 Cu 0.13915 0.86099 0.49972
 Cu542 Cu 0.18277 0.81879 0.50012
 C543 C 0.18910 0.86833 0.46093
 C544 C 0.13330 0.81132 0.53920
 C545 C 0.18867 0.86893 0.53879
 C546 C 0.13338 0.81121 0.46066
 O547 O 0.87789 0.16199 0.52996
 O548 O 0.83761 0.11962 0.47017
 O549 O 0.87999 0.16219 0.47175
 O550 O 0.83606 0.12032 0.52926
 O551 O 0.80172 0.15738 0.52915
 O552 O 0.84250 0.19584 0.46762
 O553 O 0.80074 0.15414 0.47089
 O554 O 0.84407 0.19934 0.52590
 Cu555 Cu 0.86141 0.13728 0.50026
 Cu556 Cu 0.81866 0.18025 0.49832
 C557 C 0.86814 0.18824 0.53753
 C558 C 0.81200 0.12945 0.46079
 C559 C 0.86857 0.18601 0.45985
 C560 C 0.81165 0.13214 0.53939
 O561 O 0.46774 0.87894 0.83692
 O562 O 0.52975 0.83854 0.87694
 O563 O 0.52740 0.87980 0.83467
 O564 O 0.47005 0.83723 0.87865
 O565 O 0.47120 0.80018 0.84488
 O566 O 0.52574 0.84419 0.79947
 O567 O 0.52994 0.80292 0.84170
 O568 O 0.46673 0.84200 0.80306
 Cu569 Cu 0.49879 0.86229 0.86029
 Cu570 Cu 0.49834 0.81873 0.81879
 C571 C 0.45665 0.86722 0.81319
 C572 C 0.54037 0.81385 0.86607
 C573 C 0.53605 0.86933 0.80940
 C574 C 0.46123 0.81125 0.86938
 O575 O 0.53198 0.16276 0.12352
 O576 O 0.47260 0.12042 0.16485
 O577 O 0.47231 0.16236 0.12357
 O578 O 0.53231 0.12067 0.16496
 O579 O 0.53108 0.15579 0.20068
 O580 O 0.47302 0.19861 0.15819
 O581 O 0.47245 0.15617 0.19998
 O582 O 0.53206 0.19801 0.15912
 Cu583 Cu 0.50235 0.13796 0.14066
 Cu584 Cu 0.50209 0.18078 0.18297
 C585 C 0.54205 0.18765 0.13432
 C586 C 0.46263 0.13104 0.18956
 C587 C 0.46273 0.18775 0.13373
 C588 C 0.54152 0.13095 0.19009
 O589 O 0.53023 0.12571 0.83647
 O590 O 0.46882 0.16421 0.87894
 O591 O 0.47122 0.12312 0.83592
 O592 O 0.52871 0.16638 0.87880
 O593 O 0.52747 0.20278 0.84432
 O594 O 0.46764 0.16109 0.80327
 O595 O 0.46865 0.20173 0.84564
 O596 O 0.52682 0.16128 0.80129
 Cu597 Cu 0.49980 0.14123 0.86108
 Cu598 Cu 0.49764 0.18540 0.82018
 C599 C 0.53840 0.13664 0.81128
 C600 C 0.45861 0.18977 0.86967
 C601 C 0.45966 0.13478 0.81232
 C602 C 0.53794 0.19191 0.86875
 O603 O 0.46973 0.83637 0.12149
 O604 O 0.52952 0.87786 0.16345
 O605 O 0.52949 0.83715 0.12073
 O606 O 0.46982 0.87758 0.16360
 O607 O 0.47126 0.84139 0.19828
 O608 O 0.52914 0.79988 0.15432
 O609 O 0.53041 0.84079 0.19723
 O610 O 0.47040 0.80009 0.15611
 Cu611 Cu 0.49960 0.86095 0.13886
 Cu612 Cu 0.50043 0.81691 0.17996
 C613 C 0.45996 0.81111 0.13177
 C614 C 0.54007 0.86628 0.18755
 C615 C 0.53913 0.81144 0.13006
 C616 C 0.46052 0.86641 0.18831
 O617 O 0.88108 0.52911 0.83605
 O618 O 0.83901 0.46993 0.87828
 O619 O 0.88069 0.46918 0.83640
 O620 O 0.83974 0.52973 0.87801
 O621 O 0.80321 0.52912 0.84372
 O622 O 0.84453 0.46976 0.80174
 O623 O 0.80305 0.47027 0.84340
 O624 O 0.84486 0.52913 0.80146
 Cu625 Cu 0.86381 0.49946 0.86066
 Cu626 Cu 0.82037 0.49968 0.81904
 C627 C 0.87005 0.53912 0.81150
 C628 C 0.81377 0.46018 0.86802
 C629 C 0.86949 0.45921 0.81194
 C630 C 0.81430 0.53939 0.86807
 O631 O 0.12105 0.53136 0.16382
 O632 O 0.16225 0.47081 0.12241
 O633 O 0.11996 0.47155 0.16348
 O634 O 0.16289 0.53075 0.12248
 O635 O 0.19911 0.52872 0.15706
 O636 O 0.15491 0.47168 0.19937
 O637 O 0.19720 0.46962 0.15825
 O638 O 0.15662 0.53024 0.19911
 Cu639 Cu 0.13799 0.50122 0.13945
 Cu640 Cu 0.18061 0.50012 0.18192
 C641 C 0.13171 0.54069 0.18874
 C642 C 0.18673 0.45989 0.13342
 C643 C 0.12994 0.46192 0.18861
 C644 C 0.18850 0.53942 0.13263
 O645 O 0.87627 0.47092 0.16622
 O646 O 0.83655 0.53142 0.12339
 O647 O 0.87752 0.53069 0.16596
 O648 O 0.83572 0.47156 0.12366
 O649 O 0.79839 0.47378 0.15702
 O650 O 0.84123 0.53094 0.20044
 O651 O 0.80038 0.53267 0.15798
 O652 O 0.83946 0.47174 0.20016
 Cu653 Cu 0.86021 0.50107 0.14137
 Cu654 Cu 0.81622 0.50228 0.18235
 C655 C 0.86462 0.46114 0.19053
 C656 C 0.81164 0.54228 0.13345
 C657 C 0.86656 0.54068 0.19052
 C658 C 0.80974 0.46300 0.13298
 O659 O 0.16533 0.52830 0.87782
 O660 O 0.12222 0.47083 0.83467
 O661 O 0.16303 0.46841 0.87791
 O662 O 0.12458 0.52998 0.83570
 O663 O 0.15946 0.52612 0.80000
 O664 O 0.20119 0.46947 0.84546
 O665 O 0.16058 0.46679 0.80266
 O666 O 0.20080 0.52838 0.84251
 Cu667 Cu 0.14014 0.49936 0.86006
 Cu668 Cu 0.18418 0.49756 0.81920
 C669 C 0.19023 0.53844 0.86720
 C670 C 0.13417 0.45897 0.81139
 C671 C 0.18905 0.45908 0.86926
 C672 C 0.13513 0.53797 0.81032
 N673 N 0.20752 0.40104 0.07768
 C674 C 0.23583 0.39261 0.08714
 N675 N 0.24755 0.40622 0.11204
 N676 N 0.23171 0.42739 0.12686
 C677 C 0.20358 0.43596 0.11727
 N678 N 0.19171 0.42239 0.09242
 N679 N 0.79213 0.59998 0.07604
 C680 C 0.76346 0.60831 0.08443
 N681 N 0.75112 0.59510 0.10924
 N682 N 0.76669 0.57438 0.12497
 C683 C 0.79518 0.56590 0.11644
 N684 N 0.80767 0.57909 0.09170
 N685 N 0.75099 0.41024 0.89174
 C686 C 0.76286 0.39600 0.91627
 N687 N 0.79190 0.40274 0.92469
 N688 N 0.80828 0.42309 0.90932
 C689 C 0.79629 0.43729 0.88483
 N690 N 0.76740 0.43040 0.87628
 N691 N 0.25209 0.58970 0.89081
 C692 C 0.23987 0.60376 0.91526
 N693 N 0.21096 0.59648 0.92358
 N694 N 0.19503 0.57579 0.90821
 C695 C 0.20734 0.56176 0.88381
 N696 N 0.23611 0.56918 0.87533
 N697 N 0.07640 0.20902 0.39938
 C698 C 0.08628 0.23693 0.39015
 N699 N 0.11194 0.24857 0.40284
 N700 N 0.12706 0.23309 0.42391
 C701 C 0.11703 0.20539 0.43331
 N702 N 0.09147 0.19355 0.42060
 N703 N 0.11082 0.74907 0.59009
 C704 C 0.08605 0.76103 0.60422
 N705 N 0.07705 0.78988 0.59700
 N706 N 0.09209 0.80600 0.57634
 C707 C 0.11683 0.79394 0.56227
 N708 N 0.12598 0.76523 0.56961
 N709 N 0.89861 0.74449 0.42032
 C710 C 0.91750 0.75897 0.40080
 N711 N 0.91968 0.78991 0.40203
 N712 N 0.90376 0.80576 0.42229
 C713 C 0.88470 0.79128 0.44165
 N714 N 0.88232 0.76038 0.44023
 N715 N 0.89935 0.25358 0.57929
 C716 C 0.91757 0.23961 0.59986
 N717 N 0.91925 0.20861 0.60003
 N718 N 0.90353 0.19219 0.58012
 C719 C 0.88516 0.20619 0.55969
 N720 N 0.88326 0.23716 0.55970
 N721 N 0.41853 0.10047 0.25299
 C722 C 0.39883 0.08125 0.23903
 N723 N 0.39998 0.07864 0.20860
 N724 N 0.42036 0.09445 0.19274
 C725 C 0.43991 0.11383 0.20673
 N726 N 0.43855 0.11665 0.23711
 N727 N 0.58022 0.10661 0.74598
 C728 C 0.60069 0.08745 0.75912
 N729 N 0.60102 0.08502 0.78958
 N730 N 0.58129 0.10085 0.80627
 C731 C 0.56092 0.12011 0.79312
 N732 N 0.56082 0.12281 0.76269
 N733 N 0.40149 0.88724 0.75406
 C734 C 0.38898 0.91356 0.76466
 N735 N 0.39839 0.92422 0.79185
 N736 N 0.41967 0.90932 0.80758
 C737 C 0.43225 0.88313 0.79676
 N738 N 0.42262 0.87229 0.76980
 N739 N 0.59787 0.92293 0.21003
 C740 C 0.60561 0.91305 0.23803
 N741 N 0.59192 0.88756 0.24899
 N742 N 0.57133 0.87256 0.23271
 C743 C 0.56344 0.88257 0.20488
 N744 N 0.57709 0.90802 0.19378
 N745 N 0.39827 0.20791 0.92469
 C746 C 0.39248 0.23792 0.91866
 N747 N 0.40864 0.25153 0.89624
 N748 N 0.42942 0.23603 0.88062
 C749 C 0.43524 0.20626 0.88688
 N750 N 0.41932 0.19243 0.90923
 N751 N 0.59440 0.75325 0.88750
 C752 C 0.60809 0.76519 0.91227
 N753 N 0.59972 0.79365 0.92146
 N754 N 0.57835 0.80935 0.90665
 C755 C 0.56466 0.79725 0.88198
 N756 N 0.57319 0.76898 0.87262
 N757 N 0.41046 0.74820 0.10763
 C758 C 0.39409 0.76099 0.08487
 N759 N 0.39944 0.79079 0.07780
 N760 N 0.42039 0.80690 0.09266
 C761 C 0.43661 0.79391 0.11536
 N762 N 0.43116 0.76433 0.12264
 N763 N 0.59301 0.25006 0.11159
 C764 C 0.60657 0.23851 0.08656
 N765 N 0.59912 0.20978 0.07758
 N766 N 0.57873 0.19340 0.09287
 C767 C 0.56518 0.20509 0.11783
 N768 N 0.57279 0.23365 0.12696
 N769 N 0.25237 0.11181 0.58803
 C770 C 0.24024 0.08731 0.60248
 N771 N 0.21132 0.07870 0.59549
 N772 N 0.19528 0.09384 0.57477
 C773 C 0.20748 0.11830 0.56039
 N774 N 0.23627 0.12707 0.56747
 N775 N 0.79185 0.07356 0.40196
 C776 C 0.76208 0.08059 0.39646
 N777 N 0.74917 0.10383 0.41233
 N778 N 0.76519 0.11936 0.43262
 C779 C 0.79477 0.11218 0.43815
 N780 N 0.80785 0.08896 0.42248
 N781 N 0.75622 0.88460 0.60238
 C782 C 0.75636 0.91564 0.60170
 N783 N 0.77443 0.93005 0.58137
 N784 N 0.79179 0.91400 0.56248
 C785 C 0.79141 0.88298 0.56296
 N786 N 0.77322 0.86855 0.58316
 N787 N 0.25332 0.89840 0.41705
 C788 C 0.23914 0.91740 0.39732
 N789 N 0.20828 0.92014 0.39848
 N790 N 0.19223 0.90465 0.41886
 C791 C 0.20645 0.88549 0.43843
 N792 N 0.23724 0.88256 0.43708
 N793 N 0.11597 0.39632 0.75927
 C794 C 0.08500 0.39696 0.75908
 N795 N 0.07030 0.41763 0.77669
 N796 N 0.08599 0.43694 0.79391
 C797 C 0.11695 0.43653 0.79383
 N798 N 0.13167 0.41595 0.77614
 N799 N 0.08799 0.60907 0.21056
 C800 C 0.08218 0.60349 0.24015
 N801 N 0.09300 0.57713 0.25244
 N802 N 0.10911 0.55741 0.23605
 C803 C 0.11456 0.56294 0.20654
 N804 N 0.10358 0.58901 0.19397
 N805 N 0.91815 0.39972 0.21148
 C806 C 0.91160 0.39531 0.24109
 N807 N 0.88905 0.41248 0.25366
 N808 N 0.87380 0.43308 0.23744
 C809 C 0.88067 0.43761 0.20802
 N810 N 0.90313 0.42057 0.19532
 N811 N 0.92522 0.59891 0.79058
 C812 C 0.91761 0.60464 0.76141
 N813 N 0.89406 0.58873 0.74915
 N814 N 0.87882 0.56813 0.76522
 C815 C 0.88665 0.56232 0.79419
 N816 N 0.91014 0.57807 0.80660
 N817 N 0.75030 0.58410 0.89839
 C818 C 0.76461 0.60397 0.91707
 N819 N 0.79549 0.60270 0.91946
 N820 N 0.81143 0.58204 0.90394
 C821 C 0.79707 0.56231 0.88511
 N822 N 0.76626 0.56380 0.88253
 N823 N 0.25218 0.41535 0.90267
 C824 C 0.23730 0.39527 0.92070
 N825 N 0.20633 0.39609 0.92164
 N826 N 0.19084 0.41652 0.90536
 C827 C 0.20577 0.43645 0.88719
 N828 N 0.23669 0.43541 0.88606
 N829 N 0.25249 0.57603 0.09357
 C830 C 0.23955 0.60211 0.08273
 N831 N 0.20957 0.60744 0.08878
 N832 N 0.19322 0.58743 0.10458
 C833 C 0.20639 0.56165 0.11556
 N834 N 0.23632 0.55634 0.10990
 N835 N 0.78962 0.39490 0.08883
 C836 C 0.75961 0.39993 0.08265
 N837 N 0.74640 0.42593 0.09332
 N838 N 0.76233 0.44579 0.10966
 C839 C 0.79228 0.44078 0.11549
 N840 N 0.80574 0.41509 0.10465
 N841 N 0.90934 0.74708 0.57816
 C842 C 0.91968 0.76015 0.60395
 N843 N 0.91300 0.79012 0.60905
 N844 N 0.89694 0.80631 0.58911
 C845 C 0.88640 0.79294 0.56363
 N846 N 0.89277 0.76306 0.55856
 N847 N 0.88859 0.22744 0.39080
 C848 C 0.91711 0.23779 0.39719
 N849 N 0.92972 0.23012 0.42415
 N850 N 0.91455 0.21287 0.44377
 C851 C 0.88597 0.20302 0.43740
 N852 N 0.87317 0.21072 0.41067
 N853 N 0.07902 0.21195 0.59551
 C854 C 0.08523 0.24208 0.59995
 N855 N 0.10753 0.25516 0.58307
 N856 N 0.12298 0.23891 0.56281
 C857 C 0.11655 0.20894 0.55834
 N858 N 0.09426 0.19574 0.57502
 N859 N 0.10942 0.74821 0.41140
 C860 C 0.08608 0.76096 0.39554
 N861 N 0.07868 0.79064 0.40114
 N862 N 0.09372 0.80670 0.42184
 C863 C 0.11698 0.79381 0.43757
 N864 N 0.12464 0.76432 0.43188
 N865 N 0.59525 0.92443 0.78705
 C866 C 0.59889 0.91813 0.75728
 N867 N 0.58162 0.89557 0.74498
 N868 N 0.56179 0.87996 0.76163
 C869 C 0.55813 0.88647 0.79125
 N870 N 0.57517 0.90904 0.80367
 N871 N 0.39973 0.92059 0.20918
 C872 C 0.39447 0.91322 0.23847
 N873 N 0.41104 0.89009 0.25088
 N874 N 0.43184 0.87503 0.23482
 C875 C 0.43717 0.88267 0.20573
 N876 N 0.42075 0.90572 0.19318
 N877 N 0.60415 0.07848 0.20999
 C878 C 0.60483 0.08105 0.24044
 N879 N 0.58483 0.10027 0.25412
 N880 N 0.56497 0.11647 0.23794
 C881 C 0.56408 0.11369 0.20755
 N882 N 0.58394 0.09434 0.19383
 N883 N 0.41770 0.07062 0.77869
 C884 C 0.39715 0.08530 0.76090
 N885 N 0.39692 0.11634 0.76051
 N886 N 0.41678 0.13212 0.77701
 C887 C 0.43721 0.11744 0.79490
 N888 N 0.43725 0.08642 0.79555
 N889 N 0.60194 0.79396 0.07784
 C890 C 0.60320 0.76298 0.07933
 N891 N 0.58345 0.74809 0.09769
 N892 N 0.56327 0.76363 0.11410
 C893 C 0.56182 0.79457 0.11241
 N894 N 0.58142 0.80948 0.09390
 N895 N 0.41783 0.25172 0.10323
 C896 C 0.39784 0.23717 0.08485
 N897 N 0.39911 0.20623 0.08277
 N898 N 0.41988 0.19043 0.09828
 C899 C 0.43973 0.20499 0.11680
 N900 N 0.43826 0.23589 0.11910
 N901 N 0.58181 0.25622 0.89958
 C902 C 0.60168 0.24185 0.91833
 N903 N 0.60071 0.21090 0.92047
 N904 N 0.58037 0.19494 0.90470
 C905 C 0.56064 0.20932 0.88582
 N906 N 0.56181 0.24023 0.88345
 N907 N 0.41940 0.74627 0.90150
 C908 C 0.39900 0.76038 0.91983
 N909 N 0.39917 0.79138 0.92157
 N910 N 0.41920 0.80766 0.90573
 C911 C 0.43941 0.79352 0.88720
 N912 N 0.43908 0.76255 0.88530
 N913 N 0.74493 0.89357 0.41930
 C914 C 0.75918 0.91169 0.39889
 N915 N 0.79008 0.91357 0.39946
 N916 N 0.80613 0.89818 0.41995
 C917 C 0.79189 0.87996 0.44025
 N918 N 0.76102 0.87780 0.43949
 N919 N 0.25249 0.90007 0.58257
 C920 C 0.23811 0.91940 0.60181
 N921 N 0.20724 0.92193 0.60042
 N922 N 0.19139 0.90593 0.58026
 C923 C 0.20582 0.88646 0.56117
 N924 N 0.23662 0.88374 0.56276
 N925 N 0.21104 0.07578 0.40160
 C926 C 0.23974 0.08458 0.39401
 N927 N 0.25184 0.10948 0.40777
 N928 N 0.23593 0.12496 0.42824
 C929 C 0.20736 0.11605 0.43593
 N930 N 0.19517 0.09118 0.42223
 N931 N 0.75050 0.11274 0.59254
 C932 C 0.76121 0.08675 0.60560
 N933 N 0.78900 0.07598 0.59703
 N934 N 0.80524 0.09050 0.57610
 C935 C 0.79434 0.11639 0.56301
 N936 N 0.76675 0.12731 0.57174
 N937 N 0.92364 0.59821 0.21240
 C938 C 0.91494 0.60512 0.24096
 N939 N 0.89010 0.59088 0.25260
 N940 N 0.87458 0.57059 0.23640
 C941 C 0.88342 0.56356 0.20797
 N942 N 0.90823 0.57774 0.19624
 N943 N 0.88956 0.40578 0.75134
 C944 C 0.91532 0.39228 0.76201
 N945 N 0.92578 0.40066 0.78961
 N946 N 0.91116 0.42185 0.80571
 C947 C 0.88549 0.43538 0.79483
 N948 N 0.87490 0.42683 0.76744
 N949 N 0.10476 0.58088 0.74575
 C950 C 0.08660 0.60189 0.75939
 N951 N 0.08483 0.60207 0.78989
 N952 N 0.10039 0.58173 0.80614
 C953 C 0.11867 0.56083 0.79250
 N954 N 0.12069 0.56084 0.76203
 N955 N 0.09831 0.41873 0.25218
 C956 C 0.07918 0.39893 0.23822
 N957 N 0.07689 0.39979 0.20775
 N958 N 0.09294 0.41998 0.19185
 C959 C 0.11224 0.43961 0.20584
 N960 N 0.11471 0.43855 0.23626
   
