data_POSCAR
  _audit_creation_date              2014-09-24
  _audit_creation_method            'ToBaCCo'
  _symmetry_space_group_name_H-M    'P1'
  _symmetry_Int_Tables_number       1
  _symmetry_cell_setting            triclinic
  loop_
  _symmetry_equiv_pos_as_xyz
 x,y,z
_cell_length_a 49.2661
_cell_length_b 49.0751
_cell_length_c 49.1687
_cell_angle_alpha 90.104500
_cell_angle_beta 89.563200
_cell_angle_gamma 90.175800
loop_
  _atom_site_label
  _atom_site_type_symbol
  _atom_site_fract_x
  _atom_site_fract_y
  _atom_site_fract_z
C1 C 0.19175 1.22833 0.19094
 N2 N 0.18122 1.21653 0.21373
 C3 C 0.19283 1.19407 0.22480
 N4 N 0.21535 1.18342 0.21273
 C5 C 0.22618 1.19487 0.18996
 N6 N 0.21424 1.21726 0.17919
 C7 C 0.80333 0.77423 0.19589
 N8 N 0.78148 0.78659 0.18458
 C9 C 0.77149 0.81018 0.19503
 N10 N 0.78365 0.82154 0.21703
 C11 C 0.80542 0.80948 0.22879
 N12 N 0.81505 0.78582 0.21805
 C13 C 0.81202 1.22606 -0.19269
 N14 N 0.82367 1.21443 -0.21501
 C15 C 0.81233 1.19229 -0.22719
 N16 N 0.78900 1.18173 -0.21662
 C17 C 0.77706 1.19296 -0.19429
 N18 N 0.78870 1.21510 -0.18247
 C19 C 0.19437 0.77205 -0.19468
 N20 N 0.18389 0.78323 -0.21758
 C21 C 0.19596 0.80509 -0.22964
 N22 N 0.21883 0.81569 -0.21842
 C23 C 0.22957 0.80483 -0.19553
 N24 N 0.21717 0.78304 -0.18373
 C25 C 0.54234 1.03814 -0.01111
 H26 H 0.54355 1.03755 0.01084
 C27 C 0.56074 1.05395 -0.02601
 H28 H 0.57619 1.06537 -0.01532
 C29 C 0.52156 1.02270 -0.05164
 H30 H 0.50661 1.01012 -0.06160
 C31 C 0.53952 1.03827 -0.06734
 H32 H 0.53775 1.03791 -0.08927
 N33 N 0.52323 1.02296 -0.02404
 C34 C 0.45763 1.00797 0.03396
 H35 H 0.45663 0.98596 0.03298
 C36 C 0.43844 1.02236 0.04924
 H37 H 0.42288 1.01126 0.06031
 C38 C 0.47891 1.04915 0.02027
 H39 H 0.49431 1.05955 0.00844
 C40 C 0.46026 1.06435 0.03548
 H41 H 0.46151 1.08638 0.03523
 Zn42 Zn 0.50066 1.00033 -0.00238
 N43 N 0.47730 1.02147 0.01983
 C44 C 0.52159 0.97822 0.04670
 N45 N 0.52376 0.97862 0.01910
 C46 C 0.54379 0.96479 0.00591
 C47 C 0.56278 0.94986 0.02054
 C48 C 0.54007 0.96337 0.06213
 C49 C 0.45910 0.99092 -0.03945
 C50 C 0.44113 0.97579 -0.05530
 C51 C 0.46290 0.93462 -0.03990
 C52 C 0.48052 0.95056 -0.02437
 N53 N 0.47839 0.97819 -0.02453
 H54 H 0.50586 0.98979 0.05683
 H55 H 0.54519 0.96572 -0.01604
 H56 H 0.57862 0.93900 0.00968
 H57 H 0.53838 0.96365 0.08410
 H58 H 0.45753 1.01289 -0.03878
 H59 H 0.42564 0.98632 -0.06668
 H60 H 0.46500 0.91266 -0.03968
 H61 H 0.49566 0.94080 -0.01198
 C62 C 0.43953 1.05093 0.04999
 C63 C 0.55958 1.05404 -0.05456
 C64 C 0.44284 0.94723 -0.05561
 C65 C 0.56116 0.94917 0.04904
 C66 C -0.01290 0.54365 1.04128
 H67 H 0.00896 0.54568 1.04063
 C68 C -0.02836 0.56155 1.05708
 H69 H -0.01818 0.57746 1.06841
 C70 C -0.05267 0.52120 1.02609
 H71 H -0.06210 0.50575 1.01364
 C72 C -0.06891 0.53864 1.04165
 H73 H -0.09074 0.53602 1.04139
 N74 N -0.02518 0.52393 1.02626
 C75 C 0.03522 0.46073 1.01204
 H76 H 0.03470 0.45963 0.99007
 C77 C 0.05107 0.44241 1.02661
 H78 H 0.06257 0.42712 1.01564
 C79 C 0.01958 0.48118 1.05292
 H80 H 0.00692 0.49600 1.06312
 C81 C 0.03521 0.46330 1.06831
 H82 H 0.03480 0.46497 1.09026
 Zn83 Zn -0.00271 0.50195 1.00391
 N84 N 0.01991 0.47962 1.02530
 C85 C 0.04589 0.52492 0.98197
 N86 N 0.01829 0.52575 0.98196
 C87 C 0.00472 0.54471 0.96727
 C88 C 0.01893 0.56373 0.95158
 C89 C 0.06092 0.54354 0.96649
 C90 C -0.03833 0.45856 0.99488
 C91 C -0.05326 0.43963 0.97989
 C92 C -0.03809 0.46184 0.93865
 C93 C -0.02343 0.48034 0.95445
 N94 N -0.02390 0.47845 0.98204
 H95 H 0.05632 0.51011 0.99426
 H96 H -0.01724 0.54511 0.96791
 H97 H 0.00773 0.57851 0.93985
 H98 H 0.08288 0.54285 0.96705
 H99 H -0.03793 0.45721 1.01683
 H100 H -0.06418 0.42364 0.99050
 H101 H -0.03761 0.46380 0.91673
 H102 H -0.01143 0.49595 0.94458
 C103 C 0.05111 0.44343 1.05517
 C104 C -0.05680 0.55927 1.05732
 C105 C -0.05318 0.44105 0.95135
 C106 C 0.04743 0.56336 0.95112
 C107 C 1.04069 -0.00953 0.54146
 H108 H 1.03953 0.01245 0.54258
 C109 C 1.05632 -0.02379 0.56017
 H110 H 1.06752 -0.01256 0.57541
 C111 C 1.02719 -0.05078 0.52029
 H112 H 1.01535 -0.06122 0.50506
 C113 C 1.04262 -0.06588 0.53861
 H114 H 1.04246 -0.08790 0.53729
 N115 N 1.02655 -0.02312 0.52204
 C116 C 1.01200 0.03513 0.45704
 H117 H 0.99013 0.03386 0.45571
 C118 C 1.02659 0.05108 0.43850
 H119 H 1.01573 0.06191 0.42283
 C120 C 1.05270 0.02131 0.47829
 H121 H 1.06285 0.00933 0.49352
 C122 C 1.06808 0.03704 0.46020
 H123 H 1.08996 0.03739 0.46211
 Zn124 Zn 1.00402 -0.00209 0.49933
 N125 N 1.02517 0.02071 0.47647
 C126 C 0.97997 0.04644 0.52028
 N127 N 0.98135 0.01885 0.52245
 C128 C 0.96794 0.00533 0.54261
 C129 C 0.95253 0.01962 0.56177
 C130 C 0.96455 0.06153 0.53888
 C131 C 0.99642 -0.03837 0.45635
 C132 C 0.98204 -0.05379 0.43740
 C133 C 0.94040 -0.04154 0.46061
 C134 C 0.95558 -0.02613 0.47899
 N135 N 0.98307 -0.02483 0.47652
 H136 H 0.99122 0.05688 0.50448
 H137 H 0.96967 -0.01659 0.54405
 H138 H 0.94211 0.00853 0.57778
 H139 H 0.96405 0.08352 0.53719
 H140 H 1.01828 -0.03673 0.45472
 H141 H 0.99298 -0.06430 0.42136
 H142 H 0.91849 -0.04195 0.46250
 H143 H 0.94530 -0.01481 0.49484
 C144 C 1.05505 0.05208 0.43984
 C145 C 1.05726 -0.05237 0.55904
 C146 C 0.95363 -0.05534 0.43929
 C147 C 0.95085 0.04811 0.56013
 C148 C 0.15260 0.29597 1.15486
 C149 C 0.14211 0.28414 1.17872
 C150 C 0.15520 0.26211 1.19084
 C151 C 0.17911 0.25119 1.17931
 C152 C 0.18976 0.26342 1.15557
 C153 C 0.17668 0.28554 1.14356
 C154 C 0.13809 0.31867 1.14144
 C155 C 0.15246 0.34099 1.13063
 C156 C 0.13875 0.36204 1.11748
 C157 C 0.11036 0.36119 1.11476
 C158 C 0.09601 0.33890 1.12571
 C159 C 0.10971 0.31793 1.13893
 C160 C 0.09575 0.38314 1.10015
 C161 C 0.07029 0.39223 1.10947
 C162 C 0.05601 0.41202 1.09510
 C163 C 0.06687 0.42329 1.07109
 C164 C 0.09256 0.41456 1.06203
 C165 C 0.10681 0.39470 1.07637
 H166 H 0.12377 0.29200 1.18809
 H167 H 0.14630 0.25354 1.20914
 H168 H 0.20809 0.25581 1.14597
 H169 H 0.18509 0.29408 1.12503
 H170 H 0.17431 0.34228 1.13257
 H171 H 0.15035 0.37911 1.10965
 H172 H 0.07421 0.33735 1.12352
 H173 H 0.09813 0.30078 1.14666
 H174 H 0.06135 0.38401 1.12791
 H175 H 0.03616 0.41805 1.10249
 H176 H 0.10165 0.42306 1.04380
 H177 H 0.12625 0.38798 1.06848
 C178 C -0.16157 0.70466 1.15851
 C179 C -0.15064 0.71541 1.18256
 C180 C -0.16250 0.73800 1.19521
 C181 C -0.18567 0.75045 1.18413
 C182 C -0.19703 0.73904 1.16044
 C183 C -0.18508 0.71650 1.14780
 C184 C -0.14789 0.68185 1.14408
 C185 C -0.14499 0.68234 1.11564
 C186 C -0.13121 0.66151 1.10202
 C187 C -0.12002 0.63963 1.11651
 C188 C -0.12319 0.63896 1.14494
 C189 C -0.13695 0.65986 1.15859
 C190 C -0.10455 0.61802 1.10199
 C191 C -0.08056 0.60747 1.11307
 C192 C -0.06531 0.58810 1.09880
 C193 C -0.07367 0.57885 1.07311
 C194 C -0.09791 0.58905 1.06225
 C195 C -0.11317 0.60838 1.07653
 H196 H -0.13239 0.70686 1.19117
 H197 H -0.15308 0.74594 1.21343
 H198 H -0.21495 0.74772 1.15127
 H199 H -0.19421 0.70838 1.12952
 H200 H -0.15278 0.69924 1.10394
 H201 H -0.12870 0.66291 1.08017
 H202 H -0.11517 0.62219 1.15665
 H203 H -0.13916 0.65876 1.18049
 H204 H -0.07321 0.61465 1.13251
 H205 H -0.04691 0.58041 1.10788
 H206 H -0.10478 0.58259 1.04239
 H207 H -0.13173 0.61585 1.06758
 C208 C -0.15010 0.29301 0.84658
 C209 C -0.17476 0.28245 0.85651
 C210 C -0.18741 0.26056 0.84345
 C211 C -0.17571 0.24865 0.82003
 C212 C -0.15117 0.25965 0.80992
 C213 C -0.13855 0.28149 0.82305
 C214 C -0.13617 0.31561 0.86104
 C215 C -0.10789 0.31513 0.86451
 C216 C -0.09476 0.33607 0.87854
 C217 C -0.10959 0.35801 0.88942
 C218 C -0.13786 0.35857 0.88583
 C219 C -0.15101 0.33759 0.87181
 C220 C -0.09560 0.37998 0.90478
 C221 C -0.10728 0.39087 0.92858
 C222 C -0.09369 0.41089 0.94351
 C223 C -0.06810 0.42050 0.93498
 C224 C -0.05658 0.40985 0.91099
 C225 C -0.07017 0.38984 0.89607
 H226 H -0.18402 0.29072 0.87477
 H227 H -0.20625 0.25286 0.85199
 H228 H -0.14145 0.25133 0.79191
 H229 H -0.11974 0.28946 0.81469
 H230 H -0.09595 0.29825 0.85685
 H231 H -0.07302 0.33479 0.88138
 H232 H -0.14981 0.37539 0.89362
 H233 H -0.17278 0.33870 0.86914
 H234 H -0.12672 0.38353 0.93598
 H235 H -0.10325 0.41890 0.96174
 H236 H -0.03677 0.41659 0.90402
 H237 H -0.06077 0.38210 0.87765
 C238 C 0.15256 0.70593 0.84551
 C239 C 0.14358 0.71564 0.82027
 C240 C 0.15734 0.73683 0.80707
 C241 C 0.18045 0.74880 0.81878
 C242 C 0.18971 0.73874 0.84380
 C243 C 0.17592 0.71758 0.85702
 C244 C 0.13725 0.68422 0.86011
 C245 C 0.15095 0.66366 0.87432
 C246 C 0.13646 0.64371 0.88866
 C247 C 0.10792 0.64388 0.88911
 C248 C 0.09423 0.66428 0.87466
 C249 C 0.10871 0.68421 0.86035
 C250 C 0.09245 0.62315 0.90492
 C251 C 0.06916 0.63062 0.91980
 C252 C 0.05457 0.61122 0.93471
 C253 C 0.06295 0.58388 0.93515
 C254 C 0.08629 0.57639 0.92035
 C255 C 0.10087 0.59580 0.90537
 H256 H 0.12591 0.70681 0.81065
 H257 H 0.14971 0.74392 0.78774
 H258 H 0.20740 0.74750 0.85346
 H259 H 0.18317 0.71081 0.87660
 H260 H 0.17292 0.66292 0.87429
 H261 H 0.14761 0.62843 0.89979
 H262 H 0.07227 0.66478 0.87432
 H263 H 0.09753 0.69993 0.84988
 H264 H 0.06244 0.65160 0.92030
 H265 H 0.03697 0.61773 0.94630
 H266 H 0.09304 0.55541 0.92002
 H267 H 0.11850 0.58932 0.89382
 C268 C 1.15645 0.15488 0.29279
 C269 C 1.14534 0.17896 0.28233
 C270 C 1.15752 0.19212 0.26017
 C271 C 1.18120 0.18152 0.24788
 C272 C 1.19259 0.15767 0.25888
 C273 C 1.18033 0.14453 0.28098
 C274 C 1.14274 0.14017 0.31543
 C275 C 1.14038 0.11164 0.31479
 C276 C 1.12684 0.09776 0.33565
 C277 C 1.11540 0.11206 0.35770
 C278 C 1.11795 0.14060 0.35845
 C279 C 1.13144 0.15451 0.33752
 C280 C 1.10048 0.09724 0.37953
 C281 C 1.07634 0.10787 0.39060
 C282 C 1.06179 0.09341 0.41040
 C283 C 1.07103 0.06799 0.41959
 C284 C 1.09537 0.05755 0.40878
 C285 C 1.10993 0.07201 0.38901
 H286 H 1.12680 0.18729 0.29084
 H287 H 1.14803 0.21041 0.25251
 H288 H 1.21087 0.14884 0.25029
 H289 H 1.18958 0.12621 0.28887
 H290 H 1.14845 0.10007 0.29781
 H291 H 1.12482 0.07583 0.33420
 H292 H 1.10971 0.15218 0.37535
 H293 H 1.13325 0.17647 0.33875
 H294 H 1.06837 0.12712 0.38355
 H295 H 1.04328 0.10216 0.41854
 H296 H 1.10291 0.03790 0.41517
 H297 H 1.12863 0.06342 0.38113
 C298 C 1.15964 -0.15629 0.70269
 C299 C 1.18439 -0.14675 0.71307
 C300 C 1.19663 -0.15976 0.73503
 C301 C 1.18441 -0.18274 0.74725
 C302 C 1.15997 -0.19273 0.73623
 C303 C 1.14775 -0.17963 0.71429
 C304 C 1.14577 -0.14132 0.68056
 C305 C 1.13228 -0.15541 0.65969
 C306 C 1.11844 -0.14117 0.63948
 C307 C 1.11772 -0.11254 0.63974
 C308 C 1.13152 -0.09848 0.66040
 C309 C 1.14534 -0.11269 0.68056
 C310 C 1.10221 -0.09731 0.61894
 C311 C 1.08683 -0.07440 0.62645
 C312 C 1.07230 -0.05989 0.60701
 C313 C 1.07277 -0.06795 0.57957
 C314 C 1.08799 -0.09098 0.57204
 C315 C 1.10257 -0.10550 0.59152
 H316 H 1.19431 -0.12910 0.70426
 H317 H 1.21554 -0.15147 0.74256
 H318 H 1.14985 -0.21037 0.74485
 H319 H 1.12854 -0.18734 0.70692
 H320 H 1.13246 -0.17747 0.65897
 H321 H 1.10783 -0.15260 0.62396
 H322 H 1.13165 -0.07642 0.66097
 H323 H 1.15524 -0.10121 0.69651
 H324 H 1.08568 -0.06790 0.64748
 H325 H 1.06032 -0.04258 0.61356
 H326 H 1.08897 -0.09750 0.55101
 H327 H 1.11448 -0.12288 0.58505
 C328 C 0.84559 -0.15251 0.29481
 C329 C 0.82310 -0.14008 0.28270
 C330 C 0.80952 -0.15281 0.26129
 C331 C 0.81831 -0.17825 0.25120
 C332 C 0.84067 -0.19081 0.26374
 C333 C 0.85405 -0.17812 0.28533
 C334 C 0.86070 -0.13841 0.31671
 C335 C 0.86903 -0.15262 0.33997
 C336 C 0.88378 -0.13935 0.36029
 C337 C 0.89078 -0.11171 0.35755
 C338 C 0.88236 -0.09750 0.33433
 C339 C 0.86737 -0.11068 0.31418
 C340 C 0.90710 -0.09774 0.37862
 C341 C 0.92891 -0.08082 0.37104
 C342 C 0.94419 -0.06736 0.39078
 C343 C 0.93784 -0.07035 0.41852
 C344 C 0.91604 -0.08731 0.42613
 C345 C 0.90092 -0.10101 0.40637
 H346 H 0.81598 -0.12045 0.28985
 H347 H 0.79237 -0.14241 0.25245
 H348 H 0.84813 -0.21038 0.25679
 H349 H 0.87147 -0.18806 0.29417
 H350 H 0.86399 -0.17397 0.34250
 H351 H 0.89017 -0.15081 0.37791
 H352 H 0.88726 -0.07612 0.33183
 H353 H 0.86143 -0.09930 0.29635
 H354 H 0.93426 -0.07813 0.34981
 H355 H 0.96070 -0.05421 0.38432
 H356 H 0.91082 -0.09008 0.44739
 H357 H 0.88410 -0.11381 0.41275
 C358 C 0.85155 0.15390 0.70599
 C359 C 0.86328 0.17675 0.71851
 C360 C 0.85013 0.18975 0.74020
 C361 C 0.82500 0.18000 0.75014
 C362 C 0.81314 0.15728 0.73718
 C363 C 0.82622 0.14449 0.71532
 C364 C 0.86608 0.13938 0.68381
 C365 C 0.85226 0.13078 0.66040
 C366 C 0.86592 0.11645 0.63988
 C367 C 0.89357 0.11017 0.64254
 C368 C 0.90741 0.11891 0.66587
 C369 C 0.89384 0.13348 0.68623
 C370 C 0.90792 0.09415 0.62130
 C371 C 0.92504 0.07261 0.62866
 C372 C 0.93871 0.05751 0.60877
 C373 C 0.93574 0.06380 0.58109
 C374 C 0.91863 0.08537 0.57369
 C375 C 0.90470 0.10030 0.59361
 H376 H 0.88267 0.18459 0.71149
 H377 H 0.85999 0.20721 0.74937
 H378 H 0.79383 0.14908 0.74400
 H379 H 0.81684 0.12677 0.70615
 H380 H 0.83090 0.13523 0.65796
 H381 H 0.85475 0.10979 0.62217
 H382 H 0.92879 0.11455 0.66831
 H383 H 0.90493 0.13966 0.70416
 H384 H 0.92768 0.06729 0.64984
 H385 H 0.95198 0.04117 0.61505
 H386 H 0.91587 0.09053 0.55249
 H387 H 0.89174 0.11691 0.58741
 C388 C 0.29400 1.15669 0.14949
 C389 C 0.28620 1.14857 0.17579
 C390 C 0.26441 1.16119 0.18907
 C391 C 0.25009 1.18236 0.17642
 C392 C 0.25835 1.19090 0.15034
 C393 C 0.27999 1.17812 0.13698
 C394 C 0.31610 1.14225 0.13481
 C395 C 0.31288 1.13468 0.10745
 C396 C 0.33318 1.12016 0.09382
 C397 C 0.35725 1.11307 0.10719
 C398 C 0.36069 1.12101 0.13442
 C399 C 0.34025 1.13533 0.14814
 C400 C 0.37846 1.09706 0.09284
 C401 C 0.40601 1.10419 0.09499
 C402 C 0.42588 1.08923 0.08111
 C403 C 0.41861 1.06667 0.06506
 C404 C 0.39108 1.05943 0.06312
 C405 C 0.37121 1.07452 0.07678
 H406 H 0.29649 1.13195 0.18581
 H407 H 0.25865 1.15415 0.20916
 H408 H 0.24781 1.20715 0.14000
 H409 H 0.28578 1.18497 0.11683
 H410 H 0.29438 1.13952 0.09674
 H411 H 0.33012 1.11452 0.07276
 H412 H 0.37896 1.11565 0.14526
 H413 H 0.34333 1.14109 0.16917
 H414 H 0.41212 1.12158 0.10710
 H415 H 0.44697 1.09515 0.08308
 H416 H 0.38486 1.04231 0.05068
 H417 H 0.35016 1.06842 0.07497
 C418 C 0.70711 1.15468 -0.15740
 C419 C 0.71758 1.17909 -0.14673
 C420 C 0.73997 1.19179 -0.15897
 C421 C 0.75235 1.18040 -0.18220
 C422 C 0.74143 1.15633 -0.19323
 C423 C 0.71910 1.14360 -0.18094
 C424 C 0.68435 1.14034 -0.14351
 C425 C 0.68492 1.11189 -0.14042
 C426 C 0.66395 1.09833 -0.12673
 C427 C 0.64185 1.11289 -0.11585
 C428 C 0.64118 1.14134 -0.11910
 C429 C 0.66222 1.15492 -0.13275
 C430 C 0.61991 1.09840 -0.10077
 C431 C 0.60860 1.10968 -0.07696
 C432 C 0.58876 1.09549 -0.06218
 C433 C 0.57978 1.06971 -0.07086
 C434 C 0.59080 1.05864 -0.09489
 C435 C 0.61059 1.07283 -0.10968
 H436 H 0.70894 1.18797 -0.12846
 H437 H 0.74782 1.21031 -0.14993
 H438 H 0.75034 1.14703 -0.21116
 H439 H 0.71122 1.12503 -0.18985
 H440 H 0.70193 1.10015 -0.14806
 H441 H 0.66536 1.07648 -0.12414
 H442 H 0.62426 1.15309 -0.11129
 H443 H 0.66107 1.17682 -0.13511
 H444 H 0.61552 1.12922 -0.06940
 H445 H 0.58046 1.10473 -0.04393
 H446 H 0.58458 1.03870 -0.10199
 H447 H 0.61864 1.06373 -0.12812
 C448 C 0.29835 0.84341 -0.15763
 C449 C 0.28865 0.85277 -0.18272
 C450 C 0.26667 0.83996 -0.19522
 C451 C 0.25384 0.81744 -0.18293
 C452 C 0.26393 0.80770 -0.15811
 C453 C 0.28594 0.82054 -0.14560
 C454 C 0.32078 0.85798 -0.14368
 C455 C 0.34112 0.84352 -0.13000
 C456 C 0.36183 0.85740 -0.11641
 C457 C 0.36266 0.88604 -0.11621
 C458 C 0.34239 0.90046 -0.13000
 C459 C 0.32170 0.88661 -0.14356
 C460 C 0.38420 0.90093 -0.10125
 C461 C 0.39596 0.92463 -0.11226
 C462 C 0.41529 0.93939 -0.09765
 C463 C 0.42332 0.93079 -0.07169
 C464 C 0.41196 0.90678 -0.06089
 C465 C 0.39261 0.89202 -0.07551
 H466 H 0.29807 0.87007 -0.19272
 H467 H 0.25958 0.84792 -0.21441
 H468 H 0.25455 0.79043 -0.14805
 H469 H 0.29276 0.81301 -0.12614
 H470 H 0.34116 0.82146 -0.13003
 H471 H 0.37736 0.84571 -0.10627
 H472 H 0.34216 0.92253 -0.12980
 H473 H 0.30606 0.89835 -0.15347
 H474 H 0.39026 0.93174 -0.13225
 H475 H 0.42402 0.95754 -0.10671
 H476 H 0.41745 0.89983 -0.04079
 H477 H 0.38366 0.87405 -0.06631
 C478 C 0.70510 0.85080 0.15566
 C479 C 0.71248 0.82424 0.14799
 C480 C 0.73384 0.81095 0.16093
 C481 C 0.74819 0.82388 0.18197
 C482 C 0.74042 0.85027 0.18998
 C483 C 0.71919 0.86361 0.17690
 C484 C 0.68329 0.86538 0.14104
 C485 C 0.68686 0.89272 0.13334
 C486 C 0.66677 0.90625 0.11876
 C487 C 0.64259 0.89281 0.11174
 C488 C 0.63883 0.86559 0.11978
 C489 C 0.65903 0.85197 0.13418
 C490 C 0.62161 0.90705 0.09567
 C491 C 0.59397 0.90472 0.10259
 C492 C 0.57430 0.91840 0.08750
 C493 C 0.58188 0.93444 0.06503
 C494 C 0.60950 0.93660 0.05802
 C495 C 0.62915 0.92313 0.07323
 H496 H 0.70214 0.81397 0.13151
 H497 H 0.73923 0.79062 0.15427
 H498 H 0.75098 0.86083 0.20613
 H499 H 0.71373 0.88397 0.18343
 H500 H 0.70544 0.90348 0.13812
 H501 H 0.67009 0.92731 0.11306
 H502 H 0.62047 0.85468 0.11447
 H503 H 0.65566 0.83096 0.14005
 H504 H 0.58761 0.89261 0.11991
 H505 H 0.55314 0.91624 0.09324
 H506 H 0.61596 0.94905 0.04099
 H507 H 0.65028 0.92507 0.06726
   
