data_POSCAR
  _audit_creation_date              2014-09-24
  _audit_creation_method            'ToBaCCo'
  _symmetry_space_group_name_H-M    'P1'
  _symmetry_Int_Tables_number       1
  _symmetry_cell_setting            triclinic
  loop_
  _symmetry_equiv_pos_as_xyz
 x,y,z
_cell_length_a 30.7555
_cell_length_b 30.7883
_cell_length_c 31.1565
_cell_angle_alpha 92.975400
_cell_angle_beta 93.101000
_cell_angle_gamma 92.947800
loop_
  _atom_site_label
  _atom_site_type_symbol
  _atom_site_fract_x
  _atom_site_fract_y
  _atom_site_fract_z
C1 C 0.22935 0.51372 1.09872
 H2 H 0.25283 0.53859 1.09028
 C3 C 0.20475 0.52156 1.13433
 H4 H 0.20960 0.55275 1.15215
 C5 C 0.19519 0.44335 1.08615
 H6 H 0.19229 0.41249 1.06790
 C7 C 0.16959 0.44985 1.12149
 H8 H 0.14671 0.42392 1.12915
 N9 N 0.22241 0.47612 1.07385
 C10 C 0.32744 0.52053 1.00649
 H11 H 0.34232 0.48952 1.00602
 C12 C 0.35315 0.55849 1.00110
 H13 H 0.38761 0.55612 0.99672
 C14 C 0.26448 0.56126 1.01168
 H15 H 0.22980 0.56208 1.01567
 C16 C 0.28880 0.59980 1.00610
 H17 H 0.27250 0.63015 1.00603
 Zn18 Zn 0.24777 0.47146 1.01919
 N19 N 0.28394 0.52257 1.01198
 C20 C 0.20352 0.49524 0.94204
 N21 N 0.20215 0.46716 0.97436
 C22 C 0.16836 0.43694 0.97546
 C23 C 0.13330 0.43578 0.94488
 C24 C 0.16916 0.49524 0.91083
 C25 C 0.31412 0.41691 1.04616
 C26 C 0.34195 0.38257 1.04178
 C27 C 0.30073 0.35775 0.97610
 C28 C 0.27410 0.39272 0.98146
 N29 N 0.28151 0.42176 1.01576
 H30 H 0.23122 0.51790 0.94024
 H31 H 0.16827 0.41364 1.00005
 H32 H 0.10647 0.41192 0.94690
 H33 H 0.17101 0.51840 0.88600
 H34 H 0.31927 0.44050 1.07316
 H35 H 0.36823 0.37975 1.06582
 H36 H 0.29471 0.33551 0.94808
 H37 H 0.24824 0.39725 0.95751
 C38 C 0.33377 0.59881 1.00088
 C39 C 0.17269 0.49031 1.14492
 C40 C 0.33567 0.35276 1.00602
 C41 C 0.13303 0.46569 0.91243
 C42 C 0.76639 0.53909 -0.10690
 H43 H 0.73911 0.55960 -0.10485
 C44 C 0.79126 0.53997 -0.14306
 H45 H 0.78238 0.56101 -0.16853
 C46 C 0.81254 0.48872 -0.07554
 H47 H 0.82169 0.47002 -0.04840
 C48 C 0.83848 0.48884 -0.11097
 H49 H 0.86676 0.46935 -0.11099
 N50 N 0.77741 0.51382 -0.07392
 C51 C 0.72301 0.59695 0.01418
 H52 H 0.75065 0.59412 0.03651
 C53 C 0.69656 0.63200 0.01966
 H54 H 0.70461 0.65584 0.04604
 C55 C 0.67815 0.56873 -0.04607
 H56 H 0.67074 0.54341 -0.07117
 C57 C 0.65050 0.60319 -0.04151
 H58 H 0.62228 0.60434 -0.06361
 Zn59 Zn 0.74852 0.51682 -0.02158
 N60 N 0.71345 0.56601 -0.01817
 C61 C 0.82557 0.55310 0.02000
 N62 N 0.79280 0.52229 0.02322
 C63 C 0.79273 0.49540 0.05648
 C64 C 0.82685 0.49884 0.08817
 C65 C 0.86018 0.55776 0.05099
 C66 C 0.67069 0.46761 -0.00636
 C67 C 0.64471 0.42975 -0.00171
 C68 C 0.70675 0.38746 -0.01624
 C69 C 0.73140 0.42605 -0.02097
 N70 N 0.71316 0.46517 -0.01613
 H71 H 0.82487 0.57389 -0.00696
 H72 H 0.76628 0.47119 0.05843
 H73 H 0.82611 0.47708 0.11430
 H74 H 0.88605 0.58237 0.04769
 H75 H 0.65692 0.49890 -0.00139
 H76 H 0.61116 0.43253 0.00637
 H77 H 0.72203 0.35669 -0.02007
 H78 H 0.76528 0.42468 -0.02799
 C79 C 0.65945 0.63519 -0.00799
 C80 C 0.82832 0.51525 -0.14505
 C81 C 0.66280 0.38902 -0.00659
 C82 C 0.86129 0.53025 0.08551
 C83 C -0.05920 0.28422 0.40993
 H84 H -0.08373 0.25882 0.41476
 C85 C -0.06381 0.30978 0.37434
 H86 H -0.09230 0.30374 0.35245
 C87 C 0.00781 0.32214 0.43212
 H88 H 0.03598 0.32636 0.45458
 C89 C 0.00439 0.34868 0.39723
 H90 H 0.03020 0.37321 0.39366
 N91 N -0.02402 0.29107 0.43825
 C92 C -0.10442 0.22735 0.49462
 H93 H -0.10945 0.26178 0.49900
 C94 C -0.13942 0.19686 0.49669
 H95 H -0.17146 0.20810 0.50257
 C96 C -0.05637 0.17090 0.48202
 H97 H -0.02401 0.16086 0.47604
 C98 C -0.09029 0.13934 0.48431
 H99 H -0.08349 0.10532 0.47986
 Zn100 Zn -0.01694 0.25617 0.48668
 N101 N -0.06389 0.21395 0.48736
 C102 C -0.01749 0.27276 0.57704
 N103 N -0.01612 0.29190 0.53866
 C104 C -0.01656 0.33595 0.53691
 C105 C -0.01640 0.36252 0.57455
 C106 C -0.01767 0.29820 0.61559
 C107 C 0.05497 0.22645 0.44374
 C108 C 0.09192 0.20303 0.43760
 C109 C 0.08918 0.18038 0.51046
 C110 C 0.05238 0.20463 0.51537
 N111 N 0.03591 0.22700 0.48217
 H112 H -0.01925 0.23768 0.57776
 H113 H -0.01752 0.35087 0.50640
 H114 H -0.01673 0.39740 0.57198
 H115 H -0.01852 0.28239 0.64581
 H116 H 0.04086 0.24309 0.41716
 H117 H 0.10615 0.20272 0.40655
 H118 H 0.10147 0.16258 0.53716
 H119 H 0.03648 0.20465 0.54538
 C120 C -0.13247 0.15218 0.49184
 C121 C -0.03195 0.34291 0.36771
 C122 C 0.10922 0.17921 0.47101
 C123 C -0.01661 0.34376 0.61463
 C124 C 0.99776 0.68910 0.56895
 H125 H 0.96792 0.68659 0.54872
 C126 C 1.00303 0.66139 0.60254
 H127 H 0.97679 0.63791 0.60781
 C128 C 1.06770 0.72336 0.58625
 H129 H 1.09276 0.74767 0.57988
 C130 C 1.07433 0.69627 0.62040
 H131 H 1.10464 0.69991 0.63994
 N132 N 1.03010 0.71886 0.56094
 C133 C 0.95080 0.80460 0.48609
 H134 H 0.96574 0.80393 0.45557
 C135 C 0.91439 0.82918 0.49165
 H136 H 0.90136 0.84649 0.46491
 C137 C 0.95037 0.78419 0.55832
 H138 H 0.96526 0.76799 0.58480
 C139 C 0.91375 0.80796 0.56513
 H140 H 0.90045 0.80898 0.59662
 Zn141 Zn 1.02058 0.75337 0.51292
 N142 N 0.96812 0.78272 0.51923
 C143 C 1.01721 0.73559 0.42275
 N144 N 1.01716 0.71691 0.46138
 C145 C 1.01629 0.67281 0.46348
 C146 C 1.01348 0.64576 0.42600
 C147 C 1.01465 0.70971 0.38439
 C148 C 1.05964 0.83834 0.51781
 C149 C 1.09343 0.87010 0.51628
 C150 C 1.14224 0.81319 0.50006
 C151 C 1.10733 0.78249 0.50140
 N152 N 1.06710 0.79550 0.51045
 H153 H 1.01997 0.77063 0.42164
 H154 H 1.01810 0.65816 0.49411
 H155 H 1.01273 0.61087 0.42878
 H156 H 1.01456 0.72525 0.35399
 H157 H 1.02755 0.84803 0.52532
 H158 H 1.08677 0.90391 0.52269
 H159 H 1.17416 0.80230 0.49308
 H160 H 1.11230 0.74820 0.49555
 C161 C 0.89558 0.83121 0.53170
 C162 C 1.04192 0.66446 0.62855
 C163 C 1.13540 0.85763 0.50747
 C164 C 1.01234 0.66414 0.38575
 C165 C 0.44111 -0.03970 0.30737
 H166 H 0.45687 -0.06862 0.29665
 C167 C 0.41185 -0.04188 0.33989
 H168 H 0.40474 -0.07284 0.35371
 C169 C 0.43307 0.03622 0.30360
 H170 H 0.44264 0.06677 0.29031
 C171 C 0.40316 0.03542 0.33584
 H172 H 0.38961 0.06552 0.34676
 N173 N 0.45178 -0.00095 0.29063
 C174 C 0.51242 -0.07895 0.20305
 H175 H 0.54063 -0.08171 0.22457
 C176 C 0.50457 -0.10929 0.16824
 H177 H 0.52759 -0.13427 0.16373
 C178 C 0.44782 -0.04429 0.18420
 H179 H 0.42527 -0.01948 0.19097
 C180 C 0.43847 -0.07411 0.14918
 H181 H 0.40904 -0.07111 0.12908
 Zn182 Zn 0.49801 -0.00098 0.25336
 N183 N 0.48508 -0.04616 0.20949
 C184 C 0.58792 -0.01901 0.26796
 N185 N 0.55006 -0.01094 0.28690
 C186 C 0.54842 -0.00873 0.33054
 C187 C 0.58518 -0.01611 0.35677
 C188 C 0.62531 -0.02751 0.29303
 C189 C 0.47067 0.06867 0.20389
 C190 C 0.47672 0.10525 0.17970
 C191 C 0.55212 0.11153 0.20611
 C192 C 0.54462 0.07493 0.22981
 N193 N 0.50476 0.05333 0.22718
 H194 H 0.58903 -0.01916 0.23331
 H195 H 0.51863 -0.00100 0.34532
 H196 H 0.58281 -0.01481 0.39134
 H197 H 0.65494 -0.03468 0.27744
 H198 H 0.43883 0.05218 0.20338
 H199 H 0.44941 0.11586 0.16036
 H200 H 0.58455 0.12718 0.20746
 H201 H 0.57117 0.06314 0.24917
 C202 C 0.46762 -0.10658 0.13998
 C203 C 0.39303 -0.00390 0.35500
 C204 C 0.51827 0.12635 0.17962
 C205 C 0.62407 -0.02620 0.33801
 C206 C 0.56887 -0.04088 0.69790
 H207 H 0.56464 -0.07083 0.71418
 C208 C 0.59793 -0.03817 0.66492
 H209 H 0.61612 -0.06619 0.65636
 C210 C 0.54888 0.03140 0.68791
 H211 H 0.52909 0.05815 0.69674
 C212 C 0.57708 0.03536 0.65467
 H213 H 0.57914 0.06553 0.63834
 N214 N 0.54505 -0.00630 0.70856
 C215 C 0.45340 -0.08403 0.77019
 H216 H 0.42677 -0.07167 0.75127
 C217 C 0.44560 -0.11995 0.79478
 H218 H 0.41304 -0.13526 0.79381
 C219 C 0.52713 -0.07710 0.79704
 H220 H 0.55841 -0.05914 0.79887
 C221 C 0.52077 -0.11300 0.82214
 H222 H 0.54763 -0.12261 0.84274
 Zn223 Zn 0.50100 -0.00799 0.74841
 N224 N 0.49346 -0.06293 0.77234
 C225 C 0.43560 -0.01876 0.68219
 N226 N 0.44949 0.00680 0.71769
 C227 C 0.42982 0.04418 0.72816
 C228 C 0.39470 0.05705 0.70249
 C229 C 0.40065 -0.00703 0.65552
 C230 C 0.55388 0.05602 0.79939
 C231 C 0.56318 0.08570 0.83458
 C232 C 0.49231 0.06672 0.86032
 C233 C 0.48477 0.03681 0.82523
 N234 N 0.51491 0.03280 0.79512
 H235 H 0.45241 -0.04784 0.67410
 H236 H 0.44214 0.06496 0.75554
 H237 H 0.37997 0.08727 0.71105
 H238 H 0.39053 -0.02771 0.62726
 H239 H 0.57783 0.05149 0.77564
 H240 H 0.59415 0.10431 0.83746
 H241 H 0.46764 0.06989 0.88361
 H242 H 0.45449 0.01713 0.82151
 C243 C 0.47918 -0.13414 0.82212
 C244 C 0.60184 0.00024 0.64254
 C245 C 0.53184 0.09174 0.86512
 C246 C 0.38005 0.03165 0.66533
 C247 C 0.22548 0.07139 0.48323
 C248 C 0.24897 0.08264 0.52721
 C249 C 0.27468 0.05095 0.54106
 C250 C 0.27458 0.01083 0.50946
 C251 C 0.26177 0.06089 0.45290
 C252 C 0.28722 0.02890 0.46663
 C253 C 0.20042 0.02765 0.48784
 C254 C 0.22636 -0.00413 0.50144
 H255 H 0.24545 0.11296 0.54557
 H256 H 0.29534 -0.01525 0.52040
 H257 H 0.26495 0.07515 0.42216
 H258 H 0.16602 0.02212 0.47892
 C259 C 0.77888 -0.06149 0.51988
 C260 C 0.74104 -0.05325 0.54897
 C261 C 0.71501 -0.02167 0.53539
 C262 C 0.72891 -0.00146 0.49389
 C263 C 0.75739 -0.07174 0.47477
 C264 C 0.73124 -0.04032 0.46121
 C265 C 0.80299 -0.01690 0.51756
 C266 C 0.77670 0.01458 0.50391
 H267 H 0.73648 -0.06966 0.57836
 H268 H 0.70774 0.02422 0.48262
 H269 H 0.76260 -0.10102 0.45537
 H270 H 0.83731 -0.01100 0.52668
 C271 C 0.46508 0.25929 1.00619
 C272 C 0.47447 0.22197 0.97383
 C273 C 0.51426 0.20557 0.98106
 C274 C 0.54083 0.22747 1.01996
 C275 C 0.47108 0.24022 1.05047
 C276 C 0.51093 0.22381 1.05755
 C277 C 0.50357 0.29293 1.00376
 C278 C 0.54327 0.27593 1.01093
 H279 H 0.45290 0.21149 0.94625
 H280 H 0.57298 0.21346 1.02603
 H281 H 0.44629 0.23991 1.07384
 H282 H 0.49951 0.32617 0.99533
 C283 C 0.53119 0.73006 -0.00568
 C284 C 0.52539 0.75163 -0.04873
 C285 C 0.48569 0.76868 -0.05486
 C286 C 0.45571 0.76302 -0.01751
 C287 C 0.52201 0.76556 0.02860
 C288 C 0.48247 0.78278 0.02244
 C289 C 0.49257 0.69638 -0.00502
 C290 C 0.45298 0.71384 -0.01127
 H291 H 0.55005 0.75265 -0.07221
 H292 H 0.42361 0.77737 -0.02274
 H293 H 0.54478 0.77582 0.05525
 H294 H 0.49653 0.66245 0.00078
 C295 C 0.98455 0.46032 0.26603
 C296 C 0.95449 0.47086 0.22739
 C297 C 0.96761 0.50773 0.20833
 C298 C 1.00942 0.53064 0.22958
 C299 C 1.03012 0.45842 0.24832
 C300 C 1.04304 0.49558 0.22966
 C301 C 0.98663 0.50155 0.29625
 C302 C 0.99969 0.53837 0.27696
 H303 H 0.92583 0.45082 0.21623
 H304 H 1.02039 0.56050 0.21386
 H305 H 1.05078 0.43128 0.25199
 H306 H 0.97793 0.50129 0.32941
 C307 C 0.02158 0.54628 0.73067
 C308 C -0.02401 0.55430 0.74531
 C309 C -0.04257 0.52051 0.76525
 C310 C -0.01371 0.48133 0.76899
 C311 C 0.04796 0.53466 0.77122
 C312 C 0.02960 0.50041 0.79123
 C313 C 0.01634 0.50404 0.70244
 C314 C -0.00223 0.46992 0.72235
 H315 H -0.04019 0.58417 0.74013
 H316 H -0.02906 0.45367 0.78517
 H317 H 0.07871 0.55125 0.78207
 H318 H 0.02729 0.50165 0.67005
 N319 N 0.20125 0.12582 0.43264
 N320 N 0.17102 0.15465 0.42863
 C321 C 0.14727 0.15283 0.46373
 C322 C 0.16399 0.12167 0.48940
 N323 N 0.19756 0.10562 0.46886
 H324 H 0.15273 0.11107 0.51966
 N325 N 0.60433 0.72747 0.03058
 N326 N 0.63868 0.70335 0.03051
 C327 C 0.63009 0.67103 -0.00013
 C328 C 0.58905 0.67638 -0.01908
 N329 N 0.57401 0.71179 0.00126
 H330 H 0.57116 0.65596 -0.04406
 N331 N 0.80352 -0.11582 0.57039
 N332 N 0.83393 -0.14447 0.57437
 C333 C 0.85775 -0.14228 0.53936
 C334 C 0.84097 -0.11105 0.51383
 N335 N 0.80718 -0.09539 0.53428
 H336 H 0.85221 -0.10029 0.48362
 N337 N 0.39285 0.26161 0.96786
 N338 N 0.35823 0.28540 0.96721
 C339 C 0.36561 0.31731 0.99847
 C340 C 0.40622 0.31212 1.01846
 N341 N 0.42218 0.27713 0.99822
 H342 H 0.42324 0.33241 1.04408
 N343 N 0.76549 0.09154 0.49564
 N344 N 0.78842 0.12875 0.49248
 C345 C 0.83087 0.11952 0.49452
 C346 C 0.83315 0.07526 0.49925
 N347 N 0.79170 0.05906 0.49983
 H348 H 0.86199 0.05670 0.50190
 N349 N 0.37384 0.70768 -0.01418
 N350 N 0.34141 0.67829 -0.01102
 C351 C 0.35942 0.63989 -0.00502
 C352 C 0.40430 0.64684 -0.00461
 N353 N 0.41187 0.68960 -0.01038
 H354 H 0.42886 0.62337 0.00006
 N355 N 0.23742 -0.08135 0.50729
 N356 N 0.21447 -0.11881 0.50856
 C357 C 0.17205 -0.10952 0.50658
 C358 C 0.16979 -0.06501 0.50394
 N359 N 0.21124 -0.04869 0.50446
 H360 H 0.14095 -0.04639 0.50168
 N361 N 0.62195 0.28032 1.00734
 N362 N 0.65447 0.30914 1.00250
 C363 C 0.63692 0.34814 0.99918
 C364 C 0.59225 0.34219 1.00212
 N365 N 0.58434 0.29937 1.00717
 H366 H 0.56802 0.36637 1.00049
 N367 N 0.56511 0.20355 1.11140
 N368 N 0.56822 0.17814 1.14429
 C369 C 0.52767 0.16135 1.15008
 C370 C 0.49941 0.17781 1.11965
 N371 N 0.52412 0.20384 1.09626
 H372 H 0.46500 0.16954 1.11308
 N373 N 0.07663 0.60610 0.71975
 N374 N 0.08278 0.63788 0.69319
 C375 C 0.04863 0.63474 0.66385
 C376 C 0.02159 0.59980 0.67320
 N377 N 0.04001 0.58293 0.70819
 H378 H -0.00882 0.58768 0.65671
 N379 N 0.43126 0.79171 -0.10710
 N380 N 0.42837 0.81687 -0.14021
 C381 C 0.46922 0.83201 -0.14716
 C382 C 0.49744 0.81484 -0.11711
 N383 N 0.47239 0.79003 -0.09282
 H384 H 0.53225 0.82149 -0.11175
 N385 N 0.93453 0.39646 0.27593
 N386 N 0.92924 0.36498 0.30287
 C387 C 0.96301 0.36950 0.33259
 C388 C 0.98943 0.40501 0.32256
 N389 N 0.97043 0.42090 0.28718
 H390 H 1.01881 0.41900 0.33967
 N391 N 0.43011 0.83567 0.04380
 N392 N 0.42508 0.86565 0.07498
 C393 C 0.46006 0.86514 0.10309
 C394 C 0.48670 0.83364 0.08784
 N395 N 0.46698 0.81617 0.05083
 H396 H 0.51765 0.82472 0.10188
 N397 N -0.02023 0.39153 0.72177
 N398 N -0.02415 0.35710 0.69412
 C399 C -0.01598 0.37150 0.65500
 C400 C -0.00680 0.41587 0.65972
 N401 N -0.00971 0.42714 0.70172
 H402 H 0.00141 0.43778 0.63502
 N403 N 0.57382 0.16876 0.94884
 N404 N 0.57998 0.13894 0.91784
 C405 C 0.54010 0.12436 0.90139
 C406 C 0.50932 0.14631 0.92318
 N407 N 0.53165 0.17375 0.95241
 H408 H 0.47422 0.14326 0.91769
 N409 N 1.01036 0.61731 0.27811
 N410 N 1.01385 0.65152 0.30590
 C411 C 1.00963 0.63633 0.34538
 C412 C 1.00323 0.59147 0.34074
 N413 N 1.00392 0.58097 0.29833
 H414 H 0.99894 0.56871 0.36565
 N415 N 1.10737 0.54149 0.21866
 N416 N 1.14271 0.54102 0.19630
 C417 C 1.14316 0.50110 0.17622
 C418 C 1.10682 0.47671 0.18784
 N419 N 1.08550 0.50328 0.21407
 H420 H 1.09514 0.44427 0.17616
 N421 N 0.65905 0.02920 0.55032
 N422 N 0.62899 0.03632 0.57834
 C423 C 0.63037 0.00404 0.60601
 C424 C 0.66240 -0.02320 0.59389
 N425 N 0.67955 -0.00631 0.55909
 H426 H 0.67245 -0.05209 0.60914
 N427 N -0.11609 0.54586 0.76262
 N428 N -0.15105 0.54504 0.78554
 C429 C -0.14277 0.51973 0.81876
 C430 C -0.10132 0.50464 0.81512
 N431 N -0.08591 0.52188 0.77981
 H432 H -0.08299 0.48568 0.83733
 N433 N 0.33535 -0.02851 0.44799
 N434 N 0.36308 -0.03871 0.41852
 C435 C 0.36488 -0.00555 0.39189
 C436 C 0.33727 0.02543 0.40612
 N437 N 0.31947 0.00981 0.44113
 H438 H 0.33067 0.05610 0.39234
 N439 N 0.03296 0.44859 0.84785
 N440 N 0.05966 0.43818 0.88009
 C441 C 0.09517 0.46594 0.88088
 C442 C 0.08913 0.49385 0.84802
 N443 N 0.05000 0.48199 0.82819
 H444 H 0.11110 0.52004 0.83931
 N445 N 0.72228 -0.06474 0.38531
 N446 N 0.69480 -0.06113 0.35158
 C447 C 0.66277 -0.03629 0.36507
 C448 C 0.67168 -0.02456 0.40816
 N449 N 0.70896 -0.04296 0.41949
 H450 H 0.65266 -0.00518 0.42935
 N451 N 0.95822 0.55886 0.15186
 N452 N 0.93077 0.56595 0.11905
 C453 C 0.89846 0.53449 0.11797
 C454 C 0.90716 0.50777 0.15132
 N455 N 0.94470 0.52406 0.17165
 H456 H 0.88824 0.47922 0.15973
 N457 N 0.29552 0.08708 0.61123
 N458 N 0.32284 0.08286 0.64489
 C459 C 0.34468 0.04673 0.63657
 C460 C 0.32973 0.02896 0.59650
 N461 N 0.29915 0.05508 0.58179
 H462 H 0.34089 0.00062 0.57933
   
