data_POSCAR
  _audit_creation_date              2014-09-24
  _audit_creation_method            'ToBaCCo'
  _symmetry_space_group_name_H-M    'P1'
  _symmetry_Int_Tables_number       1
  _symmetry_cell_setting            triclinic
  loop_
  _symmetry_equiv_pos_as_xyz
 x,y,z
_cell_length_a 41.4413
_cell_length_b 41.4425
_cell_length_c 57.0348
_cell_angle_alpha 89.965500
_cell_angle_beta 90.054500
_cell_angle_gamma 120.143900
loop_
  _atom_site_label
  _atom_site_type_symbol
  _atom_site_fract_x
  _atom_site_fract_y
  _atom_site_fract_z
C1 C -0.01744 0.49077 1.25284
 C2 C 0.02058 0.50994 1.25292
 C3 C 0.04246 0.52206 1.27505
 C4 C 0.04240 0.51987 1.23081
 C5 C -0.03918 0.48074 1.23065
 C6 C -0.03942 0.47869 1.27488
 C7 C 0.03723 0.54433 1.29146
 C8 C 0.05834 0.55569 1.31210
 C9 C 0.08512 0.54517 1.31644
 C10 C 0.09068 0.52332 1.29998
 C11 C 0.06957 0.51197 1.27939
 C12 C 0.06874 0.55734 1.22617
 C13 C 0.08920 0.56723 1.20534
 C14 C 0.08374 0.53974 1.18901
 C15 C 0.05793 0.50222 1.19367
 C16 C 0.03746 0.49228 1.21453
 C17 C -0.06566 0.44326 1.22611
 C18 C -0.08625 0.43329 1.20530
 C19 C -0.08081 0.46068 1.18888
 C20 C -0.05480 0.49820 1.19342
 C21 C -0.03419 0.50823 1.21426
 C22 C -0.03433 0.45637 1.29135
 C23 C -0.05556 0.44504 1.31191
 C24 C -0.08224 0.45566 1.31609
 C25 C -0.08768 0.47753 1.29962
 C26 C -0.06649 0.48887 1.27909
 H27 H 0.01696 0.55301 1.28821
 H28 H 0.05382 0.57278 1.32456
 H29 H 0.11134 0.51503 1.30298
 H30 H 0.07417 0.49502 1.26689
 H31 H 0.07310 0.57896 1.23857
 H32 H 0.10921 0.59631 1.20195
 H33 H 0.01777 0.46316 1.21800
 H34 H -0.07007 0.42171 1.23859
 H35 H -0.10641 0.40421 1.20202
 H36 H -0.05055 0.51965 1.18090
 H37 H -0.01441 0.53736 1.21763
 H38 H -0.01409 0.44762 1.28820
 H39 H -0.05130 0.42792 1.32448
 H40 H -0.10835 0.48578 1.30263
 H41 H -0.07099 0.50586 1.26654
 H42 H 0.05367 0.48070 1.18122
 C43 C 0.51058 0.49211 1.24725
 C44 C 0.49077 0.51023 1.24728
 C45 C 0.47842 0.51960 1.26943
 C46 C 0.48050 0.52185 1.22519
 C47 C 0.52083 0.48056 1.22512
 C48 C 0.52293 0.48266 1.26935
 C49 C 0.45646 0.49182 1.28583
 C50 C 0.44522 0.50126 1.30660
 C51 C 0.45552 0.53847 1.31104
 C52 C 0.47693 0.56612 1.29460
 C53 C 0.48820 0.55674 1.27388
 C54 C 0.44294 0.51047 1.22075
 C55 C 0.43278 0.52133 1.20014
 C56 C 0.46007 0.54389 1.18383
 C57 C 0.49765 0.55569 1.18823
 C58 C 0.50786 0.54486 1.20888
 C59 C 0.55837 0.49180 1.22075
 C60 C 0.56851 0.48084 1.20019
 C61 C 0.54123 0.45830 1.18384
 C62 C 0.50367 0.44668 1.18817
 C63 C 0.49348 0.45762 1.20876
 C64 C 0.54496 0.51040 1.28576
 C65 C 0.55613 0.50087 1.30654
 C66 C 0.54567 0.46363 1.31098
 C67 C 0.52422 0.43602 1.29453
 C68 C 0.51302 0.44549 1.27379
 H69 H 0.44803 0.46291 1.28252
 H70 H 0.42847 0.47960 1.31914
 H71 H 0.48495 0.59496 1.29782
 H72 H 0.50491 0.57850 1.26139
 H73 H 0.42149 0.49293 1.23319
 H74 H 0.40365 0.51219 1.19696
 H75 H 0.53706 0.55452 1.21219
 H76 H 0.57983 0.50927 1.23322
 H77 H 0.59762 0.48984 1.19708
 H78 H 0.48230 0.42901 1.17571
 H79 H 0.46430 0.44804 1.21202
 H80 H 0.55347 0.53934 1.28245
 H81 H 0.57291 0.52249 1.31911
 H82 H 0.51609 0.40714 1.29775
 H83 H 0.49625 0.42376 1.26129
 H84 H 0.51901 0.57338 1.17579
 C85 C 0.50907 1.01950 1.25074
 C86 C 0.49038 0.98147 1.25081
 C87 C 0.48092 0.95965 1.27295
 C88 C 0.47827 0.95961 1.22870
 C89 C 0.52123 1.04129 1.22858
 C90 C 0.51839 1.04139 1.27282
 C91 C 0.50869 0.96541 1.28933
 C92 C 0.49928 0.94441 1.31000
 C93 C 0.46207 0.91723 1.31439
 C94 C 0.43439 0.91112 1.29798
 C95 C 0.44378 0.93211 1.27736
 C96 C 0.48892 0.93297 1.22412
 C97 C 0.47775 0.91217 1.20342
 C98 C 0.45561 0.91759 1.18714
 C99 C 0.44449 0.94379 1.19171
 C100 C 0.45562 0.96460 1.21244
 C101 C 0.51070 1.06801 1.22392
 C102 C 0.52199 1.08884 1.20322
 C103 C 0.54417 1.08338 1.18700
 C104 C 0.55514 1.05705 1.19166
 C105 C 0.54386 1.03622 1.21239
 C106 C 0.49050 1.03572 1.28904
 C107 C 0.49979 1.05670 1.30970
 C108 C 0.53699 1.08376 1.31422
 C109 C 0.56480 1.08982 1.29796
 C110 C 0.55553 1.06885 1.27735
 H111 H 0.53761 0.98602 1.28605
 H112 H 0.52104 0.94930 1.32246
 H113 H 0.40551 0.89011 1.30108
 H114 H 0.42201 0.92709 1.26489
 H115 H 0.50617 0.92857 1.23651
 H116 H 0.48637 0.89186 1.20011
 H117 H 0.44653 0.98450 1.21586
 H118 H 0.49346 1.07248 1.23624
 H119 H 0.51342 1.10921 1.19991
 H120 H 0.57251 1.05270 1.17935
 H121 H 0.55288 1.01627 1.21587
 H122 H 0.46159 1.01516 1.28565
 H123 H 0.47795 1.05186 1.32205
 H124 H 0.59367 1.11075 1.30118
 H125 H 0.57737 1.07379 1.26499
 H126 H 0.42714 0.94801 1.17931
 C127 C 1.02032 0.50948 0.74820
 C128 C 0.98229 0.49021 0.74828
 C129 C 0.96021 0.48022 0.72626
 C130 C 0.96065 0.47823 0.77049
 C131 C 1.04215 0.52163 0.77032
 C132 C 1.04219 0.51945 0.72608
 C133 C 0.96513 0.50768 0.70987
 C134 C 0.94362 0.49773 0.68940
 C135 C 0.91684 0.46034 0.68524
 C136 C 0.91162 0.43296 0.70161
 C137 C 0.93308 0.44285 0.72204
 C138 C 0.93404 0.48889 0.77513
 C139 C 0.91362 0.47809 0.79598
 C140 C 0.91937 0.45629 0.81235
 C141 C 0.94550 0.44510 0.80770
 C142 C 0.96594 0.45586 0.78682
 C143 C 1.06865 0.51084 0.77502
 C144 C 1.08907 0.52161 0.79589
 C145 C 1.08342 0.54353 0.81221
 C146 C 1.05743 0.55490 0.80746
 C147 C 1.03701 0.54415 0.78656
 C148 C 1.03703 0.49200 0.70963
 C149 C 1.05828 0.50193 0.68906
 C150 C 1.08509 0.53933 0.68483
 C151 C 1.09054 0.56670 0.70129
 C152 C 1.06932 0.55680 0.72182
 H153 H 0.98539 0.53675 0.71302
 H154 H 0.94771 0.51917 0.67691
 H155 H 0.89088 0.40398 0.69860
 H156 H 0.92871 0.42132 0.73453
 H157 H 0.92942 0.50593 0.76271
 H158 H 0.89337 0.48676 0.79935
 H159 H 0.98583 0.44677 0.78336
 H160 H 1.07314 0.49367 0.76264
 H161 H 1.10920 0.51275 0.79927
 H162 H 1.05295 0.57208 0.81985
 H163 H 1.01718 0.55332 0.78305
 H164 H 1.01676 0.46294 0.71280
 H165 H 1.05390 0.48041 0.67655
 H166 H 1.11126 0.59572 0.69833
 H167 H 1.07388 0.57832 0.73435
 H168 H 0.94999 0.42801 0.82017
 C169 C 0.49122 0.51000 0.75179
 C170 C 0.50882 0.48968 0.75186
 C171 C 0.51789 0.47705 0.72975
 C172 C 0.52022 0.47919 0.77398
 C173 C 0.47990 0.52062 0.77384
 C174 C 0.48200 0.52244 0.72960
 C175 C 0.48993 0.45521 0.71341
 C176 C 0.49914 0.44399 0.69255
 C177 C 0.53627 0.45422 0.68796
 C178 C 0.56409 0.47542 0.70437
 C179 C 0.55495 0.48667 0.72519
 C180 C 0.50866 0.44157 0.77833
 C181 C 0.51963 0.43122 0.79882
 C182 C 0.54248 0.45838 0.81514
 C183 C 0.55436 0.49601 0.81086
 C184 C 0.54342 0.50642 0.79033
 C185 C 0.49158 0.55828 0.77811
 C186 C 0.48074 0.56875 0.79858
 C187 C 0.45789 0.54166 0.81492
 C188 C 0.44587 0.50399 0.81071
 C189 C 0.45669 0.49347 0.79021
 C190 C 0.50983 0.54411 0.71316
 C191 C 0.50051 0.55529 0.69230
 C192 C 0.46337 0.54522 0.68780
 C193 C 0.43567 0.52414 0.70429
 C194 C 0.44494 0.51292 0.72511
 H195 H 0.46109 0.44693 0.71681
 H196 H 0.47736 0.42740 0.68002
 H197 H 0.59288 0.48337 0.70103
 H198 H 0.57684 0.50330 0.73763
 H199 H 0.49098 0.42021 0.76587
 H200 H 0.51041 0.40205 0.80190
 H201 H 0.55324 0.53566 0.78709
 H202 H 0.50927 0.57957 0.76563
 H203 H 0.49004 0.59794 0.80161
 H204 H 0.42796 0.48278 0.82317
 H205 H 0.44678 0.46420 0.78702
 H206 H 0.53869 0.55232 0.71650
 H207 H 0.52220 0.57179 0.67973
 H208 H 0.40688 0.51630 0.70103
 H209 H 0.42313 0.49643 0.73762
 H210 H 0.57228 0.51729 0.82329
 C211 C 0.48837 -0.02043 0.74969
 C212 C 0.50819 0.01759 0.74978
 C213 C 0.51752 0.03955 0.72772
 C214 C 0.52142 0.03924 0.77196
 C215 C 0.47507 -0.04225 0.77177
 C216 C 0.47904 -0.04218 0.72753
 C217 C 0.55471 0.06666 0.72300
 C218 C 0.56382 0.08775 0.70243
 C219 C 0.53583 0.08215 0.68644
 C220 C 0.49862 0.05543 0.69113
 C221 C 0.48946 0.03433 0.71172
 C222 C 0.54322 0.03267 0.78805
 C223 C 0.55560 0.05341 0.80878
 C224 C 0.54659 0.08111 0.81352
 C225 C 0.52528 0.08807 0.79742
 C226 C 0.51288 0.06736 0.77672
 C227 C 0.45317 -0.03583 0.78782
 C228 C 0.44089 -0.05658 0.80855
 C229 C 0.45009 -0.08417 0.81331
 C230 C 0.47144 -0.09103 0.79720
 C231 C 0.48374 -0.07028 0.77651
 C232 C 0.44186 -0.06934 0.72277
 C233 C 0.43273 -0.09029 0.70213
 C234 C 0.46070 -0.08453 0.68608
 C235 C 0.49792 -0.05773 0.69082
 C236 C 0.50707 -0.03677 0.71149
 H237 H 0.57669 0.07127 0.73519
 H238 H 0.59268 0.10846 0.69901
 H239 H 0.47672 0.05105 0.67894
 H240 H 0.46052 0.01408 0.71526
 H241 H 0.55074 0.01161 0.78449
 H242 H 0.57225 0.04794 0.82105
 H243 H 0.49631 0.07301 0.76449
 H244 H 0.44558 -0.01483 0.78427
 H245 H 0.42421 -0.05111 0.82079
 H246 H 0.47867 -0.11237 0.80061
 H247 H 0.50038 -0.07580 0.76429
 H248 H 0.41989 -0.07409 0.73497
 H249 H 0.40384 -0.11102 0.69876
 H250 H 0.51990 -0.05313 0.67865
 H251 H 0.53600 -0.01650 0.71505
 H252 H 0.51825 0.10952 0.80087
 O253 O 0.38541 0.66073 0.97940
 O254 O 0.38213 0.72114 0.97241
 C255 C 0.36404 0.73769 0.96826
 O256 O 0.33626 0.73260 0.98056
 O257 O 0.27565 0.66912 0.97319
 C258 C 0.25912 0.63462 0.96842
 O259 O 0.26428 0.61140 0.98010
 O260 O 0.32764 0.61457 0.97214
 C261 C 0.36219 0.63251 0.96754
 O262 O 0.38421 0.67109 1.02609
 O263 O 0.38456 0.73338 1.01912
 C264 C 0.36106 0.73718 1.03143
 O265 O 0.32637 0.71942 1.02720
 O266 O 0.26391 0.65764 1.01985
 C267 C 0.26008 0.62978 1.03156
 O268 O 0.27760 0.61292 1.02667
 O269 O 0.33932 0.61275 1.01866
 C270 C 0.36734 0.63645 1.03048
 Cr271 Cr 0.38209 0.69557 0.99927
 Cr272 Cr 0.30156 0.69373 1.00018
 Cr273 Cr 0.30316 0.61490 0.99940
 O274 O 0.32893 0.66805 0.99962
 O275 O 0.61496 0.33939 0.97999
 O276 O 0.61771 0.27866 0.97321
 C277 C 0.63564 0.26196 0.96904
 O278 O 0.66352 0.26702 0.98127
 O279 O 0.72438 0.33029 0.97390
 C280 C 0.74105 0.36477 0.96905
 O281 O 0.73601 0.38813 0.98064
 O282 O 0.67280 0.38541 0.97276
 C283 C 0.63824 0.36757 0.96813
 O284 O 0.61625 0.32930 1.02674
 O285 O 0.61544 0.26674 1.01998
 C286 C 0.63887 0.26270 1.03224
 O287 O 0.67353 0.28017 1.02793
 O288 O 0.73620 0.34175 1.02058
 C289 C 0.74039 0.36982 1.03220
 O290 O 0.72308 0.38689 1.02724
 O291 O 0.66150 0.38747 1.01931
 C292 C 0.63337 0.36395 1.03112
 Cr293 Cr 0.61809 0.30453 0.99999
 Cr294 Cr 0.69839 0.30579 1.00090
 Cr295 Cr 0.69737 0.38497 1.00000
 O296 O 0.67129 0.33178 1.00030
 O297 O 0.66427 0.38799 0.52680
 O298 O 0.72679 0.38878 0.51984
 C299 C 0.73062 0.36521 0.53206
 O300 O 0.71287 0.33054 0.52773
 O301 O 0.65116 0.26814 0.51976
 C302 C 0.62313 0.26402 0.53139
 O303 O 0.60625 0.28158 0.52656
 O304 O 0.60611 0.34339 0.51863
 C305 C 0.62953 0.37084 0.53094
 O306 O 0.65457 0.39018 0.48007
 O307 O 0.71521 0.38724 0.47315
 C308 C 0.73193 0.36928 0.46906
 O309 O 0.72659 0.34125 0.48120
 O310 O 0.66325 0.28062 0.47321
 C311 C 0.62875 0.26401 0.46836
 O312 O 0.60545 0.26903 0.48000
 O313 O 0.60880 0.33253 0.47209
 C314 C 0.62692 0.36719 0.46773
 Cr315 Cr 0.68918 0.38658 0.49997
 Cr316 Cr 0.68751 0.30614 0.50046
 Cr317 Cr 0.60863 0.30760 0.49934
 O318 O 0.66177 0.33342 0.49992
 O319 O 0.33493 0.61204 0.52667
 O320 O 0.27222 0.61088 0.51968
 C321 C 0.26811 0.63429 0.53184
 O322 O 0.28556 0.66897 0.52747
 O323 O 0.34714 0.73162 0.51982
 C324 C 0.37523 0.73592 0.53150
 O325 O 0.39238 0.71864 0.52664
 O326 O 0.39300 0.65706 0.51879
 C327 C 0.36964 0.62939 0.53097
 O328 O 0.34475 0.61018 0.47992
 O329 O 0.28389 0.61269 0.47296
 C330 C 0.26713 0.63058 0.46873
 O331 O 0.27228 0.65857 0.48085
 O332 O 0.33549 0.71950 0.47318
 C333 C 0.37001 0.73623 0.46839
 O334 O 0.39334 0.73126 0.48006
 O335 O 0.39049 0.66796 0.47220
 C336 C 0.37249 0.63334 0.46772
 Cr337 Cr 0.30997 0.61344 0.49981
 Cr338 Cr 0.31110 0.69366 0.50031
 Cr339 Cr 0.39031 0.69275 0.49944
 O340 O 0.33713 0.66663 0.49985
 C341 C 0.37521 0.56807 0.42209
 C342 C 0.40551 0.59290 0.40829
 C343 C 0.42543 0.63080 0.41416
 C344 C 0.41498 0.64391 0.43362
 C345 C 0.44413 0.54849 0.33236
 C346 C 0.36468 0.58110 0.44158
 C347 C 0.41579 0.57975 0.38785
 C348 C 0.42451 0.56926 0.37053
 C349 C 0.43494 0.55768 0.35004
 C350 C 0.38435 0.61924 0.44753
 H351 H 0.35955 0.53868 0.41769
 H352 H 0.44890 0.65028 0.40357
 H353 H 0.43071 0.67342 0.43765
 H354 H 0.34095 0.56135 0.45185
 C355 C 0.37167 0.79333 0.41586
 C356 C 0.40942 0.81147 0.40965
 C357 C 0.43445 0.80556 0.42287
 C358 C 0.42176 0.78142 0.44214
 C359 C 0.45267 0.89648 0.33441
 C360 C 0.35889 0.76918 0.43510
 C361 C 0.42221 0.83547 0.38940
 C362 C 0.43241 0.85515 0.37225
 C363 C 0.44369 0.87768 0.35194
 C364 C 0.38377 0.76279 0.44843
 H365 H 0.35203 0.79765 0.40572
 H366 H 0.46373 0.81940 0.41819
 H367 H 0.44166 0.77711 0.45197
 H368 H 0.32949 0.75529 0.43941
 C369 C 0.19720 0.62679 0.42413
 C370 C 0.19104 0.59619 0.41046
 C371 C 0.20921 0.57643 0.41607
 C372 C 0.23365 0.58735 0.43515
 C373 C 0.10517 0.55585 0.33561
 C374 C 0.22163 0.63778 0.44325
 C375 C 0.16675 0.58545 0.39036
 C376 C 0.14686 0.57633 0.37332
 C377 C 0.12411 0.56543 0.35310
 C378 C 0.24029 0.61828 0.44893
 H379 H 0.18334 0.64234 0.41992
 H380 H 0.20470 0.55273 0.40557
 H381 H 0.24755 0.57173 0.43899
 H382 H 0.22613 0.66174 0.45343
 C383 C 0.57454 0.37044 0.41404
 C384 C 0.59463 0.40839 0.40833
 C385 C 0.62484 0.43303 0.42227
 C386 C 0.63513 0.41974 0.44176
 C387 C 0.55690 0.45350 0.33233
 C388 C 0.58477 0.35707 0.43350
 C389 C 0.58463 0.42178 0.38788
 C390 C 0.57612 0.43245 0.37055
 C391 C 0.56592 0.44420 0.35003
 C392 C 0.61530 0.38155 0.44755
 H393 H 0.55114 0.35112 0.40333
 H394 H 0.64061 0.46246 0.41797
 H395 H 0.65881 0.43934 0.45214
 H396 H 0.56892 0.32752 0.43741
 C397 C 0.56430 0.19499 0.42274
 C398 C 0.58930 0.18902 0.40958
 C399 C 0.62703 0.20700 0.41586
 C400 C 0.63982 0.23108 0.43512
 C401 C 0.54628 0.10442 0.33425
 C402 C 0.57701 0.21906 0.44203
 C403 C 0.57652 0.16512 0.38931
 C404 C 0.56636 0.14554 0.37214
 C405 C 0.55517 0.12313 0.35181
 C406 C 0.61498 0.23754 0.44839
 H407 H 0.53504 0.18126 0.41800
 H408 H 0.64663 0.20263 0.40576
 H409 H 0.66921 0.24485 0.43949
 H410 H 0.55714 0.22344 0.45181
 C411 C 0.79053 0.42350 0.41669
 C412 C 0.80873 0.40372 0.41131
 C413 C 0.80235 0.37306 0.42501
 C414 C 0.77765 0.36204 0.44395
 C415 C 0.89555 0.44394 0.33708
 C416 C 0.76582 0.41256 0.43561
 C417 C 0.83329 0.41447 0.39140
 C418 C 0.85341 0.42357 0.37450
 C419 C 0.87641 0.43442 0.35444
 C420 C 0.75896 0.38158 0.44942
 H421 H 0.79522 0.44724 0.40616
 H422 H 0.81624 0.35750 0.42096
 H423 H 0.77299 0.33805 0.45418
 H424 H 0.75190 0.42820 0.43928
 C425 C 0.57623 0.36484 1.08279
 C426 C 0.59499 0.40271 1.08873
 C427 C 0.62599 0.42809 1.07562
 C428 C 0.63834 0.41562 1.05672
 C429 C 0.55189 0.44665 1.16289
 C430 C 0.58851 0.35231 1.06394
 C431 C 0.58289 0.41524 1.10863
 C432 C 0.57284 0.42536 1.12552
 C433 C 0.56133 0.43690 1.14556
 C434 C 0.61982 0.37752 1.05071
 H435 H 0.55226 0.34494 1.09285
 H436 H 0.64077 0.45746 1.08011
 H437 H 0.66255 0.43577 1.04696
 H438 H 0.57360 0.32280 1.05984
 C439 C 0.79608 0.42671 1.08473
 C440 C 0.81465 0.40781 1.09144
 C441 C 0.80956 0.37689 1.07852
 C442 C 0.78574 0.36470 1.05907
 C443 C 0.89775 0.45017 1.16753
 C444 C 0.77226 0.41460 1.06533
 C445 C 0.83818 0.41970 1.11191
 C446 C 0.85740 0.42956 1.12926
 C447 C 0.87939 0.44087 1.14981
 C448 C 0.76665 0.38332 1.05230
 H449 H 0.79975 0.45063 1.09464
 H450 H 0.82375 0.36200 1.08359
 H451 H 0.78202 0.34051 1.04949
 H452 H 0.75802 0.42959 1.06066
 C453 C 0.63766 0.20700 1.08540
 C454 C 0.59978 0.18810 1.09129
 C455 C 0.57449 0.19304 1.07765
 C456 C 0.58705 0.21699 1.05828
 C457 C 0.55535 0.10400 1.16692
 C458 C 0.65030 0.23095 1.06607
 C459 C 0.58713 0.16434 1.11165
 C460 C 0.57690 0.14490 1.12890
 C461 C 0.56522 0.12262 1.14931
 C462 C 0.62517 0.23638 1.05231
 H463 H 0.65750 0.20345 1.09586
 H464 H 0.54510 0.17860 1.08209
 H465 H 0.56697 0.22056 1.04812
 H466 H 0.67982 0.24542 1.06202
 C467 C 0.37526 0.57279 1.07514
 C468 C 0.40615 0.59837 1.08826
 C469 C 0.42470 0.63620 1.08226
 C470 C 0.41231 0.64853 1.06334
 C471 C 0.44939 0.55531 1.16278
 C472 C 0.36278 0.58503 1.05617
 C473 C 0.41832 0.58607 1.10825
 C474 C 0.42840 0.57616 1.12522
 C475 C 0.43992 0.56486 1.14536
 C476 C 0.38107 0.62311 1.05011
 H477 H 0.36064 0.54343 1.07968
 H478 H 0.44859 0.65625 1.09234
 H479 H 0.42704 0.67802 1.05920
 H480 H 0.33864 0.56474 1.04641
 C481 C 0.19126 0.62267 1.07803
 C482 C 0.18656 0.59196 1.09104
 C483 C 0.20521 0.57317 1.08433
 C484 C 0.22876 0.58520 1.06483
 C485 C 0.10486 0.55016 1.16757
 C486 C 0.21481 0.63478 1.05848
 C487 C 0.16341 0.58023 1.11163
 C488 C 0.14451 0.57050 1.12910
 C489 C 0.12291 0.55934 1.14976
 C490 C 0.23401 0.61628 1.05172
 H491 H 0.17700 0.63747 1.08311
 H492 H 0.20182 0.54941 1.09431
 H493 H 0.24309 0.57031 1.06016
 H494 H 0.21826 0.65882 1.04883
 C495 C 0.42538 0.80722 1.07667
 C496 C 0.39999 0.81192 1.09034
 C497 C 0.36208 0.79275 1.08451
 C498 C 0.34948 0.76875 1.06521
 C499 C 0.44400 0.89589 1.16593
 C500 C 0.41286 0.78322 1.05733
 C501 C 0.41258 0.83567 1.11067
 C502 C 0.42272 0.85509 1.12791
 C503 C 0.43427 0.87731 1.14832
 C504 C 0.37470 0.76356 1.05144
 H505 H 0.45479 0.82188 1.08107
 H506 H 0.34218 0.79612 1.09500
 H507 H 0.31994 0.75406 1.06122
 H508 H 0.43300 0.77983 1.04715
 C509 C 0.62763 0.42424 0.58442
 C510 C 0.58964 0.40493 0.59007
 C511 C 0.56453 0.37510 0.57606
 C512 C 0.57738 0.36433 0.55660
 C513 C 0.54607 0.44303 0.66650
 C514 C 0.64056 0.41354 0.56498
 C515 C 0.57671 0.41518 0.61061
 C516 C 0.56641 0.42379 0.62803
 C517 C 0.55506 0.43403 0.64868
 C518 C 0.61561 0.38329 0.55091
 H519 H 0.64732 0.44734 0.59518
 H520 H 0.53507 0.35992 0.58032
 H521 H 0.55742 0.34089 0.54620
 H522 H 0.67015 0.42871 0.56115
 C523 C 0.61568 0.19366 0.57681
 C524 C 0.58526 0.18891 0.59013
 C525 C 0.56675 0.20812 0.58400
 C526 C 0.57877 0.23224 0.56473
 C527 C 0.54539 0.10418 0.66538
 C528 C 0.62777 0.21775 0.55753
 C529 C 0.57365 0.16507 0.61042
 C530 C 0.56432 0.14549 0.62759
 C531 C 0.55387 0.12301 0.64789
 C532 C 0.60956 0.23749 0.55133
 H533 H 0.63026 0.17898 0.58144
 H534 H 0.54322 0.20471 0.59423
 H535 H 0.56414 0.24700 0.56049
 H536 H 0.65158 0.22116 0.54764
 C537 C 0.80171 0.43006 0.57662
 C538 C 0.80659 0.40489 0.59039
 C539 C 0.78699 0.36682 0.58497
 C540 C 0.76245 0.35389 0.56592
 C541 C 0.89424 0.44987 0.66438
 C542 C 0.77719 0.41722 0.55755
 C543 C 0.83123 0.41797 0.61032
 C544 C 0.85152 0.42855 0.62718
 C545 C 0.87481 0.44038 0.64713
 C546 C 0.75717 0.37894 0.55200
 H547 H 0.81670 0.45959 0.58070
 H548 H 0.79052 0.34708 0.59555
 H549 H 0.74748 0.32426 0.56218
 H550 H 0.77378 0.43727 0.54725
 C551 C 0.37167 0.57566 0.58432
 C552 C 0.40961 0.59511 0.59010
 C553 C 0.43467 0.62519 0.57624
 C554 C 0.42179 0.63604 0.55679
 C555 C 0.45346 0.55649 0.66637
 C556 C 0.35871 0.58644 0.56490
 C557 C 0.42259 0.58472 0.61061
 C558 C 0.43294 0.57598 0.62800
 C559 C 0.44437 0.56559 0.64859
 C560 C 0.38359 0.61692 0.55096
 H561 H 0.35202 0.55237 0.59496
 H562 H 0.46410 0.64050 0.58059
 H563 H 0.44171 0.65966 0.54650
 H564 H 0.32915 0.57113 0.56096
 C565 C 0.43117 0.79169 0.58433
 C566 C 0.41232 0.81053 0.59053
 C567 C 0.38181 0.80557 0.57718
 C568 C 0.36998 0.78165 0.55781
 C569 C 0.45167 0.89472 0.66609
 C570 C 0.41940 0.76775 0.56498
 C571 C 0.42372 0.83422 0.61091
 C572 C 0.43292 0.85368 0.62815
 C573 C 0.44326 0.87601 0.64853
 C574 C 0.38852 0.76229 0.55153
 H575 H 0.45477 0.79526 0.59458
 H576 H 0.36697 0.81996 0.58185
 H577 H 0.34609 0.77808 0.54790
 H578 H 0.43429 0.75328 0.56069
 C579 C 0.19774 0.56921 0.57667
 C580 C 0.19265 0.59424 0.59043
 C581 C 0.21181 0.63228 0.58487
 C582 C 0.23613 0.64530 0.56571
 C583 C 0.10620 0.54923 0.66497
 C584 C 0.22204 0.58215 0.55750
 C585 C 0.16831 0.58109 0.61050
 C586 C 0.14830 0.57049 0.62748
 C587 C 0.12534 0.55868 0.64759
 C588 C 0.24164 0.62040 0.55182
 H589 H 0.18311 0.53971 0.58084
 H590 H 0.20813 0.65192 0.59543
 H591 H 0.25076 0.67490 0.56189
 H592 H 0.22565 0.56221 0.54723
 C593 C 0.36390 0.57646 0.91551
 C594 C 0.40174 0.59577 0.90954
 C595 C 0.42682 0.62695 0.92263
 C596 C 0.41408 0.63889 0.94160
 C597 C 0.44628 0.55262 0.83575
 C598 C 0.35109 0.58830 0.93443
 C599 C 0.41456 0.58386 0.88971
 C600 C 0.42485 0.57385 0.87289
 C601 C 0.43650 0.56225 0.85298
 C602 C 0.37601 0.61973 0.94769
 H603 H 0.34424 0.55233 0.90545
 H604 H 0.45617 0.64216 0.91811
 H605 H 0.43400 0.66319 0.95139
 H606 H 0.32162 0.57290 0.93859
 C607 C 0.20225 0.63344 0.91598
 C608 C 0.18496 0.59599 0.90920
 C609 C 0.19111 0.57085 0.92212
 C610 C 0.21481 0.58320 0.94162
 C611 C 0.10339 0.55393 0.83253
 C612 C 0.22593 0.64587 0.93543
 C613 C 0.16179 0.58376 0.88859
 C614 C 0.14292 0.57405 0.87110
 C615 C 0.12138 0.56312 0.85039
 C616 C 0.23270 0.62095 0.94842
 H617 H 0.19773 0.65315 0.90607
 H618 H 0.17792 0.54179 0.91697
 H619 H 0.21946 0.56331 0.95117
 H620 H 0.23923 0.67510 0.94013
 C621 C 0.36655 0.80602 0.92289
 C622 C 0.39735 0.81233 0.90936
 C623 C 0.41765 0.79490 0.91536
 C624 C 0.40708 0.77099 0.93467
 C625 C 0.43833 0.89556 0.83347
 C626 C 0.35590 0.78209 0.94225
 C627 C 0.40782 0.83595 0.88899
 C628 C 0.41703 0.85523 0.87168
 C629 C 0.42829 0.87723 0.85117
 C630 C 0.37595 0.76414 0.94830
 H631 H 0.35060 0.81933 0.91836
 H632 H 0.44150 0.79955 0.90498
 H633 H 0.42313 0.75764 0.93878
 H634 H 0.33177 0.77738 0.95232
 C635 C 0.57373 0.37331 0.92307
 C636 C 0.59887 0.40443 0.90995
 C637 C 0.63671 0.42364 0.91596
 C638 C 0.64946 0.41176 0.93493
 C639 C 0.55422 0.44752 0.83600
 C640 C 0.58641 0.36135 0.94209
 C641 C 0.58608 0.41636 0.89006
 C642 C 0.57579 0.42638 0.87321
 C643 C 0.56408 0.43795 0.85325
 C644 C 0.62448 0.38040 0.94822
 H645 H 0.54437 0.35817 0.91853
 H646 H 0.65643 0.44772 0.90589
 H647 H 0.67893 0.42709 0.93912
 H648 H 0.56644 0.33710 0.95189
 C649 C 0.80957 0.42829 0.92287
 C650 C 0.81557 0.40301 0.91001
 C651 C 0.79792 0.36552 0.91676
 C652 C 0.77409 0.35321 0.93614
 C653 C 0.89812 0.44517 0.83376
 C654 C 0.78572 0.41605 0.94228
 C655 C 0.83899 0.41518 0.88951
 C656 C 0.85810 0.42489 0.87212
 C657 C 0.87992 0.43590 0.85152
 C658 C 0.76752 0.37828 0.94907
 H659 H 0.82303 0.45737 0.91775
 H660 H 0.80231 0.34570 0.90691
 H661 H 0.76055 0.32395 0.94082
 H662 H 0.78124 0.43607 0.95180
 C663 C 0.58135 0.20450 0.91632
 C664 C 0.60138 0.18680 0.91034
 C665 C 0.63225 0.19305 0.92381
 C666 C 0.64322 0.21715 0.94310
 C667 C 0.55925 0.10266 0.83478
 C668 C 0.59224 0.22859 0.93555
 C669 C 0.59054 0.16293 0.89005
 C670 C 0.58106 0.14344 0.87283
 C671 C 0.56950 0.12119 0.85241
 C672 C 0.62343 0.23537 0.94913
 H673 H 0.55744 0.19992 0.90600
 H674 H 0.64800 0.17953 0.91930
 H675 H 0.66739 0.22179 0.95312
 H676 H 0.57637 0.24213 0.93965
   
