data_POSCAR
  _audit_creation_date              2014-09-24
  _audit_creation_method            'ToBaCCo'
  _symmetry_space_group_name_H-M    'P1'
  _symmetry_Int_Tables_number       1
  _symmetry_cell_setting            triclinic
  loop_
  _symmetry_equiv_pos_as_xyz
 x,y,z
_cell_length_a 55.5036
_cell_length_b 56.5173
_cell_length_c 55.0334
_cell_angle_alpha 90.467300
_cell_angle_beta 90.309400
_cell_angle_gamma 91.970200
loop_
  _atom_site_label
  _atom_site_type_symbol
  _atom_site_fract_x
  _atom_site_fract_y
  _atom_site_fract_z
N1 N 0.28852 0.25371 0.23753
 N2 N 0.27848 0.27191 0.22738
 C3 C 0.29195 0.27896 0.20828
 C4 C 0.31151 0.26438 0.20633
 C5 C 0.30863 0.24860 0.22533
 H6 H 0.28751 0.29334 0.19642
 H7 H 0.31987 0.23397 0.22962
 Cu8 Cu 0.24811 0.28385 0.23936
 Cu9 Cu 0.27426 0.23694 0.26487
 Cu10 Cu 0.21942 0.25583 0.28541
 N11 N 0.21659 0.29347 0.25070
 N12 N 0.20570 0.28239 0.26866
 C13 C 0.18437 0.29215 0.27276
 C14 C 0.18145 0.31046 0.25649
 C15 C 0.20239 0.31075 0.24273
 H16 H 0.17193 0.28616 0.28659
 H17 H 0.20692 0.32252 0.22795
 N18 N 0.23609 0.22926 0.30012
 N19 N 0.25707 0.22215 0.29233
 C20 C 0.26356 0.20344 0.30551
 C21 C 0.24579 0.19838 0.32251
 C22 C 0.22866 0.21524 0.31850
 H23 H 0.27993 0.19405 0.30266
 H24 H 0.21181 0.21695 0.32796
 H25 H 0.23917 0.24464 0.25591
 H26 H 0.25510 0.26478 0.27834
 N27 N 0.71881 -0.24810 0.22829
 N28 N 0.72969 -0.26612 0.21858
 C29 C 0.71962 -0.27124 0.19683
 C30 C 0.70135 -0.25557 0.19243
 C31 C 0.70142 -0.24115 0.21301
 H32 H 0.72554 -0.28515 0.18500
 H33 H 0.68997 -0.22647 0.21656
 Cu34 Cu 0.75700 -0.28040 0.23437
 Cu35 Cu 0.72851 -0.23461 0.25963
 Cu36 Cu 0.77692 -0.25939 0.28852
 N37 N 0.78425 -0.29393 0.25102
 N38 N 0.79209 -0.28546 0.27200
 C39 C 0.81174 -0.29707 0.27880
 C40 C 0.81672 -0.31385 0.26110
 C41 C 0.79868 -0.31128 0.24377
 H42 H 0.82183 -0.29318 0.29526
 H43 H 0.79643 -0.32086 0.22684
 N44 N 0.75932 -0.23293 0.30247
 N45 N 0.74090 -0.22343 0.29145
 C46 C 0.73325 -0.20533 0.30512
 C47 C 0.74755 -0.20323 0.32583
 C48 C 0.76387 -0.22112 0.32344
 H49 H 0.71863 -0.19424 0.30005
 H50 H 0.77831 -0.22506 0.33582
 H51 H 0.76423 -0.24371 0.25719
 H52 H 0.74316 -0.26494 0.27299
 N53 N 0.69649 0.25527 0.77539
 N54 N 0.70790 0.27498 0.78222
 C55 C 0.69744 0.28341 0.80238
 C56 C 0.67832 0.26820 0.80847
 C57 C 0.67829 0.25055 0.79085
 H58 H 0.70340 0.29937 0.81193
 H59 H 0.66637 0.23504 0.78974
 Cu60 Cu 0.73555 0.28773 0.76447
 Cu61 Cu 0.70676 0.23658 0.74774
 Cu62 Cu 0.75992 0.25495 0.72014
 N63 N 0.76719 0.29566 0.75125
 N64 N 0.77648 0.28291 0.73384
 C65 C 0.79828 0.29224 0.72805
 C66 C 0.80316 0.31204 0.74267
 C67 C 0.78282 0.31356 0.75722
 H68 H 0.80965 0.28490 0.71425
 H69 H 0.77952 0.32654 0.77122
 N70 N 0.74049 0.22710 0.70895
 N71 N 0.72022 0.22009 0.71949
 C72 C 0.71175 0.20010 0.70850
 C73 C 0.72747 0.19414 0.69013
 C74 C 0.74543 0.21177 0.69094
 H75 H 0.69550 0.19043 0.71372
 H76 H 0.76138 0.21294 0.67978
 H77 H 0.74251 0.24710 0.75240
 H78 H 0.72494 0.26316 0.72899
 N79 N 0.29283 -0.24102 0.78199
 N80 N 0.28154 -0.26025 0.78983
 C81 C 0.29257 -0.26751 0.81017
 C82 C 0.31188 -0.25199 0.81540
 C83 C 0.31139 -0.23540 0.79700
 H84 H 0.28679 -0.28285 0.82048
 H85 H 0.32355 -0.22027 0.79462
 Cu86 Cu 0.25337 -0.27380 0.77281
 Cu87 Cu 0.28259 -0.22443 0.75310
 Cu88 Cu 0.23207 -0.24734 0.72285
 N89 N 0.22440 -0.28583 0.75607
 N90 N 0.21643 -0.27551 0.73646
 C91 C 0.19631 -0.28710 0.72856
 C92 C 0.19110 -0.30584 0.74409
 C93 C 0.20948 -0.30438 0.76139
 H94 H 0.18616 -0.28186 0.71283
 H95 H 0.21190 -0.31582 0.77677
 N96 N 0.25032 -0.21895 0.71192
 N97 N 0.26949 -0.21018 0.72354
 C98 C 0.27760 -0.19057 0.71207
 C99 C 0.26286 -0.18673 0.69218
 C100 C 0.24574 -0.20515 0.69271
 H101 H 0.29289 -0.17967 0.71806
 H102 H 0.23095 -0.20825 0.68013
 H103 H 0.24660 -0.23506 0.75545
 H104 H 0.26623 -0.25346 0.73591
 N105 N 0.70979 -0.25813 0.76456
 N106 N 0.71592 -0.27966 0.77018
 C107 C 0.70445 -0.28639 0.79058
 C108 C 0.69021 -0.26812 0.79818
 C109 C 0.69402 -0.25047 0.78114
 H110 H 0.70650 -0.30329 0.79928
 H111 H 0.68652 -0.23307 0.78122
 Cu112 Cu 0.73886 -0.29669 0.75088
 Cu113 Cu 0.72380 -0.24135 0.73692
 Cu114 Cu 0.77090 -0.26827 0.70770
 N115 N 0.76798 -0.30962 0.73771
 N116 N 0.78043 -0.29856 0.72079
 C117 C 0.80002 -0.31097 0.71558
 C118 C 0.80004 -0.33098 0.73018
 C119 C 0.77922 -0.32940 0.74396
 H120 H 0.81347 -0.30535 0.70253
 H121 H 0.77279 -0.34135 0.75790
 N122 N 0.75838 -0.23764 0.69741
 N123 N 0.74046 -0.22744 0.70859
 C124 C 0.73622 -0.20678 0.69767
 C125 C 0.75222 -0.20370 0.67860
 C126 C 0.76600 -0.22370 0.67904
 H127 H 0.72262 -0.19478 0.70345
 H128 H 0.78050 -0.22786 0.66688
 H129 H 0.73473 -0.27004 0.71659
 H130 H 0.75617 -0.25815 0.74040
 N131 N 0.28642 0.25442 0.76697
 N132 N 0.27440 0.27203 0.77605
 C133 C 0.28421 0.27854 0.79760
 C134 C 0.30346 0.26427 0.80240
 C135 C 0.30428 0.24912 0.78248
 H136 H 0.27753 0.29239 0.80912
 H137 H 0.31688 0.23526 0.77944
 Cu138 Cu 0.24676 0.28447 0.75913
 Cu139 Cu 0.27759 0.23940 0.73596
 Cu140 Cu 0.22850 0.26168 0.70542
 N141 N 0.21951 0.29707 0.74170
 N142 N 0.21242 0.28794 0.72072
 C143 C 0.19285 0.29911 0.71294
 C144 C 0.18730 0.31627 0.72994
 C145 C 0.20469 0.31448 0.74793
 H146 H 0.18327 0.29489 0.69623
 H147 H 0.20602 0.32462 0.76465
 N148 N 0.24705 0.23520 0.69286
 N149 N 0.26574 0.22670 0.70439
 C150 C 0.27384 0.20818 0.69162
 C151 C 0.25953 0.20476 0.67105
 C152 C 0.24277 0.22231 0.67253
 H153 H 0.28879 0.19771 0.69718
 H154 H 0.22802 0.22509 0.66012
 H155 H 0.26200 0.26861 0.72115
 H156 H 0.24149 0.24703 0.73711
 N157 N 0.30616 -0.25917 0.23007
 N158 N 0.29399 -0.27802 0.22203
 C159 C 0.30505 -0.28645 0.20218
 C160 C 0.32523 -0.27208 0.19751
 C161 C 0.32531 -0.25497 0.21567
 H162 H 0.29864 -0.30164 0.19166
 H163 H 0.33778 -0.23997 0.21773
 Cu164 Cu 0.26418 -0.28871 0.23760
 Cu165 Cu 0.29536 -0.24032 0.25743
 Cu166 Cu 0.24251 -0.25935 0.28563
 N167 N 0.23470 -0.29951 0.25373
 N168 N 0.22641 -0.28794 0.27255
 C169 C 0.20554 -0.29842 0.27970
 C170 C 0.20031 -0.31768 0.26456
 C171 C 0.21934 -0.31781 0.24831
 H172 H 0.19484 -0.29221 0.29464
 H173 H 0.22150 -0.32987 0.23321
 N174 N 0.26144 -0.23085 0.29612
 N175 N 0.28153 -0.22364 0.28535
 C176 C 0.28959 -0.20326 0.29584
 C177 C 0.27384 -0.19723 0.31411
 C178 C 0.25623 -0.21522 0.31379
 H179 H 0.30562 -0.19337 0.29035
 H180 H 0.24036 -0.21644 0.32504
 H181 H 0.27668 -0.26759 0.27456
 H182 H 0.25897 -0.24889 0.25366
 N183 N 0.70346 0.24176 0.22663
 N184 N 0.71352 0.26212 0.22017
 C185 C 0.70188 0.27012 0.20053
 C186 C 0.68362 0.25381 0.19414
 C187 C 0.68517 0.23607 0.21125
 H188 H 0.70660 0.28644 0.19134
 H189 H 0.67425 0.21993 0.21210
 Cu190 Cu 0.74196 0.27552 0.23679
 Cu191 Cu 0.71523 0.22387 0.25407
 Cu192 Cu 0.76543 0.24701 0.28453
 N193 N 0.77036 0.28798 0.25419
 N194 N 0.77953 0.27661 0.27260
 C195 C 0.79983 0.28813 0.28019
 C196 C 0.80371 0.30788 0.26583
 C197 C 0.78452 0.30723 0.24953
 H198 H 0.81113 0.28228 0.29483
 H199 H 0.78161 0.31932 0.23476
 N200 N 0.74871 0.21730 0.29402
 N201 N 0.72965 0.20843 0.28230
 C202 C 0.72248 0.18800 0.29284
 C203 C 0.73775 0.18371 0.31222
 C204 C 0.75417 0.20275 0.31236
 H205 H 0.70736 0.17698 0.28665
 H206 H 0.76902 0.20584 0.32487
 H207 H 0.73082 0.25257 0.27240
 H208 H 0.75080 0.23614 0.25135
 C209 C 0.25441 -0.00309 0.43416
 C210 C 0.25239 0.01884 0.44581
 C211 C 0.25032 0.01974 0.47121
 C212 C 0.25240 -0.00092 0.48534
 C213 C 0.25532 -0.02266 0.47299
 C214 C 0.25571 -0.02394 0.44754
 C215 C 0.25295 0.00026 0.51269
 C216 C 0.24831 -0.02024 0.52674
 C217 C 0.25162 -0.01985 0.55203
 C218 C 0.25755 0.00163 0.56376
 C219 C 0.26119 0.02245 0.55053
 C220 C 0.25940 0.02159 0.52509
 H221 H 0.25497 -0.00387 0.41449
 H222 H 0.24785 0.03678 0.47969
 H223 H 0.25823 -0.03875 0.48286
 H224 H 0.24277 -0.03685 0.51825
 H225 H 0.25912 0.00214 0.58340
 H226 H 0.26391 0.03759 0.51527
 C227 C 0.74903 0.00065 0.57006
 C228 C 0.74767 0.02134 0.55644
 C229 C 0.74831 0.01980 0.53098
 C230 C 0.75136 -0.00208 0.51886
 C231 C 0.75337 -0.02257 0.53328
 C232 C 0.75118 -0.02140 0.55869
 C233 C 0.75093 -0.00360 0.49146
 C234 C 0.74489 -0.02518 0.47926
 C235 C 0.74306 -0.02631 0.45382
 C236 C 0.74639 -0.00559 0.44035
 C237 C 0.75201 0.01612 0.45179
 C238 C 0.75525 0.01682 0.47712
 H239 H 0.74835 0.00164 0.58972
 H240 H 0.74545 0.03579 0.52093
 H241 H 0.75590 -0.03970 0.52505
 H242 H 0.74068 -0.04117 0.48921
 H243 H 0.74479 -0.00639 0.42072
 H244 H 0.76050 0.03360 0.48542
 C245 C 0.42365 0.25577 0.00289
 C246 C 0.43669 0.25926 0.02451
 C247 C 0.46178 0.25688 0.02443
 C248 C 0.47393 0.25027 0.00302
 C249 C 0.46005 0.24595 -0.01831
 C250 C 0.43516 0.24958 -0.01869
 C251 C 0.50096 0.24909 0.00256
 C252 C 0.51371 0.25262 -0.01936
 C253 C 0.53895 0.25211 -0.02003
 C254 C 0.55174 0.24896 0.00160
 C255 C 0.53973 0.24613 0.02378
 C256 C 0.51440 0.24547 0.02405
 H257 H 0.40429 0.25771 0.00287
 H258 H 0.47164 0.26104 0.04099
 H259 H 0.46848 0.24037 -0.03495
 H260 H 0.50433 0.25653 -0.03601
 H261 H 0.57124 0.24853 0.00118
 H262 H 0.50543 0.24265 0.04121
 C263 C 0.57625 0.76561 -0.00309
 C264 C 0.56548 0.76867 0.01962
 C265 C 0.54028 0.76955 0.02101
 C266 C 0.52556 0.76558 0.00022
 C267 C 0.53701 0.76191 -0.02233
 C268 C 0.56222 0.76232 -0.02414
 C269 C 0.49853 0.76404 0.00223
 C270 C 0.48360 0.76758 -0.01825
 C271 C 0.45847 0.76417 -0.01684
 C272 C 0.44795 0.75902 0.00563
 C273 C 0.46214 0.75598 0.02637
 C274 C 0.48733 0.75799 0.02446
 H275 H 0.59573 0.76576 -0.00439
 H276 H 0.53235 0.77268 0.03857
 H277 H 0.52660 0.75782 -0.03856
 H278 H 0.49130 0.77245 -0.03555
 H279 H 0.42848 0.75755 0.00697
 H280 H 0.49792 0.75403 0.04035
 C281 C -0.00676 0.43521 0.23060
 C282 C 0.01578 0.44639 0.22694
 C283 C 0.01736 0.47116 0.22505
 C284 C -0.00304 0.48507 0.22900
 C285 C -0.02538 0.47315 0.23362
 C286 C -0.02732 0.44834 0.23421
 C287 C -0.00072 0.51173 0.22997
 C288 C -0.02114 0.52587 0.22738
 C289 C -0.01932 0.55052 0.23083
 C290 C 0.00335 0.56147 0.23479
 C291 C 0.02401 0.54812 0.23671
 C292 C 0.02179 0.52336 0.23486
 H293 H -0.00825 0.41605 0.23102
 H294 H 0.03478 0.47933 0.22129
 H295 H -0.04129 0.48282 0.23783
 H296 H -0.03871 0.51796 0.22339
 H297 H 0.00487 0.58060 0.23633
 H298 H 0.03773 0.51344 0.23819
 C299 C -0.00086 0.56370 0.74866
 C300 C 0.02037 0.55292 0.75569
 C301 C 0.01982 0.52850 0.76014
 C302 C -0.00135 0.51440 0.75581
 C303 C -0.02236 0.52577 0.74819
 C304 C -0.02227 0.55037 0.74497
 C305 C -0.00113 0.48791 0.75779
 C306 C -0.02265 0.47436 0.76160
 C307 C -0.02280 0.44951 0.76091
 C308 C -0.00098 0.43807 0.75828
 C309 C 0.02070 0.45099 0.75503
 C310 C 0.02046 0.47578 0.75440
 H311 H -0.00072 0.58270 0.74609
 H312 H 0.03620 0.52060 0.76631
 H313 H -0.03872 0.51568 0.74378
 H314 H -0.03954 0.48291 0.76439
 H315 H -0.00090 0.41890 0.75868
 H316 H 0.03713 0.48532 0.75027
 C317 C 0.36663 0.24769 0.17024
 C318 C 0.36537 0.26226 0.14949
 C319 C 0.34644 0.27845 0.14849
 C320 C 0.32935 0.27945 0.16721
 C321 C 0.33045 0.26438 0.18727
 C322 C 0.34951 0.24878 0.18866
 C323 C 0.34436 0.29339 0.12863
 C324 C 0.36019 0.29219 0.10927
 C325 C 0.37888 0.27584 0.10889
 C326 C 0.38185 0.26097 0.12958
 C327 C 0.40091 0.24503 0.12945
 C328 C 0.41596 0.24296 0.10953
 C329 C 0.41273 0.25661 0.08889
 C330 C 0.39439 0.27351 0.08832
 C331 C 0.39194 0.28685 0.06681
 C332 C 0.40628 0.28275 0.04658
 C333 C 0.42373 0.26547 0.04704
 C334 C 0.42733 0.25292 0.06850
 H335 H 0.38042 0.23501 0.17279
 H336 H 0.31489 0.29175 0.16577
 H337 H 0.35128 0.23706 0.20395
 H338 H 0.33009 0.30599 0.12787
 H339 H 0.35706 0.30433 0.09471
 H340 H 0.40464 0.23357 0.14442
 H341 H 0.43005 0.23015 0.11016
 H342 H 0.37878 0.30023 0.06469
 H343 H 0.40344 0.29291 0.03027
 H344 H 0.44076 0.23942 0.06891
 C345 C 0.67522 0.73060 0.13122
 C346 C 0.65748 0.74776 0.12859
 C347 C 0.65440 0.76382 0.14814
 C348 C 0.66886 0.76272 0.16921
 C349 C 0.68660 0.74562 0.17147
 C350 C 0.68936 0.72962 0.15212
 C351 C 0.63688 0.78091 0.14661
 C352 C 0.62222 0.78238 0.12613
 C353 C 0.62461 0.76684 0.10611
 C354 C 0.64271 0.74940 0.10730
 C355 C 0.64556 0.73419 0.08712
 C356 C 0.63116 0.73564 0.06664
 C357 C 0.61327 0.75222 0.06528
 C358 C 0.60958 0.76811 0.08488
 C359 C 0.59086 0.78441 0.08230
 C360 C 0.57664 0.78475 0.06120
 C361 C 0.58063 0.76901 0.04197
 C362 C 0.59898 0.75279 0.04427
 H363 H 0.67873 0.71743 0.11758
 H364 H 0.66609 0.77531 0.18375
 H365 H 0.70251 0.71601 0.15277
 H366 H 0.63440 0.79329 0.16148
 H367 H 0.60920 0.79607 0.12653
 H368 H 0.65892 0.72088 0.08633
 H369 H 0.63408 0.72352 0.05166
 H370 H 0.58661 0.79707 0.09623
 H371 H 0.56260 0.79751 0.05985
 H372 H 0.60188 0.74017 0.02972
 C373 C 0.65387 0.28519 -0.12988
 C374 C 0.63190 0.27173 -0.12867
 C375 C 0.62523 0.25757 -0.14917
 C376 C 0.64024 0.25672 -0.16962
 C377 C 0.66213 0.26982 -0.17026
 C378 C 0.66863 0.28418 -0.15029
 C379 C 0.60372 0.24410 -0.14915
 C380 C 0.58870 0.24400 -0.12907
 C381 C 0.59461 0.25742 -0.10798
 C382 C 0.61653 0.27161 -0.10781
 C383 C 0.62255 0.28490 -0.08666
 C384 C 0.60809 0.28399 -0.06620
 C385 C 0.58695 0.27000 -0.06591
 C386 C 0.57959 0.25679 -0.08685
 C387 C 0.55764 0.24328 -0.08553
 C388 C 0.54426 0.24230 -0.06411
 C389 C 0.55214 0.25476 -0.04331
 C390 C 0.57330 0.26893 -0.04452
 H391 H 0.66040 0.29661 -0.11537
 H392 H 0.63474 0.24581 -0.18508
 H393 H 0.68546 0.29443 -0.15013
 H394 H 0.59850 0.23329 -0.16480
 H395 H 0.57264 0.23286 -0.13063
 H396 H 0.63858 0.29607 -0.08509
 H397 H 0.61371 0.29424 -0.05029
 H398 H 0.55034 0.23301 -0.10058
 H399 H 0.52798 0.23118 -0.06362
 H400 H 0.57929 0.27903 -0.02864
 C401 C 0.34354 0.72788 -0.12744
 C402 C 0.36139 0.74603 -0.12338
 C403 C 0.36292 0.76467 -0.14042
 C404 C 0.34688 0.76518 -0.16024
 C405 C 0.32905 0.74724 -0.16378
 C406 C 0.32774 0.72856 -0.14721
 C407 C 0.38040 0.78281 -0.13762
 C408 C 0.39651 0.78299 -0.11823
 C409 C 0.39569 0.76500 -0.10058
 C410 C 0.37769 0.74630 -0.10309
 C411 C 0.37638 0.72867 -0.08507
 C412 C 0.39201 0.72915 -0.06536
 C413 C 0.40970 0.74706 -0.06274
 C414 C 0.41206 0.76518 -0.08031
 C415 C 0.43075 0.78268 -0.07672
 C416 C 0.44593 0.78230 -0.05635
 C417 C 0.44300 0.76459 -0.03890
 C418 C 0.42499 0.74691 -0.04242
 H419 H 0.34127 0.71275 -0.11583
 H420 H 0.34835 0.77977 -0.17282
 H421 H 0.31447 0.71424 -0.14938
 H422 H 0.38166 0.79712 -0.15061
 H423 H 0.40928 0.79775 -0.11749
 H424 H 0.36321 0.71425 -0.08541
 H425 H 0.39015 0.71528 -0.05192
 H426 H 0.43419 0.79691 -0.08925
 H427 H 0.45975 0.79614 -0.05404
 H428 H 0.42295 0.73280 -0.02926
 C429 C 0.12069 0.33671 0.26865
 C430 C 0.11968 0.35540 0.25177
 C431 C 0.13952 0.35881 0.23590
 C432 C 0.15960 0.34425 0.23741
 C433 C 0.16036 0.32597 0.25453
 C434 C 0.14057 0.32243 0.26995
 C435 C 0.13919 0.37670 0.21858
 C436 C 0.11960 0.39127 0.21652
 C437 C 0.09945 0.38872 0.23198
 C438 C 0.09965 0.37062 0.25008
 C439 C 0.07987 0.36842 0.26604
 C440 C 0.06041 0.38295 0.26420
 C441 C 0.05971 0.40031 0.24647
 C442 C 0.07912 0.40366 0.23009
 C443 C 0.07718 0.42182 0.21256
 C444 C 0.05680 0.43577 0.21146
 C445 C 0.03770 0.43203 0.22765
 C446 C 0.03950 0.41440 0.24521
 H447 H 0.10637 0.33236 0.28109
 H448 H 0.17459 0.34727 0.22519
 H449 H 0.14016 0.30848 0.28325
 H450 H 0.15426 0.37943 0.20635
 H451 H 0.12088 0.40454 0.20262
 H452 H 0.07881 0.35571 0.28046
 H453 H 0.04564 0.38049 0.27687
 H454 H 0.09097 0.42565 0.19934
 H455 H 0.05583 0.44927 0.19768
 H456 H 0.02508 0.41172 0.25824
 C457 C 0.13490 0.66277 0.72196
 C458 C 0.13086 0.64516 0.73973
 C459 C 0.14758 0.64426 0.75921
 C460 C 0.16758 0.66024 0.76047
 C461 C 0.17134 0.67773 0.74268
 C462 C 0.15464 0.67862 0.72346
 C463 C 0.14418 0.62756 0.77752
 C464 C 0.12429 0.61193 0.77722
 C465 C 0.10698 0.61217 0.75832
 C466 C 0.11064 0.62872 0.73898
 C467 C 0.09398 0.62830 0.71949
 C468 C 0.07397 0.61299 0.71925
 C469 C 0.06965 0.59743 0.73832
 C470 C 0.08607 0.59650 0.75808
 C471 C 0.08058 0.58009 0.77683
 C472 C 0.05953 0.56569 0.77598
 C473 C 0.04328 0.56723 0.75658
 C474 C 0.04872 0.58289 0.73768
 H475 H 0.12301 0.66516 0.70674
 H476 H 0.17996 0.65904 0.77563
 H477 H 0.15652 0.69161 0.70924
 H478 H 0.15695 0.62670 0.79244
 H479 H 0.12306 0.59976 0.79214
 H480 H 0.09583 0.63954 0.70389
 H481 H 0.06159 0.61351 0.70396
 H482 H 0.09193 0.57813 0.79256
 H483 H 0.05568 0.55370 0.79083
 H484 H 0.03648 0.58380 0.72230
 C485 C -0.12687 0.65608 0.27834
 C486 C -0.12367 0.64030 0.25861
 C487 C -0.14146 0.63965 0.24004
 C488 C -0.16110 0.65468 0.24103
 C489 C -0.16382 0.67065 0.26047
 C490 C -0.14649 0.67087 0.27918
 C491 C -0.13961 0.62409 0.22041
 C492 C -0.12046 0.60904 0.21869
 C493 C -0.10207 0.60907 0.23651
 C494 C -0.10354 0.62520 0.25666
 C495 C -0.08466 0.62596 0.27398
 C496 C -0.06509 0.61152 0.27183
 C497 C -0.06355 0.59555 0.25254
 C498 C -0.08206 0.59378 0.23471
 C499 C -0.07967 0.57671 0.21587
 C500 C -0.05952 0.56255 0.21466
 C501 C -0.04111 0.56495 0.23204
 C502 C -0.04341 0.58134 0.25103
 H503 H -0.11466 0.65744 0.29359
 H504 H -0.17417 0.65373 0.22640
 H505 H -0.14775 0.68254 0.29473
 H506 H -0.15316 0.62355 0.20612
 H507 H -0.12043 0.59778 0.20283
 H508 H -0.08417 0.63786 0.28935
 H509 H -0.05094 0.61289 0.28549
 H510 H -0.09304 0.57374 0.20184
 H511 H -0.05816 0.54993 0.19986
 H512 H -0.02945 0.58292 0.26488
 C513 C -0.13613 0.33734 0.72648
 C514 C -0.13332 0.35700 0.74245
 C515 C -0.15237 0.36124 0.75878
 C516 C -0.17333 0.34648 0.75873
 C517 C -0.17589 0.32701 0.74269
 C518 C -0.15689 0.32277 0.72664
 C519 C -0.15041 0.38014 0.77521
 C520 C -0.12989 0.39494 0.77598
 C521 C -0.11040 0.39157 0.76007
 C522 C -0.11227 0.37240 0.74286
 C523 C -0.09305 0.36928 0.72656
 C524 C -0.07258 0.38397 0.72724
 C525 C -0.07028 0.40240 0.74410
 C526 C -0.08908 0.40668 0.76074
 C527 C -0.08557 0.42590 0.77731
 C528 C -0.06426 0.43992 0.77733
 C529 C -0.04575 0.43522 0.76101
 C530 C -0.04908 0.41656 0.74431
 H531 H -0.12257 0.33246 0.71365
 H532 H -0.18753 0.35033 0.77141
 H533 H -0.15773 0.30808 0.71395
 H534 H -0.16491 0.38350 0.78777
 H535 H -0.12993 0.40897 0.78932
 H536 H -0.09318 0.35565 0.71282
 H537 H -0.05828 0.38077 0.71439
 H538 H -0.09880 0.43053 0.79060
 H539 H -0.06208 0.45424 0.79045
 H540 H -0.03506 0.41313 0.73121
 C541 C 0.22472 0.15724 0.37310
 C542 C 0.24265 0.13999 0.37335
 C543 C 0.26186 0.14274 0.35660
 C544 C 0.26290 0.16186 0.34049
 C545 C 0.24489 0.17866 0.34028
 C546 C 0.22588 0.17615 0.35687
 C547 C 0.27997 0.12631 0.35579
 C548 C 0.27921 0.10671 0.37074
 C549 C 0.26021 0.10269 0.38732
 C550 C 0.24204 0.11999 0.38925
 C551 C 0.22394 0.11669 0.40699
 C552 C 0.22315 0.09688 0.42182
 C553 C 0.24008 0.07936 0.41942
 C554 C 0.25881 0.08194 0.40207
 C555 C 0.27511 0.06334 0.39984
 C556 C 0.27286 0.04323 0.41418
 C557 C 0.25441 0.04078 0.43128
 C558 C 0.23820 0.05905 0.43405
 H559 H 0.20931 0.15650 0.38492
 H560 H 0.27776 0.16330 0.32787
 H561 H 0.21165 0.18874 0.35735
 H562 H 0.29487 0.12850 0.34324
 H563 H 0.29409 0.09513 0.36893
 H564 H 0.21009 0.12924 0.41005
 H565 H 0.20887 0.09511 0.43513
 H566 H 0.28958 0.06342 0.38691
 H567 H 0.28576 0.02943 0.41188
 H568 H 0.22374 0.05717 0.44715
 C569 C 0.71024 0.13293 0.66557
 C570 C 0.72519 0.13088 0.64493
 C571 C 0.74035 0.15068 0.63901
 C572 C 0.74078 0.17126 0.65356
 C573 C 0.72622 0.17276 0.67422
 C574 C 0.71081 0.15346 0.67986
 C575 C 0.75518 0.14987 0.61870
 C576 C 0.75569 0.12969 0.60420
 C577 C 0.74143 0.10923 0.60954
 C578 C 0.72581 0.10988 0.63018
 C579 C 0.71160 0.08940 0.63559
 C580 C 0.71289 0.06888 0.62175
 C581 C 0.72825 0.06782 0.60188
 C582 C 0.74254 0.08799 0.59519
 C583 C 0.75756 0.08585 0.57457
 C584 C 0.75877 0.06445 0.56179
 C585 C 0.74510 0.04448 0.56899
 C586 C 0.72959 0.04646 0.58885
 H587 H 0.69794 0.11900 0.67139
 H588 H 0.75257 0.18611 0.64869
 H589 H 0.69935 0.15391 0.69568
 H590 H 0.76670 0.16501 0.61400
 H591 H 0.76778 0.13068 0.58899
 H592 H 0.69937 0.08844 0.65068
 H593 H 0.70184 0.05353 0.62685
 H594 H 0.76884 0.10022 0.56791
 H595 H 0.77098 0.06337 0.54656
 H596 H 0.71857 0.03120 0.59429
 C597 C 0.28645 -0.13198 0.65950
 C598 C 0.26762 -0.12732 0.64293
 C599 C 0.24753 -0.14350 0.64210
 C600 C 0.24615 -0.16291 0.65793
 C601 C 0.26466 -0.16680 0.67477
 C602 C 0.28491 -0.15130 0.67506
 C603 C 0.22879 -0.14016 0.62562
 C604 C 0.22931 -0.12094 0.61003
 C605 C 0.24860 -0.10397 0.61048
 C606 C 0.26801 -0.10716 0.62733
 C607 C 0.28693 -0.08982 0.62840
 C608 C 0.28694 -0.07002 0.61375
 C609 C 0.26829 -0.06668 0.59727
 C610 C 0.24898 -0.08366 0.59501
 C611 C 0.23087 -0.07941 0.57739
 C612 C 0.23176 -0.05890 0.56327
 C613 C 0.25057 -0.04199 0.56629
 C614 C 0.26889 -0.04620 0.58311
 H615 H 0.30277 -0.12119 0.66093
 H616 H 0.23036 -0.17473 0.65726
 H617 H 0.29983 -0.15398 0.68735
 H618 H 0.21343 -0.15255 0.62482
 H619 H 0.21400 -0.11970 0.59806
 H620 H 0.30197 -0.09068 0.64076
 H621 H 0.30175 -0.05707 0.61546
 H622 H 0.21580 -0.09153 0.57401
 H623 H 0.21747 -0.05607 0.55023
 H624 H 0.28386 -0.03344 0.58511
 C625 C 0.76352 -0.16649 0.38218
 C626 C 0.74634 -0.14855 0.38167
 C627 C 0.72894 -0.14958 0.36270
 C628 C 0.72902 -0.16771 0.34507
 C629 C 0.74656 -0.18500 0.34547
 C630 C 0.76359 -0.18428 0.36440
 C631 C 0.71173 -0.13227 0.36108
 C632 C 0.71201 -0.11324 0.37717
 C633 C 0.72951 -0.11081 0.39584
 C634 C 0.74627 -0.12929 0.39881
 C635 C 0.76253 -0.12775 0.41865
 C636 C 0.76344 -0.10821 0.43416
 C637 C 0.74841 -0.08929 0.43047
 C638 C 0.73103 -0.09036 0.41143
 C639 C 0.71655 -0.07045 0.40823
 C640 C 0.71991 -0.05018 0.42264
 C641 C 0.73754 -0.04902 0.44092
 C642 C 0.75125 -0.06892 0.44523
 H643 H 0.77759 -0.16704 0.39568
 H644 H 0.71555 -0.16794 0.33078
 H645 H 0.77740 -0.19727 0.36546
 H646 H 0.69813 -0.13317 0.34685
 H647 H 0.69810 -0.10070 0.37446
 H648 H 0.77491 -0.14143 0.42276
 H649 H 0.77651 -0.10768 0.44888
 H650 H 0.70304 -0.06952 0.39419
 H651 H 0.70897 -0.03505 0.41914
 H652 H 0.76505 -0.06806 0.45927
 C653 C 0.66610 0.71861 -0.13901
 C654 C 0.64732 0.73478 -0.13645
 C655 C 0.64246 0.74957 -0.15646
 C656 C 0.65646 0.74861 -0.17765
 C657 C 0.67523 0.73274 -0.17963
 C658 C 0.67971 0.71767 -0.16020
 C659 C 0.62367 0.76528 -0.15525
 C660 C 0.60950 0.76675 -0.13460
 C661 C 0.61380 0.75274 -0.11399
 C662 C 0.63329 0.73676 -0.11480
 C663 C 0.63844 0.72365 -0.09378
 C664 C 0.62518 0.72604 -0.07268
 C665 C 0.60604 0.74129 -0.07166
 C666 C 0.59968 0.75456 -0.09235
 C667 C 0.57948 0.76916 -0.09035
 C668 C 0.56701 0.77117 -0.06846
 C669 C 0.57416 0.75877 -0.04788
 C670 C 0.59343 0.74354 -0.04978
 H671 H 0.67074 0.70625 -0.12511
 H672 H 0.65254 0.76011 -0.19272
 H673 H 0.69410 0.70525 -0.16111
 H674 H 0.61984 0.77663 -0.17049
 H675 H 0.59557 0.77952 -0.13521
 H676 H 0.65306 0.71168 -0.09272
 H677 H 0.63009 0.71585 -0.05690
 H678 H 0.57282 0.77929 -0.10529
 H679 H 0.55205 0.78296 -0.06744
 H680 H 0.59872 0.73344 -0.03407
 C681 C 0.33319 0.28518 -0.13875
 C682 C 0.34840 0.26643 -0.13285
 C683 C 0.34913 0.24711 -0.14940
 C684 C 0.33463 0.24649 -0.17048
 C685 C 0.31925 0.26501 -0.17568
 C686 C 0.31893 0.28438 -0.15967
 C687 C 0.36426 0.22843 -0.14480
 C688 C 0.37881 0.22845 -0.12416
 C689 C 0.37862 0.24713 -0.10696
 C690 C 0.36288 0.26626 -0.11123
 C691 C 0.36182 0.28444 -0.09354
 C692 C 0.37575 0.28418 -0.07261
 C693 C 0.39144 0.26596 -0.06838
 C694 C 0.39337 0.24721 -0.08546
 C695 C 0.41006 0.22944 -0.08018
 C696 C 0.42373 0.23020 -0.05870
 C697 C 0.42120 0.24857 -0.04178
 C698 C 0.40516 0.26646 -0.04694
 H699 H 0.33196 0.30093 -0.12777
 H700 H 0.33519 0.23137 -0.18265
 H701 H 0.30773 0.29925 -0.16329
 H702 H 0.36489 0.21358 -0.15735
 H703 H 0.38980 0.21326 -0.12205
 H704 H 0.35005 0.29909 -0.09503
 H705 H 0.37417 0.29848 -0.05951
 H706 H 0.41308 0.21475 -0.09224
 H707 H 0.43607 0.21619 -0.05515
 H708 H 0.40352 0.28107 -0.03421
 C709 C 0.35077 0.71275 0.13576
 C710 C 0.37275 0.72627 0.13536
 C711 C 0.37913 0.73964 0.15648
 C712 C 0.36391 0.73960 0.17679
 C713 C 0.34195 0.72659 0.17662
 C714 C 0.33573 0.71297 0.15601
 C715 C 0.40050 0.75331 0.15718
 C716 C 0.41544 0.75476 0.13707
 C717 C 0.40962 0.74243 0.11528
 C718 C 0.38825 0.72744 0.11463
 C719 C 0.38293 0.71439 0.09317
 C720 C 0.39722 0.71668 0.07269
 C721 C 0.41741 0.73201 0.07265
 C722 C 0.42423 0.74486 0.09398
 C723 C 0.44506 0.76007 0.09278
 C724 C 0.45780 0.76297 0.07112
 C725 C 0.45035 0.75084 0.04997
 C726 C 0.43049 0.73492 0.05109
 H727 H 0.34432 0.70213 0.12060
 H728 H 0.36920 0.74996 0.19270
 H729 H 0.31886 0.70281 0.15516
 H730 H 0.40560 0.76336 0.17339
 H731 H 0.43144 0.76589 0.13924
 H732 H 0.36765 0.70224 0.09143
 H733 H 0.39214 0.70659 0.05650
 H734 H 0.45170 0.77049 0.10801
 H735 H 0.47305 0.77545 0.07069
 H736 H 0.42487 0.72510 0.03489
 C737 C 0.65648 0.27244 0.13440
 C738 C 0.63566 0.25743 0.13195
 C739 C 0.63101 0.24067 0.15052
 C740 C 0.64659 0.23945 0.17077
 C741 C 0.66698 0.25479 0.17295
 C742 C 0.67168 0.27112 0.15447
 C743 C 0.61087 0.22525 0.14879
 C744 C 0.59526 0.22594 0.12895
 C745 C 0.59913 0.24224 0.10991
 C746 C 0.61955 0.25841 0.11161
 C747 C 0.62324 0.27509 0.09292
 C748 C 0.60800 0.27570 0.07301
 C749 C 0.58838 0.25985 0.07078
 C750 C 0.58339 0.24295 0.08915
 C751 C 0.56292 0.22750 0.08573
 C752 C 0.54851 0.22865 0.06480
 C753 C 0.55405 0.24512 0.04661
 C754 C 0.57382 0.26085 0.05000
 H755 H 0.66185 0.28541 0.12112
 H756 H 0.64264 0.22664 0.18486
 H757 H 0.68742 0.28291 0.15518
 H758 H 0.60713 0.21240 0.16292
 H759 H 0.58021 0.21340 0.12911
 H760 H 0.63779 0.28815 0.09300
 H761 H 0.61174 0.28874 0.05905
 H762 H 0.55766 0.21415 0.09870
 H763 H 0.53331 0.21626 0.06260
 H764 H 0.57794 0.27402 0.03627
 C765 C -0.16634 0.61648 0.75041
 C766 C -0.14538 0.61781 0.73588
 C767 C -0.14366 0.63621 0.71858
 C768 C -0.16190 0.65271 0.71646
 C769 C -0.18229 0.65165 0.73151
 C770 C -0.18432 0.63303 0.74823
 C771 C -0.12356 0.63837 0.70362
 C772 C -0.10462 0.62317 0.70590
 C773 C -0.10494 0.60503 0.72341
 C774 C -0.12592 0.60192 0.73826
 C775 C -0.12653 0.58329 0.75524
 C776 C -0.10701 0.56890 0.75843
 C777 C -0.08605 0.57239 0.74492
 C778 C -0.08478 0.59024 0.72693
 C779 C -0.06302 0.59298 0.71376
 C780 C -0.04320 0.57942 0.71910
 C781 C -0.04433 0.56248 0.73748
 C782 C -0.06605 0.55855 0.74986
 H783 H -0.16937 0.60308 0.76395
 H784 H -0.15978 0.66657 0.70312
 H785 H -0.19970 0.63115 0.76012
 H786 H -0.12225 0.65225 0.69015
 H787 H -0.08983 0.62634 0.69366
 H788 H -0.14182 0.57942 0.76666
 H789 H -0.10819 0.55513 0.77202
 H790 H -0.06036 0.60580 0.69959
 H791 H -0.02667 0.58247 0.70904
 H792 H -0.06700 0.54549 0.76418
 C793 C -0.13466 0.33597 0.28018
 C794 C -0.13440 0.35677 0.26596
 C795 C -0.15542 0.36136 0.25230
 C796 C -0.17559 0.34573 0.25288
 C797 C -0.17538 0.32499 0.26660
 C798 C -0.15478 0.32042 0.28041
 C799 C -0.15622 0.38134 0.23773
 C800 C -0.13635 0.39673 0.23578
 C801 C -0.11475 0.39285 0.24859
 C802 C -0.11393 0.37282 0.26436
 C803 C -0.09258 0.36935 0.27774
 C804 C -0.07240 0.38423 0.27509
 C805 C -0.07259 0.40319 0.25909
 C806 C -0.09381 0.40813 0.24588
 C807 C -0.09291 0.42791 0.23014
 C808 C -0.07160 0.44142 0.22702
 C809 C -0.05056 0.43576 0.23943
 C810 C -0.05138 0.41698 0.25589
 H811 H -0.11952 0.33086 0.29102
 H812 H -0.19142 0.34976 0.24233
 H813 H -0.15385 0.30453 0.29116
 H814 H -0.17232 0.38494 0.22734
 H815 H -0.13856 0.41149 0.22385
 H816 H -0.09075 0.35517 0.29048
 H817 H -0.05630 0.38061 0.28546
 H818 H -0.10813 0.43319 0.21954
 H819 H -0.07136 0.45584 0.21417
 H820 H -0.03523 0.41280 0.26595
 C821 C 0.12666 0.34126 0.71465
 C822 C 0.12592 0.36154 0.72989
 C823 C 0.14644 0.36704 0.74460
 C824 C 0.16638 0.35237 0.74443
 C825 C 0.16655 0.33211 0.72958
 C826 C 0.14660 0.32690 0.71457
 C827 C 0.14695 0.38707 0.75955
 C828 C 0.12745 0.40178 0.76051
 C829 C 0.10635 0.39692 0.74663
 C830 C 0.10554 0.37640 0.73113
 C831 C 0.08422 0.37116 0.71772
 C832 C 0.06429 0.38515 0.71958
 C833 C 0.06472 0.40507 0.73465
 C834 C 0.08583 0.41159 0.74809
 C835 C 0.08529 0.43244 0.76259
 C836 C 0.06441 0.44550 0.76431
 C837 C 0.04343 0.43830 0.75170
 C838 C 0.04390 0.41831 0.73655
 H839 H 0.11219 0.33585 0.70254
 H840 H 0.18185 0.35687 0.75586
 H841 H 0.14609 0.31138 0.70290
 H842 H 0.16263 0.39141 0.77078
 H843 H 0.12940 0.41670 0.77273
 H844 H 0.08207 0.35603 0.70582
 H845 H 0.04822 0.38017 0.70919
 H846 H 0.10057 0.43912 0.77298
 H847 H 0.06450 0.46096 0.77608
 H848 H 0.02787 0.41294 0.72628
 C849 C 0.13783 0.65714 0.27911
 C850 C 0.13606 0.63631 0.26463
 C851 C 0.15629 0.63077 0.25030
 C852 C 0.17720 0.64556 0.25060
 C853 C 0.17852 0.66625 0.26488
 C854 C 0.15862 0.67173 0.27917
 C855 C 0.15552 0.61062 0.23549
 C856 C 0.13491 0.59603 0.23408
 C857 C 0.11409 0.60090 0.24762
 C858 C 0.11486 0.62111 0.26355
 C859 C 0.09433 0.62556 0.27772
 C860 C 0.07346 0.61148 0.27571
 C861 C 0.07208 0.59234 0.25962
 C862 C 0.09240 0.58645 0.24557
 C863 C 0.08989 0.56657 0.22974
 C864 C 0.06798 0.55379 0.22747
 C865 C 0.04784 0.56027 0.24084
 C866 C 0.05022 0.57928 0.25726
 H867 H 0.12337 0.66298 0.29039
 H868 H 0.19243 0.64087 0.23955
 H869 H 0.15880 0.68762 0.29026
 H870 H 0.17097 0.60621 0.22459
 H871 H 0.13592 0.58101 0.22202
 H872 H 0.09368 0.63992 0.29062
 H873 H 0.05806 0.61585 0.28671
 H874 H 0.10431 0.56063 0.21846
 H875 H 0.06656 0.53921 0.21458
 H876 H 0.03483 0.58414 0.26804
 C877 C 0.77556 -0.16140 0.63000
 C878 C 0.75831 -0.14348 0.63025
 C879 C 0.73894 -0.14607 0.64680
 C880 C 0.73699 -0.16574 0.66214
 C881 C 0.75425 -0.18326 0.66178
 C882 C 0.77349 -0.18087 0.64548
 C883 C 0.72150 -0.12898 0.64814
 C884 C 0.72300 -0.10900 0.63376
 C885 C 0.74207 -0.10526 0.61718
 C886 C 0.75970 -0.12306 0.61493
 C887 C 0.77799 -0.11987 0.59738
 C888 C 0.77934 -0.09985 0.58287
 C889 C 0.76277 -0.08201 0.58538
 C890 C 0.74398 -0.08436 0.60269
 C891 C 0.72803 -0.06547 0.60496
 C892 C 0.73058 -0.04538 0.59063
 C893 C 0.74903 -0.04320 0.57348
 C894 C 0.76501 -0.06168 0.57080
 H895 H 0.79107 -0.16082 0.61833
 H896 H 0.72186 -0.16723 0.67440
 H897 H 0.78728 -0.19392 0.64476
 H898 H 0.70653 -0.13099 0.66062
 H899 H 0.70860 -0.09691 0.63598
 H900 H 0.79154 -0.13269 0.59418
 H901 H 0.79370 -0.09823 0.56964
 H902 H 0.71352 -0.06537 0.61785
 H903 H 0.71784 -0.03143 0.59288
 H904 H 0.77949 -0.06002 0.55771
 C905 C 0.29040 -0.13546 0.33743
 C906 C 0.27592 -0.13342 0.35841
 C907 C 0.26100 -0.15326 0.36473
 C908 C 0.26058 -0.17400 0.35044
 C909 C 0.27485 -0.17558 0.32959
 C910 C 0.28981 -0.15613 0.32338
 C911 C 0.24639 -0.15234 0.38521
 C912 C 0.24596 -0.13204 0.39953
 C913 C 0.26022 -0.11164 0.39396
 C914 C 0.27557 -0.11239 0.37312
 C915 C 0.28990 -0.09203 0.36757
 C916 C 0.28898 -0.07152 0.38148
 C917 C 0.27389 -0.07037 0.40155
 C918 C 0.25946 -0.09042 0.40834
 C919 C 0.24471 -0.08818 0.42913
 C920 C 0.24394 -0.06683 0.44204
 C921 C 0.25780 -0.04701 0.43478
 C922 C 0.27300 -0.04906 0.41471
 H923 H 0.30229 -0.12141 0.33113
 H924 H 0.24909 -0.18895 0.35569
 H925 H 0.30093 -0.15658 0.30731
 H926 H 0.23499 -0.16748 0.39016
 H927 H 0.23403 -0.13295 0.41486
 H928 H 0.30204 -0.09118 0.35241
 H929 H 0.30015 -0.05628 0.37632
 H930 H 0.23329 -0.10242 0.43584
 H931 H 0.23195 -0.06567 0.45744
 H932 H 0.28416 -0.03391 0.40923
 C933 C 0.71636 0.12704 0.34291
 C934 C 0.73505 0.12287 0.35981
 C935 C 0.75450 0.13977 0.36121
 C936 C 0.75527 0.15954 0.34583
 C937 C 0.73679 0.16311 0.32887
 C938 C 0.71730 0.14672 0.32782
 C939 C 0.77315 0.13682 0.37788
 C940 C 0.77306 0.11744 0.39327
 C941 C 0.75429 0.09992 0.39245
 C942 C 0.73508 0.10260 0.37526
 C943 C 0.71671 0.08473 0.37381
 C944 C 0.71694 0.06499 0.38853
 C945 C 0.73533 0.06218 0.40545
 C946 C 0.75418 0.07962 0.40797
 C947 C 0.77204 0.07587 0.42596
 C948 C 0.77132 0.05548 0.44031
 C949 C 0.75291 0.03814 0.43716
 C950 C 0.73488 0.04182 0.41983
 H951 H 0.70056 0.11559 0.34089
 H952 H 0.77050 0.17200 0.34705
 H953 H 0.70247 0.14900 0.31533
 H954 H 0.78808 0.14969 0.37905
 H955 H 0.78825 0.11657 0.40544
 H956 H 0.70188 0.08520 0.36117
 H957 H 0.70249 0.05170 0.38656
 H958 H 0.78679 0.08832 0.42950
 H959 H 0.78544 0.05310 0.45364
 H960 H 0.72022 0.02877 0.41766
 C961 C 0.24537 0.16681 0.61521
 C962 C 0.26029 0.14724 0.61842
 C963 C 0.27595 0.14770 0.63890
 C964 C 0.27607 0.16667 0.65555
 C965 C 0.26060 0.18554 0.65251
 C966 C 0.24557 0.18551 0.63194
 C967 C 0.29118 0.12903 0.64295
 C968 C 0.29074 0.10942 0.62762
 C969 C 0.27491 0.10760 0.60746
 C970 C 0.25985 0.12708 0.60242
 C971 C 0.24456 0.12556 0.58181
 C972 C 0.24323 0.10543 0.56720
 C973 C 0.25700 0.08594 0.57244
 C974 C 0.27329 0.08678 0.59242
 C975 C 0.28674 0.06638 0.59689
 C976 C 0.28335 0.04592 0.58278
 C977 C 0.26669 0.04504 0.56359
 C978 C 0.25401 0.06533 0.55813
 H979 H 0.23302 0.16819 0.60016
 H980 H 0.28792 0.16631 0.67123
 H981 H 0.23363 0.19989 0.62869
 H982 H 0.30339 0.12941 0.65841
 H983 H 0.30305 0.09585 0.63231
 H984 H 0.23308 0.13960 0.57649
 H985 H 0.23090 0.10496 0.55184
 H986 H 0.29965 0.06533 0.61147
 H987 H 0.29360 0.03052 0.58712
 H988 H 0.24095 0.06471 0.54339
   
