data_POSCAR
  _audit_creation_date              2014-09-24
  _audit_creation_method            'ToBaCCo'
  _symmetry_space_group_name_H-M    'P1'
  _symmetry_Int_Tables_number       1
  _symmetry_cell_setting            triclinic
  loop_
  _symmetry_equiv_pos_as_xyz
 x,y,z
_cell_length_a 43.3956
_cell_length_b 43.7890
_cell_length_c 29.9413
_cell_angle_alpha 89.838800
_cell_angle_beta 89.834100
_cell_angle_gamma 120.572000
loop_
  _atom_site_label
  _atom_site_type_symbol
  _atom_site_fract_x
  _atom_site_fract_y
  _atom_site_fract_z
C1 C -0.05841 0.49496 -0.12015
 C2 C -0.05741 0.46430 -0.11925
 C3 C -0.04254 0.46354 -0.07858
 N4 N -0.03342 0.49331 -0.05508
 C5 C -0.04353 0.51229 -0.08041
 C6 C -0.04010 0.43451 -0.06204
 C7 C -0.01495 0.43999 -0.02829
 C8 C -0.01651 0.41423 0.00029
 C9 C 0.01340 0.43066 0.02684
 C10 C 0.03215 0.46610 0.01424
 N11 N 0.01460 0.47163 -0.01911
 C12 C 0.06537 0.49207 0.03214
 C13 C 0.07735 0.52881 0.03013
 C14 C 0.11105 0.55565 0.04276
 C15 C 0.11031 0.58654 0.04201
 C16 C 0.07648 0.57797 0.02768
 N17 N 0.05631 0.54254 0.02060
 C18 C 0.06356 0.60192 0.02573
 C19 C 0.03097 0.59350 0.00501
 C20 C 0.01388 0.61292 0.00893
 C21 C -0.01618 0.59651 -0.01743
 C22 C -0.01632 0.56784 -0.03716
 N23 N 0.01270 0.56649 -0.02377
 C24 C -0.04265 0.54355 -0.06665
 H25 H -0.06896 0.50363 -0.14690
 H26 H -0.06670 0.44475 -0.14558
 H27 H 0.02093 0.54964 -0.03630
 H28 H -0.03731 0.38662 0.00255
 H29 H 0.02019 0.41803 0.05300
 H30 H 0.13378 0.55333 0.05242
 H31 H 0.13229 0.61216 0.05166
 H32 H -0.03572 0.60469 -0.02137
 H33 H 0.02401 0.49508 -0.03733
 H34 H 0.02204 0.63642 0.02873
 C35 C 0.54129 0.47657 -0.12215
 C36 C 0.57115 0.50968 -0.12370
 C37 C 0.56910 0.52778 -0.08705
 N38 N 0.53917 0.50683 -0.06288
 C39 C 0.52237 0.47526 -0.08400
 C40 C 0.59700 0.56108 -0.07288
 C41 C 0.59158 0.58165 -0.04140
 C42 C 0.61823 0.61047 -0.01875
 C43 C 0.60124 0.62293 0.00821
 C44 C 0.56470 0.60120 0.00117
 N45 N 0.55926 0.57673 -0.02994
 C46 C 0.53737 0.60525 0.02097
 C47 C 0.50065 0.58000 0.01503
 C48 C 0.47255 0.58599 0.02208
 C49 C 0.44168 0.55376 0.01898
 C50 C 0.45175 0.52885 0.01128
 N51 N 0.48779 0.54499 0.00830
 C52 C 0.42852 0.49169 0.01437
 C53 C 0.43862 0.46768 -0.00184
 C54 C 0.42306 0.43227 0.01033
 C55 C 0.44101 0.41878 -0.01278
 C56 C 0.46701 0.44632 -0.03853
 N57 N 0.46513 0.47590 -0.03185
 C58 C 0.49222 0.44424 -0.06671
 H59 H 0.53468 0.45548 -0.14579
 H60 H 0.59236 0.51916 -0.14838
 H61 H 0.47967 0.49992 -0.04893
 H62 H 0.64683 0.62139 -0.02143
 H63 H 0.61447 0.64574 0.02985
 H64 H 0.47362 0.61069 0.02895
 H65 H 0.41484 0.54906 0.02341
 H66 H 0.43606 0.39203 -0.00979
 H67 H 0.53508 0.55933 -0.04526
 H68 H 0.40174 0.41782 0.03430
 C69 C 0.53528 1.12237 0.00608
 C70 C 0.56739 1.12367 0.00947
 C71 C 0.55947 1.08916 0.01637
 N72 N 0.52362 1.06669 0.01726
 C73 C 0.50873 1.08694 0.01014
 C74 C 0.58477 1.07803 0.01468
 C75 C 0.57777 1.04602 0.03506
 C76 C 0.59613 1.02823 0.02741
 C77 C 0.58116 0.99900 0.05527
 C78 C 0.55386 0.99964 0.07856
 N79 N 0.55223 1.02850 0.06641
 C80 C 0.53115 0.97429 0.11031
 C81 C 0.49782 0.97035 0.12226
 C82 C 0.47662 0.94981 0.15758
 C83 C 0.44422 0.94777 0.15300
 C84 C 0.44678 0.96724 0.11514
 N85 N 0.47966 0.98131 0.09656
 C86 C 0.41754 0.96694 0.09428
 C87 C 0.42193 0.99183 0.06123
 C88 C 0.39588 0.98789 0.03137
 C89 C 0.41120 1.01777 0.00466
 C90 C 0.44596 1.03958 0.01979
 N91 N 0.45216 1.02338 0.05427
 C92 C 0.47176 1.07308 0.00172
 H93 H 0.53186 1.14486 0.00012
 H94 H 0.59364 1.14717 0.00621
 H95 H 0.47512 1.03425 0.07393
 H96 H 0.61763 1.03507 0.00383
 H97 H 0.58893 0.97915 0.05735
 H98 H 0.48337 0.93660 0.18301
 H99 H 0.42095 0.93257 0.17409
 H100 H 0.39837 1.02206 -0.02359
 H101 H 0.53622 1.03719 0.08105
 H102 H 0.36903 0.96535 0.02823
 C103 C 1.06618 0.49072 0.39123
 C104 C 1.06577 0.52169 0.38992
 C105 C 1.05158 0.52416 0.43043
 N106 N 1.04219 0.49519 0.45593
 C107 C 1.05146 0.47495 0.43203
 C108 C 1.05073 0.55433 0.44530
 C109 C 1.02427 0.55061 0.47631
 C110 C 1.02462 0.57786 0.50026
 C111 C 0.99406 0.56268 0.52619
 C112 C 0.97594 0.52656 0.51756
 N113 N 0.99450 0.51946 0.48716
 C114 C 0.94265 0.50114 0.53659
 C115 C 0.93162 0.46460 0.53889
 C116 C 0.89795 0.43777 0.55221
 C117 C 0.89982 0.40761 0.55663
 C118 C 0.93429 0.41653 0.54457
 N119 N 0.95373 0.45145 0.53378
 C120 C 0.94840 0.39372 0.54838
 C121 C 0.98028 0.40045 0.52686
 C122 C 0.99789 0.38180 0.53389
 C123 C 1.02683 0.39590 0.50511
 C124 C 1.02583 0.42254 0.48128
 N125 N 0.99709 0.42465 0.49412
 C126 C 1.05088 0.44453 0.44872
 H127 H 1.07658 0.48102 0.36550
 H128 H 1.07559 0.54071 0.36272
 H129 H 0.98806 0.44008 0.47901
 H130 H 1.04505 0.60566 0.50002
 H131 H 0.98654 0.57663 0.54949
 H132 H 0.87447 0.43966 0.55892
 H133 H 0.87814 0.38215 0.56777
 H134 H 1.04643 0.38768 0.50227
 H135 H 0.98581 0.49502 0.47200
 H136 H 0.99069 0.36023 0.55717
 C137 C 0.45470 0.48916 0.34218
 C138 C 0.48464 0.52223 0.34495
 C139 C 0.50326 0.52191 0.38234
 N140 N 0.48579 0.48968 0.40234
 C141 C 0.45602 0.46964 0.37788
 C142 C 0.53357 0.55210 0.40013
 C143 C 0.55543 0.54969 0.43328
 C144 C 0.58050 0.57781 0.45865
 C145 C 0.59633 0.56452 0.48615
 C146 C 0.58046 0.52864 0.47688
 N147 N 0.55577 0.51989 0.44439
 C148 C 0.58892 0.50483 0.49785
 C149 C 0.56505 0.46770 0.49755
 C150 C 0.57320 0.44261 0.51257
 C151 C 0.54158 0.41083 0.51434
 C152 C 0.51531 0.41736 0.49943
 N153 N 0.52964 0.45208 0.48904
 C154 C 0.47830 0.39242 0.50064
 C155 C 0.45331 0.39652 0.47523
 C156 C 0.41640 0.37610 0.47975
 C157 C 0.40208 0.38808 0.44804
 C158 C 0.43069 0.41579 0.42563
 N159 N 0.46174 0.42034 0.44180
 C160 C 0.42778 0.43575 0.39069
 H161 H 0.43378 0.48080 0.31750
 H162 H 0.49150 0.54425 0.32255
 H163 H 0.48710 0.43697 0.42837
 H164 H 0.58648 0.60500 0.45793
 H165 H 0.61667 0.57950 0.51078
 H166 H 0.59905 0.44689 0.52250
 H167 H 0.53815 0.38582 0.52587
 H168 H 0.37386 0.37794 0.44262
 H169 H 0.54202 0.49551 0.42828
 H170 H 0.40130 0.35486 0.50342
 C171 C 0.44460 -0.06760 0.41214
 C172 C 0.47484 -0.06972 0.41388
 C173 C 0.48784 -0.06077 0.45695
 N174 N 0.46659 -0.05285 0.48166
 C175 C 0.43936 -0.05814 0.45449
 C176 C 0.51864 -0.06095 0.47245
 C177 C 0.54073 -0.03721 0.50625
 C178 C 0.56950 -0.03714 0.52677
 C179 C 0.58494 -0.00837 0.55481
 C180 C 0.56437 0.00745 0.55222
 N181 N 0.53770 -0.01003 0.52246
 C182 C 0.57041 0.03703 0.57750
 C183 C 0.54349 0.04495 0.58796
 C184 C 0.54666 0.06822 0.62131
 C185 C 0.51547 0.06872 0.62158
 C186 C 0.49446 0.04644 0.58756
 N187 N 0.51137 0.03130 0.56762
 C188 C 0.46200 0.04328 0.57291
 C189 C 0.44039 0.01960 0.53917
 C190 C 0.41500 0.02298 0.51534
 C191 C 0.40021 -0.00450 0.48548
 C192 C 0.41591 -0.02488 0.49291
 N193 N 0.44112 -0.00939 0.52507
 C194 C 0.40958 -0.05467 0.46705
 H195 H 0.42908 -0.07130 0.38232
 H196 H 0.48664 -0.07602 0.38611
 H197 H 0.45604 -0.01955 0.53899
 H198 H 0.57852 -0.05587 0.52279
 H199 H 0.60782 -0.00086 0.57602
 H200 H 0.56895 0.08288 0.64371
 H201 H 0.50934 0.08423 0.64407
 H202 H 0.38177 -0.00750 0.45929
 H203 H 0.52039 -0.00195 0.51087
 H204 H 0.40894 0.04404 0.51773
 O205 O 0.18792 0.43036 0.18700
 O206 O 0.24177 0.40886 0.26352
 O207 O 0.17795 0.40282 0.26728
 O208 O 0.24833 0.42908 0.18046
 O209 O 0.27598 0.48306 0.20842
 O210 O 0.20604 0.45771 0.29274
 O211 O 0.26502 0.46245 0.29259
 O212 O 0.21396 0.48400 0.21622
 Cu213 Cu 0.21118 0.41224 0.22170
 Cu214 Cu 0.24378 0.47754 0.25301
 C215 C 0.19119 0.46089 0.19007
 C216 C 0.26243 0.43234 0.29133
 C217 C 0.18014 0.42593 0.29475
 C218 C 0.27506 0.46040 0.18124
 O219 O 0.56211 0.75752 0.21603
 O220 O 0.55078 0.80120 0.31491
 O221 O 0.55475 0.74313 0.30109
 O222 O 0.55614 0.81335 0.22960
 O223 O 0.49745 0.78024 0.22268
 O224 O 0.49601 0.71177 0.29409
 O225 O 0.49215 0.76883 0.30726
 O226 O 0.50331 0.72607 0.20852
 Cu227 Cu 0.56190 0.78194 0.26651
 Cu228 Cu 0.49137 0.74322 0.25789
 C229 C 0.53452 0.73483 0.19512
 C230 C 0.51945 0.79328 0.32688
 C231 C 0.52489 0.71518 0.30911
 C232 C 0.52673 0.80843 0.21388
 O233 O 0.21904 0.82936 0.23428
 O234 O 0.16037 0.75902 0.31369
 O235 O 0.22518 0.81588 0.31746
 O236 O 0.15746 0.76837 0.22821
 O237 O 0.18590 0.74014 0.21049
 O238 O 0.25035 0.78481 0.29883
 O239 O 0.18699 0.72910 0.29588
 O240 O 0.24578 0.79947 0.21691
 Cu241 Cu 0.18776 0.79613 0.27511
 Cu242 Cu 0.21967 0.76030 0.25381
 C243 C 0.24294 0.82683 0.21289
 C244 C 0.16355 0.73195 0.31809
 C245 C 0.24993 0.80857 0.32234
 C246 C 0.16061 0.74606 0.20427
 O247 O 0.82306 0.57123 0.68109
 O248 O 0.77489 0.60137 0.75471
 O249 O 0.83402 0.59797 0.76129
 O250 O 0.76356 0.57377 0.67515
 O251 O 0.73289 0.52064 0.70608
 O252 O 0.80199 0.54391 0.78937
 O253 O 0.74549 0.54780 0.78486
 O254 O 0.79206 0.51779 0.71118
 Cu255 Cu 0.80202 0.59156 0.71498
 Cu256 Cu 0.76484 0.52706 0.75028
 C257 C 0.81642 0.53953 0.68487
 C258 C 0.75187 0.57941 0.78227
 C259 C 0.82987 0.57441 0.78963
 C260 C 0.73562 0.54315 0.67724
 O261 O 0.42458 0.24415 0.71764
 O262 O 0.43050 0.18783 0.80711
 O263 O 0.42258 0.24410 0.80495
 O264 O 0.42836 0.18628 0.71987
 O265 O 0.48686 0.22256 0.71594
 O266 O 0.48159 0.27581 0.80678
 O267 O 0.48934 0.22056 0.80202
 O268 O 0.48327 0.27951 0.72147
 Cu269 Cu 0.42048 0.21211 0.76269
 Cu270 Cu 0.49107 0.25282 0.76175
 C271 C 0.45328 0.27202 0.70545
 C272 C 0.46151 0.19422 0.81835
 C273 C 0.45126 0.27015 0.81991
 C274 C 0.45861 0.19494 0.70295
 O275 O 0.81487 0.24264 0.81611
 O276 O 0.75625 0.16587 0.74468
 O277 O 0.81648 0.22717 0.73218
 O278 O 0.75163 0.18444 0.82575
 O279 O 0.72084 0.20783 0.79879
 O280 O 0.78514 0.25113 0.70890
 O281 O 0.72890 0.19374 0.72069
 O282 O 0.78469 0.26814 0.79476
 Cu283 Cu 0.78792 0.20246 0.78201
 Cu284 Cu 0.75314 0.23406 0.75510
 C285 C 0.80955 0.26854 0.81755
 C286 C 0.73257 0.16677 0.72072
 C287 C 0.81130 0.24621 0.70445
 C288 C 0.72426 0.18797 0.82673
 C289 C 0.12291 0.48672 0.12024
 C290 C 0.13027 0.46132 0.10292
 N291 N 0.11603 0.44600 0.06302
 C292 C 0.09492 0.45505 0.03965
 C293 C 0.08733 0.48037 0.05714
 N294 N 0.10149 0.49531 0.09731
 N295 N 0.13795 0.50306 0.15922
 C296 C 0.16018 0.49527 0.18178
 C297 C 0.16748 0.46961 0.16497
 N298 N 0.15210 0.45299 0.12587
 H299 H 0.08447 0.44293 0.00756
 H300 H 0.17169 0.50872 0.21292
 C301 C 0.53741 0.67861 0.08322
 C302 C 0.55428 0.67855 0.12317
 N303 N 0.56771 0.65668 0.12745
 C304 C 0.56437 0.63432 0.09397
 C305 C 0.54695 0.63383 0.05418
 N306 N 0.53436 0.65649 0.04969
 N307 N 0.52177 0.69861 0.07998
 C308 C 0.52170 0.71810 0.11518
 C309 C 0.53826 0.71781 0.15525
 N310 N 0.55452 0.69828 0.15819
 H311 H 0.57391 0.61603 0.09904
 H312 H 0.50831 0.73319 0.11225
 C313 C 0.32673 0.91378 0.14421
 C314 C 0.32016 0.87920 0.13783
 N315 N 0.34337 0.87399 0.11329
 C316 C 0.37354 0.90190 0.09597
 C317 C 0.38136 0.93668 0.10451
 N318 N 0.35740 0.94184 0.12784
 N319 N 0.30358 0.91880 0.16936
 C320 C 0.27474 0.89093 0.18942
 C321 C 0.26931 0.85653 0.18511
 N322 N 0.29201 0.85159 0.15880
 H323 H 0.39224 0.89716 0.07764
 H324 H 0.25736 0.89585 0.21034
 C325 C 0.88255 0.50847 0.61967
 C326 C 0.87640 0.53404 0.60011
 N327 N 0.89177 0.54844 0.56002
 C328 C 0.91301 0.53845 0.53870
 C329 C 0.91986 0.51333 0.55872
 N330 N 0.90436 0.49917 0.59895
 N331 N 0.86621 0.49289 0.65875
 C332 C 0.84404 0.50181 0.67943
 C333 C 0.83839 0.52806 0.66069
 N334 N 0.85490 0.54372 0.62135
 H335 H 0.92431 0.54984 0.50639
 H336 H 0.83166 0.48916 0.71086
 C337 C 0.46616 0.34805 0.61011
 C338 C 0.44751 0.31194 0.59879
 N339 N 0.43778 0.30250 0.55559
 C340 C 0.44623 0.32757 0.52323
 C341 C 0.46561 0.36371 0.53454
 N342 N 0.47482 0.37288 0.57789
 N343 N 0.47695 0.35789 0.65273
 C344 C 0.47068 0.33329 0.68456
 C345 C 0.45295 0.29718 0.67336
 N346 N 0.44144 0.28718 0.63065
 H347 H 0.43873 0.31949 0.48895
 H348 H 0.48057 0.34189 0.71808
 C349 C 0.65107 0.08098 0.64985
 C350 C 0.66775 0.11566 0.63254
 N351 N 0.65481 0.12253 0.59513
 C352 C 0.62519 0.09650 0.57486
 C353 C 0.60700 0.06224 0.59352
 N354 N 0.62059 0.05506 0.63047
 N355 N 0.66428 0.07448 0.68751
 C356 C 0.69272 0.10126 0.70928
 C357 C 0.70779 0.13628 0.69350
 N358 N 0.69508 0.14242 0.65515
 H359 H 0.61464 0.10289 0.54587
 H360 H 0.70196 0.09562 0.74004
 C361 C 0.47924 0.13021 0.90809
 C362 C 0.44724 0.13067 0.91064
 N363 N 0.42327 0.11170 0.94350
 C364 C 0.42988 0.09233 0.97374
 C365 C 0.46215 0.09178 0.97116
 N366 N 0.48567 0.11096 0.93792
 N367 N 0.50392 0.14962 0.87646
 C368 C 0.49828 0.16990 0.84724
 C369 C 0.46637 0.17084 0.84946
 N370 N 0.44127 0.15088 0.88109
 H371 H 0.41084 0.07887 1.00048
 H372 H 0.51862 0.18516 0.82240
 C373 C 0.67794 0.59392 0.85618
 C374 C 0.69204 0.57370 0.87335
 N375 N 0.67795 0.55426 0.91109
 C376 C 0.64945 0.55302 0.93167
 C377 C 0.63362 0.57116 0.91295
 N378 N 0.64856 0.59170 0.87587
 N379 N 0.69190 0.61283 0.81787
 C380 C 0.71844 0.61146 0.79519
 C381 C 0.73061 0.58912 0.81071
 N382 N 0.71740 0.57127 0.84986
 H383 H 0.63764 0.53607 0.96063
 H384 H 0.72810 0.62564 0.76385
 C385 C 0.87846 0.36157 0.88928
 C386 C 0.88794 0.33582 0.88207
 N387 N 0.92063 0.34231 0.89546
 C388 C 0.94443 0.37357 0.91525
 C389 C 0.93538 0.40005 0.92156
 N390 N 0.90217 0.39265 0.90862
 N391 N 0.84635 0.35587 0.87504
 C392 C 0.82332 0.32567 0.85314
 C393 C 0.83284 0.29993 0.84484
 N394 N 0.86497 0.30553 0.85997
 H395 H 0.97077 0.37833 0.92345
 H396 H 0.79805 0.32211 0.84173
 C397 C 0.50398 0.85905 0.41525
 C398 C 0.53834 0.86745 0.40307
 N399 N 0.56749 0.90019 0.41737
 C400 C 0.56273 0.92472 0.44171
 C401 C 0.52698 0.91495 0.45182
 N402 N 0.49934 0.88273 0.43869
 N403 N 0.47543 0.82799 0.40185
 C404 C 0.47990 0.80524 0.37567
 C405 C 0.51452 0.81423 0.36163
 N406 N 0.54313 0.84515 0.37628
 H407 H 0.57996 0.91682 0.42663
 H408 H 0.45653 0.78104 0.36462
 C409 C 0.34164 0.43070 0.36901
 C410 C 0.33119 0.41211 0.32846
 N411 N 0.35088 0.39875 0.31116
 C412 C 0.38101 0.40394 0.33202
 C413 C 0.39219 0.42385 0.37148
 N414 N 0.37195 0.43639 0.38927
 N415 N 0.32296 0.44523 0.38567
 C416 C 0.29500 0.44317 0.36287
 C417 C 0.28556 0.42626 0.32114
 N418 N 0.30352 0.41049 0.30523
 H419 H 0.39694 0.39404 0.31702
 H420 H 0.28140 0.45618 0.37610
 C421 C 0.09224 0.64410 0.39766
 C422 C 0.12619 0.64999 0.38591
 N423 N 0.13571 0.62617 0.39804
 C424 C 0.11233 0.59588 0.41982
 C425 C 0.07706 0.58819 0.42884
 N426 N 0.06840 0.61335 0.41867
 N427 N 0.08310 0.66841 0.38571
 C428 C 0.10612 0.69791 0.36179
 C429 C 0.13949 0.70290 0.34831
 N430 N 0.14873 0.67886 0.36123
 H431 H 0.12110 0.57766 0.42937
 H432 H 0.09792 0.71652 0.35200
 C433 C 0.91083 0.58131 0.87390
 C434 C 0.87566 0.55240 0.87555
 N435 N 0.86789 0.52318 0.89965
 C436 C 0.89398 0.52080 0.92108
 C437 C 0.92974 0.54889 0.91818
 N438 N 0.93724 0.57908 0.89554
 N439 N 0.91835 0.60966 0.84744
 C440 C 0.89249 0.60983 0.82166
 C441 C 0.85766 0.58007 0.82210
 N442 N 0.85030 0.55257 0.84981
 H443 H 0.88707 0.49668 0.93921
 H444 H 0.89942 0.63212 0.79973
 C445 C 0.45281 0.35271 0.89383
 C446 C 0.48360 0.35015 0.88908
 N447 N 0.51551 0.37680 0.90353
 C448 C 0.51848 0.40674 0.92077
 C449 C 0.48829 0.41093 0.92262
 N450 N 0.45578 0.38301 0.91047
 N451 N 0.42102 0.32598 0.87849
 C452 C 0.41892 0.29743 0.85739
 C453 C 0.45023 0.29593 0.85044
 N454 N 0.48165 0.32219 0.86728
 H455 H 0.54447 0.42757 0.93191
 H456 H 0.39350 0.27714 0.84415
 C457 C 0.63874 0.12908 0.91638
 C458 C 0.67336 0.13675 0.92740
 N459 N 0.67888 0.12549 0.96735
 C460 C 0.65128 0.10674 0.99654
 C461 C 0.61642 0.09837 0.98495
 N462 N 0.61135 0.11001 0.94502
 N463 N 0.63294 0.14101 0.87739
 C464 C 0.66027 0.16037 0.84860
 C465 C 0.69502 0.16781 0.85888
 N466 N 0.70080 0.15567 0.89818
 H467 H 0.65651 0.09864 1.02845
 H468 H 0.65472 0.16936 0.81756
 C469 C 0.09854 0.41100 0.38449
 C470 C 0.13361 0.43989 0.38817
 N471 N 0.14083 0.46666 0.41656
 C472 C 0.11429 0.46677 0.44022
 C473 C 0.07864 0.43907 0.43491
 N474 N 0.07165 0.41122 0.40786
 N475 N 0.09156 0.38515 0.35421
 C476 C 0.11780 0.38754 0.32658
 C477 C 0.15238 0.41758 0.32872
 N478 N 0.15933 0.44251 0.36020
 H479 H 0.12060 0.48933 0.46118
 H480 H 0.11128 0.36725 0.30176
 C481 C 0.51631 0.62484 0.37236
 C482 C 0.54895 0.65055 0.35327
 N483 N 0.57668 0.64445 0.35162
 C484 C 0.57307 0.61362 0.36768
 C485 C 0.54014 0.58755 0.38600
 N486 N 0.51269 0.59413 0.38813
 N487 N 0.48819 0.63021 0.37301
 C488 C 0.49091 0.65988 0.35466
 C489 C 0.52324 0.68545 0.33450
 N490 N 0.55173 0.68030 0.33472
 H491 H 0.59530 0.60907 0.36514
 H492 H 0.46777 0.66309 0.35497
 C493 C 0.34114 0.87132 0.40107
 C494 C 0.31086 0.87446 0.40633
 N495 N 0.31216 0.89870 0.43565
 C496 C 0.34295 0.92115 0.45791
 C497 C 0.37501 0.92101 0.44853
 N498 N 0.37177 0.89432 0.42199
 N499 N 0.34015 0.84636 0.37368
 C500 C 0.31030 0.82477 0.35014
 C501 C 0.28016 0.82883 0.35312
 N502 N 0.28097 0.85347 0.38179
 H503 H 0.34156 0.93798 0.48301
 H504 H 0.31078 0.80556 0.32792
 C505 C 0.51858 0.88678 0.14161
 C506 C 0.54945 0.89610 0.16657
 N507 N 0.57509 0.93091 0.17035
 C508 C 0.57087 0.95677 0.15100
 C509 C 0.53938 0.94739 0.12728
 N510 N 0.51428 0.91249 0.12281
 N511 N 0.49249 0.85230 0.13840
 C512 C 0.49540 0.82658 0.15982
 C513 C 0.52569 0.83568 0.18608
 N514 N 0.55235 0.87035 0.18838
 H515 H 0.59123 0.98434 0.15530
 H516 H 0.47383 0.79932 0.15714
 C517 C 0.36727 0.48781 0.10409
 C518 C 0.33394 0.45955 0.09086
 N519 N 0.33187 0.44142 0.05307
 C520 C 0.36162 0.45047 0.02788
 C521 C 0.39512 0.47870 0.04141
 N522 N 0.39679 0.49631 0.07954
 N523 N 0.36962 0.50698 0.14066
 C524 C 0.34008 0.49916 0.16496
 C525 C 0.30655 0.47044 0.15262
 N526 N 0.30427 0.45110 0.11575
 H527 H 0.35907 0.43621 -0.00264
 H528 H 0.34295 0.51476 0.19431
 C529 C 0.09010 0.67051 0.11380
 C530 C 0.12535 0.69512 0.10092
 N531 N 0.13831 0.69093 0.06154
 C532 C 0.11799 0.66250 0.03509
 C533 C 0.08378 0.63621 0.04964
 N534 N 0.07033 0.64130 0.08832
 N535 N 0.07720 0.67492 0.15318
 C536 C 0.09843 0.70210 0.18106
 C537 C 0.13452 0.72505 0.16977
 N538 N 0.14692 0.72116 0.12961
 H539 H 0.12909 0.65938 0.00418
 H540 H 0.08808 0.70399 0.21323
 C541 C 0.47051 0.12702 0.61420
 C542 C 0.43914 0.11444 0.63973
 N543 N 0.41425 0.07927 0.63946
 C544 C 0.41980 0.05597 0.61583
 C545 C 0.45191 0.06834 0.59184
 N546 N 0.47613 0.10378 0.59093
 N547 N 0.49612 0.16184 0.61578
 C548 C 0.49221 0.18463 0.64258
 C549 C 0.46135 0.17200 0.66931
 N550 N 0.43525 0.13718 0.66668
 H551 H 0.40019 0.02791 0.61739
 H552 H 0.51340 0.21214 0.64383
 C553 C 0.64610 0.51438 0.59503
 C554 C 0.68039 0.54031 0.58040
 N555 N 0.68433 0.55505 0.53918
 C556 C 0.65557 0.54480 0.51194
 C557 C 0.62120 0.51877 0.52670
 N558 N 0.61758 0.50458 0.56820
 N559 N 0.64185 0.49858 0.63530
 C560 C 0.67041 0.50737 0.66182
 C561 C 0.70491 0.53348 0.64773
 N562 N 0.70912 0.54964 0.60726
 H563 H 0.65951 0.55639 0.47894
 H564 H 0.66608 0.49432 0.69391
 C565 C 0.87752 0.31007 0.60032
 C566 C 0.89172 0.31206 0.64308
 N567 N 0.92525 0.33889 0.65253
 C568 C 0.94487 0.36431 0.62157
 C569 C 0.93022 0.36308 0.57935
 N570 N 0.89701 0.33559 0.56954
 N571 N 0.84333 0.28446 0.59154
 C572 C 0.82229 0.26140 0.62393
 C573 C 0.83596 0.26410 0.66714
 N574 N 0.87059 0.28915 0.67557
 H575 H 0.97107 0.38611 0.63035
 H576 H 0.79462 0.24218 0.61665
   
