data_POSCAR
  _audit_creation_date              2014-09-24
  _audit_creation_method            'ToBaCCo'
  _symmetry_space_group_name_H-M    'P1'
  _symmetry_Int_Tables_number       1
  _symmetry_cell_setting            triclinic
  loop_
  _symmetry_equiv_pos_as_xyz
 x,y,z
_cell_length_a 25.2068
_cell_length_b 25.2004
_cell_length_c 24.2660
_cell_angle_alpha 87.510500
_cell_angle_beta 90.536700
_cell_angle_gamma 120.252900
loop_
  _atom_site_label
  _atom_site_type_symbol
  _atom_site_fract_x
  _atom_site_fract_y
  _atom_site_fract_z
C1 C 0.51190 0.08314 0.07403
 H2 H 0.55507 0.08364 0.07440
 C3 C 0.50350 0.12187 0.10763
 H4 H 0.54027 0.15225 0.13407
 C5 C 0.41229 0.04495 0.03724
 H6 H 0.37748 0.01596 0.00879
 C7 C 0.40213 0.08344 0.06993
 H8 H 0.35928 0.08353 0.06699
 N9 N 0.46646 0.04533 0.04009
 C10 C 0.51294 -0.09494 0.00564
 H11 H 0.51340 -0.09188 -0.03898
 C12 C 0.52267 -0.13900 0.03326
 H13 H 0.53078 -0.16998 0.00993
 C14 C 0.49978 -0.05968 0.09068
 H15 H 0.48932 -0.02980 0.11291
 C16 C 0.50980 -0.10274 0.11994
 H17 H 0.50746 -0.10557 0.16459
 Zn18 Zn 0.48506 -0.00126 -0.00685
 N19 N 0.50187 -0.05635 0.03453
 C20 C 0.60972 0.05826 -0.04375
 N21 N 0.55481 0.05597 -0.04910
 C22 C 0.54917 0.09823 -0.08145
 C23 C 0.59996 0.14507 -0.11026
 C24 C 0.66203 0.10507 -0.07122
 C25 C 0.36488 -0.09286 -0.02785
 C26 C 0.31461 -0.13208 -0.05924
 C27 C 0.37478 -0.08114 -0.14169
 C28 C 0.42382 -0.04291 -0.10861
 N29 N 0.41795 -0.04910 -0.05278
 H30 H 0.61347 0.02499 -0.01692
 H31 H 0.50518 0.09588 -0.08426
 H32 H 0.59476 0.17828 -0.13608
 H33 H 0.70581 0.10731 -0.06584
 H34 H 0.36217 -0.09826 0.01669
 H35 H 0.27487 -0.16889 -0.03757
 H36 H 0.38103 -0.07330 -0.18597
 H37 H 0.46685 -0.00894 -0.12781
 C38 C 0.52133 -0.14289 0.09101
 C39 C 0.44805 0.12211 0.10578
 C40 C 0.31820 -0.12674 -0.11753
 C41 C 0.65755 0.14981 -0.10405
 C42 C -0.03749 0.52541 0.55723
 H43 H 0.00094 0.52469 0.53887
 C44 C -0.08143 0.52735 0.52313
 H45 H -0.07585 0.52934 0.47875
 C46 C -0.09334 0.52140 0.63692
 H47 H -0.09813 0.51784 0.68139
 C48 C -0.13897 0.52202 0.60431
 H49 H -0.17882 0.51927 0.62378
 N50 N -0.04449 0.52182 0.61306
 C51 C 0.06348 0.44073 0.62424
 H52 H 0.02990 0.40315 0.65047
 C53 C 0.10865 0.43472 0.59684
 H54 H 0.10958 0.39228 0.60180
 C55 C 0.10509 0.54286 0.58727
 H56 H 0.10399 0.58526 0.58466
 C57 C 0.15029 0.53851 0.55864
 H58 H 0.18346 0.57739 0.53315
 Zn59 Zn 0.00779 0.50772 0.66032
 N60 N 0.06284 0.49440 0.61915
 C61 C -0.09047 0.38912 0.68170
 N62 N -0.04382 0.43805 0.70635
 C63 C -0.03929 0.43976 0.76224
 C64 C -0.08411 0.39184 0.79564
 C65 C -0.13696 0.34087 0.71358
 C66 C 0.04912 0.62667 0.70115
 C67 C 0.08828 0.67805 0.73102
 C68 C 0.14111 0.62525 0.76364
 C69 C 0.10113 0.57506 0.73324
 N70 N 0.05611 0.57647 0.70304
 H71 H -0.09322 0.38921 0.63718
 H72 H -0.00234 0.47922 0.78114
 H73 H -0.08077 0.39422 0.84009
 H74 H -0.17538 0.30356 0.69349
 H75 H 0.01387 0.62729 0.67592
 H76 H 0.08305 0.71819 0.72886
 H77 H 0.17707 0.62378 0.78726
 H78 H 0.10633 0.53499 0.73310
 C79 C 0.15336 0.48453 0.56445
 C80 C -0.13402 0.52323 0.54673
 C81 C 0.13468 0.67731 0.76282
 C82 C -0.13503 0.34307 0.77123
 C83 C 0.55714 0.45174 0.39587
 H84 H 0.51311 0.40964 0.39864
 C85 C 0.60701 0.45565 0.42460
 H86 H 0.60106 0.41677 0.45035
 C87 C 0.61866 0.55348 0.35837
 H88 H 0.62308 0.59108 0.33181
 C89 C 0.67013 0.55904 0.38585
 H90 H 0.71398 0.60115 0.38069
 N91 N 0.56363 0.50030 0.36379
 C92 C 0.38017 0.47429 0.34620
 H93 H 0.37824 0.47808 0.30173
 C94 C 0.33431 0.47324 0.37888
 H95 H 0.29685 0.47599 0.35948
 C96 C 0.43329 0.46984 0.42581
 H97 H 0.47276 0.47052 0.44414
 C98 C 0.38780 0.46739 0.45997
 H99 H 0.39204 0.46499 0.50434
 Zn100 Zn 0.49453 0.48781 0.32269
 N101 N 0.42904 0.47385 0.37000
 C102 C 0.41666 0.36719 0.28455
 N103 N 0.47277 0.41919 0.27987
 C104 C 0.51819 0.42223 0.24771
 C105 C 0.50830 0.37151 0.21881
 C106 C 0.40487 0.31510 0.25643
 C107 C 0.52384 0.60945 0.30275
 C108 C 0.53205 0.66114 0.27185
 C109 C 0.51989 0.60687 0.18872
 C110 C 0.51128 0.55594 0.22122
 N111 N 0.51340 0.55814 0.27717
 H112 H 0.38167 0.36551 0.31119
 H113 H 0.56266 0.46382 0.24561
 H114 H 0.54513 0.37405 0.19408
 H115 H 0.36062 0.27338 0.26105
 H116 H 0.52395 0.60943 0.34733
 H117 H 0.53826 0.70094 0.29278
 H118 H 0.51724 0.60432 0.14426
 H119 H 0.50133 0.51428 0.20168
 C120 C 0.33890 0.47153 0.43648
 C121 C 0.66466 0.50925 0.41865
 C122 C 0.53024 0.66019 0.21409
 C123 C 0.45147 0.31705 0.22378
 C124 C 0.23137 0.43189 0.46707
 C125 C 0.18676 0.43425 0.49862
 C126 C 0.20310 0.48052 0.53621
 C127 C 0.26610 0.52433 0.54322
 C128 C 0.31136 0.52332 0.50966
 C129 C 0.29369 0.47600 0.47178
 C130 C 0.37277 0.57083 0.51444
 N131 N 0.38793 0.61358 0.55277
 N132 N 0.34589 0.61243 0.58636
 C133 C 0.28564 0.56927 0.58302
 H134 H 0.21708 0.39553 0.43833
 H135 H 0.13888 0.40044 0.49274
 H136 H 0.40891 0.57493 0.48790
 H137 H 0.25377 0.57033 0.61182
 C138 C 0.48376 0.70025 0.14628
 C139 C 0.48143 0.74763 0.11681
 C140 C 0.52835 0.80875 0.12106
 C141 C 0.57987 0.82219 0.15413
 C142 C 0.58268 0.77380 0.18368
 C143 C 0.53332 0.71242 0.18063
 C144 C 0.63565 0.78855 0.21432
 N145 N 0.68174 0.84784 0.21602
 N146 N 0.67870 0.89327 0.18884
 C147 C 0.62950 0.88250 0.15786
 H148 H 0.44565 0.65372 0.14332
 H149 H 0.44189 0.73669 0.09146
 H150 H 0.64135 0.75355 0.23626
 H151 H 0.62997 0.92104 0.13598
 C152 C 0.24012 0.76271 0.77479
 C153 C 0.28503 0.81217 0.80269
 C154 C 0.27093 0.83249 0.85091
 C155 C 0.20732 0.80520 0.86620
 C156 C 0.16190 0.75355 0.83826
 C157 C 0.17897 0.73186 0.79280
 C158 C 0.10046 0.72542 0.85665
 N159 N 0.08472 0.75064 0.89699
 N160 N 0.12620 0.80206 0.91996
 C161 C 0.18651 0.83060 0.90547
 H162 H 0.25364 0.74708 0.73948
 H163 H 0.33191 0.83035 0.78864
 H164 H 0.06464 0.68414 0.83890
 H165 H 0.21727 0.87371 0.92384
 C166 C 0.74993 0.55981 0.48435
 C167 C 0.79763 0.56250 0.51587
 C168 C 0.81535 0.51829 0.51157
 C169 C 0.78433 0.47044 0.47424
 C170 C 0.73723 0.46902 0.44075
 C171 C 0.71869 0.51308 0.44723
 C172 C 0.71039 0.42349 0.40149
 N173 N 0.72703 0.38023 0.39861
 N174 N 0.76880 0.37954 0.43211
 C175 C 0.79776 0.42285 0.46992
 H176 H 0.73639 0.59383 0.48983
 H177 H 0.82074 0.59925 0.54420
 H178 H 0.67671 0.42204 0.37277
 H179 H 0.83050 0.41914 0.49642
 C180 C 0.43812 0.26116 0.13892
 C181 C 0.43670 0.21366 0.11042
 C182 C 0.44039 0.16597 0.13867
 C183 C 0.44238 0.16452 0.19707
 C184 C 0.44391 0.21292 0.22609
 C185 C 0.44263 0.26196 0.19646
 C186 C 0.44829 0.21128 0.28390
 N187 N 0.44938 0.16344 0.31060
 N188 N 0.44667 0.11737 0.28342
 C189 C 0.44320 0.11624 0.22765
 H190 H 0.43746 0.29858 0.11579
 H191 H 0.43538 0.21550 0.06577
 H192 H 0.45083 0.24746 0.30815
 H193 H 0.44071 0.07746 0.20779
 C194 C -0.20450 0.23394 0.80081
 C195 C -0.25382 0.18749 0.83139
 C196 C -0.28728 0.20142 0.86801
 C197 C -0.26944 0.26386 0.87492
 C198 C -0.22070 0.31101 0.84228
 C199 C -0.18734 0.29578 0.80553
 C200 C -0.20800 0.37185 0.84683
 N201 N -0.23915 0.38467 0.88419
 N202 N -0.28245 0.34084 0.91702
 C203 C -0.29851 0.28102 0.91382
 H204 H -0.17968 0.22148 0.77287
 H205 H -0.26675 0.14009 0.82563
 H206 H -0.17410 0.40938 0.82086
 H207 H -0.33352 0.24765 0.94202
   
