data_POSCAR
  _audit_creation_date              2014-09-24
  _audit_creation_method            'ToBaCCo'
  _symmetry_space_group_name_H-M    'P1'
  _symmetry_Int_Tables_number       1
  _symmetry_cell_setting            triclinic
  loop_
  _symmetry_equiv_pos_as_xyz
 x,y,z
_cell_length_a 45.2201
_cell_length_b 45.1845
_cell_length_c 45.1706
_cell_angle_alpha 90.114100
_cell_angle_beta 90.204800
_cell_angle_gamma 90.101400
loop_
  _atom_site_label
  _atom_site_type_symbol
  _atom_site_fract_x
  _atom_site_fract_y
  _atom_site_fract_z
C1 C 0.20548 0.52243 1.03715
 H2 H 0.20452 0.53917 1.02008
 C3 C 0.18571 0.52343 1.06078
 H4 H 0.16940 0.54088 1.06070
 C5 C 0.22676 0.47837 1.05557
 H6 H 0.24257 0.46064 1.05330
 C7 C 0.20736 0.47840 1.07957
 H8 H 0.20985 0.46105 1.09581
 N9 N 0.22554 0.50023 1.03502
 C10 C 0.29457 0.53485 0.97753
 H11 H 0.29462 0.51786 0.96061
 C12 C 0.31504 0.55795 0.97636
 H13 H 0.33050 0.55884 0.95814
 C14 C 0.27443 0.55397 1.02198
 H15 H 0.25906 0.55193 1.04011
 C16 C 0.29455 0.57748 1.02168
 H17 H 0.29440 0.59334 1.03967
 Zn18 Zn 0.24989 0.49961 1.00104
 N19 N 0.27479 0.53328 1.00006
 C20 C 0.22492 0.52071 0.94710
 N21 N 0.22446 0.49880 0.96770
 C22 C 0.20441 0.47640 0.96613
 C23 C 0.18383 0.47531 0.94306
 C24 C 0.20471 0.52050 0.92363
 C25 C 0.29549 0.46480 1.02343
 C26 C 0.31603 0.44181 1.02419
 C27 C 0.29409 0.42194 0.97952
 C28 C 0.27393 0.44535 0.97962
 N29 N 0.27496 0.46614 1.00143
 H30 H 0.24050 0.53875 0.94914
 H31 H 0.20428 0.45947 0.98305
 H32 H 0.16818 0.45716 0.94213
 H33 H 0.20500 0.53846 0.90781
 H34 H 0.29606 0.48187 1.04026
 H35 H 0.33207 0.44108 1.04202
 H36 H 0.29336 0.40596 0.96164
 H37 H 0.25796 0.44721 0.96189
 C38 C 0.31538 0.57954 0.99877
 C39 C 0.18607 0.50107 1.08263
 C40 C 0.31565 0.42009 1.00191
 C41 C 0.18367 0.49767 0.92150
 C42 C 0.79515 0.52406 -0.03541
 H43 H 0.79551 0.54071 -0.01815
 C44 C 0.81548 0.52546 -0.05852
 H45 H 0.83115 0.54359 -0.05916
 C46 C 0.77436 0.48006 -0.05518
 H47 H 0.75880 0.46200 -0.05340
 C48 C 0.79432 0.48059 -0.07872
 H49 H 0.79386 0.46285 -0.09486
 N50 N 0.77511 0.50165 -0.03416
 C51 C 0.70559 0.53487 0.02356
 H52 H 0.70546 0.51760 0.04012
 C53 C 0.68513 0.55788 0.02514
 H54 H 0.66959 0.55842 0.04331
 C55 C 0.72592 0.55480 -0.02039
 H56 H 0.74136 0.55312 -0.03850
 C57 C 0.70581 0.57824 -0.01968
 H58 H 0.70605 0.59441 -0.03734
 Zn59 Zn 0.75040 0.50022 -0.00049
 N60 N 0.72547 0.53375 0.00109
 C61 C 0.77513 0.52042 0.05406
 N62 N 0.77559 0.49886 0.03300
 C63 C 0.79564 0.47651 0.03410
 C64 C 0.81626 0.47513 0.05711
 C65 C 0.79538 0.51991 0.07749
 C66 C 0.70522 0.46545 -0.02420
 C67 C 0.68471 0.44238 -0.02561
 C68 C 0.70603 0.42210 0.01907
 C69 C 0.72617 0.44559 0.01962
 N70 N 0.72542 0.46663 -0.00187
 H71 H 0.75955 0.53844 0.05238
 H72 H 0.79577 0.45989 0.01683
 H73 H 0.83192 0.45705 0.05764
 H74 H 0.79511 0.53762 0.09366
 H75 H 0.70487 0.48270 -0.04077
 H76 H 0.66891 0.44179 -0.04366
 H77 H 0.70650 0.40594 0.03673
 H78 H 0.74187 0.44733 0.03760
 C79 C 0.68489 0.57986 0.00319
 C80 C 0.81541 0.50339 -0.08046
 C81 C 0.68477 0.42042 -0.00364
 C82 C 0.81646 0.49716 0.07909
 C83 C -0.02296 0.29469 0.46358
 H84 H -0.03961 0.29570 0.48070
 C85 C -0.02397 0.31453 0.43996
 H86 H -0.04133 0.33093 0.44009
 C87 C 0.02089 0.27324 0.44504
 H88 H 0.03856 0.25735 0.44727
 C89 C 0.02086 0.29270 0.42105
 H90 H 0.03812 0.29015 0.40477
 N91 N -0.00085 0.27453 0.46566
 C92 C -0.03505 0.20561 0.52364
 H93 H -0.01789 0.20554 0.54038
 C94 C -0.05818 0.18520 0.52512
 H95 H -0.05890 0.16976 0.54340
 C96 C -0.05462 0.22576 0.47933
 H97 H -0.05276 0.24112 0.46114
 C98 C -0.07817 0.20570 0.47994
 H99 H -0.09424 0.20587 0.46211
 Zn100 Zn -0.00002 0.25020 0.49970
 N101 N -0.03370 0.22537 0.50104
 C102 C -0.02061 0.27533 0.55366
 N103 N 0.00115 0.27569 0.53295
 C104 C 0.02358 0.29573 0.53431
 C105 C 0.02484 0.31640 0.55728
 C106 C -0.02021 0.29563 0.57703
 C107 C 0.03439 0.20446 0.47714
 C108 C 0.05738 0.18395 0.47611
 C109 C 0.07788 0.20598 0.52045
 C110 C 0.05445 0.22612 0.52063
 N111 N 0.03336 0.22504 0.49910
 H112 H -0.03868 0.25977 0.55178
 H113 H 0.04037 0.29578 0.51731
 H114 H 0.04300 0.33204 0.55804
 H115 H -0.03807 0.29543 0.59294
 H116 H 0.01710 0.20387 0.46053
 H117 H 0.05787 0.16789 0.45830
 H118 H 0.09413 0.20676 0.53809
 H119 H 0.05285 0.24214 0.53832
 C120 C -0.08002 0.18489 0.50293
 C121 C -0.00169 0.31413 0.41808
 C122 C 0.07943 0.18440 0.49808
 C123 C 0.00263 0.31667 0.57894
 C124 C 0.97729 0.70565 0.53562
 H125 H 0.96034 0.70469 0.51868
 C126 C 0.97659 0.68584 0.55928
 H127 H 0.95906 0.66953 0.56028
 C128 C 1.02152 0.72725 0.55395
 H129 H 1.03928 0.74305 0.55153
 C130 C 1.02169 0.70783 0.57797
 H131 H 1.03936 0.70934 0.59414
 N132 N 0.99945 0.72590 0.53344
 C133 C 0.96473 0.79546 0.47647
 H134 H 0.98173 0.79576 0.45968
 C135 C 0.94167 0.81589 0.47534
 H136 H 0.94082 0.83158 0.45727
 C137 C 0.94552 0.77469 0.52054
 H138 H 0.94750 0.75906 0.53850
 C139 C 0.92204 0.79476 0.52028
 H140 H 0.90613 0.79433 0.53813
 Zn141 Zn 0.99980 0.75047 0.49957
 N142 N 0.96623 0.77537 0.49878
 C143 C 0.97820 0.72617 0.44547
 N144 N 1.00024 0.72532 0.46602
 C145 C 1.02247 0.70519 0.46414
 C146 C 1.02330 0.68501 0.44072
 C147 C 0.97814 0.70637 0.42169
 C148 C 1.03469 0.79609 0.52206
 C149 C 1.05773 0.81664 0.52298
 C150 C 1.07751 0.79482 0.47839
 C151 C 1.05405 0.77464 0.47833
 N152 N 1.03329 0.77560 0.50003
 H153 H 0.96038 0.74188 0.44766
 H154 H 1.03940 0.70463 0.48112
 H155 H 1.04090 0.66882 0.43994
 H156 H 0.96051 0.70750 0.40546
 H157 H 1.01766 0.79659 0.53881
 H158 H 1.05852 0.83264 0.54084
 H159 H 1.09349 0.79414 0.46061
 H160 H 1.05215 0.75869 0.46058
 C161 C 0.92004 0.81588 0.49757
 C162 C 0.99908 0.68667 0.58080
 C163 C 1.07943 0.81633 0.50082
 C164 C 1.00085 0.68534 0.41915
 C165 C 0.46338 -0.02064 0.29448
 H166 H 0.48041 -0.03740 0.29558
 C167 C 0.43978 -0.02141 0.31428
 H168 H 0.43891 -0.03879 0.33072
 C169 C 0.44478 0.02316 0.27253
 H170 H 0.44708 0.04078 0.25658
 C171 C 0.42081 0.02328 0.29195
 H172 H 0.40454 0.04076 0.29033
 N173 N 0.46539 0.00132 0.27405
 C174 C 0.52231 -0.03447 0.20510
 H175 H 0.53917 -0.01746 0.20446
 C176 C 0.52338 -0.05811 0.18521
 H177 H 0.54100 -0.05811 0.16912
 C178 C 0.47794 -0.05277 0.22575
 H179 H 0.46008 -0.05046 0.24138
 C180 C 0.47803 -0.07677 0.20622
 H181 H 0.46057 -0.09297 0.20844
 Zn182 Zn 0.49932 0.00155 0.24966
 N183 N 0.49994 -0.03229 0.22493
 C184 C 0.55322 -0.01973 0.27462
 N185 N 0.53257 0.00212 0.27520
 C186 C 0.53400 0.02438 0.29544
 C187 C 0.55701 0.02543 0.31607
 C188 C 0.57664 -0.01955 0.29489
 C189 C 0.47751 0.03694 0.20397
 C190 C 0.47693 0.06040 0.18393
 C191 C 0.52160 0.07950 0.20647
 C192 C 0.52130 0.05567 0.22612
 N193 N 0.49936 0.03508 0.22463
 H194 H 0.55129 -0.03765 0.25888
 H195 H 0.51705 0.04125 0.29564
 H196 H 0.55785 0.04348 0.33184
 H197 H 0.59254 -0.03743 0.29449
 H198 H 0.46066 0.01993 0.20291
 H199 H 0.45961 0.06118 0.16734
 H200 H 0.53913 0.09578 0.20812
 H201 H 0.53883 0.05350 0.24225
 C202 C 0.50092 -0.07992 0.18521
 C203 C 0.41814 0.00083 0.31326
 C204 C 0.49925 0.08205 0.18495
 C205 C 0.57865 0.00316 0.31610
 C206 C 0.53420 -0.02505 0.70429
 H207 H 0.51714 -0.04187 0.70390
 C208 C 0.55715 -0.02603 0.68377
 H209 H 0.55785 -0.04399 0.66788
 C210 C 0.55374 0.01886 0.72549
 H211 H 0.55196 0.03669 0.74134
 C212 C 0.57711 0.01875 0.70534
 H213 H 0.59312 0.03659 0.70594
 N214 N 0.53295 -0.00292 0.72467
 C215 C 0.47780 -0.03799 0.79539
 H216 H 0.46108 -0.02092 0.79642
 C217 C 0.47716 -0.06146 0.81541
 H218 H 0.45991 -0.06219 0.83195
 C219 C 0.52140 -0.05682 0.77337
 H220 H 0.53890 -0.05465 0.75732
 C221 C 0.52163 -0.08066 0.79301
 H222 H 0.53907 -0.09697 0.79143
 Zn223 Zn 0.49979 -0.00242 0.75008
 N224 N 0.49961 -0.03615 0.77483
 C225 C 0.44506 -0.02359 0.72676
 N226 N 0.46577 -0.00175 0.72560
 C227 C 0.46379 0.02050 0.70548
 C228 C 0.44014 0.02153 0.68558
 C229 C 0.42104 -0.02343 0.70722
 C230 C 0.52337 0.03280 0.79513
 C231 C 0.52461 0.05600 0.81554
 C232 C 0.47930 0.07530 0.79473
 C233 C 0.47893 0.05171 0.77469
 N234 N 0.50083 0.03111 0.77520
 H235 H 0.44734 -0.04143 0.74247
 H236 H 0.48088 0.03725 0.70468
 H237 H 0.43930 0.03913 0.66936
 H238 H 0.40471 -0.04093 0.70854
 H239 H 0.54027 0.01589 0.79530
 H240 H 0.54285 0.05703 0.83109
 H241 H 0.46135 0.09113 0.79441
 H242 H 0.46079 0.04958 0.75921
 C243 C 0.49936 -0.08314 0.81447
 C244 C 0.57893 -0.00383 0.68400
 C245 C 0.50226 0.07755 0.81565
 C246 C 0.41842 -0.00072 0.68619
 Si247 Si 0.25024 0.00066 0.49924
 Si248 Si 0.74970 0.00005 0.50053
 Si249 Si 0.50004 0.25001 0.99870
 Si250 Si 0.50029 0.74978 0.00157
 Si251 Si 1.00111 0.49917 0.25013
 Si252 Si -0.00022 0.50131 0.74975
 C253 C 0.15491 0.14827 0.50583
 C254 C 0.14828 0.11886 0.49855
 C255 C 0.11929 0.11094 0.49105
 C256 C 0.09697 0.13226 0.49083
 C257 C 0.10334 0.16189 0.49811
 C258 C 0.13258 0.16967 0.50564
 C259 C 0.17097 0.09656 0.49895
 C260 C 0.18927 0.07720 0.49917
 C261 C 0.20983 0.05374 0.49930
 C262 C 0.22659 0.03305 0.49933
 H263 H 0.17730 0.15464 0.51164
 H264 H 0.11388 0.08821 0.48552
 H265 H 0.07462 0.12544 0.48542
 H266 H 0.13822 0.19235 0.51106
 C267 C 0.64812 0.65507 -0.00432
 C268 C 0.61895 0.64833 0.00348
 C269 C 0.61143 0.61938 0.01142
 C270 C 0.63290 0.59720 0.01148
 C271 C 0.66229 0.60367 0.00360
 C272 C 0.66968 0.63289 -0.00429
 C273 C 0.59646 0.67083 0.00299
 C274 C 0.57697 0.68899 0.00263
 C275 C 0.55341 0.70943 0.00225
 C276 C 0.53267 0.72613 0.00195
 H277 H 0.65418 0.67743 -0.01049
 H278 H 0.58888 0.61388 0.01735
 H279 H 0.62638 0.57487 0.01718
 H280 H 0.69216 0.63862 -0.01017
 C281 C 0.84480 -0.14769 0.50591
 C282 C 0.85132 -0.11843 0.49813
 C283 C 0.88015 -0.11073 0.49003
 C284 C 0.90241 -0.13210 0.48974
 C285 C 0.89616 -0.16158 0.49756
 C286 C 0.86708 -0.16916 0.50566
 C287 C 0.82873 -0.09604 0.49874
 C288 C 0.81051 -0.07661 0.49917
 C289 C 0.79004 -0.05308 0.49962
 C290 C 0.77332 -0.03235 0.49999
 H291 H 0.82255 -0.15389 0.51221
 H292 H 0.88548 -0.08811 0.48411
 H293 H 0.92464 -0.12544 0.48389
 H294 H 0.86152 -0.19171 0.51151
 C295 C 0.35211 0.34487 0.99293
 C296 C 0.38147 0.35151 1.00032
 C297 C 0.38925 0.38042 1.00832
 C298 C 0.36783 0.40265 1.00893
 C299 C 0.33825 0.39627 1.00153
 C300 C 0.33061 0.36711 0.99350
 C301 C 0.40386 0.32892 0.99954
 C302 C 0.42330 0.31071 0.99906
 C303 C 0.44683 0.29024 0.99870
 C304 C 0.46758 0.27355 0.99857
 H305 H 0.34584 0.32254 0.98673
 H306 H 0.41194 0.38584 1.01395
 H307 H 0.37454 0.42494 1.01472
 H308 H 0.30797 0.36145 0.98797
 C309 C 0.88008 0.11149 0.51132
 C310 C 0.85122 0.11900 0.50304
 C311 C 0.84467 0.14815 0.49494
 C312 C 0.86695 0.16970 0.49502
 C313 C 0.89606 0.16231 0.50326
 C314 C 0.90234 0.13294 0.51144
 C315 C 0.82864 0.09651 0.50249
 C316 C 0.81044 0.07699 0.50207
 C317 C 0.78998 0.05338 0.50160
 C318 C 0.77329 0.03257 0.50119
 H319 H 0.88543 0.08895 0.51748
 H320 H 0.82239 0.15421 0.48850
 H321 H 0.86136 0.19216 0.48890
 H322 H 0.92460 0.12641 0.51740
 C323 C 0.38886 0.61937 -0.00897
 C324 C 0.38141 0.64818 -0.00044
 C325 C 0.35228 0.65472 0.00764
 C326 C 0.33070 0.63248 0.00728
 C327 C 0.33802 0.60341 -0.00123
 C328 C 0.36736 0.59714 -0.00937
 C329 C 0.40391 0.67074 0.00028
 C330 C 0.42343 0.68894 0.00076
 C331 C 0.44703 0.70941 0.00119
 C332 C 0.46782 0.72613 0.00144
 H333 H 0.41137 0.61403 -0.01513
 H334 H 0.34627 0.67696 0.01426
 H335 H 0.30826 0.63805 0.01338
 H336 H 0.37384 0.57492 -0.01554
 C337 C 0.11940 -0.11010 0.50775
 C338 C 0.14828 -0.11789 0.50000
 C339 C 0.15479 -0.14725 0.49256
 C340 C 0.13246 -0.16873 0.49286
 C341 C 0.10334 -0.16108 0.50066
 C342 C 0.09709 -0.13149 0.50808
 C343 C 0.17096 -0.09551 0.49951
 C344 C 0.18925 -0.07608 0.49925
 C345 C 0.20980 -0.05255 0.49911
 C346 C 0.22657 -0.03179 0.49909
 H347 H 0.11408 -0.08741 0.51341
 H348 H 0.17709 -0.15352 0.48654
 H349 H 0.13802 -0.19137 0.48731
 H350 H 0.07483 -0.12478 0.51370
 C351 C 0.61115 0.38072 0.98870
 C352 C 0.61875 0.35178 0.99658
 C353 C 0.64803 0.34512 1.00417
 C354 C 0.66961 0.36736 1.00397
 C355 C 0.66214 0.39655 0.99613
 C356 C 0.63265 0.40295 0.98847
 C357 C 0.59626 0.32922 0.99718
 C358 C 0.57676 0.31100 0.99763
 C359 C 0.55319 0.29050 0.99807
 C360 C 0.53244 0.27374 0.99838
 H361 H 0.58853 0.38616 0.98292
 H362 H 0.65416 0.32277 1.01028
 H363 H 0.69217 0.36168 1.00969
 H364 H 0.62606 0.42526 0.98282
 C365 C 0.47342 0.14268 1.13288
 C366 C 0.50010 0.15139 1.11991
 C367 C 0.52659 0.13805 1.12877
 C368 C 0.52638 0.11583 1.15026
 C369 C 0.49962 0.10659 1.16313
 C370 C 0.47316 0.12044 1.15436
 C371 C 0.50017 0.17308 1.09662
 C372 C 0.50022 0.19068 1.07660
 C373 C 0.50023 0.21056 1.05255
 C374 C 0.50020 0.22687 1.03148
 H375 H 0.45278 0.15284 1.12616
 H376 H 0.54734 0.14450 1.11873
 H377 H 0.54707 0.10534 1.15622
 H378 H 0.45226 0.11408 1.16411
 C379 C -0.02676 0.63523 0.64189
 C380 C -0.00013 0.62199 0.65050
 C381 C 0.02632 0.63046 0.63692
 C382 C 0.02613 0.65183 0.61458
 C383 C -0.00057 0.66498 0.60546
 C384 C -0.02700 0.65659 0.61954
 C385 C -0.00008 0.59883 0.67233
 C386 C -0.00003 0.57891 0.69004
 C387 C 0.00001 0.55497 0.71005
 C388 C -0.00001 0.53398 0.72646
 H389 H -0.04737 0.62881 0.65224
 H390 H 0.04703 0.62022 0.64328
 H391 H 0.04679 0.65747 0.60391
 H392 H -0.04785 0.66656 0.61326
 C393 C 0.52674 0.86119 -0.12895
 C394 C 0.50024 0.84794 -0.12004
 C395 C 0.47354 0.85656 -0.13315
 C396 C 0.47327 0.87863 -0.15481
 C397 C 0.49974 0.89240 -0.16361
 C398 C 0.52653 0.88324 -0.15061
 C399 C 0.50033 0.82645 -0.09656
 C400 C 0.50038 0.80900 -0.07641
 C401 C 0.50041 0.78925 -0.05226
 C402 C 0.50040 0.77300 -0.03114
 H403 H 0.54752 0.85481 -0.11880
 H404 H 0.45289 0.84646 -0.12640
 H405 H 0.45235 0.88493 -0.16466
 H406 H 0.54723 0.89368 -0.15659
 C407 C 0.97240 0.37052 0.36282
 C408 C 0.99896 0.37836 0.34925
 C409 C 1.02516 0.36437 0.35768
 C410 C 1.02495 0.34290 0.37992
 C411 C 0.99839 0.33499 0.39446
 C412 C 0.97203 0.34910 0.38510
 C413 C 0.99950 0.40164 0.32754
 C414 C 0.99994 0.42164 0.30993
 C415 C 1.00043 0.44563 0.28998
 C416 C 1.00077 0.46662 0.27358
 H417 H 0.95191 0.38108 0.35629
 H418 H 1.04594 0.37050 0.34748
 H419 H 1.04607 0.33386 0.38651
 H420 H 0.95076 0.34327 0.39424
 C421 C 0.47456 0.85926 0.13476
 C422 C 0.50096 0.85062 0.12138
 C423 C 0.52746 0.86426 0.12965
 C424 C 0.52758 0.88679 0.15090
 C425 C 0.50103 0.89632 0.16443
 C426 C 0.47452 0.88174 0.15606
 C427 C 0.50073 0.82858 0.09832
 C428 C 0.50056 0.81067 0.07851
 C429 C 0.50039 0.79037 0.05473
 C430 C 0.50029 0.77365 0.03391
 H431 H 0.45383 0.84901 0.12829
 H432 H 0.54811 0.85758 0.11956
 H433 H 0.54881 0.89595 0.15711
 H434 H 0.45328 0.88846 0.16463
 C435 C -0.00582 0.35363 0.65409
 C436 C 0.00205 0.38285 0.64750
 C437 C 0.01039 0.39034 0.61867
 C438 C 0.01076 0.36879 0.59646
 C439 C 0.00278 0.33937 0.60278
 C440 C -0.00548 0.33200 0.63187
 C441 C 0.00130 0.40538 0.67005
 C442 C 0.00075 0.42486 0.68831
 C443 C 0.00023 0.44836 0.70892
 C444 C -0.00007 0.46903 0.72580
 H445 H -0.01228 0.34758 0.67635
 H446 H 0.01640 0.41292 0.61329
 H447 H 0.01675 0.37529 0.57422
 H448 H -0.01144 0.30949 0.63749
 C449 C 0.49367 0.15307 0.85179
 C450 C 0.50179 0.14685 0.88105
 C451 C 0.51030 0.11814 0.88884
 C452 C 0.51061 0.09569 0.86755
 C453 C 0.50241 0.10164 0.83808
 C454 C 0.49395 0.13061 0.83042
 C455 C 0.50113 0.16965 0.90333
 C456 C 0.50066 0.18810 0.92263
 C457 C 0.50026 0.20889 0.94597
 C458 C 0.50006 0.22591 0.96654
 H459 H 0.48708 0.17524 0.84552
 H460 H 0.51650 0.11305 0.91146
 H461 H 0.51676 0.07355 0.87427
 H462 H 0.48781 0.13595 0.80786
 C463 C 0.97403 0.62821 0.36343
 C464 C 1.00056 0.61982 0.34997
 C465 C 1.02710 0.63336 0.35856
 C466 C 1.02718 0.65497 0.38077
 C467 C 1.00068 0.66330 0.39470
 C468 C 0.97406 0.64982 0.38562
 C469 C 1.00065 0.59652 0.32819
 C470 C 1.00071 0.57654 0.31048
 C471 C 1.00078 0.55259 0.29037
 C472 C 1.00087 0.53165 0.27381
 H473 H 0.95338 0.61774 0.35708
 H474 H 1.04777 0.62702 0.34830
 H475 H 1.04797 0.66519 0.38701
 H476 H 0.95335 0.65543 0.39619
 C477 C 1.13011 0.52720 0.13804
 C478 C 1.12214 0.50064 0.15160
 C479 C 1.13594 0.47435 0.14312
 C480 C 1.15732 0.47448 0.12084
 C481 C 1.16532 0.50105 0.10630
 C482 C 1.15142 0.52749 0.11571
 C483 C 1.09890 0.50021 0.17330
 C484 C 1.07891 0.49988 0.19088
 C485 C 1.05489 0.49955 0.21073
 C486 C 1.03383 0.49934 0.22701
 H487 H 1.11969 0.54777 0.14460
 H488 H 1.12971 0.45357 0.15331
 H489 H 1.16620 0.45331 0.11422
 H490 H 1.15736 0.54877 0.10659
 C491 C 0.61891 -0.01100 0.61066
 C492 C 0.64777 -0.00297 0.61856
 C493 C 0.65428 0.00462 0.64793
 C494 C 0.63196 0.00425 0.66931
 C495 C 0.60284 -0.00376 0.66154
 C496 C 0.59660 -0.01140 0.63195
 C497 C 0.67043 -0.00222 0.59628
 C498 C 0.68873 -0.00165 0.57695
 C499 C 0.70930 -0.00105 0.55355
 C500 C 0.72607 -0.00058 0.53289
 H501 H 0.61360 -0.01678 0.58796
 H502 H 0.67656 0.01085 0.65429
 H503 H 0.63752 0.00995 0.69195
 H504 H 0.57435 -0.01720 0.62515
 C505 C -0.11124 0.51109 0.87978
 C506 C -0.11895 0.50298 0.85086
 C507 C -0.14822 0.49524 0.84421
 C508 C -0.16968 0.49551 0.86647
 C509 C -0.16209 0.50357 0.89565
 C510 C -0.13261 0.51139 0.90202
 C511 C -0.09656 0.50232 0.82830
 C512 C -0.07712 0.50187 0.81012
 C513 C -0.05356 0.50149 0.78973
 C514 C -0.03277 0.50130 0.77312
 H515 H -0.08862 0.51699 0.88520
 H516 H -0.15444 0.48896 0.82188
 H517 H -0.19224 0.48967 0.86081
 H518 H -0.12593 0.51722 0.92432
 C519 C 0.36220 0.02781 0.36960
 C520 C 0.34892 0.00122 0.37826
 C521 C 0.35757 -0.02540 0.36501
 C522 C 0.37972 -0.02550 0.34350
 C523 C 0.39355 0.00107 0.33497
 C524 C 0.38433 0.02777 0.34808
 C525 C 0.32736 0.00111 0.40162
 C526 C 0.30985 0.00101 0.42168
 C527 C 0.29001 0.00088 0.44572
 C528 C 0.27367 0.00078 0.46673
 H529 H 0.35579 0.04852 0.37985
 H530 H 0.34745 -0.04612 0.37156
 H531 H 0.38606 -0.04636 0.33355
 H532 H 0.39481 0.04853 0.34230
 C533 C 0.11025 0.49009 0.88125
 C534 C 0.11788 0.49856 0.85250
 C535 C 0.14711 0.50650 0.84614
 C536 C 0.16860 0.50608 0.86850
 C537 C 0.16110 0.49767 0.89752
 C538 C 0.13167 0.48964 0.90361
 C539 C 0.09548 0.49938 0.82979
 C540 C 0.07610 0.49998 0.81142
 C541 C 0.05268 0.50058 0.79070
 C542 C 0.03205 0.50097 0.77375
 H543 H 0.08767 0.48402 0.88645
 H544 H 0.15326 0.51307 0.82394
 H545 H 0.19112 0.51209 0.86305
 H546 H 0.12506 0.48352 0.92579
 C547 C 0.65401 -0.00524 0.35263
 C548 C 0.64759 0.00256 0.38192
 C549 C 0.61880 0.01072 0.38961
 C550 C 0.59645 0.01103 0.36819
 C551 C 0.60260 0.00317 0.33869
 C552 C 0.63165 -0.00496 0.33113
 C553 C 0.67028 0.00191 0.40433
 C554 C 0.68861 0.00144 0.42376
 C555 C 0.70921 0.00094 0.44729
 C556 C 0.72601 0.00056 0.46804
 H557 H 0.67624 -0.01157 0.34644
 H558 H 0.61356 0.01666 0.41224
 H559 H 0.57424 0.01692 0.37484
 H560 H 0.63713 -0.01083 0.30856
 C561 C 0.89016 0.48944 0.11870
 C562 C 0.88271 0.49743 0.14766
 C563 C 0.85351 0.50510 0.15437
 C564 C 0.83186 0.50489 0.13215
 C565 C 0.83918 0.49695 0.10293
 C566 C 0.86859 0.48920 0.09649
 C567 C 0.90526 0.49802 0.17022
 C568 C 0.92475 0.49844 0.18849
 C569 C 0.94827 0.49883 0.20911
 C570 C 0.96892 0.49905 0.22603
 H571 H 0.91272 0.48360 0.11322
 H572 H 0.84749 0.51129 0.17673
 H573 H 0.80936 0.51067 0.13786
 H574 H 0.87506 0.48346 0.07415
 C575 C 0.35791 0.02607 0.63433
 C576 C 0.34917 -0.00040 0.62073
 C577 C 0.36237 -0.02708 0.62917
 C578 C 0.38452 -0.02727 0.65084
 C579 C 0.39382 -0.00071 0.66431
 C580 C 0.38007 0.02595 0.65599
 C581 C 0.32757 -0.00007 0.59724
 C582 C 0.31004 0.00018 0.57709
 C583 C 0.29015 0.00041 0.55294
 C584 C 0.27376 0.00056 0.53186
 H585 H 0.34784 0.04686 0.62795
 H586 H 0.35590 -0.04768 0.61866
 H587 H 0.39494 -0.04808 0.65644
 H588 H 0.38648 0.04669 0.66621
   
