data_POSCAR
  _audit_creation_date              2014-09-24
  _audit_creation_method            'ToBaCCo'
  _symmetry_space_group_name_H-M    'P1'
  _symmetry_Int_Tables_number       1
  _symmetry_cell_setting            triclinic
  loop_
  _symmetry_equiv_pos_as_xyz
 x,y,z
_cell_length_a 35.0863
_cell_length_b 27.9979
_cell_length_c 15.7920
_cell_angle_alpha 92.301100
_cell_angle_beta 91.103400
_cell_angle_gamma 90.613500
loop_
  _atom_site_label
  _atom_site_type_symbol
  _atom_site_fract_x
  _atom_site_fract_y
  _atom_site_fract_z
C1 C 0.64627 0.30195 0.50235
 C2 C 0.65187 0.27395 0.57383
 C3 C 0.68240 0.24165 0.57351
 C4 C 0.70548 0.23558 0.50166
 C5 C 0.69809 0.26297 0.43026
 C6 C 0.66888 0.29638 0.43115
 C7 C 0.73853 0.20270 0.50139
 C8 C 0.74783 0.17709 0.42612
 C9 C 0.78271 0.15353 0.41905
 C10 C 0.80659 0.15156 0.49139
 C11 C 0.79591 0.17231 0.56980
 C12 C 0.76256 0.19948 0.57358
 H13 H 0.62549 0.33021 0.50213
 H14 H 0.68771 0.22054 0.62846
 H15 H 0.71630 0.26036 0.37567
 H16 H 0.72895 0.17809 0.37108
 H17 H 0.83319 0.13255 0.48750
 H18 H 0.75567 0.21846 0.63232
 C19 C 0.19006 0.84934 0.50103
 C20 C 0.21401 0.84900 0.57331
 C21 C 0.24944 0.82688 0.56658
 C22 C 0.25919 0.80048 0.49230
 C23 C 0.23529 0.80249 0.41974
 C24 C 0.20143 0.82881 0.42290
 C25 C 0.29292 0.76868 0.49457
 C26 C 0.31740 0.76259 0.42528
 C27 C 0.35005 0.73397 0.43146
 C28 C 0.35841 0.71268 0.50907
 C29 C 0.33382 0.71764 0.57808
 C30 C 0.30052 0.74388 0.56860
 H31 H 0.16298 0.86736 0.50440
 H32 H 0.26847 0.82748 0.62154
 H33 H 0.24275 0.78352 0.36138
 H34 H 0.31121 0.78010 0.36674
 H35 H 0.38209 0.68859 0.51391
 H36 H 0.28082 0.74619 0.62065
 C37 C 0.30140 0.38378 -0.49110
 C38 C 0.29569 0.35276 -0.56246
 C39 C 0.26699 0.31749 -0.56087
 C40 C 0.24544 0.31169 -0.48734
 C41 C 0.25362 0.34131 -0.41467
 C42 C 0.28164 0.37720 -0.41656
 C43 C 0.21412 0.27541 -0.48612
 C44 C 0.20724 0.25073 -0.41190
 C45 C 0.17508 0.22104 -0.40598
 C46 C 0.15132 0.21300 -0.47813
 C47 C 0.15880 0.23505 -0.55474
 C48 C 0.19003 0.26666 -0.55769
 H49 H 0.32203 0.41278 -0.49216
 H50 H 0.26216 0.29387 -0.61614
 H51 H 0.23753 0.33766 -0.35742
 H52 H 0.22628 0.25591 -0.35735
 H53 H 0.12882 0.18648 -0.47607
 H54 H 0.19518 0.28489 -0.61567
 C55 C -0.15161 0.78825 -0.52372
 C56 C -0.17564 0.77980 -0.59533
 C57 C -0.20764 0.74986 -0.58822
 C58 C -0.21412 0.72565 -0.51318
 C59 C -0.18975 0.73483 -0.44243
 C60 C -0.15866 0.76642 -0.44671
 C61 C -0.24497 0.68890 -0.51021
 C62 C -0.26634 0.68350 -0.43625
 C63 C -0.29424 0.64730 -0.43280
 C64 C -0.29930 0.61511 -0.50278
 C65 C -0.27965 0.62123 -0.57766
 C66 C -0.25245 0.65797 -0.58131
 H67 H -0.12922 0.81487 -0.52643
 H68 H -0.22685 0.74408 -0.64233
 H69 H -0.19454 0.71684 -0.38404
 H70 H -0.26189 0.70801 -0.38204
 H71 H -0.31930 0.58551 -0.50038
 H72 H -0.23637 0.66133 -0.63867
 N73 N 0.01028 1.05854 0.16920
 N74 N 0.02539 1.07172 0.24357
 N75 N -0.06149 1.07582 0.06142
 N76 N -0.08772 1.10849 0.07579
 N77 N -0.06529 1.04080 0.11384
 N78 N -0.09457 1.04868 0.16354
 N79 N 0.01446 1.09250 0.11497
 N80 N 0.03301 1.12964 0.15113
 C81 C 0.03991 1.11568 0.23124
 C82 C -0.10890 1.09039 0.13770
 N83 N -0.02631 1.04563 -0.16918
 N84 N -0.04853 1.04340 -0.23740
 N85 N 0.03697 1.09640 -0.06030
 N86 N 0.05358 1.13808 -0.07244
 N87 N 0.04967 1.06370 -0.11442
 N88 N 0.07571 1.08228 -0.16294
 N89 N -0.03871 1.07771 -0.11364
 N90 N -0.06973 1.09847 -0.14306
 Mn91 Mn -0.01221 1.08598 0.00058
 C92 C -0.07526 1.07664 -0.22068
 C93 C 0.07857 1.12840 -0.13474
 N94 N -0.05175 0.93942 0.11144
 N95 N -0.07752 0.92064 0.16051
 N96 N 0.03655 0.92538 0.10989
 N97 N 0.06759 0.90452 0.13873
 N98 N 0.02432 0.95745 0.16568
 N99 N 0.04674 0.95955 0.23360
 N100 N -0.03914 0.90679 0.05704
 N101 N -0.05555 0.86502 0.06956
 Mn102 Mn -0.02071 0.99897 0.14034
 C103 C -0.08034 0.87450 0.13236
 C104 C 0.07336 0.92624 0.21628
 N105 N 0.06327 0.96242 -0.11718
 N106 N 0.09214 0.95423 -0.16791
 N107 N -0.01650 0.91078 -0.11836
 N108 N -0.03441 0.87332 -0.15496
 N109 N -0.01221 0.94470 -0.17261
 N110 N -0.02666 0.93120 -0.24744
 N111 N 0.05939 0.92722 -0.06515
 N112 N 0.08514 0.89412 -0.08097
 Mn113 Mn 0.01870 1.00423 -0.14357
 Mn114 Mn 0.01006 0.91720 -0.00409
 Cl115 Cl -0.00104 1.00158 -0.00167
 C116 C 0.10614 0.91213 -0.14329
 C117 C -0.04085 0.88709 -0.23531
 N118 N 0.45000 0.56260 -0.10674
 N119 N 0.42462 0.58205 -0.15708
 N120 N 0.53885 0.57196 -0.11389
 N121 N 0.56718 0.59447 -0.15016
 N122 N 0.52278 0.54027 -0.16720
 N123 N 0.53954 0.54042 -0.24111
 N124 N 0.46624 0.59560 -0.05598
 N125 N 0.45267 0.63816 -0.07257
 C126 C 0.42592 0.62896 -0.13389
 C127 C 0.56727 0.57402 -0.22947
 N128 N 0.57080 0.53729 0.11351
 N129 N 0.60434 0.54003 0.15244
 N130 N 0.49406 0.59307 0.11782
 N131 N 0.47616 0.63054 0.15120
 N132 N 0.49817 0.56000 0.17391
 N133 N 0.48381 0.57422 0.24702
 N134 N 0.56748 0.57107 0.05867
 N135 N 0.59870 0.59797 0.05959
 Mn136 Mn 0.51676 0.58335 0.00182
 C137 C 0.62176 0.57749 0.11717
 C138 C 0.46988 0.61793 0.23188
 N139 N 0.50422 0.44012 -0.16326
 N140 N 0.51813 0.42638 -0.23692
 N141 N 0.43544 0.42800 -0.04822
 N142 N 0.40487 0.39988 -0.05156
 N143 N 0.43175 0.46228 -0.10211
 N144 N 0.39863 0.45852 -0.14274
 N145 N 0.50881 0.40684 -0.10781
 N146 N 0.52655 0.36956 -0.14229
 Mn147 Mn 0.47705 0.50129 -0.13507
 C148 C 0.53221 0.38270 -0.22290
 C149 C 0.38178 0.42004 -0.10949
 N150 N 0.47986 0.45931 0.17757
 N151 N 0.46281 0.45906 0.25112
 N152 N 0.53743 0.40471 0.06503
 N153 N 0.55588 0.36394 0.07033
 N154 N 0.55266 0.43738 0.11769
 N155 N 0.58188 0.41984 0.15940
 N156 N 0.46437 0.42720 0.12417
 N157 N 0.43603 0.40446 0.15988
 Mn158 Mn 0.52545 0.49852 0.14623
 Mn159 Mn 0.48645 0.41613 0.00828
 Cl160 Cl 0.50135 0.49986 0.00534
 C161 C 0.43542 0.42506 0.23900
 C162 C 0.58405 0.37426 0.12826
 C163 C 0.31962 0.35713 0.36159
 C164 C 0.35543 0.37410 0.36830
 C165 C 0.37891 0.38401 0.29470
 C166 C 0.41013 0.41136 0.30688
 H167 H 0.36795 0.38238 0.43045
 H168 H 0.37025 0.37082 0.23171
 H169 H 0.30774 0.34631 0.29984
 H170 H 0.41722 0.42588 0.37001
 C171 C -0.16903 0.80234 0.32802
 C172 C -0.13404 0.81533 0.30442
 C173 C -0.12736 0.84495 0.23129
 C174 C -0.09701 0.83711 0.18320
 H175 H -0.10910 0.80421 0.33975
 H176 H -0.14463 0.87637 0.22327
 H177 H -0.19277 0.80721 0.28432
 H178 H -0.08119 0.80429 0.18874
 C179 C 0.71002 0.58970 0.34835
 C180 C 0.70199 0.60703 0.27251
 C181 C 0.67702 0.57896 0.21295
 C182 C 0.65703 0.59995 0.15226
 H183 H 0.70790 0.64426 0.26084
 H184 H 0.67020 0.54236 0.22764
 H185 H 0.70116 0.55344 0.36079
 H186 H 0.66336 0.63654 0.13696
 C187 C 0.13639 1.22247 0.36620
 C188 C 0.10144 1.20276 0.36696
 C189 C 0.08303 1.17992 0.29069
 C190 C 0.05741 1.14507 0.30088
 H191 H 0.08682 1.19980 0.42625
 H192 H 0.09233 1.18846 0.22797
 H193 H 0.15003 1.22679 0.30593
 H194 H 0.05077 1.13482 0.36450
 C195 C 0.62938 0.28031 -0.35334
 C196 C 0.59531 0.30162 -0.35564
 C197 C 0.57594 0.32064 -0.27972
 C198 C 0.54930 0.35367 -0.29099
 H199 H 0.58181 0.30853 -0.41605
 H200 H 0.58568 0.31196 -0.21671
 H201 H 0.64030 0.26836 -0.29317
 H202 H 0.54211 0.36394 -0.35481
 C203 C 0.20348 0.87077 -0.34885
 C204 C 0.16707 0.87467 -0.32596
 C205 C 0.15571 0.90140 -0.24897
 C206 C 0.13039 0.88233 -0.19788
 H207 H 0.14449 0.85699 -0.36348
 H208 H 0.16408 0.93870 -0.24085
 H209 H 0.22561 0.88200 -0.30318
 H210 H 0.12361 0.84447 -0.20433
 C211 C 0.34070 0.69501 -0.34536
 C212 C 0.37572 0.68522 -0.31656
 C213 C 0.38164 0.65652 -0.24187
 C214 C 0.41107 0.66569 -0.18884
 H215 H 0.40072 0.69838 -0.34790
 H216 H 0.36394 0.62496 -0.23519
 H217 H 0.31677 0.68763 -0.30515
 H218 H 0.42743 0.69854 -0.19305
 C219 C -0.17964 1.16685 -0.35326
 C220 C -0.15943 1.12709 -0.34290
 C221 C -0.13073 1.12188 -0.27448
 C222 C -0.10680 1.08510 -0.28046
 H223 H -0.16303 1.09740 -0.38863
 H224 H -0.12799 1.14847 -0.22287
 H225 H -0.17802 1.19572 -0.30549
 H226 H -0.10936 1.06011 -0.33462
 C227 C 0.68207 0.64312 -0.35629
 C228 C 0.64669 0.62457 -0.36168
 C229 C 0.62349 0.61515 -0.28725
 C230 C 0.59239 0.58739 -0.29804
 H231 H 0.63426 0.61478 -0.42334
 H232 H 0.63223 0.62911 -0.22480
 H233 H 0.69377 0.65547 -0.29518
 H234 H 0.58517 0.57232 -0.36072
 C235 C 0.16804 1.19846 -0.32972
 C236 C 0.13287 1.18612 -0.30666
 C237 C 0.12583 1.15686 -0.23342
 C238 C 0.09572 1.16556 -0.18512
 H239 H 0.10813 1.19760 -0.34232
 H240 H 0.14258 1.12498 -0.22553
 H241 H 0.19157 1.19324 -0.28562
 H242 H 0.08040 1.19876 -0.19050
 C243 C 0.29247 0.40770 -0.34152
 C244 C 0.30213 0.38929 -0.26740
 C245 C 0.32715 0.41734 -0.20766
 C246 C 0.34729 0.39655 -0.14688
 H247 H 0.29708 0.35167 -0.25740
 H248 H 0.33341 0.45422 -0.22149
 H249 H 0.30042 0.44445 -0.35257
 H250 H 0.34146 0.35973 -0.13231
 C251 C -0.13594 0.77914 -0.36837
 C252 C -0.10101 0.79867 -0.37010
 C253 C -0.08262 0.82182 -0.29435
 C254 C -0.05777 0.85738 -0.30500
 H255 H -0.08661 0.80150 -0.42969
 H256 H -0.09156 0.81305 -0.23146
 H257 H -0.14935 0.77509 -0.30775
 H258 H -0.05150 0.86788 -0.36867
 C259 C 0.37275 0.72261 0.35441
 C260 C 0.40814 0.70504 0.35846
 C261 C 0.42660 0.68163 0.28475
 C262 C 0.45257 0.64807 0.29875
 H263 H 0.42306 0.70389 0.41891
 H264 H 0.41694 0.68850 0.22084
 H265 H 0.35880 0.72520 0.29296
 H266 H 0.45951 0.63929 0.36348
 C267 C -0.20707 1.13214 0.34070
 C268 C -0.17067 1.12724 0.31836
 C269 C -0.15941 1.10080 0.24109
 C270 C -0.13382 1.12001 0.19086
 H271 H -0.14788 1.14391 0.35667
 H272 H -0.16756 1.06344 0.23287
 H273 H -0.22928 1.12211 0.29444
 H274 H -0.12717 1.15790 0.19761
 C275 C 0.66317 0.32934 0.36195
 C276 C 0.64919 0.31470 0.28591
 C277 C 0.63291 0.35030 0.22969
 C278 C 0.60846 0.33802 0.16633
 H279 H 0.64538 0.27685 0.27042
 H280 H 0.63748 0.38784 0.24702
 H281 H 0.66392 0.36724 0.37912
 H282 H 0.60327 0.30067 0.14877
 C283 C 0.17733 0.83442 0.34565
 C284 C 0.15780 0.87470 0.33526
 C285 C 0.12880 0.88046 0.26786
 C286 C 0.10510 0.91743 0.27519
 H287 H 0.16201 0.90437 0.38087
 H288 H 0.12559 0.85408 0.21603
 H289 H 0.17523 0.80539 0.29826
 H290 H 0.10805 0.94218 0.32961
   
