data_POSCAR
  _audit_creation_date              2014-09-24
  _audit_creation_method            'ToBaCCo'
  _symmetry_space_group_name_H-M    'P1'
  _symmetry_Int_Tables_number       1
  _symmetry_cell_setting            triclinic
  loop_
  _symmetry_equiv_pos_as_xyz
 x,y,z
_cell_length_a 61.1107
_cell_length_b 33.1290
_cell_length_c 20.4272
_cell_angle_alpha 89.957900
_cell_angle_beta 89.874100
_cell_angle_gamma 90.166300
loop_
  _atom_site_label
  _atom_site_type_symbol
  _atom_site_fract_x
  _atom_site_fract_y
  _atom_site_fract_z
C1 C 0.74958 0.25016 0.47023
 C2 C 0.74944 0.25030 0.53703
 C3 C 0.73107 0.26822 0.57479
 C4 C 0.76763 0.23249 0.57541
 C5 C 0.76907 0.23684 0.43246
 C6 C 0.73024 0.26329 0.43188
 C7 C 0.72447 0.30824 0.56368
 C8 C 0.70658 0.32424 0.59748
 C9 C 0.69525 0.30054 0.64333
 C10 C 0.70215 0.26096 0.65588
 C11 C 0.72003 0.24497 0.62199
 C12 C 0.77855 0.25593 0.62244
 C13 C 0.79634 0.24003 0.65668
 C14 C 0.80324 0.20046 0.64465
 C15 C 0.79204 0.17656 0.59914
 C16 C 0.77424 0.19240 0.56493
 C17 C 0.76699 0.20616 0.38545
 C18 C 0.78540 0.19218 0.35173
 C19 C 0.80602 0.20897 0.36423
 C20 C 0.80812 0.24031 0.40975
 C21 C 0.78972 0.25435 0.44345
 C22 C 0.70957 0.24574 0.44261
 C23 C 0.69130 0.25967 0.40848
 C24 C 0.69354 0.29093 0.36277
 C25 C 0.71419 0.30774 0.35050
 C26 C 0.73248 0.29386 0.38467
 H27 H 0.73304 0.32689 0.52834
 H28 H 0.70153 0.35496 0.58733
 H29 H 0.69360 0.24222 0.69125
 H30 H 0.72496 0.21414 0.63148
 H31 H 0.77361 0.28680 0.63146
 H32 H 0.80488 0.25875 0.69186
 H33 H 0.76577 0.17361 0.52974
 H34 H 0.75120 0.19245 0.37603
 H35 H 0.78359 0.16795 0.31653
 H36 H 0.82398 0.25362 0.41962
 H37 H 0.79160 0.27856 0.47862
 H38 H 0.70759 0.22161 0.47796
 H39 H 0.67540 0.24636 0.41818
 H40 H 0.71610 0.33191 0.31517
 H41 H 0.74830 0.30760 0.37545
 H42 H 0.79720 0.14586 0.58963
 C43 C 0.25023 0.75078 0.46689
 C44 C 0.25037 0.75083 0.53369
 C45 C 0.23219 0.76884 0.57210
 C46 C 0.26868 0.73288 0.57142
 C47 C 0.26957 0.73745 0.42847
 C48 C 0.23076 0.76405 0.42923
 C49 C 0.22565 0.80893 0.56131
 C50 C 0.20787 0.82496 0.59560
 C51 C 0.19664 0.80125 0.64150
 C52 C 0.20347 0.76167 0.65380
 C53 C 0.22123 0.74559 0.61948
 C54 C 0.27976 0.75616 0.61834
 C55 C 0.29759 0.74009 0.65217
 C56 C 0.30439 0.70049 0.63987
 C57 C 0.29306 0.67677 0.59440
 C58 C 0.27522 0.69278 0.56059
 C59 C 0.26732 0.70671 0.38165
 C60 C 0.28562 0.69259 0.34757
 C61 C 0.30629 0.70931 0.35954
 C62 C 0.30854 0.74076 0.40481
 C63 C 0.29026 0.75493 0.43886
 C64 C 0.21009 0.74664 0.44069
 C65 C 0.19171 0.76067 0.40714
 C66 C 0.19383 0.79189 0.36130
 C67 C 0.21446 0.80857 0.34835
 C68 C 0.23286 0.79460 0.38193
 H69 H 0.23415 0.82758 0.52582
 H70 H 0.20276 0.85567 0.58587
 H71 H 0.19490 0.74309 0.68926
 H72 H 0.22612 0.71471 0.62873
 H73 H 0.27489 0.78704 0.62765
 H74 H 0.30622 0.75868 0.68733
 H75 H 0.26663 0.67409 0.52550
 H76 H 0.25149 0.69302 0.37272
 H77 H 0.28370 0.66828 0.31259
 H78 H 0.32445 0.75400 0.41428
 H79 H 0.29226 0.77917 0.47390
 H80 H 0.20819 0.72254 0.47611
 H81 H 0.17583 0.74744 0.41737
 H82 H 0.21629 0.83271 0.31292
 H83 H 0.24866 0.80825 0.37216
 H84 H 0.29814 0.64604 0.58468
 C85 C 0.24974 0.24976 -0.46852
 C86 C 0.24983 0.24971 -0.53532
 C87 C 0.26821 0.26757 -0.57339
 C88 C 0.23157 0.23173 -0.57340
 C89 C 0.23024 0.23650 -0.43048
 C90 C 0.26914 0.26302 -0.43044
 C91 C 0.27494 0.30763 -0.56267
 C92 C 0.29285 0.32355 -0.59676
 C93 C 0.30406 0.29976 -0.64245
 C94 C 0.29705 0.26017 -0.65463
 C95 C 0.27915 0.24423 -0.62048
 C96 C 0.22068 0.25497 -0.62063
 C97 C 0.20286 0.23891 -0.65470
 C98 C 0.19588 0.19931 -0.64228
 C99 C 0.20706 0.17561 -0.59648
 C100 C 0.22489 0.19165 -0.56248
 C101 C 0.23229 0.20598 -0.38318
 C102 C 0.21389 0.19204 -0.34915
 C103 C 0.19327 0.20873 -0.36166
 C104 C 0.19122 0.23995 -0.40755
 C105 C 0.20963 0.25392 -0.44151
 C106 C 0.28975 0.24544 -0.44114
 C107 C 0.30810 0.25949 -0.40729
 C108 C 0.30599 0.29091 -0.36193
 C109 C 0.28540 0.30774 -0.34967
 C110 C 0.26704 0.29374 -0.38355
 H111 H 0.26646 0.32636 -0.52744
 H112 H 0.29804 0.35428 -0.58700
 H113 H 0.30554 0.24143 -0.68990
 H114 H 0.27413 0.21337 -0.62969
 H115 H 0.22568 0.28584 -0.62998
 H116 H 0.19439 0.25758 -0.69006
 H117 H 0.23334 0.17301 -0.52712
 H118 H 0.24806 0.19234 -0.37373
 H119 H 0.21573 0.16792 -0.31372
 H120 H 0.17540 0.25327 -0.41756
 H121 H 0.20779 0.27802 -0.47692
 H122 H 0.29164 0.22120 -0.47624
 H123 H 0.32395 0.24616 -0.41697
 H124 H 0.28359 0.33202 -0.31460
 H125 H 0.25127 0.30750 -0.37437
 H126 H 0.20189 0.14488 -0.58654
 C127 C -0.25021 0.75001 -0.46892
 C128 C -0.25028 0.74991 -0.53571
 C129 C -0.23205 0.76793 -0.57412
 C130 C -0.26860 0.73180 -0.57345
 C131 C -0.26959 0.73664 -0.43052
 C132 C -0.23076 0.76352 -0.43121
 C133 C -0.22547 0.80809 -0.56366
 C134 C -0.20763 0.82415 -0.59788
 C135 C -0.19634 0.80038 -0.64343
 C136 C -0.20323 0.76069 -0.65542
 C137 C -0.22105 0.74462 -0.62114
 C138 C -0.27959 0.75493 -0.62063
 C139 C -0.29742 0.73874 -0.65448
 C140 C -0.30434 0.69912 -0.64190
 C141 C -0.29308 0.67554 -0.59610
 C142 C -0.27523 0.69171 -0.56232
 C143 C -0.26741 0.70603 -0.38344
 C144 C -0.28573 0.69189 -0.34927
 C145 C -0.30639 0.70849 -0.36142
 C146 C -0.30857 0.73982 -0.40703
 C147 C -0.29024 0.75399 -0.44114
 C148 C -0.21010 0.74622 -0.44230
 C149 C -0.19174 0.76043 -0.40865
 C150 C -0.19387 0.79172 -0.36307
 C151 C -0.21451 0.80831 -0.35049
 C152 C -0.23288 0.79416 -0.38417
 H153 H -0.23399 0.82678 -0.52846
 H154 H -0.20254 0.85495 -0.58828
 H155 H -0.19467 0.74197 -0.69057
 H156 H -0.22597 0.71368 -0.63012
 H157 H -0.27464 0.78581 -0.63015
 H158 H -0.30595 0.75732 -0.68984
 H159 H -0.26671 0.67313 -0.52701
 H160 H -0.25160 0.69245 -0.37433
 H161 H -0.28380 0.66767 -0.31406
 H162 H -0.32443 0.75305 -0.41678
 H163 H -0.29218 0.77814 -0.47640
 H164 H -0.20819 0.72205 -0.47751
 H165 H -0.17586 0.74727 -0.41858
 H166 H -0.21634 0.83250 -0.31526
 H167 H -0.24867 0.80773 -0.37469
 H168 H -0.29818 0.64479 -0.58604
 N169 N 0.02299 1.04378 0.11692
 N170 N 0.03977 1.04827 0.15682
 N171 N -0.02299 1.07206 0.07184
 N172 N -0.03947 1.09719 0.08063
 N173 N -0.02305 1.04388 0.11710
 N174 N -0.03957 1.04904 0.15799
 N175 N 0.02309 1.07198 0.07168
 N176 N 0.03997 1.09648 0.07953
 C177 C 0.05010 1.08126 0.13285
 C178 C -0.04958 1.08235 0.13447
 N179 N -0.02295 1.04437 -0.11475
 N180 N -0.03975 1.04903 -0.15453
 N181 N 0.02312 1.07242 -0.06936
 N182 N 0.03967 1.09761 -0.07793
 N183 N 0.02309 1.04447 -0.11493
 N184 N 0.03961 1.04984 -0.15580
 N185 N -0.02296 1.07235 -0.06921
 N186 N -0.03978 1.09684 -0.07671
 Mn187 Mn 0.00007 1.07270 0.00124
 C188 C -0.04998 1.08187 -0.13016
 C189 C 0.04973 1.08303 -0.13195
 N190 N -0.02322 0.95696 0.11652
 N191 N -0.04006 0.95227 0.15640
 N192 N 0.02281 0.92891 0.07095
 N193 N 0.03929 0.90376 0.07934
 N194 N 0.02283 0.95686 0.11652
 N195 N 0.03932 0.95152 0.15723
 N196 N -0.02327 0.92900 0.07096
 N197 N -0.04016 0.90447 0.07856
 Mn198 Mn -0.00011 1.00037 0.11753
 C199 C -0.05036 0.91943 0.13207
 C200 C 0.04936 0.91835 0.13328
 N201 N 0.02297 0.95755 -0.11531
 N202 N 0.03981 0.95307 -0.15521
 N203 N -0.02315 0.92928 -0.07007
 N204 N -0.03968 0.90412 -0.07886
 N205 N -0.02307 0.95746 -0.11534
 N206 N -0.03954 0.95228 -0.15621
 N207 N 0.02293 0.92935 -0.07007
 N208 N 0.03975 0.90487 -0.07792
 Mn209 Mn 0.00001 1.00097 -0.11585
 Mn210 Mn -0.00017 0.92864 0.00044
 Cl211 Cl -0.00005 1.00067 0.00084
 C212 C 0.05001 0.92010 -0.13124
 C213 C -0.04968 0.91895 -0.13269
 N214 N 0.47730 0.57089 0.06972
 N215 N 0.46080 0.59601 0.07813
 N216 N 0.52322 0.54264 0.11537
 N217 N 0.53995 0.54724 0.15547
 N218 N 0.52338 0.57076 0.06999
 N219 N 0.54024 0.59530 0.07795
 N220 N 0.47718 0.54280 0.11514
 N221 N 0.46059 0.54801 0.15575
 C222 C 0.45061 0.58126 0.13189
 C223 C 0.55031 0.58018 0.13148
 N224 N 0.52303 0.42770 0.06995
 N225 N 0.53950 0.40256 0.07858
 N226 N 0.47697 0.45589 0.11503
 N227 N 0.46014 0.45122 0.15495
 N228 N 0.47695 0.42782 0.06962
 N229 N 0.46008 0.40326 0.07738
 N230 N 0.52301 0.45573 0.11539
 N231 N 0.53947 0.45046 0.15623
 Mn232 Mn 0.50010 0.49926 0.11600
 C233 C 0.54953 0.41724 0.13251
 C234 C 0.44986 0.41829 0.13081
 N235 N 0.52351 0.57093 -0.07104
 N236 N 0.54007 0.59611 -0.07955
 N237 N 0.47748 0.54287 -0.11670
 N238 N 0.46076 0.54756 -0.15677
 N239 N 0.47744 0.57093 -0.07129
 N240 N 0.46067 0.59551 -0.07920
 N241 N 0.52352 0.54291 -0.11648
 N242 N 0.54008 0.54821 -0.15723
 Mn243 Mn 0.50041 0.57138 -0.00065
 C244 C 0.55018 0.58144 -0.13341
 C245 C 0.45054 0.58050 -0.13273
 N246 N 0.47722 0.42786 -0.07142
 N247 N 0.46063 0.40282 -0.08001
 N248 N 0.52339 0.45599 -0.11647
 N249 N 0.54021 0.45134 -0.15636
 N250 N 0.52330 0.42786 -0.07110
 N251 N 0.54008 0.40327 -0.07886
 N252 N 0.47735 0.45595 -0.11683
 N253 N 0.46085 0.45082 -0.15762
 Mn254 Mn 0.50012 0.42731 -0.00074
 Mn255 Mn 0.50044 0.49943 -0.11739
 Cl256 Cl 0.50027 0.49934 -0.00069
 C257 C 0.45065 0.41762 -0.13389
 C258 C 0.55037 0.41836 -0.13226
 C259 C 0.37922 0.33872 0.18298
 C260 C 0.37813 0.31821 0.25113
 C261 C 0.35790 0.34369 0.26767
 C262 C 0.35866 0.36396 0.20003
 C263 C 0.39366 0.37213 0.21232
 C264 C 0.37342 0.39762 0.22886
 C265 C 0.39288 0.35187 0.27996
 C266 C 0.37235 0.37710 0.29696
 C267 C 0.33813 0.32785 0.29935
 C268 C 0.32204 0.31473 0.32627
 C269 C 0.41367 0.38817 0.18230
 C270 C 0.43018 0.40169 0.15840
 H271 H 0.38228 0.32312 0.13578
 H272 H 0.37985 0.28538 0.26064
 H273 H 0.34437 0.36875 0.16753
 H274 H 0.37171 0.43046 0.21937
 H275 H 0.40716 0.34706 0.31250
 H276 H 0.36930 0.39272 0.34415
 C277 C -0.10886 0.83063 0.24199
 C278 C -0.12041 0.84901 0.30254
 C279 C -0.14248 0.84458 0.26737
 C280 C -0.13124 0.82595 0.20727
 C281 C -0.10664 0.87318 0.21274
 C282 C -0.12871 0.86877 0.17751
 C283 C -0.11790 0.89179 0.27284
 C284 C -0.14027 0.88714 0.23812
 C285 C -0.16227 0.82864 0.29869
 C286 C -0.17837 0.81544 0.32540
 C287 C -0.08660 0.88929 0.18310
 C288 C -0.07006 0.90284 0.15945
 H289 H -0.09572 0.80758 0.24326
 H290 H -0.11722 0.84072 0.35431
 H291 H -0.13696 0.79870 0.18066
 H292 H -0.13188 0.87707 0.12574
 H293 H -0.11219 0.91903 0.29948
 H294 H -0.15342 0.91019 0.23688
 C295 C 0.62505 0.64729 0.17627
 C296 C 0.62561 0.68037 0.22985
 C297 C 0.64198 0.65474 0.26876
 C298 C 0.64174 0.62191 0.21569
 C299 C 0.60632 0.62628 0.21341
 C300 C 0.62269 0.60065 0.25232
 C301 C 0.60658 0.65911 0.26648
 C302 C 0.62325 0.63373 0.30584
 C303 C 0.66169 0.67067 0.30034
 C304 C 0.67774 0.68392 0.32709
 C305 C 0.58637 0.61024 0.18331
 C306 C 0.56992 0.59674 0.15928
 H307 H 0.62555 0.65269 0.12265
 H308 H 0.62704 0.71334 0.22095
 H309 H 0.65641 0.60678 0.19517
 H310 H 0.62126 0.56769 0.26123
 H311 H 0.59191 0.67424 0.28703
 H312 H 0.62273 0.62831 0.35946
 C313 C 0.12117 1.10263 0.25973
 C314 C 0.14141 1.11889 0.22218
 C315 C 0.14210 1.15530 0.26865
 C316 C 0.12216 1.13928 0.30665
 C317 C 0.10631 1.12700 0.21389
 C318 C 0.10701 1.16341 0.26036
 C319 C 0.12624 1.14301 0.17583
 C320 C 0.12724 1.17969 0.22281
 C321 C 0.16186 1.17112 0.30000
 C322 C 0.17794 1.18427 0.32667
 C323 C 0.08629 1.11108 0.18413
 C324 C 0.06978 1.09768 0.16037
 H325 H 0.11844 1.07076 0.27459
 H326 H 0.15579 1.10076 0.20685
 H327 H 0.12071 1.13790 0.36079
 H328 H 0.09264 1.18154 0.27573
 H329 H 0.12767 1.14437 0.12169
 H330 H 0.12998 1.21155 0.20798
 C331 C 0.61940 0.39400 -0.26776
 C332 C 0.64092 0.38408 -0.23124
 C333 C 0.64219 0.34394 -0.26864
 C334 C 0.62097 0.35362 -0.30561
 C335 C 0.60646 0.37228 -0.21355
 C336 C 0.60774 0.33215 -0.25096
 C337 C 0.62766 0.36261 -0.17652
 C338 C 0.62926 0.32221 -0.21443
 C339 C 0.66193 0.32811 -0.30014
 C340 C 0.67800 0.31496 -0.32689
 C341 C 0.58648 0.38828 -0.18364
 C342 C 0.57000 0.40178 -0.15980
 H343 H 0.61513 0.42369 -0.28938
 H344 H 0.65478 0.40526 -0.22349
 H345 H 0.61844 0.34977 -0.35905
 H346 H 0.59388 0.31096 -0.25874
 H347 H 0.63018 0.36648 -0.12309
 H348 H 0.63354 0.29251 -0.19284
 C349 C 0.12545 0.85601 -0.17444
 C350 C 0.12623 0.82095 -0.22459
 C351 C 0.14194 0.84605 -0.26719
 C352 C 0.14148 0.88085 -0.21756
 C353 C 0.10618 0.87433 -0.21227
 C354 C 0.12189 0.89942 -0.25487
 C355 C 0.10665 0.83954 -0.26190
 C356 C 0.12265 0.86438 -0.30496
 C357 C 0.16168 0.83025 -0.29866
 C358 C 0.17773 0.81713 -0.32546
 C359 C 0.08617 0.89027 -0.18249
 C360 C 0.06967 0.90368 -0.15874
 H361 H 0.12637 0.85274 -0.12043
 H362 H 0.12826 0.78850 -0.21249
 H363 H 0.15603 0.89766 -0.19970
 H364 H 0.11987 0.93187 -0.26699
 H365 H 0.09211 0.82272 -0.27979
 H366 H 0.12172 0.86767 -0.35896
 C367 C 0.38057 0.60359 -0.26393
 C368 C 0.35975 0.61720 -0.22667
 C369 C 0.35903 0.65540 -0.26929
 C370 C 0.37955 0.64202 -0.30700
 C371 C 0.39464 0.62679 -0.21426
 C372 C 0.39391 0.66499 -0.25689
 C373 C 0.37414 0.64016 -0.17650
 C374 C 0.37310 0.67862 -0.21963
 C375 C 0.33934 0.67135 -0.30071
 C376 C 0.32331 0.68455 -0.32736
 C377 C 0.41455 0.61067 -0.18434
 C378 C 0.43097 0.59711 -0.16042
 H379 H 0.38386 0.57256 -0.28182
 H380 H 0.34549 0.59773 -0.21460
 H381 H 0.38155 0.64295 -0.36100
 H382 H 0.40817 0.68446 -0.26898
 H383 H 0.37215 0.63922 -0.12249
 H384 H 0.36980 0.70965 -0.20175
 C385 C -0.11241 1.12162 -0.28251
 C386 C -0.13604 1.11103 -0.26086
 C387 C -0.14196 1.15600 -0.26470
 C388 C -0.11862 1.16681 -0.28681
 C389 C -0.10616 1.12774 -0.21037
 C390 C -0.11208 1.17271 -0.21421
 C391 C -0.12950 1.11690 -0.18823
 C392 C -0.13574 1.16215 -0.19256
 C393 C -0.16174 1.17175 -0.29587
 C394 C -0.17782 1.18477 -0.32246
 C395 C -0.08615 1.11180 -0.18089
 C396 C -0.06964 1.09837 -0.15737
 H397 H -0.10259 1.10479 -0.31918
 H398 H -0.14611 1.08585 -0.28037
 H399 H -0.11437 1.18751 -0.32770
 H400 H -0.10200 1.19788 -0.19470
 H401 H -0.13374 1.09620 -0.14735
 H402 H -0.14557 1.17898 -0.15592
 C403 C 0.62866 0.61836 -0.20157
 C404 C 0.63364 0.61793 -0.27596
 C405 C 0.64016 0.66269 -0.27200
 C406 C 0.63549 0.66340 -0.19808
 C407 C 0.60510 0.63140 -0.21669
 C408 C 0.61161 0.67616 -0.21271
 C409 C 0.60979 0.63070 -0.29060
 C410 C 0.61660 0.67572 -0.28711
 C411 C 0.65964 0.67979 -0.30354
 C412 C 0.67561 0.69347 -0.33031
 C413 C 0.58553 0.61376 -0.18646
 C414 C 0.56940 0.59909 -0.16206
 H415 H 0.63340 0.59457 -0.16607
 H416 H 0.64292 0.59417 -0.30230
 H417 H 0.64628 0.67704 -0.16040
 H418 H 0.60232 0.69990 -0.18635
 H419 H 0.59902 0.61706 -0.32831
 H420 H 0.61186 0.69950 -0.32262
 C421 C 0.12648 1.14006 -0.18079
 C422 C 0.13864 1.12157 -0.24022
 C423 C 0.13970 1.16363 -0.27183
 C424 C 0.12785 1.18240 -0.21290
 C425 C 0.10462 1.13276 -0.21594
 C426 C 0.10568 1.17482 -0.24755
 C427 C 0.11649 1.11401 -0.27487
 C428 C 0.11784 1.15632 -0.30694
 C429 C 0.15920 1.18049 -0.30363
 C430 C 0.17521 1.19397 -0.33052
 C431 C 0.08506 1.11530 -0.18537
 C432 C 0.06894 1.10069 -0.16074
 H433 H 0.12981 1.13317 -0.12857
 H434 H 0.15241 1.09985 -0.23754
 H435 H 0.13274 1.21071 -0.18778
 H436 H 0.09190 1.19653 -0.25023
 H437 H 0.11161 1.08570 -0.30002
 H438 H 0.11450 1.16320 -0.35917
 C439 C 0.37863 0.34226 -0.18083
 C440 C 0.36019 0.36689 -0.21398
 C441 C 0.36055 0.33724 -0.27176
 C442 C 0.37868 0.31234 -0.23913
 C443 C 0.39567 0.36826 -0.21693
 C444 C 0.39603 0.33862 -0.27472
 C445 C 0.37754 0.39315 -0.24958
 C446 C 0.37760 0.36325 -0.30782
 C447 C 0.34104 0.32026 -0.30296
 C448 C 0.32504 0.30664 -0.32939
 C449 C 0.41527 0.38570 -0.18687
 C450 C 0.43141 0.40020 -0.16253
 H451 H 0.37928 0.33384 -0.12826
 H452 H 0.34523 0.37831 -0.18935
 H453 H 0.37892 0.27893 -0.23519
 H454 H 0.41098 0.32720 -0.29938
 H455 H 0.37728 0.42657 -0.25355
 H456 H 0.37696 0.37168 -0.36038
 C457 C -0.11674 0.88864 -0.27422
 C458 C -0.11778 0.84687 -0.30809
 C459 C -0.13942 0.83817 -0.27229
 C460 C -0.13867 0.87968 -0.23888
 C461 C -0.10445 0.86929 -0.21671
 C462 C -0.12609 0.86060 -0.18087
 C463 C -0.10519 0.82777 -0.25011
 C464 C -0.12714 0.81880 -0.21477
 C465 C -0.15887 0.82114 -0.30384
 C466 C -0.17484 0.80750 -0.33045
 C467 C -0.08493 0.88681 -0.18623
 C468 C -0.06885 0.90140 -0.16160
 H469 H -0.11225 0.91755 -0.29833
 H470 H -0.11457 0.84103 -0.36074
 H471 H -0.15266 0.90084 -0.23461
 H472 H -0.12929 0.86645 -0.12822
 H473 H -0.09121 0.80662 -0.25440
 H474 H -0.13164 0.78988 -0.19069
 C475 C 0.37508 0.64375 0.17695
 C476 C 0.36086 0.62288 0.23006
 C477 C 0.36068 0.66247 0.26918
 C478 C 0.37459 0.68362 0.21657
 C479 C 0.39572 0.63110 0.21450
 C480 C 0.39553 0.67068 0.25363
 C481 C 0.38179 0.60997 0.26711
 C482 C 0.38132 0.64981 0.30669
 C483 C 0.34123 0.67965 0.30038
 C484 C 0.32527 0.69341 0.32688
 C485 C 0.41527 0.61346 0.18457
 C486 C 0.43139 0.59882 0.16036
 H487 H 0.37275 0.64104 0.12325
 H488 H 0.34638 0.60343 0.22071
 H489 H 0.37141 0.71409 0.19614
 H490 H 0.41001 0.69013 0.26299
 H491 H 0.38497 0.57950 0.28756
 H492 H 0.38367 0.65250 0.36039
 C493 C -0.12352 1.15080 0.18064
 C494 C -0.13976 1.12740 0.22513
 C495 C -0.13943 1.16280 0.27365
 C496 C -0.12351 1.18649 0.22967
 C497 C -0.10440 1.13182 0.21830
 C498 C -0.10407 1.16723 0.26683
 C499 C -0.12033 1.10816 0.26228
 C500 C -0.12030 1.14382 0.31127
 C501 C -0.15891 1.17975 0.30510
 C502 C -0.17491 1.19331 0.33166
 C503 C -0.08485 1.11437 0.18792
 C504 C -0.06876 1.09984 0.16334
 H505 H -0.12463 1.15347 0.12657
 H506 H -0.15465 1.11121 0.20832
 H507 H -0.12503 1.21889 0.21661
 H508 H -0.08918 1.18341 0.28365
 H509 H -0.11881 1.07576 0.27537
 H510 H -0.11918 1.14113 0.36533
 C511 C 0.60380 0.33353 0.26686
 C512 C 0.62286 0.31274 0.22996
 C513 C 0.63921 0.33689 0.27154
 C514 C 0.62045 0.35741 0.30890
 C515 C 0.60425 0.36775 0.21607
 C516 C 0.62061 0.39188 0.25766
 C517 C 0.62300 0.34724 0.17866
 C518 C 0.63967 0.37111 0.22076
 C519 C 0.65863 0.32002 0.30312
 C520 C 0.67457 0.30652 0.32987
 C521 C 0.58474 0.38517 0.18572
 C522 C 0.56867 0.39971 0.16123
 H523 H 0.58883 0.31828 0.28548
 H524 H 0.62401 0.28001 0.21894
 H525 H 0.61961 0.36140 0.36280
 H526 H 0.61947 0.42461 0.26871
 H527 H 0.62383 0.34327 0.12476
 H528 H 0.65464 0.38637 0.20216
 C529 C 0.10379 0.83557 0.26875
 C530 C 0.12242 0.81347 0.23184
 C531 C 0.13926 0.83790 0.27117
 C532 C 0.12094 0.85973 0.30853
 C533 C 0.10420 0.86876 0.21619
 C534 C 0.12106 0.89317 0.25552
 C535 C 0.12252 0.84694 0.17878
 C536 C 0.13968 0.87110 0.21861
 C537 C 0.15876 0.82102 0.30244
 C538 C 0.17476 0.80752 0.32887
 C539 C 0.08465 0.88620 0.18608
 C540 C 0.06855 0.90076 0.16178
 H541 H 0.08882 0.82116 0.28904
 H542 H 0.12320 0.78050 0.22246
 H543 H 0.12050 0.86480 0.36223
 H544 H 0.12029 0.92614 0.26493
 H545 H 0.12294 0.84188 0.12508
 H546 H 0.15465 0.88551 0.19834
   
