data_POSCAR
  _audit_creation_date              2014-09-24
  _audit_creation_method            'ToBaCCo'
  _symmetry_space_group_name_H-M    'P1'
  _symmetry_Int_Tables_number       1
  _symmetry_cell_setting            triclinic
  loop_
  _symmetry_equiv_pos_as_xyz
 x,y,z
_cell_length_a 60.4867
_cell_length_b 59.9036
_cell_length_c 27.5860
_cell_angle_alpha 89.984100
_cell_angle_beta 89.958300
_cell_angle_gamma 120.292600
loop_
  _atom_site_label
  _atom_site_type_symbol
  _atom_site_fract_x
  _atom_site_fract_y
  _atom_site_fract_z
C1 C 0.49310 1.00064 0.47695
 C2 C 0.49138 1.00023 0.52637
 C3 C 0.47901 0.97561 0.55445
 C4 C 0.50181 1.02428 0.55568
 C5 C 0.50722 1.02524 0.44883
 C6 C 0.48058 0.97631 0.44814
 C7 C 0.46070 0.97152 0.58970
 C8 C 0.44961 0.94918 0.61803
 C9 C 0.45633 0.92982 0.61198
 C10 C 0.47474 0.93420 0.57568
 C11 C 0.48615 0.95689 0.54807
 C12 C 0.49447 1.04276 0.54713
 C13 C 0.50409 1.06490 0.57616
 C14 C 0.52080 1.06862 0.61471
 C15 C 0.52797 1.05001 0.62322
 C16 C 0.51855 1.02808 0.59407
 C17 C 0.53191 1.04485 0.46208
 C18 C 0.54441 1.06797 0.43583
 C19 C 0.53306 1.07161 0.39427
 C20 C 0.50883 1.05135 0.37989
 C21 C 0.49601 1.02866 0.40710
 C22 C 0.49498 0.97150 0.41425
 C23 C 0.48356 0.94882 0.38684
 C24 C 0.45746 0.93039 0.39275
 C25 C 0.44299 0.93542 0.42634
 C26 C 0.45438 0.95827 0.45340
 H27 H 0.45478 0.98566 0.59510
 H28 H 0.43479 0.94689 0.64287
 H29 H 0.48190 0.92112 0.57011
 H30 H 0.50091 0.96002 0.52217
 H31 H 0.48117 1.03994 0.51828
 H32 H 0.49806 1.07882 0.56914
 H33 H 0.52441 1.01405 0.60134
 H34 H 0.54150 1.04242 0.49301
 H35 H 0.56287 1.08302 0.44864
 H36 H 0.49970 1.05276 0.34728
 H37 H 0.47720 1.01369 0.39544
 H38 H 0.51514 0.98531 0.40919
 H39 H 0.49516 0.94589 0.36055
 H40 H 0.42291 0.92160 0.43214
 H41 H 0.44278 0.96182 0.47863
 H42 H 0.54108 1.05254 0.65225
 C43 C 0.00018 0.49294 0.47212
 C44 C -0.00008 0.49417 0.52155
 C45 C 0.02396 0.50734 0.55080
 C46 C -0.02451 0.48208 0.54935
 C47 C -0.02372 0.48184 0.44280
 C48 C 0.02442 0.50306 0.44420
 C49 C 0.02634 0.49509 0.59217
 C50 C 0.04852 0.50702 0.62029
 C51 C 0.06930 0.53135 0.60720
 C52 C 0.06669 0.54375 0.56598
 C53 C 0.04408 0.53217 0.53889
 C54 C -0.04302 0.45585 0.54343
 C55 C -0.06557 0.44470 0.57084
 C56 C -0.06977 0.45948 0.60526
 C57 C -0.05115 0.48566 0.61124
 C58 C -0.02876 0.49683 0.58360
 C59 C -0.04148 0.49015 0.44880
 C60 C -0.06342 0.48003 0.41989
 C61 C -0.06786 0.46183 0.38304
 C62 C -0.04966 0.45384 0.37720
 C63 C -0.02803 0.46366 0.40670
 C64 C 0.02987 0.52120 0.40725
 C65 C 0.05269 0.53139 0.38115
 C66 C 0.07059 0.52362 0.39136
 C67 C 0.06483 0.50495 0.42767
 C68 C 0.04187 0.49465 0.45367
 H69 H 0.01094 0.47616 0.60280
 H70 H 0.04915 0.49712 0.65258
 H71 H 0.08215 0.56231 0.55408
 H72 H 0.04246 0.54256 0.50828
 H73 H -0.03988 0.44397 0.51796
 H74 H -0.07945 0.42440 0.56596
 H75 H -0.01470 0.51706 0.58884
 H76 H -0.03815 0.50482 0.47539
 H77 H -0.07610 0.48765 0.42508
 H78 H -0.05239 0.43923 0.35104
 H79 H -0.01460 0.45692 0.40145
 H80 H 0.01653 0.52773 0.39900
 H81 H 0.05624 0.54526 0.35269
 H82 H 0.07825 0.49863 0.43651
 H83 H 0.03781 0.48032 0.48150
 H84 H -0.05400 0.49757 0.63713
 C85 C 0.50566 0.50592 0.47621
 C86 C 0.50404 0.50499 0.52553
 C87 C 0.49169 0.51729 0.55235
 C88 C 0.51442 0.49184 0.55564
 C89 C 0.51915 0.49497 0.44842
 C90 C 0.49325 0.51751 0.44728
 C91 C 0.50133 0.54398 0.54957
 C92 C 0.48982 0.55537 0.57588
 C93 C 0.46821 0.54028 0.60557
 C94 C 0.45877 0.51336 0.60779
 C95 C 0.47050 0.50214 0.58189
 C96 C 0.53170 0.50556 0.59284
 C97 C 0.54164 0.49370 0.62195
 C98 C 0.53443 0.46748 0.61506
 C99 C 0.51680 0.45379 0.57746
 C100 C 0.50683 0.46578 0.54844
 C101 C 0.50714 0.47928 0.40798
 C102 C 0.51926 0.46872 0.38132
 C103 C 0.54362 0.47323 0.39480
 C104 C 0.55583 0.48935 0.43492
 C105 C 0.54391 0.50044 0.46088
 C106 C 0.46675 0.50770 0.45029
 C107 C 0.45522 0.51850 0.42240
 C108 C 0.46997 0.53920 0.39075
 C109 C 0.49647 0.54882 0.38760
 C110 C 0.50797 0.53798 0.41545
 H111 H 0.51781 0.55600 0.52706
 H112 H 0.49751 0.57591 0.57130
 H113 H 0.44300 0.50083 0.63127
 H114 H 0.46301 0.48151 0.58489
 H115 H 0.53789 0.52576 0.59882
 H116 H 0.55583 0.50572 0.64846
 H117 H 0.49300 0.45466 0.52058
 H118 H 0.48822 0.47507 0.39707
 H119 H 0.50952 0.45718 0.34982
 H120 H 0.57448 0.49320 0.44675
 H121 H 0.55400 0.51317 0.49091
 H122 H 0.45501 0.49161 0.47409
 H123 H 0.43480 0.51078 0.42583
 H124 H 0.50826 0.56446 0.36298
 H125 H 0.52840 0.54561 0.41231
 H126 H 0.50969 0.43347 0.57130
 O127 O 0.37265 0.66250 -0.04229
 O128 O 0.36962 0.70425 -0.05254
 C129 C 0.35636 0.71477 -0.06116
 O130 O 0.33600 0.70922 -0.03801
 O131 O 0.29437 0.66494 -0.05183
 C132 C 0.28410 0.64138 -0.06367
 O133 O 0.28956 0.62566 -0.04375
 O134 O 0.33375 0.62945 -0.05828
 C135 C 0.35752 0.64263 -0.06685
 O136 O 0.37080 0.66698 0.05470
 O137 O 0.37021 0.70994 0.04419
 C138 C 0.35391 0.71302 0.06780
 O139 O 0.33020 0.70045 0.05859
 O140 O 0.28807 0.65682 0.04438
 C141 C 0.28452 0.63624 0.06487
 O142 O 0.29649 0.62480 0.05275
 O143 O 0.34003 0.62670 0.03794
 C144 C 0.35947 0.64282 0.06221
 Cr145 Cr 0.36930 0.68508 0.00098
 Cr146 Cr 0.31300 0.68218 0.00317
 Cr147 Cr 0.31566 0.62818 -0.00268
 O148 O 0.33260 0.66514 0.00039
 O149 O 0.62877 0.34244 -0.03608
 O150 O 0.62719 0.29842 -0.04931
 C151 C 0.63852 0.28628 -0.06132
 O152 O 0.65938 0.29050 -0.04198
 O153 O 0.70184 0.33303 -0.06154
 C154 C 0.71407 0.35684 -0.07198
 O155 O 0.71136 0.37353 -0.04853
 O156 O 0.66806 0.37271 -0.05861
 C157 C 0.64393 0.36110 -0.06337
 O158 O 0.63412 0.33797 0.06036
 O159 O 0.63042 0.29334 0.04717
 C160 C 0.64669 0.28873 0.06674
 O161 O 0.66981 0.29929 0.05325
 O162 O 0.71281 0.34145 0.03416
 C163 C 0.71809 0.36215 0.05665
 O164 O 0.70701 0.37496 0.04810
 O165 O 0.66499 0.37712 0.03783
 C166 C 0.64660 0.36227 0.06554
 Cr167 Cr 0.63157 0.31874 0.00524
 Cr168 Cr 0.68529 0.31687 -0.00393
 Cr169 Cr 0.68709 0.37310 -0.00512
 O170 O 0.66798 0.33615 -0.00121
 C171 C 0.42363 0.86282 -0.30005
 C172 C 0.43397 0.86287 -0.34563
 C173 C 0.44497 0.88503 -0.37470
 C174 C 0.44565 0.90801 -0.35966
 C175 C 0.43492 0.90750 -0.31367
 C176 C 0.42438 0.88547 -0.28447
 C177 C 0.41244 0.83946 -0.26841
 C178 C 0.39153 0.83358 -0.23795
 C179 C 0.38189 0.81252 -0.20631
 C180 C 0.39261 0.79645 -0.20477
 C181 C 0.41304 0.80187 -0.23624
 C182 C 0.42295 0.82319 -0.26738
 C183 C 0.38301 0.77467 -0.16949
 C184 C 0.39999 0.76816 -0.14745
 C185 C 0.39121 0.74836 -0.11306
 C186 C 0.36533 0.73487 -0.09924
 C187 C 0.34827 0.74116 -0.12137
 C188 C 0.35696 0.76067 -0.15639
 H189 H 0.43317 0.84556 -0.35945
 H190 H 0.45156 0.88325 -0.41014
 H191 H 0.43590 0.92450 -0.29799
 H192 H 0.41741 0.88651 -0.24887
 H193 H 0.38258 0.84532 -0.23835
 H194 H 0.36638 0.80922 -0.18228
 H195 H 0.42151 0.78970 -0.23678
 H196 H 0.43921 0.82720 -0.28987
 H197 H 0.42024 0.77878 -0.15577
 H198 H 0.40485 0.74409 -0.09634
 H199 H 0.32816 0.73089 -0.11179
 H200 H 0.34321 0.76471 -0.17327
 C201 C 0.13832 0.56688 -0.30530
 C202 C 0.12275 0.53982 -0.30815
 C203 C 0.10093 0.52842 -0.33734
 C204 C 0.09335 0.54367 -0.36338
 C205 C 0.10890 0.57074 -0.36054
 C206 C 0.13123 0.58214 -0.33261
 C207 C 0.16138 0.57902 -0.27312
 C208 C 0.16982 0.60338 -0.25192
 C209 C 0.19084 0.61436 -0.22064
 C210 C 0.20360 0.60099 -0.20809
 C211 C 0.19530 0.57672 -0.22959
 C212 C 0.17482 0.56612 -0.26216
 C213 C 0.22491 0.61195 -0.17185
 C214 C 0.24444 0.60562 -0.17313
 C215 C 0.26362 0.61500 -0.13776
 C216 C 0.26422 0.63162 -0.10139
 C217 C 0.24528 0.63852 -0.10049
 C218 C 0.22562 0.62848 -0.13473
 H219 H 0.12704 0.52720 -0.28723
 H220 H 0.09005 0.50755 -0.33930
 H221 H 0.10375 0.58333 -0.37924
 H222 H 0.14285 0.60300 -0.33260
 H223 H 0.15996 0.61393 -0.25849
 H224 H 0.19691 0.63338 -0.20622
 H225 H 0.20420 0.56548 -0.22068
 H226 H 0.16955 0.54769 -0.27849
 H227 H 0.24512 0.59355 -0.20155
 H228 H 0.27823 0.60962 -0.13922
 H229 H 0.24525 0.65109 -0.07227
 H230 H 0.21072 0.63331 -0.13118
 C231 C 0.43376 0.57365 -0.30813
 C232 C 0.41931 0.54810 -0.32481
 C233 C 0.43049 0.53728 -0.35354
 C234 C 0.45657 0.55172 -0.36702
 C235 C 0.47073 0.57771 -0.35144
 C236 C 0.45952 0.58841 -0.32225
 C237 C 0.42213 0.58450 -0.27501
 C238 C 0.42851 0.61052 -0.27856
 C239 C 0.41779 0.62065 -0.24667
 C240 C 0.40035 0.60493 -0.21082
 C241 C 0.39392 0.57895 -0.20736
 C242 C 0.40474 0.56889 -0.23892
 C243 C 0.38911 0.61552 -0.17642
 C244 C 0.36301 0.60111 -0.16430
 C245 C 0.35265 0.61024 -0.12969
 C246 C 0.36820 0.63395 -0.10612
 C247 C 0.39419 0.64868 -0.11914
 C248 C 0.40451 0.63959 -0.15407
 H249 H 0.39918 0.53642 -0.31588
 H250 H 0.41821 0.51773 -0.36629
 H251 H 0.49094 0.58963 -0.35917
 H252 H 0.47134 0.60804 -0.30940
 H253 H 0.44157 0.62298 -0.30632
 H254 H 0.42290 0.64068 -0.25040
 H255 H 0.38090 0.56652 -0.17950
 H256 H 0.39984 0.54895 -0.23440
 H257 H 0.35063 0.58265 -0.18147
 H258 H 0.33254 0.59843 -0.12072
 H259 H 0.40668 0.66705 -0.10179
 H260 H 0.42473 0.65102 -0.16250
 C261 C 0.55276 0.13565 -0.29289
 C262 C 0.54263 0.11073 -0.27318
 C263 C 0.53182 0.08902 -0.30315
 C264 C 0.53075 0.09167 -0.35354
 C265 C 0.54008 0.11646 -0.37325
 C266 C 0.55103 0.13827 -0.34321
 C267 C 0.56577 0.15874 -0.26102
 C268 C 0.56255 0.18018 -0.26802
 C269 C 0.57478 0.20173 -0.23751
 C270 C 0.59052 0.20230 -0.19947
 C271 C 0.59378 0.18088 -0.19270
 C272 C 0.58162 0.15943 -0.22314
 C273 C 0.60331 0.22489 -0.16637
 C274 C 0.62831 0.23353 -0.14977
 C275 C 0.63984 0.25370 -0.11633
 C276 C 0.62671 0.26584 -0.09878
 C277 C 0.60196 0.25769 -0.11639
 C278 C 0.59038 0.23742 -0.14977
 H279 H 0.54310 0.10800 -0.23447
 H280 H 0.52431 0.07010 -0.28688
 H281 H 0.53966 0.11905 -0.41202
 H282 H 0.55886 0.15721 -0.35953
 H283 H 0.55032 0.18016 -0.29668
 H284 H 0.57206 0.21802 -0.24392
 H285 H 0.60548 0.18053 -0.16337
 H286 H 0.58482 0.14341 -0.21719
 H287 H 0.63898 0.22463 -0.16258
 H288 H 0.65901 0.25964 -0.10395
 H289 H 0.59130 0.26660 -0.10361
 H290 H 0.57101 0.23106 -0.16148
 C291 C 0.86212 0.42639 -0.30650
 C292 C 0.86051 0.42073 -0.35631
 C293 C 0.88262 0.43119 -0.38495
 C294 C 0.90677 0.44764 -0.36443
 C295 C 0.90841 0.45303 -0.31460
 C296 C 0.88638 0.44247 -0.28596
 C297 C 0.83870 0.41586 -0.27594
 C298 C 0.83679 0.43112 -0.23934
 C299 C 0.81528 0.42113 -0.20938
 C300 C 0.79496 0.39564 -0.21541
 C301 C 0.79663 0.38047 -0.25255
 C302 C 0.81826 0.39046 -0.28245
 C303 C 0.77261 0.38486 -0.18196
 C304 C 0.76136 0.35925 -0.16512
 C305 C 0.74172 0.34982 -0.13063
 C306 C 0.73302 0.36587 -0.11194
 C307 C 0.74366 0.39118 -0.12996
 C308 C 0.76312 0.40051 -0.16469
 H309 H 0.84211 0.40865 -0.37337
 H310 H 0.88080 0.42691 -0.42337
 H311 H 0.92681 0.46525 -0.29764
 H312 H 0.88839 0.44674 -0.24755
 H313 H 0.85198 0.45089 -0.23381
 H314 H 0.81484 0.43325 -0.18075
 H315 H 0.78121 0.36086 -0.25852
 H316 H 0.81920 0.37811 -0.31006
 H317 H 0.76837 0.34675 -0.17722
 H318 H 0.73398 0.33025 -0.11739
 H319 H 0.73719 0.40394 -0.11673
 H320 H 0.77094 0.42013 -0.17768
 C321 C 0.56657 0.43269 -0.29607
 C322 C 0.56466 0.45372 -0.27916
 C323 C 0.55391 0.46491 -0.30801
 C324 C 0.54467 0.45549 -0.35508
 C325 C 0.54624 0.43393 -0.37137
 C326 C 0.55703 0.42276 -0.34230
 C327 C 0.57860 0.42137 -0.26541
 C328 C 0.56789 0.39444 -0.26205
 C329 C 0.57880 0.38391 -0.23163
 C330 C 0.60072 0.40010 -0.20415
 C331 C 0.61165 0.42702 -0.20820
 C332 C 0.60072 0.43752 -0.23846
 C333 C 0.61179 0.38909 -0.17022
 C334 C 0.63846 0.40047 -0.16546
 C335 C 0.64890 0.39110 -0.13143
 C336 C 0.63289 0.37013 -0.10130
 C337 C 0.60621 0.35837 -0.10687
 C338 C 0.59578 0.36774 -0.14095
 H339 H 0.57117 0.46134 -0.24309
 H340 H 0.55211 0.48040 -0.29207
 H341 H 0.54032 0.42620 -0.40749
 H342 H 0.55854 0.40674 -0.35656
 H343 H 0.55076 0.38151 -0.28214
 H344 H 0.57010 0.36310 -0.22961
 H345 H 0.62835 0.44001 -0.18713
 H346 H 0.60961 0.45835 -0.24076
 H347 H 0.65130 0.41671 -0.18801
 H348 H 0.66953 0.40053 -0.12836
 H349 H 0.59331 0.34217 -0.08431
 H350 H 0.57516 0.35873 -0.14338
 C351 C 0.86654 0.43188 0.29128
 C352 C 0.86575 0.44026 0.33847
 C353 C 0.88730 0.45036 0.36848
 C354 C 0.91029 0.45204 0.35250
 C355 C 0.91088 0.44365 0.30491
 C356 C 0.88947 0.43395 0.27482
 C357 C 0.84364 0.42100 0.25919
 C358 C 0.83855 0.40082 0.22685
 C359 C 0.81758 0.39108 0.19558
 C360 C 0.80086 0.40095 0.19623
 C361 C 0.80568 0.42084 0.22914
 C362 C 0.82687 0.43082 0.26007
 C363 C 0.77882 0.39080 0.16209
 C364 C 0.77124 0.40738 0.14138
 C365 C 0.75118 0.39799 0.10789
 C366 C 0.73848 0.37189 0.09382
 C367 C 0.74579 0.35525 0.11488
 C368 C 0.76557 0.36454 0.14886
 H369 H 0.84826 0.43850 0.35274
 H370 H 0.88532 0.45566 0.40503
 H371 H 0.92821 0.44554 0.28959
 H372 H 0.89109 0.42847 0.23817
 H373 H 0.85074 0.39243 0.22569
 H374 H 0.81476 0.37605 0.17030
 H375 H 0.79304 0.42869 0.23118
 H376 H 0.83031 0.44654 0.28410
 H377 H 0.78122 0.42778 0.15006
 H378 H 0.74606 0.41131 0.09207
 H379 H 0.73613 0.33496 0.10521
 H380 H 0.77043 0.35106 0.16484
 C381 C 0.57120 0.14222 0.30940
 C382 C 0.58544 0.13397 0.33669
 C383 C 0.57320 0.11114 0.36386
 C384 C 0.54630 0.09622 0.36582
 C385 C 0.53209 0.10494 0.33977
 C386 C 0.54430 0.12727 0.31140
 C387 C 0.58416 0.16583 0.27810
 C388 C 0.57226 0.18029 0.26758
 C389 C 0.58345 0.20116 0.23545
 C390 C 0.60738 0.20889 0.21399
 C391 C 0.61983 0.19516 0.22626
 C392 C 0.60824 0.17374 0.25712
 C393 C 0.61876 0.23045 0.17780
 C394 C 0.63474 0.23065 0.14034
 C395 C 0.64457 0.25019 0.10536
 C396 C 0.63800 0.26951 0.10599
 C397 C 0.62222 0.26961 0.14307
 C398 C 0.61309 0.25058 0.17911
 H399 H 0.60614 0.14507 0.33723
 H400 H 0.58499 0.10510 0.38265
 H401 H 0.51139 0.09457 0.34109
 H402 H 0.53245 0.13243 0.29041
 H403 H 0.55411 0.17548 0.28382
 H404 H 0.57288 0.21076 0.22675
 H405 H 0.63854 0.20074 0.21181
 H406 H 0.61805 0.16311 0.26348
 H407 H 0.63915 0.21533 0.13688
 H408 H 0.65651 0.24965 0.07662
 H409 H 0.61713 0.28454 0.14434
 H410 H 0.60155 0.25174 0.20786
 C411 C 0.57946 0.43913 0.31038
 C412 C 0.55272 0.42622 0.31650
 C413 C 0.54128 0.43696 0.34476
 C414 C 0.55613 0.46127 0.36681
 C415 C 0.58289 0.47411 0.36109
 C416 C 0.59440 0.46308 0.33369
 C417 C 0.59148 0.42799 0.27861
 C418 C 0.61361 0.44417 0.25152
 C419 C 0.62406 0.43374 0.21979
 C420 C 0.61235 0.40683 0.21326
 C421 C 0.59048 0.39065 0.24101
 C422 C 0.58040 0.40106 0.27361
 C423 C 0.62226 0.39577 0.17645
 C424 C 0.61964 0.37122 0.18311
 C425 C 0.62758 0.36031 0.14717
 C426 C 0.63892 0.37396 0.10432
 C427 C 0.64223 0.39871 0.09807
 C428 C 0.63373 0.40935 0.13338
 H429 H 0.54041 0.40798 0.29866
 H430 H 0.52070 0.42610 0.34913
 H431 H 0.59502 0.49297 0.37696
 H432 H 0.61506 0.47345 0.33076
 H433 H 0.62262 0.46499 0.25372
 H434 H 0.64125 0.44691 0.20008
 H435 H 0.58064 0.36986 0.23682
 H436 H 0.56373 0.38787 0.29457
 H437 H 0.61149 0.36036 0.21611
 H438 H 0.62503 0.34127 0.15302
 H439 H 0.65067 0.40952 0.06508
 H440 H 0.63558 0.42796 0.12611
 C441 C 0.14041 0.55653 0.30787
 C442 C 0.12770 0.53027 0.32117
 C443 C 0.10527 0.51963 0.34890
 C444 C 0.09507 0.53502 0.36396
 C445 C 0.10812 0.56138 0.35159
 C446 C 0.13045 0.57198 0.32379
 C447 C 0.16340 0.56765 0.27604
 C448 C 0.18367 0.59308 0.28315
 C449 C 0.20439 0.60417 0.25109
 C450 C 0.20541 0.59003 0.21142
 C451 C 0.18555 0.56438 0.20505
 C452 C 0.16474 0.55333 0.23692
 C453 C 0.22657 0.60229 0.17567
 C454 C 0.23808 0.58874 0.15718
 C455 C 0.25724 0.59994 0.12190
 C456 C 0.26514 0.62485 0.10402
 C457 C 0.25383 0.63851 0.12304
 C458 C 0.23482 0.62738 0.15857
 H459 H 0.13504 0.51791 0.31001
 H460 H 0.09559 0.49922 0.35755
 H461 H 0.10101 0.57386 0.36327
 H462 H 0.13954 0.59219 0.31376
 H463 H 0.18348 0.60447 0.31344
 H464 H 0.21964 0.62385 0.25728
 H465 H 0.18568 0.55313 0.17444
 H466 H 0.14929 0.53385 0.22993
 H467 H 0.23225 0.56946 0.17006
 H468 H 0.26557 0.58889 0.10808
 H469 H 0.25949 0.65775 0.11017
 H470 H 0.22610 0.63816 0.17180
 C471 C 0.42309 0.86106 0.30551
 C472 C 0.44813 0.87142 0.32348
 C473 C 0.45909 0.89363 0.35230
 C474 C 0.44540 0.90620 0.36356
 C475 C 0.42027 0.89568 0.34603
 C476 C 0.40922 0.87334 0.31754
 C477 C 0.41177 0.83794 0.27339
 C478 C 0.39607 0.83610 0.23419
 C479 C 0.38594 0.81476 0.20322
 C480 C 0.39145 0.79486 0.21039
 C481 C 0.40703 0.79656 0.24958
 C482 C 0.41697 0.81779 0.28090
 C483 C 0.38142 0.77276 0.17627
 C484 C 0.39754 0.76421 0.15789
 C485 C 0.38852 0.74449 0.12330
 C486 C 0.36309 0.73273 0.10674
 C487 C 0.34678 0.74079 0.12629
 C488 C 0.35589 0.76068 0.16048
 H489 H 0.45950 0.86268 0.31452
 H490 H 0.47833 0.90093 0.36581
 H491 H 0.40924 0.90497 0.35352
 H492 H 0.38977 0.86570 0.30496
 H493 H 0.39207 0.85145 0.22668
 H494 H 0.37430 0.81413 0.17285
 H495 H 0.41133 0.78133 0.25621
 H496 H 0.42860 0.81834 0.31118
 H497 H 0.41736 0.77333 0.16921
 H498 H 0.40155 0.73869 0.10907
 H499 H 0.32710 0.73215 0.11436
 H500 H 0.34299 0.76673 0.17447
 C501 C 0.43512 0.57187 0.30089
 C502 C 0.45852 0.58794 0.32435
 C503 C 0.46971 0.57736 0.35381
 C504 C 0.45773 0.55048 0.36055
 C505 C 0.43418 0.53443 0.33760
 C506 C 0.42301 0.54500 0.30807
 C507 C 0.42364 0.58303 0.26825
 C508 C 0.39704 0.57307 0.26766
 C509 C 0.38624 0.58314 0.23594
 C510 C 0.40180 0.60343 0.20417
 C511 C 0.42842 0.61355 0.20510
 C512 C 0.43921 0.60347 0.23674
 C513 C 0.39034 0.61364 0.16937
 C514 C 0.40217 0.64031 0.16016
 C515 C 0.39194 0.64982 0.12597
 C516 C 0.36966 0.63286 0.10008
 C517 C 0.35761 0.60621 0.10989
 C518 C 0.36782 0.59672 0.14416
 H519 H 0.46811 0.60873 0.32021
 H520 H 0.48766 0.59024 0.37165
 H521 H 0.42467 0.51363 0.34154
 H522 H 0.40517 0.53207 0.28992
 H523 H 0.38458 0.55761 0.29202
 H524 H 0.36571 0.57519 0.23654
 H525 H 0.44087 0.62889 0.18050
 H526 H 0.45971 0.61128 0.23572
 H527 H 0.41934 0.65385 0.17950
 H528 H 0.40167 0.67046 0.11950
 H529 H 0.34043 0.59260 0.09065
 H530 H 0.35842 0.57605 0.15007
   
