data_POSCAR
  _audit_creation_date              2014-09-24
  _audit_creation_method            'ToBaCCo'
  _symmetry_space_group_name_H-M    'P1'
  _symmetry_Int_Tables_number       1
  _symmetry_cell_setting            triclinic
  loop_
  _symmetry_equiv_pos_as_xyz
 x,y,z
_cell_length_a 66.5910
_cell_length_b 67.0423
_cell_length_c 66.4724
_cell_angle_alpha 90.139500
_cell_angle_beta 90.102600
_cell_angle_gamma 89.923500
loop_
  _atom_site_label
  _atom_site_type_symbol
  _atom_site_fract_x
  _atom_site_fract_y
  _atom_site_fract_z
C1 C 0.21834 0.51399 1.02404
 H2 H 0.21755 0.52507 1.01225
 C3 C 0.20477 0.51470 1.04001
 H4 H 0.19347 0.52628 1.03973
 C5 C 0.23330 0.48477 1.03714
 H6 H 0.24433 0.47302 1.03589
 C7 C 0.22000 0.48482 1.05336
 H8 H 0.22188 0.47336 1.06461
 N9 N 0.23229 0.49926 1.02294
 C10 C 0.28074 0.52132 0.98516
 H11 H 0.28153 0.50927 0.97432
 C12 C 0.29477 0.53674 0.98451
 H13 H 0.30618 0.53662 0.97293
 C14 C 0.26502 0.53588 1.01359
 H15 H 0.25370 0.53525 1.02519
 C16 C 0.27868 0.55168 1.01342
 H17 H 0.27772 0.56311 1.02491
 Zn18 Zn 0.24920 0.49859 1.00011
 N19 N 0.26626 0.52114 0.99954
 C20 C 0.23390 0.51235 0.96269
 N21 N 0.23245 0.49807 0.97711
 C22 C 0.21815 0.48365 0.97609
 C23 C 0.20461 0.48314 0.96004
 C24 C 0.22069 0.51239 0.94635
 C25 C 0.28043 0.47556 1.01541
 C26 C 0.29444 0.46009 1.01611
 C27 C 0.27859 0.44540 0.98690
 C28 C 0.26491 0.46124 0.98670
 N29 N 0.26608 0.47589 1.00084
 H30 H 0.24513 0.52390 0.96393
 H31 H 0.21711 0.47269 0.98797
 H32 H 0.19309 0.47177 0.95975
 H33 H 0.22220 0.52380 0.93496
 H34 H 0.28114 0.48753 1.02633
 H35 H 0.30578 0.46011 1.02780
 H36 H 0.27773 0.43407 0.97530
 H37 H 0.25368 0.46200 0.97499
 C38 C 0.29391 0.55213 0.99884
 C39 C 0.20523 0.49989 1.05511
 C40 C 0.29373 0.44483 1.00162
 C41 C 0.20571 0.49771 0.94493
 C42 C 0.78058 0.51585 -0.02390
 H43 H 0.78174 0.52681 -0.01198
 C44 C 0.79402 0.51629 -0.03998
 H45 H 0.80559 0.52761 -0.04025
 C46 C 0.76460 0.48723 -0.03740
 H47 H 0.75331 0.47575 -0.03620
 C48 C 0.77770 0.48713 -0.05378
 H49 H 0.77605 0.47575 -0.06524
 N50 N 0.76620 0.50151 -0.02292
 C51 C 0.71793 0.52413 0.01488
 H52 H 0.71705 0.51214 0.02572
 C53 C 0.70388 0.53957 0.01538
 H54 H 0.69234 0.53954 0.02684
 C55 C 0.73389 0.53848 -0.01344
 H56 H 0.74531 0.53775 -0.02493
 C57 C 0.72021 0.55431 -0.01340
 H58 H 0.72126 0.56567 -0.02491
 Zn59 Zn 0.74947 0.50115 0.00004
 N60 N 0.73252 0.52381 0.00060
 C61 C 0.76484 0.51495 0.03749
 N62 N 0.76635 0.50071 0.02295
 C63 C 0.78071 0.48631 0.02384
 C64 C 0.79421 0.48573 0.03992
 C65 C 0.77801 0.51490 0.05386
 C66 C 0.71788 0.47817 -0.01473
 C67 C 0.70391 0.46269 -0.01522
 C68 C 0.72037 0.44806 0.01363
 C69 C 0.73398 0.46391 0.01364
 N70 N 0.73252 0.47853 -0.00045
 H71 H 0.75355 0.52647 0.03635
 H72 H 0.78180 0.47539 0.01188
 H73 H 0.80575 0.47434 0.04014
 H74 H 0.77643 0.52624 0.06538
 H75 H 0.71693 0.49012 -0.02560
 H76 H 0.69236 0.46267 -0.02671
 H77 H 0.72150 0.43674 0.02517
 H78 H 0.74543 0.46468 0.02514
 C79 C 0.70483 0.55485 0.00101
 C80 C 0.79273 0.50175 -0.05519
 C81 C 0.70497 0.44744 -0.00082
 C82 C 0.79300 0.50019 0.05520
 C83 C -0.01658 0.27851 0.47465
 H84 H -0.02773 0.27958 0.48643
 C85 C -0.01737 0.29152 0.45831
 H86 H -0.02909 0.30269 0.45826
 C87 C 0.01292 0.26344 0.46195
 H88 H 0.02483 0.25260 0.46353
 C89 C 0.01283 0.27622 0.44540
 H90 H 0.02442 0.27417 0.43421
 N91 N -0.00167 0.26477 0.47614
 C92 C -0.02404 0.21851 0.51616
 H93 H -0.01198 0.21824 0.52708
 C94 C -0.03957 0.20462 0.51737
 H95 H -0.03953 0.19382 0.52946
 C96 C -0.03846 0.23271 0.48687
 H97 H -0.03770 0.24332 0.47470
 C98 C -0.05437 0.21916 0.48759
 H99 H -0.06575 0.21952 0.47595
 Zn100 Zn -0.00086 0.24881 0.49955
 N101 N -0.02371 0.23214 0.50106
 C102 C -0.01417 0.26609 0.53634
 N103 N 0.00020 0.26637 0.52183
 C104 C 0.01514 0.28016 0.52206
 C105 C 0.01610 0.29440 0.53737
 C106 C -0.01378 0.28008 0.55196
 C107 C 0.02193 0.21716 0.48491
 C108 C 0.03745 0.20318 0.48436
 C109 C 0.05265 0.21962 0.51296
 C110 C 0.03674 0.23324 0.51304
 N111 N 0.02183 0.23180 0.49910
 H112 H -0.02619 0.25532 0.53563
 H113 H 0.02621 0.28020 0.51017
 H114 H 0.02819 0.30518 0.53734
 H115 H -0.02559 0.27990 0.56313
 H116 H 0.00975 0.21624 0.47415
 H117 H 0.03726 0.19163 0.47295
 H118 H 0.06421 0.22074 0.52438
 H119 H 0.03616 0.24469 0.52448
 C120 C -0.05492 0.20473 0.50286
 C121 C -0.00241 0.29076 0.44326
 C122 C 0.05301 0.20423 0.49860
 C123 C 0.00142 0.29458 0.55253
 C124 C 0.98550 0.72018 0.52460
 H125 H 0.97458 0.71887 0.51260
 C126 C 0.98479 0.70716 0.54093
 H127 H 0.97330 0.69576 0.54133
 C128 C 1.01434 0.73607 0.53805
 H129 H 1.02603 0.74714 0.53670
 C130 C 1.01420 0.72334 0.55464
 H131 H 1.02563 0.72502 0.56613
 N132 N 1.00008 0.73431 0.52348
 C133 C 0.97756 0.78046 0.48331
 H134 H 0.98971 0.78088 0.47254
 C135 C 0.96191 0.79426 0.48200
 H136 H 0.96196 0.80513 0.46998
 C137 C 0.96301 0.76598 0.51233
 H138 H 0.96377 0.75528 0.52442
 C139 C 0.94699 0.77943 0.51150
 H140 H 0.93550 0.77892 0.52300
 Zn141 Zn 1.00089 0.75026 0.50006
 N142 N 0.97788 0.76675 0.49834
 C143 C 0.98792 0.73295 0.46315
 N144 N 1.00221 0.73270 0.47779
 C145 C 1.01723 0.71895 0.47768
 C146 C 1.01835 0.70472 0.46236
 C147 C 0.98846 0.71897 0.44753
 C148 C 1.02325 0.78215 0.51479
 C149 C 1.03864 0.79624 0.51544
 C150 C 1.05423 0.77972 0.48713
 C151 C 1.03845 0.76599 0.48694
 N152 N 1.02341 0.76742 0.50070
 H153 H 0.97583 0.74368 0.46377
 H154 H 1.02824 0.71893 0.48967
 H155 H 1.03050 0.69398 0.46250
 H156 H 0.97670 0.71912 0.43626
 H157 H 1.01097 0.78307 0.52538
 H158 H 1.03825 0.80785 0.52678
 H159 H 1.06591 0.77859 0.47587
 H160 H 1.03808 0.75447 0.47557
 C161 C 0.94644 0.79396 0.49632
 C162 C 0.99935 0.70857 0.55619
 C163 C 1.05434 0.79519 0.50141
 C164 C 1.00375 0.70451 0.44708
 C165 C 0.47570 -0.01470 0.27967
 H166 H 0.48693 -0.02637 0.27981
 C167 C 0.46007 -0.01497 0.29364
 H168 H 0.45946 -0.02690 0.30457
 C169 C 0.46350 0.01550 0.26578
 H170 H 0.46509 0.02758 0.25521
 C171 C 0.44760 0.01579 0.27945
 H172 H 0.43685 0.02789 0.27884
 N173 N 0.47704 0.00028 0.26599
 C174 C 0.51374 -0.02485 0.21792
 H175 H 0.52525 -0.01351 0.21708
 C176 C 0.51422 -0.04108 0.20477
 H177 H 0.52604 -0.04144 0.19365
 C178 C 0.48378 -0.03665 0.23274
 H179 H 0.47185 -0.03479 0.24357
 C180 C 0.48356 -0.05310 0.21979
 H181 H 0.47168 -0.06390 0.22168
 Zn182 Zn 0.49935 -0.00011 0.24835
 N183 N 0.49883 -0.02304 0.23170
 C184 C 0.53617 -0.01527 0.26395
 N185 N 0.52269 -0.00002 0.26463
 C186 C 0.52482 0.01526 0.27794
 C187 C 0.54106 0.01565 0.29124
 C188 C 0.55267 -0.01545 0.27695
 C189 C 0.48284 0.02448 0.21877
 C190 C 0.48194 0.04027 0.20516
 C191 C 0.51478 0.05076 0.21643
 C192 C 0.51489 0.03494 0.23009
 N193 N 0.49900 0.02226 0.23107
 H194 H 0.53402 -0.02751 0.25359
 H195 H 0.51367 0.02700 0.27839
 H196 H 0.54221 0.02774 0.30201
 H197 H 0.56329 -0.02765 0.27608
 H198 H 0.47057 0.01396 0.21960
 H199 H 0.46863 0.04197 0.19595
 H200 H 0.52783 0.06032 0.21556
 H201 H 0.52787 0.03257 0.23956
 C202 C 0.49898 -0.05571 0.20541
 C203 C 0.44574 0.00042 0.29365
 C204 C 0.49812 0.05364 0.20371
 C205 C 0.55522 0.00010 0.29094
 C206 C 0.52598 -0.01611 0.72090
 H207 H 0.51436 -0.02735 0.72021
 C208 C 0.54199 -0.01677 0.70736
 H209 H 0.54249 -0.02856 0.69622
 C210 C 0.53875 0.01350 0.73563
 H211 H 0.53725 0.02549 0.74640
 C212 C 0.55502 0.01339 0.72242
 H213 H 0.56613 0.02512 0.72351
 N214 N 0.52466 -0.00115 0.73467
 C215 C 0.48580 -0.02281 0.78254
 H216 H 0.47469 -0.01102 0.78265
 C217 C 0.48472 -0.03814 0.79664
 H218 H 0.47252 -0.03820 0.80738
 C219 C 0.51521 -0.03689 0.76835
 H220 H 0.52729 -0.03612 0.75756
 C221 C 0.51471 -0.05254 0.78220
 H222 H 0.52648 -0.06369 0.78192
 Zn223 Zn 0.50157 -0.00032 0.75121
 N224 N 0.50081 -0.02249 0.76873
 C225 C 0.46463 -0.01472 0.73527
 N226 N 0.47893 -0.00032 0.73395
 C227 C 0.47803 0.01399 0.71952
 C228 C 0.46213 0.01436 0.70581
 C229 C 0.44845 -0.01490 0.72187
 C230 C 0.51639 0.02406 0.78187
 C231 C 0.51700 0.04028 0.79506
 C232 C 0.48740 0.05356 0.77881
 C233 C 0.48736 0.03708 0.76592
 N234 N 0.50180 0.02281 0.76759
 H235 H 0.46580 -0.02621 0.74656
 H236 H 0.48983 0.02503 0.71857
 H237 H 0.46188 0.02570 0.69425
 H238 H 0.43709 -0.02635 0.72331
 H239 H 0.52746 0.01230 0.78311
 H240 H 0.52856 0.04082 0.80652
 H241 H 0.47588 0.06486 0.77715
 H242 H 0.47565 0.03563 0.75475
 C243 C 0.49937 -0.05324 0.79667
 C244 C 0.55673 -0.00181 0.70792
 C245 C 0.50234 0.05530 0.79366
 C246 C 0.44706 -0.00025 0.70686
 C247 C 0.28137 0.01522 0.47705
 H248 H 0.28243 0.02602 0.48912
 C249 C 0.29498 0.01585 0.46111
 H250 H 0.30656 0.02717 0.46110
 C251 C 0.26555 -0.01325 0.46304
 H252 H 0.25426 -0.02476 0.46400
 C253 C 0.27881 -0.01314 0.44679
 H254 H 0.27728 -0.02440 0.43518
 N255 N 0.26701 0.00084 0.47771
 C256 C 0.21866 0.02284 0.51579
 H257 H 0.21784 0.01072 0.52648
 C258 C 0.20458 0.03825 0.51651
 H259 H 0.19309 0.03805 0.52801
 C260 C 0.23451 0.03755 0.48759
 H261 H 0.24590 0.03697 0.47607
 C262 C 0.22079 0.05334 0.48785
 H263 H 0.22177 0.06483 0.47647
 Zn264 Zn 0.25019 0.00010 0.50060
 N265 N 0.23320 0.02272 0.50146
 C266 C 0.26561 0.01354 0.53814
 N267 N 0.26704 -0.00062 0.52353
 C268 C 0.28139 -0.01505 0.52429
 C269 C 0.29501 -0.01567 0.54027
 C270 C 0.27890 0.01345 0.55441
 C271 C 0.21872 -0.02266 0.48533
 C272 C 0.20472 -0.03810 0.48455
 C273 C 0.22100 -0.05318 0.51326
 C274 C 0.23465 -0.03736 0.51357
 N275 N 0.23327 -0.02253 0.49970
 H276 H 0.25434 0.02509 0.53711
 H277 H 0.28242 -0.02590 0.51226
 H278 H 0.30657 -0.02704 0.54035
 H279 H 0.27743 0.02477 0.56596
 H280 H 0.21784 -0.01054 0.47464
 H281 H 0.19322 -0.03793 0.47301
 H282 H 0.22205 -0.06467 0.52463
 H283 H 0.24604 -0.03677 0.52513
 C284 C 0.20545 0.05369 0.50232
 C285 C 0.29386 0.00148 0.44573
 C286 C 0.20567 -0.05356 0.49873
 C287 C 0.29394 -0.00123 0.55557
 C288 C 0.71889 0.01355 0.52291
 H289 H 0.71767 0.02449 0.51104
 C290 C 0.70543 0.01397 0.53899
 H291 H 0.69380 0.02526 0.53930
 C292 C 0.73503 -0.01501 0.53633
 H293 H 0.74640 -0.02644 0.53511
 C294 C 0.72191 -0.01512 0.55270
 H295 H 0.72362 -0.02648 0.56412
 N296 N 0.73336 -0.00074 0.52191
 C297 C 0.78178 0.02197 0.48455
 H298 H 0.78284 0.00996 0.47369
 C299 C 0.79574 0.03746 0.48423
 H300 H 0.80739 0.03744 0.47288
 C301 C 0.76546 0.03633 0.51275
 H302 H 0.75393 0.03559 0.52412
 C303 C 0.77903 0.05221 0.51288
 H304 H 0.77779 0.06360 0.52439
 Zn305 Zn 0.75018 -0.00104 0.49900
 N306 N 0.76706 0.02164 0.49869
 C307 C 0.73504 0.01279 0.46154
 N308 N 0.73339 -0.00141 0.47601
 C309 C 0.71895 -0.01570 0.47501
 C310 C 0.70549 -0.01616 0.45889
 C311 C 0.72192 0.01286 0.44512
 C312 C 0.78188 -0.02394 0.51362
 C313 C 0.79593 -0.03939 0.51403
 C314 C 0.77937 -0.05420 0.48528
 C315 C 0.76570 -0.03836 0.48533
 N316 N 0.76719 -0.02366 0.49940
 H317 H 0.74639 0.02422 0.46276
 H318 H 0.71776 -0.02660 0.48692
 H319 H 0.69386 -0.02743 0.45860
 H320 H 0.72362 0.02417 0.43366
 H321 H 0.78285 -0.01194 0.52448
 H322 H 0.80755 -0.03934 0.52544
 H323 H 0.77822 -0.06560 0.47376
 H324 H 0.75418 -0.03766 0.47390
 C325 C 0.79454 0.05278 0.49861
 C326 C 0.70680 -0.00054 0.55415
 C327 C 0.79485 -0.05472 0.49964
 C328 C 0.70682 -0.00170 0.44368
 C329 C 0.48665 0.21814 1.02150
 H330 H 0.47742 0.21610 1.00825
 C331 C 0.48566 0.20441 1.03721
 H332 H 0.47575 0.19171 1.03570
 C333 C 0.51157 0.23666 1.03879
 H334 H 0.52185 0.24910 1.03926
 C335 C 0.51083 0.22347 1.05501
 H336 H 0.52030 0.22626 1.06795
 N337 N 0.49952 0.23383 1.02251
 C338 C 0.47809 0.28231 0.98488
 H339 H 0.49065 0.28367 0.97466
 C340 C 0.46243 0.29611 0.98415
 H341 H 0.46287 0.30796 0.97312
 C342 C 0.46250 0.26530 1.01188
 H343 H 0.46281 0.25349 1.02291
 C344 C 0.44643 0.27874 1.01160
 H345 H 0.43448 0.27717 1.02250
 Zn346 Zn 0.50083 0.25074 0.99981
 N347 N 0.47791 0.26735 0.99865
 C348 C 0.48812 0.23593 0.96187
 N349 N 0.50215 0.23430 0.97666
 C350 C 0.51666 0.22003 0.97593
 C351 C 0.51748 0.20667 0.95980
 C352 C 0.48837 0.22288 0.94547
 C353 C 0.52295 0.28249 1.01546
 C354 C 0.53834 0.29655 1.01652
 C355 C 0.55468 0.27994 0.98869
 C356 C 0.53889 0.26625 0.98809
 N357 N 0.52346 0.26774 1.00140
 H358 H 0.47650 0.24713 0.96288
 H359 H 0.52740 0.21883 0.98810
 H360 H 0.52889 0.19515 0.95971
 H361 H 0.47712 0.22446 0.93381
 H362 H 0.51034 0.28351 1.02566
 H363 H 0.53764 0.30821 1.02780
 H364 H 0.56665 0.27879 0.97774
 H365 H 0.53881 0.25472 0.97673
 C366 C 0.44641 0.29453 0.99776
 C367 C 0.49787 0.20693 1.05431
 C368 C 0.55441 0.29547 1.00291
 C369 C 0.50311 0.20791 0.94435
 C370 C 0.48165 0.78012 -0.02247
 H371 H 0.47060 0.78028 -0.01056
 C372 C 0.48063 0.79421 -0.03786
 H373 H 0.46851 0.80498 -0.03787
 C374 C 0.51100 0.76594 -0.03670
 H375 H 0.52307 0.75519 -0.03594
 C376 C 0.51055 0.77976 -0.05239
 H377 H 0.52236 0.77948 -0.06356
 N378 N 0.49665 0.76635 -0.02216
 C379 C 0.47578 0.71715 0.01495
 H380 H 0.48810 0.71632 0.02555
 C381 C 0.46046 0.70300 0.01559
 H382 H 0.46093 0.69144 0.02693
 C383 C 0.46042 0.73312 -0.01289
 H384 H 0.46071 0.74460 -0.02426
 C385 C 0.44470 0.71933 -0.01271
 H386 H 0.43298 0.72036 -0.02398
 Zn387 Zn 0.49797 0.74906 0.00023
 N388 N 0.47552 0.73181 0.00086
 C389 C 0.48467 0.76336 0.03827
 N390 N 0.49870 0.76525 0.02356
 C391 C 0.51302 0.77966 0.02448
 C392 C 0.51367 0.79287 0.04073
 C393 C 0.48479 0.77624 0.05482
 C394 C 0.52140 0.71868 -0.01611
 C395 C 0.53710 0.70493 -0.01724
 C396 C 0.55204 0.72033 0.01208
 C397 C 0.53595 0.73372 0.01273
 N398 N 0.52105 0.73265 -0.00126
 H399 H 0.47319 0.75206 0.03710
 H400 H 0.52376 0.78106 0.01238
 H401 H 0.52493 0.80450 0.04094
 H402 H 0.47358 0.77441 0.06645
 H403 H 0.50922 0.71802 -0.02689
 H404 H 0.53707 0.69386 -0.02912
 H405 H 0.56356 0.72110 0.02357
 H406 H 0.53519 0.74465 0.02467
 C407 C 0.44471 0.70392 0.00156
 C408 C 0.49530 0.79425 -0.05302
 C409 C 0.55260 0.70555 -0.00291
 C410 C 0.49936 0.79133 0.05616
 C411 C 1.02341 0.48371 0.21966
 H412 H 1.01180 0.47247 0.21880
 C413 C 1.03924 0.48345 0.20592
 H414 H 1.03965 0.47197 0.19444
 C415 C 1.03642 0.51282 0.23518
 H416 H 1.03511 0.52443 0.24639
 C417 C 1.05248 0.51316 0.22171
 H418 H 1.06361 0.52485 0.22298
 N419 N 1.02236 0.49816 0.23401
 C420 C 0.98524 0.47383 0.28197
 H421 H 0.97430 0.48570 0.28337
 C422 C 0.98460 0.45760 0.29505
 H423 H 0.97317 0.45719 0.30660
 C424 C 1.01394 0.46054 0.26571
 H425 H 1.02553 0.46188 0.25446
 C426 C 1.01383 0.44400 0.27845
 H427 H 1.02516 0.43256 0.27656
 Zn428 Zn 0.99980 0.49807 0.25129
 N429 N 0.99967 0.47496 0.26758
 C430 C 0.96249 0.48428 0.23576
 N431 N 0.97665 0.49885 0.23478
 C432 C 0.97530 0.51379 0.22105
 C433 C 0.95918 0.51453 0.20761
 C434 C 0.94609 0.48447 0.22264
 C435 C 1.01563 0.52082 0.28264
 C436 C 1.01664 0.53623 0.29674
 C437 C 0.98642 0.55027 0.28239
 C438 C 0.98599 0.53456 0.26854
 N439 N 1.00053 0.52029 0.26887
 H440 H 0.96400 0.47232 0.24650
 H441 H 0.98697 0.52498 0.22035
 H442 H 0.95863 0.52631 0.19652
 H443 H 0.93492 0.47281 0.22376
 H444 H 1.02686 0.50914 0.28271
 H445 H 1.02890 0.53646 0.30746
 H446 H 0.97453 0.56130 0.28214
 H447 H 0.97385 0.53362 0.25778
 C448 C 0.99903 0.44238 0.29340
 C449 C 1.05402 0.49835 0.20680
 C450 C 1.00185 0.55118 0.29681
 C451 C 0.94434 0.49967 0.20822
 C452 C -0.02579 0.48538 0.77885
 H453 H -0.01427 0.47401 0.77950
 C454 C -0.04184 0.48488 0.79232
 H455 H -0.04249 0.47308 0.80339
 C456 C -0.03826 0.51513 0.76423
 H457 H -0.03664 0.52710 0.75353
 C458 C -0.05459 0.51519 0.77738
 H459 H -0.06560 0.52703 0.77631
 N460 N -0.02430 0.50033 0.76515
 C461 C 0.01422 0.47795 0.71718
 H462 H 0.02553 0.48952 0.71709
 C463 C 0.01501 0.46256 0.70304
 H464 H 0.02720 0.46223 0.69228
 C465 C -0.01543 0.46448 0.73135
 H466 H -0.02748 0.46552 0.74215
 C467 C -0.01521 0.44879 0.71747
 H468 H -0.02717 0.43788 0.71774
 Zn469 Zn -0.00120 0.50080 0.74862
 N470 N -0.00078 0.47860 0.73101
 C471 C 0.03559 0.48587 0.76450
 N472 N 0.02142 0.50044 0.76588
 C473 C 0.02244 0.51472 0.78040
 C474 C 0.03833 0.51489 0.79412
 C475 C 0.05176 0.48549 0.77790
 C476 C -0.01567 0.52549 0.71811
 C477 C -0.01605 0.54176 0.70505
 C478 C 0.01378 0.55446 0.72136
 C479 C 0.01358 0.53794 0.73413
 N480 N -0.00109 0.52394 0.73237
 H481 H 0.03432 0.47441 0.75313
 H482 H 0.01076 0.52591 0.78140
 H483 H 0.03868 0.52622 0.80575
 H484 H 0.06300 0.47390 0.77640
 H485 H -0.02692 0.51394 0.71679
 H486 H -0.02761 0.54254 0.69361
 H487 H 0.02547 0.56554 0.72311
 H488 H 0.02527 0.53625 0.74527
 C489 C 0.00011 0.44776 0.70299
 C490 C -0.05648 0.49999 0.79177
 C491 C -0.00116 0.55651 0.70655
 C492 C 0.05327 0.50011 0.79300
 C493 C 0.09964 0.15959 0.49962
 C494 C 0.10440 0.17987 0.50219
 C495 C 0.08929 0.19439 0.50189
 C496 C 0.06914 0.18894 0.49884
 C497 C 0.06441 0.16870 0.49619
 C498 C 0.07946 0.15419 0.49663
 C499 C 0.11553 0.14408 0.50013
 N500 N 0.11060 0.12443 0.50039
 N501 N 0.12479 0.11043 0.50087
 C502 C 0.14454 0.11545 0.50105
 N503 N 0.14950 0.13510 0.50076
 N504 N 0.13529 0.14913 0.50034
 C505 C 0.16025 0.09977 0.50154
 C506 C 0.18062 0.10459 0.49888
 C507 C 0.19533 0.08966 0.49911
 C508 C 0.18999 0.06964 0.50219
 C509 C 0.16965 0.06484 0.50495
 C510 C 0.15496 0.07970 0.50457
 H511 H 0.11978 0.18454 0.50454
 H512 H 0.09337 0.20990 0.50383
 H513 H 0.04898 0.16404 0.49407
 H514 H 0.07524 0.13873 0.49460
 H515 H 0.18522 0.11989 0.49649
 H516 H 0.21091 0.09380 0.49710
 H517 H 0.16506 0.04950 0.50708
 H518 H 0.13943 0.07543 0.50667
 C519 C 0.65976 0.60102 -0.00043
 C520 C 0.65439 0.58099 0.00268
 C521 C 0.66905 0.56609 0.00328
 C522 C 0.68941 0.57083 0.00065
 C523 C 0.69483 0.59082 -0.00252
 C524 C 0.68016 0.60578 -0.00296
 C525 C 0.64409 0.61674 -0.00110
 N526 N 0.64909 0.63638 -0.00113
 N527 N 0.63492 0.65044 -0.00165
 C528 C 0.61515 0.64543 -0.00223
 N529 N 0.61019 0.62579 -0.00224
 N530 N 0.62434 0.61176 -0.00166
 C531 C 0.59929 0.66096 -0.00273
 C532 C 0.57917 0.65565 -0.00622
 C533 C 0.56411 0.67016 -0.00647
 C534 C 0.56878 0.69032 -0.00312
 C535 C 0.58888 0.69569 0.00035
 C536 C 0.60400 0.68117 0.00045
 H537 H 0.63884 0.57677 0.00469
 H538 H 0.66441 0.55078 0.00549
 H539 H 0.71043 0.59490 -0.00445
 H540 H 0.68481 0.62105 -0.00541
 H541 H 0.57499 0.64024 -0.00874
 H542 H 0.54872 0.66554 -0.00892
 H543 H 0.59292 0.71114 0.00283
 H544 H 0.61935 0.68578 0.00320
 C545 C 0.89995 -0.16126 0.49603
 C546 C 0.89516 -0.18140 0.49942
 C547 C 0.91022 -0.19598 0.49946
 C548 C 0.93033 -0.19075 0.49591
 C549 C 0.93507 -0.17067 0.49233
 C550 C 0.92008 -0.15609 0.49245
 C551 C 0.88416 -0.14565 0.49643
 N552 N 0.88921 -0.12604 0.49627
 N553 N 0.87513 -0.11194 0.49680
 C554 C 0.85536 -0.11683 0.49746
 N555 N 0.85027 -0.13645 0.49756
 N556 N 0.86438 -0.15057 0.49710
 C557 C 0.83976 -0.10104 0.49810
 C558 C 0.81932 -0.10575 0.49564
 C559 C 0.80471 -0.09073 0.49609
 C560 C 0.81022 -0.07074 0.49922
 C561 C 0.83062 -0.06606 0.50177
 C562 C 0.84522 -0.08101 0.50115
 H563 H 0.87982 -0.18590 0.50224
 H564 H 0.90613 -0.21138 0.50211
 H565 H 0.95047 -0.16615 0.48982
 H566 H 0.92431 -0.14074 0.48977
 H567 H 0.81460 -0.12102 0.49324
 H568 H 0.78908 -0.09477 0.49422
 H569 H 0.83532 -0.05074 0.50394
 H570 H 0.86080 -0.07683 0.50311
 C571 C 0.33891 0.39874 1.00075
 C572 C 0.34416 0.41875 1.00429
 C573 C 0.32947 0.43361 1.00469
 C574 C 0.30918 0.42887 1.00146
 C575 C 0.30388 0.40890 0.99787
 C576 C 0.31858 0.39396 0.99760
 C577 C 0.35464 0.38306 1.00024
 N578 N 0.34970 0.36342 0.99929
 N579 N 0.36393 0.34941 0.99885
 C580 C 0.38368 0.35448 0.99927
 N581 N 0.38858 0.37411 1.00020
 N582 N 0.37438 0.38809 1.00070
 C583 C 0.39961 0.33900 0.99875
 C584 C 0.41985 0.34452 0.99660
 C585 C 0.43495 0.33007 0.99616
 C586 C 0.43021 0.30974 0.99796
 C587 C 0.41000 0.30417 1.00017
 C588 C 0.39484 0.31865 1.00047
 H589 H 0.35966 0.42298 1.00677
 H590 H 0.33404 0.44891 1.00722
 H591 H 0.28833 0.40480 0.99548
 H592 H 0.31402 0.37871 0.99482
 H593 H 0.42409 0.36004 0.99523
 H594 H 0.45041 0.33483 0.99472
 H595 H 0.40591 0.28860 1.00145
 H596 H 0.37941 0.31388 1.00216
 C597 C 0.89891 0.15974 0.50289
 C598 C 0.89401 0.17984 0.49933
 C599 C 0.90896 0.19449 0.49938
 C600 C 0.92908 0.18937 0.50319
 C601 C 0.93394 0.16933 0.50694
 C602 C 0.91905 0.15468 0.50673
 C603 C 0.88324 0.14406 0.50239
 N604 N 0.88842 0.12447 0.50265
 N605 N 0.87444 0.11031 0.50203
 C606 C 0.85464 0.11512 0.50117
 N607 N 0.84942 0.13472 0.50097
 N608 N 0.86343 0.14890 0.50152
 C609 C 0.83915 0.09927 0.50042
 C610 C 0.81867 0.10390 0.50275
 C611 C 0.80416 0.08883 0.50220
 C612 C 0.80981 0.06886 0.49911
 C613 C 0.83024 0.06425 0.49670
 C614 C 0.84474 0.07926 0.49742
 H615 H 0.87866 0.18426 0.49632
 H616 H 0.90478 0.20985 0.49659
 H617 H 0.94935 0.16490 0.50966
 H618 H 0.92337 0.13936 0.50955
 H619 H 0.81384 0.11916 0.50511
 H620 H 0.78850 0.09282 0.50396
 H621 H 0.83505 0.04896 0.49456
 H622 H 0.86036 0.07514 0.49556
 C623 C 0.33867 0.59851 -0.00056
 C624 C 0.31828 0.60319 0.00234
 C625 C 0.30372 0.58816 0.00218
 C626 C 0.30923 0.56817 -0.00106
 C627 C 0.32958 0.56351 -0.00404
 C628 C 0.34413 0.57849 -0.00373
 C629 C 0.35421 0.61433 -0.00019
 N630 N 0.37402 0.60948 -0.00027
 N631 N 0.38805 0.62360 0.00010
 C632 C 0.38290 0.64320 0.00050
 N633 N 0.36309 0.64808 0.00055
 N634 N 0.34904 0.63394 0.00025
 C635 C 0.39861 0.65885 0.00088
 C636 C 0.39358 0.67909 -0.00151
 C637 C 0.40852 0.69374 -0.00134
 C638 C 0.42877 0.68848 0.00142
 C639 C 0.43378 0.66828 0.00390
 C640 C 0.41890 0.65364 0.00357
 H641 H 0.31355 0.61845 0.00484
 H642 H 0.28812 0.59218 0.00437
 H643 H 0.33431 0.54821 -0.00631
 H644 H 0.35968 0.57434 -0.00602
 H645 H 0.37811 0.68362 -0.00364
 H646 H 0.40422 0.70922 -0.00313
 H647 H 0.44929 0.66376 0.00579
 H648 H 0.42333 0.63821 0.00546
 C649 C 0.10062 -0.15992 0.50072
 C650 C 0.08037 -0.15462 0.50344
 C651 C 0.06543 -0.16921 0.50378
 C652 C 0.07034 -0.18944 0.50128
 C653 C 0.09056 -0.19479 0.49849
 C654 C 0.10555 -0.18019 0.49830
 C655 C 0.11639 -0.14434 0.50032
 N656 N 0.13619 -0.14929 0.50029
 N657 N 0.15029 -0.13521 0.49997
 C658 C 0.14518 -0.11558 0.49960
 N659 N 0.12540 -0.11065 0.49961
 N660 N 0.11132 -0.12472 0.49999
 C661 C 0.16078 -0.09982 0.49923
 C662 C 0.15536 -0.07978 0.49619
 C663 C 0.16995 -0.06485 0.49591
 C664 C 0.19031 -0.06956 0.49876
 C665 C 0.19579 -0.08957 0.50185
 C666 C 0.18119 -0.10456 0.50199
 H667 H 0.07601 -0.13917 0.50535
 H668 H 0.04995 -0.16461 0.50569
 H669 H 0.09478 -0.21029 0.49669
 H670 H 0.12099 -0.18480 0.49616
 H671 H 0.13981 -0.07557 0.49401
 H672 H 0.16525 -0.04953 0.49376
 H673 H 0.21139 -0.09365 0.50395
 H674 H 0.18589 -0.11984 0.50439
 C675 C 0.66031 0.40098 1.00050
 C676 C 0.65477 0.42096 0.99721
 C677 C 0.66929 0.43595 0.99666
 C678 C 0.68968 0.43137 0.99950
 C679 C 0.69526 0.41143 1.00286
 C680 C 0.68074 0.39638 1.00327
 C681 C 0.64479 0.38515 1.00112
 N682 N 0.65001 0.36556 1.00176
 N683 N 0.63599 0.35140 1.00224
 C684 C 0.61616 0.35624 1.00217
 N685 N 0.61098 0.37582 1.00157
 N686 N 0.62498 0.38996 1.00103
 C687 C 0.60048 0.34057 1.00265
 C688 C 0.58017 0.34579 1.00507
 C689 C 0.56530 0.33113 1.00533
 C690 C 0.57035 0.31090 1.00307
 C691 C 0.59064 0.30563 1.00065
 C692 C 0.60556 0.32030 1.00053
 H693 H 0.63919 0.42506 0.99502
 H694 H 0.66451 0.45122 0.99431
 H695 H 0.71090 0.40746 1.00495
 H696 H 0.68552 0.38116 1.00585
 H697 H 0.57570 0.36123 1.00675
 H698 H 0.54977 0.33566 1.00695
 H699 H 0.59497 0.29013 0.99903
 H700 H 0.62105 0.31576 0.99863
 C701 C 0.49707 0.10157 1.16036
 C702 C 0.48761 0.08333 1.15614
 C703 C 0.48810 0.06779 1.17009
 C704 C 0.49774 0.07022 1.18880
 C705 C 0.50706 0.08860 1.19305
 C706 C 0.50688 0.10402 1.17892
 C707 C 0.49681 0.11784 1.14537
 N708 N 0.51104 0.13234 1.14568
 N709 N 0.51101 0.14674 1.13190
 C710 C 0.49665 0.14733 1.11736
 N711 N 0.48234 0.13292 1.11716
 N712 N 0.48246 0.11843 1.13084
 C713 C 0.49681 0.16306 1.10181
 C714 C 0.47923 0.16775 1.09111
 C715 C 0.47947 0.18225 1.07604
 C716 C 0.49739 0.19216 1.07103
 C717 C 0.51496 0.18749 1.08187
 C718 C 0.51462 0.17324 1.09719
 H719 H 0.48013 0.08091 1.14186
 H720 H 0.48116 0.05376 1.16602
 H721 H 0.51431 0.09120 1.20740
 H722 H 0.51417 0.11798 1.18265
 H723 H 0.46522 0.16031 1.09449
 H724 H 0.46555 0.18572 1.06838
 H725 H 0.52913 0.19448 1.07824
 H726 H 0.52845 0.16982 1.10506
 C727 C -0.00059 0.66598 0.60473
 C728 C 0.01753 0.67222 0.59594
 C729 C 0.01751 0.68621 0.58039
 C730 C -0.00062 0.69429 0.57324
 C731 C -0.01872 0.68826 0.58219
 C732 C -0.01871 0.67428 0.59776
 C733 C -0.00060 0.65060 0.62073
 N734 N -0.01808 0.64427 0.62904
 N735 N -0.01812 0.63008 0.64303
 C736 C -0.00067 0.62161 0.64934
 N737 N 0.01682 0.62802 0.64111
 N738 N 0.01685 0.64220 0.62711
 C739 C -0.00074 0.60542 0.66451
 C740 C 0.01730 0.59626 0.67051
 C741 C 0.01718 0.58057 0.68431
 C742 C -0.00098 0.57365 0.69243
 C743 C -0.01900 0.58295 0.68664
 C744 C -0.01889 0.59866 0.67284
 H745 H 0.03177 0.66614 0.60089
 H746 H 0.03169 0.69035 0.57364
 H747 H -0.03291 0.69441 0.57719
 H748 H -0.03294 0.66989 0.60422
 H749 H 0.03155 0.60105 0.66438
 H750 H 0.03130 0.57355 0.68827
 H751 H -0.03321 0.57815 0.69284
 H752 H -0.03306 0.60540 0.66864
 C753 C 0.49769 0.90020 -0.15868
 C754 C 0.50289 0.89579 -0.17871
 C755 C 0.50348 0.91087 -0.19320
 C756 C 0.49884 0.93068 -0.18801
 C757 C 0.49369 0.93508 -0.16799
 C758 C 0.49312 0.92004 -0.15351
 C759 C 0.49705 0.88429 -0.14322
 N760 N 0.49198 0.88865 -0.12393
 N761 N 0.49145 0.87444 -0.10998
 C762 C 0.49595 0.85524 -0.11470
 N763 N 0.50100 0.85085 -0.13401
 N764 N 0.50154 0.86507 -0.14798
 C765 C 0.49550 0.83950 -0.09906
 C766 C 0.50024 0.81960 -0.10383
 C767 C 0.50006 0.80488 -0.08895
 C768 C 0.49510 0.80972 -0.06898
 C769 C 0.49026 0.82959 -0.06424
 C770 C 0.49045 0.84429 -0.07909
 H771 H 0.50647 0.88068 -0.18323
 H772 H 0.50729 0.90698 -0.20855
 H773 H 0.49035 0.95024 -0.16343
 H774 H 0.48913 0.92401 -0.13824
 H775 H 0.50413 0.81535 -0.11905
 H776 H 0.50364 0.78966 -0.09311
 H777 H 0.48668 0.83388 -0.04895
 H778 H 0.48677 0.85946 -0.07484
 C779 C 0.99763 0.33277 0.39508
 C780 C 0.97965 0.32754 0.40469
 C781 C 0.97958 0.31365 0.42033
 C782 C 0.99752 0.30440 0.42687
 C783 C 1.01547 0.30950 0.41678
 C784 C 1.01550 0.32348 0.40123
 C785 C 0.99780 0.34813 0.37906
 N786 N 1.01540 0.35466 0.37116
 N787 N 1.01560 0.36886 0.35718
 C788 C 0.99820 0.37713 0.35047
 N789 N 0.98060 0.37052 0.35829
 N790 N 0.98040 0.35634 0.37229
 C791 C 0.99845 0.39334 0.33533
 C792 C 0.98040 0.40100 0.32749
 C793 C 0.98061 0.41671 0.31371
 C794 C 0.99885 0.42519 0.30748
 C795 C 1.01691 0.41737 0.31513
 C796 C 1.01671 0.40162 0.32886
 H797 H 0.96554 0.33425 0.40021
 H798 H 0.96518 0.30984 0.42675
 H799 H 1.02985 0.30355 0.42139
 H800 H 1.02966 0.32720 0.39421
 H801 H 0.96606 0.39491 0.33204
 H802 H 0.96645 0.42216 0.30786
 H803 H 1.03121 0.42374 0.31086
 H804 H 1.03090 0.39615 0.33463
 C805 C 0.49919 0.89546 0.16405
 C806 C 0.48119 0.90200 0.17283
 C807 C 0.48111 0.91782 0.18658
 C808 C 0.49906 0.92776 0.19192
 C809 C 0.51712 0.92083 0.18316
 C810 C 0.51715 0.90496 0.16952
 C811 C 0.49921 0.87909 0.14898
 N812 N 0.51673 0.87216 0.14118
 N813 N 0.51675 0.85782 0.12727
 C814 C 0.49925 0.84981 0.12054
 N815 N 0.48173 0.85668 0.12841
 N816 N 0.48171 0.87100 0.14234
 C817 C 0.49926 0.83429 0.10460
 C818 C 0.48111 0.82733 0.09636
 C819 C 0.48114 0.81324 0.08082
 C820 C 0.49933 0.80573 0.07319
 C821 C 0.51746 0.81245 0.08165
 C822 C 0.51744 0.82657 0.09715
 H823 H 0.46704 0.89507 0.16890
 H824 H 0.46667 0.92269 0.19216
 H825 H 0.53151 0.92712 0.18721
 H826 H 0.53135 0.90018 0.16321
 H827 H 0.46683 0.83298 0.10168
 H828 H 0.46692 0.80860 0.07446
 H829 H 0.53171 0.80673 0.07632
 H830 H 0.53170 0.83149 0.10322
 C831 C 0.00159 0.34011 0.59851
 C832 C 0.00649 0.34477 0.57850
 C833 C 0.00651 0.32999 0.56366
 C834 C 0.00164 0.31017 0.56844
 C835 C -0.00323 0.30548 0.58845
 C836 C -0.00324 0.32027 0.60332
 C837 C 0.00144 0.35592 0.61417
 N838 N -0.00350 0.35168 0.63352
 N839 N -0.00370 0.36595 0.64751
 C840 C 0.00103 0.38507 0.64275
 N841 N 0.00598 0.38929 0.62341
 N842 N 0.00618 0.37503 0.60944
 C843 C 0.00078 0.40104 0.65824
 C844 C 0.00571 0.42076 0.65310
 C845 C 0.00549 0.43585 0.66761
 C846 C 0.00033 0.43162 0.68764
 C847 C -0.00465 0.41193 0.69281
 C848 C -0.00441 0.39680 0.67828
 H849 H 0.01022 0.35988 0.57422
 H850 H 0.01002 0.33416 0.54834
 H851 H -0.00684 0.29030 0.59264
 H852 H -0.00704 0.31614 0.61858
 H853 H 0.00971 0.42461 0.63781
 H854 H 0.00910 0.45093 0.66307
 H855 H -0.00849 0.40816 0.70816
 H856 H -0.00826 0.38177 0.68279
 C857 C 0.50255 0.10399 0.83620
 C858 C 0.52062 0.09695 0.82786
 C859 C 0.52053 0.08132 0.81391
 C860 C 0.50239 0.07237 0.80795
 C861 C 0.48431 0.07957 0.81610
 C862 C 0.48439 0.09519 0.83005
 C863 C 0.50266 0.12014 0.85150
 N864 N 0.48522 0.12686 0.85966
 N865 N 0.48532 0.14104 0.87372
 C866 C 0.50286 0.14912 0.88026
 N867 N 0.52030 0.14246 0.87205
 N868 N 0.52020 0.12828 0.85797
 C869 C 0.50295 0.16457 0.89627
 C870 C 0.52113 0.17264 0.90337
 C871 C 0.52119 0.18682 0.91884
 C872 C 0.50309 0.19327 0.92754
 C873 C 0.48492 0.18535 0.92032
 C874 C 0.48485 0.17118 0.90488
 H875 H 0.53488 0.10343 0.83218
 H876 H 0.53469 0.07629 0.80770
 H877 H 0.47010 0.07282 0.81202
 H878 H 0.47019 0.10019 0.83618
 H879 H 0.53535 0.16795 0.89705
 H880 H 0.53542 0.19282 0.92391
 H881 H 0.47073 0.18979 0.92690
 H882 H 0.47057 0.16527 0.89984
 C883 C 1.00417 0.65898 0.40110
 C884 C 0.99931 0.67882 0.39627
 C885 C 0.99926 0.69362 0.41113
 C886 C 1.00411 0.68893 0.43116
 C887 C 1.00904 0.66912 0.43597
 C888 C 1.00908 0.65433 0.42114
 C889 C 1.00400 0.64316 0.38546
 N890 N 1.00873 0.62404 0.39022
 N891 N 1.00847 0.60976 0.37626
 C892 C 1.00345 0.61398 0.35692
 N893 N 0.99874 0.63311 0.35213
 N894 N 0.99900 0.64740 0.36610
 C895 C 1.00308 0.59799 0.34145
 C896 C 0.99780 0.60223 0.32141
 C897 C 0.99739 0.58708 0.30692
 C898 C 1.00230 0.56735 0.31212
 C899 C 1.00756 0.56312 0.33214
 C900 C 1.00795 0.57824 0.34662
 H901 H 0.99551 0.68295 0.38099
 H902 H 0.99561 0.70879 0.40691
 H903 H 1.01253 0.66495 0.45131
 H904 H 1.01284 0.63922 0.42544
 H905 H 0.99399 0.61727 0.31689
 H906 H 0.99348 0.59084 0.29157
 H907 H 1.01111 0.54803 0.33670
 H908 H 1.01201 0.57439 0.36191
 C909 C 1.16225 0.49992 0.10273
 C910 C 1.17185 0.48220 0.09687
 C911 C 1.18607 0.48220 0.08143
 C912 C 1.19115 0.49997 0.07122
 C913 C 1.18153 0.51775 0.07743
 C914 C 1.16736 0.51770 0.09292
 C915 C 1.14679 0.49979 0.11878
 N916 N 1.13759 0.51695 0.12461
 N917 N 1.12345 0.51678 0.13875
 C918 C 1.11788 0.49944 0.14768
 N919 N 1.12713 0.48230 0.14190
 N920 N 1.14128 0.48247 0.12776
 C921 C 1.10186 0.49920 0.16315
 C922 C 1.09556 0.48113 0.17177
 C923 C 1.08014 0.48086 0.18601
 C924 C 1.07070 0.49866 0.19200
 C925 C 1.07710 0.51675 0.18353
 C926 C 1.09249 0.51702 0.16926
 H927 H 1.16820 0.46818 0.10402
 H928 H 1.19224 0.46792 0.07705
 H929 H 1.18527 0.53203 0.07091
 H930 H 1.16041 0.53170 0.09718
 H931 H 1.10247 0.46713 0.16747
 H932 H 1.07571 0.46673 0.19246
 H933 H 1.06995 0.53068 0.18764
 H934 H 1.09692 0.53120 0.16293
 C935 C 0.60436 -0.00147 0.66398
 C936 C 0.59790 -0.01948 0.67260
 C937 C 0.58261 -0.01959 0.68699
 C938 C 0.57340 -0.00169 0.69308
 C939 C 0.57998 0.01633 0.68458
 C940 C 0.59529 0.01644 0.67024
 C941 C 0.62022 -0.00135 0.64834
 N942 N 0.62714 0.01611 0.64071
 N943 N 0.64110 0.01622 0.62639
 C944 C 0.64873 -0.00112 0.61905
 N945 N 0.64186 -0.01859 0.62672
 N946 N 0.62791 -0.01870 0.64106
 C947 C 0.66396 -0.00099 0.60279
 C948 C 0.67066 -0.01895 0.59412
 C949 C 0.68464 -0.01880 0.57846
 C950 C 0.69230 -0.00070 0.57112
 C951 C 0.68576 0.01725 0.57992
 C952 C 0.67175 0.01711 0.59555
 H953 H 0.60461 -0.03355 0.66821
 H954 H 0.57808 -0.03369 0.69345
 H955 H 0.57300 0.03034 0.68870
 H956 H 0.59981 0.03059 0.66388
 H957 H 0.66494 -0.03316 0.59925
 H958 H 0.68914 -0.03287 0.57182
 H959 H 0.69158 0.03143 0.57482
 H960 H 0.66701 0.03122 0.60194
 C961 C -0.16431 0.50123 0.89628
 C962 C -0.17098 0.48329 0.90488
 C963 C -0.18500 0.48346 0.92050
 C964 C -0.19274 0.50157 0.92787
 C965 C -0.18623 0.51950 0.91914
 C966 C -0.17217 0.51934 0.90355
 C967 C -0.14901 0.50106 0.88009
 N968 N -0.14132 0.51839 0.87289
 N969 N -0.12729 0.51823 0.85864
 C970 C -0.12035 0.50075 0.85094
 N971 N -0.12811 0.48343 0.85807
 N972 N -0.14212 0.48358 0.87234
 C973 C -0.10441 0.50058 0.83538
 C974 C -0.09798 0.48254 0.82667
 C975 C -0.08260 0.48236 0.81238
 C976 C -0.07325 0.50020 0.80649
 C977 C -0.07980 0.51825 0.81508
 C978 C -0.09521 0.51844 0.82932
 H979 H -0.16520 0.46907 0.89973
 H980 H -0.18947 0.46940 0.92708
 H981 H -0.19211 0.53369 0.92427
 H982 H -0.16745 0.53344 0.89722
 H983 H -0.10479 0.46851 0.83089
 H984 H -0.07810 0.46824 0.80584
 H985 H -0.07272 0.53222 0.81112
 H986 H -0.09971 0.53260 0.83577
 C987 C 0.39809 0.00094 0.33758
 C988 C 0.40425 -0.01703 0.32854
 C989 C 0.41959 -0.01718 0.31421
 C990 C 0.42917 0.00062 0.30861
 C991 C 0.42295 0.01860 0.31758
 C992 C 0.40758 0.01877 0.33187
 C993 C 0.38206 0.00106 0.35305
 N994 N 0.37524 0.01850 0.36095
 N995 N 0.36105 0.01859 0.37505
 C996 C 0.35308 0.00124 0.38188
 N997 N 0.35987 -0.01619 0.37394
 N998 N 0.37404 -0.01628 0.35982
 C999 C 0.33756 0.00132 0.39786
 C1000 C 0.33068 -0.01669 0.40615
 C1001 C 0.31642 -0.01663 0.42154
 C1002 C 0.30864 0.00144 0.42899
 C1003 C 0.31537 0.01944 0.42057
 C1004 C 0.32967 0.01938 0.40520
 H1005 H 0.39722 -0.03103 0.33250
 H1006 H 0.42382 -0.03124 0.30738
 H1007 H 0.43021 0.03254 0.31383
 H1008 H 0.40329 0.03287 0.33858
 H1009 H 0.33648 -0.03088 0.40093
 H1010 H 0.31180 -0.03074 0.42790
 H1011 H 0.30947 0.03359 0.42576
 H1012 H 0.33455 0.03352 0.39910
 C1013 C 0.16214 0.49830 0.89680
 C1014 C 0.16885 0.51622 0.90553
 C1015 C 0.18308 0.51602 0.92100
 C1016 C 0.19099 0.49790 0.92810
 C1017 C 0.18444 0.47999 0.91924
 C1018 C 0.17018 0.48018 0.90379
 C1019 C 0.14663 0.49851 0.88076
 N1020 N 0.13906 0.48122 0.87326
 N1021 N 0.12484 0.48143 0.85914
 C1022 C 0.11760 0.49895 0.85187
 N1023 N 0.12524 0.51624 0.85931
 N1024 N 0.13944 0.51603 0.87345
 C1025 C 0.10149 0.49921 0.83644
 C1026 C 0.09459 0.51735 0.82840
 C1027 C 0.07909 0.51763 0.81420
 C1028 C 0.07009 0.49978 0.80771
 C1029 C 0.07711 0.48163 0.81561
 C1030 C 0.09263 0.48134 0.82979
 H1031 H 0.16295 0.53045 0.90059
 H1032 H 0.18757 0.53007 0.92769
 H1033 H 0.19045 0.46580 0.92417
 H1034 H 0.16544 0.46610 0.89735
 H1035 H 0.10112 0.53140 0.83309
 H1036 H 0.07424 0.53184 0.80819
 H1037 H 0.07032 0.46763 0.81114
 H1038 H 0.09751 0.46710 0.83570
 C1039 C 0.60359 -0.00065 0.33424
 C1040 C 0.59385 -0.01841 0.32862
 C1041 C 0.57831 -0.01818 0.31447
 C1042 C 0.57217 -0.00019 0.30552
 C1043 C 0.58207 0.01753 0.31094
 C1044 C 0.59758 0.01731 0.32515
 C1045 C 0.61963 -0.00083 0.34975
 N1046 N 0.62773 0.01648 0.35663
 N1047 N 0.64182 0.01633 0.37089
 C1048 C 0.64843 -0.00113 0.37886
 N1049 N 0.64041 -0.01844 0.37190
 N1050 N 0.62630 -0.01830 0.35766
 C1051 C 0.66378 -0.00127 0.39506
 C1052 C 0.67152 -0.01938 0.40240
 C1053 C 0.68562 -0.01951 0.41800
 C1054 C 0.69228 -0.00156 0.42669
 C1055 C 0.68466 0.01655 0.41924
 C1056 C 0.67062 0.01669 0.40359
 H1057 H 0.59802 -0.03251 0.33537
 H1058 H 0.57081 -0.03206 0.31087
 H1059 H 0.57791 0.03159 0.30412
 H1060 H 0.60481 0.03126 0.32902
 H1061 H 0.66669 -0.03349 0.39611
 H1062 H 0.69141 -0.03370 0.42319
 H1063 H 0.68924 0.03063 0.42578
 H1064 H 0.66493 0.03091 0.39838
 C1065 C 0.83605 0.50009 0.10381
 C1066 C 0.82806 0.48209 0.09643
 C1067 C 0.81397 0.48213 0.08082
 C1068 C 0.80755 0.50016 0.07218
 C1069 C 0.81540 0.51817 0.07967
 C1070 C 0.82946 0.51814 0.09531
 C1071 C 0.85139 0.50002 0.12001
 N1072 N 0.85849 0.51739 0.12780
 N1073 N 0.87256 0.51733 0.14207
 C1074 C 0.88016 0.49989 0.14916
 N1075 N 0.87302 0.48252 0.14141
 N1076 N 0.85893 0.48258 0.12716
 C1077 C 0.89617 0.49982 0.16470
 C1078 C 0.90516 0.48181 0.17076
 C1079 C 0.92063 0.48177 0.18498
 C1080 C 0.92747 0.49971 0.19354
 C1081 C 0.91834 0.51770 0.18766
 C1082 C 0.90289 0.51775 0.17340
 H1083 H 0.83271 0.46791 0.10268
 H1084 H 0.80800 0.46802 0.07560
 H1085 H 0.81100 0.53231 0.07316
 H1086 H 0.83533 0.53228 0.10055
 H1087 H 0.90043 0.46772 0.16433
 H1088 H 0.92754 0.46768 0.18895
 H1089 H 0.92307 0.53175 0.19418
 H1090 H 0.89625 0.53189 0.16917
 C1091 C 0.39877 -0.00065 0.66349
 C1092 C 0.40583 0.01743 0.67159
 C1093 C 0.42137 0.01755 0.68576
 C1094 C 0.43024 -0.00040 0.69214
 C1095 C 0.42308 -0.01848 0.68416
 C1096 C 0.40752 -0.01861 0.67002
 C1097 C 0.38258 -0.00076 0.64813
 N1098 N 0.37524 -0.01821 0.64076
 N1099 N 0.36095 -0.01830 0.62672
 C1100 C 0.35339 -0.00093 0.61941
 N1101 N 0.36069 0.01652 0.62681
 N1102 N 0.37496 0.01661 0.64087
 C1103 C 0.33778 -0.00101 0.60345
 C1104 C 0.33099 0.01698 0.59499
 C1105 C 0.31667 0.01690 0.57960
 C1106 C 0.30875 -0.00116 0.57233
 C1107 C 0.31537 -0.01914 0.58093
 C1108 C 0.32973 -0.01907 0.59630
 H1109 H 0.39939 0.03153 0.66699
 H1110 H 0.42634 0.03170 0.69183
 H1111 H 0.42977 -0.03254 0.68854
 H1112 H 0.40252 -0.03280 0.66405
 H1113 H 0.33690 0.03116 0.60006
 H1114 H 0.31211 0.03099 0.57310
 H1115 H 0.30936 -0.03329 0.57586
 H1116 H 0.33453 -0.03320 0.60254
   
