data_POSCAR
  _audit_creation_date              2014-09-24
  _audit_creation_method            'ToBaCCo'
  _symmetry_space_group_name_H-M    'P1'
  _symmetry_Int_Tables_number       1
  _symmetry_cell_setting            triclinic
  loop_
  _symmetry_equiv_pos_as_xyz
 x,y,z
_cell_length_a 38.1743
_cell_length_b 27.6898
_cell_length_c 29.2683
_cell_angle_alpha 89.954500
_cell_angle_beta 90.048700
_cell_angle_gamma 89.993200
loop_
  _atom_site_label
  _atom_site_type_symbol
  _atom_site_fract_x
  _atom_site_fract_y
  _atom_site_fract_z
C1 C 0.22147 0.22704 0.22742
 C2 C 0.21881 0.27781 0.23470
 C3 C 0.24251 0.30074 0.26428
 C4 C 0.26965 0.27536 0.28573
 C5 C 0.27298 0.22485 0.27875
 C6 C 0.24897 0.20192 0.24932
 H7 H 0.24999 0.16295 0.24657
 H8 H 0.24123 0.33965 0.26834
 C9 C 0.77338 0.28082 0.22200
 C10 C 0.77328 0.22945 0.21833
 C11 C 0.74776 0.20269 0.24184
 C12 C 0.72293 0.22493 0.27014
 C13 C 0.72387 0.27571 0.27549
 C14 C 0.74880 0.30277 0.25136
 H15 H 0.74824 0.34174 0.25478
 H16 H 0.74767 0.16367 0.23882
 C17 C 0.72395 0.72649 0.72544
 C18 C 0.72701 0.77732 0.72131
 C19 C 0.75218 0.80201 0.74745
 C20 C 0.77469 0.77737 0.77777
 C21 C 0.77237 0.72615 0.78005
 C22 C 0.74680 0.70179 0.75477
 H23 H 0.74526 0.66275 0.75721
 H24 H 0.75334 0.84104 0.74497
 C25 C 0.27097 0.77810 0.71823
 C26 C 0.27100 0.72726 0.71664
 C27 C 0.24564 0.70118 0.74077
 C28 C 0.21997 0.72442 0.76763
 C29 C 0.22054 0.77598 0.76970
 C30 C 0.24569 0.80181 0.74458
 H31 H 0.24623 0.84091 0.74663
 H32 H 0.24586 0.66219 0.73768
 O33 O 1.03399 -0.06134 -0.00324
 O34 O 0.96553 0.00448 0.05967
 O35 O 0.96597 -0.06085 -0.00412
 O36 O 1.03396 0.00364 0.06031
 O37 O 1.03430 0.06144 0.00826
 O38 O 0.96578 -0.00336 -0.05633
 O39 O 0.96689 0.06251 0.00786
 O40 O 1.03443 -0.00420 -0.05580
 Cu41 Cu 0.99974 -0.03425 0.03340
 Cu42 Cu 1.00035 0.03470 -0.02947
 C43 C 1.04599 -0.04401 -0.04025
 C44 C 0.95491 0.04503 0.04478
 C45 C 0.95421 -0.04334 -0.04118
 C46 C 1.04568 0.04356 0.04540
 O47 O 0.53268 0.55941 0.51214
 O48 O 0.46725 0.49431 0.44353
 O49 O 0.46466 0.55827 0.50872
 O50 O 0.53523 0.49375 0.44800
 O51 O 0.53183 0.43446 0.49817
 O52 O 0.46566 0.50243 0.56261
 O53 O 0.46340 0.43852 0.49722
 O54 O 0.53354 0.49945 0.56192
 Cu55 Cu 0.50013 0.53223 0.47286
 Cu56 Cu 0.49838 0.46281 0.53510
 C57 C 0.54457 0.54034 0.54845
 C58 C 0.45377 0.45569 0.45892
 C59 C 0.45368 0.54175 0.54662
 C60 C 0.54530 0.45271 0.46247
 O61 O 0.03472 0.50065 -0.05813
 O62 O -0.03459 0.44185 0.00933
 O63 O -0.03328 0.50154 -0.05984
 O64 O 0.03379 0.44223 0.01143
 O65 O 0.03380 0.50500 0.05778
 O66 O -0.03564 0.56198 -0.01072
 O67 O -0.03445 0.50306 0.05753
 O68 O 0.03242 0.56399 -0.01248
 Cu69 Cu 0.00023 0.46527 -0.02898
 Cu70 Cu -0.00084 0.53970 0.02782
 C71 C 0.04500 0.54271 -0.04727
 C72 C -0.04637 0.46233 0.04499
 C73 C -0.04612 0.54168 -0.04712
 C74 C 0.04541 0.46363 0.04672
 O75 O 0.46605 1.05512 0.48510
 O76 O 0.53671 0.99300 0.54811
 O77 O 0.53370 1.05576 0.48150
 O78 O 0.46833 0.99408 0.55283
 O79 O 0.46577 0.93440 0.50308
 O80 O 0.53317 0.99466 0.43304
 O81 O 0.53403 0.93248 0.49928
 O82 O 0.46495 0.99543 0.43525
 Cu83 Cu 0.50140 1.03040 0.52197
 Cu84 Cu 0.49924 0.95817 0.46278
 C85 C 0.45370 1.03604 0.44903
 C86 C 0.54747 0.95204 0.53436
 C87 C 0.54463 1.03579 0.44518
 C88 C 0.45557 0.95396 0.54004
 C89 C 1.14896 0.14643 0.14907
 C90 C 1.18425 0.13292 0.14956
 C91 C 1.20815 0.15985 0.17497
 C92 C 1.19715 0.20031 0.20054
 C93 C 1.16110 0.21173 0.19949
 N94 N 1.13844 0.18530 0.17382
 C95 C 1.12303 0.11911 0.12226
 N96 N 1.09860 0.14338 0.09731
 C97 C 1.07406 0.12001 0.07188
 C98 C 1.07273 0.06938 0.07170
 C99 C 1.09732 0.04373 0.09776
 C100 C 1.12278 0.06847 0.12265
 H101 H 1.23551 0.14969 0.17320
 H102 H 1.15048 0.24036 0.22035
 H103 H 1.05523 0.14096 0.05255
 H104 H 1.09703 0.00462 0.09847
 H105 H 1.19340 0.10247 0.12967
 H106 H 1.14164 0.04831 0.14271
 C107 C 0.64860 0.64321 0.65109
 C108 C 0.68377 0.62875 0.65162
 C109 C 0.70828 0.65625 0.67547
 C110 C 0.69779 0.69777 0.69930
 C111 C 0.66217 0.71051 0.69849
 N112 N 0.63885 0.68366 0.67422
 C113 C 0.62213 0.61576 0.62528
 N114 N 0.59770 0.64001 0.60033
 C115 C 0.57294 0.61666 0.57527
 C116 C 0.57143 0.56602 0.57529
 C117 C 0.59593 0.54036 0.60150
 C118 C 0.62157 0.56510 0.62615
 H119 H 0.73553 0.64535 0.67502
 H120 H 0.65286 0.74163 0.71722
 H121 H 0.55421 0.63766 0.55583
 H122 H 0.59554 0.50126 0.60239
 H123 H 0.69233 0.59710 0.63299
 H124 H 0.64041 0.54493 0.64621
 C125 C -0.15405 0.36681 0.14926
 C126 C -0.16299 0.37901 0.19433
 C127 C -0.18762 0.35134 0.21785
 C128 C -0.20305 0.31061 0.19726
 C129 C -0.19403 0.30065 0.15156
 N130 N -0.17001 0.32823 0.12936
 C131 C -0.12681 0.39321 0.12314
 N132 N -0.11194 0.37117 0.08636
 C133 C -0.08643 0.39241 0.06094
 C134 C -0.07428 0.43876 0.07211
 C135 C -0.08951 0.46246 0.10951
 C136 C -0.11581 0.44004 0.13490
 H137 H -0.19299 0.36040 0.25314
 H138 H -0.20633 0.27132 0.13316
 H139 H -0.07560 0.37289 0.03221
 H140 H -0.08127 0.49851 0.11902
 H141 H -0.15042 0.40843 0.21218
 H142 H -0.12750 0.45974 0.16286
 C143 C 0.34950 0.85893 0.64740
 C144 C 0.34556 0.86463 0.69488
 C145 C 0.31957 0.83877 0.71783
 C146 C 0.29775 0.80702 0.69380
 C147 C 0.30230 0.80256 0.64647
 N148 N 0.32781 0.82801 0.62483
 C149 C 0.37706 0.88445 0.62117
 N150 N 0.38765 0.86559 0.58049
 C151 C 0.41266 0.88685 0.55423
 C152 C 0.42853 0.93005 0.56841
 C153 C 0.41778 0.95041 0.61001
 C154 C 0.39210 0.92788 0.63638
 H155 H 0.31694 0.84272 0.75448
 H156 H 0.28560 0.77885 0.62674
 H157 H 0.41996 0.87001 0.52227
 H158 H 0.42907 0.98392 0.62211
 H159 H 0.36277 0.88770 0.71447
 H160 H 0.38380 0.94499 0.66775
 C161 C -0.15021 0.64122 -0.15220
 C162 C -0.14070 0.66900 -0.19031
 C163 C -0.16602 0.69687 -0.21235
 C164 C -0.20073 0.69633 -0.19688
 C165 C -0.20941 0.66710 -0.15945
 N166 N -0.18410 0.64124 -0.13773
 C167 C -0.12378 0.61389 -0.12629
 N168 N -0.12386 0.61637 -0.07987
 C169 C -0.09940 0.59343 -0.05401
 C170 C -0.07335 0.56534 -0.07488
 C171 C -0.07334 0.56123 -0.12261
 C172 C -0.09829 0.58598 -0.14851
 H173 H -0.15862 0.71896 -0.24133
 H174 H -0.23604 0.66597 -0.14682
 H175 H -0.10038 0.59698 -0.01720
 H176 H -0.05359 0.53988 -0.13983
 H177 H -0.11382 0.67014 -0.20208
 H178 H -0.09788 0.58311 -0.18540
 C179 C 0.34902 1.13943 0.34624
 C180 C 0.34056 1.12984 0.30044
 C181 C 0.31537 1.15790 0.27833
 C182 C 0.29883 1.19646 0.30111
 C183 C 0.30814 1.20457 0.34706
 N184 N 0.33256 1.17646 0.36792
 C185 C 0.37565 1.11123 0.37172
 N186 N 0.39003 1.13088 0.41004
 C187 C 0.41465 1.10756 0.43538
 C188 C 0.42626 1.06143 0.42255
 C189 C 0.41146 1.04014 0.38356
 C190 C 0.38612 1.06471 0.35822
 H191 H 0.30990 1.15047 0.24271
 H192 H 0.29501 1.23174 0.36723
 H193 H 0.42523 1.12528 0.46530
 H194 H 0.41938 1.00441 0.37265
 H195 H 0.35362 1.10181 0.28124
 H196 H 0.37470 1.04687 0.32896
 C197 C 1.15175 -0.14608 -0.14191
 C198 C 1.17486 -0.18041 -0.12322
 C199 C 1.19791 -0.20512 -0.15186
 C200 C 1.19794 -0.19583 -0.19893
 C201 C 1.17572 -0.15977 -0.21597
 N202 N 1.15334 -0.13636 -0.18749
 C203 C 1.12545 -0.12028 -0.11383
 N204 N 1.11181 -0.07810 -0.12989
 C205 C 1.08675 -0.05303 -0.10698
 C206 C 1.07360 -0.07050 -0.06535
 C207 C 1.08713 -0.11405 -0.04825
 C208 C 1.11291 -0.13905 -0.07233
 H209 H 1.21537 -0.23199 -0.13750
 H210 H 1.17544 -0.15128 -0.25208
 H211 H 1.07701 -0.01968 -0.12153
 H212 H 1.07759 -0.12907 -0.01644
 H213 H 1.17543 -0.18811 -0.08702
 H214 H 1.12207 -0.17318 -0.05893
 C215 C 0.65129 0.34942 0.36217
 C216 C 0.67303 0.31335 0.38075
 C217 C 0.69706 0.28966 0.35268
 C218 C 0.69948 0.30171 0.30628
 C219 C 0.67818 0.33887 0.28935
 N220 N 0.65490 0.36136 0.31726
 C221 C 0.62465 0.37521 0.38973
 N222 N 0.61266 0.41876 0.37469
 C223 C 0.58766 0.44422 0.39733
 C224 C 0.57286 0.42580 0.43763
 C225 C 0.58464 0.38083 0.45362
 C226 C 0.61038 0.35543 0.42982
 H227 H 0.71368 0.26181 0.36706
 H228 H 0.67956 0.34934 0.25376
 H229 H 0.57928 0.47865 0.38363
 H230 H 0.57378 0.36502 0.48435
 H231 H 0.67197 0.30375 0.41653
 H232 H 0.61821 0.32030 0.44234
 C233 C 0.84736 -0.14639 -0.14059
 C234 C 0.82814 -0.18468 -0.12169
 C235 C 0.80387 -0.20924 -0.14847
 C236 C 0.79824 -0.19614 -0.19433
 C237 C 0.81640 -0.15546 -0.21098
 N238 N 0.84042 -0.13247 -0.18432
 C239 C 0.87484 -0.12070 -0.11418
 N240 N 0.88506 -0.07572 -0.12763
 C241 C 0.91029 -0.05032 -0.10515
 C242 C 0.92689 -0.07016 -0.06662
 C243 C 0.91708 -0.11667 -0.05260
 C244 C 0.89138 -0.14208 -0.07631
 H245 H 0.78862 -0.23756 -0.13258
 H246 H 0.81296 -0.14339 -0.24587
 H247 H 0.91720 -0.01465 -0.11730
 H248 H 0.92950 -0.13374 -0.02349
 H249 H 0.83115 -0.19537 -0.08638
 H250 H 0.88527 -0.17838 -0.06532
 C251 C 0.34885 0.35584 0.35493
 C252 C 0.35712 0.33164 0.31423
 C253 C 0.33118 0.30551 0.29156
 C254 C 0.29707 0.30403 0.30909
 C255 C 0.28961 0.32957 0.34925
 N256 N 0.31550 0.35394 0.37135
 C257 C 0.37590 0.38221 0.38079
 N258 N 0.37663 0.37877 0.42719
 C259 C 0.40137 0.40153 0.45281
 C260 C 0.42683 0.43050 0.43172
 C261 C 0.42612 0.43521 0.38402
 C262 C 0.40092 0.41076 0.35841
 H263 H 0.33768 0.28622 0.26052
 H264 H 0.26348 0.32901 0.36360
 H265 H 0.40088 0.39744 0.48958
 H266 H 0.44532 0.45728 0.36651
 H267 H 0.38351 0.33195 0.30073
 H268 H 0.40069 0.41466 0.32159
 C269 C 0.14668 0.64080 -0.15820
 C270 C 0.18088 0.62366 -0.16408
 C271 C 0.20487 0.65098 -0.18902
 C272 C 0.19510 0.69570 -0.20839
 C273 C 0.15991 0.71025 -0.20301
 N274 N 0.13721 0.68331 -0.17790
 C275 C 0.12100 0.61439 -0.13001
 N276 N 0.09820 0.63978 -0.10355
 C277 C 0.07413 0.61770 -0.07642
 C278 C 0.07162 0.56714 -0.07563
 C279 C 0.09452 0.54031 -0.10318
 C280 C 0.11943 0.56376 -0.13010
 H281 H 0.23156 0.63798 -0.19101
 H282 H 0.15003 0.74240 -0.21951
 H283 H 0.05665 0.63967 -0.05606
 H284 H 0.09332 0.50123 -0.10365
 H285 H 0.18940 0.59033 -0.14821
 H286 H 0.13681 0.54258 -0.15135
 C287 C 0.64744 1.13728 0.33954
 C288 C 0.68283 1.12382 0.34011
 C289 C 0.70739 1.15242 0.31747
 C290 C 0.69669 1.19398 0.29375
 C291 C 0.66082 1.20524 0.29287
 N292 N 0.63749 1.17749 0.31613
 C293 C 0.62105 1.10991 0.36551
 N294 N 0.59646 1.13446 0.38981
 C295 C 0.57193 1.11148 0.41547
 C296 C 0.57088 1.06085 0.41690
 C297 C 0.59546 1.03480 0.39127
 C298 C 0.62088 1.05924 0.36592
 H299 H 0.73482 1.14258 0.31915
 H300 H 0.65137 1.23624 0.27402
 H301 H 0.55312 1.13275 0.43443
 H302 H 0.59540 0.99569 0.39155
 H303 H 0.69154 1.09241 0.35904
 H304 H 0.63992 1.03884 0.34647
 C305 C 0.14769 0.36593 0.15812
 C306 C 0.14862 0.36969 0.20600
 C307 C 0.17219 0.34147 0.23088
 C308 C 0.19461 0.30930 0.20830
 C309 C 0.19345 0.30736 0.16042
 N310 N 0.17008 0.33489 0.13692
 C311 C 0.12198 0.39296 0.13013
 N312 N 0.11195 0.37430 0.08913
 C313 C 0.08789 0.39630 0.06189
 C314 C 0.07241 0.44001 0.07540
 C315 C 0.08290 0.46044 0.11711
 C316 C 0.10762 0.43711 0.14451
 H317 H 0.17232 0.34377 0.26782
 H318 H 0.21071 0.28341 0.14182
 H319 H 0.08083 0.37945 0.02982
 H320 H 0.07185 0.49429 0.12872
 H321 H 0.13071 0.39291 0.22432
 H322 H 0.11557 0.45389 0.17622
 C323 C 0.65660 0.85409 0.63405
 C324 C 0.67900 0.81903 0.61522
 C325 C 0.70274 0.79486 0.64340
 C326 C 0.70425 0.80554 0.69013
 C327 C 0.68273 0.84232 0.70723
 N328 N 0.65961 0.86514 0.67922
 C329 C 0.62939 0.87893 0.60657
 N330 N 0.61647 0.92196 0.62155
 C331 C 0.59064 0.94611 0.59907
 C332 C 0.57590 0.92672 0.55913
 C333 C 0.58866 0.88226 0.54326
 C334 C 0.61524 0.85827 0.56681
 H335 H 0.71954 0.76730 0.62896
 H336 H 0.68348 0.85175 0.74310
 H337 H 0.58152 0.98022 0.61264
 H338 H 0.57792 0.86574 0.51279
 H339 H 0.67843 0.81024 0.57924
 H340 H 0.62377 0.82342 0.55444
 C341 C 0.85315 0.15086 0.14783
 C342 C 0.86279 0.18750 0.17836
 C343 C 0.83686 0.21231 0.20228
 C344 C 0.80135 0.20191 0.19452
 C345 C 0.79293 0.16423 0.16433
 N346 N 0.81870 0.13982 0.14215
 C347 C 0.87975 0.12439 0.12156
 N348 N 0.87818 0.07535 0.11912
 C349 C 0.90209 0.04918 0.09519
 C350 C 0.92882 0.07265 0.07096
 C351 C 0.93049 0.12319 0.07238
 C352 C 0.90625 0.14917 0.09814
 H353 H 0.84447 0.24004 0.22640
 H354 H 0.76587 0.15474 0.15786
 H355 H 0.89991 0.01021 0.09453
 H356 H 0.95086 0.14247 0.05417
 H357 H 0.89008 0.19637 0.18401
 H358 H 0.90778 0.18822 0.09915
 C359 C 0.35052 0.64852 0.64707
 C360 C 0.35814 0.67023 0.68926
 C361 C 0.33216 0.69637 0.71179
 C362 C 0.29871 0.70027 0.69259
 C363 C 0.29202 0.67804 0.65052
 N364 N 0.31790 0.65339 0.62876
 C365 C 0.37729 0.62076 0.62211
 N366 N 0.37931 0.62466 0.57581
 C367 C 0.40358 0.60009 0.55100
 C368 C 0.42710 0.56867 0.57282
 C369 C 0.42501 0.56349 0.62041
 C370 C 0.40037 0.58978 0.64520
 H371 H 0.33802 0.71339 0.74422
 H372 H 0.26639 0.68072 0.63486
 H373 H 0.40422 0.60469 0.51428
 H374 H 0.44272 0.53961 0.63849
 H375 H 0.38400 0.66762 0.70427
 H376 H 0.39899 0.58532 0.68191
   
