data_POSCAR
  _audit_creation_date              2014-09-24
  _audit_creation_method            'ToBaCCo'
  _symmetry_space_group_name_H-M    'P1'
  _symmetry_Int_Tables_number       1
  _symmetry_cell_setting            triclinic
  loop_
  _symmetry_equiv_pos_as_xyz
 x,y,z
_cell_length_a 50.3645
_cell_length_b 19.5557
_cell_length_c 20.4845
_cell_angle_alpha 89.981600
_cell_angle_beta 89.629500
_cell_angle_gamma 88.750800
loop_
  _atom_site_label
  _atom_site_type_symbol
  _atom_site_fract_x
  _atom_site_fract_y
  _atom_site_fract_z
C1 C 0.67055 0.22433 0.48501
 C2 C 0.67283 0.22405 0.55162
 C3 C 0.69805 0.24691 0.56575
 N4 N 0.71148 0.25935 0.50970
 C5 C 0.69468 0.24544 0.46029
 C6 C 0.70789 0.25947 0.62939
 C7 C 0.73547 0.26759 0.64069
 C8 C 0.74610 0.30005 0.69459
 C9 C 0.77322 0.29477 0.68878
 C10 C 0.77857 0.26032 0.63093
 N11 N 0.75548 0.24411 0.60164
 C12 C 0.80440 0.24562 0.60636
 C13 C 0.80922 0.23126 0.53969
 C14 C 0.83286 0.20443 0.51431
 C15 C 0.83054 0.20615 0.44781
 C16 C 0.80542 0.23282 0.43490
 N17 N 0.79236 0.24801 0.49104
 C18 C 0.79597 0.24909 0.37218
 C19 C 0.76902 0.26371 0.35929
 C20 C 0.75929 0.28921 0.30088
 C21 C 0.73206 0.29138 0.30677
 C22 C 0.72600 0.26777 0.36897
 N23 N 0.74865 0.25042 0.40029
 C24 C 0.70018 0.25680 0.39343
 H25 H 0.65303 0.21067 0.45813
 H26 H 0.65753 0.20905 0.58571
 H27 H 0.74989 0.22367 0.44409
 H28 H 0.73547 0.32600 0.73373
 H29 H 0.78739 0.31565 0.72247
 H30 H 0.85016 0.18667 0.54097
 H31 H 0.84568 0.19031 0.41291
 H32 H 0.71839 0.30750 0.26899
 H33 H 0.75353 0.21381 0.56019
 H34 H 0.77060 0.30348 0.25805
 C35 C 0.16004 0.74537 0.48518
 C36 C 0.16154 0.74283 0.55166
 C37 C 0.18833 0.74231 0.56754
 N38 N 0.20315 0.74222 0.51215
 C39 C 0.18590 0.74382 0.46167
 C40 C 0.19837 0.74155 0.63244
 C41 C 0.22596 0.73617 0.64751
 C42 C 0.23642 0.75057 0.70849
 C43 C 0.26346 0.74319 0.70343
 C44 C 0.26914 0.72518 0.63937
 N45 N 0.24614 0.71993 0.60568
 C46 C 0.29533 0.71642 0.61448
 C47 C 0.30202 0.71113 0.54741
 C48 C 0.32781 0.70565 0.52358
 C49 C 0.32622 0.70756 0.45702
 C50 C 0.29946 0.71272 0.44183
 N51 N 0.28473 0.71497 0.49729
 C52 C 0.28933 0.71459 0.37744
 C53 C 0.26195 0.72012 0.36202
 C54 C 0.25187 0.71091 0.29986
 C55 C 0.22481 0.71902 0.30454
 C56 C 0.21889 0.73278 0.36951
 N57 N 0.24170 0.73431 0.40411
 C58 C 0.19271 0.74136 0.39440
 H59 H 0.14181 0.74658 0.45754
 H60 H 0.14459 0.74061 0.58420
 H61 H 0.24344 0.74862 0.45253
 H62 H 0.22579 0.76707 0.75197
 H63 H 0.27741 0.75233 0.74228
 H64 H 0.34605 0.70190 0.55114
 H65 H 0.34304 0.70577 0.42390
 H66 H 0.21101 0.71371 0.26465
 H67 H 0.24426 0.70237 0.55819
 H68 H 0.26280 0.69823 0.25569
 C69 C 0.32394 0.35067 -0.54799
 C70 C 0.32535 0.34943 -0.48107
 C71 C 0.30312 0.31549 -0.45917
 N72 N 0.28813 0.29668 -0.51008
 C73 C 0.30078 0.31780 -0.56449
 C74 C 0.29922 0.29177 -0.39504
 C75 C 0.27575 0.25938 -0.37517
 C76 C 0.27376 0.21654 -0.32162
 C77 C 0.24772 0.19727 -0.31794
 C78 C 0.23430 0.23045 -0.36831
 N79 N 0.25170 0.26720 -0.40382
 C80 C 0.20639 0.23005 -0.37836
 C81 C 0.19605 0.24194 -0.44186
 C82 C 0.17008 0.26131 -0.45644
 C83 C 0.16831 0.26340 -0.52324
 C84 C 0.19336 0.24664 -0.54741
 N85 N 0.21037 0.23412 -0.49768
 C86 C 0.20032 0.24264 -0.61438
 C87 C 0.22716 0.24295 -0.63516
 C88 C 0.23651 0.21768 -0.69448
 C89 C 0.26287 0.23353 -0.69855
 C90 C 0.26903 0.26739 -0.64124
 N91 N 0.24709 0.27277 -0.60277
 C92 C 0.29380 0.29700 -0.62791
 H93 H 0.33887 0.37052 -0.58069
 H94 H 0.34156 0.36807 -0.45206
 H95 H 0.24485 0.30181 -0.56040
 H96 H 0.28948 0.20041 -0.28889
 H97 H 0.23956 0.16309 -0.28181
 H98 H 0.15412 0.27391 -0.42264
 H99 H 0.15076 0.27740 -0.55082
 H100 H 0.27583 0.22252 -0.73973
 H101 H 0.24685 0.30119 -0.44136
 H102 H 0.22537 0.19142 -0.73148
 C103 C -0.32983 0.72567 -0.52015
 C104 C -0.32841 0.72378 -0.45337
 C105 C -0.30258 0.70384 -0.43794
 N106 N -0.28806 0.69502 -0.49329
 C107 C -0.30475 0.70793 -0.54353
 C108 C -0.29234 0.69474 -0.37400
 C109 C -0.26449 0.69408 -0.36379
 C110 C -0.25152 0.66595 -0.31012
 C111 C -0.22562 0.68672 -0.31334
 C112 C -0.22336 0.72547 -0.36960
 N113 N -0.24693 0.72846 -0.40087
 C114 C -0.20139 0.76579 -0.38568
 C115 C -0.19685 0.78774 -0.45014
 C116 C -0.17977 0.83882 -0.46875
 C117 C -0.18121 0.84314 -0.53550
 C118 C -0.19889 0.79389 -0.55535
 N119 N -0.20851 0.76035 -0.50296
 C120 C -0.20620 0.77986 -0.62051
 C121 C -0.22938 0.74258 -0.63379
 C122 C -0.23398 0.70693 -0.69102
 C123 C -0.25978 0.68564 -0.68803
 C124 C -0.27021 0.70872 -0.62899
 N125 N -0.25135 0.74183 -0.59539
 C126 C -0.29725 0.70513 -0.61019
 H127 H -0.34711 0.74104 -0.54812
 H128 H -0.34443 0.73784 -0.42028
 H129 H -0.25446 0.77028 -0.55290
 H130 H -0.26013 0.63606 -0.27119
 H131 H -0.21041 0.67667 -0.27729
 H132 H -0.16800 0.87073 -0.43755
 H133 H -0.17090 0.87963 -0.56558
 H134 H -0.26995 0.65781 -0.72569
 H135 H -0.25173 0.76106 -0.43950
 H136 H -0.22032 0.69854 -0.73137
 O137 O -0.04671 0.91570 0.11988
 O138 O -0.07052 0.98534 0.05059
 C139 C -0.06893 0.94192 0.09825
 O140 O 0.03921 1.12885 0.11668
 O141 O 0.06653 1.05010 0.06488
 C142 C 0.06230 1.10161 0.10379
 O143 O -0.03466 1.14971 0.11179
 O144 O -0.06507 1.09563 0.04814
 C145 C -0.05878 1.13902 0.09289
 O146 O 0.02704 0.87881 0.12391
 O147 O 0.06080 0.93165 0.06914
 C148 C 0.05201 0.88789 0.11119
 Zr149 Zr -0.00707 0.93106 0.08750
 O150 O -0.00643 0.93551 0.19076
 O151 O -0.01561 0.82566 0.09134
 Zr152 Zr 0.00157 1.10188 0.08188
 O153 O 0.00189 1.10372 0.18524
 O154 O 0.00403 1.20971 0.07865
 O155 O -0.02643 1.02612 0.09395
 O156 O 0.01985 1.00817 0.10004
 O157 O 0.03294 0.87197 -0.10365
 O158 O 0.06353 0.92705 -0.04077
 C159 C 0.05702 0.88222 -0.08395
 O160 O -0.02834 1.13821 -0.12634
 O161 O -0.06207 1.09197 -0.06625
 C162 C -0.05331 1.13097 -0.11251
 O163 O 0.04548 1.11364 -0.11232
 O164 O 0.06963 1.04354 -0.04377
 C165 C 0.06772 1.08842 -0.09017
 O166 O -0.04140 0.90449 -0.11808
 O167 O -0.06778 0.98002 -0.06018
 C168 C -0.06443 0.93237 -0.10334
 Zr169 Zr -0.00319 0.92340 -0.07719
 O170 O 0.00169 0.91589 -0.17965
 O171 O -0.01131 0.81779 -0.07114
 Zr172 Zr 0.00589 1.09449 -0.08267
 O173 O 0.01106 1.09230 -0.18524
 O174 O 0.00872 1.20238 -0.08305
 Zr175 Zr -0.03956 1.02827 -0.00351
 Zr176 Zr 0.03852 0.99769 0.00829
 O177 O 0.02435 0.99953 -0.08832
 O178 O -0.02168 1.01765 -0.09633
 O179 O 0.01776 0.90501 0.00896
 O180 O -0.01845 1.11973 -0.00431
 O181 O -0.02854 0.92401 0.00232
 O182 O 0.02789 1.10236 0.00262
 H183 H 0.03087 1.00536 0.13990
 H184 H -0.02854 1.16368 -0.00732
 H185 H 0.03689 0.99343 -0.12542
 H186 H -0.04250 0.88910 0.00211
 H187 H 0.01901 1.22070 0.04933
 H188 H 0.02567 1.21400 -0.06203
 H189 H -0.00292 1.06307 -0.20313
 H190 H -0.01086 0.94918 -0.19975
 H191 H 0.00352 0.79526 -0.04739
 H192 H -0.00216 0.80140 0.06404
 H193 H -0.02062 0.96813 0.20482
 H194 H -0.01497 1.08415 0.20072
 O195 O 0.46000 0.37300 0.10673
 O196 O 0.43248 0.43992 0.04324
 C197 C 0.43669 0.39288 0.08688
 O198 O 0.53262 0.61679 0.12827
 O199 O 0.56433 0.55313 0.07273
 C200 C 0.55709 0.59884 0.11536
 O201 O 0.45820 0.61239 0.11749
 O202 O 0.43176 0.55390 0.04647
 C203 C 0.43526 0.59574 0.09459
 O204 O 0.53391 0.36495 0.11577
 O205 O 0.56486 0.43511 0.06987
 C206 C 0.55811 0.38451 0.10692
 Zr207 Zr 0.49792 0.40821 0.08074
 O208 O 0.49695 0.40828 0.18415
 O209 O 0.49569 0.30032 0.08007
 Zr210 Zr 0.49684 0.58067 0.08729
 O211 O 0.49564 0.57680 0.19054
 O212 O 0.49342 0.68873 0.08939
 O213 O 0.47321 0.49438 0.09131
 O214 O 0.51990 0.49331 0.10124
 O215 O 0.54313 0.37895 -0.10913
 O216 O 0.56933 0.43856 -0.03856
 C217 C 0.56600 0.39497 -0.08524
 O218 O 0.46760 0.62291 -0.12034
 O219 O 0.43631 0.55830 -0.06855
 C220 C 0.44326 0.60481 -0.11013
 O221 O 0.54161 0.62178 -0.10268
 O222 O 0.56854 0.55644 -0.03613
 C223 C 0.56474 0.60230 -0.08093
 O224 O 0.46922 0.38312 -0.12821
 O225 O 0.43680 0.44236 -0.07118
 C226 C 0.44456 0.39936 -0.11616
 Zr227 Zr 0.50440 0.41458 -0.08301
 O228 O 0.51081 0.41796 -0.18521
 O229 O 0.50266 0.30650 -0.08603
 Zr230 Zr 0.50325 0.58735 -0.07652
 O231 O 0.50922 0.59570 -0.17852
 O232 O 0.50034 0.69522 -0.06769
 Zr233 Zr 0.46092 0.49839 -0.00700
 Zr234 Zr 0.53993 0.49666 0.01095
 O235 O 0.52708 0.50076 -0.08662
 O236 O 0.48068 0.50193 -0.09802
 O237 O 0.52486 0.39728 0.00358
 O238 O 0.47682 0.59680 0.00063
 O239 O 0.47822 0.39939 -0.00673
 O240 O 0.52368 0.59691 0.01106
 H241 H 0.53044 0.49129 0.14190
 H242 H 0.46456 0.63711 -0.00046
 H243 H 0.54015 0.50139 -0.12296
 H244 H 0.46672 0.35916 -0.01062
 H245 H 0.50908 0.70685 0.06629
 H246 H 0.51667 0.71076 -0.04612
 H247 H 0.49729 0.56293 -0.19955
 H248 H 0.49651 0.44702 -0.20419
 H249 H 0.51811 0.28778 -0.06177
 H250 H 0.50864 0.28325 0.04714
 H251 H 0.47978 0.42915 0.19821
 H252 H 0.48107 0.54627 0.20309
 C253 C 0.34229 0.34688 0.24455
 C254 C 0.35518 0.28492 0.23468
 C255 C 0.34828 0.22559 0.26745
 C256 C 0.32721 0.23020 0.31232
 C257 C 0.31382 0.29363 0.32416
 C258 C 0.32147 0.35289 0.28976
 O259 O 0.35277 0.39741 0.21025
 C260 C 0.37281 0.36672 0.17856
 C261 C 0.37519 0.29797 0.19221
 C262 C 0.39607 0.25700 0.16898
 C263 C 0.41571 0.28854 0.13155
 C264 C 0.41385 0.35940 0.11715
 C265 C 0.39163 0.39858 0.13922
 H266 H 0.35895 0.17769 0.25937
 H267 H 0.32163 0.18480 0.33899
 H268 H 0.31177 0.40202 0.29864
 H269 H 0.39777 0.20333 0.18153
 H270 H 0.43274 0.25827 0.11515
 H271 H 0.38995 0.45282 0.12949
 C272 C -0.14838 0.83026 0.27664
 C273 C -0.16140 0.86015 0.22490
 C274 C -0.18889 0.86329 0.22032
 C275 C -0.20362 0.83512 0.27160
 C276 C -0.19082 0.80488 0.32670
 C277 C -0.16261 0.80202 0.32828
 O278 O -0.12213 0.83323 0.27170
 C279 C -0.11854 0.86610 0.21572
 C280 C -0.14196 0.88385 0.18534
 C281 C -0.14291 0.92015 0.12712
 C282 C -0.11871 0.93897 0.09898
 C283 C -0.09415 0.92096 0.12896
 C284 C -0.09418 0.88371 0.18828
 H285 H -0.19867 0.88739 0.17914
 H286 H -0.22508 0.83935 0.26946
 H287 H -0.15199 0.77802 0.36830
 H288 H -0.16162 0.93398 0.10442
 H289 H -0.11921 0.96765 0.05382
 H290 H -0.07588 0.86969 0.21284
 C291 C 0.64232 0.65713 0.29707
 C292 C 0.64410 0.70108 0.24492
 C293 C 0.66484 0.74607 0.23713
 C294 C 0.68451 0.74617 0.28526
 C295 C 0.68301 0.70248 0.34079
 C296 C 0.66137 0.65733 0.34634
 O297 O 0.62158 0.61644 0.29367
 C298 C 0.60993 0.63554 0.23838
 C299 C 0.62281 0.68767 0.20704
 C300 C 0.61407 0.71556 0.14829
 C301 C 0.59137 0.68780 0.12014
 C302 C 0.57833 0.63278 0.15043
 C303 C 0.58752 0.60656 0.21067
 H304 H 0.66591 0.77976 0.19532
 H305 H 0.70052 0.78195 0.28024
 H306 H 0.65980 0.62208 0.38690
 H307 H 0.62447 0.75673 0.12471
 H308 H 0.58414 0.70823 0.07433
 H309 H 0.57800 0.56383 0.23409
 C310 C 0.14291 1.18104 0.29032
 C311 C 0.14467 1.22248 0.23628
 C312 C 0.16340 1.27311 0.23009
 C313 C 0.18148 1.28047 0.28111
 C314 C 0.18038 1.23813 0.33761
 C315 C 0.16026 1.18866 0.34262
 O316 O 0.12427 1.13435 0.28507
 C317 C 0.11405 1.14686 0.22655
 C318 C 0.12577 1.20059 0.19492
 C319 C 0.11798 1.22315 0.13342
 C320 C 0.09708 1.18919 0.10346
 C321 C 0.08509 1.13299 0.13451
 C322 C 0.09356 1.11149 0.19696
 H323 H 0.16442 1.30487 0.18691
 H324 H 0.19644 1.31921 0.27668
 H325 H 0.15916 1.15445 0.38410
 H326 H 0.12732 1.26606 0.10992
 H327 H 0.08988 1.20728 0.05672
 H328 H 0.08420 1.06944 0.22192
 C329 C 0.64893 0.31463 -0.27086
 C330 C 0.65545 0.28672 -0.21135
 C331 C 0.67851 0.24790 -0.20163
 C332 C 0.69561 0.23777 -0.25534
 C333 C 0.68976 0.26732 -0.31741
 C334 C 0.66581 0.30632 -0.32451
 O335 O 0.62607 0.34959 -0.27005
 C336 C 0.61799 0.34377 -0.20860
 C337 C 0.63534 0.30632 -0.17037
 C338 C 0.63115 0.29623 -0.10381
 C339 C 0.60814 0.32599 -0.07569
 C340 C 0.58980 0.36337 -0.11472
 C341 C 0.59475 0.37226 -0.18203
 H342 H 0.68312 0.22584 -0.15447
 H343 H 0.71334 0.20625 -0.24869
 H344 H 0.66080 0.33162 -0.36996
 H345 H 0.64522 0.26724 -0.07450
 H346 H 0.60442 0.31953 -0.02393
 H347 H 0.58121 0.40184 -0.21235
 C348 C 0.14310 0.80922 -0.26281
 C349 C 0.14265 0.76023 -0.21465
 C350 C 0.16063 0.70523 -0.21314
 C351 C 0.17953 0.70003 -0.26381
 C352 C 0.18004 0.74918 -0.31505
 C353 C 0.16170 0.80526 -0.31334
 O354 O 0.12431 0.85724 -0.25576
 C355 C 0.11163 0.83809 -0.20210
 C356 C 0.12200 0.77903 -0.17485
 C357 C 0.11152 0.75015 -0.11826
 C358 C 0.08960 0.78382 -0.08858
 C359 C 0.07875 0.84449 -0.11626
 C360 C 0.08990 0.87200 -0.17360
 H361 H 0.15994 0.66726 -0.17477
 H362 H 0.19330 0.65670 -0.26425
 H363 H 0.16184 0.84458 -0.35060
 H364 H 0.12001 0.70371 -0.09760
 H365 H 0.08122 0.76319 -0.04408
 H366 H 0.08206 0.91894 -0.19482
 C367 C 0.34733 0.66494 -0.26145
 C368 C 0.36268 0.72234 -0.26166
 C369 C 0.35630 0.78040 -0.29805
 C370 C 0.33340 0.77885 -0.33661
 C371 C 0.31771 0.71957 -0.33868
 C372 C 0.32453 0.66220 -0.29976
 O373 O 0.35743 0.61452 -0.22521
 C374 C 0.37970 0.64050 -0.20243
 C375 C 0.38389 0.70616 -0.22359
 C376 C 0.40674 0.74154 -0.20883
 C377 C 0.42612 0.70775 -0.17100
 C378 C 0.42223 0.64014 -0.14815
 C379 C 0.39846 0.60652 -0.16357
 H380 H 0.36878 0.82475 -0.29773
 H381 H 0.32826 0.82278 -0.36654
 H382 H 0.31297 0.61620 -0.30121
 H383 H 0.40976 0.79286 -0.22678
 H384 H 0.44416 0.73428 -0.15950
 H385 H 0.39507 0.55479 -0.14759
 C386 C -0.14820 1.21131 -0.25891
 C387 C -0.12764 1.25197 -0.27823
 C388 C -0.12888 1.29402 -0.33276
 C389 C -0.15208 1.29311 -0.36990
 C390 C -0.17359 1.25100 -0.35181
 C391 C -0.17188 1.21122 -0.29403
 O392 O -0.14183 1.17010 -0.20958
 C393 C -0.11671 1.18512 -0.19772
 C394 C -0.10723 1.23526 -0.23818
 C395 C -0.08102 1.25573 -0.23771
 C396 C -0.06368 1.22252 -0.19436
 C397 C -0.07269 1.16943 -0.15292
 C398 C -0.09979 1.15139 -0.15391
 H399 H -0.11221 1.32453 -0.34758
 H400 H -0.15320 1.32450 -0.41345
 H401 H -0.18765 1.17735 -0.27985
 H402 H -0.07399 1.29465 -0.27076
 H403 H -0.04308 1.23727 -0.19426
 H404 H -0.10719 1.11021 -0.12399
 C405 C 0.64905 0.65158 -0.26982
 C406 C 0.65554 0.68363 -0.21261
 C407 C 0.67885 0.71931 -0.20529
 C408 C 0.69604 0.72271 -0.25932
 C409 C 0.69015 0.68939 -0.31936
 C410 C 0.66618 0.65255 -0.32355
 O411 O 0.62570 0.62148 -0.26714
 C412 C 0.61731 0.63477 -0.20682
 C413 C 0.63494 0.67210 -0.17114
 C414 C 0.63054 0.68929 -0.10594
 C415 C 0.60704 0.66680 -0.07635
 C416 C 0.58839 0.62972 -0.11272
 C417 C 0.59355 0.61366 -0.17889
 H418 H 0.68338 0.74499 -0.16004
 H419 H 0.71354 0.75345 -0.25476
 H420 H 0.66104 0.62463 -0.36716
 H421 H 0.64487 0.71784 -0.07855
 H422 H 0.60340 0.67797 -0.02539
 H423 H 0.57984 0.58375 -0.20701
 C424 C 0.14949 1.16656 -0.27769
 C425 C 0.15703 1.18745 -0.21670
 C426 C 0.17969 1.22478 -0.20613
 C427 C 0.19540 1.24071 -0.26056
 C428 C 0.18909 1.21687 -0.32441
 C429 C 0.16544 1.17912 -0.33219
 O430 O 0.12650 1.13451 -0.27750
 C431 C 0.11951 1.13486 -0.21486
 C432 C 0.13779 1.16553 -0.17546
 C433 C 0.13500 1.16903 -0.10792
 C434 C 0.11220 1.14075 -0.08001
 C435 C 0.09241 1.11243 -0.11994
 C436 C 0.09620 1.10887 -0.18831
 H437 H 0.18483 1.24232 -0.15781
 H438 H 0.21240 1.27259 -0.25272
 H439 H 0.15989 1.15792 -0.37880
 H440 H 0.14991 1.19220 -0.07779
 H441 H 0.10965 1.14213 -0.02761
 H442 H 0.08150 1.08637 -0.21961
 C443 C 0.34941 0.33664 -0.26639
 C444 C 0.36866 0.28733 -0.27908
 C445 C 0.36597 0.23719 -0.32651
 C446 C 0.34255 0.23825 -0.36299
 C447 C 0.32256 0.28895 -0.35152
 C448 C 0.32582 0.33847 -0.30207
 O449 O 0.35663 0.38140 -0.22134
 C450 C 0.38101 0.35999 -0.20564
 C451 C 0.38920 0.30266 -0.23975
 C452 C 0.41443 0.27355 -0.23402
 C453 C 0.43217 0.30529 -0.19204
 C454 C 0.42450 0.36500 -0.15642
 C455 C 0.39825 0.39181 -0.16242
 H456 H 0.38158 0.19954 -0.33603
 H457 H 0.34012 0.20067 -0.40120
 H458 H 0.31093 0.37825 -0.29344
 H459 H 0.42046 0.22884 -0.26200
 H460 H 0.45204 0.28350 -0.18793
 H461 H 0.39174 0.43704 -0.13602
 C462 C -0.14257 0.81401 -0.28113
 C463 C -0.15569 0.84986 -0.23257
 C464 C -0.18311 0.85879 -0.23042
 C465 C -0.19777 0.82973 -0.28068
 C466 C -0.18493 0.79254 -0.33171
 C467 C -0.15686 0.78427 -0.33178
 O468 O -0.11628 0.81357 -0.27433
 C469 C -0.11282 0.85010 -0.22031
 C470 C -0.13642 0.87325 -0.19328
 C471 C -0.13783 0.91385 -0.13798
 C472 C -0.11394 0.93183 -0.10916
 C473 C -0.08901 0.90924 -0.13551
 C474 C -0.08852 0.86710 -0.19194
 H475 H -0.19285 0.88791 -0.19187
 H476 H -0.21915 0.83714 -0.28064
 H477 H -0.14659 0.75659 -0.37048
 H478 H -0.15669 0.93170 -0.11802
 H479 H -0.11505 0.96399 -0.06622
 H480 H -0.06996 0.84940 -0.21365
 C481 C 0.34397 0.64938 0.26452
 C482 C 0.34681 0.70499 0.22406
 C483 C 0.33107 0.76406 0.22983
 C484 C 0.31187 0.76619 0.27987
 C485 C 0.30867 0.70959 0.32229
 C486 C 0.32464 0.64985 0.31357
 O487 O 0.36177 0.59973 0.25315
 C488 C 0.37614 0.62438 0.20437
 C489 C 0.36774 0.68847 0.18442
 C490 C 0.38043 0.72432 0.13490
 C491 C 0.40264 0.69273 0.10479
 C492 C 0.41164 0.62708 0.12506
 C493 C 0.39834 0.59258 0.17568
 H494 H 0.33387 0.80748 0.19795
 H495 H 0.29976 0.81214 0.28647
 H496 H 0.32267 0.60617 0.34562
 H497 H 0.37359 0.77486 0.12030
 H498 H 0.41298 0.71934 0.06618
 H499 H 0.40543 0.54326 0.19307
 C500 C -0.15637 1.20535 0.23545
 C501 C -0.14053 1.26186 0.23694
 C502 C -0.14578 1.31770 0.27735
 C503 C -0.16792 1.31457 0.31896
 C504 C -0.18410 1.25622 0.31944
 C505 C -0.17861 1.20141 0.27620
 O506 O -0.14661 1.15552 0.19776
 C507 C -0.12407 1.18090 0.17539
 C508 C -0.11939 1.24572 0.19807
 C509 C -0.09576 1.27923 0.18610
 C510 C -0.07606 1.24428 0.14973
 C511 C -0.08043 1.17749 0.12575
 C512 C -0.10498 1.14585 0.13793
 H513 H -0.13271 1.36087 0.27867
 H514 H -0.17185 1.35601 0.35298
 H515 H -0.19024 1.15551 0.27748
 H516 H -0.09228 1.32951 0.20591
 H517 H -0.05726 1.26867 0.14112
 H518 H -0.10849 1.09401 0.12208
 C519 C 0.64761 0.32035 0.27663
 C520 C 0.63613 0.25978 0.25945
 C521 C 0.64466 0.19673 0.28399
 C522 C 0.66601 0.19616 0.32774
 C523 C 0.67782 0.25809 0.34681
 C524 C 0.66841 0.32105 0.32109
 O525 O 0.63653 0.37460 0.24794
 C526 C 0.61755 0.34779 0.21211
 C527 C 0.61632 0.27779 0.21777
 C528 C 0.59705 0.23973 0.18696
 C529 C 0.57809 0.27543 0.14942
 C530 C 0.57911 0.34747 0.14262
 C531 C 0.59934 0.38403 0.17370
 H532 H 0.63532 0.14975 0.26975
 H533 H 0.67325 0.14786 0.34728
 H534 H 0.67719 0.36891 0.33508
 H535 H 0.59628 0.18480 0.19275
 H536 H 0.56256 0.24718 0.12590
 H537 H 0.60020 0.43922 0.17024
 C538 C 0.14349 0.80607 0.26909
 C539 C 0.12702 0.75101 0.26483
 C540 C 0.13158 0.69045 0.29907
 C541 C 0.15385 0.68682 0.33993
 C542 C 0.17061 0.74370 0.34660
 C543 C 0.16558 0.80376 0.30990
 O544 O 0.13521 0.85944 0.23405
 C545 C 0.11294 0.83780 0.20740
 C546 C 0.10695 0.77196 0.22497
 C547 C 0.08368 0.74078 0.20587
 C548 C 0.06578 0.77917 0.16750
 C549 C 0.07163 0.84692 0.14834
 C550 C 0.09573 0.87630 0.16807
 H551 H 0.11828 0.64794 0.29517
 H552 H 0.15769 0.64070 0.36790
 H553 H 0.17807 0.84784 0.31456
 H554 H 0.07918 0.68932 0.22116
 H555 H 0.04734 0.75635 0.15294
 H556 H 0.10040 0.92851 0.15545
   
