data_POSCAR
  _audit_creation_date              2014-09-24
  _audit_creation_method            'ToBaCCo'
  _symmetry_space_group_name_H-M    'P1'
  _symmetry_Int_Tables_number       1
  _symmetry_cell_setting            triclinic
  loop_
  _symmetry_equiv_pos_as_xyz
 x,y,z
_cell_length_a 28.2189
_cell_length_b 24.7983
_cell_length_c 24.0853
_cell_angle_alpha 89.324800
_cell_angle_beta 99.932700
_cell_angle_gamma 88.468900
loop_
  _atom_site_label
  _atom_site_type_symbol
  _atom_site_fract_x
  _atom_site_fract_y
  _atom_site_fract_z
C1 C 0.57832 0.59546 0.58426
 C2 C 0.62285 0.60593 0.56909
 C3 C 0.65279 0.56323 0.55625
 C4 C 0.63872 0.50989 0.56147
 C5 C 0.59477 0.49930 0.57833
 C6 C 0.56430 0.54200 0.58876
 H7 H 0.63316 0.64739 0.56531
 H8 H 0.66199 0.47682 0.55250
 H9 H 0.53022 0.53366 0.60162
 C10 C 0.94309 0.43012 0.08606
 C11 C 0.90065 0.41226 0.05345
 C12 C 0.85631 0.41987 0.07190
 C13 C 0.85513 0.44478 0.12353
 C14 C 0.89720 0.46457 0.15534
 C15 C 0.94134 0.45692 0.13654
 H16 H 0.90225 0.39222 0.01405
 H17 H 0.82105 0.45089 0.13781
 H18 H 0.97423 0.47127 0.16126
 C19 C 0.42683 0.10920 -0.08621
 C20 C 0.39557 0.12530 -0.04946
 C21 C 0.35808 0.09153 -0.04058
 C22 C 0.35269 0.04189 -0.06783
 C23 C 0.38349 0.02595 -0.10461
 C24 C 0.42052 0.05984 -0.11351
 H25 H 0.39953 0.16412 -0.02934
 H26 H 0.32336 0.01638 -0.06180
 H27 H 0.44380 0.04875 -0.14315
 C28 C 0.04037 0.91688 0.39080
 C29 C 0.04769 0.95195 0.34722
 C30 C 0.09425 0.95761 0.33483
 C31 C 0.13286 0.92761 0.36583
 C32 C 0.12600 0.89462 0.41114
 C33 C 0.07949 0.88900 0.42321
 H34 H 0.01740 0.97429 0.32296
 H35 H 0.16882 0.93234 0.35673
 H36 H 0.07365 0.86280 0.45759
 N37 N 0.11134 0.30454 0.08597
 N38 N 0.07977 0.28978 0.11716
 C39 C 0.04299 0.32630 0.11091
 C40 C 0.05229 0.36566 0.07354
 C41 C 0.09571 0.35101 0.05840
 H42 H 0.01212 0.32431 0.13190
 H43 H 0.11446 0.37242 0.02977
 Cu44 Cu 0.08965 0.22503 0.16463
 Cu45 Cu 0.17046 0.26223 0.08526
 Cu46 Cu 0.16746 0.13090 0.12060
 N47 N 0.09399 0.14923 0.19019
 N48 N 0.12397 0.11342 0.17370
 C49 C 0.12133 0.06635 0.20135
 C50 C 0.08740 0.07315 0.23583
 C51 C 0.07057 0.12577 0.22792
 H52 H 0.14341 0.03061 0.19803
 H53 H 0.04500 0.14606 0.24978
 N54 N 0.21815 0.15924 0.08424
 N55 N 0.22040 0.21080 0.07159
 C56 C 0.25780 0.21796 0.04438
 C57 C 0.27948 0.16808 0.03972
 C58 C 0.25352 0.13160 0.06509
 H59 H 0.26659 0.25576 0.02631
 H60 H 0.25876 0.08821 0.06754
 H61 H 0.11466 0.19186 0.09912
 H62 H 0.16164 0.20082 0.16293
 N63 N 0.40897 0.73663 0.58679
 N64 N 0.43977 0.74837 0.63231
 C65 C 0.47889 0.71528 0.63639
 C66 C 0.47130 0.68095 0.59124
 C67 C 0.42683 0.69505 0.56065
 H68 H 0.50970 0.71537 0.67003
 H69 H 0.40907 0.67710 0.52216
 Cu70 Cu 0.42474 0.80472 0.68260
 Cu71 Cu 0.34924 0.77838 0.56397
 Cu72 Cu 0.30668 0.82945 0.67948
 N73 N 0.40189 0.85219 0.73656
 N74 N 0.35557 0.86001 0.73678
 C75 C 0.34964 0.89570 0.77692
 C76 C 0.39475 0.91127 0.80226
 C77 C 0.42713 0.88337 0.77579
 H78 H 0.31529 0.91222 0.78377
 H79 H 0.46573 0.88756 0.78250
 N80 N 0.26528 0.81949 0.60554
 N81 N 0.28252 0.80374 0.56052
 C82 C 0.24846 0.81141 0.51443
 C83 C 0.20780 0.83236 0.53181
 C84 C 0.21924 0.83685 0.58949
 H85 H 0.25371 0.80493 0.47155
 H86 H 0.19750 0.85622 0.61678
 H87 H 0.35196 0.84071 0.62331
 H88 H 0.34572 0.76923 0.64578
 N89 N 0.89881 0.77687 0.42990
 N90 N 0.93293 0.75970 0.40284
 C91 C 0.95915 0.80181 0.39164
 C92 C 0.93972 0.84747 0.41249
 C93 C 0.90163 0.83064 0.43642
 H94 H 0.98964 0.79939 0.36994
 H95 H 0.87881 0.85517 0.45841
 Cu96 Cu 0.93861 0.68437 0.38256
 Cu97 Cu 0.85700 0.72697 0.45952
 Cu98 Cu 0.85798 0.59578 0.41257
 N99 N 0.92662 0.61791 0.34081
 N100 N 0.89356 0.58460 0.35124
 C101 C 0.88918 0.54495 0.31317
 C102 C 0.92150 0.55415 0.27742
 C103 C 0.94487 0.60042 0.29583
 H104 H 0.86363 0.51295 0.31086
 H105 H 0.97108 0.62130 0.27635
 N106 N 0.81362 0.62226 0.46150
 N107 N 0.81206 0.67285 0.47799
 C108 C 0.77596 0.67930 0.50759
 C109 C 0.75453 0.63036 0.50989
 C110 C 0.77881 0.59491 0.48035
 H111 H 0.76549 0.71679 0.52520
 H112 H 0.77067 0.55319 0.47150
 H113 H 0.89588 0.65570 0.45845
 H114 H 0.85487 0.67620 0.39197
 N115 N 0.57419 0.26967 -0.09882
 N116 N 0.55739 0.25267 -0.14985
 C117 C 0.52167 0.21847 -0.14749
 C118 C 0.51542 0.21451 -0.09210
 C119 C 0.54896 0.24744 -0.06198
 H120 H 0.50120 0.19891 -0.18341
 H121 H 0.55515 0.25397 -0.01702
 Cu122 Cu 0.58034 0.27920 -0.21595
 Cu123 Cu 0.62843 0.31820 -0.08501
 Cu124 Cu 0.68019 0.35016 -0.20104
 N125 N 0.59396 0.32556 -0.27648
 N126 N 0.63231 0.35543 -0.26973
 C127 C 0.63086 0.38734 -0.31565
 C128 C 0.58953 0.37595 -0.35296
 C129 C 0.56693 0.33663 -0.32730
 H130 H 0.65718 0.41709 -0.32087
 H131 H 0.53238 0.31958 -0.34289
 N132 N 0.71282 0.36066 -0.12354
 N133 N 0.69262 0.35069 -0.07898
 C134 C 0.72400 0.36244 -0.03204
 C135 C 0.76549 0.38012 -0.04879
 C136 C 0.75748 0.37850 -0.10661
 H137 H 0.71770 0.35708 0.01069
 H138 H 0.78219 0.38943 -0.13427
 H139 H 0.62089 0.35373 -0.16461
 H140 H 0.65614 0.28851 -0.15155
 N141 N -0.01562 0.42128 0.06962
 N142 N 0.02325 0.41251 0.05421
 N143 N 0.54760 0.63947 0.59484
 N144 N 0.50230 0.63810 0.57891
 N145 N 0.99714 0.90955 0.40144
 N146 N 0.95701 0.90110 0.41261
 N147 N 0.46268 0.14359 -0.10106
 N148 N 0.48139 0.18180 -0.07084
 N149 N 0.10376 -0.00499 0.29267
 N150 N 0.07637 0.03597 0.27717
 N151 N 0.58264 0.44972 -0.41365
 N152 N 0.57039 0.40363 -0.40460
 N153 N 0.37414 0.97775 0.86367
 N154 N 0.40556 0.95621 0.83820
 N155 N 0.89390 0.49338 0.20576
 N156 N 0.92601 0.52569 0.22732
 N157 N 0.32341 0.10712 -0.00642
 N158 N 0.31584 0.15572 0.00682
 N159 N 0.69642 0.57320 0.53557
 N160 N 0.71239 0.62051 0.53322
 N161 N 0.81206 0.40415 0.03816
 N162 N 0.80913 0.39579 -0.01431
 N163 N 0.16699 0.86946 0.44600
 N164 N 0.16632 0.85618 0.49703
   
