data_POSCAR
  _audit_creation_date              2014-09-24
  _audit_creation_method            'ToBaCCo'
  _symmetry_space_group_name_H-M    'P1'
  _symmetry_Int_Tables_number       1
  _symmetry_cell_setting            triclinic
  loop_
  _symmetry_equiv_pos_as_xyz
 x,y,z
_cell_length_a 48.4313
_cell_length_b 48.1532
_cell_length_c 48.4318
_cell_angle_alpha 89.968800
_cell_angle_beta 90.050500
_cell_angle_gamma 90.046900
loop_
  _atom_site_label
  _atom_site_type_symbol
  _atom_site_fract_x
  _atom_site_fract_y
  _atom_site_fract_z
C1 C 0.60456 0.64406 0.62616
 N2 N 0.60467 0.62413 0.64598
 C3 C 0.62465 0.60440 0.64608
 N4 N 0.64453 0.60460 0.62635
 C5 C 0.64442 0.62453 0.60653
 N6 N 0.62443 0.64426 0.60644
 C7 C 0.89658 0.35488 0.12600
 N8 N 0.87684 0.35493 0.10610
 C9 C 0.85694 0.37475 0.10616
 N10 N 0.85677 0.39452 0.12611
 C11 C 0.87651 0.39448 0.14601
 N12 N 0.89642 0.37466 0.14596
 C13 C 0.39543 0.14456 -0.12588
 N14 N 0.37561 0.14455 -0.10609
 C15 C 0.35571 0.12471 -0.10619
 N16 N 0.35562 0.10487 -0.12608
 C17 C 0.37543 0.10488 -0.14587
 N18 N 0.39534 0.12473 -0.14577
 C19 C 0.10366 0.85550 0.37325
 N20 N 0.10376 0.87547 0.35347
 C21 C 0.12377 0.89521 0.35342
 N22 N 0.14368 0.89498 0.37316
 C23 C 0.14357 0.87502 0.39294
 N24 N 0.12356 0.85527 0.39298
 N25 N 0.09351 0.17014 0.11347
 N26 N 0.08297 0.15908 0.13597
 C27 C 0.06068 0.17390 0.14367
 C28 C 0.05727 0.19522 0.12500
 C29 C 0.07832 0.19236 0.10610
 H30 H 0.04787 0.16958 0.16144
 H31 H 0.08225 0.20543 0.08837
 Cu32 Cu 0.09936 0.12636 0.15292
 Cu33 Cu 0.12605 0.15495 0.09542
 Cu34 Cu 0.15507 0.09600 0.12455
 N35 N 0.11551 0.09291 0.16864
 N36 N 0.13732 0.08116 0.15746
 C37 C 0.14423 0.05854 0.17228
 C38 C 0.12575 0.05611 0.19374
 C39 C 0.10779 0.07811 0.19097
 H40 H 0.16138 0.04489 0.16780
 H41 H 0.09047 0.08289 0.20422
 N42 N 0.17005 0.11408 0.09127
 N43 N 0.15900 0.13655 0.08017
 C44 C 0.17385 0.14388 0.05780
 C45 C 0.19508 0.12513 0.05485
 C46 C 0.19222 0.10653 0.07625
 H47 H 0.16962 0.16151 0.04464
 H48 H 0.20533 0.08887 0.08050
 H49 H 0.12002 0.11453 0.10857
 H50 H 0.14309 0.13680 0.13016
 N51 N 0.40564 0.82902 0.61332
 N52 N 0.41618 0.84015 0.63579
 C53 C 0.43848 0.82535 0.64358
 C54 C 0.44188 0.80397 0.62500
 C55 C 0.42082 0.80677 0.60607
 H56 H 0.45133 0.82976 0.66131
 H57 H 0.41691 0.79368 0.58835
 Cu58 Cu 0.39984 0.87294 0.65257
 Cu59 Cu 0.37319 0.84425 0.59508
 Cu60 Cu 0.34435 0.90345 0.62378
 N61 N 0.38376 0.90650 0.66806
 N62 N 0.36208 0.91835 0.65669
 C63 C 0.35521 0.94105 0.67137
 C64 C 0.37359 0.94342 0.69296
 C65 C 0.39144 0.92131 0.69040
 H66 H 0.33816 0.95478 0.66673
 H67 H 0.40866 0.91646 0.70379
 N68 N 0.32937 0.88530 0.59054
 N69 N 0.34034 0.86271 0.57963
 C70 C 0.32548 0.85532 0.55726
 C71 C 0.30434 0.87415 0.55412
 C72 C 0.30727 0.89287 0.57540
 H73 H 0.32966 0.83760 0.54421
 H74 H 0.29422 0.91060 0.57949
 H75 H 0.37937 0.88469 0.60807
 H76 H 0.35613 0.86262 0.62965
 N77 N 0.90630 0.67091 0.38633
 N78 N 0.91691 0.65970 0.36396
 C79 C 0.93918 0.67455 0.35616
 C80 C 0.94248 0.69605 0.37463
 C81 C 0.92141 0.69326 0.39351
 H82 H 0.95206 0.67010 0.33848
 H83 H 0.91743 0.70644 0.41113
 Cu84 Cu 0.90065 0.62675 0.34730
 Cu85 Cu 0.87385 0.65563 0.40456
 Cu86 Cu 0.84517 0.59620 0.37604
 N87 N 0.88464 0.59308 0.33188
 N88 N 0.86295 0.58124 0.34323
 C89 C 0.85610 0.55847 0.32860
 C90 C 0.87451 0.55607 0.30707
 C91 C 0.89235 0.57822 0.30962
 H92 H 0.83904 0.54474 0.33322
 H93 H 0.90957 0.58307 0.29625
 N94 N 0.83013 0.61443 0.40917
 N95 N 0.84103 0.63711 0.42001
 C96 C 0.82616 0.64453 0.44233
 C97 C 0.80507 0.62561 0.44551
 C98 C 0.80805 0.60682 0.42432
 H99 H 0.83028 0.66232 0.45531
 H100 H 0.79506 0.58900 0.42028
 H101 H 0.88012 0.61514 0.39179
 H102 H 0.85689 0.63703 0.37002
 N103 N 0.59338 0.33083 -0.11263
 N104 N 0.58220 0.34253 -0.13450
 C105 C 0.55978 0.32780 -0.14212
 C106 C 0.55695 0.30590 -0.12403
 C107 C 0.57847 0.30830 -0.10558
 H108 H 0.54652 0.33257 -0.15946
 H109 H 0.58293 0.29470 -0.08837
 Cu110 Cu 0.59804 0.37584 -0.15085
 Cu111 Cu 0.62638 0.34561 -0.09497
 Cu112 Cu 0.65568 0.40434 -0.12433
 N113 N 0.61506 0.40843 -0.16743
 N114 N 0.63761 0.41947 -0.15696
 C115 C 0.64500 0.44163 -0.17224
 C116 C 0.62605 0.44448 -0.19328
 C117 C 0.60734 0.42321 -0.18977
 H118 H 0.66276 0.45469 -0.16835
 H119 H 0.58951 0.41891 -0.20253
 N120 N 0.67092 0.38602 -0.09128
 N121 N 0.65977 0.36364 -0.08010
 C122 C 0.67479 0.35616 -0.05787
 C123 C 0.69624 0.37472 -0.05510
 C124 C 0.69332 0.39337 -0.07645
 H125 H 0.67047 0.33859 -0.04464
 H126 H 0.70652 0.41097 -0.08076
 H127 H 0.62091 0.38637 -0.10718
 H128 H 0.64237 0.36393 -0.13012
 C129 C -0.00293 0.25484 0.12546
 C130 C -0.00947 0.26885 0.15030
 C131 C -0.03032 0.28962 0.15043
 C132 C -0.04452 0.29624 0.12572
 C133 C -0.03799 0.28222 0.10088
 C134 C -0.01713 0.26146 0.10075
 C135 C -0.01095 0.24775 0.07566
 C136 C -0.02498 0.25434 0.05140
 C137 C -0.04538 0.27463 0.05153
 C138 C -0.05190 0.28847 0.07592
 C139 C -0.03648 0.30336 0.17551
 C140 C -0.02245 0.29677 0.19977
 C141 C -0.00208 0.27646 0.19965
 C142 C 0.00442 0.26259 0.17527
 C143 C -0.06582 0.31746 0.12585
 C144 C -0.08350 0.33507 0.12593
 C145 C 0.01841 0.23367 0.12531
 C146 C 0.03614 0.21611 0.12518
 H147 H 0.00476 0.23182 0.07451
 H148 H -0.01998 0.24365 0.03239
 H149 H -0.05622 0.27967 0.03263
 H150 H -0.06792 0.30409 0.07498
 H151 H -0.05217 0.31931 0.17665
 H152 H -0.02742 0.30749 0.21877
 H153 H 0.00876 0.27142 0.21856
 H154 H 0.02042 0.24695 0.17622
 C155 C 0.50235 0.74462 0.62558
 C156 C 0.53003 0.75209 0.61978
 C157 C 0.55101 0.73146 0.61991
 C158 C 0.54420 0.70349 0.62586
 C159 C 0.51653 0.69602 0.63170
 C160 C 0.49554 0.71665 0.63155
 C161 C 0.46802 0.70868 0.63743
 C162 C 0.46143 0.68112 0.64329
 C163 C 0.48195 0.66097 0.64345
 C164 C 0.50922 0.66821 0.63773
 C165 C 0.57853 0.73943 0.61403
 C166 C 0.58513 0.76699 0.60819
 C167 C 0.56461 0.78715 0.60807
 C168 C 0.53735 0.77991 0.61379
 C169 C 0.56564 0.68241 0.62597
 C170 C 0.58342 0.66490 0.62606
 C171 C 0.48089 0.76568 0.62539
 C172 C 0.46308 0.78316 0.62522
 H173 H 0.45134 0.72361 0.63756
 H174 H 0.44028 0.67539 0.64774
 H175 H 0.47672 0.63959 0.64802
 H176 H 0.52445 0.65178 0.63810
 H177 H 0.59521 0.72450 0.61387
 H178 H 0.60628 0.77272 0.60374
 H179 H 0.56984 0.80853 0.60353
 H180 H 0.52212 0.79634 0.61345
 C181 C 1.00276 0.75570 0.37389
 C182 C 1.03054 0.74830 0.37933
 C183 C 1.05147 0.76902 0.37916
 C184 C 1.04451 0.79701 0.37352
 C185 C 1.01674 0.80441 0.36805
 C186 C 0.99581 0.78369 0.36824
 C187 C 0.96820 0.79159 0.36273
 C188 C 0.96146 0.81917 0.35719
 C189 C 0.98193 0.83942 0.35699
 C190 C 1.00928 0.83224 0.36234
 C191 C 1.07907 0.76112 0.38468
 C192 C 1.08582 0.73354 0.39021
 C193 C 1.06536 0.71329 0.39038
 C194 C 1.03800 0.72046 0.38501
 C195 C 1.06589 0.81818 0.37339
 C196 C 1.08365 0.83575 0.37331
 C197 C 0.98137 0.73454 0.37413
 C198 C 0.96362 0.71697 0.37434
 H199 H 0.95156 0.77659 0.36265
 H200 H 0.94024 0.82485 0.35302
 H201 H 0.97659 0.86081 0.35266
 H202 H 1.02447 0.84874 0.36195
 H203 H 1.09572 0.77613 0.38479
 H204 H 1.10703 0.72787 0.39439
 H205 H 1.07070 0.69190 0.39468
 H206 H 1.02282 0.70396 0.38537
 C207 C 0.49691 0.24601 -0.12487
 C208 C 0.47950 0.24252 -0.10165
 C209 C 0.45867 0.22170 -0.10191
 C210 C 0.45538 0.20449 -0.12539
 C211 C 0.47278 0.20799 -0.14861
 C212 C 0.49360 0.22881 -0.14835
 C213 C 0.51074 0.23192 -0.17182
 C214 C 0.50742 0.21494 -0.19487
 C215 C 0.48707 0.19457 -0.19511
 C216 C 0.46989 0.19104 -0.17231
 C217 C 0.44152 0.21860 -0.07845
 C218 C 0.44485 0.23558 -0.05540
 C219 C 0.46522 0.25593 -0.05514
 C220 C 0.48240 0.25945 -0.07794
 C221 C 0.43412 0.18320 -0.12563
 C222 C 0.41646 0.16554 -0.12577
 C223 C 0.51821 0.26726 -0.12459
 C224 C 0.53589 0.28490 -0.12434
 H225 H 0.52686 0.24748 -0.17261
 H226 H 0.52071 0.21760 -0.21264
 H227 H 0.48457 0.18143 -0.21307
 H228 H 0.45436 0.17491 -0.17349
 H229 H 0.42538 0.20307 -0.07767
 H230 H 0.43155 0.23293 -0.03764
 H231 H 0.46772 0.26906 -0.03718
 H232 H 0.49794 0.27557 -0.07676
 C233 C 0.12481 -0.00400 0.25353
 C234 C 0.14958 -0.01789 0.26066
 C235 C 0.14933 -0.03880 0.28139
 C236 C 0.12431 -0.04572 0.29486
 C237 C 0.09954 -0.03183 0.28774
 C238 C 0.09980 -0.01090 0.26702
 C239 C 0.07479 0.00272 0.26028
 C240 C 0.05023 -0.00415 0.27361
 C241 C 0.04997 -0.02463 0.29385
 C242 C 0.07428 -0.03837 0.30092
 C243 C 0.17435 -0.05238 0.28817
 C244 C 0.19891 -0.04550 0.27485
 C245 C 0.19916 -0.02505 0.25458
 C246 C 0.17484 -0.01134 0.24748
 C247 C 0.12406 -0.06709 0.31604
 C248 C 0.12390 -0.08483 0.33362
 C249 C 0.12507 0.01734 0.23233
 C250 C 0.12535 0.03504 0.21472
 H251 H 0.07394 0.01879 0.24468
 H252 H 0.03129 0.00647 0.26820
 H253 H 0.03084 -0.02989 0.30414
 H254 H 0.07304 -0.05415 0.31679
 H255 H 0.17521 -0.06842 0.30380
 H256 H 0.21786 -0.05609 0.28029
 H257 H 0.21829 -0.01978 0.24430
 H258 H 0.17608 0.00441 0.23159
 C259 C 0.62538 0.50408 -0.25359
 C260 C 0.64636 0.50446 -0.27395
 C261 C 0.64617 0.52524 -0.29481
 C262 C 0.62502 0.54552 -0.29520
 C263 C 0.60403 0.54512 -0.27487
 C264 C 0.60420 0.52434 -0.25401
 C265 C 0.58299 0.52436 -0.23393
 C266 C 0.56219 0.54434 -0.23443
 C267 C 0.56202 0.56466 -0.25482
 C268 C 0.58265 0.56515 -0.27486
 C269 C 0.66736 0.52519 -0.31493
 C270 C 0.68812 0.50518 -0.31446
 C271 C 0.68830 0.48486 -0.29407
 C272 C 0.66771 0.48441 -0.27399
 C273 C 0.62489 0.56680 -0.31646
 C274 C 0.62477 0.58448 -0.33409
 C275 C 0.62562 0.48291 -0.23221
 C276 C 0.62582 0.46536 -0.21445
 H277 H 0.58223 0.50897 -0.21766
 H278 H 0.54612 0.54405 -0.21891
 H279 H 0.54583 0.58013 -0.25512
 H280 H 0.58162 0.58137 -0.29030
 H281 H 0.66810 0.54056 -0.33122
 H282 H 0.70416 0.50544 -0.33002
 H283 H 0.70447 0.46936 -0.29379
 H284 H 0.66874 0.46819 -0.25855
 C285 C 0.37460 1.00353 0.75268
 C286 C 0.38774 0.99832 0.77830
 C287 C 0.38797 1.01915 0.79909
 C288 C 0.37507 1.04506 0.79415
 C289 C 0.36198 1.05029 0.76851
 C290 C 0.36174 1.02945 0.74772
 C291 C 0.34851 1.03515 0.72226
 C292 C 0.33589 1.06071 0.71748
 C293 C 0.33614 1.08108 0.73780
 C294 C 0.34900 1.07604 0.76306
 C295 C 0.40122 1.01346 0.82453
 C296 C 0.41388 0.98792 0.82930
 C297 C 0.41366 0.96756 0.80897
 C298 C 0.40076 0.97258 0.78373
 C299 C 0.37522 1.06630 0.81543
 C300 C 0.37532 1.08392 0.83310
 C301 C 0.37428 0.98221 0.73148
 C302 C 0.37398 0.96451 0.71389
 H303 H 0.34777 1.01997 0.70582
 H304 H 0.32587 1.06472 0.69789
 H305 H 0.32631 1.10089 0.73397
 H306 H 0.34865 1.09254 0.77821
 H307 H 0.40195 1.02864 0.84098
 H308 H 0.42393 0.98392 0.84888
 H309 H 0.42352 0.94776 0.81278
 H310 H 0.40114 0.95609 0.76856
 C311 C 0.87554 0.49580 0.24750
 C312 C 0.85490 0.47495 0.24730
 C313 C 0.85513 0.45411 0.22651
 C314 C 0.87601 0.45423 0.20606
 C315 C 0.89668 0.47505 0.20630
 C316 C 0.89644 0.49589 0.22708
 C317 C 0.91732 0.51649 0.22688
 C318 C 0.93783 0.51650 0.20673
 C319 C 0.93807 0.49613 0.18642
 C320 C 0.91779 0.47559 0.18610
 C321 C 0.83427 0.43351 0.22673
 C322 C 0.81376 0.43349 0.24689
 C323 C 0.81353 0.45386 0.26721
 C324 C 0.83381 0.47440 0.26751
 C325 C 0.87620 0.43300 0.18477
 C326 C 0.87635 0.41539 0.16708
 C327 C 0.87522 0.51716 0.26866
 C328 C 0.87492 0.53491 0.28620
 H329 H 0.91801 0.53277 0.24226
 H330 H 0.95364 0.53241 0.20688
 H331 H 0.95406 0.49623 0.17081
 H332 H 0.91885 0.46018 0.16988
 H333 H 0.83357 0.41723 0.21135
 H334 H 0.79796 0.41757 0.24675
 H335 H 0.79756 0.45375 0.28283
 H336 H 0.83277 0.48979 0.28375
 C337 C 0.25468 0.12491 -0.00503
 C338 C 0.26666 0.15026 -0.01378
 C339 C 0.28739 0.15020 -0.03454
 C340 C 0.29600 0.12479 -0.04646
 C341 C 0.28400 0.09944 -0.03771
 C342 C 0.26328 0.09950 -0.01693
 C343 C 0.25161 0.07390 -0.00853
 C344 C 0.26015 0.04896 -0.02032
 C345 C 0.28039 0.04890 -0.04063
 C346 C 0.29226 0.07379 -0.04931
 C347 C 0.29909 0.17580 -0.04293
 C348 C 0.29054 0.20075 -0.03115
 C349 C 0.27026 0.20081 -0.01086
 C350 C 0.25839 0.17592 -0.00219
 C351 C 0.31718 0.12473 -0.06767
 C352 C 0.33477 0.12471 -0.08527
 C353 C 0.23352 0.12498 0.01621
 C354 C 0.21597 0.12504 0.03384
 H355 H 0.23579 0.07288 0.00721
 H356 H 0.25099 0.02957 -0.01364
 H357 H 0.28695 0.02947 -0.04973
 H358 H 0.30793 0.07267 -0.06518
 H359 H 0.31493 0.17682 -0.05864
 H360 H 0.29970 0.22013 -0.03781
 H361 H 0.26369 0.22024 -0.00178
 H362 H 0.24269 0.17704 0.01365
 C363 C 0.74561 0.62528 0.50552
 C364 C 0.73271 0.65044 0.51339
 C365 C 0.71197 0.65030 0.53415
 C366 C 0.70426 0.62501 0.54693
 C367 C 0.71719 0.59985 0.53910
 C368 C 0.73792 0.59999 0.51833
 C369 C 0.75053 0.57458 0.51084
 C370 C 0.74290 0.54975 0.52351
 C371 C 0.72265 0.54962 0.54382
 C372 C 0.70987 0.57432 0.55161
 C373 C 0.69936 0.67571 0.54164
 C374 C 0.70703 0.70055 0.52901
 C375 C 0.72732 0.70069 0.50873
 C376 C 0.74008 0.67599 0.50093
 C377 C 0.68304 0.62486 0.56810
 C378 C 0.66541 0.62471 0.58566
 C379 C 0.76673 0.62541 0.48425
 C380 C 0.78424 0.62551 0.46658
 H381 H 0.76639 0.57362 0.49515
 H382 H 0.75277 0.53051 0.51754
 H383 H 0.71680 0.53028 0.55361
 H384 H 0.69423 0.57315 0.56751
 H385 H 0.68348 0.67667 0.55731
 H386 H 0.69718 0.71980 0.53500
 H387 H 0.73321 0.72005 0.49899
 H388 H 0.75574 0.67716 0.48505
 C389 C 0.75607 0.37477 0.00465
 C390 C 0.77280 0.35099 0.00861
 C391 C 0.79352 0.35100 0.02942
 C392 C 0.79739 0.37479 0.04616
 C393 C 0.78068 0.39858 0.04219
 C394 C 0.75996 0.39857 0.02137
 C395 C 0.74352 0.42260 0.01780
 C396 C 0.74741 0.44596 0.03432
 C397 C 0.76766 0.44597 0.05467
 C398 C 0.78416 0.42261 0.05866
 C399 C 0.80999 0.32699 0.03297
 C400 C 0.80609 0.30362 0.01646
 C401 C 0.78583 0.30360 -0.00388
 C402 C 0.76931 0.32695 -0.00785
 C403 C 0.81853 0.37479 0.06745
 C404 C 0.83607 0.37478 0.08513
 C405 C 0.73486 0.37473 -0.01657
 C406 C 0.71724 0.37472 -0.03416
 H407 H 0.72750 0.42360 0.00223
 H408 H 0.73465 0.46416 0.03130
 H409 H 0.77060 0.46416 0.06746
 H410 H 0.79964 0.42362 0.07475
 H411 H 0.82603 0.32600 0.04852
 H412 H 0.81887 0.28543 0.01947
 H413 H 0.78288 0.28540 -0.01665
 H414 H 0.75382 0.32593 -0.02393
 C415 C 0.24483 0.87438 0.49405
 C416 C 0.23531 0.89989 0.48305
 C417 C 0.21456 0.89999 0.46226
 C418 C 0.20345 0.87457 0.45260
 C419 C 0.21299 0.84906 0.46358
 C420 C 0.23375 0.84896 0.48436
 C421 C 0.24297 0.82320 0.49501
 C422 C 0.23198 0.79824 0.48542
 C423 C 0.21167 0.79834 0.46512
 C424 C 0.20221 0.82339 0.45426
 C425 C 0.20537 0.92575 0.45159
 C426 C 0.21636 0.95070 0.46118
 C427 C 0.23663 0.95061 0.48151
 C428 C 0.24608 0.92556 0.49239
 C429 C 0.18222 0.87468 0.43141
 C430 C 0.16458 0.87481 0.41383
 C431 C 0.26597 0.87429 0.51534
 C432 C 0.28349 0.87422 0.53303
 H433 H 0.25873 0.82205 0.51082
 H434 H 0.23926 0.77873 0.49380
 H435 H 0.20320 0.77889 0.45775
 H436 H 0.18639 0.82239 0.43850
 H437 H 0.18964 0.92690 0.43576
 H438 H 0.20909 0.97022 0.45279
 H439 H 0.24510 0.97005 0.48889
 H440 H 0.26188 0.92656 0.50817
   
