data_POSCAR
  _audit_creation_date              2014-09-24
  _audit_creation_method            'ToBaCCo'
  _symmetry_space_group_name_H-M    'P1'
  _symmetry_Int_Tables_number       1
  _symmetry_cell_setting            triclinic
  loop_
  _symmetry_equiv_pos_as_xyz
 x,y,z
_cell_length_a 41.1173
_cell_length_b 41.5630
_cell_length_c 41.3904
_cell_angle_alpha 89.961400
_cell_angle_beta 90.048500
_cell_angle_gamma 89.954800
loop_
  _atom_site_label
  _atom_site_type_symbol
  _atom_site_fract_x
  _atom_site_fract_y
  _atom_site_fract_z
C1 C 0.26492 0.38650 -0.00096
 C2 C 0.27333 0.37282 0.02863
 C3 C 0.29603 0.34772 0.02996
 C4 C 0.31206 0.33705 0.00162
 C5 C 0.30383 0.35223 -0.02805
 C6 C 0.27976 0.37607 -0.02935
 C7 C 0.33716 0.31058 0.00292
 C8 C 0.34635 0.29397 -0.02553
 C9 C 0.37086 0.27064 -0.02485
 C10 C 0.38513 0.26189 0.00441
 C11 C 0.37584 0.27694 0.03302
 C12 C 0.35262 0.30170 0.03232
 H13 H 0.24689 0.40559 -0.00180
 H14 H 0.30074 0.33685 0.05320
 H15 H 0.31604 0.34617 -0.05032
 H16 H 0.33484 0.29883 -0.04848
 H17 H 0.40390 0.24349 0.00491
 H18 H 0.34736 0.31393 0.05472
 C19 C 0.73501 0.61373 -0.00277
 C20 C 0.72083 0.62349 0.02613
 C21 C 0.69711 0.64757 0.02615
 C22 C 0.68841 0.66374 -0.00274
 C23 C 0.70375 0.65378 -0.03184
 C24 C 0.72623 0.62835 -0.03180
 C25 C 0.66332 0.69027 -0.00235
 C26 C 0.64745 0.70020 -0.03109
 C27 C 0.62407 0.72475 -0.03047
 C28 C 0.61500 0.73863 -0.00117
 C29 C 0.62964 0.72885 0.02754
 C30 C 0.65431 0.70564 0.02696
 H31 H 0.75283 0.59445 -0.00269
 H32 H 0.68556 0.65297 0.04891
 H33 H 0.69868 0.66539 -0.05463
 H34 H 0.65251 0.68888 -0.05402
 H35 H 0.59614 0.75694 -0.00061
 H36 H 0.66600 0.69996 0.04961
 C37 C 0.73475 0.38623 1.00114
 C38 C 0.72645 0.37260 0.97152
 C39 C 0.70378 0.34750 0.97015
 C40 C 0.68771 0.33680 0.99846
 C41 C 0.69587 0.35195 1.02814
 C42 C 0.71986 0.37578 1.02946
 C43 C 0.66266 0.31033 0.99715
 C44 C 0.65347 0.29370 1.02560
 C45 C 0.62900 0.27037 1.02490
 C46 C 0.61477 0.26165 0.99564
 C47 C 0.62406 0.27673 0.96703
 C48 C 0.64725 0.30147 0.96773
 H49 H 0.75274 0.40531 1.00212
 H50 H 0.69912 0.33666 0.94690
 H51 H 0.68371 0.34592 1.05043
 H52 H 0.66493 0.29856 1.04856
 H53 H 0.59603 0.24325 0.99513
 H54 H 0.65252 0.31372 0.94533
 C55 C 0.26542 0.61344 1.00267
 C56 C 0.27962 0.62310 0.97374
 C57 C 0.30327 0.64721 0.97363
 C58 C 0.31187 0.66350 1.00245
 C59 C 0.29652 0.65364 1.03157
 C60 C 0.27411 0.62818 1.03164
 C61 C 0.33689 0.69004 1.00197
 C62 C 0.35275 0.70004 1.03067
 C63 C 0.37606 0.72461 1.02998
 C64 C 0.38508 0.73846 1.00064
 C65 C 0.37046 0.72862 0.97196
 C66 C 0.34585 0.70538 0.97261
 H67 H 0.24765 0.59414 1.00266
 H68 H 0.31484 0.65254 0.95086
 H69 H 0.30151 0.66535 1.05431
 H70 H 0.34772 0.68874 1.05363
 H71 H 0.40389 0.75679 1.00002
 H72 H 0.33416 0.69964 0.94998
 C73 C -0.00428 0.26474 0.38598
 C74 C 0.02472 0.27890 0.37607
 C75 C 0.02437 0.30307 0.35249
 C76 C -0.00509 0.31230 0.33718
 C77 C -0.03413 0.29680 0.34719
 C78 C -0.03369 0.27391 0.37203
 C79 C -0.00555 0.33805 0.31145
 C80 C -0.03490 0.35382 0.30275
 C81 C -0.03529 0.37739 0.27855
 C82 C -0.00633 0.38684 0.26388
 C83 C 0.02299 0.37244 0.27257
 C84 C 0.02339 0.34761 0.29545
 H85 H -0.00399 0.24666 0.40491
 H86 H 0.04720 0.31454 0.34683
 H87 H -0.05730 0.30207 0.33610
 H88 H -0.05759 0.34847 0.31472
 H89 H -0.00651 0.40577 0.24576
 H90 H 0.04645 0.33617 0.30034
 C91 C -0.00013 0.73480 0.61464
 C92 C 0.02949 0.72071 0.62281
 C93 C 0.03071 0.69655 0.64637
 C94 C 0.00230 0.68724 0.66338
 C95 C -0.02738 0.70270 0.65514
 C96 C -0.02858 0.72558 0.63032
 C97 C 0.00350 0.66143 0.68901
 C98 C -0.02521 0.64548 0.69918
 C99 C -0.02413 0.62189 0.72333
 C100 C 0.00564 0.61257 0.73647
 C101 C 0.03437 0.62712 0.72629
 C102 C 0.03336 0.65198 0.70343
 H103 H -0.00109 0.75287 0.59572
 H104 H 0.05390 0.68512 0.65069
 H105 H -0.04979 0.69738 0.66761
 H106 H -0.04854 0.65070 0.68838
 H107 H 0.00655 0.59365 0.75457
 H108 H 0.05603 0.66355 0.69732
 C109 C 1.00039 0.73549 0.38560
 C110 C 0.97083 0.72144 0.37727
 C111 C 0.96974 0.69732 0.35370
 C112 C 0.99823 0.68803 0.33680
 C113 C 1.02788 0.70344 0.34517
 C114 C 1.02897 0.72627 0.37005
 C115 C 0.99713 0.66228 0.31114
 C116 C 1.02587 0.64628 0.30108
 C117 C 1.02486 0.62273 0.27692
 C118 C 0.99514 0.61351 0.26365
 C119 C 0.96638 0.62811 0.27373
 C120 C 0.96732 0.65293 0.29659
 H121 H 1.00114 0.75354 0.40455
 H122 H 0.94659 0.68592 0.34927
 H123 H 1.05030 0.69809 0.33271
 H124 H 1.04916 0.65142 0.31198
 H125 H 0.99428 0.59461 0.24556
 H126 H 0.94464 0.66455 0.30260
 C127 C 1.00472 0.26397 0.61508
 C128 C 0.97574 0.27821 0.62500
 C129 C 0.97613 0.30232 0.64858
 C130 C 1.00560 0.31142 0.66391
 C131 C 1.03462 0.29585 0.65389
 C132 C 1.03415 0.27302 0.62903
 C133 C 1.00610 0.33713 0.68965
 C134 C 1.03548 0.35279 0.69838
 C135 C 1.03588 0.37634 0.72257
 C136 C 1.00693 0.38588 0.73721
 C137 C 0.97759 0.37158 0.72850
 C138 C 0.97717 0.34677 0.70563
 H139 H 1.00440 0.24593 0.59612
 H140 H 0.95332 0.31387 0.65424
 H141 H 1.05780 0.30103 0.66498
 H142 H 1.05816 0.34738 0.68642
 H143 H 1.00712 0.40480 0.75530
 H144 H 0.95409 0.33541 0.70073
 C145 C 0.39030 0.00025 0.26348
 C146 C 0.38041 0.02918 0.27735
 C147 C 0.35574 0.02939 0.30061
 C148 C 0.33923 0.00067 0.30913
 C149 C 0.34920 -0.02832 0.29397
 C150 C 0.37517 -0.02856 0.27202
 C151 C 0.31222 0.00096 0.33378
 C152 C 0.30223 -0.02773 0.34946
 C153 C 0.27700 -0.02736 0.37215
 C154 C 0.26247 0.00164 0.38082
 C155 C 0.27236 0.03034 0.36650
 C156 C 0.29633 0.03002 0.34249
 H157 H 0.41001 0.00019 0.24603
 H158 H 0.35010 0.05210 0.31192
 H159 H 0.33710 -0.05087 0.29879
 H160 H 0.31400 -0.05049 0.34481
 H161 H 0.24362 0.00194 0.39917
 H162 H 0.30221 0.05263 0.33106
 C163 C 0.60930 0.00043 0.73620
 C164 C 0.61918 0.02940 0.72238
 C165 C 0.64381 0.02965 0.69910
 C166 C 0.66030 0.00094 0.69049
 C167 C 0.65034 -0.02810 0.70559
 C168 C 0.62441 -0.02837 0.72757
 C169 C 0.68728 0.00127 0.66581
 C170 C 0.69716 -0.02737 0.64997
 C171 C 0.72236 -0.02696 0.62726
 C172 C 0.73698 0.00204 0.61873
 C173 C 0.72719 0.03069 0.63322
 C174 C 0.70324 0.03031 0.65724
 H175 H 0.58961 0.00035 0.75367
 H176 H 0.64945 0.05239 0.68782
 H177 H 0.66244 -0.05065 0.70069
 H178 H 0.68532 -0.05010 0.65453
 H179 H 0.75581 0.00237 0.60037
 H180 H 0.69744 0.05286 0.66881
 C181 C 0.37987 1.00003 0.73657
 C182 C 0.37134 0.97107 0.72199
 C183 C 0.34862 0.97069 0.69683
 C184 C 0.33272 0.99935 0.68693
 C185 C 0.34135 1.02841 0.70275
 C186 C 0.36542 1.02870 0.72672
 C187 C 0.30794 0.99893 0.66006
 C188 C 0.29934 1.02753 0.64339
 C189 C 0.27606 1.02704 0.61865
 C190 C 0.26230 0.99794 0.60901
 C191 C 0.27091 0.96936 0.62440
 C192 C 0.29279 0.96985 0.65032
 H193 H 0.39827 1.00031 0.75539
 H194 H 0.34413 0.94797 0.68503
 H195 H 0.32981 1.05100 0.69682
 H196 H 0.31068 1.05028 0.64898
 H197 H 0.24489 0.99745 0.58926
 H198 H 0.29759 0.94736 0.66250
 C199 C 0.61913 1.00039 0.26252
 C200 C 0.62786 0.97147 0.27712
 C201 C 0.65063 0.97118 0.30224
 C202 C 0.66639 0.99988 0.31208
 C203 C 0.65758 1.02893 0.29626
 C204 C 0.63343 1.02916 0.27232
 C205 C 0.69123 0.99953 0.33890
 C206 C 0.69973 1.02813 0.35554
 C207 C 0.72301 1.02768 0.38023
 C208 C 0.73694 0.99867 0.38987
 C209 C 0.72847 0.97006 0.37452
 C210 C 0.70655 0.97048 0.34863
 H211 H 0.60068 1.00050 0.24372
 H212 H 0.65526 0.94846 0.31405
 H213 H 0.66908 1.05152 0.30220
 H214 H 0.68833 1.05089 0.35001
 H215 H 0.75435 0.99832 0.40960
 H216 H 0.70185 0.94799 0.33648
 O217 O 0.86811 0.81998 0.47458
 O218 O 0.82165 0.86751 0.53327
 O219 O 0.86642 0.82329 0.53685
 O220 O 0.82491 0.86558 0.47105
 O221 O 0.78590 0.82898 0.47088
 O222 O 0.82826 0.78582 0.53711
 O223 O 0.78296 0.83057 0.53367
 O224 O 0.82961 0.78285 0.47429
 Cu225 Cu 0.84912 0.84777 0.50396
 Cu226 Cu 0.80275 0.80328 0.50402
 C227 C 0.85696 0.79328 0.46474
 C228 C 0.79430 0.85737 0.54307
 C229 C 0.85485 0.79724 0.54778
 C230 C 0.79826 0.85487 0.46012
 O231 O 0.13184 0.17976 0.46733
 O232 O 0.17934 0.13179 0.52488
 O233 O 0.13488 0.17605 0.52950
 O234 O 0.17529 0.13436 0.46271
 O235 O 0.21422 0.17104 0.46222
 O236 O 0.17309 0.21347 0.52949
 O237 O 0.21807 0.16869 0.52495
 O238 O 0.17024 0.21698 0.46673
 Cu239 Cu 0.15149 0.15180 0.49610
 Cu240 Cu 0.19783 0.19633 0.49578
 C241 C 0.14269 0.20661 0.45762
 C242 C 0.20682 0.14186 0.53440
 C243 C 0.14674 0.20193 0.54054
 C244 C 0.20178 0.14518 0.45151
 O245 O 0.17768 0.86693 0.46595
 O246 O 0.13150 0.81931 0.52481
 O247 O 0.17464 0.86489 0.52818
 O248 O 0.13290 0.82276 0.46253
 O249 O 0.17108 0.78525 0.46210
 O250 O 0.21369 0.82827 0.52818
 O251 O 0.17004 0.78216 0.52494
 O252 O 0.21639 0.82995 0.46537
 Cu253 Cu 0.15033 0.84715 0.49536
 Cu254 Cu 0.19673 0.80263 0.49509
 C255 C 0.20500 0.85678 0.45604
 C256 C 0.14272 0.79260 0.53461
 C257 C 0.20135 0.85415 0.53899
 C258 C 0.14444 0.79672 0.45155
 O259 O 0.86826 0.18005 0.53326
 O260 O 0.82054 0.13279 0.47543
 O261 O 0.86521 0.17680 0.47107
 O262 O 0.82461 0.13487 0.53761
 O263 O 0.78585 0.17177 0.53833
 O264 O 0.82717 0.21445 0.47131
 O265 O 0.78198 0.16992 0.47558
 O266 O 0.83003 0.21750 0.53408
 Cu267 Cu 0.84849 0.15242 0.50432
 Cu268 Cu 0.80235 0.19721 0.50491
 C269 C 0.85753 0.20691 0.54313
 C270 C 0.79311 0.14310 0.46596
 C271 C 0.85347 0.20283 0.46019
 C272 C 0.79818 0.14576 0.54888
 O273 O 0.46776 0.86814 0.82107
 O274 O 0.52828 0.82237 0.86734
 O275 O 0.53044 0.86778 0.82403
 O276 O 0.46555 0.82501 0.86662
 O277 O 0.46551 0.78694 0.82932
 O278 O 0.53084 0.83067 0.78577
 O279 O 0.52882 0.78473 0.82960
 O280 O 0.46761 0.83058 0.78326
 Cu281 Cu 0.49799 0.84956 0.84853
 Cu282 Cu 0.49823 0.80439 0.80315
 C283 C 0.45775 0.85735 0.79420
 C284 C 0.53849 0.79566 0.85654
 C285 C 0.54128 0.85697 0.79755
 C286 C 0.45483 0.79863 0.85565
 O287 O 0.53542 0.17524 0.13126
 O288 O 0.47389 0.13335 0.17916
 O289 O 0.47284 0.17822 0.13479
 O290 O 0.53657 0.13192 0.17618
 O291 O 0.54013 0.16950 0.21384
 O292 O 0.47578 0.21607 0.17218
 O293 O 0.47694 0.17065 0.21712
 O294 O 0.53896 0.21330 0.16844
 Cu295 Cu 0.50420 0.15093 0.15163
 Cu296 Cu 0.50813 0.19624 0.19671
 C297 C 0.54747 0.20134 0.14150
 C298 C 0.46551 0.14433 0.20645
 C299 C 0.46398 0.20523 0.14601
 C300 C 0.54902 0.14272 0.20204
 O301 O 0.46441 0.17553 0.86875
 O302 O 0.52588 0.13358 0.82080
 O303 O 0.52700 0.17834 0.86522
 O304 O 0.46319 0.13232 0.82379
 O305 O 0.45968 0.16999 0.78618
 O306 O 0.52410 0.21629 0.82786
 O307 O 0.52287 0.17097 0.78289
 O308 O 0.46091 0.21368 0.83162
 Cu309 Cu 0.49560 0.15117 0.84836
 Cu310 Cu 0.49172 0.19661 0.80332
 C311 C 0.45239 0.20168 0.85854
 C312 C 0.53427 0.14458 0.79352
 C313 C 0.53589 0.20535 0.85402
 C314 C 0.45076 0.14321 0.79796
 O315 O 0.47150 0.82244 0.13205
 O316 O 0.53188 0.86829 0.17824
 O317 O 0.53423 0.82518 0.13274
 O318 O 0.46921 0.86781 0.17534
 O319 O 0.46896 0.83068 0.21362
 O320 O 0.53442 0.78709 0.17006
 O321 O 0.53219 0.83071 0.21609
 O322 O 0.47112 0.78477 0.16981
 Cu323 Cu 0.50170 0.84967 0.15082
 Cu324 Cu 0.50166 0.80447 0.19623
 C325 C 0.46139 0.79571 0.14287
 C326 C 0.54195 0.85751 0.20512
 C327 C 0.54504 0.79882 0.14373
 C328 C 0.45843 0.85696 0.20184
 O329 O 0.82755 0.46954 0.86994
 O330 O 0.87260 0.52988 0.82337
 O331 O 0.82777 0.53191 0.86793
 O332 O 0.87281 0.46795 0.82637
 O333 O 0.83535 0.46629 0.78803
 O334 O 0.78973 0.53074 0.83016
 O335 O 0.83502 0.52872 0.78512
 O336 O 0.78964 0.46785 0.83205
 Cu337 Cu 0.85389 0.50005 0.85075
 Cu338 Cu 0.80853 0.49834 0.80503
 C339 C 0.80102 0.45850 0.85899
 C340 C 0.86187 0.53904 0.79615
 C341 C 0.80103 0.54193 0.85643
 C342 C 0.86204 0.45655 0.80006
 O343 O 0.12790 0.53038 0.17715
 O344 O 0.17268 0.46989 0.13052
 O345 O 0.12760 0.46844 0.17428
 O346 O 0.17256 0.53225 0.13243
 O347 O 0.21074 0.53100 0.17006
 O348 O 0.16520 0.46670 0.21249
 O349 O 0.21074 0.46811 0.16827
 O350 O 0.16561 0.52914 0.21526
 Cu351 Cu 0.14647 0.50048 0.14976
 Cu352 Cu 0.19199 0.49867 0.19532
 C353 C 0.13874 0.53953 0.20430
 C354 C 0.19924 0.45879 0.14140
 C355 C 0.13846 0.45703 0.20056
 C356 C 0.19935 0.54220 0.14381
 O357 O 0.86021 0.46975 0.18193
 O358 O 0.81572 0.52990 0.13469
 O359 O 0.86046 0.53184 0.17895
 O360 O 0.81588 0.46817 0.13675
 O361 O 0.77724 0.46946 0.17386
 O362 O 0.82253 0.53367 0.21675
 O363 O 0.77723 0.53174 0.17196
 O364 O 0.82220 0.47095 0.21967
 Cu365 Cu 0.84194 0.49968 0.15441
 Cu366 Cu 0.79597 0.50152 0.19947
 C367 C 0.84914 0.46053 0.20895
 C368 C 0.78878 0.54059 0.14496
 C369 C 0.84934 0.54337 0.20502
 C370 C 0.78870 0.45865 0.14751
 O371 O 0.18488 0.52912 0.86569
 O372 O 0.14038 0.46883 0.81882
 O373 O 0.18464 0.46738 0.86409
 O374 O 0.14020 0.53093 0.82138
 O375 O 0.17818 0.53245 0.78361
 O376 O 0.22334 0.46836 0.82703
 O377 O 0.17845 0.46970 0.78113
 O378 O 0.22342 0.53065 0.82846
 Cu379 Cu 0.15865 0.49886 0.84616
 Cu380 Cu 0.20469 0.50032 0.80115
 C381 C 0.21185 0.53969 0.85539
 C382 C 0.15148 0.45943 0.79188
 C383 C 0.21183 0.45773 0.85344
 C384 C 0.15137 0.54229 0.79525
 C385 C 0.25917 0.38616 0.05744
 C386 C 0.24657 0.39993 0.07977
 C387 C 0.23097 0.41857 0.10363
 C388 C 0.21690 0.43620 0.12199
 C389 C 0.73134 0.60859 0.05570
 C390 C 0.74205 0.59509 0.07915
 C391 C 0.75664 0.57786 0.10464
 C392 C 0.77064 0.56169 0.12438
 C393 C 0.74070 0.38595 0.94277
 C394 C 0.75339 0.39972 0.92048
 C395 C 0.76910 0.41835 0.89668
 C396 C 0.78326 0.43596 0.87835
 C397 C 0.26918 0.60807 0.94424
 C398 C 0.25852 0.59447 0.92086
 C399 C 0.24396 0.57713 0.89547
 C400 C 0.22998 0.56087 0.87583
 C401 C 0.05458 0.26788 0.39054
 C402 C 0.07791 0.25642 0.40394
 C403 C 0.10301 0.24078 0.42113
 C404 C 0.12237 0.22586 0.43709
 C405 C 0.05832 0.73178 0.60653
 C406 C 0.08072 0.74325 0.59172
 C407 C 0.10471 0.75884 0.57308
 C408 C 0.12321 0.77363 0.55609
 C409 C 0.94189 0.73251 0.39337
 C410 C 0.91939 0.74397 0.40804
 C411 C 0.89524 0.75955 0.42651
 C412 C 0.87662 0.77433 0.44338
 C413 C 0.94587 0.26735 0.61048
 C414 C 0.92251 0.25605 0.59703
 C415 C 0.89736 0.24062 0.57978
 C416 C 0.87794 0.22590 0.56376
 C417 C 0.39576 0.05851 0.26681
 C418 C 0.40972 0.08154 0.25583
 C419 C 0.42752 0.10631 0.24064
 C420 C 0.44408 0.12518 0.22588
 C421 C 0.60386 0.05872 0.73301
 C422 C 0.58993 0.08175 0.74404
 C423 C 0.57218 0.10654 0.75928
 C424 C 0.55566 0.12542 0.77407
 C425 C 0.38670 0.94209 0.73334
 C426 C 0.40093 0.91955 0.74498
 C427 C 0.41915 0.89543 0.76069
 C428 C 0.43606 0.87687 0.77546
 C429 C 0.61265 0.94242 0.26583
 C430 C 0.59853 0.91984 0.25424
 C431 C 0.58041 0.89566 0.23857
 C432 C 0.56358 0.87706 0.22383
 C433 C 0.38262 0.25760 0.94736
 C434 C 0.39532 0.24583 0.92399
 C435 C 0.41290 0.23144 0.89863
 C436 C 0.42998 0.21837 0.87901
 C437 C 0.60951 0.73552 0.94200
 C438 C 0.59534 0.74700 0.91927
 C439 C 0.57713 0.76251 0.89495
 C440 C 0.56021 0.77712 0.87623
 C441 C 0.39058 0.73543 0.05747
 C442 C 0.40472 0.74695 0.08019
 C443 C 0.42287 0.76250 0.10449
 C444 C 0.43974 0.77713 0.12319
 C445 C 0.61724 0.25730 0.05269
 C446 C 0.60454 0.24551 0.07606
 C447 C 0.58696 0.23110 0.10142
 C448 C 0.56988 0.21802 0.12103
 C449 C 0.26604 0.05459 0.60380
 C450 C 0.25515 0.07754 0.58961
 C451 C 0.24013 0.10232 0.57169
 C452 C 0.22566 0.12154 0.55527
 C453 C 0.73349 0.05676 0.39596
 C454 C 0.74449 0.07952 0.41030
 C455 C 0.75963 0.10406 0.42840
 C456 C 0.77418 0.12306 0.44495
 C457 C 0.73373 0.94399 0.61205
 C458 C 0.74531 0.92126 0.59812
 C459 C 0.76088 0.89669 0.58041
 C460 C 0.77556 0.87761 0.56405
 C461 C 0.26556 0.94355 0.38722
 C462 C 0.25394 0.92078 0.40107
 C463 C 0.23835 0.89618 0.41872
 C464 C 0.22368 0.87707 0.43506
 C465 C 0.06414 0.39037 0.73245
 C466 C 0.08759 0.40402 0.74328
 C467 C 0.11270 0.42163 0.75834
 C468 C 0.13184 0.43810 0.77289
 C469 C 0.05250 0.60845 0.26577
 C470 C 0.07544 0.59471 0.25404
 C471 C 0.10009 0.57711 0.23825
 C472 C 0.11902 0.56072 0.22334
 C473 C 0.93646 0.39148 0.26865
 C474 C 0.91302 0.40516 0.25778
 C475 C 0.88791 0.42278 0.24268
 C476 C 0.86877 0.43924 0.22805
 C477 C 0.94826 0.60767 0.73458
 C478 C 0.92532 0.59399 0.74638
 C479 C 0.90066 0.57647 0.76221
 C480 C 0.88167 0.56015 0.77712
 C481 C 0.73996 0.61557 0.93882
 C482 C 0.75255 0.60192 0.91633
 C483 C 0.76841 0.58311 0.89263
 C484 C 0.78284 0.56515 0.87474
 C485 C 0.27011 0.38943 0.94207
 C486 C 0.25948 0.40254 0.91828
 C487 C 0.24469 0.41971 0.89271
 C488 C 0.23042 0.43608 0.87323
 C489 C 0.26036 0.61552 0.06107
 C490 C 0.24778 0.60195 0.08362
 C491 C 0.23193 0.58323 0.10741
 C492 C 0.21752 0.56535 0.12538
 C493 C 0.73002 0.38991 0.05963
 C494 C 0.74079 0.40316 0.08325
 C495 C 0.75570 0.42046 0.10862
 C496 C 0.77006 0.43692 0.12792
 C497 C 0.94111 0.73889 0.61903
 C498 C 0.91756 0.75090 0.60650
 C499 C 0.89255 0.76599 0.58867
 C500 C 0.87374 0.77978 0.57109
 C501 C 0.93679 0.26054 0.38508
 C502 C 0.91399 0.24856 0.39885
 C503 C 0.88986 0.23360 0.41787
 C504 C 0.87174 0.22000 0.43622
 C505 C 0.06364 0.25960 0.61595
 C506 C 0.08641 0.24759 0.60213
 C507 C 0.11047 0.23262 0.58303
 C508 C 0.12854 0.21904 0.56460
 C509 C 0.05764 0.73878 0.38082
 C510 C 0.08134 0.75065 0.39317
 C511 C 0.10651 0.76561 0.41085
 C512 C 0.12544 0.77931 0.42832
 C513 C 0.61257 0.94359 0.74003
 C514 C 0.59965 0.92029 0.75177
 C515 C 0.58171 0.89531 0.76653
 C516 C 0.56428 0.87630 0.78012
 C517 C 0.38702 0.94343 0.25950
 C518 C 0.39996 0.92016 0.24772
 C519 C 0.41793 0.89522 0.23291
 C520 C 0.43539 0.87625 0.21929
 C521 C 0.62182 0.05711 0.25948
 C522 C 0.60869 0.08008 0.24734
 C523 C 0.59023 0.10449 0.23227
 C524 C 0.57235 0.12316 0.21877
 C525 C 0.37756 0.05822 0.74033
 C526 C 0.39084 0.08102 0.75255
 C527 C 0.40941 0.10525 0.76769
 C528 C 0.42737 0.12378 0.78122
 C529 C 0.61736 0.74180 0.05746
 C530 C 0.60424 0.75342 0.08076
 C531 C 0.58599 0.76804 0.10567
 C532 C 0.56829 0.78151 0.12455
 C533 C 0.39103 0.26633 0.06261
 C534 C 0.40545 0.25491 0.08530
 C535 C 0.42414 0.23918 0.10928
 C536 C 0.44154 0.22427 0.12741
 C537 C 0.60889 0.26617 0.93744
 C538 C 0.59447 0.25479 0.91475
 C539 C 0.57577 0.23913 0.89077
 C540 C 0.55835 0.22429 0.87263
 C541 C 0.38269 0.74154 0.94200
 C542 C 0.39576 0.75315 0.91866
 C543 C 0.41397 0.76778 0.89373
 C544 C 0.43163 0.78127 0.87482
 C545 C 0.74161 0.94041 0.38702
 C546 C 0.75330 0.91730 0.40028
 C547 C 0.76790 0.89261 0.41871
 C548 C 0.78125 0.87390 0.43661
 C549 C 0.25792 0.93967 0.61194
 C550 C 0.24631 0.91653 0.59872
 C551 C 0.23176 0.89184 0.58032
 C552 C 0.21841 0.87313 0.56246
 C553 C 0.25887 0.05999 0.37857
 C554 C 0.24689 0.08306 0.39161
 C555 C 0.23204 0.10765 0.40992
 C556 C 0.21862 0.12627 0.42783
 C557 C 0.74077 0.06035 0.62131
 C558 C 0.75282 0.08345 0.60840
 C559 C 0.76776 0.10810 0.59024
 C560 C 0.78125 0.12678 0.57244
 C561 C 0.93614 0.61580 0.26121
 C562 C 0.91269 0.60260 0.24979
 C563 C 0.88772 0.58426 0.23532
 C564 C 0.86877 0.56654 0.22201
 C565 C 0.94806 0.38419 0.74230
 C566 C 0.92508 0.39750 0.75452
 C567 C 0.90049 0.41584 0.76958
 C568 C 0.88164 0.43350 0.78312
 C569 C 0.06464 0.61476 0.73875
 C570 C 0.08810 0.60154 0.75017
 C571 C 0.11306 0.58317 0.76469
 C572 C 0.13200 0.56544 0.77809
 C573 C 0.05252 0.38495 0.25870
 C574 C 0.07549 0.39818 0.24642
 C575 C 0.10007 0.41644 0.23125
 C576 C 0.11889 0.43404 0.21762
   
