data_POSCAR
  _audit_creation_date              2014-09-24
  _audit_creation_method            'ToBaCCo'
  _symmetry_space_group_name_H-M    'P1'
  _symmetry_Int_Tables_number       1
  _symmetry_cell_setting            triclinic
  loop_
  _symmetry_equiv_pos_as_xyz
 x,y,z
_cell_length_a 27.7233
_cell_length_b 28.1219
_cell_length_c 27.2980
_cell_angle_alpha 90.350400
_cell_angle_beta 88.908800
_cell_angle_gamma 91.404300
loop_
  _atom_site_label
  _atom_site_type_symbol
  _atom_site_fract_x
  _atom_site_fract_y
  _atom_site_fract_z
N1 N 0.21041 0.20302 0.19015
 N2 N -0.21950 0.79476 0.20454
 N3 N -0.23270 0.23359 -0.23553
 N4 N 0.21686 0.77958 -0.22163
 N5 N 0.20868 1.21506 0.80201
 N6 N 0.80422 0.78582 0.79888
 N7 N 0.22631 0.77773 1.22774
 N8 N 0.78741 1.20936 1.22688
 O9 O 0.54679 0.95411 0.89986
 O10 O 0.45461 0.97970 1.10063
 O11 O 0.59540 0.97337 1.03080
 O12 O 0.43792 0.92095 0.96027
 O13 O 0.53152 0.94528 1.06649
 O14 O 0.45594 0.95568 0.89312
 O15 O 0.44411 0.93200 1.04316
 O16 O 0.60102 0.99228 0.94368
 C17 C 0.58935 0.95951 0.91384
 C18 C 0.43566 0.94197 1.08651
 C19 C 0.57503 0.94186 1.05631
 C20 C 0.43767 0.92117 0.91528
 O21 O 0.45794 1.04672 0.90097
 O22 O 0.53831 1.02281 1.11483
 O23 O 0.56440 1.07962 0.96544
 O24 O 0.41019 1.02410 1.03598
 O25 O 0.47486 1.06033 1.06314
 O26 O 0.54912 1.04666 0.89642
 O27 O 0.40282 1.01064 0.94773
 O28 O 0.56234 1.06189 1.05044
 Co29 Co 0.50249 1.00050 0.90627
 Co30 Co 0.50465 1.00317 1.06180
 Co31 Co 0.57411 1.02428 0.99678
 Co32 Co 0.42958 0.97410 0.99639
 O33 O 0.50082 0.99878 0.98726
 C34 C 0.41531 1.04251 0.91694
 C35 C 0.56892 1.05286 1.09515
 C36 C 0.56434 1.08158 0.92029
 C37 C 0.43036 1.05985 1.05605
 O38 O 0.04391 0.45714 0.09725
 O39 O 0.01837 0.54435 -0.10162
 O40 O 0.02325 0.40674 -0.03477
 O41 O 0.07761 0.56266 0.03803
 O42 O 0.05312 0.46915 -0.06908
 O43 O 0.04140 0.54683 0.10540
 O44 O 0.06664 0.55590 -0.04510
 O45 O 0.00601 0.40290 0.05281
 C46 C 0.03883 0.41509 0.08237
 C47 C 0.05634 0.56355 -0.08810
 C48 C 0.05599 0.42622 -0.05998
 C49 C 0.07665 0.56456 0.08302
 O50 O -0.05068 0.54373 0.09928
 O51 O -0.02586 0.46258 -0.11540
 O52 O -0.08341 0.43793 0.03575
 O53 O -0.02633 0.58991 -0.03556
 O54 O -0.06351 0.52617 -0.06274
 O55 O -0.04923 0.45369 0.10348
 O56 O -0.01352 0.59758 0.05268
 O57 O -0.06666 0.43940 -0.05073
 Co58 Co -0.00342 0.50026 0.09259
 Co59 Co -0.00569 0.49611 -0.06272
 Co60 Co -0.02772 0.42844 0.00158
 Co61 Co 0.02385 0.57080 0.00293
 O62 O -0.00165 0.50080 0.01152
 C63 C -0.04592 0.58564 0.08406
 C64 C -0.05754 0.43347 -0.09604
 C65 C -0.08360 0.43548 0.08089
 C66 C -0.06235 0.57033 -0.05593
 O67 O 1.09084 0.05237 0.45802
 O68 O 0.89468 0.01497 0.55254
 O69 O 0.96227 0.02772 0.40926
 O70 O 1.03113 0.08049 0.56916
 O71 O 0.92642 0.05240 0.47437
 O72 O 1.09814 0.04957 0.55011
 O73 O 0.94960 0.06549 0.56333
 O74 O 1.04869 0.01307 0.40313
 C75 C 1.07834 0.04601 0.41466
 C76 C 0.90714 0.05324 0.57136
 C77 C 0.93599 0.05736 0.43013
 C78 C 1.07543 0.08188 0.57031
 O79 O 1.09356 -0.04132 0.54785
 O80 O 0.88147 -0.02725 0.46800
 O81 O 1.03063 -0.07583 0.44003
 O82 O 0.95989 -0.02678 0.59765
 O83 O 0.93418 -0.06343 0.53223
 O84 O 1.09744 -0.03970 0.45559
 O85 O 1.04663 -0.00906 0.60437
 O86 O 0.94618 -0.06219 0.44316
 Co87 Co 1.08635 0.00511 0.50290
 Co88 Co 0.93335 -0.00571 0.50175
 Co89 Co 0.99764 -0.02192 0.43066
 Co90 Co 0.99721 0.02546 0.57766
 O91 O 1.00660 0.00258 0.50514
 C92 C 1.07876 -0.03821 0.59136
 C93 C 0.90193 -0.05507 0.43637
 C94 C 1.07520 -0.07499 0.43887
 C95 C 0.94099 -0.06318 0.57750
 C96 C 1.14599 0.12389 0.30729
 C97 C 1.14752 0.17363 0.30932
 C98 C 1.17007 0.19961 0.27153
 C99 C 1.19133 0.17610 0.23130
 C100 C 1.19050 0.12611 0.23004
 C101 C 1.16795 0.10017 0.26787
 C102 C 1.12140 0.09712 0.34527
 C103 C 1.10117 0.07418 0.37694
 H104 H 1.13075 0.19230 0.33975
 H105 H 1.17033 0.23809 0.27313
 H106 H 1.20605 0.10728 0.19909
 H107 H 1.16697 0.06166 0.26600
 C108 C 0.83646 -0.13259 0.32914
 C109 C 0.78665 -0.14086 0.32547
 C110 C 0.76824 -0.16570 0.28503
 C111 C 0.79951 -0.18239 0.24790
 C112 C 0.84949 -0.17436 0.25234
 C113 C 0.86778 -0.14970 0.29268
 C114 C 0.85614 -0.10530 0.36912
 C115 C 0.87543 -0.08229 0.40090
 H116 H 0.76209 -0.12767 0.35344
 H117 H 0.72963 -0.17148 0.28229
 H118 H 0.87428 -0.18618 0.22393
 H119 H 0.90637 -0.14329 0.29505
 C120 C 0.82505 0.13955 0.65705
 C121 C 0.80209 0.12130 0.69919
 C122 C 0.78189 0.15208 0.73378
 C123 C 0.78437 0.20162 0.72665
 C124 C 0.80639 0.21962 0.68361
 C125 C 0.82670 0.18872 0.64902
 C126 C 0.85104 0.10824 0.62479
 C127 C 0.87521 0.08249 0.59948
 H128 H 0.80118 0.08338 0.70608
 H129 H 0.76583 0.13731 0.76697
 H130 H 0.80876 0.25761 0.67748
 H131 H 0.84486 0.20325 0.61675
 C132 C 1.14464 -0.12566 0.68581
 C133 C 1.14599 -0.17415 0.67413
 C134 C 1.17076 -0.20511 0.70391
 C135 C 1.19450 -0.18785 0.74563
 C136 C 1.19338 -0.13900 0.75684
 C137 C 1.16862 -0.10806 0.72700
 C138 C 1.11980 -0.09393 0.65457
 C139 C 1.10007 -0.06797 0.62684
 H140 H 1.12780 -0.18803 0.64210
 H141 H 1.17113 -0.24264 0.69483
 H142 H 1.21080 -0.12507 0.78925
 H143 H 1.16795 -0.07054 0.73618
 C144 C 0.33563 1.15110 1.11771
 C145 C 0.33407 1.15507 1.16886
 C146 C 0.29370 1.17395 1.19259
 C147 C 0.25431 1.18884 1.16544
 C148 C 0.25708 1.18667 1.11396
 C149 C 0.29748 1.16774 1.09026
 C150 C 0.37244 1.12341 1.09430
 C151 C 0.40067 1.09643 1.07590
 H152 H 0.36311 1.14169 1.19049
 H153 H 0.29243 1.17555 1.23224
 H154 H 0.22704 1.19748 1.09222
 H155 H 0.29795 1.16410 1.05072
 C156 C 0.34501 0.83162 0.84486
 C157 C 0.34041 0.83398 0.79397
 C158 C 0.29934 0.81457 0.77176
 C159 C 0.26227 0.79291 0.80026
 C160 C 0.26831 0.78867 0.85107
 C161 C 0.30942 0.80800 0.87320
 C162 C 0.38182 0.85963 0.86872
 C163 C 0.40941 0.88616 0.88959
 H164 H 0.36742 0.85274 0.77176
 H165 H 0.29544 0.81814 0.73257
 H166 H 0.24006 0.77276 0.87396
 H167 H 0.31225 0.80665 0.91270
 C168 C 0.66792 0.85845 1.12624
 C169 C 0.70325 0.88677 1.14893
 C170 C 0.73981 0.86589 1.17496
 C171 C 0.74155 0.81619 1.17890
 C172 C 0.70586 0.78779 1.15612
 C173 C 0.66911 0.80885 1.12988
 C174 C 0.63136 0.88171 1.09924
 C175 C 0.60359 0.90636 1.07827
 H176 H 0.70275 0.92519 1.14617
 H177 H 0.76727 0.88854 1.19139
 H178 H 0.70661 0.74941 1.15867
 H179 H 0.64193 0.78662 1.11240
 C180 C 0.64761 1.17908 0.84714
 C181 C 0.64483 1.18234 0.79612
 C182 C 0.68304 1.20307 0.76904
 C183 C 0.72455 1.22036 0.79272
 C184 C 0.72580 1.21935 0.84419
 C185 C 0.68755 1.19876 0.87119
 C186 C 0.61420 1.14860 0.87371
 C187 C 0.58949 1.11966 0.89549
 H188 H 0.61439 1.16660 0.77709
 H189 H 0.68143 1.20349 0.72945
 H190 H 0.75760 1.23179 0.86329
 H191 H 0.69041 1.19571 0.91058
 C192 C 0.12496 0.31229 0.13336
 C193 C 0.10344 0.26883 0.14716
 C194 C 0.13161 0.23281 0.16533
 C195 C 0.18168 0.23993 0.17006
 C196 C 0.20319 0.28346 0.15555
 C197 C 0.17489 0.31957 0.13731
 C198 C 0.09541 0.34926 0.11541
 C199 C 0.06978 0.37960 0.10044
 H200 H 0.06486 0.26284 0.14400
 H201 H 0.11440 0.19930 0.17572
 H202 H 0.24169 0.28956 0.15902
 H203 H 0.19182 0.35314 0.12660
 C204 C -0.14198 0.34224 -0.17541
 C205 C -0.19135 0.34985 -0.18050
 C206 C -0.22091 0.31482 -0.20195
 C207 C -0.20141 0.27176 -0.21838
 C208 C -0.15151 0.26503 -0.21430
 C209 C -0.12204 0.30007 -0.19296
 C210 C -0.11230 0.37592 -0.14907
 C211 C -0.08729 0.40284 -0.12556
 H212 H -0.20718 0.38229 -0.16679
 H213 H -0.25922 0.32069 -0.20468
 H214 H -0.13565 0.23193 -0.22591
 H215 H -0.08396 0.29366 -0.18883
 C216 C 0.13582 0.66102 -0.16565
 C217 C 0.18518 0.65675 -0.17610
 C218 C 0.21179 0.69546 -0.19536
 C219 C 0.18924 0.73876 -0.20405
 C220 C 0.13951 0.74234 -0.19399
 C221 C 0.11304 0.70371 -0.17501
 C222 C 0.10892 0.62360 -0.14127
 C223 C 0.08522 0.59471 -0.11839
 H224 H 0.20321 0.62394 -0.16846
 H225 H 0.25002 0.69196 -0.20294
 H226 H 0.12137 0.77546 -0.19964
 H227 H 0.07500 0.70756 -0.16642
 C228 C -0.13596 0.68504 0.14076
 C229 C -0.14812 0.68385 0.19074
 C230 C -0.17691 0.71908 0.21138
 C231 C -0.19381 0.75594 0.18225
 C232 C -0.18232 0.75626 0.13183
 C233 C -0.15354 0.72098 0.11123
 C234 C -0.10430 0.65017 0.12017
 C235 C -0.07753 0.62091 0.10341
 H236 H -0.13471 0.65613 0.21389
 H237 H -0.18535 0.71823 0.25026
 H238 H -0.19434 0.78465 0.10878
 H239 H -0.14426 0.72224 0.07251
 C240 C 1.14560 0.15795 0.67475
 C241 C 1.16388 0.12796 0.71016
 C242 C 1.18543 0.14688 0.75189
 C243 C 1.18934 0.19658 0.75935
 C244 C 1.17149 0.22652 0.72268
 C245 C 1.14968 0.20730 0.68084
 C246 C 1.12075 0.13672 0.63395
 C247 C 1.09985 0.11427 0.60276
 H248 H 1.16051 0.08967 0.70603
 H249 H 1.19736 0.12242 0.77939
 H250 H 1.17452 0.26483 0.72645
 H251 H 1.13560 0.23086 0.65361
 C252 C 0.87902 -0.15739 0.67388
 C253 C 0.82857 -0.16159 0.67459
 C254 C 0.80412 -0.18231 0.71467
 C255 C 0.82978 -0.19905 0.75474
 C256 C 0.88053 -0.19671 0.75285
 C257 C 0.90498 -0.17582 0.71273
 C258 C 0.90314 -0.12844 0.63694
 C259 C 0.92158 -0.10068 0.60818
 H260 H 0.80799 -0.14700 0.64512
 H261 H 0.76505 -0.18380 0.71534
 H262 H 0.90105 -0.20887 0.78350
 H263 H 0.94397 -0.17219 0.71302
 C264 C 1.15292 -0.15687 0.34538
 C265 C 1.17657 -0.12928 0.30949
 C266 C 1.20194 -0.15086 0.27120
 C267 C 1.20435 -0.20091 0.26784
 C268 C 1.18131 -0.22833 0.30523
 C269 C 1.15570 -0.20644 0.34356
 C270 C 1.12431 -0.13318 0.38217
 C271 C 1.10105 -0.10901 0.41001
 H272 H 1.17434 -0.09085 0.31036
 H273 H 1.21773 -0.12829 0.24287
 H274 H 1.18292 -0.26676 0.30452
 H275 H 1.13756 -0.22814 0.37126
 C276 C 0.86473 0.14228 0.33752
 C277 C 0.84178 0.11535 0.30120
 C278 C 0.81587 0.13749 0.26487
 C279 C 0.81206 0.18752 0.26387
 C280 C 0.83531 0.21433 0.30106
 C281 C 0.86137 0.19186 0.33752
 C282 C 0.89181 0.11776 0.37379
 C283 C 0.91312 0.09272 0.40142
 H284 H 0.84437 0.07695 0.30059
 H285 H 0.80007 0.11538 0.23649
 H286 H 0.83278 0.25268 0.30223
 H287 H 0.87889 0.21311 0.36556
 C288 C 0.14291 0.33089 -0.12693
 C289 C 0.19278 0.32531 -0.12376
 C290 C 0.21488 0.28688 -0.14744
 C291 C 0.18739 0.25332 -0.17479
 C292 C 0.13706 0.25972 -0.17712
 C293 C 0.11533 0.29799 -0.15365
 C294 C 0.11831 0.36871 -0.10173
 C295 C 0.09261 0.39728 -0.08184
 H296 H 0.21450 0.35047 -0.10296
 H297 H 0.25362 0.28384 -0.14506
 H298 H 0.11402 0.23424 -0.19597
 H299 H 0.07658 0.30153 -0.15579
 C300 C -0.15767 0.33292 0.15688
 C301 C -0.20752 0.32572 0.16266
 C302 C -0.22588 0.28541 0.18728
 C303 C -0.19465 0.25124 0.20636
 C304 C -0.14440 0.26002 0.20121
 C305 C -0.12631 0.30029 0.17677
 C306 C -0.13749 0.37232 0.12911
 C307 C -0.11584 0.40295 0.10631
 H308 H -0.23219 0.35084 0.14760
 H309 H -0.26465 0.28072 0.19122
 H310 H -0.11887 0.23453 0.21391
 H311 H -0.08760 0.30536 0.17230
 C312 C -0.14625 0.66573 -0.12341
 C313 C -0.14864 0.66449 -0.17463
 C314 C -0.16585 0.70347 -0.20009
 C315 C -0.18074 0.74439 -0.17468
 C316 C -0.17927 0.74487 -0.12314
 C317 C -0.16207 0.70587 -0.09775
 C318 C -0.12170 0.62887 -0.09794
 C319 C -0.09717 0.60033 -0.07770
 H320 H -0.13583 0.63396 -0.19500
 H321 H -0.16685 0.70207 -0.23970
 H322 H -0.18995 0.77606 -0.10260
 H323 H -0.15959 0.70769 -0.05821
 C324 C 0.15952 0.66023 0.15777
 C325 C 0.20991 0.66429 0.15849
 C326 C 0.23232 0.70285 0.18254
 C327 C 0.20462 0.73821 0.20618
 C328 C 0.15378 0.73288 0.20540
 C329 C 0.13171 0.69441 0.18159
 C330 C 0.13513 0.62288 0.13086
 C331 C 0.11063 0.59437 0.10864
 H332 H 0.23183 0.63804 0.14007
 H333 H 0.27136 0.70504 0.18280
 H334 H 0.13080 0.75961 0.22146
 H335 H 0.09265 0.69193 0.18080
 C336 C 0.31745 1.13464 0.86426
 C337 C 0.31804 1.14331 0.81391
 C338 C 0.28326 1.17189 0.79353
 C339 C 0.24671 1.19231 0.82310
 C340 C 0.24810 1.18514 0.87430
 C341 C 0.28304 1.15636 0.89455
 C342 C 0.35132 1.10215 0.88416
 C343 C 0.38006 1.07465 0.89956
 H344 H 0.34481 1.12711 0.79014
 H345 H 0.28426 1.17738 0.75429
 H346 H 0.22046 1.19933 0.89840
 H347 H 0.28232 1.14997 0.93367
 C348 C 0.34249 0.85400 1.16197
 C349 C 0.33922 0.85030 1.21296
 C350 C 0.30188 0.82309 1.23487
 C351 C 0.26666 0.79934 1.20614
 C352 C 0.27195 0.80187 1.15461
 C353 C 0.30936 0.82899 1.13293
 C354 C 0.37775 0.88544 1.13887
 C355 C 0.40534 0.91173 1.11678
 H356 H 0.36482 0.86933 1.23583
 H357 H 0.29983 0.82133 1.27448
 H358 H 0.24545 0.78534 1.13092
 H359 H 0.31145 0.83176 1.09336
 C360 C 0.66943 1.13427 1.16622
 C361 C 0.70142 1.16041 1.13602
 C362 C 0.73982 1.18641 1.15616
 C363 C 0.74721 1.18680 1.20727
 C364 C 0.71370 1.16116 1.23737
 C365 C 0.67531 1.13510 1.21698
 C366 C 0.63208 1.10517 1.14429
 C367 C 0.60233 1.08096 1.12340
 H368 H 0.69739 1.15976 1.09661
 H369 H 0.76511 1.20436 1.13140
 H370 H 0.71746 1.16115 1.27679
 H371 H 0.65066 1.11507 1.24075
 C372 C 0.69396 0.87370 0.85790
 C373 C 0.68740 0.82413 0.85741
 C374 C 0.72360 0.79519 0.83811
 C375 C 0.76678 0.81553 0.81906
 C376 C 0.77307 0.86533 0.81989
 C377 C 0.73691 0.89417 0.83913
 C378 C 0.65680 0.90372 0.87762
 C379 C 0.62595 0.92917 0.89408
 H380 H 0.65431 0.80788 0.87184
 H381 H 0.71789 0.75697 0.83767
 H382 H 0.80619 0.88184 0.80589
 H383 H 0.74249 0.93244 0.83943
   
