data_POSCAR
  _audit_creation_date              2014-09-24
  _audit_creation_method            'ToBaCCo'
  _symmetry_space_group_name_H-M    'P1'
  _symmetry_Int_Tables_number       1
  _symmetry_cell_setting            triclinic
  loop_
  _symmetry_equiv_pos_as_xyz
 x,y,z
_cell_length_a 32.3117
_cell_length_b 32.2612
_cell_length_c 32.2205
_cell_angle_alpha 89.659800
_cell_angle_beta 90.365900
_cell_angle_gamma 89.777000
loop_
  _atom_site_label
  _atom_site_type_symbol
  _atom_site_fract_x
  _atom_site_fract_y
  _atom_site_fract_z
C1 C 0.24919 0.95443 -0.02830
 C2 C 0.26400 0.95351 0.01338
 C3 C 0.27472 0.99067 0.03284
 C4 C 0.26860 1.02979 0.01439
 C5 C 0.25380 1.03159 -0.02734
 C6 C 0.24543 0.99380 -0.04762
 H7 H 0.23944 0.99512 -0.08066
 H8 H 0.28312 0.98893 0.06546
 C9 C 0.74415 0.52794 0.51582
 C10 C 0.74437 0.52998 0.47211
 C11 C 0.73994 0.49293 0.44970
 C12 C 0.73573 0.45396 0.46941
 C13 C 0.73703 0.45256 0.51349
 C14 C 0.74112 0.48945 0.53548
 H15 H 0.74277 0.48801 0.56915
 H16 H 0.73980 0.49453 0.41609
 C17 C 0.74092 1.01144 0.95143
 C18 C 0.75218 0.96897 0.95246
 C19 C 0.75316 0.94862 0.99124
 C20 C 0.74586 0.96914 1.02915
 C21 C 0.73541 1.01190 1.02741
 C22 C 0.73302 1.03177 0.98881
 H23 H 0.72720 1.06493 0.98797
 H24 H 0.75794 0.91537 0.99152
 C25 C 0.24575 0.47246 0.53083
 C26 C 0.23849 0.51560 0.52928
 C27 C 0.23715 0.53541 0.49064
 C28 C 0.24266 0.51415 0.45327
 C29 C 0.25077 0.47086 0.45443
 C30 C 0.25072 0.45086 0.49342
 H31 H 0.25427 0.41745 0.49481
 H32 H 0.23326 0.56885 0.48963
 C33 C 0.95277 0.26429 -0.01522
 C34 C 0.95213 0.25007 0.02673
 C35 C 0.98998 0.24693 0.04857
 C36 C 1.02874 0.25491 0.03021
 C37 C 1.02894 0.26796 -0.01187
 C38 C 0.99141 0.27318 -0.03296
 H39 H 0.99300 0.28007 -0.06589
 H40 H 0.98872 0.24029 0.08152
 C41 C 0.53336 0.73963 0.53027
 C42 C 0.53179 0.73641 0.48661
 C43 C 0.49334 0.73364 0.46685
 C44 C 0.45605 0.73452 0.48859
 C45 C 0.45700 0.73817 0.53241
 C46 C 0.49595 0.73923 0.55237
 H47 H 0.49728 0.73978 0.58599
 H48 H 0.49226 0.73297 0.43316
 C49 C -0.02859 0.75926 0.04789
 C50 C 0.01555 0.75963 0.04986
 C51 C 0.03813 0.75341 0.01344
 C52 C 0.01966 0.74993 -0.02585
 C53 C -0.02372 0.75574 -0.02893
 C54 C -0.04674 0.75963 0.00770
 H55 H -0.07993 0.76352 0.00437
 H56 H 0.07166 0.75249 0.01589
 C57 C 0.46960 0.25680 0.54515
 C58 C 0.51360 0.25717 0.54612
 C59 C 0.53527 0.25167 0.50908
 C60 C 0.51544 0.24814 0.47071
 C61 C 0.47207 0.25309 0.46862
 C62 C 0.44993 0.25673 0.50589
 H63 H 0.41648 0.25913 0.50419
 H64 H 0.56885 0.25011 0.51018
 C65 C 0.96823 -0.01511 0.25522
 C66 C 0.96851 0.02847 0.24988
 C67 C 1.00692 0.04867 0.24740
 C68 C 1.04501 0.02708 0.24745
 C69 C 1.04402 -0.01703 0.24542
 C70 C 1.00571 -0.03662 0.25126
 H71 H 1.00496 -0.07022 0.25295
 H72 H 1.00713 0.08227 0.24578
 C73 C 0.54632 0.52843 0.74506
 C74 C 0.54629 0.48440 0.74374
 C75 C 0.50882 0.46333 0.74820
 C76 C 0.47103 0.48393 0.75193
 C77 C 0.47000 0.52746 0.74783
 C78 C 0.50767 0.54891 0.74497
 H79 H 0.50678 0.58248 0.74321
 H80 H 0.50912 0.42967 0.74918
 C81 C 1.03012 0.96984 0.74475
 C82 C 0.98780 0.96965 0.73420
 C83 C 0.96665 1.00727 0.73046
 C84 C 0.98529 1.04601 0.73767
 C85 C 1.02784 1.04626 0.75024
 C86 C 1.04940 1.00809 0.75206
 H87 H 1.08237 1.00813 0.75846
 H88 H 0.93352 1.00574 0.72513
 C89 C 0.52655 0.46836 0.24595
 C90 C 0.48297 0.47082 0.24561
 C91 C 0.46408 0.50976 0.24507
 C92 C 0.48668 0.54658 0.24705
 C93 C 0.53032 0.54443 0.25229
 C94 C 0.54938 0.50513 0.25012
 H95 H 0.58285 0.50299 0.25164
 H96 H 0.43055 0.51148 0.24284
 O97 O 0.27149 0.14375 0.17424
 O98 O 0.31740 0.13253 0.23536
 O99 O 0.16258 0.18656 0.24192
 O100 O 0.14547 0.24227 0.28011
 O101 O 0.20460 0.25150 0.12781
 O102 O 0.26278 0.29738 0.11529
 O103 O 0.26828 0.30952 0.33856
 O104 O 0.22139 0.24986 0.35175
 O105 O 0.37467 0.25080 0.28852
 O106 O 0.38360 0.20214 0.22735
 O107 O 0.32218 0.35518 0.23722
 O108 O 0.26154 0.36517 0.18300
 O109 O 0.26164 0.35804 0.28749
 O110 O 0.22044 0.37044 0.23042
 O111 O 0.37252 0.30618 0.23063
 O112 O 0.38631 0.25016 0.18692
 O113 O 0.32600 0.25585 0.33894
 O114 O 0.27779 0.20829 0.35628
 O115 O 0.26198 0.19378 0.12489
 O116 O 0.30688 0.24986 0.11182
 O117 O 0.15722 0.24310 0.17911
 O118 O 0.14637 0.29183 0.23589
 O119 O 0.21323 0.13853 0.23205
 O120 O 0.26990 0.12698 0.27701
 Zr121 Zr 0.26718 0.17470 0.23178
 O122 O 0.30486 0.21126 0.27057
 Zr123 Zr 0.19209 0.24466 0.23437
 O124 O 0.22733 0.28566 0.27104
 Zr125 Zr 0.26190 0.24837 0.15917
 O126 O 0.30159 0.28680 0.19344
 Zr127 Zr 0.26935 0.25159 0.30740
 O128 O 0.23124 0.20974 0.27376
 Zr129 Zr 0.33979 0.25074 0.23282
 O130 O 0.30448 0.21199 0.19372
 Zr131 Zr 0.26548 0.32281 0.23337
 O132 O 0.22512 0.28658 0.19649
 O133 O 0.22619 0.20800 0.19448
 O134 O 0.30634 0.29008 0.27170
 C135 C 0.26778 0.15616 0.13631
 C136 C 0.17546 0.14882 0.23858
 C137 C 0.16733 0.24774 0.14087
 C138 C 0.26443 0.34736 0.32572
 C139 C 0.36362 0.25405 0.32660
 C140 C 0.36028 0.34364 0.23459
 H141 H 0.32244 0.19299 0.28810
 H142 H 0.31796 0.30413 0.17426
 H143 H 0.20854 0.18970 0.17737
 H144 H 0.20845 0.30242 0.28828
 H145 H 0.20458 0.22498 0.34563
 H146 H 0.15603 0.25721 0.30466
 H147 H 0.37568 0.26621 0.16287
 H148 H 0.32940 0.23083 0.12071
 H149 H 0.27403 0.18064 0.34389
 H150 H 0.24943 0.13413 0.29859
 H151 H 0.28927 0.36750 0.17038
 H152 H 0.24171 0.31780 0.12412
 H153 H 0.33657 0.13984 0.21266
 H154 H 0.38217 0.18486 0.25278
 H155 H 0.15264 0.31143 0.21304
 H156 H 0.19557 0.35971 0.24456
 O157 O 0.74434 0.87391 0.20749
 O158 O 0.69742 0.88374 0.26616
 O159 O 0.85290 0.82991 0.27310
 O160 O 0.86900 0.77586 0.31642
 O161 O 0.81125 0.76385 0.16382
 O162 O 0.75190 0.71901 0.15035
 O163 O 0.74765 0.71070 0.37600
 O164 O 0.79749 0.76746 0.38524
 O165 O 0.64430 0.75781 0.32494
 O166 O 0.63252 0.81503 0.26617
 O167 O 0.69207 0.66132 0.27087
 O168 O 0.75443 0.64969 0.22188
 O169 O 0.75134 0.66119 0.32619
 O170 O 0.79412 0.64591 0.26990
 O171 O 0.64239 0.71073 0.26218
 O172 O 0.62738 0.76827 0.22366
 O173 O 0.69295 0.76709 0.37531
 O174 O 0.74472 0.81207 0.38951
 O175 O 0.75280 0.82322 0.15939
 O176 O 0.70885 0.76616 0.14528
 O177 O 0.85953 0.77166 0.21477
 O178 O 0.86943 0.72451 0.27078
 O179 O 0.80148 0.87779 0.26466
 O180 O 0.74547 0.88886 0.31012
 Zr181 Zr 0.74793 0.84187 0.26471
 O182 O 0.71085 0.80595 0.30440
 Zr183 Zr 0.82361 0.77165 0.26893
 O184 O 0.78851 0.73138 0.30651
 Zr185 Zr 0.75317 0.76787 0.19379
 O186 O 0.71354 0.72985 0.22880
 Zr187 Zr 0.74787 0.76700 0.34208
 O188 O 0.78526 0.80781 0.30709
 Zr189 Zr 0.67581 0.76554 0.26798
 O190 O 0.71043 0.80389 0.22757
 Zr191 Zr 0.74936 0.69390 0.26991
 O192 O 0.78962 0.72954 0.23217
 O193 O 0.78900 0.80816 0.22837
 O194 O 0.70995 0.72735 0.30790
 C195 C 0.74820 0.86127 0.16994
 C196 C 0.83949 0.86747 0.26955
 C197 C 0.84907 0.76640 0.17670
 C198 C 0.74999 0.67274 0.36418
 C199 C 0.65589 0.76053 0.36316
 C200 C 0.65401 0.67297 0.26595
 H201 H 0.69300 0.82425 0.32115
 H202 H 0.69697 0.71281 0.20950
 H203 H 0.80672 0.82586 0.21074
 H204 H 0.80728 0.71460 0.32425
 H205 H 0.81535 0.79126 0.37786
 H206 H 0.86188 0.75572 0.33849
 H207 H 0.63869 0.75679 0.19768
 H208 H 0.68625 0.78526 0.15327
 H209 H 0.73311 0.83761 0.37694
 H210 H 0.76593 0.88122 0.33189
 H211 H 0.72877 0.65106 0.20500
 H212 H 0.77198 0.69792 0.16038
 H213 H 0.67779 0.87501 0.24422
 H214 H 0.62804 0.82465 0.29491
 H215 H 0.86079 0.70308 0.25067
 H216 H 0.81849 0.65624 0.28535
 O217 O 0.75718 0.13723 0.79828
 O218 O 0.71712 0.12340 0.74406
 O219 O 0.86218 0.20073 0.75427
 O220 O 0.87485 0.25500 0.71392
 O221 O 0.80075 0.24289 0.86079
 O222 O 0.74652 0.28222 0.87556
 O223 O 0.75119 0.30479 0.64077
 O224 O 0.78694 0.24991 0.62426
 O225 O 0.64028 0.24402 0.69676
 O226 O 0.62549 0.20981 0.75258
 O227 O 0.69530 0.35773 0.75638
 O228 O 0.75143 0.37391 0.78922
 O229 O 0.74041 0.35432 0.68939
 O230 O 0.79921 0.36430 0.74899
 O231 O 0.64564 0.30995 0.74309
 O232 O 0.63623 0.24917 0.80117
 O233 O 0.68704 0.25728 0.64615
 O234 O 0.74798 0.20055 0.63418
 O235 O 0.74530 0.18265 0.85065
 O236 O 0.69658 0.24466 0.86286
 O237 O 0.85164 0.25681 0.81436
 O238 O 0.86210 0.30512 0.75111
 O239 O 0.81656 0.14869 0.74188
 O240 O 0.75359 0.13743 0.69351
 Zr241 Zr 0.75615 0.17569 0.74660
 O242 O 0.71255 0.21082 0.71225
 Zr243 Zr 0.82364 0.25223 0.75422
 O244 O 0.78756 0.28749 0.71206
 Zr245 Zr 0.74862 0.24307 0.82331
 O246 O 0.71279 0.28591 0.78893
 Zr247 Zr 0.74672 0.25125 0.67561
 O248 O 0.79093 0.21586 0.70993
 Zr249 Zr 0.67614 0.25080 0.74931
 O250 O 0.71204 0.20731 0.78393
 Zr251 Zr 0.74824 0.32324 0.74818
 O252 O 0.78444 0.28799 0.79086
 O253 O 0.79085 0.20927 0.78891
 O254 O 0.70852 0.29002 0.70981
 C255 C 0.75018 0.14566 0.83617
 C256 C 0.85369 0.16298 0.74666
 C257 C 0.83807 0.25136 0.85172
 C258 C 0.74465 0.34211 0.65139
 C259 C 0.64961 0.25141 0.65921
 C260 C 0.65800 0.34764 0.74924
 H261 H 0.69518 0.19189 0.69559
 H262 H 0.69622 0.30286 0.80825
 H263 H 0.80896 0.19151 0.80648
 H264 H 0.80593 0.30457 0.69450
 H265 H 0.81516 0.25321 0.63584
 H266 H 0.86479 0.24466 0.68683
 H267 H 0.62916 0.27806 0.80853
 H268 H 0.68070 0.21892 0.85805
 H269 H 0.71907 0.19230 0.62836
 H270 H 0.77902 0.14263 0.67735
 H271 H 0.75014 0.36184 0.81748
 H272 H 0.75623 0.30963 0.86584
 H273 H 0.68977 0.13298 0.75387
 H274 H 0.63746 0.18161 0.75081
 H275 H 0.85788 0.32101 0.77694
 H276 H 0.80628 0.37120 0.71993
 O277 O 0.23583 0.83755 0.81391
 O278 O 0.28288 0.84999 0.75426
 O279 O 0.12818 0.79146 0.74841
 O280 O 0.11309 0.73735 0.70821
 O281 O 0.17693 0.73026 0.85904
 O282 O 0.23623 0.68187 0.86947
 O283 O 0.23154 0.67492 0.64628
 O284 O 0.18371 0.73435 0.63660
 O285 O 0.33928 0.73603 0.69227
 O286 O 0.35156 0.78052 0.75670
 O287 O 0.29253 0.62570 0.75325
 O288 O 0.23081 0.61525 0.80074
 O289 O 0.23843 0.62539 0.69647
 O290 O 0.19186 0.61068 0.75151
 O291 O 0.34124 0.67583 0.74565
 O292 O 0.35868 0.72960 0.79234
 O293 O 0.28880 0.72923 0.64338
 O294 O 0.23943 0.77591 0.62994
 O295 O 0.23785 0.78624 0.86265
 O296 O 0.27982 0.72921 0.87394
 O297 O 0.12734 0.73524 0.80867
 O298 O 0.11730 0.68594 0.75316
 O299 O 0.17819 0.84040 0.75592
 O300 O 0.23504 0.85542 0.71160
 Zr301 Zr 0.23389 0.80674 0.75582
 O302 O 0.27067 0.77182 0.71486
 Zr303 Zr 0.16079 0.73489 0.75351
 O304 O 0.19558 0.69544 0.71526
 Zr305 Zr 0.23386 0.73216 0.82706
 O306 O 0.27313 0.69508 0.79078
 Zr307 Zr 0.23446 0.73174 0.67837
 O308 O 0.19704 0.77202 0.71414
 Zr309 Zr 0.30841 0.73180 0.74997
 O310 O 0.27412 0.76928 0.79143
 Zr311 Zr 0.23619 0.65880 0.75169
 O312 O 0.19658 0.69365 0.79029
 O313 O 0.19548 0.77184 0.79329
 O314 O 0.27402 0.69285 0.71192
 C315 C 0.23772 0.82454 0.85186
 C316 C 0.14035 0.82921 0.75155
 C317 C 0.13897 0.73254 0.84664
 C318 C 0.23494 0.63699 0.65858
 C319 C 0.32674 0.73328 0.65433
 C320 C 0.33003 0.63783 0.74876
 H321 H 0.28681 0.79103 0.69729
 H322 H 0.29082 0.67793 0.80927
 H323 H 0.17818 0.78967 0.81114
 H324 H 0.17671 0.67844 0.69819
 H325 H 0.16696 0.75896 0.64411
 H326 H 0.12189 0.72023 0.68448
 H327 H 0.34972 0.71320 0.81667
 H328 H 0.30406 0.74423 0.86287
 H329 H 0.23617 0.80333 0.64297
 H330 H 0.21397 0.84881 0.69024
 H331 H 0.25553 0.61795 0.81878
 H332 H 0.21285 0.66337 0.86251
 H333 H 0.30234 0.84214 0.77685
 H334 H 0.34751 0.79977 0.73298
 H335 H 0.12644 0.66565 0.77453
 H336 H 0.16819 0.62007 0.73424
 O337 O 0.24525 0.37415 0.70886
 O338 O 0.20081 0.38556 0.76930
 O339 O 0.35430 0.32607 0.77206
 O340 O 0.36824 0.27115 0.81557
 O341 O 0.30882 0.26258 0.66301
 O342 O 0.24748 0.21968 0.65022
 O343 O 0.25131 0.20957 0.87575
 O344 O 0.29773 0.26785 0.88500
 O345 O 0.14296 0.26880 0.82663
 O346 O 0.13326 0.31932 0.76390
 O347 O 0.18712 0.16307 0.76919
 O348 O 0.24952 0.15028 0.72075
 O349 O 0.24328 0.16079 0.82572
 O350 O 0.28777 0.14373 0.77042
 O351 O 0.13879 0.21441 0.76602
 O352 O 0.12520 0.27015 0.72571
 O353 O 0.19325 0.26227 0.87606
 O354 O 0.24126 0.31005 0.88993
 O355 O 0.25207 0.32398 0.65993
 O356 O 0.20619 0.26851 0.64589
 O357 O 0.35778 0.26854 0.71365
 O358 O 0.36691 0.22044 0.76934
 O359 O 0.30430 0.37546 0.76387
 O360 O 0.24949 0.38879 0.81110
 Zr361 Zr 0.24946 0.34167 0.76570
 O362 O 0.21187 0.30671 0.80564
 Zr363 Zr 0.32258 0.26895 0.76823
 O364 O 0.28657 0.22929 0.80566
 Zr365 Zr 0.25110 0.26823 0.69388
 O366 O 0.21037 0.23152 0.72921
 Zr367 Zr 0.24780 0.26579 0.84224
 O368 O 0.28609 0.30598 0.80733
 Zr369 Zr 0.17445 0.26832 0.76916
 O370 O 0.21011 0.30555 0.72860
 Zr371 Zr 0.24530 0.19378 0.76948
 O372 O 0.28658 0.22829 0.73160
 O373 O 0.28870 0.30690 0.72839
 O374 O 0.20755 0.22827 0.80827
 C375 C 0.24827 0.36194 0.67113
 C376 C 0.34203 0.36399 0.76809
 C377 C 0.34682 0.26416 0.67561
 C378 C 0.24718 0.17191 0.86373
 C379 C 0.15545 0.26556 0.86457
 C380 C 0.14936 0.17614 0.76689
 H381 H 0.19553 0.32562 0.82324
 H382 H 0.19285 0.21524 0.71010
 H383 H 0.30663 0.32409 0.71048
 H384 H 0.30509 0.21160 0.82277
 H385 H 0.31441 0.29258 0.87795
 H386 H 0.35959 0.25224 0.83814
 H387 H 0.13645 0.25972 0.69926
 H388 H 0.18413 0.28792 0.65460
 H389 H 0.24773 0.33719 0.87735
 H390 H 0.27222 0.38232 0.83089
 H391 H 0.22417 0.15295 0.70353
 H392 H 0.26771 0.19829 0.65924
 H393 H 0.18080 0.37892 0.74695
 H394 H 0.13394 0.33459 0.79043
 H395 H 0.35706 0.19922 0.74957
 H396 H 0.31302 0.15350 0.78476
 O397 O 0.76986 0.63959 0.67727
 O398 O 0.82018 0.62932 0.73578
 O399 O 0.66599 0.68776 0.73932
 O400 O 0.65054 0.74393 0.77804
 O401 O 0.71330 0.74411 0.62602
 O402 O 0.77091 0.79287 0.61499
 O403 O 0.77291 0.80946 0.83746
 O404 O 0.72491 0.75159 0.85092
 O405 O 0.87945 0.74545 0.79140
 O406 O 0.88964 0.69764 0.73214
 O407 O 0.83085 0.85187 0.73030
 O408 O 0.76827 0.86139 0.68000
 O409 O 0.77142 0.85707 0.78514
 O410 O 0.73037 0.87006 0.72855
 O411 O 0.87991 0.80127 0.73612
 O412 O 0.89213 0.74319 0.68896
 O413 O 0.82993 0.75526 0.84021
 O414 O 0.78077 0.70867 0.85739
 O415 O 0.77284 0.68900 0.62657
 O416 O 0.81564 0.74511 0.61295
 O417 O 0.66453 0.74631 0.67670
 O418 O 0.65341 0.79332 0.73368
 O419 O 0.71591 0.63802 0.73569
 O420 O 0.77354 0.62617 0.78047
 Zr421 Zr 0.77078 0.67251 0.73381
 O422 O 0.80876 0.70880 0.77258
 Zr423 Zr 0.69785 0.74490 0.73298
 O424 O 0.73362 0.78557 0.76941
 Zr425 Zr 0.76973 0.74430 0.65938
 O426 O 0.80966 0.78249 0.69367
 Zr427 Zr 0.77379 0.75109 0.80754
 O428 O 0.73500 0.70966 0.77409
 Zr429 Zr 0.84581 0.74647 0.73505
 O430 O 0.81027 0.70768 0.69602
 Zr431 Zr 0.77350 0.82065 0.73156
 O432 O 0.73306 0.78456 0.69473
 O433 O 0.73172 0.70629 0.69490
 O434 O 0.81255 0.78788 0.77183
 C435 C 0.77087 0.65140 0.63902
 C436 C 0.67810 0.64954 0.73905
 C437 C 0.67561 0.74603 0.63846
 C438 C 0.77150 0.84706 0.82366
 C439 C 0.86773 0.75113 0.82895
 C440 C 0.86861 0.83919 0.73291
 H441 H 0.82527 0.69037 0.79098
 H442 H 0.82689 0.79876 0.67433
 H443 H 0.71352 0.68836 0.67799
 H444 H 0.71492 0.80330 0.78585
 H445 H 0.70781 0.72680 0.84530
 H446 H 0.66098 0.75915 0.80248
 H447 H 0.88668 0.76543 0.66836
 H448 H 0.83957 0.72948 0.62442
 H449 H 0.77205 0.68146 0.84664
 H450 H 0.75242 0.63339 0.80136
 H451 H 0.79434 0.85984 0.66415
 H452 H 0.74767 0.81178 0.62151
 H453 H 0.83838 0.63584 0.71203
 H454 H 0.88401 0.67830 0.75535
 H455 H 0.66167 0.81360 0.71211
 H456 H 0.70520 0.86066 0.74311
 O457 O 0.25654 0.64093 0.30220
 O458 O 0.21602 0.62806 0.24764
 O459 O 0.36370 0.70087 0.25517
 O460 O 0.37689 0.75672 0.21509
 O461 O 0.30442 0.74983 0.36346
 O462 O 0.24971 0.78628 0.37890
 O463 O 0.25081 0.80746 0.14296
 O464 O 0.29045 0.75357 0.12759
 O465 O 0.14276 0.75097 0.20016
 O466 O 0.12797 0.71608 0.25585
 O467 O 0.20110 0.86321 0.25350
 O468 O 0.25435 0.87736 0.29179
 O469 O 0.25323 0.85821 0.19162
 O470 O 0.30577 0.86599 0.25562
 O471 O 0.15005 0.81552 0.24658
 O472 O 0.13976 0.75528 0.30452
 O473 O 0.18985 0.75840 0.14863
 O474 O 0.25137 0.70326 0.13708
 O475 O 0.24893 0.68727 0.35468
 O476 O 0.19954 0.75005 0.36542
 O477 O 0.35659 0.75162 0.31633
 O478 O 0.36668 0.80519 0.25694
 O479 O 0.31654 0.64936 0.24684
 O480 O 0.25408 0.64021 0.19732
 Zr481 Zr 0.25707 0.67879 0.25015
 O482 O 0.21443 0.71482 0.21556
 Zr483 Zr 0.32682 0.75332 0.25680
 O484 O 0.29153 0.78934 0.21453
 Zr485 Zr 0.25191 0.74749 0.32639
 O486 O 0.21706 0.79085 0.29148
 Zr487 Zr 0.24949 0.75401 0.17840
 O488 O 0.29281 0.71761 0.21294
 Zr489 Zr 0.17941 0.75608 0.25245
 O490 O 0.21428 0.71216 0.28748
 Zr491 Zr 0.25362 0.82677 0.25053
 O492 O 0.28898 0.79079 0.29331
 O493 O 0.29272 0.71187 0.29201
 O494 O 0.21278 0.79418 0.21259
 C495 C 0.25165 0.64995 0.34029
 C496 C 0.35405 0.66302 0.25009
 C497 C 0.34259 0.75058 0.35388
 C498 C 0.25235 0.84531 0.15363
 C499 C 0.15229 0.75522 0.16218
 C500 C 0.16326 0.85329 0.24916
 H501 H 0.19643 0.69620 0.19921
 H502 H 0.20088 0.80870 0.31032
 H503 H 0.31029 0.69358 0.30957
 H504 H 0.31046 0.80560 0.19681
 H505 H 0.31828 0.75895 0.13925
 H506 H 0.36712 0.74384 0.18903
 H507 H 0.13390 0.78432 0.31237
 H508 H 0.18415 0.72384 0.36169
 H509 H 0.22280 0.69287 0.13349
 H510 H 0.27988 0.64455 0.18148
 H511 H 0.25209 0.86525 0.31994
 H512 H 0.25772 0.81419 0.36899
 H513 H 0.18954 0.63815 0.25914
 H514 H 0.13915 0.68773 0.25242
 H515 H 0.36328 0.81919 0.28398
 H516 H 0.31798 0.86906 0.22769
 O517 O 0.72814 0.33833 0.30667
 O518 O 0.77917 0.34800 0.24652
 O519 O 0.62260 0.28890 0.24660
 O520 O 0.60966 0.23537 0.20296
 O521 O 0.67413 0.23049 0.35425
 O522 O 0.73477 0.18334 0.36432
 O523 O 0.72979 0.17385 0.14095
 O524 O 0.67877 0.22740 0.13085
 O525 O 0.83453 0.23322 0.18449
 O526 O 0.84627 0.28351 0.24637
 O527 O 0.79120 0.12704 0.24920
 O528 O 0.72920 0.11619 0.29667
 O529 O 0.73641 0.12497 0.19189
 O530 O 0.69154 0.10915 0.24654
 O531 O 0.83903 0.17799 0.24165
 O532 O 0.85524 0.23422 0.28489
 O533 O 0.78286 0.23402 0.13620
 O534 O 0.72965 0.27727 0.12576
 O535 O 0.73361 0.28773 0.35589
 O536 O 0.77702 0.23186 0.36787
 O537 O 0.62390 0.23338 0.30438
 O538 O 0.61420 0.18345 0.25052
 O539 O 0.67235 0.33844 0.24178
 O540 O 0.72829 0.35856 0.20887
 Zr541 Zr 0.72861 0.30654 0.24899
 O542 O 0.76555 0.27199 0.20790
 Zr543 Zr 0.65678 0.23322 0.24893
 O544 O 0.69212 0.19426 0.21069
 Zr545 Zr 0.73065 0.23304 0.32133
 O546 O 0.77048 0.19651 0.28501
 Zr547 Zr 0.72950 0.23097 0.17255
 O548 O 0.69175 0.27052 0.20846
 Zr549 Zr 0.80457 0.23316 0.24305
 O550 O 0.76983 0.27032 0.28468
 Zr551 Zr 0.73406 0.15886 0.24681
 O552 O 0.69398 0.19313 0.28554
 O553 O 0.69119 0.27164 0.28750
 O554 O 0.77051 0.19318 0.20590
 C555 C 0.73128 0.32585 0.34473
 C556 C 0.63442 0.32671 0.24270
 C557 C 0.63601 0.23175 0.34222
 C558 C 0.73325 0.13612 0.15383
 C559 C 0.82116 0.23427 0.14667
 C560 C 0.82858 0.13984 0.24550
 H561 H 0.78107 0.29122 0.18981
 H562 H 0.78872 0.18016 0.30370
 H563 H 0.67338 0.28948 0.30484
 H564 H 0.67365 0.17646 0.19403
 H565 H 0.65911 0.24960 0.13864
 H566 H 0.61605 0.21419 0.18184
 H567 H 0.84669 0.21897 0.31010
 H568 H 0.80061 0.24776 0.35664
 H569 H 0.71119 0.29970 0.13544
 H570 H 0.73240 0.34772 0.18057
 H571 H 0.75402 0.11941 0.31449
 H572 H 0.71139 0.16451 0.35831
 H573 H 0.79611 0.34298 0.27179
 H574 H 0.84366 0.29961 0.22026
 H575 H 0.62441 0.16346 0.27169
 H576 H 0.66627 0.11888 0.23197
 C577 C 0.30195 0.06549 0.07263
 C578 C 0.27135 0.06442 0.04108
 C579 C 0.24077 0.09571 0.04051
 C580 C 0.24028 0.12618 0.07105
 C581 C 0.26947 0.12525 0.10342
 C582 C 0.30055 0.09510 0.10382
 H583 H 0.32688 0.04294 0.07356
 H584 H 0.21571 0.09542 0.01806
 H585 H 0.21601 0.14945 0.07045
 H586 H 0.32389 0.09465 0.12811
 C587 C 0.72120 0.56822 0.57656
 C588 C 0.74876 0.56400 0.54330
 C589 C 0.78372 0.58958 0.54114
 C590 C 0.79142 0.61828 0.57258
 C591 C 0.76504 0.62036 0.60694
 C592 C 0.72961 0.59575 0.60840
 H593 H 0.69395 0.54886 0.57865
 H594 H 0.80565 0.58632 0.51608
 H595 H 0.81836 0.63806 0.57070
 H596 H 0.70812 0.59836 0.63392
 C597 C 0.72111 0.95216 0.09997
 C598 C 0.74848 0.94573 0.06654
 C599 C 0.77750 0.91304 0.07000
 C600 C 0.77762 0.88645 0.10405
 C601 C 0.74944 0.89212 0.13629
 C602 C 0.72195 0.92582 0.13474
 H603 H 0.69726 0.97572 0.09839
 H604 H 0.80055 0.90786 0.04630
 H605 H 0.79978 0.86115 0.10514
 H606 H 0.69979 0.93049 0.15937
 C607 C 0.28042 0.41885 0.57494
 C608 C 0.24848 0.44821 0.57005
 C609 C 0.21785 0.45113 0.60073
 C610 C 0.21864 0.42422 0.63502
 C611 C 0.24929 0.39342 0.63820
 C612 C 0.28047 0.39134 0.60834
 H613 H 0.30471 0.41633 0.55206
 H614 H 0.19260 0.47307 0.59742
 H615 H 0.19431 0.42609 0.65791
 H616 H 0.30466 0.36806 0.61068
 C617 C 0.70636 0.06535 0.90813
 C618 C 0.74035 0.03841 0.91410
 C619 C 0.77698 0.04591 0.89225
 C620 C 0.78022 0.08109 0.86681
 C621 C 0.74738 0.10973 0.86402
 C622 C 0.71009 0.10109 0.88392
 H623 H 0.67784 0.06027 0.92490
 H624 H 0.80378 0.02611 0.89689
 H625 H 0.80885 0.08681 0.85045
 H626 H 0.68394 0.12203 0.88077
 C627 C 0.27931 0.55000 0.39557
 C628 C 0.24216 0.54092 0.41586
 C629 C 0.20781 0.56737 0.40973
 C630 C 0.21146 0.60391 0.38663
 C631 C 0.24919 0.61408 0.36832
 C632 C 0.28259 0.58610 0.37140
 H633 H 0.30641 0.53071 0.40059
 H634 H 0.17902 0.56128 0.42567
 H635 H 0.18489 0.62423 0.38307
 H636 H 0.31154 0.59287 0.35605
 C637 C 0.21365 0.92101 0.91286
 C638 C 0.24159 0.91860 0.94690
 C639 C 0.26495 0.88173 0.95147
 C640 C 0.26297 0.85052 0.92118
 C641 C 0.23816 0.85567 0.88545
 C642 C 0.21278 0.89067 0.88224
 H643 H 0.19265 0.94704 0.90916
 H644 H 0.28724 0.87806 0.97639
 H645 H 0.28242 0.82328 0.92464
 H646 H 0.19211 0.89460 0.85592
 C647 C 0.70320 0.42048 0.40745
 C648 C 0.73027 0.41728 0.44186
 C649 C 0.75625 0.38236 0.44491
 C650 C 0.75599 0.35218 0.41371
 C651 C 0.73073 0.35700 0.37824
 C652 C 0.70391 0.39113 0.37574
 H653 H 0.68255 0.44686 0.40425
 H654 H 0.77829 0.37933 0.47008
 H655 H 0.77679 0.32588 0.41644
 H656 H 0.68343 0.39505 0.34924
 C657 C 0.06708 0.22165 0.08762
 C658 C 0.06514 0.25112 0.05501
 C659 C 0.09924 0.27793 0.04984
 C660 C 0.13334 0.27580 0.07675
 C661 C 0.13364 0.24773 0.11009
 C662 C 0.10054 0.22041 0.11502
 H663 H 0.04285 0.19899 0.09200
 H664 H 0.09881 0.30237 0.02674
 H665 H 0.15857 0.29745 0.07275
 H666 H 0.10061 0.19792 0.14013
 C667 C 0.57462 0.77311 0.58646
 C668 C 0.57259 0.74395 0.55428
 C669 C 0.60668 0.71755 0.54775
 C670 C 0.64155 0.71959 0.57380
 C671 C 0.64220 0.74727 0.60728
 C672 C 0.60877 0.77435 0.61299
 H673 H 0.54912 0.79426 0.59185
 H674 H 0.60575 0.69441 0.52358
 H675 H 0.66699 0.69818 0.56917
 H676 H 0.60884 0.79613 0.63847
 C677 C 0.08034 0.71544 0.94533
 C678 C 0.04615 0.74256 0.94022
 C679 C 0.04204 0.76445 0.90249
 C680 C 0.07164 0.75996 0.87148
 C681 C 0.10640 0.73439 0.87793
 C682 C 0.11033 0.71186 0.91482
 H683 H 0.08412 0.69698 0.97332
 H684 H 0.01773 0.78715 0.89773
 H685 H 0.06843 0.77809 0.84321
 H686 H 0.13662 0.69149 0.92005
 C687 C 0.54205 0.26772 0.40035
 C688 C 0.54235 0.24067 0.43453
 C689 C 0.57283 0.20940 0.43718
 C690 C 0.60365 0.20646 0.40728
 C691 C 0.60358 0.23387 0.37358
 C692 C 0.57209 0.26382 0.36969
 H693 H 0.51966 0.29270 0.39813
 H694 H 0.57364 0.18821 0.46339
 H695 H 0.62748 0.18292 0.41043
 H696 H 0.57182 0.28529 0.34376
 C697 C 0.95215 0.77911 0.12030
 C698 C 0.94414 0.75834 0.08264
 C699 C 0.90563 0.73775 0.07882
 C700 C 0.87536 0.74056 0.10920
 C701 C 0.88255 0.76293 0.14549
 C702 C 0.92169 0.78126 0.15137
 H703 H 0.98048 0.79615 0.12500
 H704 H 0.89857 0.71886 0.05204
 H705 H 0.84618 0.72482 0.10430
 H706 H 0.92819 0.79858 0.17933
 C707 C 0.44694 0.28269 0.61611
 C708 C 0.44212 0.25556 0.58243
 C709 C 0.40696 0.22975 0.58153
 C710 C 0.37614 0.23288 0.61154
 C711 C 0.38019 0.26080 0.64435
 C712 C 0.41645 0.28487 0.64710
 H713 H 0.47319 0.30336 0.61761
 H714 H 0.40258 0.20786 0.55654
 H715 H 0.34906 0.21333 0.60913
 H716 H 0.42041 0.30654 0.67235
 C717 C 0.91700 0.29530 0.92497
 C718 C 0.91836 0.26533 0.95730
 C719 C 0.88990 0.23248 0.95581
 C720 C 0.86392 0.22785 0.92118
 C721 C 0.86624 0.25557 0.88735
 C722 C 0.89210 0.28990 0.89003
 H723 H 0.93685 0.32228 0.92585
 H724 H 0.88998 0.20841 0.97934
 H725 H 0.84303 0.20169 0.92007
 H726 H 0.89275 0.31278 0.86529
 C727 C 0.41379 0.70274 0.43319
 C728 C 0.41866 0.73505 0.46196
 C729 C 0.39720 0.77242 0.45534
 C730 C 0.37303 0.77801 0.41943
 C731 C 0.37116 0.74682 0.38922
 C732 C 0.39058 0.70872 0.39697
 H733 H 0.43068 0.67391 0.43732
 H734 H 0.40128 0.79806 0.47652
 H735 H 0.35661 0.80701 0.41467
 H736 H 0.38767 0.68358 0.37504
 C737 C 0.08487 0.08615 0.27692
 C738 C 0.08300 0.05333 0.24830
 C739 C 0.11381 0.05062 0.21782
 C740 C 0.14491 0.08095 0.21539
 C741 C 0.14482 0.11506 0.24252
 C742 C 0.11488 0.11695 0.27363
 H743 H 0.06171 0.08895 0.30093
 H744 H 0.11286 0.02618 0.19495
 H745 H 0.16791 0.07881 0.19118
 H746 H 0.11457 0.14248 0.29533
 C747 C 0.61787 0.54990 0.72050
 C748 C 0.58402 0.55520 0.74715
 C749 C 0.58340 0.59035 0.77305
 C750 C 0.61369 0.62093 0.77011
 C751 C 0.64658 0.61647 0.74249
 C752 C 0.64923 0.58000 0.71871
 H753 H 0.61926 0.52362 0.69983
 H754 H 0.55833 0.59501 0.79471
 H755 H 0.61143 0.64815 0.78952
 H756 H 0.67471 0.57559 0.69754
 C757 C 0.95776 0.11118 0.76678
 C758 C 0.95838 0.08091 0.73552
 C759 C 0.92583 0.08138 0.70578
 C760 C 0.89150 0.10716 0.71010
 C761 C 0.88955 0.13491 0.74300
 C762 C 0.92369 0.13810 0.77025
 H763 H 0.98152 0.11194 0.79058
 H764 H 0.92601 0.06013 0.67985
 H765 H 0.86652 0.10556 0.68757
 H766 H 0.92317 0.16028 0.79535
 C767 C 0.45292 0.60741 0.28033
 C768 C 0.46110 0.58460 0.24442
 C769 C 0.43451 0.58918 0.20980
 C770 C 0.39865 0.61335 0.21213
 C771 C 0.38940 0.63435 0.24872
 C772 C 0.41761 0.63267 0.28218
 H773 H 0.47227 0.60362 0.30767
 H774 H 0.43987 0.57123 0.18201
 H775 H 0.37815 0.61561 0.18548
 H776 H 0.41155 0.64993 0.31021
 C777 C 0.08373 0.92648 0.78098
 C778 C 0.05546 0.93132 0.74796
 C779 C 0.05352 0.90048 0.71727
 C780 C 0.07978 0.86587 0.71936
 C781 C 0.10915 0.86238 0.75142
 C782 C 0.11064 0.89265 0.78237
 H783 H 0.08556 0.94936 0.80537
 H784 H 0.03261 0.90372 0.69106
 H785 H 0.07851 0.84290 0.69502
 H786 H 0.13292 0.89021 0.80751
 C787 C 0.58271 0.42716 0.21340
 C788 C 0.54995 0.42897 0.24180
 C789 C 0.54267 0.39475 0.26793
 C790 C 0.56866 0.35993 0.26645
 C791 C 0.60286 0.35953 0.23978
 C792 C 0.60919 0.39306 0.21277
 H793 H 0.58870 0.45296 0.19264
 H794 H 0.51803 0.39561 0.29052
 H795 H 0.56345 0.33442 0.28769
 H796 H 0.63524 0.39323 0.19177
 C797 C 0.93578 0.92770 0.29199
 C798 C 0.93278 0.96077 0.26315
 C799 C 0.89631 0.96490 0.23937
 C800 C 0.86491 0.93540 0.24288
 C801 C 0.86988 0.90101 0.26949
 C802 C 0.90503 0.89792 0.29467
 H803 H 0.96284 0.92416 0.31177
 H804 H 0.89320 0.98888 0.21592
 H805 H 0.83784 0.93811 0.22302
 H806 H 0.90901 0.87208 0.31599
 C807 C 0.43661 0.42730 0.79100
 C808 C 0.43447 0.45762 0.75943
 C809 C 0.40048 0.45819 0.73222
 C810 C 0.36960 0.42827 0.73605
 C811 C 0.37312 0.39676 0.76621
 C812 C 0.40652 0.39668 0.79394
 H813 H 0.46265 0.42636 0.81233
 H814 H 0.39864 0.48062 0.70714
 H815 H 0.34388 0.42862 0.71430
 H816 H 0.40939 0.37287 0.81765
 C817 C 0.07082 0.30354 0.93386
 C818 C 0.06632 0.27003 0.96163
 C819 C 0.09289 0.23568 0.95830
 C820 C 0.12249 0.23438 0.92686
 C821 C 0.12476 0.26672 0.89763
 C822 C 0.09930 0.30155 0.90167
 H823 H 0.05069 0.33038 0.93590
 H824 H 0.08957 0.20922 0.97884
 H825 H 0.14260 0.20757 0.92438
 H826 H 0.10154 0.32720 0.87995
 C827 C 0.59472 0.77361 0.46132
 C828 C 0.56818 0.73936 0.45920
 C829 C 0.57181 0.71156 0.42592
 C830 C 0.59969 0.71918 0.39406
 C831 C 0.62530 0.75396 0.39567
 C832 C 0.62367 0.78044 0.43004
 H833 H 0.59190 0.79592 0.48612
 H834 H 0.55167 0.68489 0.42373
 H835 H 0.60148 0.69780 0.36830
 H836 H 0.64385 0.80711 0.43191
 C837 C 0.95400 0.72229 0.90376
 C838 C 0.95246 0.75585 0.93141
 C839 C 0.92511 0.78883 0.92304
 C840 C 0.89858 0.78760 0.88883
 C841 C 0.89934 0.75379 0.86181
 C842 C 0.92793 0.72157 0.86877
 H843 H 0.97446 0.69628 0.90988
 H844 H 0.92349 0.81509 0.94378
 H845 H 0.87696 0.81282 0.88370
 H846 H 0.92865 0.69505 0.84833
 C847 C 0.45154 0.22401 0.39873
 C848 C 0.44836 0.25511 0.42899
 C849 C 0.41977 0.28751 0.42289
 C850 C 0.39348 0.28782 0.38849
 C851 C 0.39570 0.25622 0.35900
 C852 C 0.42564 0.22485 0.36361
 H853 H 0.47292 0.19839 0.40298
 H854 H 0.41697 0.31205 0.44552
 H855 H 0.37073 0.31234 0.38526
 H856 H 0.42742 0.19994 0.34131
 C857 C 0.07058 0.79624 0.08854
 C858 C 0.04228 0.76307 0.08718
 C859 C 0.05040 0.72767 0.11133
 C860 C 0.08691 0.72485 0.13492
 C861 C 0.11652 0.75675 0.13368
 C862 C 0.10755 0.79294 0.11120
 H863 H 0.06551 0.82343 0.06923
 H864 H 0.02988 0.70125 0.10982
 H865 H 0.09264 0.69725 0.15342
 H866 H 0.12903 0.81863 0.11132
 C867 C 0.57044 0.29286 0.58301
 C868 C 0.54049 0.26112 0.58316
 C869 C 0.54643 0.22685 0.60939
 C870 C 0.58255 0.22347 0.63343
 C871 C 0.61383 0.25370 0.63076
 C872 C 0.60703 0.28894 0.60615
 H873 H 0.56690 0.31918 0.56222
 H874 H 0.52455 0.20150 0.60915
 H875 H 0.58670 0.19659 0.65336
 H876 H 0.62988 0.31339 0.60496
 C877 C 0.88129 0.27126 0.05265
 C878 C 0.91387 0.24226 0.05153
 C879 C 0.91328 0.20873 0.07983
 C880 C 0.88309 0.20614 0.11057
 C881 C 0.85178 0.23607 0.11284
 C882 C 0.85015 0.26781 0.08273
 H883 H 0.88105 0.29766 0.03175
 H884 H 0.93761 0.18554 0.07947
 H885 H 0.88439 0.18094 0.13284
 H886 H 0.82592 0.29106 0.08377
 C887 C 0.41980 0.76783 0.59330
 C888 C 0.41959 0.74059 0.55926
 C889 C 0.38665 0.71251 0.55529
 C890 C 0.35569 0.71068 0.58570
 C891 C 0.35786 0.73610 0.62102
 C892 C 0.38981 0.76509 0.62413
 H893 H 0.44429 0.79037 0.59693
 H894 H 0.38582 0.69075 0.52986
 H895 H 0.33101 0.68827 0.58253
 H896 H 0.39158 0.78569 0.65050
 C897 C 0.21917 0.07272 0.91810
 C898 C 0.25033 0.06885 0.94886
 C899 C 0.27880 0.10176 0.95309
 C900 C 0.27662 0.13655 0.92683
 C901 C 0.24675 0.13863 0.89512
 C902 C 0.21782 0.10676 0.89138
 H903 H 0.19548 0.04933 0.91452
 H904 H 0.30415 0.09987 0.97513
 H905 H 0.29957 0.16074 0.92985
 H906 H 0.19419 0.10807 0.86743
 C907 C 0.77681 0.57094 0.41519
 C908 C 0.74898 0.56942 0.44844
 C909 C 0.72379 0.60421 0.45621
 C910 C 0.72554 0.63923 0.43020
 C911 C 0.75182 0.63942 0.39565
 C912 C 0.77792 0.60532 0.38889
 H913 H 0.79692 0.54483 0.40879
 H914 H 0.70164 0.60366 0.48127
 H915 H 0.70488 0.66512 0.43573
 H916 H 0.79868 0.60494 0.36263
 C917 C 0.76434 0.04152 0.09334
 C918 C 0.73215 0.03945 0.06395
 C919 C 0.69964 0.06854 0.06559
 C920 C 0.70043 0.10046 0.09449
 C921 C 0.73299 0.10296 0.12312
 C922 C 0.76432 0.07270 0.12328
 H923 H 0.79012 0.02002 0.09219
 H924 H 0.67447 0.06750 0.04325
 H925 H 0.67561 0.12314 0.09460
 H926 H 0.78950 0.07415 0.14560
 C927 C 0.20333 0.57305 0.56677
 C928 C 0.23447 0.54242 0.56626
 C929 C 0.26472 0.54207 0.59774
 C930 C 0.26428 0.57243 0.62853
 C931 C 0.23450 0.60424 0.62733
 C932 C 0.20377 0.60411 0.59660
 H933 H 0.17954 0.57386 0.54292
 H934 H 0.28956 0.51945 0.59758
 H935 H 0.28814 0.57209 0.65232
 H936 H 0.18012 0.62801 0.59574
 C937 C 0.73556 0.94372 0.87992
 C938 C 0.76148 0.94330 0.91513
 C939 C 0.79302 0.91300 0.91771
 C940 C 0.79621 0.88182 0.88804
 C941 C 0.76928 0.88122 0.85392
 C942 C 0.73990 0.91327 0.84923
 H943 H 0.71063 0.96609 0.87714
 H944 H 0.81404 0.91218 0.94404
 H945 H 0.81949 0.85792 0.89195
 H946 H 0.71890 0.91347 0.82289
 C947 C 0.23270 0.44577 0.38210
 C948 C 0.25847 0.44423 0.41737
 C949 C 0.28813 0.41208 0.42035
 C950 C 0.28967 0.38050 0.39092
 C951 C 0.26294 0.38115 0.35663
 C952 C 0.23538 0.41481 0.35168
 H953 H 0.20917 0.46958 0.37900
 H954 H 0.30907 0.41031 0.44670
 H955 H 0.31172 0.35548 0.39505
 H956 H 0.21463 0.41617 0.32516
 C957 C 0.29708 0.90683 0.06564
 C958 C 0.26157 0.91771 0.04242
 C959 C 0.22269 0.90481 0.05673
 C960 C 0.21936 0.88290 0.09431
 C961 C 0.25471 0.87447 0.11859
 C962 C 0.29366 0.88551 0.10335
 H963 H 0.32731 0.91726 0.05574
 H964 H 0.19480 0.91376 0.04008
 H965 H 0.18919 0.87277 0.10464
 H966 H 0.32146 0.87737 0.12057
 C967 C 0.77379 0.39816 0.55334
 C968 C 0.73584 0.41528 0.54030
 C969 C 0.70073 0.40901 0.56526
 C970 C 0.70387 0.38722 0.60298
 C971 C 0.74218 0.37134 0.61632
 C972 C 0.77674 0.37581 0.59054
 H973 H 0.80178 0.40451 0.53616
 H974 H 0.67155 0.42354 0.55692
 H975 H 0.67645 0.38258 0.62161
 H976 H 0.80629 0.36248 0.59964
 C977 C 0.08232 0.08346 0.79124
 C978 C 0.05330 0.08410 0.75830
 C979 C 0.05438 0.11736 0.72996
 C980 C 0.08490 0.14811 0.73357
 C981 C 0.11559 0.14537 0.76470
 C982 C 0.11354 0.11321 0.79390
 H983 H 0.08207 0.05854 0.81391
 H984 H 0.03300 0.11853 0.70397
 H985 H 0.08573 0.17300 0.71089
 H986 H 0.13623 0.11100 0.81867
 C987 C 0.59101 0.57688 0.28812
 C988 C 0.55803 0.58069 0.25934
 C989 C 0.55596 0.61635 0.23424
 C990 C 0.58689 0.64665 0.23697
 C991 C 0.62100 0.64136 0.26402
 C992 C 0.62245 0.60645 0.28993
 H993 H 0.59321 0.55006 0.30840
 H994 H 0.53160 0.61999 0.21129
 H995 H 0.58496 0.67359 0.21682
 H996 H 0.64781 0.60213 0.31171
 C997 C 0.07320 0.92006 0.21571
 C998 C 0.07830 0.95607 0.24022
 C999 C 0.11410 0.95915 0.26491
 C1000 C 0.14177 0.92560 0.26766
 C1001 C 0.13401 0.88840 0.24613
 C1002 C 0.10014 0.88644 0.21925
 H1003 H 0.04680 0.91713 0.19501
 H1004 H 0.11907 0.98566 0.28473
 H1005 H 0.16845 0.92809 0.28800
 H1006 H 0.09451 0.85894 0.20092
 C1007 C 0.60792 0.45001 0.77511
 C1008 C 0.58270 0.45687 0.74027
 C1009 C 0.58278 0.42744 0.70803
 C1010 C 0.60543 0.39058 0.71180
 C1011 C 0.62915 0.38295 0.74749
 C1012 C 0.63136 0.41358 0.77842
 H1013 H 0.60742 0.47149 0.80082
 H1014 H 0.56271 0.43171 0.68127
 H1015 H 0.60473 0.36826 0.68680
 H1016 H 0.65071 0.40880 0.80563
 C1017 C 0.90007 0.05270 0.27911
 C1018 C 0.93066 0.05480 0.24830
 C1019 C 0.92636 0.08414 0.21614
 C1020 C 0.89278 0.11132 0.21514
 C1021 C 0.86219 0.10907 0.24563
 C1022 C 0.86558 0.07915 0.27729
 H1023 H 0.90311 0.03104 0.30475
 H1024 H 0.94946 0.08639 0.19201
 H1025 H 0.89067 0.13425 0.19057
 H1026 H 0.84246 0.07741 0.30142
 C1027 C 0.42638 0.58253 0.71516
 C1028 C 0.43117 0.55215 0.74627
 C1029 C 0.40057 0.54826 0.77688
 C1030 C 0.36619 0.57486 0.77662
 C1031 C 0.36283 0.60640 0.74659
 C1032 C 0.39285 0.60973 0.71563
 H1033 H 0.44934 0.58594 0.69103
 H1034 H 0.40390 0.52567 0.80166
 H1035 H 0.34336 0.57216 0.80094
 H1036 H 0.39056 0.63375 0.69206
 C1037 C 0.96174 0.90226 0.76291
 C1038 C 0.96254 0.93159 0.73054
 C1039 C 0.93382 0.92838 0.69773
 C1040 C 0.90305 0.89832 0.69870
 C1041 C 0.90146 0.87009 0.73170
 C1042 C 0.93172 0.87119 0.76309
 H1043 H 0.98297 0.90455 0.78892
 H1044 H 0.93397 0.95058 0.67237
 H1045 H 0.88032 0.89723 0.67386
 H1046 H 0.93092 0.84921 0.78863
 C1047 C 0.45722 0.40478 0.21384
 C1048 C 0.45498 0.43472 0.24512
 C1049 C 0.42191 0.43370 0.27331
 C1050 C 0.39059 0.40457 0.26918
 C1051 C 0.39250 0.37514 0.23761
 C1052 C 0.42644 0.37462 0.21058
 H1053 H 0.48191 0.40549 0.19129
 H1054 H 0.41968 0.45651 0.29775
 H1055 H 0.36509 0.40473 0.29087
 H1056 H 0.42842 0.35168 0.18626
   
