data_POSCAR
  _audit_creation_date              2014-09-24
  _audit_creation_method            'ToBaCCo'
  _symmetry_space_group_name_H-M    'P1'
  _symmetry_Int_Tables_number       1
  _symmetry_cell_setting            triclinic
  loop_
  _symmetry_equiv_pos_as_xyz
 x,y,z
_cell_length_a 39.1784
_cell_length_b 39.1079
_cell_length_c 45.5096
_cell_angle_alpha 91.329400
_cell_angle_beta 88.454800
_cell_angle_gamma 89.342300
loop_
  _atom_site_label
  _atom_site_type_symbol
  _atom_site_fract_x
  _atom_site_fract_y
  _atom_site_fract_z
C1 C 1.26881 0.20414 0.26777
 C2 C 1.24782 0.22030 0.24785
 C3 C 1.22652 0.20101 0.23008
 C4 C 1.22591 0.16533 0.23200
 C5 C 1.24705 0.14910 0.25211
 C6 C 1.26888 0.16818 0.27049
 C7 C 1.24884 0.25761 0.24506
 C8 C 1.27063 0.27210 0.22409
 C9 C 1.27256 0.30797 0.22129
 C10 C 1.25180 0.32872 0.24066
 C11 C 1.22977 0.31418 0.26174
 C12 C 1.22854 0.27853 0.26375
 H13 H 1.28610 0.22006 0.27997
 H14 H 1.21092 0.21388 0.21432
 H15 H 1.28702 0.25489 0.21103
 H16 H 1.21217 0.26693 0.28022
 H17 H 1.24497 0.12170 0.25406
 H18 H 1.25113 0.35622 0.23871
 C19 C 0.78070 -0.29371 0.27083
 C20 C 0.76059 -0.27478 0.25208
 C21 C 0.73883 -0.29141 0.23279
 C22 C 0.73634 -0.32720 0.23241
 C23 C 0.75627 -0.34611 0.25183
 C24 C 0.77917 -0.32976 0.27103
 C25 C 0.76222 -0.23727 0.25285
 C26 C 0.78520 -0.22065 0.23420
 C27 C 0.78713 -0.18483 0.23486
 C28 C 0.76536 -0.16580 0.25434
 C29 C 0.74235 -0.18230 0.27352
 C30 C 0.74116 -0.21824 0.27258
 H31 H 0.79641 -0.27975 0.28608
 H32 H 0.72424 -0.27629 0.21780
 H33 H 0.80133 -0.23569 0.21897
 H34 H 0.72428 -0.23166 0.28749
 H35 H 0.75460 -0.37367 0.25110
 H36 H 0.76653 -0.13815 0.25461
 C37 C 0.78002 0.20316 -0.23044
 C38 C 0.75901 0.22338 -0.24746
 C39 C 0.73547 0.20800 -0.26599
 C40 C 0.73302 0.17218 -0.26811
 C41 C 0.75423 0.15203 -0.25071
 C42 C 0.77771 0.16736 -0.23174
 C43 C 0.76205 0.26078 -0.24633
 C44 C 0.78587 0.27661 -0.26474
 C45 C 0.78834 0.31258 -0.26515
 C46 C 0.76602 0.33211 -0.24622
 C47 C 0.74247 0.31630 -0.22707
 C48 C 0.74070 0.28046 -0.22743
 H49 H 0.79772 0.21547 -0.21579
 H50 H 0.71902 0.22416 -0.27864
 H51 H 0.80113 0.26048 -0.27976
 H52 H 0.72308 0.26763 -0.21275
 H53 H 0.75316 0.12440 -0.25240
 H54 H 0.76746 0.35969 -0.24556
 C55 C 1.27240 -0.29956 -0.23186
 C56 C 1.25197 -0.28288 -0.25188
 C57 C 1.23099 -0.30168 -0.27030
 C58 C 1.23026 -0.33742 -0.26897
 C59 C 1.25129 -0.35421 -0.24909
 C60 C 1.27285 -0.33560 -0.23014
 C61 C 1.25293 -0.24547 -0.25349
 C62 C 1.27469 -0.23015 -0.27403
 C63 C 1.27764 -0.19438 -0.27452
 C64 C 1.25790 -0.17418 -0.25427
 C65 C 1.23546 -0.18942 -0.23394
 C66 C 1.23335 -0.22520 -0.23360
 H67 H 1.28694 -0.28373 -0.21708
 H68 H 1.21555 -0.28839 -0.28593
 H69 H 1.28928 -0.24627 -0.28956
 H70 H 1.21694 -0.23741 -0.21752
 H71 H 1.25118 -0.38183 -0.24924
 H72 H 1.25999 -0.14659 -0.25422
 C73 C 0.20254 0.28097 0.73719
 C74 C 0.21997 0.25676 0.75327
 C75 C 0.20184 0.23254 0.76930
 C76 C 0.16574 0.23230 0.76986
 C77 C 0.14856 0.25698 0.75314
 C78 C 0.16680 0.28124 0.73680
 C79 C 0.25739 0.25777 0.75428
 C80 C 0.27287 0.27983 0.77432
 C81 C 0.30879 0.28201 0.77556
 C82 C 0.32859 0.26051 0.75600
 C83 C 0.31310 0.23816 0.73567
 C84 C 0.27734 0.23718 0.73503
 H85 H 0.21700 0.29931 0.72459
 H86 H 0.21634 0.21534 0.78261
 H87 H 0.25628 0.29417 0.78959
 H88 H 0.26478 0.22094 0.71913
 H89 H 0.12101 0.25713 0.75208
 H90 H 0.35612 0.26159 0.75571
 C91 C 0.70632 0.77738 0.72935
 C92 C 0.72493 0.75745 0.74837
 C93 C 0.70813 0.73675 0.76854
 C94 C 0.67215 0.73528 0.77001
 C95 C 0.65368 0.75578 0.75044
 C96 C 0.67033 0.77729 0.73005
 C97 C 0.76239 0.75882 0.74744
 C98 C 0.77910 0.78224 0.76556
 C99 C 0.81485 0.78430 0.76447
 C100 C 0.83369 0.76255 0.74491
 C101 C 0.81711 0.73899 0.72654
 C102 C 0.78132 0.73728 0.72801
 H103 H 0.72054 0.79195 0.71333
 H104 H 0.72365 0.72306 0.78377
 H105 H 0.76418 0.79857 0.78072
 H106 H 0.76804 0.71968 0.71368
 H107 H 0.62621 0.75511 0.75113
 H108 H 0.86130 0.76401 0.74394
 C109 C 0.70937 0.27479 0.22856
 C110 C 0.72787 0.25557 0.24825
 C111 C 0.71079 0.23562 0.26892
 C112 C 0.67492 0.23442 0.26989
 C113 C 0.65649 0.25414 0.25003
 C114 C 0.67353 0.27468 0.22945
 C115 C 0.76526 0.25717 0.24750
 C116 C 0.78163 0.28134 0.26512
 C117 C 0.81730 0.28422 0.26364
 C118 C 0.83641 0.26248 0.24426
 C119 C 0.82014 0.23816 0.22642
 C120 C 0.78441 0.23568 0.22822
 H121 H 0.72310 0.28975 0.21247
 H122 H 0.72557 0.22148 0.28445
 H123 H 0.76651 0.29772 0.28009
 H124 H 0.77136 0.21762 0.21417
 H125 H 0.62887 0.25365 0.25068
 H126 H 0.86395 0.26457 0.24301
 C127 C 0.19903 0.77706 0.23426
 C128 C 0.21729 0.75587 0.25259
 C129 C 0.20016 0.73279 0.27047
 C130 C 0.16425 0.73059 0.27062
 C131 C 0.14612 0.75216 0.25172
 C132 C 0.16313 0.77554 0.23323
 C133 C 0.25472 0.75783 0.25294
 C134 C 0.27036 0.77971 0.27308
 C135 C 0.30611 0.78241 0.27323
 C136 C 0.32598 0.76210 0.25310
 C137 C 0.31047 0.73970 0.23288
 C138 C 0.27465 0.73809 0.23289
 H139 H 0.21346 0.79350 0.21984
 H140 H 0.21521 0.71781 0.28519
 H141 H 0.25450 0.79441 0.28874
 H142 H 0.26201 0.72183 0.21706
 H143 H 0.11864 0.75072 0.25140
 H144 H 0.35353 0.76379 0.25313
 O145 O 1.06620 0.03787 0.01815
 O146 O 0.93732 -0.04034 0.01805
 O147 O 0.96182 0.06374 0.01692
 O148 O 1.04163 -0.06632 0.01932
 O149 O 0.94263 0.01762 0.03375
 O150 O 1.06006 -0.01886 0.03504
 O151 O 0.98330 -0.05888 0.03556
 O152 O 1.01860 0.05788 0.03413
 C153 C 1.04916 0.05241 0.03843
 C154 C 0.95232 -0.05332 0.03894
 C155 C 0.94714 0.04856 0.03733
 C156 C 1.05485 -0.04939 0.03946
 O157 O 1.06848 -0.04281 -0.02151
 O158 O 0.93855 0.03663 -0.02340
 O159 O 1.04247 0.06165 -0.02247
 O160 O 0.96443 -0.06781 -0.02143
 O161 O 0.94601 -0.02167 -0.03901
 O162 O 1.06253 0.01424 -0.03873
 O163 O 1.02226 -0.06268 -0.03748
 O164 O 0.98593 0.05484 -0.03957
 Co165 Co 1.05851 -0.00237 -0.00182
 Co166 Co 0.94697 -0.00194 -0.00260
 Co167 Co 1.00223 0.05370 -0.00268
 Co168 Co 1.00288 -0.05805 -0.00107
 O169 O 1.00266 -0.00217 -0.00205
 C170 C 1.05310 -0.05794 -0.04152
 C171 C 0.95541 0.04970 -0.04376
 C172 C 1.05701 0.04490 -0.04289
 C173 C 0.95129 -0.05273 -0.04222
 O174 O 1.06556 0.53317 0.52119
 O175 O 0.93543 0.45984 0.51953
 O176 O 0.96180 0.56319 0.51906
 O177 O 1.03934 0.43014 0.51678
 O178 O 0.94190 0.51722 0.53538
 O179 O 1.05795 0.47566 0.53552
 O180 O 0.98154 0.43860 0.53507
 O181 O 1.01834 0.55487 0.53694
 C182 C 1.04869 0.54820 0.54138
 C183 C 0.95087 0.44530 0.53948
 C184 C 0.94662 0.54809 0.53921
 C185 C 1.05186 0.44500 0.53826
 O186 O 1.06561 0.45538 0.47707
 O187 O 0.93848 0.53712 0.47817
 O188 O 1.04320 0.56023 0.48120
 O189 O 0.96056 0.43246 0.47915
 O190 O 0.94397 0.47917 0.46199
 O191 O 1.06160 0.51313 0.46321
 O192 O 1.01843 0.43711 0.46128
 O193 O 0.98640 0.55561 0.46301
 Co194 Co 1.05696 0.49449 0.49928
 Co195 Co 0.94569 0.49813 0.49876
 Co196 Co 1.00231 0.55251 0.49995
 Co197 Co 1.00008 0.44042 0.49818
 O198 O 1.00126 0.49640 0.49904
 C199 C 1.04933 0.44158 0.45685
 C200 C 0.95583 0.55086 0.45842
 C201 C 1.05720 0.54412 0.46021
 C202 C 0.94837 0.44809 0.45835
 O203 O 0.55552 0.02470 0.53797
 O204 O 0.43972 -0.01190 0.53605
 O205 O 0.48070 0.06474 0.53735
 O206 O 0.51522 -0.05242 0.53833
 O207 O 0.43409 0.04498 0.52158
 O208 O 0.56319 -0.03331 0.52368
 O209 O 0.45894 -0.05971 0.52014
 O210 O 0.53862 0.07125 0.52048
 C211 C 0.55280 0.05595 0.54067
 C212 C 0.44248 -0.04285 0.53946
 C213 C 0.44971 0.06091 0.54118
 C214 C 0.54581 -0.04828 0.54284
 O215 O 0.55997 -0.01495 0.46588
 O216 O 0.44379 0.02284 0.46373
 O217 O 0.51778 0.06223 0.46439
 O218 O 0.48513 -0.05483 0.46451
 O219 O 0.43671 -0.03433 0.47841
 O220 O 0.56477 0.04308 0.48005
 O221 O 0.54127 -0.06135 0.48260
 O222 O 0.45989 0.07031 0.48111
 Co223 Co 0.55503 0.00494 0.50184
 Co224 Co 0.44443 0.00538 0.49998
 Co225 Co 0.49929 0.06095 0.50086
 Co226 Co 0.50009 -0.05090 0.50138
 O227 O 0.49971 0.00506 0.50101
 C228 C 0.55731 -0.04614 0.46287
 C229 C 0.44598 0.05393 0.46095
 C230 C 0.54883 0.05815 0.46057
 C231 C 0.45452 -0.05112 0.45977
 O232 O 0.55944 0.52325 0.03814
 O233 O 0.44358 0.48731 0.03821
 O234 O 0.48227 0.56377 0.03866
 O235 O 0.51926 0.44711 0.03807
 O236 O 0.43604 0.54409 0.02245
 O237 O 0.56695 0.46558 0.02239
 O238 O 0.46268 0.43971 0.02166
 O239 O 0.54021 0.57035 0.02286
 C240 C 0.55567 0.55432 0.04203
 C241 C 0.44710 0.45640 0.04164
 C242 C 0.45127 0.56007 0.04216
 C243 C 0.55002 0.45071 0.04186
 O244 O 0.56207 0.48586 -0.03470
 O245 O 0.44510 0.52101 -0.03443
 O246 O 0.52025 0.56267 -0.03405
 O247 O 0.48702 0.44571 -0.03491
 O248 O 0.43870 0.46404 -0.01919
 O249 O 0.56730 0.54388 -0.01854
 O250 O 0.54347 0.43906 -0.01853
 O251 O 0.46227 0.56897 -0.01835
 Co252 Co 0.55796 0.50460 0.00178
 Co253 Co 0.44684 0.50410 0.00181
 Co254 Co 0.50134 0.56040 0.00226
 Co255 Co 0.50300 0.44892 0.00161
 O256 O 0.50231 0.50454 0.00186
 C257 C 0.55905 0.45475 -0.03826
 C258 C 0.44797 0.55194 -0.03800
 C259 C 0.55132 0.55909 -0.03785
 C260 C 0.45618 0.44841 -0.03873
 C261 C 1.21659 0.11589 0.19715
 C262 C 1.19687 0.09906 0.17626
 C263 C 1.16404 0.11106 0.17029
 C264 C 1.15059 0.13959 0.18617
 C265 C 1.17031 0.15653 0.20696
 C266 C 1.20375 0.14523 0.21228
 N267 N 1.14588 0.09521 0.14682
 N268 N 1.11579 0.10444 0.14034
 C269 C 1.09877 0.08973 0.11567
 C270 C 1.06495 0.09940 0.11056
 C271 C 1.04842 0.08695 0.08567
 C272 C 1.06575 0.06491 0.06534
 C273 C 1.09952 0.05488 0.07078
 C274 C 1.11585 0.06706 0.09574
 H275 H 1.24235 0.10680 0.20061
 H276 H 1.20755 0.07716 0.16409
 H277 H 1.12525 0.14933 0.18199
 H278 H 1.15963 0.17882 0.21857
 H279 H 1.05152 0.11692 0.12572
 H280 H 1.02234 0.09499 0.08208
 H281 H 1.11343 0.03770 0.05564
 H282 H 1.14202 0.05923 0.09913
 C283 C 1.22064 0.61381 0.69549
 C284 C 1.20039 0.59690 0.67505
 C285 C 1.16726 0.60867 0.66990
 C286 C 1.15418 0.63722 0.68597
 C287 C 1.17443 0.65422 0.70633
 C288 C 1.20803 0.64296 0.71102
 N289 N 1.14827 0.59238 0.64718
 N290 N 1.11792 0.60145 0.64137
 C291 C 1.10001 0.58611 0.61749
 C292 C 1.06642 0.59661 0.61241
 C293 C 1.04920 0.58378 0.58802
 C294 C 1.06560 0.56045 0.56820
 C295 C 1.09900 0.54934 0.57378
 C296 C 1.11604 0.56198 0.59820
 H297 H 1.24653 0.60478 0.69841
 H298 H 1.21080 0.57501 0.66269
 H299 H 1.12863 0.64680 0.68239
 H300 H 1.16394 0.67639 0.71825
 H301 H 1.05379 0.61521 0.62711
 H302 H 1.02342 0.59267 0.58432
 H303 H 1.11216 0.53112 0.55906
 H304 H 1.14197 0.55340 0.60163
 C305 C 0.69135 0.12600 0.71862
 C306 C 0.66854 0.11107 0.69911
 C307 C 0.66219 0.12612 0.67217
 C308 C 0.67925 0.15621 0.66472
 C309 C 0.70238 0.17090 0.68399
 C310 C 0.70865 0.15611 0.71128
 N311 N 0.63934 0.10979 0.65234
 N312 N 0.62875 0.12445 0.62955
 C313 C 0.60733 0.10749 0.60890
 C314 C 0.59390 0.12606 0.58584
 C315 C 0.57497 0.10965 0.56412
 C316 C 0.56964 0.07422 0.56499
 C317 C 0.58242 0.05581 0.58859
 C318 C 0.60097 0.07229 0.61041
 H319 H 0.69512 0.11414 0.73956
 H320 H 0.65562 0.08780 0.70507
 H321 H 0.67515 0.16805 0.64382
 H322 H 0.71576 0.19360 0.67724
 H323 H 0.59865 0.15320 0.58443
 H324 H 0.56546 0.12445 0.54619
 H325 H 0.57861 0.02848 0.58988
 H326 H 0.61112 0.05734 0.62797
 C327 C 0.72394 0.62426 0.19710
 C328 C 0.70336 0.60863 0.17621
 C329 C 0.67249 0.62386 0.16848
 C330 C 0.66188 0.65469 0.18247
 C331 C 0.68221 0.67014 0.20371
 C332 C 0.71372 0.65533 0.21107
 N333 N 0.65274 0.60752 0.14628
 N334 N 0.62723 0.62184 0.13464
 C335 C 0.60823 0.60450 0.11239
 C336 C 0.58460 0.62286 0.09613
 C337 C 0.56706 0.60668 0.07332
 C338 C 0.57267 0.57174 0.06677
 C339 C 0.59567 0.55325 0.08373
 C340 C 0.61339 0.56946 0.10616
 H341 H 0.74824 0.61239 0.20172
 H342 H 0.71182 0.58487 0.16553
 H343 H 0.63792 0.66674 0.17707
 H344 H 0.67317 0.69368 0.21439
 H345 H 0.58028 0.64986 0.10077
 H346 H 0.54933 0.62149 0.06074
 H347 H 0.60052 0.52627 0.07932
 H348 H 0.63127 0.55459 0.11852
 C349 C 0.84525 -0.18034 0.21088
 C350 C 0.86792 -0.16522 0.19096
 C351 C 0.85749 -0.13724 0.17471
 C352 C 0.82421 -0.12386 0.17919
 C353 C 0.80158 -0.13884 0.19923
 C354 C 0.81171 -0.16754 0.21498
 N355 N 0.88048 -0.12389 0.15292
 N356 N 0.87124 -0.10039 0.13587
 C357 C 0.89311 -0.08747 0.11311
 C358 C 0.87935 -0.06430 0.09362
 C359 C 0.89888 -0.05294 0.06980
 C360 C 0.93280 -0.06433 0.06520
 C361 C 0.94708 -0.08673 0.08536
 C362 C 0.92728 -0.09844 0.10910
 H363 H 0.85388 -0.20217 0.22301
 H364 H 0.89347 -0.17574 0.18775
 H365 H 0.81551 -0.10223 0.16688
 H366 H 0.77584 -0.12861 0.20177
 H367 H 0.85309 -0.05563 0.09653
 H368 H 0.88727 -0.03543 0.05479
 H369 H 0.97320 -0.09581 0.08237
 H370 H 0.93848 -0.11631 0.12400
 C371 C 0.84285 0.31149 0.70626
 C372 C 0.86547 0.32630 0.68615
 C373 C 0.85806 0.35812 0.67446
 C374 C 0.82818 0.37572 0.68394
 C375 C 0.80567 0.36123 0.70436
 C376 C 0.81216 0.32842 0.71553
 N377 N 0.88040 0.37127 0.65210
 N378 N 0.87235 0.39749 0.63765
 C379 C 0.89363 0.41035 0.61446
 C380 C 0.88022 0.43551 0.59662
 C381 C 0.89906 0.44700 0.57244
 C382 C 0.93202 0.43387 0.56594
 C383 C 0.94602 0.40942 0.58446
 C384 C 0.92684 0.39750 0.60846
 H385 H 0.85013 0.28706 0.71501
 H386 H 0.88861 0.31262 0.67924
 H387 H 0.82186 0.40042 0.67516
 H388 H 0.78229 0.37517 0.70986
 H389 H 0.85470 0.44562 0.60106
 H390 H 0.88769 0.46601 0.55867
 H391 H 0.97139 0.39895 0.57998
 H392 H 0.93777 0.37810 0.62208
 C393 C 0.33290 -0.19394 0.69598
 C394 C 0.35466 -0.17934 0.67504
 C395 C 0.34556 -0.14870 0.66193
 C396 C 0.31421 -0.13277 0.66991
 C397 C 0.29223 -0.14754 0.69055
 C398 C 0.30127 -0.17833 0.70385
 N399 N 0.36817 -0.13447 0.64032
 N400 N 0.36344 -0.10441 0.63105
 C401 C 0.38481 -0.08964 0.60887
 C402 C 0.38015 -0.05506 0.60295
 C403 C 0.39945 -0.03982 0.58079
 C404 C 0.42354 -0.05914 0.56377
 C405 C 0.42850 -0.09388 0.56989
 C406 C 0.40935 -0.10905 0.59242
 H407 H 0.34099 -0.21732 0.70615
 H408 H 0.37879 -0.19181 0.66914
 H409 H 0.30645 -0.10920 0.65987
 H410 H 0.26787 -0.13515 0.69566
 H411 H 0.36130 -0.03991 0.61548
 H412 H 0.39503 -0.01300 0.57663
 H413 H 0.44700 -0.10928 0.55719
 H414 H 0.41327 -0.13592 0.59662
 C415 C 0.30532 0.30369 0.17405
 C416 C 0.32733 0.31776 0.15306
 C417 C 0.33927 0.35098 0.15678
 C418 C 0.32903 0.37019 0.18197
 C419 C 0.30713 0.35619 0.20316
 C420 C 0.29474 0.32252 0.19972
 N421 N 0.36115 0.36476 0.13440
 N422 N 0.37085 0.39569 0.13533
 C423 C 0.39210 0.40976 0.11267
 C424 C 0.39745 0.44503 0.11300
 C425 C 0.41599 0.46005 0.09020
 C426 C 0.42988 0.43987 0.06674
 C427 C 0.42563 0.40426 0.06696
 C428 C 0.40668 0.38929 0.08968
 H429 H 0.29572 0.27845 0.16916
 H430 H 0.33470 0.30284 0.13351
 H431 H 0.33816 0.39596 0.18544
 H432 H 0.30123 0.37165 0.22266
 H433 H 0.38644 0.46103 0.13063
 H434 H 0.41903 0.48756 0.09070
 H435 H 0.43611 0.38813 0.04920
 H436 H 0.40304 0.36189 0.08907
 C437 C 0.78521 0.11908 -0.19703
 C438 C 0.80472 0.10146 -0.17687
 C439 C 0.83860 0.11061 -0.17209
 C440 C 0.85322 0.13700 -0.18845
 C441 C 0.83373 0.15470 -0.20854
 C442 C 0.79933 0.14634 -0.21266
 N443 N 0.85679 0.09421 -0.14933
 N444 N 0.88760 0.10131 -0.14370
 C445 C 0.90491 0.08625 -0.11977
 C446 C 0.93907 0.09449 -0.11513
 C447 C 0.95590 0.08210 -0.09074
 C448 C 0.93859 0.06148 -0.07045
 C449 C 0.90455 0.05262 -0.07554
 C450 C 0.88786 0.06483 -0.09999
 H451 H 0.75872 0.11227 -0.19955
 H452 H 0.79314 0.08124 -0.16432
 H453 H 0.87938 0.14450 -0.18521
 H454 H 0.84541 0.17528 -0.22059
 H455 H 0.95249 0.11101 -0.13019
 H456 H 0.98217 0.08921 -0.08744
 H457 H 0.89066 0.03651 -0.06044
 H458 H 0.86146 0.05808 -0.10307
 C459 C 0.78957 0.61934 0.30100
 C460 C 0.80935 0.60186 0.32108
 C461 C 0.84017 0.61535 0.33051
 C462 C 0.85140 0.64645 0.31928
 C463 C 0.83158 0.66421 0.29950
 C464 C 0.79995 0.65130 0.29018
 N465 N 0.85869 0.59793 0.35253
 N466 N 0.88811 0.60741 0.36044
 C467 C 0.90565 0.59120 0.38370
 C468 C 0.93905 0.60097 0.38982
 C469 C 0.95593 0.58728 0.41368
 C470 C 0.93933 0.56391 0.43202
 C471 C 0.90607 0.55363 0.42545
 C472 C 0.88941 0.56702 0.40146
 H473 H 0.76527 0.60844 0.29544
 H474 H 0.80027 0.57797 0.32978
 H475 H 0.87530 0.65733 0.32608
 H476 H 0.84183 0.68768 0.29100
 H477 H 0.95182 0.61963 0.37633
 H478 H 0.98156 0.59560 0.41820
 H479 H 0.89275 0.53544 0.43905
 H480 H 0.86359 0.55907 0.39723
 C481 C 0.30092 0.11733 0.28695
 C482 C 0.32251 0.10182 0.30683
 C483 C 0.33446 0.12026 0.33102
 C484 C 0.32420 0.15446 0.33544
 C485 C 0.30243 0.17001 0.31582
 C486 C 0.29043 0.15194 0.29089
 N487 N 0.35628 0.10354 0.35113
 N488 N 0.37057 0.11979 0.37192
 C489 C 0.39141 0.10298 0.39272
 C490 C 0.40739 0.12264 0.41435
 C491 C 0.42612 0.10685 0.43611
 C492 C 0.42889 0.07102 0.43663
 C493 C 0.41357 0.05139 0.41442
 C494 C 0.39503 0.06721 0.39263
 H495 H 0.29382 0.10221 0.26796
 H496 H 0.33031 0.07538 0.30316
 H497 H 0.33257 0.16910 0.35435
 H498 H 0.29419 0.19592 0.32121
 H499 H 0.40479 0.15024 0.41463
 H500 H 0.43768 0.12260 0.45291
 H501 H 0.41536 0.02371 0.41419
 H502 H 0.38295 0.05144 0.37614
 C503 C 0.28630 0.61485 -0.19931
 C504 C 0.30657 0.59931 -0.17848
 C505 C 0.33495 0.61601 -0.16738
 C506 C 0.34356 0.64822 -0.17791
 C507 C 0.32362 0.66375 -0.19892
 C508 C 0.29409 0.64773 -0.20979
 N509 N 0.35424 0.59993 -0.14516
 N510 N 0.37772 0.61529 -0.13147
 C511 C 0.39647 0.59885 -0.10907
 C512 C 0.41840 0.61819 -0.09163
 C513 C 0.43563 0.60303 -0.06861
 C514 C 0.43134 0.56816 -0.06297
 C515 C 0.41005 0.54865 -0.08108
 C516 C 0.39267 0.56386 -0.10380
 H517 H 0.26368 0.60143 -0.20583
 H518 H 0.29963 0.57443 -0.17040
 H519 H 0.36583 0.66137 -0.17004
 H520 H 0.33236 0.68795 -0.20707
 H521 H 0.42163 0.64518 -0.09555
 H522 H 0.45204 0.61859 -0.05513
 H523 H 0.40629 0.52167 -0.07737
 H524 H 0.37606 0.54829 -0.11707
 C525 C 1.22913 -0.14084 -0.19709
 C526 C 1.20982 -0.12232 -0.17574
 C527 C 1.17575 -0.13071 -0.16974
 C528 C 1.16088 -0.15757 -0.18575
 C529 C 1.18018 -0.17620 -0.20696
 C530 C 1.21460 -0.16827 -0.21264
 N531 N 1.15728 -0.11266 -0.14653
 N532 N 1.12603 -0.11861 -0.14050
 C533 C 1.10785 -0.10173 -0.11650
 C534 C 1.07322 -0.10878 -0.11179
 C535 C 1.05517 -0.09416 -0.08766
 C536 C 1.07167 -0.07242 -0.06768
 C537 C 1.10630 -0.06490 -0.07274
 C538 C 1.12426 -0.07939 -0.09696
 H539 H 1.25567 -0.13439 -0.20083
 H540 H 1.22159 -0.10176 -0.16348
 H541 H 1.13457 -0.16455 -0.18154
 H542 H 1.16823 -0.19694 -0.21888
 H543 H 1.06032 -0.12598 -0.12669
 H544 H 1.02847 -0.10029 -0.08439
 H545 H 1.11959 -0.04801 -0.05785
 H546 H 1.15102 -0.07355 -0.10014
 C547 C 1.22218 0.36438 0.29675
 C548 C 1.20268 0.38297 0.31795
 C549 C 1.16900 0.37369 0.32465
 C550 C 1.15461 0.34606 0.30930
 C551 C 1.17410 0.32736 0.28825
 C552 C 1.20826 0.33598 0.28209
 N553 N 1.15069 0.39136 0.34819
 N554 N 1.11980 0.38460 0.35497
 C555 C 1.10204 0.40084 0.37953
 C556 C 1.06763 0.39328 0.38488
 C557 C 1.05017 0.40698 0.40974
 C558 C 1.06708 0.42824 0.42982
 C559 C 1.10146 0.43631 0.42410
 C560 C 1.11880 0.42280 0.39915
 H561 H 1.24850 0.37141 0.29261
 H562 H 1.21409 0.40415 0.32970
 H563 H 1.12861 0.33840 0.31404
 H564 H 1.16262 0.30585 0.27701
 H565 H 1.05445 0.37634 0.36996
 H566 H 1.02367 0.40043 0.41351
 H567 H 1.11507 0.45286 0.43905
 H568 H 1.14541 0.42901 0.39552
 C569 C 0.73214 -0.13241 0.30879
 C570 C 0.71166 -0.11434 0.32959
 C571 C 0.67907 -0.12596 0.33728
 C572 C 0.66669 -0.15554 0.32335
 C573 C 0.68693 -0.17337 0.30222
 C574 C 0.72012 -0.16229 0.29490
 N575 N 0.65931 -0.10743 0.35943
 N576 N 0.63219 -0.11932 0.37115
 C577 C 0.61281 -0.10037 0.39331
 C578 C 0.58731 -0.11689 0.40960
 C579 C 0.56903 -0.09933 0.43222
 C580 C 0.57569 -0.06474 0.43852
 C581 C 0.60067 -0.04799 0.42160
 C582 C 0.61923 -0.06568 0.39935
 H583 H 0.75769 -0.12337 0.30414
 H584 H 0.72149 -0.09158 0.34022
 H585 H 0.64139 -0.16478 0.32871
 H586 H 0.67649 -0.19580 0.29155
 H587 H 0.58204 -0.14360 0.40509
 H588 H 0.54977 -0.11278 0.44479
 H589 H 0.60632 -0.02132 0.42591
 H590 H 0.63862 -0.05225 0.38693
 C591 C 0.73276 0.36659 -0.19216
 C592 C 0.71229 0.38526 -0.17176
 C593 C 0.67923 0.37454 -0.16460
 C594 C 0.66636 0.34531 -0.17874
 C595 C 0.68659 0.32689 -0.19950
 C596 C 0.72024 0.33703 -0.20622
 N597 N 0.65960 0.39342 -0.14260
 N598 N 0.63210 0.38202 -0.13119
 C599 C 0.61291 0.40108 -0.10900
 C600 C 0.58724 0.38471 -0.09281
 C601 C 0.56942 0.40216 -0.06989
 C602 C 0.57668 0.43653 -0.06320
 C603 C 0.60171 0.45322 -0.08010
 C604 C 0.61985 0.43560 -0.10266
 H605 H 0.75867 0.37487 -0.19633
 H606 H 0.72251 0.40772 -0.16094
 H607 H 0.64071 0.33674 -0.17378
 H608 H 0.67583 0.30471 -0.21030
 H609 H 0.58158 0.35814 -0.09755
 H610 H 0.55012 0.38877 -0.05732
 H611 H 0.60780 0.47972 -0.07548
 H612 H 0.63939 0.44889 -0.11501
 C613 C 1.11472 0.21686 -0.20037
 C614 C 1.09842 0.19507 -0.18064
 C615 C 1.11398 0.16443 -0.17274
 C616 C 1.14579 0.15515 -0.18552
 C617 C 1.16236 0.17697 -0.20502
 C618 C 1.14756 0.20874 -0.21238
 N619 N 1.09806 0.14449 -0.15031
 N620 N 1.10961 0.11540 -0.14302
 C621 C 1.09462 0.09706 -0.11908
 C622 C 1.10590 0.06368 -0.11375
 C623 C 1.09322 0.04614 -0.08934
 C624 C 1.06946 0.06210 -0.06964
 C625 C 1.05785 0.09538 -0.07532
 C626 C 1.07014 0.11262 -0.09985
 H627 H 1.10225 0.24103 -0.20443
 H628 H 1.07393 0.20261 -0.17077
 H629 H 1.15823 0.13139 -0.17997
 H630 H 1.18662 0.16837 -0.21459
 H631 H 1.12484 0.05142 -0.12834
 H632 H 1.10254 0.02049 -0.08551
 H633 H 1.03937 0.10824 -0.06065
 H634 H 1.06106 0.13842 -0.10338
 C635 C 1.11386 0.71550 0.30133
 C636 C 1.09813 0.69431 0.32187
 C637 C 1.11463 0.66472 0.33107
 C638 C 1.14700 0.65608 0.31909
 C639 C 1.16304 0.67739 0.29886
 C640 C 1.14704 0.70788 0.28983
 N641 N 1.09884 0.64503 0.35374
 N642 N 1.11059 0.61609 0.36119
 C643 C 1.09572 0.59771 0.38514
 C644 C 1.10641 0.56401 0.38984
 C645 C 1.09351 0.54613 0.41395
 C646 C 1.07016 0.56206 0.43403
 C647 C 1.05930 0.59577 0.42911
 C648 C 1.07177 0.61337 0.40482
 H649 H 1.10058 0.73887 0.29607
 H650 H 1.07324 0.70140 0.33116
 H651 H 1.16021 0.63318 0.32574
 H652 H 1.18775 0.66928 0.28989
 H653 H 1.12494 0.55168 0.37488
 H654 H 1.10226 0.52015 0.41719
 H655 H 1.04116 0.60862 0.44410
 H656 H 1.06321 0.63943 0.40177
 C657 C 0.62607 0.22449 0.30559
 C658 C 0.60943 0.20459 0.32653
 C659 C 0.62338 0.17318 0.33451
 C660 C 0.65405 0.16146 0.32093
 C661 C 0.67053 0.18113 0.29969
 C662 C 0.65688 0.21304 0.29189
 N663 N 0.60592 0.15394 0.35653
 N664 N 0.61905 0.12769 0.36805
 C665 C 0.60083 0.10909 0.39011
 C666 C 0.61825 0.08478 0.40638
 C667 C 0.60137 0.06771 0.42915
 C668 C 0.56664 0.07446 0.43563
 C669 C 0.54900 0.09805 0.41860
 C670 C 0.56596 0.11534 0.39619
 H671 H 0.61510 0.24913 0.30057
 H672 H 0.58583 0.21391 0.33693
 H673 H 0.66514 0.13708 0.32658
 H674 H 0.69383 0.17119 0.28921
 H675 H 0.64511 0.07962 0.40182
 H676 H 0.61550 0.04950 0.44182
 H677 H 0.52220 0.10375 0.42300
 H678 H 0.55184 0.13379 0.38377
 C679 C 0.62152 0.72175 -0.19868
 C680 C 0.60542 0.70144 -0.17772
 C681 C 0.62230 0.67327 -0.16634
 C682 C 0.65551 0.66509 -0.17654
 C683 C 0.67167 0.68512 -0.19769
 C684 C 0.65521 0.71422 -0.20911
 N685 N 0.60522 0.65376 -0.14425
 N686 N 0.61998 0.62996 -0.13058
 C687 C 0.60228 0.61111 -0.10837
 C688 C 0.62060 0.58849 -0.09110
 C689 C 0.60412 0.57108 -0.06830
 C690 C 0.56892 0.57591 -0.06267
 C691 C 0.55047 0.59791 -0.08060
 C692 C 0.56698 0.61545 -0.10312
 H693 H 0.60774 0.74422 -0.20536
 H694 H 0.57982 0.70814 -0.16983
 H695 H 0.66892 0.64306 -0.16835
 H696 H 0.69672 0.67676 -0.20560
 H697 H 0.64780 0.58482 -0.09498
 H698 H 0.61890 0.55413 -0.05495
 H699 H 0.52330 0.60210 -0.07690
 H700 H 0.55217 0.63259 -0.11625
 C701 C 0.81978 -0.15770 -0.21139
 C702 C 0.83543 -0.13523 -0.19173
 C703 C 0.86373 -0.14597 -0.17611
 C704 C 0.87685 -0.17932 -0.18094
 C705 C 0.86135 -0.20172 -0.20070
 C706 C 0.83241 -0.19128 -0.21585
 N707 N 0.87775 -0.12325 -0.15459
 N708 N 0.90152 -0.13292 -0.13808
 C709 C 0.91516 -0.11135 -0.11559
 C710 C 0.93841 -0.12557 -0.09646
 C711 C 0.95045 -0.10627 -0.07286
 C712 C 0.93965 -0.07214 -0.06819
 C713 C 0.91718 -0.05742 -0.08801
 C714 C 0.90481 -0.07697 -0.11150
 H715 H 0.79775 -0.14886 -0.22306
 H716 H 0.82512 -0.10961 -0.18823
 H717 H 0.89870 -0.18826 -0.16912
 H718 H 0.87141 -0.22753 -0.20349
 H719 H 0.94660 -0.15200 -0.09946
 H720 H 0.96799 -0.11818 -0.05810
 H721 H 0.90856 -0.03113 -0.08496
 H722 H 0.88690 -0.06543 -0.12613
 C723 C 0.82107 0.34279 0.28691
 C724 C 0.83621 0.36589 0.30635
 C725 C 0.86478 0.35602 0.32202
 C726 C 0.87878 0.32300 0.31734
 C727 C 0.86379 0.29998 0.29783
 C728 C 0.83449 0.30946 0.28276
 N729 N 0.87798 0.37906 0.34370
 N730 N 0.90160 0.36963 0.36045
 C731 C 0.91454 0.39101 0.38335
 C732 C 0.93732 0.37653 0.40272
 C733 C 0.94850 0.39537 0.42685
 C734 C 0.93740 0.42935 0.43184
 C735 C 0.91545 0.44442 0.41179
 C736 C 0.90383 0.42525 0.38775
 H737 H 0.79874 0.35089 0.27527
 H738 H 0.82520 0.39125 0.30974
 H739 H 0.90087 0.31472 0.32918
 H740 H 0.87448 0.27439 0.29526
 H741 H 0.94574 0.35020 0.39948
 H742 H 0.96566 0.38320 0.44178
 H743 H 0.90663 0.47061 0.41511
 H744 H 0.88624 0.43695 0.37292
 C745 C 0.30694 -0.16182 0.30200
 C746 C 0.32157 -0.13977 0.32261
 C747 C 0.35215 -0.14871 0.33575
 C748 C 0.36806 -0.18017 0.32801
 C749 C 0.35325 -0.20246 0.30766
 C750 C 0.32242 -0.19363 0.29443
 N751 N 0.36613 -0.12588 0.35727
 N752 N 0.39599 -0.13040 0.36692
 C753 C 0.41019 -0.10869 0.38912
 C754 C 0.44452 -0.11329 0.39578
 C755 C 0.45903 -0.09389 0.41821
 C756 C 0.43926 -0.06972 0.43476
 C757 C 0.40485 -0.06468 0.42778
 C758 C 0.39041 -0.08395 0.40502
 H759 H 0.28357 -0.15382 0.29187
 H760 H 0.30909 -0.11557 0.32831
 H761 H 0.39160 -0.18782 0.33805
 H762 H 0.36561 -0.22691 0.30279
 H763 H 0.45999 -0.13226 0.38371
 H764 H 0.48562 -0.09840 0.42301
 H765 H 0.38907 -0.04616 0.44008
 H766 H 0.36375 -0.08001 0.40026
 C767 C 0.30625 0.33432 -0.19264
 C768 C 0.32069 0.35618 -0.17183
 C769 C 0.35355 0.35000 -0.16205
 C770 C 0.37213 0.32161 -0.17353
 C771 C 0.35770 0.29943 -0.19419
 C772 C 0.32419 0.30503 -0.20407
 N773 N 0.36713 0.37242 -0.14002
 N774 N 0.39807 0.37021 -0.13243
 C775 C 0.41190 0.39160 -0.10983
 C776 C 0.44687 0.38935 -0.10489
 C777 C 0.46122 0.40848 -0.08223
 C778 C 0.44071 0.43008 -0.06376
 C779 C 0.40560 0.43281 -0.06901
 C780 C 0.39126 0.41376 -0.09196
 H781 H 0.28131 0.34142 -0.20023
 H782 H 0.30623 0.37823 -0.16341
 H783 H 0.39758 0.31609 -0.16608
 H784 H 0.37259 0.27711 -0.20111
 H785 H 0.46301 0.37239 -0.11849
 H786 H 0.48837 0.40582 -0.07884
 H787 H 0.38923 0.44933 -0.05521
 H788 H 0.36409 0.41587 -0.09537
 C789 C 1.11397 -0.21440 0.20139
 C790 C 1.09770 -0.19490 0.18037
 C791 C 1.11147 -0.16396 0.17130
 C792 C 1.14151 -0.15222 0.18397
 C793 C 1.15807 -0.17175 0.20472
 C794 C 1.14500 -0.20360 0.21357
 N795 N 1.09557 -0.14590 0.14817
 N796 N 1.10552 -0.11656 0.14021
 C797 C 1.09093 -0.09939 0.11597
 C798 C 1.10094 -0.06594 0.11001
 C799 C 1.08873 -0.04926 0.08546
 C800 C 1.06664 -0.06609 0.06623
 C801 C 1.05620 -0.09947 0.07253
 C802 C 1.06812 -0.11595 0.09723
 H803 H 1.10305 -0.23889 0.20650
 H804 H 1.07463 -0.20436 0.17060
 H805 H 1.15255 -0.12819 0.17750
 H806 H 1.18079 -0.16120 0.21422
 H807 H 1.11857 -0.05293 0.12425
 H808 H 1.09712 -0.02352 0.08119
 H809 H 1.03896 -0.11295 0.05823
 H810 H 1.06006 -0.14183 0.10131
 C811 C 1.15958 0.34057 0.71788
 C812 C 1.14555 0.36334 0.69814
 C813 C 1.12088 0.35232 0.67852
 C814 C 1.10925 0.31845 0.67973
 C815 C 1.12314 0.29569 0.69957
 C816 C 1.14901 0.30632 0.71839
 N817 N 1.10964 0.37520 0.65648
 N818 N 1.08951 0.36544 0.63657
 C819 C 1.07907 0.38696 0.61333
 C820 C 1.05857 0.37291 0.59165
 C821 C 1.04965 0.39200 0.56748
 C822 C 1.06093 0.42578 0.56460
 C823 C 1.08081 0.44034 0.58680
 C824 C 1.09000 0.42098 0.61098
 H825 H 1.17920 0.34955 0.73239
 H826 H 1.15468 0.38935 0.69751
 H827 H 1.09014 0.30928 0.66482
 H828 H 1.11472 0.26941 0.69931
 H829 H 1.04999 0.34677 0.59323
 H830 H 1.03401 0.38016 0.55092
 H831 H 1.08969 0.46637 0.58519
 H832 H 1.10590 0.43239 0.62755
 C833 C 0.61848 -0.21060 0.70174
 C834 C 0.60093 -0.19048 0.68195
 C835 C 0.61584 -0.16124 0.67043
 C836 C 0.64838 -0.15176 0.67942
 C837 C 0.66596 -0.17163 0.69928
 C838 C 0.65167 -0.20186 0.71065
 N839 N 0.59787 -0.14215 0.64910
 N840 N 0.61145 -0.11724 0.63579
 C841 C 0.59387 -0.09863 0.61394
 C842 C 0.61181 -0.07454 0.59752
 C843 C 0.59606 -0.05758 0.57470
 C844 C 0.56191 -0.06431 0.56816
 C845 C 0.54359 -0.08765 0.58536
 C846 C 0.55947 -0.10481 0.60796
 H847 H 0.60635 -0.23387 0.70863
 H848 H 0.57588 -0.19818 0.67501
 H849 H 0.66028 -0.12893 0.67115
 H850 H 0.69039 -0.16231 0.70626
 H851 H 0.63831 -0.06948 0.60199
 H852 H 0.61070 -0.03955 0.56195
 H853 H 0.51720 -0.09330 0.58089
 H854 H 0.54500 -0.12318 0.62046
 C855 C 0.62432 0.28413 0.19601
 C856 C 0.60718 0.30398 0.17579
 C857 C 0.61981 0.33588 0.16784
 C858 C 0.64935 0.34830 0.18098
 C859 C 0.66626 0.32873 0.20145
 C860 C 0.65427 0.29615 0.20889
 N861 N 0.60262 0.35481 0.14601
 N862 N 0.61566 0.38107 0.13434
 C863 C 0.59838 0.39962 0.11231
 C864 C 0.61630 0.42398 0.09615
 C865 C 0.60058 0.44103 0.07335
 C866 C 0.56647 0.43423 0.06674
 C867 C 0.54823 0.41058 0.08366
 C868 C 0.56409 0.39326 0.10611
 H869 H 0.61460 0.25906 0.20096
 H870 H 0.58441 0.29416 0.16577
 H871 H 0.65936 0.37309 0.17543
 H872 H 0.68876 0.33914 0.21147
 H873 H 0.64272 0.42917 0.10082
 H874 H 0.61513 0.45929 0.06078
 H875 H 0.52187 0.40487 0.07913
 H876 H 0.54962 0.37475 0.11845
 C877 C 0.86670 0.22978 0.18801
 C878 C 0.88447 0.20930 0.16707
 C879 C 0.87622 0.17483 0.16314
 C880 C 0.85023 0.16074 0.18077
 C881 C 0.83236 0.18121 0.20167
 C882 C 0.84021 0.21602 0.20532
 N883 N 0.89359 0.15520 0.14029
 N884 N 0.88771 0.12365 0.13557
 C885 C 0.90426 0.10477 0.11180
 C886 C 0.89721 0.06998 0.10791
 C887 C 0.91156 0.05138 0.08394
 C888 C 0.93300 0.06751 0.06339
 C889 C 0.94055 0.10227 0.06768
 C890 C 0.92635 0.12075 0.09168
 H891 H 0.87304 0.25659 0.19010
 H892 H 0.90435 0.22045 0.15349
 H893 H 0.84341 0.13413 0.17812
 H894 H 0.81233 0.16986 0.21496
 H895 H 0.88022 0.05740 0.12327
 H896 H 0.90544 0.02458 0.08124
 H897 H 0.95723 0.11528 0.05234
 H898 H 0.93224 0.14762 0.09422
 C899 C 0.86415 0.73009 0.68860
 C900 C 0.88203 0.70945 0.66784
 C901 C 0.87328 0.67515 0.66358
 C902 C 0.84655 0.66144 0.68063
 C903 C 0.82855 0.68209 0.70134
 C904 C 0.83702 0.71670 0.70540
 N905 N 0.89106 0.65531 0.64108
 N906 N 0.88508 0.62378 0.63627
 C907 C 0.90218 0.60471 0.61288
 C908 C 0.89503 0.56995 0.60889
 C909 C 0.90994 0.55118 0.58525
 C910 C 0.93207 0.56710 0.56511
 C911 C 0.93976 0.60182 0.56954
 C912 C 0.92500 0.62046 0.59321
 H913 H 0.87098 0.75674 0.69100
 H914 H 0.90247 0.72032 0.65471
 H915 H 0.83932 0.63498 0.67770
 H916 H 0.80801 0.67101 0.71421
 H917 H 0.87750 0.55752 0.62390
 H918 H 0.90368 0.52444 0.58245
 H919 H 0.95695 0.61469 0.55452
 H920 H 0.93100 0.64729 0.59583
 C921 C 0.36401 0.22912 0.70115
 C922 C 0.38244 0.20938 0.68001
 C923 C 0.37103 0.17699 0.67138
 C924 C 0.34141 0.16397 0.68484
 C925 C 0.32323 0.18344 0.70628
 C926 C 0.33397 0.21651 0.71441
 N927 N 0.38960 0.15821 0.64861
 N928 N 0.37776 0.13154 0.63614
 C929 C 0.39650 0.11313 0.61322
 C930 C 0.37994 0.08805 0.59659
 C931 C 0.39718 0.07079 0.57320
 C932 C 0.43151 0.07807 0.56643
 C933 C 0.44831 0.10262 0.58369
 C934 C 0.43093 0.12015 0.60673
 H935 H 0.37281 0.25460 0.70644
 H936 H 0.40523 0.21971 0.66977
 H937 H 0.33231 0.13881 0.67878
 H938 H 0.30066 0.17258 0.71645
 H939 H 0.35343 0.08233 0.60142
 H940 H 0.38367 0.05190 0.56038
 H941 H 0.47477 0.10875 0.57905
 H942 H 0.44437 0.13925 0.61938
 C943 C 0.36137 0.73099 0.19833
 C944 C 0.38019 0.71115 0.17752
 C945 C 0.36923 0.67849 0.16919
 C946 C 0.33954 0.66541 0.18249
 C947 C 0.32094 0.68501 0.20357
 C948 C 0.33135 0.71825 0.21151
 N949 N 0.38841 0.65941 0.14698
 N950 N 0.37725 0.63210 0.13509
 C951 C 0.39657 0.61332 0.11277
 C952 C 0.38069 0.58731 0.09667
 C953 C 0.39847 0.56967 0.07381
 C954 C 0.43265 0.57750 0.06703
 C955 C 0.44882 0.60293 0.08380
 C956 C 0.43090 0.62084 0.10632
 H957 H 0.36994 0.75658 0.20353
 H958 H 0.40303 0.72153 0.16739
 H959 H 0.33076 0.64007 0.17665
 H960 H 0.29842 0.67404 0.21371
 H961 H 0.35428 0.58117 0.10151
 H962 H 0.38548 0.55002 0.06139
 H963 H 0.47517 0.60949 0.07912
 H964 H 0.44383 0.64065 0.11858
   
