data_POSCAR
  _audit_creation_date              2014-09-24
  _audit_creation_method            'ToBaCCo'
  _symmetry_space_group_name_H-M    'P1'
  _symmetry_Int_Tables_number       1
  _symmetry_cell_setting            triclinic
  loop_
  _symmetry_equiv_pos_as_xyz
 x,y,z
_cell_length_a 42.5771
_cell_length_b 44.0233
_cell_length_c 43.0708
_cell_angle_alpha 90.451200
_cell_angle_beta 89.549400
_cell_angle_gamma 83.233400
loop_
  _atom_site_label
  _atom_site_type_symbol
  _atom_site_fract_x
  _atom_site_fract_y
  _atom_site_fract_z
C1 C 1.22990 0.22677 0.20764
 C2 C 1.24986 0.24640 0.18819
 C3 C 1.26786 0.26384 0.20526
 C4 C 1.26425 0.25994 0.24067
 C5 C 1.25365 0.20814 0.22850
 C6 C 1.27154 0.22525 0.24603
 C7 C 1.21066 0.24946 0.22954
 C8 C 1.22843 0.26679 0.24702
 H9 H 1.24952 0.24667 0.16306
 H10 H 1.27890 0.27402 0.25474
 H11 H 1.25528 0.18344 0.22988
 H12 H 1.18512 0.25111 0.23137
 C13 C 0.73102 -0.27540 0.19352
 C14 C 0.75137 -0.25475 0.17597
 C15 C 0.76855 -0.23804 0.19482
 C16 C 0.76377 -0.24378 0.22982
 C17 C 0.75414 -0.29499 0.21417
 C18 C 0.77111 -0.27868 0.23349
 C19 C 0.71091 -0.25397 0.21578
 C20 C 0.72777 -0.23754 0.23500
 H21 H 0.75184 -0.25327 0.15089
 H22 H 0.77769 -0.23030 0.24532
 H23 H 0.75566 -0.31973 0.21444
 H24 H 0.68535 -0.25272 0.21671
 C25 C 0.73042 0.22634 -0.30706
 C26 C 0.75008 0.24589 -0.32364
 C27 C 0.76811 0.26330 -0.30351
 C28 C 0.76294 0.25749 -0.27034
 C29 C 0.75218 0.20734 -0.28743
 C30 C 0.76990 0.22426 -0.26674
 C31 C 0.71102 0.24678 -0.28605
 C32 C 0.72867 0.26382 -0.26549
 H33 H 0.75096 0.24751 -0.34871
 H34 H 0.77684 0.27080 -0.25461
 H35 H 0.75400 0.18255 -0.28765
 H36 H 0.68538 0.24859 -0.28564
 C37 C 1.23331 -0.27389 -0.29182
 C38 C 1.25350 -0.25464 -0.31144
 C39 C 1.27118 -0.23681 -0.29446
 C40 C 1.26707 -0.24000 -0.25905
 C41 C 1.25676 -0.29205 -0.27033
 C42 C 1.27434 -0.27453 -0.25294
 C43 C 1.21370 -0.25080 -0.27060
 C44 C 1.23120 -0.23309 -0.25328
 H45 H 1.25347 -0.25481 -0.33658
 H46 H 1.28149 -0.22560 -0.24508
 H47 H 1.25845 -0.31672 -0.26846
 H48 H 1.18815 -0.24914 -0.26912
 C49 C 0.22820 0.22987 0.79274
 C50 C 0.24776 0.24754 0.81136
 C51 C 0.26692 0.26577 0.79365
 C52 C 0.26292 0.26281 0.76009
 C53 C 0.20902 0.25332 0.77196
 C54 C 0.22711 0.27054 0.75468
 C55 C 0.25104 0.21113 0.77033
 C56 C 0.26925 0.22820 0.75304
 H57 H 0.24741 0.24731 0.83652
 H58 H 0.27768 0.27674 0.74594
 H59 H 0.18349 0.25550 0.77040
 H60 H 0.25184 0.18655 0.76779
 C61 C 0.72191 0.73417 0.80688
 C62 C 0.74274 0.75243 0.82345
 C63 C 0.76205 0.76869 0.80348
 C64 C 0.75675 0.76318 0.77025
 C65 C 0.70373 0.75560 0.78628
 C66 C 0.72271 0.77141 0.76576
 C67 C 0.74251 0.71411 0.78646
 C68 C 0.76174 0.72983 0.76605
 H69 H 0.74304 0.75422 0.84857
 H70 H 0.77164 0.77559 0.75462
 H71 H 0.67814 0.75880 0.78552
 H72 H 0.74231 0.68950 0.78575
 C73 C 0.72340 0.23421 0.30737
 C74 C 0.74582 0.25284 0.32466
 C75 C 0.76432 0.26812 0.30573
 C76 C 0.75871 0.26298 0.27074
 C77 C 0.70473 0.25714 0.28593
 C78 C 0.72297 0.27203 0.26655
 C79 C 0.74464 0.21316 0.28556
 C80 C 0.76308 0.22796 0.26624
 H81 H 0.74631 0.25432 0.34976
 H82 H 0.77371 0.27528 0.25515
 H83 H 0.67914 0.26026 0.28508
 H84 H 0.74405 0.18863 0.28480
 C85 C 0.22550 0.73029 0.29134
 C86 C 0.24572 0.74958 0.31072
 C87 C 0.26410 0.76668 0.29367
 C88 C 0.26047 0.76282 0.25825
 C89 C 0.20657 0.75324 0.26996
 C90 C 0.22471 0.77021 0.25248
 C91 C 0.24889 0.71131 0.26973
 C92 C 0.26718 0.72809 0.25224
 H93 H 0.24519 0.74975 0.33587
 H94 H 0.27540 0.77663 0.24419
 H95 H 0.18106 0.75528 0.26820
 H96 H 0.24998 0.68665 0.26781
 N97 N 1.02347 0.03564 0.05402
 N98 N 1.04459 0.04177 0.07476
 N99 N 0.95472 0.05558 0.03274
 N100 N 0.93340 0.07842 0.04133
 N101 N 0.95766 0.03435 0.05420
 N102 N 0.93834 0.04227 0.07778
 N103 N 1.02048 0.05671 0.03251
 N104 N 1.03946 0.07772 0.03795
 C105 C 1.05448 0.06798 0.06422
 C106 C 0.92296 0.06949 0.06915
 N107 N 0.95864 0.03417 -0.05635
 N108 N 0.94010 0.04226 -0.08004
 N109 N 1.02109 0.05650 -0.03408
 N110 N 1.04050 0.07724 -0.03883
 N111 N 1.02446 0.03540 -0.05595
 N112 N 1.04629 0.04127 -0.07629
 N113 N 0.95536 0.05549 -0.03458
 N114 N 0.93456 0.07852 -0.04308
 Mn115 Mn 0.98782 0.05624 -0.00086
 C116 C 0.92480 0.06966 -0.07117
 C117 C 1.05618 0.06734 -0.06509
 N118 N 0.96726 -0.03189 0.05364
 N119 N 0.94729 -0.03888 0.07535
 N120 N 1.03643 -0.05164 0.03202
 N121 N 1.06014 -0.07265 0.03876
 N122 N 1.03305 -0.03023 0.05360
 N123 N 1.05439 -0.03604 0.07549
 N124 N 0.97063 -0.05314 0.03188
 N125 N 0.95301 -0.07509 0.03818
 Mn126 Mn 0.99533 0.00195 0.05410
 C127 C 0.93835 -0.06570 0.06515
 C128 C 1.07136 -0.06233 0.06572
 N129 N 1.03397 -0.03049 -0.05648
 N130 N 1.05598 -0.03620 -0.07817
 N131 N 0.97116 -0.05336 -0.03524
 N132 N 0.95343 -0.07523 -0.04169
 N133 N 0.96813 -0.03220 -0.05672
 N134 N 0.94827 -0.03920 -0.07838
 N135 N 1.03699 -0.05174 -0.03512
 N136 N 1.06111 -0.07254 -0.04179
 Mn137 Mn 0.99626 0.00170 -0.05663
 Mn138 Mn 1.00384 -0.05274 -0.00162
 Cl139 Cl 0.99567 0.00178 -0.00126
 C140 C 1.07294 -0.06227 -0.06849
 C141 C 0.93905 -0.06594 -0.06848
 N142 N 0.96010 0.53411 0.44788
 N143 N 0.94146 0.54179 0.42417
 N144 N 1.02224 0.55683 0.47040
 N145 N 1.04107 0.57802 0.46523
 N146 N 1.02586 0.53561 0.44866
 N147 N 1.04726 0.54184 0.42803
 N148 N 0.95654 0.55554 0.46950
 N149 N 0.93548 0.57830 0.46088
 C150 C 0.92585 0.56909 0.43286
 C151 C 1.05669 0.56823 0.43889
 N152 N 1.02387 0.53611 0.55860
 N153 N 1.04540 0.54192 0.57904
 N154 N 0.95531 0.55594 0.53683
 N155 N 0.93415 0.57896 0.54533
 N156 N 0.95808 0.53481 0.55840
 N157 N 0.93882 0.54303 0.58197
 N158 N 1.02104 0.55709 0.53700
 N159 N 1.04052 0.57773 0.54205
 Mn160 Mn 0.98869 0.55652 0.50344
 C161 C 1.05563 0.56786 0.56823
 C162 C 0.92363 0.57030 0.57322
 N163 N 1.03561 0.46971 0.44833
 N164 N 1.05724 0.46355 0.42635
 N165 N 0.97268 0.44679 0.46920
 N166 N 0.95506 0.42489 0.46260
 N167 N 0.96983 0.46791 0.44768
 N168 N 0.95020 0.46088 0.42585
 N169 N 1.03846 0.44845 0.46969
 N170 N 1.06209 0.42720 0.46268
 Mn171 Mn 0.99782 0.50182 0.44790
 C172 C 1.07385 0.43723 0.43583
 C173 C 0.94095 0.43415 0.43569
 N174 N 0.96782 0.46842 0.55801
 N175 N 0.94773 0.46134 0.57959
 N176 N 1.03727 0.44889 0.53685
 N177 N 1.06135 0.42826 0.54346
 N178 N 1.03360 0.47029 0.55843
 N179 N 1.05510 0.46486 0.58021
 N180 N 0.97150 0.44711 0.53630
 N181 N 0.95398 0.42506 0.54252
 Mn182 Mn 0.99579 0.50239 0.55861
 Mn183 Mn 1.00502 0.44754 0.50302
 Cl184 Cl 0.99669 0.50206 0.50324
 C185 C 0.93904 0.43440 0.56938
 C186 C 1.07246 0.43880 0.57037
 N187 N 0.55669 0.01718 0.53139
 N188 N 0.57774 0.03661 0.53448
 N189 N 0.53219 -0.04177 0.55492
 N190 N 0.54027 -0.05937 0.57894
 N191 N 0.55395 -0.04607 0.53299
 N192 N 0.57729 -0.06660 0.54162
 N193 N 0.53479 0.02172 0.55306
 N194 N 0.54042 0.04442 0.57169
 C195 C 0.56728 0.05345 0.55961
 C196 C 0.56812 -0.07513 0.57003
 N197 N 0.44196 -0.02860 0.53345
 N198 N 0.41980 -0.04629 0.53985
 N199 N 0.46674 0.03215 0.55344
 N200 N 0.46177 0.05430 0.57431
 N201 N 0.44457 0.03493 0.53227
 N202 N 0.42383 0.05906 0.53828
 N203 N 0.46390 -0.03124 0.55489
 N204 N 0.45731 -0.05080 0.57636
 Mn205 Mn 0.49935 -0.00476 0.55436
 C206 C 0.42988 -0.06014 0.56654
 C207 C 0.43516 0.07108 0.56438
 N208 N 0.55404 -0.04765 0.46597
 N209 N 0.57707 -0.06911 0.45809
 N210 N 0.53520 0.01913 0.44380
 N211 N 0.54059 0.04148 0.42488
 N212 N 0.55693 0.01554 0.46531
 N213 N 0.57762 0.03524 0.46180
 N214 N 0.53248 -0.04439 0.44418
 N215 N 0.54037 -0.06365 0.42100
 Mn216 Mn 0.55555 -0.01540 0.49890
 C217 C 0.56789 -0.07926 0.43032
 C218 C 0.56718 0.05120 0.43655
 N219 N 0.44479 0.03340 0.46518
 N220 N 0.42414 0.05729 0.45872
 N221 N 0.46422 -0.03382 0.44440
 N222 N 0.45719 -0.05356 0.42304
 N223 N 0.44210 -0.03016 0.46601
 N224 N 0.41940 -0.04729 0.45984
 N225 N 0.46711 0.02962 0.44381
 N226 N 0.46232 0.05080 0.42231
 Mn227 Mn 0.44298 0.00240 0.49924
 Mn228 Mn 0.49974 -0.00736 0.44375
 Cl229 Cl 0.49934 -0.00643 0.49907
 C230 C 0.43565 0.06807 0.43208
 C231 C 0.42935 -0.06198 0.43315
 N232 N 0.55622 0.51562 0.03116
 N233 N 0.57703 0.53524 0.03445
 N234 N 0.53164 0.45626 0.05339
 N235 N 0.53951 0.43804 0.07698
 N236 N 0.55348 0.45239 0.03150
 N237 N 0.57669 0.43154 0.03974
 N238 N 0.53429 0.51975 0.05285
 N239 N 0.53967 0.54237 0.07169
 C240 C 0.56641 0.55173 0.05974
 C241 C 0.56732 0.42238 0.06783
 N242 N 0.44147 0.46980 0.03215
 N243 N 0.41896 0.45248 0.03855
 N244 N 0.46623 0.53023 0.05334
 N245 N 0.46106 0.55188 0.07474
 N246 N 0.44411 0.53338 0.03214
 N247 N 0.42324 0.55729 0.03862
 N248 N 0.46341 0.46677 0.05358
 N249 N 0.45646 0.44732 0.07502
 Mn250 Mn 0.49887 0.49327 0.05357
 C251 C 0.42884 0.43840 0.06521
 C252 C 0.43440 0.56878 0.06507
 N253 N 0.55390 0.45200 -0.03552
 N254 N 0.57714 0.43093 -0.04385
 N255 N 0.53509 0.51920 -0.05647
 N256 N 0.54090 0.54144 -0.07536
 N257 N 0.55676 0.51526 -0.03493
 N258 N 0.57784 0.53461 -0.03840
 N259 N 0.53240 0.45564 -0.05735
 N260 N 0.54057 0.43706 -0.08102
 Mn261 Mn 0.55523 0.48367 -0.00194
 C262 C 0.56819 0.42141 -0.07196
 C263 C 0.56767 0.55078 -0.06363
 N264 N 0.44463 0.53301 -0.03493
 N265 N 0.42439 0.55742 -0.04064
 N266 N 0.46407 0.46618 -0.05694
 N267 N 0.45739 0.44631 -0.07830
 N268 N 0.44196 0.46946 -0.03530
 N269 N 0.41961 0.45192 -0.04143
 N270 N 0.46701 0.52961 -0.05628
 N271 N 0.46268 0.55158 -0.07698
 Mn272 Mn 0.44267 0.50141 -0.00150
 Mn273 Mn 0.49960 0.49267 -0.05706
 Cl274 Cl 0.49903 0.49260 -0.00174
 C275 C 0.43622 0.56888 -0.06677
 C276 C 0.42974 0.43744 -0.06817
 N277 N 1.19192 0.18879 0.14258
 C278 C 1.17353 0.17074 0.15809
 N279 N 1.17340 0.17108 0.18955
 N280 N 1.19121 0.18888 0.20505
 C281 C 1.20971 0.20702 0.18965
 N282 N 1.20973 0.20660 0.15809
 C283 C 1.15404 0.15184 0.14143
 C284 C 1.13737 0.13621 0.12750
 C285 C 1.11707 0.11811 0.11089
 N286 N 1.10968 0.09135 0.12271
 N287 N 1.09000 0.07507 0.10766
 C288 C 1.07710 0.08507 0.08032
 N289 N 1.08464 0.11180 0.06851
 N290 N 1.10429 0.12805 0.08354
 N291 N 1.19600 0.68686 0.64366
 C292 C 1.17745 0.66915 0.65943
 N293 N 1.17706 0.67010 0.69087
 N294 N 1.19476 0.68817 0.70612
 C295 C 1.21340 0.70597 0.69045
 N296 N 1.21371 0.70493 0.65891
 C297 C 1.15786 0.65021 0.64309
 C298 C 1.14093 0.63464 0.62949
 C299 C 1.12017 0.61677 0.61331
 N300 N 1.11233 0.59037 0.62556
 N301 N 1.09202 0.57445 0.61101
 C302 C 1.07892 0.58448 0.58377
 N303 N 1.08692 0.61085 0.57153
 N304 N 1.10722 0.62674 0.58607
 N305 N 0.69155 0.19400 0.62678
 C306 C 0.67318 0.17536 0.64153
 N307 N 0.67422 0.17337 0.67282
 N308 N 0.69288 0.18965 0.68899
 C309 C 0.71136 0.20850 0.67451
 N310 N 0.71028 0.21037 0.64299
 C311 C 0.65333 0.15722 0.62457
 C312 C 0.63672 0.14094 0.61159
 C313 C 0.61757 0.12034 0.59719
 N314 N 0.59055 0.11373 0.61118
 N315 N 0.57403 0.09274 0.59898
 C316 C 0.58414 0.07765 0.57249
 N317 N 0.61108 0.08446 0.55849
 N318 N 0.62757 0.10542 0.57066
 N319 N 0.69035 0.69185 0.12709
 C320 C 0.67212 0.67321 0.14204
 N321 N 0.67367 0.67097 0.17330
 N322 N 0.69267 0.68707 0.18926
 C323 C 0.71092 0.70587 0.17452
 N324 N 0.70941 0.70802 0.14309
 C325 C 0.65197 0.65531 0.12528
 C326 C 0.63522 0.63919 0.11231
 C327 C 0.61610 0.61872 0.09777
 N328 N 0.58931 0.61167 0.11186
 N329 N 0.57293 0.59066 0.09950
 C330 C 0.58299 0.57600 0.07278
 N331 N 0.60968 0.58327 0.05867
 N332 N 0.62602 0.60425 0.07100
 N333 N 0.82373 -0.17932 0.18940
 C334 C 0.82581 -0.17569 0.15821
 N335 N 0.80931 -0.19253 0.13926
 N336 N 0.79121 -0.21233 0.15103
 C337 C 0.78896 -0.21610 0.18220
 N338 N 0.80556 -0.19919 0.20121
 C339 C 0.84554 -0.15478 0.14492
 C340 C 0.86187 -0.13803 0.13209
 C341 C 0.88123 -0.11915 0.11516
 N342 N 0.88733 -0.09169 0.12664
 N343 N 0.90531 -0.07440 0.11059
 C344 C 0.91766 -0.08401 0.08253
 N345 N 0.91141 -0.11145 0.07110
 N346 N 0.89347 -0.12870 0.08712
 N347 N 0.82292 0.32054 0.69235
 C348 C 0.82532 0.32420 0.66118
 N349 N 0.80881 0.30752 0.64207
 N350 N 0.79043 0.28786 0.65365
 C351 C 0.78782 0.28403 0.68481
 N352 N 0.80446 0.30081 0.70396
 C353 C 0.84532 0.34504 0.64808
 C354 C 0.86188 0.36178 0.63545
 C355 C 0.88148 0.38070 0.61877
 N356 N 0.89414 0.37117 0.59088
 N357 N 0.91223 0.38847 0.57509
 C358 C 0.91824 0.41598 0.58658
 N359 N 0.90548 0.42557 0.61450
 N360 N 0.88735 0.40823 0.63032
 N361 N 0.32584 -0.17841 0.69430
 C362 C 0.32790 -0.17741 0.66286
 N363 N 0.31162 -0.19598 0.64562
 N364 N 0.29379 -0.21493 0.65930
 C365 C 0.29154 -0.21605 0.69075
 N366 N 0.30796 -0.19744 0.70802
 C367 C 0.34657 -0.15671 0.64770
 C368 C 0.36173 -0.13956 0.63393
 C369 C 0.37927 -0.11931 0.61670
 N370 N 0.36799 -0.10745 0.58945
 N371 N 0.38422 -0.08872 0.57332
 C372 C 0.41230 -0.08129 0.58388
 N373 N 0.42357 -0.09324 0.61114
 N374 N 0.40734 -0.11198 0.62727
 N375 N 0.32330 0.32167 0.19391
 C376 C 0.32476 0.32318 0.16246
 N377 N 0.30777 0.30520 0.14527
 N378 N 0.28986 0.28633 0.15901
 C379 C 0.28823 0.28469 0.19046
 N380 N 0.30534 0.30273 0.20769
 C381 C 0.34370 0.34367 0.14718
 C382 C 0.35910 0.36056 0.13326
 C383 C 0.37701 0.38044 0.11585
 N384 N 0.36586 0.39242 0.08859
 N385 N 0.38245 0.41074 0.07230
 C386 C 0.41081 0.41765 0.08269
 N387 N 0.42195 0.40558 0.10995
 N388 N 0.40536 0.38726 0.12625
 N389 N 0.82074 0.21108 -0.19963
 C390 C 0.82373 0.18008 -0.19804
 N391 N 0.80954 0.16411 -0.21970
 N392 N 0.79262 0.17857 -0.24209
 C393 C 0.78921 0.20959 -0.24381
 N394 N 0.80375 0.22561 -0.22215
 C395 C 0.84128 0.16382 -0.17376
 C396 C 0.85557 0.14830 -0.15435
 C397 C 0.87242 0.12814 -0.13249
 N398 N 0.88314 0.09905 -0.14111
 N399 N 0.89919 0.08020 -0.12126
 C400 C 0.90494 0.08974 -0.09204
 N401 N 0.89401 0.11884 -0.08336
 N402 N 0.87794 0.13772 -0.10324
 N403 N 0.82027 0.70832 0.30360
 C404 C 0.82548 0.67730 0.30409
 N405 N 0.81384 0.66102 0.28097
 N406 N 0.79718 0.67520 0.25824
 C407 C 0.79161 0.70621 0.25767
 N408 N 0.80356 0.72255 0.28075
 C409 C 0.84250 0.66136 0.32882
 C410 C 0.85649 0.64615 0.34862
 C411 C 0.87315 0.62636 0.37085
 N412 N 0.88396 0.59719 0.36268
 N413 N 0.90008 0.57871 0.38279
 C414 C 0.90579 0.58874 0.41184
 N415 N 0.89474 0.61792 0.42010
 N416 N 0.87860 0.63643 0.39994
 N417 N 0.32797 0.21542 0.31114
 C418 C 0.33275 0.18448 0.31347
 N419 N 0.31806 0.16718 0.29337
 N420 N 0.29901 0.18028 0.27174
 C421 C 0.29394 0.21120 0.26931
 N422 N 0.30885 0.22857 0.28940
 C423 C 0.35261 0.16967 0.33702
 C424 C 0.36870 0.15514 0.35593
 C425 C 0.38726 0.13566 0.37720
 N426 N 0.37472 0.12798 0.40470
 N427 N 0.39055 0.10709 0.42277
 C428 C 0.41936 0.09308 0.41382
 N429 N 0.43195 0.10102 0.38642
 N430 N 0.41615 0.12190 0.36839
 N431 N 0.33008 0.71732 -0.18728
 C432 C 0.33485 0.68646 -0.18419
 N433 N 0.32037 0.66865 -0.20395
 N434 N 0.30151 0.68119 -0.22599
 C435 C 0.29645 0.71203 -0.22919
 N436 N 0.31115 0.72991 -0.20943
 C437 C 0.35458 0.67222 -0.16031
 C438 C 0.37056 0.65789 -0.14123
 C439 C 0.38899 0.63835 -0.12000
 N440 N 0.37603 0.62993 -0.09298
 N441 N 0.39155 0.60849 -0.07532
 C442 C 0.42043 0.59465 -0.08425
 N443 N 0.43346 0.60337 -0.11112
 N444 N 0.41797 0.62479 -0.12874
 N445 N 1.22125 -0.17488 -0.19054
 C446 C 1.18932 -0.17053 -0.18711
 N447 N 1.17131 -0.18635 -0.20558
 N448 N 1.18472 -0.20601 -0.22675
 C449 C 1.21665 -0.21057 -0.23028
 N450 N 1.23469 -0.19460 -0.21179
 C451 C 1.17431 -0.14978 -0.16416
 C452 C 1.15983 -0.13291 -0.14549
 C453 C 1.14055 -0.11345 -0.12420
 N454 N 1.13235 -0.12417 -0.09620
 N455 N 1.11154 -0.10741 -0.07789
 C456 C 1.09814 -0.07945 -0.08707
 N457 N 1.10662 -0.06865 -0.11497
 N458 N 1.12743 -0.08540 -0.13326
 N459 N 1.21920 0.32390 0.31093
 C460 C 1.18731 0.32807 0.31486
 N461 N 1.16910 0.31247 0.29637
 N462 N 1.18227 0.29322 0.27471
 C463 C 1.21416 0.28884 0.27066
 N464 N 1.23240 0.30458 0.28919
 C465 C 1.17254 0.34857 0.33823
 C466 C 1.15836 0.36536 0.35720
 C467 C 1.13953 0.38492 0.37883
 N468 N 1.13141 0.37419 0.40686
 N469 N 1.11122 0.39125 0.42556
 C470 C 1.09839 0.41955 0.41678
 N471 N 1.10679 0.43033 0.38883
 N472 N 1.12697 0.41329 0.37016
 N473 N 0.71409 -0.18753 0.30428
 C474 C 0.68201 -0.18342 0.30575
 N475 N 0.66526 -0.19635 0.28376
 N476 N 0.68003 -0.21313 0.26110
 C477 C 0.71210 -0.21757 0.25950
 N478 N 0.72893 -0.20440 0.28149
 C479 C 0.66535 -0.16578 0.33004
 C480 C 0.64921 -0.15125 0.34928
 C481 C 0.62818 -0.13395 0.37068
 N482 N 0.63746 -0.12805 0.39993
 N483 N 0.61784 -0.11127 0.41933
 C484 C 0.58833 -0.10002 0.41013
 N485 N 0.57906 -0.10619 0.38093
 N486 N 0.59865 -0.12296 0.36156
 N487 N 0.71525 0.31487 -0.19885
 C488 C 0.68321 0.31768 -0.19659
 N489 N 0.66667 0.30308 -0.21748
 N490 N 0.68160 0.28598 -0.23984
 C491 C 0.71364 0.28282 -0.24228
 N492 N 0.73025 0.29769 -0.22135
 C493 C 0.66636 0.33575 -0.17265
 C494 C 0.65011 0.35048 -0.15360
 C495 C 0.62902 0.36784 -0.13222
 N496 N 0.63798 0.37310 -0.10272
 N497 N 0.61823 0.38960 -0.08320
 C498 C 0.58886 0.40118 -0.09252
 N499 N 0.57990 0.39568 -0.12199
 N500 N 0.59964 0.37920 -0.14148
 N501 N 1.15994 0.19470 -0.17447
 C502 C 1.17455 0.17243 -0.15633
 N503 N 1.20652 0.16925 -0.15424
 N504 N 1.22337 0.18771 -0.17003
 C505 C 1.20883 0.21001 -0.18839
 N506 N 1.17677 0.21313 -0.19025
 C507 C 1.15625 0.15243 -0.13975
 C508 C 1.14015 0.13611 -0.12605
 C509 C 1.12009 0.11750 -0.10981
 N510 N 1.11277 0.09096 -0.12254
 N511 N 1.09276 0.07458 -0.10808
 C512 C 1.07941 0.08428 -0.08047
 N513 N 1.08692 0.11076 -0.06775
 N514 N 1.10691 0.12711 -0.08219
 N515 N 1.15733 0.69524 0.32455
 C516 C 1.17193 0.67399 0.34385
 N517 N 1.20385 0.67143 0.34643
 N518 N 1.22065 0.68949 0.33005
 C519 C 1.20612 0.71076 0.31057
 N520 N 1.17411 0.71328 0.30818
 C521 C 1.15374 0.65436 0.36111
 C522 C 1.13793 0.63818 0.37539
 C523 C 1.11840 0.61946 0.39225
 N524 N 1.11169 0.59243 0.38019
 N525 N 1.09239 0.57576 0.39528
 C526 C 1.07916 0.58563 0.42289
 N527 N 1.08604 0.61263 0.43494
 N528 N 1.10533 0.62927 0.41987
 N529 N 0.65355 0.20358 0.34211
 C530 C 0.66733 0.18118 0.36055
 N531 N 0.69928 0.17702 0.36287
 N532 N 0.71698 0.19456 0.34688
 C533 C 0.70328 0.21678 0.32799
 N534 N 0.67122 0.22107 0.32613
 C535 C 0.64848 0.16057 0.37529
 C536 C 0.63284 0.14255 0.38683
 C537 C 0.61498 0.12029 0.40013
 N538 N 0.62529 0.10547 0.42621
 N539 N 0.60970 0.08363 0.43785
 C540 C 0.58337 0.07584 0.42377
 N541 N 0.57296 0.09077 0.39768
 N542 N 0.58860 0.11265 0.38600
 N543 N 0.65402 0.70227 -0.15903
 C544 C 0.66841 0.68061 -0.14013
 N545 N 0.70034 0.67772 -0.13751
 N546 N 0.71741 0.69571 -0.15370
 C547 C 0.70315 0.71722 -0.17317
 N548 N 0.67104 0.72021 -0.17520
 C549 C 0.65020 0.65950 -0.12516
 C550 C 0.63478 0.64127 -0.11354
 C551 C 0.61680 0.61899 -0.10031
 N552 N 0.62702 0.60392 -0.07432
 N553 N 0.61106 0.58236 -0.06261
 C554 C 0.58440 0.57509 -0.07651
 N555 N 0.57410 0.59026 -0.10251
 N556 N 0.59010 0.61186 -0.11424
 N557 N 0.81988 -0.17688 -0.19177
 C558 C 0.82219 -0.17331 -0.16055
 N559 N 0.80466 -0.18918 -0.14162
 N560 N 0.78538 -0.20792 -0.15341
 C561 C 0.78282 -0.21163 -0.18462
 N562 N 0.80052 -0.19569 -0.20360
 C563 C 0.84302 -0.15327 -0.14725
 C564 C 0.86017 -0.13708 -0.13455
 C565 C 0.88037 -0.11864 -0.11791
 N566 N 0.89278 -0.12829 -0.09030
 N567 N 0.91128 -0.11135 -0.07453
 C568 C 0.91798 -0.08409 -0.08576
 N569 N 0.90550 -0.07440 -0.11342
 N570 N 0.88696 -0.09136 -0.12921
 N571 N 0.80877 0.31030 0.36133
 C572 C 0.82575 0.32669 0.34239
 N573 N 0.82291 0.32372 0.31116
 N574 N 0.80353 0.30495 0.29932
 C575 C 0.78641 0.28853 0.31833
 N576 N 0.78947 0.29161 0.34953
 C577 C 0.84641 0.34676 0.35570
 C578 C 0.86337 0.36297 0.36853
 C579 C 0.88327 0.38139 0.38541
 N580 N 0.88986 0.40871 0.37429
 N581 N 0.90809 0.42572 0.39038
 C582 C 0.92021 0.41600 0.41816
 N583 N 0.91350 0.38869 0.42922
 N584 N 0.89530 0.37171 0.41315
 N585 N 0.32116 -0.17700 0.30499
 C586 C 0.32263 -0.17546 0.33644
 N587 N 0.30508 -0.19290 0.35365
 N588 N 0.28662 -0.21129 0.33993
 C589 C 0.28497 -0.21295 0.30848
 N590 N 0.30264 -0.19546 0.29124
 C591 C 0.34217 -0.15547 0.35168
 C592 C 0.35805 -0.13893 0.36554
 C593 C 0.37645 -0.11939 0.38288
 N594 N 0.36542 -0.10692 0.41034
 N595 N 0.38238 -0.08881 0.42652
 C596 C 0.41100 -0.08263 0.41582
 N597 N 0.42204 -0.09520 0.38836
 N598 N 0.40507 -0.11331 0.37218
 N599 N 0.32300 0.32092 -0.19544
 C600 C 0.32462 0.32216 -0.16401
 N601 N 0.30719 0.30453 -0.14690
 N602 N 0.28869 0.28625 -0.16072
 C603 C 0.28685 0.28488 -0.19218
 N604 N 0.30446 0.30258 -0.20929
 C605 C 0.34403 0.34219 -0.14874
 C606 C 0.35976 0.35889 -0.13498
 C607 C 0.37791 0.37874 -0.11781
 N608 N 0.36683 0.39112 -0.09034
 N609 N 0.38348 0.40964 -0.07437
 C610 C 0.41182 0.41637 -0.08531
 N611 N 0.42291 0.40389 -0.11279
 N612 N 0.40624 0.38536 -0.12877
 N613 N 1.16605 -0.18385 0.20432
 C614 C 1.18454 -0.16907 0.18531
 N615 N 1.21643 -0.17380 0.18855
 N616 N 1.22935 -0.19289 0.21012
 C617 C 1.21081 -0.20783 0.22915
 N618 N 1.17893 -0.20287 0.22580
 C619 C 1.17003 -0.14894 0.16205
 C620 C 1.15594 -0.13248 0.14323
 C621 C 1.13713 -0.11332 0.12185
 N622 N 1.12411 -0.08500 0.13082
 N623 N 1.10388 -0.06839 0.11243
 C624 C 1.09590 -0.07956 0.08447
 N625 N 1.10919 -0.10783 0.07539
 N626 N 1.12942 -0.12445 0.09381
 N627 N 1.16840 0.31775 0.70776
 C628 C 1.18690 0.33258 0.68881
 N629 N 1.21880 0.32749 0.69171
 N630 N 1.23174 0.30800 0.71291
 C631 C 1.21319 0.29299 0.73186
 N632 N 1.18129 0.29832 0.72886
 C633 C 1.17239 0.35297 0.66583
 C634 C 1.15825 0.36954 0.64717
 C635 C 1.13927 0.38864 0.62593
 N636 N 1.12574 0.41671 0.63515
 N637 N 1.10519 0.43312 0.61692
 C638 C 1.09737 0.42196 0.58891
 N639 N 1.11118 0.39397 0.57957
 N640 N 1.13174 0.37755 0.59783
 N641 N 0.66298 -0.18766 0.71789
 C642 C 0.68055 -0.17492 0.69641
 N643 N 0.71260 -0.17939 0.69832
 N644 N 0.72655 -0.19640 0.72102
 C645 C 0.70888 -0.20946 0.74250
 N646 N 0.67687 -0.20458 0.74043
 C647 C 0.66471 -0.15733 0.67204
 C648 C 0.64904 -0.14304 0.65271
 C649 C 0.62834 -0.12627 0.63110
 N650 N 0.63776 -0.12197 0.60147
 N651 N 0.61826 -0.10622 0.58173
 C652 C 0.58869 -0.09444 0.59092
 N653 N 0.57929 -0.09896 0.62053
 N654 N 0.59877 -0.11469 0.64024
 N655 N 0.66306 0.31741 0.21982
 C656 C 0.68024 0.32560 0.19539
 N657 N 0.71199 0.31733 0.19476
 N658 N 0.72600 0.30095 0.21784
 C659 C 0.70866 0.29238 0.24220
 N660 N 0.67700 0.30109 0.24275
 C661 C 0.66421 0.34189 0.17038
 C662 C 0.64839 0.35531 0.15064
 C663 C 0.62751 0.37132 0.12877
 N664 N 0.63720 0.37616 0.09935
 N665 N 0.61766 0.39174 0.07954
 C666 C 0.58780 0.40282 0.08850
 N667 N 0.57812 0.39771 0.11787
 N668 N 0.59764 0.38214 0.13764
 N669 N 0.80212 0.16518 0.21755
 C670 C 0.81747 0.18033 0.19606
 N671 N 0.81558 0.21130 0.19784
 N672 N 0.79861 0.22661 0.22038
 C673 C 0.78306 0.21143 0.24189
 N674 N 0.78522 0.18044 0.23999
 C675 C 0.83538 0.16334 0.17194
 C676 C 0.85013 0.14757 0.15255
 C677 C 0.86772 0.12743 0.13057
 N678 N 0.87404 0.13703 0.10158
 N679 N 0.89103 0.11830 0.08165
 C680 C 0.90212 0.08934 0.09002
 N681 N 0.89556 0.07977 0.11898
 N682 N 0.87858 0.09847 0.13888
 N683 N 0.81539 0.71363 0.70035
 C684 C 0.81679 0.68269 0.69829
 N685 N 0.80034 0.66774 0.71903
 N686 N 0.78287 0.68314 0.74101
 C687 C 0.78114 0.71411 0.74322
 N688 N 0.79784 0.72908 0.72243
 C689 C 0.83531 0.66550 0.67464
 C690 C 0.85045 0.64951 0.65562
 C691 C 0.86835 0.62912 0.63400
 N692 N 0.87474 0.63832 0.60488
 N693 N 0.89179 0.61933 0.58520
 C694 C 0.90287 0.59048 0.59395
 N695 N 0.89626 0.58130 0.62305
 N696 N 0.87923 0.60027 0.64270
 N697 N 0.31397 0.17074 0.70209
 C698 C 0.32993 0.18819 0.68330
 N699 N 0.32642 0.21899 0.68758
 N700 N 0.30733 0.23188 0.70997
 C701 C 0.29121 0.21436 0.72878
 N702 N 0.29496 0.18357 0.72438
 C703 C 0.35015 0.17368 0.65937
 C704 C 0.36661 0.15930 0.64019
 C705 C 0.38567 0.13985 0.61873
 N706 N 0.37332 0.13102 0.59162
 N707 N 0.38955 0.10982 0.57362
 C708 C 0.41857 0.09665 0.58226
 N709 N 0.43099 0.10577 0.60922
 N710 N 0.41479 0.12696 0.62718
 N711 N 0.31321 0.66942 0.20354
 C712 C 0.32888 0.68645 0.18404
 N713 N 0.32481 0.71738 0.18716
 N714 N 0.30545 0.73080 0.20908
 C715 C 0.28959 0.71371 0.22858
 N716 N 0.29393 0.68278 0.22535
 C717 C 0.34920 0.67137 0.16044
 C718 C 0.36567 0.65665 0.14147
 C719 C 0.38470 0.63698 0.12011
 N720 N 0.37260 0.62866 0.09270
 N721 N 0.38886 0.60758 0.07456
 C722 C 0.41768 0.59403 0.08336
 N723 N 0.42984 0.60261 0.11067
 N724 N 0.41361 0.62368 0.12876
   
