data_POSCAR
  _audit_creation_date              2014-09-24
  _audit_creation_method            'ToBaCCo'
  _symmetry_space_group_name_H-M    'P1'
  _symmetry_Int_Tables_number       1
  _symmetry_cell_setting            triclinic
  loop_
  _symmetry_equiv_pos_as_xyz
 x,y,z
_cell_length_a 21.4961
_cell_length_b 21.4262
_cell_length_c 27.4016
_cell_angle_alpha 89.959400
_cell_angle_beta 88.860900
_cell_angle_gamma 89.858900
loop_
  _atom_site_label
  _atom_site_type_symbol
  _atom_site_fract_x
  _atom_site_fract_y
  _atom_site_fract_z
C1 C 0.00049 0.55855 1.02691
 C2 C -0.00134 0.55842 0.97539
 C3 C -0.00273 0.50147 0.95027
 C4 C -0.00186 0.44474 0.97569
 C5 C 0.00087 0.44482 1.02706
 C6 C 0.00180 0.50171 1.05229
 H7 H 0.00356 0.50174 1.09188
 H8 H -0.00448 0.50117 0.91070
 C9 C 0.44396 -0.00449 0.52465
 C10 C 0.44492 -0.00385 0.47324
 C11 C 0.50200 -0.00398 0.44764
 C12 C 0.55821 -0.00420 0.47277
 C13 C 0.55718 -0.00398 0.52426
 C14 C 0.50006 -0.00441 0.54978
 H15 H 0.49926 -0.00445 0.58939
 H16 H 0.50256 -0.00370 0.40802
 C17 C 0.13290 0.00793 0.26666
 H18 H 0.13563 0.01069 0.22725
 C19 C 0.18728 0.00810 0.29367
 H20 H 0.23214 0.01092 0.27508
 C21 C 0.07113 0.00089 0.33916
 H22 H 0.02583 -0.00129 0.35679
 C23 C 0.12441 0.00094 0.36757
 H24 H 0.11999 -0.00172 0.40697
 N25 N 0.07635 0.00332 0.28959
 C26 C -0.04340 -0.08240 0.18185
 H27 H -0.08092 -0.04872 0.18063
 C28 C -0.04564 -0.13641 0.15338
 H29 H -0.08486 -0.14437 0.12998
 C30 C 0.05314 -0.11395 0.21442
 H31 H 0.09104 -0.10573 0.23884
 C32 C 0.05271 -0.16851 0.18661
 H33 H 0.09058 -0.20171 0.18936
 Zn34 Zn 0.00542 0.00164 0.24967
 N35 N 0.00586 -0.07183 0.21117
 C36 C 0.00678 0.06984 0.16013
 N37 N 0.00826 0.07379 0.20969
 C38 C 0.01247 0.12993 0.23258
 C39 C 0.01309 0.18520 0.20556
 C40 C 0.00731 0.12404 0.13172
 C41 C -0.08025 -0.04859 0.31770
 C42 C -0.13484 -0.05124 0.34619
 C43 C -0.16564 0.04819 0.31261
 C44 C -0.11054 0.04903 0.28479
 N45 N -0.06879 0.00140 0.28821
 H46 H 0.00489 0.02485 0.14252
 H47 H 0.01444 0.13166 0.27198
 H48 H 0.01548 0.22972 0.22413
 H49 H 0.00531 0.12062 0.09233
 H50 H -0.04683 -0.08637 0.31906
 H51 H -0.14350 -0.09104 0.36975
 H52 H -0.19854 0.08636 0.30974
 H53 H -0.10161 0.08751 0.26023
 C54 C 0.00299 -0.17974 0.15574
 C55 C 0.18299 0.00412 0.34456
 C56 C -0.17781 -0.00227 0.34367
 C57 C 0.00999 0.18221 0.15470
 C58 C -0.01279 0.12826 0.76770
 H59 H -0.01449 0.13027 0.72829
 C60 C -0.01363 0.18334 0.79490
 H61 H -0.01591 0.22800 0.77646
 C62 C -0.00754 0.06764 0.83998
 H63 H -0.00576 0.02253 0.85747
 C64 C -0.00831 0.12163 0.86858
 H65 H -0.00657 0.11792 0.90796
 N66 N -0.00866 0.07195 0.79043
 C67 C 0.08057 -0.05023 0.68246
 H68 H 0.04733 -0.08799 0.68113
 C69 C 0.13505 -0.05276 0.65382
 H70 H 0.14383 -0.09247 0.63020
 C71 C 0.11043 0.04734 0.71534
 H72 H 0.10135 0.08579 0.73991
 C73 C 0.16542 0.04663 0.68737
 H74 H 0.19809 0.08483 0.69016
 Zn75 Zn -0.00542 -0.00002 0.75033
 N76 N 0.06892 -0.00028 0.71196
 C77 C -0.07045 -0.00013 0.66060
 N78 N -0.07610 0.00195 0.71016
 C79 C -0.13286 0.00644 0.73280
 C80 C -0.18700 0.00681 0.70550
 C81 C -0.12347 0.00015 0.63191
 C82 C 0.04339 -0.08423 0.81822
 C83 C 0.04554 -0.13808 0.84694
 C84 C -0.05271 -0.16989 0.81368
 C85 C -0.05305 -0.11549 0.78561
 N86 N -0.00581 -0.07357 0.78880
 H87 H -0.02500 -0.00217 0.64319
 H88 H -0.13594 0.00895 0.77221
 H89 H -0.23203 0.00953 0.72386
 H90 H -0.11869 -0.00223 0.59252
 H91 H 0.08088 -0.05070 0.81940
 H92 H 0.08466 -0.14607 0.87048
 H93 H -0.09059 -0.20291 0.81104
 H94 H -0.09090 -0.10720 0.76111
 C95 C 0.17772 -0.00373 0.65623
 C96 C -0.01085 0.17997 0.84576
 C97 C -0.00310 -0.18116 0.84473
 C98 C -0.18224 0.00318 0.65462
 C99 C 0.00081 -0.38701 0.05297
 C100 C 0.00097 -0.33916 0.07609
 C101 C 0.00122 -0.28337 0.10343
 C102 C 0.00174 -0.23598 0.12709
 C103 C 0.00289 0.39036 0.05299
 C104 C 0.00482 0.34238 0.07593
 C105 C 0.00704 0.28637 0.10297
 C106 C 0.00865 0.23875 0.12636
 C107 C 0.38610 -0.00499 0.55231
 C108 C 0.33797 -0.00535 0.57564
 C109 C 0.28190 -0.00546 0.60329
 C110 C 0.23426 -0.00506 0.62723
 C111 C -0.38614 -0.00266 0.55173
 C112 C -0.33905 -0.00123 0.57485
 C113 C -0.28418 0.00055 0.60223
 C114 C -0.23757 0.00194 0.62593
 C115 C -0.00154 -0.38733 0.94905
 C116 C -0.00158 -0.33970 0.92561
 C117 C -0.00168 -0.28422 0.89783
 C118 C -0.00206 -0.23710 0.87380
 C119 C -0.00402 0.38725 0.94823
 C120 C -0.00595 0.33944 0.92517
 C121 C -0.00812 0.28368 0.89790
 C122 C -0.00966 0.23627 0.87432
 C123 C -0.38698 -0.00441 0.44663
 C124 C -0.33871 -0.00455 0.42345
 C125 C -0.28242 -0.00442 0.39607
 C126 C -0.23458 -0.00382 0.37238
 C127 C 0.38805 -0.00237 0.44609
 C128 C 0.34071 -0.00082 0.42328
 C129 C 0.28550 0.00114 0.39629
 C130 C 0.23861 0.00268 0.37292
   
