data_POSCAR
  _audit_creation_date              2014-09-24
  _audit_creation_method            'ToBaCCo'
  _symmetry_space_group_name_H-M    'P1'
  _symmetry_Int_Tables_number       1
  _symmetry_cell_setting            triclinic
  loop_
  _symmetry_equiv_pos_as_xyz
 x,y,z
_cell_length_a 26.6541
_cell_length_b 27.1236
_cell_length_c 26.7212
_cell_angle_alpha 89.812300
_cell_angle_beta 90.174800
_cell_angle_gamma 90.914000
loop_
  _atom_site_label
  _atom_site_type_symbol
  _atom_site_fract_x
  _atom_site_fract_y
  _atom_site_fract_z
O1 O -0.12706 0.06276 -0.01317
 O2 O 0.12852 0.06265 0.01919
 O3 O -0.00757 0.12102 0.07403
 O4 O 0.00935 0.12871 -0.06286
 O5 O 0.01921 0.07032 -0.12459
 O6 O -0.01766 0.05634 0.13000
 O7 O 0.07041 0.12446 0.01098
 O8 O -0.06759 0.12451 -0.00134
 Zr9 Zr 0.00088 0.08538 0.00372
 O10 O 0.05151 0.04499 -0.03697
 O11 O -0.05017 0.03989 0.04055
 C12 C -0.11342 0.10838 -0.00800
 C13 C 0.11591 0.10842 0.01657
 C14 C -0.01454 0.10292 0.11879
 C15 C 0.01617 0.11546 -0.10928
 H16 H 0.05778 0.05906 0.07723
 O17 O 0.03871 0.03946 0.05228
 H18 H -0.05678 0.06632 -0.07204
 O19 O -0.03811 0.04471 -0.04896
 O20 O 0.12627 -0.06859 0.01739
 O21 O -0.12793 -0.06728 -0.02431
 O22 O 0.04907 -0.01179 0.13606
 O23 O 0.08457 0.00591 -0.11773
 O24 O -0.04939 0.00240 -0.13718
 O25 O -0.08438 -0.00789 0.11748
 O26 O -0.00762 -0.13423 0.05877
 O27 O 0.00385 -0.12579 -0.07623
 O28 O -0.01423 -0.07815 0.12316
 O29 O 0.01463 -0.06136 -0.13203
 O30 O 0.11757 -0.00792 0.08375
 O31 O -0.13648 -0.00404 0.04868
 O32 O -0.11777 -0.00125 -0.08481
 O33 O 0.13681 0.00194 -0.04906
 O34 O 0.06713 -0.12999 0.00234
 O35 O -0.07044 -0.12949 -0.01614
 Zr36 Zr 0.08647 -0.00284 0.01137
 Zr37 Zr -0.08640 -0.00250 -0.01234
 Zr38 Zr -0.01187 -0.00812 0.08634
 Zr39 Zr 0.01191 0.00224 -0.08729
 Zr40 Zr -0.00105 -0.09036 -0.00587
 O41 O -0.03924 -0.04495 -0.05412
 O42 O 0.03807 -0.05045 0.04759
 C43 C 0.11246 -0.11424 0.01271
 C44 C -0.11569 -0.11314 -0.02319
 C45 C 0.09677 -0.01131 0.12746
 C46 C 0.12843 0.00527 -0.09667
 C47 C -0.09719 0.00004 -0.12877
 C48 C -0.12818 -0.00525 0.09648
 C49 C -0.01128 -0.12290 0.10568
 C50 C 0.00948 -0.10770 -0.12103
 H51 H -0.07555 -0.07206 0.05311
 O52 O -0.05122 -0.05025 0.03558
 H53 H 0.07426 -0.06509 -0.06105
 O54 O 0.05035 -0.04524 -0.04170
 O55 O 0.37139 0.56743 -0.00367
 O56 O 0.62808 0.56560 0.02158
 O57 O 0.49287 0.62134 0.08251
 O58 O 0.50888 0.63599 -0.05140
 O59 O 0.51510 0.58266 -0.11826
 O60 O 0.48471 0.55453 0.13580
 O61 O 0.56980 0.62763 0.01901
 O62 O 0.43119 0.62862 0.00921
 Zr63 Zr 0.49997 0.58897 0.01098
 O64 O 0.54967 0.55121 -0.03345
 O65 O 0.44963 0.54200 0.04620
 C66 C 0.38503 0.61276 0.00357
 C67 C 0.61544 0.61132 0.02220
 C68 C 0.48720 0.60163 0.12663
 C69 C 0.51403 0.62645 -0.09861
 H70 H 0.55887 0.55943 0.08141
 O71 O 0.53928 0.54111 0.05587
 H72 H 0.44069 0.57468 -0.06451
 O73 O 0.45981 0.55161 -0.04333
 O74 O 0.62671 0.43586 0.01181
 O75 O 0.37013 0.43812 -0.02237
 O76 O 0.55181 0.48587 0.13634
 O77 O 0.58093 0.51599 -0.11801
 O78 O 0.44664 0.51454 -0.13366
 O79 O 0.41751 0.49086 0.12118
 O80 O 0.49234 0.36796 0.05436
 O81 O 0.50122 0.38278 -0.08025
 O82 O 0.48718 0.42105 0.12151
 O83 O 0.51002 0.44954 -0.13349
 O84 O 0.61888 0.49203 0.08249
 O85 O 0.36381 0.49755 0.05379
 O86 O 0.37940 0.50768 -0.07998
 O87 O 0.63441 0.50892 -0.05055
 O88 O 0.56460 0.37398 -0.00442
 O89 O 0.42845 0.37622 -0.02030
 Zr90 Zr 0.58576 0.50094 0.01122
 Zr91 Zr 0.41222 0.50247 -0.00828
 Zr92 Zr 0.48935 0.49224 0.08846
 Zr93 Zr 0.50902 0.51151 -0.08555
 Zr94 Zr 0.49752 0.41494 -0.00834
 O95 O 0.45852 0.46261 -0.05349
 O96 O 0.53827 0.45164 0.04622
 C97 C 0.61382 0.38803 0.00513
 C98 C 0.38301 0.39251 -0.02527
 C99 C 0.59941 0.48668 0.12669
 C100 C 0.62521 0.51406 -0.09791
 C101 C 0.39908 0.51144 -0.12424
 C102 C 0.37326 0.49421 0.10125
 C103 C 0.48963 0.37736 0.10178
 C104 C 0.50558 0.40259 -0.12440
 H105 H 0.42456 0.42984 0.05309
 O106 O 0.44854 0.45267 0.03641
 H107 H 0.57161 0.44254 -0.06389
 O108 O 0.54821 0.46158 -0.04311
 O109 O -0.12986 0.55732 0.49219
 O110 O 0.12607 0.56765 0.52504
 O111 O -0.01352 0.61711 0.58163
 O112 O 0.00536 0.63176 0.44826
 O113 O 0.01505 0.57876 0.38161
 O114 O -0.02057 0.55025 0.63501
 O115 O 0.06487 0.62677 0.51975
 O116 O -0.07299 0.62085 0.50640
 Zr117 Zr -0.00281 0.58465 0.51052
 O118 O 0.04972 0.54903 0.46772
 O119 O -0.05223 0.53590 0.54464
 C120 C -0.11823 0.60327 0.49914
 C121 C 0.11119 0.61278 0.52471
 C122 C -0.01983 0.59715 0.62554
 C123 C 0.01173 0.62257 0.40116
 H124 H 0.05533 0.55865 0.58274
 O125 O 0.03739 0.53919 0.55688
 H126 H -0.05957 0.56701 0.43364
 O127 O -0.04002 0.54509 0.45567
 O128 O 0.13005 0.43696 0.51630
 O129 O -0.12411 0.42731 0.47478
 O130 O 0.04975 0.48557 0.63801
 O131 O 0.08451 0.51512 0.38478
 O132 O -0.04934 0.50661 0.36532
 O133 O -0.08408 0.48447 0.61922
 O134 O -0.00014 0.36424 0.55849
 O135 O 0.01028 0.37801 0.42144
 O136 O -0.01132 0.41891 0.62338
 O137 O 0.01722 0.44510 0.36810
 O138 O 0.11826 0.49392 0.58609
 O139 O -0.13631 0.48752 0.55049
 O140 O -0.11770 0.49718 0.41729
 O141 O 0.13689 0.51050 0.45338
 O142 O 0.07375 0.37351 0.49946
 O143 O -0.06303 0.36806 0.48042
 Zr144 Zr 0.08700 0.50088 0.51388
 Zr145 Zr -0.08619 0.49392 0.48980
 Zr146 Zr -0.01143 0.48855 0.58835
 Zr147 Zr 0.01202 0.50726 0.41513
 Zr148 Zr 0.00376 0.41012 0.49358
 O149 O -0.03632 0.45595 0.44680
 O150 O 0.04081 0.44993 0.54839
 C151 C 0.11845 0.39098 0.50967
 C152 C -0.10891 0.38233 0.47319
 C153 C 0.09749 0.48818 0.62961
 C154 C 0.12841 0.51520 0.40584
 C155 C -0.09700 0.50158 0.37358
 C156 C -0.12798 0.48556 0.59824
 C157 C -0.00519 0.37493 0.60573
 C158 C 0.01454 0.39808 0.37724
 H159 H -0.07196 0.42254 0.55258
 O160 O -0.04868 0.44620 0.53607
 H161 H 0.07723 0.44155 0.43889
 O162 O 0.05245 0.45943 0.45913
 O163 O 0.37082 0.06492 0.49582
 O164 O 0.62726 0.06609 0.52352
 O165 O 0.49076 0.11917 0.58296
 O166 O 0.50800 0.13550 0.44957
 O167 O 0.51523 0.08318 0.38202
 O168 O 0.48300 0.05169 0.63550
 O169 O 0.56805 0.12726 0.52073
 O170 O 0.43005 0.12648 0.50944
 Zr171 Zr 0.49908 0.08764 0.51120
 O172 O 0.54970 0.05117 0.46672
 O173 O 0.44891 0.03977 0.54539
 C174 C 0.38408 0.11025 0.50373
 C175 C 0.61382 0.11163 0.52485
 C176 C 0.48491 0.09887 0.62674
 C177 C 0.51354 0.12668 0.40229
 H178 H 0.55755 0.05802 0.58193
 O179 O 0.53853 0.03981 0.55589
 H180 H 0.44056 0.07369 0.43514
 O181 O 0.45978 0.05054 0.45613
 O182 O 0.62773 -0.06378 0.51109
 O183 O 0.37119 -0.06430 0.47489
 O184 O 0.55082 -0.01626 0.63572
 O185 O 0.58204 0.01726 0.38208
 O186 O 0.44796 0.01438 0.36520
 O187 O 0.41679 -0.01278 0.61925
 O188 O 0.49368 -0.13375 0.55220
 O189 O 0.50346 -0.11730 0.41775
 O190 O 0.48708 -0.08135 0.61974
 O191 O 0.51191 -0.04990 0.36526
 O192 O 0.61845 -0.00887 0.58256
 O193 O 0.36345 -0.00604 0.55158
 O194 O 0.38027 0.00647 0.41830
 O195 O 0.63504 0.01035 0.44994
 O196 O 0.56633 -0.12627 0.49425
 O197 O 0.43018 -0.12560 0.47742
 Zr198 Zr 0.58600 0.00086 0.51116
 Zr199 Zr 0.41242 0.00044 0.49015
 Zr200 Zr 0.48886 -0.00994 0.58738
 Zr201 Zr 0.50989 0.01154 0.41387
 Zr202 Zr 0.49882 -0.08606 0.48996
 O203 O 0.45968 -0.03834 0.44494
 O204 O 0.53870 -0.04941 0.54515
 C205 C 0.61531 -0.11182 0.50411
 C206 C 0.38457 -0.10980 0.47206
 C207 C 0.59843 -0.01499 0.62638
 C208 C 0.62617 0.01587 0.40257
 C209 C 0.40041 0.01088 0.37434
 C210 C 0.37265 -0.00996 0.59902
 C211 C 0.49024 -0.12482 0.59969
 C212 C 0.50786 -0.09698 0.37384
 H213 H 0.42517 -0.07271 0.55081
 O214 O 0.44899 -0.04939 0.53459
 H215 H 0.57310 -0.05691 0.43532
 O216 O 0.54929 -0.03840 0.45613
 C217 C 0.15814 0.14357 0.02048
 C218 C 0.15833 0.19045 -0.00085
 C219 C 0.20511 0.22056 -0.00508
 C220 C 0.20203 0.27199 -0.00759
 C221 C 0.24554 0.30128 -0.01129
 C222 C 0.29323 0.27957 -0.01359
 C223 C 0.29624 0.22809 -0.01151
 C224 C 0.25274 0.19883 -0.00778
 C225 C 0.34024 0.30959 -0.01583
 C226 C 0.34111 0.35779 -0.03382
 H227 H 0.12360 0.20526 -0.01520
 H228 H 0.16590 0.28963 -0.00571
 H229 H 0.24146 0.34086 -0.01103
 H230 H 0.33236 0.21043 -0.01318
 H231 H 0.25671 0.15921 -0.00784
 H232 H 0.37458 0.29388 -0.00154
 H233 H 0.19235 0.12969 0.03681
 H234 H 0.30745 0.37299 -0.05001
 C235 C 0.15163 -0.35033 0.53114
 C236 C 0.15492 -0.30691 0.50324
 C237 C 0.20237 -0.27747 0.49933
 C238 C 0.20032 -0.22749 0.48613
 C239 C 0.24436 -0.19899 0.48152
 C240 C 0.29182 -0.22018 0.48912
 C241 C 0.29382 -0.27028 0.50191
 C242 C 0.24980 -0.29873 0.50657
 C243 C 0.33945 -0.19079 0.48667
 C244 C 0.34308 -0.14502 0.46297
 H245 H 0.12239 -0.29505 0.48225
 H246 H 0.16442 -0.21021 0.48009
 H247 H 0.24061 -0.16022 0.47318
 H248 H 0.32968 -0.28761 0.50803
 H249 H 0.25341 -0.33753 0.51492
 H250 H 0.37211 -0.20464 0.50610
 H251 H 0.18353 -0.36167 0.55322
 H252 H 0.31124 -0.13109 0.44248
 C253 C 0.84371 0.85443 -0.02809
 C254 C 0.84402 0.80454 -0.01582
 C255 C 0.79618 0.77634 -0.00982
 C256 C 0.79552 0.72514 -0.01642
 C257 C 0.75079 0.69801 -0.01091
 C258 C 0.70588 0.72160 0.00195
 C259 C 0.70648 0.77267 0.00859
 C260 C 0.75122 0.79972 0.00361
 C261 C 0.65819 0.69357 0.00788
 C262 C 0.65803 0.64581 0.02667
 H263 H 0.87925 0.78629 -0.00887
 H264 H 0.82950 0.70621 -0.02648
 H265 H 0.75133 0.65868 -0.01759
 H266 H 0.67249 0.79154 0.01874
 H267 H 0.75034 0.83879 0.01133
 H268 H 0.62325 0.71042 -0.00312
 H269 H 0.80818 0.87076 -0.03793
 H270 H 0.69302 0.63059 0.03987
 C271 C 0.85136 0.34575 0.46313
 C272 C 0.84658 0.30208 0.49024
 C273 C 0.79857 0.27371 0.49258
 C274 C 0.79933 0.22363 0.50537
 C275 C 0.75460 0.19630 0.50953
 C276 C 0.70784 0.21885 0.50197
 C277 C 0.70710 0.26891 0.48901
 C278 C 0.75183 0.29622 0.48478
 C279 C 0.65970 0.19074 0.50528
 C280 C 0.65521 0.14700 0.53235
 H281 H 0.87805 0.28963 0.51245
 H282 H 0.83470 0.20544 0.51168
 H283 H 0.75717 0.15737 0.51771
 H284 H 0.67173 0.28713 0.48282
 H285 H 0.74933 0.33516 0.47661
 H286 H 0.62761 0.20377 0.48436
 H287 H 0.82062 0.35770 0.43977
 H288 H 0.68658 0.13431 0.55439
 C289 C 0.84504 0.14295 -0.01145
 C290 C 0.84953 0.19396 -0.00854
 C291 C 0.80430 0.22456 -0.01336
 C292 C 0.79981 0.26704 0.01578
 C293 C 0.75539 0.29379 0.01485
 C294 C 0.71479 0.27870 -0.01580
 C295 C 0.72013 0.23727 -0.04630
 C296 C 0.76448 0.21061 -0.04537
 C297 C 0.66712 0.30588 -0.01721
 C298 C 0.66231 0.34938 0.00901
 H299 H 0.88532 0.21107 0.00084
 H300 H 0.83009 0.27867 0.04039
 H301 H 0.75279 0.32592 0.03856
 H302 H 0.68987 0.22539 -0.07084
 H303 H 0.76745 0.17896 -0.06969
 H304 H 0.63663 0.29303 -0.04108
 H305 H 0.80802 0.12654 -0.01639
 H306 H 0.63492 0.36399 0.00626
 C307 C 0.84126 -0.36511 0.49726
 C308 C 0.84458 -0.31399 0.50127
 C309 C 0.79918 -0.28351 0.49648
 C310 C 0.79656 -0.23898 0.52265
 C311 C 0.75308 -0.21088 0.52054
 C312 C 0.71142 -0.22671 0.49178
 C313 C 0.71457 -0.27059 0.46464
 C314 C 0.75809 -0.29851 0.46654
 C315 C 0.66491 -0.19781 0.48888
 C316 C 0.66368 -0.15067 0.50828
 H317 H 0.88016 -0.29628 0.51040
 H318 H 0.82782 -0.22643 0.54555
 H319 H 0.75207 -0.17702 0.54182
 H320 H 0.68341 -0.28315 0.44161
 H321 H 0.75947 -0.33159 0.44412
 H322 H 0.63235 -0.21269 0.46930
 H323 H 0.80456 -0.38212 0.49208
 H324 H 0.63688 -0.13523 0.50529
 C325 C 0.16103 0.35755 0.51469
 C326 C 0.16466 0.31261 0.49005
 C327 C 0.21142 0.28333 0.49072
 C328 C 0.20858 0.23311 0.47879
 C329 C 0.25155 0.20419 0.47986
 C330 C 0.29860 0.22484 0.49327
 C331 C 0.30188 0.27550 0.50298
 C332 C 0.25892 0.30451 0.50167
 C333 C 0.34457 0.19459 0.49651
 C334 C 0.34173 0.14416 0.50617
 H335 H 0.13229 0.29839 0.46977
 H336 H 0.17290 0.21606 0.46889
 H337 H 0.24760 0.16582 0.46951
 H338 H 0.33774 0.29263 0.51210
 H339 H 0.26356 0.34353 0.50865
 H340 H 0.38100 0.21229 0.49194
 H341 H 0.19252 0.37136 0.53635
 H342 H 0.30544 0.12716 0.51321
 C343 C 0.15297 0.85054 0.02103
 C344 C 0.16202 0.81065 -0.01016
 C345 C 0.20972 0.78279 -0.00815
 C346 C 0.21079 0.73514 -0.02815
 C347 C 0.25482 0.70774 -0.02661
 C348 C 0.29906 0.72738 -0.00484
 C349 C 0.29872 0.77586 0.01304
 C350 C 0.25464 0.80332 0.01149
 C351 C 0.34554 0.69789 -0.00071
 C352 C 0.34264 0.64686 0.00474
 H353 H 0.13376 0.80009 -0.03750
 H354 H 0.17732 0.71885 -0.04473
 H355 H 0.25408 0.67131 -0.04298
 H356 H 0.33247 0.79231 0.02890
 H357 H 0.25639 0.84078 0.02511
 H358 H 0.38184 0.71642 -0.00054
 H359 H 0.18050 0.86082 0.04907
 H360 H 0.30587 0.62959 0.00789
 C361 C -0.01785 0.13681 0.16183
 C362 C -0.00530 0.18703 0.15969
 C363 C -0.00288 0.21930 0.20478
 C364 C -0.00498 0.27066 0.19865
 C365 C -0.00205 0.30224 0.24004
 C366 C 0.00383 0.28317 0.28883
 C367 C 0.00607 0.23181 0.29490
 C368 C 0.00311 0.20026 0.25354
 C369 C 0.00631 0.31509 0.33418
 C370 C 0.01631 0.36586 0.33274
 H371 H 0.00300 0.20348 0.12358
 H372 H -0.00945 0.28645 0.16164
 H373 H -0.00529 0.34137 0.23339
 H374 H 0.01062 0.21595 0.33187
 H375 H 0.00654 0.16113 0.26015
 H376 H 0.00029 0.29773 0.37029
 H377 H -0.02862 0.12046 0.19724
 H378 H 0.02441 0.38367 0.29737
 C379 C 0.50545 0.36968 0.83161
 C380 C 0.49756 0.31863 0.83538
 C381 C 0.49504 0.28456 0.79179
 C382 C 0.49887 0.23362 0.80038
 C383 C 0.49635 0.20004 0.76069
 C384 C 0.48937 0.21665 0.71121
 C385 C 0.48530 0.26756 0.70266
 C386 C 0.48781 0.30114 0.74234
 C387 C 0.48799 0.18274 0.66747
 C388 C 0.48170 0.13147 0.67081
 H389 H 0.49379 0.30248 0.87235
 H390 H 0.50437 0.21970 0.83801
 H391 H 0.50084 0.16139 0.76916
 H392 H 0.47991 0.28151 0.66502
 H393 H 0.48335 0.33979 0.73387
 H394 H 0.49212 0.19917 0.63066
 H395 H 0.51142 0.38668 0.79544
 H396 H 0.47534 0.11408 0.70673
 C397 C 0.00985 0.85849 0.83609
 C398 C -0.00312 0.80860 0.83968
 C399 C -0.00716 0.77612 0.79526
 C400 C -0.00189 0.72512 0.80146
 C401 C -0.00508 0.69347 0.76032
 C402 C -0.01448 0.71222 0.71200
 C403 C -0.02029 0.76317 0.70594
 C404 C -0.01709 0.79480 0.74705
 C405 C -0.01628 0.68029 0.66704
 C406 C -0.02486 0.62948 0.66927
 H407 H -0.00964 0.79251 0.87630
 H408 H 0.00563 0.70980 0.83816
 H409 H 0.00108 0.65465 0.76661
 H410 H -0.02761 0.77858 0.66922
 H411 H -0.02315 0.83365 0.74082
 H412 H -0.01038 0.69753 0.63085
 H413 H 0.01921 0.87432 0.80003
 H414 H -0.03349 0.61195 0.70468
 C415 C 0.48494 -0.36715 0.16818
 C416 C 0.48971 -0.31567 0.16466
 C417 C 0.49187 -0.28194 0.20852
 C418 C 0.48567 -0.23116 0.20056
 C419 C 0.48865 -0.19779 0.24039
 C420 C 0.49846 -0.21444 0.28935
 C421 C 0.50453 -0.26520 0.29735
 C422 C 0.50163 -0.29856 0.25753
 C423 C 0.50119 -0.18067 0.33310
 C424 C 0.50804 -0.12949 0.32956
 H425 H 0.49196 -0.29888 0.12785
 H426 H 0.47817 -0.21721 0.16329
 H427 H 0.48243 -0.15926 0.23252
 H428 H 0.51208 -0.27913 0.33462
 H429 H 0.50797 -0.33703 0.26551
 H430 H 0.49843 -0.19717 0.37000
 H431 H 0.48011 -0.38427 0.20448
 H432 H 0.51327 -0.11220 0.29341
 C433 C -0.01172 0.83677 0.13852
 C434 C -0.01052 0.83985 0.19075
 C435 C -0.00680 0.79510 0.22305
 C436 C 0.01684 0.79869 0.26994
 C437 C 0.02231 0.75694 0.30046
 C438 C 0.00342 0.71052 0.28509
 C439 C -0.02050 0.70707 0.23833
 C440 C -0.02592 0.74877 0.20783
 C441 C 0.00769 0.66521 0.31655
 C442 C 0.01405 0.66659 0.36844
 H443 H -0.00798 0.87579 0.20826
 H444 H 0.03203 0.83379 0.28260
 H445 H 0.04213 0.76126 0.33556
 H446 H -0.03568 0.67200 0.22556
 H447 H -0.04574 0.74455 0.17270
 H448 H 0.00157 0.62973 0.29883
 H449 H -0.00994 0.80060 0.12163
 H450 H 0.01619 0.70188 0.38709
 C451 C 0.51734 -0.33039 0.86799
 C452 C 0.51274 -0.33405 0.81609
 C453 C 0.50934 -0.29042 0.78273
 C454 C 0.48573 -0.29578 0.73603
 C455 C 0.48064 -0.25535 0.70393
 C456 C 0.49982 -0.20865 0.71763
 C457 C 0.52358 -0.20331 0.76426
 C458 C 0.52867 -0.24375 0.79638
 C459 C 0.49554 -0.16487 0.68459
 C460 C 0.49009 -0.16829 0.63275
 H461 H 0.50720 -0.37020 0.79963
 H462 H 0.47036 -0.33125 0.72468
 H463 H 0.46086 -0.26083 0.66895
 H464 H 0.53883 -0.16781 0.77565
 H465 H 0.54835 -0.23827 0.83141
 H466 H 0.50034 -0.12873 0.70128
 H467 H 0.51913 -0.29450 0.88548
 H468 H 0.48926 -0.20408 0.61500
 C469 C 0.48983 0.33405 0.13504
 C470 C 0.49487 0.33746 0.18689
 C471 C 0.49984 0.29366 0.21981
 C472 C 0.48772 0.29781 0.27063
 C473 C 0.49205 0.25739 0.30288
 C474 C 0.50947 0.21195 0.28505
 C475 C 0.52184 0.20789 0.23428
 C476 C 0.51749 0.24831 0.20203
 C477 C 0.51331 0.16778 0.31765
 C478 C 0.51633 0.17044 0.36970
 H479 H 0.49444 0.37353 0.20420
 H480 H 0.47412 0.33229 0.28530
 H481 H 0.48061 0.26185 0.34135
 H482 H 0.53533 0.17338 0.21957
 H483 H 0.52883 0.24388 0.16352
 H484 H 0.51372 0.13191 0.29994
 H485 H 0.48751 0.29822 0.11745
 H486 H 0.51869 0.20597 0.38788
 C487 C 0.01898 0.15095 0.85254
 C488 C 0.01088 0.20141 0.85846
 C489 C 0.00829 0.23627 0.81508
 C490 C 0.01568 0.28690 0.82340
 C491 C 0.01272 0.32077 0.78383
 C492 C 0.00211 0.30510 0.73472
 C493 C -0.00602 0.25444 0.72629
 C494 C -0.00317 0.22051 0.76596
 C495 C -0.00159 0.34310 0.69442
 C496 C -0.00352 0.33391 0.64265
 H497 H 0.00644 0.21602 0.89586
 H498 H 0.02394 0.30036 0.86070
 H499 H 0.01877 0.35957 0.79172
 H500 H -0.01563 0.24077 0.68948
 H501 H -0.01127 0.18219 0.75789
 H502 H -0.00124 0.38118 0.70655
 H503 H 0.02623 0.13735 0.81527
 H504 H -0.00152 0.29666 0.62865
 C505 C 0.12949 -0.01335 0.17136
 C506 C 0.18139 -0.00919 0.16720
 C507 C 0.21489 -0.00626 0.21098
 C508 C 0.26526 -0.01890 0.20515
 C509 C 0.29839 -0.01564 0.24547
 C510 C 0.28169 0.00112 0.29220
 C511 C 0.23130 0.01355 0.29811
 C512 C 0.19817 0.01036 0.25778
 C513 C 0.31544 0.00478 0.33568
 C514 C 0.36704 0.01160 0.33088
 H515 H 0.19838 -0.00862 0.13039
 H516 H 0.27889 -0.03178 0.16942
 H517 H 0.33667 -0.02706 0.24000
 H518 H 0.21772 0.02650 0.33384
 H519 H 0.15998 0.02195 0.26333
 H520 H 0.29888 0.00312 0.37265
 H521 H 0.11196 -0.01730 0.20764
 H522 H 0.38381 0.01664 0.29436
 C523 C 0.36721 0.51179 0.83459
 C524 C 0.31528 0.50658 0.83904
 C525 C 0.28174 0.50240 0.79530
 C526 C 0.23131 0.51507 0.80066
 C527 C 0.19838 0.51138 0.76016
 C528 C 0.21533 0.49414 0.71368
 C529 C 0.26568 0.48126 0.70838
 C530 C 0.29858 0.48487 0.74889
 C531 C 0.18208 0.49096 0.66969
 C532 C 0.13019 0.48600 0.67359
 H533 H 0.29823 0.50634 0.87582
 H534 H 0.21754 0.52856 0.83610
 H535 H 0.16015 0.52308 0.76525
 H536 H 0.27947 0.46787 0.67290
 H537 H 0.33678 0.47311 0.74375
 H538 H 0.19923 0.49195 0.63297
 H539 H 0.38400 0.51546 0.79790
 H540 H 0.11269 0.48137 0.70982
 C541 C 0.87158 -0.00121 0.82944
 C542 C 0.81942 -0.00472 0.83344
 C543 C 0.78552 -0.00781 0.78978
 C544 C 0.73527 0.00522 0.79600
 C545 C 0.70179 0.00275 0.75587
 C546 C 0.71789 -0.01358 0.70876
 C547 C 0.76810 -0.02674 0.70252
 C548 C 0.80162 -0.02432 0.74271
 C549 C 0.68390 -0.01535 0.66513
 C550 C 0.63194 -0.01924 0.66967
 H551 H 0.80224 -0.00370 0.87015
 H552 H 0.72201 0.01805 0.83189
 H553 H 0.66378 0.01473 0.76179
 H554 H 0.78132 -0.03937 0.66653
 H555 H 0.83967 -0.03613 0.73675
 H556 H 0.70050 -0.01382 0.62817
 H557 H 0.88895 0.00061 0.79292
 H558 H 0.61491 -0.02439 0.70606
 C559 C -0.36836 0.48259 0.16758
 C560 C -0.31620 0.48610 0.16299
 C561 C -0.28194 0.48654 0.20656
 C562 C -0.23510 0.51033 0.20196
 C563 C -0.20204 0.51268 0.24253
 C564 C -0.21493 0.49039 0.28845
 C565 C -0.26165 0.46625 0.29291
 C566 C -0.29478 0.46402 0.25234
 C567 C -0.18130 0.49230 0.33256
 C568 C -0.12972 0.50116 0.32928
 H569 H -0.29984 0.49273 0.12645
 H570 H -0.22443 0.52805 0.16709
 H571 H -0.16707 0.53284 0.23782
 H572 H -0.27241 0.44868 0.32783
 H573 H -0.32996 0.44414 0.25691
 H574 H -0.19756 0.48425 0.36886
 H575 H -0.38502 0.47889 0.20432
 H576 H -0.11201 0.50598 0.29320
 C577 C 0.17249 0.00704 0.87078
 C578 C 0.16767 0.00485 0.81892
 C579 C 0.21091 0.00149 0.78507
 C580 C 0.20355 -0.01992 0.73792
 C581 C 0.24353 -0.02431 0.70485
 C582 C 0.29154 -0.00654 0.71822
 C583 C 0.29895 0.01477 0.76542
 C584 C 0.25894 0.01914 0.79852
 C585 C 0.33456 -0.00965 0.68405
 C586 C 0.32912 -0.01119 0.63222
 H587 H 0.13053 0.00177 0.80247
 H588 H 0.16687 -0.03394 0.72691
 H589 H 0.23673 -0.04227 0.66935
 H590 H 0.33563 0.02880 0.77639
 H591 H 0.26573 0.03705 0.83405
 H592 H 0.37187 -0.00699 0.70015
 H593 H 0.20913 0.00684 0.88829
 H594 H 0.29227 -0.01016 0.61520
 C595 C 0.32980 0.49448 0.13470
 C596 C 0.33511 0.49805 0.18649
 C597 C 0.29197 0.50246 0.22060
 C598 C 0.29959 0.52422 0.26761
 C599 C 0.25960 0.52952 0.30071
 C600 C 0.21129 0.51247 0.28746
 C601 C 0.20371 0.49071 0.24047
 C602 C 0.24365 0.48533 0.20747
 C603 C 0.16797 0.51639 0.32136
 C604 C 0.17253 0.51905 0.37328
 H605 H 0.37244 0.50107 0.20248
 H606 H 0.33648 0.53777 0.27850
 H607 H 0.26666 0.54756 0.33611
 H608 H 0.16685 0.47706 0.22957
 H609 H 0.23651 0.46702 0.17223
 H610 H 0.13087 0.51262 0.30496
 H611 H 0.29298 0.49520 0.11761
 H612 H 0.20915 0.51972 0.39085
 C613 C 0.82764 -0.00316 0.12911
 C614 C 0.83216 -0.00055 0.18109
 C615 C 0.78903 0.00453 0.21528
 C616 C 0.79531 -0.00811 0.26580
 C617 C 0.75583 -0.00354 0.29959
 C618 C 0.70925 0.01457 0.28358
 C619 C 0.70303 0.02742 0.23307
 C620 C 0.74254 0.02280 0.19924
 C621 C 0.66586 0.01838 0.31768
 C622 C 0.67022 0.01892 0.36974
 H623 H 0.86909 -0.00332 0.19784
 H624 H 0.83076 -0.02223 0.27908
 H625 H 0.76188 -0.01531 0.33778
 H626 H 0.66752 0.04138 0.21978
 H627 H 0.73654 0.03430 0.16095
 H628 H 0.62886 0.02046 0.30095
 H629 H 0.79107 -0.00302 0.11148
 H630 H 0.70678 0.01967 0.38738
 C631 C -0.33104 0.51614 0.86878
 C632 C -0.33592 0.51244 0.81690
 C633 C -0.29261 0.50792 0.78284
 C634 C -0.30017 0.48572 0.73601
 C635 C -0.26013 0.47977 0.70308
 C636 C -0.21168 0.49665 0.71616
 C637 C -0.20419 0.51905 0.76290
 C638 C -0.24422 0.52497 0.79583
 C639 C -0.16809 0.49140 0.68255
 C640 C -0.17228 0.48515 0.63086
 H641 H -0.37315 0.50864 0.80082
 H642 H -0.33708 0.47217 0.72519
 H643 H -0.26732 0.46121 0.66799
 H644 H -0.16728 0.53255 0.77378
 H645 H -0.23708 0.54348 0.83098
 H646 H -0.13104 0.49608 0.69884
 H647 H -0.29427 0.51644 0.88603
 H648 H -0.20877 0.48373 0.61308
   
