data_POSCAR
  _audit_creation_date              2014-09-24
  _audit_creation_method            'ToBaCCo'
  _symmetry_space_group_name_H-M    'P1'
  _symmetry_Int_Tables_number       1
  _symmetry_cell_setting            triclinic
  loop_
  _symmetry_equiv_pos_as_xyz
 x,y,z
_cell_length_a 59.8591
_cell_length_b 59.8046
_cell_length_c 33.5755
_cell_angle_alpha 90.217700
_cell_angle_beta 89.985900
_cell_angle_gamma 92.123100
loop_
  _atom_site_label
  _atom_site_type_symbol
  _atom_site_fract_x
  _atom_site_fract_y
  _atom_site_fract_z
C1 C -0.00432 0.26587 -0.02077
 C2 C -0.00469 0.26616 0.01976
 C3 C -0.02591 0.26759 0.04243
 C4 C 0.01608 0.26387 0.04306
 C5 C 0.01697 0.26558 -0.04337
 C6 C -0.02527 0.26491 -0.04421
 C7 C -0.04060 0.28480 0.03530
 C8 C -0.06123 0.28515 0.05472
 C9 C -0.06781 0.26841 0.08267
 C10 C -0.05217 0.25171 0.09068
 C11 C -0.03166 0.25136 0.07085
 C12 C 0.02466 0.28191 0.06583
 C13 C 0.04480 0.28012 0.08643
 C14 C 0.05628 0.26007 0.08535
 C15 C 0.04734 0.24184 0.06335
 C16 C 0.02746 0.24379 0.04208
 C17 C 0.02071 0.24813 -0.07028
 C18 C 0.04096 0.24730 -0.09082
 C19 C 0.05781 0.26403 -0.08507
 C20 C 0.05381 0.28174 -0.05864
 C21 C 0.03354 0.28255 -0.03810
 C22 C -0.03998 0.24614 -0.04195
 C23 C -0.06016 0.24570 -0.06287
 C24 C -0.06602 0.26414 -0.08588
 C25 C -0.05116 0.28281 -0.08843
 C26 C -0.03077 0.28306 -0.06813
 H27 H -0.03611 0.29801 0.01450
 H28 H -0.07135 0.29932 0.04861
 H29 H -0.05598 0.23775 0.11015
 H30 H -0.02057 0.23786 0.07674
 H31 H 0.01601 0.29749 0.06687
 H32 H 0.05138 0.29432 0.10342
 H33 H 0.02094 0.22970 0.02472
 H34 H 0.00812 0.23489 -0.07475
 H35 H 0.04361 0.23331 -0.11061
 H36 H 0.06628 0.29509 -0.05412
 H37 H 0.03077 0.29640 -0.01807
 H38 H -0.03587 0.23197 -0.02372
 H39 H -0.07143 0.23118 -0.06041
 H40 H -0.05532 0.29713 -0.10624
 H41 H -0.01954 0.29763 -0.07018
 H42 H 0.05600 0.22627 0.06201
 C43 C 0.50303 0.76563 0.47912
 C44 C 0.50355 0.76353 0.51953
 C45 C 0.48267 0.76419 0.54330
 C46 C 0.52479 0.76038 0.54144
 C47 C 0.52373 0.76749 0.45486
 C48 C 0.48154 0.76512 0.45724
 C49 C 0.46893 0.78265 0.54086
 C50 C 0.44846 0.78251 0.56078
 C51 C 0.44142 0.76398 0.58384
 C52 C 0.45564 0.74588 0.58747
 C53 C 0.47613 0.74603 0.56744
 C54 C 0.53052 0.77423 0.57399
 C55 C 0.55113 0.77238 0.59304
 C56 C 0.56637 0.75669 0.57973
 C57 C 0.56027 0.74225 0.54817
 C58 C 0.53954 0.74386 0.52959
 C59 C 0.52713 0.75211 0.42402
 C60 C 0.54722 0.75261 0.40288
 C61 C 0.56424 0.76867 0.41189
 C62 C 0.56046 0.78458 0.44188
 C63 C 0.54035 0.78403 0.46309
 C64 C 0.46760 0.74574 0.45739
 C65 C 0.44719 0.74537 0.43722
 C66 C 0.44032 0.76446 0.41706
 C67 C 0.45432 0.78382 0.41687
 C68 C 0.47494 0.78405 0.43643
 H69 H 0.47394 0.79702 0.52300
 H70 H 0.43809 0.79688 0.55807
 H71 H 0.45060 0.73131 0.60478
 H72 H 0.48656 0.73168 0.56974
 H73 H 0.51930 0.78693 0.58387
 H74 H 0.55549 0.78370 0.61730
 H75 H 0.53518 0.73250 0.50539
 H76 H 0.51451 0.73921 0.41723
 H77 H 0.54969 0.73997 0.38030
 H78 H 0.57306 0.79742 0.44902
 H79 H 0.53787 0.79629 0.48635
 H80 H 0.47256 0.73096 0.47317
 H81 H 0.43659 0.73030 0.43785
 H82 H 0.44938 0.79866 0.40126
 H83 H 0.48559 0.79910 0.43601
 H84 H 0.57159 0.72975 0.53786
 C85 C 1.00291 0.73750 -0.01805
 C86 C 1.00222 0.73429 0.02214
 C87 C 1.02274 0.73075 0.04576
 C88 C 0.98102 0.73573 0.04458
 C89 C 0.98199 0.73851 -0.04168
 C90 C 1.02447 0.74033 -0.03992
 C91 C 1.03723 0.71368 0.03573
 C92 C 1.05766 0.71205 0.05544
 C93 C 1.06391 0.72737 0.08569
 C94 C 1.04886 0.74381 0.09681
 C95 C 1.02843 0.74538 0.07719
 C96 C 0.97235 0.71715 0.06560
 C97 C 0.95217 0.71844 0.08629
 C98 C 0.94070 0.73851 0.08700
 C99 C 0.94963 0.75720 0.06649
 C100 C 0.96958 0.75579 0.04525
 C101 C 0.97826 0.75706 -0.06588
 C102 C 0.95827 0.75844 -0.08710
 C103 C 0.94170 0.74119 -0.08467
 C104 C 0.94574 0.72238 -0.06110
 C105 C 0.96572 0.72101 -0.03997
 C106 C 1.04126 0.75549 -0.02646
 C107 C 1.06209 0.75675 -0.04513
 C108 C 1.06650 0.74347 -0.07890
 C109 C 1.04896 0.72932 -0.09375
 C110 C 1.02830 0.72768 -0.07431
 H111 H 1.03295 0.70201 0.01194
 H112 H 1.06869 0.69894 0.04670
 H113 H 1.05325 0.75604 0.11961
 H114 H 1.01748 0.75868 0.08534
 H115 H 0.98107 0.70160 0.06547
 H116 H 0.94563 0.70388 0.10215
 H117 H 0.97618 0.77033 0.02942
 H118 H 0.99065 0.77069 -0.06766
 H119 H 0.95559 0.77321 -0.10474
 H120 H 0.93350 0.70863 -0.05927
 H121 H 0.96850 0.70632 -0.02215
 H122 H 1.03836 0.76620 -0.00105
 H123 H 1.07444 0.76876 -0.03361
 H124 H 1.05142 0.71841 -0.11902
 H125 H 1.01550 0.71601 -0.08547
 H126 H 0.94099 0.77280 0.06650
 C127 C 0.49435 0.23427 0.47734
 C128 C 0.49509 0.23578 0.51784
 C129 C 0.51664 0.23790 0.53985
 C130 C 0.47422 0.23557 0.54178
 C131 C 0.47299 0.23608 0.45558
 C132 C 0.51486 0.23201 0.45302
 C133 C 0.52082 0.22352 0.57173
 C134 C 0.54151 0.22458 0.59112
 C135 C 0.55837 0.23997 0.57876
 C136 C 0.55392 0.25486 0.54780
 C137 C 0.53313 0.25407 0.52893
 C138 C 0.45844 0.21771 0.53856
 C139 C 0.43847 0.21795 0.56005
 C140 C 0.43397 0.23600 0.58542
 C141 C 0.45008 0.25361 0.58929
 C142 C 0.47006 0.25334 0.56777
 C143 C 0.46151 0.25611 0.45670
 C144 C 0.44119 0.25774 0.43669
 C145 C 0.43192 0.23926 0.41578
 C146 C 0.44345 0.21924 0.41465
 C147 C 0.46401 0.21776 0.43401
 C148 C 0.52027 0.24790 0.42361
 C149 C 0.54064 0.24730 0.40339
 C150 C 0.55590 0.23064 0.41191
 C151 C 0.54995 0.21413 0.44011
 C152 C 0.52959 0.21477 0.46039
 H153 H 0.50827 0.21108 0.58093
 H154 H 0.54459 0.21294 0.61496
 H155 H 0.56654 0.26714 0.53826
 H156 H 0.53002 0.26584 0.50533
 H157 H 0.46158 0.20361 0.51930
 H158 H 0.42662 0.20393 0.55704
 H159 H 0.48209 0.26724 0.57070
 H160 H 0.46832 0.27042 0.47311
 H161 H 0.43252 0.27330 0.43804
 H162 H 0.43662 0.20485 0.39847
 H163 H 0.47274 0.20222 0.43286
 H164 H 0.50914 0.26133 0.41750
 H165 H 0.54479 0.26040 0.38219
 H166 H 0.56113 0.20083 0.44678
 H167 H 0.52553 0.20215 0.48254
 H168 H 0.44702 0.26784 0.60829
 C169 C 0.73840 0.00053 -0.02351
 C170 C 0.73821 -0.00059 0.01719
 C171 C 0.74101 -0.02202 0.03889
 C172 C 0.73534 0.01979 0.04185
 C173 C 0.73947 0.02239 -0.04482
 C174 C 0.73767 -0.02003 -0.04863
 C175 C 0.72693 -0.02771 0.07096
 C176 C 0.72903 -0.04797 0.09097
 C177 C 0.74508 -0.06337 0.07898
 C178 C 0.75955 -0.05720 0.04733
 C179 C 0.75783 -0.03664 0.02821
 C180 C 0.71689 0.03323 0.03613
 C181 C 0.71540 0.05347 0.05668
 C182 C 0.73227 0.06060 0.08350
 C183 C 0.75020 0.04657 0.09050
 C184 C 0.75164 0.02628 0.07002
 C185 C 0.75508 0.03938 -0.03380
 C186 C 0.75515 0.06023 -0.05230
 C187 C 0.74023 0.06444 -0.08374
 C188 C 0.72546 0.04681 -0.09617
 C189 C 0.72498 0.02617 -0.07669
 C190 C 0.75377 -0.02278 -0.07832
 C191 C 0.75402 -0.04251 -0.10069
 C192 C 0.73807 -0.06015 -0.09402
 C193 C 0.72141 -0.05674 -0.06494
 C194 C 0.72116 -0.03692 -0.04283
 H195 H 0.71392 -0.01665 0.08003
 H196 H 0.71715 -0.05195 0.11442
 H197 H 0.77288 -0.06780 0.03808
 H198 H 0.76962 -0.03221 0.00483
 H199 H 0.70393 0.02828 0.01503
 H200 H 0.70114 0.06366 0.05126
 H201 H 0.76596 0.01608 0.07489
 H202 H 0.76721 0.03655 -0.01061
 H203 H 0.76760 0.07271 -0.04280
 H204 H 0.71334 0.04917 -0.11954
 H205 H 0.71290 0.01326 -0.08601
 H206 H 0.76667 -0.00990 -0.08331
 H207 H 0.76761 -0.04417 -0.12157
 H208 H 0.70803 -0.06902 -0.05974
 H209 H 0.70815 -0.03483 -0.02085
 H210 H 0.76357 0.05164 0.11066
 C211 C 0.23479 0.49906 0.48568
 C212 C 0.23572 0.49832 0.52631
 C213 C 0.23805 0.47686 0.54793
 C214 C 0.23473 0.51895 0.55095
 C215 C 0.23612 0.52058 0.46350
 C216 C 0.23294 0.47823 0.46138
 C217 C 0.22333 0.47110 0.57912
 C218 C 0.22472 0.45049 0.59829
 C219 C 0.24077 0.43528 0.58640
 C220 C 0.25594 0.44134 0.55609
 C221 C 0.25481 0.46209 0.53744
 C222 C 0.21728 0.53377 0.54625
 C223 C 0.21728 0.55379 0.56784
 C224 C 0.23463 0.55927 0.59480
 C225 C 0.25166 0.54400 0.60042
 C226 C 0.25164 0.52400 0.57881
 C227 C 0.25302 0.53689 0.47177
 C228 C 0.25389 0.55713 0.45114
 C229 C 0.23831 0.56117 0.42102
 C230 C 0.22183 0.54462 0.41189
 C231 C 0.22071 0.52454 0.43304
 C232 C 0.24881 0.47433 0.43167
 C233 C 0.24802 0.45428 0.41019
 C234 C 0.23122 0.43778 0.41781
 C235 C 0.21494 0.44202 0.44680
 C236 C 0.21572 0.46211 0.46824
 H237 H 0.21043 0.48234 0.58796
 H238 H 0.21284 0.44614 0.62159
 H239 H 0.26870 0.43002 0.54691
 H240 H 0.26680 0.46648 0.51435
 H241 H 0.20383 0.52996 0.52545
 H242 H 0.20372 0.56501 0.56343
 H243 H 0.26522 0.51275 0.58293
 H244 H 0.26556 0.53394 0.49418
 H245 H 0.26697 0.56952 0.45822
 H246 H 0.20963 0.54740 0.38879
 H247 H 0.20766 0.51214 0.42588
 H248 H 0.26219 0.48658 0.42590
 H249 H 0.26094 0.45143 0.38837
 H250 H 0.20156 0.42982 0.45283
 H251 H 0.20307 0.46499 0.49056
 H252 H 0.26536 0.54782 0.62066
 C253 C 0.26778 1.00029 -0.01537
 C254 C 0.26789 0.99961 0.02513
 C255 C 0.26732 1.02035 0.04948
 C256 C 0.26702 0.97806 0.04667
 C257 C 0.26877 0.97969 -0.04006
 C258 C 0.26513 1.02164 -0.03664
 C259 C 0.28387 1.03735 0.04531
 C260 C 0.28238 1.05747 0.06622
 C261 C 0.26439 1.06106 0.09254
 C262 C 0.24834 1.04333 0.09765
 C263 C 0.24981 1.02332 0.07638
 C264 C 0.28538 0.97173 0.06937
 C265 C 0.28509 0.95087 0.08802
 C266 C 0.26619 0.93632 0.08503
 C267 C 0.24758 0.94297 0.06320
 C268 C 0.24806 0.96364 0.04390
 C269 C 0.25218 0.97489 -0.06851
 C270 C 0.25234 0.95513 -0.09075
 C271 C 0.26919 0.93946 -0.08517
 C272 C 0.28619 0.94486 -0.05710
 C273 C 0.28604 0.96475 -0.03515
 C274 C 0.24430 1.03147 -0.03778
 C275 C 0.24178 1.05171 -0.05760
 C276 C 0.26026 1.06293 -0.07588
 C277 C 0.28121 1.05281 -0.07419
 C278 C 0.28348 1.03221 -0.05541
 H279 H 0.29797 1.03507 0.02568
 H280 H 0.29584 1.06984 0.06245
 H281 H 0.23380 1.04512 0.11635
 H282 H 0.23683 1.01038 0.07998
 H283 H 0.30010 0.98274 0.07180
 H284 H 0.29954 0.94610 0.10495
 H285 H 0.23372 0.96837 0.02660
 H286 H 0.23863 0.98615 -0.07273
 H287 H 0.23843 0.95180 -0.11070
 H288 H 0.30017 0.93419 -0.05272
 H289 H 0.29944 0.96849 -0.01423
 H290 H 0.23000 1.02346 -0.02319
 H291 H 0.22549 1.05896 -0.05684
 H292 H 0.29577 1.06026 -0.08878
 H293 H 0.29965 1.02466 -0.05495
 H294 H 0.23288 0.93196 0.06043
 C295 C 0.77043 0.50152 0.47735
 C296 C 0.77098 0.50074 0.51782
 C297 C 0.77195 0.52142 0.54232
 C298 C 0.76932 0.47916 0.53921
 C299 C 0.76999 0.48085 0.45279
 C300 C 0.76898 0.52308 0.45622
 C301 C 0.78958 0.53735 0.53792
 C302 C 0.78953 0.55749 0.55914
 C303 C 0.77192 0.56199 0.58538
 C304 C 0.75465 0.54566 0.59060
 C305 C 0.75472 0.52554 0.56935
 C306 C 0.78767 0.47173 0.56070
 C307 C 0.78654 0.45084 0.57925
 C308 C 0.76685 0.43737 0.57734
 C309 C 0.74829 0.44511 0.55662
 C310 C 0.74957 0.46580 0.53745
 C311 C 0.75204 0.47620 0.42688
 C312 C 0.75066 0.45607 0.40565
 C313 C 0.76732 0.44025 0.40972
 C314 C 0.78564 0.44527 0.43484
 C315 C 0.78700 0.46542 0.45605
 C316 C 0.74956 0.53542 0.45895
 C317 C 0.74858 0.55623 0.44039
 C318 C 0.76714 0.56512 0.41943
 C319 C 0.78651 0.55266 0.41651
 C320 C 0.78731 0.53163 0.43438
 H321 H 0.80324 0.53426 0.51773
 H322 H 0.80327 0.56954 0.55504
 H323 H 0.74074 0.54871 0.61026
 H324 H 0.74096 0.51345 0.57311
 H325 H 0.80300 0.48191 0.56231
 H326 H 0.80098 0.44524 0.59533
 H327 H 0.73525 0.47139 0.52104
 H328 H 0.73874 0.48788 0.42402
 H329 H 0.73623 0.45261 0.38688
 H330 H 0.79895 0.43362 0.43803
 H331 H 0.80120 0.46890 0.47537
 H332 H 0.73527 0.52897 0.47570
 H333 H 0.73352 0.56563 0.44310
 H334 H 0.80094 0.55917 0.40024
 H335 H 0.80240 0.52226 0.43208
 H336 H 0.73298 0.43493 0.55466
 O337 O 0.22302 0.25847 0.20341
 O338 O 0.27880 0.25595 0.24875
 O339 O 0.25423 0.22905 0.20403
 O340 O 0.24758 0.28486 0.24823
 O341 O 0.23287 0.26924 0.30204
 O342 O 0.23901 0.21346 0.25744
 O343 O 0.26392 0.23975 0.30195
 O344 O 0.20800 0.24266 0.25684
 Cu345 Cu 0.25240 0.25860 0.22068
 Cu346 Cu 0.23442 0.23975 0.28497
 C347 C 0.20597 0.25103 0.22236
 C348 C 0.28092 0.24743 0.28308
 C349 C 0.24772 0.21169 0.22314
 C350 C 0.23919 0.28661 0.28281
 O351 O 0.75796 0.78816 0.25391
 O352 O 0.76424 0.73425 0.30486
 O353 O 0.78906 0.75907 0.25749
 O354 O 0.73313 0.76365 0.30152
 O355 O 0.71817 0.74738 0.24830
 O356 O 0.77443 0.73971 0.20720
 O357 O 0.74775 0.71674 0.25424
 O358 O 0.74493 0.77013 0.20078
 Cu359 Cu 0.76257 0.76303 0.28472
 Cu360 Cu 0.74478 0.74169 0.22247
 C361 C 0.75082 0.78828 0.21828
 C362 C 0.75679 0.71630 0.28842
 C363 C 0.79134 0.74849 0.22494
 C364 C 0.71603 0.75658 0.28220
 O365 O 0.73287 0.23062 0.19656
 O366 O 0.73955 0.28620 0.24293
 O367 O 0.76369 0.26239 0.19581
 O368 O 0.70884 0.25411 0.24469
 O369 O 0.72529 0.23940 0.29664
 O370 O 0.77992 0.24713 0.24748
 O371 O 0.75604 0.27136 0.29472
 O372 O 0.74893 0.21547 0.24850
 Cu373 Cu 0.73457 0.25983 0.21485
 Cu374 Cu 0.75416 0.24185 0.27705
 C375 C 0.73978 0.21352 0.21444
 C376 C 0.74902 0.28837 0.27664
 C377 C 0.78120 0.25607 0.21326
 C378 C 0.70769 0.24537 0.27911
 O379 O 0.21779 0.74939 0.24935
 O380 O 0.27281 0.76002 0.29623
 O381 O 0.24753 0.78218 0.24827
 O382 O 0.24300 0.72727 0.29741
 O383 O 0.25782 0.71158 0.24450
 O384 O 0.26535 0.76701 0.19798
 O385 O 0.28888 0.74300 0.24594
 O386 O 0.23424 0.73529 0.19662
 Cu387 Cu 0.24365 0.75628 0.27799
 Cu388 Cu 0.26321 0.73772 0.21602
 C389 C 0.21661 0.74076 0.21474
 C390 C 0.29021 0.75292 0.27942
 C391 C 0.25742 0.78402 0.21490
 C392 C 0.24944 0.71000 0.27919
 O393 O 0.75956 0.26887 0.69513
 O394 O 0.74971 0.21428 0.74396
 O395 O 0.72723 0.23859 0.69467
 O396 O 0.78193 0.24453 0.74421
 O397 O 0.76655 0.26317 0.79334
 O398 O 0.71120 0.25367 0.74694
 O399 O 0.73590 0.23144 0.79632
 O400 O 0.74206 0.28535 0.74442
 Cu401 Cu 0.75614 0.23986 0.71435
 Cu402 Cu 0.73728 0.26006 0.77535
 C403 C 0.75214 0.28639 0.71116
 C404 C 0.74172 0.21365 0.77901
 C405 C 0.70983 0.24500 0.71238
 C406 C 0.78364 0.25506 0.77706
 O407 O 0.28891 0.74604 0.75377
 O408 O 0.23453 0.74119 0.80486
 O409 O 0.25734 0.71497 0.75894
 O410 O 0.26600 0.77191 0.79954
 O411 O 0.24895 0.78554 0.74723
 O412 O 0.24151 0.72875 0.70553
 O413 O 0.21791 0.75397 0.75132
 O414 O 0.27251 0.76025 0.70130
 Cu415 Cu 0.26335 0.74209 0.78453
 Cu416 Cu 0.24358 0.75850 0.72103
 C417 C 0.29005 0.75410 0.71884
 C418 C 0.21694 0.74680 0.78686
 C419 C 0.24811 0.71211 0.72512
 C420 C 0.25873 0.78847 0.78053
 O421 O 0.25154 0.28302 0.75434
 O422 O 0.25645 0.22814 0.80255
 O423 O 0.28182 0.25293 0.75644
 O424 O 0.22608 0.25837 0.80102
 O425 O 0.21063 0.24283 0.74757
 O426 O 0.26653 0.23561 0.70454
 O427 O 0.23977 0.21183 0.75085
 O428 O 0.23717 0.26629 0.70102
 Cu429 Cu 0.25549 0.25727 0.78391
 Cu430 Cu 0.23699 0.23745 0.72075
 C431 C 0.24383 0.28398 0.71915
 C432 C 0.24868 0.21066 0.78505
 C433 C 0.28374 0.24333 0.72286
 C434 C 0.20879 0.25166 0.78184
 O435 O 0.73605 0.76064 0.69185
 O436 O 0.79093 0.75831 0.74053
 O437 O 0.76685 0.73136 0.69550
 O438 O 0.75988 0.78766 0.73768
 O439 O 0.74396 0.77262 0.79095
 O440 O 0.75069 0.71646 0.74867
 O441 O 0.77494 0.74328 0.79374
 O442 O 0.71985 0.74605 0.74528
 Cu443 Cu 0.76503 0.76103 0.71109
 Cu444 Cu 0.74575 0.74310 0.77499
 C445 C 0.71857 0.75370 0.71012
 C446 C 0.79238 0.75035 0.77541
 C447 C 0.75989 0.71426 0.71485
 C448 C 0.75078 0.78977 0.77164
 C449 C 0.25718 0.12364 0.15223
 C450 C 0.26882 0.12263 0.11567
 C451 C 0.27142 0.10197 0.09649
 C452 C 0.26232 0.08186 0.11270
 C453 C 0.25076 0.08317 0.14919
 C454 C 0.24829 0.10360 0.16863
 C455 C 0.25464 0.14607 0.17160
 C456 C 0.24362 0.14884 0.20830
 C457 C 0.24151 0.17009 0.22488
 C458 C 0.25024 0.18920 0.20539
 C459 C 0.26136 0.18662 0.16893
 C460 C 0.26367 0.16530 0.15205
 C461 C 0.27753 0.14229 0.09806
 C462 C 0.27496 0.16315 0.11578
 H463 H 0.28641 0.14156 0.06997
 H464 H 0.28193 0.17784 0.10081
 H465 H 0.27964 0.10197 0.06777
 H466 H 0.24416 0.06832 0.16399
 H467 H 0.23287 0.17154 0.25307
 H468 H 0.26830 0.20123 0.15363
 H469 H 0.23935 0.10326 0.19650
 H470 H 0.23652 0.13487 0.22476
 C471 C 0.76807 0.62563 0.64571
 C472 C 0.77563 0.62457 0.60580
 C473 C 0.77711 0.60380 0.58656
 C474 C 0.77120 0.58383 0.60644
 C475 C 0.76408 0.58490 0.64618
 C476 C 0.76254 0.60546 0.66561
 C477 C 0.76614 0.64821 0.66479
 C478 C 0.75819 0.65114 0.70392
 C479 C 0.75631 0.67253 0.72006
 C480 C 0.76236 0.69161 0.69778
 C481 C 0.77046 0.68888 0.65888
 C482 C 0.77227 0.66744 0.64224
 C483 C 0.78149 0.64424 0.58519
 C484 C 0.77993 0.66520 0.60306
 H485 H 0.78733 0.64344 0.55468
 H486 H 0.78462 0.67991 0.58577
 H487 H 0.78239 0.60321 0.55569
 H488 H 0.75976 0.56974 0.66242
 H489 H 0.75003 0.67411 0.75015
 H490 H 0.77513 0.70347 0.64127
 H491 H 0.75694 0.60514 0.69613
 H492 H 0.75318 0.63718 0.72252
 C493 C 0.74819 0.87284 0.13464
 C494 C 0.74214 0.89178 0.15692
 C495 C 0.74080 0.91269 0.13832
 C496 C 0.74647 0.91552 0.09781
 C497 C 0.75353 0.89669 0.07648
 C498 C 0.75419 0.87572 0.09442
 C499 C 0.74852 0.85065 0.15519
 C500 C 0.75175 0.83041 0.13469
 C501 C 0.75212 0.81019 0.15526
 C502 C 0.74962 0.80965 0.19674
 C503 C 0.74601 0.82962 0.21741
 C504 C 0.74492 0.84998 0.19685
 C505 C 0.73798 0.88986 0.19788
 C506 C 0.73983 0.86951 0.21756
 H507 H 0.73361 0.90441 0.21515
 H508 H 0.73683 0.86899 0.24939
 H509 H 0.73639 0.92698 0.15623
 H510 H 0.75762 0.89775 0.04513
 H511 H 0.75477 0.79493 0.13870
 H512 H 0.74358 0.82923 0.24941
 H513 H 0.75961 0.86201 0.07630
 H514 H 0.75376 0.82980 0.10279
 C515 C 0.24179 0.36985 0.63932
 C516 C 0.24178 0.38922 0.66371
 C517 C 0.24121 0.41052 0.64631
 C518 C 0.24132 0.41288 0.60478
 C519 C 0.24194 0.39374 0.58067
 C520 C 0.24208 0.37248 0.59761
 C521 C 0.24187 0.34740 0.65905
 C522 C 0.24025 0.32712 0.63757
 C523 C 0.24064 0.30664 0.65727
 C524 C 0.24282 0.30580 0.69881
 C525 C 0.24413 0.32588 0.72057
 C526 C 0.24335 0.34659 0.70111
 C527 C 0.24269 0.38725 0.70522
 C528 C 0.24378 0.36642 0.72349
 H529 H 0.24284 0.40208 0.72390
 H530 H 0.24474 0.36581 0.75570
 H531 H 0.24110 0.42533 0.66504
 H532 H 0.24200 0.39524 0.54852
 H533 H 0.23951 0.29138 0.63978
 H534 H 0.24547 0.32539 0.75276
 H535 H 0.24260 0.35841 0.57751
 H536 H 0.23853 0.32665 0.60562
 C537 C 0.86802 0.26620 0.13614
 C538 C 0.88599 0.25548 0.15425
 C539 C 0.90730 0.25644 0.13664
 C540 C 0.91154 0.26816 0.10063
 C541 C 0.89339 0.27933 0.08369
 C542 C 0.87216 0.27831 0.10096
 C543 C 0.84537 0.26418 0.15535
 C544 C 0.82614 0.27340 0.13876
 C545 C 0.80540 0.27079 0.15761
 C546 C 0.80326 0.25902 0.19356
 C547 C 0.82232 0.24984 0.21037
 C548 C 0.84320 0.25219 0.19150
 C549 C 0.88270 0.24387 0.19009
 C550 C 0.86182 0.24237 0.20841
 H551 H 0.89650 0.23576 0.20423
 H552 H 0.86018 0.23318 0.23607
 H553 H 0.92067 0.24879 0.15267
 H554 H 0.89479 0.28792 0.05552
 H555 H 0.79099 0.27804 0.14393
 H556 H 0.82089 0.24059 0.23801
 H557 H 0.85915 0.28696 0.08588
 H558 H 0.82666 0.28253 0.11113
 C559 C 0.37606 0.76146 0.63843
 C560 C 0.39483 0.75390 0.65945
 C561 C 0.41609 0.75487 0.64165
 C562 C 0.41905 0.76329 0.60298
 C563 C 0.40043 0.77080 0.58227
 C564 C 0.37924 0.76993 0.59964
 C565 C 0.35362 0.75999 0.65840
 C566 C 0.33391 0.76697 0.64001
 C567 C 0.31340 0.76510 0.65973
 C568 C 0.31193 0.75625 0.69831
 C569 C 0.33149 0.74934 0.71698
 C570 C 0.35221 0.75113 0.69740
 C571 C 0.39230 0.74540 0.69806
 C572 C 0.37146 0.74403 0.71661
 H573 H 0.40666 0.73963 0.71419
 H574 H 0.37040 0.73727 0.74648
 H575 H 0.43041 0.74923 0.65809
 H576 H 0.40217 0.77705 0.55215
 H577 H 0.29861 0.77058 0.64458
 H578 H 0.33061 0.74248 0.74681
 H579 H 0.36563 0.77586 0.58206
 H580 H 0.33388 0.77388 0.61041
 C581 C 0.12983 0.72926 0.13814
 C582 C 0.11080 0.73308 0.16189
 C583 C 0.08934 0.73173 0.14494
 C584 C 0.08644 0.72702 0.10424
 C585 C 0.10532 0.72308 0.08083
 C586 C 0.12671 0.72410 0.09747
 C587 C 0.15249 0.73143 0.15721
 C588 C 0.17247 0.72775 0.13635
 C589 C 0.19318 0.73057 0.15520
 C590 C 0.19457 0.73718 0.19528
 C591 C 0.17476 0.74053 0.21650
 C592 C 0.15383 0.73763 0.19791
 C593 C 0.11327 0.73864 0.20225
 C594 C 0.13432 0.74099 0.21980
 H595 H 0.09870 0.74154 0.22045
 H596 H 0.13533 0.74560 0.25102
 H597 H 0.07488 0.73456 0.16346
 H598 H 0.10365 0.71980 0.04921
 H599 H 0.20818 0.72779 0.13812
 H600 H 0.17559 0.74545 0.24760
 H601 H 0.14054 0.72121 0.07777
 H602 H 0.17254 0.72275 0.10547
 C603 C 0.62378 0.24043 0.63230
 C604 C 0.60444 0.24127 0.65648
 C605 C 0.58312 0.24076 0.63891
 C606 C 0.58078 0.24015 0.59737
 C607 C 0.59994 0.23986 0.57344
 C608 C 0.62117 0.23989 0.59057
 C609 C 0.64621 0.24072 0.65222
 C610 C 0.66634 0.23843 0.63105
 C611 C 0.68685 0.23939 0.65083
 C612 C 0.68791 0.24280 0.69214
 C613 C 0.66794 0.24457 0.71366
 C614 C 0.64717 0.24327 0.69413
 C615 C 0.60650 0.24307 0.69793
 C616 C 0.62741 0.24437 0.71630
 H617 H 0.59172 0.24384 0.71645
 H618 H 0.62810 0.24612 0.74842
 H619 H 0.56833 0.24135 0.65749
 H620 H 0.59845 0.23935 0.54128
 H621 H 0.70200 0.23786 0.63352
 H622 H 0.66855 0.24687 0.74570
 H623 H 0.63527 0.23974 0.57059
 H624 H 0.66664 0.23584 0.59927
 C625 C 0.73945 0.12873 0.86193
 C626 C 0.73468 0.10920 0.83919
 C627 C 0.73440 0.08808 0.85743
 C628 C 0.74004 0.08578 0.89798
 C629 C 0.74565 0.10536 0.91985
 C630 C 0.74517 0.12644 0.90230
 C631 C 0.73903 0.15098 0.84161
 C632 C 0.74113 0.17146 0.86242
 C633 C 0.74137 0.19174 0.84199
 C634 C 0.73980 0.19214 0.80036
 C635 C 0.73702 0.17189 0.77940
 C636 C 0.73613 0.15140 0.79978
 C637 C 0.73091 0.11080 0.79811
 C638 C 0.73213 0.13139 0.77869
 H639 H 0.72748 0.09584 0.78050
 H640 H 0.72961 0.13168 0.74673
 H641 H 0.73102 0.07336 0.83918
 H642 H 0.74957 0.10466 0.95128
 H643 H 0.74336 0.20719 0.85879
 H644 H 0.73532 0.17212 0.74725
 H645 H 0.74960 0.14071 0.92080
 H646 H 0.74250 0.17219 0.89443
 C647 C 0.24202 0.62335 0.35664
 C648 C 0.24175 0.62332 0.39883
 C649 C 0.24076 0.60297 0.41960
 C650 C 0.23936 0.58254 0.39898
 C651 C 0.23890 0.58259 0.35727
 C652 C 0.24031 0.60270 0.33628
 C653 C 0.24385 0.64543 0.33561
 C654 C 0.24605 0.64726 0.29393
 C655 C 0.24788 0.66822 0.27579
 C656 C 0.24733 0.68787 0.29859
 C657 C 0.24521 0.68625 0.34011
 C658 C 0.24385 0.66527 0.35876
 C659 C 0.24221 0.64355 0.42000
 C660 C 0.24291 0.66407 0.40039
 H661 H 0.24181 0.64353 0.45228
 H662 H 0.24305 0.67925 0.41814
 H663 H 0.24068 0.60300 0.45191
 H664 H 0.23778 0.56696 0.34084
 H665 H 0.24959 0.66903 0.24370
 H666 H 0.24515 0.70137 0.35805
 H667 H 0.23989 0.60167 0.30422
 H668 H 0.24666 0.63277 0.27483
 C669 C 0.26625 0.87716 0.85192
 C670 C 0.27721 0.87905 0.88914
 C671 C 0.27853 0.89968 0.90931
 C672 C 0.26877 0.91886 0.89345
 C673 C 0.25814 0.91674 0.85605
 C674 C 0.25694 0.89635 0.83567
 C675 C 0.26470 0.85468 0.83187
 C676 C 0.25405 0.85100 0.79484
 C677 C 0.25244 0.82960 0.77806
 C678 C 0.26138 0.81129 0.79763
 C679 C 0.27237 0.81484 0.83417
 C680 C 0.27407 0.83628 0.85135
 C681 C 0.28645 0.86023 0.90650
 C682 C 0.28489 0.83932 0.88805
 H683 H 0.29487 0.86164 0.93503
 H684 H 0.29214 0.82526 0.90293
 H685 H 0.28617 0.90023 0.93853
 H686 H 0.25122 0.93099 0.84141
 H687 H 0.24391 0.82739 0.74979
 H688 H 0.27944 0.80086 0.84957
 H689 H 0.24860 0.89606 0.80721
 H690 H 0.24671 0.86433 0.77843
 C691 C 0.76000 0.37673 0.34856
 C692 C 0.76831 0.37783 0.38802
 C693 C 0.77086 0.39857 0.40759
 C694 C 0.76531 0.41844 0.38844
 C695 C 0.75740 0.41733 0.34914
 C696 C 0.75478 0.39682 0.32941
 C697 C 0.75707 0.35419 0.32904
 C698 C 0.74836 0.35124 0.29031
 C699 C 0.74578 0.32991 0.27356
 C700 C 0.75186 0.31091 0.29481
 C701 C 0.76057 0.31366 0.33341
 C702 C 0.76310 0.33505 0.35067
 C703 C 0.77393 0.35824 0.40781
 C704 C 0.77147 0.33734 0.38948
 H705 H 0.78034 0.35908 0.43799
 H706 H 0.77607 0.32270 0.40609
 H707 H 0.77675 0.39917 0.43812
 H708 H 0.75335 0.43243 0.33343
 H709 H 0.73902 0.32833 0.24372
 H710 H 0.76525 0.29912 0.35024
 H711 H 0.74866 0.39712 0.29924
 H712 H 0.74332 0.36511 0.27244
 C713 C 0.12094 0.25946 0.85356
 C714 C 0.12027 0.26676 0.89369
 C715 C 0.09968 0.26836 0.91338
 C716 C 0.07952 0.26284 0.89369
 C717 C 0.08022 0.25590 0.85378
 C718 C 0.10059 0.25422 0.83393
 C719 C 0.14331 0.25754 0.83389
 C720 C 0.14584 0.24991 0.79443
 C721 C 0.16705 0.24813 0.77766
 C722 C 0.18633 0.25397 0.79964
 C723 C 0.18400 0.26171 0.83890
 C724 C 0.16275 0.26343 0.85616
 C725 C 0.14014 0.27233 0.91404
 C726 C 0.16091 0.27078 0.89564
 H727 H 0.13964 0.27797 0.94473
 H728 H 0.17578 0.27527 0.91272
 H729 H 0.09939 0.27351 0.94437
 H730 H 0.06491 0.25190 0.83766
 H731 H 0.16832 0.24210 0.74732
 H732 H 0.19877 0.26620 0.85630
 H733 H 0.09997 0.24881 0.80327
 H734 H 0.13171 0.24509 0.77601
 C735 C 0.62778 0.76523 0.35163
 C736 C 0.62688 0.77076 0.39263
 C737 C 0.60615 0.77214 0.41190
 C738 C 0.58608 0.76829 0.39091
 C739 C 0.58703 0.76341 0.35005
 C740 C 0.60754 0.76189 0.33062
 C741 C 0.65027 0.76310 0.33253
 C742 C 0.65301 0.75656 0.29249
 C743 C 0.67432 0.75448 0.27629
 C744 C 0.69348 0.75899 0.29943
 C745 C 0.69094 0.76557 0.33930
 C746 C 0.66959 0.76744 0.35605
 C747 C 0.64664 0.77474 0.41424
 C748 C 0.66752 0.77330 0.39627
 H749 H 0.64595 0.77907 0.44559
 H750 H 0.68231 0.77657 0.41430
 H751 H 0.60568 0.77571 0.44357
 H752 H 0.57181 0.76080 0.33295
 H753 H 0.67578 0.74936 0.24545
 H754 H 0.70561 0.76891 0.35761
 H755 H 0.60712 0.75809 0.29921
 H756 H 0.63896 0.75277 0.27323
 C757 C 0.87926 0.74608 0.85204
 C758 C 0.87960 0.73764 0.89137
 C759 C 0.89996 0.73612 0.91175
 C760 C 0.92023 0.74285 0.89358
 C761 C 0.91986 0.75120 0.85462
 C762 C 0.89971 0.75281 0.83407
 C763 C 0.85713 0.74745 0.83136
 C764 C 0.85494 0.75565 0.79231
 C765 C 0.83397 0.75657 0.77437
 C766 C 0.81457 0.74933 0.79475
 C767 C 0.81655 0.74115 0.83368
 C768 C 0.83758 0.74018 0.85205
 C769 C 0.85963 0.73079 0.91020
 C770 C 0.83909 0.73201 0.89095
 H771 H 0.85988 0.72434 0.94031
 H772 H 0.82413 0.72646 0.90683
 H773 H 0.90001 0.72994 0.94206
 H774 H 0.93528 0.75626 0.83973
 H775 H 0.83297 0.76297 0.74432
 H776 H 0.80170 0.73553 0.84982
 H777 H 0.90057 0.75928 0.80418
 H778 H 0.86918 0.76146 0.77505
 C779 C 0.36861 0.24436 0.35638
 C780 C 0.37186 0.22716 0.38445
 C781 C 0.39271 0.22532 0.40309
 C782 C 0.41021 0.24090 0.39528
 C783 C 0.40680 0.25832 0.36847
 C784 C 0.38632 0.26000 0.34903
 C785 C 0.34626 0.24542 0.33643
 C786 C 0.34189 0.26067 0.30574
 C787 C 0.32074 0.26111 0.28831
 C788 C 0.30335 0.24655 0.30124
 C789 C 0.30758 0.23111 0.33142
 C790 C 0.32893 0.23018 0.34856
 C791 C 0.35419 0.21220 0.39431
 C792 C 0.33309 0.21391 0.37724
 H793 H 0.35661 0.19915 0.41604
 H794 H 0.31989 0.20211 0.38630
 H795 H 0.39520 0.21209 0.42446
 H796 H 0.42013 0.27057 0.36229
 H797 H 0.31792 0.27310 0.26490
 H798 H 0.29433 0.21951 0.34110
 H799 H 0.38465 0.27380 0.32880
 H800 H 0.35458 0.27225 0.29451
 C801 C 0.74255 0.87773 0.84354
 C802 C 0.73221 0.87854 0.88135
 C803 C 0.73045 0.89905 0.90141
 C804 C 0.73906 0.91924 0.88479
 C805 C 0.74914 0.91817 0.84685
 C806 C 0.75081 0.89787 0.82661
 C807 C 0.74451 0.85539 0.82354
 C808 C 0.75462 0.85272 0.78596
 C809 C 0.75646 0.83148 0.76907
 C810 C 0.74828 0.81233 0.78910
 C811 C 0.73794 0.81484 0.82631
 C812 C 0.73603 0.83610 0.84359
 C813 C 0.72396 0.85882 0.89936
 C814 C 0.72584 0.83807 0.88091
 H815 H 0.71603 0.85940 0.92835
 H816 H 0.71930 0.82331 0.89623
 H817 H 0.72335 0.89883 0.93106
 H818 H 0.75520 0.93312 0.83169
 H819 H 0.76448 0.83006 0.74029
 H820 H 0.73149 0.80020 0.84211
 H821 H 0.75863 0.89838 0.79769
 H822 H 0.76134 0.86674 0.76917
 C823 C 0.23272 0.37458 0.35538
 C824 C 0.22709 0.37528 0.39632
 C825 C 0.22633 0.39592 0.41632
 C826 C 0.23106 0.41607 0.39615
 C827 C 0.23619 0.41533 0.35542
 C828 C 0.23701 0.39493 0.33525
 C829 C 0.23405 0.35216 0.33545
 C830 C 0.24026 0.34961 0.29525
 C831 C 0.24175 0.32837 0.27831
 C832 C 0.23699 0.30907 0.30083
 C833 C 0.23057 0.31141 0.34081
 C834 C 0.22922 0.33271 0.35827
 C835 C 0.22245 0.35541 0.41717
 C836 C 0.22338 0.33460 0.39852
 H837 H 0.21807 0.35594 0.44847
 H838 H 0.21969 0.31972 0.41602
 H839 H 0.22257 0.39624 0.44790
 H840 H 0.23953 0.43064 0.33898
 H841 H 0.24672 0.32709 0.24739
 H842 H 0.22695 0.29663 0.35861
 H843 H 0.24106 0.39552 0.30398
 H844 H 0.24425 0.36374 0.27639
 C845 C 0.25313 0.12499 0.86434
 C846 C 0.27309 0.12061 0.88489
 C847 C 0.27553 0.09994 0.90381
 C848 C 0.25785 0.08368 0.90459
 C849 C 0.23763 0.08876 0.88573
 C850 C 0.23538 0.10893 0.86563
 C851 C 0.25158 0.14684 0.84300
 C852 C 0.23366 0.15164 0.81759
 C853 C 0.23295 0.17229 0.79847
 C854 C 0.24985 0.18876 0.80474
 C855 C 0.26792 0.18409 0.82953
 C856 C 0.26919 0.16309 0.84781
 C857 C 0.29029 0.13712 0.88735
 C858 C 0.28815 0.15809 0.87001
 H859 H 0.30549 0.13392 0.90357
 H860 H 0.30176 0.17041 0.87336
 H861 H 0.29090 0.09712 0.91975
 H862 H 0.22366 0.07676 0.88477
 H863 H 0.21895 0.17552 0.77916
 H864 H 0.28129 0.19662 0.83368
 H865 H 0.21951 0.11170 0.85161
 H866 H 0.22022 0.13959 0.81162
 C867 C 0.76464 0.63043 0.36644
 C868 C 0.74822 0.61357 0.35702
 C869 C 0.74897 0.59242 0.37486
 C870 C 0.76635 0.58747 0.40097
 C871 C 0.78300 0.60389 0.40932
 C872 C 0.78213 0.62517 0.39251
 C873 C 0.76288 0.65298 0.34751
 C874 C 0.77716 0.67146 0.35739
 C875 C 0.77496 0.69205 0.33856
 C876 C 0.75868 0.69469 0.30911
 C877 C 0.74416 0.67652 0.29949
 C878 C 0.74588 0.65590 0.31888
 C879 C 0.73141 0.61777 0.32933
 C880 C 0.73050 0.63834 0.31017
 H881 H 0.71896 0.60481 0.32187
 H882 H 0.71735 0.64064 0.28853
 H883 H 0.73629 0.57958 0.36784
 H884 H 0.79658 0.60030 0.42937
 H885 H 0.78627 0.70588 0.34666
 H886 H 0.73124 0.67854 0.27729
 H887 H 0.79541 0.63713 0.39996
 H888 H 0.79000 0.67042 0.37976
 C889 C 0.13124 0.74451 0.86786
 C890 C 0.11192 0.74065 0.84426
 C891 C 0.09064 0.73997 0.86200
 C892 C 0.08798 0.74409 0.90310
 C893 C 0.10736 0.74879 0.92595
 C894 C 0.12858 0.74885 0.90875
 C895 C 0.15367 0.74444 0.84800
 C896 C 0.17394 0.74592 0.86936
 C897 C 0.19441 0.74624 0.84941
 C898 C 0.19522 0.74533 0.80772
 C899 C 0.17516 0.74335 0.78617
 C900 C 0.15448 0.74247 0.80600
 C901 C 0.11389 0.73801 0.80293
 C902 C 0.13468 0.73934 0.78413
 H903 H 0.09909 0.73527 0.78470
 H904 H 0.13527 0.73759 0.75201
 H905 H 0.07611 0.73735 0.84308
 H906 H 0.10643 0.75150 0.95778
 H907 H 0.20969 0.74763 0.86669
 H908 H 0.17566 0.74220 0.75395
 H909 H 0.14267 0.75247 0.92804
 H910 H 0.17439 0.74670 0.90144
 C911 C 0.62145 0.23413 0.35784
 C912 C 0.60227 0.23889 0.33517
 C913 C 0.58095 0.23721 0.35263
 C914 C 0.57832 0.23112 0.39277
 C915 C 0.59736 0.22635 0.41509
 C916 C 0.61861 0.22777 0.39795
 C917 C 0.64395 0.23648 0.33822
 C918 C 0.66403 0.23192 0.35801
 C919 C 0.68458 0.23471 0.33867
 C920 C 0.68575 0.24215 0.29912
 C921 C 0.66583 0.24653 0.27899
 C922 C 0.64504 0.24368 0.29812
 C923 C 0.60448 0.24558 0.29539
 C924 C 0.62539 0.24802 0.27733
 H925 H 0.58980 0.24921 0.27802
 H926 H 0.62620 0.25343 0.24657
 H927 H 0.56635 0.24071 0.33492
 H928 H 0.59591 0.22203 0.44630
 H929 H 0.69965 0.23114 0.35493
 H930 H 0.66647 0.25215 0.24834
 H931 H 0.63256 0.22412 0.41685
 H932 H 0.66430 0.22620 0.38840
 C933 C 0.86996 0.26333 0.85566
 C934 C 0.88494 0.24593 0.84883
 C935 C 0.90572 0.24622 0.86823
 C936 C 0.91220 0.26403 0.89342
 C937 C 0.89776 0.28168 0.89901
 C938 C 0.87685 0.28133 0.88057
 C939 C 0.84755 0.26189 0.83567
 C940 C 0.83065 0.27715 0.84334
 C941 C 0.80994 0.27489 0.82431
 C942 C 0.80565 0.25760 0.79677
 C943 C 0.82232 0.24230 0.78894
 C944 C 0.84299 0.24405 0.80867
 C945 C 0.87921 0.22849 0.82238
 C946 C 0.85884 0.22778 0.80223
 H947 H 0.89075 0.21529 0.81686
 H948 H 0.85529 0.21403 0.78179
 H949 H 0.91706 0.23275 0.86332
 H950 H 0.90256 0.29561 0.91829
 H951 H 0.79727 0.28682 0.83099
 H952 H 0.81898 0.22861 0.76826
 H953 H 0.86642 0.29535 0.88601
 H954 H 0.83295 0.29072 0.86435
 C955 C 0.37629 0.76276 0.35855
 C956 C 0.39211 0.74642 0.34976
 C957 C 0.41290 0.74702 0.36915
 C958 C 0.41851 0.76411 0.39640
 C959 C 0.40322 0.78077 0.40401
 C960 C 0.38230 0.78010 0.38552
 C961 C 0.35392 0.76094 0.33842
 C962 C 0.33630 0.77508 0.34769
 C963 C 0.31566 0.77246 0.32849
 C964 C 0.31216 0.75592 0.29923
 C965 C 0.32958 0.74177 0.28976
 C966 C 0.35020 0.74388 0.30957
 C967 C 0.38722 0.72971 0.32143
 C968 C 0.36685 0.72869 0.30130
 H969 H 0.39941 0.71733 0.31442
 H970 H 0.36394 0.71554 0.27941
 H971 H 0.42489 0.73434 0.36268
 H972 H 0.40734 0.79415 0.42489
 H973 H 0.30241 0.78351 0.33644
 H974 H 0.32687 0.72866 0.26769
 H975 H 0.37119 0.79332 0.39259
 H976 H 0.33797 0.78802 0.37005
 C977 C 0.26510 0.87119 0.13935
 C978 C 0.24805 0.88632 0.14776
 C979 C 0.24840 0.90745 0.12963
 C980 C 0.26596 0.91411 0.10420
 C981 C 0.28326 0.89948 0.09701
 C982 C 0.28283 0.87822 0.11414
 C983 C 0.26364 0.84847 0.15820
 C984 C 0.27855 0.83148 0.14903
 C985 C 0.27642 0.81057 0.16730
 C986 C 0.25958 0.80614 0.19552
 C987 C 0.24456 0.82287 0.20468
 C988 C 0.24620 0.84376 0.18576
 C989 C 0.23093 0.88041 0.17458
 C990 C 0.23025 0.85974 0.19368
 H991 H 0.21800 0.89206 0.18130
 H992 H 0.21679 0.85608 0.21453
 H993 H 0.23521 0.91892 0.13579
 H994 H 0.29699 0.90440 0.07751
 H995 H 0.28813 0.79787 0.15959
 H996 H 0.23123 0.81944 0.22591
 H997 H 0.29658 0.86767 0.10752
 H998 H 0.29179 0.83389 0.12750
 C999 C 0.76303 0.37250 0.63267
 C1000 C 0.74685 0.38852 0.64125
 C1001 C 0.74807 0.40954 0.62275
 C1002 C 0.76566 0.41520 0.59669
 C1003 C 0.78208 0.39964 0.58918
 C1004 C 0.78077 0.37850 0.60673
 C1005 C 0.76070 0.34999 0.65214
 C1006 C 0.77475 0.33225 0.64315
 C1007 C 0.77186 0.31159 0.66214
 C1008 C 0.75510 0.30819 0.69087
 C1009 C 0.74091 0.32567 0.69981
 C1010 C 0.74333 0.34632 0.68025
 C1011 C 0.72973 0.38362 0.66864
 C1012 C 0.72822 0.36311 0.68819
 H1013 H 0.71746 0.39595 0.67546
 H1014 H 0.71482 0.36023 0.70947
 H1015 H 0.73556 0.42172 0.62915
 H1016 H 0.79582 0.40377 0.56917
 H1017 H 0.78294 0.29830 0.65459
 H1018 H 0.72763 0.32305 0.72145
 H1019 H 0.79388 0.36721 0.59985
 H1020 H 0.78790 0.33387 0.62128
 C1021 C 0.73244 0.12634 0.13730
 C1022 C 0.73918 0.10771 0.15958
 C1023 C 0.73866 0.08627 0.14224
 C1024 C 0.73174 0.08303 0.10261
 C1025 C 0.72504 0.10154 0.08066
 C1026 C 0.72531 0.12287 0.09767
 C1027 C 0.73358 0.14900 0.15670
 C1028 C 0.72704 0.16854 0.13722
 C1029 C 0.72889 0.18931 0.15620
 C1030 C 0.73730 0.19126 0.19511
 C1031 C 0.74356 0.17186 0.21502
 C1032 C 0.74171 0.15083 0.19622
 C1033 C 0.74669 0.11060 0.19884
 C1034 C 0.74802 0.13170 0.21670
 H1035 H 0.75184 0.09635 0.21594
 H1036 H 0.75415 0.13306 0.24701
 H1037 H 0.74368 0.07208 0.15965
 H1038 H 0.72005 0.09965 0.04979
 H1039 H 0.72385 0.20396 0.14011
 H1040 H 0.74997 0.17310 0.24519
 H1041 H 0.72018 0.13638 0.07904
 H1042 H 0.72050 0.16822 0.10731
 C1043 C 0.23878 0.62301 0.65575
 C1044 C 0.23159 0.62159 0.61562
 C1045 C 0.22998 0.60076 0.59619
 C1046 C 0.23539 0.58109 0.61611
 C1047 C 0.24213 0.58249 0.65608
 C1048 C 0.24380 0.60311 0.67571
 C1049 C 0.24093 0.64568 0.67500
 C1050 C 0.24863 0.64902 0.71434
 C1051 C 0.25079 0.67053 0.73057
 C1052 C 0.24525 0.68928 0.70817
 C1053 C 0.23736 0.68611 0.66910
 C1054 C 0.23531 0.66459 0.65236
 C1055 C 0.22623 0.64096 0.59494
 C1056 C 0.22795 0.66197 0.61296
 H1057 H 0.22066 0.63987 0.56425
 H1058 H 0.22366 0.67645 0.59562
 H1059 H 0.22502 0.59995 0.56515
 H1060 H 0.24606 0.56753 0.67234
 H1061 H 0.25690 0.67246 0.76079
 H1062 H 0.23311 0.70046 0.65137
 H1063 H 0.24908 0.60306 0.70639
 H1064 H 0.25326 0.63532 0.73301
 C1065 C 0.87855 0.74351 0.15040
 C1066 C 0.88145 0.72601 0.12255
 C1067 C 0.90195 0.72417 0.10266
 C1068 C 0.91944 0.74001 0.10908
 C1069 C 0.91640 0.75760 0.13594
 C1070 C 0.89629 0.75931 0.15656
 C1071 C 0.85647 0.74477 0.17126
 C1072 C 0.85238 0.76058 0.20137
 C1073 C 0.83136 0.76145 0.21916
 C1074 C 0.81383 0.74672 0.20726
 C1075 C 0.81785 0.73057 0.17795
 C1076 C 0.83905 0.72930 0.16032
 C1077 C 0.86375 0.71078 0.11402
 C1078 C 0.84291 0.71259 0.13206
 H1079 H 0.86591 0.69746 0.09253
 H1080 H 0.82964 0.70061 0.12394
 H1081 H 0.90413 0.71077 0.08131
 H1082 H 0.92973 0.77001 0.14119
 H1083 H 0.82872 0.77399 0.24188
 H1084 H 0.80450 0.71887 0.16901
 H1085 H 0.89490 0.77328 0.17668
 H1086 H 0.86516 0.77238 0.21172
 C1087 C 0.37129 0.23840 0.64888
 C1088 C 0.37189 0.23044 0.60914
 C1089 C 0.39234 0.22962 0.58878
 C1090 C 0.41244 0.23658 0.60738
 C1091 C 0.41183 0.24427 0.64686
 C1092 C 0.39159 0.24518 0.66739
 C1093 C 0.34903 0.23940 0.66929
 C1094 C 0.34654 0.24746 0.70848
 C1095 C 0.32540 0.24849 0.72583
 C1096 C 0.30616 0.24143 0.70474
 C1097 C 0.30848 0.23312 0.66586
 C1098 C 0.32965 0.23216 0.64800
 C1099 C 0.35209 0.22346 0.58982
 C1100 C 0.33144 0.22424 0.60886
 H1101 H 0.35255 0.21732 0.55943
 H1102 H 0.31662 0.21870 0.59255
 H1103 H 0.39255 0.22392 0.55810
 H1104 H 0.42711 0.24942 0.66213
 H1105 H 0.32414 0.25496 0.75589
 H1106 H 0.29375 0.22767 0.64915
 H1107 H 0.39226 0.25122 0.69767
 H1108 H 0.36064 0.25323 0.72619
 C1109 C 0.11886 0.25462 0.14703
 C1110 C 0.11593 0.27193 0.11906
 C1111 C 0.09531 0.27386 0.09971
 C1112 C 0.07771 0.25826 0.10667
 C1113 C 0.08081 0.24071 0.13335
 C1114 C 0.10106 0.23894 0.15355
 C1115 C 0.14100 0.25346 0.16772
 C1116 C 0.14506 0.23811 0.19840
 C1117 C 0.16607 0.23755 0.21641
 C1118 C 0.18360 0.25208 0.20400
 C1119 C 0.17965 0.26766 0.17391
 C1120 C 0.15846 0.26871 0.15625
 C1121 C 0.13371 0.28692 0.10994
 C1122 C 0.15462 0.28511 0.12763
 H1123 H 0.13152 0.30006 0.08829
 H1124 H 0.16793 0.29692 0.11911
 H1125 H 0.09307 0.28719 0.07841
 H1126 H 0.06741 0.22844 0.13886
 H1127 H 0.16869 0.22547 0.23975
 H1128 H 0.19301 0.27925 0.16467
 H1129 H 0.10251 0.22506 0.17366
 H1130 H 0.13223 0.22652 0.20916
 C1131 C 0.63215 0.75523 0.63157
 C1132 C 0.61295 0.75477 0.65625
 C1133 C 0.59154 0.75541 0.63923
 C1134 C 0.58889 0.75587 0.59775
 C1135 C 0.60787 0.75571 0.57333
 C1136 C 0.62923 0.75547 0.58991
 C1137 C 0.65472 0.75513 0.65094
 C1138 C 0.67485 0.75713 0.62922
 C1139 C 0.69545 0.75685 0.64860
 C1140 C 0.69660 0.75439 0.69006
 C1141 C 0.67668 0.75260 0.71205
 C1142 C 0.65583 0.75327 0.69292
 C1143 C 0.61521 0.75342 0.69769
 C1144 C 0.63617 0.75238 0.71558
 H1145 H 0.60052 0.75291 0.71659
 H1146 H 0.63700 0.75110 0.74773
 H1147 H 0.57687 0.75518 0.65822
 H1148 H 0.60617 0.75612 0.54121
 H1149 H 0.71057 0.75833 0.63093
 H1150 H 0.67738 0.75102 0.74418
 H1151 H 0.64316 0.75535 0.56957
 H1152 H 0.67509 0.75910 0.59732
   
