data_POSCAR
  _audit_creation_date              2014-09-24
  _audit_creation_method            'ToBaCCo'
  _symmetry_space_group_name_H-M    'P1'
  _symmetry_Int_Tables_number       1
  _symmetry_cell_setting            triclinic
  loop_
  _symmetry_equiv_pos_as_xyz
 x,y,z
_cell_length_a 26.4706
_cell_length_b 26.5429
_cell_length_c 27.7575
_cell_angle_alpha 89.380600
_cell_angle_beta 90.229600
_cell_angle_gamma 94.402600
loop_
  _atom_site_label
  _atom_site_type_symbol
  _atom_site_fract_x
  _atom_site_fract_y
  _atom_site_fract_z
C1 C 0.25190 0.22607 0.21409
 N2 N 0.21796 0.26196 0.21300
 C3 C 0.18018 0.26132 0.24610
 N4 N 0.17728 0.22517 0.28126
 C5 C 0.21026 0.18847 0.28175
 N6 N 0.24713 0.18882 0.24797
 C7 C 0.76549 -0.21065 0.20361
 N8 N 0.79864 -0.24752 0.20372
 C9 C 0.83245 -0.25208 0.24046
 N10 N 0.83086 -0.22058 0.27860
 C11 C 0.79785 -0.18412 0.27924
 N12 N 0.76532 -0.17954 0.24204
 C13 C 0.68959 0.23858 0.79352
 N14 N 0.69022 0.20331 0.75849
 C15 C 0.72442 0.20893 0.72215
 N16 N 0.75663 0.25128 0.72013
 C17 C 0.75546 0.28803 0.75382
 N18 N 0.72189 0.28078 0.79054
 C19 C 0.32632 -0.25898 0.78415
 N20 N 0.28799 -0.29618 0.78754
 C21 C 0.24822 -0.29772 0.75635
 N22 N 0.24561 -0.26050 0.72276
 C23 C 0.28258 -0.22231 0.71964
 N24 N 0.32283 -0.22217 0.75009
 C25 C 0.76437 -0.21493 0.79776
 N26 N 0.76450 -0.18390 0.75862
 C27 C 0.79706 -0.18874 0.72186
 N28 N 0.82987 -0.22535 0.72370
 C29 C 0.83111 -0.25685 0.76254
 N30 N 0.79722 -0.25209 0.79883
 C31 C 0.23718 0.20807 0.79589
 N32 N 0.20679 0.24711 0.79473
 C33 C 0.17688 0.25465 0.75589
 N34 N 0.17688 0.22272 0.71799
 C35 C 0.20599 0.18276 0.71911
 N36 N 0.23699 0.17680 0.75752
 C37 C 0.32853 -0.25688 0.21822
 N38 N 0.29131 -0.29526 0.21639
 C39 C 0.25255 -0.29902 0.24848
 N40 N 0.25012 -0.26160 0.28132
 C41 C 0.28550 -0.22193 0.28284
 N42 N 0.32485 -0.22029 0.25160
 C43 C 0.68348 0.25205 0.21347
 N44 N 0.68477 0.21514 0.24752
 C45 C 0.72009 0.21891 0.28312
 N46 N 0.75291 0.26079 0.28499
 C47 C 0.75157 0.29872 0.25166
 N48 N 0.71700 0.29328 0.21545
 O49 O 0.19183 0.01370 0.45103
 O50 O 0.21790 -0.07752 0.54687
 O51 O 0.19365 0.01549 0.54508
 O52 O 0.21907 -0.07781 0.45267
 O53 O 0.29981 -0.04966 0.45228
 O54 O 0.27398 0.04410 0.54381
 O55 O 0.29852 -0.04892 0.54750
 O56 O 0.27260 0.04204 0.45099
 Cu57 Cu 0.19757 -0.03449 0.49907
 Cu58 Cu 0.29449 -0.00067 0.49871
 C59 C 0.22788 0.04303 0.43446
 C60 C 0.26227 -0.07804 0.56421
 C61 C 0.22935 0.04630 0.55984
 C62 C 0.26354 -0.07862 0.43584
 O63 O 0.78502 0.07115 0.54765
 O64 O 0.81267 -0.01808 0.45280
 O65 O 0.78459 0.07316 0.45389
 O66 O 0.81332 -0.01983 0.54708
 O67 O 0.73315 -0.05001 0.54692
 O68 O 0.70442 0.04287 0.45324
 O69 O 0.73256 -0.04847 0.45319
 O70 O 0.70481 0.04094 0.54821
 Cu71 Cu 0.80698 0.02959 0.50031
 Cu72 Cu 0.71058 -0.00658 0.50033
 C73 C 0.74060 0.07042 0.56480
 C74 C 0.77708 -0.04779 0.43624
 C75 C 0.73996 0.07316 0.43703
 C76 C 0.77785 -0.04990 0.56368
 O77 O 0.41962 0.18241 0.05233
 O78 O 0.51439 0.18273 -0.04471
 O79 O 0.51728 0.18760 0.04836
 O80 O 0.41489 0.17433 -0.04116
 O81 O 0.41847 0.25682 -0.05069
 O82 O 0.51567 0.27060 0.04472
 O83 O 0.51727 0.26618 -0.04788
 O84 O 0.41704 0.26503 0.04331
 Cu85 Cu 0.46620 0.17336 0.00401
 Cu86 Cu 0.46674 0.27300 -0.00336
 C87 C 0.40252 0.22385 0.06439
 C88 C 0.53324 0.22479 -0.06140
 C89 C 0.53408 0.23128 0.06179
 C90 C 0.39977 0.21302 -0.06223
 O91 O 0.58529 0.82005 0.04529
 O92 O 0.48687 0.80394 -0.04830
 O93 O 0.48698 0.80516 0.04757
 O94 O 0.58508 0.81891 -0.04602
 O95 O 0.58992 0.73668 -0.04571
 O96 O 0.49212 0.72251 0.04889
 O97 O 0.49182 0.72128 -0.04591
 O98 O 0.59027 0.73786 0.04835
 Cu99 Cu 0.53452 0.82021 -0.00053
 Cu100 Cu 0.54132 0.72130 0.00160
 C101 C 0.60491 0.78189 0.06299
 C102 C 0.47387 0.76015 -0.06424
 C103 C 0.47415 0.76179 0.06537
 C104 C 0.60450 0.78033 -0.06211
 O105 O 0.03714 0.44517 0.20533
 O106 O -0.03663 0.55719 0.20463
 O107 O 0.05920 0.54214 0.20436
 O108 O -0.05957 0.45976 0.20733
 O109 O -0.05774 0.46010 0.28686
 O110 O 0.06019 0.54236 0.28392
 O111 O -0.03554 0.55734 0.28416
 O112 O 0.03833 0.44528 0.28500
 Cu113 Cu -0.00031 0.50084 0.19739
 Cu114 Cu 0.00134 0.50123 0.29296
 C115 C 0.05058 0.42653 0.24522
 C116 C -0.04777 0.57698 0.24426
 C117 C 0.08003 0.55606 0.24385
 C118 C -0.07904 0.44624 0.24766
 O119 O 0.05714 0.53774 0.80159
 O120 O -0.05905 0.45212 0.79736
 O121 O 0.03890 0.44081 0.79632
 O122 O -0.03868 0.55040 0.79974
 O123 O -0.03882 0.55338 0.72022
 O124 O 0.03876 0.44470 0.71692
 O125 O -0.05830 0.45561 0.71785
 O126 O 0.05721 0.54196 0.72195
 Cu127 Cu -0.00092 0.49444 0.80678
 Cu128 Cu -0.00047 0.49903 0.71128
 C129 C 0.07663 0.55460 0.76238
 C130 C -0.07866 0.43959 0.75700
 C131 C 0.05340 0.42510 0.75593
 C132 C -0.05049 0.57154 0.76040
 C133 C 0.31718 0.23819 0.09381
 C134 C 0.28112 0.23914 0.13011
 C135 C 0.29303 0.22705 0.17795
 C136 C 0.34334 0.21561 0.18956
 C137 C 0.37960 0.21335 0.15224
 C138 C 0.36600 0.22440 0.10412
 C139 C 0.42904 0.20174 0.16461
 N140 N 0.44143 0.19389 0.21135
 N141 N 0.40790 0.19730 0.24654
 C142 C 0.35957 0.20822 0.23737
 H143 H 0.30663 0.24741 0.05718
 H144 H 0.24323 0.24854 0.12052
 H145 H 0.45817 0.19947 0.13773
 H146 H 0.33507 0.21231 0.26780
 C147 C 0.67782 0.74812 0.10488
 C148 C 0.71815 0.75033 0.13715
 C149 C 0.72964 0.79300 0.16580
 C150 C 0.70164 0.83634 0.15763
 C151 C 0.65799 0.83281 0.12714
 C152 C 0.64644 0.78813 0.09966
 C153 C 0.62787 0.87454 0.12572
 N154 N 0.64350 0.91806 0.14813
 N155 N 0.68715 0.92310 0.17197
 C156 C 0.71693 0.88416 0.17698
 H157 H 0.67094 0.71403 0.08398
 H158 H 0.73910 0.71699 0.14086
 H159 H 0.59182 0.87377 0.10787
 H160 H 0.75307 0.89199 0.19440
 C161 C 0.56599 0.20656 -0.14199
 C162 C 0.60392 0.20985 -0.17681
 C163 C 0.65263 0.23189 -0.16638
 C164 C 0.66383 0.24842 -0.11864
 C165 C 0.62460 0.24672 -0.08380
 C166 C 0.57535 0.22603 -0.09597
 C167 C 0.63634 0.26471 -0.03726
 N168 N 0.68449 0.28161 -0.02602
 N169 N 0.72171 0.28149 -0.05808
 C170 C 0.71320 0.26521 -0.10373
 H171 H 0.52856 0.19020 -0.15152
 H172 H 0.59460 0.19632 -0.21268
 H173 H 0.60793 0.26490 -0.00948
 H174 H 0.74552 0.26427 -0.12713
 C175 C 0.39497 0.72193 -0.10087
 C176 C 0.35990 0.71624 -0.13830
 C177 C 0.36713 0.74287 -0.18235
 C178 C 0.41439 0.77203 -0.18959
 C179 C 0.44931 0.77878 -0.15059
 C180 C 0.43866 0.75447 -0.10566
 C181 C 0.49536 0.80778 -0.15851
 N182 N 0.50650 0.82756 -0.20267
 N183 N 0.47511 0.81953 -0.23976
 C184 C 0.43009 0.79202 -0.23503
 H185 H 0.38709 0.70187 -0.06719
 H186 H 0.32555 0.69242 -0.13141
 H187 H 0.52330 0.81376 -0.13044
 H188 H 0.40888 0.78424 -0.26761
 C189 C 0.13357 0.39152 0.23862
 C190 C 0.16465 0.35154 0.23848
 C191 C 0.14442 0.30155 0.24515
 C192 C 0.09119 0.29174 0.25072
 C193 C 0.05970 0.33269 0.25122
 C194 C 0.08134 0.38274 0.24532
 C195 C 0.00719 0.32211 0.25673
 N196 N -0.01247 0.27359 0.26078
 N197 N 0.01683 0.23504 0.25936
 C198 C 0.06781 0.24236 0.25421
 H199 H 0.15051 0.42970 0.23390
 H200 H 0.20507 0.35984 0.23391
 H201 H -0.01835 0.35196 0.25735
 H202 H 0.08915 0.20942 0.25198
 C203 C 0.11525 0.64166 0.75919
 C204 C 0.15674 0.67706 0.75734
 C205 C 0.20637 0.66209 0.75992
 C206 C 0.21407 0.60980 0.76438
 C207 C 0.17151 0.57382 0.76684
 C208 C 0.12198 0.59015 0.76360
 C209 C 0.17997 0.52236 0.77152
 N210 N 0.22796 0.50789 0.77251
 N211 N 0.26791 0.54138 0.76895
 C212 C 0.26268 0.59168 0.76469
 H213 H 0.07752 0.65464 0.75708
 H214 H 0.14996 0.71669 0.75392
 H215 H 0.14889 0.49358 0.77429
 H216 H 0.29661 0.61660 0.76083
 C217 C -0.11687 0.62512 0.21250
 C218 C -0.14518 0.66710 0.21060
 C219 C -0.13311 0.70954 0.23970
 C220 C -0.08765 0.71055 0.26804
 C221 C -0.05988 0.66669 0.27109
 C222 C -0.07539 0.62341 0.24361
 C223 C -0.01570 0.66859 0.29971
 N224 N 0.00064 0.71179 0.32225
 N225 N -0.02362 0.75358 0.31750
 C226 C -0.06646 0.75473 0.29079
 H227 H -0.12849 0.59288 0.19035
 H228 H -0.17834 0.66499 0.18749
 H229 H 0.00691 0.63676 0.30365
 H230 H -0.08144 0.79102 0.28598
 C231 C -0.12516 0.36401 0.72389
 C232 C -0.16587 0.32783 0.72237
 C233 C -0.20861 0.33072 0.75215
 C234 C -0.21146 0.37536 0.78047
 C235 C -0.16879 0.41156 0.78283
 C236 C -0.12497 0.40477 0.75520
 C237 C -0.17224 0.45488 0.81113
 N238 N -0.21575 0.46225 0.83455
 N239 N -0.25635 0.42978 0.83092
 C240 C -0.25603 0.38727 0.80435
 H241 H -0.09244 0.35894 0.70160
 H242 H -0.16216 0.29590 0.69901
 H243 H -0.14141 0.48380 0.81392
 H244 H -0.29161 0.36522 0.80061
 C245 C 0.22744 0.13034 0.40371
 C246 C 0.22208 0.16566 0.36694
 C247 C 0.20849 0.15004 0.32036
 C248 C 0.19808 0.09796 0.31098
 C249 C 0.20258 0.06201 0.34860
 C250 C 0.21817 0.07858 0.39509
 C251 C 0.19273 0.01049 0.33787
 N252 N 0.17888 -0.00362 0.29260
 N253 N 0.17423 0.03021 0.25740
 C254 C 0.18332 0.08048 0.26501
 H255 H 0.23947 0.14344 0.43908
 H256 H 0.23053 0.20541 0.37443
 H257 H 0.19616 -0.01872 0.36484
 H258 H 0.17868 0.10628 0.23517
 C259 C 0.74027 0.15558 0.59853
 C260 C 0.73696 0.18861 0.63671
 C261 C 0.72599 0.17068 0.68360
 C262 C 0.71814 0.11756 0.69179
 C263 C 0.71954 0.08407 0.65225
 C264 C 0.73142 0.10351 0.60555
 C265 C 0.71121 0.03179 0.66118
 N266 N 0.70352 0.01424 0.70677
 N267 N 0.70395 0.04535 0.74404
 C268 C 0.71135 0.09616 0.73825
 H269 H 0.75003 0.17084 0.56311
 H270 H 0.74339 0.22877 0.62945
 H271 H 0.71144 0.00458 0.63256
 H272 H 0.71317 0.11869 0.77033
 C273 C 0.25693 -0.16414 0.59857
 C274 C 0.26144 -0.19856 0.63618
 C275 C 0.27963 -0.18284 0.68158
 C276 C 0.29314 -0.13054 0.68906
 C277 C 0.28941 -0.09556 0.65021
 C278 C 0.27112 -0.11279 0.60471
 C279 C 0.30197 -0.04394 0.65891
 N280 N 0.31696 -0.02851 0.70344
 N281 N 0.31968 -0.06103 0.74000
 C282 C 0.30797 -0.11127 0.73450
 H283 H 0.24227 -0.17776 0.56420
 H284 H 0.25061 -0.23810 0.62961
 H285 H 0.29940 -0.01555 0.63104
 H286 H 0.30925 -0.13503 0.76615
 C287 C 0.77293 -0.13311 0.40155
 C288 C 0.77873 -0.16636 0.36385
 C289 C 0.79783 -0.14858 0.31943
 C290 C 0.81310 -0.09665 0.31319
 C291 C 0.80759 -0.06277 0.35161
 C292 C 0.78698 -0.08140 0.39605
 C293 C 0.82143 -0.01109 0.34345
 N294 N 0.84050 0.00491 0.30017
 N295 N 0.84663 -0.02714 0.26449
 C296 C 0.83367 -0.07732 0.26950
 H297 H 0.75696 -0.14777 0.43523
 H298 H 0.76673 -0.20602 0.36887
 H299 H 0.81683 0.01695 0.37063
 H300 H 0.83972 -0.10162 0.23937
 C301 C 0.67679 0.74540 -0.10277
 C302 C 0.71696 0.74696 -0.13494
 C303 C 0.72866 0.78929 -0.16477
 C304 C 0.70100 0.83293 -0.15805
 C305 C 0.65737 0.82995 -0.12783
 C306 C 0.64572 0.78570 -0.09893
 C307 C 0.62736 0.87177 -0.12808
 N308 N 0.64320 0.91500 -0.15165
 N309 N 0.68695 0.91964 -0.17513
 C310 C 0.71656 0.88051 -0.17863
 H311 H 0.66979 0.71160 -0.08084
 H312 H 0.73766 0.71344 -0.13755
 H313 H 0.59120 0.87126 -0.11069
 H314 H 0.75279 0.88804 -0.19586
 C315 C 0.33093 0.25015 -0.10754
 C316 C 0.29076 0.24860 -0.13993
 C317 C 0.27511 0.20420 -0.16452
 C318 C 0.30012 0.15966 -0.15423
 C319 C 0.34406 0.16232 -0.12422
 C320 C 0.35860 0.20788 -0.09918
 C321 C 0.37209 0.11924 -0.12145
 N322 N 0.35412 0.07547 -0.14222
 N323 N 0.31029 0.07172 -0.16596
 C324 C 0.28260 0.11209 -0.17243
 H325 H 0.34062 0.28534 -0.08905
 H326 H 0.27253 0.28320 -0.14646
 H327 H 0.40866 0.11963 -0.10432
 H328 H 0.24662 0.10595 -0.19062
 C329 C 0.39567 0.72408 0.10327
 C330 C 0.36108 0.71864 0.14096
 C331 C 0.36860 0.74586 0.18414
 C332 C 0.41552 0.77595 0.19014
 C333 C 0.44990 0.78245 0.15079
 C334 C 0.43912 0.75706 0.10684
 C335 C 0.49565 0.81226 0.15747
 N336 N 0.50705 0.83308 0.20082
 N337 N 0.47624 0.82532 0.23830
 C338 C 0.43156 0.79705 0.23476
 H339 H 0.38766 0.70330 0.07036
 H340 H 0.32695 0.69428 0.13497
 H341 H 0.52316 0.81812 0.12911
 H342 H 0.41097 0.78965 0.26773
 C343 C 0.57062 0.27152 0.13514
 C344 C 0.60645 0.27643 0.17201
 C345 C 0.64747 0.24627 0.17310
 C346 C 0.65380 0.21185 0.13544
 C347 C 0.61770 0.20714 0.09752
 C348 C 0.57499 0.23649 0.09821
 C349 C 0.62678 0.17436 0.05944
 N350 N 0.66832 0.14748 0.06030
 N351 N 0.70171 0.15140 0.09630
 C352 C 0.69600 0.18277 0.13376
 H353 H 0.53856 0.29453 0.13606
 H354 H 0.60167 0.30336 0.20038
 H355 H 0.60217 0.17050 0.02840
 H356 H 0.72489 0.18522 0.16146
 C357 C -0.11901 0.61964 0.79224
 C358 C -0.14705 0.66185 0.79369
 C359 C -0.13458 0.70469 0.76444
 C360 C -0.08890 0.70606 0.73681
 C361 C -0.06144 0.66209 0.73415
 C362 C -0.07752 0.61827 0.76145
 C363 C -0.01705 0.66439 0.70602
 N364 N -0.00027 0.70806 0.68375
 N365 N -0.02426 0.74992 0.68825
 C366 C -0.06726 0.75069 0.71442
 H367 H -0.13097 0.58695 0.81426
 H368 H -0.18039 0.65957 0.81637
 H369 H 0.00557 0.63259 0.70241
 H370 H -0.08208 0.78697 0.71913
 C371 C -0.12742 0.37150 0.28134
 C372 C -0.16886 0.33625 0.28300
 C373 C -0.21158 0.34063 0.25313
 C374 C -0.21353 0.38593 0.22464
 C375 C -0.16994 0.42101 0.22186
 C376 C -0.12619 0.41259 0.24950
 C377 C -0.17247 0.46492 0.19330
 N378 N -0.21597 0.47395 0.17011
 N379 N -0.25739 0.44258 0.17419
 C380 C -0.25795 0.39955 0.20099
 H381 H -0.09503 0.36543 0.30408
 H382 H -0.16583 0.30393 0.30671
 H383 H -0.14093 0.49303 0.19017
 H384 H -0.29405 0.37847 0.20513
 C385 C 0.07907 0.34371 0.78821
 C386 C 0.10851 0.30244 0.78811
 C387 C 0.14675 0.29905 0.75397
 C388 C 0.15688 0.33892 0.72024
 C389 C 0.12760 0.38159 0.72083
 C390 C 0.08731 0.38321 0.75449
 C391 C 0.14128 0.42194 0.68884
 N392 N 0.18022 0.41873 0.65773
 N393 N 0.20693 0.37829 0.65665
 C394 C 0.19679 0.33845 0.68692
 H395 H 0.04904 0.34443 0.81454
 H396 H 0.10094 0.27250 0.81454
 H397 H 0.12264 0.45665 0.68880
 H398 H 0.22059 0.30722 0.68505
 C399 C 0.12831 0.63173 0.27389
 C400 C 0.17016 0.66630 0.27540
 C401 C 0.21375 0.66064 0.24741
 C402 C 0.21496 0.61534 0.21950
 C403 C 0.17064 0.58108 0.21668
 C404 C 0.12701 0.59003 0.24379
 C405 C 0.17224 0.53736 0.18863
 N406 N 0.21547 0.52754 0.16596
 N407 N 0.25750 0.55795 0.17010
 C408 C 0.25902 0.60078 0.19637
 H409 H 0.09590 0.63852 0.29586
 H410 H 0.16712 0.69871 0.29829
 H411 H 0.14005 0.51010 0.18525
 H412 H 0.29558 0.62076 0.20028
 C413 C 0.77257 -0.13578 0.59898
 C414 C 0.77785 -0.16966 0.63700
 C415 C 0.79782 -0.15284 0.68120
 C416 C 0.81456 -0.10132 0.68686
 C417 C 0.80958 -0.06679 0.64813
 C418 C 0.78798 -0.08439 0.60393
 C419 C 0.82482 -0.01547 0.65583
 N420 N 0.84467 -0.00047 0.69893
 N421 N 0.85028 -0.03316 0.73490
 C422 C 0.83597 -0.08301 0.73036
 H423 H 0.75579 -0.14966 0.56553
 H424 H 0.76471 -0.20900 0.63244
 H425 H 0.82065 0.01312 0.62848
 H426 H 0.84157 -0.10786 0.76073
 C427 C 0.25811 -0.16447 0.40255
 C428 C 0.26315 -0.19862 0.36555
 C429 C 0.28185 -0.18260 0.32018
 C430 C 0.29524 -0.13019 0.31213
 C431 C 0.29148 -0.09557 0.35054
 C432 C 0.27254 -0.11313 0.39596
 C433 C 0.30472 -0.04394 0.34147
 N434 N 0.31979 -0.02808 0.29689
 N435 N 0.32211 -0.06019 0.26064
 C436 C 0.31003 -0.11042 0.26655
 H437 H 0.24302 -0.17833 0.43685
 H438 H 0.25232 -0.23820 0.37261
 H439 H 0.30241 -0.01578 0.36897
 H440 H 0.31091 -0.13370 0.23507
 C441 C 0.73964 0.15986 0.40505
 C442 C 0.73534 0.19463 0.36772
 C443 C 0.72260 0.17889 0.32077
 C444 C 0.71409 0.12616 0.31163
 C445 C 0.71669 0.09086 0.35034
 C446 C 0.73016 0.10814 0.39713
 C447 C 0.70794 0.03901 0.34043
 N448 N 0.69854 0.02355 0.29471
 N449 N 0.69768 0.05634 0.25819
 C450 C 0.70547 0.10685 0.26495
 H451 H 0.75061 0.17348 0.44055
 H452 H 0.74235 0.23443 0.37569
 H453 H 0.70919 0.01049 0.36835
 H454 H 0.70611 0.13078 0.23340
 C455 C 0.26059 0.09730 0.62901
 C456 C 0.25473 0.12909 0.66760
 C457 C 0.20795 0.14813 0.67743
 C458 C 0.16590 0.13428 0.64691
 C459 C 0.17266 0.10388 0.60573
 C460 C 0.22017 0.08361 0.59785
 C461 C 0.13158 0.09566 0.57360
 N462 N 0.08599 0.11261 0.58427
 N463 N 0.07863 0.13746 0.62468
 C464 C 0.11679 0.14863 0.65641
 H465 H 0.29730 0.08271 0.62396
 H466 H 0.28752 0.13891 0.69004
 H467 H 0.13510 0.07697 0.53963
 H468 H 0.10769 0.16767 0.68897
   
