data_POSCAR
  _audit_creation_date              2014-09-24
  _audit_creation_method            'ToBaCCo'
  _symmetry_space_group_name_H-M    'P1'
  _symmetry_Int_Tables_number       1
  _symmetry_cell_setting            triclinic
  loop_
  _symmetry_equiv_pos_as_xyz
 x,y,z
_cell_length_a 49.1698
_cell_length_b 49.1925
_cell_length_c 18.3214
_cell_angle_alpha 90.133200
_cell_angle_beta 89.913000
_cell_angle_gamma 119.967900
loop_
  _atom_site_label
  _atom_site_type_symbol
  _atom_site_fract_x
  _atom_site_fract_y
  _atom_site_fract_z
C1 C 0.18742 0.49391 0.43519
 C2 C 0.17201 0.48896 0.50250
 C3 C 0.18663 0.49044 0.56935
 C4 C 0.21736 0.49451 0.56849
 C5 C 0.23338 0.49898 0.50101
 C6 C 0.21855 0.49900 0.43423
 C7 C 0.23423 0.50130 0.36816
 C8 C 0.26403 0.50483 0.36729
 C9 C 0.27894 0.50460 0.43221
 C10 C 0.26370 0.50178 0.49995
 C11 C 0.23118 0.49099 0.63232
 C12 C 0.26065 0.49363 0.63117
 C13 C 0.27798 0.50006 0.56613
 C14 C 0.30778 0.50173 0.56391
 C15 C 0.32226 0.50494 0.49593
 C16 C 0.30840 0.50627 0.43084
 H17 H 0.22337 0.49934 0.31578
 H18 H 0.27492 0.50689 0.31467
 H19 H 0.21872 0.48462 0.68373
 H20 H 0.26896 0.48918 0.68178
 H21 H 0.14891 0.48672 0.50309
 H22 H 0.34510 0.50659 0.49321
 C23 C 0.49915 -0.19118 0.43630
 C24 C 0.50314 -0.17576 0.50291
 C25 C 0.50398 -0.18957 0.56885
 C26 C 0.50192 -0.21931 0.56816
 C27 C 0.49746 -0.23547 0.50101
 C28 C 0.49557 -0.22151 0.43494
 C29 C 0.49042 -0.23808 0.36924
 C30 C 0.48790 -0.26750 0.36800
 C31 C 0.49171 -0.28108 0.43195
 C32 C 0.49545 -0.26536 0.49974
 C33 C 0.50542 -0.23271 0.63240
 C34 C 0.50388 -0.26171 0.63122
 C35 C 0.49780 -0.27907 0.56606
 C36 C 0.49619 -0.30873 0.56424
 C37 C 0.49214 -0.32383 0.49685
 C38 C 0.49030 -0.31062 0.43066
 H39 H 0.48809 -0.22851 0.31803
 H40 H 0.48266 -0.27955 0.31608
 H41 H 0.51020 -0.22051 0.68414
 H42 H 0.50824 -0.26988 0.68212
 H43 H 0.50530 -0.15270 0.50343
 H44 H 0.49116 -0.34637 0.49585
 C45 C 1.19628 0.69041 0.43166
 C46 C 1.18270 0.67566 0.49746
 C47 C 1.19629 0.68871 0.56531
 C48 C 1.22546 0.71753 0.56631
 C49 C 1.23957 0.73287 0.49943
 C50 C 1.22491 0.71908 0.43206
 C51 C 1.24007 0.73329 0.36655
 C52 C 1.26902 0.76063 0.36670
 C53 C 1.28377 0.77565 0.43234
 C54 C 1.26918 0.76124 0.49962
 C55 C 1.24248 0.72979 0.63127
 C56 C 1.27135 0.75736 0.63152
 C57 C 1.28477 0.77417 0.56685
 C58 C 1.31482 0.80178 0.56688
 C59 C 1.32913 0.81475 0.49963
 C60 C 1.31399 0.80301 0.43254
 H61 H 1.23020 0.72279 0.31419
 H62 H 1.28018 0.76905 0.31432
 H63 H 1.23445 0.71750 0.68255
 H64 H 1.28367 0.76451 0.68302
 H65 H 1.16021 0.65409 0.49536
 H66 H 1.35149 0.83648 0.49967
 C67 C 0.68696 0.49185 0.43539
 C68 C 0.67148 0.48842 0.50155
 C69 C 0.68491 0.48787 0.56887
 C70 C 0.71432 0.48870 0.56862
 C71 C 0.73028 0.49212 0.50147
 C72 C 0.71666 0.49401 0.43478
 C73 C 0.73260 0.49707 0.36891
 C74 C 0.76132 0.49809 0.36817
 C75 C 0.77497 0.49555 0.43314
 C76 C 0.75956 0.49278 0.50063
 C77 C 0.72689 0.48345 0.63247
 C78 C 0.75546 0.48398 0.63162
 C79 C 0.77296 0.48987 0.56690
 C80 C 0.80215 0.49026 0.56524
 C81 C 0.81650 0.49264 0.49736
 C82 C 0.80359 0.49550 0.43221
 H83 H 0.72283 0.49830 0.31697
 H84 H 0.77255 0.50046 0.31585
 H85 H 0.71421 0.47765 0.68357
 H86 H 0.76306 0.47858 0.68214
 H87 H 0.64934 0.48824 0.50030
 H88 H 0.83904 0.49365 0.49489
 C89 C 0.50767 0.19833 0.56686
 C90 C 0.50655 0.18399 0.50018
 C91 C 0.50544 0.19735 0.43393
 C92 C 0.50550 0.22610 0.43368
 C93 C 0.50684 0.24116 0.50092
 C94 C 0.50818 0.22733 0.56773
 C95 C 0.51132 0.24345 0.63326
 C96 C 0.51244 0.27227 0.63354
 C97 C 0.50949 0.28583 0.56850
 C98 C 0.50760 0.27044 0.50121
 C99 C 0.50522 0.24062 0.36802
 C100 C 0.50616 0.26934 0.36819
 C101 C 0.50729 0.28461 0.43403
 C102 C 0.50921 0.31420 0.43431
 C103 C 0.51156 0.32930 0.50058
 C104 C 0.51084 0.31545 0.56813
 H105 H 0.51377 0.23429 0.68497
 H106 H 0.51661 0.28416 0.68545
 H107 H 0.50478 0.23014 0.31572
 H108 H 0.50656 0.27972 0.31592
 H109 H 0.50609 0.16169 0.49985
 H110 H 0.51190 0.35152 0.49914
 C111 C 0.68897 0.19741 0.56930
 C112 C 0.67340 0.18511 0.50334
 C113 C 0.68675 0.19917 0.43658
 C114 C 0.71641 0.22692 0.43552
 C115 C 0.73246 0.23986 0.50224
 C116 C 0.71876 0.22492 0.56933
 C117 C 0.73564 0.23714 0.63430
 C118 C 0.76531 0.26379 0.63371
 C119 C 0.77903 0.27994 0.56836
 C120 C 0.76264 0.26729 0.50165
 C121 C 0.73043 0.24200 0.36966
 C122 C 0.76012 0.26858 0.36890
 C123 C 0.77670 0.28142 0.43409
 C124 C 0.80737 0.30751 0.43333
 C125 C 0.82340 0.31942 0.49890
 C126 C 0.80965 0.30688 0.56692
 H127 H 0.72631 0.22581 0.68622
 H128 H 0.77768 0.27093 0.68511
 H129 H 0.71866 0.23326 0.31788
 H130 H 0.77011 0.27878 0.31644
 H131 H 0.65083 0.16361 0.50387
 H132 H 0.84655 0.34015 0.49655
 O133 O 0.95669 0.52520 -0.13966
 O134 O 0.92163 0.48489 -0.06673
 C135 C 0.92844 0.50435 -0.12039
 O136 O 1.04371 0.47338 -0.12656
 O137 O 1.07885 0.51700 -0.06197
 C138 C 1.07196 0.49484 -0.10931
 O139 O 0.95627 0.43239 -0.13307
 O140 O 0.92133 0.43976 -0.06449
 C141 C 0.92810 0.42576 -0.11540
 O142 O 1.04437 0.57159 -0.13223
 O143 O 1.07910 0.56399 -0.06347
 C144 C 1.07254 0.57839 -0.11366
 Zr145 Zr 1.00033 0.53581 -0.09325
 O146 O 1.00129 0.54002 -0.20818
 O147 O 0.99938 0.57805 -0.08165
 Zr148 Zr 0.99998 0.46671 -0.09011
 O149 O 1.00288 0.46599 -0.20532
 O150 O 0.99631 0.42201 -0.08333
 O151 O 0.97241 0.48737 -0.10627
 O152 O 1.02726 0.51455 -0.10553
 O153 O 1.04437 0.57367 0.12633
 O154 O 1.07902 0.56455 0.06115
 C155 C 1.07250 0.57986 0.10911
 O156 O 0.95619 0.43447 0.13707
 O157 O 0.92132 0.44068 0.06568
 C158 C 0.92803 0.42741 0.11821
 O159 O 1.04367 0.47555 0.13124
 O160 O 1.07877 0.51770 0.06285
 C161 C 1.07191 0.49663 0.11285
 O162 O 0.95668 0.52784 0.13309
 O163 O 0.92159 0.48595 0.06383
 C164 C 0.92845 0.50654 0.11512
 Zr165 Zr 1.00032 0.53721 0.08913
 O166 O 1.00333 0.54214 0.20403
 O167 O 0.99742 0.57861 0.08018
 Zr168 Zr 0.99994 0.46809 0.09279
 O169 O 1.00313 0.46867 0.20802
 O170 O 0.99625 0.42331 0.08924
 Zr171 Zr 0.95296 0.47851 -0.00033
 Zr172 Zr 1.04718 0.52515 -0.00047
 O173 O 1.02715 0.51612 0.10469
 O174 O 0.97232 0.48897 0.10567
 O175 O 1.02883 0.55581 -0.00242
 O176 O 0.97224 0.44876 0.00157
 O177 O 0.97244 0.52755 -0.00241
 O178 O 1.02830 0.47610 0.00160
 H179 H 1.04106 0.52097 -0.14901
 H180 H 0.95772 0.42578 0.00228
 H181 H 1.04074 0.52315 0.14855
 H182 H 0.95790 0.53603 -0.00333
 H183 H 1.01548 0.42476 -0.05908
 H184 H 1.01590 0.42592 0.06784
 H185 H 0.98806 0.47463 0.22736
 H186 H 0.98990 0.52104 0.22492
 H187 H 1.01653 0.59445 0.05455
 H188 H 0.99872 0.58511 -0.13187
 H189 H 1.00543 0.52376 -0.22809
 H190 H 0.98751 0.47142 -0.22522
 O191 O 0.43170 0.47794 0.13502
 O192 O 0.43806 0.51875 0.06251
 C193 C 0.42472 0.49902 0.11538
 O194 O 0.57017 0.52863 0.13147
 O195 O 0.56242 0.48568 0.06487
 C196 C 0.57691 0.50708 0.11413
 O197 O 0.52405 0.57034 0.13452
 O198 O 0.48290 0.56356 0.06257
 C199 C 0.50276 0.57710 0.11516
 O200 O 0.47247 0.43114 0.13052
 O201 O 0.51570 0.43909 0.06484
 C202 C 0.49412 0.42448 0.11361
 Zr203 Zr 0.46499 0.46725 0.09049
 O204 O 0.46019 0.46223 0.20512
 O205 O 0.42181 0.42526 0.07600
 Zr206 Zr 0.53400 0.53618 0.09192
 O207 O 0.53636 0.53659 0.20729
 O208 O 0.57531 0.58069 0.08706
 O209 O 0.48559 0.51562 0.10488
 O210 O 0.51293 0.48820 0.10586
 O211 O 0.47349 0.43041 -0.12854
 O212 O 0.51612 0.43865 -0.06020
 C213 C 0.49500 0.42386 -0.10983
 O214 O 0.52461 0.56877 -0.13815
 O215 O 0.48350 0.56326 -0.06761
 C216 C 0.50363 0.57617 -0.12001
 O217 O 0.57089 0.52749 -0.12917
 O218 O 0.56281 0.48522 -0.06003
 C219 C 0.57748 0.50605 -0.11011
 O220 O 0.43185 0.47638 -0.13671
 O221 O 0.43839 0.51828 -0.06785
 C222 C 0.42495 0.49779 -0.11940
 Zr223 Zr 0.46594 0.46699 -0.09196
 O224 O 0.46639 0.46385 -0.20718
 O225 O 0.42147 0.42560 -0.08745
 Zr226 Zr 0.53507 0.53595 -0.09065
 O227 O 0.54129 0.53960 -0.20503
 O228 O 0.57622 0.58033 -0.07913
 Zr229 Zr 0.47644 0.52520 -0.00169
 Zr230 Zr 0.52347 0.47803 0.00142
 O231 O 0.51399 0.48790 -0.10430
 O232 O 0.48674 0.51531 -0.10702
 O233 O 0.47444 0.44764 0.00019
 O234 O 0.52550 0.55486 -0.00031
 O235 O 0.44667 0.47621 -0.00150
 O236 O 0.55402 0.52706 0.00157
 H237 H 0.51960 0.48150 0.15001
 H238 H 0.53386 0.57783 -0.00071
 H239 H 0.52081 0.48088 -0.14781
 H240 H 0.42367 0.46779 -0.00183
 H241 H 0.59197 0.57775 0.06455
 H242 H 0.59356 0.57671 -0.06489
 H243 H 0.52245 0.52157 -0.22629
 H244 H 0.47136 0.48452 -0.22703
 H245 H 0.42398 0.40978 -0.05955
 H246 H 0.41339 0.41794 0.12568
 H247 H 0.48004 0.47883 0.22640
 H248 H 0.51525 0.53076 0.22598
 O249 O 0.47168 0.04301 0.13501
 O250 O 0.51294 0.07850 0.06494
 C251 C 0.49255 0.07136 0.11679
 O252 O 0.52560 -0.04203 0.13370
 O253 O 0.48370 -0.07751 0.06501
 C254 C 0.50475 -0.07038 0.11523
 O255 O 0.56537 0.04550 0.13953
 O256 O 0.55841 0.07971 0.06755
 C257 C 0.57174 0.07346 0.12073
 O258 O 0.42677 -0.04444 0.12744
 O259 O 0.43635 -0.07861 0.06162
 C260 C 0.42096 -0.07241 0.11004
 Zr261 Zr 0.46257 -0.00031 0.08946
 O262 O 0.45610 -0.00143 0.20374
 O263 O 0.42015 -0.00019 0.07239
 Zr264 Zr 0.53244 0.00145 0.09479
 O265 O 0.53149 -0.00132 0.21012
 O266 O 0.57757 0.00590 0.09231
 O267 O 0.51067 0.02825 0.10677
 O268 O 0.48440 -0.02644 0.10591
 O269 O 0.42901 -0.04482 -0.13126
 O270 O 0.43766 -0.07887 -0.06269
 C271 C 0.42291 -0.07277 -0.11282
 O272 O 0.56751 0.04527 -0.13235
 O273 O 0.55962 0.07966 -0.06297
 C274 C 0.57373 0.07328 -0.11429
 O275 O 0.52816 -0.04206 -0.12535
 O276 O 0.48496 -0.07757 -0.06035
 C277 C 0.50701 -0.07041 -0.10807
 O278 O 0.47376 0.04307 -0.13795
 O279 O 0.51413 0.07850 -0.06560
 C280 C 0.49449 0.07141 -0.11899
 Zr281 Zr 0.46441 -0.00039 -0.09284
 O282 O 0.46174 -0.00374 -0.20805
 O283 O 0.42243 0.00169 -0.08960
 Zr284 Zr 0.53430 0.00139 -0.08801
 O285 O 0.53688 -0.00172 -0.20270
 O286 O 0.57937 0.00613 -0.07734
 Zr287 Zr 0.52112 0.04765 0.00089
 Zr288 Zr 0.47595 -0.04645 0.00087
 O289 O 0.48654 -0.02648 -0.10423
 O290 O 0.51282 0.02822 -0.10510
 O291 O 0.44458 -0.02894 -0.00194
 O292 O 0.55165 0.02928 0.00370
 O293 O 0.47197 0.02742 -0.00185
 O294 O 0.52512 -0.02684 0.00371
 H295 H 0.47745 -0.04009 0.14960
 H296 H 0.57455 0.04426 0.00468
 H297 H 0.48043 -0.04007 -0.14812
 H298 H 0.46313 0.04165 -0.00268
 H299 H 0.57537 -0.01346 0.07015
 H300 H 0.57656 -0.01385 -0.05777
 H301 H 0.52769 0.01030 -0.22412
 H302 H 0.48277 0.01130 -0.22733
 H303 H 0.40640 -0.01734 -0.06407
 H304 H 0.41211 0.00042 0.12160
 H305 H 0.47292 -0.00407 0.22594
 H306 H 0.52507 0.01356 0.22862
 C307 C 1.13532 0.49554 0.25280
 C308 C 1.12194 0.47089 0.30292
 C309 C 1.13938 0.47016 0.36205
 C310 C 1.17089 0.49389 0.37180
 C311 C 1.18422 0.51864 0.32072
 C312 C 1.16654 0.51940 0.26159
 C313 C 1.11561 0.49726 0.19709
 C314 C 1.09683 0.49752 0.15531
 H315 H 1.09766 0.45250 0.29725
 H316 H 1.12822 0.45080 0.40013
 H317 H 1.20783 0.53811 0.32826
 H318 H 1.17692 0.53901 0.22408
 C319 C 0.49265 0.63721 0.24993
 C320 C 0.47014 0.62260 0.30462
 C321 C 0.46831 0.64016 0.36222
 C322 C 0.48881 0.67287 0.36601
 C323 C 0.51058 0.68758 0.30887
 C324 C 0.51250 0.66980 0.25130
 C325 C 0.49700 0.61796 0.19737
 C326 C 0.50005 0.60013 0.15761
 H327 H 0.45475 0.59737 0.30429
 H328 H 0.45114 0.62804 0.40480
 H329 H 0.52757 0.71242 0.31119
 H330 H 0.53033 0.68128 0.20970
 C331 C 0.36252 -0.14084 0.24986
 C332 C 0.33040 -0.15177 0.25818
 C333 C 0.31396 -0.17120 0.31714
 C334 C 0.32946 -0.18001 0.36867
 C335 C 0.36180 -0.16890 0.35898
 C336 C 0.37804 -0.14974 0.29996
 C337 C 0.38065 -0.11815 0.19464
 C338 C 0.39791 -0.09788 0.15296
 H339 H 0.31829 -0.14450 0.22055
 H340 H 0.28950 -0.17801 0.32437
 H341 H 0.37458 -0.17516 0.39715
 H342 H 0.40297 -0.14119 0.29447
 C343 C 0.86088 0.50329 0.24908
 C344 C 0.86948 0.52910 0.29506
 C345 C 0.84992 0.52700 0.35269
 C346 C 0.82154 0.49910 0.36468
 C347 C 0.81242 0.47361 0.31706
 C348 C 0.83208 0.47569 0.25942
 C349 C 0.88324 0.50418 0.19709
 C350 C 0.90327 0.50516 0.15742
 H351 H 0.89187 0.55041 0.28814
 H352 H 0.85740 0.54670 0.38961
 H353 H 0.79077 0.45179 0.32637
 H354 H 0.82542 0.45545 0.22476
 C355 C 0.50224 0.36389 0.25027
 C356 C 0.47719 0.33413 0.26766
 C357 C 0.47990 0.31724 0.32581
 C358 C 0.50771 0.32999 0.36691
 C359 C 0.53298 0.35950 0.34809
 C360 C 0.53028 0.37632 0.28996
 C361 C 0.49839 0.38323 0.19722
 C362 C 0.49589 0.40111 0.15661
 H363 H 0.45525 0.32449 0.23797
 H364 H 0.45999 0.29474 0.34043
 H365 H 0.55445 0.36984 0.37977
 H366 H 0.54966 0.39948 0.27757
 C367 C 0.63286 0.14322 0.25546
 C368 C 0.66358 0.14922 0.26585
 C369 C 0.68185 0.16884 0.32275
 C370 C 0.66954 0.18268 0.36957
 C371 C 0.63905 0.17731 0.35752
 C372 C 0.62084 0.15773 0.30065
 C373 C 0.61248 0.11979 0.20383
 C374 C 0.59441 0.09912 0.16397
 H375 H 0.67298 0.13781 0.23180
 H376 H 0.70509 0.17221 0.33219
 H377 H 0.62903 0.18743 0.39373
 H378 H 0.59699 0.15295 0.29366
 C379 C 0.50327 0.14119 -0.25307
 C380 C 0.52985 0.15497 -0.29801
 C381 C 0.53203 0.17501 -0.35439
 C382 C 0.50769 0.18158 -0.36616
 C383 C 0.48160 0.16866 -0.31927
 C384 C 0.47940 0.14850 -0.26290
 C385 C 0.49943 0.11738 -0.20195
 C386 C 0.49674 0.09665 -0.16238
 H387 H 0.54835 0.14930 -0.29123
 H388 H 0.55215 0.18452 -0.39056
 H389 H 0.46241 0.17311 -0.32837
 H390 H 0.45861 0.13774 -0.22884
 C391 C 0.63564 0.49453 -0.24850
 C392 C 0.66843 0.51263 -0.25078
 C393 C 0.68503 0.50944 -0.30932
 C394 C 0.66901 0.48813 -0.36668
 C395 C 0.63602 0.46956 -0.36228
 C396 C 0.61962 0.47266 -0.30371
 C397 C 0.61770 0.49982 -0.19385
 C398 C 0.60051 0.50334 -0.15276
 H399 H 0.68105 0.52998 -0.20883
 H400 H 0.71018 0.52509 -0.31189
 H401 H 0.62278 0.45264 -0.40456
 H402 H 0.59423 0.45859 -0.30268
 C403 C 0.86389 0.36044 -0.25292
 C404 C 0.83166 0.34988 -0.25472
 C405 C 0.81327 0.33103 -0.31267
 C406 C 0.82693 0.32254 -0.36972
 C407 C 0.85935 0.33306 -0.36618
 C408 C 0.87751 0.35161 -0.30823
 C409 C 0.88402 0.38241 -0.19853
 C410 C 0.90307 0.40180 -0.15771
 H411 H 0.82097 0.35704 -0.21277
 H412 H 0.78877 0.32462 -0.31487
 H413 H 0.87075 0.32691 -0.40853
 H414 H 0.90247 0.35978 -0.30761
 C415 C 0.50825 -0.13529 -0.24381
 C416 C 0.53359 -0.12394 -0.29245
 C417 C 0.53275 -0.14220 -0.35182
 C418 C 0.50661 -0.17212 -0.36301
 C419 C 0.48166 -0.18385 -0.31287
 C420 C 0.48246 -0.16547 -0.25353
 C421 C 0.50741 -0.11438 -0.18987
 C422 C 0.50703 -0.09520 -0.14941
 H423 H 0.55347 -0.10047 -0.28605
 H424 H 0.55205 -0.13268 -0.39034
 H425 H 0.46110 -0.20669 -0.32134
 H426 H 0.46252 -0.17431 -0.21692
 C427 C 0.36095 0.49854 -0.25822
 C428 C 0.34771 0.51796 -0.25414
 C429 C 0.32909 0.51839 -0.31160
 C430 C 0.32357 0.49939 -0.37390
 C431 C 0.33683 0.47975 -0.37632
 C432 C 0.35511 0.47923 -0.31900
 C433 C 0.38235 0.49942 -0.20354
 C434 C 0.40135 0.49913 -0.16252
 H435 H 0.35248 0.53336 -0.20769
 H436 H 0.32037 0.53470 -0.30891
 H437 H 0.33297 0.46460 -0.42286
 H438 H 0.36532 0.46419 -0.32289
 C439 C 1.14072 0.63792 -0.25307
 C440 C 1.15464 0.67066 -0.25450
 C441 C 1.17405 0.68780 -0.31302
 C442 C 1.17974 0.67236 -0.37110
 C443 C 1.16582 0.63941 -0.36797
 C444 C 1.14673 0.62249 -0.30947
 C445 C 1.11814 0.61935 -0.19790
 C446 C 1.09794 0.60169 -0.15649
 H447 H 1.14971 0.68282 -0.21171
 H448 H 1.18316 0.71289 -0.31472
 H449 H 1.16977 0.62662 -0.41099
 H450 H 1.13597 0.59715 -0.30922
 C451 C 0.85887 0.49415 -0.25732
 C452 C 0.85269 0.47310 -0.31465
 C453 C 0.83285 0.47088 -0.37139
 C454 C 0.81841 0.48949 -0.37175
 C455 C 0.82393 0.50987 -0.31221
 C456 C 0.84410 0.51220 -0.25547
 C457 C 0.88235 0.49859 -0.20442
 C458 C 0.90303 0.50165 -0.16406
 H459 H 0.86400 0.45902 -0.31668
 H460 H 0.82897 0.45468 -0.41565
 H461 H 0.81433 0.52546 -0.31171
 H462 H 0.84903 0.52887 -0.21168
 C463 C 0.50473 0.36495 -0.24907
 C464 C 0.52739 0.38064 -0.30297
 C465 C 0.53002 0.36412 -0.36190
 C466 C 0.51023 0.33135 -0.36784
 C467 C 0.48781 0.31568 -0.31232
 C468 C 0.48512 0.33240 -0.25340
 C469 C 0.50021 0.38318 -0.19386
 C470 C 0.49727 0.40059 -0.15239
 H471 H 0.54251 0.40588 -0.30051
 H472 H 0.54767 0.37705 -0.40303
 H473 H 0.47119 0.29079 -0.31644
 H474 H 0.46708 0.32009 -0.21267
 C475 C 0.63780 0.14067 -0.24854
 C476 C 0.64002 0.16995 -0.25870
 C477 C 0.65805 0.18936 -0.31615
 C478 C 0.67380 0.17948 -0.36379
 C479 C 0.67223 0.15057 -0.35205
 C480 C 0.65438 0.13130 -0.29459
 C481 C 0.61618 0.11868 -0.19629
 C482 C 0.59721 0.09870 -0.15652
 H483 H 0.62699 0.17725 -0.22391
 H484 H 0.65876 0.21146 -0.32522
 H485 H 0.68400 0.14253 -0.38889
 H486 H 0.65256 0.10858 -0.28774
 C487 C 1.13488 0.49072 -0.24588
 C488 C 1.16714 0.51204 -0.24970
 C489 C 1.18471 0.51117 -0.30909
 C490 C 1.17017 0.48900 -0.36576
 C491 C 1.13776 0.46733 -0.35999
 C492 C 1.12043 0.46811 -0.30055
 C493 C 1.11546 0.49347 -0.19082
 C494 C 1.09682 0.49473 -0.15011
 H495 H 1.17847 0.53001 -0.20832
 H496 H 1.20925 0.52903 -0.31275
 H497 H 1.12571 0.44973 -0.40183
 H498 H 1.09543 0.45160 -0.29843
 C499 C 0.50185 0.63963 -0.25828
 C500 C 0.48158 0.65188 -0.25396
 C501 C 0.48038 0.67010 -0.31126
 C502 C 0.49945 0.67617 -0.37356
 C503 C 0.51998 0.66396 -0.37625
 C504 C 0.52127 0.64608 -0.31905
 C505 C 0.50155 0.61843 -0.20409
 C506 C 0.50215 0.59959 -0.16328
 H507 H 0.46609 0.64659 -0.20750
 H508 H 0.46344 0.67804 -0.30852
 H509 H 0.53511 0.66824 -0.42304
 H510 H 0.53692 0.63659 -0.32312
 C511 C 0.36443 -0.14232 -0.25093
 C512 C 0.33187 -0.15512 -0.25527
 C513 C 0.31508 -0.17481 -0.31368
 C514 C 0.33069 -0.18191 -0.36882
 C515 C 0.36341 -0.16931 -0.36248
 C516 C 0.38000 -0.14990 -0.30401
 C517 C 0.38275 -0.11912 -0.19665
 C518 C 0.40005 -0.09849 -0.15566
 H519 H 0.31964 -0.14899 -0.21506
 H520 H 0.29021 -0.18291 -0.31791
 H521 H 0.37628 -0.17439 -0.40316
 H522 H 0.40523 -0.14003 -0.30142
 C523 C 0.50198 -0.13686 0.25147
 C524 C 0.47320 -0.16194 0.27490
 C525 C 0.47226 -0.18054 0.33364
 C526 C 0.50009 -0.17407 0.36931
 C527 C 0.52890 -0.14941 0.34460
 C528 C 0.52984 -0.13092 0.28586
 C529 C 0.50278 -0.11502 0.19822
 C530 C 0.50369 -0.09533 0.15767
 H531 H 0.45147 -0.16644 0.24941
 H532 H 0.44984 -0.19931 0.35272
 H533 H 0.55052 -0.14402 0.37212
 H534 H 0.55217 -0.11132 0.26890
 C535 C 0.36201 0.50604 0.24758
 C536 C 0.37300 0.53302 0.29080
 C537 C 0.35467 0.53378 0.34821
 C538 C 0.32513 0.50760 0.36260
 C539 C 0.31370 0.48104 0.31743
 C540 C 0.33209 0.48028 0.26005
 C541 C 0.38290 0.50356 0.19660
 C542 C 0.40145 0.50140 0.15752
 H543 H 0.39626 0.55294 0.28211
 H544 H 0.36399 0.55425 0.38327
 H545 H 0.29120 0.46044 0.32873
 H546 H 0.32354 0.45916 0.22749
 C547 C 1.14113 0.64097 0.24539
 C548 C 1.14584 0.67081 0.26232
 C549 C 1.16499 0.68767 0.32126
 C550 C 1.17944 0.67471 0.36371
 C551 C 1.17533 0.64521 0.34523
 C552 C 1.15631 0.62845 0.28629
 C553 C 1.11820 0.62156 0.19180
 C554 C 1.09787 0.60351 0.15123
 H555 H 1.13389 0.68054 0.23164
 H556 H 1.16772 0.71030 0.33536
 H557 H 1.18618 0.63485 0.37776
 H558 H 1.15256 0.60524 0.27423
 C559 C 0.49973 0.14045 0.25154
 C560 C 0.52769 0.15668 0.29114
 C561 C 0.53000 0.17641 0.34855
 C562 C 0.50437 0.18024 0.36661
 C563 C 0.47669 0.16478 0.32525
 C564 C 0.47437 0.14490 0.26786
 C565 C 0.49633 0.11696 0.19970
 C566 C 0.49418 0.09647 0.15985
 H567 H 0.54731 0.15318 0.27936
 H568 H 0.55138 0.18793 0.38048
 H569 H 0.45658 0.16718 0.33929
 H570 H 0.45251 0.13219 0.23803
 C571 C 0.63766 0.49940 0.25122
 C572 C 0.62608 0.47074 0.28777
 C573 C 0.64278 0.46799 0.34614
 C574 C 0.67130 0.49387 0.36832
 C575 C 0.68326 0.52237 0.33045
 C576 C 0.66647 0.52512 0.27207
 C577 C 0.61825 0.50301 0.19789
 C578 C 0.60032 0.50534 0.15711
 H579 H 0.60365 0.45082 0.27268
 H580 H 0.63313 0.44594 0.37524
 H581 H 0.70505 0.54265 0.34758
 H582 H 0.67545 0.54751 0.24481
 C583 C 0.86130 0.36155 0.25068
 C584 C 0.83384 0.36175 0.27025
 C585 C 0.81516 0.34279 0.32751
 C586 C 0.82389 0.32357 0.36551
 C587 C 0.85089 0.32276 0.34416
 C588 C 0.86945 0.34160 0.28689
 C589 C 0.88302 0.38405 0.19940
 C590 C 0.90279 0.40357 0.16017
 H591 H 0.82754 0.37738 0.24319
 H592 H 0.79466 0.34403 0.34418
 H593 H 0.85813 0.30837 0.37360
 H594 H 0.89082 0.34152 0.27278
   
