data_POSCAR
  _audit_creation_date              2014-09-24
  _audit_creation_method            'ToBaCCo'
  _symmetry_space_group_name_H-M    'P1'
  _symmetry_Int_Tables_number       1
  _symmetry_cell_setting            triclinic
  loop_
  _symmetry_equiv_pos_as_xyz
 x,y,z
_cell_length_a 36.6572
_cell_length_b 35.8561
_cell_length_c 46.5658
_cell_angle_alpha 87.183300
_cell_angle_beta 90.352000
_cell_angle_gamma 92.025200
loop_
  _atom_site_label
  _atom_site_type_symbol
  _atom_site_fract_x
  _atom_site_fract_y
  _atom_site_fract_z
C1 C 0.02246 0.50653 0.98422
 C2 C 0.02067 0.50338 1.01345
 C3 C 0.01880 0.53648 1.03132
 C4 C 0.02046 0.46625 1.02906
 C5 C 0.02126 0.47298 0.96682
 C6 C 0.02538 0.54330 0.96822
 C7 C 0.04314 0.54049 1.05428
 C8 C 0.04169 0.57107 1.07159
 C9 C 0.01560 0.59903 1.06661
 C10 C -0.00901 0.59424 1.04329
 C11 C -0.00758 0.56334 1.02621
 C12 C 0.04951 0.44223 1.02630
 C13 C 0.04877 0.40714 1.04077
 C14 C 0.01907 0.39552 1.05841
 C15 C -0.00974 0.41993 1.06138
 C16 C -0.00893 0.45503 1.04695
 C17 C -0.00947 0.44848 0.96745
 C18 C -0.00977 0.41615 0.95185
 C19 C 0.02075 0.40774 0.93556
 C20 C 0.05123 0.43265 0.93464
 C21 C 0.05133 0.46520 0.94995
 C22 C -0.00070 0.55240 0.94711
 C23 C 0.00097 0.58726 0.93237
 C24 C 0.02904 0.61355 0.93823
 C25 C 0.05569 0.60406 0.95891
 C26 C 0.05388 0.56919 0.97378
 H27 H 0.06388 0.52012 1.05853
 H28 H 0.06274 0.57320 1.08782
 H29 H -0.03107 0.61288 1.03882
 H30 H -0.02752 0.56012 1.00917
 H31 H 0.07275 0.45073 1.01299
 H32 H 0.07167 0.38928 1.03844
 H33 H -0.03154 0.47326 1.04934
 H34 H -0.03301 0.45428 0.98022
 H35 H -0.03352 0.39730 0.95300
 H36 H 0.07491 0.42696 0.92198
 H37 H 0.07518 0.48393 0.94917
 H38 H -0.02273 0.53268 0.94237
 H39 H -0.01958 0.59360 0.91622
 H40 H 0.07754 0.62384 0.96391
 H41 H 0.07455 0.56244 0.98973
 H42 H -0.03322 0.41166 1.07449
 C43 C 0.49307 -0.01296 0.48634
 C44 C 0.49164 -0.01229 0.51555
 C45 C 0.45641 -0.01475 0.53121
 C46 C 0.52514 -0.00843 0.53334
 C47 C 0.52835 -0.01271 0.47071
 C48 C 0.45935 -0.01311 0.46849
 C49 C 0.44773 0.01358 0.54946
 C50 C 0.41429 0.01232 0.56370
 C51 C 0.38899 -0.01750 0.56019
 C52 C 0.39809 -0.04635 0.54242
 C53 C 0.43156 -0.04501 0.52809
 C54 C 0.54939 0.02251 0.52916
 C55 C 0.58110 0.02547 0.54584
 C56 C 0.58908 -0.00240 0.56706
 C57 C 0.56438 -0.03307 0.57138
 C58 C 0.53262 -0.03589 0.55481
 C59 C 0.55493 -0.03889 0.47792
 C60 C 0.58845 -0.03735 0.46367
 C61 C 0.59580 -0.01000 0.44155
 C62 C 0.56861 0.01538 0.43380
 C63 C 0.53529 0.01402 0.44822
 C64 C 0.45277 -0.04160 0.44935
 C65 C 0.42095 -0.04237 0.43271
 C66 C 0.39521 -0.01444 0.43473
 C67 C 0.40221 0.01445 0.45359
 C68 C 0.43407 0.01520 0.47021
 H69 H 0.46667 0.03700 0.55230
 H70 H 0.40828 0.03460 0.57764
 H71 H 0.37908 -0.06959 0.53923
 H72 H 0.43802 -0.06742 0.51441
 H73 H 0.54369 0.04432 0.51301
 H74 H 0.59917 0.04979 0.54233
 H75 H 0.51416 -0.05992 0.55835
 H76 H 0.54986 -0.06030 0.49477
 H77 H 0.60882 -0.05717 0.47031
 H78 H 0.57303 0.03625 0.41646
 H79 H 0.51502 0.03422 0.44208
 H80 H 0.47204 -0.06359 0.44766
 H81 H 0.41618 -0.06517 0.41859
 H82 H 0.38326 0.03672 0.45522
 H83 H 0.43907 0.03789 0.48440
 H84 H 0.56990 -0.05527 0.58724
 C85 C 0.06598 -0.00245 0.26740
 H86 H 0.06663 0.00668 0.24492
 C87 C 0.09802 -0.00162 0.28373
 H88 H 0.12322 0.00862 0.27368
 C89 C 0.03194 -0.02599 0.30787
 H90 H 0.00611 -0.03568 0.31708
 C91 C 0.06336 -0.02568 0.32500
 H92 H 0.06144 -0.03544 0.34733
 N93 N 0.03384 -0.01449 0.27964
 C94 C -0.03582 -0.06028 0.21259
 H95 H -0.05882 -0.04218 0.21243
 C96 C -0.03595 -0.09026 0.19454
 H97 H -0.05926 -0.09507 0.18064
 C98 C 0.02162 -0.07692 0.23189
 H99 H 0.04392 -0.07190 0.24662
 C100 C 0.02268 -0.10711 0.21414
 H101 H 0.04619 -0.12457 0.21513
 Zn102 Zn -0.00849 -0.01421 0.25627
 N103 N -0.00734 -0.05419 0.23087
 C104 C -0.01445 0.03497 0.20629
 N105 N -0.00856 0.03262 0.23521
 C106 C -0.00095 0.06380 0.24995
 C107 C 0.00005 0.09905 0.23582
 C108 C -0.01384 0.06972 0.19131
 C109 C -0.07360 -0.05037 0.27818
 C110 C -0.10532 -0.05394 0.29469
 C111 C -0.08880 0.00457 0.31564
 C112 C -0.05755 0.00715 0.29857
 N113 N -0.05074 -0.01980 0.27994
 H114 H -0.01954 0.01005 0.19466
 H115 H 0.00523 0.06130 0.27266
 H116 H 0.00669 0.12339 0.24797
 H117 H -0.01930 0.07098 0.16841
 H118 H -0.06743 -0.07212 0.26395
 H119 H -0.12358 -0.07798 0.29225
 H120 H -0.09345 0.02626 0.33043
 H121 H -0.03868 0.03070 0.30034
 C122 C -0.00648 -0.11429 0.19526
 C123 C 0.09700 -0.01336 0.31296
 C124 C -0.11348 -0.02607 0.31358
 C125 C -0.00662 0.10239 0.20611
 C126 C -0.01069 0.09716 0.74899
 H127 H -0.01429 0.09784 0.72589
 C128 C -0.01182 0.13016 0.76361
 H129 H -0.01597 0.15633 0.75162
 C130 C -0.00098 0.06212 0.79269
 H131 H 0.00260 0.03552 0.80404
 C132 C -0.00145 0.09453 0.80812
 H133 H 0.00187 0.09257 0.83127
 N134 N -0.00515 0.06405 0.76361
 C135 C 0.04350 -0.00966 0.70388
 H136 H 0.02396 -0.03301 0.70484
 C137 C 0.07483 -0.01106 0.68710
 H138 H 0.07893 -0.03542 0.67482
 C139 C 0.06165 0.05051 0.71873
 H140 H 0.05673 0.07422 0.73143
 C141 C 0.09334 0.05028 0.70228
 H142 H 0.11255 0.07389 0.70261
 Zn143 Zn -0.00513 0.02070 0.74195
 N144 N 0.03733 0.02097 0.71902
 C145 C -0.04605 0.01720 0.68978
 N146 N -0.04767 0.02097 0.71866
 C147 C -0.07993 0.02605 0.73192
 C148 C -0.11240 0.02677 0.71613
 C149 C -0.07792 0.01742 0.67319
 C150 C 0.02445 -0.02958 0.78327
 C151 C 0.02566 -0.06185 0.80129
 C152 C -0.03404 -0.08063 0.78378
 C153 C -0.03414 -0.04799 0.76618
 N154 N -0.00534 -0.02305 0.76645
 H155 H -0.02013 0.01382 0.67952
 H156 H -0.08035 0.02959 0.75485
 H157 H -0.13767 0.03130 0.72713
 H158 H -0.07611 0.01341 0.65036
 H159 H 0.04727 -0.00958 0.78272
 H160 H 0.04932 -0.06617 0.81491
 H161 H -0.05707 -0.10032 0.78295
 H162 H -0.05715 -0.04286 0.75213
 C163 C 0.10024 0.01924 0.68611
 C164 C -0.00698 0.12907 0.79354
 C165 C -0.00393 -0.08787 0.80175
 C166 C -0.11175 0.02212 0.68635
 C167 C 0.02812 -0.34127 0.12905
 C168 C 0.01167 -0.30784 0.11948
 C169 C -0.00328 -0.30631 0.09138
 C170 C -0.00225 -0.33729 0.07404
 C171 C 0.01422 -0.37081 0.08365
 C172 C 0.02939 -0.37174 0.11164
 C173 C -0.01895 -0.27365 0.08045
 C174 C -0.01992 -0.24225 0.09668
 C175 C -0.00548 -0.24226 0.12486
 C176 C 0.00990 -0.27588 0.13668
 C177 C 0.02275 -0.27651 0.16536
 C178 C 0.02131 -0.24538 0.18177
 C179 C 0.00737 -0.21217 0.17035
 C180 C -0.00612 -0.20990 0.14173
 C181 C -0.01942 -0.17514 0.13124
 C182 C -0.01951 -0.14439 0.14855
 C183 C -0.00639 -0.14702 0.17686
 C184 C 0.00692 -0.18114 0.18758
 H185 H 0.04047 -0.34503 0.14997
 H186 H -0.01262 -0.33382 0.05231
 H187 H 0.04088 -0.39668 0.12137
 H188 H -0.03051 -0.27224 0.05895
 H189 H -0.03265 -0.21843 0.08649
 H190 H 0.03381 -0.30090 0.17608
 H191 H 0.03147 -0.24730 0.20369
 H192 H -0.02953 -0.17047 0.10966
 H193 H -0.02941 -0.11822 0.13952
 H194 H 0.01668 -0.18375 0.20959
 C195 C 0.02903 0.29153 0.07415
 C196 C 0.01589 0.28622 0.10268
 C197 C 0.00347 0.31800 0.11618
 C198 C 0.00486 0.35336 0.10179
 C199 C 0.01809 0.35808 0.07363
 C200 C 0.03006 0.32680 0.06001
 C201 C -0.01031 0.31446 0.14403
 C202 C -0.01254 0.27997 0.15887
 C203 C -0.00066 0.24734 0.14650
 C204 C 0.01444 0.25063 0.11814
 C205 C 0.02793 0.21833 0.10633
 C206 C 0.02640 0.18397 0.12143
 C207 C 0.01105 0.18012 0.14875
 C208 C -0.00298 0.21159 0.16168
 C209 C -0.01893 0.20577 0.18926
 C210 C -0.02014 0.17051 0.20339
 C211 C -0.00565 0.13971 0.19068
 C212 C 0.00981 0.14480 0.16326
 H213 H 0.03829 0.26902 0.06190
 H214 H -0.00411 0.37741 0.11271
 H215 H 0.03975 0.32946 0.03805
 H216 H -0.01969 0.33870 0.15449
 H217 H -0.02337 0.28003 0.18029
 H218 H 0.04040 0.21861 0.08546
 H219 H 0.03728 0.16003 0.11148
 H220 H -0.03114 0.22767 0.20048
 H221 H -0.03297 0.16727 0.22429
 H222 H 0.02144 0.12128 0.15327
 C223 C 0.30581 -0.05177 0.60316
 C224 C 0.28562 -0.01893 0.60484
 C225 C 0.29999 0.01419 0.59057
 C226 C 0.33337 0.01429 0.57594
 C227 C 0.35322 -0.01827 0.57499
 C228 C 0.33895 -0.05131 0.58847
 C229 C 0.28118 0.04721 0.59103
 C230 C 0.24838 0.04846 0.60556
 C231 C 0.23297 0.01654 0.62052
 C232 C 0.25193 -0.01773 0.62021
 C233 C 0.23682 -0.04948 0.63557
 C234 C 0.20456 -0.04791 0.65084
 C235 C 0.18580 -0.01484 0.65136
 C236 C 0.19944 0.01784 0.63606
 C237 C 0.17892 0.05050 0.63715
 C238 C 0.14685 0.05068 0.65314
 C239 C 0.13390 0.01847 0.66857
 C240 C 0.15347 -0.01429 0.66739
 H241 H 0.29695 -0.07833 0.61297
 H242 H 0.34387 0.03985 0.56508
 H243 H 0.35385 -0.07684 0.58814
 H244 H 0.29202 0.07256 0.58007
 H245 H 0.23601 0.07526 0.60484
 H246 H 0.24944 -0.07615 0.63656
 H247 H 0.19422 -0.07299 0.66246
 H248 H 0.18666 0.07647 0.62589
 H249 H 0.13192 0.07620 0.65319
 H250 H 0.14393 -0.03934 0.67946
 C251 C -0.34516 -0.00990 0.63013
 C252 C -0.31145 0.00269 0.61776
 C253 C -0.31163 0.01526 0.58841
 C254 C -0.34397 0.01364 0.57209
 C255 C -0.37691 0.00021 0.58454
 C256 C -0.37716 -0.01108 0.61376
 C257 C -0.27952 0.02923 0.57537
 C258 C -0.24708 0.03138 0.59082
 C259 C -0.24523 0.01891 0.62002
 C260 C -0.27775 0.00340 0.63349
 C261 C -0.27534 -0.01163 0.66202
 C262 C -0.24258 -0.01104 0.67707
 C263 C -0.21096 0.00506 0.66462
 C264 C -0.21178 0.02073 0.63608
 C265 C -0.17904 0.03776 0.62494
 C266 C -0.14694 0.03831 0.64125
 C267 C -0.14614 0.02194 0.66918
 C268 C -0.17842 0.00541 0.68068
 H269 H -0.34799 -0.01854 0.65250
 H270 H -0.34330 0.02230 0.54945
 H271 H -0.40236 -0.02057 0.62420
 H272 H -0.27947 0.03878 0.55291
 H273 H -0.22362 0.04227 0.57893
 H274 H -0.29822 -0.02496 0.67326
 H275 H -0.24206 -0.02322 0.69884
 H276 H -0.17733 0.05152 0.60389
 H277 H -0.12271 0.05214 0.63201
 H278 H -0.17821 -0.00772 0.70215
 C279 C 0.06390 -0.29922 0.89630
 C280 C 0.03166 -0.27909 0.89135
 C281 C -0.00126 -0.29471 0.90336
 C282 C -0.00175 -0.32938 0.91874
 C283 C 0.03022 -0.34924 0.92281
 C284 C 0.06306 -0.33363 0.91177
 C285 C -0.03367 -0.27587 0.89987
 C286 C -0.03448 -0.24179 0.88450
 C287 C -0.00272 -0.22514 0.87163
 C288 C 0.03086 -0.24425 0.87489
 C289 C 0.06233 -0.22823 0.86117
 C290 C 0.06115 -0.19492 0.84475
 C291 C 0.02878 -0.17587 0.84152
 C292 C -0.00355 -0.19034 0.85517
 C293 C -0.03541 -0.16930 0.85162
 C294 C -0.03522 -0.13614 0.83463
 C295 C -0.00344 -0.12254 0.82060
 C296 C 0.02860 -0.14247 0.82441
 H297 H 0.09027 -0.28929 0.88857
 H298 H -0.02718 -0.34092 0.92775
 H299 H 0.08816 -0.34847 0.91462
 H300 H -0.05888 -0.28768 0.90906
 H301 H -0.06082 -0.22955 0.88273
 H302 H 0.08843 -0.24106 0.86225
 H303 H 0.08596 -0.18397 0.83439
 H304 H -0.06098 -0.17740 0.86175
 H305 H -0.06016 -0.12087 0.83267
 H306 H 0.05335 -0.13241 0.81352
 C307 C 0.05145 0.31665 0.90766
 C308 C 0.02149 0.30523 0.89041
 C309 C -0.00846 0.32919 0.88777
 C310 C -0.00872 0.36226 0.90275
 C311 C 0.02102 0.37279 0.91991
 C312 C 0.05112 0.34989 0.92203
 C313 C -0.03798 0.32019 0.87012
 C314 C -0.03833 0.28818 0.85451
 C315 C -0.00932 0.26327 0.85640
 C316 C 0.02044 0.27125 0.87546
 C317 C 0.04783 0.24470 0.87931
 C318 C 0.04674 0.21195 0.86460
 C319 C 0.01884 0.20457 0.84501
 C320 C -0.00935 0.23029 0.84024
 C321 C -0.03611 0.22206 0.81916
 C322 C -0.03514 0.18941 0.80406
 C323 C -0.00775 0.16376 0.80950
 C324 C 0.01915 0.17153 0.83003
 H325 H 0.07586 0.30095 0.91014
 H326 H -0.03185 0.38025 0.90063
 H327 H 0.07444 0.35755 0.93517
 H328 H -0.06102 0.33830 0.86813
 H329 H -0.06233 0.28331 0.84159
 H330 H 0.07022 0.24794 0.89415
 H331 H 0.06825 0.19230 0.86844
 H332 H -0.05781 0.24051 0.81340
 H333 H -0.05618 0.18400 0.78821
 H334 H 0.04084 0.15208 0.83394
 C335 C -0.31858 0.02980 0.40441
 C336 C -0.30040 -0.00260 0.39710
 C337 C -0.31665 -0.03777 0.40587
 C338 C -0.35033 -0.04006 0.42023
 C339 C -0.36833 -0.00765 0.42668
 C340 C -0.35184 0.02719 0.41890
 C341 C -0.29935 -0.07058 0.40017
 C342 C -0.26602 -0.06944 0.38610
 C343 C -0.24879 -0.03522 0.37660
 C344 C -0.26672 -0.00129 0.38159
 C345 C -0.25079 0.03275 0.37036
 C346 C -0.21836 0.03379 0.35511
 C347 C -0.20006 0.00116 0.35076
 C348 C -0.21461 -0.03380 0.36174
 C349 C -0.19415 -0.06583 0.35739
 C350 C -0.16140 -0.06317 0.34213
 C351 C -0.14776 -0.02865 0.33063
 C352 C -0.16728 0.00343 0.33523
 H353 H -0.30767 0.05768 0.39969
 H354 H -0.36281 -0.06723 0.42600
 H355 H -0.36450 0.05273 0.42435
 H356 H -0.31167 -0.09756 0.40676
 H357 H -0.25485 -0.09615 0.38242
 H358 H -0.26315 0.05928 0.37238
 H359 H -0.20742 0.06058 0.34667
 H360 H -0.20233 -0.09334 0.36580
 H361 H -0.14650 -0.08833 0.33958
 H362 H -0.15729 0.03031 0.32626
 C363 C 0.33019 -0.02691 0.37202
 C364 C 0.29601 -0.01843 0.38369
 C365 C 0.29549 -0.00799 0.41267
 C366 C 0.32775 -0.00671 0.42909
 C367 C 0.36122 -0.01551 0.41721
 C368 C 0.36206 -0.02548 0.38854
 C369 C 0.26278 0.00107 0.42524
 C370 C 0.23036 0.00032 0.40971
 C371 C 0.22920 -0.00983 0.38079
 C372 C 0.26252 -0.01981 0.36766
 C373 C 0.26119 -0.03108 0.33902
 C374 C 0.22873 -0.03218 0.32358
 C375 C 0.19623 -0.02195 0.33583
 C376 C 0.19583 -0.01055 0.36457
 C377 C 0.16194 -0.00020 0.37572
 C378 C 0.13015 -0.00130 0.35905
 C379 C 0.13082 -0.01268 0.33073
 C380 C 0.16405 -0.02306 0.31934
 H381 H 0.33350 -0.03448 0.35013
 H382 H 0.32670 0.00067 0.45137
 H383 H 0.38764 -0.03178 0.37865
 H384 H 0.26222 0.00897 0.44741
 H385 H 0.20651 0.00766 0.42125
 H386 H 0.28482 -0.03960 0.32778
 H387 H 0.22915 -0.04104 0.30165
 H388 H 0.15894 0.00929 0.39712
 H389 H 0.10498 0.00746 0.36828
 H390 H 0.16485 -0.03242 0.29756
   
