data_POSCAR
  _audit_creation_date              2014-09-24
  _audit_creation_method            'ToBaCCo'
  _symmetry_space_group_name_H-M    'P1'
  _symmetry_Int_Tables_number       1
  _symmetry_cell_setting            triclinic
  loop_
  _symmetry_equiv_pos_as_xyz
 x,y,z
_cell_length_a 41.0196
_cell_length_b 40.3650
_cell_length_c 41.1027
_cell_angle_alpha 90.255400
_cell_angle_beta 89.610400
_cell_angle_gamma 90.396100
loop_
  _atom_site_label
  _atom_site_type_symbol
  _atom_site_fract_x
  _atom_site_fract_y
  _atom_site_fract_z
C1 C 0.41516 0.27147 0.01325
 C2 C 0.41006 0.26467 -0.01897
 C3 C 0.37976 0.27762 -0.02680
 N4 N 0.36612 0.29135 0.00007
 C5 C 0.38758 0.28751 0.02453
 C6 C 0.36264 0.27233 -0.05636
 C7 C 0.33277 0.28842 -0.06286
 C8 C 0.31184 0.28056 -0.08824
 C9 C 0.28886 0.30518 -0.08937
 C10 C 0.29633 0.32756 -0.06476
 N11 N 0.32295 0.31706 -0.04865
 C12 C 0.28023 0.35802 -0.05903
 C13 C 0.28328 0.37469 -0.02864
 C14 C 0.27710 0.40800 -0.02269
 C15 C 0.28102 0.41308 0.01005
 C16 C 0.29060 0.38310 0.02286
 N17 N 0.29213 0.35967 -0.00071
 C18 C 0.29575 0.37712 0.05620
 C19 C 0.31662 0.35200 0.06706
 C20 C 0.31925 0.34143 0.09899
 C21 C 0.34369 0.31823 0.09939
 C22 C 0.35517 0.31532 0.06770
 N23 N 0.33872 0.33616 0.04822
 C24 C 0.38086 0.29460 0.05763
 H25 H 0.43628 0.26420 0.02706
 H26 H 0.42659 0.25052 -0.03401
 H27 H 0.34424 0.34164 0.02409
 H28 H 0.31347 0.25992 -0.10503
 H29 H 0.26919 0.30665 -0.10671
 H30 H 0.27099 0.42700 -0.04004
 H31 H 0.27790 0.43632 0.02290
 H32 H 0.35201 0.30503 0.12060
 H33 H 0.33612 0.33112 -0.03194
 H34 H 0.30518 0.34965 0.11984
 C35 C 0.75210 0.60766 -0.02340
 C36 C 0.75618 0.61170 0.00929
 C37 C 0.73370 0.63502 0.01939
 N38 N 0.71616 0.64555 -0.00637
 C39 C 0.72804 0.62967 -0.03306
 C40 C 0.72839 0.64367 0.05244
 C41 C 0.70295 0.66440 0.06354
 C42 C 0.69256 0.66706 0.09563
 C43 C 0.66810 0.69006 0.09636
 C44 C 0.66477 0.70170 0.06487
 N45 N 0.68611 0.68586 0.04503
 C46 C 0.64431 0.72812 0.05571
 C47 C 0.64022 0.73730 0.02287
 C48 C 0.63034 0.76817 0.01247
 C49 C 0.62824 0.76631 -0.02079
 C50 C 0.63637 0.73414 -0.02957
 N51 N 0.64402 0.71656 -0.00281
 C52 C 0.63423 0.72058 -0.06137
 C53 C 0.65081 0.69122 -0.07053
 C54 C 0.64551 0.67376 -0.09908
 C55 C 0.66822 0.64885 -0.10027
 C56 C 0.68691 0.65140 -0.07220
 N57 N 0.67598 0.67748 -0.05430
 C58 C 0.71516 0.63220 -0.06530
 H59 H 0.76447 0.58890 -0.03753
 H60 H 0.77260 0.59750 0.02419
 H61 H 0.68755 0.68810 -0.03438
 H62 H 0.70149 0.65403 0.11664
 H63 H 0.65486 0.69765 0.11796
 H64 H 0.62561 0.78988 0.02725
 H65 H 0.62150 0.78643 -0.03663
 H66 H 0.67055 0.63129 -0.12005
 H67 H 0.69147 0.69197 0.02108
 H68 H 0.62748 0.67870 -0.11750
 C69 C 0.65260 0.22980 0.97419
 C70 C 0.65260 0.22641 1.00743
 C71 C 0.65770 0.25781 1.02022
 N72 N 0.66110 0.28015 0.99606
 C73 C 0.65764 0.26317 0.96790
 C74 C 0.65596 0.26655 1.05347
 C75 C 0.67127 0.29565 1.06529
 C76 C 0.66578 0.30968 1.09566
 C77 C 0.68668 0.33632 1.09829
 C78 C 0.70450 0.33788 1.06945
 N79 N 0.69485 0.31301 1.04945
 C80 C 0.72978 0.36102 1.06252
 C81 C 0.74037 0.36656 1.02993
 C82 C 0.77007 0.38018 1.02039
 C83 C 0.76842 0.38544 0.98753
 C84 C 0.73857 0.37293 0.97754
 N85 N 0.72148 0.36143 1.00350
 C86 C 0.72597 0.37446 0.94562
 C87 C 0.70033 0.35356 0.93534
 C88 C 0.68300 0.35690 0.90668
 C89 C 0.66317 0.32934 0.90407
 C90 C 0.66911 0.30996 0.93113
 N91 N 0.69178 0.32487 0.94998
 C92 C 0.65545 0.27840 0.93709
 H93 H 0.64878 0.21008 0.95668
 H94 H 0.64890 0.20356 1.02066
 H95 H 0.70350 0.31423 0.96970
 H96 H 0.64843 0.30174 1.11403
 H97 H 0.68816 0.35282 1.11905
 H98 H 0.79086 0.38604 1.03545
 H99 H 0.78743 0.39688 0.97310
 H100 H 0.64669 0.32401 0.88425
 H101 H 0.70595 0.30641 1.02751
 H102 H 0.68496 0.37666 0.88906
 C103 C 0.21327 0.64589 1.02305
 C104 C 0.20963 0.64698 0.98990
 C105 C 0.24021 0.65378 0.97707
 N106 N 0.26251 0.65608 1.00108
 C107 C 0.24626 0.65041 1.02922
 C108 C 0.24831 0.65421 0.94373
 C109 C 0.27548 0.67233 0.93209
 C110 C 0.28803 0.67178 0.90064
 C111 C 0.31233 0.69559 0.89938
 C112 C 0.31350 0.71020 0.92995
 N113 N 0.29092 0.69602 0.94951
 C114 C 0.33308 0.73746 0.93906
 C115 C 0.33524 0.74737 0.97198
 C116 C 0.34335 0.77889 0.98276
 C117 C 0.34770 0.77663 1.01570
 C118 C 0.34186 0.74377 1.02396
 N119 N 0.33384 0.72602 0.99722
 C120 C 0.34799 0.72937 1.05461
 C121 C 0.33076 0.70010 1.06369
 C122 C 0.34005 0.67660 1.08633
 C123 C 0.31519 0.65345 1.08811
 C124 C 0.29185 0.66279 1.06576
 N125 N 0.30165 0.69098 1.05087
 C126 C 0.26211 0.64593 1.05947
 H127 H 0.19390 0.64149 1.04054
 H128 H 0.18707 0.64337 0.97685
 H129 H 0.28794 0.70465 1.03443
 H130 H 0.28013 0.65661 0.88040
 H131 H 0.32686 0.70183 0.87818
 H132 H 0.34651 0.80101 0.96826
 H133 H 0.35475 0.79679 1.03167
 H134 H 0.31505 0.63150 1.10313
 H135 H 0.28395 0.70455 0.97245
 H136 H 0.36289 0.67493 1.09912
 C137 C -0.02095 0.27100 0.41860
 C138 C 0.01240 0.27246 0.41892
 C139 C 0.02168 0.29521 0.39551
 N140 N -0.00505 0.30761 0.38087
 C141 C -0.03135 0.29222 0.39423
 C142 C 0.05418 0.30621 0.39036
 C143 C 0.06298 0.33150 0.36835
 C144 C 0.09275 0.34802 0.36815
 C145 C 0.09269 0.36881 0.34173
 C146 C 0.06298 0.36419 0.32639
 N147 N 0.04506 0.34138 0.34275
 C148 C 0.05444 0.37804 0.29620
 C149 C 0.02241 0.37594 0.28391
 C150 C 0.01333 0.38093 0.25189
 C151 C -0.02001 0.37875 0.25121
 C152 C -0.03042 0.37447 0.28309
 N153 N -0.00439 0.37200 0.30288
 C154 C -0.06315 0.37508 0.29445
 C155 C -0.07162 0.36065 0.32482
 C156 C -0.09989 0.36727 0.34227
 C157 C -0.10015 0.34667 0.36870
 C158 C -0.07185 0.32792 0.36708
 N159 N -0.05439 0.33699 0.34037
 C160 C -0.06438 0.30079 0.38766
 H161 H -0.03535 0.25761 0.43634
 H162 H 0.02786 0.25967 0.43593
 H163 H -0.03400 0.32485 0.33105
 H164 H 0.11269 0.34507 0.38497
 H165 H 0.11270 0.38464 0.33414
 H166 H 0.02864 0.38536 0.23089
 H167 H -0.03475 0.38033 0.22956
 H168 H -0.11917 0.34617 0.38701
 H169 H 0.02366 0.33027 0.33464
 H170 H -0.11853 0.38519 0.33674
 C171 C 0.01167 0.74549 0.59178
 C172 C 0.04303 0.73461 0.58952
 C173 C 0.04647 0.71009 0.61267
 N174 N 0.01791 0.70562 0.62893
 C175 C -0.00355 0.72748 0.61645
 C176 C 0.07518 0.69106 0.61653
 C177 C 0.07776 0.66413 0.63807
 C178 C 0.10193 0.64028 0.63675
 C179 C 0.09651 0.61926 0.66259
 C180 C 0.06958 0.63130 0.67926
 N181 N 0.05832 0.65859 0.66413
 C182 C 0.05651 0.61852 0.70852
 C183 C 0.02548 0.62769 0.71994
 C184 C 0.01465 0.62372 0.75166
 C185 C -0.01762 0.63188 0.75184
 C186 C -0.02563 0.63966 0.72001
 N187 N 0.00098 0.63782 0.70066
 C188 C -0.05759 0.64685 0.70929
 C189 C -0.06266 0.67245 0.68636
 C190 C -0.09028 0.69190 0.68491
 C191 C -0.08397 0.71615 0.66236
 C192 C -0.05307 0.71037 0.64937
 N193 N -0.04033 0.68366 0.66442
 C194 C -0.03709 0.73062 0.62549
 H195 H 0.00126 0.76382 0.57588
 H196 H 0.06080 0.74310 0.57181
 H197 H -0.01836 0.67243 0.65885
 H198 H 0.12131 0.63809 0.61889
 H199 H 0.11082 0.59767 0.66828
 H200 H 0.02857 0.61570 0.77244
 H201 H -0.03358 0.63172 0.77292
 H202 H -0.10008 0.73657 0.65743
 H203 H 0.04048 0.67446 0.67313
 H204 H -0.11187 0.69064 0.70009
 C205 C 0.99103 0.64675 0.23532
 C206 C 1.02419 0.64338 0.23688
 C207 C 1.03217 0.64257 0.26962
 N208 N 1.00506 0.64652 0.28806
 C209 C 0.97987 0.64906 0.26714
 C210 C 1.06364 0.63623 0.28224
 C211 C 1.07337 0.64944 0.31290
 C212 C 1.10229 0.64225 0.32875
 C213 C 1.10316 0.66138 0.35646
 C214 C 1.07442 0.67920 0.35751
 N215 N 1.05655 0.67206 0.33075
 C216 C 1.06605 0.70228 0.38221
 C217 C 1.03339 0.71100 0.38971
 C218 C 1.02387 0.73016 0.41620
 C219 C 0.99052 0.73072 0.41627
 C220 C 0.98046 0.71190 0.38985
 N221 N 1.00672 0.69940 0.37403
 C222 C 0.94742 0.70536 0.38196
 C223 C 0.93722 0.68617 0.35502
 C224 C 0.90522 0.67660 0.34926
 C225 C 0.90480 0.66122 0.31942
 C226 C 0.93666 0.66134 0.30781
 N227 N 0.95609 0.67702 0.32952
 C228 C 0.94676 0.65021 0.27664
 H229 H 0.97695 0.64760 0.21320
 H230 H 1.04057 0.64150 0.21621
 H231 H 0.97996 0.68448 0.32530
 H232 H 1.12107 0.62502 0.32148
 H233 H 1.12265 0.66151 0.37405
 H234 H 1.03906 0.74155 0.43456
 H235 H 0.97552 0.74295 0.43436
 H236 H 0.88307 0.65232 0.30740
 H237 H 1.03569 0.68443 0.32354
 H238 H 0.88405 0.68117 0.36444
 C239 C 1.01972 0.41357 0.70853
 C240 C 0.98628 0.41356 0.70975
 C241 C 0.97611 0.38185 0.70133
 N242 N 1.00225 0.36259 0.69478
 C243 C 1.02891 0.38192 0.69925
 C244 C 0.94337 0.37043 0.70175
 C245 C 0.93375 0.34032 0.68683
 C246 C 0.90414 0.32431 0.69192
 C247 C 0.90393 0.29675 0.67199
 C248 C 0.93332 0.29688 0.65513
 N249 N 0.95127 0.32353 0.66424
 C250 C 0.94221 0.27416 0.63046
 C251 C 0.97394 0.27244 0.61732
 C252 C 0.98141 0.25909 0.58714
 C253 C 1.01463 0.26066 0.58398
 C254 C 1.02653 0.27365 0.61295
 N255 N 1.00144 0.28143 0.63311
 C256 C 1.05994 0.27768 0.62110
 C257 C 1.06963 0.29981 0.64621
 C258 C 1.09984 0.29979 0.66129
 C259 C 1.10014 0.32597 0.68275
 C260 C 1.07011 0.34129 0.68038
 N261 N 1.05160 0.32517 0.65814
 C262 C 1.06143 0.37066 0.69701
 H263 H 1.03543 0.43453 0.71378
 H264 H 0.97123 0.43455 0.71612
 H265 H 1.02941 0.33322 0.64905
 H266 H 0.88469 0.33169 0.70828
 H267 H 0.88423 0.27891 0.66990
 H268 H 0.96454 0.24997 0.56899
 H269 H 1.02819 0.25355 0.56243
 H270 H 1.12028 0.33298 0.69826
 H271 H 0.97279 0.33155 0.65321
 H272 H 1.11966 0.28263 0.65743
 C273 C 0.24437 -0.00062 0.34977
 C274 C 0.24986 -0.03384 0.35357
 C275 C 0.28338 -0.03778 0.35514
 N276 N 0.29853 -0.00822 0.35107
 C277 C 0.27473 0.01455 0.34788
 C278 C 0.29982 -0.06765 0.36240
 C279 C 0.33242 -0.07263 0.35175
 C280 C 0.35306 -0.09707 0.36315
 C281 C 0.38162 -0.09444 0.34573
 C282 C 0.37781 -0.06855 0.32408
 N283 N 0.34792 -0.05507 0.32814
 C284 C 0.40166 -0.05820 0.30111
 C285 C 0.40351 -0.02504 0.28970
 C286 C 0.42465 -0.01384 0.26549
 C287 C 0.42011 0.01943 0.26284
 C288 C 0.39548 0.02779 0.28455
 N289 N 0.38567 0.00059 0.30134
 C290 C 0.38362 0.06042 0.28934
 C291 C 0.35645 0.06792 0.30929
 C292 C 0.34714 0.09958 0.31843
 C293 C 0.31781 0.09650 0.33468
 C294 C 0.31000 0.06297 0.33517
 N295 N 0.33361 0.04588 0.31939
 C296 C 0.28024 0.04910 0.34663
 H297 H 0.22067 0.01082 0.34833
 H298 H 0.23121 -0.05286 0.35524
 H299 H 0.33217 0.02116 0.31240
 H300 H 0.34844 -0.11472 0.38239
 H301 H 0.40303 -0.10953 0.34908
 H302 H 0.44170 -0.02775 0.25077
 H303 H 0.43373 0.03529 0.24651
 H304 H 0.30341 0.11694 0.34373
 H305 H 0.33764 -0.03701 0.31344
 H306 H 0.35963 0.12264 0.31307
 C307 C 0.58167 -0.01941 0.72769
 C308 C 0.58637 0.01417 0.72930
 C309 C 0.61795 0.02018 0.71862
 N310 N 0.63267 -0.00858 0.71026
 C311 C 0.61059 -0.03288 0.71620
 C312 C 0.63343 0.05158 0.71826
 C313 C 0.66123 0.05803 0.69889
 C314 C 0.68157 0.08543 0.70195
 C315 C 0.70421 0.08340 0.67712
 C316 C 0.69678 0.05501 0.65945
 N317 N 0.67051 0.03980 0.67285
 C318 C 0.71314 0.04453 0.63089
 C319 C 0.70843 0.01298 0.61677
 C320 C 0.71962 0.00382 0.58617
 C321 C 0.71263 -0.02923 0.58269
 C322 C 0.69774 -0.03924 0.61143
 N323 N 0.69505 -0.01336 0.63219
 C324 C 0.69052 -0.07248 0.61956
 C325 C 0.67185 -0.08153 0.64707
 C326 C 0.67070 -0.11308 0.66018
 C327 C 0.65019 -0.11162 0.68671
 C328 C 0.63904 -0.07924 0.68889
 N329 N 0.65226 -0.06114 0.66445
 C330 C 0.61670 -0.06724 0.71251
 H331 H 0.55935 -0.03243 0.73392
 H332 H 0.56839 0.03207 0.73708
 H333 H 0.64625 -0.03693 0.65844
 H334 H 0.68019 0.10487 0.72012
 H335 H 0.72367 0.10102 0.67246
 H336 H 0.73186 0.01927 0.56836
 H337 H 0.71859 -0.04436 0.56169
 H338 H 0.64461 -0.13212 0.70272
 H339 H 0.65738 0.02014 0.66289
 H340 H 0.68372 -0.13478 0.65185
 C341 C 0.36093 0.99943 0.77131
 C342 C 0.36352 1.03311 0.76747
 C343 C 0.35915 1.03942 0.73462
 N344 N 0.35306 1.01084 0.71845
 C345 C 0.35465 0.98635 0.74078
 C346 C 0.36278 1.07068 0.71928
 C347 C 0.34434 1.07837 0.69134
 C348 C 0.35034 1.10467 0.67045
 C349 C 0.32602 1.10414 0.64760
 C350 C 0.30570 1.07755 0.65508
 N351 N 0.31716 1.06193 0.68173
 C352 C 0.27693 1.06864 0.63810
 C353 C 0.26226 1.03705 0.64276
 C354 C 0.22975 1.02908 0.63749
 C355 C 0.22681 0.99547 0.64129
 C356 C 0.25733 0.98415 0.64998
 N357 N 0.27894 1.00958 0.65096
 C358 C 0.26588 0.95059 0.65341
 C359 C 0.29383 0.94075 0.67068
 C360 C 0.30644 0.90897 0.67177
 C361 C 0.33116 0.90953 0.69432
 C362 C 0.33262 0.94152 0.70673
 N363 N 0.30989 0.96029 0.69209
 C364 C 0.35196 0.95225 0.73314
 H365 H 0.36300 0.98616 0.79401
 H366 H 0.36810 1.05094 0.78667
 H367 H 0.30292 0.98398 0.69926
 H368 H 0.37036 1.12224 0.67118
 H369 H 0.32399 1.12122 0.62751
 H370 H 0.21016 1.04568 0.63130
 H371 H 0.20467 0.98115 0.63811
 H372 H 0.34567 0.88849 0.70133
 H373 H 0.30554 1.04288 0.69442
 H374 H 0.29819 0.88727 0.65859
 C375 C 0.59660 1.00249 0.25114
 C376 C 0.60044 0.96886 0.24965
 C377 C 0.62786 0.96148 0.26777
 N378 N 0.64154 0.98989 0.27910
 C379 C 0.62248 1.01500 0.26899
 C380 C 0.64112 0.92935 0.27198
 C381 C 0.66789 0.92330 0.29262
 C382 C 0.68589 0.89430 0.29297
 C383 C 0.70696 0.89673 0.31879
 C384 C 0.70115 0.92703 0.33366
 N385 N 0.67746 0.94310 0.31750
 C386 C 0.71500 0.93766 0.36332
 C387 C 0.71218 0.97060 0.37469
 C388 C 0.71569 0.98054 0.40678
 C389 C 0.71282 1.01433 0.40716
 C390 C 0.70812 1.02402 0.37519
 N391 N 0.70727 0.99715 0.35541
 C392 C 0.70527 1.05719 0.36435
 C393 C 0.68778 1.06467 0.33564
 C394 C 0.68815 1.09509 0.31995
 C395 C 0.66651 1.09274 0.29469
 C396 C 0.65375 1.06087 0.29522
 N397 N 0.66681 1.04387 0.32020
 C398 C 0.62928 1.04913 0.27397
 H399 H 0.57704 1.01601 0.23986
 H400 H 0.58479 0.95223 0.23616
 H401 H 0.65917 1.02070 0.32833
 H402 H 0.68363 0.87315 0.27687
 H403 H 0.72398 0.87791 0.32627
 H404 H 0.71929 0.96502 0.42784
 H405 H 0.71351 1.02988 0.42865
 H406 H 0.66091 1.11231 0.27773
 H407 H 0.66556 0.96420 0.32579
 H408 H 0.70248 1.11686 0.32591
 O409 O 0.83507 0.87574 0.53891
 O410 O 0.88363 0.83897 0.47362
 O411 O 0.84018 0.88522 0.47651
 O412 O 0.87437 0.82574 0.53486
 O413 O 0.83327 0.79143 0.52550
 O414 O 0.80098 0.84925 0.46533
 O415 O 0.84465 0.80211 0.46437
 O416 O 0.79398 0.84186 0.52807
 Cu417 Cu 0.86228 0.85993 0.50705
 Cu418 Cu 0.81412 0.81771 0.49468
 C419 C 0.80633 0.86556 0.54450
 C420 C 0.87287 0.81399 0.45830
 C421 C 0.81473 0.87713 0.46081
 C422 C 0.85953 0.79844 0.54011
 O423 O 0.17049 0.10899 0.50630
 O424 O 0.12977 0.15970 0.44588
 O425 O 0.18214 0.12591 0.44802
 O426 O 0.12207 0.15303 0.51006
 O427 O 0.15518 0.19360 0.52496
 O428 O 0.21439 0.16715 0.46317
 O429 O 0.15870 0.20330 0.46125
 O430 O 0.20109 0.15140 0.52185
 Cu431 Cu 0.14746 0.13337 0.47700
 Cu432 Cu 0.18493 0.18346 0.49313
 C433 C 0.19284 0.12097 0.52402
 C434 C 0.13666 0.19019 0.44355
 C435 C 0.20902 0.14176 0.44569
 C436 C 0.12841 0.17801 0.52803
 O437 O 0.18049 0.87807 0.47995
 O438 O 0.14399 0.82518 0.54222
 O439 O 0.19088 0.86748 0.54090
 O440 O 0.13488 0.83280 0.47982
 O441 O 0.17015 0.79317 0.46872
 O442 O 0.22691 0.82882 0.52877
 O443 O 0.17915 0.78538 0.53114
 O444 O 0.21618 0.83921 0.46747
 Cu445 Cu 0.15887 0.85468 0.51170
 Cu446 Cu 0.20159 0.80761 0.49771
 C447 C 0.20482 0.86820 0.46355
 C448 C 0.15537 0.79670 0.54776
 C449 C 0.21851 0.85415 0.54511
 C450 C 0.14283 0.80690 0.46409
 O451 O 0.84843 0.18515 0.54035
 O452 O 0.81916 0.12387 0.48089
 O453 O 0.86420 0.16959 0.48102
 O454 O 0.80392 0.13901 0.54039
 O455 O 0.76781 0.17495 0.52280
 O456 O 0.82870 0.20628 0.46363
 O457 O 0.78324 0.15981 0.46288
 O458 O 0.81263 0.22149 0.52294
 Cu459 Cu 0.83747 0.15081 0.51244
 Cu460 Cu 0.79445 0.19421 0.49117
 C461 C 0.83585 0.21382 0.54167
 C462 C 0.79605 0.13121 0.46195
 C463 C 0.85697 0.19353 0.46261
 C464 C 0.77557 0.15145 0.54162
 O465 O 0.46569 0.90072 0.85629
 O466 O 0.52050 0.84598 0.90099
 O467 O 0.52787 0.89261 0.85773
 O468 O 0.45865 0.85388 0.89995
 O469 O 0.45487 0.81587 0.86126
 O470 O 0.52317 0.85618 0.81774
 O471 O 0.51814 0.80890 0.86135
 O472 O 0.46014 0.86290 0.81766
 Cu473 Cu 0.49350 0.87705 0.88261
 Cu474 Cu 0.48870 0.83217 0.83552
 C475 C 0.45380 0.89141 0.82930
 C476 C 0.52847 0.81811 0.88910
 C477 C 0.53681 0.88155 0.83020
 C478 C 0.44559 0.82787 0.88837
 O479 O 0.52930 0.14763 0.09444
 O480 O 0.46876 0.10551 0.14628
 O481 O 0.46691 0.14936 0.10136
 O482 O 0.53210 0.10141 0.13881
 O483 O 0.53715 0.13928 0.17743
 O484 O 0.47356 0.18912 0.13790
 O485 O 0.47378 0.14467 0.18366
 O486 O 0.53698 0.18542 0.13271
 Cu487 Cu 0.49892 0.12193 0.11660
 Cu488 Cu 0.50612 0.16850 0.16177
 C489 C 0.54326 0.17382 0.10457
 C490 C 0.46032 0.11822 0.17333
 C491 C 0.45923 0.17738 0.11299
 C492 C 0.54549 0.11185 0.16464
 O493 O 0.53383 0.11731 0.84936
 O494 O 0.46845 0.17546 0.87364
 O495 O 0.47325 0.11832 0.84031
 O496 O 0.52972 0.16498 0.89038
 O497 O 0.54225 0.19780 0.84915
 O498 O 0.48160 0.15216 0.79886
 O499 O 0.48211 0.20806 0.83272
 O500 O 0.54432 0.14905 0.80690
 Cu501 Cu 0.49936 0.14180 0.86750
 Cu502 Cu 0.51366 0.18002 0.81773
 C503 C 0.54979 0.12319 0.82331
 C504 C 0.46508 0.20227 0.85782
 C505 C 0.46806 0.12650 0.81117
 C506 C 0.54572 0.18909 0.87872
 O507 O 0.45125 0.80290 0.14885
 O508 O 0.51442 0.85842 0.18080
 O509 O 0.51019 0.81807 0.13029
 O510 O 0.45739 0.84180 0.19873
 O511 O 0.47540 0.80005 0.22814
 O512 O 0.53066 0.77793 0.16003
 O513 O 0.53375 0.81802 0.21104
 O514 O 0.47032 0.76144 0.17771
 Cu515 Cu 0.48154 0.83421 0.16143
 Cu516 Cu 0.50478 0.78501 0.19680
 C517 C 0.44956 0.77294 0.15798
 C518 C 0.53376 0.84828 0.20245
 C519 C 0.52952 0.79396 0.13351
 C520 C 0.45771 0.82551 0.22510
 O521 O 0.89506 0.53769 0.83227
 O522 O 0.85345 0.47564 0.88234
 O523 O 0.89633 0.47471 0.83680
 O524 O 0.85153 0.54072 0.87887
 O525 O 0.81162 0.53738 0.84322
 O526 O 0.85778 0.47151 0.79960
 O527 O 0.81381 0.47220 0.84636
 O528 O 0.85551 0.53593 0.79606
 Cu529 Cu 0.87770 0.50787 0.86149
 Cu530 Cu 0.83052 0.50400 0.81779
 C531 C 0.88311 0.54672 0.80540
 C532 C 0.82704 0.46268 0.87258
 C533 C 0.88507 0.46214 0.81085
 C534 C 0.82417 0.55040 0.86847
 O535 O 0.10085 0.51910 0.15500
 O536 O 0.14982 0.46050 0.10754
 O537 O 0.10866 0.45505 0.15449
 O538 O 0.14432 0.52373 0.10787
 O539 O 0.18424 0.52886 0.14340
 O540 O 0.14725 0.46099 0.19135
 O541 O 0.18957 0.46497 0.14336
 O542 O 0.14066 0.52538 0.19045
 Cu543 Cu 0.12176 0.48943 0.12779
 Cu544 Cu 0.16934 0.49560 0.17090
 C545 C 0.11210 0.53210 0.18076
 C546 C 0.17803 0.45285 0.11718
 C547 C 0.12190 0.44627 0.18083
 C548 C 0.17081 0.53720 0.11695
 O549 O 0.87590 0.49042 0.17537
 O550 O 0.81525 0.54843 0.14391
 O551 O 0.85966 0.55055 0.18860
 O552 O 0.83203 0.48901 0.12900
 O553 O 0.79583 0.46954 0.16421
 O554 O 0.82396 0.53138 0.22444
 O555 O 0.77879 0.52937 0.17904
 O556 O 0.83967 0.47104 0.21058
 Cu557 Cu 0.84936 0.52139 0.15566
 Cu558 Cu 0.80589 0.49842 0.19815
 C559 C 0.86841 0.47146 0.19885
 C560 C 0.78652 0.54839 0.15566
 C561 C 0.84706 0.55107 0.21687
 C562 C 0.80873 0.46946 0.13600
 O563 O 0.12296 0.47272 0.82735
 O564 O 0.17781 0.53483 0.86281
 O565 O 0.14001 0.53271 0.81261
 O566 O 0.16439 0.47309 0.87518
 O567 O 0.20274 0.45447 0.84203
 O568 O 0.18158 0.51775 0.78154
 O569 O 0.21858 0.51651 0.83250
 O570 O 0.16167 0.45736 0.79296
 Cu571 Cu 0.14732 0.50496 0.84772
 Cu572 Cu 0.19515 0.48455 0.80911
 C573 C 0.13248 0.45517 0.80355
 C574 C 0.20748 0.53626 0.85400
 C575 C 0.15679 0.53566 0.78662
 C576 C 0.18783 0.45356 0.86920
 C577 C 0.27843 0.39770 0.08074
 C578 C 0.24651 0.40329 0.07817
 C579 C 0.22868 0.42401 0.10167
 C580 C 0.19714 0.43009 0.09686
 H581 H 0.23328 0.39260 0.05786
 H582 H 0.24144 0.43519 0.12200
 H583 H 0.29163 0.40689 0.10172
 H584 H 0.18502 0.41914 0.07600
 C585 C 0.75167 0.63015 0.07636
 C586 C 0.74333 0.60731 0.09835
 C587 C 0.76874 0.59074 0.11728
 C588 C 0.76136 0.56926 0.14088
 H589 H 0.71811 0.59950 0.10095
 H590 H 0.79404 0.59503 0.11059
 H591 H 0.77720 0.63650 0.07298
 H592 H 0.73615 0.56541 0.14807
 C593 C 0.73828 0.39998 0.92264
 C594 C 0.76896 0.40028 0.91172
 C595 C 0.78129 0.42714 0.89080
 C596 C 0.81274 0.43568 0.89194
 H597 H 0.78571 0.38127 0.91951
 H598 H 0.76451 0.44097 0.87588
 H599 H 0.72138 0.41856 0.91423
 H600 H 0.82864 0.42309 0.90879
 C601 C 0.22776 0.63453 0.92121
 C602 C 0.23970 0.60858 0.90480
 C603 C 0.21785 0.58588 0.88709
 C604 C 0.22944 0.56072 0.86925
 H605 H 0.26550 0.60306 0.90594
 H606 H 0.19174 0.58933 0.88942
 H607 H 0.20174 0.63899 0.92111
 H608 H 0.25551 0.55783 0.86603
 C609 C 0.08054 0.29093 0.40961
 C610 C 0.08923 0.25961 0.40393
 C611 C 0.11349 0.24263 0.42405
 C612 C 0.11772 0.21002 0.42061
 H613 H 0.07689 0.24574 0.38492
 H614 H 0.12597 0.25616 0.44317
 H615 H 0.09281 0.30556 0.42806
 H616 H 0.10383 0.19665 0.40235
 C617 C 0.10402 0.69990 0.59624
 C618 C 0.11851 0.72926 0.60075
 C619 C 0.13941 0.74473 0.57575
 C620 C 0.14035 0.77776 0.57435
 H621 H 0.11068 0.74440 0.62123
 H622 H 0.15078 0.72980 0.55692
 H623 H 0.11058 0.68427 0.57576
 H624 H 0.12663 0.79197 0.59217
 C625 C 0.92155 0.71953 0.40302
 C626 C 0.91714 0.75218 0.40456
 C627 C 0.89232 0.76678 0.42604
 C628 C 0.89410 0.79885 0.43369
 H629 H 0.93322 0.76844 0.39079
 H630 H 0.87402 0.75098 0.43732
 H631 H 0.90541 0.70290 0.41622
 H632 H 0.91381 0.81389 0.42386
 C633 C 0.91850 0.24927 0.61835
 C634 C 0.89120 0.25739 0.60286
 C635 C 0.87327 0.23162 0.58468
 C636 C 0.84919 0.23893 0.56422
 H637 H 0.88400 0.28311 0.60117
 H638 H 0.88171 0.20627 0.58624
 H639 H 0.92643 0.22368 0.61791
 H640 H 0.84061 0.26419 0.56248
 C641 C 0.40087 0.08813 0.27261
 C642 C 0.40169 0.08957 0.24012
 C643 C 0.42577 0.11011 0.22250
 C644 C 0.43442 0.10154 0.19218
 H645 H 0.38729 0.07180 0.22636
 H646 H 0.43806 0.13033 0.23492
 H647 H 0.41510 0.10540 0.28703
 H648 H 0.42270 0.08031 0.18082
 C649 C 0.61913 0.07958 0.73697
 C650 C 0.60815 0.07647 0.76755
 C651 C 0.58946 0.10333 0.78295
 C652 C 0.57371 0.09892 0.81125
 H653 H 0.61090 0.05320 0.78027
 H654 H 0.58638 0.12616 0.76955
 H655 H 0.61734 0.10333 0.72489
 H656 H 0.57648 0.07595 0.82448
 C657 C 0.36854 0.92676 0.75343
 C658 C 0.39697 0.93232 0.76841
 C659 C 0.41336 0.90647 0.78745
 C660 C 0.43405 0.91520 0.81101
 H661 H 0.40881 0.95630 0.76657
 H662 H 0.40855 0.88056 0.78225
 H663 H 0.35764 0.90230 0.75520
 H664 H 0.43693 0.94121 0.81716
 C665 C 0.62713 0.90063 0.25371
 C666 C 0.59562 0.89238 0.25624
 C667 C 0.58073 0.86611 0.23622
 C668 C 0.55398 0.87309 0.21932
 H669 H 0.57964 0.90698 0.27166
 H670 H 0.59122 0.84156 0.23561
 H671 H 0.64305 0.88591 0.23837
 H672 H 0.54556 0.89850 0.21871
 C673 C 0.37413 0.24851 0.92125
 C674 C 0.40403 0.25038 0.90834
 C675 C 0.41848 0.22273 0.89003
 C676 C 0.44350 0.22847 0.86995
 H677 H 0.41901 0.27219 0.91280
 H678 H 0.41050 0.19760 0.89506
 H679 H 0.35766 0.22936 0.91258
 H680 H 0.44998 0.25380 0.86386
 C681 C 0.61408 0.73765 0.91361
 C682 C 0.58518 0.75116 0.92088
 C683 C 0.56692 0.77160 0.89768
 C684 C 0.54849 0.79624 0.90926
 H685 H 0.57551 0.74894 0.94539
 H686 H 0.56941 0.76746 0.87172
 H687 H 0.62329 0.73917 0.88888
 H688 H 0.54845 0.80125 0.93521
 C689 C 0.37299 0.74457 0.07334
 C690 C 0.37976 0.74033 0.10494
 C691 C 0.40610 0.76063 0.11931
 C692 C 0.42315 0.75147 0.14536
 H693 H 0.36560 0.72432 0.12060
 H694 H 0.41257 0.78357 0.10712
 H695 H 0.38834 0.76250 0.06083
 H696 H 0.41829 0.72782 0.15683
 C697 C 0.63670 0.24578 0.07680
 C698 C 0.60848 0.23114 0.06873
 C699 C 0.58849 0.21282 0.09264
 C700 C 0.56591 0.19118 0.08246
 H701 H 0.59934 0.23320 0.04416
 H702 H 0.59212 0.21707 0.11842
 H703 H 0.64487 0.24424 0.10176
 H704 H 0.56390 0.18581 0.05667
 C705 C 0.26334 0.09202 0.61638
 C706 C 0.24564 0.08357 0.59027
 C707 C 0.23074 0.10840 0.56892
 C708 C 0.20926 0.09849 0.54654
 H709 H 0.24238 0.05775 0.58374
 H710 H 0.23666 0.13444 0.57190
 H711 H 0.26884 0.11809 0.61983
 H712 H 0.20299 0.07239 0.54473
 C713 C 0.71893 0.08385 0.38249
 C714 C 0.74562 0.08123 0.40098
 C715 C 0.75790 0.10928 0.42061
 C716 C 0.78407 0.10548 0.43942
 H717 H 0.75909 0.05825 0.40149
 H718 H 0.74487 0.13256 0.42064
 H719 H 0.70845 0.10829 0.38012
 H720 H 0.79656 0.08189 0.43942
 C721 C 0.70630 0.90095 0.60019
 C722 C 0.73874 0.90007 0.59783
 C723 C 0.75579 0.87797 0.57502
 C724 C 0.78768 0.88251 0.57005
 H725 H 0.75299 0.91810 0.61143
 H726 H 0.74218 0.86001 0.56079
 H727 H 0.69132 0.88269 0.58783
 H728 H 0.80055 0.90129 0.58402
 C729 C 0.28438 0.90683 0.38079
 C730 C 0.26065 0.91223 0.40275
 C731 C 0.24586 0.88531 0.42214
 C732 C 0.21991 0.89187 0.44082
 H733 H 0.25281 0.93722 0.40813
 H734 H 0.25632 0.86073 0.42162
 H735 H 0.29350 0.88178 0.37880
 H736 H 0.20962 0.91656 0.44040
 C737 C 0.08805 0.39022 0.71252
 C738 C 0.08624 0.40034 0.74347
 C739 C 0.11273 0.41973 0.75859
 C740 C 0.10862 0.43275 0.78825
 H741 H 0.06459 0.39463 0.75773
 H742 H 0.13494 0.42461 0.74494
 H743 H 0.11023 0.39468 0.69867
 H744 H 0.08576 0.42864 0.80108
 C745 C 0.08618 0.61657 0.26423
 C746 C 0.07716 0.59296 0.24291
 C747 C 0.10095 0.57287 0.22460
 C748 C 0.09080 0.55432 0.19956
 H749 H 0.05162 0.58717 0.23936
 H750 H 0.12643 0.57329 0.23141
 H751 H 0.11200 0.61910 0.26892
 H752 H 0.06540 0.55527 0.19245
 C753 C 0.91167 0.39045 0.27643
 C754 C 0.91625 0.41519 0.25513
 C755 C 0.88871 0.43070 0.23830
 C756 C 0.89420 0.45133 0.21347
 H757 H 0.94014 0.42600 0.25127
 H758 H 0.86405 0.42604 0.24686
 H759 H 0.88664 0.38324 0.28144
 H760 H 0.91893 0.45512 0.20468
 C761 C 0.91529 0.63081 0.72453
 C762 C 0.91814 0.60091 0.73844
 C763 C 0.89307 0.58528 0.75913
 C764 C 0.90349 0.56786 0.78457
 H765 H 0.94086 0.58750 0.73632
 H766 H 0.86738 0.58762 0.75376
 H767 H 0.89126 0.64160 0.72390
 H768 H 0.92932 0.56822 0.79020
 C769 C 0.72942 0.61346 0.90889
 C770 C 0.76178 0.61015 0.90508
 C771 C 0.77646 0.58568 0.88258
 C772 C 0.80764 0.57709 0.88665
 H773 H 0.77810 0.62443 0.92044
 H774 H 0.76148 0.57309 0.86470
 H775 H 0.71404 0.60228 0.89056
 H776 H 0.82161 0.58908 0.90574
 C777 C 0.26253 0.37191 0.91491
 C778 C 0.23661 0.39167 0.91856
 C779 C 0.22302 0.40963 0.89068
 C780 C 0.19834 0.43073 0.89487
 H781 H 0.22578 0.39557 0.94237
 H782 H 0.23482 0.40740 0.86709
 H783 H 0.26976 0.36544 0.89026
 H784 H 0.18671 0.43284 0.91855
 C785 C 0.24927 0.62423 0.08357
 C786 C 0.22867 0.59913 0.07701
 C787 C 0.21338 0.57854 0.10240
 C788 C 0.18633 0.56143 0.09515
 H789 H 0.22285 0.59276 0.05213
 H790 H 0.22405 0.57724 0.12641
 H791 H 0.25723 0.62721 0.10852
 H792 H 0.17553 0.56430 0.07131
 C793 C 0.74381 0.37845 0.08915
 C794 C 0.75806 0.40833 0.08687
 C795 C 0.77298 0.42493 0.11503
 C796 C 0.79568 0.44825 0.11004
 H797 H 0.75807 0.42186 0.06422
 H798 H 0.76521 0.41849 0.13947
 H799 H 0.74176 0.36786 0.11327
 H800 H 0.80408 0.45316 0.08543
 C801 C 0.94548 0.75628 0.61013
 C802 C 0.91554 0.75246 0.59786
 C803 C 0.90105 0.77887 0.57816
 C804 C 0.87292 0.77398 0.56270
 H805 H 0.90279 0.72894 0.59993
 H806 H 0.91426 0.80202 0.57513
 H807 H 0.95828 0.77909 0.60432
 H808 H 0.85989 0.75071 0.56566
 C809 C 0.90909 0.28421 0.40316
 C810 C 0.90824 0.25175 0.40998
 C811 C 0.88039 0.23716 0.42785
 C812 C 0.88232 0.20690 0.44070
 H813 H 0.92789 0.23564 0.40238
 H814 H 0.85905 0.25220 0.43256
 H815 H 0.88668 0.29743 0.40756
 H816 H 0.90438 0.19261 0.43731
 C817 C 0.08491 0.26079 0.60378
 C818 C 0.08156 0.23101 0.58946
 C819 C 0.10800 0.21733 0.56911
 C820 C 0.10386 0.18943 0.55185
 H821 H 0.05937 0.21662 0.59239
 H822 H 0.13050 0.23139 0.56672
 H823 H 0.10895 0.27212 0.60297
 H824 H 0.08114 0.17569 0.55381
 C825 C 0.09278 0.71582 0.40282
 C826 C 0.09695 0.74847 0.40702
 C827 C 0.12187 0.76186 0.42919
 C828 C 0.11974 0.79296 0.44036
 H829 H 0.08063 0.76552 0.39509
 H830 H 0.14108 0.74578 0.43763
 H831 H 0.10931 0.69883 0.41447
 H832 H 0.09942 0.80823 0.43309
 C833 C 0.59969 0.90951 0.73207
 C834 C 0.59061 0.91594 0.76281
 C835 C 0.57035 0.89264 0.78159
 C836 C 0.56212 0.89988 0.81227
 H837 H 0.59779 0.93905 0.77436
 H838 H 0.56029 0.87091 0.76963
 H839 H 0.59534 0.88474 0.72271
 H840 H 0.57224 0.92185 0.82379
 C841 C 0.42534 0.91932 0.28935
 C842 C 0.41977 0.88708 0.28335
 C843 C 0.44228 0.86962 0.26128
 C844 C 0.43851 0.83794 0.25269
 H845 H 0.39696 0.87521 0.29006
 H846 H 0.46135 0.88403 0.24936
 H847 H 0.44827 0.92925 0.28047
 H848 H 0.42095 0.82200 0.26481
 C849 C 0.60961 0.07449 0.25693
 C850 C 0.60438 0.07362 0.22490
 C851 C 0.58199 0.09712 0.20957
 C852 C 0.57063 0.09125 0.17971
 H853 H 0.61524 0.05418 0.21020
 H854 H 0.57316 0.11812 0.22353
 H855 H 0.59968 0.09466 0.27133
 H856 H 0.57870 0.06947 0.16648
 C857 C 0.38454 0.09503 0.73178
 C858 C 0.41071 0.08759 0.74954
 C859 C 0.43103 0.11296 0.76548
 C860 C 0.44736 0.10424 0.79198
 H861 H 0.41724 0.06197 0.75344
 H862 H 0.43142 0.13831 0.75690
 H863 H 0.38070 0.12087 0.72600
 H864 H 0.44452 0.07921 0.80117
 C865 C 0.62709 0.74665 0.08215
 C866 C 0.59585 0.75563 0.08004
 C867 C 0.57796 0.76812 0.10876
 C868 C 0.54976 0.78402 0.10546
 H869 H 0.58270 0.75203 0.05751
 H870 H 0.58764 0.76371 0.13283
 H871 H 0.63943 0.75023 0.10514
 H872 H 0.54118 0.79011 0.08133
 C873 C 0.40035 0.27778 0.08290
 C874 C 0.40328 0.24486 0.08251
 C875 C 0.42652 0.22746 0.10329
 C876 C 0.43357 0.19592 0.09655
 H877 H 0.38998 0.23063 0.06441
 H878 H 0.43937 0.24081 0.12227
 H879 H 0.41245 0.29253 0.10137
 H880 H 0.42112 0.18343 0.07673
 C881 C 0.63689 0.26177 0.91059
 C882 C 0.60828 0.24702 0.91662
 C883 C 0.58958 0.22943 0.89147
 C884 C 0.56722 0.20729 0.90090
 H885 H 0.59853 0.24719 0.94122
 H886 H 0.59423 0.23408 0.86590
 H887 H 0.64618 0.26284 0.88586
 H888 H 0.56431 0.20205 0.92664
 C889 C 0.35242 0.75538 0.91373
 C890 C 0.38204 0.76761 0.92027
 C891 C 0.40130 0.78700 0.89688
 C892 C 0.42117 0.81059 0.90829
 H893 H 0.39244 0.76415 0.94418
 H894 H 0.39982 0.78168 0.87107
 H895 H 0.34257 0.75804 0.88950
 H896 H 0.42055 0.81667 0.93403
 C897 C 0.73134 0.91256 0.38384
 C898 C 0.75958 0.91864 0.39890
 C899 C 0.77404 0.89387 0.42053
 C900 C 0.80102 0.90072 0.43746
 H901 H 0.77168 0.94240 0.39587
 H902 H 0.76188 0.87011 0.42337
 H903 H 0.72012 0.88825 0.38593
 H904 H 0.81297 0.92459 0.43467
 C905 C 0.24454 0.92557 0.63771
 C906 C 0.25489 0.90752 0.61242
 C907 C 0.23150 0.88917 0.59212
 C908 C 0.24152 0.86875 0.56850
 H909 H 0.28035 0.90839 0.60517
 H910 H 0.20565 0.89357 0.59563
 H911 H 0.21884 0.92542 0.64400
 H912 H 0.26721 0.86318 0.56580
 C913 C 0.25369 0.07083 0.35892
 C914 C 0.25807 0.09090 0.38449
 C915 C 0.23026 0.10652 0.40131
 C916 C 0.23519 0.12975 0.42405
 H917 H 0.28224 0.09397 0.39466
 H918 H 0.20577 0.09772 0.39628
 H919 H 0.22926 0.06709 0.34970
 H920 H 0.25963 0.13923 0.42807
 C921 C 0.73872 0.06583 0.61615
 C922 C 0.73226 0.09508 0.60268
 C923 C 0.75767 0.11198 0.58333
 C924 C 0.75102 0.13787 0.56438
 H925 H 0.70784 0.10514 0.60404
 H926 H 0.78199 0.10160 0.58306
 H927 H 0.76268 0.05507 0.61283
 H928 H 0.72665 0.14807 0.56423
 C929 C 0.92225 0.63802 0.25293
 C930 C 0.90252 0.61248 0.25982
 C931 C 0.88306 0.59632 0.23437
 C932 C 0.86084 0.57315 0.24183
 H933 H 0.90251 0.60180 0.28398
 H934 H 0.88866 0.60177 0.20912
 H935 H 0.92295 0.64759 0.22835
 H936 H 0.85462 0.56847 0.26708
 C937 C 0.91789 0.39057 0.71851
 C938 C 0.92194 0.40197 0.74884
 C939 C 0.89825 0.42427 0.76479
 C940 C 0.90498 0.43695 0.79412
 H941 H 0.94399 0.39567 0.76177
 H942 H 0.87638 0.43150 0.75207
 H943 H 0.89529 0.39532 0.70589
 H944 H 0.92731 0.42970 0.80606
 C945 C 0.07301 0.59226 0.72729
 C946 C 0.10454 0.59237 0.73503
 C947 C 0.11588 0.56834 0.75915
 C948 C 0.14707 0.55984 0.76193
 H949 H 0.12120 0.61083 0.72532
 H950 H 0.09781 0.55665 0.77483
 H951 H 0.05734 0.57351 0.73819
 H952 H 0.16517 0.56947 0.74507
 C953 C 0.07900 0.39884 0.27909
 C954 C 0.08982 0.39197 0.24917
 C955 C 0.10978 0.41630 0.23134
 C956 C 0.10693 0.41891 0.19915
 H957 H 0.08160 0.36969 0.23679
 H958 H 0.12403 0.43439 0.24481
 H959 H 0.08765 0.42095 0.29146
 H960 H 0.09050 0.40237 0.18626
   
