data_POSCAR
  _audit_creation_date              2014-09-24
  _audit_creation_method            'ToBaCCo'
  _symmetry_space_group_name_H-M    'P1'
  _symmetry_Int_Tables_number       1
  _symmetry_cell_setting            triclinic
  loop_
  _symmetry_equiv_pos_as_xyz
 x,y,z
_cell_length_a 26.5820
_cell_length_b 26.5820
_cell_length_c 26.5820
_cell_angle_alpha 90.000000
_cell_angle_beta 89.999000
_cell_angle_gamma 89.999500
loop_
  _atom_site_label
  _atom_site_type_symbol
  _atom_site_fract_x
  _atom_site_fract_y
  _atom_site_fract_z
O1 O 0.56864 0.50015 0.04133
 O2 O 0.42990 0.50015 0.04133
 O3 O 0.49928 0.43094 0.04130
 O4 O 0.49928 0.56932 0.04130
 O5 O 0.49928 0.56931 -0.04191
 O6 O 0.49928 0.43095 -0.04191
 O7 O 0.42989 0.50015 -0.04185
 O8 O 0.56865 0.50015 -0.04186
 Cu9 Cu 0.49927 0.50013 0.04971
 Cu10 Cu 0.49927 0.50013 -0.05028
 C11 C 0.59207 0.50016 -0.00026
 C12 C 0.40645 0.50016 -0.00026
 C13 C 0.49929 0.40760 -0.00031
 C14 C 0.49929 0.59266 -0.00031
 O15 O -0.04140 0.57010 0.50014
 O16 O -0.04139 0.43136 0.50014
 O17 O -0.04136 0.50072 0.56932
 O18 O -0.04136 0.50072 0.43093
 O19 O 0.04184 0.50073 0.43094
 O20 O 0.04184 0.50073 0.56931
 O21 O 0.04180 0.43136 0.50014
 O22 O 0.04178 0.57012 0.50013
 Cu23 Cu -0.04978 0.50073 0.50012
 Cu24 Cu 0.05021 0.50074 0.50012
 C25 C 0.00018 0.59355 0.50015
 C26 C 0.00020 0.40793 0.50015
 C27 C 0.00024 0.50072 0.59265
 C28 C 0.00025 0.50071 0.40759
 O29 O 0.49989 0.04134 0.57010
 O30 O 0.49990 0.04135 0.43136
 O31 O 0.43072 0.04131 0.50072
 O32 O 0.56910 0.04131 0.50072
 O33 O 0.56909 -0.04190 0.50072
 O34 O 0.43073 -0.04190 0.50072
 O35 O 0.49990 -0.04184 0.43135
 O36 O 0.49989 -0.04184 0.57011
 Cu37 Cu 0.49991 0.04972 0.50073
 Cu38 Cu 0.49991 -0.05027 0.50073
 C39 C 0.49988 -0.00025 0.59354
 C40 C 0.49988 -0.00024 0.40793
 C41 C 0.40738 -0.00030 0.50071
 C42 C 0.59244 -0.00030 0.50071
 O43 O 0.45811 0.00011 -0.07008
 O44 O 0.45811 0.00011 0.06864
 O45 O 0.45803 0.06928 -0.00070
 O46 O 0.45802 -0.06903 -0.00070
 O47 O 0.54100 -0.06905 -0.00070
 O48 O 0.54100 0.06930 -0.00070
 O49 O 0.54108 0.00011 0.06863
 O50 O 0.54108 0.00011 -0.07006
 Cu51 Cu 0.44975 0.00012 -0.00072
 Cu52 Cu 0.54935 0.00012 -0.00072
 C53 C 0.49960 0.00009 -0.09385
 C54 C 0.49960 0.00009 0.09241
 C55 C 0.49950 0.09300 -0.00069
 C56 C 0.49950 -0.09275 -0.00069
 O57 O -0.06865 0.54191 1.00010
 O58 O 0.07008 0.54191 1.00010
 O59 O 0.00070 0.54199 0.93096
 O60 O 0.00070 0.54199 1.06927
 O61 O 0.00070 0.45902 1.06929
 O62 O 0.00070 0.45902 0.93094
 O63 O 0.07006 0.45894 1.00010
 O64 O -0.06863 0.45894 1.00010
 Cu65 Cu 0.00071 0.55026 1.00011
 Cu66 Cu 0.00071 0.45067 1.00011
 C67 C -0.09242 0.50042 1.00009
 C68 C 0.09385 0.50042 1.00008
 C69 C 0.00068 0.50051 0.90724
 C70 C 0.00068 0.50051 1.09299
 O71 O -0.00007 -0.07005 0.45894
 O72 O -0.00007 0.06863 0.45894
 O73 O 0.06909 -0.00069 0.45901
 O74 O -0.06925 -0.00070 0.45901
 O75 O -0.06924 -0.00070 0.54199
 O76 O 0.06907 -0.00069 0.54199
 O77 O -0.00007 0.06865 0.54191
 O78 O -0.00007 -0.07007 0.54190
 Cu79 Cu -0.00008 -0.00071 0.45066
 Cu80 Cu -0.00008 -0.00071 0.55026
 C81 C -0.00005 -0.09384 0.50041
 C82 C -0.00006 0.09242 0.50042
 C83 C 0.09279 -0.00068 0.50051
 C84 C -0.09295 -0.00068 0.50051
 C85 C -0.25425 0.50030 0.99987
 C86 C -0.22784 0.54586 0.99992
 C87 C -0.17520 0.54595 0.99999
 C88 C -0.35388 0.50021 0.99976
 C89 C -0.17513 0.45478 1.00000
 C90 C -0.22776 0.45479 0.99992
 C91 C -0.30848 0.50025 0.99980
 C92 C -0.14821 0.50039 1.00003
 H93 H -0.24793 0.58132 0.99989
 H94 H -0.15568 0.58171 1.00002
 H95 H -0.15556 0.41905 1.00002
 H96 H -0.24779 0.41929 0.99989
 C97 C 0.25569 0.50030 0.99987
 C98 C 0.22927 0.54585 0.99991
 C99 C 0.17663 0.54595 0.99999
 C100 C 0.35533 0.50020 0.99975
 C101 C 0.17656 0.45478 0.99999
 C102 C 0.22920 0.45479 0.99991
 C103 C 0.30992 0.50024 0.99979
 C104 C 0.14964 0.50039 1.00003
 H105 H 0.24936 0.58132 0.99988
 H106 H 0.15711 0.58171 1.00002
 H107 H 0.15699 0.41905 1.00002
 H108 H 0.24923 0.41929 0.99988
 C109 C 0.00009 -0.25568 0.50031
 C110 C 0.00007 -0.22926 0.54586
 C111 C 0.00001 -0.17662 0.54595
 C112 C 0.00016 -0.35532 0.50020
 C113 C 0.00001 -0.17656 0.45478
 C114 C 0.00007 -0.22920 0.45479
 C115 C 0.00012 -0.30991 0.50026
 C116 C -0.00001 -0.14964 0.50038
 H117 H 0.00008 -0.24935 0.58133
 H118 H -0.00000 -0.15710 0.58170
 H119 H -0.00000 -0.15699 0.41905
 H120 H 0.00008 -0.24923 0.41930
 C121 C 0.00011 0.25426 0.50030
 C122 C 0.00007 0.22777 0.45479
 C123 C 0.00001 0.17513 0.45478
 C124 C 0.00019 0.35389 0.50020
 C125 C 0.00001 0.17521 0.54595
 C126 C 0.00007 0.22784 0.54585
 C127 C 0.00017 0.30849 0.50024
 C128 C -0.00002 0.14821 0.50039
 H129 H 0.00009 0.24780 0.41929
 H130 H -0.00001 0.15556 0.41905
 H131 H -0.00001 0.15569 0.58171
 H132 H 0.00010 0.24793 0.58132
 C133 C 0.49972 -0.00012 -0.25569
 C134 C 0.54523 -0.00008 -0.22920
 C135 C 0.54524 -0.00000 -0.17657
 C136 C 0.49982 -0.00023 -0.35533
 C137 C 0.45407 -0.00000 -0.17663
 C138 C 0.45416 -0.00008 -0.22927
 C139 C 0.49977 -0.00019 -0.30992
 C140 C 0.49963 0.00004 -0.14964
 H141 H 0.58073 -0.00011 -0.24923
 H142 H 0.58097 0.00003 -0.15699
 H143 H 0.41831 0.00002 -0.15711
 H144 H 0.41870 -0.00011 -0.24936
 C145 C 0.49972 -0.00012 0.25425
 C146 C 0.45416 -0.00008 0.22783
 C147 C 0.45406 0.00000 0.17520
 C148 C 0.49982 -0.00023 0.35388
 C149 C 0.54524 0.00000 0.17513
 C150 C 0.54523 -0.00008 0.22776
 C151 C 0.49977 -0.00019 0.30848
 C152 C 0.49963 0.00004 0.14821
 H153 H 0.41869 -0.00011 0.24792
 H154 H 0.41831 0.00003 0.15568
 H155 H 0.58096 0.00003 0.15555
 H156 H 0.58073 -0.00011 0.24779
 C157 C 0.49940 -0.25415 -0.00045
 C158 C 0.45386 -0.22778 -0.00049
 C159 C 0.45384 -0.17522 -0.00058
 C160 C 0.49932 -0.35349 -0.00033
 C161 C 0.54507 -0.17528 -0.00058
 C162 C 0.54498 -0.22784 -0.00049
 C163 C 0.49936 -0.30819 -0.00037
 C164 C 0.49948 -0.14838 -0.00063
 H165 H 0.41838 -0.24784 -0.00046
 H166 H 0.41812 -0.15564 -0.00061
 H167 H 0.58082 -0.15575 -0.00061
 H168 H 0.58043 -0.24795 -0.00046
 C169 C 0.49940 0.25440 -0.00045
 C170 C 0.45386 0.22803 -0.00050
 C171 C 0.45384 0.17547 -0.00058
 C172 C 0.49932 0.35374 -0.00033
 C173 C 0.54507 0.17553 -0.00058
 C174 C 0.54498 0.22809 -0.00049
 C175 C 0.49936 0.30845 -0.00037
 C176 C 0.49948 0.14863 -0.00063
 H177 H 0.41838 0.24809 -0.00046
 H178 H 0.41812 0.15589 -0.00061
 H179 H 0.58082 0.15600 -0.00061
 H180 H 0.58044 0.24820 -0.00046
 C181 C -0.25436 -0.00044 0.50059
 C182 C -0.22800 -0.00049 0.54613
 C183 C -0.17543 -0.00058 0.54616
 C184 C -0.35370 -0.00032 0.50067
 C185 C -0.17548 -0.00057 0.45493
 C186 C -0.22805 -0.00048 0.45502
 C187 C -0.30841 -0.00036 0.50063
 C188 C -0.14859 -0.00062 0.50053
 H189 H -0.24806 -0.00045 0.58161
 H190 H -0.15586 -0.00061 0.58189
 H191 H -0.15594 -0.00060 0.41918
 H192 H -0.24815 -0.00045 0.41956
 C193 C 0.25419 -0.00044 0.50059
 C194 C 0.22788 -0.00049 0.45502
 C195 C 0.17531 -0.00057 0.45493
 C196 C 0.35353 -0.00032 0.50067
 C197 C 0.17526 -0.00058 0.54616
 C198 C 0.22783 -0.00049 0.54613
 C199 C 0.30824 -0.00036 0.50063
 C200 C 0.14842 -0.00062 0.50053
 H201 H 0.24799 -0.00045 0.41956
 H202 H 0.15578 -0.00060 0.41918
 H203 H 0.15569 -0.00061 0.58189
 H204 H 0.24789 -0.00046 0.58162
 C205 C 0.00040 0.50060 1.25439
 C206 C 0.00046 0.54614 1.22803
 C207 C 0.00056 0.54617 1.17546
 C208 C 0.00026 0.50068 1.35374
 C209 C 0.00056 0.45494 1.17551
 C210 C 0.00045 0.45503 1.22808
 C211 C 0.00031 0.50064 1.30844
 C212 C 0.00061 0.50054 1.14862
 H213 H 0.00042 0.58162 1.24809
 H214 H 0.00059 0.58189 1.15589
 H215 H 0.00059 0.41919 1.15598
 H216 H 0.00042 0.41957 1.24819
 C217 C 0.00040 0.50060 0.74584
 C218 C 0.00045 0.45503 0.77215
 C219 C 0.00055 0.45494 0.82472
 C220 C 0.00026 0.50068 0.64651
 C221 C 0.00056 0.54617 0.82477
 C222 C 0.00045 0.54615 0.77221
 C223 C 0.00031 0.50064 0.69180
 C224 C 0.00061 0.50054 0.85161
 H225 H 0.00041 0.41957 0.75204
 H226 H 0.00059 0.41919 0.84425
 H227 H 0.00059 0.58190 0.84434
 H228 H 0.00042 0.58163 0.75214
   
