data_POSCAR
  _audit_creation_date              2014-09-24
  _audit_creation_method            'ToBaCCo'
  _symmetry_space_group_name_H-M    'P1'
  _symmetry_Int_Tables_number       1
  _symmetry_cell_setting            triclinic
  loop_
  _symmetry_equiv_pos_as_xyz
 x,y,z
_cell_length_a 28.6540
_cell_length_b 28.2246
_cell_length_c 37.9994
_cell_angle_alpha 89.850400
_cell_angle_beta 89.623100
_cell_angle_gamma 89.828000
loop_
  _atom_site_label
  _atom_site_type_symbol
  _atom_site_fract_x
  _atom_site_fract_y
  _atom_site_fract_z
B1 B 0.26912 0.23497 0.28454
 B2 B 0.21259 0.22952 0.27553
 B3 B 0.23555 0.28313 0.28095
 B4 B 0.28981 0.28329 0.26390
 B5 B 0.29991 0.22774 0.24735
 B6 B 0.25153 0.19398 0.25514
 B7 B 0.22660 0.26695 0.21188
 B8 B 0.28321 0.27240 0.22096
 B9 B 0.26019 0.21877 0.21545
 B10 B 0.20587 0.21857 0.23258
 B11 B 0.19577 0.27413 0.24913
 B12 B 0.24420 0.30791 0.24129
 B13 B 0.73949 0.78775 0.21766
 B14 B 0.71733 0.73365 0.22295
 B15 B 0.77386 0.74020 0.21374
 B16 B 0.79361 0.78857 0.23458
 B17 B 0.74724 0.81202 0.25743
 B18 B 0.69948 0.77757 0.24955
 B19 B 0.76428 0.72273 0.28272
 B20 B 0.78649 0.77678 0.27750
 B21 B 0.72991 0.77024 0.28661
 B22 B 0.71027 0.72192 0.26578
 B23 B 0.75660 0.69847 0.24299
 B24 B 0.80437 0.73288 0.25082
 B25 B 0.73037 0.23232 -0.21611
 B26 B 0.72456 0.28938 -0.22671
 B27 B 0.77751 0.26649 -0.22028
 B28 B 0.77848 0.21082 -0.23587
 B29 B 0.72415 0.19966 -0.25251
 B30 B 0.69028 0.24893 -0.24622
 B31 B 0.76260 0.27292 -0.28965
 B32 B 0.76841 0.21594 -0.27898
 B33 B 0.71542 0.23881 -0.28551
 B34 B 0.71444 0.29455 -0.26989
 B35 B 0.76879 0.30565 -0.25327
 B36 B 0.80261 0.25640 -0.25951
 B37 B 0.28623 0.75477 -0.28170
 B38 B 0.23362 0.77908 -0.27589
 B39 B 0.23842 0.72148 -0.28469
 B40 B 0.28586 0.69987 -0.26434
 B41 B 0.31061 0.74619 -0.24220
 B42 B 0.27785 0.79580 -0.25002
 B43 B 0.22268 0.73193 -0.21563
 B44 B 0.27520 0.70757 -0.22137
 B45 B 0.27047 0.76521 -0.21262
 B46 B 0.22306 0.78674 -0.23298
 B47 B 0.19831 0.74046 -0.25508
 B48 B 0.23102 0.69085 -0.24729
 B49 B 1.23802 1.28623 0.71665
 B50 B 1.21656 1.23188 0.72216
 B51 B 1.27295 1.23913 0.71271
 B52 B 1.29221 1.28788 0.73334
 B53 B 1.24567 1.31081 0.75628
 B54 B 1.19834 1.27568 0.74870
 B55 B 1.26407 1.22189 0.78177
 B56 B 1.28549 1.27627 0.77628
 B57 B 1.22908 1.26894 0.78563
 B58 B 1.20997 1.22026 0.76505
 B59 B 1.25643 1.19731 0.74213
 B60 B 1.30382 1.23243 0.74970
 B61 B 0.76969 0.73383 0.78475
 B62 B 0.71310 0.72842 0.77586
 B63 B 0.73616 0.78204 0.78122
 B64 B 0.79037 0.78211 0.76402
 B65 B 0.80032 0.72653 0.74747
 B66 B 0.75192 0.69286 0.75539
 B67 B 0.72689 0.76585 0.71218
 B68 B 0.78358 0.77119 0.72108
 B69 B 0.76042 0.71761 0.71567
 B70 B 0.70620 0.71751 0.73292
 B71 B 0.69625 0.77308 0.74950
 B72 B 0.74470 0.80678 0.74152
 B73 B 1.23128 0.73277 0.28459
 B74 B 1.22511 0.78973 0.27384
 B75 B 1.27820 0.76722 0.28032
 B76 B 1.27953 0.71150 0.26490
 B77 B 1.22530 0.69986 0.24829
 B78 B 1.19109 0.74894 0.25444
 B79 B 1.26325 0.77322 0.21094
 B80 B 1.26948 0.71634 0.22179
 B81 B 1.21630 0.73874 0.21516
 B82 B 1.21493 0.79460 0.23063
 B83 B 1.26922 0.80616 0.24723
 B84 B 1.30336 0.75713 0.24114
 B85 B 0.78798 1.25336 0.21779
 B86 B 0.73531 1.27762 0.22335
 B87 B 0.74026 1.22000 0.21474
 B88 B 0.78757 1.19855 0.23529
 B89 B 0.81214 1.24499 0.25741
 B90 B 0.77936 1.29454 0.24933
 B91 B 0.72404 1.23076 0.28370
 B92 B 0.77660 1.20643 0.27820
 B93 B 0.77178 1.26412 0.28681
 B94 B 0.72448 1.28549 0.26620
 B95 B 0.69993 1.23907 0.24413
 B96 B 0.73263 1.18955 0.25216
 O97 O 0.55701 1.08661 0.06367
 O98 O 0.61365 1.04872 0.03102
 C99 C 0.60018 1.07863 0.05517
 O100 O 0.43974 0.90695 0.05604
 O101 O 0.38398 0.95143 0.02785
 C102 C 0.39677 0.91711 0.04870
 O103 O 0.56700 0.92000 0.06211
 O104 O 0.61838 0.96776 0.03179
 C105 C 0.60866 0.93500 0.05500
 O106 O 0.42916 1.08365 0.06012
 O107 O 0.37901 1.03596 0.02928
 C108 C 0.38774 1.06944 0.05197
 Zr109 Zr 0.49476 1.05968 0.04295
 O110 O 0.48998 1.06003 0.09857
 O111 O 0.49179 1.13440 0.03902
 Zr112 Zr 0.50205 0.94154 0.04230
 O113 O 0.49829 0.94880 0.09759
 O114 O 0.50697 0.86698 0.04739
 O115 O 0.54040 1.00292 0.04991
 O116 O 0.45699 0.99786 0.04892
 O117 O 0.43179 1.08609 -0.06215
 O118 O 0.38034 1.03706 -0.03311
 C119 C 0.39005 1.07150 -0.05497
 O120 O 0.56944 0.92213 -0.06551
 O121 O 0.61959 0.96759 -0.03294
 C122 C 0.61080 0.93615 -0.05710
 O123 O 0.44221 0.91017 -0.06220
 O124 O 0.38531 0.95248 -0.03308
 C125 C 0.39903 0.91921 -0.05453
 O126 O 0.55945 1.09013 -0.06365
 O127 O 0.61485 1.04997 -0.03167
 C128 C 0.60224 1.08144 -0.05497
 Zr129 Zr 0.49664 1.06159 -0.04456
 O130 O 0.49365 1.06454 -0.10018
 O131 O 0.49332 1.13608 -0.03884
 Zr132 Zr 0.50396 0.94306 -0.04591
 O133 O 0.49944 0.94662 -0.10150
 O134 O 0.51300 0.86862 -0.04753
 Zr135 Zr 0.57046 1.00529 -0.00092
 Zr136 Zr 0.42829 0.99701 -0.00189
 O137 O 0.45941 0.99993 -0.05218
 O138 O 0.54253 1.00496 -0.05213
 O139 O 0.45281 1.06727 -0.00105
 O140 O 0.54460 0.93572 -0.00157
 O141 O 0.53656 1.07153 -0.00041
 O142 O 0.46189 0.93033 -0.00222
 H143 H 0.43570 0.99600 0.06954
 H144 H 0.56717 0.90909 -0.00167
 H145 H 0.43913 0.99895 -0.07319
 H146 H 0.55530 1.10098 0.00006
 H147 H 0.52189 0.85467 0.02576
 H148 H 0.49186 0.85475 -0.02959
 H149 H 0.52702 0.96407 -0.11037
 H150 H 0.51948 1.04478 -0.10945
 H151 H 0.49381 1.14959 -0.06295
 H152 H 0.49169 1.14659 0.06346
 H153 H 0.51319 1.03698 0.10746
 H154 H 0.49790 0.91619 0.10728
 O155 O 1.05608 0.58695 0.56384
 O156 O 1.11298 0.54950 0.53116
 C157 C 1.09930 0.57926 0.55535
 O158 O 0.94005 0.40659 0.55583
 O159 O 0.88406 0.45071 0.52760
 C160 C 0.89703 0.41647 0.54843
 O161 O 1.06732 0.42023 0.56169
 O162 O 1.11834 0.46857 0.53154
 C163 C 1.10886 0.43554 0.55456
 O164 O 0.92827 0.58289 0.56026
 O165 O 0.87853 0.53500 0.52922
 C166 C 0.88698 0.56835 0.55205
 Zr167 Zr 0.99408 0.55956 0.54304
 O168 O 0.98928 0.55965 0.59867
 O169 O 0.99056 0.63428 0.53922
 Zr170 Zr 1.00219 0.44148 0.54206
 O171 O 0.99866 0.44847 0.59738
 O172 O 1.00739 0.36690 0.54686
 O173 O 1.04012 0.50309 0.54984
 O174 O 0.95676 0.49745 0.54883
 O175 O 0.93089 0.58614 0.43805
 O176 O 0.87990 0.53644 0.46695
 C177 C 0.88929 0.57108 0.44522
 O178 O 1.06971 0.42316 0.43417
 O179 O 1.11956 0.46843 0.46714
 C180 C 1.11096 0.43730 0.44272
 O181 O 0.94253 0.41017 0.43748
 O182 O 0.88538 0.45206 0.46666
 C183 C 0.89928 0.41897 0.44512
 O184 O 1.05874 0.59088 0.43650
 O185 O 1.11431 0.55089 0.46844
 C186 C 1.10157 0.58233 0.44516
 Zr187 Zr 0.99600 0.56193 0.45550
 O188 O 0.99299 0.56516 0.39989
 O189 O 0.99228 0.63637 0.46135
 Zr190 Zr 1.00407 0.44343 0.45383
 O191 O 0.99961 0.44725 0.39824
 O192 O 1.01350 0.36903 0.45206
 Zr193 Zr 1.07014 0.50591 0.49902
 Zr194 Zr 0.92812 0.49665 0.49799
 O195 O 0.95918 0.50004 0.44771
 O196 O 1.04224 0.50562 0.44780
 O197 O 0.95213 0.56709 0.49904
 O198 O 1.04474 0.43617 0.49816
 O199 O 1.03581 0.57192 0.49969
 O200 O 0.96209 0.43021 0.49750
 H201 H 0.93553 0.49535 0.56946
 H202 H 1.06745 0.40965 0.49797
 H203 H 0.93891 0.49903 0.42669
 H204 H 1.05436 0.60150 0.50024
 H205 H 1.02347 0.35492 0.52559
 H206 H 0.99281 0.35501 0.47023
 H207 H 1.02720 0.46474 0.38941
 H208 H 1.01884 0.54547 0.39057
 H209 H 0.99265 0.64995 0.43726
 H210 H 0.99029 0.64642 0.56368
 H211 H 1.01283 0.53693 0.60753
 H212 H 0.99838 0.41580 0.60698
 O213 O 1.07962 0.56699 0.06023
 O214 O 1.03284 0.62033 0.03112
 C215 C 1.06624 0.60972 0.05308
 O216 O 1.08337 0.43902 -0.06374
 O217 O 1.04244 0.38274 -0.03253
 C218 C 1.07404 0.39554 -0.05545
 O219 O 1.08181 0.56911 -0.06053
 O220 O 1.03393 0.62140 -0.03107
 C221 C 1.06792 0.61152 -0.05289
 O222 O 1.08038 0.43757 0.06258
 O223 O 1.04112 0.38211 0.02991
 C224 C 1.07151 0.39433 0.05363
 Zr225 Zr 1.05318 0.50170 0.04353
 O226 O 1.12686 0.50131 0.04693
 O227 O 1.04471 0.50234 0.09882
 Zr228 Zr 1.05592 0.50305 -0.04441
 O229 O 1.12958 0.50405 -0.04095
 O230 O 1.05707 0.50827 -0.10003
 O231 O 1.06207 0.54549 -0.00013
 O232 O 1.06474 0.46107 -0.00062
 O233 O 0.91530 0.43142 0.06173
 O234 O 0.96081 0.37893 0.03040
 C235 C 0.92872 0.38888 0.05382
 O236 O 0.90740 0.56246 -0.06082
 O237 O 0.95058 0.61824 -0.03160
 C238 C 0.91753 0.60583 -0.05311
 O239 O 0.91715 0.43334 -0.06589
 O240 O 0.96067 0.38007 -0.03397
 C241 C 0.92988 0.39068 -0.05795
 O242 O 0.90578 0.56137 0.05857
 O243 O 0.94939 0.61771 0.02968
 C244 C 0.91598 0.60493 0.05109
 Zr245 Zr 0.93690 0.49750 0.04234
 O246 O 0.86341 0.48930 0.04277
 O247 O 0.93746 0.50173 0.09798
 Zr248 Zr 0.93934 0.49862 -0.04585
 O249 O 0.86616 0.49072 -0.05003
 O250 O 0.94538 0.50522 -0.10127
 Zr251 Zr 0.99344 0.57251 -0.00072
 Zr252 Zr 0.99901 0.42794 -0.00157
 O253 O 0.93091 0.45612 -0.00202
 O254 O 0.92702 0.54025 -0.00161
 O255 O 0.99660 0.45654 0.04965
 O256 O 0.99608 0.54280 -0.05146
 O257 O 0.99331 0.54154 0.04972
 O258 O 0.99951 0.45796 -0.05248
 H259 H 1.09371 0.44182 -0.00039
 H260 H 0.99564 0.56436 -0.07209
 H261 H 0.90387 0.43430 -0.00224
 H262 H 0.99199 0.56251 0.07059
 H263 H 1.04021 0.48058 -0.10945
 H264 H 0.96016 0.47595 -0.11038
 H265 H 0.85171 0.50906 -0.03069
 H266 H 0.84990 0.51425 0.02758
 H267 H 0.95854 0.47656 0.10675
 H268 H 1.07657 0.50375 0.10874
 H269 H 1.13887 0.51617 0.02508
 H270 H 1.14176 0.50453 -0.06543
 O271 O 0.57981 0.93945 0.56377
 O272 O 0.54106 0.88347 0.53122
 C273 C 0.57108 0.89606 0.55510
 O274 O 0.40408 1.06246 0.55668
 O275 O 0.44887 1.11858 0.52862
 C276 C 0.41481 1.10597 0.54947
 O277 O 0.41474 0.93291 0.56196
 O278 O 0.46071 0.88001 0.53146
 C279 C 0.42834 0.89027 0.55459
 O280 O 0.57819 1.06912 0.56070
 O281 O 0.53223 1.12171 0.53007
 C282 C 0.56503 1.11165 0.55265
 Zr283 Zr 0.55361 1.00340 0.54338
 O284 O 0.55329 1.00708 0.59901
 O285 O 0.62726 1.00503 0.53943
 Zr286 Zr 0.43708 0.99871 0.54257
 O287 O 0.44378 1.00118 0.59788
 O288 O 0.36350 0.99551 0.54742
 O289 O 0.49685 0.95822 0.55015
 O290 O 0.49328 1.04302 0.54942
 O291 O 0.58114 1.06893 0.43839
 O292 O 0.53348 1.12153 0.46780
 C293 C 0.56724 1.11142 0.44582
 O294 O 0.41801 0.93263 0.43443
 O295 O 0.46235 0.88007 0.46642
 C296 C 0.43148 0.89020 0.44239
 O297 O 0.40798 1.06202 0.43801
 O298 O 0.45023 1.11829 0.46753
 C299 C 0.41761 1.10551 0.44578
 O300 O 0.58331 0.93900 0.43674
 O301 O 0.54248 0.88315 0.46852
 C302 C 0.57396 0.89565 0.44539
 Zr303 Zr 0.55599 1.00317 0.45584
 O304 O 0.55927 1.00699 0.40022
 O305 O 0.62933 1.00500 0.46164
 Zr306 Zr 0.43913 0.99836 0.45438
 O307 O 0.44307 1.00375 0.39880
 O308 O 0.36567 0.99091 0.45289
 Zr309 Zr 0.49898 0.92867 0.49924
 Zr310 Zr 0.49320 1.07313 0.49872
 O311 O 0.49590 1.04243 0.44833
 O312 O 0.49953 0.95802 0.44813
 O313 O 0.56201 1.04668 0.49952
 O314 O 0.43090 0.95643 0.49854
 O315 O 0.56477 0.96158 0.49985
 O316 O 0.42699 1.04058 0.49820
 H317 H 0.49168 1.06428 0.57011
 H318 H 0.40439 0.93400 0.49818
 H319 H 0.49540 1.06339 0.42737
 H320 H 0.59351 0.94198 0.50025
 H321 H 0.35139 0.98005 0.52607
 H322 H 0.35234 1.01256 0.47080
 H323 H 0.46031 0.97577 0.38990
 H324 H 0.53990 0.98100 0.39088
 H325 H 0.64272 1.00470 0.43753
 H326 H 0.63916 1.00466 0.56386
 H327 H 0.53061 0.98333 0.60770
 H328 H 0.41158 1.00184 0.60752
 O329 O 0.95661 0.88934 0.45495
 O330 O 0.97884 0.94708 0.41573
 C331 C 0.96047 0.90637 0.42335
 O332 O 0.89647 1.04288 0.55424
 O333 O 0.95426 1.02021 0.59229
 C334 C 0.91340 1.03785 0.58551
 O335 O 0.89152 1.03825 0.45708
 O336 O 0.94822 1.01960 0.41658
 C337 C 0.90678 1.03437 0.42508
 O338 O 0.96590 0.88548 0.55229
 O339 O 0.98600 0.94378 0.59132
 C340 C 0.97037 0.90189 0.58395
 Zr341 Zr 0.97548 0.91947 0.50344
 O342 O 0.91037 0.88469 0.50723
 O343 O 1.01271 0.85472 0.50080
 Zr344 Zr 0.92622 1.02775 0.50495
 O345 O 0.86143 0.99223 0.50758
 O346 O 0.89327 1.09491 0.50262
 O347 O 0.94145 0.97031 0.47301
 O348 O 0.94375 0.96977 0.53504
 O349 O 1.11424 0.95222 0.54876
 O350 O 1.05911 0.97431 0.58958
 C351 C 1.09919 0.95614 0.58081
 O352 O 1.04785 1.10934 0.45411
 O353 O 1.02366 1.05261 0.41526
 C354 C 1.04232 1.09313 0.42255
 O355 O 1.04459 1.11001 0.55183
 O356 O 1.02605 1.05109 0.59105
 C357 C 1.04099 1.09322 0.58345
 O358 O 1.11333 0.96024 0.45124
 O359 O 1.05392 0.97998 0.41377
 C360 C 1.09587 0.96503 0.42003
 Zr361 Zr 1.08155 0.96861 0.50107
 O362 O 1.14981 0.99696 0.50313
 O363 O 1.10691 0.89825 0.49844
 Zr364 Zr 1.03275 1.07747 0.50303
 O365 O 1.09897 1.11021 0.50591
 O366 O 1.00006 1.14479 0.50012
 Zr367 Zr 1.00235 0.99935 0.45057
 Zr368 Zr 1.00557 0.99776 0.55587
 O369 O 1.06617 1.02610 0.53253
 O370 O 1.06475 1.02741 0.47064
 O371 O 1.03320 0.93525 0.53379
 O372 O 0.97501 1.06127 0.47345
 O373 O 1.03091 0.93655 0.47108
 O374 O 0.97659 1.06083 0.53558
 H375 H 0.91867 0.95846 0.55104
 H376 H 0.96344 1.08705 0.45803
 H377 H 1.09195 1.03696 0.54773
 H378 H 1.04124 0.91133 0.45466
 H379 H 0.90942 1.11580 0.51943
 H380 H 0.98177 1.14942 0.52202
 H381 H 1.11911 1.09540 0.48779
 H382 H 1.15165 1.02254 0.48535
 H383 H 1.14136 0.90065 0.49692
 H384 H 0.98886 0.82938 0.50075
 H385 H 0.88705 0.90623 0.49662
 H386 H 0.83705 1.01717 0.50867
 O387 O 0.45255 0.38992 -0.04308
 O388 O 0.47523 0.44617 -0.08332
 C389 C 0.45584 0.40616 -0.07489
 O390 O 0.39869 0.54493 0.05567
 O391 O 0.45682 0.52144 0.09319
 C392 C 0.41599 0.53947 0.08677
 O393 O 0.39158 0.54067 -0.04144
 O394 O 0.44678 0.51987 -0.08259
 C395 C 0.40600 0.53605 -0.07363
 O396 O 0.46517 0.38651 0.05367
 O397 O 0.48722 0.44467 0.09218
 C398 C 0.47083 0.40293 0.08516
 Zr399 Zr 0.47377 0.41995 0.00461
 O400 O 0.40807 0.38655 0.00966
 O401 O 0.50940 0.35437 0.00170
 Zr402 Zr 0.42703 0.52935 0.00607
 O403 O 0.36141 0.49561 0.00963
 O404 O 0.39573 0.59734 0.00403
 O405 O 0.44012 0.47123 -0.02566
 O406 O 0.44396 0.47120 0.03628
 O407 O 0.61424 0.44966 0.04782
 O408 O 0.56067 0.47362 0.08924
 C409 C 0.60007 0.45432 0.08005
 O410 O 0.54854 0.60773 -0.04673
 O411 O 0.52285 0.55095 -0.08502
 C412 C 0.54215 0.59132 -0.07813
 O413 O 0.54813 0.60913 0.05109
 O414 O 0.52935 0.55087 0.09084
 C415 C 0.54482 0.59268 0.08286
 O416 O 0.61164 0.45808 -0.04961
 O417 O 0.55152 0.47792 -0.08644
 C418 C 0.59360 0.46294 -0.08060
 Zr419 Zr 0.58082 0.46642 0.00048
 O420 O 0.65009 0.49210 0.00142
 O421 O 0.60385 0.39532 -0.00248
 Zr422 Zr 0.53460 0.57645 0.00256
 O423 O 0.60192 0.60705 0.00416
 O424 O 0.50395 0.64474 -0.00016
 Zr425 Zr 0.50110 0.49851 -0.04914
 Zr426 Zr 0.50689 0.49794 0.05610
 O427 O 0.56759 0.52460 0.03181
 O428 O 0.56461 0.52537 -0.02999
 O429 O 0.53254 0.43456 0.03404
 O430 O 0.47584 0.56133 -0.02621
 O431 O 0.52876 0.43531 -0.02868
 O432 O 0.47881 0.56146 0.03592
 H433 H 0.41916 0.46033 0.05268
 H434 H 0.46450 0.58728 -0.04157
 H435 H 0.59404 0.53500 0.04656
 H436 H 0.53813 0.40991 -0.04526
 H437 H 0.41254 0.61774 0.02079
 H438 H 0.48544 0.64961 0.02160
 H439 H 0.62047 0.59331 -0.01535
 H440 H 0.65139 0.51983 -0.01448
 H441 H 0.63833 0.39660 -0.00433
 H442 H 0.48495 0.32963 0.00211
 H443 H 0.38472 0.40877 -0.00012
 H444 H 0.33773 0.52124 0.01073
 C445 C 0.30171 1.14178 0.12580
 C446 C 0.29852 1.09226 0.12304
 C447 C 0.32235 1.06814 0.09596
 C448 C 0.27287 1.18861 0.18261
 C449 C 0.35017 1.14316 0.07319
 C450 C 0.32625 1.16714 0.09998
 C451 C 0.28466 1.16652 0.15673
 C452 C 0.34975 1.09339 0.07156
 H453 H 0.27989 1.07209 0.14292
 H454 H 0.32263 1.02979 0.09593
 H455 H 0.37185 1.16334 0.05516
 H456 H 0.32925 1.20533 0.10175
 C457 C 0.80107 0.63996 0.62614
 C458 C 0.82412 0.66539 0.59959
 C459 C 0.84788 0.64147 0.57270
 C460 C 0.77282 0.68727 0.68288
 C461 C 0.82289 0.56624 0.59693
 C462 C 0.79919 0.59030 0.62409
 C463 C 0.78436 0.66493 0.65705
 C464 C 0.84880 0.59168 0.57173
 H465 H 0.82618 0.70368 0.60085
 H466 H 0.86852 0.66179 0.55407
 H467 H 0.82436 0.52790 0.59743
 H468 H 0.78178 0.57007 0.64455
 C469 C 0.69579 0.86482 0.12905
 C470 C 0.69787 0.91439 0.12599
 C471 C 0.67311 0.93782 0.09922
 C472 C 0.72650 0.81826 0.18519
 C473 C 0.64627 0.86210 0.07760
 C474 C 0.67114 0.83882 0.10403
 C475 C 0.71400 0.84045 0.15961
 C476 C 0.64597 0.91184 0.07547
 H477 H 0.71647 0.93503 0.14534
 H478 H 0.67212 0.97613 0.09887
 H479 H 0.62477 0.84137 0.06007
 H480 H 0.66896 0.80060 0.10612
 C481 C 1.19502 0.36410 0.62824
 C482 C 1.19601 0.41380 0.62648
 C483 C 1.17181 0.43786 0.59977
 C484 C 1.22476 0.31657 0.68419
 C485 C 1.14781 0.36257 0.57554
 C486 C 1.17213 0.33865 0.60197
 C487 C 1.21254 0.33900 0.65867
 C488 C 1.14630 0.41235 0.57476
 H489 H 1.21323 0.43400 0.64680
 H490 H 1.16980 0.47613 0.60041
 H491 H 1.12754 0.34219 0.55699
 H492 H 1.17081 0.30030 0.60304
 C493 C 0.68557 1.16588 -0.12335
 C494 C 0.69890 1.11872 -0.11680
 C495 C 0.67491 1.09158 -0.09150
 C496 C 0.71546 1.21073 -0.18047
 C497 C 0.62634 1.15963 -0.07800
 C498 C 0.65044 1.18666 -0.10290
 C499 C 0.70302 1.19094 -0.15382
 C500 C 0.63704 1.11137 -0.07309
 H501 H 0.72598 1.10219 -0.13260
 H502 H 0.68353 1.05449 -0.08833
 H503 H 0.59718 1.17563 -0.06410
 H504 H 0.63966 1.22293 -0.10769
 C505 C 1.18583 0.66661 0.37722
 C506 C 1.19920 0.61955 0.38413
 C507 C 1.17475 0.59250 0.40923
 C508 C 1.21639 0.71126 0.32025
 C509 C 1.12553 0.66041 0.42176
 C510 C 1.15008 0.68736 0.39707
 C511 C 1.20375 0.69154 0.34686
 C512 C 1.13637 0.61227 0.42706
 H513 H 1.22666 0.60297 0.36873
 H514 H 1.18343 0.55545 0.41267
 H515 H 1.09598 0.67640 0.43519
 H516 H 1.13923 0.72352 0.39193
 C517 C 0.31622 0.83378 -0.12169
 C518 C 0.35164 0.81331 -0.10159
 C519 C 0.37580 0.84062 -0.07722
 C520 C 0.28551 0.78797 -0.17765
 C521 C 0.32689 0.90838 -0.09069
 C522 C 0.30284 0.88096 -0.11542
 C523 C 0.29831 0.80828 -0.15152
 C524 C 0.36484 0.88884 -0.07249
 H525 H 0.36245 0.77700 -0.10620
 H526 H 0.40501 0.82479 -0.06349
 H527 H 0.31824 0.94553 -0.08781
 H528 H 0.27562 0.89728 -0.13101
 C529 C 0.81699 0.33335 0.37767
 C530 C 0.80353 0.38054 0.38383
 C531 C 0.82740 0.40804 0.40864
 C532 C 0.78659 0.28712 0.32177
 C533 C 0.87633 0.34038 0.42232
 C534 C 0.85235 0.31300 0.39788
 C535 C 0.79922 0.30766 0.34786
 C536 C 0.86525 0.38857 0.42701
 H537 H 0.77638 0.39679 0.36815
 H538 H 0.81869 0.44518 0.41145
 H539 H 0.90551 0.32463 0.43612
 H540 H 0.86325 0.27671 0.39334
 C541 C 1.15608 0.31094 0.12127
 C542 C 1.17662 0.34172 0.09684
 C543 C 1.14894 0.36533 0.07221
 C544 C 1.20391 0.28187 0.17681
 C545 C 1.08027 0.32519 0.09453
 C546 C 1.10805 0.30155 0.11934
 C547 C 1.18293 0.29414 0.15084
 C548 C 1.10035 0.35846 0.07158
 H549 H 1.21354 0.34968 0.09817
 H550 H 1.16502 0.39149 0.05513
 H551 H 1.04289 0.32043 0.09526
 H552 H 1.09163 0.27815 0.13834
 C553 C 0.65545 0.81163 0.62246
 C554 C 0.60726 0.80290 0.62080
 C555 C 0.57949 0.82713 0.59629
 C556 C 0.70386 0.78107 0.67728
 C557 C 0.64838 0.86684 0.57389
 C558 C 0.67605 0.84258 0.59818
 C559 C 0.68256 0.79393 0.65161
 C560 C 0.59974 0.86038 0.57340
 H561 H 0.59078 0.77944 0.63974
 H562 H 0.54207 0.82268 0.59710
 H563 H 0.66459 0.89294 0.55683
 H564 H 0.71308 0.85004 0.59931
 C565 C 1.14372 0.69499 -0.12612
 C566 C 1.16708 0.67146 -0.09894
 C567 C 1.14180 0.64860 -0.07232
 C568 C 1.19251 0.72057 -0.18270
 C569 C 1.06944 0.67590 -0.09801
 C570 C 1.09485 0.69858 -0.12493
 C571 C 1.16978 0.71019 -0.15687
 C572 C 1.09274 0.64928 -0.07221
 H573 H 1.20475 0.66824 -0.09952
 H574 H 1.16047 0.62726 -0.05325
 H575 H 1.03171 0.67555 -0.09920
 H576 H 1.07628 0.71642 -0.14590
 C577 C 0.64358 1.19420 0.37252
 C578 C 0.59461 1.19570 0.37221
 C579 C 0.56877 1.17328 0.39898
 C580 C 0.69360 1.21947 0.31648
 C581 C 0.64073 1.15033 0.42748
 C582 C 0.66645 1.17294 0.40095
 C583 C 0.67042 1.20918 0.34210
 C584 C 0.59173 1.14904 0.42618
 H585 H 0.57644 1.21163 0.35023
 H586 H 0.53119 1.17127 0.39673
 H587 H 0.65917 1.13083 0.44770
 H588 H 0.70422 1.17129 0.40151
 C589 C 0.83743 0.69277 0.12070
 C590 C 0.81564 0.65620 0.10241
 C591 C 0.84046 0.63038 0.07721
 C592 C 0.79592 0.72555 0.17822
 C593 C 0.90823 0.67995 0.08612
 C594 C 0.88331 0.70568 0.11171
 C595 C 0.81462 0.71216 0.15145
 C596 C 0.88754 0.64074 0.06980
 H597 H 0.78028 0.64578 0.10908
 H598 H 0.82368 0.60033 0.06497
 H599 H 0.94451 0.68834 0.08110
 H600 H 0.90062 0.73388 0.12579
 C601 C 0.33619 1.19321 0.61916
 C602 C 0.31413 1.15752 0.60009
 C603 C 0.33896 1.13208 0.57467
 C604 C 0.29486 1.22479 0.67710
 C605 C 0.40722 1.18047 0.58489
 C606 C 0.38231 1.20579 0.61069
 C607 C 0.31343 1.21188 0.65015
 C608 C 0.38628 1.14196 0.56788
 H609 H 0.27858 1.14735 0.60637
 H610 H 0.32201 1.10255 0.56188
 H611 H 0.44369 1.18846 0.58034
 H612 H 0.39984 1.23326 0.62538
 C613 C 0.85553 0.30816 -0.13211
 C614 C 0.83179 0.33061 -0.10446
 C615 C 0.85670 0.35324 -0.07781
 C616 C 0.80712 0.28014 -0.18780
 C617 C 0.92953 0.32849 -0.10472
 C618 C 0.90450 0.30590 -0.13158
 C619 C 0.82960 0.29189 -0.16239
 C620 C 0.90580 0.35350 -0.07814
 H621 H 0.79403 0.33291 -0.10453
 H622 H 0.83763 0.37345 -0.05820
 H623 H 0.96721 0.32973 -0.10636
 H624 H 0.92338 0.28892 -0.15290
 C625 C 0.35751 0.80817 0.36802
 C626 C 0.33435 0.82667 0.39753
 C627 C 0.35963 0.84886 0.42422
 C628 C 0.30790 0.78098 0.31273
 C629 C 0.43182 0.83167 0.39335
 C630 C 0.40647 0.80941 0.36656
 C631 C 0.33077 0.79248 0.33799
 C632 C 0.40848 0.85264 0.42198
 H633 H 0.29657 0.82634 0.39899
 H634 H 0.34077 0.86617 0.44542
 H635 H 0.46911 0.83598 0.39021
 H636 H 0.42488 0.79561 0.34379
 C637 C 1.11654 1.16941 0.34398
 C638 C 1.09982 1.19336 0.37363
 C639 C 1.07258 1.16932 0.39836
 C640 C 1.17762 1.20897 0.30154
 C641 C 1.07648 1.09838 0.36243
 C642 C 1.10391 1.12240 0.33788
 C643 C 1.14942 1.19168 0.32104
 C644 C 1.06190 1.12120 0.39345
 H645 H 1.10932 1.22994 0.37825
 H646 H 1.06151 1.18775 0.42197
 H647 H 1.06923 1.06120 0.35822
 H648 H 1.11688 1.10377 0.31489
 C649 C 0.61661 0.66739 -0.15645
 C650 C 0.59826 0.69166 -0.12749
 C651 C 0.57075 0.66757 -0.10299
 C652 C 0.67810 0.70760 -0.19823
 C653 C 0.57744 0.59582 -0.13784
 C654 C 0.60515 0.61993 -0.16220
 C655 C 0.64976 0.68995 -0.17901
 C656 C 0.56142 0.61907 -0.10743
 H657 H 0.60670 0.72858 -0.12314
 H658 H 0.55846 0.68624 -0.07982
 H659 H 0.57121 0.55833 -0.14161
 H660 H 0.61925 0.60105 -0.18468
 C661 C 0.83351 1.11378 0.66029
 C662 C 0.81133 1.09273 0.63182
 C663 C 0.83674 1.06401 0.60898
 C664 C 0.79036 1.17912 0.69710
 C665 C 0.90579 1.07454 0.64475
 C666 C 0.88022 1.10339 0.66760
 C667 C 0.80947 1.14901 0.68019
 C668 C 0.88469 1.05647 0.61441
 H669 H 0.77506 1.10040 0.62631
 H670 H 0.81954 1.05001 0.58594
 H671 H 0.94267 1.06937 0.64936
 H672 H 0.89742 1.11952 0.68987
 C673 C 0.33581 0.61435 0.16181
 C674 C 0.31375 0.59330 0.13331
 C675 C 0.33933 0.56486 0.11046
 C676 C 0.29198 0.67961 0.19815
 C677 C 0.40841 0.57567 0.14621
 C678 C 0.38258 0.60419 0.16916
 C679 C 0.31153 0.64954 0.18151
 C680 C 0.38738 0.55767 0.11584
 H681 H 0.27745 0.60085 0.12775
 H682 H 0.32220 0.55099 0.08736
 H683 H 0.44537 0.57078 0.15075
 H684 H 0.39964 0.62028 0.19150
 C685 C 1.17585 0.87800 0.65660
 C686 C 1.13689 0.90420 0.66758
 C687 C 1.11320 0.93274 0.64346
 C688 C 1.21327 0.81481 0.69854
 C689 C 1.16979 0.91109 0.59841
 C690 C 1.19281 0.88227 0.62233
 C691 C 1.19648 0.84394 0.67948
 C692 C 1.12866 0.93513 0.60831
 H693 H 1.12371 0.90096 0.69427
 H694 H 1.08171 0.95089 0.65186
 H695 H 1.18280 0.91210 0.57160
 H696 H 1.22245 0.86161 0.61356
 C697 C 0.67707 0.37564 0.15536
 C698 C 0.63832 0.40200 0.16652
 C699 C 0.61453 0.43063 0.14253
 C700 C 0.71495 0.31303 0.19753
 C701 C 0.67042 0.40848 0.09712
 C702 C 0.69359 0.37963 0.12094
 C703 C 0.69799 0.34185 0.17831
 C704 C 0.62964 0.43294 0.10730
 H705 H 0.62538 0.39886 0.19328
 H706 H 0.58318 0.44889 0.15109
 H707 H 0.68303 0.40928 0.07019
 H708 H 0.72301 0.35878 0.11201
 C709 C 0.88315 0.83365 0.34572
 C710 C 0.89638 0.80971 0.37627
 C711 C 0.92445 0.83232 0.40080
 C712 C 0.82111 0.79699 0.30347
 C713 C 0.92871 0.90148 0.36277
 C714 C 0.90037 0.87890 0.33842
 C715 C 0.84958 0.81322 0.32288
 C716 C 0.93955 0.87903 0.39475
 H717 H 0.88368 0.77435 0.38172
 H718 H 0.93270 0.81403 0.42509
 H719 H 0.93983 0.93743 0.35741
 H720 H 0.89044 0.89741 0.31459
 C721 C 0.37841 0.33357 -0.15293
 C722 C 0.41097 0.36774 -0.16341
 C723 C 0.43825 0.39024 -0.13819
 C724 C 0.31954 0.29741 -0.19781
 C725 C 0.40172 0.34225 -0.09261
 C726 C 0.37441 0.32025 -0.11772
 C727 C 0.34687 0.31394 -0.17765
 C728 C 0.43306 0.37833 -0.10246
 H729 H 0.41425 0.37794 -0.19082
 H730 H 0.46223 0.41775 -0.14645
 H731 H 0.39652 0.33250 -0.06527
 H732 H 0.34900 0.29404 -0.10952
 C733 C 1.15897 0.31155 -0.12285
 C734 C 1.17917 0.34512 -0.10077
 C735 C 1.15167 0.36923 -0.07622
 C736 C 1.20596 0.28278 -0.17912
 C737 C 1.08411 0.32357 -0.09338
 C738 C 1.11172 0.29961 -0.11834
 C739 C 1.18511 0.29461 -0.15286
 C740 C 1.10357 0.36007 -0.07331
 H741 H 1.21552 0.35480 -0.10400
 H742 H 1.16735 0.39736 -0.06101
 H743 H 1.04715 0.31620 -0.09174
 H744 H 1.09562 0.27380 -0.13542
 C745 C 0.65922 0.81215 0.37808
 C746 C 0.67944 0.84444 0.40119
 C747 C 0.65171 0.86822 0.42579
 C748 C 0.70674 0.78409 0.32185
 C749 C 0.58380 0.82469 0.40656
 C750 C 0.61164 0.80107 0.38159
 C751 C 0.68575 0.79572 0.34810
 C752 C 0.60337 0.85995 0.42773
 H753 H 0.71606 0.85345 0.39875
 H754 H 0.66744 0.89551 0.44180
 H755 H 0.54664 0.81817 0.40737
 H756 H 0.59552 0.77630 0.36368
 C757 C 0.83647 0.68971 -0.12286
 C758 C 0.88383 0.70061 -0.11810
 C759 C 0.90998 0.67689 -0.09230
 C760 C 0.79195 0.71899 -0.17995
 C761 C 0.84080 0.63350 -0.07475
 C762 C 0.81473 0.65739 -0.10020
 C763 C 0.81171 0.70672 -0.15342
 C764 C 0.88899 0.64173 -0.07141
 H765 H 0.90117 0.72533 -0.13564
 H766 H 0.94716 0.68309 -0.09072
 H767 H 0.82399 0.60612 -0.05920
 H768 H 0.77828 0.64846 -0.10360
 C769 C 0.33605 1.18985 0.37652
 C770 C 0.31453 1.15695 0.39883
 C771 C 0.34078 1.13274 0.42401
 C772 C 0.29130 1.21999 0.31981
 C773 C 0.40972 1.17677 0.40680
 C774 C 0.38339 1.20081 0.38127
 C775 C 0.31111 1.20737 0.34622
 C776 C 0.38892 1.14118 0.42738
 H777 H 0.27812 1.14787 0.39537
 H778 H 0.32410 1.10510 0.43938
 H779 H 0.44687 1.18317 0.40843
 H780 H 0.40059 1.22587 0.36391
 C781 C 1.14038 0.69432 0.12653
 C782 C 1.09205 0.70114 0.12261
 C783 C 1.06768 0.67757 0.09578
 C784 C 1.18694 0.72447 0.18259
 C785 C 1.14027 0.64268 0.07557
 C786 C 1.16446 0.66622 0.10212
 C787 C 1.16504 0.71195 0.15705
 C788 C 1.09147 0.64681 0.07277
 H789 H 1.07285 0.72264 0.14136
 H790 H 1.03001 0.68036 0.09485
 H791 H 1.15933 0.61852 0.05860
 H792 H 1.20168 0.66035 0.10476
 C793 C 0.63891 1.19636 0.62573
 C794 C 0.66307 1.17019 0.60020
 C795 C 0.63871 1.14678 0.57367
 C796 C 0.68595 1.22519 0.68188
 C797 C 0.56575 1.17820 0.59618
 C798 C 0.59026 1.20159 0.62298
 C799 C 0.66389 1.21328 0.65629
 C800 C 0.58973 1.14924 0.57204
 H801 H 0.70055 1.16557 0.60196
 H802 H 0.65788 1.12388 0.55583
 H803 H 0.52798 1.17953 0.59615
 H804 H 0.57101 1.22153 0.64263
 C805 C 0.86030 0.29802 0.12745
 C806 C 0.83521 0.33177 0.10840
 C807 C 0.85686 0.35796 0.08185
 C808 C 0.81773 0.26544 0.18478
 C809 C 0.92866 0.31437 0.09083
 C810 C 0.90680 0.28816 0.11789
 C811 C 0.83861 0.27815 0.15864
 C812 C 0.90435 0.35107 0.07376
 H813 H 0.79953 0.33985 0.11553
 H814 H 0.83716 0.38592 0.06910
 H815 H 0.96511 0.30827 0.08501
 H816 H 0.92673 0.26201 0.13236
 C817 C 0.35911 0.79989 0.62826
 C818 C 0.40554 0.78966 0.61872
 C819 C 0.42770 0.81581 0.59175
 C820 C 0.31598 0.76701 0.68530
 C821 C 0.35629 0.86009 0.58283
 C822 C 0.33440 0.83403 0.60933
 C823 C 0.33707 0.77986 0.65928
 C824 C 0.40372 0.85276 0.57471
 H825 H 0.42519 0.76320 0.63312
 H826 H 0.46411 0.80939 0.58594
 H827 H 0.33681 0.88823 0.57010
 H828 H 0.29880 0.84246 0.61647
 C829 C 0.30577 1.14495 -0.12885
 C830 C 0.33238 1.16998 -0.10446
 C831 C 0.35580 1.14593 -0.07767
 C832 C 0.27704 1.19166 -0.18557
 C833 C 0.32364 1.07155 -0.09763
 C834 C 0.30019 1.09579 -0.12471
 C835 C 0.28880 1.16952 -0.15975
 C836 C 0.35300 1.09633 -0.07468
 H837 H 0.33734 1.20781 -0.10737
 H838 H 0.37895 1.16572 -0.06075
 H839 H 0.32196 1.03326 -0.09652
 H840 H 0.27989 1.07590 -0.14350
 C841 C 0.80456 0.64457 0.37182
 C842 C 0.80135 0.59502 0.37430
 C843 C 0.82479 0.57051 0.40121
 C844 C 0.77667 0.69219 0.31532
 C845 C 0.85240 0.64519 0.42422
 C846 C 0.82876 0.66954 0.39766
 C847 C 0.78805 0.66974 0.34107
 C848 C 0.85190 0.59540 0.42561
 H849 H 0.78308 0.57517 0.35433
 H850 H 0.82507 0.53216 0.40108
 H851 H 0.87393 0.66508 0.44225
 H852 H 0.83174 0.70773 0.39608
 C853 C 0.68855 1.15688 0.12375
 C854 C 0.70417 1.11303 0.11069
 C855 C 0.67745 1.08841 0.08583
 C856 C 0.72482 1.19773 0.17976
 C857 C 0.62099 1.15251 0.08626
 C858 C 0.64774 1.17708 0.11055
 C859 C 0.71021 1.17904 0.15355
 C860 C 0.63456 1.10718 0.07463
 H861 H 0.73574 1.09696 0.12084
 H862 H 0.68878 1.05377 0.07707
 H863 H 0.58834 1.16813 0.07776
 H864 H 0.63522 1.21082 0.12044
 C865 C 1.18672 0.65822 0.62423
 C866 C 1.14627 0.67843 0.61039
 C867 C 1.11988 0.65362 0.58597
 C868 C 1.22270 0.69937 0.68030
 C869 C 1.17600 0.58923 0.58673
 C870 C 1.20234 0.61409 0.61169
 C871 C 1.20808 0.68065 0.65409
 C872 C 1.13347 0.60805 0.57485
 H873 H 1.13374 0.71240 0.61984
 H874 H 1.08746 0.66922 0.57698
 H875 H 1.18726 0.55434 0.57846
 H876 H 1.23360 0.59801 0.62234
 C877 C 0.69592 0.86244 -0.13054
 C878 C 0.69480 0.91217 -0.13119
 C879 C 0.67134 0.93736 -0.10455
 C880 C 0.72373 0.81269 -0.18621
 C881 C 0.65250 0.86340 -0.07547
 C882 C 0.67600 0.83831 -0.10194
 C883 C 0.71229 0.83584 -0.16077
 C884 C 0.64884 0.91304 -0.07702
 H885 H 0.70956 0.93134 -0.15333
 H886 H 0.66735 0.97534 -0.10708
 H887 H 0.63419 0.84382 -0.05509
 H888 H 0.67612 0.79992 -0.10119
 C889 C 1.19568 0.36382 0.36910
 C890 C 1.17720 0.33995 0.39835
 C891 C 1.15392 0.36516 0.42488
 C892 C 1.22306 0.31373 0.31351
 C893 C 1.17022 0.43880 0.39448
 C894 C 1.19348 0.41349 0.36781
 C895 C 1.21175 0.33697 0.33892
 C896 C 1.14911 0.41465 0.42272
 H897 H 1.17825 0.30159 0.39962
 H898 H 1.13658 0.34569 0.44579
 H899 H 1.16530 0.47662 0.39151
 H900 H 1.20727 0.43243 0.34522
 C901 C 0.31064 0.83584 0.11742
 C902 C 0.34693 0.81407 0.09873
 C903 C 0.37224 0.83972 0.07367
 C904 C 0.27852 0.79401 0.17511
 C905 C 0.32266 0.90817 0.08351
 C906 C 0.29748 0.88246 0.10895
 C907 C 0.29182 0.81254 0.14820
 C908 C 0.36160 0.88758 0.06687
 H909 H 0.35754 0.77816 0.10502
 H910 H 0.40209 0.82302 0.06115
 H911 H 0.31408 0.94505 0.07896
 H912 H 0.26957 0.89980 0.12339
 C913 C 0.81068 0.33511 0.61693
 C914 C 0.79698 0.38134 0.60783
 C915 C 0.82234 0.40702 0.58248
 C916 C 0.77803 0.29371 0.67458
 C917 C 0.87318 0.33920 0.57395
 C918 C 0.84773 0.31360 0.59894
 C919 C 0.79154 0.31208 0.64768
 C920 C 0.86198 0.38676 0.56655
 H921 H 0.76847 0.39847 0.62173
 H922 H 0.81329 0.44367 0.57744
 H923 H 0.90356 0.32274 0.56196
 H924 H 0.85880 0.27800 0.60575
 C925 C 1.11699 1.17148 0.65837
 C926 C 1.10062 1.12640 0.66736
 C927 C 1.07182 1.10204 0.64421
 C928 C 1.18145 1.21062 0.69713
 C929 C 1.07320 1.16963 0.60454
 C930 C 1.10194 1.19383 0.62769
 C931 C 1.15196 1.19321 0.67924
 C932 C 1.05963 1.12271 0.61185
 H933 H 1.11203 1.10916 0.69135
 H934 H 1.06195 1.06596 0.65055
 H935 H 1.06405 1.18662 0.57995
 H936 H 1.11427 1.22896 0.62082
 C937 C 0.61975 0.67232 0.15784
 C938 C 0.60434 0.62685 0.16667
 C939 C 0.57628 0.60188 0.14339
 C940 C 0.68251 0.71265 0.19753
 C941 C 0.57675 0.66943 0.10365
 C942 C 0.60480 0.69423 0.12695
 C943 C 0.65370 0.69490 0.17918
 C944 C 0.56384 0.62233 0.11101
 H945 H 0.61591 0.60986 0.19071
 H946 H 0.56708 0.56561 0.14969
 H947 H 0.56743 0.68619 0.07900
 H948 H 0.61657 0.72954 0.12012
 C949 C 1.16948 0.89203 0.33987
 C950 C 1.19238 0.90339 0.37102
 C951 C 1.16989 0.93125 0.39613
 C952 C 1.20457 0.82657 0.29853
 C953 C 1.10318 0.93959 0.35750
 C954 C 1.12576 0.91159 0.33243
 C955 C 1.18879 0.85676 0.31724
 C956 C 1.12415 0.94768 0.39028
 H957 H 1.22648 0.88859 0.37670
 H958 H 1.18715 0.93726 0.42098
 H959 H 1.06812 0.95199 0.35215
 H960 H 1.10815 0.90311 0.30811
 C961 C 0.66752 0.39132 -0.16112
 C962 C 0.69115 0.40512 -0.13084
 C963 C 0.66824 0.43244 -0.10563
 C964 C 0.70394 0.32620 -0.20206
 C965 C 0.59950 0.43558 -0.14261
 C966 C 0.62246 0.40806 -0.16773
 C967 C 0.68764 0.35629 -0.18352
 C968 C 0.62145 0.44597 -0.11058
 H969 H 0.72629 0.39259 -0.12580
 H970 H 0.68618 0.44027 -0.08135
 H971 H 0.56349 0.44558 -0.14720
 H972 H 0.60414 0.39768 -0.19135
 C973 C 0.82955 1.10692 0.34720
 C974 C 0.81169 1.10370 0.38133
 C975 C 0.83476 1.07626 0.40618
 C976 C 0.79568 1.17063 0.30417
 C977 C 0.89183 1.05276 0.36194
 C978 C 0.86848 1.08016 0.33706
 C979 C 0.81072 1.14120 0.32374
 C980 C 0.87632 1.05234 0.39710
 H981 H 0.78145 1.12434 0.38921
 H982 H 0.82177 1.07652 0.43301
 H983 H 0.92347 1.03436 0.35413
 H984 H 0.88218 1.08239 0.31047
 C985 C 0.32887 0.60940 -0.15146
 C986 C 0.31284 0.60894 -0.11675
 C987 C 0.33581 0.58159 -0.09179
 C988 C 0.29459 0.67194 -0.19535
 C989 C 0.38927 0.55293 -0.13687
 C990 C 0.36597 0.58025 -0.16187
 C991 C 0.30990 0.64300 -0.17546
 C992 C 0.37549 0.55490 -0.10132
 H993 H 0.28416 0.63157 -0.10861
 H994 H 0.32428 0.58396 -0.06466
 H995 H 0.41949 0.53245 -0.14500
 H996 H 0.37827 0.58039 -0.18890
 C997 C 0.88823 0.82717 0.65802
 C998 C 0.90515 0.80347 0.62835
 C999 C 0.93648 0.82616 0.60578
 C1000 C 0.81996 0.79123 0.69588
 C1001 C 0.93678 0.89467 0.64425
 C1002 C 0.90538 0.87190 0.66675
 C1003 C 0.85099 0.80717 0.67823
 C1004 C 0.95070 0.87290 0.61264
 H1005 H 0.89228 0.76859 0.62167
 H1006 H 0.94693 0.80837 0.58176
 H1007 H 0.94701 0.93066 0.65023
 H1008 H 0.89250 0.89024 0.68990
 C1009 C 0.38891 0.32848 0.15918
 C1010 C 0.40580 0.37335 0.16789
 C1011 C 0.43735 0.39610 0.14549
 C1012 C 0.31976 0.29262 0.19607
 C1013 C 0.43802 0.32710 0.10748
 C1014 C 0.40653 0.30448 0.12990
 C1015 C 0.35117 0.30863 0.17888
 C1016 C 0.45173 0.37409 0.11409
 H1017 H 0.39255 0.39182 0.19085
 H1018 H 0.44716 0.43227 0.15123
 H1019 H 0.44880 0.30911 0.08361
 H1020 H 0.39397 0.26943 0.12335
   
