data_POSCAR
  _audit_creation_date              2014-09-24
  _audit_creation_method            'ToBaCCo'
  _symmetry_space_group_name_H-M    'P1'
  _symmetry_Int_Tables_number       1
  _symmetry_cell_setting            triclinic
  loop_
  _symmetry_equiv_pos_as_xyz
 x,y,z
_cell_length_a 27.6432
_cell_length_b 27.5941
_cell_length_c 26.4417
_cell_angle_alpha 89.610100
_cell_angle_beta 89.661700
_cell_angle_gamma 90.764300
loop_
  _atom_site_label
  _atom_site_type_symbol
  _atom_site_fract_x
  _atom_site_fract_y
  _atom_site_fract_z
N1 N 0.32890 0.24262 0.19590
 N2 N 0.31053 0.28244 0.17685
 C3 C 0.33825 0.29756 0.13759
 C4 C 0.37611 0.26577 0.13237
 C5 C 0.36914 0.23134 0.16987
 H6 H 0.33124 0.32883 0.11401
 H7 H 0.39099 0.19977 0.17665
 Cu8 Cu 0.25177 0.31011 0.20471
 Cu9 Cu 0.29811 0.20692 0.25117
 Cu10 Cu 0.19163 0.25322 0.29945
 N11 N 0.19143 0.33508 0.23174
 N12 N 0.16773 0.31222 0.26821
 C13 C 0.12739 0.33680 0.27948
 C14 C 0.12594 0.37734 0.24867
 C15 C 0.16704 0.37521 0.21880
 H16 H 0.10130 0.32643 0.30835
 H17 H 0.17812 0.40104 0.18992
 N18 N 0.22157 0.19395 0.32600
 N19 N 0.26176 0.17593 0.30705
 C20 C 0.27338 0.13591 0.33351
 C21 C 0.23913 0.12880 0.37101
 C22 C 0.20684 0.16612 0.36535
 H23 H 0.30512 0.11425 0.32715
 H24 H 0.17552 0.17280 0.38884
 H25 H 0.22863 0.22985 0.23619
 H26 H 0.26400 0.26548 0.28348
 N27 N 0.66900 -0.24479 0.19611
 N28 N 0.69178 -0.27975 0.17276
 C29 C 0.66664 -0.29254 0.13135
 C30 C 0.62517 -0.26495 0.12931
 C31 C 0.62762 -0.23542 0.17145
 H32 H 0.67722 -0.32024 0.10490
 H33 H 0.60270 -0.20709 0.18142
 Cu34 Cu 0.75163 -0.30550 0.19952
 Cu35 Cu 0.69860 -0.20895 0.25163
 Cu36 Cu 0.81019 -0.24914 0.29356
 N37 N 0.81081 -0.33144 0.22770
 N38 N 0.83588 -0.30668 0.26105
 C39 C 0.87688 -0.33046 0.27147
 C40 C 0.87681 -0.37332 0.24443
 C41 C 0.83411 -0.37280 0.21722
 H42 H 0.90361 -0.31883 0.29870
 H43 H 0.82177 -0.39993 0.19075
 N44 N 0.77762 -0.19224 0.32214
 N45 N 0.73495 -0.17724 0.30664
 C46 C 0.72230 -0.13823 0.33390
 C47 C 0.75847 -0.12873 0.36835
 C48 C 0.79283 -0.16363 0.36012
 H49 H 0.68909 -0.11840 0.32959
 H50 H 0.82622 -0.16787 0.38067
 H51 H 0.76914 -0.22516 0.23325
 H52 H 0.73831 -0.26580 0.28039
 N53 N 0.67000 0.23674 0.80092
 N54 N 0.68514 0.28023 0.81406
 C55 C 0.65806 0.29589 0.85299
 C56 C 0.62398 0.26044 0.86434
 C57 C 0.63235 0.22344 0.83065
 H58 H 0.66276 0.33038 0.87164
 H59 H 0.61290 0.18926 0.82849
 Cu60 Cu 0.73877 0.31266 0.77963
 Cu61 Cu 0.70129 0.20029 0.74739
 Cu62 Cu 0.81014 0.24720 0.70323
 N63 N 0.80340 0.33452 0.76089
 N64 N 0.83261 0.30712 0.73452
 C65 C 0.87591 0.32968 0.72998
 C66 C 0.87338 0.37419 0.75393
 C67 C 0.82658 0.37603 0.77286
 H68 H 0.90619 0.31596 0.70859
 H69 H 0.81103 0.40488 0.79488
 N70 N 0.78047 0.18747 0.67616
 N71 N 0.73903 0.16937 0.69336
 C72 C 0.72747 0.12949 0.66670
 C73 C 0.76312 0.12257 0.63082
 C74 C 0.79609 0.15995 0.63763
 H75 H 0.69495 0.10778 0.67190
 H76 H 0.82851 0.16688 0.61553
 H77 H 0.76738 0.23126 0.76573
 H78 H 0.73604 0.25685 0.70888
 N79 N 0.32905 -0.24026 0.80569
 N80 N 0.31301 -0.28352 0.81935
 C81 C 0.34005 -0.30001 0.85790
 C82 C 0.37496 -0.26528 0.86836
 C83 C 0.36710 -0.22793 0.83462
 H84 H 0.33463 -0.33442 0.87706
 H85 H 0.38707 -0.19403 0.83204
 Cu86 Cu 0.25829 -0.31440 0.78585
 Cu87 Cu 0.29850 -0.20243 0.75277
 Cu88 Cu 0.18942 -0.24673 0.70870
 N89 N 0.19369 -0.33518 0.76578
 N90 N 0.16560 -0.30691 0.73904
 C91 C 0.12243 -0.32907 0.73272
 C92 C 0.12377 -0.37430 0.75578
 C93 C 0.16980 -0.37692 0.77624
 H94 H 0.09315 -0.31461 0.71052
 H95 H 0.18435 -0.40659 0.79805
 N96 N 0.22003 -0.18689 0.68230
 N97 N 0.26164 -0.16979 0.69934
 C98 C 0.27421 -0.12984 0.67256
 C99 C 0.23904 -0.12193 0.63678
 C100 C 0.20529 -0.15866 0.64378
 H101 H 0.30724 -0.10899 0.67735
 H102 H 0.17316 -0.16493 0.62151
 H103 H 0.23165 -0.23220 0.77134
 H104 H 0.26319 -0.25804 0.71471
 N105 N 0.66944 -0.24809 0.80219
 N106 N 0.68560 -0.29064 0.81644
 C107 C 0.65908 -0.30706 0.85605
 C108 C 0.62432 -0.27308 0.86665
 C109 C 0.63172 -0.23623 0.83179
 H110 H 0.66482 -0.34091 0.87586
 H111 H 0.61181 -0.20285 0.82905
 Cu112 Cu 0.73995 -0.32059 0.78255
 Cu113 Cu 0.70008 -0.21018 0.74822
 Cu114 Cu 0.80994 -0.25186 0.70504
 N115 N 0.80476 -0.33968 0.76333
 N116 N 0.83344 -0.31086 0.73666
 C117 C 0.87679 -0.33189 0.73125
 C118 C 0.87483 -0.37694 0.75480
 C119 C 0.82835 -0.38064 0.77458
 H120 H 0.90657 -0.31693 0.70921
 H121 H 0.81322 -0.41056 0.79638
 N122 N 0.77938 -0.19343 0.67741
 N123 N 0.73741 -0.17741 0.69399
 C124 C 0.72533 -0.13794 0.66686
 C125 C 0.76123 -0.12918 0.63136
 C126 C 0.79484 -0.16497 0.63884
 H127 H 0.69241 -0.11769 0.67161
 H128 H 0.82765 -0.17020 0.61720
 H129 H 0.73611 -0.26513 0.71080
 H130 H 0.76672 -0.23783 0.76726
 N131 N 0.32598 0.24223 0.80721
 N132 N 0.30762 0.28205 0.82591
 C133 C 0.33536 0.29730 0.86451
 C134 C 0.37320 0.26556 0.86964
 C135 C 0.36627 0.23105 0.83282
 H136 H 0.32856 0.32879 0.88747
 H137 H 0.38838 0.19971 0.82597
 Cu138 Cu 0.24912 0.30994 0.79845
 Cu139 Cu 0.29553 0.20683 0.75252
 Cu140 Cu 0.18897 0.25297 0.70518
 N141 N 0.18860 0.33436 0.77219
 N142 N 0.16481 0.31143 0.73647
 C143 C 0.12404 0.33552 0.72604
 C144 C 0.12240 0.37573 0.75672
 C145 C 0.16388 0.37408 0.78546
 H146 H 0.09776 0.32502 0.69789
 H147 H 0.17490 0.39983 0.81393
 N148 N 0.21924 0.19424 0.67856
 N149 N 0.25943 0.17620 0.69722
 C150 C 0.27118 0.13636 0.67099
 C151 C 0.23699 0.12944 0.63394
 C152 C 0.20461 0.16663 0.63959
 H153 H 0.30287 0.11465 0.67728
 H154 H 0.17322 0.17327 0.61648
 H155 H 0.26134 0.26548 0.72006
 H156 H 0.22608 0.22971 0.76832
 N157 N 0.32918 -0.23158 0.19514
 N158 N 0.30910 -0.27071 0.17581
 C159 C 0.33583 -0.28528 0.13613
 C160 C 0.37468 -0.25369 0.13058
 C161 C 0.36956 -0.22013 0.16866
 H162 H 0.32774 -0.31628 0.11272
 H163 H 0.39302 -0.18931 0.17590
 Cu164 Cu 0.24982 -0.29860 0.20404
 Cu165 Cu 0.30054 -0.19759 0.25204
 Cu166 Cu 0.19511 -0.24723 0.30347
 N167 N 0.19146 -0.32671 0.23412
 N168 N 0.16973 -0.30586 0.27244
 C169 C 0.12988 -0.33181 0.28521
 C170 C 0.12681 -0.37118 0.25344
 C171 C 0.16636 -0.36696 0.22147
 H172 H 0.10509 -0.32299 0.31546
 H173 H 0.17569 -0.39126 0.19113
 N174 N 0.22629 -0.18812 0.32963
 N175 N 0.26602 -0.16872 0.30966
 C176 C 0.27807 -0.12864 0.33582
 C177 C 0.24457 -0.12306 0.37415
 C178 C 0.21230 -0.16121 0.36925
 H179 H 0.30926 -0.10560 0.32830
 H180 H 0.18116 -0.16874 0.39309
 H181 H 0.26674 -0.25786 0.28357
 H182 H 0.23009 -0.22002 0.23971
 N183 N 0.67410 0.23409 0.19019
 N184 N 0.69404 0.27321 0.16990
 C185 C 0.66678 0.28809 0.13087
 C186 C 0.62766 0.25684 0.12690
 C187 C 0.63325 0.22298 0.16504
 H188 H 0.67457 0.31923 0.10702
 H189 H 0.60971 0.19229 0.17330
 Cu190 Cu 0.75336 0.30124 0.19652
 Cu191 Cu 0.70338 0.19985 0.24667
 Cu192 Cu 0.80893 0.24962 0.29558
 N193 N 0.81162 0.32953 0.22529
 N194 N 0.83365 0.30880 0.26353
 C195 C 0.87309 0.33536 0.27552
 C196 C 0.87554 0.37497 0.24331
 C197 C 0.83606 0.37023 0.21193
 H198 H 0.89793 0.32690 0.30565
 H199 H 0.82619 0.39463 0.18165
 N200 N 0.77826 0.18993 0.32276
 N201 N 0.73844 0.17060 0.30368
 C202 C 0.72677 0.13011 0.33007
 C203 C 0.76069 0.12396 0.36757
 C204 C 0.79269 0.16248 0.36207
 H205 H 0.69557 0.10710 0.32322
 H206 H 0.82399 0.16986 0.38525
 H207 H 0.73727 0.26019 0.27696
 H208 H 0.77377 0.22263 0.23279
 C209 C 0.25475 0.15364 0.52821
 C210 C 0.25536 0.15349 0.47641
 C211 C 0.24407 0.10655 0.46182
 N212 N 0.23632 0.07809 0.50296
 C213 C 0.24307 0.10678 0.54361
 C214 C 0.23939 0.09128 0.41122
 C215 C 0.23452 0.04223 0.39682
 C216 C 0.22089 0.02690 0.34908
 C217 C 0.22230 -0.02286 0.34964
 C218 C 0.23677 -0.03665 0.39772
 N219 N 0.24447 0.00327 0.42613
 C220 C 0.24407 -0.08509 0.41333
 C221 C 0.24891 -0.09964 0.46435
 C222 C 0.26101 -0.14591 0.48016
 C223 C 0.25960 -0.14577 0.53197
 C224 C 0.24679 -0.09939 0.54616
 N225 N 0.24001 -0.07133 0.50477
 C226 C 0.23964 -0.08444 0.59659
 C227 C 0.23216 -0.03586 0.61082
 C228 C 0.21668 -0.02153 0.65834
 C229 C 0.21594 0.02825 0.65774
 C230 C 0.23098 0.04301 0.60986
 N231 N 0.24110 0.00372 0.58161
 C232 C 0.23712 0.09183 0.59446
 H233 H 0.26230 0.18471 0.55177
 H234 H 0.26352 0.18442 0.45232
 H235 H 0.25817 0.00412 0.54656
 H236 H 0.21089 0.04923 0.31710
 H237 H 0.21354 -0.04620 0.31818
 H238 H 0.26998 -0.17664 0.45684
 H239 H 0.26725 -0.17634 0.55637
 H240 H 0.20558 0.05098 0.68909
 H241 H 0.26049 0.00407 0.46151
 H242 H 0.20703 -0.04455 0.69025
 C243 C 0.77883 -0.02820 0.65623
 C244 C 0.77941 0.02148 0.65611
 C245 C 0.76900 0.03604 0.60714
 N246 N 0.76184 -0.00306 0.57745
 C247 C 0.76808 -0.04239 0.60733
 C248 C 0.76408 0.08472 0.59141
 C249 C 0.75767 0.09922 0.54047
 C250 C 0.74307 0.14497 0.52544
 C251 C 0.74223 0.14514 0.47351
 C252 C 0.75639 0.09950 0.45803
 N253 N 0.76607 0.07182 0.49911
 C254 C 0.76142 0.08544 0.40689
 C255 C 0.76561 0.03679 0.39113
 C256 C 0.77507 0.02256 0.34191
 C257 C 0.77438 -0.02714 0.34204
 C258 C 0.76463 -0.04173 0.39135
 N259 N 0.75897 -0.00258 0.42124
 C260 C 0.75944 -0.09049 0.40739
 C261 C 0.75419 -0.10500 0.45858
 C262 C 0.73997 -0.15111 0.47432
 C263 C 0.74075 -0.15125 0.52628
 C264 C 0.75546 -0.10523 0.54101
 N265 N 0.76393 -0.07738 0.49948
 C266 C 0.76218 -0.09098 0.59183
 H267 H 0.78548 -0.05122 0.68869
 H268 H 0.78661 0.04424 0.68845
 H269 H 0.78016 -0.04328 0.49897
 H270 H 0.73366 0.17512 0.54938
 H271 H 0.73201 0.17546 0.44988
 H272 H 0.78188 0.04553 0.30924
 H273 H 0.78049 -0.04992 0.30952
 H274 H 0.73142 -0.18184 0.55042
 H275 H 0.78215 0.03807 0.49879
 H276 H 0.72994 -0.18156 0.45084
 C277 C 0.52788 0.27716 0.15461
 C278 C 0.47836 0.27937 0.15565
 C279 C 0.46276 0.26934 0.10707
 N280 N 0.50105 0.26084 0.07648
 C281 C 0.54093 0.26585 0.10542
 C282 C 0.41381 0.26596 0.09239
 C283 C 0.39881 0.26022 0.04176
 C284 C 0.35268 0.24569 0.02747
 C285 C 0.35210 0.24581 -0.02443
 C286 C 0.39787 0.26046 -0.04056
 N287 N 0.42608 0.26947 0.00005
 C288 C 0.41165 0.26659 -0.09179
 C289 C 0.46007 0.27121 -0.10848
 C290 C 0.47417 0.28195 -0.15775
 C291 C 0.52371 0.28051 -0.15882
 C292 C 0.53822 0.26900 -0.11016
 N293 N 0.49927 0.26308 -0.07952
 C294 C 0.58659 0.26174 -0.09556
 C295 C 0.60115 0.25404 -0.04504
 C296 C 0.64631 0.23756 -0.03097
 C297 C 0.64690 0.23648 0.02097
 C298 C 0.60211 0.25250 0.03733
 N299 N 0.57455 0.26340 -0.00318
 C300 C 0.58889 0.25862 0.08864
 H301 H 0.55153 0.28331 0.18647
 H302 H 0.45640 0.28748 0.18845
 H303 H 0.54168 0.28108 -0.00227
 H304 H 0.32256 0.23565 0.05186
 H305 H 0.32142 0.23593 -0.04760
 H306 H 0.45119 0.28986 -0.18967
 H307 H 0.54642 0.28698 -0.19173
 H308 H 0.67698 0.22517 0.04404
 H309 H 0.46017 0.28571 -0.00063
 H310 H 0.67584 0.22732 -0.05558
 C311 C 0.65031 0.74360 -0.02864
 C312 C 0.65092 0.74622 0.02302
 C313 C 0.60428 0.73551 0.03987
 N314 N 0.57517 0.72666 -0.00014
 C315 C 0.60329 0.73184 -0.04204
 C316 C 0.58937 0.73499 0.09139
 C317 C 0.53996 0.73379 0.10668
 C318 C 0.52386 0.72124 0.15495
 C319 C 0.47435 0.72395 0.15474
 C320 C 0.46114 0.73775 0.10631
 N321 N 0.50136 0.74398 0.07725
 C322 C 0.41278 0.74506 0.09100
 C323 C 0.39814 0.74850 0.04006
 C324 C 0.35215 0.76109 0.02441
 C325 C 0.35187 0.75746 -0.02725
 C326 C 0.39771 0.74288 -0.04149
 N327 N 0.42586 0.73716 -0.00027
 C328 C 0.41212 0.73338 -0.09169
 C329 C 0.46017 0.72318 -0.10615
 C330 C 0.47379 0.70669 -0.15351
 C331 C 0.52342 0.70440 -0.15370
 C332 C 0.53876 0.71945 -0.10642
 N333 N 0.50004 0.73094 -0.07774
 C334 C 0.58764 0.72550 -0.09240
 H335 H 0.68090 0.75051 -0.05352
 H336 H 0.68207 0.75637 0.04533
 H337 H 0.50132 0.74859 -0.04329
 H338 H 0.54540 0.71014 0.18693
 H339 H 0.45073 0.71583 0.18655
 H340 H 0.32187 0.77178 0.04774
 H341 H 0.32137 0.76469 -0.05152
 H342 H 0.54572 0.69342 -0.18529
 H343 H 0.50263 0.75848 0.04092
 H344 H 0.45044 0.69783 -0.18493
 C345 C 0.14862 0.52778 0.27472
 C346 C 0.14862 0.47815 0.27326
 C347 C 0.10304 0.46376 0.25721
 N348 N 0.07522 0.50290 0.24878
 C349 C 0.10301 0.54205 0.25960
 C350 C 0.08853 0.41534 0.24841
 C351 C 0.04016 0.40137 0.23848
 C352 C 0.02603 0.35647 0.22002
 C353 C -0.02363 0.35615 0.21833
 C354 C -0.03851 0.40090 0.23568
 N355 N 0.00055 0.42826 0.24791
 C356 C -0.08724 0.41412 0.24268
 C357 C -0.10226 0.46250 0.24881
 C358 C -0.14858 0.47577 0.26273
 C359 C -0.14888 0.52536 0.26315
 C360 C -0.10276 0.54104 0.24914
 N361 N -0.07423 0.50242 0.24044
 C362 C -0.08772 0.59030 0.24519
 C363 C -0.03830 0.60465 0.24130
 C364 C -0.02216 0.64980 0.22425
 C365 C 0.02740 0.64975 0.22636
 C366 C 0.04051 0.60450 0.24424
 N367 N 0.00028 0.57715 0.25336
 C368 C 0.08876 0.59056 0.25317
 H369 H 0.17879 0.55069 0.28571
 H370 H 0.17877 0.45536 0.28301
 H371 H -0.00090 0.54351 0.27127
 H372 H 0.04905 0.32687 0.20906
 H373 H -0.04620 0.32624 0.20586
 H374 H -0.17888 0.45223 0.27250
 H375 H -0.17940 0.54720 0.27400
 H376 H 0.05109 0.67956 0.21527
 H377 H -0.00021 0.46101 0.26701
 H378 H -0.04373 0.67957 0.21070
 C379 C -0.02571 0.64686 0.78224
 C380 C 0.02374 0.64747 0.78222
 C381 C 0.03825 0.60331 0.76302
 N382 N -0.00093 0.57543 0.75174
 C383 C -0.04011 0.60233 0.76308
 C384 C 0.08704 0.58953 0.75612
 C385 C 0.10003 0.54064 0.74825
 C386 C 0.14349 0.52580 0.72718
 C387 C 0.14271 0.47610 0.72767
 C388 C 0.09862 0.46180 0.74840
 N389 N 0.07261 0.50127 0.76066
 C390 C 0.08465 0.41323 0.75776
 C391 C 0.03630 0.39845 0.76604
 C392 C 0.02206 0.35293 0.78324
 C393 C -0.02744 0.35203 0.78281
 C394 C -0.04182 0.39691 0.76482
 N395 N -0.00272 0.42546 0.75493
 C396 C -0.09026 0.41057 0.75648
 C397 C -0.10315 0.45957 0.74828
 C398 C -0.14523 0.47409 0.72455
 C399 C -0.14471 0.52371 0.72415
 C400 C -0.10232 0.53854 0.74762
 N401 N -0.07675 0.49919 0.76172
 C402 C -0.08881 0.58758 0.75576
 H403 H -0.04840 0.67556 0.79614
 H404 H 0.04632 0.67670 0.79621
 H405 H -0.04526 0.49952 0.78318
 H406 H 0.17261 0.54829 0.71218
 H407 H 0.17125 0.45312 0.71383
 H408 H 0.04493 0.32350 0.79518
 H409 H -0.05012 0.32186 0.79503
 H410 H -0.17201 0.54624 0.70716
 H411 H 0.04018 0.50127 0.78088
 H412 H -0.17295 0.45141 0.70779
   
