data_POSCAR
  _audit_creation_date              2014-09-24
  _audit_creation_method            'ToBaCCo'
  _symmetry_space_group_name_H-M    'P1'
  _symmetry_Int_Tables_number       1
  _symmetry_cell_setting            triclinic
  loop_
  _symmetry_equiv_pos_as_xyz
 x,y,z
_cell_length_a 32.9002
_cell_length_b 22.1587
_cell_length_c 12.8917
_cell_angle_alpha 86.350500
_cell_angle_beta 89.819500
_cell_angle_gamma 90.190100
loop_
  _atom_site_label
  _atom_site_type_symbol
  _atom_site_fract_x
  _atom_site_fract_y
  _atom_site_fract_z
O1 O 0.73638 0.33045 0.52387
 O2 O 0.79572 0.21447 0.39984
 O3 O 0.73202 0.28057 0.34939
 O4 O 0.79842 0.26078 0.57806
 O5 O 0.75493 0.19465 0.65128
 O6 O 0.69304 0.20560 0.41337
 O7 O 0.75662 0.14322 0.47529
 O8 O 0.69336 0.26038 0.58634
 Cu9 Cu 0.76981 0.27871 0.45601
 Cu10 Cu 0.72033 0.19382 0.53842
 C11 C 0.70416 0.31548 0.57350
 C12 C 0.78706 0.15898 0.41878
 C13 C 0.70126 0.24632 0.34275
 C14 C 0.78790 0.22433 0.65344
 O15 O 0.24501 0.85206 0.52711
 O16 O 0.30634 0.73424 0.41199
 O17 O 0.24511 0.80032 0.35114
 O18 O 0.30778 0.78387 0.58710
 O19 O 0.26490 0.71566 0.65686
 O20 O 0.20169 0.73329 0.42213
 O21 O 0.26405 0.66476 0.48005
 O22 O 0.20362 0.78218 0.59758
 Cu23 Cu 0.28024 0.79999 0.46309
 Cu24 Cu 0.22942 0.71669 0.54562
 C25 C 0.21353 0.83732 0.58054
 C26 C 0.29572 0.67930 0.42742
 C27 C 0.21235 0.77023 0.34764
 C28 C 0.29744 0.74622 0.66088
 O29 O 0.24947 0.30659 -0.65445
 O30 O 0.19334 0.28951 -0.40766
 O31 O 0.25557 0.35376 -0.47454
 O32 O 0.19119 0.23593 -0.58264
 O33 O 0.23706 0.16768 -0.53297
 O34 O 0.29580 0.28251 -0.40524
 O35 O 0.23377 0.21444 -0.35408
 O36 O 0.29677 0.24509 -0.58877
 Cu37 Cu 0.21800 0.30338 -0.53573
 Cu38 Cu 0.27009 0.21992 -0.46524
 C39 C 0.28383 0.28149 -0.66148
 C40 C 0.20326 0.24802 -0.34042
 C41 C 0.28650 0.33779 -0.42060
 C42 C 0.20339 0.18140 -0.57591
 O43 O -0.30007 0.76373 -0.42047
 O44 O -0.24199 0.78762 -0.66226
 O45 O -0.29883 0.72167 -0.59390
 O46 O -0.23618 0.83729 -0.47633
 O47 O -0.19304 0.76813 -0.41358
 O48 O -0.25429 0.65313 -0.53664
 O49 O -0.19236 0.73211 -0.59255
 O50 O -0.25232 0.70353 -0.35264
 Cu51 Cu -0.27248 0.78664 -0.54170
 Cu52 Cu -0.21951 0.70527 -0.47069
 C53 C -0.28683 0.72860 -0.34677
 C54 C -0.20666 0.76538 -0.66775
 C55 C -0.28720 0.66711 -0.58351
 C56 C -0.20413 0.82282 -0.42573
 N57 N -0.04018 0.89465 0.13655
 N58 N -0.07144 0.87270 0.19111
 N59 N 0.04626 0.87789 0.04758
 N60 N 0.07848 0.84294 0.04013
 N61 N 0.04450 0.89968 0.13989
 N62 N 0.07482 0.87920 0.19850
 N63 N -0.03972 0.87351 0.04365
 N64 N -0.07131 0.83763 0.03170
 C65 C -0.09031 0.83687 0.12506
 C66 C 0.09571 0.84400 0.13524
 N67 N 0.04640 0.98333 -0.20688
 N68 N 0.07861 0.99324 -0.26708
 N69 N -0.03856 0.92407 -0.16798
 N70 N -0.06976 0.89222 -0.19868
 N71 N -0.03954 0.97932 -0.21125
 N72 N -0.07172 0.98680 -0.27162
 N73 N 0.04684 0.92809 -0.16374
 N74 N 0.07913 0.89863 -0.19412
 Mn75 Mn 0.00370 0.90014 -0.06055
 C76 C 0.09860 0.93990 -0.25854
 C77 C -0.09005 0.93195 -0.26344
 N78 N 0.04155 1.02026 0.21273
 N79 N 0.07344 1.01398 0.27448
 N80 N -0.04520 1.07014 0.16555
 N81 N -0.07780 1.09915 0.19497
 N82 N -0.04447 1.01492 0.20908
 N83 N -0.07689 1.00464 0.26842
 N84 N 0.03996 1.07556 0.16969
 N85 N 0.07032 1.10857 0.20194
 Mn86 Mn 0.00038 0.95720 0.17585
 C87 C 0.09084 1.06958 0.26740
 C88 C -0.09720 1.05773 0.25909
 N89 N -0.04226 1.09925 -0.13851
 N90 N -0.07265 1.11911 -0.19757
 N91 N 0.04096 1.12621 -0.04211
 N92 N 0.07121 1.16490 -0.03247
 N93 N 0.04287 1.10227 -0.13258
 N94 N 0.07459 1.12307 -0.18626
 N95 N -0.04474 1.12054 -0.04598
 N96 N -0.07738 1.15468 -0.03892
 Mn97 Mn 0.00189 1.04128 -0.17343
 Mn98 Mn -0.00232 1.09883 0.06228
 Cl99 Cl 0.00090 0.99931 0.00110
 C100 C -0.09421 1.15358 -0.13450
 C101 C 0.09188 1.16205 -0.12310
 N102 N 0.45498 0.42706 -0.16388
 N103 N 0.42230 0.39810 -0.19328
 N104 N 0.54198 0.47700 -0.20976
 N105 N 0.57387 0.48317 -0.27207
 N106 N 0.54025 0.42192 -0.16579
 N107 N 0.57064 0.38897 -0.19762
 N108 N 0.45610 0.48219 -0.20771
 N109 N 0.42393 0.49248 -0.26724
 C110 C 0.40332 0.43946 -0.25771
 C111 C 0.59126 0.42779 -0.26393
 N112 N 0.54637 0.61964 -0.04585
 N113 N 0.57914 0.65368 -0.03752
 N114 N 0.46028 0.60232 -0.13626
 N115 N 0.43063 0.62613 -0.19366
 N116 N 0.46031 0.62407 -0.04389
 N117 N 0.43005 0.66257 -0.03522
 N118 N 0.54495 0.59760 -0.13795
 N119 N 0.57602 0.61704 -0.19563
 Mn120 Mn 0.50086 0.53994 -0.17411
 C121 C 0.59702 0.65186 -0.13201
 C122 C 0.41208 0.66349 -0.12967
 N123 N 0.53971 0.37150 0.04624
 N124 N 0.56901 0.33128 0.03863
 N125 N 0.45603 0.39837 0.14056
 N126 N 0.42429 0.38014 0.19719
 N127 N 0.45416 0.37716 0.04785
 N128 N 0.42067 0.34501 0.03813
 N129 N 0.54131 0.39566 0.13657
 N130 N 0.57197 0.37349 0.19212
 Mn131 Mn 0.49723 0.39871 -0.05938
 C132 C 0.58890 0.33348 0.13017
 C133 C 0.40280 0.34645 0.13256
 N134 N 0.46014 0.57419 0.16813
 N135 N 0.42937 0.60663 0.19924
 N136 N 0.54479 0.51530 0.20952
 N137 N 0.57700 0.50601 0.26947
 N138 N 0.54537 0.57037 0.16554
 N139 N 0.57763 0.60025 0.19490
 N140 N 0.45872 0.51913 0.21229
 N141 N 0.42662 0.51243 0.27382
 Mn142 Mn 0.50302 0.59778 0.06142
 Mn143 Mn 0.50023 0.45685 0.17602
 Cl144 Cl 0.50031 0.49832 0.00104
 C145 C 0.40882 0.56753 0.26519
 C146 C 0.59701 0.55960 0.25968
 N147 N 0.32881 0.34156 0.10305
 N148 N 0.29488 0.32567 0.16404
 C149 C 0.30824 0.29656 0.25233
 C150 C 0.35037 0.29348 0.25026
 C151 C 0.36198 0.32316 0.15688
 H152 H 0.37014 0.27808 0.31345
 H153 H 0.32825 0.36964 0.03486
 H154 H 0.26500 0.33800 0.14582
 N155 N -0.16359 0.82344 0.09307
 N156 N -0.19704 0.80616 0.15495
 C157 C -0.18281 0.78009 0.24487
 C158 C -0.14066 0.78010 0.24273
 C159 C -0.12990 0.80877 0.14784
 H160 H -0.12053 0.76812 0.30701
 H161 H -0.16504 0.85077 0.02413
 H162 H -0.22727 0.81605 0.13633
 N163 N 0.65937 0.53155 0.36209
 N164 N 0.69066 0.56005 0.40117
 C165 C 0.68679 0.61980 0.37683
 C166 C 0.65184 0.62976 0.31911
 C167 C 0.63531 0.57280 0.31183
 H168 H 0.63937 0.67265 0.28979
 H169 H 0.65451 0.48489 0.37081
 H170 H 0.71357 0.53908 0.44607
 N171 N 0.15533 1.04434 0.36037
 N172 N 0.18755 1.07621 0.40130
 C173 C 0.17924 1.13569 0.38680
 C174 C 0.14238 1.14321 0.33536
 C175 C 0.12852 1.08517 0.32043
 H176 H 0.12729 1.18535 0.31288
 H177 H 0.15322 0.99730 0.36043
 H178 H 0.21276 1.05647 0.43875
 N179 N 0.65327 0.45220 -0.36996
 N180 N 0.68353 0.42251 -0.41080
 C181 C 0.67839 0.36291 -0.38672
 C182 C 0.64351 0.35418 -0.32719
 C183 C 0.62852 0.41197 -0.31863
 H184 H 0.63035 0.31181 -0.29686
 H185 H 0.64966 0.49909 -0.37786
 H186 H 0.70679 0.44272 -0.45615
 N187 N 0.16075 0.97094 -0.35997
 N188 N 0.19370 0.94178 -0.40322
 C189 C 0.18876 0.88188 -0.38155
 C190 C 0.15357 0.87158 -0.32327
 C191 C 0.13695 0.92811 -0.31200
 H192 H 0.14091 0.82834 -0.29548
 H193 H 0.15577 1.01756 -0.36572
 H194 H 0.21677 0.96320 -0.44764
 N195 N 0.34502 0.71019 -0.09439
 N196 N 0.31398 0.73145 -0.15048
 C197 C 0.32497 0.73465 -0.25143
 C198 C 0.36417 0.71373 -0.26046
 C199 C 0.37570 0.69825 -0.15936
 H200 H 0.38062 0.70585 -0.33118
 H201 H 0.34412 0.70039 -0.01408
 H202 H 0.28541 0.74124 -0.12037
 N203 N -0.16405 1.19125 -0.10121
 N204 N -0.19581 1.20905 -0.15783
 C205 C -0.18453 1.21365 -0.25855
 C206 C -0.14427 1.19728 -0.26691
 C207 C -0.13249 1.18299 -0.16556
 H208 H -0.12695 1.19208 -0.33731
 H209 H -0.16476 1.18163 -0.02085
 H210 H -0.22487 1.21604 -0.12813
 N211 N 0.66779 0.68664 -0.09987
 N212 N 0.69924 0.70560 -0.15755
 C213 C 0.68688 0.71404 -0.25692
 C214 C 0.64628 0.69918 -0.26333
 C215 C 0.63538 0.68165 -0.16243
 H216 H 0.62801 0.69722 -0.33276
 H217 H 0.66920 0.67410 -0.02048
 H218 H 0.72871 0.71101 -0.12964
 N219 N 0.13540 1.25434 -0.12522
 N220 N 0.16501 1.27787 -0.18478
 C221 C 0.17735 1.23603 -0.24929
 C222 C 0.15447 1.18422 -0.23150
 C223 C 0.12797 1.19782 -0.15311
 H224 H 0.15422 1.14467 -0.27672
 H225 H 0.11870 1.27820 -0.07237
 H226 H 0.17505 1.32264 -0.18468
 N227 N 0.34120 0.47056 -0.35812
 N228 N 0.30967 0.44358 -0.39899
 C229 C 0.31302 0.38349 -0.37828
 C230 C 0.34778 0.37162 -0.32058
 C231 C 0.36483 0.42791 -0.31003
 H232 H 0.35984 0.32801 -0.29371
 H233 H 0.34646 0.51717 -0.36404
 H234 H 0.28673 0.46577 -0.44189
 N235 N -0.15333 0.95866 -0.36190
 N236 N -0.18407 0.92972 -0.40242
 C237 C -0.17859 0.86985 -0.38367
 C238 C -0.14315 0.86012 -0.32761
 C239 C -0.12803 0.91754 -0.31590
 H240 H -0.12958 0.81731 -0.30204
 H241 H -0.14980 1.00563 -0.36629
 H242 H -0.20799 0.95057 -0.44354
 N243 N 0.34572 0.54248 0.36698
 N244 N 0.31533 0.57212 0.40750
 C245 C 0.32119 0.63183 0.38663
 C246 C 0.35656 0.64073 0.32917
 C247 C 0.37121 0.58294 0.31883
 H248 H 0.37032 0.68321 0.30151
 H249 H 0.34884 0.49549 0.37265
 H250 H 0.29132 0.55187 0.44985
 N251 N -0.15987 1.02609 0.35745
 N252 N -0.19301 1.05502 0.40013
 C253 C -0.18797 1.11498 0.38002
 C254 C -0.15258 1.12567 0.32281
 C255 C -0.13585 1.06920 0.31119
 H256 H -0.13977 1.16906 0.29646
 H257 H -0.15495 0.97945 0.36231
 H258 H -0.21671 1.03342 0.44184
 N259 N 0.62971 0.23868 0.13609
 N260 N 0.65932 0.21480 0.19443
 C261 C 0.67315 0.25711 0.25614
 C262 C 0.65122 0.30960 0.23795
 C263 C 0.62379 0.29595 0.16197
 H264 H 0.65270 0.35021 0.28031
 H265 H 0.61227 0.21489 0.08469
 H266 H 0.66872 0.16982 0.19455
 N267 N 0.16506 0.80456 0.10190
 N268 N 0.19656 0.78587 0.15872
 C269 C 0.18507 0.78119 0.25929
 C270 C 0.14500 0.79842 0.26737
 C271 C 0.13352 0.81332 0.16605
 H272 H 0.12767 0.80396 0.33766
 H273 H 0.16600 0.81456 0.02164
 H274 H 0.22561 0.77848 0.12933
   
