data_POSCAR
  _audit_creation_date              2014-09-24
  _audit_creation_method            'ToBaCCo'
  _symmetry_space_group_name_H-M    'P1'
  _symmetry_Int_Tables_number       1
  _symmetry_cell_setting            triclinic
  loop_
  _symmetry_equiv_pos_as_xyz
 x,y,z
_cell_length_a 49.8358
_cell_length_b 49.7307
_cell_length_c 35.2449
_cell_angle_alpha 90.106500
_cell_angle_beta 90.092400
_cell_angle_gamma 92.402500
loop_
  _atom_site_label
  _atom_site_type_symbol
  _atom_site_fract_x
  _atom_site_fract_y
  _atom_site_fract_z
O1 O -0.03086 0.28490 0.03906
 O2 O 0.02507 0.28363 -0.02991
 O3 O -0.02769 0.28580 -0.03470
 O4 O 0.02201 0.28338 0.04307
 O5 O 0.01881 0.23897 0.04130
 O6 O -0.03125 0.24139 -0.03489
 O7 O 0.02009 0.23941 -0.03243
 O8 O -0.03311 0.24046 0.03891
 Cu9 Cu -0.00263 0.28894 0.00451
 Cu10 Cu -0.00675 0.23566 0.00325
 C11 C -0.04142 0.26272 0.05077
 C12 C 0.03213 0.26113 -0.04299
 C13 C -0.03795 0.26391 -0.04798
 C14 C 0.02925 0.26066 0.05487
 O15 O 0.48163 0.78546 0.53544
 O16 O 0.53249 0.78452 0.45908
 O17 O 0.47970 0.78446 0.46192
 O18 O 0.53461 0.78615 0.53248
 O19 O 0.53266 0.74173 0.53406
 O20 O 0.47869 0.74003 0.46320
 O21 O 0.53044 0.74009 0.46054
 O22 O 0.48072 0.74105 0.53688
 Cu23 Cu 0.50725 0.78966 0.49714
 Cu24 Cu 0.50546 0.73631 0.49888
 C25 C 0.47238 0.76326 0.54892
 C26 C 0.54017 0.76200 0.44698
 C27 C 0.46983 0.76186 0.45064
 C28 C 0.54316 0.76413 0.54496
 O29 O 0.97836 0.71936 -0.04255
 O30 O 1.02872 0.71618 0.03436
 O31 O 0.97596 0.71741 0.03064
 O32 O 1.03162 0.71801 -0.03884
 O33 O 1.03328 0.76236 -0.03744
 O34 O 0.97911 0.76179 0.03270
 O35 O 1.03109 0.76059 0.03645
 O36 O 0.98223 0.76367 -0.04088
 Cu37 Cu 1.00339 0.71323 -0.00439
 Cu38 Cu 1.00674 0.76650 -0.00186
 C39 C 0.97161 0.74218 -0.05477
 C40 C 1.03860 0.73801 0.04828
 C41 C 0.96792 0.73965 0.04321
 C42 C 1.04197 0.74043 -0.05005
 O43 O 0.52101 0.21437 0.54312
 O44 O 0.46713 0.21164 0.47062
 O45 O 0.52018 0.21276 0.46922
 O46 O 0.46814 0.21312 0.54388
 O47 O 0.46960 0.25756 0.54231
 O48 O 0.52045 0.25714 0.46740
 O49 O 0.46854 0.25606 0.46884
 O50 O 0.52145 0.25875 0.54126
 Cu51 Cu 0.49412 0.20846 0.50684
 Cu52 Cu 0.49517 0.26178 0.50475
 C53 C 0.53035 0.23716 0.55456
 C54 C 0.45847 0.23352 0.45779
 C55 C 0.52917 0.23501 0.45564
 C56 C 0.45988 0.23552 0.55552
 O57 O 0.70738 -0.02886 0.02440
 O58 O 0.71111 0.02545 -0.04794
 O59 O 0.71187 -0.02696 -0.04802
 O60 O 0.70451 0.02445 0.02672
 O61 O 0.74817 0.02475 0.03789
 O62 O 0.75578 -0.02016 -0.04392
 O63 O 0.75304 0.03396 -0.03021
 O64 O 0.75137 -0.02439 0.03166
 Cu65 Cu 0.70414 -0.00162 -0.01180
 Cu66 Cu 0.75659 0.00311 -0.00239
 C67 C 0.72905 -0.03612 0.03977
 C68 C 0.73257 0.04023 -0.04914
 C69 C 0.73536 -0.03232 -0.05861
 C70 C 0.72502 0.03303 0.04544
 O71 O 0.20791 0.52299 0.46909
 O72 O 0.20783 0.47074 0.54373
 O73 O 0.20886 0.52387 0.54269
 O74 O 0.20691 0.46988 0.47026
 O75 O 0.25126 0.47142 0.46924
 O76 O 0.25319 0.52423 0.54178
 O77 O 0.25218 0.47230 0.54279
 O78 O 0.25224 0.52338 0.46804
 Cu79 Cu 0.20337 0.49679 0.50654
 Cu80 Cu 0.25662 0.49796 0.50536
 C81 C 0.23023 0.53211 0.45600
 C82 C 0.23012 0.46252 0.55572
 C83 C 0.23150 0.53326 0.55441
 C84 C 0.22889 0.46135 0.45768
 O85 O 0.28755 1.02828 0.04479
 O86 O 0.29471 0.97653 -0.02965
 O87 O 0.28940 1.02934 -0.02809
 O88 O 0.29264 0.97556 0.04415
 O89 O 0.24846 0.97001 0.04154
 O90 O 0.24547 1.02233 -0.03104
 O91 O 0.25053 0.97101 -0.03213
 O92 O 0.24360 1.02122 0.04285
 Cu93 Cu 0.29557 1.00295 0.00802
 Cu94 Cu 0.24266 0.99552 0.00500
 C95 C 0.26422 1.03374 0.05636
 C96 C 0.27365 0.96499 -0.04350
 C97 C 0.26669 1.03523 -0.04162
 C98 C 0.27091 0.96374 0.05515
 O99 O 0.79066 0.47553 0.45437
 O100 O 0.79450 0.52977 0.52639
 O101 O 0.79279 0.47651 0.52779
 O102 O 0.79207 0.52853 0.45291
 O103 O 0.74775 0.52733 0.45543
 O104 O 0.74852 0.47671 0.53058
 O105 O 0.75019 0.52873 0.52902
 O106 O 0.74638 0.47549 0.45699
 Cu107 Cu 0.79702 0.50265 0.49017
 Cu108 Cu 0.74382 0.50202 0.49332
 C109 C 0.76775 0.46624 0.44357
 C110 C 0.77287 0.53861 0.53968
 C111 C 0.77061 0.46764 0.54165
 C112 C 0.76964 0.53676 0.44152
 C113 C 0.22631 0.19496 0.21005
 C114 C 0.20221 0.20492 0.19671
 C115 C 0.19255 0.22931 0.20944
 C116 C 0.20771 0.24481 0.23621
 C117 C 0.23233 0.23518 0.25007
 C118 C 0.24155 0.21005 0.23730
 C119 C 0.26547 0.20060 0.25256
 C120 C 0.28090 0.21611 0.27798
 C121 C 0.27244 0.24118 0.29059
 C122 C 0.24772 0.25068 0.27691
 C123 C 0.19880 0.26945 0.24986
 C124 C 0.21414 0.28488 0.27547
 C125 C 0.23858 0.27586 0.28951
 C126 C 0.25444 0.29153 0.31529
 C127 C 0.27888 0.28203 0.32795
 C128 C 0.28815 0.25726 0.31609
 H129 H 0.27261 0.18108 0.24507
 H130 H 0.29958 0.20815 0.28762
 H131 H 0.17987 0.27718 0.24079
 H132 H 0.20662 0.30405 0.28400
 H133 H 0.19081 0.19361 0.17532
 H134 H 0.29092 0.29415 0.34777
 C135 C 0.73625 0.69925 0.28766
 C136 C 0.71160 0.70811 0.30048
 C137 C 0.70126 0.73225 0.28796
 C138 C 0.71589 0.74809 0.26115
 C139 C 0.74105 0.73947 0.24787
 C140 C 0.75134 0.71503 0.26128
 C141 C 0.77621 0.70690 0.24760
 C142 C 0.79109 0.72277 0.22209
 C143 C 0.78125 0.74691 0.20814
 C144 C 0.75591 0.75531 0.22103
 C145 C 0.70588 0.77205 0.24684
 C146 C 0.72058 0.78771 0.22093
 C147 C 0.74557 0.77970 0.20757
 C148 C 0.76077 0.79567 0.18161
 C149 C 0.78576 0.78726 0.16951
 C150 C 0.79623 0.76322 0.18220
 H151 H 0.78452 0.68820 0.25654
 H152 H 0.81045 0.71584 0.21352
 H153 H 0.68652 0.77896 0.25545
 H154 H 0.71211 0.80625 0.21157
 H155 H 0.70043 0.69618 0.32135
 H156 H 0.79723 0.79964 0.14948
 C157 C 0.78754 0.23504 0.19399
 C158 C 0.77649 0.21004 0.18240
 C159 C 0.75118 0.20051 0.19458
 C160 C 0.73619 0.21636 0.21946
 C161 C 0.74715 0.24170 0.23191
 C162 C 0.77285 0.25117 0.21898
 C163 C 0.78331 0.27622 0.23192
 C164 C 0.76871 0.29193 0.25649
 C165 C 0.74348 0.28281 0.27017
 C166 C 0.73252 0.25746 0.25770
 C167 C 0.71079 0.20738 0.23268
 C168 C 0.69631 0.22298 0.25753
 C169 C 0.70691 0.24789 0.27083
 C170 C 0.69248 0.26374 0.29646
 C171 C 0.70355 0.28867 0.30821
 C172 C 0.72867 0.29847 0.29561
 H173 H 0.80294 0.28398 0.22327
 H174 H 0.77752 0.31133 0.26465
 H175 H 0.70186 0.18814 0.22398
 H176 H 0.67664 0.21528 0.26614
 H177 H 0.78775 0.19781 0.16305
 H178 H 0.69254 0.30055 0.32830
 C179 C 0.30065 0.73191 0.30298
 C180 C 0.28954 0.70707 0.31485
 C181 C 0.26411 0.69756 0.30297
 C182 C 0.24903 0.71341 0.27814
 C183 C 0.26002 0.73868 0.26557
 C184 C 0.28592 0.74799 0.27803
 C185 C 0.29649 0.77287 0.26478
 C186 C 0.28171 0.78872 0.24066
 C187 C 0.25612 0.77993 0.22784
 C188 C 0.24516 0.75462 0.24031
 C189 C 0.22350 0.70454 0.26512
 C190 C 0.20874 0.72036 0.24091
 C191 C 0.21926 0.74532 0.22785
 C192 C 0.20446 0.76150 0.20312
 C193 C 0.21552 0.78641 0.19144
 C194 C 0.24095 0.79589 0.20332
 H195 H 0.31636 0.78040 0.27285
 H196 H 0.29063 0.80798 0.23220
 H197 H 0.21462 0.68525 0.27349
 H198 H 0.18893 0.71279 0.23263
 H199 H 0.30079 0.69503 0.33444
 H200 H 0.20418 0.79858 0.17213
 C201 C 0.79928 0.24041 0.79256
 C202 C 0.78809 0.21678 0.80825
 C203 C 0.76093 0.20895 0.80359
 C204 C 0.74471 0.22449 0.77962
 C205 C 0.75629 0.24773 0.76138
 C206 C 0.78346 0.25602 0.76857
 C207 C 0.79414 0.27960 0.75151
 C208 C 0.77843 0.29506 0.72815
 C209 C 0.75170 0.28701 0.71980
 C210 C 0.74045 0.26318 0.73670
 C211 C 0.71720 0.21814 0.77422
 C212 C 0.70194 0.23277 0.74907
 C213 C 0.71329 0.25498 0.72942
 C214 C 0.69795 0.26989 0.70372
 C215 C 0.70932 0.29341 0.68768
 C216 C 0.73565 0.30242 0.69569
 H217 H 0.81482 0.28636 0.75602
 H218 H 0.78758 0.31336 0.71664
 H219 H 0.70700 0.20194 0.78947
 H220 H 0.68092 0.22684 0.74582
 H221 H 0.80063 0.20485 0.82626
 H222 H 0.69752 0.30482 0.66798
 C223 C 0.30663 0.73491 0.70300
 C224 C 0.29512 0.71038 0.69040
 C225 C 0.26967 0.70103 0.70226
 C226 C 0.25492 0.71675 0.72768
 C227 C 0.26645 0.74152 0.74136
 C228 C 0.29239 0.75068 0.72896
 C229 C 0.30351 0.77507 0.74327
 C230 C 0.28930 0.79054 0.76859
 C231 C 0.26368 0.78189 0.78132
 C232 C 0.25209 0.75711 0.76770
 C233 C 0.22915 0.70828 0.74009
 C234 C 0.21474 0.72396 0.76493
 C235 C 0.22599 0.74814 0.77980
 C236 C 0.21176 0.76398 0.80581
 C237 C 0.22376 0.78816 0.81905
 C238 C 0.24909 0.79753 0.80688
 H239 H 0.32341 0.78245 0.73518
 H240 H 0.29867 0.80937 0.77816
 H241 H 0.21975 0.68946 0.73062
 H242 H 0.19464 0.71682 0.77221
 H243 H 0.30608 0.69844 0.67032
 H244 H 0.21303 0.80020 0.83924
 C245 C 0.23498 0.20199 0.81425
 C246 C 0.21085 0.21168 0.82773
 C247 C 0.20034 0.23548 0.81423
 C248 C 0.21498 0.25093 0.78696
 C249 C 0.23993 0.24183 0.77353
 C250 C 0.24988 0.21718 0.78695
 C251 C 0.27411 0.20822 0.77216
 C252 C 0.28892 0.22360 0.74606
 C253 C 0.27956 0.24802 0.73239
 C254 C 0.25472 0.25717 0.74603
 C255 C 0.20519 0.27486 0.77219
 C256 C 0.22004 0.29025 0.74613
 C257 C 0.24476 0.28175 0.73247
 C258 C 0.26001 0.29727 0.70597
 C259 C 0.28452 0.28805 0.69323
 C260 C 0.29448 0.26376 0.70578
 H261 H 0.28199 0.18921 0.78055
 H262 H 0.30785 0.21605 0.73675
 H263 H 0.18592 0.28207 0.78058
 H264 H 0.21184 0.30891 0.73679
 H265 H 0.19976 0.20020 0.84915
 H266 H 0.29598 0.29991 0.67259
 C267 C 0.75017 0.70877 0.68229
 C268 C 0.72520 0.71748 0.67054
 C269 C 0.71528 0.74184 0.68292
 C270 C 0.73077 0.75825 0.70826
 C271 C 0.75616 0.74969 0.72075
 C272 C 0.76607 0.72503 0.70734
 C273 C 0.79133 0.71715 0.71979
 C274 C 0.80662 0.73307 0.74491
 C275 C 0.79677 0.75694 0.75995
 C276 C 0.77145 0.76559 0.74726
 C277 C 0.72139 0.78267 0.72195
 C278 C 0.73662 0.79853 0.74717
 C279 C 0.76139 0.79013 0.76092
 C280 C 0.77656 0.80569 0.78765
 C281 C 0.80117 0.79659 0.80023
 C282 C 0.81162 0.77265 0.78691
 H283 H 0.79961 0.69856 0.71026
 H284 H 0.82627 0.72635 0.75238
 H285 H 0.70209 0.78981 0.71346
 H286 H 0.72863 0.81746 0.75582
 H287 H 0.71321 0.70501 0.65106
 H288 H 0.81226 0.80823 0.82159
 C289 C 0.25187 0.09803 0.13117
 C290 C 0.27696 0.09610 0.11355
 C291 C 0.28169 0.07367 0.09060
 C292 C 0.26088 0.05417 0.08326
 C293 C 0.23591 0.05645 0.10162
 C294 C 0.23148 0.07803 0.12604
 C295 C 0.24640 0.12199 0.15415
 C296 C 0.22133 0.12376 0.17187
 C297 C 0.21580 0.14700 0.19236
 C298 C 0.23459 0.16894 0.19379
 C299 C 0.25965 0.16688 0.17573
 C300 C 0.26588 0.14317 0.15655
 C301 C 0.20677 0.08036 0.14462
 C302 C 0.20188 0.10272 0.16750
 C303 C 0.29641 0.11719 0.11801
 C304 C 0.29084 0.14047 0.13873
 H305 H 0.19097 0.06492 0.14111
 H306 H 0.18245 0.10390 0.18101
 H307 H 0.31583 0.11602 0.10448
 H308 H 0.30611 0.15657 0.14057
 H309 H 0.30094 0.07238 0.07656
 H310 H 0.21980 0.04147 0.09686
 H311 H 0.19639 0.14858 0.20586
 H312 H 0.27391 0.18395 0.17575
 C313 C 0.77009 0.60765 0.61133
 C314 C 0.75123 0.58617 0.61630
 C315 C 0.75303 0.56306 0.59383
 C316 C 0.77363 0.56124 0.56681
 C317 C 0.79314 0.58240 0.56334
 C318 C 0.79118 0.60593 0.58513
 C319 C 0.76683 0.63292 0.63250
 C320 C 0.78453 0.65512 0.62561
 C321 C 0.77995 0.67979 0.64349
 C322 C 0.75802 0.68208 0.66826
 C323 C 0.74110 0.65938 0.67584
 C324 C 0.74521 0.63483 0.65772
 C325 C 0.80911 0.62822 0.58011
 C326 C 0.80576 0.65243 0.59986
 C327 C 0.73031 0.58861 0.64258
 C328 C 0.72742 0.61251 0.66307
 H329 H 0.82546 0.62717 0.56001
 H330 H 0.81963 0.66934 0.59440
 H331 H 0.71574 0.57211 0.64679
 H332 H 0.71070 0.61377 0.68252
 H333 H 0.73802 0.54676 0.59662
 H334 H 0.80883 0.58119 0.54220
 H335 H 0.79266 0.69741 0.63708
 H336 H 0.72403 0.66127 0.69455
 C337 C 0.73522 0.89516 0.11077
 C338 C 0.71427 0.89556 0.08404
 C339 C 0.71097 0.91893 0.06240
 C340 C 0.72899 0.94129 0.06678
 C341 C 0.74925 0.94080 0.09460
 C342 C 0.75249 0.91781 0.11664
 C343 C 0.74010 0.87011 0.13153
 C344 C 0.76175 0.86952 0.15706
 C345 C 0.76744 0.84527 0.17480
 C346 C 0.75190 0.82170 0.16685
 C347 C 0.72992 0.82263 0.14183
 C348 C 0.72389 0.84690 0.12404
 C349 C 0.77339 0.91667 0.14328
 C350 C 0.77792 0.89292 0.16322
 C351 C 0.69789 0.87220 0.07831
 C352 C 0.70266 0.84826 0.09791
 H353 H 0.78674 0.93410 0.14814
 H354 H 0.79461 0.89269 0.18295
 H355 H 0.68165 0.87222 0.05784
 H356 H 0.68994 0.83054 0.09199
 H357 H 0.69553 0.91914 0.04072
 H358 H 0.76309 0.95804 0.09816
 H359 H 0.78453 0.84439 0.19381
 H360 H 0.71822 0.80432 0.13534
 C361 C 0.23673 0.39583 0.63058
 C362 C 0.21442 0.39665 0.60623
 C363 C 0.21129 0.41944 0.58340
 C364 C 0.23081 0.44075 0.58400
 C365 C 0.25268 0.43985 0.60921
 C366 C 0.25568 0.41749 0.63269
 C367 C 0.24109 0.37129 0.65283
 C368 C 0.26386 0.37026 0.67623
 C369 C 0.26887 0.34637 0.69543
 C370 C 0.25166 0.32344 0.69075
 C371 C 0.22866 0.32487 0.66771
 C372 C 0.22318 0.34888 0.64880
 C373 C 0.27782 0.41594 0.65719
 C374 C 0.28178 0.39275 0.67872
 C375 C 0.19639 0.37419 0.60405
 C376 C 0.20077 0.35067 0.62482
 H377 H 0.29248 0.43260 0.65919
 H378 H 0.29938 0.39218 0.69674
 H379 H 0.17911 0.37454 0.58539
 H380 H 0.18673 0.33358 0.62157
 H381 H 0.19462 0.41993 0.56366
 H382 H 0.26770 0.45626 0.60979
 H383 H 0.28676 0.34514 0.71280
 H384 H 0.21570 0.30706 0.66348
 C385 C 0.88939 0.25695 0.12190
 C386 C 0.90941 0.23808 0.12563
 C387 C 0.93256 0.24082 0.10330
 C388 C 0.93591 0.26234 0.07764
 C389 C 0.91623 0.28178 0.07537
 C390 C 0.89263 0.27891 0.09705
 C391 C 0.86402 0.25289 0.14306
 C392 C 0.84324 0.27072 0.13750
 C393 C 0.81843 0.26556 0.15553
 C394 C 0.81461 0.24297 0.17925
 C395 C 0.83593 0.22582 0.18538
 C396 C 0.86059 0.23050 0.16706
 C397 C 0.87175 0.29687 0.09327
 C398 C 0.84742 0.29277 0.11300
 C399 C 0.90547 0.21632 0.15062
 C400 C 0.88150 0.21265 0.17112
 H401 H 0.87397 0.31388 0.07421
 H402 H 0.83162 0.30674 0.10857
 H403 H 0.92085 0.20172 0.15386
 H404 H 0.87907 0.19534 0.18961
 H405 H 0.94773 0.22586 0.10518
 H406 H 0.91861 0.29820 0.05530
 H407 H 0.80185 0.27847 0.15019
 H408 H 0.83288 0.20825 0.20329
 C409 C 0.40633 0.75737 0.62578
 C410 C 0.42616 0.73815 0.62718
 C411 C 0.44842 0.74094 0.60308
 C412 C 0.45101 0.76281 0.57787
 C413 C 0.43160 0.78259 0.57800
 C414 C 0.40892 0.77972 0.60152
 C415 C 0.38175 0.75324 0.64867
 C416 C 0.36106 0.77144 0.64538
 C417 C 0.33683 0.76618 0.66483
 C418 C 0.33345 0.74304 0.68758
 C419 C 0.35474 0.72554 0.69157
 C420 C 0.37883 0.73038 0.67188
 C421 C 0.38823 0.79805 0.60010
 C422 C 0.36466 0.79392 0.62152
 C423 C 0.42284 0.71596 0.65157
 C424 C 0.39960 0.71219 0.67366
 H425 H 0.38997 0.81538 0.58154
 H426 H 0.34891 0.80818 0.61885
 H427 H 0.43809 0.70109 0.65302
 H428 H 0.39759 0.69452 0.69153
 H429 H 0.46337 0.72571 0.60317
 H430 H 0.43336 0.79930 0.55832
 H431 H 0.32025 0.77937 0.66113
 H432 H 0.35201 0.70756 0.70874
 C433 C 0.10434 0.74118 0.12593
 C434 C 0.08469 0.76055 0.12836
 C435 C 0.06251 0.75868 0.10392
 C436 C 0.05979 0.73752 0.07746
 C437 C 0.07896 0.71752 0.07658
 C438 C 0.10160 0.71953 0.10036
 C439 C 0.12894 0.74450 0.14907
 C440 C 0.14954 0.72630 0.14460
 C441 C 0.17389 0.73100 0.16409
 C442 C 0.17745 0.75353 0.18810
 C443 C 0.15621 0.77090 0.19342
 C444 C 0.13202 0.76670 0.17362
 C445 C 0.12214 0.70109 0.09786
 C446 C 0.14577 0.70450 0.11945
 C447 C 0.08816 0.78202 0.15409
 C448 C 0.11139 0.78498 0.17647
 H449 H 0.12027 0.68430 0.07827
 H450 H 0.16143 0.69025 0.11588
 H451 H 0.07305 0.79698 0.15636
 H452 H 0.11355 0.80214 0.19538
 H453 H 0.04772 0.77406 0.10472
 H454 H 0.07707 0.70137 0.05592
 H455 H 0.19044 0.71794 0.15936
 H456 H 0.15910 0.78843 0.21156
 C457 C 0.59699 0.24571 0.63074
 C458 C 0.57802 0.26578 0.62934
 C459 C 0.55572 0.26231 0.60534
 C460 C 0.55222 0.23896 0.58292
 C461 C 0.57082 0.21849 0.58580
 C462 C 0.59352 0.22196 0.60930
 C463 C 0.62163 0.25031 0.65352
 C464 C 0.64150 0.23110 0.65292
 C465 C 0.66596 0.23674 0.67176
 C466 C 0.67046 0.26136 0.69103
 C467 C 0.64983 0.27981 0.69278
 C468 C 0.62550 0.27455 0.67371
 C469 C 0.61336 0.20271 0.61066
 C470 C 0.63700 0.20726 0.63196
 C471 C 0.58221 0.28936 0.65092
 C472 C 0.60553 0.29364 0.67283
 H473 H 0.61093 0.18429 0.59433
 H474 H 0.65211 0.19222 0.63138
 H475 H 0.56762 0.30490 0.65023
 H476 H 0.60828 0.31238 0.68836
 H477 H 0.54137 0.27806 0.60343
 H478 H 0.56834 0.20056 0.56840
 H479 H 0.68200 0.22274 0.66975
 H480 H 0.65338 0.29888 0.70731
 C481 C 0.73787 0.11301 0.89052
 C482 C 0.75092 0.11077 0.92558
 C483 C 0.74974 0.08610 0.94443
 C484 C 0.73372 0.06427 0.93031
 C485 C 0.71925 0.06733 0.89622
 C486 C 0.72245 0.09132 0.87517
 C487 C 0.74116 0.13832 0.86901
 C488 C 0.73110 0.13967 0.83187
 C489 C 0.73693 0.16294 0.81014
 C490 C 0.75092 0.18537 0.82655
 C491 C 0.75892 0.18410 0.86488
 C492 C 0.75529 0.16033 0.88554
 C493 C 0.71135 0.09390 0.83869
 C494 C 0.71615 0.11741 0.81706
 C495 C 0.76501 0.13323 0.94111
 C496 C 0.76666 0.15780 0.92176
 H497 H 0.69958 0.07731 0.82627
 H498 H 0.70801 0.11820 0.78858
 H499 H 0.77481 0.13180 0.96846
 H500 H 0.77774 0.17467 0.93466
 H501 H 0.76037 0.08428 0.97114
 H502 H 0.70707 0.05058 0.88493
 H503 H 0.73132 0.16327 0.78044
 H504 H 0.76959 0.20121 0.87788
 C505 C 0.23758 0.59838 0.37953
 C506 C 0.21604 0.59700 0.40522
 C507 C 0.21257 0.57431 0.42868
 C508 C 0.23107 0.55369 0.42735
 C509 C 0.25215 0.55512 0.40083
 C510 C 0.25544 0.57736 0.37672
 C511 C 0.24244 0.62290 0.35663
 C512 C 0.26454 0.62455 0.33196
 C513 C 0.27024 0.64855 0.31233
 C514 C 0.25444 0.67101 0.31791
 C515 C 0.23198 0.66891 0.34206
 C516 C 0.22579 0.64477 0.36142
 C517 C 0.27686 0.57945 0.35090
 C518 C 0.28127 0.60262 0.32876
 C519 C 0.19916 0.61887 0.40807
 C520 C 0.20404 0.64239 0.38669
 H521 H 0.29066 0.56328 0.34834
 H522 H 0.29835 0.60367 0.30976
 H523 H 0.18246 0.61807 0.42774
 H524 H 0.19097 0.65905 0.39053
 H525 H 0.19651 0.57340 0.44940
 H526 H 0.26637 0.53922 0.39968
 H527 H 0.28774 0.65030 0.29411
 H528 H 0.22014 0.68637 0.34699
 C529 C 0.27238 0.89854 0.88025
 C530 C 0.29242 0.90052 0.90834
 C531 C 0.29424 0.92352 0.93161
 C532 C 0.27552 0.94374 0.92765
 C533 C 0.25614 0.94181 0.89863
 C534 C 0.25452 0.91930 0.87474
 C535 C 0.26884 0.87354 0.85789
 C536 C 0.24798 0.87122 0.83109
 C537 C 0.24315 0.84669 0.81229
 C538 C 0.25854 0.82442 0.82077
 C539 C 0.27994 0.82719 0.84677
 C540 C 0.28522 0.85184 0.86546
 C541 C 0.23455 0.91658 0.84669
 C542 C 0.23140 0.89296 0.82510
 C543 C 0.30924 0.87886 0.91386
 C544 C 0.30562 0.85489 0.89291
 H545 H 0.22080 0.93257 0.84206
 H546 H 0.21530 0.89138 0.80441
 H547 H 0.32480 0.88012 0.93538
 H548 H 0.31849 0.83838 0.89889
 H549 H 0.30893 0.92484 0.95433
 H550 H 0.24173 0.95742 0.89561
 H551 H 0.22646 0.84437 0.79260
 H552 H 0.29147 0.80985 0.85374
 C553 C 0.75706 0.39841 0.37003
 C554 C 0.73913 0.41940 0.36795
 C555 C 0.74339 0.44207 0.39115
 C556 C 0.76553 0.44396 0.41597
 C557 C 0.78400 0.42331 0.41660
 C558 C 0.77958 0.40019 0.39410
 C559 C 0.75140 0.37357 0.34800
 C560 C 0.76826 0.35180 0.35203
 C561 C 0.76154 0.32746 0.33335
 C562 C 0.73837 0.32508 0.31047
 C563 C 0.72224 0.34739 0.30575
 C564 C 0.72847 0.37159 0.32479
 C565 C 0.79655 0.37837 0.39629
 C566 C 0.79090 0.35453 0.37578
 C567 C 0.71678 0.41692 0.34369
 C568 C 0.71160 0.39344 0.32233
 H569 H 0.81397 0.37947 0.41473
 H570 H 0.80414 0.33794 0.37901
 H571 H 0.70290 0.43306 0.34170
 H572 H 0.69387 0.39213 0.30447
 H573 H 0.72920 0.45801 0.39054
 H574 H 0.80089 0.42458 0.43604
 H575 H 0.77364 0.31011 0.33766
 H576 H 0.70421 0.34544 0.28852
 C577 C 0.09968 0.25452 0.88672
 C578 C 0.09602 0.27878 0.90610
 C579 C 0.07256 0.28167 0.92760
 C580 C 0.05373 0.25983 0.93164
 C581 C 0.05777 0.23577 0.91150
 C582 C 0.08040 0.23318 0.88861
 C583 C 0.12468 0.25090 0.86533
 C584 C 0.12819 0.22661 0.84599
 C585 C 0.15239 0.22273 0.82716
 C586 C 0.17352 0.24239 0.82887
 C587 C 0.16972 0.26673 0.84832
 C588 C 0.14507 0.27128 0.86605
 C589 C 0.08448 0.20933 0.86840
 C590 C 0.10787 0.20620 0.84712
 C591 C 0.11639 0.29920 0.90480
 C592 C 0.14062 0.29539 0.88549
 H593 H 0.06960 0.19282 0.86942
 H594 H 0.11040 0.18737 0.83231
 H595 H 0.11389 0.31800 0.91969
 H596 H 0.15608 0.31136 0.88609
 H597 H 0.06991 0.30025 0.94304
 H598 H 0.04333 0.21891 0.91367
 H599 H 0.15534 0.20388 0.81253
 H600 H 0.18613 0.28166 0.85050
 C601 C 0.60479 0.75470 0.36881
 C602 C 0.58363 0.73515 0.36905
 C603 C 0.56196 0.73830 0.39366
 C604 C 0.56124 0.76088 0.41773
 C605 C 0.58202 0.78091 0.41603
 C606 C 0.60413 0.77769 0.39199
 C607 C 0.62865 0.75035 0.34524
 C608 C 0.65060 0.76899 0.34683
 C609 C 0.67405 0.76367 0.32660
 C610 C 0.67539 0.74008 0.30464
 C611 C 0.65290 0.72206 0.30244
 C612 C 0.62957 0.72695 0.32298
 C613 C 0.62608 0.79638 0.39178
 C614 C 0.64898 0.79204 0.36972
 C615 C 0.58501 0.71235 0.34566
 C616 C 0.60756 0.70837 0.32289
 H617 H 0.62584 0.81419 0.40950
 H618 H 0.66572 0.80663 0.37109
 H619 H 0.56873 0.69721 0.34547
 H620 H 0.60804 0.69027 0.30578
 H621 H 0.54593 0.72288 0.39479
 H622 H 0.58169 0.79817 0.43482
 H623 H 0.69155 0.77727 0.32895
 H624 H 0.65406 0.70374 0.28590
 C625 C 0.90866 0.75072 0.86722
 C626 C 0.91115 0.72597 0.88576
 C627 C 0.93332 0.72241 0.90968
 C628 C 0.95181 0.74409 0.91712
 C629 C 0.94903 0.76864 0.89774
 C630 C 0.92783 0.77188 0.87234
 C631 C 0.88486 0.75507 0.84346
 C632 C 0.88250 0.77984 0.82499
 C633 C 0.85928 0.78443 0.80405
 C634 C 0.83787 0.76505 0.80300
 C635 C 0.84056 0.74023 0.82162
 C636 C 0.86431 0.73492 0.84126
 C637 C 0.92500 0.79622 0.85286
 C638 C 0.90284 0.80002 0.82923
 C639 C 0.89078 0.70577 0.88134
 C640 C 0.86760 0.71030 0.85988
 H641 H 0.93984 0.81260 0.85634
 H642 H 0.90120 0.81923 0.81512
 H643 H 0.89237 0.68660 0.89555
 H644 H 0.85200 0.69450 0.85819
 H645 H 0.93503 0.70347 0.92451
 H646 H 0.96330 0.78538 0.90252
 H647 H 0.85720 0.80366 0.79010
 H648 H 0.82390 0.72550 0.82184
 C649 C 0.38923 0.23738 0.38698
 C650 C 0.39116 0.21576 0.41230
 C651 C 0.41475 0.21349 0.43377
 C652 C 0.43577 0.23320 0.43085
 C653 C 0.43372 0.25436 0.40470
 C654 C 0.41054 0.25649 0.38256
 C655 C 0.36392 0.24086 0.36611
 C656 C 0.36181 0.26295 0.34168
 C657 C 0.33728 0.26712 0.32367
 C658 C 0.31481 0.24975 0.33053
 C659 C 0.31728 0.22745 0.35465
 C660 C 0.34193 0.22281 0.37239
 C661 C 0.40787 0.27793 0.35713
 C662 C 0.38395 0.28104 0.33690
 C663 C 0.36905 0.19755 0.41680
 C664 C 0.34481 0.20109 0.39733
 H665 H 0.42424 0.29271 0.35335
 H666 H 0.38254 0.29813 0.31808
 H667 H 0.37026 0.18079 0.43624
 H668 H 0.32806 0.18696 0.40232
 H669 H 0.41612 0.19737 0.45425
 H670 H 0.44989 0.26954 0.40233
 H671 H 0.33527 0.28447 0.30546
 H672 H 0.29983 0.21438 0.36053
 C673 C 0.74878 0.90196 0.86648
 C674 C 0.76744 0.92393 0.86747
 C675 C 0.76257 0.94592 0.89113
 C676 C 0.73906 0.94614 0.91321
 C677 C 0.72009 0.92439 0.91076
 C678 C 0.72507 0.90202 0.88792
 C679 C 0.75473 0.87797 0.84380
 C680 C 0.73693 0.85530 0.84477
 C681 C 0.74362 0.83188 0.82527
 C682 C 0.76759 0.83131 0.80424
 C683 C 0.78482 0.85447 0.80278
 C684 C 0.77866 0.87775 0.82288
 C685 C 0.70731 0.87931 0.88717
 C686 C 0.71323 0.85628 0.86616
 C687 C 0.79095 0.92312 0.84562
 C688 C 0.79639 0.90048 0.82354
 H689 H 0.68896 0.87910 0.90364
 H690 H 0.69928 0.83899 0.86702
 H691 H 0.80543 0.93999 0.84599
 H692 H 0.81492 0.90053 0.80750
 H693 H 0.77722 0.96261 0.89290
 H694 H 0.70212 0.92427 0.92808
 H695 H 0.73066 0.81388 0.82728
 H696 H 0.80348 0.85395 0.78705
 C697 C 0.23364 0.39254 0.38606
 C698 C 0.21159 0.39442 0.41058
 C699 C 0.20906 0.41790 0.43229
 C700 C 0.22890 0.43886 0.43040
 C701 C 0.25046 0.43690 0.40496
 C702 C 0.25290 0.41383 0.38262
 C703 C 0.23743 0.36730 0.36509
 C704 C 0.25997 0.36521 0.34157
 C705 C 0.26442 0.34069 0.32358
 C706 C 0.24685 0.31823 0.32955
 C707 C 0.22409 0.32069 0.35269
 C708 C 0.21919 0.34532 0.37043
 C709 C 0.27478 0.41122 0.35802
 C710 C 0.27820 0.38734 0.33771
 C711 C 0.19322 0.37234 0.41410
 C712 C 0.19703 0.34816 0.39450
 H713 H 0.28967 0.42758 0.35501
 H714 H 0.29563 0.38595 0.31958
 H715 H 0.17613 0.37352 0.43289
 H716 H 0.18275 0.33141 0.39874
 H717 H 0.19260 0.41921 0.45220
 H718 H 0.26573 0.45305 0.40336
 H719 H 0.28211 0.33866 0.30609
 H720 H 0.21084 0.30324 0.35785
 C721 C 0.25764 0.10216 0.88728
 C722 C 0.28201 0.09944 0.90666
 C723 C 0.28575 0.07619 0.92836
 C724 C 0.26462 0.05657 0.93260
 C725 C 0.24044 0.05964 0.91240
 C726 C 0.23703 0.08212 0.88934
 C727 C 0.25312 0.12697 0.86574
 C728 C 0.22870 0.12956 0.84645
 C729 C 0.22395 0.15358 0.82748
 C730 C 0.24284 0.17542 0.82899
 C731 C 0.26731 0.17252 0.84839
 C732 C 0.27275 0.14808 0.86627
 C733 C 0.21304 0.08528 0.86916
 C734 C 0.20905 0.10851 0.84776
 C735 C 0.30168 0.12053 0.90517
 C736 C 0.29701 0.14455 0.88569
 H737 H 0.19708 0.06983 0.87031
 H738 H 0.19013 0.11032 0.83299
 H739 H 0.32056 0.11877 0.92005
 H740 H 0.31241 0.16059 0.88615
 H741 H 0.30440 0.07429 0.94382
 H742 H 0.22412 0.04461 0.91475
 H743 H 0.20499 0.15582 0.81291
 H744 H 0.28165 0.18947 0.85044
 C745 C 0.76173 0.60214 0.36490
 C746 C 0.78415 0.60204 0.38913
 C747 C 0.78774 0.57965 0.41257
 C748 C 0.76855 0.55806 0.41267
 C749 C 0.74659 0.55822 0.38756
 C750 C 0.74313 0.58015 0.36348
 C751 C 0.75684 0.62628 0.34208
 C752 C 0.73393 0.62661 0.31884
 C753 C 0.72838 0.65015 0.29916
 C754 C 0.74518 0.67342 0.30324
 C755 C 0.76833 0.67270 0.32611
 C756 C 0.77435 0.64904 0.34548
 C757 C 0.72087 0.58097 0.33909
 C758 C 0.71641 0.60378 0.31700
 C759 C 0.80180 0.62482 0.39064
 C760 C 0.79691 0.64797 0.36933
 H761 H 0.70649 0.56405 0.33762
 H762 H 0.69871 0.60382 0.29911
 H763 H 0.81917 0.62502 0.40919
 H764 H 0.81065 0.66534 0.37207
 H765 H 0.80449 0.57970 0.43224
 H766 H 0.73184 0.54156 0.38754
 H767 H 0.71038 0.65085 0.28193
 H768 H 0.78096 0.69079 0.32987
 C769 C 0.10942 0.74592 0.87832
 C770 C 0.09248 0.76767 0.88103
 C771 C 0.06994 0.76551 0.90458
 C772 C 0.06347 0.74140 0.92424
 C773 C 0.07983 0.71913 0.91925
 C774 C 0.10340 0.72166 0.89740
 C775 C 0.13456 0.74912 0.85645
 C776 C 0.15293 0.72845 0.85675
 C777 C 0.17800 0.73274 0.83897
 C778 C 0.18411 0.75705 0.81968
 C779 C 0.16476 0.77686 0.81803
 C780 C 0.14033 0.77335 0.83721
 C781 C 0.12166 0.70089 0.89549
 C782 C 0.14617 0.70437 0.87598
 C783 C 0.09877 0.79145 0.86093
 C784 C 0.12215 0.79413 0.83899
 H785 H 0.11736 0.68208 0.91017
 H786 H 0.16004 0.68816 0.87624
 H787 H 0.08567 0.80827 0.86253
 H788 H 0.12644 0.81293 0.82428
 H789 H 0.05736 0.78267 0.90746
 H790 H 0.07530 0.70052 0.93439
 H791 H 0.19302 0.71768 0.84122
 H792 H 0.16942 0.79568 0.80348
 C793 C 0.59436 0.24096 0.37726
 C794 C 0.57422 0.25985 0.37588
 C795 C 0.55237 0.25713 0.40071
 C796 C 0.55046 0.23561 0.42659
 C797 C 0.57021 0.21616 0.42655
 C798 C 0.59250 0.21901 0.40230
 C799 C 0.61848 0.24503 0.35340
 C800 C 0.63951 0.22721 0.35661
 C801 C 0.66334 0.23250 0.33622
 C802 C 0.66597 0.25527 0.31261
 C803 C 0.64432 0.27231 0.30867
 C804 C 0.62063 0.26748 0.32932
 C805 C 0.61350 0.20102 0.40364
 C806 C 0.63666 0.20512 0.38133
 C807 C 0.57677 0.28163 0.35065
 C808 C 0.59956 0.28533 0.32764
 H809 H 0.61233 0.18400 0.42279
 H810 H 0.65267 0.19116 0.38396
 H811 H 0.56127 0.29624 0.34920
 H812 H 0.60100 0.30268 0.30911
 H813 H 0.53713 0.27207 0.40053
 H814 H 0.56894 0.19972 0.44669
 H815 H 0.68021 0.21968 0.33989
 H816 H 0.64648 0.29002 0.29085
 C817 C 0.89875 0.26091 0.87021
 C818 C 0.91755 0.24065 0.87047
 C819 C 0.93890 0.24239 0.89637
 C820 C 0.94162 0.26425 0.92171
 C821 C 0.92336 0.28506 0.91992
 C822 C 0.90154 0.28324 0.89461
 C823 C 0.87482 0.25780 0.84563
 C824 C 0.85488 0.27689 0.84764
 C825 C 0.83082 0.27225 0.82745
 C826 C 0.82678 0.24879 0.80539
 C827 C 0.84758 0.23065 0.80204
 C828 C 0.87150 0.23483 0.82256
 C829 C 0.88179 0.30259 0.89443
 C830 C 0.85878 0.29940 0.87150
 C831 C 0.91403 0.21849 0.84593
 C832 C 0.89142 0.21568 0.82226
 H833 H 0.88371 0.31993 0.91304
 H834 H 0.84361 0.31434 0.87316
 H835 H 0.92852 0.20285 0.84570
 H836 H 0.88909 0.19792 0.80451
 H837 H 0.95302 0.22641 0.89752
 H838 H 0.92525 0.30180 0.93964
 H839 H 0.81460 0.28592 0.83078
 H840 H 0.84432 0.21238 0.78551
 C841 C 0.40145 0.75456 0.37781
 C842 C 0.42139 0.73550 0.37550
 C843 C 0.44422 0.73855 0.39858
 C844 C 0.44731 0.76061 0.42347
 C845 C 0.42769 0.78017 0.42437
 C846 C 0.40443 0.77698 0.40200
 C847 C 0.37645 0.75028 0.35580
 C848 C 0.35571 0.76834 0.36000
 C849 C 0.33118 0.76298 0.34126
 C850 C 0.32760 0.74001 0.31810
 C851 C 0.34891 0.72264 0.31324
 C852 C 0.37327 0.72749 0.33237
 C853 C 0.38363 0.79514 0.40440
 C854 C 0.35962 0.79080 0.38392
 C855 C 0.41773 0.71330 0.35107
 C856 C 0.39411 0.70943 0.32972
 H857 H 0.38566 0.81250 0.42295
 H858 H 0.34383 0.80495 0.38728
 H859 H 0.43306 0.69855 0.34891
 H860 H 0.39187 0.69180 0.31170
 H861 H 0.45936 0.72353 0.39772
 H862 H 0.42989 0.79702 0.44384
 H863 H 0.31458 0.77605 0.34568
 H864 H 0.34602 0.70477 0.29578
 C865 C 0.26597 0.89663 0.13004
 C866 C 0.24796 0.91742 0.13415
 C867 C 0.25063 0.94001 0.11064
 C868 C 0.27123 0.94204 0.08346
 C869 C 0.28997 0.92172 0.08086
 C870 C 0.28710 0.89863 0.10370
 C871 C 0.26160 0.87166 0.15213
 C872 C 0.27829 0.84999 0.14596
 C873 C 0.27249 0.82544 0.16450
 C874 C 0.25034 0.82274 0.18917
 C875 C 0.23454 0.84499 0.19615
 C876 C 0.23985 0.86940 0.17737
 C877 C 0.30408 0.87694 0.09950
 C878 C 0.29966 0.85300 0.12012
 C879 C 0.22695 0.91471 0.16055
 C880 C 0.22304 0.89113 0.18194
 H881 H 0.32046 0.87820 0.07932
 H882 H 0.31277 0.83650 0.11523
 H883 H 0.21306 0.93071 0.16411
 H884 H 0.20623 0.88960 0.20140
 H885 H 0.23621 0.95569 0.11263
 H886 H 0.30562 0.92312 0.05953
 H887 H 0.28434 0.80814 0.15854
 H888 H 0.21729 0.84278 0.21478
 C889 C 0.76280 0.40068 0.61659
 C890 C 0.74648 0.42274 0.62175
 C891 C 0.75007 0.44522 0.59817
 C892 C 0.76997 0.44586 0.56991
 C893 C 0.78704 0.42417 0.56619
 C894 C 0.78319 0.40123 0.58908
 C895 C 0.75751 0.37606 0.63908
 C896 C 0.77256 0.35329 0.63216
 C897 C 0.76608 0.32930 0.65171
 C898 C 0.74505 0.32829 0.67836
 C899 C 0.73070 0.35150 0.68566
 C900 C 0.73664 0.37536 0.66583
 C901 C 0.79848 0.37838 0.58392
 C902 C 0.79316 0.35478 0.60495
 C903 C 0.72621 0.42148 0.64940
 C904 C 0.72145 0.39822 0.67122
 H905 H 0.81425 0.37852 0.56280
 H906 H 0.80500 0.33741 0.59945
 H907 H 0.71360 0.43844 0.65375
 H908 H 0.70533 0.39789 0.69182
 H909 H 0.73692 0.46194 0.60105
 H910 H 0.80212 0.42448 0.54404
 H911 H 0.77677 0.31127 0.64551
 H912 H 0.71428 0.35059 0.70584
 C913 C 0.72652 0.09936 0.12195
 C914 C 0.70673 0.09771 0.09348
 C915 C 0.70465 0.07468 0.07030
 C916 C 0.72279 0.05397 0.07482
 C917 C 0.74171 0.05548 0.10452
 C918 C 0.74371 0.07814 0.12812
 C919 C 0.73055 0.12447 0.14397
 C920 C 0.75133 0.12654 0.17094
 C921 C 0.75666 0.15114 0.18937
 C922 C 0.74170 0.17366 0.18058
 C923 C 0.72037 0.17114 0.15442
 C924 C 0.71472 0.14649 0.13591
 C925 C 0.76355 0.08059 0.15641
 C926 C 0.76726 0.10438 0.17753
 C927 C 0.69050 0.11976 0.08741
 C928 C 0.69447 0.14375 0.10819
 H929 H 0.77682 0.06427 0.16154
 H930 H 0.78327 0.10574 0.19837
 H931 H 0.67514 0.11876 0.06561
 H932 H 0.68204 0.16053 0.10182
 H933 H 0.69031 0.07376 0.04713
 H934 H 0.75570 0.03954 0.10808
 H935 H 0.77329 0.15326 0.20919
 H936 H 0.70917 0.18865 0.14722
 C937 C 0.24109 0.60111 0.62800
 C938 C 0.25849 0.57974 0.63144
 C939 C 0.25446 0.55702 0.60829
 C940 C 0.23309 0.55546 0.58216
 C941 C 0.21506 0.57646 0.58021
 C942 C 0.21928 0.59963 0.60266
 C943 C 0.24668 0.62601 0.64991
 C944 C 0.23046 0.64814 0.64453
 C945 C 0.23722 0.67251 0.66313
 C946 C 0.25978 0.67455 0.68723
 C947 C 0.27523 0.65191 0.69325
 C948 C 0.26898 0.62768 0.67434
 C949 C 0.20288 0.62182 0.59915
 C950 C 0.20846 0.64571 0.61957
 C951 C 0.28016 0.58192 0.65692
 C952 C 0.28525 0.60546 0.67816
 H953 H 0.18600 0.62096 0.57972
 H954 H 0.19572 0.66257 0.61529
 H955 H 0.29361 0.56549 0.65995
 H956 H 0.30248 0.60653 0.69698
 H957 H 0.26831 0.54082 0.60988
 H958 H 0.19878 0.57543 0.55973
 H959 H 0.22565 0.69010 0.65788
 H960 H 0.29280 0.65362 0.71143
 C961 C 0.89782 0.74474 0.11201
 C962 C 0.90050 0.72221 0.08842
 C963 C 0.92424 0.71979 0.06748
 C964 C 0.94475 0.74013 0.06922
 C965 C 0.94191 0.76228 0.09361
 C966 C 0.91854 0.76464 0.11518
 C967 C 0.87239 0.74817 0.13249
 C968 C 0.86955 0.77106 0.15530
 C969 C 0.84492 0.77497 0.17311
 C970 C 0.82309 0.75650 0.16771
 C971 C 0.82629 0.73348 0.14510
 C972 C 0.85103 0.72912 0.12758
 C973 C 0.91513 0.78695 0.13893
 C974 C 0.89108 0.79005 0.15877
 C975 C 0.87899 0.70313 0.08519
 C976 C 0.85464 0.70659 0.10430
 H977 H 0.93104 0.80237 0.14173
 H978 H 0.88911 0.80777 0.17633
 H979 H 0.88078 0.68566 0.06710
 H980 H 0.83838 0.69169 0.10038
 H981 H 0.92619 0.70284 0.04844
 H982 H 0.95768 0.77795 0.09516
 H983 H 0.84235 0.79286 0.19016
 H984 H 0.80932 0.71953 0.14031
 C985 C 0.39311 0.24199 0.62999
 C986 C 0.39437 0.21935 0.60625
 C987 C 0.41719 0.21635 0.58355
 C988 C 0.43809 0.23630 0.58366
 C989 C 0.43675 0.25853 0.60823
 C990 C 0.41436 0.26143 0.63160
 C991 C 0.36855 0.24614 0.65215
 C992 C 0.36708 0.26919 0.67501
 C993 C 0.34318 0.27388 0.69426
 C994 C 0.32069 0.25606 0.69015
 C995 C 0.32253 0.23285 0.66753
 C996 C 0.34656 0.22768 0.64862
 C997 C 0.41238 0.28387 0.65552
 C998 C 0.38917 0.28763 0.67701
 C999 C 0.37232 0.20081 0.60453
 C1000 C 0.34877 0.20498 0.62521
 H1001 H 0.42872 0.29891 0.65714
 H1002 H 0.38825 0.30545 0.69461
 H1003 H 0.37303 0.18327 0.58634
 H1004 H 0.33200 0.19053 0.62237
 H1005 H 0.41802 0.19938 0.56429
 H1006 H 0.45286 0.27388 0.60843
 H1007 H 0.34163 0.29192 0.71132
 H1008 H 0.30503 0.21941 0.66374
 C1009 C 0.09512 0.25259 0.13103
 C1010 C 0.09434 0.27551 0.10788
 C1011 C 0.07185 0.27894 0.08458
 C1012 C 0.05078 0.25916 0.08349
 C1013 C 0.05167 0.23660 0.10744
 C1014 C 0.07373 0.23328 0.13143
 C1015 C 0.11932 0.24807 0.15393
 C1016 C 0.12031 0.22480 0.17630
 C1017 C 0.14388 0.21978 0.19628
 C1018 C 0.16656 0.23749 0.19335
 C1019 C 0.16519 0.26093 0.17120
 C1020 C 0.14147 0.26643 0.15162
 C1021 C 0.07524 0.21057 0.15485
 C1022 C 0.09810 0.20646 0.17705
 C1023 C 0.11651 0.29393 0.10736
 C1024 C 0.13974 0.28939 0.12869
 H1025 H 0.05881 0.19561 0.15554
 H1026 H 0.09864 0.18845 0.19424
 H1027 H 0.11618 0.31168 0.08962
 H1028 H 0.15662 0.30377 0.12677
 H1029 H 0.07140 0.29618 0.06584
 H1030 H 0.03546 0.22136 0.10675
 H1031 H 0.14506 0.20155 0.21294
 H1032 H 0.18283 0.27426 0.16822
 C1033 C 0.61322 0.76022 0.61407
 C1034 C 0.61055 0.78231 0.58977
 C1035 C 0.58674 0.78445 0.56883
 C1036 C 0.56620 0.76420 0.57125
 C1037 C 0.56898 0.74254 0.59638
 C1038 C 0.59241 0.74049 0.61799
 C1039 C 0.63876 0.75696 0.63440
 C1040 C 0.64161 0.73445 0.65785
 C1041 C 0.66637 0.73060 0.67537
 C1042 C 0.68833 0.74871 0.66897
 C1043 C 0.68512 0.77138 0.64581
 C1044 C 0.66024 0.77571 0.62860
 C1045 C 0.59580 0.71862 0.64243
 C1046 C 0.61997 0.71570 0.66215
 C1047 C 0.63216 0.80116 0.58574
 C1048 C 0.65663 0.79785 0.60468
 H1049 H 0.57982 0.70336 0.64581
 H1050 H 0.62195 0.69829 0.68022
 H1051 H 0.63037 0.81829 0.56709
 H1052 H 0.67299 0.81252 0.60009
 H1053 H 0.58480 0.80100 0.54917
 H1054 H 0.55316 0.72696 0.59839
 H1055 H 0.66897 0.71297 0.69286
 H1056 H 0.70219 0.78505 0.64029
   
