data_POSCAR
  _audit_creation_date              2014-09-24
  _audit_creation_method            'ToBaCCo'
  _symmetry_space_group_name_H-M    'P1'
  _symmetry_Int_Tables_number       1
  _symmetry_cell_setting            triclinic
  loop_
  _symmetry_equiv_pos_as_xyz
 x,y,z
_cell_length_a 63.0382
_cell_length_b 63.0577
_cell_length_c 18.4605
_cell_angle_alpha 90.018700
_cell_angle_beta 89.998700
_cell_angle_gamma 119.924000
loop_
  _atom_site_label
  _atom_site_type_symbol
  _atom_site_fract_x
  _atom_site_fract_y
  _atom_site_fract_z
C1 C 0.23071 0.50103 0.46167
 C2 C 0.23037 0.50041 0.53912
 C3 C 0.24942 0.49932 0.57589
 C4 C 0.26888 0.49903 0.53929
 C5 C 0.26923 0.50006 0.46237
 C6 C 0.25052 0.50139 0.42535
 H7 H 0.25098 0.50163 0.36661
 H8 H 0.24914 0.49881 0.63458
 C9 C 0.50044 -0.26928 0.46061
 C10 C 0.49721 -0.27073 0.53711
 C11 C 0.49582 -0.25202 0.57423
 C12 C 0.49866 -0.23103 0.53849
 C13 C 0.50175 -0.22967 0.46198
 C14 C 0.50295 -0.24844 0.42483
 H15 H 0.50416 -0.24743 0.36622
 H16 H 0.49452 -0.25302 0.63283
 C17 C 1.27044 0.76886 0.45969
 C18 C 1.26927 0.76964 0.53671
 C19 C 1.24954 0.75058 0.57378
 C20 C 1.23097 0.73048 0.53695
 C21 C 1.23200 0.72945 0.46064
 C22 C 1.25187 0.74827 0.42330
 H23 H 1.25179 0.74756 0.36462
 H24 H 1.24907 0.75100 0.63248
 C25 C 0.77084 0.50278 0.46322
 C26 C 0.76943 0.49952 0.53971
 C27 C 0.74857 0.49699 0.57598
 C28 C 0.73006 0.49918 0.53962
 C29 C 0.73179 0.50229 0.46312
 C30 C 0.75212 0.50419 0.42660
 H31 H 0.75283 0.50565 0.36798
 H32 H 0.74796 0.49586 0.63459
 C33 C 0.50365 0.27126 0.46295
 C34 C 0.50058 0.26993 0.53945
 C35 C 0.49817 0.24917 0.57578
 C36 C 0.50003 0.23048 0.53942
 C37 C 0.50330 0.23227 0.46294
 C38 C 0.50528 0.25265 0.42638
 H39 H 0.50666 0.25334 0.36775
 H40 H 0.49713 0.24868 0.63439
 C41 C 0.72998 0.23138 0.46186
 C42 C 0.73125 0.23014 0.53804
 C43 C 0.75117 0.24894 0.57519
 C44 C 0.76979 0.26951 0.53889
 C45 C 0.76836 0.27054 0.46200
 C46 C 0.74839 0.25165 0.42510
 H47 H 0.74781 0.25214 0.36643
 H48 H 0.75126 0.24806 0.63384
 O49 O 1.03395 0.55338 0.13306
 O50 O 1.06097 0.54786 0.06386
 C51 C 1.05600 0.55888 0.11472
 O52 O 0.96564 0.44395 0.12599
 O53 O 0.93874 0.45066 0.06007
 C54 C 0.94361 0.43854 0.10754
 O55 O 1.03401 0.48041 0.13404
 O56 O 1.06106 0.51257 0.06384
 C57 C 1.05608 0.49673 0.11521
 O58 O 0.96528 0.52079 0.12590
 O59 O 0.93850 0.48709 0.06011
 C60 C 0.94328 0.50408 0.10754
 Zr61 Zr 0.99971 0.52630 0.09100
 O62 O 0.99717 0.52606 0.20547
 O63 O 1.00067 0.56019 0.08331
 Zr64 Zr 0.99992 0.47265 0.08974
 O65 O 0.99746 0.46904 0.20371
 O66 O 1.00294 0.44074 0.08212
 O67 O 1.02152 0.51036 0.10504
 O68 O 0.97866 0.48887 0.10386
 O69 O 0.96564 0.52155 -0.12597
 O70 O 0.93878 0.48749 -0.06182
 C71 C 0.94362 0.50472 -0.10836
 O72 O 1.03427 0.48132 -0.13714
 O73 O 1.06110 0.51292 -0.06469
 C74 C 1.05629 0.49759 -0.11737
 O75 O 0.96564 0.44460 -0.12933
 O76 O 0.93867 0.45099 -0.06261
 C77 C 0.94359 0.43910 -0.11078
 O78 O 1.03414 0.55400 -0.13212
 O79 O 1.06108 0.54819 -0.06346
 C80 C 1.05618 0.55939 -0.11391
 Zr81 Zr 0.99991 0.52665 -0.09104
 O82 O 0.99741 0.52586 -0.20550
 O83 O 1.00214 0.56127 -0.08847
 Zr84 Zr 1.00005 0.47296 -0.09198
 O85 O 0.99811 0.46916 -0.20587
 O86 O 1.00305 0.44102 -0.08418
 Zr87 Zr 1.03655 0.51803 -0.00028
 Zr88 Zr 0.96341 0.48137 -0.00083
 O89 O 0.97886 0.48928 -0.10535
 O90 O 1.02169 0.51074 -0.10586
 O91 O 0.97782 0.51953 -0.00005
 O92 O 1.02160 0.47983 -0.00108
 O93 O 1.02129 0.54106 0.00031
 O94 O 0.97793 0.45762 -0.00137
 H95 H 0.96779 0.48345 0.14682
 H96 H 1.03306 0.47336 -0.00130
 H97 H 0.96805 0.48407 -0.14846
 H98 H 1.03236 0.55904 0.00050
 H99 H 0.98751 0.42760 0.06108
 H100 H 0.98723 0.42754 -0.06636
 H101 H 1.00213 0.48528 -0.22568
 H102 H 1.01146 0.52477 -0.22506
 H103 H 0.98970 0.56012 -0.05353
 H104 H 1.00058 0.56549 0.13378
 H105 H 1.01041 0.52363 0.22502
 H106 H 1.00565 0.48582 0.22377
 O107 O 0.55295 0.51916 0.13526
 O108 O 0.54802 0.48712 0.06454
 C109 C 0.55871 0.50282 0.11633
 O110 O 0.44416 0.47893 0.12615
 O111 O 0.45097 0.51253 0.05999
 C112 C 0.43886 0.49565 0.10769
 O113 O 0.48002 0.44615 0.13249
 O114 O 0.51266 0.45174 0.06365
 C115 C 0.49658 0.44063 0.11416
 O116 O 0.52101 0.55566 0.12681
 O117 O 0.48751 0.54903 0.06033
 C118 C 0.50440 0.56109 0.10822
 Zr119 Zr 0.52669 0.52700 0.09038
 O120 O 0.52930 0.53073 0.20435
 O121 O 0.56048 0.55976 0.07801
 Zr122 Zr 0.47302 0.47335 0.09055
 O123 O 0.47132 0.47410 0.20499
 O124 O 0.44083 0.43860 0.08784
 O125 O 0.51069 0.48930 0.10520
 O126 O 0.48924 0.51078 0.10379
 O127 O 0.52136 0.55570 -0.12750
 O128 O 0.48757 0.54890 -0.06249
 C129 C 0.50465 0.56106 -0.10959
 O130 O 0.48029 0.44605 -0.13291
 O131 O 0.51282 0.45171 -0.06343
 C132 C 0.49683 0.44057 -0.11418
 O133 O 0.44428 0.47872 -0.12709
 O134 O 0.45088 0.51242 -0.06198
 C135 C 0.43879 0.49533 -0.10920
 O136 O 0.55331 0.51910 -0.13484
 O137 O 0.54819 0.48708 -0.06379
 C138 C 0.55901 0.50275 -0.11550
 Zr139 Zr 0.52690 0.52695 -0.09112
 O140 O 0.52779 0.53016 -0.20523
 O141 O 0.56163 0.55904 -0.08431
 Zr142 Zr 0.47323 0.47332 -0.09183
 O143 O 0.47173 0.47444 -0.20630
 O144 O 0.44113 0.43850 -0.09061
 Zr145 Zr 0.51824 0.48175 -0.00004
 Zr146 Zr 0.48156 0.51833 -0.00093
 O147 O 0.48946 0.51070 -0.10530
 O148 O 0.51094 0.48920 -0.10572
 O149 O 0.51978 0.54206 -0.00055
 O150 O 0.47998 0.45877 -0.00040
 O151 O 0.54143 0.51994 -0.00003
 O152 O 0.45795 0.48014 -0.00089
 H153 H 0.48374 0.51625 0.14656
 H154 H 0.47311 0.44080 -0.00034
 H155 H 0.48401 0.51610 -0.14831
 H156 H 0.55937 0.52653 0.00021
 H157 H 0.42811 0.44043 0.06189
 H158 H 0.42857 0.44004 -0.06274
 H159 H 0.48674 0.47527 -0.22575
 H160 H 0.51971 0.51331 -0.22484
 H161 H 0.55949 0.57150 -0.05781
 H162 H 0.56658 0.56549 0.12770
 H163 H 0.51387 0.51738 0.22438
 H164 H 0.48706 0.47653 0.22403
 O165 O 0.51938 -0.03401 0.13358
 O166 O 0.48703 -0.06097 0.06378
 C167 C 0.50292 -0.05604 0.11491
 O168 O 0.47842 0.03457 0.12518
 O169 O 0.51202 0.06144 0.05952
 C170 C 0.49500 0.05660 0.10682
 O171 O 0.44639 -0.03394 0.13339
 O172 O 0.45164 -0.06097 0.06323
 C173 C 0.44072 -0.05601 0.11449
 O174 O 0.55541 0.03441 0.12711
 O175 O 0.54862 0.06128 0.06133
 C176 C 0.56076 0.05643 0.10884
 Zr177 Zr 0.52655 0.00020 0.09136
 O178 O 0.52842 0.00236 0.20584
 O179 O 0.55949 -0.00081 0.08385
 Zr180 Zr 0.47279 0.00019 0.08931
 O181 O 0.46983 0.00125 0.20315
 O182 O 0.43901 -0.00080 0.07617
 O183 O 0.48882 -0.02150 0.10488
 O184 O 0.51020 0.02137 0.10394
 O185 O 0.55596 0.03445 -0.12555
 O186 O 0.54893 0.06141 -0.06096
 C187 C 0.56123 0.05649 -0.10778
 O188 O 0.44625 -0.03421 -0.13426
 O189 O 0.45184 -0.06106 -0.06445
 C190 C 0.44081 -0.05622 -0.11557
 O191 O 0.47858 0.03434 -0.12791
 O192 O 0.51243 0.06131 -0.06276
 C193 C 0.49532 0.05639 -0.10995
 O194 O 0.51961 -0.03403 -0.13388
 O195 O 0.48726 -0.06100 -0.06404
 C196 C 0.50317 -0.05608 -0.11515
 Zr197 Zr 0.52705 0.00012 -0.09048
 O198 O 0.53029 0.00268 -0.20458
 O199 O 0.55927 -0.00241 -0.08356
 Zr200 Zr 0.47333 0.00006 -0.09260
 O201 O 0.47481 0.00278 -0.20707
 O202 O 0.43860 -0.00236 -0.09199
 Zr203 Zr 0.48165 -0.03651 -0.00044
 Zr204 Zr 0.51811 0.03662 -0.00059
 O205 O 0.51079 0.02126 -0.10511
 O206 O 0.48937 -0.02168 -0.10593
 O207 O 0.54185 0.02216 0.00059
 O208 O 0.45847 -0.02142 -0.00151
 O209 O 0.51988 -0.02140 0.00060
 O210 O 0.47992 0.02213 -0.00172
 H211 H 0.51559 0.03234 0.14666
 H212 H 0.44052 -0.03264 -0.00155
 H213 H 0.51635 0.03212 -0.14809
 H214 H 0.52666 -0.03259 0.00076
 H215 H 0.43279 -0.00118 0.12571
 H216 H 0.43976 0.01068 -0.05957
 H217 H 0.47587 -0.01130 -0.22631
 H218 H 0.51359 -0.00755 -0.22449
 H219 H 0.57123 0.01150 -0.05377
 H220 H 0.56478 -0.00089 0.13434
 H221 H 0.51239 -0.01039 0.22477
 H222 H 0.48506 0.00294 0.22368
 C223 C 1.17245 0.49750 0.33733
 C224 C 1.16739 0.48227 0.39753
 C225 C 1.18652 0.48301 0.43779
 C226 C 1.21115 0.49935 0.41921
 C227 C 1.21590 0.51386 0.35650
 C228 C 1.19671 0.51307 0.31640
 C229 C 1.15274 0.49746 0.29789
 C230 C 1.13612 0.49748 0.26562
 C231 C 1.11610 0.49741 0.22787
 C232 C 1.09202 0.47942 0.24343
 C233 C 1.07249 0.47926 0.20707
 C234 C 1.07679 0.49712 0.15442
 C235 C 1.10111 0.51520 0.13935
 C236 C 1.12061 0.51533 0.17591
 H237 H 1.14864 0.46989 0.41361
 H238 H 1.18199 0.47063 0.48321
 H239 H 1.23449 0.52672 0.34028
 H240 H 1.20082 0.52490 0.26971
 H241 H 1.08832 0.46548 0.28364
 H242 H 1.05405 0.46506 0.22009
 H243 H 1.10509 0.52926 0.09938
 H244 H 1.13920 0.52940 0.16363
 C245 C 0.50076 0.67429 0.33560
 C246 C 0.51639 0.69883 0.31778
 C247 C 0.51614 0.71739 0.35855
 C248 C 0.50042 0.71176 0.41889
 C249 C 0.48438 0.68684 0.43504
 C250 C 0.48466 0.66834 0.39403
 C251 C 0.50138 0.65524 0.29432
 C252 C 0.50205 0.63926 0.26024
 C253 C 0.50299 0.62012 0.22037
 C254 C 0.52196 0.61516 0.23309
 C255 C 0.52264 0.59619 0.19591
 C256 C 0.50428 0.58188 0.14536
 C257 C 0.48540 0.58719 0.13236
 C258 C 0.48477 0.60617 0.16972
 H259 H 0.52897 0.70366 0.27269
 H260 H 0.52901 0.73618 0.34433
 H261 H 0.47098 0.68150 0.47795
 H262 H 0.47222 0.64937 0.40772
 H263 H 0.53615 0.62583 0.27220
 H264 H 0.53742 0.59262 0.20726
 H265 H 0.47093 0.57651 0.09404
 H266 H 0.46997 0.60983 0.15953
 C267 C 0.32630 -0.17308 0.33739
 C268 C 0.31592 -0.16796 0.39696
 C269 C 0.29733 -0.18700 0.43673
 C270 C 0.28892 -0.21169 0.41836
 C271 C 0.29905 -0.21651 0.35655
 C272 C 0.31769 -0.19738 0.31691
 C273 C 0.34584 -0.15333 0.29772
 C274 C 0.36228 -0.13659 0.26534
 C275 C 0.38195 -0.11641 0.22737
 C276 C 0.38759 -0.09241 0.24261
 C277 C 0.40672 -0.07275 0.20604
 C278 C 0.42049 -0.07684 0.15355
 C279 C 0.41467 -0.10107 0.13869
 C280 C 0.39555 -0.12069 0.17542
 H281 H 0.32214 -0.14919 0.41260
 H282 H 0.28911 -0.18227 0.48068
 H283 H 0.29335 -0.23511 0.34043
 H284 H 0.32557 -0.20157 0.27072
 H285 H 0.37720 -0.08888 0.28278
 H286 H 0.41065 -0.05438 0.21877
 H287 H 0.42490 -0.10491 0.09878
 H288 H 0.39138 -0.13920 0.16333
 C289 C 0.82699 0.50169 0.33419
 C290 C 0.81320 0.48249 0.38230
 C291 C 0.79477 0.48268 0.42394
 C292 C 0.79009 0.50220 0.41826
 C293 C 0.80371 0.52119 0.36896
 C294 C 0.82212 0.52097 0.32734
 C295 C 0.84643 0.50189 0.29279
 C296 C 0.86295 0.50233 0.25869
 C297 C 0.88295 0.50309 0.21894
 C298 C 0.90685 0.52211 0.23123
 C299 C 0.92645 0.52262 0.19428
 C300 C 0.92239 0.50409 0.14438
 C301 C 0.89823 0.48517 0.13184
 C302 C 0.87865 0.48468 0.16898
 H303 H 0.81678 0.46745 0.38785
 H304 H 0.78424 0.46771 0.46088
 H305 H 0.80034 0.53636 0.36368
 H306 H 0.83265 0.53592 0.29026
 H307 H 0.91038 0.53646 0.26977
 H308 H 0.94478 0.53745 0.20519
 H309 H 0.89445 0.47058 0.09396
 H310 H 0.86021 0.46987 0.15913
 C311 C 0.50018 0.32669 0.33697
 C312 C 0.51995 0.32262 0.32864
 C313 C 0.52091 0.30432 0.36884
 C314 C 0.50219 0.29006 0.41823
 C315 C 0.48213 0.29388 0.42508
 C316 C 0.48120 0.31218 0.38490
 C317 C 0.49953 0.34600 0.29733
 C318 C 0.49897 0.36228 0.26479
 C319 C 0.49827 0.38181 0.22658
 C320 C 0.51622 0.39553 0.17505
 C321 C 0.51565 0.41463 0.13837
 C322 C 0.49710 0.42030 0.15287
 C323 C 0.47913 0.40638 0.20483
 C324 C 0.47974 0.38726 0.24135
 H325 H 0.53471 0.33373 0.29162
 H326 H 0.53647 0.30160 0.36263
 H327 H 0.46734 0.28285 0.46208
 H328 H 0.46579 0.31512 0.39156
 H329 H 0.53068 0.39150 0.16330
 H330 H 0.52980 0.42499 0.09888
 H331 H 0.46459 0.41020 0.21730
 H332 H 0.46577 0.37676 0.28121
 C333 C 0.67390 0.17299 0.33627
 C334 C 0.67835 0.19694 0.32789
 C335 C 0.69663 0.21597 0.36874
 C336 C 0.71052 0.21118 0.41875
 C337 C 0.70612 0.18714 0.42630
 C338 C 0.68785 0.16814 0.38547
 C339 C 0.65499 0.15334 0.29468
 C340 C 0.63909 0.13673 0.26043
 C341 C 0.61998 0.11672 0.22043
 C342 C 0.60590 0.12101 0.17031
 C343 C 0.58686 0.10145 0.13311
 C344 C 0.58162 0.07728 0.14575
 C345 C 0.59611 0.07322 0.19564
 C346 C 0.61514 0.09282 0.23265
 H347 H 0.66769 0.20089 0.28987
 H348 H 0.69981 0.23439 0.36185
 H349 H 0.71692 0.18311 0.46354
 H350 H 0.68463 0.14970 0.39213
 H351 H 0.60950 0.13946 0.16047
 H352 H 0.57607 0.10527 0.09524
 H353 H 0.59264 0.05489 0.20662
 H354 H 0.62597 0.08931 0.27128
 C355 C 0.49852 0.17310 -0.33624
 C356 C 0.48315 0.18236 -0.31837
 C357 C 0.48373 0.20133 -0.35909
 C358 C 0.49954 0.21124 -0.41927
 C359 C 0.51527 0.20195 -0.43553
 C360 C 0.51463 0.18299 -0.39466
 C361 C 0.49769 0.15335 -0.29491
 C362 C 0.49700 0.13670 -0.26090
 C363 C 0.49617 0.11667 -0.22120
 C364 C 0.51452 0.12097 -0.17102
 C365 C 0.51408 0.10141 -0.13401
 C366 C 0.49525 0.07722 -0.14690
 C367 C 0.47676 0.07316 -0.19699
 C368 C 0.47724 0.09276 -0.23384
 H369 H 0.47055 0.17479 -0.27325
 H370 H 0.47108 0.20758 -0.34486
 H371 H 0.52873 0.20983 -0.47833
 H372 H 0.52686 0.17617 -0.40838
 H373 H 0.52930 0.13941 -0.16094
 H374 H 0.52865 0.10525 -0.09597
 H375 H 0.46199 0.05482 -0.20819
 H376 H 0.46295 0.08924 -0.27266
 C377 C 0.67332 0.49977 -0.33823
 C378 C 0.68401 0.51595 -0.39609
 C379 C 0.70284 0.51595 -0.43589
 C380 C 0.71119 0.49949 -0.41923
 C381 C 0.70068 0.48377 -0.35918
 C382 C 0.68179 0.48380 -0.31950
 C383 C 0.65366 0.49968 -0.29838
 C384 C 0.63718 0.49992 -0.26600
 C385 C 0.61752 0.50054 -0.22824
 C386 C 0.61183 0.51882 -0.24420
 C387 C 0.59277 0.51954 -0.20773
 C388 C 0.57913 0.50195 -0.15458
 C389 C 0.58498 0.48359 -0.13907
 C390 C 0.60404 0.48291 -0.17571
 H391 H 0.67788 0.52870 -0.41029
 H392 H 0.71132 0.52942 -0.47840
 H393 H 0.70635 0.47071 -0.34449
 H394 H 0.67366 0.47122 -0.27461
 H395 H 0.62216 0.53256 -0.28482
 H396 H 0.58880 0.53393 -0.22103
 H397 H 0.57483 0.46971 -0.09868
 H398 H 0.60827 0.46864 -0.16304
 C399 C 0.82670 0.32598 -0.33723
 C400 C 0.81743 0.30148 -0.31814
 C401 C 0.79855 0.28292 -0.35853
 C402 C 0.78873 0.28850 -0.41963
 C403 C 0.79790 0.31339 -0.43690
 C404 C 0.81676 0.33190 -0.39628
 C405 C 0.84651 0.34504 -0.29653
 C406 C 0.86323 0.36101 -0.26282
 C407 C 0.88329 0.38016 -0.22305
 C408 C 0.87896 0.39399 -0.17207
 C409 C 0.89854 0.41297 -0.13486
 C410 C 0.92275 0.41841 -0.14825
 C411 C 0.92685 0.40424 -0.19915
 C412 C 0.90724 0.38523 -0.23618
 H413 H 0.82499 0.29668 -0.27246
 H414 H 0.79238 0.26413 -0.34350
 H415 H 0.79005 0.31870 -0.48048
 H416 H 0.82355 0.35085 -0.41087
 H417 H 0.86047 0.39024 -0.16153
 H418 H 0.89465 0.42350 -0.09626
 H419 H 0.94522 0.40793 -0.21071
 H420 H 0.91077 0.37463 -0.27555
 C421 C 0.50037 -0.17324 -0.33860
 C422 C 0.48422 -0.19758 -0.31975
 C423 C 0.48387 -0.21665 -0.35956
 C424 C 0.49943 -0.21169 -0.41992
 C425 C 0.51613 -0.18697 -0.43661
 C426 C 0.51644 -0.16800 -0.39667
 C427 C 0.50049 -0.15354 -0.29876
 C428 C 0.50078 -0.13680 -0.26628
 C429 C 0.50133 -0.11659 -0.22827
 C430 C 0.48360 -0.12080 -0.17594
 C431 C 0.48417 -0.10114 -0.13914
 C432 C 0.50253 -0.07693 -0.15429
 C433 C 0.52022 -0.07291 -0.20721
 C434 C 0.51962 -0.09262 -0.24384
 H435 H 0.47172 -0.20185 -0.27470
 H436 H 0.47063 -0.23527 -0.34474
 H437 H 0.52951 -0.18217 -0.47931
 H438 H 0.52934 -0.14920 -0.41099
 H439 H 0.46932 -0.13929 -0.16356
 H440 H 0.47020 -0.10492 -0.09895
 H441 H 0.53459 -0.05456 -0.22026
 H442 H 0.53343 -0.08914 -0.28432
 C443 C 0.32402 0.49596 -0.33667
 C444 C 0.31490 0.48170 -0.39920
 C445 C 0.29657 0.48243 -0.43993
 C446 C 0.28720 0.49773 -0.41935
 C447 C 0.29623 0.51156 -0.35506
 C448 C 0.31454 0.51077 -0.31451
 C449 C 0.34319 0.49554 -0.29542
 C450 C 0.35937 0.49530 -0.26124
 C451 C 0.37882 0.49499 -0.22124
 C452 C 0.38407 0.47616 -0.23270
 C453 C 0.40337 0.47611 -0.19559
 C454 C 0.41773 0.49494 -0.14630
 C455 C 0.41214 0.51367 -0.13457
 C456 C 0.39282 0.51368 -0.17187
 H457 H 0.32188 0.46989 -0.41635
 H458 H 0.28928 0.47041 -0.48628
 H459 H 0.28989 0.52383 -0.33743
 H460 H 0.32148 0.52191 -0.26619
 H461 H 0.37336 0.46161 -0.27081
 H462 H 0.40711 0.46139 -0.20607
 H463 H 0.42287 0.52849 -0.09733
 H464 H 0.38894 0.52838 -0.16266
 C465 C 1.17318 0.67261 -0.34039
 C466 C 1.17861 0.69684 -0.33085
 C467 C 1.19756 0.71569 -0.37034
 C468 C 1.21119 0.71047 -0.42016
 C469 C 1.20587 0.68615 -0.42870
 C470 C 1.18690 0.66732 -0.38922
 C471 C 1.15337 0.65319 -0.30063
 C472 C 1.13664 0.63695 -0.26764
 C473 C 1.11651 0.61758 -0.22867
 C474 C 1.09254 0.61222 -0.24294
 C475 C 1.07292 0.59337 -0.20550
 C476 C 1.07701 0.57959 -0.15304
 C477 C 1.10122 0.58518 -0.13900
 C478 C 1.12081 0.60403 -0.17663
 H479 H 1.16811 0.70113 -0.29320
 H480 H 1.20136 0.73430 -0.36289
 H481 H 1.21639 0.68176 -0.46601
 H482 H 1.18290 0.64864 -0.39690
 H483 H 1.08901 0.62260 -0.28313
 H484 H 1.05456 0.58958 -0.21778
 H485 H 1.10507 0.57491 -0.09926
 H486 H 1.13930 0.60801 -0.16523
 C487 C 0.82696 0.50160 -0.33508
 C488 C 0.83233 0.51744 -0.39384
 C489 C 0.81345 0.51682 -0.43505
 C490 C 0.78870 0.50009 -0.41886
 C491 C 0.78360 0.48456 -0.35835
 C492 C 0.80256 0.48522 -0.31725
 C493 C 0.84654 0.50226 -0.29322
 C494 C 0.86316 0.50295 -0.25899
 C495 C 0.88322 0.50383 -0.21917
 C496 C 0.90711 0.52289 -0.23137
 C497 C 0.92673 0.52339 -0.19450
 C498 C 0.92271 0.50481 -0.14487
 C499 C 0.89855 0.48587 -0.13232
 C500 C 0.87897 0.48540 -0.16936
 H501 H 0.85116 0.53045 -0.40750
 H502 H 0.81834 0.53013 -0.47796
 H503 H 0.76494 0.47125 -0.34406
 H504 H 0.79818 0.47285 -0.27181
 H505 H 0.91062 0.53727 -0.26979
 H506 H 0.94506 0.53823 -0.20539
 H507 H 0.89476 0.47123 -0.09464
 H508 H 0.86055 0.47056 -0.15956
 C509 C 0.50069 0.32698 -0.33821
 C510 C 0.48490 0.30254 -0.31953
 C511 C 0.48505 0.28374 -0.35925
 C512 C 0.50079 0.28905 -0.41936
 C513 C 0.51705 0.31387 -0.43610
 C514 C 0.51687 0.33260 -0.39619
 C515 C 0.50014 0.34630 -0.29837
 C516 C 0.49960 0.36256 -0.26560
 C517 C 0.49883 0.38200 -0.22712
 C518 C 0.48027 0.38740 -0.24189
 C519 C 0.47956 0.40641 -0.20509
 C520 C 0.49744 0.42029 -0.15285
 C521 C 0.51602 0.41466 -0.13832
 C522 C 0.51670 0.39566 -0.17530
 H523 H 0.47227 0.29800 -0.27468
 H524 H 0.47208 0.26503 -0.34454
 H525 H 0.53049 0.31893 -0.47879
 H526 H 0.52944 0.35148 -0.41047
 H527 H 0.46636 0.37695 -0.28199
 H528 H 0.46500 0.41021 -0.21761
 H529 H 0.53013 0.42500 -0.09866
 H530 H 0.53119 0.39166 -0.16359
 C531 C 0.67449 0.17225 -0.33682
 C532 C 0.69885 0.17793 -0.32870
 C533 C 0.71731 0.19677 -0.36947
 C534 C 0.71156 0.21004 -0.41915
 C535 C 0.68710 0.20436 -0.42662
 C536 C 0.66865 0.18551 -0.38584
 C537 C 0.65549 0.15275 -0.29515
 C538 C 0.63954 0.13629 -0.26066
 C539 C 0.62042 0.11642 -0.22034
 C540 C 0.61555 0.09249 -0.23198
 C541 C 0.59656 0.07303 -0.19451
 C542 C 0.58213 0.07725 -0.14478
 C543 C 0.58739 0.10146 -0.13277
 C544 C 0.60640 0.12089 -0.17041
 H545 H 0.70355 0.16777 -0.29096
 H546 H 0.73605 0.20088 -0.36281
 H547 H 0.68232 0.21462 -0.46377
 H548 H 0.64986 0.18130 -0.39243
 H549 H 0.62630 0.08883 -0.27053
 H550 H 0.59304 0.05467 -0.20512
 H551 H 0.57661 0.10538 -0.09511
 H552 H 0.61000 0.13937 -0.16107
 C553 C 1.17521 0.50393 -0.33917
 C554 C 1.18589 0.51952 -0.39835
 C555 C 1.20455 0.51891 -0.43752
 C556 C 1.21258 0.50234 -0.41879
 C557 C 1.20234 0.48752 -0.35691
 C558 C 1.18370 0.48820 -0.31794
 C559 C 1.15506 0.50349 -0.30135
 C560 C 1.13796 0.50272 -0.26984
 C561 C 1.11743 0.50155 -0.23217
 C562 C 1.12125 0.51875 -0.17854
 C563 C 1.10136 0.51746 -0.14127
 C564 C 1.07730 0.49890 -0.15724
 C565 C 1.07365 0.48173 -0.21152
 C566 C 1.09361 0.48307 -0.24864
 H567 H 1.17965 0.53200 -0.41466
 H568 H 1.21271 0.53145 -0.48247
 H569 H 1.20777 0.47440 -0.34074
 H570 H 1.17553 0.47607 -0.27210
 H571 H 1.13962 0.53313 -0.16541
 H572 H 1.10489 0.53103 -0.10000
 H573 H 1.05541 0.46721 -0.22513
 H574 H 1.09049 0.46965 -0.29006
 C575 C 0.50094 0.67436 -0.33506
 C576 C 0.48099 0.67818 -0.32769
 C577 C 0.47984 0.69617 -0.36893
 C578 C 0.49856 0.71038 -0.41837
 C579 C 0.51874 0.70673 -0.42456
 C580 C 0.51985 0.68873 -0.38335
 C581 C 0.50191 0.65552 -0.29379
 C582 C 0.50273 0.63961 -0.25991
 C583 C 0.50365 0.62045 -0.22035
 C584 C 0.48534 0.60641 -0.17014
 C585 C 0.48584 0.58730 -0.13331
 C586 C 0.50468 0.58194 -0.14642
 C587 C 0.52315 0.59635 -0.19652
 C588 C 0.52261 0.61547 -0.23318
 H589 H 0.46628 0.66716 -0.29042
 H590 H 0.46420 0.69879 -0.36318
 H591 H 0.53354 0.71774 -0.46156
 H592 H 0.53540 0.68597 -0.38929
 H593 H 0.47055 0.61009 -0.15993
 H594 H 0.47129 0.57657 -0.09527
 H595 H 0.53792 0.59277 -0.20790
 H596 H 0.53687 0.62623 -0.27202
 C597 C 0.32743 -0.17385 -0.33855
 C598 C 0.33248 -0.18776 -0.38735
 C599 C 0.31350 -0.20649 -0.42710
 C600 C 0.28934 -0.21129 -0.41885
 C601 C 0.28433 -0.19765 -0.36854
 C602 C 0.30331 -0.17895 -0.32881
 C603 C 0.34702 -0.15398 -0.29963
 C604 C 0.36336 -0.13713 -0.26742
 C605 C 0.38279 -0.11685 -0.22931
 C606 C 0.38804 -0.09297 -0.24426
 C607 C 0.40690 -0.07321 -0.20730
 C608 C 0.42075 -0.07711 -0.15468
 C609 C 0.41530 -0.10124 -0.14008
 C610 C 0.39646 -0.12095 -0.17722
 H611 H 0.35107 -0.18400 -0.39513
 H612 H 0.31767 -0.21702 -0.46498
 H613 H 0.26581 -0.20112 -0.36136
 H614 H 0.29922 -0.16830 -0.29115
 H615 H 0.37754 -0.08961 -0.28450
 H616 H 0.41057 -0.05491 -0.21988
 H617 H 0.42564 -0.10492 -0.10015
 H618 H 0.39255 -0.13938 -0.16530
 C619 C 0.50024 -0.17306 0.33709
 C620 C 0.51960 -0.17774 0.32889
 C621 C 0.51991 -0.19642 0.36876
 C622 C 0.50094 -0.21045 0.41766
 C623 C 0.48127 -0.20603 0.42436
 C624 C 0.48099 -0.18734 0.38450
 C625 C 0.50037 -0.15330 0.29798
 C626 C 0.50065 -0.13655 0.26576
 C627 C 0.50118 -0.11639 0.22787
 C628 C 0.51970 -0.09245 0.24260
 C629 C 0.52028 -0.07278 0.20597
 C630 C 0.50232 -0.07683 0.15393
 C631 C 0.48375 -0.10101 0.13959
 C632 C 0.48320 -0.12064 0.17640
 H633 H 0.53457 -0.16681 0.29227
 H634 H 0.53519 -0.19961 0.36268
 H635 H 0.46629 -0.21689 0.46101
 H636 H 0.46589 -0.18390 0.39105
 H637 H 0.53370 -0.08898 0.28238
 H638 H 0.53484 -0.05443 0.21830
 H639 H 0.46960 -0.10478 0.10008
 H640 H 0.46876 -0.13911 0.16472
 C641 C 0.32683 0.50112 0.33572
 C642 C 0.33239 0.51946 0.38731
 C643 C 0.31366 0.51942 0.42810
 C644 C 0.28925 0.50088 0.41797
 C645 C 0.28380 0.48281 0.36524
 C646 C 0.30250 0.48289 0.32453
 C647 C 0.34604 0.50058 0.29516
 C648 C 0.36192 0.49969 0.26128
 C649 C 0.38076 0.49832 0.22120
 C650 C 0.39470 0.51630 0.17006
 C651 C 0.41333 0.51521 0.13218
 C652 C 0.41830 0.49609 0.14513
 C653 C 0.40397 0.47795 0.19611
 C654 C 0.38532 0.47907 0.23382
 H655 H 0.35118 0.53366 0.39635
 H656 H 0.31818 0.53363 0.46805
 H657 H 0.26509 0.46838 0.35667
 H658 H 0.29802 0.46860 0.28484
 H659 H 0.39133 0.53129 0.15991
 H660 H 0.42401 0.52954 0.09349
 H661 H 0.40727 0.46299 0.20736
 H662 H 0.37461 0.46504 0.27328
 C663 C 1.17328 0.67230 0.33915
 C664 C 1.16853 0.68645 0.38777
 C665 C 1.18768 0.70519 0.42685
 C666 C 1.21177 0.70983 0.41817
 C667 C 1.21648 0.69578 0.36856
 C668 C 1.19729 0.67704 0.32939
 C669 C 1.15345 0.65287 0.29961
 C670 C 1.13666 0.63659 0.26703
 C671 C 1.11644 0.61717 0.22862
 C672 C 1.09252 0.61195 0.24297
 C673 C 1.07282 0.59302 0.20594
 C674 C 1.07682 0.57905 0.15389
 C675 C 1.10098 0.58450 0.13980
 C676 C 1.12063 0.60342 0.17698
 H677 H 1.15003 0.68300 0.39551
 H678 H 1.18373 0.71608 0.46395
 H679 H 1.23494 0.69913 0.36096
 H680 H 1.20115 0.66620 0.29177
 H681 H 1.08909 0.62251 0.28286
 H682 H 1.05451 0.58938 0.21811
 H683 H 1.10472 0.57409 0.10028
 H684 H 1.13908 0.60729 0.16556
 C685 C 0.49870 0.17344 0.33383
 C686 C 0.51883 0.19707 0.32669
 C687 C 0.52024 0.21626 0.36831
 C688 C 0.50160 0.21195 0.41794
 C689 C 0.48125 0.18828 0.42390
 C690 C 0.47987 0.16911 0.38230
 C691 C 0.49753 0.15360 0.29217
 C692 C 0.49666 0.13691 0.25788
 C693 C 0.49575 0.11688 0.21786
 C694 C 0.51414 0.12117 0.16781
 C695 C 0.51371 0.10161 0.13078
 C696 C 0.49486 0.07744 0.14350
 C697 C 0.47630 0.07337 0.19336
 C698 C 0.47677 0.09297 0.23024
 H699 H 0.53349 0.20061 0.28934
 H700 H 0.53602 0.23439 0.36271
 H701 H 0.46653 0.18467 0.46106
 H702 H 0.46419 0.15092 0.38815
 H703 H 0.52895 0.13962 0.15792
 H704 H 0.52833 0.10541 0.09302
 H705 H 0.46151 0.05504 0.20450
 H706 H 0.46245 0.08944 0.26893
 C707 C 0.67319 0.49999 0.33841
 C708 C 0.66854 0.48076 0.38556
 C709 C 0.68768 0.48123 0.42511
 C710 C 0.71163 0.50109 0.41842
 C711 C 0.71626 0.52002 0.36965
 C712 C 0.69711 0.51951 0.33010
 C713 C 0.65337 0.49998 0.29979
 C714 C 0.63679 0.50020 0.26794
 C715 C 0.61707 0.50071 0.23030
 C716 C 0.60354 0.48294 0.17812
 C717 C 0.58452 0.48359 0.14115
 C718 C 0.57876 0.50205 0.15598
 C719 C 0.59242 0.51977 0.20884
 C720 C 0.61145 0.51909 0.24565
 H721 H 0.65012 0.46554 0.39227
 H722 H 0.68380 0.46629 0.46168
 H723 H 0.73460 0.53545 0.36360
 H724 H 0.70090 0.53448 0.29373
 H725 H 0.60771 0.46861 0.16591
 H726 H 0.57436 0.46962 0.10099
 H727 H 0.58851 0.53424 0.22158
 H728 H 0.62182 0.53293 0.28599
 C729 C 0.82692 0.32520 0.33365
 C730 C 0.80310 0.32115 0.32549
 C731 C 0.78399 0.30321 0.36685
 C732 C 0.78859 0.28930 0.41727
 C733 C 0.81246 0.29317 0.42431
 C734 C 0.83155 0.31112 0.38294
 C735 C 0.84667 0.34402 0.29223
 C736 C 0.86332 0.35994 0.25821
 C737 C 0.88334 0.37913 0.21853
 C738 C 0.87900 0.39316 0.16834
 C739 C 0.89856 0.41228 0.13142
 C740 C 0.92277 0.41765 0.14437
 C741 C 0.92687 0.40323 0.19439
 C742 C 0.90728 0.38412 0.23114
 H743 H 0.79933 0.33195 0.28750
 H744 H 0.76570 0.30043 0.36048
 H745 H 0.81631 0.28240 0.46214
 H746 H 0.84991 0.31407 0.38957
 H747 H 0.86053 0.38949 0.15825
 H748 H 0.89474 0.42303 0.09349
 H749 H 0.94523 0.40681 0.20567
 H750 H 0.91083 0.37337 0.26989
   
