data_POSCAR
  _audit_creation_date              2014-09-24
  _audit_creation_method            'ToBaCCo'
  _symmetry_space_group_name_H-M    'P1'
  _symmetry_Int_Tables_number       1
  _symmetry_cell_setting            triclinic
  loop_
  _symmetry_equiv_pos_as_xyz
 x,y,z
_cell_length_a 44.1180
_cell_length_b 43.8779
_cell_length_c 24.7223
_cell_angle_alpha 89.730200
_cell_angle_beta 90.248700
_cell_angle_gamma 121.198900
loop_
  _atom_site_label
  _atom_site_type_symbol
  _atom_site_fract_x
  _atom_site_fract_y
  _atom_site_fract_z
O1 O 0.45738 0.95930 0.55475
 O2 O 0.48548 1.02837 0.44942
 O3 O 0.45116 0.95910 0.44982
 O4 O 0.49113 1.02869 0.55419
 O5 O 0.54191 1.03080 0.54538
 O6 O 0.50156 0.96030 0.44224
 O7 O 0.53577 1.02957 0.44057
 O8 O 0.50824 0.96144 0.54718
 Cu9 Cu 0.46621 0.99366 0.50293
 Cu10 Cu 0.52692 0.99566 0.49305
 C11 C 0.47805 0.94863 0.56917
 C12 C 0.51544 1.04078 0.42670
 C13 C 0.46953 0.94781 0.42808
 C14 C 0.52339 1.04181 0.56748
 O15 O 0.03089 0.54944 0.44999
 O16 O -0.04018 0.51012 0.55257
 O17 O 0.02873 0.54728 0.55533
 O18 O -0.03807 0.51489 0.44734
 O19 O -0.03866 0.46441 0.44433
 O20 O 0.02928 0.49734 0.55209
 O21 O -0.03961 0.46024 0.54954
 O22 O 0.03028 0.49891 0.44675
 Cu23 Cu -0.00467 0.53544 0.50160
 Cu24 Cu -0.00469 0.47522 0.49785
 C25 C 0.04265 0.53072 0.43071
 C26 C -0.05197 0.47836 0.56888
 C27 C 0.04050 0.52800 0.57229
 C28 C -0.04995 0.48416 0.42718
 O29 O 0.56292 0.52539 0.45179
 O30 O 0.52698 0.56002 0.55239
 O31 O 0.56138 0.52661 0.55707
 O32 O 0.52902 0.55941 0.44711
 O33 O 0.47805 0.50827 0.44724
 O34 O 0.51089 0.47510 0.55594
 O35 O 0.47645 0.50844 0.55250
 O36 O 0.51196 0.47426 0.45070
 Cu37 Cu 0.55016 0.54800 0.50211
 Cu38 Cu 0.48926 0.48638 0.50149
 C39 C 0.54354 0.49389 0.43390
 C40 C 0.49561 0.54008 0.56991
 C41 C 0.54173 0.49521 0.57545
 C42 C 0.49793 0.53949 0.42845
 O43 O 0.38053 0.65937 -0.06475
 O44 O 0.38247 0.71898 -0.04814
 C45 C 0.35973 0.72323 -0.07345
 O46 O 0.32713 0.70625 -0.06148
 O47 O 0.26783 0.64688 -0.04293
 C48 C 0.26265 0.61988 -0.06981
 O49 O 0.27916 0.60390 -0.06015
 O50 O 0.33768 0.60385 -0.04556
 C51 C 0.36401 0.62619 -0.07381
 O52 O 0.38437 0.65038 0.04283
 O53 O 0.38326 0.70837 0.05944
 C54 C 0.36683 0.72409 0.07103
 O55 O 0.33912 0.71833 0.04581
 O56 O 0.28121 0.65761 0.06437
 C57 C 0.26483 0.62457 0.07476
 O58 O 0.26941 0.60268 0.04769
 O59 O 0.32968 0.60611 0.06225
 C60 C 0.36278 0.62339 0.07094
 Cr61 Cr 0.38070 0.68326 -0.00257
 Cr62 Cr 0.30481 0.68133 0.00139
 Cr63 Cr 0.30496 0.60610 0.00103
 O64 O 0.33016 0.65693 -0.00004
 O65 O 0.60878 0.32947 -0.05708
 O66 O 0.60741 0.26962 -0.04597
 C67 C 0.62858 0.26596 -0.07614
 O68 O 0.66179 0.28317 -0.06865
 O69 O 0.72211 0.34202 -0.05192
 C70 C 0.72686 0.37006 -0.07524
 O71 O 0.71096 0.38582 -0.06091
 O72 O 0.65280 0.38483 -0.03918
 C73 C 0.62541 0.36276 -0.06597
 O74 O 0.60942 0.33671 0.05114
 O75 O 0.61181 0.27878 0.06214
 C76 C 0.62866 0.26279 0.06843
 O77 O 0.65464 0.26877 0.03856
 O78 O 0.71344 0.32897 0.05540
 C79 C 0.72961 0.36154 0.06866
 O80 O 0.72399 0.38420 0.04570
 O81 O 0.66459 0.38081 0.06744
 C82 C 0.63186 0.36350 0.07851
 Cr83 Cr 0.61131 0.30467 0.00246
 Cr84 Cr 0.68702 0.30669 -0.00643
 Cr85 Cr 0.68710 0.38194 0.00315
 O86 O 0.66187 0.33115 -0.00027
 C87 C 0.49047 0.91115 -0.36828
 C88 C 0.47993 0.88541 -0.32753
 C89 C 0.44572 0.86910 -0.30603
 C90 C 0.42201 0.87889 -0.32575
 C91 C 0.43253 0.90472 -0.36628
 C92 C 0.46688 0.92115 -0.38803
 N93 N 0.43578 0.84296 -0.26409
 N94 N 0.40455 0.82617 -0.24481
 C95 C 0.39412 0.80025 -0.20251
 C96 C 0.35886 0.78211 -0.18540
 C97 C 0.34767 0.75695 -0.14380
 C98 C 0.37173 0.74955 -0.11822
 C99 C 0.40721 0.76777 -0.13565
 C100 C 0.41833 0.79289 -0.17752
 H101 H 0.51712 0.92334 -0.38410
 H102 H 0.49847 0.87813 -0.31265
 H103 H 0.39541 0.86671 -0.30972
 H104 H 0.41372 0.91177 -0.38062
 H105 H 0.33998 0.78758 -0.20434
 H106 H 0.32017 0.74349 -0.13147
 H107 H 0.42640 0.76267 -0.11693
 H108 H 0.44578 0.80663 -0.19008
 C109 C 0.07821 0.57445 -0.35938
 C110 C 0.10339 0.58725 -0.31789
 C111 C 0.11832 0.56756 -0.30031
 C112 C 0.10771 0.53462 -0.32474
 C113 C 0.08240 0.52169 -0.36619
 C114 C 0.06738 0.54149 -0.38398
 N115 N 0.14403 0.58159 -0.25763
 N116 N 0.15957 0.56572 -0.24072
 C117 C 0.18518 0.57982 -0.19788
 C118 C 0.20223 0.56166 -0.18286
 C119 C 0.22740 0.57466 -0.14134
 C120 C 0.23589 0.60615 -0.11381
 C121 C 0.21862 0.62431 -0.12895
 C122 C 0.19352 0.61130 -0.17067
 H123 H 0.06715 0.59036 -0.37202
 H124 H 0.11134 0.61265 -0.29936
 H125 H 0.11888 0.51888 -0.31177
 H126 H 0.07464 0.49623 -0.38431
 H127 H 0.19602 0.53737 -0.20351
 H128 H 0.24014 0.55997 -0.13075
 H129 H 0.22457 0.64864 -0.10872
 H130 H 0.18066 0.62582 -0.18154
 C131 C 0.50123 0.58937 -0.37175
 C132 C 0.48793 0.60203 -0.33225
 C133 C 0.45474 0.57938 -0.30900
 C134 C 0.43466 0.54376 -0.32609
 C135 C 0.44784 0.53108 -0.36575
 C136 C 0.48135 0.55370 -0.38887
 N137 N 0.44228 0.59310 -0.26789
 N138 N 0.41314 0.57359 -0.24318
 C139 C 0.40095 0.58742 -0.20181
 C140 C 0.36971 0.56409 -0.17407
 C141 C 0.35753 0.57661 -0.13265
 C142 C 0.37642 0.61289 -0.11841
 C143 C 0.40760 0.63633 -0.14685
 C144 C 0.41980 0.62372 -0.18807
 H145 H 0.52709 0.60750 -0.38879
 H146 H 0.50364 0.62954 -0.31942
 H147 H 0.40889 0.52573 -0.30875
 H148 H 0.43188 0.50347 -0.37800
 H149 H 0.35492 0.53607 -0.18434
 H150 H 0.33337 0.55786 -0.11173
 H151 H 0.42281 0.66441 -0.13699
 H152 H 0.44401 0.64232 -0.20900
 C153 C 0.57557 0.08620 -0.37748
 C154 C 0.59066 0.11293 -0.33826
 C155 C 0.57006 0.12402 -0.31182
 C156 C 0.53400 0.10813 -0.32522
 C157 C 0.51888 0.08148 -0.36451
 C158 C 0.53948 0.07015 -0.39103
 N159 N 0.58624 0.15116 -0.27135
 N160 N 0.56863 0.16158 -0.24475
 C161 C 0.58449 0.18846 -0.20391
 C162 C 0.56292 0.19701 -0.17445
 C163 C 0.57725 0.22240 -0.13328
 C164 C 0.61364 0.23987 -0.12098
 C165 C 0.63537 0.23160 -0.15125
 C166 C 0.62092 0.20606 -0.19228
 H167 H 0.59217 0.07813 -0.39719
 H168 H 0.61847 0.12496 -0.32827
 H169 H 0.51750 0.11625 -0.30536
 H170 H 0.49103 0.06968 -0.37398
 H171 H 0.53481 0.18367 -0.18311
 H172 H 0.55977 0.22820 -0.11095
 H173 H 0.66348 0.24454 -0.14285
 H174 H 0.63817 0.19995 -0.21462
 C175 C 0.90891 0.42824 -0.37244
 C176 C 0.88301 0.41324 -0.33228
 C177 C 0.86888 0.43250 -0.31030
 C178 C 0.88090 0.46720 -0.32913
 C179 C 0.90695 0.48240 -0.36924
 C180 C 0.92144 0.46315 -0.39140
 N181 N 0.84283 0.41633 -0.26850
 N182 N 0.82782 0.43163 -0.24776
 C183 C 0.80219 0.41538 -0.20536
 C184 C 0.78563 0.43299 -0.18586
 C185 C 0.76094 0.41817 -0.14394
 C186 C 0.75249 0.38539 -0.12049
 C187 C 0.76909 0.36767 -0.14040
 C188 C 0.79367 0.38248 -0.18249
 H189 H 0.91924 0.41243 -0.38827
 H190 H 0.87397 0.38649 -0.31806
 H191 H 0.87036 0.48264 -0.31263
 H192 H 0.91577 0.50927 -0.38265
 H193 H 0.79199 0.45836 -0.20312
 H194 H 0.74871 0.43257 -0.12963
 H195 H 0.76315 0.34237 -0.12340
 H196 H 0.80615 0.36834 -0.19685
 C197 C 0.58792 0.50483 -0.35959
 C198 C 0.60001 0.49241 -0.31752
 C199 C 0.57877 0.45776 -0.29757
 C200 C 0.54504 0.43546 -0.32015
 C201 C 0.53279 0.44782 -0.36207
 C202 C 0.55407 0.48272 -0.38248
 N203 N 0.59203 0.44588 -0.25451
 N204 N 0.57456 0.41422 -0.23605
 C205 C 0.58765 0.40218 -0.19299
 C206 C 0.56784 0.36644 -0.17710
 C207 C 0.57998 0.35362 -0.13572
 C208 C 0.61222 0.37652 -0.10917
 C209 C 0.63194 0.41255 -0.12497
 C210 C 0.61981 0.42527 -0.16659
 H211 H 0.60516 0.53184 -0.37397
 H212 H 0.62606 0.50984 -0.30043
 H213 H 0.52809 0.40854 -0.30536
 H214 H 0.50662 0.42990 -0.37843
 H215 H 0.54300 0.34841 -0.19712
 H216 H 0.56410 0.32576 -0.12458
 H217 H 0.65691 0.43088 -0.10552
 H218 H 0.63558 0.45306 -0.17812
 C219 C 0.91239 0.49427 0.36600
 C220 C 0.88719 0.48262 0.32463
 C221 C 0.87336 0.44877 0.30221
 C222 C 0.88508 0.42646 0.32163
 C223 C 0.91043 0.43807 0.36295
 C224 C 0.92448 0.47219 0.38578
 N225 N 0.84761 0.43788 0.25978
 N226 N 0.83288 0.40701 0.23876
 C227 C 0.80724 0.39636 0.19619
 C228 C 0.79089 0.36147 0.17676
 C229 C 0.76567 0.35014 0.13539
 C230 C 0.75646 0.37368 0.11245
 C231 C 0.77306 0.40881 0.13198
 C232 C 0.79818 0.42005 0.17353
 H233 H 0.92244 0.52070 0.38227
 H234 H 0.87836 0.50005 0.30996
 H235 H 0.87477 0.40014 0.30484
 H236 H 0.91895 0.42024 0.37691
 H237 H 0.79766 0.34298 0.19386
 H238 H 0.75346 0.32292 0.12135
 H239 H 0.76654 0.42760 0.11534
 H240 H 0.81050 0.44720 0.18785
 C241 C 0.50422 0.08013 0.37076
 C242 C 0.51488 0.10605 0.33031
 C243 C 0.54739 0.11920 0.30419
 C244 C 0.56943 0.10624 0.31919
 C245 C 0.55894 0.08044 0.35977
 C246 C 0.52611 0.06691 0.38612
 N247 N 0.55738 0.14559 0.26269
 N248 N 0.58583 0.15739 0.23569
 C249 C 0.59598 0.18382 0.19424
 C250 C 0.62670 0.19412 0.16445
 C251 C 0.63732 0.21971 0.12352
 C252 C 0.61736 0.23562 0.11181
 C253 C 0.58655 0.22532 0.14207
 C254 C 0.57589 0.19960 0.18284
 H255 H 0.47880 0.07054 0.38994
 H256 H 0.49769 0.11587 0.31911
 H257 H 0.59475 0.11605 0.29963
 H258 H 0.57661 0.07107 0.37026
 H259 H 0.64242 0.18218 0.17294
 H260 H 0.66125 0.22709 0.10119
 H261 H 0.57056 0.23702 0.13414
 H262 H 0.55204 0.19211 0.20542
 C263 C 0.59315 0.50066 0.37574
 C264 C 0.60638 0.48761 0.33672
 C265 C 0.58456 0.45384 0.31420
 C266 C 0.54923 0.43298 0.33151
 C267 C 0.53599 0.44593 0.37063
 C268 C 0.55776 0.47998 0.39305
 N269 N 0.59874 0.44162 0.27342
 N270 N 0.57991 0.41176 0.24990
 C271 C 0.59383 0.39966 0.20858
 C272 C 0.57096 0.36755 0.18229
 C273 C 0.58334 0.35554 0.14047
 C274 C 0.61904 0.37548 0.12432
 C275 C 0.64213 0.40746 0.15153
 C276 C 0.62963 0.41950 0.19320
 H277 H 0.61063 0.52696 0.39225
 H278 H 0.63365 0.50394 0.32369
 H279 H 0.53183 0.40676 0.31472
 H280 H 0.50862 0.42933 0.38306
 H281 H 0.54332 0.35200 0.19385
 H282 H 0.56486 0.33075 0.12055
 H283 H 0.66976 0.42348 0.14016
 H284 H 0.64787 0.44439 0.21303
 C285 C 0.08628 0.58141 0.37205
 C286 C 0.11271 0.59527 0.33242
 C287 C 0.12404 0.57385 0.30910
 C288 C 0.10876 0.53829 0.32614
 C289 C 0.08246 0.52444 0.36579
 C290 C 0.07083 0.54579 0.38912
 N291 N 0.15079 0.58864 0.26807
 N292 N 0.16115 0.57003 0.24407
 C293 C 0.18769 0.58446 0.20275
 C294 C 0.19630 0.56182 0.17630
 C295 C 0.22151 0.57480 0.13496
 C296 C 0.23873 0.61087 0.11949
 C297 C 0.23030 0.63365 0.14668
 C298 C 0.20498 0.62057 0.18785
 H299 H 0.07795 0.59856 0.38925
 H300 H 0.12429 0.62273 0.31963
 H301 H 0.11707 0.52117 0.30879
 H302 H 0.07113 0.49690 0.37797
 H303 H 0.18318 0.53394 0.18750
 H304 H 0.22741 0.55655 0.11502
 H305 H 0.24303 0.66156 0.13584
 H306 H 0.19883 0.63862 0.20780
 C307 C 0.41915 0.90800 0.36630
 C308 C 0.40440 0.88225 0.32561
 C309 C 0.42359 0.86799 0.30378
 C310 C 0.45791 0.87977 0.32324
 C311 C 0.47277 0.90560 0.36375
 C312 C 0.45357 0.92006 0.38571
 N313 N 0.40788 0.84190 0.26174
 N314 N 0.42360 0.82707 0.24188
 C315 C 0.40854 0.80124 0.19947
 C316 C 0.42699 0.78514 0.18187
 C317 C 0.41338 0.76002 0.14035
 C318 C 0.38097 0.75063 0.11533
 C319 C 0.36244 0.76688 0.13314
 C320 C 0.37607 0.79195 0.17494
 H321 H 0.40369 0.91863 0.38228
 H322 H 0.37794 0.87342 0.31094
 H323 H 0.47334 0.86918 0.30698
 H324 H 0.49931 0.91428 0.37780
 H325 H 0.45205 0.79213 0.20045
 H326 H 0.42840 0.74810 0.12770
 H327 H 0.33739 0.76020 0.11486
 H328 H 0.36134 0.80411 0.18786
 C329 C 0.50716 0.58621 0.36052
 C330 C 0.49464 0.59861 0.31901
 C331 C 0.45960 0.57797 0.30094
 C332 C 0.43707 0.54452 0.32482
 C333 C 0.44957 0.53202 0.36616
 C334 C 0.48475 0.55274 0.38454
 N335 N 0.44756 0.59144 0.25838
 N336 N 0.41559 0.57451 0.24190
 C337 C 0.40317 0.58749 0.19922
 C338 C 0.36729 0.56791 0.18520
 C339 C 0.35415 0.57960 0.14370
 C340 C 0.37684 0.61120 0.11516
 C341 C 0.41296 0.63086 0.12935
 C342 C 0.42603 0.61915 0.17109
 H343 H 0.53440 0.60280 0.37368
 H344 H 0.51226 0.62441 0.30090
 H345 H 0.40986 0.52801 0.31152
 H346 H 0.43163 0.50615 0.38381
 H347 H 0.34943 0.54347 0.20658
 H348 H 0.32621 0.56377 0.13386
 H349 H 0.43114 0.65533 0.10831
 H350 H 0.45392 0.63474 0.18122
   
