data_POSCAR
  _audit_creation_date              2014-09-24
  _audit_creation_method            'ToBaCCo'
  _symmetry_space_group_name_H-M    'P1'
  _symmetry_Int_Tables_number       1
  _symmetry_cell_setting            triclinic
  loop_
  _symmetry_equiv_pos_as_xyz
 x,y,z
_cell_length_a 20.4553
_cell_length_b 20.4481
_cell_length_c 49.7574
_cell_angle_alpha 87.862700
_cell_angle_beta 91.468400
_cell_angle_gamma 119.848800
loop_
  _atom_site_label
  _atom_site_type_symbol
  _atom_site_fract_x
  _atom_site_fract_y
  _atom_site_fract_z
C1 C 0.00636 0.13166 0.53609
 H2 H 0.06185 0.13736 0.53615
 C3 C -0.00926 0.17386 0.55341
 H4 H 0.03438 0.21202 0.56694
 C5 C -0.11869 0.07308 0.51885
 H6 H -0.16099 0.03324 0.50541
 C7 C -0.13654 0.11527 0.53571
 H8 H -0.19271 0.10807 0.53521
 N9 N -0.04855 0.08100 0.51984
 C10 C 0.01169 -0.09418 0.51259
 H11 H 0.01928 -0.09403 0.49114
 C12 C 0.01412 -0.14948 0.52937
 H13 H 0.02435 -0.19159 0.52092
 C14 C -0.01569 -0.04278 0.54976
 H15 H -0.03007 -0.00322 0.55767
 C16 C -0.01349 -0.09658 0.56715
 H17 H -0.02513 -0.09725 0.58831
 Zn18 Zn -0.01996 0.02334 0.49950
 N19 N -0.00356 -0.04255 0.52298
 C20 C 0.13151 0.08620 0.48015
 N21 N 0.06836 0.09247 0.48072
 C22 C 0.06463 0.14956 0.46723
 C23 C 0.12443 0.20124 0.45137
 C24 C 0.19317 0.13723 0.46455
 C25 C -0.15610 -0.10280 0.48384
 C26 C -0.20547 -0.15641 0.46574
 C27 C -0.13405 -0.07192 0.42917
 C28 C -0.08544 -0.02081 0.44790
 N29 N -0.09609 -0.03759 0.47467
 H30 H 0.13363 0.04091 0.49129
 H31 H 0.01386 0.15338 0.46816
 H32 H 0.11899 0.24423 0.43980
 H33 H 0.24248 0.13078 0.46359
 H34 H -0.16378 -0.11463 0.50525
 H35 H -0.25314 -0.20761 0.47363
 H36 H -0.12077 -0.05785 0.40807
 H37 H -0.03722 0.03071 0.44084
 C38 C 0.00017 -0.15137 0.55690
 C39 C -0.08181 0.16468 0.55378
 C40 C -0.19285 -0.14338 0.43780
 C41 C 0.18968 0.19541 0.44985
 C42 C 1.14782 0.03780 0.13132
 H43 H 1.14873 0.09100 0.13233
 C44 C 1.19411 0.03001 0.11323
 H45 H 1.23076 0.07742 0.10025
 C46 C 1.09682 -0.08957 0.14642
 H47 H 1.05848 -0.13595 0.15934
 C48 C 1.14301 -0.09964 0.12869
 H49 H 1.14014 -0.15387 0.12796
 N50 N 1.09875 -0.02209 0.14682
 C51 C 0.91573 0.02662 0.15501
 H52 H 0.91397 0.03089 0.17655
 C53 C 0.86264 0.03264 0.13837
 H54 H 0.82014 0.04214 0.14703
 C55 C 0.97098 0.00569 0.11732
 H56 H 1.01142 -0.00729 0.10916
 C57 C 0.91933 0.01147 0.10006
 H58 H 0.92113 0.00404 0.07869
 Zn59 Zn 1.03328 -0.00422 0.16753
 N60 N 0.96847 0.01333 0.14427
 C61 C 1.09082 0.14527 0.18683
 N62 N 1.09457 0.08061 0.18857
 C63 C 1.14309 0.07330 0.20592
 C64 C 1.18636 0.13008 0.22384
 C65 C 1.13447 0.20437 0.20409
 C66 C 0.92058 -0.15485 0.17919
 C67 C 0.86682 -0.21396 0.19529
 C68 C 0.91751 -0.13442 0.23376
 C69 C 0.96996 -0.07712 0.21705
 N70 N 0.97048 -0.08789 0.19025
 H71 H 1.05348 0.15076 0.17233
 H72 H 1.14595 0.02183 0.20648
 H73 H 1.22246 0.12209 0.23829
 H74 H 1.13066 0.25536 0.20283
 H75 H 0.92085 -0.16137 0.15772
 H76 H 0.82595 -0.26636 0.18629
 H77 H 0.91627 -0.12424 0.25491
 H78 H 1.00777 -0.02301 0.22543
 C79 C 0.86396 0.02411 0.11061
 C80 C 1.19054 -0.03984 0.11129
 C81 C 0.86436 -0.20304 0.22281
 C82 C 1.18085 0.19573 0.22351
 C83 C 0.09606 0.97124 0.86969
 H84 H 0.04321 0.91853 0.87016
 C85 C 0.15395 0.98152 0.88737
 H86 H 0.14566 0.93653 0.90153
 C87 C 0.17014 1.09497 0.85115
 H88 H 0.17569 1.13892 0.83705
 C89 C 0.23007 1.10758 0.86853
 H90 H 0.28188 1.16136 0.86785
 N91 N 0.10431 1.02804 0.85251
 C92 C -0.13158 0.96958 0.84798
 H93 H -0.14843 0.94993 0.82774
 C94 C -0.18333 0.97261 0.86510
 H95 H -0.24016 0.95410 0.85792
 C96 C -0.03578 1.02233 0.88126
 H97 H 0.02211 1.04356 0.88743
 C98 C -0.08467 1.02824 0.89861
 H99 H -0.06419 1.05087 0.91835
 Zn100 Zn 0.01647 1.00566 0.83234
 N101 N -0.05929 0.99432 0.85632
 C102 C -0.07680 0.85283 0.81414
 N103 N -0.00880 0.91756 0.81337
 C104 C 0.04819 0.92434 0.79791
 C105 C 0.03735 0.86603 0.78156
 C106 C -0.09017 0.79268 0.79794
 C107 C 0.04924 1.15297 0.81692
 C108 C 0.04818 1.20785 0.79954
 C109 C 0.01184 1.12070 0.76325
 C110 C 0.01369 1.06775 0.78121
 N111 N 0.03121 1.08419 0.80757
 H112 H -0.12094 0.84805 0.82693
 H113 H 0.10170 0.97636 0.79778
 H114 H 0.08258 0.87358 0.76864
 H115 H -0.14488 0.74196 0.79810
 H116 H 0.06132 1.16402 0.83809
 H117 H 0.06028 1.26163 0.80723
 H118 H -0.00490 1.10590 0.74253
 H119 H -0.00269 1.01228 0.77424
 C120 C -0.15900 1.00563 0.89039
 C121 C 0.22119 1.05078 0.88730
 C122 C 0.02726 1.19075 0.77254
 C123 C -0.03246 0.79929 0.78140
 C124 C 0.34991 0.00802 -0.00100
 C125 C 0.39544 0.03441 -0.02383
 C126 C 0.46447 0.03542 -0.02359
 C127 C 0.48794 0.00884 -0.00081
 C128 C 0.44035 -0.01845 0.02184
 C129 C 0.37190 -0.01825 0.02189
 C130 C 0.56180 0.01016 -0.00056
 C131 C 0.60139 0.01704 0.02384
 C132 C 0.66994 0.01705 0.02418
 C133 C 0.70163 0.01467 -0.00003
 C134 C 0.66517 0.01106 -0.02452
 C135 C 0.59433 0.00606 -0.02473
 H136 H 0.29681 0.00784 -0.00108
 H137 H 0.49976 0.05812 -0.04116
 H138 H 0.45544 -0.04076 0.03948
 H139 H 0.58002 0.02316 0.04268
 H140 H 0.75575 0.01693 0.00011
 H141 H 0.56586 0.00018 -0.04386
 C142 C -0.03927 0.66642 0.66716
 C143 C -0.05177 0.62363 0.69104
 C144 C -0.06200 0.55070 0.69007
 C145 C -0.05274 0.52278 0.66581
 C146 C -0.03809 0.56777 0.64210
 C147 C -0.03387 0.63832 0.64260
 C148 C -0.05599 0.44822 0.66552
 C149 C -0.08110 0.40352 0.64248
 C150 C -0.08209 0.33441 0.64212
 C151 C -0.05902 0.30927 0.66508
 C152 C -0.03585 0.35169 0.68830
 C153 C -0.03257 0.42169 0.68829
 H154 H -0.03320 0.72214 0.66772
 H155 H -0.07553 0.51684 0.70850
 H156 H -0.02931 0.54886 0.62319
 H157 H -0.10017 0.42180 0.62477
 H158 H -0.05866 0.25644 0.66486
 H159 H -0.01103 0.45523 0.70607
 C160 C 0.68873 0.67287 0.33058
 C161 C 0.65947 0.62980 0.30763
 C162 C 0.58946 0.56325 0.30886
 C163 C 0.54575 0.54234 0.33244
 C164 C 0.57498 0.58889 0.35494
 C165 C 0.64742 0.65237 0.35440
 C166 C 0.46978 0.47300 0.33356
 C167 C 0.44148 0.43296 0.35814
 C168 C 0.36861 0.37039 0.35965
 C169 C 0.32598 0.34371 0.33607
 C170 C 0.35332 0.38129 0.31128
 C171 C 0.42460 0.44646 0.31019
 H172 H 0.74370 0.72341 0.32977
 H173 H 0.56943 0.52882 0.29126
 H174 H 0.54197 0.57638 0.37301
 H175 H 0.47542 0.45018 0.37631
 H176 H 0.27106 0.29319 0.33704
 H177 H 0.44398 0.47626 0.29105
 C178 C -0.05546 0.32683 0.59452
 C179 C -0.05497 0.28507 0.57314
 C180 C -0.09863 0.20612 0.57377
 C181 C -0.14866 0.16908 0.59550
 C182 C -0.15040 0.21201 0.61696
 C183 C -0.09991 0.29089 0.61716
 C184 C -0.20153 0.17420 0.63799
 N185 N -0.24569 0.09812 0.63798
 N186 N -0.24202 0.05744 0.61841
 C187 C -0.19479 0.09012 0.59730
 H188 H -0.01656 0.38706 0.59424
 H189 H -0.01650 0.31423 0.55669
 H190 H -0.20695 0.20454 0.65434
 H191 H -0.19401 0.05384 0.58227
 C192 C 0.77403 0.66448 0.28166
 C193 C 0.82400 0.70522 0.26099
 C194 C 0.80383 0.74022 0.24030
 C195 C 0.73016 0.73046 0.23963
 C196 C 0.67924 0.68911 0.26074
 C197 C 0.70247 0.65773 0.28229
 C198 C 0.60809 0.68421 0.26024
 N199 N 0.58926 0.71749 0.23977
 N200 N 0.63695 0.75610 0.21996
 C201 C 0.70680 0.76416 0.21927
 H202 H 0.79285 0.64156 0.29813
 H203 H 0.88043 0.71304 0.26193
 H204 H 0.56730 0.65469 0.27592
 H205 H 0.74330 0.79705 0.20285
 C206 C 0.35479 0.01216 -0.07139
 C207 C 0.31184 0.01582 -0.09294
 C208 C 0.27978 0.06243 -0.09234
 C209 C 0.29589 0.11037 -0.07031
 C210 C 0.34061 0.10737 -0.04854
 C211 C 0.36682 0.05492 -0.04855
 C212 C 0.35643 0.15612 -0.02710
 N213 N 0.32725 0.20287 -0.02715
 N214 N 0.28331 0.20403 -0.04716
 C215 C 0.26631 0.15920 -0.06864
 H216 H 0.37433 -0.02827 -0.07177
 H217 H 0.29980 -0.02135 -0.10959
 H218 H 0.39208 0.15776 -0.01040
 H219 H 0.22995 0.16240 -0.08411
 C220 C 0.04235 0.75570 0.61587
 C221 C 0.05096 0.80657 0.59500
 C222 C -0.00496 0.78767 0.57521
 C223 C -0.06969 0.71480 0.57588
 C224 C -0.07875 0.66301 0.59725
 C225 C -0.02264 0.68451 0.61766
 C226 C -0.14566 0.59271 0.59809
 N227 N -0.19881 0.57540 0.57857
 N228 N -0.19009 0.62383 0.55847
 C229 C -0.12768 0.69299 0.55653
 H230 H 0.08546 0.77314 0.63140
 H231 H 0.10024 0.86242 0.59491
 H232 H -0.15672 0.55149 0.61410
 H233 H -0.12427 0.73021 0.53995
 C234 C 0.34397 0.32950 0.26632
 C235 C 0.30179 0.28356 0.24533
 C236 C 0.22353 0.25379 0.24379
 C237 C 0.18784 0.27494 0.26305
 C238 C 0.23146 0.32386 0.28391
 C239 C 0.30937 0.34779 0.28635
 C240 C 0.19526 0.34645 0.30201
 N241 N 0.11982 0.31866 0.30013
 N242 N 0.07824 0.26987 0.28139
 C243 C 0.10944 0.24670 0.26294
 H244 H 0.40342 0.34723 0.26776
 H245 H 0.33003 0.26823 0.23079
 H246 H 0.22633 0.38625 0.31754
 H247 H 0.07236 0.20623 0.24855
 C248 C 0.67694 -0.04544 -0.06620
 C249 C 0.71984 -0.04627 -0.08745
 C250 C 0.79250 0.01500 -0.09241
 C251 C 0.81698 0.08238 -0.07798
 C252 C 0.77327 0.08298 -0.05648
 C253 C 0.70469 0.01714 -0.04978
 C254 C 0.79917 0.15024 -0.04249
 N255 N 0.86359 0.21310 -0.05012
 N256 N 0.90349 0.21342 -0.07088
 C257 C 0.88215 0.15069 -0.08519
 H258 H 0.62379 -0.09566 -0.06156
 H259 H 0.69871 -0.09786 -0.09840
 H260 H 0.76798 0.15397 -0.02596
 H261 H 0.91536 0.15542 -0.10247
 C262 C 0.35816 0.00225 0.06957
 C263 C 0.31383 -0.00247 0.09115
 C264 C 0.23530 -0.04899 0.09031
 C265 C 0.20134 -0.09555 0.06789
 C266 C 0.24686 -0.09178 0.04617
 C267 C 0.32531 -0.03949 0.04649
 C268 C 0.21200 -0.13969 0.02447
 N269 N 0.13624 -0.18602 0.02416
 N270 N 0.09312 -0.18756 0.04404
 C271 C 0.12290 -0.14373 0.06578
 H272 H 0.41801 0.04253 0.07021
 H273 H 0.34061 0.03354 0.10809
 H274 H 0.24435 -0.14099 0.00785
 H275 H 0.08475 -0.14710 0.08107
 C276 C 0.70318 0.77619 0.37530
 C277 C 0.74451 0.82662 0.39519
 C278 C 0.76500 0.80315 0.41944
 C279 C 0.74292 0.72470 0.42283
 C280 C 0.69966 0.67317 0.40233
 C281 C 0.68081 0.69979 0.37830
 C282 C 0.68102 0.59713 0.40574
 N283 N 0.70580 0.57444 0.42766
 N284 N 0.74952 0.62284 0.44610
 C285 C 0.77010 0.69688 0.44420
 H286 H 0.68952 0.79747 0.35700
 H287 H 0.75834 0.88474 0.39172
 H288 H 0.64843 0.55552 0.39099
 H289 H 0.81021 0.73307 0.45889
 C290 C 0.04732 0.31131 0.71113
 C291 C 0.06278 0.27257 0.73160
 C292 C 0.01598 0.24271 0.75406
 C293 C -0.04638 0.25449 0.75638
 C294 C -0.06204 0.29413 0.73552
 C295 C -0.01541 0.32135 0.71252
 C296 C -0.12620 0.30198 0.73786
 N297 N -0.17092 0.27264 0.75973
 N298 N -0.15638 0.23530 0.77926
 C299 C -0.09608 0.22478 0.77827
 H300 H 0.08298 0.33121 0.69354
 H301 H 0.11001 0.26316 0.72941
 H302 H -0.14169 0.33062 0.72248
 H303 H -0.08810 0.19289 0.79453
 C304 C 0.78314 0.08420 0.05279
 C305 C 0.83030 0.08601 0.07375
 C306 C 0.80668 0.02538 0.09224
 C307 C 0.73267 -0.03703 0.09025
 C308 C 0.68462 -0.03909 0.06879
 C309 C 0.71105 0.02152 0.04960
 C310 C 0.61297 -0.10368 0.06659
 N311 N 0.59093 -0.16137 0.08493
 N312 N 0.63590 -0.15927 0.10511
 C313 C 0.70607 -0.09938 0.10831
 H314 H 0.80433 0.13067 0.03817
 H315 H 0.88700 0.13371 0.07489
 H316 H 0.57435 -0.10926 0.05045
 H317 H 0.74033 -0.10132 0.12488
 C318 C 0.31002 0.25402 0.38822
 C319 C 0.26759 0.21158 0.41027
 C320 C 0.24974 0.24542 0.43063
 C321 C 0.28065 0.32482 0.42973
 C322 C 0.32202 0.36790 0.40689
 C323 C 0.33547 0.33154 0.38570
 C324 C 0.34574 0.44548 0.40573
 N325 N 0.33269 0.47784 0.42670
 N326 N 0.29684 0.43790 0.44861
 C327 C 0.27040 0.36261 0.45084
 H328 H 0.32000 0.22539 0.37229
 H329 H 0.24460 0.15103 0.41056
 H330 H 0.37419 0.48093 0.38843
 H331 H 0.24202 0.33302 0.46916
 C332 C -0.10426 0.68192 0.71997
 C333 C -0.10084 0.72309 0.74216
 C334 C -0.04549 0.74034 0.76210
 C335 C 0.00374 0.71053 0.76058
 C336 C 0.00166 0.67021 0.73767
 C337 C -0.05228 0.65697 0.71696
 C338 C 0.05595 0.64733 0.73591
 N339 N 0.10563 0.66040 0.75639
 N340 N 0.10539 0.69547 0.77836
 C341 C 0.05626 0.72100 0.78115
 H342 H -0.14585 0.67219 0.70438
 H343 H -0.13883 0.74554 0.74294
 H344 H 0.06003 0.61966 0.71851
 H345 H 0.05838 0.74888 0.79947
   
