data_POSCAR
  _audit_creation_date              2014-09-24
  _audit_creation_method            'ToBaCCo'
  _symmetry_space_group_name_H-M    'P1'
  _symmetry_Int_Tables_number       1
  _symmetry_cell_setting            triclinic
  loop_
  _symmetry_equiv_pos_as_xyz
 x,y,z
_cell_length_a 24.3471
_cell_length_b 24.3290
_cell_length_c 30.0705
_cell_angle_alpha 90.316000
_cell_angle_beta 89.476000
_cell_angle_gamma 89.595600
loop_
  _atom_site_label
  _atom_site_type_symbol
  _atom_site_fract_x
  _atom_site_fract_y
  _atom_site_fract_z
B1 B 0.28705 0.23994 0.28310
 B2 B 0.22176 0.21879 0.28679
 B3 B 0.23502 0.28574 0.28992
 B4 B 0.28797 0.30066 0.25597
 B5 B 0.30709 0.24080 0.22987
 B6 B 0.26580 0.18912 0.24954
 B7 B 0.20073 0.26358 0.20744
 B8 B 0.26561 0.28667 0.20472
 B9 B 0.25297 0.21910 0.20039
 B10 B 0.19966 0.20337 0.23499
 B11 B 0.18057 0.26349 0.26058
 B12 B 0.22151 0.31484 0.24142
 B13 B 0.73769 0.78141 0.29179
 B14 B 0.80358 0.77836 0.27526
 B15 B 0.76931 0.72027 0.28526
 B16 B 0.70377 0.72828 0.26838
 B17 B 0.69832 0.79304 0.24733
 B18 B 0.76066 0.82466 0.25232
 B19 B 0.77324 0.73650 0.19692
 B20 B 0.70770 0.73852 0.21322
 B21 B 0.74178 0.79713 0.20380
 B22 B 0.80722 0.78901 0.22032
 B23 B 0.81257 0.72391 0.24126
 B24 B 0.75055 0.69256 0.23648
 B25 B 0.73681 0.22219 -0.28637
 B26 B 0.79249 0.18533 -0.27394
 B27 B 0.79943 0.25120 -0.28920
 B28 B 0.74558 0.28766 -0.26830
 B29 B 0.70579 0.24264 -0.23870
 B30 B 0.73541 0.17891 -0.24273
 B31 B 0.80766 0.24637 -0.20030
 B32 B 0.75113 0.28369 -0.21256
 B33 B 0.74542 0.21782 -0.19709
 B34 B 0.79846 0.18118 -0.21836
 B35 B 0.83783 0.22584 -0.24792
 B36 B 0.80872 0.28986 -0.24370
 B37 B 0.26524 0.78633 -0.20002
 B38 B 0.27330 0.72259 -0.22037
 B39 B 0.21302 0.74208 -0.19767
 B40 B 0.20086 0.80845 -0.21038
 B41 B 0.25498 0.83023 -0.24228
 B42 B 0.30006 0.77647 -0.24796
 B43 B 0.20372 0.74654 -0.28639
 B44 B 0.19584 0.81015 -0.26588
 B45 B 0.25636 0.79083 -0.28876
 B46 B 0.26805 0.72449 -0.27595
 B47 B 0.21422 0.70268 -0.24415
 B48 B 0.16904 0.75625 -0.23829
 B49 B 1.22536 1.26660 0.80227
 B50 B 1.29112 1.26550 0.78595
 B51 B 1.25792 1.20638 0.79563
 B52 B 1.19243 1.21342 0.77879
 B53 B 1.18593 1.27824 0.75774
 B54 B 1.24748 1.31072 0.76264
 B55 B 1.26205 1.22213 0.70748
 B56 B 1.19622 1.22390 0.72385
 B57 B 1.22921 1.28263 0.71390
 B58 B 1.29481 1.27570 0.73082
 B59 B 1.30135 1.21098 0.75208
 B60 B 1.23972 1.17863 0.74688
 B61 B 0.79099 0.74722 0.80309
 B62 B 0.72316 0.74594 0.79503
 B63 B 0.75574 0.80635 0.79969
 B64 B 0.81805 0.80086 0.77544
 B65 B 0.82306 0.73542 0.75474
 B66 B 0.76406 0.70126 0.76727
 B67 B 0.73816 0.78730 0.71292
 B68 B 0.80599 0.78819 0.72151
 B69 B 0.77351 0.72802 0.71664
 B70 B 0.71091 0.73351 0.74089
 B71 B 0.70573 0.79883 0.76158
 B72 B 0.76504 0.83316 0.74891
 B73 B 1.19917 0.74978 0.19766
 B74 B 1.25591 0.71236 0.20945
 B75 B 1.26151 0.77834 0.19424
 B76 B 1.20876 0.81483 0.21588
 B77 B 1.16957 0.77013 0.24551
 B78 B 1.19849 0.70602 0.24092
 B79 B 1.27079 0.77351 0.28361
 B80 B 1.21519 0.81044 0.27131
 B81 B 1.20796 0.74450 0.28663
 B82 B 1.26176 0.70803 0.26534
 B83 B 1.30144 0.75320 0.23566
 B84 B 1.27199 0.81686 0.23997
 B85 B 0.78117 1.25614 0.19497
 B86 B 0.71641 1.26524 0.21198
 B87 B 0.73968 1.20213 0.19892
 B88 B 0.80547 1.19624 0.21472
 B89 B 0.82252 1.25743 0.23922
 B90 B 0.76678 1.30047 0.23703
 B91 B 0.73918 1.21145 0.28760
 B92 B 0.80406 1.20282 0.27018
 B93 B 0.78100 1.26598 0.28384
 B94 B 0.71490 1.27177 0.26764
 B95 B 0.69804 1.21082 0.24336
 B96 B 0.75362 1.16764 0.24535
 N97 N 0.44134 1.05305 -0.08162
 N98 N 0.40043 1.05357 -0.10999
 N99 N 0.54972 1.10560 -0.04581
 N100 N 0.58696 1.14444 -0.04955
 N101 N 0.55536 1.06909 -0.07777
 N102 N 0.59651 1.08209 -0.10441
 N103 N 0.43547 1.09243 -0.05190
 N104 N 0.39067 1.12157 -0.05968
 C105 C 0.36923 1.09637 -0.09574
 C106 C 0.61582 1.12898 -0.08617
 N107 N 0.54135 1.06713 0.08128
 N108 N 0.58381 1.07289 0.10754
 N109 N 0.42717 1.09179 0.04297
 N110 N 0.38565 1.12605 0.04843
 N111 N 0.42764 1.05463 0.07451
 N112 N 0.38677 1.06387 0.10310
 N113 N 0.54216 1.10397 0.04947
 N114 N 0.58603 1.13532 0.05294
 Mn115 Mn 0.48874 1.09918 -0.00120
 C116 C 0.61103 1.11535 0.08949
 C117 C 0.36046 1.10808 0.08563
 N118 N 0.57227 0.95314 -0.07759
 N119 N 0.61537 0.95221 -0.10431
 N120 N 0.46346 0.89867 -0.05132
 N121 N 0.42740 0.85947 -0.05713
 N122 N 0.45888 0.93622 -0.08219
 N123 N 0.41974 0.92325 -0.11043
 N124 N 0.57733 0.91654 -0.04599
 N125 N 0.62463 0.88990 -0.05012
 Mn126 Mn 0.50671 1.00285 -0.08036
 C127 C 0.64800 0.91332 -0.08638
 C128 C 0.40071 0.87523 -0.09403
 N129 N 0.44417 0.93559 0.07393
 N130 N 0.40317 0.92084 0.10010
 N131 N 0.56798 0.91538 0.04906
 N132 N 0.61400 0.88813 0.05605
 N133 N 0.55772 0.95046 0.08142
 N134 N 0.59627 0.94726 0.11197
 N135 N 0.45380 0.89800 0.04323
 N136 N 0.41868 0.85715 0.04709
 Mn137 Mn 0.49224 1.00194 0.07838
 Mn138 Mn 0.51596 0.90646 -0.00125
 Cl139 Cl 0.50069 1.00258 -0.00107
 C140 C 0.38742 0.87214 0.08262
 C141 C 0.63123 0.90868 0.09521
 N142 N 1.08472 0.57476 0.54832
 N143 N 1.11765 0.61624 0.55699
 N144 N 1.06457 0.45437 0.58110
 N145 N 1.08262 0.42146 0.61286
 N146 N 1.10230 0.46018 0.55002
 N147 N 1.14671 0.43140 0.55970
 N148 N 1.04860 0.56866 0.58064
 N149 N 1.05673 0.60517 0.61256
 C150 C 1.09929 0.63501 0.59688
 C151 C 1.13376 0.40689 0.59862
 N152 N 0.90784 0.43469 0.55114
 N153 N 0.87515 0.39298 0.56030
 N154 N 0.93071 0.55384 0.58070
 N155 N 0.91257 0.58694 0.61271
 N156 N 0.89352 0.54886 0.54953
 N157 N 0.84910 0.57779 0.55977
 N158 N 0.94651 0.43896 0.58111
 N159 N 0.94176 0.39978 0.61105
 Mn160 Mn 0.99752 0.50383 0.58123
 C161 C 0.89711 0.37157 0.59762
 C162 C 0.86190 0.60200 0.59881
 N163 N 1.10234 0.45763 0.45463
 N164 N 1.14725 0.42904 0.44586
 N165 N 1.04950 0.56517 0.42084
 N166 N 1.05746 0.60088 0.38845
 N167 N 1.08693 0.57128 0.45170
 N168 N 1.12185 0.61044 0.44060
 N169 N 1.06544 0.45039 0.42345
 N170 N 1.08493 0.41648 0.39245
 Mn171 Mn 1.09420 0.51621 0.50120
 C172 C 1.13568 0.40303 0.40748
 C173 C 1.10272 0.62873 0.40124
 N174 N 0.89374 0.54648 0.45303
 N175 N 0.84965 0.57547 0.44277
 N176 N 0.94511 0.43512 0.42288
 N177 N 0.93033 0.40293 0.38921
 N178 N 0.90857 0.43198 0.45533
 N179 N 0.86929 0.39757 0.44479
 N180 N 0.93110 0.55004 0.42131
 N181 N 0.91326 0.58191 0.38883
 Mn182 Mn 0.90083 0.49063 0.50224
 Mn183 Mn 0.99791 0.49997 0.42170
 Cl184 Cl 0.99760 0.50265 0.50147
 C185 C 0.86260 0.59801 0.40304
 C186 C 0.88347 0.37880 0.40406
 N187 N 1.08367 0.56120 0.05718
 N188 N 1.11432 0.60496 0.06407
 N189 N 1.04468 0.44629 0.08597
 N190 N 1.04567 0.40396 0.11309
 N191 N 1.08662 0.44474 0.05825
 N192 N 1.11708 0.40048 0.06544
 N193 N 1.04006 0.56217 0.08316
 N194 N 1.03937 0.60716 0.10798
 C195 C 1.08603 0.63331 0.09568
 C196 C 1.09070 0.37567 0.09974
 N197 N 0.89694 0.43774 0.03912
 N198 N 0.86324 0.39598 0.04202
 N199 N 0.92324 0.55571 0.07221
 N200 N 0.90879 0.59597 0.09930
 N201 N 0.88965 0.55263 0.03848
 N202 N 0.85146 0.59133 0.04141
 N203 N 0.92855 0.44082 0.07413
 N204 N 0.91704 0.40087 0.10214
 Mn205 Mn 0.98413 0.50146 0.07946
 C206 C 0.87657 0.37323 0.08120
 C207 C 0.86438 0.61802 0.07943
 N208 N 1.10194 0.44449 -0.03694
 N209 N 1.14005 0.40585 -0.04063
 N210 N 1.06411 0.55857 -0.07195
 N211 N 1.07701 0.59656 -0.10119
 N212 N 1.09744 0.56016 -0.03779
 N213 N 1.13301 0.60051 -0.04235
 N214 N 1.06979 0.44428 -0.07176
 N215 N 1.08524 0.40575 -0.10023
 Mn216 Mn 1.09327 0.50249 0.01032
 C217 C 1.12868 0.38195 -0.08014
 C218 C 1.11941 0.62272 -0.08194
 N219 N 0.90380 0.55060 -0.05495
 N220 N 0.86943 0.59182 -0.05958
 N221 N 0.95368 0.43766 -0.08221
 N222 N 0.95681 0.39290 -0.10708
 N223 N 0.91096 0.43570 -0.05539
 N224 N 0.88295 0.39010 -0.06205
 N225 N 0.94550 0.55428 -0.08266
 N226 N 0.93981 0.59852 -0.10786
 Mn227 Mn 0.89982 0.49395 -0.00830
 Mn228 Mn 1.00824 0.49899 -0.07781
 Cl229 Cl 0.99654 0.49934 0.00087
 C230 C 0.89192 0.62120 -0.09260
 C231 C 0.91238 0.36379 -0.09424
 N232 N 0.44184 1.10024 0.54613
 N233 N 0.40208 1.13691 0.55160
 N234 N 0.55696 1.06354 0.58039
 N235 N 0.59025 1.07966 0.61268
 N236 N 0.55792 1.09918 0.54771
 N237 N 0.59177 1.13979 0.55674
 N238 N 0.44127 1.06422 0.57855
 N239 N 0.40175 1.07621 0.60749
 C240 C 0.37732 1.12124 0.58987
 C241 C 0.61237 1.12706 0.59697
 N242 N 0.55722 0.90597 0.54963
 N243 N 0.59485 0.86813 0.55765
 N244 N 0.44034 0.94431 0.58022
 N245 N 0.40222 0.93253 0.61046
 N246 N 0.44143 0.90654 0.54877
 N247 N 0.40416 0.86875 0.55644
 N248 N 0.55600 0.94313 0.58153
 N249 N 0.59228 0.93074 0.61259
 Mn250 Mn 0.49859 1.00381 0.58069
 C251 C 0.61658 0.88408 0.59680
 C252 C 0.37961 0.88548 0.59466
 N253 N 0.56021 1.09546 0.45181
 N254 N 0.59960 1.13130 0.44436
 N255 N 0.44354 1.06116 0.41922
 N256 N 0.41736 1.08042 0.38397
 N257 N 0.44509 1.09939 0.45045
 N258 N 0.42037 1.14465 0.43704
 N259 N 0.55873 1.05845 0.41981
 N260 N 0.59659 1.06893 0.38925
 Mn261 Mn 0.50133 1.09858 0.49911
 C262 C 0.62209 1.11407 0.40542
 C263 C 0.40210 1.13214 0.39618
 N264 N 0.44293 0.90262 0.45276
 N265 N 0.41130 0.86045 0.44283
 N266 N 0.55817 0.93911 0.42129
 N267 N 0.59733 0.92738 0.39192
 N268 N 0.55897 0.90358 0.45401
 N269 N 0.59909 0.86739 0.44825
 N270 N 0.44236 0.93898 0.42048
 N271 N 0.41055 0.92149 0.38762
 Mn272 Mn 0.50020 0.90451 0.50135
 Mn273 Mn 0.50039 0.99938 0.41982
 Cl274 Cl 0.49986 1.00157 0.50016
 C275 C 0.39055 0.87273 0.40251
 C276 C 0.62284 0.88291 0.40956
 N277 N 0.93964 1.08730 0.44987
 N278 N 0.93912 1.12022 0.41559
 N279 N 0.89325 1.03599 0.53684
 N280 N 0.85828 1.03076 0.57035
 N281 N 0.92281 1.08056 0.54152
 N282 N 0.90792 1.10753 0.57787
 N283 N 0.90805 1.04452 0.44350
 N284 N 0.88431 1.04788 0.40406
 C285 C 0.90444 1.09568 0.38752
 C286 C 0.86747 1.07612 0.59516
 N287 N 0.95930 0.88896 0.53349
 N288 N 0.95767 0.85483 0.56707
 N289 N 0.92921 0.92745 0.43984
 N290 N 0.89829 0.91200 0.40639
 N291 N 0.97387 0.89691 0.44181
 N292 N 0.97458 0.85989 0.40963
 N293 N 0.91482 0.91972 0.53248
 N294 N 0.88161 0.90719 0.56606
 Mn295 Mn 0.91033 0.98184 0.48805
 C296 C 0.90925 0.86627 0.58695
 C297 C 0.92752 0.87044 0.38766
 N298 N 1.03749 1.09996 0.55390
 N299 N 1.03471 1.13627 0.58642
 N300 N 1.09735 1.07441 0.46479
 N301 N 1.13519 1.08704 0.43536
 N302 N 1.05410 1.10638 0.46121
 N303 N 1.06188 1.14243 0.42895
 N304 N 1.08198 1.06953 0.55689
 N305 N 1.11119 1.08473 0.59150
 Mn306 Mn 0.98828 1.09420 0.50165
 C307 C 1.08057 1.12584 0.60972
 C308 C 1.11234 1.12858 0.41262
 N309 N 1.08914 0.91650 0.45494
 N310 N 1.10405 0.88985 0.41851
 N311 N 1.10369 0.95352 0.55294
 N312 N 1.12440 0.95500 0.59331
 N313 N 1.07300 0.90987 0.54750
 N314 N 1.07124 0.88095 0.58438
 N315 N 1.11906 0.96056 0.46037
 N316 N 1.15446 0.96594 0.42717
 Mn317 Mn 1.02407 0.90246 0.49425
 Mn318 Mn 1.10112 1.01455 0.50896
 Cl319 Cl 1.00577 0.99817 0.49824
 C320 C 1.14498 0.92105 0.40190
 C321 C 1.10394 0.90927 0.61218
 N322 N 0.58999 0.56586 0.05380
 N323 N 0.62270 0.60516 0.06845
 N324 N 0.55264 0.44846 0.07882
 N325 N 0.55632 0.41123 0.11010
 N326 N 0.59791 0.45031 0.05471
 N327 N 0.63438 0.41429 0.07016
 N328 N 0.54536 0.56371 0.07861
 N329 N 0.54560 0.60206 0.10969
 C330 C 0.59370 0.62778 0.10286
 C331 C 0.60704 0.39006 0.10464
 N332 N 0.40276 0.43968 0.03336
 N333 N 0.36161 0.40634 0.04178
 N334 N 0.42981 0.55735 0.06776
 N335 N 0.40906 0.58448 0.10215
 N336 N 0.39384 0.55404 0.03546
 N337 N 0.34672 0.57699 0.04866
 N338 N 0.43650 0.44124 0.06715
 N339 N 0.41919 0.40838 0.09909
 Mn340 Mn 0.49127 0.50262 0.07305
 C341 C 0.37329 0.38566 0.08222
 C342 C 0.35777 0.59753 0.08975
 N343 N 0.61523 0.45086 -0.04335
 N344 N 0.66194 0.42662 -0.05580
 N345 N 0.57117 0.56149 -0.07671
 N346 N 0.57947 0.60012 -0.10641
 N347 N 0.60566 0.56587 -0.04352
 N348 N 0.63926 0.60780 -0.05045
 N349 N 0.57882 0.44596 -0.07520
 N350 N 0.59901 0.41677 -0.10868
 Mn351 Mn 0.60313 0.50831 0.00558
 C352 C 0.65030 0.40393 -0.09601
 C353 C 0.62183 0.62866 -0.08989
 N354 N 0.41092 0.55419 -0.06288
 N355 N 0.37091 0.58227 -0.08248
 N356 N 0.46274 0.43960 -0.08609
 N357 N 0.46118 0.40124 -0.11706
 N358 N 0.41783 0.43937 -0.06166
 N359 N 0.38387 0.40105 -0.07595
 N360 N 0.45552 0.55466 -0.08794
 N361 N 0.44749 0.58353 -0.12404
 Mn362 Mn 0.40587 0.49716 -0.01400
 Mn363 Mn 0.51706 0.50028 -0.08134
 Cl364 Cl 0.50441 0.50231 -0.00418
 C365 C 0.39524 0.60113 -0.12026
 C366 C 0.41214 0.37726 -0.11011
 N367 N 0.28996 1.18096 0.08534
 N368 N 0.26197 1.21048 0.11469
 C369 C 0.26737 1.18779 0.15526
 C370 C 0.30113 1.14146 0.15109
 C371 C 0.31499 1.13920 0.10631
 H372 H 0.31903 1.11759 0.17761
 H373 H 0.29549 1.19220 0.05212
 H374 H 0.24400 1.24828 0.10715
 N375 N 0.76861 0.63882 0.61692
 N376 N 0.74523 0.67026 0.64777
 C377 C 0.78420 0.68806 0.67585
 C378 C 0.83444 0.66568 0.66275
 C379 C 0.82277 0.63521 0.62517
 H380 H 0.87396 0.67071 0.67833
 H381 H 0.74756 0.61981 0.59100
 H382 H 0.70333 0.67970 0.64919
 N383 N 0.72704 0.87373 0.09918
 N384 N 0.75636 0.84448 0.12738
 C385 C 0.72615 0.83662 0.16455
 C386 C 0.67655 0.86425 0.16052
 C387 C 0.67860 0.88657 0.11861
 H388 H 0.64177 0.86398 0.18319
 H389 H 0.73925 0.88284 0.06667
 H390 H 0.79528 0.82818 0.12029
 N391 N 1.22654 0.36724 0.61206
 N392 N 1.25143 0.33618 0.64172
 C393 C 1.21466 0.32090 0.67297
 C394 C 1.16392 0.34434 0.66282
 C395 C 1.17332 0.37318 0.62380
 H396 H 1.12574 0.34119 0.68123
 H397 H 1.24605 0.38439 0.58441
 H398 H 1.29304 0.32549 0.64028
 N399 N 0.68796 1.20058 -0.08377
 N400 N 0.72252 1.22350 -0.11212
 C401 C 0.71725 1.19910 -0.15224
 C402 C 0.67848 1.15798 -0.14877
 C403 C 0.66074 1.16074 -0.10521
 H404 H 0.66294 1.13178 -0.17494
 H405 H 0.68251 1.21291 -0.05069
 H406 H 0.74745 1.25651 -0.10403
 N407 N 1.09626 0.72114 0.36814
 N408 N 1.12405 0.75186 0.33995
 C409 C 1.17244 0.72707 0.32939
 C410 C 1.17482 0.67751 0.35255
 C411 C 1.12562 0.67563 0.37662
 H412 H 1.20509 0.64500 0.34875
 H413 H 1.05651 0.73004 0.37954
 H414 H 1.10779 0.78742 0.32571
 N415 N 0.33610 0.79854 -0.09269
 N416 N 0.30078 0.77520 -0.11951
 C417 C 0.29766 0.80461 -0.15732
 C418 C 0.33295 0.84895 -0.15419
 C419 C 0.35651 0.84306 -0.11285
 H420 H 0.34252 0.87914 -0.17936
 H421 H 0.34713 0.78295 -0.06169
 H422 H 0.28123 0.73864 -0.11189
 N423 N 0.79095 0.34288 0.38943
 N424 N 0.76434 0.31511 0.35882
 C425 C 0.79983 0.29940 0.32650
 C426 C 0.85181 0.31981 0.33675
 C427 C 0.84410 0.34699 0.37726
 H428 H 0.88932 0.31593 0.31739
 H429 H 0.77237 0.35983 0.41784
 H430 H 0.72223 0.30731 0.36026
 N431 N 1.11965 0.27740 0.10509
 N432 N 1.14583 0.24666 0.13434
 C433 C 1.15664 0.27753 0.17060
 C434 C 1.13165 0.32838 0.16562
 C435 C 1.11116 0.32740 0.12318
 H436 H 1.13332 0.36349 0.18783
 H437 H 1.10931 0.26470 0.07302
 H438 H 1.15801 0.20603 0.12850
 N439 N 0.69593 0.81954 0.59750
 N440 N 0.72728 0.79431 0.62673
 C441 C 0.71142 0.80943 0.66815
 C442 C 0.66853 0.84744 0.66465
 C443 C 0.65993 0.85234 0.61929
 H444 H 0.64589 0.86751 0.69136
 H445 H 0.69958 0.81453 0.56307
 H446 H 0.75972 0.76815 0.61789
 N447 N 1.15659 0.71721 -0.08523
 N448 N 1.17939 0.74895 -0.11562
 C449 C 1.18830 0.71906 -0.15300
 C450 C 1.16820 0.66670 -0.14661
 C451 C 1.14910 0.66724 -0.10329
 H452 H 1.16682 0.63314 -0.17034
 H453 H 1.14448 0.73029 -0.05346
 H454 H 1.18806 0.79054 -0.11081
 N455 N 0.70838 1.16807 0.40332
 N456 N 0.73912 1.19322 0.37335
 C457 C 0.71654 1.18648 0.33288
 C458 C 0.67023 1.15379 0.33746
 C459 C 0.66646 1.14345 0.38253
 H460 H 0.64226 1.14072 0.31177
 H461 H 0.71644 1.16742 0.43737
 H462 H 0.77548 1.21355 0.38082
 N463 N 0.78925 0.68805 0.08079
 N464 N 0.76553 0.71986 0.11123
 C465 C 0.79216 0.71351 0.15012
 C466 C 0.83524 0.67721 0.14371
 C467 C 0.83155 0.66169 0.09983
 H468 H 0.86306 0.66107 0.16839
 H469 H 0.77539 0.68323 0.04824
 H470 H 0.73015 0.74319 0.10564
 N471 N 0.29533 1.18359 0.59069
 N472 N 0.26471 1.20962 0.62079
 C473 C 0.28312 1.19678 0.66165
 C474 C 0.32625 1.15948 0.65703
 C475 C 0.33296 1.15271 0.61177
 H476 H 0.35117 1.14173 0.68298
 H477 H 0.29049 1.18712 0.55634
 H478 H 0.23192 1.23562 0.61314
 N479 N 0.93115 0.27804 -0.13676
 N480 N 0.90288 0.24547 -0.16319
 C481 C 0.84896 0.25909 -0.16061
 C482 C 0.84329 0.30038 -0.12869
 C483 C 0.89603 0.31231 -0.11573
 H484 H 0.80748 0.32407 -0.11972
 H485 H 0.97400 0.27948 -0.13596
 H486 H 0.92127 0.21818 -0.18585
 N487 N 0.33958 0.78453 0.39331
 N488 N 0.31006 0.75840 0.36320
 C489 C 0.30612 0.78963 0.32654
 C490 C 0.33496 0.83847 0.33420
 C491 C 0.35556 0.83353 0.37709
 H492 H 0.33973 0.87287 0.31188
 H493 H 0.34856 0.76880 0.42468
 H494 H 0.29250 0.71983 0.36803
 N495 N 1.19038 1.18862 0.40402
 N496 N 1.22213 1.20684 0.37195
 C497 C 1.20021 1.19352 0.33218
 C498 C 1.15147 1.16548 0.33989
 C499 C 1.14693 1.16396 0.38596
 H500 H 1.12373 1.14840 0.31563
 H501 H 1.19923 1.19200 0.43786
 H502 H 1.25721 1.22973 0.37817
 N503 N 0.61394 0.72246 -0.12046
 N504 N 0.63761 0.75142 -0.15228
 C505 C 0.68308 0.72465 -0.16668
 C506 C 0.68802 0.67604 -0.14269
 C507 C 0.64398 0.67680 -0.11310
 H508 H 0.71779 0.64331 -0.14778
 H509 H 0.57611 0.73244 -0.10575
 H510 H 0.62131 0.78777 -0.16503
 N511 N 0.84258 1.05628 0.67374
 N512 N 0.82495 1.08528 0.70845
 C513 C 0.81128 1.13623 0.69475
 C514 C 0.81949 1.13903 0.64923
 C515 C 0.84024 1.08835 0.63750
 H516 H 0.81344 1.17366 0.62743
 H517 H 0.85889 1.01653 0.67545
 H518 H 0.82420 1.07084 0.74110
 N519 N 0.27269 0.58991 0.13615
 N520 N 0.24903 0.61682 0.16969
 C521 C 0.27684 0.66367 0.17750
 C522 C 0.32203 0.66468 0.14884
 C523 C 0.31676 0.61834 0.12221
 H524 H 0.35358 0.69568 0.14669
 H525 H 0.25931 0.55222 0.12364
 H526 H 0.21299 0.60426 0.18564
 N527 N 1.07440 0.86991 0.68339
 N528 N 1.09875 0.84468 0.71653
 C529 C 1.15364 0.85073 0.71216
 C530 C 1.16420 0.88404 0.67596
 C531 C 1.11313 0.89342 0.65797
 H532 H 1.20340 0.89213 0.66031
 H533 H 1.03258 0.86697 0.67636
 H534 H 1.07812 0.81931 0.73896
 N535 N 0.59124 0.31105 0.15392
 N536 N 0.61812 0.28056 0.18268
 C537 C 0.67145 0.29481 0.18213
 C538 C 0.67840 0.33734 0.15147
 C539 C 0.62646 0.34567 0.13393
 H540 H 0.71527 0.36030 0.14426
 H541 H 0.54892 0.30883 0.14884
 H542 H 0.59962 0.25106 0.20284
 N543 N 0.93592 0.79603 0.33146
 N544 N 0.90361 0.77166 0.30256
 C545 C 0.85363 0.79602 0.30428
 C546 C 0.85451 0.83838 0.33491
 C547 C 0.90714 0.83659 0.35149
 H548 H 0.82130 0.86589 0.34451
 H549 H 0.97663 0.78464 0.33742
 H550 H 0.91591 0.73880 0.28222
 N551 N 0.42369 0.30066 -0.16381
 N552 N 0.39267 0.27183 -0.19094
 C553 C 0.33980 0.28703 -0.18469
 C554 C 0.33725 0.32721 -0.15179
 C555 C 0.39120 0.33432 -0.13944
 H556 H 0.30194 0.35085 -0.14063
 H557 H 0.46650 0.29830 -0.16296
 H558 H 0.40790 0.24339 -0.21418
 N559 N 1.20156 0.30959 -0.08097
 N560 N 1.22720 0.27924 -0.11139
 C561 C 1.20498 0.28975 -0.15144
 C562 C 1.16313 0.32786 -0.14603
 C563 C 1.16258 0.33948 -0.10124
 H564 H 1.13845 0.34697 -0.17152
 H565 H 1.21149 0.31047 -0.04725
 H566 H 1.26065 0.25381 -0.10466
 N567 N 0.70491 0.82070 0.40854
 N568 N 0.73540 0.79449 0.37844
 C569 C 0.71702 0.80733 0.33759
 C570 C 0.67400 0.84485 0.34222
 C571 C 0.66738 0.85175 0.38749
 H572 H 0.64898 0.86250 0.31630
 H573 H 0.70959 0.81693 0.44289
 H574 H 0.76793 0.76818 0.38611
 N575 N 0.82463 0.69639 -0.08546
 N576 N 0.79690 0.72873 -0.11227
 C577 C 0.81876 0.72452 -0.15346
 C578 C 0.86291 0.68792 -0.15247
 C579 C 0.86457 0.67060 -0.10893
 H580 H 0.88583 0.67103 -0.18043
 H581 H 0.81349 0.68902 -0.05240
 H582 H 0.76114 0.74969 -0.10274
 N583 N 0.39776 1.22716 0.36621
 N584 N 0.36903 1.25546 0.33696
 C585 C 0.33171 1.22203 0.31847
 C586 C 0.33902 1.16923 0.33551
 C587 C 0.38065 1.17460 0.36605
 H588 H 0.31567 1.13266 0.32811
 H589 H 0.42890 1.24367 0.38573
 H590 H 0.37534 1.29688 0.32976
 N591 N 1.07252 0.72075 0.13740
 N592 N 1.10304 0.75336 0.16207
 C593 C 1.15640 0.73764 0.15869
 C594 C 1.15931 0.69487 0.12781
 C595 C 1.10546 0.68419 0.11666
 H596 H 1.19424 0.67026 0.11818
 H597 H 1.02961 0.72124 0.13741
 H598 H 1.08649 0.78239 0.18423
 N599 N 0.66690 1.21295 0.60469
 N600 N 0.69793 1.23807 0.63428
 C601 C 0.70158 1.20666 0.67086
 C602 C 0.67103 1.15890 0.66382
 C603 C 0.64966 1.16463 0.62136
 H604 H 0.66526 1.12490 0.68640
 H605 H 0.65747 1.22905 0.57353
 H606 H 0.71623 1.27624 0.62929
 N607 N 0.80189 0.30563 0.08079
 N608 N 0.77581 0.27550 0.11035
 C609 C 0.80264 0.27869 0.14933
 C610 C 0.84787 0.31210 0.14416
 C611 C 0.84533 0.32871 0.10059
 H612 H 0.87562 0.32646 0.16956
 H613 H 0.78781 0.31310 0.04866
 H614 H 0.73803 0.25716 0.10433
 N615 N 0.32046 0.80377 0.60017
 N616 N 0.28870 0.77928 0.62961
 C617 C 0.28325 0.81161 0.66598
 C618 C 0.31467 0.85877 0.65938
 C619 C 0.33751 0.85192 0.61712
 H620 H 0.32286 0.89121 0.68311
 H621 H 0.33249 0.78615 0.56983
 H622 H 0.27385 0.73943 0.62556
 N623 N 0.28259 1.08358 -0.13687
 N624 N 0.25257 1.11300 -0.16443
 C625 C 0.27239 1.16469 -0.16600
 C626 C 0.31631 1.16812 -0.13712
 C627 C 0.32131 1.11620 -0.11963
 H628 H 0.34491 1.20129 -0.13278
 H629 H 0.27855 1.04128 -0.13213
 H630 H 0.22175 1.09659 -0.18433
 N631 N 0.77016 0.63774 0.38832
 N632 N 0.74576 0.66804 0.35789
 C633 C 0.78289 0.68201 0.32647
 C634 C 0.83328 0.65834 0.33729
 C635 C 0.82337 0.63095 0.37691
 H636 H 0.87166 0.66072 0.31906
 H637 H 0.75038 0.62178 0.41633
 H638 H 0.70433 0.67941 0.35908
 N639 N 0.71077 1.13673 0.09088
 N640 N 0.74548 1.15626 0.12054
 C641 C 0.71687 1.17057 0.15753
 C642 C 0.66243 1.15755 0.15178
 C643 C 0.66018 1.13770 0.10917
 H644 H 0.62862 1.16258 0.17506
 H645 H 0.72179 1.12236 0.05923
 H646 H 0.78759 1.16093 0.11499
 N647 N 1.14055 0.72738 0.60280
 N648 N 1.16711 0.75663 0.63265
 C649 C 1.17105 0.72754 0.67063
 C650 C 1.14379 0.67808 0.66483
 C651 C 1.12556 0.67969 0.62135
 H652 H 1.14007 0.64457 0.68816
 H653 H 1.13332 0.73987 0.57018
 H654 H 1.18313 0.79537 0.62620
 N655 N 0.74392 0.87642 -0.09162
 N656 N 0.77372 0.85047 -0.12233
 C657 C 0.74384 0.84627 -0.15976
 C658 C 0.69484 0.87422 -0.15344
 C659 C 0.69585 0.89109 -0.10986
 H660 H 0.66046 0.87695 -0.17591
 H661 H 0.75578 0.88240 -0.05867
 H662 H 0.81274 0.83394 -0.11686
 N663 N 1.23026 0.36766 0.39399
 N664 N 1.25692 0.33832 0.36354
 C665 C 1.22092 0.32140 0.33272
 C666 C 1.16905 0.34158 0.34404
 C667 C 1.17688 0.37052 0.38291
 H668 H 1.13104 0.33674 0.32610
 H669 H 1.24875 0.38636 0.42133
 H670 H 1.29902 0.33084 0.36405
 N671 N 0.31726 0.79798 0.08049
 N672 N 0.28348 0.77406 0.10899
 C673 C 0.28919 0.79782 0.14931
 C674 C 0.32716 0.83972 0.14579
 C675 C 0.34416 0.83809 0.10198
 H676 H 0.34245 0.86604 0.17198
 H677 H 0.32209 0.78650 0.04716
 H678 H 0.25833 0.74107 0.10091
 N679 N 0.90914 0.27907 0.62919
 N680 N 0.88340 0.24709 0.65770
 C681 C 0.83369 0.26916 0.66796
 C682 C 0.82801 0.31789 0.64430
 C683 C 0.87681 0.32243 0.62030
 H684 H 0.79615 0.34882 0.64821
 H685 H 0.94955 0.27287 0.61821
 H686 H 0.90177 0.21286 0.67239
 N687 N 1.06699 1.20011 0.66518
 N688 N 1.09719 1.22651 0.69441
 C689 C 1.14788 1.20382 0.69434
 C690 C 1.14970 1.16041 0.66463
 C691 C 1.09794 1.15997 0.64667
 H692 H 1.18424 1.13400 0.65617
 H693 H 1.02633 1.21012 0.65772
 H694 H 1.08315 1.25971 0.71363
 N695 N 0.58132 0.71171 0.14955
 N696 N 0.61014 0.74013 0.17867
 C697 C 0.66073 0.71766 0.18141
 C698 C 0.66387 0.67274 0.15273
 C699 C 0.61325 0.67117 0.13266
 H700 H 0.69755 0.64393 0.14824
 H701 H 0.54028 0.71967 0.14188
 H702 H 0.59485 0.77368 0.19684
 N703 N 1.16846 0.94058 0.32326
 N704 N 1.18416 0.91085 0.28840
 C705 C 1.19758 0.85993 0.30230
 C706 C 1.19145 0.85787 0.34795
 C707 C 1.17211 0.90902 0.35971
 H708 H 1.19745 0.82323 0.36977
 H709 H 1.15218 0.98035 0.32158
 H710 H 1.18369 0.92478 0.25561
 N711 N 0.73579 0.40832 -0.14186
 N712 N 0.75934 0.37988 -0.17457
 C713 C 0.73071 0.33332 -0.18156
 C714 C 0.68523 0.33396 -0.15323
 C715 C 0.69101 0.38122 -0.12774
 H716 H 0.65317 0.30354 -0.15060
 H717 H 0.74977 0.44613 -0.13005
 H718 H 0.79579 0.39128 -0.19050
 N719 N 0.92902 1.15375 0.32446
 N720 N 0.90273 1.18436 0.29552
 C721 C 0.84912 1.17141 0.29706
 C722 C 0.84129 1.12920 0.32731
 C723 C 0.89285 1.12023 0.34457
 H724 H 0.80302 1.11139 0.33839
 H725 H 0.97038 1.15864 0.33247
 H726 H 0.92113 1.21532 0.27676
 N727 N 0.39774 0.64363 -0.19404
 N728 N 0.36639 0.67326 -0.22013
 C729 C 0.31692 0.68090 -0.20048
 C730 C 0.31669 0.65308 -0.15992
 C731 C 0.36937 0.63121 -0.15691
 H732 H 0.28412 0.65060 -0.13541
 H733 H 0.43858 0.63334 -0.20136
 H734 H 0.37984 0.68960 -0.25035
 N735 N 0.92697 0.80415 0.64927
 N736 N 0.90111 0.78453 0.68425
 C737 C 0.85010 0.80635 0.68611
 C738 C 0.84380 0.84290 0.65110
 C739 C 0.89330 0.83931 0.62829
 H740 H 0.80818 0.86738 0.64272
 H741 H 0.96692 0.79294 0.63982
 H742 H 0.91832 0.75593 0.70593
 N743 N 0.28267 0.39066 0.11713
 N744 N 0.25596 0.36754 0.15020
 C745 C 0.28506 0.32397 0.16478
 C746 C 0.33407 0.32076 0.14081
 C747 C 0.33025 0.36359 0.11071
 H748 H 0.36807 0.29256 0.14551
 H749 H 0.27010 0.42677 0.10142
 H750 H 0.22024 0.38413 0.16409
   
