data_POSCAR
  _audit_creation_date              2014-09-24
  _audit_creation_method            'ToBaCCo'
  _symmetry_space_group_name_H-M    'P1'
  _symmetry_Int_Tables_number       1
  _symmetry_cell_setting            triclinic
  loop_
  _symmetry_equiv_pos_as_xyz
 x,y,z
_cell_length_a 49.4009
_cell_length_b 29.3702
_cell_length_c 15.9585
_cell_angle_alpha 89.999400
_cell_angle_beta 89.998300
_cell_angle_gamma 89.998800
loop_
  _atom_site_label
  _atom_site_type_symbol
  _atom_site_fract_x
  _atom_site_fract_y
  _atom_site_fract_z
C1 C 0.72793 0.26619 0.54596
 C2 C 0.72804 0.26610 0.45753
 C3 C 0.74948 0.24567 0.41412
 C4 C 0.77091 0.22530 0.45776
 C5 C 0.77084 0.22538 0.54633
 C6 C 0.74934 0.24580 0.58973
 H7 H 0.74930 0.24589 0.65779
 H8 H 0.74947 0.24572 0.34610
 C9 C 0.22816 0.76653 0.54627
 C10 C 0.22812 0.76665 0.45797
 C11 C 0.24947 0.74613 0.41427
 C12 C 0.27086 0.72557 0.45772
 C13 C 0.27094 0.72548 0.54614
 C14 C 0.24955 0.74596 0.58983
 H15 H 0.24951 0.74600 0.65785
 H16 H 0.24945 0.74623 0.34629
 C17 C 0.26986 0.27366 -0.54476
 C18 C 0.26986 0.27362 -0.45652
 C19 C 0.24848 0.25324 -0.41276
 C20 C 0.22701 0.23277 -0.45614
 C21 C 0.22700 0.23282 -0.54477
 C22 C 0.24844 0.25330 -0.58834
 H23 H 0.24853 0.25338 -0.65636
 H24 H 0.24862 0.25329 -0.34474
 C25 C -0.23033 0.77415 -0.54460
 C26 C -0.23033 0.77420 -0.45636
 C27 C -0.25168 0.75365 -0.41277
 C28 C -0.27305 0.73296 -0.45633
 C29 C -0.27304 0.73289 -0.54496
 C30 C -0.25164 0.75356 -0.58836
 H31 H -0.25149 0.75360 -0.65638
 H32 H -0.25159 0.75374 -0.34475
 O33 O -0.03757 0.92167 0.15450
 O34 O -0.06744 0.96264 0.07398
 C35 C -0.06182 0.93350 0.13231
 O36 O 0.03828 1.08381 0.14665
 O37 O 0.06819 1.04023 0.07084
 C38 C 0.06256 1.07166 0.12503
 O39 O -0.03759 1.08009 0.15476
 O40 O -0.06745 1.03921 0.07410
 C41 C -0.06185 1.06829 0.13257
 O42 O 0.03831 0.91797 0.14685
 O43 O 0.06818 0.96163 0.07113
 C44 C 0.06258 0.93017 0.12534
 Zr45 Zr 0.00027 0.94328 0.10622
 O46 O 0.00323 0.94253 0.23855
 O47 O -0.00273 0.87136 0.10379
 Zr48 Zr 0.00024 1.05839 0.10643
 O49 O 0.00325 1.05873 0.23877
 O50 O -0.00278 1.13030 0.10492
 O51 O -0.02391 1.00082 0.12279
 O52 O 0.02372 1.00085 0.12191
 O53 O 0.03803 0.91752 -0.14566
 O54 O 0.06784 0.96106 -0.06974
 C55 C 0.06226 0.92960 -0.12390
 O56 O -0.03753 1.08022 -0.15308
 O57 O -0.06742 1.03924 -0.07264
 C58 C -0.06179 1.06840 -0.13093
 O59 O 0.03825 1.08396 -0.14566
 O60 O 0.06806 1.03999 -0.07044
 C61 C 0.06251 1.07158 -0.12442
 O62 O -0.03760 0.92167 -0.15326
 O63 O -0.06746 0.96262 -0.07274
 C64 C -0.06186 0.93349 -0.13112
 Zr65 Zr 0.00024 0.94342 -0.10506
 O66 O 0.00330 0.94359 -0.23741
 O67 O -0.00281 0.87151 -0.10379
 Zr68 Zr 0.00031 1.05849 -0.10491
 O69 O 0.00331 1.05883 -0.23725
 O70 O -0.00267 1.13042 -0.10294
 Zr71 Zr -0.04028 1.00092 0.00066
 Zr72 Zr 0.04065 1.00094 0.00089
 O73 O 0.02378 1.00093 -0.12024
 O74 O -0.02391 1.00098 -0.12148
 O75 O 0.02450 0.93447 0.00063
 O76 O -0.02335 1.06671 0.00074
 O77 O -0.02338 0.93510 0.00057
 O78 O 0.02451 1.06741 0.00084
 H79 H 0.03587 1.00086 0.17132
 H80 H -0.03558 1.09346 0.00080
 H81 H 0.03591 1.00086 -0.16969
 H82 H -0.03561 0.90836 0.00053
 H83 H 0.01280 1.14215 0.07265
 H84 H 0.01297 1.14220 -0.07091
 H85 H -0.01151 1.03965 -0.25932
 H86 H -0.01177 0.96226 -0.25940
 H87 H 0.01248 0.85965 -0.07025
 H88 H 0.01318 0.85955 0.07306
 H89 H -0.01136 0.96219 0.26069
 H90 H -0.01155 1.03947 0.26082
 O91 O 0.46288 0.42014 0.15190
 O92 O 0.43301 0.46119 0.07156
 C93 C 0.43862 0.43199 0.12983
 O94 O 0.53858 0.58253 0.14510
 O95 O 0.56846 0.53908 0.06920
 C96 C 0.56285 0.57047 0.12352
 O97 O 0.46293 0.57857 0.15237
 O98 O 0.43304 0.53776 0.07171
 C99 C 0.43868 0.56681 0.13016
 O100 O 0.53879 0.41646 0.14378
 O101 O 0.56874 0.46011 0.06822
 C102 C 0.56308 0.42862 0.12229
 Zr103 Zr 0.50073 0.44186 0.10363
 O104 O 0.50376 0.44122 0.23596
 O105 O 0.49771 0.36994 0.10155
 Zr106 Zr 0.50075 0.55685 0.10410
 O107 O 0.50374 0.55683 0.23646
 O108 O 0.49773 0.62877 0.10271
 O109 O 0.47655 0.49935 0.12037
 O110 O 0.52426 0.49932 0.11929
 O111 O 0.53852 0.41628 -0.14849
 O112 O 0.56842 0.45968 -0.07260
 C113 C 0.56280 0.42828 -0.12687
 O114 O 0.46289 0.57902 -0.15523
 O115 O 0.43301 0.53796 -0.07493
 C116 C 0.43862 0.56720 -0.13313
 O117 O 0.53858 0.58293 -0.14783
 O118 O 0.56843 0.53924 -0.07228
 C119 C 0.56283 0.57078 -0.12627
 O120 O 0.46286 0.42042 -0.15574
 O121 O 0.43300 0.46135 -0.07511
 C122 C 0.43861 0.43224 -0.13349
 Zr123 Zr 0.50070 0.44215 -0.10767
 O124 O 0.50371 0.44243 -0.24003
 O125 O 0.49765 0.37024 -0.10673
 Zr126 Zr 0.50076 0.55714 -0.10725
 O127 O 0.50377 0.55722 -0.23960
 O128 O 0.49775 0.62906 -0.10553
 Zr129 Zr 0.46019 0.49954 -0.00175
 Zr130 Zr 0.54122 0.49943 -0.00173
 O131 O 0.52428 0.49962 -0.12278
 O132 O 0.47653 0.49969 -0.12391
 O133 O 0.52495 0.43302 -0.00205
 O134 O 0.47714 0.56531 -0.00153
 O135 O 0.47709 0.43374 -0.00202
 O136 O 0.52500 0.56587 -0.00151
 H137 H 0.53638 0.49927 0.16874
 H138 H 0.46493 0.59207 -0.00140
 H139 H 0.53643 0.49964 -0.17217
 H140 H 0.46487 0.40699 -0.00207
 H141 H 0.51330 0.64065 0.07044
 H142 H 0.51320 0.64085 -0.07263
 H143 H 0.48872 0.53854 -0.26166
 H144 H 0.48863 0.46111 -0.26192
 H145 H 0.51295 0.35834 -0.07329
 H146 H 0.51345 0.35812 0.07002
 H147 H 0.48901 0.46054 0.25816
 H148 H 0.48880 0.53785 0.25840
 C149 C 0.33273 0.33276 0.32943
 N150 N 0.35362 0.35043 0.37396
 N151 N 0.37446 0.36990 0.33486
 C152 C 0.37505 0.37228 0.25001
 N153 N 0.35415 0.35462 0.20545
 N154 N 0.33330 0.33515 0.24457
 C155 C 0.31034 0.31179 0.37181
 C156 C 0.29175 0.29432 0.40878
 C157 C 0.39749 0.39328 0.20790
 C158 C 0.41631 0.41094 0.17243
 C159 C -0.16768 0.83390 0.33031
 N160 N -0.14908 0.85785 0.37460
 N161 N -0.12823 0.87746 0.33584
 C162 C -0.12536 0.87366 0.25163
 N163 N -0.14396 0.84971 0.20732
 N164 N -0.16482 0.83010 0.24609
 C165 C -0.19000 0.81267 0.37233
 C166 C -0.20852 0.79501 0.40910
 C167 C -0.10292 0.89473 0.20994
 C168 C -0.08410 0.91243 0.17472
 C169 C 0.66654 0.67364 0.32737
 N170 N 0.66566 0.67463 0.24242
 N171 N 0.64540 0.65460 0.20132
 C172 C 0.62541 0.63299 0.24395
 N173 N 0.62631 0.63202 0.32888
 N174 N 0.64656 0.65204 0.36995
 C175 C 0.68834 0.69509 0.37189
 C176 C 0.70651 0.71291 0.41032
 C177 C 0.60357 0.61130 0.20000
 C178 C 0.58507 0.59282 0.16432
 C179 C 0.16639 1.17434 0.32798
 N180 N 0.16556 1.17509 0.24303
 N181 N 0.14523 1.15523 0.20207
 C182 C 0.12513 1.13405 0.24487
 N183 N 0.12596 1.13332 0.32979
 N184 N 0.14628 1.15317 0.37073
 C185 C 0.18825 1.19553 0.37231
 C186 C 0.20648 1.21312 0.41062
 C187 C 0.10327 1.11247 0.20113
 C188 C 0.08475 1.09402 0.16563
 C189 C 0.66696 0.32501 -0.32834
 N190 N 0.66616 0.32496 -0.24337
 N191 N 0.64575 0.34493 -0.20287
 C192 C 0.62553 0.36553 -0.24615
 N193 N 0.62635 0.36556 -0.33110
 N194 N 0.64675 0.34560 -0.37157
 C195 C 0.68895 0.30369 -0.37219
 C196 C 0.70730 0.28600 -0.41003
 C197 C 0.60357 0.38727 -0.20280
 C198 C 0.58502 0.40582 -0.16747
 C199 C 0.16630 0.82646 -0.32510
 N200 N 0.16557 0.82647 -0.24013
 N201 N 0.14519 0.84643 -0.19955
 C202 C 0.12494 0.86697 -0.24277
 N203 N 0.12568 0.86694 -0.32771
 N204 N 0.14605 0.84699 -0.36826
 C205 C 0.18821 0.80515 -0.36901
 C206 C 0.20648 0.78746 -0.40695
 C207 C 0.10303 0.88866 -0.19943
 C208 C 0.08448 0.90718 -0.16422
 C209 C 0.33262 0.66702 -0.33116
 N210 N 0.35232 0.64599 -0.37598
 N211 N 0.37318 0.62640 -0.33722
 C212 C 0.37500 0.62726 -0.25244
 N213 N 0.35530 0.64829 -0.20760
 N214 N 0.33442 0.66788 -0.24636
 C215 C 0.31022 0.68818 -0.37320
 C216 C 0.29165 0.70578 -0.41005
 C217 C 0.39748 0.60614 -0.21070
 C218 C 0.41632 0.58838 -0.17550
 C219 C -0.16765 1.16758 -0.32967
 N220 N -0.14777 1.14698 -0.37434
 N221 N -0.12691 1.12752 -0.33537
 C222 C -0.12531 1.12810 -0.25056
 N223 N -0.14520 1.14870 -0.20586
 N224 N -0.16607 1.16816 -0.24484
 C225 C -0.19001 1.18853 -0.37194
 C226 C -0.20853 1.20594 -0.40919
 C227 C -0.10288 1.10714 -0.20867
 C228 C -0.08406 1.08947 -0.17336
 C229 C 0.66651 0.67397 -0.32904
 N230 N 0.64654 0.65246 -0.37177
 N231 N 0.62627 0.63247 -0.33083
 C232 C 0.62535 0.63339 -0.24593
 N233 N 0.64533 0.65492 -0.20313
 N234 N 0.66561 0.67492 -0.24410
 C235 C 0.68832 0.69534 -0.37337
 C236 C 0.70650 0.71308 -0.41170
 C237 C 0.60353 0.61170 -0.20220
 C238 C 0.58502 0.59319 -0.16674
 C239 C 0.16643 1.17402 -0.32844
 N240 N 0.14640 1.15251 -0.37100
 N241 N 0.12611 1.13264 -0.32991
 C242 C 0.12520 1.13366 -0.24499
 N243 N 0.14523 1.15518 -0.20238
 N244 N 0.16554 1.17506 -0.24349
 C245 C 0.18828 1.19531 -0.37297
 C246 C 0.20650 1.21297 -0.41140
 C247 C 0.10331 1.11212 -0.20102
 C248 C 0.08476 1.09377 -0.16531
 C249 C 0.33271 0.33278 -0.33149
 N250 N 0.35333 0.35105 -0.37641
 N251 N 0.37419 0.37060 -0.33764
 C252 C 0.37506 0.37245 -0.25279
 N253 N 0.35444 0.35418 -0.20785
 N254 N 0.33357 0.33462 -0.24663
 C255 C 0.31032 0.31176 -0.37348
 C256 C 0.29174 0.29427 -0.41024
 C257 C 0.39750 0.39349 -0.21109
 C258 C 0.41633 0.41118 -0.17588
 C259 C -0.16769 0.83399 -0.33057
 N260 N -0.14888 0.85763 -0.37464
 N261 N -0.12807 0.87720 -0.33556
 C262 C -0.12542 0.87372 -0.25122
 N263 N -0.14424 0.85008 -0.20713
 N264 N -0.16505 0.83050 -0.24621
 C265 C -0.19000 0.81278 -0.37295
 C266 C -0.20851 0.79511 -0.40992
 C267 C -0.10299 0.89476 -0.20915
 C268 C -0.08417 0.91244 -0.17370
 C269 C 0.33325 0.66617 0.33074
 N270 N 0.35309 0.64516 0.37498
 N271 N 0.37382 0.62560 0.33559
 C272 C 0.37535 0.62647 0.25077
 N273 N 0.35551 0.64748 0.20650
 N274 N 0.33477 0.66705 0.24591
 C275 C 0.31103 0.68728 0.37341
 C276 C 0.29259 0.70483 0.41074
 C277 C 0.39768 0.60546 0.20845
 C278 C 0.41643 0.58781 0.17282
 C279 C -0.16753 1.16741 0.33341
 N280 N -0.14590 1.15194 0.37734
 N281 N -0.12512 1.13247 0.33793
 C282 C -0.12534 1.12788 0.25337
 N283 N -0.14697 1.14334 0.20942
 N284 N -0.16776 1.16282 0.24884
 C285 C -0.18986 1.18834 0.37614
 C286 C -0.20839 1.20577 0.41348
 C287 C -0.10295 1.10691 0.21095
 C288 C -0.08415 1.08928 0.17529
 C289 C 0.66645 0.32563 0.32685
 N290 N 0.64474 0.34224 0.36889
 N291 N 0.62452 0.36214 0.32753
 C292 C 0.62540 0.36602 0.24291
 N293 N 0.64712 0.34941 0.20082
 N294 N 0.66735 0.32950 0.24220
 C295 C 0.68823 0.30448 0.37162
 C296 C 0.70641 0.28690 0.41018
 C297 C 0.60367 0.38773 0.19878
 C298 C 0.58523 0.40625 0.16303
 C299 C 0.16636 0.82703 0.32887
 N300 N 0.16570 0.82679 0.24387
 N301 N 0.14542 0.84682 0.20288
 C302 C 0.12518 0.86769 0.24565
 N303 N 0.12586 0.86791 0.33061
 N304 N 0.14613 0.84790 0.37159
 C305 C 0.18819 0.80559 0.37322
 C306 C 0.20642 0.78776 0.41131
 C307 C 0.10333 0.88939 0.20179
 C308 C 0.08481 0.90786 0.16614
   
