data_POSCAR
  _audit_creation_date              2014-09-24
  _audit_creation_method            'ToBaCCo'
  _symmetry_space_group_name_H-M    'P1'
  _symmetry_Int_Tables_number       1
  _symmetry_cell_setting            triclinic
  loop_
  _symmetry_equiv_pos_as_xyz
 x,y,z
_cell_length_a 45.4131
_cell_length_b 45.3937
_cell_length_c 45.1760
_cell_angle_alpha 89.947800
_cell_angle_beta 89.917500
_cell_angle_gamma 90.223700
loop_
  _atom_site_label
  _atom_site_type_symbol
  _atom_site_fract_x
  _atom_site_fract_y
  _atom_site_fract_z
O1 O 0.04824 0.26652 -0.03026
 O2 O -0.00924 0.26681 0.02746
 O3 O 0.04830 0.27060 0.02706
 O4 O -0.00899 0.26384 -0.03005
 O5 O -0.00611 0.21541 -0.02745
 O6 O 0.05023 0.22215 0.03084
 O7 O -0.00672 0.21841 0.03015
 O8 O 0.05095 0.21812 -0.02686
 Cu9 Cu 0.01931 0.27181 -0.00170
 Cu10 Cu 0.02235 0.21368 0.00199
 C11 C 0.05937 0.24221 -0.03848
 C12 C -0.01791 0.24256 0.03870
 C13 C 0.05897 0.24756 0.03878
 C14 C -0.01720 0.23850 -0.03872
 O15 O 0.45549 0.76583 0.52601
 O16 O 0.51371 0.76263 0.46938
 O17 O 0.45624 0.76363 0.46824
 O18 O 0.51275 0.76304 0.52695
 O19 O 0.51065 0.71449 0.52787
 O20 O 0.45458 0.71508 0.46948
 O21 O 0.51178 0.71407 0.47023
 O22 O 0.45359 0.71729 0.52728
 Cu23 Cu 0.48468 0.76865 0.49751
 Cu24 Cu 0.48243 0.71039 0.49881
 C25 C 0.44471 0.74218 0.53654
 C26 C 0.52275 0.73785 0.46010
 C27 C 0.44585 0.73936 0.45874
 C28 C 0.52130 0.73854 0.53748
 O29 O 1.01772 0.72255 0.02520
 O30 O 0.95956 0.71254 -0.03069
 O31 O 1.01674 0.71957 -0.03223
 O32 O 0.96132 0.71537 0.02720
 O33 O 0.95634 0.76371 0.02557
 O34 O 1.00892 0.76725 -0.03656
 O35 O 0.95224 0.76060 -0.03136
 O36 O 1.01363 0.77071 0.02076
 Cu37 Cu 0.98937 0.71266 -0.00249
 Cu38 Cu 0.98226 0.77041 -0.00558
 C39 C 1.02602 0.74837 0.03225
 C40 C 0.94564 0.73487 -0.04017
 C41 C 1.02226 0.74407 -0.04477
 C42 C 0.94958 0.73888 0.03673
 O43 O 0.54834 0.20014 0.52715
 O44 O 0.49030 0.20384 0.47049
 O45 O 0.54727 0.20136 0.46937
 O46 O 0.49141 0.20304 0.52853
 O47 O 0.49369 0.25165 0.52895
 O48 O 0.54981 0.24995 0.47038
 O49 O 0.49228 0.25245 0.47167
 O50 O 0.55119 0.24872 0.52753
 Cu51 Cu 0.51903 0.19721 0.49880
 Cu52 Cu 0.52196 0.25558 0.49971
 C53 C 0.55979 0.22379 0.53687
 C54 C 0.48137 0.22875 0.46145
 C55 C 0.55817 0.22541 0.45992
 C56 C 0.48305 0.22767 0.53881
 O57 O 0.72078 -0.02418 0.02911
 O58 O 0.72684 0.03119 -0.02992
 O59 O 0.72363 -0.02620 -0.02855
 O60 O 0.72551 0.03312 0.02718
 O61 O 0.77394 0.02966 0.02910
 O62 O 0.77203 -0.02938 -0.02646
 O63 O 0.77521 0.02765 -0.02886
 O64 O 0.76917 -0.02743 0.03120
 Cu65 Cu 0.71935 0.00371 -0.00071
 Cu66 Cu 0.77743 -0.00018 0.00145
 C67 C 0.74384 -0.03523 0.04039
 C68 C 0.75196 0.03898 -0.03962
 C69 C 0.74758 -0.03784 -0.03714
 C70 C 0.75012 0.04155 0.03758
 O71 O 0.22034 0.53851 0.47370
 O72 O 0.22265 0.48125 0.53141
 O73 O 0.21579 0.53799 0.53132
 O74 O 0.22647 0.48148 0.47411
 O75 O 0.27461 0.48729 0.47721
 O76 O 0.26395 0.54417 0.53441
 O77 O 0.27076 0.48705 0.53495
 O78 O 0.26845 0.54456 0.47764
 Cu79 Cu 0.21649 0.50924 0.50224
 Cu80 Cu 0.27431 0.51621 0.50638
 C81 C 0.24399 0.55155 0.46610
 C82 C 0.24712 0.47434 0.54306
 C83 C 0.23802 0.55087 0.54248
 C84 C 0.25230 0.47458 0.46593
 O85 O 0.26587 0.98368 -0.02609
 O86 O 0.26597 1.03934 0.03301
 O87 O 0.26128 0.98217 0.03120
 O88 O 0.26909 1.04081 -0.02479
 O89 O 0.22083 1.04551 -0.02594
 O90 O 0.21295 0.98474 0.02727
 O91 O 0.21749 1.04142 0.03117
 O92 O 0.21776 0.98800 -0.03032
 Cu93 Cu 0.27039 1.01121 0.00363
 Cu94 Cu 0.21241 1.01519 0.00010
 C95 C 0.24188 0.97637 -0.03855
 C96 C 0.24176 1.04960 0.04253
 C97 C 0.23574 0.97338 0.03875
 C98 C 0.24622 1.05355 -0.03468
 O99 O 0.76850 0.52972 0.53348
 O100 O 0.77955 0.47583 0.47364
 O101 O 0.77335 0.53287 0.47648
 O102 O 0.77490 0.47269 0.53113
 O103 O 0.72680 0.46731 0.52697
 O104 O 0.72528 0.52723 0.47183
 O105 O 0.73144 0.47044 0.46949
 O106 O 0.72036 0.52402 0.52956
 Cu107 Cu 0.77890 0.50325 0.50410
 Cu108 Cu 0.72114 0.49673 0.49903
 C109 C 0.74254 0.53601 0.54178
 C110 C 0.75737 0.46399 0.46123
 C111 C 0.74908 0.54030 0.46477
 C112 C 0.75113 0.45979 0.53854
 C113 C 0.25831 0.23098 0.24096
 C114 C 0.23502 0.25150 0.24185
 C115 C 0.23410 0.27254 0.26444
 C116 C 0.25604 0.27384 0.28628
 C117 C 0.27921 0.25292 0.28585
 C118 C 0.28010 0.23199 0.26291
 H119 H 0.29744 0.21564 0.26261
 H120 H 0.21645 0.28856 0.26456
 C121 C 0.74008 0.77308 0.22975
 C122 C 0.75781 0.74773 0.22563
 C123 C 0.75546 0.72431 0.24582
 C124 C 0.73564 0.72535 0.26961
 C125 C 0.71694 0.74998 0.27293
 C126 C 0.71958 0.77364 0.25305
 H127 H 0.70557 0.79274 0.25575
 H128 H 0.76931 0.70509 0.24313
 C129 C 0.79102 0.25367 0.22619
 C130 C 0.77302 0.22839 0.22944
 C131 C 0.75352 0.22639 0.25337
 C132 C 0.75074 0.24947 0.27380
 C133 C 0.76786 0.27539 0.26988
 C134 C 0.78807 0.27695 0.24639
 H135 H 0.80162 0.29651 0.24381
 H136 H 0.74020 0.20668 0.25596
 C137 C 0.21126 0.75667 0.22484
 C138 C 0.23382 0.77835 0.22475
 C139 C 0.25551 0.77772 0.24684
 C140 C 0.25554 0.75607 0.26898
 C141 C 0.23307 0.73433 0.26915
 C142 C 0.21137 0.73498 0.24707
 H143 H 0.19427 0.71825 0.24718
 H144 H 0.27276 0.79432 0.24672
 C145 C 0.76027 0.23592 0.71544
 C146 C 0.77891 0.26091 0.71853
 C147 C 0.79880 0.26215 0.74228
 C148 C 0.80025 0.23944 0.76330
 C149 C 0.78136 0.21483 0.76045
 C150 C 0.76188 0.21319 0.73651
 H151 H 0.74756 0.19412 0.73451
 H152 H 0.81314 0.28116 0.74461
 C153 C 0.24976 0.77546 0.71944
 C154 C 0.22603 0.75526 0.71625
 C155 C 0.20250 0.75628 0.73639
 C156 C 0.20195 0.77691 0.75938
 C157 C 0.22504 0.79768 0.76208
 C158 C 0.24872 0.79664 0.74209
 H159 H 0.26665 0.81232 0.74432
 H160 H 0.18451 0.74063 0.73439
 C161 C 0.27353 0.28167 0.72945
 C162 C 0.29404 0.25830 0.72761
 C163 C 0.29390 0.23644 0.74963
 C164 C 0.27329 0.23665 0.77285
 C165 C 0.25191 0.25933 0.77376
 C166 C 0.25267 0.28169 0.75235
 H167 H 0.23661 0.29928 0.75338
 H168 H 0.30990 0.21883 0.74851
 C169 C 0.72697 0.72331 0.73395
 C170 C 0.70657 0.74667 0.73269
 C171 C 0.70655 0.76790 0.75519
 C172 C 0.72632 0.76630 0.77900
 C173 C 0.74618 0.74227 0.78075
 C174 C 0.74612 0.72108 0.75810
 H175 H 0.76145 0.70284 0.75899
 H176 H 0.69114 0.78605 0.75403
 C177 C 0.21529 0.07892 0.08119
 C178 C 0.21534 0.09881 0.10477
 C179 C 0.24170 0.11145 0.11458
 C180 C 0.26826 0.10386 0.10058
 C181 C 0.26829 0.08374 0.07714
 C182 C 0.24179 0.07109 0.06716
 N183 N 0.24084 0.13178 0.13879
 N184 N 0.26341 0.14619 0.14722
 C185 C 0.26216 0.16640 0.17153
 C186 C 0.28633 0.18480 0.17709
 C187 C 0.28528 0.20552 0.19996
 C188 C 0.25999 0.20799 0.21770
 C189 C 0.23619 0.18876 0.21281
 C190 C 0.23712 0.16832 0.18974
 H191 H 0.19452 0.06948 0.07411
 H192 H 0.19474 0.10448 0.11541
 H193 H 0.28895 0.11330 0.10784
 H194 H 0.28906 0.07818 0.06679
 H195 H 0.30581 0.18342 0.16331
 H196 H 0.30394 0.22003 0.20346
 H197 H 0.21679 0.18971 0.22672
 H198 H 0.21829 0.15407 0.18616
 C199 C 0.71276 0.55613 0.58372
 C200 C 0.70899 0.57602 0.60704
 C201 C 0.73008 0.59791 0.61243
 C202 C 0.75536 0.59946 0.59451
 C203 C 0.75950 0.57916 0.57165
 C204 C 0.73816 0.55741 0.56595
 N205 N 0.72564 0.61801 0.63642
 N206 N 0.73943 0.64242 0.63785
 C207 C 0.73587 0.66226 0.66218
 C208 C 0.74445 0.69170 0.65869
 C209 C 0.74129 0.71163 0.68201
 C210 C 0.73010 0.70213 0.70936
 C211 C 0.72201 0.67251 0.71314
 C212 C 0.72453 0.65272 0.68956
 H213 H 0.69608 0.53945 0.57990
 H214 H 0.68948 0.57454 0.62077
 H215 H 0.77207 0.61607 0.59844
 H216 H 0.77923 0.58065 0.55823
 H217 H 0.75333 0.69926 0.63774
 H218 H 0.74774 0.73442 0.67885
 H219 H 0.71340 0.66489 0.73417
 H220 H 0.71804 0.62998 0.69280
 C221 C 0.71305 0.93204 0.07278
 C222 C 0.71021 0.91105 0.09525
 C223 C 0.73508 0.90038 0.10990
 C224 C 0.76309 0.91098 0.10178
 C225 C 0.76600 0.93190 0.07917
 C226 C 0.74099 0.94265 0.06439
 N227 N 0.73126 0.87842 0.13241
 N228 N 0.75261 0.86858 0.14766
 C229 C 0.74858 0.84602 0.16955
 C230 C 0.77296 0.83633 0.18572
 C231 C 0.77007 0.81325 0.20605
 C232 C 0.74271 0.79930 0.21025
 C233 C 0.71805 0.80965 0.19477
 C234 C 0.72093 0.83280 0.17451
 H235 H 0.69334 0.93980 0.06186
 H236 H 0.68853 0.90299 0.10125
 H237 H 0.78268 0.90297 0.11273
 H238 H 0.78781 0.93966 0.07327
 H239 H 0.79435 0.84638 0.18219
 H240 H 0.78930 0.80582 0.21804
 H241 H 0.69676 0.79920 0.19770
 H242 H 0.70172 0.83992 0.16234
 C243 C 0.22223 0.43601 0.57432
 C244 C 0.22312 0.41392 0.59584
 C245 C 0.24967 0.40664 0.60961
 C246 C 0.27553 0.42181 0.60168
 C247 C 0.27471 0.44389 0.58009
 C248 C 0.24804 0.45120 0.56614
 N249 N 0.24972 0.38362 0.63128
 N250 N 0.27284 0.37612 0.64523
 C251 C 0.27251 0.35279 0.66659
 C252 C 0.29845 0.34597 0.68179
 C253 C 0.29884 0.32305 0.70248
 C254 C 0.27325 0.30643 0.70802
 C255 C 0.24718 0.31350 0.69300
 C256 C 0.24678 0.33645 0.67242
 H257 H 0.20134 0.44108 0.56401
 H258 H 0.20305 0.40235 0.60177
 H259 H 0.29634 0.41653 0.61202
 H260 H 0.29497 0.45518 0.57430
 H261 H 0.31839 0.35844 0.67754
 H262 H 0.31910 0.31818 0.71409
 H263 H 0.22722 0.30092 0.69690
 H264 H 0.22644 0.34126 0.66096
 C265 C 0.95155 0.21562 0.07419
 C266 C 0.92993 0.21525 0.09617
 C267 C 0.91612 0.24128 0.10486
 C268 C 0.92430 0.26802 0.09145
 C269 C 0.94622 0.26855 0.06965
 C270 C 0.96012 0.24231 0.06064
 N271 N 0.89417 0.23984 0.12757
 N272 N 0.87813 0.26168 0.13455
 C273 C 0.85665 0.25951 0.15771
 C274 C 0.83657 0.28247 0.16182
 C275 C 0.81515 0.28063 0.18404
 C276 C 0.81367 0.25579 0.20257
 C277 C 0.83430 0.23313 0.19885
 C278 C 0.85543 0.23481 0.17647
 H279 H 0.96165 0.19493 0.06804
 H280 H 0.92381 0.19453 0.10642
 H281 H 0.91397 0.28846 0.09797
 H282 H 0.95213 0.28954 0.05981
 H283 H 0.83736 0.30167 0.14759
 H284 H 0.79955 0.29844 0.18661
 H285 H 0.83417 0.21417 0.21340
 H286 H 0.87094 0.21693 0.17401
 C287 C 0.41153 0.71796 0.57393
 C288 C 0.39031 0.71958 0.59636
 C289 C 0.37892 0.74682 0.60511
 C290 C 0.38907 0.77262 0.59116
 C291 C 0.41038 0.77106 0.56884
 C292 C 0.42185 0.74371 0.55994
 N293 N 0.35695 0.74766 0.62792
 N294 N 0.34459 0.77154 0.63578
 C295 C 0.32235 0.77244 0.65830
 C296 C 0.30723 0.79881 0.66318
 C297 C 0.28417 0.80002 0.68368
 C298 C 0.27594 0.77477 0.69970
 C299 C 0.29201 0.74865 0.69580
 C300 C 0.31487 0.74738 0.67507
 H301 H 0.41996 0.69657 0.56768
 H302 H 0.38265 0.69953 0.60690
 H303 H 0.38061 0.79396 0.59751
 H304 H 0.41784 0.79131 0.55854
 H305 H 0.31287 0.81830 0.65050
 H306 H 0.27215 0.82040 0.68639
 H307 H 0.28635 0.72905 0.70829
 H308 H 0.32642 0.72681 0.67192
 C309 C 0.06182 0.78009 0.05741
 C310 C 0.08499 0.78359 0.07750
 C311 C 0.09487 0.75962 0.09417
 C312 C 0.08203 0.73181 0.08993
 C313 C 0.05965 0.72799 0.06909
 C314 C 0.04895 0.75216 0.05276
 N315 N 0.11798 0.76376 0.11524
 N316 N 0.11829 0.74926 0.13934
 C317 C 0.14175 0.75202 0.16021
 C318 C 0.13554 0.74899 0.19035
 C319 C 0.15805 0.75124 0.21124
 C320 C 0.18742 0.75557 0.20224
 C321 C 0.19368 0.75765 0.17179
 C322 C 0.17094 0.75654 0.15095
 H323 H 0.05441 0.79920 0.04518
 H324 H 0.09484 0.80513 0.08056
 H325 H 0.08964 0.71297 0.10245
 H326 H 0.05039 0.70614 0.06624
 H327 H 0.11311 0.74530 0.19768
 H328 H 0.15251 0.74953 0.23451
 H329 H 0.21615 0.75991 0.16407
 H330 H 0.17617 0.75830 0.12763
 C331 C 0.58409 0.19892 0.57966
 C332 C 0.60615 0.19772 0.60117
 C333 C 0.62828 0.21924 0.60202
 C334 C 0.62785 0.24241 0.58139
 C335 C 0.60534 0.24408 0.56037
 C336 C 0.58336 0.22225 0.55923
 N337 N 0.65031 0.21769 0.62459
 N338 N 0.67508 0.23066 0.62200
 C339 C 0.69642 0.23032 0.64530
 C340 C 0.72583 0.23701 0.63878
 C341 C 0.74689 0.23782 0.66132
 C342 C 0.73857 0.23308 0.69095
 C343 C 0.70909 0.22598 0.69734
 C344 C 0.68821 0.22442 0.67471
 H345 H 0.56729 0.18192 0.57932
 H346 H 0.60616 0.17987 0.61709
 H347 H 0.64459 0.25945 0.58187
 H348 H 0.60529 0.26223 0.54478
 H349 H 0.73244 0.24150 0.61618
 H350 H 0.76959 0.24263 0.65569
 H351 H 0.70207 0.22226 0.71997
 H352 H 0.66555 0.21941 0.68028
 C353 C 0.72848 0.07546 0.92847
 C354 C 0.73021 0.09680 0.90626
 C355 C 0.75695 0.10270 0.89209
 C356 C 0.78234 0.08746 0.90086
 C357 C 0.78089 0.06667 0.92375
 C358 C 0.75384 0.06018 0.93772
 N359 N 0.75776 0.12463 0.86933
 N360 N 0.77755 0.12510 0.84937
 C361 C 0.77827 0.14774 0.82727
 C362 C 0.79258 0.14243 0.80032
 C363 C 0.79308 0.16403 0.77821
 C364 C 0.78011 0.19156 0.78328
 C365 C 0.76611 0.19707 0.81038
 C366 C 0.76493 0.17522 0.83215
 H367 H 0.70726 0.07133 0.93868
 H368 H 0.71053 0.10854 0.89976
 H369 H 0.80332 0.09197 0.89034
 H370 H 0.80090 0.05544 0.93016
 H371 H 0.80297 0.12137 0.79632
 H372 H 0.80400 0.15952 0.75738
 H373 H 0.75605 0.21826 0.81457
 H374 H 0.75397 0.17988 0.85292
 C375 C 0.26370 0.59850 0.44519
 C376 C 0.26271 0.62141 0.42458
 C377 C 0.24172 0.62115 0.40196
 C378 C 0.22114 0.59799 0.40052
 C379 C 0.22161 0.57543 0.42162
 C380 C 0.24309 0.57537 0.44395
 N381 N 0.24178 0.64457 0.38077
 N382 N 0.22989 0.64176 0.35545
 C383 C 0.22976 0.66534 0.33444
 C384 C 0.22657 0.65877 0.30440
 C385 C 0.22771 0.68120 0.28325
 C386 C 0.23141 0.71072 0.29193
 C387 C 0.23326 0.71738 0.32226
 C388 C 0.23297 0.69483 0.34334
 H389 H 0.28030 0.59906 0.46238
 H390 H 0.27860 0.63920 0.42593
 H391 H 0.20458 0.59751 0.38331
 H392 H 0.20550 0.55783 0.42025
 H393 H 0.22395 0.63613 0.29732
 H394 H 0.22612 0.67547 0.26004
 H395 H 0.23518 0.74000 0.32962
 H396 H 0.23497 0.70040 0.36655
 C397 C 0.26866 0.94150 0.93025
 C398 C 0.26903 0.92049 0.90768
 C399 C 0.24318 0.91304 0.89268
 C400 C 0.21664 0.92676 0.90066
 C401 C 0.21611 0.94762 0.92346
 C402 C 0.24217 0.95537 0.93856
 N403 N 0.24450 0.89141 0.86964
 N404 N 0.22260 0.88566 0.85306
 C405 C 0.22393 0.86378 0.83027
 C406 C 0.20014 0.86084 0.81084
 C407 C 0.20066 0.83966 0.78843
 C408 C 0.22481 0.82064 0.78545
 C409 C 0.24882 0.82376 0.80476
 C410 C 0.24842 0.84517 0.82702
 H411 H 0.28921 0.94670 0.94125
 H412 H 0.28960 0.91002 0.90176
 H413 H 0.19632 0.92127 0.88943
 H414 H 0.19528 0.95771 0.92911
 H415 H 0.18124 0.87516 0.81297
 H416 H 0.18225 0.83821 0.77331
 H417 H 0.26770 0.80939 0.80281
 H418 H 0.26709 0.84700 0.84178
 C419 C 0.79016 0.43310 0.42915
 C420 C 0.79414 0.41261 0.40641
 C421 C 0.76991 0.40132 0.39099
 C422 C 0.74146 0.41082 0.39854
 C423 C 0.73742 0.43120 0.42135
 C424 C 0.76172 0.44253 0.43696
 N425 N 0.77468 0.37980 0.36833
 N426 N 0.75367 0.36952 0.35279
 C427 C 0.75816 0.34735 0.33072
 C428 C 0.73392 0.33716 0.31455
 C429 C 0.73718 0.31436 0.29406
 C430 C 0.76478 0.30121 0.28969
 C431 C 0.78930 0.31207 0.30518
 C432 C 0.78603 0.33493 0.32563
 H433 H 0.80933 0.44139 0.44074
 H434 H 0.81617 0.40540 0.40085
 H435 H 0.72234 0.40236 0.38700
 H436 H 0.71524 0.43806 0.42675
 H437 H 0.71236 0.34661 0.31821
 H438 H 0.71806 0.30653 0.28207
 H439 H 0.81077 0.30222 0.30210
 H440 H 0.80512 0.34247 0.33783
 C441 C 0.09112 0.21509 0.92539
 C442 C 0.11245 0.21475 0.90307
 C443 C 0.12541 0.24101 0.89332
 C444 C 0.11666 0.26785 0.90604
 C445 C 0.09514 0.26826 0.92818
 C446 C 0.08219 0.24187 0.93814
 N447 N 0.14732 0.23983 0.87055
 N448 N 0.16193 0.26248 0.86265
 C449 C 0.18377 0.26134 0.83982
 C450 C 0.20162 0.28605 0.83494
 C451 C 0.22365 0.28544 0.81335
 C452 C 0.22802 0.26005 0.79618
 C453 C 0.20954 0.23553 0.80050
 C454 C 0.18773 0.23604 0.82234
 H455 H 0.08149 0.19439 0.93249
 H456 H 0.11900 0.19395 0.89342
 H457 H 0.12634 0.28847 0.89880
 H458 H 0.08875 0.28922 0.93759
 H459 H 0.19870 0.30569 0.84821
 H460 H 0.23760 0.30462 0.81033
 H461 H 0.21219 0.21592 0.78713
 H462 H 0.17400 0.21676 0.82553
 C463 C 0.55314 0.71012 0.42309
 C464 C 0.57499 0.70926 0.40126
 C465 C 0.59046 0.73483 0.39343
 C466 C 0.58375 0.76149 0.40766
 C467 C 0.56173 0.76245 0.42931
 C468 C 0.54618 0.73676 0.43728
 N469 N 0.61253 0.73318 0.37078
 N470 N 0.62919 0.75489 0.36434
 C471 C 0.65090 0.75324 0.34135
 C472 C 0.67066 0.77670 0.33752
 C473 C 0.69215 0.77569 0.31532
 C474 C 0.69408 0.75117 0.29648
 C475 C 0.67385 0.72791 0.29998
 C476 C 0.65260 0.72879 0.32236
 H477 H 0.54152 0.68998 0.42866
 H478 H 0.57992 0.68859 0.39041
 H479 H 0.59535 0.78158 0.40194
 H480 H 0.55695 0.78330 0.43986
 H481 H 0.66951 0.79572 0.35193
 H482 H 0.70744 0.79392 0.31300
 H483 H 0.67439 0.70911 0.28527
 H484 H 0.63738 0.71052 0.32463
 C485 C 0.92206 0.70792 0.91773
 C486 C 0.89991 0.70545 0.89636
 C487 C 0.87655 0.72547 0.89586
 C488 C 0.87560 0.74821 0.91690
 C489 C 0.89810 0.75117 0.93774
 C490 C 0.92154 0.73108 0.93831
 N491 N 0.85490 0.72333 0.87296
 N492 N 0.82965 0.73514 0.87552
 C493 C 0.80875 0.73490 0.85184
 C494 C 0.77903 0.74005 0.85807
 C495 C 0.75842 0.74145 0.83515
 C496 C 0.76749 0.73887 0.80549
 C497 C 0.79731 0.73329 0.79937
 C498 C 0.81774 0.73111 0.82234
 H499 H 0.94000 0.69227 0.91764
 H500 H 0.90097 0.68794 0.88013
 H501 H 0.85790 0.76412 0.91672
 H502 H 0.89717 0.76915 0.95346
 H503 H 0.77184 0.74297 0.88074
 H504 H 0.73548 0.74501 0.84055
 H505 H 0.80492 0.73127 0.77673
 H506 H 0.84068 0.72739 0.81700
 C507 C 0.45644 0.20847 0.41663
 C508 C 0.43472 0.21000 0.39479
 C509 C 0.41380 0.23255 0.39532
 C510 C 0.41522 0.25409 0.41760
 C511 C 0.43749 0.25309 0.43893
 C512 C 0.45813 0.23012 0.43875
 N513 N 0.39170 0.23342 0.37279
 N514 N 0.36713 0.24621 0.37679
 C515 C 0.34548 0.24781 0.35385
 C516 C 0.31584 0.25125 0.36151
 C517 C 0.29422 0.25243 0.33955
 C518 C 0.30207 0.25149 0.30943
 C519 C 0.33193 0.24828 0.30184
 C520 C 0.35343 0.24619 0.32384
 H521 H 0.47225 0.19068 0.41594
 H522 H 0.43392 0.19337 0.37764
 H523 H 0.39941 0.27187 0.41821
 H524 H 0.43835 0.27000 0.45582
 H525 H 0.30944 0.25237 0.38458
 H526 H 0.27135 0.25397 0.34614
 H527 H 0.33864 0.24752 0.27884
 H528 H 0.37628 0.24377 0.31745
 C529 C 0.77374 0.92807 0.92821
 C530 C 0.77353 0.90607 0.90661
 C531 C 0.74692 0.89411 0.89667
 C532 C 0.72028 0.90453 0.90851
 C533 C 0.72043 0.92669 0.93002
 C534 C 0.74719 0.93867 0.94014
 N535 N 0.74765 0.87151 0.87459
 N536 N 0.72451 0.85831 0.86577
 C537 C 0.72545 0.83576 0.84364
 C538 C 0.69958 0.82040 0.83679
 C539 C 0.69985 0.79792 0.81568
 C540 C 0.72611 0.79049 0.80106
 C541 C 0.75195 0.80635 0.80745
 C542 C 0.75170 0.82867 0.82874
 H543 H 0.79473 0.93687 0.93543
 H544 H 0.79419 0.89824 0.89763
 H545 H 0.69940 0.89563 0.90112
 H546 H 0.69962 0.93437 0.93877
 H547 H 0.67922 0.82571 0.84805
 H548 H 0.67967 0.78603 0.81101
 H549 H 0.77231 0.80131 0.79606
 H550 H 0.77196 0.84038 0.83348
 C551 C 0.28421 0.44513 0.43149
 C552 C 0.28768 0.42285 0.41037
 C553 C 0.26340 0.40629 0.40090
 C554 C 0.23541 0.41248 0.41260
 C555 C 0.23187 0.43482 0.43350
 C556 C 0.25623 0.45134 0.44330
 N557 N 0.26757 0.38335 0.37953
 N558 N 0.24656 0.36627 0.37210
 C559 C 0.24982 0.34328 0.35068
 C560 C 0.22592 0.32447 0.34548
 C561 C 0.22806 0.30186 0.32467
 C562 C 0.25423 0.29773 0.30863
 C563 C 0.27817 0.31680 0.31364
 C564 C 0.27607 0.33933 0.33466
 H565 H 0.30340 0.45749 0.43854
 H566 H 0.30937 0.41834 0.40151
 H567 H 0.21624 0.40009 0.40559
 H568 H 0.21003 0.43899 0.44217
 H569 H 0.20558 0.32733 0.35767
 H570 H 0.20933 0.28744 0.32120
 H571 H 0.29841 0.31429 0.30120
 H572 H 0.29478 0.35374 0.33820
 C573 C 0.22436 0.09398 0.93729
 C574 C 0.22705 0.11707 0.91702
 C575 C 0.25387 0.12249 0.90282
 C576 C 0.27845 0.10521 0.90979
 C577 C 0.27614 0.08278 0.93093
 C578 C 0.24892 0.07657 0.94469
 N579 N 0.25565 0.14563 0.88142
 N580 N 0.27270 0.14401 0.85912
 C581 C 0.27448 0.16749 0.83810
 C582 C 0.27815 0.16087 0.80812
 C583 C 0.27780 0.18333 0.78695
 C584 C 0.27471 0.21292 0.79560
 C585 C 0.27288 0.21956 0.82597
 C586 C 0.27206 0.19699 0.84700
 H587 H 0.20309 0.09014 0.94750
 H588 H 0.20799 0.13038 0.91183
 H589 H 0.29945 0.10933 0.89918
 H590 H 0.29556 0.06993 0.93598
 H591 H 0.28016 0.13817 0.80106
 H592 H 0.27933 0.17751 0.76376
 H593 H 0.27159 0.24219 0.83339
 H594 H 0.26977 0.20250 0.87020
 C595 C 0.77073 0.58610 0.44286
 C596 C 0.77051 0.60878 0.42192
 C597 C 0.74875 0.60966 0.40005
 C598 C 0.72666 0.58789 0.39971
 C599 C 0.72645 0.56556 0.42110
 C600 C 0.74866 0.56432 0.44270
 N601 N 0.74947 0.63296 0.37867
 N602 N 0.73543 0.63149 0.35435
 C603 C 0.73583 0.65520 0.33340
 C604 C 0.72696 0.64983 0.30422
 C605 C 0.72737 0.67252 0.28325
 C606 C 0.73593 0.70108 0.29149
 C607 C 0.74459 0.70657 0.32078
 C608 C 0.74475 0.68375 0.34157
 H609 H 0.78799 0.58577 0.45938
 H610 H 0.78756 0.62551 0.42247
 H611 H 0.70948 0.58830 0.38313
 H612 H 0.70924 0.54900 0.42045
 H613 H 0.71998 0.62795 0.29768
 H614 H 0.72056 0.66797 0.26074
 H615 H 0.75128 0.72850 0.32746
 H616 H 0.75150 0.68847 0.36405
 C617 C 0.06097 0.72097 0.92563
 C618 C 0.08268 0.72280 0.90374
 C619 C 0.08664 0.74878 0.88756
 C620 C 0.06886 0.77324 0.89375
 C621 C 0.04766 0.77177 0.91619
 C622 C 0.04334 0.74555 0.93244
 N623 N 0.10937 0.75005 0.86561
 N624 N 0.10910 0.76884 0.84468
 C625 C 0.13254 0.77061 0.82352
 C626 C 0.12718 0.78325 0.79576
 C627 C 0.14965 0.78494 0.77462
 C628 C 0.17802 0.77493 0.78146
 C629 C 0.18355 0.76267 0.80938
 C630 C 0.16089 0.76025 0.83022
 H631 H 0.05850 0.70042 0.93762
 H632 H 0.09636 0.70383 0.89922
 H633 H 0.07177 0.79364 0.88164
 H634 H 0.03457 0.79117 0.92064
 H635 H 0.10545 0.79139 0.79039
 H636 H 0.14510 0.79442 0.75310
 H637 H 0.20536 0.75482 0.81491
 H638 H 0.16557 0.75067 0.85165
 C639 C 0.58170 0.20198 0.41582
 C640 C 0.60287 0.20206 0.39333
 C641 C 0.62398 0.22456 0.39183
 C642 C 0.62348 0.24733 0.41285
 C643 C 0.60189 0.24768 0.43488
 C644 C 0.58089 0.22495 0.43662
 N645 N 0.64511 0.22440 0.36833
 N646 N 0.66901 0.23902 0.36996
 C647 C 0.68949 0.24022 0.34591
 C648 C 0.71846 0.24923 0.35136
 C649 C 0.73868 0.25146 0.32812
 C650 C 0.72984 0.24576 0.29886
 C651 C 0.70078 0.23646 0.29350
 C652 C 0.68080 0.23353 0.31685
 H653 H 0.56562 0.18431 0.41663
 H654 H 0.60297 0.18449 0.37713
 H655 H 0.63943 0.26510 0.41191
 H656 H 0.60177 0.26556 0.45073
 H657 H 0.72541 0.25436 0.37369
 H658 H 0.76113 0.25792 0.33295
 H659 H 0.69342 0.23196 0.27116
 H660 H 0.65841 0.22675 0.31212
 C661 C 0.95473 0.20864 0.92407
 C662 C 0.93418 0.20645 0.90116
 C663 C 0.91873 0.23132 0.89165
 C664 C 0.92404 0.25859 0.90536
 C665 C 0.94477 0.26088 0.92809
 C666 C 0.96039 0.23593 0.93766
 N667 N 0.89822 0.22838 0.86777
 N668 N 0.88160 0.24941 0.85970
 C669 C 0.86155 0.24651 0.83542
 C670 C 0.84135 0.26908 0.82995
 C671 C 0.82144 0.26683 0.80647
 C672 C 0.82157 0.24196 0.78802
 C673 C 0.84229 0.21964 0.79313
 C674 C 0.86196 0.22174 0.81678
 H675 H 0.96645 0.18904 0.93087
 H676 H 0.93030 0.18532 0.89073
 H677 H 0.91242 0.27816 0.89833
 H678 H 0.94859 0.28220 0.93814
 H679 H 0.84091 0.28834 0.84406
 H680 H 0.80572 0.28436 0.80284
 H681 H 0.84338 0.20067 0.77868
 H682 H 0.87763 0.20418 0.82031
 C683 C 0.41499 0.71249 0.42156
 C684 C 0.39408 0.71218 0.39892
 C685 C 0.38116 0.73839 0.38930
 C686 C 0.38956 0.76517 0.40249
 C687 C 0.41067 0.76556 0.42502
 C688 C 0.42355 0.73920 0.43487
 N689 N 0.35955 0.73713 0.36626
 N690 N 0.34527 0.75974 0.35799
 C691 C 0.32361 0.75842 0.33501
 C692 C 0.30652 0.78335 0.32934
 C693 C 0.28460 0.78260 0.30770
 C694 C 0.27949 0.75682 0.29129
 C695 C 0.29720 0.73202 0.29639
 C696 C 0.31895 0.73271 0.31827
 H697 H 0.42456 0.69181 0.42854
 H698 H 0.38779 0.69142 0.38892
 H699 H 0.37990 0.78575 0.39537
 H700 H 0.41678 0.78647 0.43482
 H701 H 0.30996 0.80330 0.34203
 H702 H 0.27125 0.80199 0.30408
 H703 H 0.29397 0.71208 0.28364
 H704 H 0.33205 0.71321 0.32209
 C705 C 0.20456 0.94291 0.07295
 C706 C 0.20155 0.92119 0.09471
 C707 C 0.22621 0.90596 0.10498
 C708 C 0.25413 0.91274 0.09327
 C709 C 0.25722 0.93460 0.07168
 C710 C 0.23246 0.94992 0.06128
 N711 N 0.22242 0.88389 0.12735
 N712 N 0.24371 0.86785 0.13586
 C713 C 0.24049 0.84586 0.15834
 C714 C 0.26427 0.82731 0.16421
 C715 C 0.26199 0.80544 0.18581
 C716 C 0.23582 0.80186 0.20202
 C717 C 0.21206 0.82082 0.19654
 C718 C 0.21428 0.84256 0.17467
 H719 H 0.18507 0.95439 0.06549
 H720 H 0.17993 0.91618 0.10358
 H721 H 0.27357 0.90130 0.10090
 H722 H 0.27899 0.93947 0.06312
 H723 H 0.28458 0.82971 0.15182
 H724 H 0.28058 0.79107 0.18969
 H725 H 0.19183 0.81870 0.20910
 H726 H 0.19566 0.85682 0.17064
 C727 C 0.72541 0.42379 0.57202
 C728 C 0.72604 0.40151 0.59341
 C729 C 0.75291 0.39081 0.60397
 C730 C 0.77932 0.40279 0.59292
 C731 C 0.77873 0.42520 0.57167
 C732 C 0.75176 0.43593 0.56094
 N733 N 0.75277 0.36783 0.62575
 N734 N 0.77641 0.35582 0.63475
 C735 C 0.77649 0.33280 0.65648
 C736 C 0.80304 0.31865 0.66290
 C737 C 0.80383 0.29552 0.68331
 C738 C 0.77799 0.28624 0.69772
 C739 C 0.75148 0.30103 0.69195
 C740 C 0.75065 0.32399 0.67129
 H741 H 0.70427 0.43161 0.56430
 H742 H 0.70554 0.39247 0.60174
 H743 H 0.80040 0.39492 0.60075
 H744 H 0.79941 0.43405 0.56359
 H745 H 0.82310 0.32530 0.65172
 H746 H 0.82452 0.28449 0.68749
 H747 H 0.73138 0.29457 0.70319
 H748 H 0.72990 0.33478 0.66689
 C749 C 0.72842 0.08637 0.06110
 C750 C 0.72970 0.10934 0.08166
 C751 C 0.75320 0.11133 0.10157
 C752 C 0.77580 0.09031 0.10042
 C753 C 0.77489 0.06772 0.07943
 C754 C 0.75110 0.06545 0.05969
 N755 N 0.75378 0.13498 0.12250
 N756 N 0.77007 0.13432 0.14538
 C757 C 0.77108 0.15827 0.16594
 C758 C 0.78183 0.15326 0.19453
 C759 C 0.78235 0.17604 0.21531
 C760 C 0.77293 0.20436 0.20740
 C761 C 0.76269 0.20958 0.17860
 C762 C 0.76153 0.18663 0.15803
 H763 H 0.70995 0.08523 0.04600
 H764 H 0.71222 0.12547 0.08229
 H765 H 0.79429 0.09156 0.11547
 H766 H 0.79262 0.05185 0.07884
 H767 H 0.78932 0.13152 0.20083
 H768 H 0.79031 0.17171 0.23748
 H769 H 0.75525 0.23132 0.17223
 H770 H 0.75337 0.19104 0.13598
 C771 C 0.20932 0.57308 0.58402
 C772 C 0.20523 0.59518 0.60516
 C773 C 0.22479 0.61902 0.60674
 C774 C 0.24900 0.62023 0.58738
 C775 C 0.25358 0.59774 0.56680
 C776 C 0.23364 0.57410 0.56480
 N777 N 0.22014 0.64131 0.62861
 N778 N 0.23083 0.66712 0.62573
 C779 C 0.22760 0.68904 0.64823
 C780 C 0.23214 0.71868 0.64094
 C781 C 0.23046 0.74042 0.66275
 C782 C 0.22534 0.73266 0.69246
 C783 C 0.22023 0.70294 0.69961
 C784 C 0.22117 0.68131 0.67765
 H785 H 0.19373 0.55499 0.58296
 H786 H 0.18660 0.59393 0.62010
 H787 H 0.26457 0.63833 0.58847
 H788 H 0.27242 0.59905 0.55212
 H789 H 0.23702 0.72491 0.61831
 H790 H 0.23378 0.76324 0.65655
 H791 H 0.21624 0.69639 0.72233
 H792 H 0.21777 0.65849 0.68380
 C793 C 0.92890 0.71434 0.08181
 C794 C 0.90829 0.71289 0.10480
 C795 C 0.88579 0.73376 0.10678
 C796 C 0.88444 0.75661 0.08582
 C797 C 0.90548 0.75853 0.06326
 C798 C 0.92776 0.73727 0.06093
 N799 N 0.86494 0.73170 0.13052
 N800 N 0.83995 0.74422 0.12922
 C801 C 0.81946 0.74331 0.15332
 C802 C 0.79002 0.75058 0.14806
 C803 C 0.76971 0.75096 0.17132
 C804 C 0.77881 0.74511 0.20047
 C805 C 0.80827 0.73727 0.20562
 C806 C 0.82843 0.73622 0.18221
 H807 H 0.94597 0.69779 0.08058
 H808 H 0.90965 0.69528 0.12092
 H809 H 0.86738 0.77315 0.08712
 H810 H 0.90408 0.77636 0.04738
 H811 H 0.78282 0.75595 0.12587
 H812 H 0.74698 0.75632 0.16663
 H813 H 0.81583 0.73264 0.22786
 H814 H 0.85113 0.73067 0.18680
 C815 C 0.45936 0.20600 0.58379
 C816 C 0.43891 0.20749 0.60691
 C817 C 0.41909 0.23096 0.60853
 C818 C 0.42018 0.25330 0.58701
 C819 C 0.44114 0.25227 0.56439
 C820 C 0.46080 0.22854 0.56253
 N821 N 0.39857 0.23214 0.63254
 N822 N 0.37482 0.24679 0.63071
 C823 C 0.35490 0.24914 0.65512
 C824 C 0.32532 0.25555 0.64964
 C825 C 0.30540 0.25802 0.67308
 C826 C 0.31508 0.25538 0.70253
 C827 C 0.34488 0.24907 0.70793
 C828 C 0.36459 0.24572 0.68442
 H829 H 0.47446 0.18761 0.58290
 H830 H 0.43835 0.19023 0.62347
 H831 H 0.40522 0.27178 0.58804
 H832 H 0.44184 0.26987 0.54819
 H833 H 0.31760 0.25811 0.62712
 H834 H 0.28242 0.26197 0.66820
 H835 H 0.35293 0.24694 0.73038
 H836 H 0.38747 0.24103 0.68911
 C837 C 0.10077 0.27488 0.06217
 C838 C 0.12240 0.27753 0.08401
 C839 C 0.12477 0.25630 0.10634
 C840 C 0.10565 0.23188 0.10625
 C841 C 0.08451 0.22880 0.08398
 C842 C 0.08172 0.25041 0.06190
 N843 N 0.14693 0.25975 0.12859
 N844 N 0.14514 0.24671 0.15347
 C845 C 0.16770 0.24925 0.17543
 C846 C 0.16115 0.24166 0.20475
 C847 C 0.18287 0.24332 0.22657
 C848 C 0.21166 0.25180 0.21910
 C849 C 0.21830 0.25946 0.18974
 C850 C 0.19640 0.25843 0.16804
 H851 H 0.09918 0.29173 0.04527
 H852 H 0.13711 0.29636 0.08377
 H853 H 0.10729 0.21506 0.12317
 H854 H 0.07003 0.20978 0.08427
 H855 H 0.13915 0.23448 0.21067
 H856 H 0.17747 0.23721 0.24913
 H857 H 0.24047 0.26598 0.18367
 H858 H 0.20200 0.26417 0.14546
 C859 C 0.55059 0.71103 0.57526
 C860 C 0.57146 0.71016 0.59788
 C861 C 0.58596 0.73585 0.60682
 C862 C 0.57932 0.76270 0.59287
 C863 C 0.55826 0.76367 0.57030
 C864 C 0.54369 0.73781 0.56124
 N865 N 0.60707 0.73394 0.63023
 N866 N 0.62260 0.75579 0.63855
 C867 C 0.64336 0.75321 0.66226
 C868 C 0.66167 0.77715 0.66900
 C869 C 0.68225 0.77511 0.69192
 C870 C 0.68473 0.74900 0.70843
 C871 C 0.66598 0.72520 0.70199
 C872 C 0.64560 0.72718 0.67898
 H873 H 0.53973 0.69073 0.56888
 H874 H 0.57638 0.68936 0.60851
 H875 H 0.59025 0.78288 0.59949
 H876 H 0.55345 0.78461 0.55992
 H877 H 0.66009 0.79735 0.65634
 H878 H 0.69643 0.79376 0.69660
 H879 H 0.66701 0.70512 0.71489
 H880 H 0.63151 0.70844 0.67442
   
