data_POSCAR
  _audit_creation_date              2014-09-24
  _audit_creation_method            'ToBaCCo'
  _symmetry_space_group_name_H-M    'P1'
  _symmetry_Int_Tables_number       1
  _symmetry_cell_setting            triclinic
  loop_
  _symmetry_equiv_pos_as_xyz
 x,y,z
_cell_length_a 35.5983
_cell_length_b 24.8990
_cell_length_c 40.5241
_cell_angle_alpha 90.239200
_cell_angle_beta 90.939400
_cell_angle_gamma 80.116800
loop_
  _atom_site_label
  _atom_site_type_symbol
  _atom_site_fract_x
  _atom_site_fract_y
  _atom_site_fract_z
C1 C 1.23168 0.22644 0.20172
 C2 C 1.26392 0.25407 0.18916
 C3 C 1.28478 0.27355 0.21323
 C4 C 1.27198 0.26348 0.24822
 C5 C 1.25215 0.18178 0.22539
 C6 C 1.27327 0.20150 0.24965
 C7 C 1.20855 0.26825 0.22442
 C8 C 1.22917 0.28694 0.24907
 H9 H 1.27108 0.25539 0.16331
 H10 H 1.28880 0.28010 0.26790
 H11 H 1.25147 0.13874 0.22280
 H12 H 1.17769 0.27791 0.22302
 C13 C 0.72397 -0.25010 0.21138
 C14 C 0.74847 -0.21266 0.19626
 C15 C 0.77047 -0.18986 0.21812
 C16 C 0.76488 -0.20583 0.25438
 C17 C 0.75187 -0.29105 0.23176
 C18 C 0.77273 -0.26867 0.25490
 C19 C 0.70027 -0.21439 0.23727
 C20 C 0.72151 -0.19209 0.26035
 H21 H 0.75057 -0.20855 0.16978
 H22 H 0.78208 -0.18630 0.27234
 H23 H 0.75319 -0.33453 0.22879
 H24 H 0.66968 -0.20964 0.23887
 C25 C 0.71853 0.25341 -0.28991
 C26 C 0.74339 0.28511 -0.30585
 C27 C 0.76683 0.31053 -0.28404
 C28 C 0.75951 0.30130 -0.24899
 C29 C 0.74329 0.21618 -0.26807
 C30 C 0.76579 0.24161 -0.24486
 C31 C 0.69586 0.29227 -0.26777
 C32 C 0.71806 0.31765 -0.24399
 H33 H 0.74364 0.29032 -0.33242
 H34 H 0.77738 0.32215 -0.23261
 H35 H 0.74534 0.17248 -0.27045
 H36 H 0.66534 0.30381 -0.26962
 C37 C 1.23557 -0.28500 -0.29558
 C38 C 1.26173 -0.24831 -0.30960
 C39 C 1.28096 -0.22374 -0.28644
 C40 C 1.27138 -0.23655 -0.25076
 C41 C 1.26100 -0.32406 -0.27216
 C42 C 1.27942 -0.29903 -0.24861
 C43 C 1.20900 -0.24707 -0.27259
 C44 C 1.22758 -0.22256 -0.24879
 H45 H 1.26658 -0.24494 -0.33579
 H46 H 1.28655 -0.21569 -0.23178
 H47 H 1.26278 -0.36791 -0.27338
 H48 H 1.17827 -0.24003 -0.27409
 C49 C 0.22727 0.23282 0.79129
 C50 C 0.25293 0.26432 0.80692
 C51 C 0.27352 0.29239 0.78486
 C52 C 0.26388 0.28476 0.75012
 C53 C 0.20106 0.27386 0.76886
 C54 C 0.22019 0.30024 0.74676
 C55 C 0.25191 0.19564 0.76696
 C56 C 0.27053 0.22224 0.74470
 H57 H 0.25550 0.26774 0.83352
 H58 H 0.27951 0.30692 0.73277
 H59 H 0.17046 0.27763 0.76745
 H60 H 0.25279 0.15198 0.76675
 C61 C 0.73074 0.68249 0.78949
 C62 C 0.75459 0.71441 0.80766
 C63 C 0.77538 0.74602 0.78758
 C64 C 0.76788 0.73917 0.75217
 C65 C 0.70608 0.72129 0.76833
 C66 C 0.72616 0.75302 0.74745
 C67 C 0.75585 0.64964 0.76635
 C68 C 0.77644 0.68025 0.74550
 H69 H 0.75919 0.70984 0.83408
 H70 H 0.78338 0.76323 0.73612
 H71 H 0.67540 0.72437 0.76760
 H72 H 0.75616 0.60663 0.76276
 C73 C 0.73801 0.18187 0.29115
 C74 C 0.76557 0.21336 0.30898
 C75 C 0.78470 0.24202 0.28867
 C76 C 0.77427 0.23761 0.25203
 C77 C 0.71181 0.22469 0.27026
 C78 C 0.73059 0.25378 0.24971
 C79 C 0.76210 0.14704 0.26518
 C80 C 0.78101 0.17616 0.24480
 H81 H 0.77110 0.21059 0.33535
 H82 H 0.78975 0.26144 0.23548
 H83 H 0.68110 0.22792 0.26936
 H84 H 0.76163 0.10413 0.26126
 C85 C 0.22295 0.73576 0.29109
 C86 C 0.24790 0.77364 0.30633
 C87 C 0.26738 0.79850 0.28426
 C88 C 0.25976 0.78405 0.24806
 C89 C 0.19694 0.77186 0.26606
 C90 C 0.21612 0.79637 0.24311
 C91 C 0.25007 0.69665 0.26935
 C92 C 0.26895 0.72131 0.24633
 H93 H 0.25106 0.77877 0.33275
 H94 H 0.27553 0.80507 0.23028
 H95 H 0.16640 0.77489 0.26466
 H96 H 0.25242 0.65289 0.27138
 O97 O 1.06480 -0.00081 0.03349
 O98 O 0.93288 -0.00485 0.03871
 O99 O 0.98507 0.09300 0.03821
 O100 O 1.01541 -0.10396 0.03093
 O101 O 0.93051 0.08722 0.02015
 O102 O 1.06683 -0.08987 0.01033
 O103 O 0.94901 -0.08627 0.02028
 O104 O 1.04736 0.08122 0.01876
 C105 C 1.06307 0.04781 0.03982
 C106 C 0.93242 -0.05407 0.04169
 C107 C 0.95088 0.09772 0.04355
 C108 C 1.05022 -0.10770 0.03362
 O109 O 1.05679 -0.04529 -0.04991
 O110 O 0.93035 0.05159 -0.04285
 O111 O 1.01806 0.08284 -0.04512
 O112 O 0.96353 -0.08078 -0.04690
 O113 O 0.91704 -0.03353 -0.02265
 O114 O 1.07088 0.03860 -0.02917
 O115 O 1.03038 -0.11279 -0.03593
 O116 O 0.95746 0.11658 -0.02612
 Co117 Co 1.05809 -0.02172 -0.00832
 Co118 Co 0.93446 0.02290 -0.00211
 Co119 Co 1.00138 0.08464 -0.00371
 Co120 Co 0.99033 -0.08695 -0.00777
 O121 O 0.99605 -0.00055 -0.00546
 C122 C 1.04993 -0.09122 -0.05609
 C123 C 0.93744 0.09773 -0.04749
 C124 C 1.05207 0.06848 -0.05041
 C125 C 0.92880 -0.06482 -0.04564
 O126 O 1.06788 0.50217 0.53592
 O127 O 0.93858 0.47622 0.54268
 O128 O 0.98262 0.58637 0.54249
 O129 O 1.02403 0.39132 0.53153
 O130 O 0.92886 0.57131 0.52629
 O131 O 1.07412 0.41308 0.51233
 O132 O 0.95898 0.39958 0.51976
 O133 O 1.04400 0.58298 0.52207
 C134 C 1.06151 0.55094 0.54283
 C135 C 0.94285 0.42574 0.54369
 C136 C 0.94886 0.58718 0.54839
 C137 C 1.05832 0.39207 0.53495
 O138 O 1.06081 0.45890 0.45187
 O139 O 0.92953 0.54093 0.46246
 O140 O 1.01487 0.58504 0.45880
 O141 O 0.97278 0.41316 0.45330
 O142 O 0.92456 0.45104 0.47934
 O143 O 1.06951 0.54450 0.47376
 O144 O 1.04008 0.38694 0.46564
 O145 O 0.95283 0.60855 0.48021
 Co146 Co 1.06136 0.48119 0.49396
 Co147 Co 0.93705 0.50863 0.50226
 Co148 Co 0.99859 0.58176 0.50052
 Co149 Co 0.99902 0.40702 0.49285
 O150 O 0.99903 0.49464 0.49749
 C151 C 1.05656 0.41202 0.44517
 C152 C 0.93484 0.58804 0.45824
 C153 C 1.04919 0.57383 0.45312
 C154 C 0.93791 0.42933 0.45344
 O155 O 0.56255 0.05371 0.53313
 O156 O 0.42234 -0.04369 0.51798
 O157 O 0.44547 0.11592 0.51827
 O158 O 0.53814 -0.10590 0.53396
 O159 O 0.42461 0.04680 0.53519
 O160 O 0.55726 -0.03441 0.55110
 O161 O 0.47043 -0.08039 0.54568
 O162 O 0.50682 0.09502 0.54457
 C163 C 0.54098 0.08357 0.55237
 C164 C 0.43558 -0.06369 0.54463
 C165 C 0.42802 0.09470 0.53958
 C166 C 0.55334 -0.08182 0.55619
 O167 O 0.57167 -0.07448 0.48890
 O168 O 0.42566 0.07626 0.47078
 O169 O 0.53918 0.09574 0.48473
 O170 O 0.45692 -0.09445 0.47865
 O171 O 0.43753 -0.01821 0.45525
 O172 O 0.56458 0.01725 0.46872
 O173 O 0.52194 -0.09952 0.46876
 O174 O 0.47932 0.09451 0.45835
 Co175 Co 0.55738 -0.00827 0.50965
 Co176 Co 0.43379 0.01436 0.49559
 Co177 Co 0.49276 0.09094 0.50162
 Co178 Co 0.49658 -0.08546 0.50672
 O179 O 0.49520 0.00284 0.50341
 C180 C 0.55608 -0.09712 0.46614
 C181 C 0.44644 0.09150 0.44968
 C182 C 0.55836 0.06687 0.46386
 C183 C 0.44302 -0.06861 0.45361
 O184 O 0.56516 0.54949 0.03635
 O185 O 0.42657 0.45491 0.02270
 O186 O 0.44793 0.61462 0.02178
 O187 O 0.54380 0.38995 0.03180
 O188 O 0.42798 0.54516 0.03874
 O189 O 0.56067 0.46073 0.05133
 O190 O 0.47646 0.41538 0.04781
 O191 O 0.50966 0.59173 0.04855
 C192 C 0.54386 0.57914 0.05598
 C193 C 0.44160 0.43318 0.04842
 C194 C 0.43082 0.59322 0.04319
 C195 C 0.55845 0.41246 0.05489
 O196 O 0.57331 0.42631 -0.01339
 O197 O 0.42856 0.57406 -0.02627
 O198 O 0.54198 0.59600 -0.01065
 O199 O 0.45855 0.40408 -0.01751
 O200 O 0.43925 0.47931 -0.04156
 O201 O 0.56562 0.51893 -0.02952
 O202 O 0.52255 0.40183 -0.03172
 O203 O 0.48192 0.59621 -0.03731
 Co204 Co 0.55986 0.48995 0.01060
 Co205 Co 0.43674 0.51248 -0.00100
 Co206 Co 0.49552 0.58999 0.00563
 Co207 Co 0.50013 0.41260 0.00770
 O208 O 0.49809 0.50125 0.00572
 C209 C 0.55611 0.40613 -0.03627
 C210 C 0.44929 0.59244 -0.04631
 C211 C 0.55985 0.56879 -0.03283
 C212 C 0.44383 0.42887 -0.04247
 C213 C 1.19213 0.16133 0.17383
 C214 C 1.16734 0.14988 0.14842
 C215 C 1.15672 0.18806 0.12274
 C216 C 1.17030 0.23746 0.12322
 C217 C 1.19443 0.24884 0.14870
 C218 C 1.20656 0.21056 0.17389
 C219 C 1.13253 0.17654 0.09705
 C220 C 1.11869 0.12722 0.09664
 C221 C 1.12864 0.08937 0.12263
 C222 C 1.15284 0.10096 0.14837
 C223 C 1.11459 0.04019 0.12219
 C224 C 1.09197 0.02790 0.09575
 C225 C 1.08314 0.06433 0.06923
 C226 C 1.09573 0.11464 0.07022
 H227 H 1.19926 0.13232 0.19367
 H228 H 1.16201 0.26755 0.10404
 H229 H 1.20358 0.28814 0.14881
 H230 H 1.12473 0.20574 0.07726
 H231 H 1.16066 0.07171 0.16813
 H232 H 1.12156 0.01089 0.14201
 H233 H 1.08157 -0.01044 0.09589
 H234 H 1.08892 0.14301 0.04990
 C235 C 1.17867 0.68050 0.67708
 C236 C 1.16361 0.65032 0.65255
 C237 C 1.18789 0.62155 0.62878
 C238 C 1.22698 0.62297 0.63020
 C239 C 1.24174 0.65347 0.65458
 C240 C 1.21777 0.68355 0.67795
 C241 C 1.17265 0.59239 0.60378
 C242 C 1.13328 0.59291 0.60182
 C243 C 1.10901 0.62147 0.62578
 C244 C 1.12442 0.64926 0.65127
 C245 C 1.06954 0.62318 0.62326
 C246 C 1.05413 0.59872 0.59649
 C247 C 1.07799 0.57144 0.57241
 C248 C 1.11756 0.56715 0.57554
 H249 H 1.15951 0.70073 0.69533
 H250 H 1.24611 0.60077 0.61238
 H251 H 1.27216 0.65356 0.65528
 H252 H 1.19123 0.57061 0.58538
 H253 H 1.10578 0.67138 0.66951
 H254 H 1.05057 0.64463 0.64146
 H255 H 1.02359 0.60129 0.59448
 H256 H 1.13581 0.54609 0.55668
 C257 C 0.65920 0.22514 0.68377
 C258 C 0.64312 0.19437 0.65969
 C259 C 0.66714 0.16052 0.63782
 C260 C 0.70655 0.15758 0.64025
 C261 C 0.72227 0.18822 0.66382
 C262 C 0.69925 0.22320 0.68599
 C263 C 0.65152 0.13025 0.61359
 C264 C 0.61198 0.13375 0.61046
 C265 C 0.58764 0.16727 0.63225
 C266 C 0.60336 0.19710 0.65692
 C267 C 0.54800 0.17095 0.62857
 C268 C 0.53271 0.14279 0.60307
 C269 C 0.55677 0.11012 0.58097
 C270 C 0.59646 0.10508 0.58529
 H271 H 0.64005 0.24976 0.70040
 H272 H 0.72537 0.13162 0.62376
 H273 H 0.75305 0.18459 0.66482
 H274 H 0.67017 0.10454 0.59682
 H275 H 0.58468 0.22298 0.67356
 H276 H 0.52881 0.19629 0.64505
 H277 H 0.50204 0.14707 0.60042
 H278 H 0.61537 0.08003 0.56845
 C279 C 0.66398 0.72198 0.18394
 C280 C 0.64761 0.69150 0.16009
 C281 C 0.67123 0.65924 0.13720
 C282 C 0.71058 0.65817 0.13825
 C283 C 0.72658 0.68843 0.16189
 C284 C 0.70377 0.72059 0.18519
 C285 C 0.65524 0.62861 0.11349
 C286 C 0.61578 0.63030 0.11194
 C287 C 0.59191 0.66255 0.13464
 C288 C 0.60801 0.69270 0.15876
 C289 C 0.55230 0.66470 0.13238
 C290 C 0.53652 0.63637 0.10730
 C291 C 0.56015 0.60491 0.08440
 C292 C 0.59983 0.60121 0.08736
 H293 H 0.64542 0.74591 0.20129
 H294 H 0.72907 0.63371 0.12086
 H295 H 0.75724 0.68622 0.16232
 H296 H 0.67349 0.60399 0.09595
 H297 H 0.58973 0.71750 0.17619
 H298 H 0.53350 0.68913 0.14955
 H299 H 0.50581 0.63972 0.10553
 H300 H 0.61834 0.57724 0.06976
 C301 C 0.79324 -0.12943 0.17687
 C302 C 0.82307 -0.11649 0.15805
 C303 C 0.86120 -0.13149 0.16922
 C304 C 0.86842 -0.15811 0.19984
 C305 C 0.83841 -0.17340 0.21772
 C306 C 0.80070 -0.16105 0.20564
 C307 C 0.89120 -0.12175 0.14891
 C308 C 0.88331 -0.09927 0.11713
 C309 C 0.84483 -0.08470 0.10638
 C310 C 0.81516 -0.09222 0.12710
 C311 C 0.83637 -0.06364 0.07469
 C312 C 0.86557 -0.05662 0.05366
 C313 C 0.90384 -0.07003 0.06379
 C314 C 0.91285 -0.09133 0.09566
 H315 H 0.76416 -0.11881 0.16760
 H316 H 0.89742 -0.16989 0.20899
 H317 H 0.84499 -0.19796 0.23971
 H318 H 0.92053 -0.13337 0.15733
 H319 H 0.78581 -0.08123 0.11853
 H320 H 0.80707 -0.05248 0.06614
 H321 H 0.85816 -0.03945 0.02945
 H322 H 0.94241 -0.10087 0.10375
 C323 C 0.81588 0.31089 0.67506
 C324 C 0.84143 0.33697 0.65807
 C325 C 0.84814 0.38863 0.66848
 C326 C 0.83125 0.41084 0.69791
 C327 C 0.80644 0.38331 0.71557
 C328 C 0.79683 0.33444 0.70317
 C329 C 0.87092 0.41696 0.64891
 C330 C 0.88743 0.39317 0.61958
 C331 C 0.88241 0.33964 0.61108
 C332 C 0.85941 0.31224 0.63016
 C333 C 0.89964 0.31430 0.58303
 C334 C 0.92046 0.34217 0.56246
 C335 C 0.92421 0.39651 0.56901
 C336 C 0.90822 0.42169 0.59818
 H337 H 0.81065 0.27167 0.66610
 H338 H 0.83647 0.45003 0.70679
 H339 H 0.79260 0.40238 0.73729
 H340 H 0.87522 0.45747 0.65613
 H341 H 0.85477 0.27191 0.62278
 H342 H 0.89635 0.27305 0.57656
 H343 H 0.93252 0.32142 0.54054
 H344 H 0.91142 0.46319 0.60389
 C345 C 0.30424 -0.15235 0.68114
 C346 C 0.33378 -0.13537 0.66370
 C347 C 0.37199 -0.16092 0.66933
 C348 C 0.37999 -0.20093 0.69398
 C349 C 0.35019 -0.21833 0.71087
 C350 C 0.31213 -0.19536 0.70372
 C351 C 0.40100 -0.14841 0.64894
 C352 C 0.39190 -0.11190 0.62242
 C353 C 0.35373 -0.08495 0.61803
 C354 C 0.32521 -0.09604 0.63899
 C355 C 0.34404 -0.04923 0.59164
 C356 C 0.37122 -0.04230 0.56862
 C357 C 0.40910 -0.06983 0.57169
 C358 C 0.41967 -0.10359 0.59930
 H359 H 0.27479 -0.13506 0.67533
 H360 H 0.40904 -0.22099 0.69882
 H361 H 0.35676 -0.25250 0.72758
 H362 H 0.43014 -0.16907 0.65263
 H363 H 0.29589 -0.07628 0.63485
 H364 H 0.31501 -0.02804 0.58809
 H365 H 0.36220 -0.01567 0.54789
 H366 H 0.44876 -0.12498 0.60198
 C367 C 0.31237 0.34560 0.18612
 C368 C 0.34244 0.36087 0.16870
 C369 C 0.37945 0.32940 0.17116
 C370 C 0.38582 0.28420 0.19238
 C371 C 0.35519 0.26791 0.20862
 C372 C 0.31821 0.29786 0.20486
 C373 C 0.40849 0.34128 0.15059
 C374 C 0.40012 0.38206 0.12634
 C375 C 0.36299 0.41362 0.12466
 C376 C 0.33498 0.40417 0.14654
 C377 C 0.35332 0.45184 0.09963
 C378 C 0.37937 0.45717 0.07540
 C379 C 0.41654 0.42673 0.07638
 C380 C 0.42723 0.38985 0.10249
 H381 H 0.28361 0.36799 0.18271
 H382 H 0.41386 0.25929 0.19456
 H383 H 0.35996 0.22980 0.22196
 H384 H 0.43668 0.31654 0.15194
 H385 H 0.30647 0.42793 0.14458
 H386 H 0.32493 0.47589 0.09785
 H387 H 0.36994 0.48513 0.05538
 H388 H 0.45557 0.36552 0.10322
 C389 C 0.81533 0.23307 -0.20001
 C390 C 0.83549 0.20256 -0.17405
 C391 C 0.82784 0.15002 -0.16695
 C392 C 0.80044 0.12886 -0.18539
 C393 C 0.78042 0.15914 -0.21069
 C394 C 0.78738 0.21174 -0.21893
 C395 C 0.84730 0.11928 -0.14124
 C396 C 0.87428 0.14038 -0.12202
 C397 C 0.88234 0.19283 -0.12871
 C398 C 0.86304 0.22359 -0.15489
 C399 C 0.90931 0.21349 -0.10884
 C400 C 0.92761 0.18268 -0.08244
 C401 C 0.91938 0.13063 -0.07566
 C402 C 0.89290 0.10972 -0.09586
 H403 H 0.82245 0.27248 -0.20557
 H404 H 0.79391 0.08892 -0.17987
 H405 H 0.75828 0.14107 -0.22255
 H406 H 0.84113 0.07901 -0.13595
 H407 H 0.86915 0.26387 -0.16010
 H408 H 0.91599 0.25359 -0.11351
 H409 H 0.94808 0.19956 -0.06730
 H410 H 0.88624 0.06962 -0.09096
 C411 C 0.82326 0.71755 0.29992
 C412 C 0.84122 0.68782 0.32694
 C413 C 0.83073 0.63737 0.33531
 C414 C 0.80238 0.61778 0.31703
 C415 C 0.78398 0.64813 0.29095
 C416 C 0.79422 0.69823 0.28180
 C417 C 0.84807 0.60764 0.36227
 C418 C 0.87517 0.62822 0.38165
 C419 C 0.88560 0.67888 0.37378
 C420 C 0.86888 0.70813 0.34616
 C421 C 0.91222 0.69952 0.39396
 C422 C 0.92807 0.67035 0.42174
 C423 C 0.91790 0.61982 0.42946
 C424 C 0.89159 0.59897 0.40913
 H425 H 0.83182 0.75569 0.29335
 H426 H 0.79371 0.57952 0.32343
 H427 H 0.76085 0.63254 0.27877
 H428 H 0.83994 0.56891 0.36855
 H429 H 0.87685 0.74697 0.34001
 H430 H 0.92058 0.73830 0.38840
 H431 H 0.94853 0.68704 0.43702
 H432 H 0.88347 0.56013 0.41489
 C433 C 0.33010 0.18007 0.28666
 C434 C 0.34859 0.15488 0.31464
 C435 C 0.33154 0.11692 0.33240
 C436 C 0.29730 0.10255 0.32059
 C437 C 0.27912 0.12781 0.29241
 C438 C 0.29490 0.16788 0.27585
 C439 C 0.34835 0.09555 0.36215
 C440 C 0.38197 0.11166 0.37412
 C441 C 0.40001 0.14738 0.35535
 C442 C 0.38316 0.16881 0.32573
 C443 C 0.43415 0.16217 0.36692
 C444 C 0.44981 0.14297 0.39733
 C445 C 0.43120 0.10948 0.41681
 C446 C 0.39748 0.09354 0.40491
 H447 H 0.34259 0.21070 0.27401
 H448 H 0.28400 0.07310 0.33369
 H449 H 0.25185 0.11806 0.28456
 H450 H 0.33479 0.06760 0.37636
 H451 H 0.39643 0.19739 0.31176
 H452 H 0.44847 0.18913 0.35268
 H453 H 0.47594 0.15544 0.40598
 H454 H 0.38311 0.06741 0.41977
 C455 C 0.33319 0.68892 -0.20783
 C456 C 0.35211 0.66323 -0.18016
 C457 C 0.33815 0.61950 -0.16518
 C458 C 0.30633 0.60098 -0.17886
 C459 C 0.28779 0.62665 -0.20656
 C460 C 0.30082 0.67117 -0.22100
 C461 C 0.35560 0.59591 -0.13635
 C462 C 0.38680 0.61554 -0.12234
 C463 C 0.40183 0.65767 -0.13805
 C464 C 0.38432 0.68134 -0.16689
 C465 C 0.43371 0.67606 -0.12428
 C466 C 0.44990 0.65390 -0.09470
 C467 C 0.43401 0.61374 -0.07834
 C468 C 0.40278 0.59428 -0.09246
 H469 H 0.34346 0.72310 -0.21882
 H470 H 0.29535 0.56742 -0.16776
 H471 H 0.26246 0.61282 -0.21598
 H472 H 0.34448 0.56305 -0.12449
 H473 H 0.39530 0.71441 -0.17863
 H474 H 0.44578 0.70798 -0.13613
 H475 H 0.47414 0.66920 -0.08415
 H476 H 0.39073 0.56282 -0.08005
 C477 C 1.17640 -0.21234 -0.20641
 C478 C 1.15676 -0.18462 -0.17993
 C479 C 1.16775 -0.13616 -0.16792
 C480 C 1.19852 -0.11683 -0.18225
 C481 C 1.21824 -0.14515 -0.20837
 C482 C 1.20709 -0.19266 -0.22092
 C483 C 1.14796 -0.10802 -0.14167
 C484 C 1.11774 -0.12817 -0.12696
 C485 C 1.10706 -0.17704 -0.13857
 C486 C 1.12650 -0.20481 -0.16518
 C487 C 1.07730 -0.19740 -0.12315
 C488 C 1.05843 -0.16974 -0.09632
 C489 C 1.06870 -0.12095 -0.08480
 C490 C 1.09831 -0.10037 -0.10050
 H491 H 1.16817 -0.24978 -0.21541
 H492 H 1.20737 -0.07983 -0.17324
 H493 H 1.24179 -0.12945 -0.21914
 H494 H 1.15628 -0.07069 -0.13252
 H495 H 1.11825 -0.24221 -0.17427
 H496 H 1.06883 -0.23492 -0.13168
 H497 H 1.03578 -0.18635 -0.08467
 H498 H 1.10682 -0.06295 -0.09175
 C499 C 1.17917 0.29720 0.29200
 C500 C 1.16071 0.32393 0.31921
 C501 C 1.17347 0.37029 0.33254
 C502 C 1.20509 0.38827 0.31874
 C503 C 1.22366 0.36081 0.29177
 C504 C 1.21044 0.31572 0.27793
 C505 C 1.15455 0.39759 0.35949
 C506 C 1.12353 0.37844 0.37355
 C507 C 1.11132 0.33141 0.36057
 C508 C 1.12981 0.30473 0.33330
 C509 C 1.08099 0.31159 0.37525
 C510 C 1.06305 0.33783 0.40278
 C511 C 1.07473 0.38480 0.41567
 C512 C 1.10482 0.40517 0.40072
 H513 H 1.16947 0.26143 0.28195
 H514 H 1.21542 0.42350 0.32880
 H515 H 1.24789 0.37531 0.28133
 H516 H 1.16412 0.43339 0.36966
 H517 H 1.12030 0.26884 0.32319
 H518 H 1.07137 0.27553 0.36563
 H519 H 1.03990 0.32161 0.41390
 H520 H 1.11427 0.44118 0.41071
 C521 C 0.67436 -0.18899 0.30607
 C522 C 0.65890 -0.16856 0.33613
 C523 C 0.67434 -0.12736 0.35295
 C524 C 0.70511 -0.10728 0.33907
 C525 C 0.72025 -0.12772 0.30885
 C526 C 0.70490 -0.16854 0.29189
 C527 C 0.65864 -0.10701 0.38317
 C528 C 0.62725 -0.12678 0.39633
 C529 C 0.61193 -0.16788 0.37913
 C530 C 0.62808 -0.18883 0.34946
 C531 C 0.58015 -0.18686 0.39150
 C532 C 0.56288 -0.16448 0.42018
 C533 C 0.57743 -0.12343 0.43760
 C534 C 0.61023 -0.10544 0.42590
 H535 H 0.66287 -0.22174 0.29407
 H536 H 0.71741 -0.07569 0.35154
 H537 H 0.74375 -0.11121 0.29862
 H538 H 0.67051 -0.07551 0.39618
 H539 H 0.61620 -0.22037 0.33643
 H540 H 0.56810 -0.21827 0.37857
 H541 H 0.53772 -0.17905 0.42864
 H542 H 0.62153 -0.07362 0.43907
 C543 C 0.66625 0.33202 -0.20342
 C544 C 0.65202 0.34985 -0.17240
 C545 C 0.67280 0.38009 -0.15163
 C546 C 0.70748 0.39246 -0.16267
 C547 C 0.72196 0.37361 -0.19343
 C548 C 0.70195 0.34223 -0.21432
 C549 C 0.65875 0.39671 -0.12014
 C550 C 0.62425 0.38284 -0.10918
 C551 C 0.60374 0.35239 -0.13028
 C552 C 0.61762 0.33637 -0.16161
 C553 C 0.56947 0.33832 -0.11985
 C554 C 0.55507 0.35478 -0.08901
 C555 C 0.57460 0.38553 -0.06761
 C556 C 0.60960 0.39904 -0.07774
 H557 H 0.65010 0.30699 -0.21783
 H558 H 0.72375 0.41615 -0.14730
 H559 H 0.74865 0.38475 -0.20070
 H560 H 0.67475 0.41989 -0.10414
 H561 H 0.60168 0.31297 -0.17756
 H562 H 0.55349 0.31496 -0.13574
 H563 H 0.52811 0.34381 -0.08208
 H564 H 0.62486 0.42296 -0.06159
 C565 C 1.16948 0.20252 -0.18089
 C566 C 1.15446 0.17132 -0.15726
 C567 C 1.17919 0.13662 -0.13580
 C568 C 1.21864 0.13264 -0.13892
 C569 C 1.23339 0.16343 -0.16264
 C570 C 1.20918 0.19950 -0.18369
 C571 C 1.16408 0.10698 -0.11137
 C572 C 1.12446 0.11183 -0.10808
 C573 C 1.09984 0.14555 -0.13020
 C574 C 1.11495 0.17487 -0.15462
 C575 C 1.06035 0.15040 -0.12716
 C576 C 1.04524 0.12374 -0.10176
 C577 C 1.06927 0.09155 -0.07884
 C578 C 1.10898 0.08468 -0.08257
 H579 H 1.14977 0.22887 -0.19665
 H580 H 1.23812 0.10594 -0.12292
 H581 H 1.26407 0.15955 -0.16442
 H582 H 1.18310 0.08093 -0.09464
 H583 H 1.09591 0.20118 -0.17122
 H584 H 1.04109 0.17572 -0.14403
 H585 H 1.01451 0.12931 -0.09967
 H586 H 1.12772 0.05977 -0.06513
 C587 C 1.16490 0.70807 0.32039
 C588 C 1.14992 0.67869 0.34511
 C589 C 1.17480 0.64587 0.36737
 C590 C 1.21423 0.64267 0.36443
 C591 C 1.22889 0.67185 0.33982
 C592 C 1.20467 0.70510 0.31742
 C593 C 1.15991 0.61713 0.39237
 C594 C 1.12034 0.62106 0.39559
 C595 C 1.09544 0.65352 0.37312
 C596 C 1.11036 0.68192 0.34800
 C597 C 1.05594 0.65761 0.37638
 C598 C 1.04115 0.63081 0.40204
 C599 C 1.06551 0.59920 0.42494
 C600 C 1.10521 0.59381 0.42124
 H601 H 1.14516 0.73301 0.30395
 H602 H 1.23378 0.61770 0.38123
 H603 H 1.25955 0.66854 0.33823
 H604 H 1.17909 0.59223 0.40953
 H605 H 1.09115 0.70697 0.33093
 H606 H 1.03643 0.68210 0.35932
 H607 H 1.01049 0.63532 0.40415
 H608 H 1.12429 0.56944 0.43867
 C609 C 0.68395 0.17629 0.33020
 C610 C 0.66464 0.14801 0.35220
 C611 C 0.67950 0.09323 0.36022
 C612 C 0.71370 0.06788 0.34619
 C613 C 0.73271 0.09632 0.32409
 C614 C 0.71745 0.15035 0.31497
 C615 C 0.66037 0.06519 0.38265
 C616 C 0.62680 0.09159 0.39739
 C617 C 0.61199 0.14643 0.38917
 C618 C 0.63087 0.17413 0.36653
 C619 C 0.57891 0.17320 0.40425
 C620 C 0.56122 0.14652 0.42805
 C621 C 0.57592 0.09237 0.43680
 C622 C 0.60833 0.06464 0.42091
 H623 H 0.67289 0.21881 0.32519
 H624 H 0.72598 0.02627 0.35254
 H625 H 0.75962 0.07595 0.31452
 H626 H 0.67194 0.02331 0.38904
 H627 H 0.61953 0.21623 0.36038
 H628 H 0.56716 0.21514 0.39818
 H629 H 0.53615 0.16857 0.43993
 H630 H 0.61999 0.02303 0.42775
 C631 C 0.67790 0.67815 -0.17193
 C632 C 0.65923 0.65018 -0.14924
 C633 C 0.67363 0.59497 -0.14199
 C634 C 0.70696 0.56909 -0.15692
 C635 C 0.72585 0.59743 -0.17900
 C636 C 0.71076 0.65184 -0.18826
 C637 C 0.65535 0.56709 -0.11897
 C638 C 0.62341 0.59426 -0.10243
 C639 C 0.60909 0.64968 -0.10951
 C640 C 0.62682 0.67711 -0.13315
 C641 C 0.57781 0.67715 -0.09222
 C642 C 0.56158 0.65041 -0.06745
 C643 C 0.57589 0.59557 -0.06010
 C644 C 0.60631 0.56732 -0.07812
 H645 H 0.66715 0.72100 -0.17629
 H646 H 0.71906 0.52727 -0.15084
 H647 H 0.75285 0.57639 -0.18795
 H648 H 0.66658 0.52478 -0.11330
 H649 H 0.61592 0.71964 -0.13850
 H650 H 0.56642 0.71955 -0.09735
 H651 H 0.53792 0.67275 -0.05389
 H652 H 0.61756 0.52507 -0.07241
 C653 C 0.79664 -0.20408 -0.16549
 C654 C 0.82358 -0.17763 -0.14967
 C655 C 0.85622 -0.16854 -0.16657
 C656 C 0.86013 -0.18397 -0.19988
 C657 C 0.83274 -0.20995 -0.21575
 C658 C 0.80124 -0.22237 -0.19839
 C659 C 0.88423 -0.14456 -0.14977
 C660 C 0.87940 -0.12899 -0.11640
 C661 C 0.84563 -0.13638 -0.10030
 C662 C 0.81823 -0.16078 -0.11690
 C663 C 0.83964 -0.11961 -0.06762
 C664 C 0.86684 -0.09601 -0.05065
 C665 C 0.90103 -0.08935 -0.06567
 C666 C 0.90741 -0.10612 -0.09868
 H667 H 0.77161 -0.20947 -0.15191
 H668 H 0.88470 -0.17678 -0.21354
 H669 H 0.83780 -0.22273 -0.24099
 H670 H 0.90965 -0.13826 -0.16252
 H671 H 0.79280 -0.16714 -0.10414
 H672 H 0.81384 -0.12482 -0.05508
 H673 H 0.86135 -0.08384 -0.02527
 H674 H 0.93359 -0.10072 -0.11051
 C675 C 0.80707 0.31423 0.32224
 C676 C 0.83631 0.33425 0.33941
 C677 C 0.87469 0.30862 0.33574
 C678 C 0.88321 0.26520 0.31335
 C679 C 0.85382 0.24555 0.29627
 C680 C 0.81565 0.26911 0.30130
 C681 C 0.90351 0.32529 0.35550
 C682 C 0.89424 0.36675 0.37914
 C683 C 0.85598 0.39388 0.38140
 C684 C 0.82744 0.37783 0.36139
 C685 C 0.84638 0.43523 0.40469
 C686 C 0.87376 0.44755 0.42697
 C687 C 0.91155 0.41936 0.42632
 C688 C 0.92205 0.38009 0.40155
 H689 H 0.77750 0.33212 0.32622
 H690 H 0.91240 0.24514 0.31000
 H691 H 0.86074 0.21014 0.28051
 H692 H 0.93279 0.30464 0.35337
 H693 H 0.79805 0.39782 0.36392
 H694 H 0.81732 0.45681 0.40647
 H695 H 0.86496 0.47851 0.44543
 H696 H 0.95111 0.35823 0.40075
 C697 C 0.32691 -0.19453 0.31527
 C698 C 0.34906 -0.16352 0.33380
 C699 C 0.34060 -0.10596 0.33259
 C700 C 0.31141 -0.08065 0.31118
 C701 C 0.28916 -0.11206 0.29300
 C702 C 0.29604 -0.16902 0.29582
 C703 C 0.36013 -0.07499 0.35397
 C704 C 0.38735 -0.10108 0.37692
 C705 C 0.39680 -0.15866 0.37680
 C706 C 0.37797 -0.18936 0.35503
 C707 C 0.42381 -0.18498 0.39949
 C708 C 0.43979 -0.15503 0.42342
 C709 C 0.42939 -0.09804 0.42510
 C710 C 0.40404 -0.07101 0.40098
 H711 H 0.33203 -0.23859 0.31760
 H712 H 0.30463 -0.03659 0.30971
 H713 H 0.26519 -0.09184 0.27833
 H714 H 0.35297 -0.03088 0.35371
 H715 H 0.38458 -0.23354 0.35571
 H716 H 0.43164 -0.22901 0.39946
 H717 H 0.45964 -0.17682 0.44129
 H718 H 0.39591 -0.02711 0.40186
 C719 C 0.32493 0.29769 -0.17619
 C720 C 0.34894 0.32747 -0.15927
 C721 C 0.34992 0.38186 -0.16827
 C722 C 0.32938 0.40331 -0.19667
 C723 C 0.30630 0.37214 -0.21444
 C724 C 0.30214 0.32023 -0.20299
 C725 C 0.37056 0.41361 -0.14817
 C726 C 0.39064 0.39058 -0.11979
 C727 C 0.39175 0.33454 -0.11307
 C728 C 0.37086 0.30368 -0.13263
 C729 C 0.41274 0.31008 -0.08614
 C730 C 0.43089 0.34109 -0.06464
 C731 C 0.42812 0.39765 -0.06912
 C732 C 0.40879 0.42220 -0.09745
 H733 H 0.32362 0.25655 -0.16810
 H734 H 0.33027 0.44458 -0.20456
 H735 H 0.28938 0.39045 -0.23523
 H736 H 0.37022 0.45611 -0.15411
 H737 H 0.37073 0.26133 -0.12645
 H738 H 0.41434 0.26699 -0.08115
 H739 H 0.44604 0.32062 -0.04358
 H740 H 0.40699 0.46553 -0.10155
 C741 C 1.16645 -0.19823 0.19771
 C742 C 1.15075 -0.17779 0.16733
 C743 C 1.16652 -0.13721 0.15082
 C744 C 1.19721 -0.11689 0.16552
 C745 C 1.21254 -0.13725 0.19595
 C746 C 1.19759 -0.17841 0.21230
 C747 C 1.15138 -0.11782 0.11995
 C748 C 1.12014 -0.13777 0.10577
 C749 C 1.10388 -0.17738 0.12287
 C750 C 1.11959 -0.19763 0.15322
 C751 C 1.07164 -0.19547 0.10964
 C752 C 1.05490 -0.17351 0.08022
 C753 C 1.07077 -0.13439 0.06282
 C754 C 1.10410 -0.11774 0.07527
 H755 H 1.15500 -0.23086 0.20937
 H756 H 1.20948 -0.08540 0.15341
 H757 H 1.23618 -0.12072 0.20666
 H758 H 1.16356 -0.08682 0.10719
 H759 H 1.10722 -0.22834 0.16609
 H760 H 1.05874 -0.22559 0.12251
 H761 H 1.02923 -0.18686 0.07112
 H762 H 1.11635 -0.08726 0.06211
 C763 C 1.17257 0.30392 0.70021
 C764 C 1.15697 0.32503 0.67000
 C765 C 1.17031 0.36954 0.65545
 C766 C 1.19902 0.39232 0.67172
 C767 C 1.21459 0.37076 0.70185
 C768 C 1.20149 0.32647 0.71642
 C769 C 1.15487 0.39016 0.62490
 C770 C 1.12606 0.36694 0.60895
 C771 C 1.11271 0.32262 0.62388
 C772 C 1.12841 0.30178 0.65407
 C773 C 1.08333 0.30024 0.60866
 C774 C 1.06654 0.32226 0.57931
 C775 C 1.07936 0.36621 0.56411
 C776 C 1.10969 0.38788 0.57874
 H777 H 1.16297 0.26862 0.71050
 H778 H 1.20966 0.42648 0.66102
 H779 H 1.23699 0.38862 0.71373
 H780 H 1.16504 0.42435 0.61370
 H781 H 1.11814 0.26770 0.66534
 H782 H 1.07276 0.26640 0.61983
 H783 H 1.04315 0.30513 0.56854
 H784 H 1.11937 0.42232 0.56741
 C785 C 0.67246 -0.22168 0.70837
 C786 C 0.65459 -0.18976 0.68226
 C787 C 0.67121 -0.14659 0.66987
 C788 C 0.70575 -0.13660 0.68365
 C789 C 0.72396 -0.16952 0.70914
 C790 C 0.70763 -0.21259 0.72208
 C791 C 0.65335 -0.11480 0.64358
 C792 C 0.61969 -0.12687 0.62893
 C793 C 0.60355 -0.17087 0.64102
 C794 C 0.62078 -0.20147 0.66787
 C795 C 0.57077 -0.18426 0.62567
 C796 C 0.55445 -0.15503 0.59816
 C797 C 0.57001 -0.11106 0.58603
 C798 C 0.60237 -0.09660 0.60184
 H799 H 0.65964 -0.25563 0.71646
 H800 H 0.71886 -0.10348 0.67455
 H801 H 0.75015 -0.15951 0.71934
 H802 H 0.66605 -0.08149 0.63410
 H803 H 0.60825 -0.23508 0.67716
 H804 H 0.55813 -0.21794 0.63459
 H805 H 0.52950 -0.16665 0.58639
 H806 H 0.61477 -0.06302 0.59237
 C807 C 0.68026 0.27202 0.20548
 C808 C 0.66125 0.30425 0.18003
 C809 C 0.67243 0.35438 0.17212
 C810 C 0.70287 0.37092 0.18966
 C811 C 0.72198 0.33812 0.21482
 C812 C 0.71057 0.28878 0.22316
 C813 C 0.65327 0.38671 0.14663
 C814 C 0.62360 0.36895 0.12861
 C815 C 0.61285 0.31842 0.13638
 C816 C 0.63150 0.28668 0.16220
 C817 C 0.58388 0.30005 0.11791
 C818 C 0.56609 0.33093 0.09158
 C819 C 0.57644 0.38116 0.08360
 C820 C 0.60493 0.40034 0.10253
 H821 H 0.67191 0.23323 0.21109
 H822 H 0.71198 0.40908 0.18384
 H823 H 0.74533 0.35163 0.22808
 H824 H 0.66175 0.42526 0.14055
 H825 H 0.62316 0.24799 0.16816
 H826 H 0.57532 0.26144 0.12357
 H827 H 0.54413 0.31554 0.07741
 H828 H 0.61328 0.43893 0.09639
 C829 C 0.83484 0.16897 0.20588
 C830 C 0.85232 0.15007 0.17637
 C831 C 0.83510 0.11496 0.15569
 C832 C 0.80148 0.09787 0.16541
 C833 C 0.78447 0.11653 0.19498
 C834 C 0.80078 0.15267 0.21516
 C835 C 0.85138 0.09820 0.12541
 C836 C 0.88485 0.11566 0.11569
 C837 C 0.90301 0.14892 0.13687
 C838 C 0.88645 0.16627 0.16704
 C839 C 0.93736 0.16436 0.12739
 C840 C 0.95334 0.14734 0.09703
 C841 C 0.93463 0.11593 0.07552
 C842 C 0.90043 0.10025 0.08500
 H843 H 0.84755 0.19667 0.22148
 H844 H 0.78804 0.07081 0.14991
 H845 H 0.75784 0.10417 0.20151
 H846 H 0.83789 0.07191 0.10932
 H847 H 0.89994 0.19255 0.18311
 H848 H 0.95186 0.18940 0.14343
 H849 H 0.97999 0.15934 0.09013
 H850 H 0.88616 0.07530 0.06867
 C851 C 0.82682 0.67957 0.70472
 C852 C 0.84667 0.65594 0.67722
 C853 C 0.83598 0.60933 0.66223
 C854 C 0.80664 0.58607 0.67546
 C855 C 0.78748 0.60912 0.70304
 C856 C 0.79696 0.65650 0.71806
 C857 C 0.85447 0.58685 0.63403
 C858 C 0.88402 0.60984 0.62083
 C859 C 0.89607 0.65503 0.63644
 C860 C 0.87708 0.67812 0.66448
 C861 C 0.92663 0.67652 0.62345
 C862 C 0.94460 0.65385 0.59497
 C863 C 0.93181 0.61003 0.57905
 C864 C 0.90154 0.58832 0.59204
 H865 H 0.83578 0.71465 0.71616
 H866 H 0.79811 0.55035 0.66421
 H867 H 0.76382 0.59082 0.71113
 H868 H 0.84574 0.55162 0.62226
 H869 H 0.88579 0.71336 0.67620
 H870 H 0.93640 0.71097 0.63511
 H871 H 0.96770 0.67148 0.58488
 H872 H 0.89166 0.55451 0.57969
 C873 C 0.31781 0.21449 0.69841
 C874 C 0.33398 0.18809 0.66992
 C875 C 0.32143 0.14029 0.65846
 C876 C 0.29250 0.12047 0.67489
 C877 C 0.27605 0.14746 0.70254
 C878 C 0.28881 0.19421 0.71508
 C879 C 0.33767 0.11307 0.63057
 C880 C 0.36592 0.13342 0.61342
 C881 C 0.37808 0.18186 0.62412
 C882 C 0.36227 0.20870 0.65255
 C883 C 0.40580 0.20244 0.60607
 C884 C 0.42146 0.17491 0.57797
 C885 C 0.41009 0.12600 0.56785
 C886 C 0.38213 0.10581 0.58563
 H887 H 0.32805 0.25033 0.70759
 H888 H 0.28219 0.08440 0.66608
 H889 H 0.25269 0.13183 0.71359
 H890 H 0.32817 0.07614 0.62209
 H891 H 0.37177 0.24561 0.66099
 H892 H 0.41542 0.23962 0.61373
 H893 H 0.44303 0.19123 0.56455
 H894 H 0.37282 0.06858 0.57777
 C895 C 0.31835 0.71229 0.20159
 C896 C 0.33607 0.68492 0.17397
 C897 C 0.32615 0.63461 0.16399
 C898 C 0.29877 0.61271 0.18137
 C899 C 0.28073 0.64063 0.20815
 C900 C 0.29023 0.69066 0.21879
 C901 C 0.34326 0.60717 0.13646
 C902 C 0.36983 0.62964 0.11829
 C903 C 0.37979 0.68005 0.12784
 C904 C 0.36305 0.70727 0.15585
 C905 C 0.40615 0.70227 0.10899
 C906 C 0.42244 0.67462 0.08108
 C907 C 0.41282 0.62419 0.07174
 C908 C 0.38641 0.60228 0.09053
 H909 H 0.32648 0.75034 0.20946
 H910 H 0.29067 0.57442 0.17381
 H911 H 0.25846 0.62332 0.21979
 H912 H 0.33557 0.56855 0.12895
 H913 H 0.37064 0.74596 0.16327
 H914 H 0.41416 0.74093 0.11582
 H915 H 0.44294 0.69226 0.06709
 H916 H 0.37843 0.56398 0.08342
   
