data_POSCAR
  _audit_creation_date              2014-09-24
  _audit_creation_method            'ToBaCCo'
  _symmetry_space_group_name_H-M    'P1'
  _symmetry_Int_Tables_number       1
  _symmetry_cell_setting            triclinic
  loop_
  _symmetry_equiv_pos_as_xyz
 x,y,z
_cell_length_a 37.3713
_cell_length_b 36.8936
_cell_length_c 36.3793
_cell_angle_alpha 90.027000
_cell_angle_beta 89.966200
_cell_angle_gamma 90.066800
loop_
  _atom_site_label
  _atom_site_type_symbol
  _atom_site_fract_x
  _atom_site_fract_y
  _atom_site_fract_z
N1 N 0.18134 1.15747 0.17560
 N2 N 0.84048 0.82057 0.17617
 N3 N 0.75793 1.24108 -0.24033
 N4 N 0.17938 0.82311 -0.15434
 C5 C 0.56458 1.05520 -0.01555
 H6 H 0.56721 1.05506 0.01406
 C7 C 0.58602 1.07815 -0.03672
 H8 H 0.60518 1.09588 -0.02341
 C9 C 0.53702 1.03164 -0.06923
 H10 H 0.51843 1.01298 -0.08184
 C11 C 0.55797 1.05416 -0.09142
 H12 H 0.55518 1.05303 -0.12104
 N13 N 0.54053 1.03273 -0.03200
 C14 C 0.46242 1.00778 0.05323
 H15 H 0.46431 0.97852 0.05323
 C16 C 0.43655 1.02494 0.07470
 H17 H 0.41854 1.00888 0.09145
 C18 C 0.48209 1.06435 0.02965
 H19 H 0.49909 1.07948 0.01116
 C20 C 0.45648 1.08261 0.05068
 H21 H 0.45405 1.11179 0.04857
 Zn22 Zn 0.51405 1.00111 -0.00136
 N23 N 0.48438 1.02754 0.03111
 C24 C 0.54919 0.97375 0.06224
 N25 N 0.54735 0.97258 0.02487
 C26 C 0.57101 0.95274 0.00480
 C27 C 0.59784 0.93291 0.02230
 C28 C 0.57566 0.95431 0.08083
 C29 C 0.45647 0.98926 -0.04795
 C30 C 0.43000 0.96968 -0.06630
 C31 C 0.45842 0.91417 -0.04659
 C32 C 0.48450 0.93484 -0.02861
 N33 N 0.48294 0.97171 -0.02950
 H34 H 0.53071 0.99037 0.07763
 H35 H 0.56930 0.95282 -0.02488
 H36 H 0.61685 0.91755 0.00608
 H37 H 0.57732 0.95577 0.11052
 H38 H 0.45547 1.01856 -0.04754
 H39 H 0.40861 0.98393 -0.08023
 H40 H 0.45925 0.88487 -0.04504
 H41 H 0.50518 0.92142 -0.01299
 C42 C 0.43325 1.06264 0.07306
 C43 C 0.58270 1.07757 -0.07500
 C44 C 0.43076 0.93182 -0.06530
 C45 C 0.60029 0.93386 0.06064
 C46 C -0.00795 0.53801 1.05179
 H47 H 0.02095 0.53618 1.05179
 C48 C -0.02498 0.56414 1.07329
 H49 H -0.00918 0.58241 1.09007
 C50 C -0.06373 0.51794 1.02819
 H51 H -0.07863 0.50070 1.00970
 C52 C -0.08184 0.54379 1.04926
 H53 H -0.11066 0.54616 1.04716
 N54 N -0.02739 0.51572 1.02966
 C55 C 0.04630 0.42785 1.00326
 H56 H 0.04605 0.42950 0.97357
 C57 C 0.06605 0.40077 1.02072
 H58 H 0.08116 0.38151 1.00447
 C59 C 0.02590 0.45013 1.06075
 H60 H 0.00960 0.46890 1.07619
 C61 C 0.04527 0.42342 1.07931
 H62 H 0.04406 0.42187 1.10902
 Zn63 Zn -0.00130 0.48567 0.99718
 N64 N 0.02683 0.45187 1.02338
 C65 C 0.06422 0.51536 0.97003
 N66 N 0.02783 0.51713 0.96907
 C67 C 0.01068 0.54406 0.95064
 C68 C 0.03018 0.57081 0.93237
 C69 C 0.08479 0.54169 0.95214
 C70 C -0.05470 0.43452 0.98302
 C71 C -0.07756 0.41298 0.96191
 C72 C -0.05417 0.44161 0.90718
 C73 C -0.03173 0.46265 0.92932
 N74 N -0.03258 0.45892 0.96654
 H75 H 0.07734 0.49432 0.98564
 H76 H -0.01825 0.54523 0.95099
 H77 H 0.01626 0.59258 0.91845
 H78 H 0.11371 0.54069 0.95374
 H79 H -0.05439 0.43172 1.01262
 H80 H -0.09505 0.39358 0.97525
 H81 H -0.05327 0.44461 0.87757
 H82 H -0.01337 0.48153 0.91668
 C83 C 0.06540 0.39845 1.05907
 C84 C -0.06221 0.56736 1.07166
 C85 C -0.07727 0.41656 0.92365
 C86 C 0.06755 0.56983 0.93344
 C87 C 1.04441 -0.00328 0.57314
 H88 H 1.04438 0.02600 0.57151
 C89 C 1.06391 -0.02066 0.60069
 H90 H 1.07906 -0.00476 0.62033
 C91 C 1.02375 -0.05981 0.55034
 H92 H 1.00745 -0.07491 0.53119
 C93 C 1.04287 -0.07827 0.57750
 H94 H 1.04147 -0.10756 0.57900
 N95 N 1.02494 -0.02296 0.54863
 C96 C 1.00972 0.04879 0.45496
 H97 H 0.98081 0.04840 0.45348
 C98 C 1.02945 0.06694 0.42811
 H99 H 1.01572 0.08074 0.40595
 C100 C 1.06301 0.02971 0.48459
 H101 H 1.07595 0.01432 0.50604
 C102 C 1.08380 0.04751 0.45818
 H103 H 1.11272 0.04604 0.45953
 Zn104 Zn 0.99717 0.00301 0.51413
 N105 N 1.02664 0.03060 0.48242
 C106 C 0.96711 0.07013 0.53715
 N107 N 0.96590 0.03344 0.54097
 C108 C 0.94346 0.01742 0.56558
 C109 C 0.92065 0.03848 0.58722
 C110 C 0.94474 0.09219 0.55828
 C111 C 0.99068 -0.05085 0.46107
 C112 C 0.97375 -0.07225 0.43464
 C113 C 0.91680 -0.04852 0.45493
 C114 C 0.93481 -0.02756 0.48108
 N115 N 0.97114 -0.02896 0.48349
 H116 H 0.98572 0.08241 0.51814
 H117 H 0.94349 -0.01176 0.56847
 H118 H 0.90292 0.02552 0.60679
 H119 H 0.94593 0.12137 0.55521
 H120 H 1.01956 -0.05083 0.46307
 H121 H 0.98961 -0.08890 0.41631
 H122 H 0.88798 -0.04656 0.45244
 H123 H 0.91985 -0.00927 0.49844
 C124 C 1.06681 0.06602 0.42953
 C125 C 1.06301 -0.05848 0.60296
 C126 C 0.93653 -0.07076 0.43126
 C127 C 0.92133 0.07620 0.58354
 C128 C 0.14521 0.25344 1.13841
 N129 N 0.11699 0.26978 1.15498
 N130 N 0.10255 0.29954 1.14051
 C131 C 0.11589 0.31385 1.10901
 N132 N 0.14418 0.29757 1.09249
 N133 N 0.15861 0.26781 1.10697
 C134 C 0.15905 0.21996 1.15250
 C135 C 0.16979 0.19115 1.16356
 C136 C 0.09887 0.34444 1.09212
 C137 C 0.08393 0.36944 1.07735
 C138 C -0.13251 0.71890 1.14722
 N139 N -0.14908 0.70249 1.11852
 N140 N -0.13712 0.67090 1.10568
 C141 C -0.10824 0.65476 1.12116
 N142 N -0.09176 0.67110 1.14996
 N143 N -0.10372 0.70268 1.16280
 C144 C -0.14324 0.75447 1.15872
 C145 C -0.15122 0.78501 1.16727
 C146 C -0.09324 0.62270 1.10503
 C147 C -0.07962 0.59683 1.09040
 C148 C -0.18274 0.30750 0.81954
 N149 N -0.15400 0.32438 0.80446
 N150 N -0.13358 0.34623 0.82477
 C151 C -0.14128 0.35185 0.86076
 N152 N -0.17003 0.33499 0.87583
 N153 N -0.19045 0.31314 0.85552
 C154 C -0.20441 0.28358 0.79780
 C155 C -0.22248 0.26325 0.77955
 C156 C -0.11896 0.37491 0.88277
 C157 C -0.10005 0.39404 0.90135
 C158 C 0.14880 0.72128 0.87008
 N159 N 0.12312 0.70469 0.84978
 N160 N 0.10936 0.67309 0.86056
 C161 C 0.12087 0.65711 0.89196
 N162 N 0.14666 0.67362 0.91217
 N163 N 0.16042 0.70521 0.90139
 C164 C 0.16104 0.75689 0.86041
 C165 C 0.17006 0.78748 0.85319
 C166 C 0.10352 0.62507 0.90549
 C167 C 0.08775 0.59924 0.91775
 C168 C 1.14945 0.13120 0.27788
 N169 N 1.12371 0.15094 0.29489
 N170 N 1.10963 0.13967 0.32656
 C171 C 1.12088 0.10832 0.34219
 N172 N 1.14673 0.08866 0.32525
 N173 N 1.16080 0.09993 0.29358
 C174 C 1.16210 0.14151 0.24213
 C175 C 1.17151 0.14929 0.21141
 C176 C 1.10325 0.09439 0.37427
 C177 C 1.08726 0.08188 0.40011
 C178 C 1.14245 -0.13853 0.74931
 N179 N 1.15614 -0.10755 0.73495
 N180 N 1.14168 -0.09281 0.70501
 C181 C 1.11308 -0.10859 0.68853
 N182 N 1.09945 -0.13962 0.70283
 N183 N 1.11391 -0.15436 0.73277
 C184 C 1.15646 -0.15301 0.78294
 C185 C 1.16744 -0.16443 0.81186
 C186 C 1.09617 -0.09154 0.65766
 C187 C 1.08136 -0.07671 0.63238
 C188 C 0.86698 -0.14830 0.27867
 N189 N 0.89537 -0.16357 0.29591
 N190 N 0.90715 -0.15018 0.32771
 C191 C 0.89089 -0.12111 0.34325
 N192 N 0.86240 -0.10594 0.32609
 N193 N 0.85062 -0.11933 0.29429
 C194 C 0.85645 -0.16054 0.24283
 C195 C 0.84863 -0.16975 0.21204
 C196 C 0.90571 -0.10455 0.37553
 C197 C 0.91921 -0.08966 0.40157
 C198 C 0.81667 0.18075 0.69301
 N199 N 0.84456 0.19554 0.67441
 N200 N 0.86479 0.17508 0.65250
 C201 C 0.85773 0.13922 0.64853
 N202 N 0.82984 0.12444 0.66712
 N203 N 0.80961 0.14490 0.68902
 C204 C 0.79522 0.20267 0.71701
 C205 C 0.77733 0.22106 0.73741
 C206 C 0.87986 0.11708 0.62539
 C207 C 0.89865 0.09846 0.60618
 C208 C 0.28252 1.13208 0.14780
 N209 N 0.29856 1.14900 0.11909
 N210 N 0.33002 1.13739 0.10647
 C211 C 0.34639 1.10851 0.12220
 N212 N 0.33042 1.09169 0.15102
 N213 N 0.29897 1.10331 0.16364
 C214 C 0.24710 1.14228 0.15897
 C215 C 0.21672 1.14976 0.16716
 C216 C 0.37829 1.09370 0.10622
 C217 C 0.40400 1.08014 0.09168
 C218 C 0.69171 1.18229 -0.17986
 N219 N 0.67320 1.15446 -0.19512
 N220 N 0.65137 1.13424 -0.17462
 C221 C 0.64739 1.14126 -0.13825
 N222 N 0.66588 1.16910 -0.12299
 N223 N 0.68771 1.18932 -0.14349
 C224 C 0.71558 1.20375 -0.20183
 C225 C 0.73585 1.22165 -0.22026
 C226 C 0.62433 1.11911 -0.11606
 C227 C 0.60521 1.10030 -0.09737
 C228 C 0.28044 0.85180 -0.12943
 N229 N 0.29566 0.84009 -0.09776
 N230 N 0.32706 0.85341 -0.08681
 C231 C 0.34420 0.87885 -0.10720
 N232 N 0.32905 0.89043 -0.13895
 N233 N 0.29766 0.87711 -0.14991
 C234 C 0.24507 0.84018 -0.13930
 C235 C 0.21472 0.83174 -0.14666
 C236 C 0.37601 0.89593 -0.09349
 C237 C 0.40164 0.91160 -0.08110
 C238 C 0.74480 0.85541 0.13980
 N239 N 0.72854 0.88408 0.15608
 N240 N 0.69886 0.89815 0.14170
 C241 C 0.68455 0.88400 0.11058
 N242 N 0.70074 0.85525 0.09436
 N243 N 0.73042 0.84118 0.10874
 C244 C 0.77819 0.84203 0.15368
 C245 C 0.80692 0.83168 0.16449
 C246 C 0.65406 0.90071 0.09371
 C247 C 0.62916 0.91546 0.07893
   
