data_POSCAR
  _audit_creation_date              2014-09-24
  _audit_creation_method            'ToBaCCo'
  _symmetry_space_group_name_H-M    'P1'
  _symmetry_Int_Tables_number       1
  _symmetry_cell_setting            triclinic
  loop_
  _symmetry_equiv_pos_as_xyz
 x,y,z
_cell_length_a 44.9068
_cell_length_b 41.1821
_cell_length_c 7.2396
_cell_angle_alpha 89.702200
_cell_angle_beta 93.539700
_cell_angle_gamma 89.657900
loop_
  _atom_site_label
  _atom_site_type_symbol
  _atom_site_fract_x
  _atom_site_fract_y
  _atom_site_fract_z
C1 C 0.18026 0.21763 0.26547
 C2 C 0.16547 0.24712 0.29296
 C3 C 0.18055 0.27674 0.29163
 C4 C 0.21178 0.27712 0.27528
 C5 C 0.22741 0.24745 0.25756
 C6 C 0.21167 0.21763 0.25175
 C7 C 0.22795 0.18848 0.24253
 C8 C 0.25868 0.18862 0.23245
 C9 C 0.27479 0.21783 0.23935
 C10 C 0.25892 0.24759 0.24655
 C11 C 0.22783 0.30639 0.27945
 C12 C 0.25855 0.30657 0.26287
 C13 C 0.27453 0.27744 0.24578
 C14 C 0.30580 0.27729 0.23197
 C15 C 0.32108 0.24776 0.22044
 C16 C 0.30630 0.21801 0.23278
 H17 H 0.21723 0.16506 0.24624
 H18 H 0.26962 0.16540 0.21724
 H19 H 0.21682 0.32949 0.29779
 H20 H 0.26974 0.32978 0.26616
 H21 H 0.14137 0.24736 0.29847
 H22 H 0.34521 0.24806 0.21732
 C23 C 0.69474 0.22950 0.30231
 C24 C 0.67926 0.25922 0.29770
 C25 C 0.69384 0.28894 0.28252
 C26 C 0.72509 0.28931 0.26743
 C27 C 0.74111 0.25948 0.26269
 C28 C 0.72590 0.22949 0.27804
 C29 C 0.74185 0.20040 0.25419
 C30 C 0.77221 0.20054 0.22753
 C31 C 0.78799 0.22979 0.22173
 C32 C 0.77231 0.25961 0.23902
 C33 C 0.74079 0.31862 0.25739
 C34 C 0.77140 0.31874 0.23613
 C35 C 0.78764 0.28955 0.22691
 C36 C 0.81864 0.28937 0.20107
 C37 C 0.83353 0.25976 0.18157
 C38 C 0.81875 0.23012 0.18998
 H39 H 0.73088 0.17709 0.25033
 H40 H 0.78309 0.17736 0.20949
 H41 H 0.72947 0.34182 0.26366
 H42 H 0.78211 0.34202 0.22281
 H43 H 0.65546 0.25952 0.31613
 H44 H 0.85718 0.25978 0.15859
 C45 C 0.68704 0.71077 0.55863
 C46 C 0.67067 0.73911 0.51972
 C47 C 0.68421 0.76954 0.52745
 C48 C 0.71492 0.77207 0.58096
 C49 C 0.73191 0.74345 0.61922
 C50 C 0.71797 0.71262 0.60565
 C51 C 0.73518 0.68450 0.64144
 C52 C 0.76549 0.68657 0.69141
 C53 C 0.77967 0.71687 0.70928
 C54 C 0.76283 0.74565 0.67161
 C55 C 0.72904 0.80237 0.59679
 C56 C 0.75912 0.80462 0.65363
 C57 C 0.77669 0.77659 0.68877
 C58 C 0.80720 0.77851 0.75245
 C59 C 0.82294 0.74971 0.79675
 C60 C 0.81003 0.71920 0.77043
 H61 H 0.72531 0.66060 0.63233
 H62 H 0.77752 0.66406 0.71878
 H63 H 0.71689 0.82477 0.56772
 H64 H 0.76830 0.82869 0.67113
 H65 H 0.64695 0.73745 0.48200
 H66 H 0.84640 0.75091 0.84260
 C67 C 0.19174 0.72784 0.79997
 C68 C 0.17589 0.75716 0.80689
 C69 C 0.18997 0.78743 0.80113
 C70 C 0.22133 0.78845 0.78305
 C71 C 0.23783 0.75891 0.77443
 C72 C 0.22305 0.72856 0.78175
 C73 C 0.23974 0.69984 0.76097
 C74 C 0.27034 0.70069 0.74186
 C75 C 0.28569 0.73026 0.74421
 C76 C 0.26933 0.75970 0.75973
 C77 C 0.23694 0.81800 0.78332
 C78 C 0.26757 0.81874 0.76464
 C79 C 0.28428 0.78994 0.75458
 C80 C 0.31543 0.79053 0.73398
 C81 C 0.33102 0.76131 0.71719
 C82 C 0.31679 0.73129 0.72292
 H83 H 0.22927 0.67627 0.75550
 H84 H 0.28177 0.67787 0.72189
 H85 H 0.22579 0.84102 0.79978
 H86 H 0.27802 0.84226 0.75831
 H87 H 0.15200 0.75639 0.82249
 H88 H 0.35470 0.76193 0.69478
 O89 O 0.96665 -0.03401 0.08796
 O90 O 1.02458 0.02664 0.21601
 O91 O 1.02534 -0.03313 0.09832
 O92 O 0.96650 0.02674 0.18562
 O93 O 0.96656 0.01311 0.48044
 O94 O 1.02608 -0.04580 0.39466
 O95 O 1.02454 0.01412 0.51255
 O96 O 0.96847 -0.04704 0.38393
 Cu97 Cu 0.99578 -0.00154 0.11879
 Cu98 Cu 0.99659 -0.01830 0.47030
 C99 C 0.95772 -0.05124 0.22022
 C100 C 1.03408 0.03123 0.38256
 C101 C 1.03560 -0.05017 0.23521
 C102 C 0.95640 0.03035 0.34403
 O103 O 0.46390 0.46789 0.54888
 O104 O 0.52373 0.52802 0.62805
 O105 O 0.52198 0.46783 0.53029
 O106 O 0.46568 0.52889 0.65633
 O107 O 0.46952 0.51576 0.95198
 O108 O 0.52627 0.45655 0.82826
 O109 O 0.52728 0.51708 0.92734
 O110 O 0.46895 0.45558 0.84602
 Cu111 Cu 0.49294 0.50012 0.56308
 Cu112 Cu 0.49865 0.48453 0.91612
 C113 C 0.45659 0.45088 0.68597
 C114 C 0.53576 0.53283 0.78865
 C115 C 0.53391 0.45144 0.66531
 C116 C 0.45788 0.53301 0.82026
 O117 O 0.02986 0.52773 -0.47806
 O118 O -0.01942 0.46061 -0.36889
 O119 O -0.02750 0.51975 -0.48460
 O120 O 0.03836 0.46845 -0.35671
 O121 O 0.03664 0.48004 -0.06020
 O122 O -0.02546 0.53476 -0.19246
 O123 O -0.02141 0.47528 -0.07764
 O124 O 0.03237 0.53957 -0.18047
 Cu125 Cu 0.00550 0.49204 -0.45000
 Cu126 Cu 0.00557 0.50941 -0.09960
 C127 C 0.03977 0.54516 -0.34395
 C128 C -0.02948 0.45656 -0.21077
 C129 C -0.03754 0.53657 -0.35498
 C130 C 0.04845 0.46498 -0.18998
 O131 O 0.47168 1.03893 0.38902
 O132 O 0.53151 0.98452 0.57536
 O133 O 0.52886 1.04443 0.45363
 O134 O 0.47367 0.97903 0.50379
 O135 O 0.48033 0.96469 0.21630
 O136 O 0.53414 1.02985 0.16401
 O137 O 0.53768 0.96992 0.28824
 O138 O 0.47795 1.02432 0.10125
 Cu139 Cu 0.50079 1.01335 0.50811
 Cu140 Cu 0.50853 0.99507 0.16576
 C141 C 0.46479 1.04144 0.21693
 C142 C 0.54478 0.96744 0.46019
 C143 C 0.53998 1.04886 0.29850
 C144 C 0.46742 0.96077 0.36556
 C145 C 1.14315 0.18026 0.37596
 C146 C 1.12627 0.15183 0.35439
 C147 C 1.12748 0.13348 0.19033
 C148 C 1.14639 0.14323 0.05373
 C149 C 1.16430 0.17061 0.08078
 C150 C 1.16295 0.18936 0.24218
 C151 C 1.10996 0.10559 0.16625
 C152 C 1.09197 0.09526 0.30677
 C153 C 1.09172 0.11281 0.47403
 C154 C 1.10859 0.14123 0.49589
 C155 C 1.07429 0.10180 0.61590
 C156 C 1.05651 0.07422 0.59005
 C157 C 1.05572 0.05747 0.42152
 C158 C 1.07394 0.06782 0.28185
 H159 H 1.14184 0.19465 0.50019
 H160 H 1.14749 0.12960 -0.07356
 H161 H 1.17864 0.17773 -0.02736
 H162 H 1.11051 0.09181 0.03909
 H163 H 1.10812 0.15495 0.62343
 H164 H 1.07395 0.11490 0.74514
 H165 H 1.04240 0.06680 0.69831
 H166 H 1.07369 0.05479 0.15207
 C167 C 0.65513 0.67072 0.70963
 C168 C 0.63696 0.64315 0.70266
 C169 C 0.63418 0.62462 0.53827
 C170 C 0.65039 0.63344 0.38602
 C171 C 0.66845 0.66099 0.39487
 C172 C 0.67057 0.67988 0.55540
 C173 C 0.61472 0.59810 0.52715
 C174 C 0.59785 0.59007 0.67770
 C175 C 0.60140 0.60791 0.84411
 C176 C 0.62095 0.63434 0.85558
 C177 C 0.58476 0.59942 0.99488
 C178 C 0.56407 0.57420 0.97875
 C179 C 0.55953 0.55729 0.81179
 C180 C 0.57688 0.56499 0.66268
 H181 H 0.65673 0.68559 0.83301
 H182 H 0.64872 0.61939 0.25936
 H183 H 0.68032 0.66802 0.27543
 H184 H 0.61214 0.58431 0.39921
 H185 H 0.62319 0.64838 0.98245
 H186 H 0.58728 0.61265 1.12415
 H187 H 0.55094 0.56856 1.09533
 H188 H 0.57374 0.55170 0.53396
 C189 C -0.14892 0.32451 0.02007
 C190 C -0.12920 0.35047 0.00596
 C191 C -0.12420 0.37187 0.15686
 C192 C -0.13958 0.36712 0.31798
 C193 C -0.15891 0.34079 0.33173
 C194 C -0.16358 0.31929 0.18303
 C195 C -0.10352 0.39718 0.14529
 C196 C -0.08764 0.40110 -0.01457
 C197 C -0.09306 0.37972 -0.16571
 C198 C -0.11384 0.35471 -0.15480
 C199 C -0.07740 0.38345 -0.32533
 C200 C -0.05667 0.40822 -0.33667
 C201 C -0.05094 0.42983 -0.18851
 C202 C -0.06647 0.42602 -0.02673
 H203 H -0.15233 0.30763 -0.09347
 H204 H -0.13624 0.38342 0.43405
 H205 H -0.16983 0.33679 0.45906
 H206 H -0.09960 0.41359 0.26058
 H207 H -0.11768 0.33816 -0.26981
 H208 H -0.08114 0.36718 -0.44158
 H209 H -0.04507 0.41039 -0.46281
 H210 H -0.06235 0.44255 0.08797
 C211 C 0.34724 0.82722 0.55698
 C212 C 0.36631 0.85387 0.54642
 C213 C 0.37056 0.87487 0.69987
 C214 C 0.35513 0.86908 0.85963
 C215 C 0.33656 0.84207 0.87004
 C216 C 0.33261 0.82095 0.71909
 C217 C 0.39072 0.90070 0.69277
 C218 C 0.40712 0.90540 0.53591
 C219 C 0.40246 0.88457 0.38182
 C220 C 0.38191 0.85917 0.38731
 C221 C 0.41885 0.88911 0.22563
 C222 C 0.43986 0.91382 0.22218
 C223 C 0.44497 0.93465 0.37444
 C224 C 0.42835 0.93033 0.53118
 H225 H 0.34433 0.81068 0.44132
 H226 H 0.35797 0.88504 0.97767
 H227 H 0.32564 0.83730 0.99667
 H228 H 0.39409 0.91675 0.81017
 H229 H 0.37864 0.84300 0.26999
 H230 H 0.41562 0.87334 0.10671
 H231 H 0.45230 0.91645 0.09968
 H232 H 0.43196 0.94623 0.64918
 C233 C -0.16437 0.66948 -0.33993
 C234 C -0.14271 0.64496 -0.31315
 C235 C -0.12709 0.64151 -0.13846
 C236 C -0.13385 0.66196 0.00724
 C237 C -0.15525 0.68639 -0.02113
 C238 C -0.17043 0.69051 -0.19470
 C239 C -0.10420 0.61849 -0.11374
 C240 C -0.09629 0.59927 -0.26204
 C241 C -0.11216 0.60205 -0.43568
 C242 C -0.13559 0.62469 -0.45965
 C243 C -0.10383 0.58253 -0.58266
 C244 C -0.07950 0.56110 -0.55873
 C245 C -0.06341 0.55869 -0.38675
 C246 C -0.07229 0.57769 -0.23878
 H247 H -0.17569 0.67310 -0.47510
 H248 H -0.12190 0.65969 0.14102
 H249 H -0.15946 0.70279 0.09067
 H250 H -0.09191 0.61618 0.01944
 H251 H -0.14775 0.62710 -0.59303
 H252 H -0.11599 0.58406 -0.71600
 H253 H -0.07323 0.54646 -0.67377
 H254 H -0.06028 0.57603 -0.10445
 C255 C 0.34562 1.18178 0.13559
 C256 C 0.36302 1.15356 0.16256
 C257 C 0.35966 1.13412 0.32161
 C258 C 0.33811 1.14221 0.44541
 C259 C 0.32016 1.16959 0.41384
 C260 C 0.32369 1.18966 0.25883
 C261 C 0.37820 1.10715 0.35676
 C262 C 0.39976 1.09897 0.23343
 C263 C 0.40222 1.11724 0.06912
 C264 C 0.38380 1.14454 0.03444
 C265 C 0.42370 1.10835 -0.05457
 C266 C 0.44329 1.08244 -0.01204
 C267 C 0.44172 1.06528 0.15518
 C268 C 0.41948 1.07325 0.27502
 H269 H 0.34846 1.19710 0.01589
 H270 H 0.33522 1.12743 0.56724
 H271 H 0.30398 1.17564 0.51363
 H272 H 0.37620 1.09287 0.48187
 H273 H 0.38589 1.15893 -0.09021
 H274 H 0.42591 1.12202 -0.18112
 H275 H 0.46051 1.07683 -0.10530
 H276 H 0.41801 1.05987 0.40354
 C277 C 1.15448 -0.18251 -0.02250
 C278 C 1.13515 -0.15609 -0.00235
 C279 C 1.13205 -0.13199 -0.14208
 C280 C 1.14962 -0.13405 -0.29549
 C281 C 1.16971 -0.15993 -0.31137
 C282 C 1.17212 -0.18464 -0.17615
 C283 C 1.11155 -0.10631 -0.12552
 C284 C 1.09494 -0.10391 0.03279
 C285 C 1.09910 -0.12753 0.17501
 C286 C 1.11891 -0.15352 0.15595
 C287 C 1.08327 -0.12497 0.33479
 C288 C 1.06316 -0.09951 0.35374
 C289 C 1.05816 -0.07610 0.21272
 C290 C 1.07430 -0.07838 0.05235
 H291 H 1.15624 -0.20132 0.08316
 H292 H 1.14778 -0.11569 -0.40324
 H293 H 1.18252 -0.16134 -0.43302
 H294 H 1.10859 -0.08830 -0.23535
 H295 H 1.12185 -0.17159 0.26568
 H296 H 1.08628 -0.14283 0.44508
 H297 H 1.05100 -0.09854 0.47812
 H298 H 1.07086 -0.06034 -0.05643
 C299 C 0.65986 0.32398 0.45372
 C300 C 0.63871 0.34899 0.45990
 C301 C 0.63290 0.36966 0.30539
 C302 C 0.64905 0.36501 0.14728
 C303 C 0.66991 0.33958 0.14115
 C304 C 0.67524 0.31875 0.29402
 C305 C 0.61080 0.39408 0.31111
 C306 C 0.59458 0.39798 0.47013
 C307 C 0.60096 0.37719 0.62398
 C308 C 0.62287 0.35305 0.61799
 C309 C 0.58528 0.38063 0.78303
 C310 C 0.56355 0.40455 0.79189
 C311 C 0.55669 0.42573 0.64170
 C312 C 0.57217 0.42214 0.47911
 H313 H 0.66382 0.30780 0.57167
 H314 H 0.64501 0.38049 0.02691
 H315 H 0.68125 0.33553 0.01556
 H316 H 0.60607 0.40972 0.19158
 H317 H 0.62753 0.33728 0.73730
 H318 H 0.58993 0.36492 0.90213
 H319 H 0.55204 0.40639 0.91852
 H320 H 0.56710 0.43811 0.36144
 C321 C 0.83935 -0.18602 -0.05868
 C322 C 0.85816 -0.15920 -0.04000
 C323 C 0.86167 -0.13816 -0.19201
 C324 C 0.84498 -0.14384 -0.35939
 C325 C 0.82564 -0.17046 -0.37579
 C326 C 0.82299 -0.19210 -0.22628
 C327 C 0.88201 -0.11226 -0.17354
 C328 C 0.89829 -0.10704 -0.00325
 C329 C 0.89360 -0.12773 0.14915
 C330 C 0.87383 -0.15365 0.12916
 C331 C 0.90891 -0.12253 0.32017
 C332 C 0.92920 -0.09736 0.34118
 C333 C 0.93504 -0.07696 0.19068
 C334 C 0.91929 -0.08177 0.01833
 H335 H 0.83737 -0.20235 0.05832
 H336 H 0.84723 -0.12814 -0.47859
 H337 H 0.81394 -0.17509 -0.50835
 H338 H 0.88525 -0.09645 -0.29111
 H339 H 0.87077 -0.16972 0.24565
 H340 H 0.90532 -0.13806 0.43811
 H341 H 0.94060 -0.09424 0.47639
 H342 H 0.92338 -0.06608 -0.09807
 C343 C 0.33923 0.31381 0.42018
 C344 C 0.35844 0.34046 0.43745
 C345 C 0.36255 0.36072 0.28257
 C346 C 0.34662 0.35422 0.11374
 C347 C 0.32750 0.32749 0.09772
 C348 C 0.32394 0.30708 0.25031
 C349 C 0.38261 0.38683 0.29924
 C350 C 0.39831 0.39302 0.46995
 C351 C 0.39351 0.37295 0.62475
 C352 C 0.37381 0.34682 0.60718
 C353 C 0.40858 0.37916 0.79586
 C354 C 0.42841 0.40492 0.81486
 C355 C 0.43406 0.42481 0.66222
 C356 C 0.41879 0.41878 0.48948
 H357 H 0.33643 0.29794 0.53800
 H358 H 0.34917 0.36955 -0.00639
 H359 H 0.31584 0.32238 -0.03436
 H360 H 0.38601 0.40216 0.17997
 H361 H 0.37049 0.33135 0.72619
 H362 H 0.40514 0.36400 0.91552
 H363 H 0.43967 0.40889 0.94969
 H364 H 0.42291 0.43385 0.37040
 C365 C 0.15064 0.69300 -0.31007
 C366 C 0.13431 0.66420 -0.29861
 C367 C 0.14156 0.64193 -0.15314
 C368 C 0.16601 0.64797 -0.02855
 C369 C 0.18309 0.67591 -0.04673
 C370 C 0.17556 0.69877 -0.18707
 C371 C 0.12430 0.61400 -0.13473
 C372 C 0.10058 0.60740 -0.26394
 C373 C 0.09443 0.62862 -0.41591
 C374 C 0.11105 0.65718 -0.43093
 C375 C 0.07162 0.62094 -0.54950
 C376 C 0.05466 0.59287 -0.53073
 C377 C 0.05971 0.57260 -0.37548
 C378 C 0.08280 0.57991 -0.24289
 H379 H 0.14457 0.71059 -0.41789
 H380 H 0.17194 0.63106 0.08298
 H381 H 0.20162 0.68022 0.05309
 H382 H 0.12947 0.59725 -0.02113
 H383 H 0.10597 0.67382 -0.54556
 H384 H 0.06679 0.63673 -0.66791
 H385 H 0.03684 0.58763 -0.63380
 H386 H 0.08683 0.56426 -0.12261
 C387 C 0.65090 1.19549 0.23929
 C388 C 0.63411 1.16788 0.27592
 C389 C 0.64438 1.14580 0.41614
 C390 C 0.67162 1.15154 0.51535
 C391 C 0.68856 1.17878 0.47553
 C392 C 0.67850 1.20101 0.33641
 C393 C 0.62733 1.11834 0.45399
 C394 C 0.60071 1.11212 0.34827
 C395 C 0.59100 1.13388 0.20443
 C396 C 0.60743 1.16189 0.17199
 C397 C 0.56509 1.12718 0.09408
 C398 C 0.54896 1.09909 0.12493
 C399 C 0.55807 1.07766 0.26867
 C400 C 0.58378 1.08433 0.38183
 H401 H 0.64297 1.21212 0.12986
 H402 H 0.67980 1.13500 0.62402
 H403 H 0.70914 1.18303 0.55785
 H404 H 0.63494 1.10167 0.56388
 H405 H 0.59962 1.17883 0.06441
 H406 H 0.55740 1.14355 -0.01673
 H407 H 0.52896 1.09428 0.03822
 H408 H 0.59087 1.06756 0.49198
 C409 C 0.16116 0.32574 0.12224
 C410 C 0.14167 0.35232 0.10247
 C411 C 0.12306 0.36020 0.24671
 C412 C 0.12469 0.34147 0.40975
 C413 C 0.14404 0.31474 0.42743
 C414 C 0.16229 0.30675 0.28367
 C415 C 0.10251 0.38592 0.22276
 C416 C 0.09986 0.40319 0.05475
 C417 C 0.11878 0.39538 -0.08808
 C418 C 0.13982 0.37034 -0.06223
 C419 C 0.11561 0.41196 -0.25756
 C420 C 0.09309 0.43512 -0.28854
 C421 C 0.07380 0.44268 -0.14922
 C422 C 0.07779 0.42725 0.02413
 H423 H 0.17488 0.31911 0.01013
 H424 H 0.11049 0.34699 0.52125
 H425 H 0.14447 0.29994 0.55167
 H426 H 0.08793 0.39176 0.33194
 H427 H 0.15406 0.36414 -0.17278
 H428 H 0.12989 0.40630 -0.36865
 H429 H 0.09052 0.44689 -0.42282
 H430 H 0.06288 0.43285 0.13208
 C431 C 0.65692 0.82023 0.60634
 C432 C 0.63809 0.84642 0.55363
 C433 C 0.62777 0.85001 0.36581
 C434 C 0.63647 0.82760 0.23408
 C435 C 0.65518 0.80171 0.28788
 C436 C 0.66553 0.79795 0.47326
 C437 C 0.60854 0.87562 0.31287
 C438 C 0.59908 0.89747 0.44502
 C439 C 0.60928 0.89416 0.63257
 C440 C 0.62902 0.86875 0.68558
 C441 C 0.59909 0.91605 0.76346
 C442 C 0.57838 0.94042 0.70916
 C443 C 0.56798 0.94349 0.52257
 C444 C 0.57894 0.92218 0.39176
 H445 H 0.66462 0.81688 0.75023
 H446 H 0.62858 0.82987 0.08994
 H447 H 0.66151 0.78438 0.18500
 H448 H 0.60043 0.87815 0.16932
 H449 H 0.63696 0.86610 0.82921
 H450 H 0.60680 0.91405 0.90788
 H451 H 0.57039 0.95662 0.81292
 H452 H 0.57118 0.92422 0.24752
 C453 C 0.84262 0.17800 0.30664
 C454 C 0.86221 0.15173 0.28463
 C455 C 0.87550 0.14769 0.11385
 C456 C 0.86887 0.16967 -0.03163
 C457 C 0.84962 0.19580 -0.00792
 C458 C 0.83648 0.20026 0.16110
 C459 C 0.89576 0.12223 0.09207
 C460 C 0.90330 0.10091 0.23922
 C461 C 0.89013 0.10477 0.41031
 C462 C 0.86940 0.13001 0.43141
 C463 C 0.89828 0.08355 0.55777
 C464 C 0.91967 0.05915 0.53668
 C465 C 0.93302 0.05533 0.36729
 C466 C 0.92432 0.07614 0.21842
 H467 H 0.83275 0.18173 0.43755
 H468 H 0.87915 0.16706 -0.16211
 H469 H 0.84536 0.21300 -0.12024
 H470 H 0.90628 0.11952 -0.03780
 H471 H 0.85920 0.13300 0.56227
 H472 H 0.88829 0.08597 0.68947
 H473 H 0.92581 0.04330 0.65259
 H474 H 0.93426 0.07349 0.08631
 C475 C 0.34268 0.67942 0.83068
 C476 C 0.36248 0.65363 0.79930
 C477 C 0.37451 0.65043 0.62396
 C478 C 0.36627 0.67268 0.48253
 C479 C 0.34689 0.69831 0.51549
 C480 C 0.33505 0.70200 0.68895
 C481 C 0.39501 0.62548 0.59352
 C482 C 0.40405 0.60386 0.73706
 C483 C 0.39195 0.60680 0.91178
 C484 C 0.37102 0.63147 0.94123
 C485 C 0.40139 0.58531 1.05522
 C486 C 0.42296 0.56142 1.02710
 C487 C 0.43513 0.55827 0.85375
 C488 C 0.42534 0.57958 0.70921
 H489 H 0.33389 0.68254 0.96575
 H490 H 0.37524 0.67067 0.34728
 H491 H 0.34137 0.71574 0.40605
 H492 H 0.40434 0.62332 0.45933
 H493 H 0.36175 0.63375 1.07539
 H494 H 0.39228 0.58715 1.18990
 H495 H 0.42999 0.54541 1.14109
 H496 H 0.43457 0.57760 0.57490
   
