data_POSCAR
  _audit_creation_date              2014-09-24
  _audit_creation_method            'ToBaCCo'
  _symmetry_space_group_name_H-M    'P1'
  _symmetry_Int_Tables_number       1
  _symmetry_cell_setting            triclinic
  loop_
  _symmetry_equiv_pos_as_xyz
 x,y,z
_cell_length_a 21.2764
_cell_length_b 21.0955
_cell_length_c 21.5997
_cell_angle_alpha 87.187400
_cell_angle_beta 91.984300
_cell_angle_gamma 89.449000
loop_
  _atom_site_label
  _atom_site_type_symbol
  _atom_site_fract_x
  _atom_site_fract_y
  _atom_site_fract_z
C1 C 0.00061 0.49533 0.25802
 C2 C 0.02472 0.51887 0.74504
 C3 C 0.24509 -0.00749 0.51794
 C4 C 0.76543 -0.00871 0.50189
 C5 C 0.48106 0.26100 0.99730
 C6 C 0.48429 0.74596 0.98250
 B7 B 0.98189 1.06957 0.04886
 B8 B 1.02483 1.00303 0.07616
 B9 B 0.94387 1.00162 0.07217
 B10 B 0.91769 1.04430 0.00537
 B11 B 0.98446 1.07459 -0.03045
 B12 B 1.04959 1.04839 0.01373
 B13 B 0.98782 0.94106 -0.03094
 B14 B 0.94642 1.00803 -0.05760
 B15 B 1.02689 1.00982 -0.05449
 B16 B 1.05242 0.96624 0.01106
 B17 B 0.98662 0.93760 0.04969
 B18 B 0.92042 0.96298 0.00496
 B19 B 0.57751 0.49198 0.45148
 B20 B 0.58123 0.48855 0.53079
 B21 B 0.55624 0.55779 0.49045
 B22 B 0.51254 0.53788 0.42665
 B23 B 0.51042 0.45672 0.42511
 B24 B 0.55067 0.42437 0.49175
 B25 B 0.44935 0.49241 0.53128
 B26 B 0.44691 0.49904 0.45059
 B27 B 0.47000 0.42868 0.48964
 B28 B 0.51476 0.44853 0.55576
 B29 B 0.51708 0.53041 0.55735
 B30 B 0.47481 0.56107 0.49357
 C31 C 0.97713 1.31113 0.17775
 C32 C 1.01873 1.31798 0.22800
 C33 C 1.01634 1.37357 0.25931
 C34 C 0.98643 1.42906 0.23154
 C35 C 0.94175 1.42018 0.18250
 C36 C 0.93497 1.35994 0.15755
 C37 C 0.97775 1.25146 0.14604
 C38 C 0.92921 1.23892 0.10384
 C39 C 0.92762 1.17917 0.07848
 C40 C 0.97946 1.13622 0.08528
 C41 C 1.03046 1.15440 0.12393
 C42 C 1.02677 1.20784 0.15904
 C43 C 0.88805 1.34704 0.11252
 C44 C 0.88351 1.28636 0.08818
 C45 C 1.06437 1.27080 0.24385
 C46 C 1.07030 1.21785 0.20777
 H47 H 0.85401 1.38344 0.09707
 H48 H 0.84560 1.27736 0.05510
 H49 H 1.09770 1.27653 0.28220
 H50 H 1.10767 1.18359 0.21933
 H51 H 1.04482 1.37555 0.30168
 H52 H 0.91244 1.45905 0.16379
 H53 H 0.88499 1.16723 0.05458
 H54 H 1.07236 1.12564 0.13022
 C55 C 0.98830 0.67529 0.15672
 C56 C 1.04547 0.64179 0.15931
 C57 C 1.04649 0.57795 0.17942
 C58 C 0.99267 0.54953 0.20561
 C59 C 0.93391 0.58029 0.19099
 C60 C 0.93191 0.64475 0.17044
 C61 C 0.98792 0.74393 0.14072
 C62 C 0.93129 0.77813 0.13774
 C63 C 0.93141 0.84220 0.11590
 C64 C 0.98716 0.87125 0.09417
 C65 C 1.04348 0.83897 0.11194
 C66 C 1.04459 0.77458 0.13005
 C67 C 0.87587 0.68093 0.16908
 C68 C 0.87577 0.74670 0.15392
 C69 C 1.10155 0.67407 0.14744
 C70 C 1.10124 0.73973 0.13439
 H71 H 0.83202 0.65855 0.18107
 H72 H 0.83170 0.77285 0.15360
 H73 H 1.14622 0.64880 0.15034
 H74 H 1.14552 0.76318 0.12649
 H75 H 1.09141 0.55345 0.18154
 H76 H 0.89065 0.55772 0.20454
 H77 H 0.88765 0.86871 0.11393
 H78 H 1.08728 0.86094 0.10664
 C79 C 1.01150 1.33424 -0.15280
 C80 C 0.96403 1.38025 -0.14817
 C81 C 0.97035 1.44054 -0.17829
 C82 C 1.02360 1.45553 -0.21376
 C83 C 1.07009 1.40677 -0.21777
 C84 C 1.06491 1.34741 -0.18669
 C85 C 1.00450 1.27028 -0.12295
 C86 C 1.05199 1.22460 -0.12714
 C87 C 1.04524 1.16440 -0.09760
 C88 C 0.99022 1.14655 -0.06591
 C89 C 0.94438 1.19527 -0.06228
 C90 C 0.95067 1.25618 -0.09035
 C91 C 1.11177 1.30027 -0.19022
 C92 C 1.10572 1.24012 -0.16040
 C93 C 0.91055 1.36435 -0.11454
 C94 C 0.90395 1.30341 -0.08620
 H95 H 1.15356 1.30997 -0.21620
 H96 H 1.14301 1.20530 -0.16402
 H97 H 0.87327 1.39909 -0.11048
 H98 H 0.86172 1.29308 -0.06116
 H99 H 0.93279 1.47535 -0.17600
 H100 H 1.10985 1.41242 -0.24704
 H101 H 1.08484 1.13196 -0.09750
 H102 H 0.90354 1.18830 -0.03697
 C103 C 1.01537 0.69666 -0.15959
 C104 C 1.01277 0.63896 -0.12428
 C105 C 1.01923 0.58121 -0.15335
 C106 C 1.02632 0.58051 -0.21807
 C107 C 1.03323 0.63982 -0.25160
 C108 C 1.02629 0.69764 -0.22301
 C109 C 1.00565 0.75727 -0.12960
 C110 C 1.00685 0.81501 -0.16441
 C111 C 0.99766 0.87239 -0.13464
 C112 C 0.99039 0.87374 -0.06946
 C113 C 0.98603 0.81338 -0.03816
 C114 C 0.99439 0.75616 -0.06662
 C115 C 1.02780 0.75639 -0.25689
 C116 C 1.01794 0.81403 -0.22817
 C117 C 1.00197 0.64014 -0.06064
 C118 C 0.99281 0.69771 -0.03235
 H119 H 1.03600 0.75781 -0.30616
 H120 H 1.01934 0.85812 -0.25600
 H121 H 0.99986 0.59625 -0.03260
 H122 H 0.98427 0.69638 0.01681
 H123 H 1.01738 0.53755 -0.12528
 H124 H 1.03968 0.64062 -0.30120
 H125 H 0.99637 0.91573 -0.16317
 H126 H 0.97943 0.80806 0.00963
 C127 C 1.14853 0.99447 0.33225
 C128 C 1.11943 1.02504 0.38009
 C129 C 1.14795 1.02277 0.44031
 C130 C 1.20773 0.99344 0.45291
 C131 C 1.23624 0.96531 0.40150
 C132 C 1.20631 0.96361 0.34286
 C133 C 1.11844 0.99564 0.26935
 C134 C 1.14580 0.96252 0.22235
 C135 C 1.11607 0.96309 0.16290
 C136 C 1.06128 1.00030 0.14717
 C137 C 1.03703 1.03434 0.19679
 C138 C 1.06349 1.03084 0.25718
 C139 C 1.23346 0.93178 0.29439
 C140 C 1.20325 0.93036 0.23552
 C141 C 1.06251 1.05811 0.36632
 C142 C 1.03572 1.06198 0.30576
 H143 H 1.27823 0.90725 0.30216
 H144 H 1.22560 0.90482 0.19976
 H145 H 1.03910 1.08228 0.40233
 H146 H 0.99257 1.08916 0.29701
 H147 H 1.12249 1.04442 0.47565
 H148 H 1.28256 0.94367 0.40663
 H149 H 1.13918 0.93717 0.12858
 H150 H 0.99580 1.06358 0.18998
 C151 C 1.14436 0.99504 -0.30537
 C152 C 1.13091 1.04217 -0.35209
 C153 C 1.15995 1.03949 -0.40983
 C154 C 1.20283 0.98974 -0.42235
 C155 C 1.21442 0.94296 -0.37260
 C156 C 1.18525 0.94497 -0.31556
 C157 C 1.11728 0.99957 -0.24342
 C158 C 1.13145 0.95322 -0.19656
 C159 C 1.10446 0.95744 -0.13828
 C160 C 1.06395 1.00838 -0.12334
 C161 C 1.05002 1.05243 -0.17418
 C162 C 1.07700 1.04968 -0.23251
 C163 C 1.19822 0.89862 -0.26749
 C164 C 1.17139 0.90238 -0.20925
 C165 C 1.09071 1.09273 -0.33895
 C166 C 1.06404 1.09624 -0.28043
 H167 H 1.22969 0.85921 -0.27481
 H168 H 1.18265 0.86563 -0.17366
 H169 H 1.07993 1.13006 -0.37405
 H170 H 1.03369 1.13628 -0.27240
 H171 H 1.15487 1.08059 -0.44148
 H172 H 1.24913 0.90570 -0.37505
 H173 H 1.11071 0.91627 -0.10786
 H174 H 1.01739 1.08972 -0.17084
 C175 C 0.86005 1.01505 0.33157
 C176 C 0.82369 1.06643 0.34864
 C177 C 0.80227 1.06618 0.40927
 C178 C 0.81113 1.01130 0.44961
 C179 C 0.86094 0.97019 0.43614
 C180 C 0.88206 0.96874 0.37595
 C181 C 0.87622 1.01005 0.26659
 C182 C 0.91270 0.95889 0.25030
 C183 C 0.92994 0.95546 0.18916
 C184 C 0.91087 1.00087 0.14126
 C185 C 0.87657 1.05391 0.16132
 C186 C 0.85818 1.05823 0.22277
 C187 C 0.92135 0.91958 0.35840
 C188 C 0.93615 0.91448 0.29631
 C189 C 0.80677 1.11480 0.30384
 C190 C 0.82408 1.11090 0.24185
 H191 H 0.93901 0.88373 0.39243
 H192 H 0.96601 0.87540 0.28415
 H193 H 0.77894 1.15515 0.31646
 H194 H 0.81013 1.14897 0.20855
 H195 H 0.77629 1.10712 0.42276
 H196 H 0.88051 0.93655 0.47070
 H197 H 0.96854 0.92408 0.18431
 H198 H 0.86562 1.09371 0.13046
 C199 C 0.84828 0.99290 -0.31362
 C200 C 0.81546 0.93904 -0.33063
 C201 C 0.78975 0.93755 -0.39037
 C202 C 0.80357 0.98524 -0.43625
 C203 C 0.84200 1.03639 -0.41905
 C204 C 0.86056 1.04251 -0.35691
 C205 C 0.86677 0.99893 -0.24842
 C206 C 0.89064 1.05632 -0.22905
 C207 C 0.90721 1.06156 -0.16646
 C208 C 0.90953 1.00781 -0.12490
 C209 C 0.88251 0.95146 -0.14592
 C210 C 0.85918 0.94743 -0.20637
 C211 C 0.88681 1.09894 -0.33633
 C212 C 0.89968 1.10649 -0.27297
 C213 C 0.80606 0.88905 -0.28670
 C214 C 0.82956 0.89234 -0.22575
 H215 H 0.89534 1.13822 -0.36905
 H216 H 0.91840 1.15120 -0.25847
 H217 H 0.78116 0.84689 -0.29975
 H218 H 0.82309 0.85233 -0.19326
 H219 H 0.75612 0.90072 -0.39908
 H220 H 0.85016 1.07532 -0.45233
 H221 H 0.92256 1.10705 -0.15239
 H222 H 0.88105 0.90893 -0.11652
 C223 C 1.29365 1.18163 0.03098
 C224 C 1.29897 1.24270 0.00435
 C225 C 1.35899 1.26692 -0.00534
 C226 C 1.41512 1.23094 0.01056
 C227 C 1.40727 1.16879 0.03682
 C228 C 1.34723 1.14485 0.04854
 C229 C 1.23070 1.15414 0.03726
 C230 C 1.22535 1.09288 0.06287
 C231 C 1.16662 1.06434 0.06111
 C232 C 1.11367 1.09194 0.02841
 C233 C 1.11810 1.15855 0.01644
 C234 C 1.17699 1.18871 0.01621
 C235 C 1.33961 1.08407 0.07665
 C236 C 1.27953 1.05896 0.08482
 C237 C 1.24403 1.27788 -0.01345
 C238 C 1.18393 1.25148 -0.00714
 H239 H 1.38033 1.05525 0.09143
 H240 H 1.27565 1.01120 0.10511
 H241 H 1.24756 1.32569 -0.03363
 H242 H 1.14296 1.27939 -0.02304
 H243 H 1.36135 1.31320 -0.02888
 H244 H 1.44632 1.13712 0.04698
 H245 H 1.16602 1.01684 0.07767
 H246 H 1.07662 1.18762 0.00786
 C247 C 0.65463 1.14746 -0.00836
 C248 C 0.61608 1.13788 0.04247
 C249 C 0.55800 1.17058 0.04290
 C250 C 0.53631 1.21085 -0.00851
 C251 C 0.57394 1.21147 -0.06216
 C252 C 0.63363 1.18339 -0.06101
 C253 C 0.71913 1.12108 -0.00574
 C254 C 0.75919 1.13473 -0.05449
 C255 C 0.82145 1.11221 -0.04999
 C256 C 0.84529 1.07497 0.00201
 C257 C 0.79968 1.05483 0.04531
 C258 C 0.73905 1.08143 0.04469
 C259 C 0.67400 1.19350 -0.11074
 C260 C 0.73607 1.17031 -0.10716
 C261 C 0.63805 1.09818 0.09304
 C262 C 0.69781 1.06885 0.09325
 H263 H 0.65819 1.22140 -0.15191
 H264 H 0.76621 1.18054 -0.14574
 H265 H 0.60884 1.08961 0.13261
 H266 H 0.71279 1.03813 0.13280
 H267 H 0.53334 1.16994 0.08594
 H268 H 0.56053 1.23764 -0.10465
 H269 H 0.84989 1.12231 -0.08867
 H270 H 0.80903 1.01501 0.07733
 C271 C 1.30160 0.84204 -0.01681
 C272 C 1.35484 0.88007 -0.02458
 C273 C 1.41487 0.85140 -0.02275
 C274 C 1.42125 0.78447 -0.01991
 C275 C 1.36573 0.74788 -0.01343
 C276 C 1.30667 0.77603 -0.01103
 C277 C 1.23926 0.87193 -0.01363
 C278 C 1.18660 0.83431 -0.00305
 C279 C 1.12821 0.86371 0.00365
 C280 C 1.12109 0.93045 0.00259
 C281 C 1.17329 0.96491 -0.02053
 C282 C 1.23295 0.93734 -0.02371
 C283 C 1.25258 0.73923 -0.00303
 C284 C 1.19335 0.76798 0.00091
 C285 C 1.34665 0.94605 -0.03439
 C286 C 1.28633 0.97392 -0.03632
 H287 H 1.25616 0.68791 0.00091
 H288 H 1.15273 0.73814 0.00771
 H289 H 1.38695 0.97618 -0.04167
 H290 H 1.28176 1.02477 -0.04520
 H291 H 1.45500 0.88194 -0.02149
 H292 H 1.36922 0.69647 -0.00989
 H293 H 1.08901 0.83342 0.00914
 H294 H 1.16763 1.01321 -0.03865
 C295 C 0.66911 0.83730 -0.01964
 C296 C 0.61850 0.86797 -0.05242
 C297 C 0.55925 0.83803 -0.05468
 C298 C 0.54771 0.78322 -0.01603
 C299 C 0.60130 0.75415 0.01581
 C300 C 0.66153 0.77860 0.01112
 C301 C 0.73203 0.86591 -0.01908
 C302 C 0.78408 0.83099 0.00527
 C303 C 0.84370 0.85905 0.00596
 C304 C 0.85174 0.92462 -0.00749
 C305 C 0.79910 0.95417 -0.04111
 C306 C 0.73977 0.92610 -0.04622
 C307 C 0.71474 0.74407 0.03471
 C308 C 0.77532 0.76873 0.02901
 C309 C 0.62898 0.92732 -0.08275
 C310 C 0.68827 0.95655 -0.07854
 H311 H 0.70966 0.69700 0.05626
 H312 H 0.81525 0.73953 0.04489
 H313 H 0.59080 0.95205 -0.10849
 H314 H 0.69388 1.00316 -0.10092
 H315 H 0.52316 0.85707 -0.08703
 H316 H 0.59834 0.70934 0.04142
 H317 H 0.88254 0.82841 0.01682
 H318 H 0.80375 0.99785 -0.06738
 C319 C 0.83845 0.50307 0.36746
 C320 C 0.87659 0.44866 0.37431
 C321 C 0.93637 0.45023 0.34963
 C322 C 0.95549 0.50367 0.31284
 C323 C 0.92351 0.56161 0.32154
 C324 C 0.86217 0.56056 0.34341
 C325 C 0.77195 0.49894 0.38316
 C326 C 0.73251 0.55181 0.37182
 C327 C 0.66889 0.54684 0.38577
 C328 C 0.64504 0.49170 0.41653
 C329 C 0.68545 0.43815 0.42253
 C330 C 0.74854 0.44147 0.40707
 C331 C 0.82206 0.61392 0.33599
 C332 C 0.75795 0.60933 0.34902
 C333 C 0.85214 0.39213 0.40027
 C334 C 0.78899 0.38860 0.41640
 H335 H 0.83960 0.65867 0.31722
 H336 H 0.72811 0.65109 0.34129
 H337 H 0.88136 0.34976 0.40611
 H338 H 0.77150 0.34397 0.43551
 H339 H 0.96419 0.40738 0.35412
 H340 H 0.94201 0.60611 0.30347
 H341 H 0.63962 0.58835 0.37636
 H342 H 0.66900 0.39329 0.44023
 C343 C 0.19477 0.50492 0.32705
 C344 C 0.15386 0.55558 0.33674
 C345 C 0.08989 0.54996 0.31919
 C346 C 0.06968 0.49849 0.28377
 C347 C 0.11739 0.45834 0.26209
 C348 C 0.17635 0.45508 0.29102
 C349 C 0.25921 0.50544 0.35220
 C350 C 0.29612 0.45067 0.35146
 C351 C 0.35391 0.44905 0.38355
 C352 C 0.38085 0.50411 0.40799
 C353 C 0.34663 0.56131 0.39494
 C354 C 0.28352 0.56117 0.37431
 C355 C 0.21697 0.40301 0.28498
 C356 C 0.27494 0.39928 0.31781
 C357 C 0.17887 0.61078 0.36148
 C358 C 0.24374 0.61475 0.37636
 H359 H 0.20247 0.36370 0.25755
 H360 H 0.30406 0.35712 0.31524
 H361 H 0.14884 0.65174 0.36696
 H362 H 0.26229 0.65907 0.39174
 H363 H 0.05696 0.58715 0.32936
 H364 H 0.10896 0.42789 0.22396
 H365 H 0.37969 0.40610 0.38386
 H366 H 0.36631 0.60598 0.40320
 C367 C 0.84162 0.50743 0.64501
 C368 C 0.85632 0.56189 0.67658
 C369 C 0.91547 0.56670 0.70603
 C370 C 0.96279 0.51876 0.70300
 C371 C 0.94686 0.46492 0.66863
 C372 C 0.88631 0.45878 0.64041
 C373 C 0.77736 0.50071 0.61778
 C374 C 0.76107 0.44582 0.58774
 C375 C 0.69941 0.44027 0.56212
 C376 C 0.65316 0.48918 0.56503
 C377 C 0.67342 0.54393 0.59479
 C378 C 0.73352 0.54974 0.62197
 C379 C 0.86859 0.40433 0.60912
 C380 C 0.80715 0.39792 0.58343
 C381 C 0.81074 0.61020 0.67997
 C382 C 0.75060 0.60452 0.65253
 H383 H 0.90224 0.36604 0.60500
 H384 H 0.79563 0.35499 0.56015
 H385 H 0.82164 0.65281 0.70408
 H386 H 0.71696 0.64300 0.65590
 H387 H 0.92176 0.60732 0.73379
 H388 H 0.98070 0.42643 0.66655
 H389 H 0.69010 0.39849 0.53806
 H390 H 0.64276 0.58497 0.59465
 C391 C 0.20438 0.50977 0.65431
 C392 C 0.14847 0.50775 0.61760
 C393 C 0.09002 0.51429 0.64515
 C394 C 0.08698 0.52106 0.70960
 C395 C 0.14450 0.52639 0.74474
 C396 C 0.20290 0.51919 0.71776
 C397 C 0.26565 0.50021 0.62597
 C398 C 0.32159 0.49885 0.66258
 C399 C 0.37975 0.48989 0.63420
 C400 C 0.38278 0.48937 0.56877
 C401 C 0.32464 0.48096 0.53635
 C402 C 0.26686 0.48942 0.56307
 C403 C 0.25972 0.51855 0.75338
 C404 C 0.31799 0.50795 0.72637
 C405 C 0.15212 0.49694 0.55423
 C406 C 0.21031 0.48743 0.52752
 H407 H 0.25906 0.52544 0.80273
 H408 H 0.36052 0.50760 0.75549
 H409 H 0.10966 0.49501 0.52522
 H410 H 0.21107 0.47897 0.47848
 H411 H 0.04760 0.51226 0.61638
 H412 H 0.14336 0.53166 0.79436
 H413 H 0.42230 0.48599 0.66297
 H414 H 0.32245 0.46432 0.49112
 C415 C 0.48876 0.65409 0.16908
 C416 C 0.51170 0.62003 0.12010
 C417 C 0.50272 0.64483 0.05844
 C418 C 0.48141 0.70831 0.04685
 C419 C 0.46247 0.74233 0.09882
 C420 C 0.46125 0.71386 0.15831
 C421 C 0.49675 0.62837 0.23351
 C422 C 0.46762 0.65841 0.28150
 C423 C 0.47172 0.63043 0.34202
 C424 C 0.51145 0.57725 0.35745
 C425 C 0.54667 0.55461 0.30793
 C426 C 0.53536 0.57564 0.24612
 C427 C 0.43481 0.74484 0.20768
 C428 C 0.43572 0.71630 0.26790
 C429 C 0.54654 0.56398 0.13450
 C430 C 0.56053 0.54376 0.19657
 H431 H 0.41238 0.79096 0.19949
 H432 H 0.41353 0.74084 0.30441
 H433 H 0.56566 0.53730 0.09777
 H434 H 0.58989 0.50190 0.20579
 H435 H 0.51838 0.61722 0.02104
 H436 H 0.44796 0.79165 0.09314
 H437 H 0.44568 0.65272 0.37675
 H438 H 0.57948 0.51614 0.31527
 C439 C 0.49597 0.65103 0.80577
 C440 C 0.54486 0.64336 0.85084
 C441 C 0.53848 0.66909 0.90926
 C442 C 0.48512 0.70629 0.92253
 C443 C 0.43766 0.71442 0.87391
 C444 C 0.44176 0.68525 0.81741
 C445 C 0.50224 0.62400 0.74445
 C446 C 0.45293 0.62952 0.70024
 C447 C 0.45869 0.60092 0.64317
 C448 C 0.51367 0.56729 0.62650
 C449 C 0.56155 0.56404 0.67443
 C450 C 0.55716 0.59230 0.73152
 C451 C 0.39314 0.69130 0.77144
 C452 C 0.39823 0.66306 0.71422
 C453 C 0.60025 0.61193 0.83564
 C454 C 0.60674 0.58800 0.77666
 H455 H 0.35061 0.71768 0.77992
 H456 H 0.35940 0.66813 0.68047
 H457 H 0.63923 0.60662 0.86918
 H458 H 0.65097 0.56559 0.76647
 H459 H 0.57699 0.66257 0.94289
 H460 H 0.39755 0.74548 0.87714
 H461 H 0.41717 0.60244 0.61413
 H462 H 0.60250 0.53698 0.67240
 C463 C 0.50762 0.36394 0.16604
 C464 C 0.45595 0.37900 0.12600
 C465 C 0.45172 0.35171 0.06822
 C466 C 0.49659 0.30619 0.05123
 C467 C 0.55348 0.30163 0.08800
 C468 C 0.55791 0.32774 0.14655
 C469 C 0.50946 0.38742 0.22919
 C470 C 0.56176 0.37450 0.26874
 C471 C 0.56247 0.39708 0.32896
 C472 C 0.50989 0.42887 0.35306
 C473 C 0.46297 0.44815 0.30728
 C474 C 0.46043 0.42550 0.24761
 C475 C 0.61064 0.31665 0.18694
 C476 C 0.61252 0.33965 0.24706
 C477 C 0.40835 0.41931 0.14547
 C478 C 0.41082 0.44263 0.20520
 H479 H 0.65018 0.28895 0.17247
 H480 H 0.65368 0.32947 0.27698
 H481 H 0.36839 0.43203 0.11476
 H482 H 0.37297 0.47319 0.21874
 H483 H 0.41206 0.36488 0.03808
 H484 H 0.59413 0.27651 0.07289
 H485 H 0.60416 0.38803 0.35693
 H486 H 0.43276 0.48783 0.31335
 C487 C 0.49035 0.34278 0.81048
 C488 C 0.52440 0.37091 0.85866
 C489 C 0.51463 0.35067 0.92047
 C490 C 0.47461 0.29904 0.93417
 C491 C 0.44212 0.27084 0.88399
 C492 C 0.44954 0.29256 0.82269
 C493 C 0.50212 0.36221 0.74559
 C494 C 0.47227 0.33102 0.69716
 C495 C 0.48343 0.35161 0.63564
 C496 C 0.51781 0.40705 0.62265
 C497 C 0.56009 0.42294 0.67076
 C498 C 0.54959 0.40532 0.73272
 C499 C 0.42147 0.26103 0.77311
 C500 C 0.43355 0.27931 0.71138
 C501 C 0.57207 0.41407 0.84367
 C502 C 0.58597 0.42902 0.78164
 H503 H 0.39125 0.22081 0.78212
 H504 H 0.41296 0.25242 0.67476
 H505 H 0.60054 0.43437 0.88008
 H506 H 0.62519 0.45955 0.77184
 H507 H 0.54337 0.37031 0.95704
 H508 H 0.41524 0.22807 0.89203
 H509 H 0.47159 0.32075 0.59945
 H510 H 0.60376 0.44407 0.65993
 C511 C 0.68750 0.80424 0.46621
 C512 C 0.64954 0.85826 0.45405
 C513 C 0.67364 0.91787 0.46598
 C514 C 0.73734 0.92547 0.48543
 C515 C 0.77534 0.86926 0.49270
 C516 C 0.75041 0.80909 0.48524
 C517 C 0.65930 0.74133 0.46380
 C518 C 0.69451 0.68724 0.48295
 C519 C 0.66420 0.62853 0.48748
 C520 C 0.59800 0.62358 0.47816
 C521 C 0.56897 0.67731 0.44750
 C522 C 0.59684 0.73644 0.44404
 C523 C 0.78628 0.75353 0.49977
 C524 C 0.75866 0.69336 0.49874
 C525 C 0.58711 0.85147 0.43236
 C526 C 0.56167 0.79124 0.42565
 H527 H 0.83538 0.75669 0.51419
 H528 H 0.78702 0.65176 0.51249
 H529 H 0.55746 0.89286 0.42152
 H530 H 0.51294 0.78767 0.40995
 H531 H 0.64042 0.95650 0.46227
 H532 H 0.82256 0.87061 0.51203
 H533 H 0.69369 0.58709 0.49459
 H534 H 0.52151 0.67631 0.43258
 C535 C 0.64505 0.15733 0.51044
 C536 C 0.67385 0.13233 0.56544
 C537 C 0.70384 0.07313 0.56535
 C538 C 0.71264 0.04261 0.50875
 C539 C 0.67592 0.06538 0.45628
 C540 C 0.64294 0.12275 0.45661
 C541 C 0.61996 0.22240 0.50801
 C542 C 0.59232 0.24738 0.45287
 C543 C 0.57099 0.30968 0.45001
 C544 C 0.57900 0.35085 0.49870
 C545 C 0.60620 0.32315 0.55480
 C546 C 0.62615 0.25933 0.55987
 C547 C 0.61248 0.14872 0.40251
 C548 C 0.58689 0.21004 0.40085
 C549 C 0.67618 0.16906 0.61816
 C550 C 0.65330 0.23192 0.61521
 H551 H 0.61015 0.12232 0.36071
 H552 H 0.56484 0.22926 0.35787
 H553 H 0.69836 0.15013 0.66115
 H554 H 0.65783 0.25950 0.65612
 H555 H 0.72432 0.05440 0.60898
 H556 H 0.67898 0.04216 0.41277
 H557 H 0.54620 0.32357 0.40941
 H558 H 0.61494 0.35099 0.59432
 C559 C 0.34435 0.80953 0.52490
 C560 C 0.37996 0.86411 0.53519
 C561 C 0.34960 0.92421 0.53311
 C562 C 0.28383 0.92930 0.52100
 C563 C 0.24952 0.87255 0.51314
 C564 C 0.27911 0.81325 0.51546
 C565 C 0.37587 0.74698 0.52384
 C566 C 0.34031 0.69275 0.51413
 C567 C 0.37123 0.63449 0.50799
 C568 C 0.43764 0.62951 0.50639
 C569 C 0.46993 0.68235 0.53092
 C570 C 0.44061 0.74196 0.53491
 C571 C 0.24441 0.75744 0.50906
 C572 C 0.27448 0.69800 0.50952
 C573 C 0.44504 0.85687 0.54795
 C574 C 0.47462 0.79669 0.54897
 H575 H 0.19363 0.75977 0.50325
 H576 H 0.24610 0.65608 0.50433
 H577 H 0.47338 0.89800 0.55705
 H578 H 0.52487 0.79334 0.55867
 H579 H 0.37696 0.96615 0.54126
 H580 H 0.19884 0.87510 0.50588
 H581 H 0.34253 0.59367 0.50352
 H582 H 0.51806 0.67745 0.54795
 C583 C 0.34131 0.17617 0.50440
 C584 C 0.35045 0.13240 0.45876
 C585 C 0.32334 0.07160 0.46529
 C586 C 0.28724 0.05359 0.51751
 C587 C 0.28637 0.09693 0.56599
 C588 C 0.30906 0.15898 0.55784
 C589 C 0.36689 0.24111 0.49670
 C590 C 0.35506 0.28560 0.54074
 C591 C 0.38254 0.34596 0.53516
 C592 C 0.42589 0.36238 0.48843
 C593 C 0.42998 0.31809 0.44095
 C594 C 0.40260 0.25749 0.44553
 C595 C 0.29815 0.20496 0.60136
 C596 C 0.31914 0.26757 0.59202
 C597 C 0.38507 0.15124 0.40669
 C598 C 0.41083 0.21251 0.40031
 H599 H 0.27223 0.19278 0.64250
 H600 H 0.30932 0.30148 0.62664
 H601 H 0.39254 0.11830 0.37065
 H602 H 0.43789 0.22455 0.35990
 H603 H 0.32951 0.03918 0.42884
 H604 H 0.26643 0.08420 0.61005
 H605 H 0.37636 0.37519 0.57351
 H606 H 0.45154 0.33112 0.39819
   
