data_POSCAR
  _audit_creation_date              2014-09-24
  _audit_creation_method            'ToBaCCo'
  _symmetry_space_group_name_H-M    'P1'
  _symmetry_Int_Tables_number       1
  _symmetry_cell_setting            triclinic
  loop_
  _symmetry_equiv_pos_as_xyz
 x,y,z
_cell_length_a 21.6014
_cell_length_b 21.6008
_cell_length_c 21.5789
_cell_angle_alpha 89.929700
_cell_angle_beta 90.207700
_cell_angle_gamma 90.000000
loop_
  _atom_site_label
  _atom_site_type_symbol
  _atom_site_fract_x
  _atom_site_fract_y
  _atom_site_fract_z
O1 O -0.16003 0.08355 0.00139
 O2 O 0.15864 0.08365 -0.00247
 O3 O -0.00271 0.15914 0.08315
 O4 O 0.00119 0.15949 -0.08465
 O5 O 0.00108 0.08401 -0.16029
 O6 O -0.00260 0.08346 0.15889
 O7 O 0.08309 0.15930 -0.00263
 O8 O -0.08440 0.15917 0.00147
 Zr9 Zr -0.00068 0.10888 -0.00072
 O10 O 0.05540 0.05620 -0.05686
 O11 O -0.05671 0.05589 0.05542
 C12 C -0.14143 0.14059 0.00255
 C13 C 0.14016 0.14075 -0.00352
 C14 C -0.00368 0.14055 0.14029
 C15 C 0.00212 0.14115 -0.14187
 H16 H 0.08172 0.08210 0.08192
 O17 O 0.05522 0.05571 0.05545
 H18 H -0.08325 0.08230 -0.08320
 O19 O -0.05679 0.05585 -0.05668
 O20 O 0.15847 -0.08381 0.00188
 O21 O -0.16031 -0.08405 -0.00280
 O22 O 0.08329 -0.00257 0.15900
 O23 O 0.08284 0.00202 -0.16005
 O24 O -0.08476 -0.00212 -0.16025
 O25 O -0.08418 0.00198 0.15881
 O26 O 0.00133 -0.15977 0.08371
 O27 O -0.00324 -0.15934 -0.08412
 O28 O 0.00153 -0.08421 0.15926
 O29 O -0.00323 -0.08366 -0.15990
 O30 O 0.15869 -0.00239 0.08336
 O31 O -0.15994 0.00202 0.08299
 O32 O -0.16021 -0.00235 -0.08472
 O33 O 0.15852 0.00190 -0.08418
 O34 O 0.08288 -0.15947 0.00200
 O35 O -0.08478 -0.15966 -0.00250
 Zr36 Zr 0.10815 -0.00010 -0.00046
 Zr37 Zr -0.10975 -0.00023 -0.00076
 Zr38 Zr -0.00057 -0.00032 0.10856
 Zr39 Zr -0.00092 0.00009 -0.10970
 Zr40 Zr -0.00092 -0.10919 -0.00030
 O41 O -0.05698 -0.05624 -0.05682
 O42 O 0.05548 -0.05637 0.05579
 C43 C 0.13993 -0.14085 0.00304
 C44 C -0.14193 -0.14121 -0.00362
 C45 C 0.14026 -0.00358 0.14043
 C46 C 0.13997 0.00292 -0.14138
 C47 C -0.14180 -0.00330 -0.14182
 C48 C -0.14125 0.00308 0.14013
 C49 C 0.00244 -0.14138 0.14092
 C50 C -0.00430 -0.14070 -0.14122
 H51 H -0.08306 -0.08260 0.08190
 O52 O -0.05669 -0.05617 0.05547
 H53 H 0.08128 -0.08239 -0.08270
 O54 O 0.05489 -0.05600 -0.05632
 O55 O 0.34081 0.58440 0.00236
 O56 O 0.65964 0.58470 -0.00140
 O57 O 0.49823 0.66016 0.08458
 O58 O 0.50237 0.65993 -0.08313
 O59 O 0.50213 0.58434 -0.15880
 O60 O 0.49833 0.58453 0.16025
 O61 O 0.58402 0.66027 -0.00140
 O62 O 0.41644 0.66002 0.00261
 Zr63 Zr 0.50022 0.60972 0.00070
 O64 O 0.55610 0.55686 -0.05553
 O65 O 0.44404 0.55683 0.05666
 C66 C 0.35939 0.64144 0.00350
 C67 C 0.64115 0.64182 -0.00245
 C68 C 0.49730 0.64169 0.14178
 C69 C 0.50339 0.64131 -0.14016
 H70 H 0.58274 0.58312 0.08321
 O71 O 0.55627 0.55670 0.05674
 H72 H 0.41770 0.58308 -0.08200
 O73 O 0.44417 0.55665 -0.05547
 O74 O 0.65943 0.41704 0.00302
 O75 O 0.34065 0.41691 -0.00186
 O76 O 0.58428 0.49848 0.16029
 O77 O 0.58352 0.50282 -0.15888
 O78 O 0.41587 0.49875 -0.15927
 O79 O 0.41660 0.50284 0.15992
 O80 O 0.50241 0.34142 0.08434
 O81 O 0.49790 0.34130 -0.08322
 O82 O 0.50261 0.41693 0.16006
 O83 O 0.49772 0.41688 -0.15900
 O84 O 0.65971 0.49855 0.08474
 O85 O 0.34087 0.50277 0.08404
 O86 O 0.34043 0.49876 -0.08377
 O87 O 0.65933 0.50299 -0.08309
 O88 O 0.58375 0.34147 0.00290
 O89 O 0.41628 0.34133 -0.00165
 Zr90 Zr 0.60916 0.50085 0.00077
 Zr91 Zr 0.39109 0.50068 0.00027
 Zr92 Zr 0.50035 0.50077 0.10971
 Zr93 Zr 0.49983 0.50065 -0.10854
 Zr94 Zr 0.50004 0.39181 0.00055
 O95 O 0.44369 0.44448 -0.05585
 O96 O 0.55633 0.44465 0.05685
 C97 C 0.64080 0.36000 0.00400
 C98 C 0.35919 0.35983 -0.00281
 C99 C 0.64135 0.49744 0.14188
 C100 C 0.64065 0.50393 -0.14026
 C101 C 0.35873 0.49779 -0.14095
 C102 C 0.35950 0.50383 0.14122
 C103 C 0.50360 0.35991 0.14143
 C104 C 0.49682 0.35978 -0.14040
 H105 H 0.41793 0.41840 0.08283
 O106 O 0.44431 0.44486 0.05644
 H107 H 0.58227 0.41848 -0.08166
 O108 O 0.55593 0.44489 -0.05526
 O109 O -0.15969 0.58414 0.50181
 O110 O 0.15910 0.58380 0.49812
 O111 O -0.00242 0.65937 0.58352
 O112 O 0.00167 0.65979 0.41574
 O113 O 0.00158 0.58423 0.34013
 O114 O -0.00221 0.58372 0.65934
 O115 O 0.08350 0.65945 0.49774
 O116 O -0.08412 0.65970 0.50175
 Zr117 Zr -0.00030 0.60919 0.49973
 O118 O 0.05587 0.55633 0.44385
 O119 O -0.05617 0.55624 0.55605
 C120 C -0.14127 0.64129 0.50279
 C121 C 0.14054 0.64084 0.49688
 C122 C -0.00342 0.64075 0.64062
 C123 C 0.00259 0.64137 0.35855
 H124 H 0.08217 0.58242 0.58247
 O125 O 0.05570 0.55601 0.55600
 H126 H -0.08279 0.58267 0.41724
 O127 O -0.05632 0.55621 0.44374
 O128 O 0.15923 0.41631 0.50250
 O129 O -0.15951 0.41650 0.49757
 O130 O 0.08402 0.49806 0.65993
 O131 O 0.08338 0.50251 0.34066
 O132 O -0.08434 0.49813 0.34025
 O133 O -0.08367 0.50216 0.65946
 O134 O 0.00190 0.34052 0.58408
 O135 O -0.00246 0.34089 0.41629
 O136 O 0.00208 0.41601 0.65978
 O137 O -0.00261 0.41653 0.34051
 O138 O 0.15947 0.49814 0.58437
 O139 O -0.15942 0.50241 0.58362
 O140 O -0.15979 0.49813 0.41583
 O141 O 0.15905 0.50231 0.41659
 O142 O 0.08363 0.34071 0.50236
 O143 O -0.08387 0.34089 0.49776
 Zr144 Zr 0.10879 0.50009 0.50033
 Zr145 Zr -0.10922 0.50029 0.49979
 Zr146 Zr 0.00006 0.49995 0.60920
 Zr147 Zr -0.00041 0.50034 0.39081
 Zr148 Zr -0.00014 0.39117 0.50016
 O149 O -0.05639 0.44415 0.44378
 O150 O 0.05619 0.44381 0.55654
 C151 C 0.14071 0.35922 0.50344
 C152 C -0.14091 0.35946 0.49659
 C153 C 0.14112 0.49717 0.64154
 C154 C 0.14046 0.50347 0.35941
 C155 C -0.14139 0.49709 0.35872
 C156 C -0.14078 0.50334 0.64080
 C157 C 0.00294 0.35889 0.64129
 C158 C -0.00360 0.35946 0.35914
 H159 H -0.08240 0.41781 0.58233
 O160 O -0.05602 0.44424 0.55591
 H161 H 0.08197 0.41793 0.41784
 O162 O 0.05558 0.44434 0.44420
 O163 O 0.34124 0.08305 0.50186
 O164 O 0.65995 0.08302 0.49800
 O165 O 0.49863 0.15873 0.58378
 O166 O 0.50265 0.15862 0.41623
 O167 O 0.50257 0.08308 0.34054
 O168 O 0.49874 0.08313 0.65954
 O169 O 0.58427 0.15859 0.49786
 O170 O 0.41681 0.15868 0.50194
 Zr171 Zr 0.50058 0.10824 0.50002
 O172 O 0.55664 0.05538 0.44395
 O173 O 0.44448 0.05552 0.55618
 C174 C 0.35973 0.14014 0.50291
 C175 C 0.64132 0.14005 0.49685
 C176 C 0.49766 0.14023 0.64095
 C177 C 0.50366 0.14010 0.35915
 H178 H 0.58313 0.08163 0.58252
 O179 O 0.55670 0.05519 0.55603
 H180 H 0.41816 0.08164 0.41743
 O181 O 0.44465 0.05519 0.44391
 O182 O 0.66025 -0.08461 0.50237
 O183 O 0.34144 -0.08442 0.49767
 O184 O 0.58463 -0.00279 0.65968
 O185 O 0.58408 0.00163 0.34063
 O186 O 0.41665 -0.00289 0.34043
 O187 O 0.41706 0.00132 0.65943
 O188 O 0.50320 -0.15992 0.58374
 O189 O 0.49855 -0.16018 0.41600
 O190 O 0.50317 -0.08430 0.65938
 O191 O 0.49836 -0.08449 0.34033
 O192 O 0.66015 -0.00294 0.58416
 O193 O 0.34136 0.00127 0.58358
 O194 O 0.34122 -0.00285 0.41603
 O195 O 0.65987 0.00159 0.41643
 O196 O 0.58468 -0.16024 0.50216
 O197 O 0.41706 -0.16005 0.49768
 Zr198 Zr 0.60970 -0.00079 0.50020
 Zr199 Zr 0.39173 -0.00069 0.49987
 Zr200 Zr 0.50081 -0.00062 0.60907
 Zr201 Zr 0.50049 -0.00074 0.39091
 Zr202 Zr 0.50084 -0.10973 0.49988
 O203 O 0.44444 -0.05687 0.44371
 O204 O 0.55691 -0.05686 0.55632
 C205 C 0.64181 -0.14175 0.50328
 C206 C 0.36000 -0.14145 0.49662
 C207 C 0.64166 -0.00390 0.64124
 C208 C 0.64116 0.00273 0.35929
 C209 C 0.35967 -0.00393 0.35897
 C210 C 0.35993 0.00230 0.64077
 C211 C 0.50429 -0.14127 0.64077
 C212 C 0.49742 -0.14164 0.35882
 H213 H 0.41860 -0.08305 0.58224
 O214 O 0.44499 -0.05664 0.55582
 H215 H 0.58300 -0.08305 0.41765
 O216 O 0.55663 -0.05666 0.44405
 C217 C 0.18714 0.18769 -0.00460
 C218 C 0.22660 0.22715 -0.00497
 C219 C 0.27281 0.27338 -0.00480
 C220 C 0.31225 0.31286 -0.00415
 C221 C 0.18747 -0.31241 0.49554
 C222 C 0.22707 -0.27323 0.49494
 C223 C 0.27348 -0.22742 0.49486
 C224 C 0.31308 -0.18822 0.49535
 C225 C 0.81353 0.81429 -0.00457
 C226 C 0.77400 0.77476 -0.00486
 C227 C 0.72769 0.72843 -0.00457
 C228 C 0.68819 0.68890 -0.00385
 C229 C 0.81231 0.31254 0.49528
 C230 C 0.77310 0.27296 0.49477
 C231 C 0.72726 0.22658 0.49485
 C232 C 0.68806 0.18699 0.49548
 C233 C 0.81180 0.18750 0.00412
 C234 C 0.77259 0.22708 0.00498
 C235 C 0.72676 0.27346 0.00538
 C236 C 0.68755 0.31305 0.00511
 C237 C 0.81423 -0.31419 0.50399
 C238 C 0.77471 -0.27466 0.50462
 C239 C 0.72840 -0.22833 0.50479
 C240 C 0.68888 -0.18880 0.50441
 C241 C 0.18766 0.31225 0.50458
 C242 C 0.22712 0.27278 0.50497
 C243 C 0.27332 0.22655 0.50481
 C244 C 0.31277 0.18708 0.50419
 C245 C 0.18686 0.81240 0.00444
 C246 C 0.22647 0.77321 0.00507
 C247 C 0.27289 0.72740 0.00517
 C248 C 0.31248 0.68821 0.00470
 C249 C -0.00492 0.18744 0.18722
 C250 C -0.00544 0.22689 0.22664
 C251 C -0.00544 0.27309 0.27280
 C252 C -0.00490 0.31254 0.31222
 C253 C 0.49575 0.31276 0.81268
 C254 C 0.49542 0.27318 0.77332
 C255 C 0.49564 0.22680 0.72724
 C256 C 0.49632 0.18723 0.68787
 C257 C -0.00554 0.81251 0.81199
 C258 C -0.00593 0.77310 0.77267
 C259 C -0.00569 0.72697 0.72668
 C260 C -0.00493 0.68755 0.68738
 C261 C 0.49620 -0.31385 0.18631
 C262 C 0.49570 -0.27436 0.22585
 C263 C 0.49569 -0.22810 0.27218
 C264 C 0.49619 -0.18863 0.31173
 C265 C 0.00357 0.81405 0.18559
 C266 C 0.00410 0.77447 0.22524
 C267 C 0.00415 0.72809 0.27171
 C268 C 0.00371 0.68851 0.31135
 C269 C 0.50495 -0.31203 0.81301
 C270 C 0.50575 -0.27286 0.77348
 C271 C 0.50600 -0.22710 0.72718
 C272 C 0.50558 -0.18793 0.68763
 C273 C 0.50496 0.31293 0.18821
 C274 C 0.50552 0.27325 0.22739
 C275 C 0.50552 0.22674 0.27318
 C276 C 0.50496 0.18707 0.31236
 C277 C 0.00330 0.18577 0.81358
 C278 C 0.00396 0.22546 0.77410
 C279 C 0.00421 0.27200 0.72785
 C280 C 0.00393 0.31170 0.68838
 C281 C 0.18724 -0.00498 0.18730
 C282 C 0.22681 -0.00562 0.22666
 C283 C 0.27314 -0.00570 0.27271
 C284 C 0.31271 -0.00520 0.31209
 C285 C 0.31411 0.49665 0.81440
 C286 C 0.27445 0.49605 0.77478
 C287 C 0.22797 0.49587 0.72836
 C288 C 0.18832 0.49618 0.68875
 C289 C 0.81376 -0.00461 0.81368
 C290 C 0.77428 -0.00530 0.77414
 C291 C 0.72807 -0.00549 0.72784
 C292 C 0.68860 -0.00508 0.68828
 C293 C -0.31411 0.49616 0.18641
 C294 C -0.27450 0.49553 0.22592
 C295 C -0.22809 0.49542 0.27217
 C296 C -0.18848 0.49587 0.31167
 C297 C 0.18700 0.00397 0.81179
 C298 C 0.22668 0.00432 0.77261
 C299 C 0.27324 0.00416 0.72679
 C300 C 0.31291 0.00356 0.68761
 C301 C 0.31261 0.50502 0.18804
 C302 C 0.27313 0.50549 0.22734
 C303 C 0.22687 0.50540 0.27332
 C304 C 0.18738 0.50480 0.31261
 C305 C 0.81203 0.00438 0.18701
 C306 C 0.77285 0.00490 0.22654
 C307 C 0.72704 0.00481 0.27286
 C308 C 0.68786 0.00417 0.31240
 C309 C -0.31251 0.50509 0.81280
 C310 C -0.27314 0.50550 0.77334
 C311 C -0.22703 0.50535 0.72715
 C312 C -0.18765 0.50470 0.68771
   
