data_POSCAR
  _audit_creation_date              2014-09-24
  _audit_creation_method            'ToBaCCo'
  _symmetry_space_group_name_H-M    'P1'
  _symmetry_Int_Tables_number       1
  _symmetry_cell_setting            triclinic
  loop_
  _symmetry_equiv_pos_as_xyz
 x,y,z
_cell_length_a 38.9767
_cell_length_b 34.8368
_cell_length_c 30.4311
_cell_angle_alpha 89.553400
_cell_angle_beta 89.922800
_cell_angle_gamma 85.348300
loop_
  _atom_site_label
  _atom_site_type_symbol
  _atom_site_fract_x
  _atom_site_fract_y
  _atom_site_fract_z
C1 C 1.23194 0.22748 0.19710
 C2 C 1.25459 0.25255 0.16960
 C3 C 1.27357 0.27556 0.19357
 C4 C 1.26889 0.27153 0.24313
 C5 C 1.25725 0.20509 0.22866
 C6 C 1.27660 0.22820 0.25306
 C7 C 1.21099 0.25586 0.22705
 C8 C 1.22985 0.27951 0.25111
 H9 H 1.25375 0.25410 0.13403
 H10 H 1.28566 0.29045 0.26054
 H11 H 1.25891 0.17420 0.23272
 H12 H 1.18342 0.25517 0.22995
 C13 C 0.73660 -0.27733 0.18266
 C14 C 0.75632 -0.24355 0.16661
 C15 C 0.76616 -0.22070 0.19963
 C16 C 0.75554 -0.23351 0.24594
 C17 C 0.76085 -0.29825 0.21612
 C18 C 0.77038 -0.27557 0.24938
 C19 C 0.70688 -0.25853 0.21001
 C20 C 0.71662 -0.23670 0.24364
 H21 H 0.76336 -0.23839 0.13287
 H22 H 0.76373 -0.21497 0.27289
 H23 H 0.76785 -0.32899 0.21520
 H24 H 0.68035 -0.26490 0.20547
 C25 C 0.71860 0.22633 -0.30969
 C26 C 0.74263 0.24866 -0.33326
 C27 C 0.76633 0.26693 -0.30579
 C28 C 0.76248 0.25721 -0.25884
 C29 C 0.74070 0.19845 -0.28504
 C30 C 0.76393 0.21479 -0.25548
 C31 C 0.70265 0.25227 -0.27706
 C32 C 0.72628 0.26987 -0.24870
 H33 H 0.74201 0.25280 -0.36860
 H34 H 0.78170 0.26958 -0.23748
 H35 H 0.74232 0.16773 -0.29064
 H36 H 0.67533 0.26087 -0.27802
 C37 C 1.22560 -0.27068 -0.31113
 C38 C 1.25782 -0.25528 -0.33141
 C39 C 1.27797 -0.23798 -0.30256
 C40 C 1.26326 -0.23560 -0.25567
 C41 C 1.23867 -0.29552 -0.27207
 C42 C 1.25817 -0.27747 -0.24316
 C43 C 1.20660 -0.23501 -0.29011
 C44 C 1.22606 -0.21672 -0.26047
 H45 H 1.26457 -0.25822 -0.36582
 H46 H 1.27971 -0.22146 -0.23200
 H47 H 1.23336 -0.32543 -0.26813
 H48 H 1.18016 -0.22542 -0.29755
 C49 C 0.23093 0.22603 0.80087
 C50 C 0.25018 0.24850 0.83031
 C51 C 0.27121 0.27472 0.80961
 C52 C 0.27062 0.27231 0.76181
 C53 C 0.21200 0.25495 0.76948
 C54 C 0.23223 0.27979 0.74935
 C55 C 0.25840 0.20491 0.77164
 C56 C 0.27964 0.22909 0.75084
 H57 H 0.25023 0.24377 0.86557
 H58 H 0.28689 0.29284 0.74586
 H59 H 0.18483 0.25420 0.76251
 H60 H 0.25943 0.17434 0.76583
 C61 C 0.73192 0.73023 0.81694
 C62 C 0.75896 0.75283 0.83274
 C63 C 0.77728 0.77143 0.79860
 C64 C 0.76545 0.76179 0.75416
 C65 C 0.71035 0.75641 0.78866
 C66 C 0.72836 0.77350 0.75336
 C67 C 0.74863 0.70272 0.78628
 C68 C 0.76729 0.71974 0.75189
 H69 H 0.76134 0.75936 0.86728
 H70 H 0.78001 0.77441 0.72713
 H71 H 0.68252 0.75654 0.78862
 H72 H 0.74414 0.67258 0.78520
 C73 C 0.71730 0.23130 0.30579
 C74 C 0.74290 0.25358 0.33136
 C75 C 0.76603 0.27080 0.30580
 C76 C 0.76211 0.26332 0.25633
 C77 C 0.70136 0.26059 0.27217
 C78 C 0.72450 0.27746 0.24620
 C79 C 0.73972 0.20275 0.27760
 C80 C 0.76282 0.21935 0.25153
 H81 H 0.73978 0.25987 0.36603
 H82 H 0.78145 0.27647 0.23544
 H83 H 0.67387 0.26784 0.27009
 H84 H 0.73505 0.17293 0.27323
 C85 C 0.22884 0.72505 0.30732
 C86 C 0.26158 0.73754 0.32920
 C87 C 0.28188 0.75738 0.30241
 C88 C 0.26791 0.76273 0.25522
 C89 C 0.21096 0.76201 0.28789
 C90 C 0.23074 0.78152 0.25971
 C91 C 0.24263 0.70199 0.26738
 C92 C 0.26291 0.72153 0.24024
 H93 H 0.26950 0.72918 0.36220
 H94 H 0.28479 0.77816 0.23296
 H95 H 0.18413 0.77061 0.29435
 H96 H 0.23857 0.67196 0.26230
 O97 O 1.04149 0.07098 0.07820
 O98 O 1.08247 0.03542 0.03804
 C99 C 1.07297 0.06254 0.06557
 O100 O 0.95496 -0.06803 0.07921
 O101 O 0.91464 -0.03045 0.03958
 C102 C 0.92338 -0.05681 0.06868
 O103 O 1.05086 -0.06479 0.08365
 O104 O 1.08678 -0.03037 0.04173
 C105 C 1.08122 -0.05494 0.07281
 O106 O 0.94588 0.07278 0.07656
 O107 O 0.91022 0.03657 0.03734
 C108 C 0.91556 0.06356 0.06524
 Zr109 Zr 0.99509 0.05007 0.05604
 O110 O 0.99235 0.04976 0.12555
 O111 O 0.99144 0.11093 0.05254
 Zr112 Zr 1.00182 -0.04710 0.05721
 O113 O 0.99830 -0.04892 0.12658
 O114 O 1.00974 -0.10791 0.05469
 O115 O 1.02925 0.00156 0.06546
 O116 O 0.96856 0.00175 0.06465
 O117 O 0.94599 0.07336 -0.07481
 O118 O 0.91042 0.03618 -0.03594
 C119 C 0.91570 0.06349 -0.06395
 O120 O 1.05104 -0.06538 -0.07889
 O121 O 1.08696 -0.03095 -0.03775
 C122 C 1.08138 -0.05564 -0.06829
 O123 O 0.95585 -0.06793 -0.07606
 O124 O 0.91489 -0.03167 -0.03647
 C125 C 0.92421 -0.05764 -0.06553
 O126 O 1.04146 0.06925 -0.07811
 O127 O 1.08251 0.03448 -0.03655
 C128 C 1.07288 0.06102 -0.06512
 Zr129 Zr 0.99519 0.04935 -0.05485
 O130 O 0.99458 0.04365 -0.12388
 O131 O 0.99301 0.11009 -0.05974
 Zr132 Zr 1.00211 -0.04737 -0.05316
 O133 O 0.99954 -0.04886 -0.12257
 O134 O 1.00979 -0.10822 -0.04927
 Zr135 Zr 1.05022 0.00135 0.00150
 Zr136 Zr 0.94708 0.00169 0.00126
 O137 O 0.96860 0.00125 -0.06214
 O138 O 1.02957 0.00105 -0.06250
 O139 O 0.96408 0.05744 0.00052
 O140 O 1.03277 -0.05425 0.00219
 O141 O 1.02423 0.05676 0.00049
 O142 O 0.97148 -0.05463 0.00201
 H143 H 0.95326 0.00225 0.09070
 H144 H 1.05017 -0.07662 0.00250
 H145 H 0.95320 0.00178 -0.08805
 H146 H 1.03689 0.08026 -0.00003
 H147 H 0.98994 -0.11741 0.03897
 H148 H 0.98867 -0.11796 -0.03681
 H149 H 1.01312 -0.02812 -0.13392
 H150 H 0.99212 0.07021 -0.13599
 H151 H 0.98381 0.12016 -0.03142
 H152 H 0.99096 0.12022 0.08326
 H153 H 1.01437 0.03737 0.13681
 H154 H 1.01175 -0.02826 0.13784
 O155 O 1.04014 0.56641 0.57978
 O156 O 1.07854 0.52901 0.53820
 C157 C 1.07126 0.55550 0.56711
 O158 O 0.94957 0.42939 0.58059
 O159 O 0.91052 0.46808 0.54073
 C160 C 0.91821 0.44061 0.56896
 O161 O 1.04625 0.43125 0.58365
 O162 O 1.08170 0.46454 0.53993
 C163 C 1.07654 0.44021 0.57106
 O164 O 0.94387 0.57403 0.57572
 O165 O 0.90751 0.53655 0.53958
 C166 C 0.91336 0.56458 0.56559
 Zr167 Zr 0.99255 0.54732 0.55808
 O168 O 0.98975 0.54184 0.62733
 O169 O 0.99250 0.60763 0.56478
 Zr170 Zr 0.99669 0.45061 0.55921
 O171 O 0.99505 0.45583 0.62834
 O172 O 1.00304 0.38978 0.56273
 O173 O 1.02563 0.49793 0.56648
 O174 O 0.96428 0.50017 0.56677
 O175 O 0.94262 0.57057 0.42672
 O176 O 0.90613 0.53637 0.46823
 C177 C 0.91220 0.56267 0.43951
 O178 O 1.04496 0.43072 0.42199
 O179 O 1.08124 0.46423 0.46353
 C180 C 1.07548 0.43960 0.43323
 O181 O 0.94883 0.42951 0.42770
 O182 O 0.90987 0.46851 0.46681
 C183 C 0.91755 0.44104 0.43905
 O184 O 1.03910 0.56611 0.42283
 O185 O 1.07851 0.52974 0.46514
 C186 C 1.07024 0.55673 0.43656
 Zr187 Zr 0.99189 0.54711 0.44625
 O188 O 0.99079 0.54185 0.37717
 O189 O 0.99146 0.60779 0.44134
 Zr190 Zr 0.99608 0.45036 0.44759
 O191 O 0.99189 0.45103 0.37824
 O192 O 1.00294 0.38944 0.44818
 Zr193 Zr 1.04527 0.49727 0.50191
 Zr194 Zr 0.94304 0.50091 0.50326
 O195 O 0.96375 0.49990 0.43936
 O196 O 1.02481 0.49776 0.43794
 O197 O 0.96168 0.55608 0.50234
 O198 O 1.02650 0.44233 0.50310
 O199 O 1.02110 0.55355 0.50176
 O200 O 0.96615 0.44403 0.50379
 H201 H 0.94836 0.50105 0.59223
 H202 H 1.04314 0.41927 0.50318
 H203 H 0.94786 0.50047 0.41393
 H204 H 1.03458 0.57646 0.50150
 H205 H 0.98709 0.37997 0.54107
 H206 H 0.98450 0.37989 0.46665
 H207 H 1.00818 0.46912 0.36695
 H208 H 0.98861 0.56849 0.36526
 H209 H 0.97472 0.61877 0.46324
 H210 H 0.98730 0.61886 0.53540
 H211 H 1.01233 0.53020 0.63773
 H212 H 0.99684 0.42918 0.64022
 O213 O 0.56417 -0.06388 0.58024
 O214 O 0.53719 -0.10711 0.53845
 C215 C 0.55952 -0.09854 0.56778
 O216 O 0.43257 0.04253 0.57875
 O217 O 0.46130 0.08576 0.53852
 C218 C 0.43848 0.07737 0.56743
 O219 O 0.44347 -0.06443 0.58269
 O220 O 0.47761 -0.10757 0.54190
 C221 C 0.45430 -0.09925 0.57185
 O222 O 0.55903 0.04321 0.57495
 O223 O 0.52249 0.08604 0.53650
 C224 C 0.54819 0.07792 0.56291
 Zr225 Zr 0.54185 -0.01045 0.55677
 O226 O 0.53864 -0.00618 0.62610
 O227 O 0.59624 -0.01389 0.56010
 Zr228 Zr 0.45616 -0.01085 0.55772
 O229 O 0.45772 -0.00684 0.62710
 O230 O 0.40231 -0.01509 0.55956
 O231 O 0.50178 -0.04563 0.56597
 O232 O 0.49656 0.02336 0.56501
 O233 O 0.55978 0.04337 0.42882
 O234 O 0.52235 0.08628 0.46508
 C235 C 0.54859 0.07816 0.43949
 O236 O 0.44189 -0.06381 0.42249
 O237 O 0.47599 -0.10704 0.46378
 C238 C 0.45258 -0.09868 0.43391
 O239 O 0.43139 0.04281 0.42556
 O240 O 0.46039 0.08589 0.46484
 C241 C 0.43719 0.07756 0.43663
 O242 O 0.56323 -0.06334 0.42318
 O243 O 0.53519 -0.10699 0.46363
 C244 C 0.55760 -0.09824 0.43433
 Zr245 Zr 0.54091 -0.01000 0.44540
 O246 O 0.53458 -0.00495 0.37638
 O247 O 0.59473 -0.01266 0.43576
 Zr248 Zr 0.45528 -0.01053 0.44677
 O249 O 0.45575 -0.00621 0.37733
 O250 O 0.40142 -0.01489 0.44683
 Zr251 Zr 0.50308 -0.06852 0.50192
 Zr252 Zr 0.49421 0.04740 0.50135
 O253 O 0.49556 0.02393 0.43789
 O254 O 0.50077 -0.04520 0.43766
 O255 O 0.54576 0.02363 0.50088
 O256 O 0.45185 -0.04425 0.50253
 O257 O 0.55046 -0.04331 0.50110
 O258 O 0.44615 0.02365 0.50218
 H259 H 0.49568 0.04102 0.59043
 H260 H 0.43283 -0.06146 0.50298
 H261 H 0.49443 0.04207 0.41258
 H262 H 0.57253 -0.05954 0.50087
 H263 H 0.39157 0.00531 0.54008
 H264 H 0.39091 0.00585 0.46569
 H265 H 0.47082 -0.02817 0.36604
 H266 H 0.53170 -0.03092 0.36471
 H267 H 0.60507 -0.01022 0.46511
 H268 H 0.60425 0.00333 0.53692
 H269 H 0.53170 -0.03100 0.63772
 H270 H 0.47217 -0.02943 0.63837
 O271 O 0.54835 0.57243 0.06813
 O272 O 0.58604 0.53627 0.02378
 C273 C 0.57894 0.56273 0.05265
 O274 O 0.45878 0.43526 0.07342
 O275 O 0.41837 0.47373 0.03550
 C276 C 0.42705 0.44653 0.06346
 O277 O 0.55529 0.43711 0.07157
 O278 O 0.58997 0.47128 0.02746
 C279 C 0.58527 0.44626 0.05834
 O280 O 0.45115 0.57751 0.07024
 O281 O 0.41439 0.54089 0.03345
 C282 C 0.42046 0.56850 0.05995
 Zr283 Zr 0.50009 0.55332 0.04875
 O284 O 0.50157 0.54812 0.11793
 O285 O 0.49947 0.61401 0.05230
 Zr286 Zr 0.50539 0.45651 0.05000
 O287 O 0.50443 0.45823 0.11952
 O288 O 0.51256 0.39564 0.05201
 O289 O 0.53399 0.50440 0.05571
 O290 O 0.47295 0.50569 0.05923
 O291 O 0.44571 0.57683 -0.07874
 O292 O 0.41169 0.54008 -0.03718
 C293 C 0.41588 0.56752 -0.06519
 O294 O 0.55011 0.43558 -0.08768
 O295 O 0.58716 0.47099 -0.04965
 C296 C 0.58084 0.44516 -0.07833
 O297 O 0.45369 0.43394 -0.07720
 O298 O 0.41582 0.47229 -0.03548
 C299 C 0.42292 0.44441 -0.06278
 O300 O 0.54055 0.57313 -0.08849
 O301 O 0.58274 0.53833 -0.04902
 C302 C 0.57218 0.56578 -0.07622
 Zr303 Zr 0.49559 0.55216 -0.06327
 O304 O 0.49299 0.54315 -0.13170
 O305 O 0.49209 0.61241 -0.07327
 Zr306 Zr 0.50153 0.45597 -0.06157
 O307 O 0.49718 0.46164 -0.13055
 O308 O 0.50771 0.39520 -0.06549
 Zr309 Zr 0.55193 0.50382 -0.00977
 Zr310 Zr 0.44999 0.50581 -0.00320
 O311 O 0.46786 0.50462 -0.06831
 O312 O 0.52946 0.50366 -0.07276
 O313 O 0.46749 0.56131 -0.00548
 O314 O 0.53359 0.44858 -0.00744
 O315 O 0.52649 0.55960 -0.00920
 O316 O 0.47366 0.44923 -0.00371
 H317 H 0.45792 0.50633 0.08555
 H318 H 0.55024 0.42554 -0.00791
 H319 H 0.45074 0.50488 -0.09239
 H320 H 0.53919 0.58308 -0.00990
 H321 H 0.49416 0.38568 0.03404
 H322 H 0.49492 0.38504 -0.04047
 H323 H 0.49801 0.43507 -0.14208
 H324 H 0.48854 0.56903 -0.14521
 H325 H 0.49204 0.62404 -0.04377
 H326 H 0.48327 0.62474 0.02950
 H327 H 0.50013 0.57479 0.12924
 H328 H 0.52178 0.47574 0.12881
 C329 C 1.17950 0.14980 0.14523
 C330 C 1.16003 0.17278 0.11625
 C331 C 1.16302 0.21192 0.11151
 C332 C 1.18708 0.22839 0.13782
 C333 C 1.20808 0.20587 0.16820
 C334 C 1.20414 0.16565 0.17179
 O335 O 1.17081 0.11353 0.14587
 C336 C 1.14527 0.11392 0.11671
 C337 C 1.13791 0.14967 0.09784
 C338 C 1.11112 0.15788 0.06849
 C339 C 1.09067 0.12812 0.05829
 C340 C 1.09746 0.09085 0.07676
 C341 C 1.12540 0.08328 0.10622
 H342 H 1.14684 0.22942 0.08899
 H343 H 1.18896 0.25917 0.13516
 H344 H 1.21866 0.14734 0.19506
 H345 H 1.10558 0.18647 0.05478
 H346 H 1.06901 0.13426 0.03640
 H347 H 1.13055 0.05523 0.12149
 C348 C 1.15570 0.67163 0.63982
 C349 C 1.17588 0.64654 0.61420
 C350 C 1.21077 0.64929 0.60791
 C351 C 1.22595 0.67843 0.63015
 C352 C 1.20623 0.70482 0.65770
 C353 C 1.17031 0.70122 0.66230
 O354 O 1.12321 0.66259 0.64238
 C355 C 1.12320 0.63096 0.61809
 C356 C 1.15500 0.61988 0.60068
 C357 C 1.16176 0.58666 0.57630
 C358 C 1.13427 0.56436 0.56817
 C359 C 1.10048 0.57601 0.58343
 C360 C 1.09508 0.60951 0.60967
 H361 H 1.22611 0.62875 0.58798
 H362 H 1.25362 0.67874 0.62775
 H363 H 1.15459 0.71905 0.68470
 H364 H 1.18729 0.57826 0.56376
 H365 H 1.13923 0.53877 0.54839
 H366 H 1.06976 0.61912 0.62208
 C367 C 0.65253 0.16263 0.64751
 C368 C 0.63666 0.18633 0.61610
 C369 C 0.64702 0.22266 0.60660
 C370 C 0.67484 0.23503 0.63049
 C371 C 0.69242 0.21091 0.66297
 C372 C 0.67989 0.17432 0.67190
 O373 O 0.63890 0.12916 0.65166
 C374 C 0.61385 0.13173 0.62215
 C375 C 0.61112 0.16624 0.59968
 C376 C 0.58650 0.17479 0.56726
 C377 C 0.56443 0.14621 0.55691
 C378 C 0.56772 0.10978 0.57851
 C379 C 0.59246 0.10293 0.61223
 H380 H 0.63386 0.24109 0.58211
 H381 H 0.68207 0.26395 0.62438
 H382 H 0.68987 0.15548 0.69803
 H383 H 0.58473 0.20218 0.55003
 H384 H 0.54564 0.15202 0.53109
 H385 H 0.59576 0.07556 0.62944
 C386 C 0.68425 0.64545 0.13831
 C387 C 0.68523 0.65260 0.09393
 C388 C 0.70524 0.67971 0.07513
 C389 C 0.72417 0.70146 0.10355
 C390 C 0.72276 0.69545 0.14978
 C391 C 0.70356 0.66574 0.16682
 O392 O 0.66117 0.62126 0.14998
 C393 C 0.64708 0.61294 0.11199
 C394 C 0.66115 0.63129 0.07673
 C395 C 0.64924 0.62858 0.03412
 C396 C 0.62209 0.60553 0.02754
 C397 C 0.60704 0.58644 0.06306
 C398 C 0.61948 0.59024 0.10615
 H399 H 0.70499 0.68524 0.04003
 H400 H 0.73835 0.72376 0.08918
 H401 H 0.70138 0.66084 0.20190
 H402 H 0.66016 0.64390 0.00705
 H403 H 0.61225 0.60296 -0.00516
 H404 H 0.60819 0.57611 0.13385
 C405 C 0.83623 -0.16312 0.15595
 C406 C 0.82138 -0.12628 0.16151
 C407 C 0.78990 -0.11847 0.18273
 C408 C 0.77268 -0.14997 0.19787
 C409 C 0.78688 -0.18809 0.19070
 C410 C 0.81932 -0.19473 0.17013
 O411 O 0.86590 -0.16445 0.13432
 C412 C 0.86977 -0.12767 0.12560
 C413 C 0.84305 -0.10316 0.14109
 C414 C 0.84073 -0.06370 0.13289
 C415 C 0.86713 -0.04891 0.10811
 C416 C 0.89544 -0.07348 0.09298
 C417 C 0.89680 -0.11342 0.10196
 H418 H 0.77869 -0.08925 0.18667
 H419 H 0.74767 -0.14484 0.21323
 H420 H 0.83043 -0.22372 0.16402
 H421 H 0.81911 -0.04506 0.14455
 H422 H 0.86583 -0.01826 0.10121
 H423 H 0.91781 -0.13281 0.08999
 C424 C 0.83079 0.33710 0.66518
 C425 C 0.81088 0.36078 0.63728
 C426 C 0.77654 0.35626 0.62906
 C427 C 0.76206 0.32539 0.64940
 C428 C 0.78156 0.29981 0.67840
 C429 C 0.81629 0.30675 0.68774
 O430 O 0.86378 0.34490 0.66476
 C431 C 0.86437 0.37407 0.63606
 C432 C 0.83246 0.38486 0.61885
 C433 C 0.82676 0.41339 0.58706
 C434 C 0.85515 0.43173 0.57195
 C435 C 0.88884 0.42123 0.58817
 C436 C 0.89341 0.39195 0.62112
 H437 H 0.76165 0.37508 0.60647
 H438 H 0.73529 0.32158 0.64252
 H439 H 0.83211 0.28748 0.70888
 H440 H 0.80132 0.42096 0.57383
 H441 H 0.85071 0.45375 0.54682
 H442 H 0.91868 0.38290 0.63399
 C443 C 0.35268 -0.18004 0.66939
 C444 C 0.37382 -0.20735 0.64772
 C445 C 0.36612 -0.24546 0.64417
 C446 C 0.33514 -0.25557 0.66283
 C447 C 0.31261 -0.22773 0.68454
 C448 C 0.32195 -0.18965 0.68886
 O449 O 0.36309 -0.14486 0.66562
 C450 C 0.39122 -0.15006 0.64101
 C451 C 0.39906 -0.18772 0.62921
 C452 C 0.42604 -0.19885 0.60070
 C453 C 0.44532 -0.16987 0.58312
 C454 C 0.43723 -0.13065 0.59414
 C455 C 0.41011 -0.12105 0.62431
 H456 H 0.38269 -0.26630 0.62622
 H457 H 0.32803 -0.28480 0.65916
 H458 H 0.30474 -0.16771 0.70414
 H459 H 0.43139 -0.22864 0.59130
 H460 H 0.46573 -0.17785 0.55998
 H461 H 0.40259 -0.09150 0.63305
 C462 C 0.34131 0.33809 0.15169
 C463 C 0.32050 0.36861 0.13524
 C464 C 0.28477 0.37033 0.13683
 C465 C 0.26974 0.33918 0.15616
 C466 C 0.29052 0.30749 0.17356
 C467 C 0.32682 0.30694 0.17176
 O468 O 0.37465 0.34182 0.14511
 C469 C 0.37476 0.37546 0.12411
 C470 C 0.34221 0.39291 0.11761
 C471 C 0.33590 0.42781 0.09580
 C472 C 0.36426 0.44544 0.07944
 C473 C 0.39832 0.42795 0.08459
 C474 C 0.40362 0.39252 0.10786
 H475 H 0.26905 0.39459 0.12328
 H476 H 0.24194 0.33963 0.15774
 H477 H 0.34304 0.28283 0.18482
 H478 H 0.30999 0.44085 0.09112
 H479 H 0.35944 0.47263 0.06214
 H480 H 0.42913 0.37822 0.11206
 C481 C 0.82626 0.17048 -0.17224
 C482 C 0.80764 0.14113 -0.15721
 C483 C 0.77472 0.13591 -0.17159
 C484 C 0.76052 0.16129 -0.20363
 C485 C 0.77885 0.19204 -0.22063
 C486 C 0.81195 0.19745 -0.20326
 O487 O 0.85828 0.16789 -0.15657
 C488 C 0.85956 0.13636 -0.13125
 C489 C 0.82907 0.11926 -0.13034
 C490 C 0.82477 0.08523 -0.10753
 C491 C 0.85320 0.06780 -0.08472
 C492 C 0.88539 0.08413 -0.08563
 C493 C 0.88842 0.11923 -0.10906
 H494 H 0.76074 0.11239 -0.15945
 H495 H 0.73474 0.15700 -0.21474
 H496 H 0.82706 0.21987 -0.21580
 H497 H 0.80049 0.07220 -0.10789
 H498 H 0.85032 0.04096 -0.06743
 H499 H 0.91261 0.13240 -0.11070
 C500 C 0.83151 0.66193 0.31832
 C501 C 0.81558 0.66509 0.35870
 C502 C 0.78658 0.69022 0.36618
 C503 C 0.77298 0.71200 0.33025
 C504 C 0.78828 0.70763 0.28812
 C505 C 0.81827 0.68281 0.28233
 O506 O 0.85882 0.63681 0.31786
 C507 C 0.86012 0.62354 0.35871
 C508 C 0.83410 0.63946 0.38508
 C509 C 0.83053 0.62872 0.42895
 C510 C 0.85542 0.60131 0.44647
 C511 C 0.88316 0.58605 0.42004
 C512 C 0.88513 0.59689 0.37546
 H513 H 0.77450 0.69241 0.39820
 H514 H 0.74968 0.73071 0.33466
 H515 H 0.83019 0.67890 0.25033
 H516 H 0.80972 0.64136 0.44905
 H517 H 0.85399 0.59332 0.48084
 H518 H 0.90608 0.58559 0.35465
 C519 C 0.34206 0.16385 0.31729
 C520 C 0.34894 0.18768 0.35144
 C521 C 0.33286 0.22444 0.35575
 C522 C 0.30886 0.23720 0.32348
 C523 C 0.30164 0.21354 0.28730
 C524 C 0.31865 0.17614 0.28448
 O525 O 0.35926 0.12950 0.32005
 C526 C 0.37735 0.13177 0.35670
 C527 C 0.37219 0.16682 0.37708
 C528 C 0.38855 0.17515 0.41612
 C529 C 0.41085 0.14593 0.43513
 C530 C 0.41585 0.10921 0.41522
 C531 C 0.39902 0.10235 0.37517
 H532 H 0.33823 0.24248 0.38329
 H533 H 0.29560 0.26529 0.32754
 H534 H 0.31418 0.15717 0.25748
 H535 H 0.38407 0.20299 0.43158
 H536 H 0.42350 0.15158 0.46575
 H537 H 0.40239 0.07474 0.35894
 C538 C 0.32424 0.67627 -0.16576
 C539 C 0.30416 0.65344 -0.14113
 C540 C 0.26867 0.65429 -0.14597
 C541 C 0.25338 0.67896 -0.17827
 C542 C 0.27369 0.70211 -0.20468
 C543 C 0.30949 0.70150 -0.19755
 O544 O 0.35766 0.66892 -0.15840
 C545 C 0.35869 0.64081 -0.12865
 C546 C 0.32668 0.63030 -0.11690
 C547 C 0.32197 0.59992 -0.08818
 C548 C 0.35150 0.57955 -0.07086
 C549 C 0.38489 0.58971 -0.08268
 C550 C 0.38831 0.62106 -0.11183
 H551 H 0.25348 0.63561 -0.12676
 H552 H 0.22592 0.67916 -0.18379
 H553 H 0.32560 0.71802 -0.21822
 H554 H 0.29651 0.59177 -0.07998
 H555 H 0.34828 0.55556 -0.04881
 H556 H 0.41329 0.62947 -0.12191
 C557 C 1.16417 -0.15589 -0.18828
 C558 C 1.18537 -0.12983 -0.17169
 C559 C 1.21976 -0.12967 -0.18407
 C560 C 1.23279 -0.15769 -0.21425
 C561 C 1.21149 -0.18528 -0.23131
 C562 C 1.17653 -0.18391 -0.21806
 O563 O 1.13237 -0.15147 -0.17256
 C564 C 1.13342 -0.12199 -0.14542
 C565 C 1.16520 -0.10764 -0.14339
 C566 C 1.17167 -0.07687 -0.11639
 C567 C 1.14419 -0.06012 -0.09096
 C568 C 1.11101 -0.07414 -0.09319
 C569 C 1.10592 -0.10578 -0.12076
 H570 H 1.23603 -0.10883 -0.17084
 H571 H 1.25943 -0.15773 -0.22426
 H572 H 1.15951 -0.20478 -0.22940
 H573 H 1.19690 -0.06605 -0.11506
 H574 H 1.14866 -0.03597 -0.07014
 H575 H 1.08112 -0.11754 -0.12324
 C576 C 1.16383 0.34407 0.31451
 C577 C 1.18453 0.36033 0.34438
 C578 C 1.22000 0.35260 0.34496
 C579 C 1.23472 0.32667 0.31383
 C580 C 1.21403 0.30867 0.28277
 C581 C 1.17788 0.31853 0.28306
 O582 O 1.13063 0.35466 0.31992
 C583 C 1.13039 0.37813 0.35407
 C584 C 1.16273 0.38267 0.37020
 C585 C 1.16838 0.40568 0.40616
 C586 C 1.13948 0.42469 0.42639
 C587 C 1.10570 0.42020 0.41066
 C588 C 1.10129 0.39658 0.37375
 H589 H 1.23583 0.36577 0.36884
 H590 H 1.26220 0.32079 0.31499
 H591 H 1.16066 0.30699 0.25978
 H592 H 1.19408 0.40875 0.41836
 H593 H 1.14348 0.44252 0.45460
 H594 H 1.07600 0.39247 0.36080
 C595 C 0.66362 -0.17807 0.32602
 C596 C 0.64303 -0.20531 0.34215
 C597 C 0.64647 -0.24348 0.32896
 C598 C 0.67164 -0.25372 0.29730
 C599 C 0.69265 -0.22586 0.27963
 C600 C 0.68914 -0.18773 0.29499
 O601 O 0.65485 -0.14303 0.34086
 C602 C 0.62820 -0.14825 0.36669
 C603 C 0.61987 -0.18577 0.36886
 C604 C 0.59175 -0.19699 0.39271
 C605 C 0.57135 -0.16821 0.41508
 C606 C 0.57929 -0.12921 0.41264
 C607 C 0.60841 -0.11945 0.38835
 H608 H 0.62986 -0.26438 0.34174
 H609 H 0.67448 -0.28321 0.28599
 H610 H 0.70459 -0.16595 0.28160
 H611 H 0.58546 -0.22668 0.39355
 H612 H 0.54913 -0.17614 0.43341
 H613 H 0.61536 -0.09006 0.38563
 C614 C 0.66690 0.33106 -0.17769
 C615 C 0.68792 0.35824 -0.16376
 C616 C 0.72281 0.35643 -0.17441
 C617 C 0.73617 0.32602 -0.20146
 C618 C 0.71454 0.29818 -0.21762
 C619 C 0.67956 0.30063 -0.20374
 O620 O 0.63443 0.33784 -0.16517
 C621 C 0.63470 0.37027 -0.14289
 C622 C 0.66674 0.38409 -0.14079
 C623 C 0.67236 0.41810 -0.11918
 C624 C 0.64392 0.43830 -0.09884
 C625 C 0.61058 0.42448 -0.10080
 C626 C 0.60617 0.38994 -0.12342
 H627 H 0.73900 0.37819 -0.16324
 H628 H 0.76281 0.32586 -0.21136
 H629 H 0.66201 0.27951 -0.21257
 H630 H 0.69770 0.42868 -0.11797
 H631 H 0.64789 0.46473 -0.08176
 H632 H 0.58129 0.37833 -0.12552
 C633 C 1.17852 0.14805 -0.14704
 C634 C 1.15661 0.17169 -0.12188
 C635 C 1.15702 0.21125 -0.12103
 C636 C 1.18133 0.22754 -0.14704
 C637 C 1.20516 0.20443 -0.17321
 C638 C 1.20362 0.16377 -0.17327
 O639 O 1.17184 0.11117 -0.14409
 C640 C 1.14515 0.11201 -0.11655
 C641 C 1.13524 0.14859 -0.10220
 C642 C 1.10712 0.15746 -0.07531
 C643 C 1.08772 0.12740 -0.06308
 C644 C 1.09686 0.08934 -0.07726
 C645 C 1.12633 0.08104 -0.10388
 H646 H 1.13898 0.22906 -0.10137
 H647 H 1.18182 0.25859 -0.14673
 H648 H 1.22080 0.14506 -0.19295
 H649 H 1.09977 0.18668 -0.06515
 H650 H 1.06494 0.13390 -0.04321
 H651 H 1.13327 0.05220 -0.11564
 C652 C 1.16309 0.65656 0.34765
 C653 C 1.16472 0.66198 0.39227
 C654 C 1.18458 0.68876 0.41136
 C655 C 1.20449 0.71010 0.38331
 C656 C 1.20523 0.70354 0.33713
 C657 C 1.18290 0.67733 0.31913
 O658 O 1.14173 0.63036 0.33637
 C659 C 1.12982 0.61878 0.37483
 C660 C 1.14337 0.63721 0.40999
 C661 C 1.13491 0.62970 0.45335
 C662 C 1.11141 0.60209 0.46083
 C663 C 1.09686 0.58268 0.42545
 C664 C 1.10586 0.59134 0.38161
 H665 H 1.18461 0.69328 0.44660
 H666 H 1.21923 0.73173 0.39793
 H667 H 1.18111 0.67289 0.28401
 H668 H 1.14568 0.64483 0.48043
 H669 H 1.10343 0.59682 0.49420
 H670 H 1.09464 0.57731 0.35402
 C671 C 0.65646 0.16360 0.36044
 C672 C 0.63358 0.18989 0.38071
 C673 C 0.63789 0.22910 0.38065
 C674 C 0.66631 0.24167 0.35772
 C675 C 0.68967 0.21528 0.33487
 C676 C 0.68489 0.17536 0.33775
 O677 O 0.64776 0.12770 0.36382
 C678 C 0.61866 0.13135 0.38654
 C679 C 0.60870 0.16876 0.39770
 C680 C 0.57852 0.17880 0.42093
 C681 C 0.55814 0.14899 0.43355
 C682 C 0.56832 0.11003 0.42308
 C683 C 0.59897 0.10144 0.39877
 H684 H 0.61974 0.24939 0.39701
 H685 H 0.66958 0.27224 0.35651
 H686 H 0.70193 0.15352 0.32246
 H687 H 0.57097 0.20846 0.42911
 H688 H 0.53468 0.15629 0.45175
 H689 H 0.60770 0.07220 0.39004
 C690 C 0.68767 0.65767 -0.11663
 C691 C 0.66023 0.68131 -0.10213
 C692 C 0.65913 0.72119 -0.10438
 C693 C 0.68607 0.73741 -0.12627
 C694 C 0.71234 0.71362 -0.14786
 C695 C 0.71497 0.67328 -0.13802
 O696 O 0.68221 0.62046 -0.11478
 C697 C 0.65014 0.62079 -0.09994
 C698 C 0.63564 0.65751 -0.09222
 C699 C 0.60112 0.66567 -0.08288
 C700 C 0.58069 0.63473 -0.08052
 C701 C 0.59496 0.59623 -0.08652
 C702 C 0.63041 0.58900 -0.09601
 H703 H 0.63724 0.73913 -0.09225
 H704 H 0.68444 0.76842 -0.13049
 H705 H 0.73582 0.65368 -0.14969
 H706 H 0.59011 0.69492 -0.07853
 H707 H 0.55380 0.64081 -0.07223
 H708 H 0.64187 0.56000 -0.10099
 C709 C 0.83410 -0.16653 -0.13940
 C710 C 0.83777 -0.13775 -0.16965
 C711 C 0.82409 -0.13848 -0.21176
 C712 C 0.80508 -0.16962 -0.22287
 C713 C 0.79955 -0.19936 -0.19178
 C714 C 0.81519 -0.19766 -0.14957
 O715 O 0.84989 -0.16098 -0.10154
 C716 C 0.86365 -0.12772 -0.10792
 C717 C 0.85677 -0.11217 -0.14902
 C718 C 0.86888 -0.07758 -0.16284
 C719 C 0.88952 -0.05873 -0.13353
 C720 C 0.89767 -0.07465 -0.09151
 C721 C 0.88431 -0.10947 -0.07826
 H722 H 0.82751 -0.11553 -0.23516
 H723 H 0.79329 -0.16882 -0.25498
 H724 H 0.81323 -0.22001 -0.12505
 H725 H 0.86319 -0.06589 -0.19531
 H726 H 0.90016 -0.03236 -0.14399
 H727 H 0.89087 -0.12255 -0.04665
 C728 C 0.83327 0.33389 0.34789
 C729 C 0.81221 0.36507 0.36182
 C730 C 0.77671 0.36782 0.35639
 C731 C 0.76215 0.33686 0.33653
 C732 C 0.78306 0.30397 0.32270
 C733 C 0.81923 0.30264 0.32776
 O734 O 0.86625 0.33683 0.35747
 C735 C 0.86587 0.37047 0.37800
 C736 C 0.83339 0.38872 0.38160
 C737 C 0.82667 0.42340 0.40342
 C738 C 0.85460 0.44019 0.42222
 C739 C 0.88862 0.42239 0.41875
 C740 C 0.89423 0.38693 0.39609
 H741 H 0.76072 0.39265 0.36769
 H742 H 0.73446 0.33805 0.33255
 H743 H 0.83563 0.27762 0.31783
 H744 H 0.80077 0.43690 0.40626
 H745 H 0.84963 0.46718 0.43942
 H746 H 0.91971 0.37228 0.39328
 C747 C 0.35337 -0.18182 0.33535
 C748 C 0.37479 -0.20869 0.35764
 C749 C 0.36846 -0.24736 0.36022
 C750 C 0.33854 -0.25856 0.33990
 C751 C 0.31570 -0.23124 0.31746
 C752 C 0.32372 -0.19249 0.31427
 O753 O 0.36259 -0.14618 0.33961
 C754 C 0.39028 -0.15065 0.36515
 C755 C 0.39895 -0.18829 0.37710
 C756 C 0.42584 -0.19889 0.40603
 C757 C 0.44428 -0.16946 0.42368
 C758 C 0.43551 -0.13027 0.41235
 C759 C 0.40832 -0.12111 0.38202
 H760 H 0.38531 -0.26792 0.37847
 H761 H 0.33259 -0.28832 0.34265
 H762 H 0.30627 -0.17093 0.29838
 H763 H 0.43188 -0.22868 0.41550
 H764 H 0.46475 -0.17716 0.44691
 H765 H 0.40038 -0.09162 0.37294
 C766 C 0.33369 0.34359 -0.15405
 C767 C 0.31846 0.35549 -0.11521
 C768 C 0.28822 0.34213 -0.09972
 C769 C 0.27290 0.31512 -0.12517
 C770 C 0.28752 0.30226 -0.16602
 C771 C 0.31829 0.31744 -0.18086
 O772 O 0.36362 0.35843 -0.16104
 C773 C 0.36702 0.38027 -0.12590
 C774 C 0.33977 0.37966 -0.09726
 C775 C 0.33769 0.40006 -0.05829
 C776 C 0.36500 0.42198 -0.04810
 C777 C 0.39397 0.42260 -0.07639
 C778 C 0.39497 0.40141 -0.11599
 H779 H 0.27700 0.35180 -0.06877
 H780 H 0.24890 0.30535 -0.11326
 H781 H 0.33099 0.30778 -0.21091
 H782 H 0.31589 0.39899 -0.03637
 H783 H 0.36388 0.43775 -0.01757
 H784 H 0.41674 0.40129 -0.13814
 C785 C 1.16752 -0.15767 0.18827
 C786 C 1.18769 -0.12988 0.17293
 C787 C 1.22207 -0.12899 0.18517
 C788 C 1.23608 -0.15789 0.21423
 C789 C 1.21570 -0.18693 0.23043
 C790 C 1.18086 -0.18654 0.21682
 O791 O 1.13557 -0.15379 0.17299
 C792 C 1.13539 -0.12280 0.14741
 C793 C 1.16660 -0.10700 0.14596
 C794 C 1.17179 -0.07442 0.12073
 C795 C 1.14371 -0.05752 0.09626
 C796 C 1.11114 -0.07317 0.09766
 C797 C 1.10723 -0.10641 0.12372
 H798 H 1.23756 -0.10685 0.17279
 H799 H 1.26266 -0.15737 0.22426
 H800 H 1.16452 -0.20857 0.22720
 H801 H 1.19653 -0.06238 0.11996
 H802 H 1.14726 -0.03202 0.07676
 H803 H 1.08294 -0.11938 0.12550
 C804 C 1.16835 0.35001 0.69135
 C805 C 1.18786 0.36198 0.65704
 C806 C 1.22253 0.34981 0.65210
 C807 C 1.23745 0.32364 0.68338
 C808 C 1.21765 0.31028 0.71869
 C809 C 1.18275 0.32479 0.72308
 O810 O 1.13548 0.36302 0.68894
 C811 C 1.13410 0.38364 0.65214
 C812 C 1.16549 0.38419 0.63148
 C813 C 1.16962 0.40316 0.59175
 C814 C 1.14018 0.42210 0.57248
 C815 C 1.10734 0.42130 0.59280
 C816 C 1.10446 0.40193 0.63343
 H817 H 1.23730 0.35922 0.62445
 H818 H 1.26394 0.31297 0.67891
 H819 H 1.16673 0.31614 0.74986
 H820 H 1.19452 0.40303 0.57591
 H821 H 1.14297 0.43670 0.54130
 H822 H 1.07990 0.40073 0.64984
 C823 C 0.65697 -0.17729 0.68828
 C824 C 0.66820 -0.18499 0.64623
 C825 C 0.70070 -0.20294 0.63741
 C826 C 0.72192 -0.21457 0.67337
 C827 C 0.70992 -0.20928 0.71732
 C828 C 0.67709 -0.18945 0.72433
 O829 O 0.62628 -0.15787 0.68992
 C830 C 0.61764 -0.15354 0.64794
 C831 C 0.64208 -0.17017 0.61974
 C832 C 0.63807 -0.16875 0.57425
 C833 C 0.60837 -0.14816 0.55727
 C834 C 0.58393 -0.12898 0.58579
 C835 C 0.58838 -0.13234 0.63175
 H836 H 0.70933 -0.20809 0.60400
 H837 H 0.74656 -0.22991 0.66652
 H838 H 0.66730 -0.18346 0.75710
 H839 H 0.65757 -0.18198 0.55259
 H840 H 0.60562 -0.14482 0.52199
 H841 H 0.57057 -0.11708 0.65414
 C842 C 0.67020 0.33435 0.16217
 C843 C 0.69002 0.36440 0.15326
 C844 C 0.72232 0.36677 0.17220
 C845 C 0.73418 0.33741 0.20193
 C846 C 0.71371 0.30657 0.21203
 C847 C 0.68162 0.30485 0.19080
 O848 O 0.63958 0.33810 0.14323
 C849 C 0.63983 0.37131 0.12190
 C850 C 0.67006 0.38869 0.12654
 C851 C 0.67483 0.42455 0.10779
 C852 C 0.64721 0.44318 0.08388
 C853 C 0.61556 0.42598 0.07993
 C854 C 0.61224 0.38930 0.09885
 H855 H 0.73741 0.39087 0.16532
 H856 H 0.75862 0.33954 0.21819
 H857 H 0.66541 0.28161 0.19703
 H858 H 0.69868 0.43795 0.11203
 H859 H 0.65005 0.47138 0.06978
 H860 H 0.58849 0.37531 0.09651
 C861 C 0.82906 0.16856 0.17683
 C862 C 0.80787 0.15031 0.14903
 C863 C 0.77221 0.15542 0.15139
 C864 C 0.75779 0.17957 0.18436
 C865 C 0.77903 0.19802 0.21413
 C866 C 0.81521 0.19313 0.20970
 O867 O 0.86223 0.15842 0.17008
 C868 C 0.86187 0.13322 0.13753
 C869 C 0.82928 0.12720 0.12348
 C870 C 0.82299 0.10081 0.09092
 C871 C 0.85150 0.07985 0.07189
 C872 C 0.88551 0.08558 0.08560
 C873 C 0.89054 0.11285 0.11898
 H874 H 0.75607 0.14064 0.12933
 H875 H 0.73003 0.18331 0.18745
 H876 H 0.83191 0.20647 0.23240
 H877 H 0.79703 0.09629 0.08078
 H878 H 0.84702 0.05917 0.04658
 H879 H 0.91600 0.11786 0.13070
 C880 C 0.82530 0.67643 0.66585
 C881 C 0.80586 0.64769 0.65167
 C882 C 0.77298 0.64310 0.66706
 C883 C 0.75988 0.66839 0.69947
 C884 C 0.77940 0.69816 0.71546
 C885 C 0.81208 0.70325 0.69684
 O886 O 0.85737 0.67271 0.65063
 C887 C 0.85799 0.64099 0.62648
 C888 C 0.82695 0.62492 0.62577
 C889 C 0.82217 0.59041 0.60501
 C890 C 0.85064 0.57139 0.58418
 C891 C 0.88329 0.58671 0.58514
 C892 C 0.88684 0.62235 0.60625
 H893 H 0.75848 0.61984 0.65588
 H894 H 0.73435 0.66466 0.71203
 H895 H 0.82803 0.72484 0.70915
 H896 H 0.79756 0.57809 0.60568
 H897 H 0.84740 0.54412 0.56850
 H898 H 0.91142 0.63468 0.60791
 C899 C 0.34445 0.16402 0.68697
 C900 C 0.35623 0.18961 0.65705
 C901 C 0.34483 0.22836 0.65647
 C902 C 0.32003 0.24115 0.68767
 C903 C 0.30706 0.21536 0.71897
 C904 C 0.32017 0.17615 0.71862
 O905 O 0.35780 0.12820 0.68124
 C906 C 0.37839 0.13128 0.64689
 C907 C 0.37855 0.16825 0.63088
 C908 C 0.39815 0.17770 0.59468
 C909 C 0.41829 0.14770 0.57410
 C910 C 0.41808 0.10918 0.58965
 C911 C 0.39787 0.10113 0.62681
 H912 H 0.35427 0.24798 0.63241
 H913 H 0.31084 0.27107 0.68624
 H914 H 0.31190 0.15533 0.74206
 H915 H 0.39785 0.20703 0.58261
 H916 H 0.43370 0.15447 0.54591
 H917 H 0.39714 0.07219 0.63981
 C918 C 0.33112 0.67493 0.16622
 C919 C 0.31092 0.65724 0.13671
 C920 C 0.27515 0.66182 0.13746
 C921 C 0.25954 0.68484 0.17065
 C922 C 0.27978 0.70293 0.20179
 C923 C 0.31608 0.69866 0.19898
 O924 O 0.36448 0.66450 0.16169
 C925 C 0.36531 0.63965 0.12873
 C926 C 0.33321 0.63429 0.11229
 C927 C 0.32789 0.60818 0.07920
 C928 C 0.35683 0.58668 0.06230
 C929 C 0.39036 0.59148 0.07865
 C930 C 0.39452 0.61863 0.11230
 H931 H 0.25983 0.64709 0.11434
 H932 H 0.23171 0.68767 0.17306
 H933 H 0.33197 0.71128 0.22327
 H934 H 0.30233 0.60423 0.06707
 H935 H 0.35299 0.56630 0.03644
 H936 H 0.41960 0.62285 0.12584
   
