data_POSCAR
  _audit_creation_date              2014-09-24
  _audit_creation_method            'ToBaCCo'
  _symmetry_space_group_name_H-M    'P1'
  _symmetry_Int_Tables_number       1
  _symmetry_cell_setting            triclinic
  loop_
  _symmetry_equiv_pos_as_xyz
 x,y,z
_cell_length_a 21.5333
_cell_length_b 29.8367
_cell_length_c 20.6588
_cell_angle_alpha 90.149800
_cell_angle_beta 90.000300
_cell_angle_gamma 90.144100
loop_
  _atom_site_label
  _atom_site_type_symbol
  _atom_site_fract_x
  _atom_site_fract_y
  _atom_site_fract_z
O1 O 0.24127 0.29273 0.16641
 O2 O 0.32865 0.20577 0.25358
 O3 O 0.24145 0.20540 0.16616
 O4 O 0.32826 0.29303 0.25395
 O5 O 0.25699 0.29278 0.33104
 O6 O 0.17021 0.20517 0.24325
 O7 O 0.25740 0.20552 0.33068
 O8 O 0.17001 0.29250 0.24350
 Cu9 Cu 0.29208 0.24924 0.20223
 Cu10 Cu 0.20645 0.24896 0.29488
 C11 C 0.19094 0.30733 0.19028
 C12 C 0.30782 0.19100 0.30687
 C13 C 0.19117 0.19048 0.18989
 C14 C 0.30727 0.30769 0.30731
 O15 O 0.82839 0.29303 0.24520
 O16 O 0.74159 0.20562 0.33278
 O17 O 0.82879 0.20575 0.24536
 O18 O 0.74141 0.29293 0.33274
 O19 O 0.67015 0.29251 0.25565
 O20 O 0.75754 0.20531 0.16826
 O21 O 0.67034 0.20520 0.25569
 O22 O 0.75713 0.29259 0.16811
 Cu23 Cu 0.79223 0.24936 0.29681
 Cu24 Cu 0.70659 0.24884 0.20416
 C25 C 0.80740 0.30757 0.19188
 C26 C 0.69129 0.19065 0.30902
 C27 C 0.80794 0.19084 0.19205
 C28 C 0.69106 0.30746 0.30892
 O29 O 0.74316 0.79440 0.66842
 O30 O 0.82953 0.70705 0.75594
 O31 O 0.74255 0.70710 0.66840
 O32 O 0.83036 0.79434 0.75585
 O33 O 0.75912 0.79467 0.83294
 O34 O 0.67128 0.70742 0.74549
 O35 O 0.75827 0.70738 0.83303
 O36 O 0.67191 0.79472 0.74553
 Cu37 Cu 0.79359 0.75070 0.70438
 Cu38 Cu 0.70795 0.75109 0.79703
 C39 C 0.69294 0.80929 0.69220
 C40 C 0.80846 0.69245 0.80924
 C41 C 0.69212 0.69251 0.69220
 C42 C 0.80959 0.80923 0.80917
 O43 O 0.24177 0.70734 0.83307
 O44 O 0.32903 0.79457 0.74566
 O45 O 0.24182 0.79466 0.83308
 O46 O 0.32875 0.70729 0.74553
 O47 O 0.25748 0.70713 0.66844
 O48 O 0.17058 0.79448 0.75599
 O49 O 0.25777 0.79441 0.66856
 O50 O 0.17050 0.70717 0.75598
 Cu51 Cu 0.29252 0.75100 0.79712
 Cu52 Cu 0.20688 0.75080 0.70448
 C53 C 0.19144 0.69250 0.80925
 C54 C 0.30816 0.80919 0.69234
 C55 C 0.19151 0.80932 0.80932
 C56 C 0.30777 0.69246 0.69221
 C57 C 1.03373 0.03312 0.03312
 C58 C 0.96830 0.03294 0.03318
 C59 C 0.93604 -0.00069 -0.00035
 C60 C 0.96833 -0.03417 -0.03393
 C61 C 1.03376 -0.03403 -0.03395
 C62 C 1.06602 -0.00038 -0.00043
 H63 H 1.11641 -0.00026 -0.00046
 H64 H 0.88566 -0.00081 -0.00032
 C65 C 0.53211 0.53366 0.53377
 C66 C 0.46668 0.53368 0.53363
 C67 C 0.43432 0.50011 0.50006
 C68 C 0.46653 0.46651 0.46664
 C69 C 0.53195 0.46646 0.46683
 C70 C 0.56431 0.50004 0.50038
 H71 H 0.61470 0.50001 0.50051
 H72 H 0.38394 0.50014 0.49993
 C73 C -0.03348 0.46634 0.03351
 C74 C 0.03195 0.46629 0.03332
 C75 C 0.06432 0.49988 0.00005
 C76 C 0.03211 0.53351 -0.03306
 C77 C -0.03332 0.53354 -0.03292
 C78 C -0.06568 0.49996 0.00038
 H79 H -0.11606 0.49999 0.00050
 H80 H 0.11470 0.49985 -0.00008
 C81 C 0.46833 0.96708 0.53326
 C82 C 0.53376 0.96722 0.53328
 C83 C 0.56603 1.00069 0.49965
 C84 C 0.53373 1.03401 0.46598
 C85 C 0.46830 1.03384 0.46592
 C86 C 0.43604 1.00038 0.49957
 H87 H 0.38566 1.00026 0.49954
 H88 H 0.61641 1.00081 0.49968
 C89 C 1.15917 0.15818 0.15760
 C90 C 1.13068 0.12949 0.12899
 C91 C 1.09722 0.09592 0.09558
 C92 C 1.06847 0.06730 0.06711
 C93 C 0.65801 0.65847 0.65821
 C94 C 0.62936 0.62984 0.62966
 C95 C 0.59577 0.59633 0.59627
 C96 C 0.56694 0.56777 0.56779
 C97 C -0.15883 0.34163 0.15781
 C98 C -0.13041 0.37025 0.12922
 C99 C -0.09702 0.40373 0.09582
 C100 C -0.06828 0.43227 0.06739
 C101 C 0.34225 0.84307 0.65824
 C102 C 0.37097 0.87151 0.62958
 C103 C 0.40466 0.90477 0.59605
 C104 C 0.43355 0.93314 0.56745
 C105 C -0.15797 0.65838 -0.15675
 C106 C -0.12973 0.62974 -0.12824
 C107 C -0.09653 0.59622 -0.09495
 C108 C -0.06796 0.56765 -0.06664
 C109 C 0.34199 1.15726 0.34092
 C110 C 0.37077 1.12895 0.36955
 C111 C 0.40454 1.09585 0.40308
 C112 C 0.43347 1.06761 0.43170
 C113 C 1.15945 -0.15850 -0.15844
 C114 C 1.13089 -0.12994 -0.12986
 C115 C 1.09735 -0.09653 -0.09645
 C116 C 1.06854 -0.06805 -0.06797
 C117 C 0.65715 0.34152 0.34285
 C118 C 0.62868 0.37016 0.37133
 C119 C 0.59529 0.40371 0.40461
 C120 C 0.56662 0.43231 0.43297
 C121 C 0.84200 -0.15867 -0.15859
 C122 C 0.87082 -0.13015 -0.12998
 C123 C 0.90461 -0.09677 -0.09653
 C124 C 0.93354 -0.06828 -0.06801
 C125 C 0.34108 0.34179 0.34152
 C126 C 0.36953 0.37043 0.37026
 C127 C 0.40296 0.40391 0.40387
 C128 C 0.43171 0.43245 0.43250
 C129 C 0.15756 0.65843 -0.15682
 C130 C 0.12909 0.62977 -0.12836
 C131 C 0.09567 0.59622 -0.09513
 C132 C 0.06692 0.56763 -0.06683
 C133 C 0.65926 1.15847 0.34129
 C134 C 0.63074 1.12990 0.36990
 C135 C 0.59724 1.09649 0.40336
 C136 C 0.56847 1.06802 0.43189
 C137 C 0.15706 0.34135 0.15648
 C138 C 0.12862 0.36998 0.12815
 C139 C 0.09527 0.40352 0.09507
 C140 C 0.06661 0.43213 0.06692
 C141 C 0.65921 0.84324 0.65809
 C142 C 0.63076 0.87172 0.62946
 C143 C 0.59730 0.90501 0.59597
 C144 C 0.56854 0.93337 0.56741
 C145 C 0.84207 0.15697 0.15796
 C146 C 0.87082 0.12853 0.12934
 C147 C 0.90456 0.09527 0.09586
 C148 C 0.93348 0.06689 0.06730
 C149 C 0.34158 0.65842 0.65814
 C150 C 0.37000 0.62981 0.62953
 C151 C 0.40336 0.59633 0.59609
 C152 C 0.43202 0.56778 0.56761
   
