data_POSCAR
  _audit_creation_date              2014-09-24
  _audit_creation_method            'ToBaCCo'
  _symmetry_space_group_name_H-M    'P1'
  _symmetry_Int_Tables_number       1
  _symmetry_cell_setting            triclinic
  loop_
  _symmetry_equiv_pos_as_xyz
 x,y,z
_cell_length_a 35.4926
_cell_length_b 35.8108
_cell_length_c 35.4218
_cell_angle_alpha 89.966600
_cell_angle_beta 89.888900
_cell_angle_gamma 90.464100
loop_
  _atom_site_label
  _atom_site_type_symbol
  _atom_site_fract_x
  _atom_site_fract_y
  _atom_site_fract_z
N1 N 0.20546 1.20701 0.20394
 N2 N 0.79177 0.79352 0.20265
 N3 N 0.80625 1.19718 -0.19715
 N4 N 0.20186 0.79667 -0.20602
 C5 C 0.53816 1.06732 -0.02110
 H6 H 0.52241 1.07978 0.00172
 C7 C 0.56564 1.08841 -0.03986
 H8 H 0.57029 1.11727 -0.03187
 C9 C 0.55307 1.01405 -0.05774
 H10 H 0.54874 0.98470 -0.06367
 C11 C 0.58047 1.03428 -0.07761
 H12 H 0.59714 1.02038 -0.09895
 N13 N 0.53244 1.03082 -0.03025
 C14 C 0.46210 1.02479 0.06642
 H15 H 0.47762 1.00312 0.08068
 C16 C 0.43483 1.04498 0.08617
 H17 H 0.42976 1.03858 0.11562
 C18 C 0.44752 1.05707 0.00997
 H19 H 0.45211 1.06099 -0.01998
 C20 C 0.42048 1.07819 0.02864
 H21 H 0.40509 1.09898 0.01289
 Zn22 Zn 0.49945 1.00091 -0.00088
 N23 N 0.46772 1.03107 0.02894
 C24 C 0.55174 0.98616 0.05625
 N25 N 0.53007 0.96983 0.02918
 C26 C 0.53291 0.93278 0.02129
 C27 C 0.55843 0.91064 0.04096
 C28 C 0.57742 0.96497 0.07683
 C29 C 0.46267 0.97713 -0.06893
 C30 C 0.43504 0.95727 -0.08889
 C31 C 0.41691 0.92659 -0.03079
 C32 C 0.44441 0.94728 -0.01197
 N33 N 0.46671 0.97183 -0.03112
 H34 H 0.54959 1.01586 0.06128
 H35 H 0.51634 0.92056 -0.00114
 H36 H 0.56063 0.88129 0.03405
 H37 H 0.59504 0.97857 0.09772
 H38 H 0.47984 0.99770 -0.08339
 H39 H 0.43135 0.96277 -0.11870
 H40 H 0.39986 0.90691 -0.01488
 H41 H 0.44780 0.94413 0.01821
 C42 C 0.41322 1.07183 0.06713
 C43 C 0.58736 1.07179 -0.06830
 C44 C 0.41139 0.93187 -0.06968
 C45 C 0.58133 0.92680 0.06889
 C46 C -0.01254 0.55272 1.05890
 H47 H 0.01760 0.55020 1.06251
 C48 C -0.03252 0.57835 1.08053
 H49 H -0.01753 0.59477 1.10138
 C50 C -0.06827 0.53413 1.02710
 H51 H -0.08183 0.51758 1.00548
 C52 C -0.08934 0.55989 1.04779
 H53 H -0.11906 0.56277 1.04179
 N54 N -0.03056 0.53110 1.03299
 C55 C 0.05809 0.44943 1.01586
 H56 H 0.06230 0.45240 0.98574
 C57 C 0.08002 0.42441 1.03634
 H58 H 0.10111 0.40809 1.02180
 C59 C 0.02411 0.46577 1.07102
 H60 H 0.00164 0.48121 1.08423
 C61 C 0.04511 0.44073 1.09251
 H62 H 0.03914 0.43767 1.12235
 Zn63 Zn 0.00038 0.50035 1.00288
 N64 N 0.03101 0.46972 1.03342
 C65 C 0.06736 0.53825 0.97899
 N66 N 0.02986 0.53310 0.97287
 C67 C 0.01119 0.55353 0.94665
 C68 C 0.03036 0.57993 0.92477
 C69 C 0.08759 0.56480 0.95806
 C70 C -0.05501 0.44592 0.98906
 C71 C -0.07467 0.41902 0.96827
 C72 C -0.03864 0.43696 0.91312
 C73 C -0.02001 0.46385 0.93485
 N74 N -0.02844 0.46782 0.97212
 H75 H 0.08142 0.52264 1.00086
 H76 H -0.01878 0.54931 0.94283
 H77 H 0.01493 0.59526 0.90357
 H78 H 0.11716 0.56922 0.96415
 H79 H -0.06040 0.44893 1.01897
 H80 H -0.09528 0.40136 0.98232
 H81 H -0.03128 0.43379 0.88362
 H82 H 0.00209 0.48060 0.92219
 C83 C 0.07340 0.41961 1.07512
 C84 C -0.07140 0.58270 1.07475
 C85 C -0.06618 0.41399 0.92991
 C86 C 0.06906 0.58623 0.93057
 C87 C 1.06616 -0.02405 0.53285
 H88 H 1.07940 -0.00200 0.51663
 C89 C 1.08764 -0.04463 0.55835
 H90 H 1.11750 -0.03877 0.56100
 C91 C 1.01095 -0.05737 0.55069
 H92 H 0.98083 -0.06149 0.54812
 C93 C 1.03143 -0.07892 0.57614
 H94 H 1.01691 -0.09965 0.59318
 N95 N 1.02854 -0.03083 0.52941
 C96 C 1.02294 0.06670 0.46252
 H97 H 1.00149 0.08032 0.47909
 C98 C 1.04412 0.08748 0.43652
 H99 H 1.03867 0.11703 0.43350
 C100 C 1.05393 0.01123 0.44416
 H101 H 1.05714 -0.01866 0.44698
 C102 C 1.07598 0.03094 0.41820
 H103 H 1.09665 0.01598 0.40172
 Zn104 Zn 0.99813 -0.00083 0.49801
 N105 N 1.02831 0.02928 0.46592
 C106 C 0.98621 0.05511 0.55146
 N107 N 0.96827 0.02862 0.53052
 C108 C 0.93085 0.02136 0.53519
 C109 C 0.90995 0.04138 0.56172
 C110 C 0.96627 0.07621 0.57777
 C111 C 0.97351 -0.06770 0.46171
 C112 C 0.95254 -0.08821 0.43544
 C113 C 0.91960 -0.03182 0.41873
 C114 C 0.94145 -0.01236 0.44497
 N115 N 0.96758 -0.03047 0.46599
 H116 H 1.01620 0.05955 0.54796
 H117 H 0.91739 -0.00066 0.51919
 H118 H 0.88028 0.03509 0.56550
 H119 H 0.98104 0.09698 0.59446
 H120 H 0.99532 -0.08134 0.47772
 H121 H 0.95850 -0.11758 0.43168
 H122 H 0.89860 -0.01683 0.40276
 H123 H 0.93780 0.01741 0.44848
 C124 C 1.07098 0.06958 0.41375
 C125 C 1.07023 -0.07243 0.58039
 C126 C 0.92527 -0.07024 0.41332
 C127 C 0.92773 0.06918 0.58333
 C128 C 0.15442 0.30319 1.15449
 C129 C 0.13237 0.27726 1.17533
 C130 C 0.14936 0.24617 1.19216
 C131 C 0.18836 0.24048 1.18903
 C132 C 0.21032 0.26706 1.16968
 C133 C 0.19369 0.29795 1.15260
 C134 C 0.13477 0.33468 1.13491
 C135 C 0.15367 0.36038 1.11120
 C136 C 0.13379 0.38819 1.09229
 C137 C 0.09470 0.39138 1.09679
 C138 C 0.07571 0.36638 1.12081
 C139 C 0.09527 0.33789 1.13943
 C140 C 0.09342 0.28218 1.17885
 C141 C 0.07533 0.31203 1.16159
 H142 H 0.07659 0.26251 1.19508
 H143 H 0.04510 0.31448 1.16503
 H144 H 0.13198 0.22582 1.20687
 H145 H 0.24052 0.26361 1.16738
 H146 H 0.14903 0.40731 1.07399
 H147 H 0.04538 0.36826 1.12391
 H148 H 0.21207 0.31720 1.13791
 H149 H 0.18362 0.35914 1.10633
 C150 C -0.15336 0.69990 1.15311
 C151 C -0.13306 0.73323 1.16094
 C152 C -0.15108 0.76334 1.17842
 C153 C -0.18946 0.76131 1.18744
 C154 C -0.20969 0.72850 1.17966
 C155 C -0.19190 0.69802 1.16287
 C156 C -0.13304 0.66862 1.13381
 C157 C -0.15009 0.63385 1.12570
 C158 C -0.13008 0.60596 1.10691
 C159 C -0.09259 0.61197 1.09556
 C160 C -0.07535 0.64643 1.10388
 C161 C -0.09499 0.67442 1.12312
 C162 C -0.09516 0.73676 1.15046
 C163 C -0.07665 0.70814 1.13163
 H164 H -0.07970 0.76231 1.15637
 H165 H -0.04744 0.71246 1.12364
 H166 H -0.13563 0.78900 1.18391
 H167 H -0.23943 0.72673 1.18637
 H168 H -0.14396 0.57946 1.10155
 H169 H -0.04665 0.65186 1.09480
 H170 H -0.20893 0.67359 1.15723
 H171 H -0.17876 0.62753 1.13376
 C172 C -0.13708 0.28999 0.85094
 C173 C -0.17673 0.28666 0.85360
 C174 C -0.19550 0.25636 0.83664
 C175 C -0.17539 0.22801 0.81787
 C176 C -0.13583 0.23152 0.81584
 C177 C -0.11704 0.26195 0.83187
 C178 C -0.11810 0.32267 0.86961
 C179 C -0.07901 0.32952 0.86701
 C180 C -0.06250 0.35958 0.88599
 C181 C -0.08440 0.38352 0.90815
 C182 C -0.12346 0.37756 0.91021
 C183 C -0.14046 0.34766 0.89082
 C184 C -0.19740 0.31315 0.87387
 C185 C -0.17961 0.34270 0.89249
 H186 H -0.22778 0.31059 0.87602
 H187 H -0.19681 0.36201 0.90840
 H188 H -0.22599 0.25478 0.83810
 H189 H -0.11906 0.20992 0.80280
 H190 H -0.03227 0.36362 0.88406
 H191 H -0.14062 0.39637 0.92680
 H192 H -0.08674 0.26245 0.82973
 H193 H -0.06064 0.31202 0.85058
 C194 C 0.14870 0.70382 0.84838
 C195 C 0.12766 0.73589 0.83873
 C196 C 0.14510 0.76581 0.81978
 C197 C 0.18356 0.76478 0.81102
 C198 C 0.20457 0.73342 0.82105
 C199 C 0.18740 0.70313 0.83927
 C200 C 0.12896 0.67254 0.86880
 C201 C 0.14673 0.63874 0.87825
 C202 C 0.12725 0.61078 0.89792
 C203 C 0.08959 0.61571 0.90889
 C204 C 0.07159 0.64917 0.89919
 C205 C 0.09071 0.67723 0.87898
 C206 C 0.08961 0.73834 0.84882
 C207 C 0.07166 0.70983 0.86889
 H208 H 0.07358 0.76295 0.84158
 H209 H 0.04230 0.71331 0.87647
 H210 H 0.12911 0.79053 0.81276
 H211 H 0.23443 0.73255 0.81478
 H212 H 0.14170 0.58501 0.90422
 H213 H 0.04269 0.65376 0.90784
 H214 H 0.20503 0.67982 0.84650
 H215 H 0.17554 0.63320 0.87050
 C216 C 1.15294 0.15158 0.29716
 C217 C 1.16045 0.13211 0.26320
 C218 C 1.17877 0.15027 0.23320
 C219 C 1.18912 0.18799 0.23598
 C220 C 1.18173 0.20737 0.26947
 C221 C 1.16401 0.18943 0.29982
 C222 C 1.13268 0.13117 0.32829
 C223 C 1.12458 0.14750 0.36357
 C224 C 1.10491 0.12748 0.39129
 C225 C 1.09267 0.09069 0.38462
 C226 C 1.10096 0.07414 0.34967
 C227 C 1.12101 0.09383 0.32180
 C228 C 1.14887 0.09489 0.25897
 C229 C 1.12931 0.07627 0.28751
 H230 H 1.15457 0.08006 0.23293
 H231 H 1.12055 0.04761 0.28264
 H232 H 1.18395 0.13543 0.20705
 H233 H 1.18951 0.23657 0.27190
 H234 H 1.09957 0.14078 0.41819
 H235 H 1.09124 0.04598 0.34378
 H236 H 1.15875 0.20582 0.32478
 H237 H 1.13329 0.17561 0.37041
 C238 C 1.15054 -0.15244 0.69767
 C239 C 1.17123 -0.13050 0.72374
 C240 C 1.18850 -0.14738 0.75494
 C241 C 1.18610 -0.18619 0.76055
 C242 C 1.16693 -0.20800 0.73372
 C243 C 1.14932 -0.19146 0.70278
 C244 C 1.13055 -0.13300 0.66606
 C245 C 1.10676 -0.15184 0.64040
 C246 C 1.08761 -0.13220 0.61239
 C247 C 1.09196 -0.09342 0.60895
 C248 C 1.11595 -0.07444 0.63397
 C249 C 1.13476 -0.09377 0.66271
 C250 C 1.17430 -0.09180 0.71878
 C251 C 1.15681 -0.07389 0.68869
 H252 H 1.19043 -0.07503 0.73855
 H253 H 1.15998 -0.04386 0.68617
 H254 H 1.20308 -0.13004 0.77536
 H255 H 1.16524 -0.23803 0.73692
 H256 H 1.06927 -0.14739 0.59329
 H257 H 1.11889 -0.04434 0.63189
 H258 H 1.13486 -0.20973 0.68333
 H259 H 1.10202 -0.18158 0.64183
 C260 C 0.84488 -0.15163 0.29561
 C261 C 0.83652 -0.13166 0.26216
 C262 C 0.81821 -0.14966 0.23208
 C263 C 0.80862 -0.18761 0.23443
 C264 C 0.81732 -0.20754 0.26723
 C265 C 0.83503 -0.18983 0.29760
 C266 C 0.86470 -0.13135 0.32699
 C267 C 0.87318 -0.14816 0.36193
 C268 C 0.89241 -0.12825 0.38992
 C269 C 0.90383 -0.09109 0.38390
 C270 C 0.89503 -0.07401 0.34934
 C271 C 0.87539 -0.09362 0.32117
 C272 C 0.84715 -0.09410 0.25856
 C273 C 0.86647 -0.07560 0.28728
 H274 H 0.84086 -0.07888 0.23291
 H275 H 0.87447 -0.04664 0.28291
 H276 H 0.81220 -0.13447 0.20633
 H277 H 0.81035 -0.23697 0.26922
 H278 H 0.89807 -0.14197 0.41653
 H279 H 0.90404 -0.04551 0.34397
 H280 H 0.84118 -0.20665 0.32204
 H281 H 0.86509 -0.17655 0.36832
 C282 C 0.85191 0.14746 0.70482
 C283 C 0.83465 0.12512 0.73299
 C284 C 0.81919 0.14177 0.76531
 C285 C 0.81972 0.18090 0.77011
 C286 C 0.83531 0.20290 0.74087
 C287 C 0.85122 0.18655 0.70890
 C288 C 0.87045 0.12839 0.67205
 C289 C 0.89158 0.14782 0.64447
 C290 C 0.90968 0.12858 0.61544
 C291 C 0.90677 0.08963 0.61285
 C292 C 0.88538 0.07003 0.63976
 C293 C 0.86785 0.08898 0.66963
 C294 C 0.83315 0.08623 0.72895
 C295 C 0.84891 0.06860 0.69768
 H296 H 0.81957 0.06911 0.75032
 H297 H 0.84702 0.03842 0.69591
 H298 H 0.80792 0.12399 0.78746
 H299 H 0.83509 0.23309 0.74273
 H300 H 0.92615 0.14418 0.59494
 H301 H 0.88369 0.03982 0.63828
 H302 H 0.86273 0.20505 0.68772
 H303 H 0.89518 0.17773 0.64522
 C304 C 0.29184 1.15098 0.14269
 C305 C 0.29642 1.15884 0.18160
 C306 C 0.26783 1.17724 0.20160
 C307 C 0.23507 1.18886 0.18315
 C308 C 0.23091 1.18185 0.14450
 C309 C 0.25885 1.16315 0.12444
 C310 C 0.32250 1.13036 0.12258
 C311 C 0.31948 1.11902 0.08465
 C312 C 0.34879 1.10001 0.06707
 C313 C 0.38217 1.09194 0.08657
 C314 C 0.38524 1.10268 0.12460
 C315 C 0.35560 1.12137 0.14277
 C316 C 0.32959 1.14861 0.20016
 C317 C 0.35873 1.13072 0.18105
 H318 H 0.33323 1.15483 0.22987
 H319 H 0.38395 1.12369 0.19663
 H320 H 0.27106 1.18294 0.23148
 H321 H 0.20563 1.19049 0.12996
 H322 H 0.34495 1.09109 0.03813
 H323 H 0.41080 1.09674 0.14009
 H324 H 0.25405 1.15867 0.09475
 H325 H 0.29457 1.12407 0.06812
 C326 C 0.71352 1.14842 -0.13966
 C327 C 0.71511 1.14803 -0.17955
 C328 C 0.74548 1.16510 -0.19853
 C329 C 0.77560 1.18167 -0.17847
 C330 C 0.77396 1.18112 -0.13868
 C331 C 0.74348 1.16503 -0.11964
 C332 C 0.68050 1.13012 -0.12047
 C333 C 0.67509 1.13110 -0.08105
 C334 C 0.64448 1.11272 -0.06443
 C335 C 0.61857 1.09276 -0.08655
 C336 C 0.62314 1.09226 -0.12589
 C337 C 0.65354 1.11118 -0.14299
 C338 C 0.68677 1.12994 -0.20029
 C339 C 0.65697 1.11143 -0.18239
 H340 H 0.68803 1.12946 -0.23086
 H341 H 0.63616 1.09727 -0.19970
 H342 H 0.74564 1.16553 -0.22913
 H343 H 0.79699 1.19228 -0.12202
 H344 H 0.64148 1.11343 -0.03400
 H345 H 0.60280 1.07738 -0.14317
 H346 H 0.74442 1.16519 -0.08922
 H347 H 0.69409 1.14588 -0.06252
 C348 C 0.28917 0.85274 -0.14528
 C349 C 0.29473 0.84257 -0.18351
 C350 C 0.26594 0.82397 -0.20341
 C351 C 0.23191 0.81468 -0.18545
 C352 C 0.22693 0.82371 -0.14733
 C353 C 0.25508 0.84251 -0.12744
 C354 C 0.31999 0.87364 -0.12535
 C355 C 0.31603 0.88727 -0.08830
 C356 C 0.34555 0.90629 -0.07074
 C357 C 0.38005 0.91213 -0.08937
 C358 C 0.38404 0.89931 -0.12665
 C359 C 0.35421 0.88051 -0.14483
 C360 C 0.32902 0.85079 -0.20146
 C361 C 0.35829 0.86890 -0.18238
 H362 H 0.33342 0.84281 -0.23063
 H363 H 0.38439 0.87431 -0.19744
 H364 H 0.26985 0.81655 -0.23281
 H365 H 0.20079 0.81668 -0.13310
 H366 H 0.34107 0.91689 -0.04248
 H367 H 0.41046 0.90364 -0.14146
 H368 H 0.24954 0.84862 -0.09817
 H369 H 0.29026 0.88401 -0.07245
 C370 C 0.70067 0.84461 0.14320
 C371 C 0.70410 0.84885 0.18278
 C372 C 0.73345 0.83115 0.20222
 C373 C 0.76034 0.80992 0.18276
 C374 C 0.75690 0.80602 0.14346
 C375 C 0.72749 0.82290 0.12397
 C376 C 0.66921 0.86428 0.12341
 C377 C 0.66263 0.86083 0.08434
 C378 C 0.63374 0.88066 0.06701
 C379 C 0.61065 0.90448 0.08806
 C380 C 0.61640 0.90755 0.12712
 C381 C 0.64521 0.88747 0.14494
 C382 C 0.67872 0.87133 0.20260
 C383 C 0.65015 0.89050 0.18404
 H384 H 0.68137 0.87466 0.23289
 H385 H 0.63162 0.90801 0.20059
 H386 H 0.73571 0.83430 0.23257
 H387 H 0.77749 0.79041 0.12750
 H388 H 0.63001 0.87799 0.03679
 H389 H 0.59827 0.92548 0.14368
 H390 H 0.72678 0.81913 0.09379
 H391 H 0.67950 0.84314 0.06655
   
