data_POSCAR
  _audit_creation_date              2014-09-24
  _audit_creation_method            'ToBaCCo'
  _symmetry_space_group_name_H-M    'P1'
  _symmetry_Int_Tables_number       1
  _symmetry_cell_setting            triclinic
  loop_
  _symmetry_equiv_pos_as_xyz
 x,y,z
_cell_length_a 23.4054
_cell_length_b 23.7523
_cell_length_c 24.9581
_cell_angle_alpha 92.196500
_cell_angle_beta 90.304600
_cell_angle_gamma 89.380500
loop_
  _atom_site_label
  _atom_site_type_symbol
  _atom_site_fract_x
  _atom_site_fract_y
  _atom_site_fract_z
C1 C 0.15548 0.16529 0.23821
 C2 C 0.13648 0.21330 0.21258
 C3 C 0.16456 0.23321 0.16820
 C4 C 0.21197 0.20344 0.14715
 C5 C 0.23300 0.15430 0.17122
 C6 C 0.20427 0.13584 0.21723
 H7 H 0.09965 0.23667 0.22818
 H8 H 0.23181 0.21932 0.11225
 H9 H 0.22040 0.09858 0.23597
 C10 C -0.17725 0.81496 0.26660
 C11 C -0.15645 0.76654 0.23794
 C12 C -0.18211 0.74748 0.18909
 C13 C -0.22934 0.77724 0.16963
 C14 C -0.24960 0.82680 0.19614
 C15 C -0.22368 0.84496 0.24427
 H16 H -0.12126 0.74313 0.25482
 H17 H -0.25032 0.76095 0.13367
 H18 H -0.23992 0.88367 0.26263
 C19 C -0.18896 0.18714 -0.24571
 C20 C -0.23599 0.16116 -0.22188
 C21 C -0.25777 0.18075 -0.17207
 C22 C -0.23262 0.22725 -0.14600
 C23 C -0.18569 0.25408 -0.16768
 C24 C -0.16390 0.23410 -0.21801
 H25 H -0.25634 0.12612 -0.24302
 H26 H -0.24955 0.24248 -0.10767
 H27 H -0.12852 0.25534 -0.23553
 C28 C 0.15021 0.83287 -0.25113
 C29 C 0.12747 0.78504 -0.22807
 C30 C 0.15775 0.75658 -0.18890
 C31 C 0.21218 0.77515 -0.17349
 C32 C 0.23415 0.82502 -0.19265
 C33 C 0.20339 0.85345 -0.23189
 H34 H 0.08612 0.76924 -0.24106
 H35 H 0.23808 0.74987 -0.14762
 H36 H 0.22190 0.89122 -0.24667
 C37 C 0.18417 1.17371 0.73793
 C38 C 0.22964 1.14852 0.76574
 C39 C 0.24728 1.17011 0.81649
 C40 C 0.21919 1.21764 0.83889
 C41 C 0.17435 1.24391 0.81142
 C42 C 0.15642 1.22120 0.76193
 H43 H 0.25166 1.11280 0.74693
 H44 H 0.23199 1.23340 0.87836
 H45 H 0.12035 1.24136 0.74327
 C46 C 0.84756 0.82782 0.75772
 C47 C 0.79392 0.84463 0.77789
 C48 C 0.76807 0.81660 0.81918
 C49 C 0.79595 0.77017 0.84136
 C50 C 0.85045 0.75203 0.82310
 C51 C 0.87533 0.78115 0.78066
 H52 H 0.77024 0.87902 0.76122
 H53 H 0.77381 0.74746 0.87119
 H54 H 0.91674 0.76749 0.76544
 C55 C 0.17058 0.84408 1.26475
 C56 C 0.14682 0.79480 1.24118
 C57 C 0.16701 0.77215 1.19244
 C58 C 0.21114 0.79976 1.16612
 C59 C 0.23695 0.84794 1.18999
 C60 C 0.21580 0.86994 1.23875
 H61 H 0.11281 0.77272 1.26005
 H62 H 0.22426 0.78465 1.12673
 H63 H 0.23516 0.90749 1.25674
 C64 C 0.82682 1.18197 1.24205
 C65 C 0.77950 1.15300 1.21945
 C66 C 0.75401 1.16902 1.17120
 C67 C 0.77706 1.21508 1.14454
 C68 C 0.82473 1.24459 1.16531
 C69 C 0.84886 1.22765 1.21432
 H70 H 0.76172 1.11722 1.23853
 H71 H 0.75858 1.22859 1.10739
 H72 H 0.88425 1.25058 1.23212
 N73 N 0.55605 1.07108 0.92432
 N74 N 0.59664 1.10678 0.91272
 N75 N 0.43875 1.02492 0.88886
 N76 N 0.39766 1.02709 0.85265
 N77 N 0.43581 1.06858 0.92265
 N78 N 0.39278 1.10204 0.90996
 N79 N 0.55848 1.02639 0.89174
 N80 N 0.60055 1.03036 0.85718
 C81 C 0.62407 1.08060 0.87082
 C82 C 0.36931 1.07528 0.86631
 N83 N 0.43938 0.87331 0.94104
 N84 N 0.39368 0.84126 0.93850
 N85 N 0.56075 0.90613 0.90316
 N86 N 0.60607 0.89486 0.87327
 N87 N 0.55933 0.87262 0.94361
 N88 N 0.60359 0.83788 0.94281
 N89 N 0.44089 0.90601 0.89994
 N90 N 0.39643 0.89726 0.86822
 Mn91 Mn 0.49998 0.96578 0.89539
 C92 C 0.36765 0.85653 0.89266
 C93 C 0.63213 0.85200 0.89864
 N94 N 0.43411 1.08516 1.03868
 N95 N 0.38969 1.11980 1.04162
 N96 N 0.55667 1.05474 1.08025
 N97 N 0.60005 1.06914 1.11222
 N98 N 0.55440 1.08783 1.03921
 N99 N 0.59571 1.12510 1.04198
 N100 N 0.43527 1.05253 1.08008
 N101 N 0.39130 1.06407 1.11209
 Mn102 Mn 0.49487 1.07882 0.98126
 C103 C 0.36326 1.10627 1.08746
 C104 C 0.62394 1.11325 1.08752
 N105 N 0.55810 0.88888 1.05662
 N106 N 0.60260 0.85566 1.06326
 N107 N 0.43772 0.93159 1.09028
 N108 N 0.39431 0.92669 1.12357
 N109 N 0.43902 0.88864 1.05556
 N110 N 0.39771 0.85319 1.06443
 N111 N 0.55891 0.93209 1.09110
 N112 N 0.60415 0.92856 1.12308
 Mn113 Mn 0.49873 0.88047 0.99931
 Mn114 Mn 0.49737 0.99291 1.08647
 Cl115 Cl 0.49778 0.97971 0.99077
 C116 C 0.63069 0.88036 1.10482
 C117 C 0.36999 0.87737 1.10656
 N118 N 0.09237 0.44320 0.09467
 N119 N 0.10044 0.39747 0.12201
 N120 N 0.12474 0.56314 0.06312
 N121 N 0.15911 0.60630 0.06937
 N122 N 0.08707 0.56238 0.10174
 N123 N 0.09450 0.60615 0.13543
 N124 N 0.13041 0.44593 0.05652
 N125 N 0.16584 0.40235 0.05702
 C126 C 0.14654 0.37266 0.09819
 C127 C 0.13984 0.63284 0.11435
 N128 N 0.07654 0.56572 -0.08606
 N129 N 0.07992 0.60932 -0.11689
 N130 N 0.12460 0.44951 -0.05718
 N131 N 0.16253 0.40917 -0.06628
 N132 N 0.08330 0.44727 -0.09285
 N133 N 0.09176 0.40424 -0.12723
 N134 N 0.11765 0.56660 -0.05018
 N135 N 0.15002 0.61105 -0.05510
 Mn136 Mn 0.12470 0.50629 0.00304
 C137 C 0.12593 0.63704 -0.09684
 C138 C 0.14159 0.38127 -0.10982
 N139 N -0.03530 0.55611 0.10766
 N140 N -0.04046 0.59712 0.14428
 N141 N -0.07260 0.43644 0.06568
 N142 N -0.10686 0.39369 0.07494
 N143 N -0.03023 0.43791 0.10056
 N144 N -0.03431 0.39634 0.13388
 N145 N -0.07828 0.55629 0.07352
 N146 N -0.11426 0.59817 0.08672
 Mn147 Mn 0.02848 0.49991 0.10171
 C148 C -0.08969 0.62305 0.13121
 C149 C -0.08204 0.36888 0.11762
 N150 N -0.03889 0.44330 -0.08951
 N151 N -0.04461 0.40344 -0.12713
 N152 N -0.08416 0.55900 -0.04382
 N153 N -0.12247 0.59992 -0.04801
 N154 N -0.04612 0.56140 -0.08227
 N155 N -0.05761 0.60395 -0.11346
 N156 N -0.07808 0.43963 -0.05227
 N157 N -0.11219 0.39666 -0.06445
 Mn158 Mn 0.01861 0.50445 -0.08823
 Mn159 Mn -0.07942 0.49772 0.01079
 Cl160 Cl 0.02264 0.50202 0.00690
 C161 C -0.09024 0.37459 -0.11136
 C162 C -0.10536 0.62771 -0.09154
 N163 N 1.05396 0.12254 0.54184
 N164 N 1.06229 0.16276 0.57874
 N165 N 1.08610 0.05944 0.43654
 N166 N 1.12242 0.05568 0.39658
 N167 N 1.04845 0.10007 0.43013
 N168 N 1.05908 0.12566 0.38490
 N169 N 1.09098 0.08128 0.54731
 N170 N 1.12561 0.09223 0.58818
 C171 C 1.10727 0.14346 0.60698
 C172 C 1.10541 0.09679 0.36452
 N173 N 1.03956 -0.09357 0.45636
 N174 N 1.04242 -0.13366 0.41849
 N175 N 1.08647 -0.03763 0.56263
 N176 N 1.12447 -0.03951 0.60156
 N177 N 1.04702 -0.07581 0.56788
 N178 N 1.05695 -0.10466 0.61123
 N179 N 1.08124 -0.05770 0.45186
 N180 N 1.11354 -0.07197 0.41049
 Mn181 Mn 1.08662 0.01141 0.49989
 C182 C 1.08887 -0.11947 0.39039
 C183 C 1.10540 -0.08119 0.63168
 N184 N 0.92331 0.10800 0.43721
 N185 N 0.91395 0.13435 0.39217
 N186 N 0.89185 0.09183 0.55844
 N187 N 0.86390 0.10467 0.60316
 N188 N 0.93151 0.12927 0.54994
 N189 N 0.93156 0.16833 0.58940
 N190 N 0.88182 0.07278 0.44625
 N191 N 0.84342 0.07399 0.40732
 Mn192 Mn 0.98919 0.11585 0.48924
 C193 C 0.86379 0.11265 0.37398
 C194 C 0.88872 0.15275 0.62209
 N195 N 0.92570 -0.07066 0.57309
 N196 N 0.92025 -0.10144 0.61548
 N197 N 0.87776 -0.04655 0.46123
 N198 N 0.84068 -0.05478 0.42197
 N199 N 0.91646 -0.08705 0.46078
 N200 N 0.90669 -0.12388 0.42051
 N201 N 0.88793 -0.02941 0.57326
 N202 N 0.85508 -0.03156 0.61613
 Mn203 Mn 0.98208 -0.08252 0.51428
 Mn204 Mn 0.88413 0.02234 0.51018
 Cl205 Cl 0.98532 0.01693 0.50332
 C206 C 0.87629 -0.07659 0.64216
 C207 C 0.85877 -0.10307 0.39704
 C208 C 1.12463 0.15079 0.28423
 C209 C 1.13698 0.10772 0.31509
 H210 H 1.08850 0.17726 0.29637
 H211 H 1.17234 0.07953 0.30582
 C212 C 0.84961 -0.16764 0.31567
 C213 C 0.82956 -0.12584 0.34858
 H214 H 0.88853 -0.18916 0.32744
 H215 H 0.78971 -0.10468 0.34043
 C216 C 0.82998 0.16408 0.70394
 C217 C 0.87308 0.18254 0.67369
 H218 H 0.80730 0.12745 0.68810
 H219 H 0.89765 0.21905 0.68606
 C220 C 1.11920 -0.14333 0.70675
 C221 C 1.13667 -0.09989 0.67877
 H222 H 1.07923 -0.16295 0.69474
 H223 H 1.17581 -0.07798 0.68800
 C224 C 0.28207 1.12395 1.15167
 C225 C 0.31106 1.13607 1.10690
 H226 H 0.29733 1.08862 1.17421
 H227 H 0.29724 1.16925 1.08151
 C228 C 0.28960 0.84752 0.82691
 C229 C 0.31315 0.83351 0.87375
 H230 H 0.31083 0.87783 0.80270
 H231 H 0.29200 0.80546 0.90015
 C232 C 0.70081 0.85958 1.17575
 C233 C 0.68445 0.85644 1.12443
 H234 H 0.67645 0.88597 1.20393
 H235 H 0.70846 0.83105 1.09541
 C236 C 0.69244 1.15532 0.85416
 C237 C 0.67298 1.10356 0.84240
 H238 H 0.67185 1.18007 0.88612
 H239 H 0.69309 1.07667 0.81194
 C240 C 0.14232 0.28597 0.14609
 C241 C 0.17130 0.31888 0.11384
 H242 H 0.10028 0.29994 0.15945
 H243 H 0.21340 0.30760 0.09922
 C244 C -0.16259 0.30313 -0.13568
 C245 C -0.11167 0.32582 -0.14354
 H246 H -0.18842 0.32059 -0.10301
 H247 H -0.08426 0.30941 -0.17529
 C248 C 0.13244 0.70655 -0.16576
 C249 C 0.14848 0.68839 -0.11793
 H250 H 0.09931 0.68451 -0.18840
 H251 H 0.17980 0.71061 -0.09344
 C252 C -0.16220 0.69646 0.15713
 C253 C -0.11044 0.67306 0.16264
 H254 H -0.19059 0.67867 0.12663
 H255 H -0.08067 0.69070 0.19177
 C256 C 1.16737 0.14976 0.68787
 C257 C 1.12849 0.17281 0.65542
 H258 H 1.18679 0.10986 0.67496
 H259 H 1.10934 0.21359 0.66401
 C260 C 0.87289 -0.14523 0.71423
 C261 C 0.85184 -0.09851 0.69127
 H262 H 0.91160 -0.16417 0.69762
 H263 H 0.81540 -0.07532 0.70692
 C264 C 1.15114 -0.13113 0.31321
 C265 C 1.10776 -0.15014 0.34201
 H266 H 1.17238 -0.09314 0.32788
 H267 H 1.08384 -0.18721 0.33052
 C268 C 0.85320 0.16712 0.29109
 C269 C 0.83452 0.12721 0.32361
 H270 H 0.89108 0.19004 0.30375
 H271 H 0.79615 0.10390 0.31476
 C272 C 0.14478 0.29496 -0.16665
 C273 C 0.17054 0.33155 -0.13310
 H274 H 0.10146 0.30359 -0.17986
 H275 H 0.21433 0.32478 -0.12063
 C276 C -0.15343 0.29380 0.13538
 C277 C -0.10301 0.31891 0.14539
 H278 H -0.18002 0.30978 0.10356
 H279 H -0.07477 0.30321 0.17584
 C280 C -0.11969 0.70548 -0.15520
 C281 C -0.13664 0.67695 -0.11227
 H282 H -0.07995 0.69219 -0.17417
 H283 H -0.17437 0.68919 -0.08999
 C284 C 0.14028 0.71973 0.17070
 C285 C 0.16640 0.68448 0.13581
 H286 H 0.09853 0.70872 0.18549
 H287 H 0.20850 0.69360 0.12102
 C288 C 0.29587 1.14617 0.84698
 C289 C 0.32006 1.09587 0.83578
 H290 H 0.31235 1.17134 0.88067
 H291 H 0.30434 1.06857 0.80352
 C292 C 0.28596 0.87654 1.16563
 C293 C 0.32073 0.85041 1.13034
 H294 H 0.29514 0.91952 1.17886
 H295 H 0.31365 0.80703 1.11765
 C296 C 0.70339 1.13598 1.15112
 C297 C 0.67419 1.14606 1.10610
 H298 H 0.68925 1.10160 1.17494
 H299 H 0.68650 1.17976 1.08093
 C300 C 0.71101 0.83747 0.83644
 C301 C 0.68656 0.82566 0.88270
 H302 H 0.68907 0.86646 0.81060
 H303 H 0.70680 0.79791 0.91055
   
