data_POSCAR
  _audit_creation_date              2014-09-24
  _audit_creation_method            'ToBaCCo'
  _symmetry_space_group_name_H-M    'P1'
  _symmetry_Int_Tables_number       1
  _symmetry_cell_setting            triclinic
  loop_
  _symmetry_equiv_pos_as_xyz
 x,y,z
_cell_length_a 45.8658
_cell_length_b 45.4242
_cell_length_c 44.5612
_cell_angle_alpha 92.984200
_cell_angle_beta 93.345500
_cell_angle_gamma 92.490400
loop_
  _atom_site_label
  _atom_site_type_symbol
  _atom_site_fract_x
  _atom_site_fract_y
  _atom_site_fract_z
N1 N 0.19240 1.25398 0.17438
 N2 N 0.17041 1.25070 0.19167
 C3 C 0.15194 1.27250 0.18730
 C4 C 0.16282 1.29056 0.16588
 C5 C 0.18869 1.27796 0.15834
 H6 H 0.13194 1.27464 0.19871
 H7 H 0.20364 1.28525 0.14210
 Cu8 Cu 0.16716 1.21775 0.21755
 Cu9 Cu 0.22352 1.22624 0.17307
 Cu10 Cu 0.22313 1.17253 0.22531
 N11 N 0.16996 1.19080 0.24993
 N12 N 0.19179 1.17322 0.25293
 C13 C 0.18782 1.15655 0.27657
 C14 C 0.16195 1.16399 0.28925
 C15 C 0.15134 1.18599 0.27159
 H16 H 0.20262 1.14002 0.28358
 H17 H 0.13145 1.19756 0.27392
 N18 N 0.25286 1.17557 0.19532
 N19 N 0.25299 1.19604 0.17539
 C20 C 0.27519 1.19172 0.15742
 C21 C 0.28981 1.16729 0.16640
 C22 C 0.27498 1.15769 0.19057
 H23 H 0.28007 1.20519 0.13892
 H24 H 0.27942 1.13859 0.20326
 H25 H 0.20146 1.18996 0.18875
 H26 H 0.22007 1.21688 0.21771
 N27 N 0.80725 0.75013 0.15280
 N28 N 0.82610 0.74934 0.17608
 C29 C 0.84434 0.72744 0.17101
 C30 C 0.83658 0.71368 0.14301
 C31 C 0.81288 0.72876 0.13213
 H32 H 0.86222 0.72222 0.18638
 H33 H 0.80059 0.72457 0.11079
 Cu34 Cu 0.82528 0.77732 0.21055
 Cu35 Cu 0.77708 0.77908 0.15086
 Cu36 Cu 0.77519 0.82886 0.21245
 N37 N 0.82454 0.80584 0.24461
 N38 N 0.80449 0.82559 0.24539
 C39 C 0.80928 0.84315 0.27058
 C40 C 0.83396 0.83421 0.28662
 C41 C 0.84290 0.81025 0.26932
 H42 H 0.79627 0.86172 0.27604
 H43 H 0.86173 0.79735 0.27385
 N44 N 0.74750 0.82877 0.17695
 N45 N 0.74828 0.81007 0.15337
 C46 C 0.72739 0.81655 0.13252
 C47 C 0.71277 0.84057 0.14344
 C48 C 0.72616 0.84759 0.17172
 H49 H 0.72356 0.80505 0.11071
 H50 H 0.72099 0.86532 0.18732
 H51 H 0.79951 0.81113 0.17879
 H52 H 0.77407 0.78509 0.19669
 N53 N 0.80514 1.24658 -0.17044
 N54 N 0.82459 1.24614 -0.19094
 C55 C 0.84166 1.27110 -0.18743
 C56 C 0.83249 1.28818 -0.16338
 C57 C 0.80915 1.27183 -0.15321
 H58 H 0.86019 1.27587 -0.20056
 H59 H 0.79650 1.27741 -0.13419
 Cu60 Cu 0.82695 1.21186 -0.21852
 Cu61 Cu 0.77752 1.21337 -0.16615
 Cu62 Cu 0.78232 1.15189 -0.21515
 N63 N 0.82981 1.17751 -0.24590
 N64 N 0.81234 1.15402 -0.24441
 C65 C 0.81923 1.13329 -0.26518
 C66 C 0.84244 1.14430 -0.28067
 C67 C 0.84844 1.17256 -0.26764
 H68 H 0.80818 1.11178 -0.26843
 H69 H 0.86527 1.18834 -0.27322
 N70 N 0.75347 1.15420 -0.18398
 N71 N 0.75164 1.17759 -0.16546
 C72 C 0.73030 1.17228 -0.14668
 C73 C 0.71801 1.14417 -0.15361
 C74 C 0.73329 1.13342 -0.17745
 H75 H 0.72417 1.18780 -0.12924
 H76 H 0.73026 1.11187 -0.18893
 H77 H 0.80341 1.18100 -0.18301
 H78 H 0.77662 1.19663 -0.21022
 N79 N 0.18207 0.74779 -0.17186
 N80 N 0.15814 0.75175 -0.18853
 C81 C 0.13726 0.73169 -0.18209
 C82 C 0.14865 0.71420 -0.16006
 C83 C 0.17724 0.72515 -0.15423
 H84 H 0.11527 0.73035 -0.19234
 H85 H 0.19334 0.71754 -0.13811
 Cu86 Cu 0.15591 0.78331 -0.21634
 Cu87 Cu 0.21715 0.77322 -0.17301
 Cu88 Cu 0.21689 0.82456 -0.22753
 N89 N 0.15781 0.80940 -0.24952
 N90 N 0.18166 0.82520 -0.25396
 C91 C 0.17663 0.84176 -0.27771
 C92 C 0.14787 0.83621 -0.28893
 C93 C 0.13673 0.81534 -0.27034
 H94 H 0.19269 0.85712 -0.28564
 H95 H 0.11484 0.80539 -0.27146
 N96 N 0.25041 0.82060 -0.19857
 N97 N 0.25049 0.80104 -0.17773
 C98 C 0.27533 0.80519 -0.16008
 C99 C 0.29174 0.82861 -0.17019
 C100 C 0.27520 0.83772 -0.19474
 H101 H 0.28055 0.79271 -0.14065
 H102 H 0.28010 0.85641 -0.20792
 H103 H 0.19794 0.80988 -0.18967
 H104 H 0.20864 0.78098 -0.21794
 C105 C 0.47973 1.02998 0.02647
 C106 C 0.49971 1.00939 0.04349
 C107 C 0.51467 0.99098 0.02543
 C108 C 0.50804 0.99480 -0.00841
 C109 C 0.50048 1.04609 0.00619
 C110 C 0.51523 1.02778 -0.01215
 C111 C 0.46009 1.00956 0.00490
 C112 C 0.47459 0.99127 -0.01348
 H113 H 0.50258 1.01027 0.06780
 H114 H 0.51984 0.98001 -0.02359
 H115 H 0.50547 1.06963 0.00826
 H116 H 0.43645 1.00966 0.00442
 C117 C 0.02855 0.48449 1.02964
 C118 C 0.04486 0.50580 1.01015
 C119 C 0.02727 0.51982 0.99030
 C120 C -0.00558 0.51175 0.99244
 C121 C 0.00673 0.50399 1.04513
 C122 C -0.01154 0.51803 1.02589
 C123 C 0.00984 0.46397 1.00726
 C124 C -0.00799 0.47797 0.98780
 H125 H 0.06823 0.51045 1.01291
 H126 H -0.02009 0.52273 0.97617
 H127 H 0.00728 0.50811 1.06928
 H128 H 0.01017 0.44015 1.00752
 C129 C 1.02786 0.02864 0.48321
 C130 C 1.00911 0.04482 0.50558
 C131 C 0.99051 0.02685 0.51994
 C132 C 0.99311 -0.00625 0.51109
 C133 C 1.04380 0.00657 0.50244
 C134 C 1.02585 -0.01207 0.51679
 C135 C 1.00604 0.00978 0.46235
 C136 C 0.98784 -0.00843 0.47666
 H137 H 1.01154 0.06836 0.51081
 H138 H 0.97798 -0.02117 0.52234
 H139 H 1.06735 0.00712 0.50608
 H140 H 1.00568 0.01037 0.43806
 C141 C 0.12312 0.36355 1.12770
 C142 C 0.15014 0.35478 1.11842
 C143 C 0.16351 0.33099 1.13131
 C144 C 0.14996 0.31538 1.15373
 C145 C 0.12291 0.32492 1.16322
 C146 C 0.10964 0.34872 1.15025
 C147 C 0.10858 0.38684 1.11311
 C148 C 0.09601 0.40575 1.10029
 C149 C 0.08054 0.42752 1.08424
 C150 C 0.09073 0.43720 1.05731
 C151 C 0.07447 0.45641 1.04030
 C152 C 0.04794 0.46680 1.05023
 C153 C 0.03784 0.45662 1.07732
 C154 C 0.05416 0.43738 1.09428
 H155 H 0.16074 0.36609 1.10089
 H156 H 0.18428 0.32486 1.12322
 H157 H 0.11154 0.31398 1.18038
 H158 H 0.08865 0.35530 1.15755
 H159 H 0.11082 0.42918 1.04899
 H160 H 0.08225 0.46228 1.01885
 H161 H 0.01683 0.46251 1.08498
 H162 H 0.04574 0.42948 1.11476
 C163 C -0.12031 0.64259 1.09905
 C164 C -0.11402 0.64995 1.12967
 C165 C -0.12822 0.67283 1.14400
 C166 C -0.14897 0.68880 1.12788
 C167 C -0.15538 0.68100 1.09712
 C168 C -0.14110 0.65807 1.08282
 C169 C -0.10469 0.61971 1.08433
 C170 C -0.09078 0.60080 1.07270
 C171 C -0.07314 0.57861 1.05967
 C172 C -0.06527 0.55456 1.07620
 C173 C -0.04599 0.53439 1.06481
 C174 C -0.03402 0.53811 1.03675
 C175 C -0.04313 0.56170 1.01979
 C176 C -0.06240 0.58188 1.03125
 H177 H -0.09794 0.63812 1.14245
 H178 H -0.12286 0.67789 1.16771
 H179 H -0.17106 0.69282 1.08391
 H180 H -0.14606 0.65263 1.05906
 H181 H -0.07359 0.55169 1.09817
 H182 H -0.04038 0.51601 1.07818
 H183 H -0.03485 0.56530 0.99811
 H184 H -0.06839 0.60041 1.01820
 C185 C -0.12278 0.36618 0.87858
 C186 C -0.11642 0.35627 0.84956
 C187 C -0.13163 0.33148 0.83549
 C188 C -0.15336 0.31612 0.85036
 C189 C -0.16030 0.32695 0.87913
 C190 C -0.14504 0.35175 0.89315
 C191 C -0.10462 0.38922 0.89452
 C192 C -0.08836 0.40721 0.90853
 C193 C -0.06775 0.42689 0.92606
 C194 C -0.03894 0.41853 0.93083
 C195 C -0.01925 0.43572 0.95016
 C196 C -0.02812 0.46158 0.96504
 C197 C -0.05678 0.47052 0.95928
 C198 C -0.07657 0.45313 0.93997
 H199 H -0.09912 0.36718 0.83813
 H200 H -0.12590 0.32413 0.81322
 H201 H -0.17678 0.31579 0.89136
 H202 H -0.15000 0.35909 0.91573
 H203 H -0.03186 0.39829 0.92017
 H204 H 0.00283 0.42857 0.95381
 H205 H -0.06421 0.49021 0.97065
 H206 H -0.09888 0.45973 0.93654
 C207 C 0.10403 0.64505 0.88437
 C208 C 0.13247 0.65475 0.89431
 C209 C 0.14704 0.67702 0.87975
 C210 C 0.13335 0.69002 0.85494
 C211 C 0.10477 0.67990 0.84498
 C212 C 0.09023 0.65759 0.85962
 C213 C 0.08905 0.62257 0.90002
 C214 C 0.07710 0.60389 0.91384
 C215 C 0.06362 0.58181 0.93122
 C216 C 0.07905 0.55718 0.93906
 C217 C 0.06694 0.53672 0.95769
 C218 C 0.03922 0.54067 0.96895
 C219 C 0.02355 0.56504 0.96017
 C220 C 0.03572 0.58554 0.94154
 H221 H 0.14335 0.64523 0.91350
 H222 H 0.16889 0.68415 0.88827
 H223 H 0.09351 0.68914 0.82592
 H224 H 0.06820 0.65023 0.85172
 H225 H 0.10063 0.55401 0.93111
 H226 H 0.07937 0.51784 0.96332
 H227 H 0.00233 0.56889 0.96831
 H228 H 0.02360 0.60457 0.93566
 C229 C 1.12190 0.12476 0.36162
 C230 C 1.14879 0.11531 0.35264
 C231 C 1.16225 0.12848 0.32904
 C232 C 1.14893 0.15139 0.31383
 C233 C 1.12199 0.16098 0.32357
 C234 C 1.10863 0.14773 0.34718
 C235 C 1.10735 0.11008 0.38479
 C236 C 1.09483 0.09728 0.40366
 C237 C 1.07948 0.08136 0.42544
 C238 C 1.08884 0.05392 0.43378
 C239 C 1.07277 0.03735 0.45319
 C240 C 1.04727 0.04823 0.46514
 C241 C 1.03791 0.07580 0.45617
 C242 C 1.05405 0.09231 0.43674
 H243 H 1.15923 0.09747 0.36365
 H244 H 1.18291 0.12027 0.32274
 H245 H 1.11079 0.17850 0.31293
 H246 H 1.08774 0.15519 0.35393
 H247 H 1.10815 0.04492 0.42461
 H248 H 1.07986 0.01559 0.45795
 H249 H 1.01760 0.08427 0.46329
 H250 H 1.04623 0.11325 0.42987
 C251 C 1.10316 -0.12186 0.64037
 C252 C 1.13280 -0.11494 0.64761
 C253 C 1.14766 -0.12902 0.67063
 C254 C 1.13310 -0.15036 0.68704
 C255 C 1.10325 -0.15746 0.67907
 C256 C 1.08846 -0.14326 0.65600
 C257 C 1.08782 -0.10616 0.61757
 C258 C 1.07558 -0.09214 0.59878
 C259 C 1.06177 -0.07433 0.57677
 C260 C 1.07651 -0.06677 0.55148
 C261 C 1.06439 -0.04729 0.53149
 C262 C 1.03739 -0.03482 0.53663
 C263 C 1.02224 -0.04357 0.56148
 C264 C 1.03442 -0.06305 0.58149
 H265 H 1.14440 -0.09838 0.63564
 H266 H 1.17051 -0.12277 0.67550
 H267 H 1.09096 -0.17367 0.69072
 H268 H 1.06547 -0.14877 0.65059
 H269 H 1.09765 -0.07549 0.54751
 H270 H 1.07636 -0.04185 0.51215
 H271 H 1.00149 -0.03475 0.56620
 H272 H 1.02280 -0.06874 0.60102
 C273 C 0.87798 -0.12213 0.36374
 C274 C 0.85114 -0.11249 0.35260
 C275 C 0.83618 -0.12737 0.32771
 C276 C 0.84791 -0.15221 0.31324
 C277 C 0.87450 -0.16234 0.32552
 C278 C 0.88943 -0.14731 0.35042
 C279 C 0.89487 -0.10456 0.38692
 C280 C 0.90937 -0.08861 0.40504
 C281 C 0.92713 -0.06817 0.42486
 C282 C 0.93143 -0.03910 0.41660
 C283 C 0.95050 -0.01945 0.43401
 C284 C 0.96562 -0.02861 0.46000
 C285 C 0.96044 -0.05755 0.46884
 C286 C 0.94136 -0.07731 0.45123
 H287 H 0.84212 -0.09293 0.36267
 H288 H 0.81572 -0.11880 0.31967
 H289 H 0.88446 -0.18135 0.31560
 H290 H 0.91031 -0.15489 0.35877
 H291 H 0.92049 -0.03176 0.39629
 H292 H 0.95369 0.00285 0.42694
 H293 H 0.97198 -0.06522 0.48862
 H294 H 0.93825 -0.09981 0.45778
 C295 C 0.88678 0.10126 0.64993
 C296 C 0.89514 0.13020 0.65995
 C297 C 0.88047 0.14446 0.68272
 C298 C 0.85702 0.12997 0.69602
 C299 C 0.84873 0.10076 0.68549
 C300 C 0.86353 0.08658 0.66268
 C301 C 0.90243 0.08673 0.62677
 C302 C 0.91616 0.07523 0.60749
 C303 C 0.93329 0.06228 0.58463
 C304 C 0.94336 0.03385 0.58722
 C305 C 0.96144 0.02203 0.56589
 C306 C 0.96996 0.03859 0.54180
 C307 C 0.95900 0.06689 0.53901
 C308 C 0.94091 0.07865 0.56032
 H309 H 0.91314 0.14179 0.65022
 H310 H 0.88781 0.16682 0.68969
 H311 H 0.83095 0.08855 0.69477
 H312 H 0.85688 0.06411 0.65508
 H313 H 0.93762 0.02097 0.60599
 H314 H 0.96922 0.00030 0.56887
 H315 H 0.96434 0.08005 0.52035
 H316 H 0.93313 0.10065 0.55799
 C317 C 0.36076 1.12588 0.12439
 C318 C 0.35244 1.11725 0.15244
 C319 C 0.32965 1.13096 0.16632
 C320 C 0.31477 1.15349 0.15225
 C321 C 0.32362 1.16224 0.12419
 C322 C 0.34642 1.14849 0.11038
 C323 C 0.38321 1.11080 0.10940
 C324 C 0.40153 1.09784 0.09639
 C325 C 0.42271 1.08194 0.08029
 C326 C 0.42929 1.05343 0.08798
 C327 C 0.44832 1.03715 0.07107
 C328 C 0.46158 1.04928 0.04645
 C329 C 0.45445 1.07796 0.03878
 C330 C 0.43539 1.09419 0.05574
 H331 H 0.36339 1.09972 0.16347
 H332 H 0.32372 1.12375 0.18799
 H333 H 0.31270 1.17932 0.11252
 H334 H 0.35260 1.15526 0.08858
 H335 H 0.41915 1.04350 0.10660
 H336 H 0.45206 1.01471 0.07683
 H337 H 0.46261 1.08766 0.01910
 H338 H 0.42993 1.11602 0.04920
 C339 C 0.64876 1.10007 -0.10961
 C340 C 0.66213 1.12638 -0.09679
 C341 C 0.68462 1.14069 -0.11107
 C342 C 0.69411 1.12888 -0.13847
 C343 C 0.68052 1.10233 -0.15115
 C344 C 0.65800 1.08806 -0.13680
 C345 C 0.62544 1.08569 -0.09480
 C346 C 0.60588 1.07433 -0.08188
 C347 C 0.58249 1.06164 -0.06585
 C348 C 0.55689 1.07689 -0.06273
 C349 C 0.53477 1.06560 -0.04572
 C350 C 0.53797 1.03886 -0.03157
 C351 C 0.56353 1.02338 -0.03528
 C352 C 0.58568 1.03475 -0.05228
 H353 H 0.65517 1.13587 -0.07572
 H354 H 0.69460 1.16087 -0.10040
 H355 H 0.68703 1.09263 -0.17226
 H356 H 0.64774 1.06772 -0.14697
 H357 H 0.55418 1.09771 -0.07313
 H358 H 0.51518 1.07783 -0.04357
 H359 H 0.56684 1.00299 -0.02428
 H360 H 0.60549 1.02286 -0.05439
 C361 C 0.36768 0.87461 -0.12612
 C362 C 0.35333 0.85187 -0.11197
 C363 C 0.32926 0.83618 -0.12667
 C364 C 0.31905 0.84316 -0.15575
 C365 C 0.33437 0.86535 -0.17021
 C366 C 0.35844 0.88101 -0.15544
 C367 C 0.38988 0.89321 -0.10951
 C368 C 0.40715 0.90977 -0.09491
 C369 C 0.42595 0.93068 -0.07669
 C370 C 0.45183 0.92206 -0.06209
 C371 C 0.46838 0.94209 -0.04223
 C372 C 0.45898 0.97078 -0.03658
 C373 C 0.43349 0.97946 -0.05218
 C374 C 0.41712 0.95954 -0.07204
 H375 H 0.36015 0.84687 -0.08917
 H376 H 0.31814 0.81934 -0.11471
 H377 H 0.32750 0.87113 -0.19268
 H378 H 0.36931 0.89867 -0.16657
 H379 H 0.45881 0.89971 -0.06544
 H380 H 0.48778 0.93477 -0.03046
 H381 H 0.42599 1.00159 -0.04876
 H382 H 0.39717 0.96648 -0.08324
 C383 C 0.64410 0.88654 0.09865
 C384 C 0.65239 0.85941 0.08634
 C385 C 0.67465 0.84433 0.10089
 C386 C 0.68890 0.85622 0.12798
 C387 C 0.68023 0.88349 0.14011
 C388 C 0.65805 0.89847 0.12555
 C389 C 0.62145 0.90251 0.08391
 C390 C 0.60271 0.91691 0.07260
 C391 C 0.58063 0.93525 0.06039
 C392 C 0.56424 0.92656 0.03367
 C393 C 0.54278 0.94468 0.02221
 C394 C 0.53737 0.97162 0.03744
 C395 C 0.55422 0.98020 0.06413
 C396 C 0.57561 0.96213 0.07549
 H397 H 0.64169 0.84994 0.06551
 H398 H 0.68052 0.82336 0.09093
 H399 H 0.69069 0.89359 0.16070
 H400 H 0.65184 0.91948 0.13527
 H401 H 0.56797 0.90579 0.02176
 H402 H 0.53025 0.93734 0.00172
 H403 H 0.55129 1.00112 0.07606
 H404 H 0.58832 0.96920 0.09607
   
