data_POSCAR
  _audit_creation_date              2014-09-24
  _audit_creation_method            'ToBaCCo'
  _symmetry_space_group_name_H-M    'P1'
  _symmetry_Int_Tables_number       1
  _symmetry_cell_setting            triclinic
  loop_
  _symmetry_equiv_pos_as_xyz
 x,y,z
_cell_length_a 33.3768
_cell_length_b 31.7685
_cell_length_c 31.7671
_cell_angle_alpha 89.896200
_cell_angle_beta 90.027900
_cell_angle_gamma 89.972300
loop_
  _atom_site_label
  _atom_site_type_symbol
  _atom_site_fract_x
  _atom_site_fract_y
  _atom_site_fract_z
C1 C 0.31070 0.30769 0.23403
 H2 H 0.31238 0.30831 0.26803
 C3 C 0.33666 0.33256 0.21013
 H4 H 0.35834 0.35257 0.22572
 C5 C 0.28073 0.28055 0.17203
 H6 H 0.25934 0.25981 0.15726
 C7 C 0.30614 0.30491 0.14697
 H8 H 0.30394 0.30317 0.11299
 N9 N 0.28309 0.28276 0.21476
 C10 C 0.18821 0.26538 0.30765
 H11 H 0.18645 0.23138 0.30837
 C12 C 0.16244 0.28937 0.33259
 H13 H 0.14080 0.27386 0.35274
 C14 C 0.21827 0.32727 0.28023
 H15 H 0.23963 0.34197 0.25936
 C16 C 0.19305 0.35242 0.30464
 H17 H 0.19535 0.38639 0.30282
 Zn18 Zn 0.24938 0.24971 0.24953
 N19 N 0.21579 0.28455 0.28256
 C20 C 0.28065 0.21897 0.32712
 N21 N 0.28298 0.21656 0.28441
 C22 C 0.31053 0.19146 0.26526
 C23 C 0.33647 0.16662 0.28928
 C24 C 0.30604 0.19466 0.35231
 C25 C 0.18817 0.23430 0.19135
 C26 C 0.16225 0.21044 0.16646
 C27 C 0.19264 0.14724 0.19445
 C28 C 0.21802 0.17228 0.21882
 N29 N 0.21570 0.21501 0.21645
 H30 H 0.25932 0.23986 0.34180
 H31 H 0.31219 0.19070 0.23126
 H32 H 0.35811 0.14650 0.27380
 H33 H 0.30387 0.19658 0.38628
 H34 H 0.18653 0.26831 0.19060
 H35 H 0.14063 0.22604 0.14632
 H36 H 0.19480 0.11326 0.19633
 H37 H 0.23935 0.15749 0.23969
 C38 C 0.16501 0.33327 0.33118
 C39 C 0.33424 0.33125 0.16621
 C40 C 0.16463 0.16651 0.16794
 C41 C 0.33408 0.16816 0.33320
 C42 C 0.81158 0.80922 0.23329
 H43 H 0.81332 0.80997 0.26729
 C44 C 0.83733 0.83421 0.20925
 H45 H 0.85890 0.85439 0.22481
 C46 C 0.78163 0.78167 0.17148
 H47 H 0.76033 0.76073 0.15684
 C48 C 0.80682 0.80611 0.14624
 H49 H 0.80446 0.80415 0.11227
 N50 N 0.78408 0.78405 0.21419
 C51 C 0.68932 0.76639 0.30719
 H52 H 0.68768 0.73238 0.30791
 C53 C 0.66346 0.79026 0.33214
 H54 H 0.64188 0.77466 0.35229
 C55 C 0.71917 0.82840 0.27979
 H56 H 0.74048 0.84319 0.25894
 C57 C 0.69385 0.85344 0.30422
 H58 H 0.69603 0.88742 0.30241
 Zn59 Zn 0.75055 0.75093 0.24912
 N60 N 0.71684 0.78567 0.28212
 C61 C 0.78182 0.72031 0.32675
 N62 N 0.78428 0.71796 0.28404
 C63 C 0.81187 0.69287 0.26495
 C64 C 0.83766 0.66791 0.28901
 C65 C 0.80706 0.69587 0.35198
 C66 C 0.68933 0.73505 0.19104
 C67 C 0.66349 0.71097 0.16626
 C68 C 0.69418 0.64803 0.19445
 C69 C 0.71947 0.67327 0.21870
 N70 N 0.71697 0.71598 0.21617
 H71 H 0.76046 0.74118 0.34139
 H72 H 0.81361 0.69214 0.23095
 H73 H 0.85929 0.64774 0.27357
 H74 H 0.80476 0.69769 0.38594
 H75 H 0.68754 0.76905 0.19017
 H76 H 0.64179 0.72640 0.14609
 H77 H 0.69648 0.61406 0.19645
 H78 H 0.74086 0.65865 0.23961
 C79 C 0.66588 0.83418 0.33075
 C80 C 0.83481 0.83275 0.16530
 C81 C 0.66606 0.66707 0.16789
 C82 C 0.83509 0.66931 0.33292
 C83 C 0.81211 0.30692 0.73531
 H84 H 0.81388 0.30763 0.76931
 C85 C 0.83788 0.33189 0.71127
 H86 H 0.85951 0.35204 0.72674
 C87 C 0.78204 0.27954 0.67348
 H88 H 0.76068 0.25868 0.65882
 C89 C 0.80726 0.30398 0.64828
 H90 H 0.80493 0.30218 0.61431
 N91 N 0.78452 0.28185 0.71620
 C92 C 0.68967 0.26467 0.80917
 H93 H 0.68793 0.23067 0.81001
 C94 C 0.66380 0.28872 0.83395
 H95 H 0.64213 0.27327 0.85410
 C96 C 0.71971 0.32648 0.78157
 H97 H 0.74108 0.34113 0.76067
 C98 C 0.69440 0.35170 0.80581
 H99 H 0.69666 0.38567 0.80383
 Zn100 Zn 0.75086 0.24885 0.75109
 N101 N 0.71727 0.28377 0.78406
 C102 C 0.78205 0.21806 0.82870
 N103 N 0.78445 0.21570 0.78599
 C104 C 0.81195 0.19055 0.76686
 C105 C 0.83778 0.16555 0.79086
 C106 C 0.80730 0.19362 0.85392
 C107 C 0.68958 0.23346 0.69301
 C108 C 0.66369 0.20962 0.66805
 C109 C 0.69415 0.14640 0.69592
 C110 C 0.71949 0.17141 0.72035
 N111 N 0.71714 0.21414 0.71806
 H112 H 0.76074 0.23898 0.84335
 H113 H 0.81365 0.18983 0.73286
 H114 H 0.85933 0.14541 0.77518
 H115 H 0.80492 0.19562 0.88790
 H116 H 0.68792 0.26747 0.69232
 H117 H 0.64208 0.22525 0.64793
 H118 H 0.69635 0.11242 0.69770
 H119 H 0.74084 0.15660 0.74118
 C120 C 0.66631 0.33263 0.83234
 C121 C 0.83528 0.33051 0.66736
 C122 C 0.66613 0.16570 0.66942
 C123 C 0.83533 0.16697 0.83484
 C124 C 0.31067 0.80857 0.73463
 H125 H 0.31234 0.80933 0.76864
 C126 C 0.33660 0.83340 0.71064
 H127 H 0.35823 0.85351 0.72615
 C128 C 0.28078 0.78110 0.67274
 H129 H 0.25946 0.76023 0.65805
 C130 C 0.30616 0.80540 0.64759
 H131 H 0.30399 0.80350 0.61361
 N132 N 0.28313 0.78349 0.71546
 C133 C 0.18832 0.76596 0.80844
 H134 H 0.18668 0.73196 0.80925
 C135 C 0.16237 0.78990 0.83324
 H136 H 0.14076 0.77435 0.85338
 C137 C 0.21815 0.82791 0.78087
 H138 H 0.23947 0.84264 0.75999
 C139 C 0.19276 0.85301 0.80515
 H140 H 0.19490 0.88699 0.80320
 Zn141 Zn 0.24953 0.75041 0.75032
 N142 N 0.21584 0.78518 0.78333
 C143 C 0.28086 0.71956 0.82788
 N144 N 0.28324 0.71735 0.78516
 C145 C 0.31085 0.69240 0.76592
 C146 C 0.33680 0.66749 0.78985
 C147 C 0.30626 0.69516 0.85298
 C148 C 0.18837 0.73469 0.69215
 C149 C 0.16257 0.71068 0.66724
 C150 C 0.19318 0.64766 0.69537
 C151 C 0.21842 0.67284 0.71974
 N152 N 0.21594 0.71555 0.71730
 H153 H 0.25946 0.74032 0.84263
 H154 H 0.31253 0.69179 0.73192
 H155 H 0.35848 0.64746 0.77429
 H156 H 0.30405 0.69689 0.88695
 H157 H 0.18660 0.76869 0.69135
 H158 H 0.14093 0.72617 0.64704
 H159 H 0.19548 0.61369 0.69729
 H160 H 0.23977 0.65816 0.74066
 C161 C 0.16474 0.83382 0.83167
 C162 C 0.33420 0.83188 0.66673
 C163 C 0.16514 0.66677 0.66877
 C164 C 0.33435 0.66878 0.83376
 C165 C -0.00148 0.00037 -0.00047
 C166 C -0.00008 0.49989 0.50018
 C167 C 0.50044 0.00005 0.50010
 C168 C 0.50051 0.49982 0.00002
 C169 C 0.13853 -0.14086 -0.14282
 C170 C 0.11674 -0.11956 -0.12136
 C171 C 0.09141 -0.09451 -0.09614
 C172 C 0.06996 -0.07303 -0.07451
 C173 C 0.04504 -0.04777 -0.04905
 C174 C 0.02393 -0.02609 -0.02719
 C175 C 0.13904 0.35863 0.35691
 C176 C 0.11745 0.37996 0.37855
 C177 C 0.09235 0.40503 0.40400
 C178 C 0.07107 0.42652 0.42581
 C179 C 0.04632 0.45178 0.45143
 C180 C 0.02530 0.47345 0.47340
 C181 C 0.63983 -0.14059 0.35651
 C182 C 0.61817 -0.11938 0.37821
 C183 C 0.59300 -0.09446 0.40372
 C184 C 0.57166 -0.07309 0.42558
 C185 C 0.54686 -0.04794 0.45127
 C186 C 0.52582 -0.02635 0.47328
 C187 C 0.64019 0.35807 -0.14217
 C188 C 0.61847 0.37948 -0.12074
 C189 C 0.59323 0.40466 -0.09555
 C190 C 0.57184 0.42623 -0.07395
 C191 C 0.54698 0.45159 -0.04853
 C192 C 0.52591 0.47332 -0.02668
 C193 C -0.14101 0.14358 -0.14208
 C194 C -0.11933 0.12195 -0.12071
 C195 C -0.09414 0.09652 -0.09559
 C196 C -0.07278 0.07474 -0.07405
 C197 C -0.04795 0.04913 -0.04872
 C198 C -0.02689 0.02717 -0.02699
 C199 C -0.13897 0.64351 0.35837
 C200 C -0.11743 0.62180 0.37979
 C201 C -0.09241 0.59628 0.40498
 C202 C -0.07118 0.57441 0.42657
 C203 C -0.04648 0.54872 0.45194
 C204 C -0.02548 0.52671 0.47368
 C205 C 0.36031 0.14264 0.35860
 C206 C 0.38213 0.12118 0.37997
 C207 C 0.40748 0.09596 0.40510
 C208 C 0.42896 0.07432 0.42664
 C209 C 0.45390 0.04882 0.45195
 C210 C 0.47502 0.02690 0.47365
 C211 C 0.36053 0.64309 -0.14096
 C212 C 0.38231 0.62146 -0.11972
 C213 C 0.40763 0.59602 -0.09476
 C214 C 0.42908 0.57422 -0.07336
 C215 C 0.45400 0.54859 -0.04816
 C216 C 0.47510 0.52661 -0.02650
 C217 C -0.14061 -0.14288 0.14122
 C218 C -0.11901 -0.12124 0.11983
 C219 C -0.09391 -0.09580 0.09468
 C220 C -0.07262 -0.07400 0.07312
 C221 C -0.04787 -0.04839 0.04778
 C222 C -0.02685 -0.02642 0.02605
 C223 C -0.13880 0.35630 0.64194
 C224 C -0.11727 0.37801 0.62054
 C225 C -0.09226 0.40352 0.59536
 C226 C -0.07106 0.42538 0.57379
 C227 C -0.04638 0.45106 0.54842
 C228 C -0.02542 0.47307 0.52668
 C229 C 0.36041 -0.14259 0.64136
 C230 C 0.38220 -0.12112 0.62003
 C231 C 0.40754 -0.09587 0.59495
 C232 C 0.42900 -0.07421 0.57346
 C233 C 0.45393 -0.04870 0.54820
 C234 C 0.47504 -0.02677 0.52653
 C235 C 0.36044 0.35688 0.14095
 C236 C 0.38225 0.37845 0.11972
 C237 C 0.40759 0.40381 0.09477
 C238 C 0.42905 0.42555 0.07336
 C239 C 0.45398 0.45112 0.04816
 C240 C 0.47510 0.47305 0.02651
 C241 C 0.13845 0.14127 0.14232
 C242 C 0.11667 0.12004 0.12077
 C243 C 0.09136 0.09508 0.09544
 C244 C 0.06992 0.07367 0.07372
 C245 C 0.04502 0.04847 0.04819
 C246 C 0.02392 0.02682 0.02628
 C247 C 0.13914 0.64138 0.64311
 C248 C 0.11753 0.62001 0.62153
 C249 C 0.09241 0.59488 0.59616
 C250 C 0.07112 0.57334 0.57441
 C251 C 0.04635 0.54803 0.54885
 C252 C 0.02532 0.52633 0.52693
 C253 C 0.64004 0.14050 0.64366
 C254 C 0.61835 0.11932 0.62198
 C255 C 0.59313 0.09443 0.59648
 C256 C 0.57175 0.07310 0.57462
 C257 C 0.54691 0.04799 0.54894
 C258 C 0.52584 0.02642 0.52692
 C259 C 0.63998 0.64160 0.14239
 C260 C 0.61830 0.62017 0.12094
 C261 C 0.59311 0.59498 0.09572
 C262 C 0.57176 0.57339 0.07409
 C263 C 0.54694 0.54802 0.04863
 C264 C 0.52589 0.52629 0.02676
   
