data_POSCAR
  _audit_creation_date              2014-09-24
  _audit_creation_method            'ToBaCCo'
  _symmetry_space_group_name_H-M    'P1'
  _symmetry_Int_Tables_number       1
  _symmetry_cell_setting            triclinic
  loop_
  _symmetry_equiv_pos_as_xyz
 x,y,z
_cell_length_a 45.6347
_cell_length_b 45.6402
_cell_length_c 14.2797
_cell_angle_alpha 89.426200
_cell_angle_beta 91.182200
_cell_angle_gamma 120.323900
loop_
  _atom_site_label
  _atom_site_type_symbol
  _atom_site_fract_x
  _atom_site_fract_y
  _atom_site_fract_z
C1 C 0.25023 0.50482 0.52243
 C2 C 0.25533 0.50381 0.42923
 C3 C 0.23509 0.50972 0.35710
 C4 C 0.28075 0.49589 0.39498
 C5 C 0.27314 0.50310 0.59530
 C6 C 0.22336 0.51112 0.55603
 C7 C 0.19995 0.48803 0.34965
 C8 C 0.18067 0.49519 0.28653
 C9 C 0.19612 0.52440 0.22886
 C10 C 0.23175 0.54530 0.23437
 C11 C 0.25097 0.53794 0.29766
 C12 C 0.26997 0.46292 0.36376
 C13 C 0.29371 0.45394 0.33835
 C14 C 0.32845 0.47817 0.34047
 C15 C 0.33919 0.51158 0.36845
 C16 C 0.31542 0.52031 0.39675
 C17 C 0.28900 0.52953 0.66080
 C18 C 0.31128 0.52936 0.72874
 C19 C 0.31865 0.50300 0.73202
 C20 C 0.30262 0.47626 0.66735
 C21 C 0.27951 0.47598 0.60061
 C22 C 0.22456 0.54187 0.53656
 C23 C 0.19937 0.54769 0.56953
 C24 C 0.17255 0.52295 0.62288
 C25 C 0.17134 0.49208 0.64191
 C26 C 0.19670 0.48634 0.60920
 H27 H 0.18737 0.46584 0.39412
 H28 H 0.15359 0.47778 0.28497
 H29 H 0.24488 0.56778 0.19118
 H30 H 0.27819 0.55487 0.30227
 H31 H 0.24322 0.44390 0.36213
 H32 H 0.28494 0.42815 0.31610
 H33 H 0.32397 0.54586 0.42075
 H34 H 0.28444 0.55063 0.65866
 H35 H 0.32326 0.55028 0.77787
 H36 H 0.30740 0.45531 0.66967
 H37 H 0.26658 0.45457 0.55356
 H38 H 0.24519 0.56143 0.49656
 H39 H 0.20109 0.57178 0.55401
 H40 H 0.15127 0.47264 0.68351
 H41 H 0.19555 0.46254 0.62516
 H42 H 0.36592 0.53063 0.37053
 C43 C 0.45099 -0.27734 0.55673
 C44 C 0.45696 -0.28011 0.46465
 C45 C 0.46822 -0.30391 0.43421
 C46 C 0.45952 -0.25464 0.39440
 C47 C 0.44566 -0.24968 0.59061
 C48 C 0.45463 -0.29828 0.63221
 C49 C 0.49813 -0.30137 0.47155
 C50 C 0.50820 -0.32426 0.44468
 C51 C 0.48899 -0.34978 0.37844
 C52 C 0.45950 -0.35172 0.33923
 C53 C 0.44931 -0.32887 0.36668
 C54 C 0.49047 -0.23512 0.34897
 C55 C 0.49745 -0.20532 0.30310
 C56 C 0.47352 -0.19467 0.30061
 C57 C 0.44105 -0.21604 0.33617
 C58 C 0.43399 -0.24609 0.38268
 C59 C 0.41643 -0.25809 0.64102
 C60 C 0.41402 -0.23319 0.69049
 C61 C 0.44098 -0.19938 0.69138
 C62 C 0.46959 -0.19064 0.63692
 C63 C 0.47198 -0.21563 0.58734
 C64 C 0.44054 -0.33356 0.62380
 C65 C 0.44777 -0.35155 0.69143
 C66 C 0.46774 -0.33488 0.77141
 C67 C 0.47941 -0.30017 0.78306
 C68 C 0.47348 -0.28206 0.71377
 H69 H 0.51349 -0.28180 0.52225
 H70 H 0.53119 -0.32185 0.47555
 H71 H 0.44412 -0.37098 0.28796
 H72 H 0.42639 -0.33094 0.33633
 H73 H 0.51051 -0.24115 0.35625
 H74 H 0.52267 -0.18913 0.27592
 H75 H 0.40970 -0.26115 0.41595
 H76 H 0.39612 -0.28427 0.64548
 H77 H 0.39157 -0.24074 0.73132
 H78 H 0.49081 -0.16489 0.63588
 H79 H 0.49513 -0.20876 0.55070
 H80 H 0.42470 -0.34707 0.56381
 H81 H 0.43740 -0.37848 0.68109
 H82 H 0.49461 -0.28644 0.84383
 H83 H 0.48456 -0.25497 0.72322
 H84 H 0.42237 -0.20805 0.33557
 C85 C 1.22604 0.77915 0.56050
 C86 C 1.23097 0.78023 0.46637
 C87 C 1.26132 0.80840 0.42258
 C88 C 1.20627 0.75321 0.40150
 C89 C 1.19474 0.75114 0.60135
 C90 C 1.25207 0.80346 0.62928
 C91 C 1.25898 0.83538 0.38363
 C92 C 1.28772 0.86358 0.34853
 C93 C 1.31889 0.86430 0.34505
 C94 C 1.32050 0.83588 0.37742
 C95 C 1.29207 0.80848 0.41839
 C96 C 1.17168 0.74369 0.39684
 C97 C 1.14922 0.71825 0.33465
 C98 C 1.16137 0.70310 0.27360
 C99 C 1.19589 0.71298 0.27724
 C100 C 1.21799 0.73747 0.34104
 C101 C 1.19061 0.71873 0.61267
 C102 C 1.16155 0.69290 0.65500
 C103 C 1.13563 0.69882 0.68385
 C104 C 1.13983 0.73133 0.67042
 C105 C 1.16945 0.75741 0.63156
 C106 C 1.25802 0.79036 0.71227
 C107 C 1.28088 0.81175 0.78030
 C108 C 1.29993 0.84704 0.76607
 C109 C 1.29433 0.86047 0.68309
 C110 C 1.26973 0.83899 0.61716
 H111 H 1.23522 0.83533 0.38495
 H112 H 1.28531 0.88470 0.32283
 H113 H 1.34405 0.83557 0.37598
 H114 H 1.29403 0.78747 0.44713
 H115 H 1.16216 0.75631 0.43984
 H116 H 1.12280 0.71146 0.33145
 H117 H 1.24439 0.74422 0.34272
 H118 H 1.21013 0.71369 0.58995
 H119 H 1.15927 0.66824 0.66299
 H120 H 1.12056 0.73695 0.69193
 H121 H 1.17248 0.78242 0.62357
 H122 H 1.24493 0.76331 0.72515
 H123 H 1.28438 0.80023 0.84305
 H124 H 1.30780 0.88759 0.67078
 H125 H 1.26415 0.85047 0.55843
 H126 H 1.20581 0.70168 0.23039
 C127 C 0.74832 0.49863 0.55339
 C128 C 0.75333 0.49750 0.46013
 C129 C 0.78070 0.49168 0.42818
 C130 C 0.73079 0.49966 0.38666
 C131 C 0.72423 0.50840 0.59035
 C132 C 0.76789 0.49086 0.62276
 C133 C 0.81377 0.51904 0.41590
 C134 C 0.83945 0.51337 0.38510
 C135 C 0.83245 0.48018 0.36747
 C136 C 0.79937 0.45287 0.38185
 C137 C 0.77370 0.45861 0.41126
 C138 C 0.74465 0.51851 0.30447
 C139 C 0.72358 0.52019 0.23474
 C140 C 0.68838 0.50366 0.24684
 C141 C 0.67438 0.48448 0.32806
 C142 C 0.69528 0.48182 0.39616
 C143 C 0.69966 0.48750 0.65510
 C144 C 0.67623 0.49594 0.68785
 C145 C 0.67701 0.52576 0.65714
 C146 C 0.70224 0.54705 0.59371
 C147 C 0.72564 0.53851 0.56101
 C148 C 0.75546 0.45748 0.65381
 C149 C 0.77472 0.44990 0.71612
 C150 C 0.80722 0.47547 0.74625
 C151 C 0.81929 0.50904 0.71505
 C152 C 0.79966 0.51662 0.65445
 H153 H 0.81955 0.54473 0.42957
 H154 H 0.86468 0.53488 0.37545
 H155 H 0.79314 0.42700 0.36887
 H156 H 0.74835 0.43726 0.42116
 H157 H 0.77180 0.53213 0.29426
 H158 H 0.73481 0.53488 0.17206
 H159 H 0.68362 0.46565 0.45614
 H160 H 0.69802 0.46416 0.67899
 H161 H 0.65752 0.47881 0.73679
 H162 H 0.70390 0.57032 0.56873
 H163 H 0.74474 0.55531 0.51219
 H164 H 0.73104 0.43726 0.62881
 H165 H 0.76455 0.42382 0.73826
 H166 H 0.84384 0.52970 0.73712
 H167 H 0.80952 0.54249 0.63065
 H168 H 0.64716 0.47079 0.33766
 C169 C 0.50550 0.25406 0.53182
 C170 C 0.50885 0.25033 0.43866
 C171 C 0.50863 0.27363 0.36492
 C172 C 0.51717 0.22500 0.40474
 C173 C 0.50525 0.22923 0.60130
 C174 C 0.50659 0.28522 0.56785
 C175 C 0.48273 0.28169 0.35834
 C176 C 0.48335 0.30364 0.28804
 C177 C 0.50952 0.31730 0.22221
 C178 C 0.53485 0.30857 0.22778
 C179 C 0.53454 0.28723 0.29846
 C180 C 0.49447 0.19957 0.34347
 C181 C 0.50469 0.18008 0.29479
 C182 C 0.53809 0.18640 0.30482
 C183 C 0.56061 0.21132 0.36797
 C184 C 0.55005 0.23028 0.41868
 C185 C 0.52933 0.24087 0.67450
 C186 C 0.53247 0.21794 0.73320
 C187 C 0.51148 0.18253 0.72084
 C188 C 0.48602 0.17085 0.65043
 C189 C 0.48295 0.19401 0.59134
 C190 C 0.53161 0.31745 0.53713
 C191 C 0.53076 0.34640 0.56239
 C192 C 0.50609 0.34432 0.62394
 C193 C 0.48260 0.31230 0.66084
 C194 C 0.48267 0.28298 0.63220
 H195 H 0.46215 0.27107 0.40760
 H196 H 0.46329 0.30971 0.28495
 H197 H 0.55543 0.31882 0.17848
 H198 H 0.55498 0.28170 0.30163
 H199 H 0.46929 0.19576 0.33072
 H200 H 0.48690 0.16113 0.24601
 H201 H 0.56804 0.25042 0.46440
 H202 H 0.54675 0.26780 0.68394
 H203 H 0.55215 0.22823 0.78712
 H204 H 0.46911 0.14396 0.63894
 H205 H 0.46375 0.18442 0.53613
 H206 H 0.55146 0.32019 0.49133
 H207 H 0.54989 0.37057 0.53425
 H208 H 0.46336 0.30958 0.70893
 H209 H 0.46355 0.25847 0.65847
 H210 H 0.58638 0.21637 0.37707
 C211 C 0.76622 0.23206 0.53369
 C212 C 0.77328 0.23542 0.44037
 C213 C 0.75088 0.20937 0.37045
 C214 C 0.80565 0.26335 0.40433
 C215 C 0.78950 0.25796 0.60372
 C216 C 0.73743 0.20013 0.57097
 C217 C 0.76418 0.19356 0.31591
 C218 C 0.74329 0.16765 0.25368
 C219 C 0.70876 0.15735 0.24347
 C220 C 0.69565 0.17405 0.29553
 C221 C 0.71656 0.19982 0.35880
 C222 C 0.83677 0.26760 0.43682
 C223 C 0.86718 0.29394 0.40244
 C224 C 0.86697 0.31622 0.33415
 C225 C 0.83567 0.31143 0.30037
 C226 C 0.80526 0.28506 0.33493
 C227 C 0.80271 0.29295 0.58935
 C228 C 0.82781 0.31686 0.64983
 C229 C 0.83929 0.30625 0.72827
 C230 C 0.82430 0.27118 0.74558
 C231 C 0.80000 0.24743 0.68382
 C232 C 0.71313 0.20102 0.62770
 C233 C 0.68623 0.17089 0.66331
 C234 C 0.68334 0.13945 0.64267
 C235 C 0.70811 0.13882 0.58740
 C236 C 0.73508 0.16883 0.55301
 H237 H 0.79059 0.20058 0.32369
 H238 H 0.75409 0.15530 0.21441
 H239 H 0.66910 0.16656 0.28975
 H240 H 0.70592 0.21196 0.39963
 H241 H 0.83745 0.25054 0.48896
 H242 H 0.89086 0.29685 0.42935
 H243 H 0.78138 0.28179 0.30838
 H244 H 0.79426 0.30181 0.52980
 H245 H 0.83800 0.34352 0.63482
 H246 H 0.83210 0.26184 0.80549
 H247 H 0.79022 0.22070 0.69723
 H248 H 0.71484 0.22499 0.64356
 H249 H 0.66755 0.17221 0.70567
 H250 H 0.70682 0.11506 0.57126
 H251 H 0.75420 0.16765 0.51223
 H252 H 0.83451 0.32795 0.24748
 O253 O 0.98833 0.43403 0.17186
 O254 O 0.93773 0.42585 0.11196
 C255 C 0.95544 0.41757 0.16676
 O256 O 1.04612 0.58610 0.14529
 O257 O 1.08107 0.58721 0.03052
 C258 C 1.07454 0.60087 0.09980
 O259 O 0.95644 0.51551 0.20245
 O260 O 0.92324 0.46456 0.12760
 C261 C 0.92857 0.48628 0.19279
 O262 O 1.07671 0.49824 0.11048
 O263 O 1.09685 0.54563 0.01818
 C264 C 1.10125 0.52549 0.07425
 Zr265 Zr 1.02406 0.47726 0.09742
 O266 O 1.04022 0.48230 0.23931
 O267 O 1.03544 0.43845 0.07391
 Zr268 Zr 1.00183 0.53722 0.12248
 O269 O 1.01772 0.54306 0.26482
 O270 O 0.98465 0.57209 0.13950
 O271 O 0.98626 0.48614 0.14421
 O272 O 1.04204 0.52871 0.11082
 O273 O 1.05115 0.49083 -0.20549
 O274 O 1.08337 0.54299 -0.13606
 C275 C 1.07885 0.52022 -0.19692
 O276 O 0.92867 0.50691 -0.12791
 O277 O 0.90905 0.46046 -0.03178
 C278 C 0.90438 0.47927 -0.09195
 O279 O 1.01755 0.57850 -0.16437
 O280 O 1.06835 0.58328 -0.11931
 C281 C 1.05050 0.59432 -0.16248
 O282 O 0.95949 0.42412 -0.16336
 O283 O 0.92449 0.42147 -0.04649
 C284 C 0.93105 0.40893 -0.11861
 Zr285 Zr 1.00438 0.47122 -0.13360
 O286 O 0.99525 0.47088 -0.27966
 O287 O 1.01548 0.43176 -0.14814
 Zr288 Zr 0.98180 0.53065 -0.10906
 O289 O 0.97425 0.52820 -0.25631
 O290 O 0.96333 0.56471 -0.10218
 Zr291 Zr 0.95583 0.46801 0.02168
 Zr292 Zr 1.05022 0.54015 -0.03263
 O293 O 1.01931 0.52175 -0.15396
 O294 O 0.96309 0.47873 -0.12277
 O295 O 1.04434 0.49137 -0.03584
 O296 O 0.96261 0.51718 0.02420
 O297 O 0.98820 0.44879 -0.00367
 O298 O 1.01823 0.56007 -0.00767
 H299 H 1.06115 0.54109 0.15597
 H300 H 0.94300 0.52004 0.03782
 H301 H 1.02933 0.53176 -0.21528
 H302 H 0.97909 0.42398 -0.00031
 H303 H 0.99804 0.59158 0.09758
 H304 H 0.97583 0.58053 -0.05016
 H305 H 0.95487 0.50543 -0.27177
 H306 H 0.97143 0.46530 -0.28890
 H307 H 1.03581 0.43786 -0.10853
 H308 H 1.04289 0.43392 0.13531
 H309 H 1.02295 0.48359 0.27688
 H310 H 1.00388 0.52087 0.29590
 O311 O 0.43247 0.45265 0.18237
 O312 O 0.43481 0.50197 0.13543
 C313 C 0.42236 0.47458 0.18559
 O314 O 0.58446 0.52265 0.13003
 O315 O 0.57521 0.48644 0.00808
 C316 C 0.59307 0.50500 0.07842
 O317 O 0.53116 0.55868 0.21170
 O318 O 0.48181 0.55258 0.14852
 C319 C 0.50651 0.56516 0.20976
 O320 O 0.48181 0.41304 0.10061
 O321 O 0.52557 0.43320 -0.00292
 C322 C 0.50505 0.41073 0.05604
 Zr323 Zr 0.46979 0.45206 0.09791
 O324 O 0.47524 0.43803 0.23607
 O325 O 0.42421 0.40561 0.07449
 Zr326 Zr 0.54141 0.52887 0.11965
 O327 O 0.54930 0.51694 0.25810
 O328 O 0.58415 0.57833 0.13315
 O329 O 0.48990 0.50111 0.15085
 O330 O 0.52229 0.47748 0.10174
 O331 O 0.46965 0.43696 -0.21356
 O332 O 0.52056 0.44565 -0.15395
 C333 C 0.49530 0.43191 -0.21301
 O334 O 0.51561 0.58220 -0.11759
 O335 O 0.47475 0.56397 -0.00557
 C336 C 0.49301 0.58480 -0.07048
 O337 O 0.57245 0.54834 -0.18141
 O338 O 0.56898 0.49817 -0.13885
 C339 C 0.58279 0.52661 -0.18453
 O340 O 0.41967 0.47917 -0.14448
 O341 O 0.42856 0.51408 -0.01943
 C342 C 0.41171 0.49759 -0.09355
 Zr343 Zr 0.46054 0.46929 -0.12707
 O344 O 0.45561 0.47740 -0.27129
 O345 O 0.41432 0.42234 -0.13307
 Zr346 Zr 0.53198 0.54630 -0.10601
 O347 O 0.52933 0.55625 -0.25010
 O348 O 0.57407 0.59590 -0.08769
 Zr349 Zr 0.47365 0.51929 0.03686
 Zr350 Zr 0.52862 0.47915 -0.04408
 O351 O 0.51172 0.49746 -0.15634
 O352 O 0.47915 0.52111 -0.10981
 O353 O 0.47645 0.44275 -0.04033
 O354 O 0.52587 0.55496 0.03180
 O355 O 0.44392 0.46707 0.00773
 O356 O 0.55875 0.53153 -0.01577
 H357 H 0.53271 0.46736 0.14237
 H358 H 0.53385 0.57890 0.04829
 H359 H 0.51808 0.49570 -0.22109
 H360 H 0.41898 0.45564 0.01496
 H361 H 0.60101 0.58052 0.08698
 H362 H 0.59335 0.59360 -0.06416
 H363 H 0.50590 0.55114 -0.26416
 H364 H 0.45791 0.50006 -0.27753
 H365 H 0.41921 0.40465 -0.11048
 H366 H 0.41922 0.39296 0.13438
 H367 H 0.48098 0.45763 0.27697
 H368 H 0.52821 0.50989 0.29275
 O369 O 0.52691 -0.05463 0.17604
 O370 O 0.47232 -0.08665 0.11958
 C371 C 0.49797 -0.08257 0.17125
 O372 O 0.51156 0.06883 0.16759
 O373 O 0.55359 0.09140 0.05880
 C374 C 0.53741 0.09416 0.12865
 O375 O 0.44632 -0.02010 0.21828
 O376 O 0.43322 -0.06935 0.14256
 C377 C 0.42770 -0.05255 0.20583
 O378 O 0.59520 0.03243 0.11577
 O379 O 0.59204 0.07414 0.03328
 C380 C 0.60835 0.06322 0.08445
 Zr381 Zr 0.54477 -0.00855 0.10467
 O382 O 0.56271 0.00091 0.24521
 O383 O 0.57746 -0.02699 0.07132
 Zr384 Zr 0.48811 0.01651 0.14238
 O385 O 0.50612 0.02503 0.28310
 O386 O 0.45202 0.03049 0.17752
 O387 O 0.49666 -0.02392 0.15732
 O388 O 0.53884 0.03276 0.12634
 O389 O 0.56543 0.01722 -0.19707
 O390 O 0.57798 0.06642 -0.12137
 C391 C 0.58344 0.04986 -0.18559
 O392 O 0.41666 -0.03785 -0.10881
 O393 O 0.41941 -0.07696 -0.01212
 C394 C 0.40345 -0.06791 -0.07057
 O395 O 0.48323 0.05674 -0.13898
 O396 O 0.53910 0.08488 -0.09050
 C397 C 0.51308 0.08415 -0.13069
 O398 O 0.49432 -0.07179 -0.16106
 O399 O 0.45615 -0.09357 -0.04197
 C400 C 0.46874 -0.09673 -0.11918
 Zr401 Zr 0.52266 -0.01958 -0.12398
 O402 O 0.51168 -0.02218 -0.26945
 O403 O 0.55541 -0.03904 -0.14507
 Zr404 Zr 0.46628 0.00606 -0.08885
 O405 O 0.45799 0.00325 -0.23580
 O406 O 0.42703 0.01731 -0.07261
 Zr407 Zr 0.46958 -0.04935 0.03498
 Zr408 Zr 0.54119 0.04660 -0.01530
 O409 O 0.51407 0.02077 -0.13728
 O410 O 0.47130 -0.03636 -0.10825
 O411 O 0.55952 0.01276 -0.02738
 O412 O 0.45237 -0.01442 0.04354
 O413 O 0.51673 -0.04415 0.00268
 O414 O 0.49387 0.04165 0.01561
 H415 H 0.55467 0.04970 0.17255
 H416 H 0.42838 -0.02227 0.05806
 H417 H 0.52025 0.03346 -0.19720
 H418 H 0.51874 -0.06477 0.00153
 H419 H 0.44998 0.04304 0.12338
 H420 H 0.43581 0.03684 -0.02932
 H421 H 0.44677 -0.02096 -0.25392
 H422 H 0.48680 -0.03656 -0.27797
 H423 H 0.57668 -0.02438 -0.10945
 H424 H 0.58942 -0.02654 0.13048
 H425 H 0.54286 -0.00544 0.28483
 H426 H 0.49720 0.00263 0.31369
 N427 N 1.16356 0.56037 0.07388
 N428 N 1.18987 0.56046 0.11585
 C429 C 1.17735 0.53261 0.17141
 C430 C 1.14244 0.51547 0.16112
 N431 N 1.13493 0.53350 0.10053
 H432 H 1.12381 0.49251 0.19554
 N433 N 0.53058 0.60236 0.34528
 N434 N 0.52680 0.62529 0.39118
 C435 C 0.50031 0.62629 0.35067
 C436 C 0.48783 0.60289 0.27829
 N437 N 0.50743 0.58861 0.27740
 H438 H 0.46749 0.59764 0.22877
 N439 N 0.37977 -0.05395 0.27623
 N440 N 0.34971 -0.07575 0.30991
 C441 C 0.34761 -0.10629 0.31304
 C442 C 0.37775 -0.10243 0.27947
 N443 N 0.39695 -0.06932 0.25725
 H444 H 0.38439 -0.12176 0.26800
 N445 N 0.88038 0.44463 0.27949
 N446 N 0.85425 0.44189 0.32539
 C447 C 0.85873 0.47337 0.33190
 C448 C 0.88906 0.49575 0.28897
 N449 N 0.90162 0.47666 0.25727
 H450 H 0.89941 0.52252 0.27498
 N451 N 0.53090 0.37606 0.03314
 N452 N 0.53275 0.35116 0.07600
 C453 C 0.51164 0.34149 0.14941
 C454 C 0.49660 0.36119 0.14975
 N455 N 0.50937 0.38242 0.07645
 H456 H 0.47999 0.36180 0.20175
 N457 N 0.66694 0.07913 0.11713
 N458 N 0.69418 0.10386 0.15960
 C459 C 0.68655 0.12775 0.18357
 C460 C 0.65371 0.11700 0.15290
 N461 N 0.64257 0.08673 0.11174
 H462 H 0.63859 0.12875 0.16453
 N463 N 0.54376 0.14504 -0.12566
 N464 N 0.54395 0.17178 -0.16223
 C465 C 0.51759 0.16035 -0.22353
 C466 C 0.50077 0.12483 -0.22239
 N467 N 0.51826 0.11659 -0.16039
 H468 H 0.47876 0.10696 -0.26312
 N469 N 0.62708 0.56212 -0.29434
 N470 N 0.65272 0.56263 -0.33775
 C471 C 0.65325 0.53435 -0.31161
 C472 C 0.62680 0.51642 -0.25050
 N473 N 0.61125 0.53459 -0.24184
 H474 H 0.61944 0.49268 -0.21511
 N475 N 0.89917 0.34849 -0.09153
 N476 N 0.87447 0.32046 -0.13049
 C477 C 0.86520 0.32954 -0.21117
 C478 C 0.88558 0.36453 -0.22064
 N479 N 0.90635 0.37505 -0.14478
 H480 H 0.88541 0.38080 -0.27602
 N481 N 0.42353 -0.15544 -0.13240
 N482 N 0.41502 -0.18295 -0.18237
 C483 C 0.43979 -0.17453 -0.24502
 C484 C 0.46394 -0.14061 -0.23156
 N485 N 0.45281 -0.12982 -0.16056
 H486 H 0.48755 -0.12544 -0.26782
 N487 N 0.37346 0.51879 -0.07013
 N488 N 0.34891 0.52101 -0.11423
 C489 C 0.34258 0.50384 -0.19539
 C490 C 0.36418 0.49081 -0.19956
 N491 N 0.38307 0.50090 -0.11995
 H492 H 0.36715 0.47711 -0.25655
 N493 N 1.05541 0.64669 -0.22065
 N494 N 1.07804 0.67543 -0.26048
 C495 C 1.10598 0.67313 -0.27495
 C496 C 1.09969 0.64189 -0.24178
 N497 N 1.06799 0.62639 -0.20866
 H498 H 1.11645 0.63155 -0.23984
 N499 N 0.84381 0.43838 -0.11296
 N500 N 0.81713 0.43652 -0.15763
 C501 C 0.82743 0.46735 -0.19609
 C502 C 0.86132 0.48813 -0.17309
 N503 N 0.87051 0.46918 -0.12186
 H504 H 0.87833 0.51401 -0.19475
 N505 N 0.51942 0.42659 -0.35507
 N506 N 0.52436 0.40393 -0.39786
 C507 C 0.50558 0.37401 -0.35356
 C508 C 0.48853 0.37922 -0.28206
 N509 N 0.49771 0.41228 -0.28625
 H510 H 0.47341 0.36172 -0.22762
 N511 N 0.62035 0.05343 -0.31031
 N512 N 0.64690 0.07642 -0.35702
 C513 C 0.65472 0.10709 -0.32329
 C514 C 0.63192 0.10208 -0.25373
 N515 N 0.61101 0.06826 -0.24802
 H516 H 0.63081 0.12091 -0.21086
 N517 N 1.12680 0.56055 -0.28712
 N518 N 1.15203 0.56228 -0.33546
 C519 C 1.14746 0.53070 -0.33775
 C520 C 1.11806 0.50929 -0.28970
 N521 N 1.10612 0.52903 -0.25944
 H522 H 1.10738 0.48260 -0.27394
 N523 N 0.49831 0.63922 -0.03693
 N524 N 0.49202 0.66159 -0.07845
 C525 C 0.47689 0.64822 -0.16206
 C526 C 0.47427 0.61683 -0.17054
 N527 N 0.48796 0.61243 -0.09143
 H528 H 0.46461 0.59936 -0.22906
 N529 N 0.35268 -0.12017 -0.03641
 N530 N 0.32516 -0.14414 -0.07899
 C531 C 0.32386 -0.13251 -0.16520
 C532 C 0.35166 -0.09980 -0.17339
 N533 N 0.36910 -0.09343 -0.09147
 H534 H 0.36025 -0.08396 -0.23523
 N535 N 0.52051 -0.10505 0.28558
 N536 N 0.51528 -0.13415 0.32015
 C537 C 0.48594 -0.15861 0.28190
 C538 C 0.47294 -0.14349 0.22254
 N539 N 0.49567 -0.10990 0.22678
 H540 H 0.45061 -0.15564 0.17733
 N541 N 0.37474 0.43730 0.28324
 N542 N 0.34894 0.43713 0.32457
 C543 C 0.35310 0.46836 0.31247
 C544 C 0.38218 0.48770 0.26242
 N545 N 0.39484 0.46737 0.24540
 H546 H 0.39211 0.51332 0.23651
 N547 N 1.12689 0.65248 0.06960
 N548 N 1.15067 0.67981 0.11319
 C549 C 1.13956 0.67911 0.20023
 C550 C 1.10776 0.65026 0.20874
 N551 N 1.10101 0.63430 0.12533
 H552 H 1.09258 0.64055 0.27090
 N553 N 0.57922 0.15343 0.16577
 N554 N 0.58056 0.17854 0.21551
 C555 C 0.54902 0.16702 0.24830
 C556 C 0.52849 0.13442 0.21750
 N557 N 0.54806 0.12687 0.16639
 H558 H 0.50192 0.11744 0.23223
 N559 N 0.64437 0.50445 0.03835
 N560 N 0.67052 0.50455 0.08088
 C561 C 0.66620 0.50557 0.17374
 C562 C 0.63678 0.50642 0.18694
 N563 N 0.62405 0.50574 0.10090
 H564 H 0.62537 0.50673 0.25237
 N565 N 0.95309 0.37726 0.28303
 N566 N 0.93026 0.35021 0.32892
 C567 C 0.89942 0.34417 0.29919
 C568 C 0.90414 0.36848 0.23330
 N569 N 0.93787 0.38850 0.22546
 H570 H 0.88519 0.37163 0.19506
   
