data_POSCAR
  _audit_creation_date              2014-09-24
  _audit_creation_method            'ToBaCCo'
  _symmetry_space_group_name_H-M    'P1'
  _symmetry_Int_Tables_number       1
  _symmetry_cell_setting            triclinic
  loop_
  _symmetry_equiv_pos_as_xyz
 x,y,z
_cell_length_a 47.2456
_cell_length_b 47.2468
_cell_length_c 45.2079
_cell_angle_alpha 90.037300
_cell_angle_beta 89.901900
_cell_angle_gamma 89.983200
loop_
  _atom_site_label
  _atom_site_type_symbol
  _atom_site_fract_x
  _atom_site_fract_y
  _atom_site_fract_z
C1 C 0.29321 0.28856 0.23834
 H2 H 0.29452 0.28900 0.26223
 C3 C 0.31139 0.30534 0.22143
 H4 H 0.32671 0.31886 0.23228
 C5 C 0.27182 0.27024 0.19493
 H6 H 0.25667 0.25626 0.18465
 C7 C 0.28961 0.28667 0.17719
 H8 H 0.28790 0.28552 0.15333
 N9 N 0.27366 0.27175 0.22494
 C10 C 0.20691 0.26036 0.29072
 H11 H 0.20568 0.23750 0.29137
 C12 C 0.18873 0.27660 0.30825
 H13 H 0.17349 0.26627 0.32256
 C14 C 0.22803 0.30184 0.27107
 H15 H 0.24304 0.31163 0.25624
 C16 C 0.21024 0.31887 0.28822
 H17 H 0.21183 0.34170 0.28676
 Zn18 Zn 0.24996 0.24960 0.24958
 N19 N 0.22631 0.27313 0.27289
 C20 C 0.27223 0.22902 0.30398
 N21 N 0.27380 0.22741 0.27395
 C22 C 0.29321 0.21052 0.26035
 C23 C 0.31153 0.19376 0.27708
 C24 C 0.29017 0.21261 0.32154
 C25 C 0.20655 0.23897 0.20898
 C26 C 0.18816 0.22278 0.19172
 C27 C 0.20973 0.18045 0.21149
 C28 C 0.22773 0.19742 0.22837
 N29 N 0.22608 0.22614 0.22656
 H30 H 0.25720 0.24306 0.31441
 H31 H 0.29432 0.21001 0.23645
 H32 H 0.32675 0.18020 0.26608
 H33 H 0.28868 0.21386 0.34542
 H34 H 0.20538 0.26183 0.20835
 H35 H 0.17281 0.23316 0.17763
 H36 H 0.21125 0.15761 0.21294
 H37 H 0.24285 0.18758 0.24300
 C38 C 0.19050 0.30612 0.30705
 C39 C 0.30948 0.30447 0.19058
 C40 C 0.18985 0.19326 0.19293
 C41 C 0.30990 0.19475 0.30795
 C42 C 0.79393 0.78945 0.23806
 H43 H 0.79527 0.78994 0.26194
 C44 C 0.81202 0.80628 0.22108
 H45 H 0.82729 0.81986 0.23195
 C46 C 0.77253 0.77096 0.19473
 H47 H 0.75742 0.75690 0.18451
 C48 C 0.79023 0.78743 0.17691
 H49 H 0.78842 0.78617 0.15305
 N50 N 0.77442 0.77255 0.22473
 C51 C 0.70774 0.76108 0.29058
 H52 H 0.70656 0.73822 0.29124
 C53 C 0.68953 0.77730 0.30810
 H54 H 0.67431 0.76694 0.32241
 C55 C 0.72876 0.80260 0.27089
 H56 H 0.74375 0.81241 0.25606
 C57 C 0.71094 0.81959 0.28803
 H58 H 0.71248 0.84243 0.28656
 Zn59 Zn 0.75080 0.75038 0.24944
 N60 N 0.72711 0.77388 0.27273
 C61 C 0.77309 0.72986 0.30386
 N62 N 0.77470 0.72826 0.27383
 C63 C 0.79412 0.71138 0.26025
 C64 C 0.81239 0.69458 0.27700
 C65 C 0.79098 0.71342 0.32144
 C66 C 0.70738 0.73957 0.20890
 C67 C 0.68901 0.72330 0.19169
 C68 C 0.71070 0.68106 0.21153
 C69 C 0.72867 0.69811 0.22837
 N70 N 0.72695 0.72682 0.22649
 H71 H 0.75804 0.74391 0.31427
 H72 H 0.79525 0.71086 0.23635
 H73 H 0.82760 0.68099 0.26602
 H74 H 0.78944 0.71464 0.34532
 H75 H 0.70615 0.76242 0.20822
 H76 H 0.67363 0.73361 0.17759
 H77 H 0.71229 0.65823 0.21303
 H78 H 0.74383 0.68834 0.24300
 C79 C 0.69123 0.80682 0.30687
 C80 C 0.81006 0.80535 0.19022
 C81 C 0.69077 0.69378 0.19296
 C82 C 0.81070 0.69553 0.30787
 C83 C 0.79411 0.28794 0.73951
 H84 H 0.79546 0.28843 0.76339
 C85 C 0.81222 0.30474 0.72253
 H86 H 0.82754 0.31831 0.73332
 C87 C 0.77267 0.26952 0.69617
 H88 H 0.75752 0.25550 0.68595
 C89 C 0.79039 0.28597 0.67837
 H90 H 0.78863 0.28478 0.65451
 N91 N 0.77456 0.27109 0.72618
 C92 C 0.70782 0.25984 0.79201
 H93 H 0.70658 0.23699 0.79271
 C94 C 0.68961 0.27614 0.80946
 H95 H 0.67436 0.26585 0.82377
 C96 C 0.72895 0.30127 0.77225
 H97 H 0.74398 0.31102 0.75740
 C98 C 0.71114 0.31834 0.78932
 H99 H 0.71272 0.34117 0.78779
 Zn100 Zn 0.75087 0.24898 0.75088
 N101 N 0.72724 0.27257 0.77415
 C102 C 0.77310 0.22839 0.80529
 N103 N 0.77470 0.22679 0.77526
 C104 C 0.79408 0.20987 0.76167
 C105 C 0.81235 0.19305 0.77839
 C106 C 0.79097 0.21193 0.82287
 C107 C 0.70743 0.23835 0.71033
 C108 C 0.68905 0.22217 0.69305
 C109 C 0.71061 0.17983 0.71279
 C110 C 0.72861 0.19680 0.72970
 N111 N 0.72696 0.22552 0.72789
 H112 H 0.75808 0.24246 0.81570
 H113 H 0.79519 0.20937 0.73777
 H114 H 0.82751 0.17947 0.76725
 H115 H 0.78936 0.21326 0.84676
 H116 H 0.70626 0.26121 0.70969
 H117 H 0.67371 0.23255 0.67895
 H118 H 0.71215 0.15700 0.71422
 H119 H 0.74373 0.18696 0.74432
 C120 C 0.69138 0.30565 0.80816
 C121 C 0.81024 0.30383 0.69169
 C122 C 0.69074 0.19265 0.69423
 C123 C 0.81070 0.19399 0.80930
 C124 C 0.29305 0.78906 0.73881
 H125 H 0.29436 0.78956 0.76269
 C126 C 0.31121 0.80583 0.72185
 H127 H 0.32651 0.81939 0.73266
 C128 C 0.27169 0.77060 0.69544
 H129 H 0.25657 0.75656 0.68520
 C130 C 0.28946 0.78702 0.67766
 H131 H 0.28776 0.78579 0.65380
 N132 N 0.27353 0.77219 0.72545
 C133 C 0.20682 0.76075 0.79128
 H134 H 0.20565 0.73789 0.79198
 C135 C 0.18858 0.77699 0.80874
 H136 H 0.17335 0.76665 0.82305
 C137 C 0.22784 0.80225 0.77153
 H138 H 0.24283 0.81205 0.75669
 C139 C 0.20998 0.81926 0.78861
 H140 H 0.21150 0.84210 0.78709
 Zn141 Zn 0.24988 0.75003 0.75013
 N142 N 0.22620 0.77354 0.77343
 C143 C 0.27220 0.72945 0.80453
 N144 N 0.27378 0.72789 0.77450
 C145 C 0.29322 0.71106 0.76087
 C146 C 0.31156 0.69430 0.77758
 C147 C 0.29016 0.71304 0.82206
 C148 C 0.20649 0.73926 0.70955
 C149 C 0.18816 0.72300 0.69229
 C150 C 0.20982 0.68075 0.71211
 C151 C 0.22777 0.69778 0.72900
 N152 N 0.22605 0.72649 0.72715
 H153 H 0.25713 0.74345 0.81498
 H154 H 0.29433 0.71058 0.73697
 H155 H 0.32680 0.68077 0.76655
 H156 H 0.28865 0.71423 0.84595
 H157 H 0.20527 0.76211 0.70889
 H158 H 0.17280 0.73333 0.67817
 H159 H 0.21141 0.65792 0.71358
 H160 H 0.24290 0.68800 0.74364
 C161 C 0.19026 0.80651 0.80745
 C162 C 0.30930 0.80487 0.69100
 C163 C 0.18993 0.69348 0.69352
 C164 C 0.30991 0.69522 0.80844
 C165 C 0.03776 0.04377 0.01094
 H166 H 0.03825 0.04510 -0.01295
 C167 C 0.05456 0.06190 0.02786
 H168 H 0.06813 0.07720 0.01701
 C169 C 0.01934 0.02237 0.05434
 H170 H 0.00532 0.00724 0.06462
 C171 C 0.03579 0.04012 0.07209
 H172 H 0.03461 0.03838 0.09595
 N173 N 0.02090 0.02423 0.02433
 C174 C 0.00962 -0.04252 -0.04138
 H175 H -0.01323 -0.04374 -0.04207
 C176 C 0.02591 -0.06075 -0.05881
 H177 H 0.01561 -0.07600 -0.07310
 C178 C 0.05107 -0.02142 -0.02167
 H179 H 0.06082 -0.00640 -0.00686
 C180 C 0.06813 -0.03925 -0.03873
 H181 H 0.09096 -0.03769 -0.03722
 Zn182 Zn -0.00121 0.00054 -0.00030
 N183 N 0.02236 -0.02311 -0.02356
 C184 C -0.02177 0.02278 -0.05474
 N185 N -0.02338 0.02438 -0.02471
 C186 C -0.04028 0.04379 -0.01114
 C187 C -0.05706 0.06208 -0.02789
 C188 C -0.03819 0.04069 -0.07232
 C189 C -0.01190 -0.04286 0.04034
 C190 C -0.02811 -0.06124 0.05763
 C191 C -0.07042 -0.03966 0.03786
 C192 C -0.05343 -0.02167 0.02093
 N193 N -0.02471 -0.02333 0.02274
 H194 H -0.00771 0.00775 -0.06515
 H195 H -0.04080 0.04492 0.01276
 H196 H -0.07065 0.07729 -0.01691
 H197 H -0.03695 0.03917 -0.09620
 H198 H 0.01096 -0.04404 0.04097
 H199 H -0.01775 -0.07658 0.07174
 H200 H -0.09325 -0.03812 0.03642
 H201 H -0.06325 -0.00655 0.00629
 C202 C 0.05543 -0.05901 -0.05753
 C203 C 0.05365 0.05995 0.05870
 C204 C -0.05763 -0.05953 0.05644
 C205 C -0.05608 0.06041 -0.05875
 C206 C 0.03870 0.54329 0.51138
 H207 H 0.03921 0.54460 0.48749
 C208 C 0.05546 0.56146 0.52830
 H209 H 0.06901 0.57678 0.51746
 C210 C 0.02025 0.52191 0.55478
 H211 H 0.00623 0.50677 0.56505
 C212 C 0.03665 0.53970 0.57253
 H213 H 0.03543 0.53799 0.59639
 N214 N 0.02185 0.52375 0.52477
 C215 C 0.01053 0.45699 0.45907
 H216 H -0.01233 0.45578 0.45842
 C217 C 0.02679 0.43878 0.44159
 H218 H 0.01647 0.42354 0.42732
 C219 C 0.05200 0.47810 0.47871
 H220 H 0.06178 0.49312 0.49351
 C221 C 0.06904 0.46028 0.46161
 H222 H 0.09187 0.46185 0.46308
 Zn223 Zn -0.00027 0.50006 0.50014
 N224 N 0.02329 0.47640 0.47687
 C225 C -0.02076 0.52232 0.44570
 N226 N -0.02242 0.52390 0.47573
 C227 C -0.03933 0.54331 0.48929
 C228 C -0.05606 0.56163 0.47252
 C229 C -0.03714 0.54026 0.42811
 C230 C -0.01093 0.45666 0.54077
 C231 C -0.02713 0.43827 0.55807
 C232 C -0.06945 0.45985 0.53832
 C233 C -0.05248 0.47785 0.52139
 N234 N -0.02376 0.47619 0.52318
 H235 H -0.00670 0.50729 0.43530
 H236 H -0.03989 0.54442 0.51319
 H237 H -0.06965 0.57685 0.48349
 H238 H -0.03584 0.53877 0.40423
 H239 H 0.01193 0.45548 0.54139
 H240 H -0.01676 0.42293 0.57217
 H241 H -0.09229 0.46139 0.53690
 H242 H -0.06230 0.49297 0.50676
 C243 C 0.05631 0.44053 0.44282
 C244 C 0.05449 0.55955 0.55915
 C245 C -0.05665 0.43997 0.55690
 C246 C -0.05502 0.55999 0.44166
 C247 C 0.53915 0.04349 0.51150
 H248 H 0.53971 0.04486 0.48762
 C249 C 0.55593 0.06157 0.52850
 H250 H 0.56955 0.07688 0.51773
 C251 C 0.52058 0.02205 0.55481
 H252 H 0.50651 0.00692 0.56501
 C253 C 0.53700 0.03974 0.57263
 H254 H 0.53573 0.03797 0.59649
 N255 N 0.52223 0.02395 0.52480
 C256 C 0.51098 -0.04267 0.45895
 H257 H 0.48812 -0.04387 0.45824
 C258 C 0.52726 -0.06086 0.44146
 H259 H 0.51695 -0.07606 0.42713
 C260 C 0.55242 -0.02164 0.47872
 H261 H 0.56219 -0.00666 0.49357
 C262 C 0.56948 -0.03943 0.46161
 H263 H 0.59231 -0.03788 0.46313
 Zn264 Zn 0.50014 0.00034 0.50007
 N265 N 0.52371 -0.02331 0.47681
 C266 C 0.47970 0.02266 0.44562
 N267 N 0.47806 0.02425 0.47565
 C268 C 0.46114 0.04365 0.48922
 C269 C 0.44437 0.06193 0.47245
 C270 C 0.46328 0.04056 0.42803
 C271 C 0.48927 -0.04310 0.54062
 C272 C 0.47297 -0.06146 0.55786
 C273 C 0.43076 -0.03978 0.53797
 C274 C 0.44784 -0.02181 0.52111
 N275 N 0.47654 -0.02353 0.52300
 H276 H 0.49377 0.00763 0.43522
 H277 H 0.46059 0.04476 0.51311
 H278 H 0.43075 0.07713 0.48343
 H279 H 0.46454 0.03904 0.40416
 H280 H 0.51212 -0.04433 0.54132
 H281 H 0.48326 -0.07683 0.57199
 H282 H 0.40794 -0.03818 0.53646
 H283 H 0.43809 -0.00666 0.50645
 C284 C 0.55677 -0.05913 0.44274
 C285 C 0.55492 0.05958 0.55934
 C286 C 0.44346 -0.05969 0.55658
 C287 C 0.44537 0.06026 0.44159
 C288 C 0.53920 0.54354 0.01123
 H289 H 0.53971 0.54484 -0.01265
 C290 C 0.55597 0.56170 0.02815
 H291 H 0.56954 0.57700 0.01731
 C292 C 0.52074 0.52219 0.05465
 H293 H 0.50671 0.50706 0.06492
 C294 C 0.53716 0.53996 0.07239
 H295 H 0.53594 0.53826 0.09625
 N296 N 0.52233 0.52402 0.02463
 C297 C 0.51102 0.45726 -0.04107
 H298 H 0.48816 0.45608 -0.04178
 C299 C 0.52729 0.43899 -0.05847
 H300 H 0.51698 0.42374 -0.07274
 C301 C 0.55247 0.47831 -0.02133
 H302 H 0.56224 0.49332 -0.00651
 C303 C 0.56952 0.46043 -0.03835
 H304 H 0.59235 0.46195 -0.03680
 Zn305 Zn 0.50021 0.50035 -0.00001
 N306 N 0.52376 0.47666 -0.02325
 C307 C 0.47965 0.52260 -0.05445
 N308 N 0.47808 0.52421 -0.02442
 C309 C 0.46122 0.54364 -0.01083
 C310 C 0.44443 0.56193 -0.02757
 C311 C 0.46322 0.54051 -0.07201
 C312 C 0.48940 0.45697 0.04064
 C313 C 0.47313 0.43860 0.05789
 C314 C 0.43089 0.46021 0.03798
 C315 C 0.44794 0.47819 0.02111
 N316 N 0.47665 0.47651 0.02300
 H317 H 0.49368 0.50754 -0.06487
 H318 H 0.46073 0.54477 0.01307
 H319 H 0.43087 0.57716 -0.01657
 H320 H 0.46442 0.53898 -0.09590
 H321 H 0.51226 0.45577 0.04134
 H322 H 0.48344 0.42324 0.07202
 H323 H 0.40806 0.46177 0.03646
 H324 H 0.43818 0.49331 0.00643
 C325 C 0.55681 0.44068 -0.05714
 C326 C 0.55502 0.55979 0.05900
 C327 C 0.44361 0.44032 0.05659
 C328 C 0.44537 0.56025 -0.05843
 C329 C 0.13840 -0.14428 -0.14180
 N330 N 0.14093 -0.14430 -0.11192
 N331 N 0.12439 -0.12780 -0.09536
 C332 C 0.10481 -0.11079 -0.10818
 N333 N 0.10226 -0.11078 -0.13806
 N334 N 0.11881 -0.12728 -0.15462
 C335 C 0.15648 -0.16176 -0.15965
 C336 C 0.17181 -0.17630 -0.17464
 C337 C 0.08727 -0.09274 -0.09037
 C338 C 0.07268 -0.07743 -0.07540
 C339 C 0.13895 0.35533 0.35813
 N340 N 0.11817 0.37106 0.34559
 N341 N 0.10171 0.38755 0.36226
 C342 C 0.10554 0.38881 0.39196
 N343 N 0.12630 0.37306 0.40449
 N344 N 0.14276 0.35657 0.38783
 C345 C 0.15692 0.33786 0.34015
 C346 C 0.17216 0.32332 0.32505
 C347 C 0.08807 0.40684 0.40985
 C348 C 0.07352 0.42213 0.42489
 C349 C 0.63958 -0.14410 0.35796
 N350 N 0.64309 -0.14321 0.38772
 N351 N 0.62660 -0.12677 0.40440
 C352 C 0.60608 -0.11072 0.39182
 N353 N 0.60255 -0.11162 0.36207
 N354 N 0.61905 -0.12806 0.34539
 C355 C 0.65759 -0.16151 0.33998
 C356 C 0.67285 -0.17602 0.32488
 C357 C 0.58858 -0.09273 0.40974
 C358 C 0.57401 -0.07749 0.42479
 C359 C 0.63967 0.35504 -0.14113
 N360 N 0.64387 0.35701 -0.11153
 N361 N 0.62736 0.37358 -0.09501
 C362 C 0.60615 0.38869 -0.10760
 N363 N 0.60193 0.38671 -0.13720
 N364 N 0.61844 0.37014 -0.15372
 C365 C 0.65769 0.33750 -0.15897
 C366 C 0.67298 0.32291 -0.17395
 C367 C 0.58862 0.40682 -0.08986
 C368 C 0.57404 0.42219 -0.07495
 C369 C -0.13928 0.14586 -0.14218
 N370 N -0.12105 0.12751 -0.15525
 N371 N -0.10450 0.11093 -0.13886
 C372 C -0.10568 0.11219 -0.10891
 N373 N -0.12390 0.13055 -0.09584
 N374 N -0.14045 0.14713 -0.11223
 C375 C -0.15733 0.16347 -0.15981
 C376 C -0.17262 0.17817 -0.17464
 C377 C -0.08810 0.09411 -0.09127
 C378 C -0.07344 0.07881 -0.07645
 C379 C -0.13778 0.64572 0.35808
 N380 N -0.13881 0.64719 0.38802
 N381 N -0.12235 0.63055 0.40444
 C382 C -0.10437 0.61194 0.39141
 N383 N -0.10333 0.61047 0.36147
 N384 N -0.11979 0.62711 0.34505
 C385 C -0.15575 0.66338 0.34041
 C386 C -0.17097 0.67811 0.32557
 C387 C -0.08688 0.59380 0.40909
 C388 C -0.07230 0.57845 0.42394
 C389 C 0.36184 0.14531 0.35809
 N390 N 0.36105 0.14699 0.38803
 N391 N 0.37768 0.13050 0.40443
 C392 C 0.39560 0.11184 0.39138
 N393 N 0.39640 0.11017 0.36144
 N394 N 0.37977 0.12666 0.34504
 C395 C 0.34370 0.16283 0.34044
 C396 C 0.32835 0.17744 0.32563
 C397 C 0.41326 0.09385 0.40904
 C398 C 0.42797 0.07861 0.42388
 C399 C 0.36185 0.64562 -0.14158
 N400 N 0.37999 0.62723 -0.15473
 N401 N 0.39662 0.61067 -0.13841
 C402 C 0.39561 0.61200 -0.10845
 N403 N 0.37748 0.63039 -0.09531
 N404 N 0.36085 0.64696 -0.11163
 C405 C 0.34371 0.66321 -0.15915
 C406 C 0.32836 0.67787 -0.17392
 C407 C 0.41326 0.59393 -0.09088
 C408 C 0.42797 0.57863 -0.07610
 C409 C -0.13985 -0.14569 0.14037
 N410 N -0.11777 -0.13162 0.15265
 N411 N -0.10142 -0.11493 0.13612
 C412 C -0.10666 -0.11180 0.10681
 N413 N -0.12873 -0.12588 0.09453
 N414 N -0.14508 -0.14257 0.11107
 C415 C -0.15766 -0.16338 0.15823
 C416 C -0.17276 -0.17813 0.17325
 C417 C -0.08928 -0.09356 0.08908
 C418 C -0.07479 -0.07812 0.07419
 C419 C -0.13874 0.35374 0.64088
 N420 N -0.11678 0.36798 0.65318
 N421 N -0.10046 0.38470 0.63664
 C422 C -0.10561 0.38767 0.60730
 N423 N -0.12756 0.37342 0.59499
 N424 N -0.14387 0.35671 0.61154
 C425 C -0.15653 0.33603 0.65875
 C426 C -0.17160 0.32128 0.67377
 C427 C -0.08826 0.40592 0.58955
 C428 C -0.07379 0.42138 0.57466
 C429 C 0.36069 -0.14550 0.64030
 N430 N 0.38289 -0.13165 0.65260
 N431 N 0.39936 -0.11504 0.63610
 C432 C 0.39412 -0.11178 0.60681
 N433 N 0.37193 -0.12564 0.59451
 N434 N 0.35546 -0.14225 0.61101
 C435 C 0.34275 -0.16310 0.65812
 C436 C 0.32756 -0.17777 0.67310
 C437 C 0.41163 -0.09362 0.58913
 C438 C 0.42621 -0.07822 0.57428
 C439 C 0.36089 0.35424 0.14005
 N440 N 0.38297 0.36819 0.15244
 N441 N 0.39944 0.38486 0.13601
 C442 C 0.39431 0.38808 0.10669
 N443 N 0.37223 0.37411 0.09430
 N444 N 0.35577 0.35744 0.11073
 C445 C 0.34294 0.33657 0.15780
 C446 C 0.32775 0.32187 0.17274
 C447 C 0.41181 0.40630 0.08907
 C448 C 0.42638 0.42174 0.07427
 C449 C 0.13750 0.14426 0.14273
 N450 N 0.12323 0.12236 0.15513
 N451 N 0.10651 0.10601 0.13867
 C452 C 0.10356 0.11107 0.10931
 N453 N 0.11782 0.13298 0.09691
 N454 N 0.13454 0.14933 0.11338
 C455 C 0.15577 0.16164 0.16040
 C456 C 0.17124 0.17612 0.17523
 C457 C 0.08585 0.09324 0.09151
 C458 C 0.07110 0.07814 0.07656
 C459 C 0.13785 0.64427 0.64326
 N460 N 0.13528 0.64902 0.61380
 N461 N 0.11867 0.63258 0.59731
 C462 C 0.10413 0.61090 0.60978
 N463 N 0.10668 0.60616 0.63924
 N464 N 0.12329 0.62259 0.65573
 C465 C 0.15601 0.66173 0.66095
 C466 C 0.17140 0.67628 0.67580
 C467 C 0.08652 0.59298 0.59198
 C468 C 0.07185 0.57780 0.57701
 C469 C 0.63853 0.14371 0.64382
 N470 N 0.63549 0.14896 0.61451
 N471 N 0.61882 0.13264 0.59795
 C472 C 0.60469 0.11058 0.61022
 N473 N 0.60772 0.10533 0.63953
 N474 N 0.62439 0.12165 0.65609
 C475 C 0.65674 0.16106 0.66158
 C476 C 0.67217 0.17552 0.67647
 C477 C 0.58703 0.09279 0.59233
 C478 C 0.57232 0.07772 0.57729
 C479 C 0.63856 0.64451 0.14290
 N480 N 0.63508 0.64990 0.11367
 N481 N 0.61842 0.63345 0.09724
 C482 C 0.60475 0.61113 0.10955
 N483 N 0.60822 0.60575 0.13878
 N484 N 0.62488 0.62219 0.15521
 C485 C 0.65677 0.66199 0.16052
 C486 C 0.67220 0.67655 0.17531
 C487 C 0.58710 0.59321 0.09179
 C488 C 0.57240 0.57804 0.07685
   
