data_POSCAR
  _audit_creation_date              2014-09-24
  _audit_creation_method            'ToBaCCo'
  _symmetry_space_group_name_H-M    'P1'
  _symmetry_Int_Tables_number       1
  _symmetry_cell_setting            triclinic
  loop_
  _symmetry_equiv_pos_as_xyz
 x,y,z
_cell_length_a 23.9397
_cell_length_b 24.2670
_cell_length_c 21.3170
_cell_angle_alpha 89.282300
_cell_angle_beta 89.624600
_cell_angle_gamma 93.568600
loop_
  _atom_site_label
  _atom_site_type_symbol
  _atom_site_fract_x
  _atom_site_fract_y
  _atom_site_fract_z
C1 C 0.37305 0.01814 0.32911
 C2 C 0.35850 0.07273 0.30099
 C3 C 0.33473 0.06765 0.24340
 C4 C 0.32824 0.00769 0.21904
 C5 C 0.31857 -0.01729 0.32941
 C6 C 0.29684 -0.02607 0.27125
 C7 C 0.41060 -0.00825 0.28057
 C8 C 0.38697 -0.01425 0.22311
 H9 H 0.36328 0.11148 0.32563
 H10 H 0.30848 0.00392 0.17217
 H11 H 0.30696 -0.04428 0.36890
 H12 H 0.45400 -0.01596 0.28912
 C13 C 0.09138 -0.01485 0.79358
 C14 C 0.11866 -0.06794 0.77766
 C15 C 0.15651 -0.06149 0.72917
 C16 C 0.16310 -0.00302 0.70102
 C17 C 0.14057 0.02767 0.80527
 C18 C 0.17760 0.03465 0.75635
 C19 C 0.06555 0.00368 0.73644
 C20 C 0.10350 0.01122 0.68510
 H21 H 0.10979 -0.10661 0.80275
 H22 H 0.19318 0.00152 0.66109
 H23 H 0.13980 0.05662 0.84351
 H24 H 0.02363 0.01849 0.73523
 C25 C 0.59968 0.48404 0.29806
 C26 C 0.62991 0.43119 0.28979
 C27 C 0.67476 0.43812 0.25039
 C28 C 0.68473 0.49609 0.22159
 C29 C 0.64507 0.52788 0.31842
 C30 C 0.68912 0.53489 0.27726
 C31 C 0.58416 0.50261 0.23256
 C32 C 0.62866 0.50992 0.19280
 H33 H 0.61993 0.39321 0.31583
 H34 H 0.72083 0.50057 0.18855
 H35 H 0.63715 0.55782 0.35416
 H36 H 0.54133 0.50660 0.21795
 C37 C 0.89864 0.51629 0.78053
 C38 C 0.87702 0.57115 0.76150
 C39 C 0.83331 0.56599 0.72137
 C40 C 0.81622 0.50608 0.70268
 C41 C 0.84802 0.48205 0.80667
 C42 C 0.80627 0.47300 0.76426
 C43 C 0.91359 0.48825 0.71947
 C44 C 0.87025 0.48298 0.67840
 H45 H 0.89214 0.61025 0.78104
 H46 H 0.78069 0.50237 0.66947
 H47 H 0.85183 0.45551 0.84751
 H48 H 0.95634 0.48136 0.70625
 C49 C 0.30695 0.45096 0.99306
 C50 C 0.29319 0.43003 1.05939
 C51 C 0.25197 0.38987 1.06213
 C52 C 0.22720 0.37342 0.99896
 C53 C 0.31808 0.40004 0.95407
 C54 C 0.27626 0.36013 0.95655
 C55 C 0.25031 0.46985 0.96857
 C56 C 0.20843 0.42798 0.97296
 H57 H 0.31635 0.44358 1.10052
 H58 H 0.19334 0.34000 1.00190
 H59 H 0.35163 0.40002 0.91974
 H60 H 0.24237 0.51251 0.95882
 C61 C 0.78317 0.04335 0.99057
 C62 C 0.77746 0.07138 0.92680
 C63 C 0.73891 0.10956 0.92578
 C64 C 0.70697 0.11494 0.98729
 C65 C 0.79212 0.09015 1.03799
 C66 C 0.75273 0.12750 1.03599
 C67 C 0.72883 0.01711 1.00489
 C68 C 0.68562 0.05522 1.00343
 H69 H 0.80634 0.06652 0.88817
 H70 H 0.67392 0.14511 0.98563
 H71 H 0.82428 0.09047 1.07336
 H72 H 0.72309 -0.02370 1.02641
 C73 C 0.29212 0.56433 0.50136
 C74 C 0.28227 0.58502 0.43482
 C75 C 0.24375 0.62330 0.43121
 C76 C 0.21908 0.63900 0.49441
 C77 C 0.30715 0.61580 0.53979
 C78 C 0.26913 0.65439 0.53723
 C79 C 0.23307 0.54336 0.52442
 C80 C 0.19461 0.58335 0.51948
 H81 H 0.30633 0.57312 0.39450
 H82 H 0.18826 0.67128 0.49105
 H83 H 0.34105 0.61753 0.57302
 H84 H 0.22120 0.50016 0.53304
 C85 C 0.80629 0.93871 0.50843
 C86 C 0.79253 0.90332 0.56744
 C87 C 0.74929 0.86501 0.55942
 C88 C 0.72405 0.86533 0.49375
 C89 C 0.81587 0.89781 0.45583
 C90 C 0.77303 0.86049 0.44793
 C91 C 0.75079 0.96410 0.49193
 C92 C 0.70754 0.92478 0.48509
 H93 H 0.81772 0.90492 0.60948
 H94 H 0.68899 0.83376 0.48725
 H95 H 0.85191 0.89985 0.42527
 H96 H 0.74484 1.00790 0.49396
 C97 C -0.01385 0.30407 0.39214
 C98 C 0.03227 0.30609 0.34169
 C99 C 0.03539 0.25973 0.30767
 C100 C -0.01025 0.21511 0.32628
 C101 C -0.06586 0.29297 0.35828
 C102 C -0.06597 0.24411 0.32150
 C103 C -0.00344 0.25229 0.43237
 C104 C -0.00140 0.20568 0.39720
 H105 H 0.06558 0.33851 0.34062
 H106 H -0.00926 0.17684 0.29831
 H107 H -0.09790 0.32260 0.35414
 H108 H -0.00008 0.25231 0.48297
 C109 C 0.01032 0.79068 0.07594
 C110 C -0.03767 0.79235 0.12397
 C111 C -0.04419 0.74638 0.16139
 C112 C -0.00102 0.70315 0.14749
 C113 C 0.06177 0.78055 0.11560
 C114 C 0.05659 0.73504 0.15326
 C115 C -0.00137 0.73768 0.03857
 C116 C -0.00768 0.69194 0.07646
 H117 H -0.06815 0.82350 0.12249
 H118 H -0.00581 0.66541 0.17752
 H119 H 0.10092 0.80521 0.11054
 H120 H -0.00065 0.73606 -0.01214
 C121 C 0.51398 0.30303 0.58805
 C122 C 0.46572 0.30534 0.63588
 C123 C 0.46014 0.26046 0.67528
 C124 C 0.50461 0.21803 0.66365
 C125 C 0.56569 0.29505 0.62816
 C126 C 0.56176 0.25080 0.66771
 C127 C 0.50343 0.24825 0.55330
 C128 C 0.49814 0.20388 0.59360
 H129 H 0.43390 0.33501 0.63202
 H130 H 0.50064 0.18141 0.69552
 H131 H 0.60525 0.31817 0.61936
 H132 H 0.50393 0.24464 0.50275
 C133 C 0.49304 0.81034 0.92072
 C134 C 0.54375 0.80843 0.87635
 C135 C 0.54813 0.76025 0.84556
 C136 C 0.50008 0.71655 0.86249
 C137 C 0.44285 0.79551 0.87873
 C138 C 0.44605 0.74683 0.84755
 C139 C 0.49757 0.76457 0.96464
 C140 C 0.50169 0.71190 0.93554
 H141 H 0.57655 0.84129 0.87433
 H142 H 0.50264 0.67652 0.83826
 H143 H 0.40593 0.81913 0.87769
 H144 H 0.50607 0.77080 1.01414
 C145 C -0.22784 0.65057 0.96739
 C146 C -0.17213 0.63338 0.99096
 C147 C -0.17723 0.58976 1.03124
 C148 C -0.23781 0.56828 1.04585
 C149 C -0.25712 0.59857 0.94000
 C150 C -0.26614 0.55644 0.98262
 C151 C -0.26189 0.66241 1.02621
 C152 C -0.26675 0.61917 1.06796
 H153 H -0.13227 0.64915 0.97153
 H154 H -0.24117 0.53282 1.07940
 H155 H -0.28217 0.60094 0.89799
 H156 H -0.27230 0.70378 1.03829
 C157 C -0.26913 0.33278 0.45343
 C158 C -0.32357 0.35782 0.47226
 C159 C -0.31695 0.39562 0.51930
 C160 C -0.25730 0.40381 0.54390
 C161 C -0.22776 0.38250 0.43818
 C162 C -0.22105 0.41922 0.48622
 C163 C -0.24783 0.30819 0.51015
 C164 C -0.24053 0.34575 0.56045
 H165 H -0.36284 0.34869 0.44847
 H166 H -0.25261 0.43370 0.58286
 H167 H -0.19899 0.38246 0.39875
 H168 H -0.23110 0.26756 0.51139
 C169 C 0.23372 -0.15781 -0.04306
 C170 C 0.17982 -0.12953 -0.03149
 C171 C 0.18485 -0.09071 0.01468
 C172 C 0.24225 -0.08478 0.04527
 C173 C 0.27849 -0.11019 -0.05562
 C174 C 0.28268 -0.07217 -0.00885
 C175 C 0.24869 -0.18211 0.01600
 C176 C 0.25537 -0.14347 0.06500
 H177 H 0.14262 -0.13679 -0.05959
 H178 H 0.24530 -0.05426 0.08373
 H179 H 0.30989 -0.11205 -0.09224
 H180 H 0.26407 -0.22326 0.01979
 C181 C 0.26280 1.16033 0.45506
 C182 C 0.32093 1.14474 0.47104
 C183 C 0.32178 1.10076 0.50960
 C184 C 0.26312 1.07795 0.53317
 C185 C 0.23169 1.10797 0.43122
 C186 C 0.22710 1.06611 0.47441
 C187 C 0.23503 1.17201 0.51754
 C188 C 0.23577 1.12893 0.55933
 H189 H 0.35850 1.16373 0.44918
 H190 H 0.26401 1.04260 0.56666
 H191 H 0.20304 1.11003 0.39221
 H192 H 0.22487 1.21315 0.53092
 C193 C 0.19495 0.55600 0.23788
 C194 C 0.17392 0.54450 0.17176
 C195 C 0.13393 0.50309 0.16895
 C196 C 0.11716 0.47674 0.23254
 C197 C 0.14332 0.56550 0.27784
 C198 C 0.10326 0.52416 0.27619
 C199 C 0.21468 0.49997 0.26097
 C200 C 0.17286 0.45835 0.25705
 H201 H 0.18748 0.56893 0.13090
 H202 H 0.08364 0.44308 0.22990
 H203 H 0.14304 0.59787 0.31231
 H204 H 0.25788 0.49273 0.27105
 C205 C -0.20151 1.03763 0.26121
 C206 C -0.17333 1.03023 0.32465
 C207 C -0.13747 0.98904 0.32616
 C208 C -0.13340 0.95782 0.26484
 C209 C -0.15354 1.04390 0.21309
 C210 C -0.11831 1.00242 0.21452
 C211 C -0.23057 0.98479 0.24827
 C212 C -0.19456 0.93971 0.25057
 H213 H -0.17704 1.05868 0.36301
 H214 H -0.10465 0.92361 0.26650
 H215 H -0.15167 1.07551 0.17682
 H216 H -0.27214 0.98105 0.22801
 C217 C 0.31023 0.54651 -0.25174
 C218 C 0.33198 0.53901 -0.18527
 C219 C 0.37182 0.50246 -0.18122
 C220 C 0.38589 0.47493 -0.24243
 C221 C 0.36212 0.55966 -0.29298
 C222 C 0.40115 0.52202 -0.28850
 C223 C 0.28859 0.48784 -0.27062
 C224 C 0.32938 0.45042 -0.26458
 H225 H 0.32131 0.56472 -0.14629
 H226 H 0.41843 0.44440 -0.23815
 H227 H 0.36342 0.59133 -0.32907
 H228 H 0.24492 0.47595 -0.27860
 C229 C 0.69841 0.05392 -0.24302
 C230 C 0.66460 0.03997 -0.30232
 C231 C 0.62518 -0.00225 -0.29357
 C232 C 0.62328 -0.02699 -0.22752
 C233 C 0.65464 0.06378 -0.19202
 C234 C 0.61658 0.02132 -0.18372
 C235 C 0.72333 -0.00090 -0.22414
 C236 C 0.68294 -0.04332 -0.21696
 H237 H 0.66650 0.06545 -0.34446
 H238 H 0.59097 -0.06151 -0.22086
 H239 H 0.65407 0.10045 -0.16418
 H240 H 0.76773 -0.00699 -0.22479
 C241 C 0.05520 0.22597 0.85411
 C242 C 0.05257 0.27858 0.89245
 C243 C 0.00215 0.28611 0.91937
 C244 C -0.04279 0.23901 0.90468
 C245 C 0.03594 0.17990 0.89925
 C246 C -0.01496 0.18555 0.92623
 C247 C 0.01183 0.22892 0.80656
 C248 C -0.04292 0.23674 0.83160
 H249 H 0.08690 0.30986 0.89315
 H250 H -0.08455 0.24409 0.92605
 H251 H 0.05827 0.14260 0.90423
 H252 H 0.02130 0.23554 0.75702
 C253 C 0.55104 0.27030 0.16033
 C254 C 0.55146 0.22102 0.11551
 C255 C 0.50472 0.21463 0.07916
 C256 C 0.46271 0.25915 0.09016
 C257 C 0.54223 0.31998 0.11710
 C258 C 0.49641 0.31486 0.07991
 C259 C 0.49657 0.26127 0.19877
 C260 C 0.45060 0.25462 0.16132
 H261 H 0.58119 0.18933 0.11985
 H262 H 0.42462 0.25434 0.06076
 H263 H 0.56666 0.35887 0.12133
 H264 H 0.49441 0.26207 0.24947
 C265 C 0.05398 0.75026 0.65101
 C266 C 0.05008 0.70407 0.60252
 C267 C 0.00203 0.70076 0.56896
 C268 C -0.03860 0.74527 0.58760
 C269 C 0.04440 0.80278 0.61306
 C270 C -0.00397 0.80102 0.57984
 C271 C 0.00167 0.74032 0.69336
 C272 C -0.04690 0.73776 0.65953
 H273 H 0.08004 0.67243 0.60068
 H274 H -0.07834 0.74325 0.56091
 H275 H 0.07088 0.84038 0.61757
 H276 H 0.00251 0.74037 0.74411
 C277 C 0.55629 0.75442 0.34974
 C278 C 0.55806 0.79854 0.40058
 C279 C 0.51130 0.79865 0.43690
 C280 C 0.46671 0.75309 0.41923
 C281 C 0.54452 0.70010 0.38581
 C282 C 0.49731 0.69906 0.42198
 C283 C 0.50318 0.76413 0.31179
 C284 C 0.45632 0.76347 0.34885
 H285 H 0.58999 0.83223 0.40085
 H286 H 0.42821 0.75216 0.44870
 H287 H 0.56779 0.66384 0.37830
 H288 H 0.50235 0.76798 0.26117
 B289 B -0.04389 0.00726 1.05917
 B290 B -0.07455 0.00740 0.98919
 B291 B -0.01739 0.04807 1.00146
 B292 B 0.02620 0.01482 1.04942
 B293 B -0.00711 -0.04846 1.06547
 B294 B -0.07063 -0.05257 1.02832
 B295 B 0.01109 -0.04033 0.93835
 B296 B 0.04131 -0.04110 1.00825
 B297 B -0.01604 -0.08172 0.99671
 B298 B -0.05904 -0.04856 0.94840
 B299 B -0.02628 0.01545 0.93295
 B300 B 0.03738 0.01918 0.97026
 B301 B 0.47025 0.52205 0.55645
 B302 B 0.43391 0.51919 0.48998
 B303 B 0.49377 0.55835 0.49438
 B304 B 0.53952 0.52632 0.54053
 B305 B 0.50566 0.46526 0.56408
 B306 B 0.43931 0.46121 0.53280
 B307 B 0.51439 0.46531 0.43600
 B308 B 0.54987 0.46752 0.50241
 B309 B 0.49060 0.42804 0.49926
 B310 B 0.44502 0.46001 0.45224
 B311 B 0.47848 0.52219 0.42935
 B312 B 0.54455 0.52579 0.46098
 B313 B 0.54366 0.98100 0.56191
 B314 B 0.57112 0.99365 0.49092
 B315 B 0.52225 0.94194 0.50178
 B316 B 0.47496 0.96077 0.55593
 B317 B 0.49602 1.02707 0.57701
 B318 B 0.55685 1.04645 0.53662
 B319 B 0.47452 1.02821 0.45138
 B320 B 0.44629 1.01592 0.52292
 B321 B 0.49606 1.06726 0.51161
 B322 B 0.54283 1.04800 0.45808
 B323 B 0.52164 0.98202 0.43665
 B324 B 0.46084 0.96237 0.47710
 B325 B 0.03767 0.47252 1.03683
 B326 B 0.06692 0.48626 0.96619
 B327 B 0.01745 0.43396 0.97523
 B328 B -0.03091 0.45256 1.02806
 B329 B -0.00981 0.51816 1.05081
 B330 B 0.05118 0.53872 1.01154
 B331 B -0.02898 0.52153 0.92524
 B332 B -0.05801 0.50810 0.99522
 B333 B -0.00889 0.55941 0.98647
 B334 B 0.03885 0.54112 0.93314
 B335 B 0.01869 0.47498 0.91063
 B336 B -0.04331 0.45553 0.94878
 B337 B 0.02431 0.52578 0.42834
 B338 B 0.05106 0.51231 0.49892
 B339 B 0.00450 0.56103 0.49125
 B340 B -0.04355 0.54027 0.43635
 B341 B -0.02534 0.47653 0.41189
 B342 B 0.03465 0.46070 0.45056
 B343 B -0.04788 0.46857 0.53702
 B344 B -0.07475 0.48128 0.46670
 B345 B -0.02806 0.43339 0.47479
 B346 B 0.01959 0.45425 0.52893
 B347 B 0.00150 0.51781 0.55379
 B348 B -0.05838 0.53438 0.51495
 B349 B 0.53263 0.03109 -0.03677
 B350 B 0.54871 0.02154 0.03899
 B351 B 0.50471 0.06903 0.01835
 B352 B 0.46440 0.04551 -0.04196
 B353 B 0.48554 -0.01895 -0.05790
 B354 B 0.53982 -0.03302 -0.00785
 B355 B 0.44595 -0.02089 0.06240
 B356 B 0.42935 -0.01198 -0.01280
 B357 B 0.47442 -0.05959 0.00602
 B358 B 0.51353 -0.03546 0.06705
 B359 B 0.49266 0.02975 0.08259
 B360 B 0.43896 0.04370 0.03342
 B361 B 0.48211 0.49157 -0.06327
 B362 B 0.45360 0.49459 0.00792
 B363 B 0.50255 0.44959 -0.00591
 B364 B 0.54999 0.47908 -0.05779
 B365 B 0.52964 0.54494 -0.07362
 B366 B 0.46882 0.55426 -0.03240
 B367 B 0.55046 0.53627 0.05149
 B368 B 0.57837 0.53370 -0.01967
 B369 B 0.53025 0.57894 -0.00492
 B370 B 0.48228 0.54945 0.04625
 B371 B 0.50272 0.48423 0.06165
 B372 B 0.56337 0.47494 0.02070
 B373 B -0.02309 0.97670 0.44277
 B374 B -0.04773 0.98255 0.51602
 B375 B 0.00517 0.94237 0.50277
 B376 B 0.04697 0.97158 0.44556
 B377 B 0.01870 1.03221 0.42435
 B378 B -0.04080 1.03906 0.46911
 B379 B 0.04652 1.03928 0.54749
 B380 B 0.07149 1.03192 0.47540
 B381 B 0.01855 1.07258 0.48796
 B382 B -0.02332 1.04345 0.54597
 B383 B 0.00525 0.98259 0.56720
 B384 B 0.06495 0.97663 0.52342
 B385 B 0.76595 0.20809 0.18359
 B386 B 0.76553 0.18155 0.25596
 B387 B 0.80953 0.23520 0.23706
 B388 B 0.77819 0.27728 0.18622
 B389 B 0.71255 0.24736 0.17464
 B390 B 0.70479 0.18695 0.21794
 B391 B 0.72203 0.27217 0.29901
 B392 B 0.72312 0.29836 0.22640
 B393 B 0.67855 0.24453 0.24396
 B394 B 0.71007 0.20278 0.29608
 B395 B 0.77697 0.23236 0.30743
 B396 B 0.78411 0.29305 0.26451
 B397 B 0.73239 0.79058 0.71059
 B398 B 0.74920 0.82058 0.77843
 B399 B 0.69492 0.77292 0.77550
 B400 B 0.71081 0.72338 0.72385
 B401 B 0.77709 0.74163 0.69604
 B402 B 0.80010 0.80289 0.72998
 B403 B 0.78383 0.72637 0.82275
 B404 B 0.76751 0.69594 0.75531
 B405 B 0.82093 0.74334 0.75770
 B406 B 0.80531 0.79267 0.80930
 B407 B 0.73866 0.77497 0.83712
 B408 B 0.71615 0.71332 0.80347
 B409 B 0.27804 0.27962 0.80840
 B410 B 0.26332 0.30612 0.73816
 B411 B 0.31411 0.26190 0.74501
 B412 B 0.29474 0.21330 0.80064
 B413 B 0.22983 0.22925 0.82685
 B414 B 0.21125 0.28794 0.78792
 B415 B 0.22197 0.20804 0.70175
 B416 B 0.23557 0.18110 0.77195
 B417 B 0.18583 0.22614 0.76482
 B418 B 0.20562 0.27389 0.70972
 B419 B 0.27054 0.25820 0.68342
 B420 B 0.28906 0.19933 0.72230
 B421 B 0.22581 0.72436 0.30310
 B422 B 0.23707 0.70048 0.23101
 B423 B 0.19127 0.74894 0.24142
 B424 B 0.21525 0.79215 0.29818
 B425 B 0.27828 0.76938 0.32177
 B426 B 0.29172 0.71164 0.27914
 B427 B 0.28788 0.79735 0.19846
 B428 B 0.27557 0.82067 0.26941
 B429 B 0.32154 0.77249 0.25917
 B430 B 0.29782 0.72932 0.20180
 B431 B 0.23469 0.75232 0.17825
 B432 B 0.22184 0.81006 0.22028
 B433 B 0.27709 0.72472 0.69144
 B434 B 0.26969 0.68720 0.75748
 B435 B 0.31316 0.74387 0.75575
 B436 B 0.28529 0.79252 0.70938
 B437 B 0.22264 0.76384 0.68384
 B438 B 0.21315 0.69721 0.71372
 B439 B 0.21780 0.76782 0.81186
 B440 B 0.22469 0.80494 0.74625
 B441 B 0.18129 0.74863 0.74752
 B442 B 0.20920 0.70018 0.79413
 B443 B 0.27265 0.72881 0.81910
 B444 B 0.28154 0.79494 0.78894
 B445 B 0.22548 0.28805 0.18964
 B446 B 0.23761 0.32140 0.25701
 B447 B 0.18497 0.27246 0.25204
 B448 B 0.20498 0.22115 0.20520
 B449 B 0.27227 0.24013 0.18125
 B450 B 0.29177 0.30305 0.21405
 B451 B 0.27179 0.23054 0.30858
 B452 B 0.26047 0.19664 0.24218
 B453 B 0.31227 0.24577 0.24623
 B454 B 0.29219 0.29632 0.29363
 B455 B 0.22452 0.27800 0.31708
 B456 B 0.20571 0.21468 0.28537
 B457 B 0.77920 0.78554 0.29612
 B458 B 0.76729 0.80338 0.22088
 B459 B 0.81378 0.75697 0.23733
 B460 B 0.79074 0.71733 0.29968
 B461 B 0.72710 0.74063 0.32051
 B462 B 0.71394 0.79623 0.27194
 B463 B 0.71796 0.70420 0.20156
 B464 B 0.73004 0.68582 0.27511
 B465 B 0.68349 0.73313 0.25970
 B466 B 0.70686 0.77178 0.19742
 B467 B 0.77007 0.74774 0.17617
 B468 B 0.78437 0.69375 0.22455
 B469 B 0.73569 0.22523 0.81109
 B470 B 0.74238 0.19827 0.73985
 B471 B 0.69858 0.24843 0.75072
 B472 B 0.72626 0.29304 0.80402
 B473 B 0.79034 0.26987 0.82512
 B474 B 0.80037 0.21001 0.78459
 B475 B 0.79307 0.29266 0.69965
 B476 B 0.78520 0.31925 0.77015
 B477 B 0.82985 0.27000 0.75957
 B478 B 0.80235 0.22464 0.70596
 B479 B 0.73855 0.24802 0.68500
 B480 B 0.72900 0.30786 0.72481
 N481 N 0.39692 1.01958 0.39081
 N482 N 0.44230 1.04742 0.39536
 N483 N -0.05547 0.51843 0.82351
 N484 N -0.06559 0.54151 0.87392
 N485 N 0.05240 -0.01527 0.84568
 N486 N 0.04332 -0.05725 0.88008
 N487 N 0.55193 0.48312 0.33985
 N488 N 0.54477 0.44430 0.37893
 N489 N 0.62046 0.52033 0.12795
 N490 N 0.58216 0.55119 0.11044
 N491 N 0.09297 1.04197 0.63959
 N492 N 0.08142 1.07095 0.59507
 N493 N -0.11923 0.47648 0.61353
 N494 N -0.08041 0.44732 0.59415
 N495 N 0.42123 -0.02398 0.17007
 N496 N 0.40425 -0.03663 0.11516
 N497 N 0.35566 0.48988 -0.00921
 N498 N 0.39539 0.46951 0.01914
 N499 N -0.14543 0.97748 0.51336
 N500 N -0.10356 0.95353 0.53148
 N501 N -0.17125 0.00756 0.99277
 N502 N -0.12698 0.03544 0.98053
 N503 N 0.33643 0.52600 0.50488
 N504 N 0.38110 0.54911 0.48400
 N505 N 0.13532 0.57223 0.51555
 N506 N 0.11301 0.52363 0.51196
 N507 N 0.64276 0.04618 0.03633
 N508 N 0.60262 0.03827 0.07092
 N509 N 0.64976 0.93600 0.48645
 N510 N 0.63244 0.98405 0.47970
 N511 N 0.14987 0.43554 0.97325
 N512 N 0.12865 0.47936 0.95501
 N513 N -0.00779 0.35675 0.42287
 N514 N -0.04311 0.37230 0.46123
 N515 N 0.49471 -0.13465 -0.05212
 N516 N 0.46252 -0.12166 -0.00846
 N517 N 0.01989 -0.15819 1.04071
 N518 N -0.01764 -0.14456 1.00401
 N519 N 0.52354 0.35323 0.55056
 N520 N 0.48731 0.36544 0.51142
 N521 N 0.49658 1.14744 0.57504
 N522 N 0.48749 1.12869 0.52015
 N523 N -0.00988 0.63654 1.05428
 N524 N -0.01776 0.62045 0.99797
 N525 N 0.52404 0.67329 -0.03467
 N526 N 0.54850 0.64031 -0.00218
 N527 N 0.00427 1.15064 0.42111
 N528 N 0.02133 1.13541 0.47508
 N529 N 0.77435 0.69643 0.92384
 N530 N 0.80327 0.69041 0.87562
 N531 N 0.26088 0.20483 0.41067
 N532 N 0.29067 0.19818 0.36344
 N533 N 0.72747 0.29266 0.40352
 N534 N 0.70530 0.30754 0.35364
 N535 N 0.23524 0.80216 0.90777
 N536 N 0.19568 0.79582 0.86985
 N537 N 0.28805 0.84713 0.10885
 N538 N 0.31862 0.83502 0.15155
 N539 N 0.79174 0.33657 0.60495
 N540 N 0.82257 0.32687 0.64844
 N541 N 0.23173 0.13902 0.62458
 N542 N 0.20098 0.17573 0.64558
 N543 N 0.72388 0.62869 0.13272
 N544 N 0.69411 0.66728 0.15056
 N545 N 0.23387 0.60397 0.24144
 N546 N 0.21307 0.64416 0.21497
 N547 N 0.73798 0.10162 0.75105
 N548 N 0.71461 0.14196 0.72848
 N549 N 0.76369 0.08451 0.25768
 N550 N 0.79219 0.12816 0.26862
 N551 N 0.27222 0.59066 0.74386
 N552 N 0.29717 0.63395 0.76312
 N553 N 0.31926 0.39202 0.73901
 N554 N 0.27322 0.36729 0.72433
 N555 N 0.79421 0.89673 0.22023
 N556 N 0.78513 0.85663 0.18746
 N557 N 0.69331 0.89951 0.78383
 N558 N 0.74187 0.88168 0.78623
 N559 N 0.18141 0.40081 0.25903
 N560 N 0.22968 0.38252 0.26209
 N561 N 0.11260 0.22102 0.83355
 N562 N 0.12336 0.21365 0.77678
 N563 N 0.60892 0.75931 0.31580
 N564 N 0.62150 0.72294 0.27777
 N565 N 0.60318 0.27975 0.19443
 N566 N 0.61482 0.24575 0.23648
 N567 N 0.10943 0.75325 0.67839
 N568 N 0.11772 0.75032 0.73644
 N569 N 0.89778 0.73896 0.68584
 N570 N 0.88229 0.73210 0.74316
 N571 N 0.39392 0.25068 0.18289
 N572 N 0.37485 0.23772 0.23760
 N573 N 0.40018 0.76535 0.32651
 N574 N 0.38445 0.78061 0.27216
 N575 N 0.92185 0.26020 0.79769
 N576 N 0.89256 0.28549 0.76157
 N577 N 0.57961 0.99185 0.66460
 N578 N 0.58237 0.96504 0.61396
 N579 N 0.10441 0.49629 1.11218
 N580 N 0.07085 0.45685 1.09460
 N581 N -0.08222 -0.00740 1.16285
 N582 N -0.07404 0.02652 1.11693
 N583 N 0.43838 0.51337 0.66122
 N584 N 0.44440 0.54569 0.61392
 N585 N 0.40613 0.50336 -0.12816
 N586 N 0.44722 0.47383 -0.11897
 N587 N -0.09898 0.98808 0.37632
 N588 N -0.06063 0.95543 0.38898
 N589 N 0.06407 0.51537 0.32652
 N590 N 0.06111 0.54704 0.37382
 N591 N 0.57808 0.01669 -0.13286
 N592 N 0.57475 0.05014 -0.08743
 N593 N 0.67979 0.52830 -0.01492
 N594 N 0.63789 0.55511 -0.03039
 N595 N 0.17344 1.03721 0.48287
 N596 N 0.12958 1.05637 0.45930
 N597 N 0.14161 -0.05476 1.02787
 N598 N 0.09361 -0.07125 1.00928
 N599 N 0.63930 0.42952 0.53805
 N600 N 0.60300 0.43808 0.49681
 N601 N -0.17003 0.45182 0.49458
 N602 N -0.13398 0.46044 0.45107
 N603 N 0.33283 -0.03973 0.00315
 N604 N 0.37276 -0.03335 -0.03612
 N605 N 0.37454 1.07765 0.51616
 N606 N 0.38542 1.02938 0.53367
 N607 N -0.12958 0.55961 1.04258
 N608 N -0.11748 0.52378 1.00277
 N609 N -0.01467 0.65123 0.53518
 N610 N 0.02048 0.62149 0.50789
 N611 N 0.48759 0.16230 0.05225
 N612 N 0.52241 0.12954 0.03055
 N613 N -0.04193 0.13820 0.95783
 N614 N -0.01346 0.11116 0.99690
 N615 N 0.47373 0.64762 0.44708
 N616 N 0.50115 0.62094 0.48707
 N617 N 0.49778 0.84801 0.46855
 N618 N 0.53552 0.88227 0.48979
 N619 N -0.00978 0.33874 0.94525
 N620 N 0.02906 0.37348 0.96379
 N621 N 0.47547 0.36411 0.05229
 N622 N 0.49627 0.38622 0.00174
 N623 N -0.02392 0.85148 0.55391
 N624 N 0.00657 0.87978 0.51426
 N625 N 0.24373 0.36028 0.11893
 N626 N 0.21012 0.31876 0.13035
 N627 N 0.73989 0.82082 0.60350
 N628 N 0.71612 0.82735 0.65633
 N629 N 0.26362 0.69178 0.58765
 N630 N 0.29867 0.69843 0.63239
 N631 N 0.74654 0.16601 0.08485
 N632 N 0.78253 0.17421 0.12817
 N633 N 0.74298 0.14905 0.87669
 N634 N 0.71299 0.18944 0.86575
 N635 N 0.23990 0.65351 0.37460
 N636 N 0.20480 0.68833 0.35860
 N637 N 0.76784 0.82577 0.39496
 N638 N 0.80061 0.82478 0.34732
 N639 N 0.26789 0.32060 0.90819
 N640 N 0.30007 0.31666 0.86072
 N641 N 0.78073 0.41853 0.76015
 N642 N 0.80629 0.37785 0.78153
 N643 N 0.27480 0.91982 0.25717
 N644 N 0.29450 0.87878 0.28538
 N645 N 0.18966 0.89469 0.70995
 N646 N 0.19803 0.85889 0.75189
 N647 N 0.71279 0.39588 0.24464
 N648 N 0.69636 0.35232 0.21635
 N649 N 0.71896 0.58703 0.26793
 N650 N 0.70765 0.62960 0.29836
 N651 N 0.20893 0.08603 0.74564
 N652 N 0.21611 0.12192 0.78824
 N653 N 0.31175 0.11466 0.21496
 N654 N 0.27413 0.13674 0.24651
 N655 N 0.80310 0.61312 0.70669
 N656 N 0.78172 0.63638 0.75323
 N657 N 0.90435 0.73310 0.19514
 N658 N 0.87519 0.77007 0.21900
 N659 N 0.40802 0.24518 0.70705
 N660 N 0.37502 0.28011 0.72831
 N661 N 0.39723 0.72320 0.81585
 N662 N 0.37658 0.74733 0.76828
 N663 N 0.90113 0.23615 0.27581
 N664 N 0.87189 0.22784 0.22951
 N665 N 0.08761 0.24729 0.27919
 N666 N 0.12387 0.28524 0.26116
 N667 N 0.59954 0.74812 0.81416
 N668 N 0.63431 0.78575 0.79144
 N669 N 0.61299 0.22973 0.69026
 N670 N 0.63468 0.24484 0.74239
 N671 N 0.10547 0.71620 0.18422
 N672 N 0.12825 0.74527 0.22777
   
