data_POSCAR
  _audit_creation_date              2014-09-24
  _audit_creation_method            'ToBaCCo'
  _symmetry_space_group_name_H-M    'P1'
  _symmetry_Int_Tables_number       1
  _symmetry_cell_setting            triclinic
  loop_
  _symmetry_equiv_pos_as_xyz
 x,y,z
_cell_length_a 35.6432
_cell_length_b 36.7295
_cell_length_c 34.1375
_cell_angle_alpha 90.307500
_cell_angle_beta 90.455600
_cell_angle_gamma 90.353200
loop_
  _atom_site_label
  _atom_site_type_symbol
  _atom_site_fract_x
  _atom_site_fract_y
  _atom_site_fract_z
C1 C 0.19710 0.21562 0.25465
 C2 C 0.19561 0.24209 0.22544
 C3 C 0.22099 0.24154 0.19516
 C4 C 0.24843 0.21441 0.19383
 C5 C 0.24991 0.18804 0.22250
 C6 C 0.22365 0.18849 0.25326
 C7 C 0.17336 0.20812 0.28495
 N8 N 0.18414 0.17663 0.30261
 C9 C 0.21523 0.16461 0.28316
 C10 C 0.27766 0.16402 0.21170
 N11 N 0.29318 0.17506 0.17709
 C12 C 0.27496 0.20607 0.16634
 C13 C 0.21014 0.26788 0.16889
 N14 N 0.17860 0.28412 0.18251
 C15 C 0.16978 0.26860 0.21729
 H16 H 0.14858 0.22374 0.29144
 H17 H 0.23048 0.13992 0.28920
 H18 H 0.28463 0.13964 0.22767
 H19 H 0.27987 0.22187 0.14028
 H20 H 0.22286 0.27313 0.14078
 H21 H 0.14554 0.27512 0.23481
 C22 C -0.17975 0.79030 0.22616
 C23 C -0.17836 0.76369 0.19688
 C24 C -0.20559 0.76219 0.16793
 C25 C -0.23507 0.78736 0.16832
 C26 C -0.23660 0.81361 0.19743
 C27 C -0.20836 0.81530 0.22656
 C28 C -0.15533 0.79898 0.25600
 N29 N -0.16781 0.82919 0.27512
 C30 C -0.20061 0.83914 0.25703
 C31 C -0.26740 0.83486 0.18944
 N32 N -0.28482 0.82239 0.15606
 C33 C -0.26474 0.79318 0.14320
 C34 C -0.19549 0.73487 0.14225
 N35 N -0.16294 0.71987 0.15533
 C36 C -0.15238 0.73747 0.18871
 H37 H -0.12942 0.78476 0.26158
 H38 H -0.21780 0.86221 0.26464
 H39 H -0.27528 0.85849 0.20640
 H40 H -0.27087 0.77675 0.11757
 H41 H -0.21052 0.72676 0.11591
 H42 H -0.12686 0.73247 0.20517
 C43 C -0.21448 0.22585 -0.25113
 C44 C -0.21214 0.25211 -0.22146
 C45 C -0.23690 0.25132 -0.19059
 C46 C -0.26497 0.22438 -0.18950
 C47 C -0.26736 0.19842 -0.21888
 C48 C -0.24148 0.19889 -0.24986
 C49 C -0.19067 0.21781 -0.28120
 N50 N -0.20181 0.18603 -0.29862
 C51 C -0.23331 0.17451 -0.27949
 C52 C -0.29511 0.17421 -0.20833
 N53 N -0.30988 0.18463 -0.17316
 C54 C -0.29108 0.21545 -0.16168
 C55 C -0.22435 0.27667 -0.16348
 N56 N -0.19261 0.29262 -0.17738
 C57 C -0.18519 0.27778 -0.21294
 H58 H -0.16531 0.23293 -0.28730
 H59 H -0.24877 0.14964 -0.28529
 H60 H -0.30241 0.14994 -0.22478
 H61 H -0.29542 0.23070 -0.13498
 H62 H -0.23637 0.28175 -0.13497
 H63 H -0.16032 0.28317 -0.23002
 C64 C 0.17744 0.78086 -0.24391
 C65 C 0.18205 0.74899 -0.22207
 C66 C 0.21146 0.74620 -0.19567
 C67 C 0.23677 0.77535 -0.19074
 C68 C 0.23235 0.80663 -0.21244
 C69 C 0.20233 0.80943 -0.23927
 C70 C 0.15011 0.79171 -0.26989
 N71 N 0.15746 0.82651 -0.28165
 C72 C 0.18969 0.83728 -0.26270
 C73 C 0.25957 0.83089 -0.19998
 N74 N 0.28057 0.81541 -0.17085
 C75 C 0.26639 0.78119 -0.16530
 C76 C 0.20710 0.71363 -0.17643
 N77 N 0.17560 0.69665 -0.19032
 C78 C 0.16028 0.71819 -0.21842
 H79 H 0.12662 0.77490 -0.27895
 H80 H 0.20300 0.86370 -0.26446
 H81 H 0.26226 0.85842 -0.21063
 H82 H 0.27638 0.76150 -0.14433
 H83 H 0.22504 0.70369 -0.15317
 H84 H 0.13396 0.71301 -0.23352
 C85 C 0.22430 1.19727 0.74361
 C86 C 0.24858 1.19400 0.77562
 C87 C 0.24695 1.21842 0.80639
 C88 C 0.22116 1.24715 0.80494
 C89 C 0.19688 1.25033 0.77336
 C90 C 0.19814 1.22472 0.74245
 C91 C 0.21753 1.17446 0.71253
 N92 N 0.18717 1.18652 0.69205
 C93 C 0.17531 1.21765 0.71030
 C94 C 0.17358 1.27919 0.78143
 N95 N 0.18306 1.29401 0.81709
 C96 C 0.21226 1.27398 0.83140
 C97 C 0.27070 1.20566 0.83531
 N98 N 0.28650 1.17418 0.82246
 C99 C 0.27309 1.16707 0.78592
 H100 H 0.23211 1.14912 0.70773
 H101 H 0.15121 1.23365 0.70196
 H102 H 0.15109 1.28792 0.76237
 H103 H 0.22612 1.27757 0.85940
 H104 H 0.27509 1.21770 0.86401
 H105 H 0.27889 1.14279 0.76894
 C106 C 0.79451 0.81301 0.77375
 C107 C 0.76533 0.81126 0.80063
 C108 C 0.76580 0.78580 0.83023
 C109 C 0.79557 0.76093 0.83248
 C110 C 0.82437 0.76259 0.80559
 C111 C 0.82415 0.78932 0.77624
 C112 C 0.80208 0.83737 0.74470
 N113 N 0.83618 0.82973 0.72902
 C114 C 0.84980 0.80001 0.74835
 C115 C 0.84957 0.73593 0.81535
 N116 N 0.83704 0.71764 0.84752
 C117 C 0.80397 0.73335 0.85818
 C118 C 0.73559 0.79328 0.85403
 N119 N 0.71708 0.82248 0.83908
 C120 C 0.73517 0.83342 0.80640
 H121 H 0.78462 0.86045 0.73776
 H122 H 0.87650 0.78711 0.74324
 H123 H 0.87557 0.73125 0.80013
 H124 H 0.78640 0.72522 0.88230
 H125 H 0.72837 0.77935 0.88082
 H126 H 0.72821 0.85723 0.78931
 C127 C 0.22623 0.79869 1.26297
 C128 C 0.25782 0.79596 1.23924
 C129 C 0.26082 0.76770 1.21267
 C130 C 0.23234 0.74124 1.21021
 C131 C 0.20092 0.74395 1.23370
 C132 C 0.19764 0.77336 1.26006
 C133 C 0.21417 0.82650 1.28641
 N134 N 0.17843 0.81943 1.29812
 C135 C 0.16824 0.78660 1.28200
 C136 C 0.17633 0.71689 1.22178
 N137 N 0.19206 0.69789 1.19182
 C138 C 0.22626 0.71283 1.18455
 C139 C 0.29027 0.77613 1.18833
 N140 N 0.30491 0.80890 1.19954
 C141 C 0.28540 0.82087 1.23097
 H142 H 0.22978 0.85142 1.29148
 H143 H 0.14116 0.77347 1.28461
 H144 H 0.14832 0.71254 1.23291
 H145 H 0.24522 0.70416 1.16177
 H146 H 0.29836 0.76097 1.16250
 H147 H 0.28826 0.84764 1.24414
 C148 C 0.77812 1.20180 1.24273
 C149 C 0.74855 1.20208 1.21570
 C150 C 0.74822 1.22694 1.18552
 C151 C 0.77741 1.25264 1.18272
 C152 C 0.80673 1.25241 1.20969
 C153 C 0.80736 1.22628 1.23967
 C154 C 0.78724 1.17739 1.27132
 N155 N 0.82190 1.18569 1.28605
 C156 C 0.83428 1.21594 1.26670
 C157 C 0.83198 1.27874 1.19831
 N158 N 0.81874 1.29504 1.16531
 C159 C 0.78550 1.27896 1.15545
 C160 C 0.71921 1.21693 1.16059
 N161 N 0.70222 1.18666 1.17519
 C162 C 0.71996 1.17771 1.20903
 H163 H 0.77064 1.15358 1.27816
 H164 H 0.86120 1.22918 1.27083
 H165 H 0.85857 1.28485 1.21248
 H166 H 0.76836 1.28588 1.13029
 H167 H 0.71246 1.22948 1.13282
 H168 H 0.71461 1.15333 1.22584
 O169 O 0.52658 0.95866 0.92932
 O170 O 0.45757 0.96060 1.06635
 O171 O 0.55905 0.95421 1.01492
 O172 O 0.43670 0.94096 0.98946
 O173 O 0.52600 0.95523 1.06640
 O174 O 0.45587 0.95688 0.93073
 O175 O 0.40200 0.97556 1.03945
 O176 O 0.57252 0.98797 0.95729
 C177 C 0.56100 0.96289 0.93509
 C178 C 0.42153 0.95971 1.06720
 C179 C 0.55083 0.94071 1.04665
 C180 C 0.43837 0.93503 0.95304
 O181 O 0.45560 1.02980 0.93134
 O182 O 0.53551 1.02908 1.06431
 O183 O 0.54863 1.04873 0.98624
 O184 O 0.42958 1.03556 1.02039
 O185 O 0.46722 1.03438 1.06897
 O186 O 0.52606 1.03204 0.92857
 O187 O 0.41133 1.00215 0.96322
 O188 O 0.58828 1.01445 1.03220
 Co189 Co 0.49128 0.99434 0.93526
 Co190 Co 0.49629 0.99482 1.06022
 Co191 Co 0.54943 1.00129 1.00283
 Co192 Co 0.43797 0.98842 1.00683
 O193 O 0.49353 0.99470 0.99708
 C194 C 0.42163 1.02604 0.93930
 C195 C 0.57143 1.03084 1.06136
 C196 C 0.54421 1.05456 0.95010
 C197 C 0.44069 1.04895 1.05157
 O198 O 0.04645 0.46491 0.07136
 O199 O 0.02140 0.52845 -0.08524
 O200 O 0.05274 0.43759 -0.02607
 O201 O 0.07195 0.54684 0.02423
 O202 O 0.03325 0.46245 -0.07874
 O203 O 0.04316 0.53283 0.07678
 O204 O 0.06326 0.53590 -0.04271
 O205 O 0.02288 0.42054 0.03634
 C206 C 0.04520 0.43193 0.06227
 C207 C 0.05384 0.53817 -0.07710
 C208 C 0.05706 0.44342 -0.06137
 C209 C 0.07044 0.54712 0.06031
 O210 O -0.02814 0.53228 0.06930
 O211 O -0.03862 0.45339 -0.05583
 O212 O -0.04246 0.44268 0.01257
 O213 O -0.00852 0.56615 -0.03841
 O214 O -0.04526 0.52048 -0.05340
 O215 O -0.02773 0.46240 0.07033
 O216 O 0.00058 0.57255 0.03161
 O217 O -0.00973 0.40412 -0.03484
 Co218 Co 0.00854 0.49764 0.06506
 Co219 Co -0.00531 0.49156 -0.06189
 Co220 Co 0.00555 0.44359 -0.00742
 Co221 Co 0.03026 0.55090 -0.00640
 O222 O 0.01138 0.49772 0.00046
 C223 C -0.02465 0.56404 0.05615
 C224 C -0.03368 0.41911 -0.05932
 C225 C -0.04916 0.44463 0.04817
 C226 C -0.04011 0.55397 -0.04933
 O227 O 1.06835 0.02990 0.46984
 O228 O 0.91643 0.03537 0.54094
 O229 O 0.95926 0.02416 0.42065
 O230 O 1.03013 0.05794 0.54991
 O231 O 0.92391 0.04336 0.46843
 O232 O 1.07162 0.01854 0.54043
 O233 O 0.96585 0.06412 0.55846
 O234 O 1.01930 0.05120 0.44281
 C235 C 1.05314 0.05427 0.45017
 C236 C 0.93136 0.06211 0.55694
 C237 C 0.93431 0.04502 0.43351
 C238 C 1.06340 0.05001 0.55044
 O239 O 1.04103 -0.04698 0.52944
 O240 O 0.92434 -0.02784 0.46109
 O241 O 1.02775 -0.00847 0.40451
 O242 O 0.95910 -0.00694 0.58250
 O243 O 0.92413 -0.03316 0.53614
 O244 O 1.04478 -0.03892 0.45748
 O245 O 1.02689 -0.01274 0.57914
 O246 O 0.97974 -0.04113 0.44120
 Co247 Co 1.05042 -0.00764 0.49964
 Co248 Co 0.92894 0.00465 0.50145
 Co249 Co 1.00008 0.00520 0.44602
 Co250 Co 0.99559 0.02418 0.56261
 O251 O 0.99089 0.00817 0.50420
 C252 C 1.03796 -0.04276 0.56551
 C253 C 0.94548 -0.04743 0.44135
 C254 C 1.04973 -0.03281 0.42100
 C255 C 0.93604 -0.03144 0.57094
 C256 C 1.12114 0.12158 0.38799
 C257 C 1.15176 0.10455 0.37040
 C258 C 1.17366 0.12314 0.34303
 C259 C 1.16510 0.15928 0.33222
 C260 C 1.13505 0.17651 0.35187
 C261 C 1.11329 0.15777 0.37917
 C262 C 1.09631 0.10080 0.41257
 C263 C 1.07586 0.08119 0.43114
 H264 H 1.15810 0.07640 0.37697
 H265 H 1.19618 0.10829 0.32945
 H266 H 1.12773 0.20450 0.34642
 H267 H 1.08980 0.17136 0.39276
 C268 C 0.89101 -0.11465 0.36454
 C269 C 0.90304 -0.14886 0.35225
 C270 C 0.88307 -0.16792 0.32320
 C271 C 0.85055 -0.15300 0.30539
 C272 C 0.83830 -0.11873 0.31916
 C273 C 0.85842 -0.09984 0.34825
 C274 C 0.91246 -0.09383 0.39283
 C275 C 0.92895 -0.07419 0.41566
 H276 H 0.92812 -0.16073 0.36484
 H277 H 0.89360 -0.19438 0.31520
 H278 H 0.81385 -0.10560 0.30707
 H279 H 0.84881 -0.07326 0.35761
 C280 C 0.86276 0.12816 0.61981
 C281 C 0.87029 0.16487 0.62712
 C282 C 0.84794 0.18452 0.65305
 C283 C 0.81762 0.16771 0.67278
 C284 C 0.80934 0.13097 0.66337
 C285 C 0.83186 0.11145 0.63738
 C286 C 0.88779 0.10695 0.59609
 C287 C 0.90838 0.08765 0.57748
 H288 H 0.89391 0.17822 0.61332
 H289 H 0.85492 0.21290 0.65741
 H290 H 0.78663 0.11642 0.67713
 H291 H 0.82572 0.08295 0.63180
 C292 C 1.09213 -0.11088 0.64055
 C293 C 1.07989 -0.14545 0.65166
 C294 C 1.10151 -0.16635 0.67744
 C295 C 1.13610 -0.15307 0.69285
 C296 C 1.14785 -0.11794 0.68107
 C297 C 1.12612 -0.09726 0.65531
 C298 C 1.07038 -0.08904 0.61385
 C299 C 1.05412 -0.06902 0.59160
 H300 H 1.05357 -0.15631 0.64043
 H301 H 1.09043 -0.19271 0.68516
 H302 H 1.17395 -0.10602 0.69109
 H303 H 1.13598 -0.07050 0.64679
 C304 C 0.37572 1.12017 1.11187
 C305 C 0.35813 1.15078 1.09638
 C306 C 0.33121 1.16945 1.11822
 C307 C 0.32089 1.15769 1.15621
 C308 C 0.33974 1.12707 1.17157
 C309 C 0.36668 1.10862 1.14962
 C310 C 0.40077 1.09858 1.08835
 C311 C 0.42020 1.07775 1.07017
 H312 H 0.36462 1.15983 1.06703
 H313 H 0.31811 1.19243 1.10429
 H314 H 0.33401 1.11689 1.20052
 H315 H 0.38004 1.08480 1.16193
 C316 C 0.36703 0.86711 0.89411
 C317 C 0.35327 0.83322 0.90588
 C318 C 0.32501 0.81560 0.88398
 C319 C 0.30954 0.83175 0.84987
 C320 C 0.32455 0.86570 0.83819
 C321 C 0.35280 0.88303 0.86006
 C322 C 0.39416 0.88714 0.91748
 C323 C 0.41549 0.90708 0.93515
 H324 H 0.36389 0.82068 0.93236
 H325 H 0.31483 0.78988 0.89490
 H326 H 0.31497 0.87926 0.81203
 H327 H 0.36326 0.90928 0.85056
 C328 C 0.62253 0.87063 1.09959
 C329 C 0.64245 0.84302 1.08084
 C330 C 0.67269 0.82628 1.09987
 C331 C 0.68408 0.83719 1.13810
 C332 C 0.66277 0.86447 1.15684
 C333 C 0.63251 0.88091 1.13776
 C334 C 0.59460 0.89139 1.07880
 C335 C 0.57309 0.91196 1.06290
 H336 H 0.63533 0.83512 1.05106
 H337 H 0.68773 0.80588 1.08355
 H338 H 0.66907 0.87349 1.18632
 H339 H 0.61739 0.90241 1.15257
 C340 C 0.60831 1.12761 0.89102
 C341 C 0.62722 1.15719 0.90802
 C342 C 0.65387 1.17668 0.88654
 C343 C 0.66258 1.16671 0.84748
 C344 C 0.64234 1.13721 0.83063
 C345 C 0.61568 1.11797 0.85220
 C346 C 0.58368 1.10498 0.91389
 C347 C 0.56454 1.08352 0.93158
 H348 H 0.62201 1.16471 0.93822
 H349 H 0.66823 1.19869 0.90152
 H350 H 0.64668 1.12860 0.80075
 H351 H 0.60125 1.09501 0.83871
 C352 C 0.11170 0.36035 0.12056
 C353 C 0.15054 0.35970 0.11495
 C354 C 0.17266 0.33478 0.13544
 C355 C 0.15611 0.31030 0.16184
 C356 C 0.11701 0.31128 0.16721
 C357 C 0.09502 0.33614 0.14673
 C358 C 0.08871 0.38572 0.09958
 C359 C 0.06894 0.40682 0.08238
 H360 H 0.16371 0.37843 0.09477
 H361 H 0.20268 0.33484 0.13093
 H362 H 0.10327 0.29238 0.18668
 H363 H 0.06494 0.33635 0.15114
 C364 C -0.11309 0.35889 -0.11682
 C365 C -0.11768 0.36227 -0.15733
 C366 C -0.14480 0.34142 -0.17701
 C367 C -0.16766 0.31686 -0.15640
 C368 C -0.16359 0.31444 -0.11549
 C369 C -0.13639 0.33533 -0.09583
 C370 C -0.08437 0.37954 -0.09688
 C371 C -0.06067 0.39721 -0.08003
 H372 H -0.10000 0.38069 -0.17377
 H373 H -0.14764 0.34415 -0.20845
 H374 H -0.18042 0.29547 -0.09890
 H375 H -0.13310 0.33266 -0.06440
 C376 C 0.11962 0.60492 -0.14176
 C377 C 0.14601 0.62446 -0.11941
 C378 C 0.16540 0.65374 -0.13573
 C379 C 0.15866 0.66402 -0.17480
 C380 C 0.13314 0.64322 -0.19754
 C381 C 0.11361 0.61396 -0.18105
 C382 C 0.09629 0.57844 -0.12265
 C383 C 0.07668 0.55854 -0.10360
 H384 H 0.15057 0.61795 -0.08882
 H385 H 0.18434 0.66926 -0.11712
 H386 H 0.12770 0.64999 -0.22785
 H387 H 0.09310 0.59913 -0.19857
 C388 C -0.09545 0.63966 0.10096
 C389 C -0.11787 0.66235 0.07785
 C390 C -0.14103 0.68816 0.09565
 C391 C -0.14175 0.69153 0.13671
 C392 C -0.11978 0.66794 0.15954
 C393 C -0.09680 0.64224 0.14177
 C394 C -0.07063 0.61377 0.08337
 C395 C -0.04950 0.59148 0.07024
 H396 H -0.11706 0.66045 0.04618
 H397 H -0.15741 0.70617 0.07738
 H398 H -0.12024 0.66951 0.19119
 H399 H -0.07978 0.62459 0.15990
 C400 C 1.13117 0.12294 0.60713
 C401 C 1.16864 0.11607 0.61627
 C402 C 1.18789 0.13838 0.64298
 C403 C 1.16987 0.16794 0.66174
 C404 C 1.13273 0.17597 0.65000
 C405 C 1.11356 0.15344 0.62324
 C406 C 1.10968 0.09688 0.58449
 C407 C 1.08993 0.07498 0.56768
 H408 H 1.18270 0.09274 0.60369
 H409 H 1.21685 0.13184 0.64900
 H410 H 1.11739 0.19819 0.66294
 H411 H 1.08444 0.15902 0.61632
 C412 C 0.89065 -0.10376 0.64727
 C413 C 0.85211 -0.10085 0.65286
 C414 C 0.83389 -0.12360 0.67918
 C415 C 0.85392 -0.14991 0.70095
 C416 C 0.89277 -0.15346 0.69379
 C417 C 0.91095 -0.13039 0.66732
 C418 C 0.90874 -0.07891 0.62098
 C419 C 0.92199 -0.05731 0.59849
 H420 H 0.83602 -0.08070 0.63698
 H421 H 0.80393 -0.12047 0.68180
 H422 H 0.90969 -0.17292 0.70950
 H423 H 0.94090 -0.13298 0.66296
 C424 C 1.11122 -0.10614 0.35926
 C425 C 1.14998 -0.10120 0.35793
 C426 C 1.17234 -0.12634 0.33843
 C427 C 1.15641 -0.15717 0.31938
 C428 C 1.11714 -0.16230 0.32206
 C429 C 1.09483 -0.13689 0.34168
 C430 C 1.08874 -0.07989 0.37966
 C431 C 1.07075 -0.05795 0.39778
 H432 H 1.16305 -0.07783 0.37210
 H433 H 1.20222 -0.12143 0.33908
 H434 H 1.10313 -0.18514 0.30815
 H435 H 1.06475 -0.14113 0.34290
 C436 C 0.88158 0.11804 0.36294
 C437 C 0.90041 0.14575 0.34298
 C438 C 0.88051 0.16926 0.31829
 C439 C 0.84134 0.16508 0.31278
 C440 C 0.82283 0.13775 0.33457
 C441 C 0.84276 0.11455 0.35914
 C442 C 0.90159 0.09271 0.38721
 C443 C 0.91701 0.07090 0.40796
 H444 H 0.93055 0.14883 0.34597
 H445 H 0.89635 0.18952 0.30253
 H446 H 0.79277 0.13410 0.33322
 H447 H 0.82781 0.09357 0.37500
 C448 C 0.12799 0.37947 -0.12403
 C449 C 0.15934 0.36307 -0.10709
 C450 C 0.17817 0.33526 -0.12690
 C451 C 0.16583 0.32279 -0.16427
 C452 C 0.13467 0.34065 -0.18134
 C453 C 0.11601 0.36846 -0.16135
 C454 C 0.10578 0.40482 -0.10174
 C455 C 0.08500 0.42397 -0.08307
 H456 H 0.16879 0.37116 -0.07806
 H457 H 0.20198 0.32355 -0.11206
 H458 H 0.12374 0.33308 -0.20981
 H459 H 0.09154 0.38078 -0.17472
 C460 C -0.12378 0.37794 0.10236
 C461 C -0.14778 0.35371 0.08246
 C462 C -0.16726 0.32686 0.10318
 C463 C -0.16271 0.32373 0.14405
 C464 C -0.13908 0.34869 0.16379
 C465 C -0.11979 0.37554 0.14308
 C466 C -0.10047 0.40308 0.08112
 C467 C -0.07851 0.42298 0.06495
 H468 H -0.15072 0.35499 0.05089
 H469 H -0.18490 0.30785 0.08707
 H470 H -0.13541 0.34736 0.19524
 H471 H -0.10109 0.39397 0.15878
 C472 C -0.10849 0.63026 -0.09703
 C473 C -0.13920 0.64675 -0.07918
 C474 C -0.15767 0.67561 -0.09767
 C475 C -0.14549 0.68883 -0.13441
 C476 C -0.11455 0.67137 -0.15197
 C477 C -0.09642 0.64254 -0.13347
 C478 C -0.08763 0.60197 -0.07776
 C479 C -0.06749 0.57923 -0.06356
 H480 H -0.14859 0.63766 -0.05073
 H481 H -0.18075 0.68788 -0.08229
 H482 H -0.10421 0.67924 -0.18032
 H483 H -0.07260 0.62997 -0.14759
 C484 C 0.13824 0.61343 0.12587
 C485 C 0.12953 0.61859 0.16543
 C486 C 0.14758 0.64596 0.18728
 C487 C 0.17456 0.66864 0.16981
 C488 C 0.18360 0.66276 0.13018
 C489 C 0.16550 0.63541 0.10840
 C490 C 0.11676 0.58796 0.10246
 C491 C 0.09687 0.56820 0.08294
 H492 H 0.10824 0.60193 0.17919
 H493 H 0.14032 0.64947 0.21778
 H494 H 0.20378 0.68001 0.11561
 H495 H 0.17209 0.63202 0.07767
 C496 C 0.35258 1.09813 0.88540
 C497 C 0.32755 1.12055 0.90558
 C498 C 0.30648 1.14643 0.88517
 C499 C 0.31029 1.15003 0.84438
 C500 C 0.33613 1.12787 0.82466
 C501 C 0.35708 1.10212 0.84503
 C502 C 0.37481 1.07170 0.90581
 C503 C 0.39510 1.05011 0.92163
 H504 H 0.32412 1.11784 0.93694
 H505 H 0.28652 1.16285 0.90104
 H506 H 0.34005 1.13039 0.79339
 H507 H 0.37676 1.08525 0.82923
 C508 C 0.37029 0.88311 1.13398
 C509 C 0.37207 0.88386 1.17490
 C510 C 0.35215 0.85812 1.19650
 C511 C 0.33013 0.83139 1.17740
 C512 C 0.32987 0.82991 1.13623
 C513 C 0.34981 0.85568 1.11468
 C514 C 0.38841 0.91103 1.11165
 C515 C 0.40335 0.93393 1.09201
 H516 H 0.38809 0.90484 1.19008
 H517 H 0.35309 0.85965 1.22817
 H518 H 0.31279 0.81006 1.12065
 H519 H 0.34837 0.85486 1.08297
 C520 C 0.62984 1.11058 1.11868
 C521 C 0.62814 1.11537 1.15926
 C522 C 0.65057 1.14179 1.17762
 C523 C 0.67507 1.16366 1.15561
 C524 C 0.67538 1.15970 1.11463
 C525 C 0.65292 1.13324 1.09631
 C526 C 0.60892 1.08173 1.09999
 C527 C 0.59178 1.05788 1.08328
 H528 H 0.61015 1.09815 1.17679
 H529 H 0.64948 1.14455 1.20918
 H530 H 0.69426 1.17578 1.09697
 H531 H 0.65433 1.12976 1.06481
 C532 C 0.63356 0.88937 0.88904
 C533 C 0.65815 0.87021 0.91351
 C534 C 0.68451 0.84652 0.89730
 C535 C 0.68657 0.84203 0.85646
 C536 C 0.66064 0.86022 0.83236
 C537 C 0.63435 0.88375 0.84856
 C538 C 0.60823 0.91565 0.90515
 C539 C 0.58690 0.93766 0.91849
 H540 H 0.65762 0.87431 0.94495
 H541 H 0.70438 0.83313 0.91645
 H542 H 0.66138 0.85688 0.80086
 H543 H 0.61524 0.89822 0.82942
   
