data_POSCAR
  _audit_creation_date              2014-09-24
  _audit_creation_method            'ToBaCCo'
  _symmetry_space_group_name_H-M    'P1'
  _symmetry_Int_Tables_number       1
  _symmetry_cell_setting            triclinic
  loop_
  _symmetry_equiv_pos_as_xyz
 x,y,z
_cell_length_a 12.8684
_cell_length_b 12.8684
_cell_length_c 20.6676
_cell_angle_alpha 89.859500
_cell_angle_beta 89.859500
_cell_angle_gamma 88.072200
loop_
  _atom_site_label
  _atom_site_type_symbol
  _atom_site_fract_x
  _atom_site_fract_y
  _atom_site_fract_z
O1 O 0.08695 0.59847 1.06156
 O2 O 0.08329 0.39545 0.93651
 O3 O 0.08786 0.59914 0.93699
 O4 O 0.08255 0.39563 1.06220
 O5 O -0.08907 0.40418 1.06146
 O6 O -0.08362 0.60792 0.93615
 O7 O -0.08831 0.40414 0.93687
 O8 O -0.08466 0.60716 1.06198
 Cu9 Cu 0.10232 0.49603 0.99923
 Cu10 Cu -0.10360 0.50703 0.99899
 C11 C 0.00184 0.63904 1.08213
 C12 C -0.00320 0.36314 0.91660
 C13 C 0.00315 0.64051 0.91638
 C14 C -0.00417 0.36354 1.08219
 O15 O 0.59914 0.08785 0.43699
 O16 O 0.39563 0.08255 0.56220
 O17 O 0.59847 0.08695 0.56156
 O18 O 0.39545 0.08329 0.43651
 O19 O 0.40414 -0.08831 0.43687
 O20 O 0.60716 -0.08466 0.56198
 O21 O 0.40418 -0.08907 0.56146
 O22 O 0.60792 -0.08362 0.43615
 Cu23 Cu 0.49603 0.10232 0.49923
 Cu24 Cu 0.50703 -0.10360 0.49899
 C25 C 0.64051 0.00314 0.41638
 C26 C 0.36354 -0.00417 0.58219
 C27 C 0.63904 0.00184 0.58213
 C28 C 0.36315 -0.00320 0.41660
 C29 C -0.00100 0.00061 0.25034
 C30 C 0.00062 -0.00100 0.75034
 C31 C 0.00274 -0.26964 0.12757
 C32 C -0.04149 -0.29010 0.19486
 C33 C -0.04287 -0.20539 0.23448
 C34 C 0.00015 -0.10416 0.20407
 C35 C 0.10926 -0.14223 0.17906
 C36 C 0.11022 -0.22663 0.13983
 C37 C -0.06211 -0.17753 0.10163
 C38 C -0.06433 -0.09311 0.14058
 H39 H -0.06811 -0.36528 0.21055
 H40 H -0.07092 -0.21288 0.28339
 H41 H 0.18177 -0.10668 0.18989
 H42 H 0.18193 -0.25934 0.11949
 H43 H -0.10707 -0.17970 0.05740
 H44 H -0.11281 -0.02704 0.12689
 C45 C -0.00533 0.27187 0.12759
 C46 C -0.11282 0.22896 0.14043
 C47 C -0.11171 0.14417 0.17963
 C48 C -0.00246 0.10574 0.20403
 C49 C 0.06152 0.09513 0.14016
 C50 C 0.05915 0.17988 0.10125
 C51 C 0.03939 0.29168 0.19462
 C52 C 0.04091 0.20666 0.23420
 H53 H -0.18459 0.26202 0.12050
 H54 H -0.18418 0.10860 0.19089
 H55 H 0.10967 0.02907 0.12610
 H56 H 0.10356 0.18228 0.05666
 H57 H 0.06616 0.36670 0.21019
 H58 H 0.06924 0.21376 0.28297
 C59 C 0.27187 -0.00533 0.62759
 C60 C 0.17988 0.05915 0.60125
 C61 C 0.09513 0.06152 0.64016
 C62 C 0.10575 -0.00246 0.70403
 C63 C 0.14417 -0.11171 0.67963
 C64 C 0.22896 -0.11282 0.64043
 C65 C 0.29168 0.03939 0.69462
 C66 C 0.20667 0.04091 0.73420
 H67 H 0.18228 0.10356 0.55666
 H68 H 0.02907 0.10967 0.62610
 H69 H 0.10860 -0.18418 0.69089
 H70 H 0.26202 -0.18459 0.62050
 H71 H 0.36670 0.06616 0.71019
 H72 H 0.21377 0.06924 0.78297
 C73 C -0.26964 0.00274 0.62757
 C74 C -0.22663 0.11022 0.63983
 C75 C -0.14223 0.10926 0.67906
 C76 C -0.10416 0.00015 0.70407
 C77 C -0.20539 -0.04287 0.73448
 C78 C -0.29010 -0.04150 0.69486
 C79 C -0.17753 -0.06211 0.60163
 C80 C -0.09311 -0.06433 0.64058
 H81 H -0.25933 0.18193 0.61949
 H82 H -0.10668 0.18176 0.68989
 H83 H -0.21288 -0.07092 0.78339
 H84 H -0.36528 -0.06811 0.71055
 H85 H -0.17970 -0.10707 0.55740
 H86 H -0.02704 -0.11281 0.62689
 C87 C 0.00450 -0.27201 0.87356
 C88 C -0.06041 -0.17978 0.89960
 C89 C -0.06263 -0.09512 0.86053
 C90 C 0.00181 -0.10586 0.79688
 C91 C 0.11091 -0.14380 0.82166
 C92 C 0.11209 -0.22851 0.86090
 C93 C -0.03963 -0.29197 0.80634
 C94 C -0.04109 -0.20700 0.76673
 H95 H -0.10512 -0.18181 0.94410
 H96 H -0.11079 -0.02890 0.87435
 H97 H 0.18328 -0.10781 0.81071
 H98 H 0.18406 -0.26078 0.88106
 H99 H -0.06618 -0.36702 0.79061
 H100 H -0.06914 -0.21432 0.71792
 C101 C -0.00399 0.27092 0.87181
 C102 C 0.06070 0.17912 0.89842
 C103 C 0.06311 0.09404 0.85995
 C104 C -0.00090 0.10424 0.79625
 C105 C -0.11016 0.14254 0.82087
 C106 C -0.11139 0.22765 0.85957
 C107 C 0.04064 0.29037 0.80454
 C108 C 0.04231 0.20511 0.76544
 H109 H 0.10507 0.18186 0.94287
 H110 H 0.11112 0.02794 0.87422
 H111 H -0.18251 0.10656 0.81018
 H112 H -0.18320 0.26056 0.87966
 H113 H 0.06734 0.36532 0.78848
 H114 H 0.07071 0.21204 0.71658
 C115 C -0.27200 0.00449 0.37356
 C116 C -0.29197 -0.03964 0.30634
 C117 C -0.20700 -0.04110 0.26673
 C118 C -0.10586 0.00181 0.29688
 C119 C -0.14380 0.11091 0.32166
 C120 C -0.22851 0.11208 0.36090
 C121 C -0.17978 -0.06041 0.39960
 C122 C -0.09512 -0.06264 0.36053
 H123 H -0.36702 -0.06618 0.29061
 H124 H -0.21432 -0.06914 0.21792
 H125 H -0.10781 0.18328 0.31071
 H126 H -0.26078 0.18406 0.38106
 H127 H -0.18181 -0.10512 0.44410
 H128 H -0.02890 -0.11079 0.37435
 C129 C 0.27092 -0.00399 0.37181
 C130 C 0.22765 -0.11140 0.35957
 C131 C 0.14255 -0.11016 0.32087
 C132 C 0.10424 -0.00090 0.29625
 C133 C 0.09404 0.06311 0.35995
 C134 C 0.17913 0.06069 0.39842
 C135 C 0.29037 0.04063 0.30454
 C136 C 0.20511 0.04231 0.26544
 H137 H 0.26056 -0.18321 0.37966
 H138 H 0.10656 -0.18251 0.31018
 H139 H 0.02794 0.11112 0.37422
 H140 H 0.18186 0.10507 0.44287
 H141 H 0.36532 0.06734 0.28848
 H142 H 0.21204 0.07071 0.21658
   
