data_POSCAR
  _audit_creation_date              2014-09-24
  _audit_creation_method            'ToBaCCo'
  _symmetry_space_group_name_H-M    'P1'
  _symmetry_Int_Tables_number       1
  _symmetry_cell_setting            triclinic
  loop_
  _symmetry_equiv_pos_as_xyz
 x,y,z
_cell_length_a 33.3524
_cell_length_b 25.1225
_cell_length_c 14.9042
_cell_angle_alpha 90.053800
_cell_angle_beta 89.819500
_cell_angle_gamma 89.955700
loop_
  _atom_site_label
  _atom_site_type_symbol
  _atom_site_fract_x
  _atom_site_fract_y
  _atom_site_fract_z
C1 C 0.66658 0.33979 0.50171
 C2 C 0.68495 0.32763 0.58391
 C3 C 0.72001 0.29635 0.58330
 C4 C 0.73478 0.27294 0.50343
 C5 C 0.71369 0.28300 0.42323
 C6 C 0.68068 0.31761 0.42131
 C7 C 0.77131 0.23743 0.50374
 C8 C 0.79306 0.22718 0.42398
 C9 C 0.82564 0.19148 0.42226
 C10 C 0.83873 0.16920 0.50350
 C11 C 0.81964 0.18181 0.58472
 C12 C 0.78510 0.21363 0.58368
 H13 H 0.64002 0.36433 0.50020
 H14 H 0.73554 0.29069 0.64596
 H15 H 0.72234 0.26376 0.36136
 H16 H 0.78491 0.24689 0.36235
 H17 H 0.86507 0.14421 0.50444
 H18 H 0.76941 0.21943 0.64635
 C19 C 0.16141 0.83092 0.49870
 C20 C 0.17468 0.80892 0.58004
 C21 C 0.20729 0.77328 0.57846
 C22 C 0.22883 0.76271 0.49865
 C23 C 0.21490 0.78623 0.41853
 C24 C 0.18035 0.81807 0.41742
 C25 C 0.26518 0.72691 0.49898
 C26 C 0.27917 0.70274 0.41930
 C27 C 0.31401 0.67150 0.41826
 C28 C 0.33313 0.65962 0.49946
 C29 C 0.31971 0.68207 0.58059
 C30 C 0.28680 0.71724 0.57876
 H31 H 0.13505 0.85587 0.49774
 H32 H 0.21561 0.75382 0.64021
 H33 H 0.23048 0.78017 0.35579
 H34 H 0.26348 0.70804 0.35675
 H35 H 0.35968 0.63504 0.49856
 H36 H 0.27838 0.73716 0.64021
 C37 C 0.33985 0.32787 -0.50239
 C38 C 0.32054 0.31656 -0.58351
 C39 C 0.28509 0.28651 -0.58239
 C40 C 0.27030 0.26364 -0.50218
 C41 C 0.29184 0.27335 -0.42232
 C42 C 0.32555 0.30675 -0.42146
 C43 C 0.23328 0.22912 -0.50197
 C44 C 0.21157 0.21942 -0.42200
 C45 C 0.17832 0.18486 -0.42023
 C46 C 0.16469 0.16311 -0.50150
 C47 C 0.18389 0.17511 -0.58279
 C48 C 0.21896 0.20578 -0.58186
 H49 H 0.36716 0.35098 -0.50260
 H50 H 0.26950 0.28139 -0.64512
 H51 H 0.28298 0.25488 -0.35999
 H52 H 0.22024 0.23870 -0.36030
 H53 H 0.13790 0.13904 -0.50242
 H54 H 0.23465 0.21107 -0.64462
 C55 C -0.16459 0.83682 -0.49825
 C56 C -0.17833 0.81535 -0.57964
 C57 C -0.21163 0.78091 -0.57813
 C58 C -0.23331 0.77103 -0.49829
 C59 C -0.21887 0.79403 -0.41812
 C60 C -0.18373 0.82463 -0.41698
 C61 C -0.27034 0.73654 -0.49860
 C62 C -0.28508 0.71341 -0.41864
 C63 C -0.32049 0.68333 -0.41775
 C64 C -0.33982 0.67216 -0.49891
 C65 C -0.32558 0.69346 -0.57974
 C66 C -0.29189 0.72697 -0.57860
 H67 H -0.13776 0.86081 -0.49724
 H68 H -0.22036 0.76185 -0.63998
 H69 H -0.23450 0.78854 -0.35534
 H70 H -0.26949 0.71837 -0.35589
 H71 H -0.36711 0.64899 -0.49879
 H72 H -0.28307 0.74563 -0.64080
 N73 N 0.04234 0.94166 -0.15865
 N74 N 0.06963 0.93013 -0.22009
 N75 N -0.04284 0.90713 -0.09688
 N76 N -0.07328 0.87441 -0.10980
 N77 N -0.04163 0.94360 -0.15997
 N78 N -0.07082 0.93645 -0.21829
 N79 N 0.04181 0.90522 -0.09544
 N80 N 0.06910 0.86828 -0.11124
 C81 C 0.08627 0.88471 -0.18864
 C82 C -0.09032 0.89347 -0.18558
 N83 N -0.04342 0.94320 0.15953
 N84 N -0.07094 0.93268 0.22090
 N85 N 0.04106 0.90555 0.09764
 N86 N 0.07087 0.87176 0.11041
 N87 N 0.04056 0.94203 0.16087
 N88 N 0.06962 0.93384 0.21913
 N89 N -0.04360 0.90677 0.09619
 N90 N -0.07163 0.87086 0.11183
 Mn91 Mn -0.00090 0.90557 0.00038
 C92 C -0.08848 0.88791 0.18928
 C93 C 0.08829 0.89018 0.18624
 N94 N -0.04048 1.05807 -0.15966
 N95 N -0.06969 1.06607 -0.21759
 N96 N 0.04369 1.09340 -0.09520
 N97 N 0.07162 1.12943 -0.11113
 N98 N 0.04351 1.05695 -0.15852
 N99 N 0.07091 1.06757 -0.22012
 N100 N -0.04097 1.09454 -0.09642
 N101 N -0.07093 1.12815 -0.10883
 Mn102 Mn 0.00101 1.00007 -0.16006
 C103 C -0.08842 1.10961 -0.18447
 C104 C 0.08841 1.11243 -0.18871
 N105 N 0.04167 1.05649 0.16102
 N106 N 0.07098 1.06344 0.21906
 N107 N -0.04174 1.09496 0.09668
 N108 N -0.06887 1.13208 0.11287
 N109 N -0.04229 1.05849 0.15986
 N110 N -0.06940 1.07019 0.22162
 N111 N 0.04290 1.09295 0.09791
 N112 N 0.07347 1.12547 0.11052
 Mn113 Mn -0.00095 1.00006 0.16118
 Mn114 Mn 0.00097 1.09456 0.00074
 Cl115 Cl 0.00003 1.00007 0.00056
 C116 C 0.09056 1.10630 0.18615
 C117 C -0.08595 1.11573 0.19045
 N118 N 0.54191 0.44445 -0.16279
 N119 N 0.57118 0.43817 -0.22163
 N120 N 0.45940 0.40417 -0.09588
 N121 N 0.43277 0.36640 -0.11116
 N122 N 0.45795 0.44073 -0.15879
 N123 N 0.43059 0.42861 -0.21929
 N124 N 0.54399 0.40821 -0.09945
 N125 N 0.57520 0.37668 -0.11249
 C126 C 0.59169 0.39607 -0.18882
 C127 C 0.41493 0.38258 -0.18771
 N128 N 0.46085 0.44109 0.16043
 N129 N 0.43178 0.43256 0.21892
 N130 N 0.54520 0.40775 0.09339
 N131 N 0.57338 0.37205 0.10881
 N132 N 0.54487 0.44432 0.15649
 N133 N 0.57258 0.43421 0.21729
 N134 N 0.46064 0.40466 0.09712
 N135 N 0.43105 0.37056 0.11003
 Mn136 Mn 0.50232 0.40561 -0.00121
 C137 C 0.41347 0.38870 0.18611
 C138 C 0.59033 0.38949 0.18560
 N139 N 0.45521 0.55589 -0.15885
 N140 N 0.42768 0.56606 -0.22002
 N141 N 0.53930 0.59546 -0.09916
 N142 N 0.56897 0.62945 -0.11183
 N143 N 0.53916 0.55897 -0.16240
 N144 N 0.56833 0.56738 -0.22063
 N145 N 0.45469 0.59235 -0.09557
 N146 N 0.42641 0.62795 -0.11112
 Mn147 Mn 0.49848 0.50000 -0.16159
 C148 C 0.40974 0.61064 -0.18836
 C149 C 0.58664 0.61119 -0.18771
 N150 N 0.54205 0.55946 0.15677
 N151 N 0.56933 0.57167 0.21746
 N152 N 0.45606 0.59191 0.09747
 N153 N 0.42486 0.62343 0.11047
 N154 N 0.45805 0.55557 0.16066
 N155 N 0.42864 0.56164 0.21919
 N156 N 0.54061 0.59605 0.09389
 N157 N 0.56714 0.63391 0.10944
 Mn158 Mn 0.50154 0.50012 0.15948
 Mn159 Mn 0.49764 0.59454 -0.00084
 Cl160 Cl 0.49999 0.50008 -0.00104
 C161 C 0.58495 0.61777 0.18609
 C162 C 0.40821 0.60383 0.18646
 N163 N 0.35717 0.32698 0.19141
 N164 N 0.33140 0.30769 0.25093
 C165 C 0.33891 0.33224 0.32981
 C166 C 0.37007 0.36761 0.31624
 N167 N 0.38057 0.36289 0.22954
 H168 H 0.38492 0.39266 0.36498
 N169 N -0.14224 0.82269 0.19902
 N170 N -0.16692 0.80245 0.25988
 C171 C -0.15878 0.82675 0.33873
 C172 C -0.12838 0.86326 0.32341
 N173 N -0.11910 0.85931 0.23593
 H174 H -0.11410 0.89000 0.37040
 N175 N 0.63271 0.69070 0.19909
 N176 N 0.65688 0.71198 0.25976
 C177 C 0.65332 0.68238 0.33495
 C178 C 0.62637 0.64183 0.31788
 N179 N 0.61429 0.64856 0.23278
 H180 H 0.61616 0.61080 0.36278
 N181 N 0.14818 1.16572 0.19180
 N182 N 0.17405 1.18407 0.25161
 C183 C 0.16577 1.15972 0.33032
 C184 C 0.13402 1.12541 0.31634
 N185 N 0.12397 1.13057 0.22961
 H186 H 0.11837 1.10096 0.36484
 N187 N 0.65312 0.34342 -0.19284
 N188 N 0.67919 0.32522 -0.25280
 C189 C 0.66752 0.34345 -0.33402
 C190 C 0.63351 0.37430 -0.32106
 N191 N 0.62560 0.37289 -0.23274
 H192 H 0.61515 0.39418 -0.37047
 N193 N 0.13871 0.81752 -0.19863
 N194 N 0.16298 0.79639 -0.25956
 C195 C 0.15533 0.82100 -0.33832
 C196 C 0.12566 0.85861 -0.32288
 N197 N 0.11630 0.85499 -0.23542
 H198 H 0.11193 0.88590 -0.36978
 N199 N 0.35601 0.67602 -0.19852
 N200 N 0.33132 0.69597 -0.25935
 C201 C 0.33930 0.67104 -0.33785
 C202 C 0.36964 0.63445 -0.32229
 N203 N 0.37904 0.63897 -0.23506
 H204 H 0.38385 0.60731 -0.36901
 N205 N -0.14486 1.17114 -0.18988
 N206 N -0.17037 1.19043 -0.24963
 C207 C -0.16260 1.16574 -0.32839
 C208 C -0.13155 1.13026 -0.31450
 N209 N -0.12138 1.13509 -0.22778
 H210 H -0.11641 1.10522 -0.36306
 N211 N 0.64299 0.67278 -0.19273
 N212 N 0.66875 0.69208 -0.25224
 C213 C 0.66122 0.66756 -0.33113
 C214 C 0.63007 0.63221 -0.31763
 N215 N 0.61960 0.63691 -0.23095
 H216 H 0.61518 0.60723 -0.36642
 N217 N 0.14205 1.17789 -0.19889
 N218 N 0.16674 1.19807 -0.25982
 C219 C 0.15870 1.17358 -0.33855
 C220 C 0.12832 1.13701 -0.32305
 N221 N 0.11897 1.14111 -0.23560
 H222 H 0.11413 1.11010 -0.36991
 N223 N 0.36714 0.30973 -0.20035
 N224 N 0.34300 0.28838 -0.26098
 C225 C 0.34660 0.31791 -0.33623
 C226 C 0.37351 0.35847 -0.31930
 N227 N 0.38555 0.35183 -0.23418
 H228 H 0.38375 0.38944 -0.36429
 N229 N -0.14780 0.83375 -0.19157
 N230 N -0.17367 0.81540 -0.25139
 C231 C -0.16549 0.83987 -0.33005
 C232 C -0.13376 0.87426 -0.31597
 N233 N -0.12365 0.86902 -0.22926
 H234 H -0.11821 0.89886 -0.36440
 N235 N 0.34936 0.66115 0.19220
 N236 N 0.32325 0.67914 0.25219
 C237 C 0.33210 0.65566 0.33124
 C238 C 0.36448 0.62222 0.31723
 N239 N 0.37429 0.62706 0.23017
 H240 H 0.38076 0.59878 0.36590
 N241 N -0.13816 1.18327 0.20097
 N242 N -0.16241 1.20437 0.26197
 C243 C -0.15489 1.17955 0.34061
 C244 C -0.12528 1.14184 0.32498
 N245 N -0.11585 1.14560 0.23753
 H246 H -0.11169 1.11435 0.37173
 N247 N 0.64037 0.31946 0.19894
 N248 N 0.66475 0.29919 0.26008
 C249 C 0.66001 0.32848 0.33541
 C250 C 0.63210 0.36783 0.31793
 N251 N 0.62067 0.36067 0.23247
 H252 H 0.62061 0.39813 0.36282
 N253 N 0.14461 0.82842 0.19203
 N254 N 0.17013 0.80916 0.25180
 C255 C 0.16242 0.83395 0.33051
 C256 C 0.13137 0.86945 0.31653
 N257 N 0.12115 0.86455 0.22982
 H258 H 0.11630 0.89462 0.36502
   
