data_POSCAR
  _audit_creation_date              2014-09-24
  _audit_creation_method            'ToBaCCo'
  _symmetry_space_group_name_H-M    'P1'
  _symmetry_Int_Tables_number       1
  _symmetry_cell_setting            triclinic
  loop_
  _symmetry_equiv_pos_as_xyz
 x,y,z
_cell_length_a 40.1807
_cell_length_b 40.1175
_cell_length_c 13.8433
_cell_angle_alpha 90.237200
_cell_angle_beta 89.662800
_cell_angle_gamma 120.396300
loop_
  _atom_site_label
  _atom_site_type_symbol
  _atom_site_fract_x
  _atom_site_fract_y
  _atom_site_fract_z
C1 C 0.16950 0.47336 0.49460
 C2 C 0.19449 0.49084 0.41522
 C3 C 0.23396 0.50547 0.42663
 C4 C 0.24861 0.49948 0.51226
 C5 C 0.22325 0.48236 0.59181
 C6 C 0.18362 0.47000 0.58486
 C7 C 0.29021 0.51087 0.51680
 C8 C 0.31025 0.52278 0.60472
 C9 C 0.34857 0.53184 0.60989
 C10 C 0.36821 0.53175 0.52572
 C11 C 0.34929 0.52028 0.43660
 C12 C 0.31014 0.50953 0.43308
 H13 H 0.13980 0.46586 0.48744
 H14 H 0.25319 0.52043 0.36665
 H15 H 0.23406 0.47806 0.65923
 H16 H 0.29617 0.52453 0.66984
 H17 H 0.39861 0.54128 0.53071
 H18 H 0.29523 0.49955 0.36488
 C19 C 0.56373 -0.27183 0.51297
 C20 C 0.55801 -0.25646 0.42704
 C21 C 0.54756 -0.22807 0.43329
 C22 C 0.53965 -0.21667 0.52245
 C23 C 0.54188 -0.23545 0.60668
 C24 C 0.55542 -0.26172 0.60387
 C25 C 0.52963 -0.18514 0.52774
 C26 C 0.53355 -0.16589 0.61574
 C27 C 0.52405 -0.13713 0.62386
 C28 C 0.51224 -0.12527 0.54236
 C29 C 0.50920 -0.14257 0.45181
 C30 C 0.51682 -0.17327 0.44611
 H31 H 0.57055 -0.29455 0.50879
 H32 H 0.54600 -0.21483 0.36702
 H33 H 0.53302 -0.22997 0.67588
 H34 H 0.54430 -0.17256 0.67969
 H35 H 0.50372 -0.10389 0.55196
 H36 H 0.51214 -0.18785 0.37754
 C37 C 1.28711 0.82637 0.46786
 C38 C 1.27533 0.80519 0.38104
 C39 C 1.25039 0.76526 0.38507
 C40 C 1.23298 0.74671 0.47242
 C41 C 1.24592 0.76850 0.55931
 C42 C 1.27483 0.80786 0.55779
 C43 C 1.20146 0.70501 0.47081
 C44 C 1.19358 0.68145 0.55279
 C45 C 1.16280 0.64315 0.55361
 C46 C 1.14230 0.62703 0.46758
 C47 C 1.14964 0.64937 0.38428
 C48 C 1.17862 0.68843 0.38701
 H49 H 1.30749 0.85704 0.46591
 H50 H 1.24360 0.74892 0.31847
 H51 H 1.23410 0.75525 0.62846
 H52 H 1.21078 0.69292 0.61735
 H53 H 1.12198 0.59637 0.46332
 H54 H 1.18280 0.70560 0.32324
 C55 C 0.82939 0.44562 0.55197
 C56 C 0.82976 0.46287 0.46386
 C57 C 0.80848 0.48170 0.45549
 C58 C 0.78625 0.48297 0.53337
 C59 C 0.78735 0.46620 0.62207
 C60 C 0.80931 0.44826 0.63141
 C61 C 0.76182 0.50121 0.52130
 C62 C 0.75089 0.51528 0.60184
 C63 C 0.72528 0.52930 0.59270
 C64 C 0.71434 0.53352 0.49889
 C65 C 0.72549 0.52063 0.41740
 C66 C 0.74778 0.50317 0.42946
 H67 H 0.84493 0.43029 0.56028
 H68 H 0.80983 0.49568 0.38777
 H69 H 0.77075 0.46605 0.68394
 H70 H 0.76135 0.51445 0.67306
 H71 H 0.69545 0.54483 0.48724
 H72 H 0.75352 0.49075 0.36660
 C73 C 0.46817 0.35575 0.54739
 C74 C 0.46703 0.34072 0.45501
 C75 C 0.46163 0.30351 0.44637
 C76 C 0.46244 0.28316 0.52841
 C77 C 0.46875 0.30133 0.61972
 C78 C 0.46978 0.33668 0.63079
 C79 C 0.45679 0.24329 0.51898
 C80 C 0.44246 0.21733 0.59736
 C81 C 0.43695 0.17991 0.59076
 C82 C 0.44320 0.16727 0.50071
 C83 C 0.45760 0.19262 0.42155
 C84 C 0.46548 0.23069 0.43213
 H85 H 0.47055 0.38371 0.55316
 H86 H 0.45771 0.29115 0.37489
 H87 H 0.47243 0.28792 0.68323
 H88 H 0.43527 0.22595 0.66480
 H89 H 0.44005 0.13900 0.49284
 H90 H 0.47850 0.25026 0.37193
 C91 C 0.64921 0.16652 0.47010
 C92 C 0.66614 0.17557 0.37839
 C93 C 0.70613 0.19763 0.37047
 C94 C 0.72984 0.20771 0.45290
 C95 C 0.71225 0.19705 0.54532
 C96 C 0.67171 0.17592 0.55416
 C97 C 0.77261 0.22826 0.43939
 C98 C 0.79780 0.25773 0.50309
 C99 C 0.83760 0.28087 0.48064
 C100 C 0.85137 0.27383 0.39433
 C101 C 0.82693 0.24388 0.33182
 C102 C 0.78806 0.22080 0.35590
 H103 H 0.61806 0.15184 0.47572
 H104 H 0.71864 0.20608 0.29895
 H105 H 0.72981 0.20388 0.60951
 H106 H 0.78572 0.26420 0.56540
 H107 H 0.88123 0.29296 0.37378
 H108 H 0.76953 0.19800 0.30637
 O109 O 0.95496 0.47795 -0.10262
 O110 O 1.02736 0.47416 0.17975
 O111 O 0.92215 0.42710 0.12941
 O112 O 1.08037 0.51765 -0.08936
 O113 O 0.96363 0.41947 0.21244
 O114 O 1.02287 0.50607 -0.11785
 O115 O 1.03993 0.51349 0.05782
 O116 O 0.90682 0.42564 -0.04659
 C117 C 0.92005 0.45829 -0.08419
 C118 C 1.03699 0.50750 0.14750
 C119 C 0.93781 0.42855 0.20801
 C120 C 1.05755 0.52244 -0.14592
 O121 O 1.01328 0.44007 -0.20019
 O122 O 0.98184 0.37321 0.10385
 O123 O 0.91766 0.36732 -0.07010
 O124 O 1.08037 0.48186 0.06778
 O125 O 1.04303 0.42319 0.07778
 O126 O 0.94172 0.41098 -0.18462
 O127 O 1.05376 0.44629 -0.09052
 O128 O 0.92481 0.36377 0.10585
 Co129 Co 0.98374 0.45694 -0.13910
 Co130 Co 1.00297 0.42374 0.13330
 Co131 Co 0.92438 0.39983 0.02739
 Co132 Co 1.04402 0.47838 -0.01790
 O133 O 0.98660 0.43708 0.00391
 C134 C 1.04160 0.43719 -0.17462
 C135 C 0.94689 0.35053 0.11027
 C136 C 0.91964 0.37636 -0.15680
 C137 C 1.07521 0.45058 0.09669
 O138 O 0.50089 0.49954 -0.10277
 O139 O 0.52684 0.56355 0.21411
 O140 O 0.54193 0.47891 0.12283
 O141 O 0.48220 0.54678 -0.07817
 O142 O 0.56075 0.52800 0.22431
 O143 O 0.51496 0.55261 -0.21243
 O144 O 0.48266 0.54291 0.10236
 O145 O 0.53548 0.47475 -0.06236
 C146 C 0.50569 0.47129 -0.10065
 C147 C 0.49166 0.54539 0.18975
 C148 C 0.54447 0.49192 0.20733
 C149 C 0.48408 0.54937 -0.17058
 O150 O 0.57988 0.59880 -0.13796
 O151 O 0.62401 0.58791 0.14120
 O152 O 0.60809 0.53330 -0.07486
 O153 O 0.53715 0.61580 0.11153
 O154 O 0.59180 0.62213 0.11747
 O155 O 0.56875 0.53358 -0.18031
 O156 O 0.54512 0.61789 -0.06779
 O157 O 0.61308 0.53129 0.10527
 Co158 Co 0.54095 0.54987 -0.11198
 Co159 Co 0.57398 0.57415 0.16312
 Co160 Co 0.57237 0.50891 0.02190
 Co161 Co 0.51618 0.57830 0.01736
 O162 O 0.55356 0.55205 0.02725
 C163 C 0.57158 0.62440 -0.12654
 C164 C 0.63472 0.56395 0.14046
 C165 C 0.60032 0.53632 -0.16058
 C166 C 0.57166 0.63626 0.13307
 O167 O 0.49124 0.03847 -0.24944
 O168 O 0.44867 -0.02245 0.19916
 O169 O 0.52800 0.06852 0.05612
 O170 O 0.47099 -0.05562 -0.08274
 O171 O 0.48637 0.04726 0.17577
 O172 O 0.50694 0.00375 -0.12845
 O173 O 0.46181 -0.05790 0.10078
 O174 O 0.52598 0.07063 -0.12360
 C175 C 0.52257 0.06816 -0.21559
 C176 C 0.46092 -0.04577 0.18452
 C177 C 0.52074 0.06301 0.14487
 C178 C 0.50180 -0.02934 -0.12015
 O179 O 0.43989 -0.03352 -0.20782
 O180 O 0.42126 0.04232 0.08690
 O181 O 0.46109 0.07599 -0.10602
 O182 O 0.39206 -0.07271 0.07881
 O183 O 0.38659 -0.02391 0.12210
 O184 O 0.42726 0.02007 -0.17145
 O185 O 0.39823 -0.06849 -0.10073
 O186 O 0.47654 0.08919 0.07152
 Co187 Co 0.46657 0.01214 -0.14321
 Co188 Co 0.43745 0.01116 0.13434
 Co189 Co 0.49299 0.06866 -0.02433
 Co190 Co 0.43326 -0.05724 -0.00271
 O191 O 0.45480 0.00513 -0.00297
 C192 C 0.40769 -0.06182 -0.18750
 C193 C 0.44301 0.07686 0.09920
 C194 C 0.43380 0.05356 -0.16054
 C195 C 0.37324 -0.05923 0.11827
 C196 C 1.18111 0.49484 0.32518
 C197 C 1.14543 0.47040 0.29476
 C198 C 1.13086 0.47615 0.20360
 C199 C 1.10055 0.44606 0.16340
 H200 H 1.12632 0.44494 0.33669
 H201 H 1.14192 0.50517 0.17611
 H202 H 1.20116 0.51671 0.27533
 H203 H 1.09040 0.41726 0.19146
 C204 C 0.55841 0.72883 0.33487
 C205 C 0.57413 0.70719 0.31493
 C206 C 0.56448 0.68447 0.22541
 C207 C 0.58618 0.66994 0.19682
 H208 H 0.59271 0.70427 0.36627
 H209 H 0.53731 0.67591 0.18996
 H210 H 0.54410 0.73454 0.27638
 H211 H 0.61374 0.67960 0.23152
 C212 C 0.28959 -0.17751 0.29075
 C213 C 0.30296 -0.14011 0.27390
 C214 C 0.32574 -0.12129 0.18723
 C215 C 0.33773 -0.08415 0.17188
 H216 H 0.29933 -0.12227 0.32702
 H217 H 0.33765 -0.13583 0.14568
 H218 H 0.28913 -0.19545 0.23125
 H219 H 0.32544 -0.07010 0.21400
 C220 C 0.85056 0.46026 0.37803
 C221 C 0.87978 0.45327 0.38273
 C222 C 0.89640 0.44739 0.29399
 C223 C 0.92385 0.43786 0.29679
 H224 H 0.89117 0.45109 0.45152
 H225 H 0.88486 0.44946 0.22510
 H226 H 0.84114 0.46399 0.30769
 H227 H 0.93548 0.43580 0.36551
 C228 C 0.47421 0.36454 0.36701
 C229 C 0.49720 0.40304 0.36901
 C230 C 0.50828 0.42707 0.28153
 C231 C 0.52970 0.46550 0.29009
 H232 H 0.51011 0.41754 0.43633
 H233 H 0.49973 0.41356 0.21105
 H234 H 0.46340 0.35009 0.29829
 H235 H 0.53711 0.47842 0.36147
 C236 C 0.64225 0.16053 0.29046
 C237 C 0.61144 0.12487 0.28897
 C238 C 0.58544 0.10940 0.20563
 C239 C 0.55154 0.07688 0.21654
 H240 H 0.60437 0.10677 0.35258
 H241 H 0.59238 0.12581 0.13911
 H242 H 0.65084 0.17813 0.22577
 H243 H 0.54415 0.06228 0.28585
 C244 C 0.42957 0.15847 -0.32316
 C245 C 0.41960 0.12119 -0.31854
 C246 C 0.42514 0.10504 -0.22854
 C247 C 0.41394 0.06758 -0.22297
 H248 H 0.41078 0.10317 -0.38245
 H249 H 0.44382 0.12489 -0.17341
 H250 H 0.43429 0.17383 -0.25524
 H251 H 0.39511 0.04797 -0.27824
 C252 C 0.70930 0.53536 -0.32219
 C253 C 0.68138 0.54440 -0.32094
 C254 C 0.65959 0.54173 -0.23242
 C255 C 0.62678 0.54230 -0.24076
 H256 H 0.67151 0.55096 -0.38644
 H257 H 0.66876 0.53700 -0.16290
 H258 H 0.71786 0.52929 -0.25330
 H259 H 0.61775 0.54602 -0.31168
 C260 C 0.86425 0.31223 -0.46266
 C261 C 0.85857 0.31824 -0.37079
 C262 C 0.88956 0.35034 -0.31580
 C263 C 0.89260 0.34576 -0.22186
 H264 H 0.83265 0.29783 -0.33244
 H265 H 0.90988 0.37698 -0.35192
 H266 H 0.89249 0.33171 -0.49349
 H267 H 0.87270 0.31813 -0.18895
 C268 C 0.52224 -0.12292 -0.27945
 C269 C 0.53484 -0.08577 -0.26265
 C270 C 0.52106 -0.07446 -0.17751
 C271 C 0.52883 -0.03819 -0.16881
 H272 H 0.55078 -0.06453 -0.31831
 H273 H 0.49890 -0.09697 -0.13270
 H274 H 0.50755 -0.14408 -0.22284
 H275 H 0.55099 -0.01583 -0.21391
 C276 C 0.36828 0.53999 -0.29637
 C277 C 0.38733 0.52184 -0.27517
 C278 C 0.41837 0.53663 -0.20420
 C279 C 0.45025 0.53670 -0.23086
 H280 H 0.38467 0.49917 -0.32336
 H281 H 0.41632 0.54880 -0.13596
 H282 H 0.36986 0.56260 -0.25017
 H283 H 0.45210 0.52701 -0.30304
 C284 C 1.15316 0.62193 -0.35992
 C285 C 1.11819 0.59110 -0.34412
 C286 C 1.10783 0.56987 -0.25283
 C287 C 1.07065 0.54736 -0.23067
 H288 H 1.09539 0.58229 -0.39666
 H289 H 1.13019 0.57224 -0.20495
 H290 H 1.17359 0.63265 -0.30074
 H291 H 1.04872 0.54649 -0.27764
 C292 C 0.81396 0.43389 -0.27522
 C293 C 0.83787 0.45900 -0.20977
 C294 C 0.85777 0.44700 -0.14170
 C295 C 0.89436 0.47189 -0.11768
 H296 H 0.84850 0.48961 -0.21940
 H297 H 0.84533 0.41647 -0.12630
 H298 H 0.80651 0.40390 -0.27144
 H299 H 0.90753 0.50186 -0.13972
 C300 C 0.47615 0.35394 -0.27699
 C301 C 0.46873 0.38219 -0.25525
 C302 C 0.48606 0.40756 -0.17089
 C303 C 0.47894 0.43627 -0.15460
 H304 H 0.45208 0.38906 -0.30398
 H305 H 0.50876 0.40641 -0.13180
 H306 H 0.48837 0.34444 -0.22131
 H307 H 0.45624 0.43708 -0.19468
 C308 C 0.65194 0.16252 -0.35050
 C309 C 0.61904 0.12833 -0.34475
 C310 C 0.59124 0.11533 -0.26353
 C311 C 0.55464 0.08883 -0.28413
 H312 H 0.61032 0.10949 -0.40744
 H313 H 0.60001 0.12662 -0.19113
 H314 H 0.66287 0.18135 -0.28811
 H315 H 0.54733 0.07966 -0.35872
 C316 C 1.16018 0.45771 -0.33073
 C317 C 1.12138 0.44088 -0.33030
 C318 C 1.09943 0.43867 -0.24175
 C319 C 1.06154 0.42626 -0.24698
 H320 H 1.10521 0.43091 -0.39667
 H321 H 1.11514 0.45230 -0.17615
 H322 H 1.17459 0.46371 -0.26144
 H323 H 1.04660 0.41430 -0.31450
 C324 C 0.55718 0.72096 -0.30853
 C325 C 0.57503 0.70045 -0.29657
 C326 C 0.56944 0.67800 -0.20691
 C327 C 0.58736 0.65777 -0.19329
 H328 H 0.59247 0.69849 -0.35362
 H329 H 0.54685 0.67427 -0.15719
 H330 H 0.54307 0.72456 -0.24560
 H331 H 0.60939 0.66102 -0.24424
 C332 C 0.29244 -0.17071 -0.35024
 C333 C 0.32886 -0.14058 -0.34725
 C334 C 0.34814 -0.11813 -0.25880
 C335 C 0.38338 -0.08663 -0.26736
 H336 H 0.34606 -0.13214 -0.41268
 H337 H 0.33415 -0.12713 -0.18891
 H338 H 0.27595 -0.18083 -0.28379
 H339 H 0.39611 -0.07832 -0.33888
 C340 C 0.49668 -0.13052 0.36307
 C341 C 0.49432 -0.09826 0.35667
 C342 C 0.48125 -0.08768 0.26783
 C343 C 0.47470 -0.05798 0.26881
 H344 H 0.50221 -0.07868 0.41723
 H345 H 0.47634 -0.10452 0.20253
 H346 H 0.48949 -0.14885 0.29976
 H347 H 0.47852 -0.04235 0.33578
 C348 C 0.37039 0.52129 0.34625
 C349 C 0.40267 0.51901 0.34619
 C350 C 0.42700 0.52643 0.25883
 C351 C 0.46223 0.53070 0.26735
 H352 H 0.41269 0.51328 0.41304
 H353 H 0.41766 0.53158 0.19004
 H354 H 0.35962 0.52518 0.27815
 H355 H 0.47170 0.52740 0.33803
 C356 C 1.12937 0.63103 0.29235
 C357 C 1.09356 0.60012 0.29130
 C358 C 1.07760 0.57454 0.20612
 C359 C 1.04738 0.53879 0.21791
 H360 H 1.07701 0.59098 0.35787
 H361 H 1.09332 0.58272 0.13825
 H362 H 1.14538 0.64131 0.22524
 H363 H 1.03388 0.53024 0.28856
 C364 C 0.46765 0.18057 0.32975
 C365 C 0.44435 0.14608 0.28962
 C366 C 0.45636 0.13201 0.20512
 C367 C 0.43122 0.09852 0.16324
 H368 H 0.41641 0.12711 0.32231
 H369 H 0.48644 0.14707 0.18326
 H370 H 0.49458 0.20063 0.29430
 H371 H 0.40133 0.08374 0.18680
 C372 C 0.70968 0.52093 0.32112
 C373 C 0.70436 0.54982 0.29308
 C374 C 0.67854 0.54499 0.21232
 C375 C 0.66986 0.57241 0.19332
 H376 H 0.71582 0.57582 0.33664
 H377 H 0.66265 0.51697 0.17751
 H378 H 0.69985 0.49568 0.27545
 H379 H 0.68558 0.60014 0.22954
 C380 C 0.83981 0.24243 0.23255
 C381 C 0.87695 0.25569 0.21272
 C382 C 0.89506 0.28436 0.13541
 C383 C 0.93251 0.31062 0.14123
 H384 H 0.89544 0.25552 0.26932
 H385 H 0.87667 0.29010 0.08967
 H386 H 0.82082 0.24087 0.17509
 H387 H 0.95142 0.30511 0.18537
   
