data_POSCAR
  _audit_creation_date              2014-09-24
  _audit_creation_method            'ToBaCCo'
  _symmetry_space_group_name_H-M    'P1'
  _symmetry_Int_Tables_number       1
  _symmetry_cell_setting            triclinic
  loop_
  _symmetry_equiv_pos_as_xyz
 x,y,z
_cell_length_a 31.3283
_cell_length_b 34.3004
_cell_length_c 32.9320
_cell_angle_alpha 88.955000
_cell_angle_beta 89.902400
_cell_angle_gamma 89.727800
loop_
  _atom_site_label
  _atom_site_type_symbol
  _atom_site_fract_x
  _atom_site_fract_y
  _atom_site_fract_z
C1 C 1.19695 0.25402 0.31433
 H2 H 1.19314 0.22291 0.31105
 C3 C 1.17072 0.27408 0.34102
 H4 H 1.14731 0.25794 0.35862
 C5 C 1.23140 0.31263 0.29422
 H6 H 1.25464 0.32758 0.27544
 C7 C 1.20556 0.33400 0.32068
 H8 H 1.20891 0.36537 0.32163
 N9 N 1.22546 0.27355 0.29051
 C10 C 1.21742 0.20378 0.18180
 H11 H 1.24936 0.19203 0.17883
 C12 C 1.18468 0.19043 0.15682
 H13 H 1.19188 0.16816 0.13498
 C14 C 1.16914 0.24566 0.21534
 H15 H 1.16305 0.26736 0.23799
 C16 C 1.13568 0.23345 0.19088
 H17 H 1.10437 0.24613 0.19524
 Zn18 Zn 1.25129 0.24254 0.25007
 N19 N 1.20871 0.22963 0.21157
 C20 C 1.25561 0.16104 0.26963
 N21 N 1.27202 0.19684 0.27707
 C22 C 1.30209 0.20161 0.30619
 C23 C 1.31785 0.16958 0.32825
 C24 C 1.27004 0.12818 0.29135
 C25 C 1.28727 0.30260 0.20169
 C26 C 1.31981 0.32337 0.18198
 C27 C 1.37014 0.27421 0.20484
 C28 C 1.33666 0.25431 0.22386
 N29 N 1.29631 0.26914 0.22282
 H30 H 1.23070 0.15783 0.24738
 H31 H 1.31383 0.23052 0.31232
 H32 H 1.34166 0.17496 0.35112
 H33 H 1.25628 0.10033 0.28420
 H34 H 1.25478 0.31338 0.20054
 H35 H 1.31203 0.35041 0.16618
 H36 H 1.40194 0.26184 0.20627
 H37 H 1.34313 0.22694 0.23936
 C38 C 1.14279 0.20435 0.16221
 C39 C 1.17366 0.31476 0.34332
 C40 C 1.36203 0.30946 0.18394
 C41 C 1.30178 0.13193 0.32129
 C42 C 0.68334 -0.20425 0.28209
 H43 H 0.66411 -0.22814 0.27156
 C44 C 0.66398 -0.17293 0.30192
 H45 H 0.62973 -0.17270 0.30639
 C46 C 0.75155 -0.17605 0.29069
 H47 H 0.78583 -0.17791 0.28721
 C48 C 0.73347 -0.14370 0.30926
 H49 H 0.75410 -0.12077 0.31979
 N50 N 0.72640 -0.20500 0.27652
 C51 C 0.70757 -0.31179 0.21878
 H52 H 0.71905 -0.32871 0.24449
 C53 C 0.68480 -0.33039 0.18824
 H54 H 0.67862 -0.36133 0.19116
 C55 C 0.70404 -0.25180 0.18213
 H56 H 0.71220 -0.22126 0.17969
 C57 C 0.68213 -0.26943 0.15049
 H58 H 0.67318 -0.25214 0.12399
 Zn59 Zn 0.75421 -0.24770 0.25160
 N60 N 0.71710 -0.27319 0.21504
 C61 C 0.74236 -0.30049 0.31673
 N62 N 0.77287 -0.28179 0.29441
 C63 C 0.81498 -0.28623 0.30368
 C64 C 0.82791 -0.31306 0.33359
 C65 C 0.75385 -0.32722 0.34738
 C66 C 0.79791 -0.19196 0.20412
 C67 C 0.83161 -0.17578 0.18207
 C68 C 0.87033 -0.23646 0.19018
 C69 C 0.83509 -0.25198 0.21090
 N70 N 0.80084 -0.22892 0.21959
 H71 H 0.70900 -0.29517 0.31014
 H72 H 0.83879 -0.26875 0.28844
 H73 H 0.86161 -0.31666 0.33995
 H74 H 0.72908 -0.34274 0.36382
 H75 H 0.76944 -0.17480 0.20914
 H76 H 0.82915 -0.14593 0.17100
 H77 H 0.89821 -0.25448 0.18497
 H78 H 0.83553 -0.28222 0.22069
 C79 C 0.67290 -0.30937 0.15305
 C80 C 0.68920 -0.14187 0.31510
 C81 C 0.86880 -0.19776 0.17601
 C82 C 0.79719 -0.33445 0.35534
 C83 C 0.72185 0.29537 -0.18482
 H84 H 0.74006 0.27680 -0.16441
 C85 C 0.69330 0.32267 -0.16885
 H86 H 0.69007 0.32501 -0.13625
 C87 C 0.70107 0.31298 -0.25184
 H88 H 0.70263 0.30794 -0.28405
 C89 C 0.67190 0.34009 -0.23723
 H90 H 0.65243 0.35656 -0.25864
 N91 N 0.72467 0.29060 -0.22571
 C92 C 0.72192 0.20882 -0.31916
 H93 H 0.75364 0.21181 -0.33182
 C94 C 0.68993 0.19021 -0.34115
 H95 H 0.69703 0.17933 -0.37108
 C96 C 0.67379 0.21927 -0.26472
 H97 H 0.66795 0.23018 -0.23460
 C98 C 0.64101 0.20138 -0.28566
 H99 H 0.61005 0.19859 -0.27130
 Zn100 Zn 0.75388 0.24776 -0.24900
 N101 N 0.71319 0.22289 -0.28169
 C102 C 0.75381 0.17547 -0.20768
 N103 N 0.77172 0.21157 -0.20789
 C104 C 0.80151 0.22123 -0.17974
 C105 C 0.81526 0.19361 -0.15080
 C106 C 0.76542 0.14762 -0.17844
 C107 C 0.79344 0.28981 -0.31321
 C108 C 0.82715 0.30771 -0.33405
 C109 C 0.87641 0.27443 -0.28900
 C110 C 0.84175 0.25658 -0.26963
 N111 N 0.80108 0.26582 -0.28071
 H112 H 0.73051 0.16794 -0.23025
 H113 H 0.81501 0.25020 -0.18014
 H114 H 0.83946 0.20123 -0.12891
 H115 H 0.75082 0.11906 -0.17859
 H116 H 0.76106 0.29582 -0.32260
 H117 H 0.81942 0.32766 -0.35875
 H118 H 0.90813 0.26686 -0.27859
 H119 H 0.84763 0.23608 -0.24508
 C120 C 0.64880 0.18670 -0.32440
 C121 C 0.66695 0.34444 -0.19527
 C122 C 0.86951 0.30157 -0.32094
 C123 C 0.79679 0.15651 -0.15005
 C124 C 1.17729 -0.19377 -0.22117
 H125 H 1.15645 -0.20369 -0.24495
 C126 C 1.16448 -0.16306 -0.19636
 H127 H 1.13370 -0.14942 -0.20143
 C128 C 1.24314 -0.19889 -0.18609
 H129 H 1.27391 -0.21295 -0.18246
 C130 C 1.23166 -0.16871 -0.16071
 H131 H 1.25374 -0.16055 -0.13720
 N132 N 1.21633 -0.21055 -0.21580
 C133 C 1.18794 -0.30976 -0.28116
 H134 H 1.19940 -0.32792 -0.25633
 C135 C 1.16304 -0.32622 -0.31150
 H136 H 1.15558 -0.35698 -0.30950
 C137 C 1.18620 -0.24840 -0.31538
 H138 H 1.19614 -0.21825 -0.31701
 C139 C 1.16175 -0.26380 -0.34664
 H140 H 1.15247 -0.24510 -0.37197
 Zn141 Zn 1.23951 -0.25054 -0.24752
 N142 N 1.19940 -0.27159 -0.28388
 C143 C 1.23167 -0.30371 -0.18252
 N144 N 1.25995 -0.28871 -0.20995
 C145 C 1.30237 -0.29685 -0.20713
 C146 C 1.31782 -0.32084 -0.17579
 C147 C 1.24580 -0.32770 -0.15049
 C148 C 1.29141 -0.19003 -0.27841
 C149 C 1.32497 -0.17342 -0.30038
 C150 C 1.34456 -0.23761 -0.32324
 C151 C 1.30999 -0.25295 -0.30144
 N152 N 1.28498 -0.22924 -0.27869
 H153 H 1.19821 -0.29605 -0.18488
 H154 H 1.32468 -0.28355 -0.22808
 H155 H 1.35184 -0.32604 -0.17367
 H156 H 1.22273 -0.33913 -0.12895
 H157 H 1.27048 -0.17141 -0.26125
 H158 H 1.32986 -0.14223 -0.29935
 H159 H 1.36454 -0.25689 -0.34079
 H160 H 1.30351 -0.28388 -0.30203
 C161 C 1.15056 -0.30338 -0.34529
 C162 C 1.19213 -0.14993 -0.16590
 C163 C 1.35238 -0.19738 -0.32262
 C164 C 1.28950 -0.33618 -0.14661
 C165 C 0.25808 0.16887 0.73477
 H166 H 0.22811 0.16611 0.75076
 C167 C 0.27595 0.13604 0.71683
 H168 H 0.25882 0.10881 0.71907
 C169 C 0.31570 0.20792 0.71195
 H170 H 0.33090 0.23616 0.71006
 C171 C 0.33473 0.17574 0.69341
 H172 H 0.36476 0.17961 0.67761
 N173 N 0.27756 0.20414 0.73143
 C174 C 0.19786 0.22616 0.82211
 H175 H 0.22466 0.23385 0.84073
 C176 C 0.16214 0.20906 0.84047
 H177 H 0.16256 0.20430 0.87302
 C178 C 0.16530 0.22317 0.75753
 H179 H 0.16718 0.22793 0.72501
 C180 C 0.12863 0.20675 0.77465
 H181 H 0.10312 0.19925 0.75428
 Zn182 Zn 0.24973 0.24857 0.75362
 N183 N 0.19938 0.23173 0.78113
 C184 C 0.20675 0.31437 0.72094
 N185 N 0.23249 0.28383 0.71129
 C186 C 0.24374 0.27727 0.67208
 C187 C 0.22970 0.30234 0.64092
 C188 C 0.19170 0.34003 0.69064
 C189 C 0.30393 0.25202 0.82168
 C190 C 0.32648 0.27017 0.85260
 C191 C 0.31820 0.33157 0.81639
 C192 C 0.29503 0.31237 0.78657
 N193 N 0.28708 0.27350 0.79044
 H194 H 0.19768 0.31864 0.75227
 H195 H 0.26323 0.25236 0.66470
 H196 H 0.23880 0.29617 0.60999
 H197 H 0.17153 0.36428 0.69907
 H198 H 0.29830 0.22094 0.82346
 H199 H 0.33818 0.25285 0.87807
 H200 H 0.32270 0.36278 0.81362
 H201 H 0.28234 0.32885 0.76104
 C202 C 0.12701 0.19809 0.81666
 C203 C 0.31454 0.13918 0.69528
 C204 C 0.33297 0.31060 0.85059
 C205 C 0.20333 0.33426 0.64997
 C206 C 0.76740 0.71167 0.67961
 H207 H 0.73418 0.71945 0.67643
 C208 C 0.78696 0.68941 0.64980
 H209 H 0.76794 0.67947 0.62465
 C210 C 0.83251 0.71594 0.71549
 H211 H 0.85089 0.72743 0.74009
 C212 C 0.85326 0.69317 0.68660
 H213 H 0.88699 0.68686 0.68990
 N214 N 0.78994 0.72394 0.71216
 C215 C 0.71604 0.71144 0.81441
 H216 H 0.74307 0.71896 0.83295
 C217 C 0.68272 0.68956 0.83157
 H218 H 0.68498 0.68090 0.86324
 C219 C 0.68050 0.71428 0.75118
 H220 H 0.67935 0.72418 0.71991
 C221 C 0.64609 0.69346 0.76727
 H222 H 0.62001 0.68700 0.74711
 Zn223 Zn 0.75946 0.75385 0.75131
 N224 N 0.71445 0.72336 0.77479
 C225 C 0.69485 0.80878 0.72595
 N226 N 0.73683 0.79860 0.72357
 C227 C 0.76465 0.82004 0.70069
 C228 C 0.75052 0.85280 0.67862
 C229 C 0.67918 0.84078 0.70358
 C230 C 0.82406 0.74514 0.81169
 C231 C 0.85616 0.75876 0.83714
 C232 C 0.82851 0.82409 0.82708
 C233 C 0.79802 0.80945 0.80073
 N234 N 0.79714 0.77075 0.79251
 H235 H 0.67336 0.79226 0.74519
 H236 H 0.79790 0.81148 0.69947
 H237 H 0.77304 0.86917 0.66018
 H238 H 0.64561 0.84822 0.70541
 H239 H 0.82197 0.71432 0.80561
 H240 H 0.87896 0.73847 0.85050
 H241 H 0.82975 0.85517 0.83217
 H242 H 0.77573 0.82926 0.78608
 C243 C 0.64659 0.68061 0.80813
 C244 C 0.83037 0.67963 0.65326
 C245 C 0.85884 0.79874 0.84444
 C246 C 0.70717 0.86314 0.67950
 C247 C 0.74744 0.17150 0.21803
 H248 H 0.71494 0.17212 0.22900
 C249 C 0.76111 0.14020 0.19503
 H250 H 0.73911 0.11669 0.18936
 C251 C 0.81479 0.20210 0.21064
 H252 H 0.83500 0.22699 0.21586
 C253 C 0.82994 0.17108 0.18768
 H254 H 0.86199 0.17225 0.17542
 N255 N 0.77396 0.20194 0.22481
 C256 C 0.70860 0.20836 0.31258
 H257 H 0.74085 0.20501 0.32377
 C258 C 0.67517 0.18986 0.33293
 H259 H 0.68205 0.17320 0.36036
 C260 C 0.66110 0.23344 0.26249
 H261 H 0.65616 0.24921 0.23417
 C262 C 0.62658 0.21533 0.28195
 H263 H 0.59516 0.21783 0.26853
 Zn264 Zn 0.74992 0.24631 0.24936
 N265 N 0.70114 0.22936 0.27795
 C266 C 0.70925 0.31381 0.21581
 N267 N 0.73490 0.28284 0.20751
 C268 C 0.74843 0.27617 0.16893
 C269 C 0.73627 0.30105 0.13698
 C270 C 0.69607 0.33931 0.18465
 C271 C 0.81982 0.24433 0.30307
 C272 C 0.84783 0.25851 0.33215
 C273 C 0.81055 0.32024 0.32892
 C274 C 0.78328 0.30489 0.29982
 N275 N 0.78863 0.26768 0.28711
 H276 H 0.69794 0.31811 0.24643
 H277 H 0.76816 0.25117 0.16254
 H278 H 0.74670 0.29462 0.10647
 H279 H 0.67551 0.36367 0.19186
 H280 H 0.82259 0.21438 0.29378
 H281 H 0.87220 0.23928 0.34451
 H282 H 0.80614 0.35018 0.33789
 H283 H 0.75791 0.32280 0.28743
 C284 C 0.63360 0.19271 0.31733
 C285 C 0.80245 0.14019 0.17877
 C286 C 0.84359 0.29703 0.34524
 C287 C 0.70951 0.33293 0.14461
 C288 C 0.27633 0.68808 0.20608
 H289 H 0.24440 0.67715 0.21070
 C290 C 0.30681 0.66476 0.18678
 H291 H 0.29804 0.63599 0.17679
 C292 C 0.32752 0.73779 0.21494
 H293 H 0.33604 0.76576 0.22699
 C294 C 0.35883 0.71545 0.19634
 H295 H 0.39073 0.72715 0.19334
 N296 N 0.28723 0.72388 0.21991
 C297 C 0.20015 0.72235 0.31340
 H298 H 0.22343 0.73543 0.33303
 C299 C 0.16677 0.70074 0.33051
 H300 H 0.16475 0.69753 0.36321
 C301 C 0.17425 0.71093 0.24716
 H302 H 0.17742 0.71503 0.21465
 C303 C 0.14006 0.68947 0.26301
 H304 H 0.11750 0.67672 0.24233
 Zn305 Zn 0.24978 0.75605 0.25040
 N306 N 0.20349 0.72684 0.27237
 C307 C 0.18784 0.80513 0.21101
 N308 N 0.23018 0.79761 0.21629
 C309 C 0.26022 0.81909 0.19629
 C310 C 0.24829 0.84824 0.16852
 C311 C 0.17443 0.83421 0.18351
 C312 C 0.31055 0.75110 0.31135
 C313 C 0.34158 0.76478 0.33763
 C314 C 0.31193 0.82961 0.32941
 C315 C 0.28220 0.81477 0.30213
 N316 N 0.28276 0.77627 0.29304
 H317 H 0.16434 0.78842 0.22778
 H318 H 0.29363 0.81351 0.20158
 H319 H 0.27297 0.86472 0.15304
 H320 H 0.14060 0.83910 0.17908
 H321 H 0.30989 0.72051 0.30392
 H322 H 0.36369 0.74390 0.35092
 H323 H 0.31171 0.86060 0.33497
 H324 H 0.25965 0.83419 0.28720
 C325 C 0.13616 0.68401 0.30523
 C326 C 0.34886 0.67823 0.18252
 C327 C 0.34353 0.80478 0.34618
 C328 C 0.20491 0.85573 0.16132
 N329 N 1.05431 0.06863 0.03861
 N330 N 1.07240 0.10244 0.04631
 N331 N 1.06434 -0.01682 0.06934
 N332 N 1.08351 -0.04199 0.09408
 N333 N 1.08981 -0.00649 0.03935
 N334 N 1.12708 -0.02432 0.04290
 N335 N 1.02816 0.05845 0.06819
 N336 N 1.02702 0.08544 0.09617
 C337 C 1.05429 0.11284 0.08188
 C338 C 1.12260 -0.04624 0.07720
 N339 N 0.95142 -0.06153 0.04968
 N340 N 0.93483 -0.09526 0.06089
 N341 N 0.94425 0.02488 0.07470
 N342 N 0.92661 0.04807 0.10165
 N343 N 0.91561 0.01312 0.04866
 N344 N 0.87774 0.02763 0.05720
 N345 N 0.98048 -0.05057 0.07575
 N346 N 0.98478 -0.07700 0.10523
 Mn347 Mn 1.00438 0.00402 0.07245
 C348 C 0.95648 -0.10490 0.09506
 C349 C 0.88517 0.04954 0.09005
 N350 N 1.08434 -0.00825 -0.04780
 N351 N 1.12152 -0.02492 -0.05482
 N352 N 1.01904 0.05503 -0.07491
 N353 N 1.01516 0.07954 -0.10596
 N354 N 1.04885 0.06670 -0.04990
 N355 N 1.06678 0.09907 -0.06412
 N356 N 1.05548 -0.02027 -0.07352
 N357 N 1.07222 -0.04579 -0.09865
 Mn358 Mn 1.06970 0.03042 -0.00493
 C359 C 1.11344 -0.04824 -0.08648
 C360 C 1.04475 0.10701 -0.09876
 N361 N 0.91012 0.01153 -0.03805
 N362 N 0.87368 0.03082 -0.03985
 N363 N 0.97171 -0.05376 -0.06700
 N364 N 0.97387 -0.08190 -0.09380
 N365 N 0.94569 -0.06340 -0.03726
 N366 N 0.92877 -0.09791 -0.04333
 N367 N 0.93541 0.02210 -0.06804
 N368 N 0.91701 0.04942 -0.09087
 Mn369 Mn 0.93044 -0.02519 0.00574
 Mn370 Mn 0.99536 0.00070 -0.07132
 Cl371 Cl 1.00003 0.00258 0.00050
 C372 C 0.87843 0.05421 -0.07296
 C373 C 0.94732 -0.10938 -0.07821
 N374 N 1.06829 0.55394 0.52545
 N375 N 1.09010 0.58671 0.52667
 N376 N 1.06690 0.46937 0.56093
 N377 N 1.08516 0.44358 0.58575
 N378 N 1.08965 0.47397 0.52763
 N379 N 1.12393 0.45147 0.52891
 N380 N 1.04574 0.54900 0.55885
 N381 N 1.05236 0.57791 0.58401
 C382 C 1.07962 0.60141 0.56322
 C383 C 1.12069 0.43270 0.56528
 N384 N 0.94562 0.44198 0.55513
 N385 N 0.92582 0.41073 0.56943
 N386 N 0.95671 0.53009 0.57492
 N387 N 0.94917 0.56296 0.59439
 N388 N 0.92363 0.52110 0.55250
 N389 N 0.89326 0.54743 0.55571
 N390 N 0.97919 0.44976 0.57737
 N391 N 0.98374 0.42338 0.60679
 Mn392 Mn 1.01215 0.49966 0.56858
 C393 C 0.95029 0.39919 0.60131
 C394 C 0.90909 0.57297 0.58224
 N395 N 1.07326 0.46992 0.44118
 N396 N 1.10290 0.44310 0.43453
 N397 N 1.01821 0.54306 0.41773
 N398 N 1.01549 0.56780 0.38666
 N399 N 1.05249 0.54994 0.43932
 N400 N 1.07398 0.57957 0.42340
 N401 N 1.03919 0.46328 0.41922
 N402 N 1.04435 0.43165 0.39769
 Mn403 Mn 1.07142 0.51200 0.48337
 C404 C 1.08433 0.41976 0.40691
 C405 C 1.05009 0.59075 0.39096
 N406 N 0.90711 0.51718 0.46758
 N407 N 0.87279 0.53958 0.46739
 N408 N 0.95246 0.44389 0.43582
 N409 N 0.94970 0.41407 0.41133
 N410 N 0.92943 0.43789 0.46865
 N411 N 0.90950 0.40407 0.46699
 N412 N 0.93031 0.52377 0.43499
 N413 N 0.91239 0.55100 0.41168
 Mn414 Mn 0.92617 0.47924 0.51110
 Mn415 Mn 0.98492 0.49367 0.42658
 Cl416 Cl 0.99877 0.49617 0.49743
 C417 C 0.87651 0.56049 0.43243
 C418 C 0.92302 0.38952 0.43120
 N419 N 0.48277 -0.07923 0.54989
 N420 N 0.48425 -0.10967 0.57496
 N421 N 0.43961 -0.06413 0.46621
 N422 N 0.41229 -0.08265 0.44291
 N423 N 0.47720 -0.08129 0.46536
 N424 N 0.47630 -0.11208 0.44207
 N425 N 0.44506 -0.06230 0.55138
 N426 N 0.42016 -0.08071 0.57774
 C427 C 0.44532 -0.10973 0.59265
 C428 C 0.43591 -0.11227 0.42783
 N429 N 0.42832 0.05005 0.46250
 N430 N 0.41048 0.07232 0.43423
 N431 N 0.41555 0.01773 0.55013
 N432 N 0.38836 0.01696 0.58088
 N433 N 0.43419 0.05187 0.54730
 N434 N 0.42004 0.07534 0.57570
 N435 N 0.40987 0.01580 0.46455
 N436 N 0.37895 0.01374 0.43739
 Mn437 Mn 0.42708 -0.02331 0.50806
 C438 C 0.37994 0.04926 0.41868
 C439 C 0.39176 0.05308 0.59661
 N440 N 0.56392 -0.05445 0.45822
 N441 N 0.57850 -0.07805 0.43010
 N442 N 0.58883 -0.01829 0.54030
 N443 N 0.62162 -0.01702 0.56546
 N444 N 0.56965 -0.05219 0.54344
 N445 N 0.58860 -0.07472 0.57092
 N446 N 0.58235 -0.02020 0.45514
 N447 N 0.60995 -0.01960 0.42478
 Mn448 Mn 0.52355 -0.06698 0.50428
 C449 C 0.60688 -0.05579 0.40927
 C450 C 0.62067 -0.05228 0.58467
 N451 N 0.52091 0.07817 0.54048
 N452 N 0.52035 0.10590 0.56761
 N453 N 0.55261 0.05994 0.45375
 N454 N 0.57573 0.07637 0.42461
 N455 N 0.51473 0.07640 0.45549
 N456 N 0.51087 0.10409 0.42741
 N457 N 0.55883 0.06178 0.53863
 N458 N 0.58529 0.07828 0.56432
 Mn459 Mn 0.47445 0.06438 0.50147
 Mn460 Mn 0.57113 0.02093 0.49690
 Cl461 Cl 0.49905 -0.00129 0.50272
 C462 C 0.56055 0.10548 0.58234
 C463 C 0.54895 0.10343 0.40814
 N464 N 0.58282 0.54854 0.02467
 N465 N 0.60772 0.57950 0.02512
 N466 N 0.57134 0.46274 0.05524
 N467 N 0.59068 0.43699 0.07915
 N468 N 0.59199 0.46695 0.02071
 N469 N 0.62608 0.44411 0.02028
 N470 N 0.56322 0.54395 0.05970
 N471 N 0.57463 0.57134 0.08512
 C472 C 0.60217 0.59339 0.06302
 C473 C 0.62445 0.42534 0.05678
 N474 N 0.44650 0.45251 0.06048
 N475 N 0.42314 0.42347 0.07490
 N476 N 0.47534 0.53524 0.08342
 N477 N 0.47495 0.56238 0.11116
 N478 N 0.43845 0.53390 0.06462
 N479 N 0.41172 0.56007 0.07941
 N480 N 0.48341 0.45375 0.07922
 N481 N 0.48627 0.42539 0.10675
 Mn482 Mn 0.52339 0.49884 0.06973
 C483 C 0.44860 0.40659 0.10338
 C484 C 0.43520 0.57757 0.10838
 N485 N 0.56619 0.47007 -0.06368
 N486 N 0.59452 0.44705 -0.08113
 N487 N 0.52098 0.54980 -0.07879
 N488 N 0.51947 0.57554 -0.10902
 N489 N 0.55783 0.55159 -0.05989
 N490 N 0.58229 0.57867 -0.07691
 N491 N 0.52939 0.46856 -0.08266
 N492 N 0.53170 0.44470 -0.11349
 Mn493 Mn 0.57514 0.50934 -0.01962
 C494 C 0.57223 0.43117 -0.11188
 C495 C 0.55765 0.59364 -0.10719
 N496 N 0.41254 0.53695 -0.01976
 N497 N 0.37806 0.55927 -0.01955
 N498 N 0.44133 0.45965 -0.05859
 N499 N 0.43052 0.43170 -0.08358
 N500 N 0.42153 0.45538 -0.02361
 N501 N 0.39722 0.42402 -0.02362
 N502 N 0.43300 0.54093 -0.05444
 N503 N 0.41308 0.56605 -0.07864
 Mn504 Mn 0.42929 0.49470 0.02054
 Mn505 Mn 0.48107 0.50476 -0.06887
 Cl506 Cl 0.50225 0.50195 0.00041
 C507 C 0.37924 0.57758 -0.05628
 C508 C 0.40318 0.40964 -0.06125
 N509 N 1.04243 0.16242 0.13443
 N510 N 1.06574 0.18673 0.15557
 C511 C 1.10610 0.18646 0.14106
 C512 C 1.10803 0.16129 0.10845
 C513 C 1.06711 0.14650 0.10566
 H514 H 1.13586 0.15216 0.09156
 H515 H 1.01073 0.15542 0.14106
 H516 H 1.05450 0.20093 0.18126
 N517 N 1.11670 0.66511 0.55656
 N518 N 1.13480 0.69053 0.58070
 C519 C 1.12919 0.67865 0.61962
 C520 C 1.10571 0.64438 0.62014
 C521 C 1.09873 0.63681 0.57955
 H522 H 1.09712 0.62626 0.64610
 H523 H 1.11780 0.66662 0.52486
 H524 H 1.15261 0.71438 0.57035
 N525 N 0.54902 0.15639 0.63356
 N526 N 0.57210 0.17783 0.65799
 C527 C 0.61363 0.16848 0.65309
 C528 C 0.61710 0.13961 0.62426
 C529 C 0.57531 0.13282 0.61285
 H530 H 0.64575 0.12557 0.61320
 H531 H 0.51581 0.15808 0.63114
 H532 H 0.55937 0.19895 0.67704
 N533 N 0.64438 0.65435 0.05513
 N534 N 0.66216 0.68039 0.07881
 C535 C 0.65415 0.67054 0.11793
 C536 C 0.62971 0.63687 0.11908
 C537 C 0.62434 0.62765 0.07862
 H538 H 0.61852 0.62071 0.14552
 H539 H 0.64654 0.65471 0.02348
 H540 H 0.68087 0.70354 0.06818
 N541 N 0.96922 -0.15467 0.15020
 N542 N 0.94593 -0.18029 0.17089
 C543 C 0.90590 -0.17962 0.15590
 C544 C 0.90386 -0.15315 0.12385
 C545 C 0.94445 -0.13788 0.12139
 H546 H 0.87592 -0.14405 0.10679
 H547 H 1.00095 -0.14797 0.15667
 H548 H 0.95662 -0.19605 0.19637
 N549 N 0.96517 0.35533 0.65800
 N550 N 0.94255 0.32676 0.67957
 C551 C 0.90360 0.32345 0.66227
 C552 C 0.90154 0.34870 0.62860
 C553 C 0.94011 0.36830 0.62749
 H554 H 0.87478 0.35404 0.60853
 H555 H 0.99543 0.36545 0.66571
 H556 H 0.95348 0.31372 0.70648
 N557 N 0.45093 -0.17510 0.62630
 N558 N 0.42599 -0.19871 0.64772
 C559 C 0.38870 -0.18027 0.65483
 C560 C 0.38997 -0.14333 0.63714
 C561 C 0.42984 -0.14136 0.61924
 H562 H 0.36488 -0.12154 0.63605
 H563 H 0.48138 -0.18247 0.61590
 H564 H 0.43457 -0.22690 0.65718
 N565 N 0.46142 0.35504 0.15615
 N566 N 0.43869 0.32940 0.17725
 C567 C 0.39758 0.33184 0.16518
 C568 C 0.39426 0.36016 0.13469
 C569 C 0.43538 0.37411 0.13005
 H570 H 0.36588 0.37006 0.11883
 H571 H 0.49403 0.35980 0.16020
 H572 H 0.45118 0.31164 0.20046
 N573 N 0.80428 0.07975 -0.07566
 N574 N 0.78264 0.10681 -0.09600
 C575 C 0.80995 0.12672 -0.12011
 C576 C 0.85066 0.11149 -0.11547
 C577 C 0.84550 0.08158 -0.08717
 H578 H 0.87942 0.11988 -0.13160
 H579 H 0.79070 0.05973 -0.05520
 H580 H 0.74969 0.11109 -0.09382
 N581 N 0.80795 0.59675 0.43839
 N582 N 0.78686 0.62429 0.41815
 C583 C 0.81041 0.63567 0.38577
 C584 C 0.84812 0.61426 0.38539
 C585 C 0.84511 0.58988 0.41914
 H586 H 0.87377 0.61568 0.36337
 H587 H 0.79686 0.58286 0.46483
 H588 H 0.75711 0.63519 0.42683
 N589 N 0.32142 0.03968 0.37176
 N590 N 0.29934 0.06316 0.34370
 C591 C 0.31659 0.09929 0.34416
 C592 C 0.35014 0.09906 0.37187
 C593 C 0.35188 0.06171 0.38840
 H594 H 0.37079 0.12291 0.37981
 H595 H 0.31455 0.01050 0.37853
 H596 H 0.27307 0.05368 0.32724
 N597 N 0.30934 0.61238 -0.05210
 N598 N 0.28530 0.63454 -0.07617
 C599 C 0.30581 0.64007 -0.11190
 C600 C 0.34463 0.62055 -0.11029
 C601 C 0.34551 0.60342 -0.07202
 H602 H 0.36862 0.61833 -0.13382
 H603 H 0.30085 0.60340 -0.02272
 H604 H 0.25566 0.64591 -0.06779
 N605 N 1.18783 -0.07057 -0.09612
 N606 N 1.20866 -0.09701 -0.11703
 C607 C 1.18049 -0.11689 -0.13963
 C608 C 1.13982 -0.10190 -0.13301
 C609 C 1.14609 -0.07280 -0.10509
 H610 H 1.10984 -0.11142 -0.14563
 H611 H 1.20215 -0.05136 -0.07607
 H612 H 1.24171 -0.10073 -0.11575
 N613 N 1.07657 0.35162 0.38594
 N614 N 1.09994 0.32387 0.36978
 C615 C 1.14042 0.33661 0.36561
 C616 C 1.14290 0.37431 0.38048
 C617 C 1.10154 0.38253 0.39293
 H618 H 1.17005 0.39370 0.38009
 H619 H 1.04372 0.34971 0.39100
 H620 H 1.08749 0.29754 0.35981
 N621 N 0.66394 -0.04861 0.35710
 N622 N 0.68576 -0.07129 0.33249
 C623 C 0.67010 -0.10780 0.33536
 C624 C 0.63655 -0.10829 0.36295
 C625 C 0.63408 -0.07021 0.37630
 H626 H 0.61843 -0.13322 0.37367
 H627 H 0.67028 -0.01910 0.36138
 H628 H 0.71132 -0.06184 0.31451
 N629 N 0.56927 0.39617 -0.17681
 N630 N 0.59434 0.37419 -0.19914
 C631 C 0.63182 0.36893 -0.17968
 C632 C 0.63049 0.38856 -0.14315
 C633 C 0.59025 0.40556 -0.14277
 H634 H 0.65523 0.39047 -0.12038
 H635 H 0.53834 0.40466 -0.18498
 H636 H 0.58530 0.36243 -0.22684
 N637 N 1.03329 0.14179 -0.16202
 N638 N 1.05661 0.16756 -0.18643
 C639 C 1.09249 0.17705 -0.16615
 C640 C 1.09175 0.15851 -0.12794
 C641 C 1.05504 0.13601 -0.12724
 H642 H 1.11669 0.15780 -0.10526
 H643 H 1.00546 0.12772 -0.17103
 H644 H 1.04728 0.17613 -0.21564
 N645 N 1.04068 0.62951 0.32697
 N646 N 1.06344 0.65369 0.30407
 C647 C 1.10092 0.66041 0.32275
 C648 C 1.10176 0.63971 0.35938
 C649 C 1.06314 0.62032 0.36064
 H650 H 1.12769 0.63731 0.38097
 H651 H 1.01072 0.61881 0.31905
 H652 H 1.05333 0.66498 0.27602
 N653 N 0.53426 0.15731 0.35832
 N654 N 0.55653 0.18105 0.33446
 C655 C 0.59823 0.17142 0.33752
 C656 C 0.60243 0.13977 0.36407
 C657 C 0.56128 0.13196 0.37665
 H658 H 0.63135 0.12510 0.37395
 H659 H 0.50126 0.15909 0.36254
 H660 H 0.54327 0.20413 0.31758
 N661 N 0.54806 0.63193 -0.16871
 N662 N 0.57343 0.65585 -0.19330
 C663 C 0.61192 0.65939 -0.17521
 C664 C 0.61151 0.63796 -0.13868
 C665 C 0.57142 0.62089 -0.13623
 H666 H 0.63754 0.63345 -0.11754
 H667 H 0.51709 0.62321 -0.17579
 H668 H 0.56279 0.66889 -0.22032
 N669 N 0.95990 -0.16656 -0.12235
 N670 N 0.93615 -0.19195 -0.14177
 C671 C 0.89481 -0.18530 -0.13266
 C672 C 0.89218 -0.15499 -0.10566
 C673 C 0.93403 -0.14396 -0.10006
 H674 H 0.86368 -0.14072 -0.09455
 H675 H 0.99295 -0.16396 -0.12553
 H676 H 0.94788 -0.21157 -0.16301
 N677 N 0.93575 0.32445 0.40253
 N678 N 0.91490 0.30019 0.37910
 C679 C 0.87444 0.31319 0.37450
 C680 C 0.86928 0.34685 0.39685
 C681 C 0.90886 0.35285 0.41404
 H682 H 0.84197 0.36624 0.39768
 H683 H 0.96842 0.32270 0.40859
 H684 H 0.92927 0.27681 0.36441
 N685 N 0.44173 -0.17502 0.39675
 N686 N 0.41493 -0.19943 0.37525
 C687 C 0.37748 -0.18048 0.36921
 C688 C 0.37950 -0.14406 0.38734
 C689 C 0.41991 -0.14209 0.40434
 H690 H 0.35475 -0.12200 0.38869
 H691 H 0.47270 -0.18220 0.40604
 H692 H 0.42442 -0.22639 0.36406
 N693 N 0.36461 0.34676 -0.05231
 N694 N 0.34707 0.32024 -0.07556
 C695 C 0.35244 0.33100 -0.11484
 C696 C 0.37492 0.36578 -0.11657
 C697 C 0.38191 0.37468 -0.07628
 H698 H 0.38379 0.38282 -0.14323
 H699 H 0.36427 0.34582 -0.02059
 H700 H 0.33032 0.29603 -0.06448
 N701 N 1.19503 -0.07612 0.07739
 N702 N 1.21677 -0.10179 0.09955
 C703 C 1.19182 -0.11461 0.13045
 C704 C 1.15241 -0.09616 0.12766
 C705 C 1.15593 -0.07205 0.09371
 H706 H 1.12503 -0.09955 0.14746
 H707 H 1.20683 -0.06192 0.05141
 H708 H 1.24784 -0.11073 0.09281
 N709 N 1.18596 0.39170 0.55872
 N710 N 1.20760 0.36584 0.58075
 C711 C 1.18815 0.36113 0.61711
 C712 C 1.15236 0.38527 0.61805
 C713 C 1.15218 0.40398 0.58038
 H714 H 1.12945 0.38855 0.64238
 H715 H 1.19436 0.40070 0.52932
 H716 H 1.23558 0.35226 0.57096
 N717 N 0.69044 -0.04860 0.62083
 N718 N 0.71356 -0.07118 0.64534
 C719 C 0.69107 -0.10357 0.65466
 C720 C 0.65195 -0.10149 0.63513
 C721 C 0.65299 -0.06634 0.61381
 H722 H 0.62708 -0.12329 0.63491
 H723 H 0.70079 -0.02210 0.60826
 H724 H 0.74430 -0.06449 0.65516
 N725 N 0.69314 0.38856 0.05215
 N726 N 0.71575 0.36446 0.07547
 C727 C 0.69466 0.35855 0.11082
 C728 C 0.65695 0.37978 0.10980
 C729 C 0.65722 0.39824 0.07213
 H730 H 0.63248 0.38135 0.13295
 H731 H 0.70250 0.39845 0.02332
 H732 H 0.74544 0.35298 0.06739
 N733 N 0.80969 0.06696 0.10277
 N734 N 0.78780 0.09030 0.12654
 C735 C 0.81533 0.10952 0.15035
 C736 C 0.85666 0.09770 0.14140
 C737 C 0.85145 0.07074 0.11113
 H738 H 0.88625 0.10765 0.15448
 H739 H 0.79611 0.04914 0.08093
 H740 H 0.75470 0.09373 0.12525
 N741 N 0.85821 0.62558 0.56500
 N742 N 0.83713 0.65350 0.58344
 C743 C 0.85111 0.65551 0.62202
 C744 C 0.88346 0.62798 0.62809
 C745 C 0.88637 0.60933 0.59117
 H746 H 0.89937 0.62012 0.65622
 H747 H 0.85215 0.61686 0.53533
 H748 H 0.81277 0.67000 0.56987
 N749 N 0.33990 0.04514 0.65363
 N750 N 0.31984 0.06764 0.67974
 C751 C 0.33258 0.10493 0.67385
 C752 C 0.36257 0.10581 0.64269
 C753 C 0.36598 0.06742 0.63064
 H754 H 0.37834 0.13093 0.62930
 H755 H 0.33533 0.01511 0.65143
 H756 H 0.29770 0.05722 0.70096
 N757 N 0.44680 0.62922 0.15842
 N758 N 0.42437 0.65570 0.17774
 C759 C 0.38321 0.65328 0.16619
 C760 C 0.37929 0.62376 0.13808
 C761 C 0.42053 0.60946 0.13402
 H762 H 0.35074 0.61408 0.12288
 H763 H 0.47958 0.62477 0.16212
 H764 H 0.43720 0.67438 0.19918
   
