data_POSCAR
  _audit_creation_date              2014-09-24
  _audit_creation_method            'ToBaCCo'
  _symmetry_space_group_name_H-M    'P1'
  _symmetry_Int_Tables_number       1
  _symmetry_cell_setting            triclinic
  loop_
  _symmetry_equiv_pos_as_xyz
 x,y,z
_cell_length_a 39.2623
_cell_length_b 30.9449
_cell_length_c 26.9366
_cell_angle_alpha 89.489500
_cell_angle_beta 90.142300
_cell_angle_gamma 89.736900
loop_
  _atom_site_label
  _atom_site_type_symbol
  _atom_site_fract_x
  _atom_site_fract_y
  _atom_site_fract_z
C1 C 1.25050 0.24820 0.24817
 C2 C 0.74464 -0.24839 0.25403
 C3 C 0.74700 0.25409 -0.25434
 C4 C 1.25412 -0.24394 -0.25698
 C5 C 0.25399 0.24526 0.74849
 C6 C 0.74512 0.75015 0.74397
 C7 C 0.74905 0.24905 0.25666
 C8 C 0.25439 0.75228 0.25249
 O9 O 1.04696 0.07141 0.08915
 O10 O 1.08436 0.03230 0.04181
 C11 C 1.07763 0.06053 0.07592
 O12 O 0.94977 -0.08029 0.08628
 O13 O 0.91208 -0.03886 0.04088
 C14 C 0.91907 -0.06851 0.07388
 O15 O 1.04481 -0.08112 0.08753
 O16 O 1.08325 -0.04230 0.04122
 C17 C 1.07567 -0.07124 0.07470
 O18 O 0.95188 0.07585 0.08729
 O19 O 0.91297 0.03753 0.04178
 C20 C 0.92086 0.06604 0.07509
 Zr21 Zr 0.99892 0.05089 0.06237
 O22 O 0.99607 0.04784 0.14085
 O23 O 1.00268 0.11906 0.06444
 Zr24 Zr 0.99756 -0.05753 0.06091
 O25 O 0.99490 -0.05822 0.13943
 O26 O 0.99976 -0.12589 0.05948
 O27 O 1.02908 -0.00422 0.07118
 O28 O 0.96845 -0.00273 0.07079
 O29 O 0.95058 0.07688 -0.08907
 O30 O 0.91250 0.03812 -0.04213
 C31 C 0.91980 0.06689 -0.07586
 O32 O 1.04406 -0.07717 -0.09251
 O33 O 1.08295 -0.04050 -0.04533
 C34 C 1.07506 -0.06794 -0.07975
 O35 O 0.94948 -0.07795 -0.08950
 O36 O 0.91178 -0.03860 -0.04285
 C37 C 0.91877 -0.06722 -0.07660
 O38 O 1.04542 0.07424 -0.09079
 O39 O 1.08351 0.03415 -0.04450
 C40 C 1.07619 0.06335 -0.07795
 Zr41 Zr 0.99810 0.05341 -0.06267
 O42 O 0.99867 0.05952 -0.14098
 O43 O 1.00100 0.12155 -0.05661
 Zr44 Zr 0.99708 -0.05521 -0.06428
 O45 O 0.99409 -0.05307 -0.14277
 O46 O 0.99959 -0.12358 -0.06492
 Zr47 Zr 1.04929 -0.00327 -0.00135
 Zr48 Zr 0.94666 -0.00110 -0.00073
 O49 O 0.96777 -0.00025 -0.07244
 O50 O 1.02818 -0.00138 -0.07352
 O51 O 0.96795 0.06138 0.00017
 O52 O 1.02689 -0.06500 -0.00201
 O53 O 1.02828 0.05944 -0.00032
 O54 O 0.96669 -0.06440 -0.00164
 H55 H 0.95341 -0.00275 0.10027
 H56 H 1.04162 -0.09107 -0.00256
 H57 H 0.95230 0.00002 -0.10152
 H58 H 1.04357 0.08481 -0.00008
 H59 H 0.97976 -0.13606 0.04055
 H60 H 0.98056 -0.13457 -0.04448
 H61 H 1.01270 -0.03423 -0.15478
 H62 H 0.98722 0.03395 -0.15483
 H63 H 0.97901 0.13222 -0.04357
 H64 H 0.98496 0.13100 0.04198
 H65 H 1.01653 0.03225 0.15309
 H66 H 1.01466 -0.04190 0.15208
 O67 O 1.04792 0.58061 0.58868
 O68 O 1.08736 0.54186 0.54432
 C69 C 1.07896 0.57143 0.57604
 O70 O 0.95613 0.42086 0.58344
 O71 O 0.91781 0.46182 0.53871
 C72 C 0.92534 0.43133 0.57035
 O73 O 1.05052 0.42426 0.58856
 O74 O 1.08847 0.46661 0.54563
 C75 C 1.08123 0.43556 0.57659
 O76 O 0.95374 0.58126 0.58317
 O77 O 0.91651 0.53992 0.53832
 C78 C 0.92322 0.57035 0.56992
 Zr79 Zr 1.00139 0.55579 0.56262
 O80 O 1.00013 0.54701 0.64046
 O81 O 1.00049 0.62367 0.57090
 Zr82 Zr 1.00311 0.44830 0.56309
 O83 O 0.99965 0.45431 0.64122
 O84 O 1.00461 0.38039 0.57197
 O85 O 1.03325 0.50267 0.57343
 O86 O 0.97177 0.50144 0.57087
 O87 O 0.95547 0.58110 0.41211
 O88 O 0.91753 0.53955 0.45591
 C89 C 0.92475 0.57006 0.42426
 O90 O 1.05304 0.42641 0.41373
 O91 O 1.08998 0.46691 0.46029
 C92 C 1.08343 0.43694 0.42826
 O93 O 0.95857 0.42229 0.41347
 O94 O 0.91882 0.46149 0.45639
 C95 C 0.92740 0.43148 0.42523
 O96 O 1.04999 0.58139 0.41251
 O97 O 1.08819 0.54151 0.45893
 C98 C 1.08070 0.57136 0.42643
 Zr99 Zr 1.00288 0.55674 0.43697
 O100 O 1.00327 0.55059 0.35891
 O101 O 1.00376 0.62505 0.43255
 Zr102 Zr 1.00487 0.44896 0.43723
 O103 O 1.00310 0.45363 0.35876
 O104 O 1.00858 0.38084 0.43308
 Zr105 Zr 1.05429 0.50346 0.50140
 Zr106 Zr 0.95174 0.50134 0.49837
 O107 O 0.97374 0.50221 0.42724
 O108 O 1.03496 0.50360 0.42835
 O109 O 0.97182 0.56441 0.49888
 O110 O 1.03331 0.44093 0.50103
 O111 O 1.03131 0.56508 0.50056
 O112 O 0.97402 0.43914 0.49923
 H113 H 0.95566 0.50108 0.59915
 H114 H 1.04813 0.41495 0.50127
 H115 H 0.95849 0.50193 0.39786
 H116 H 1.04534 0.59159 0.50054
 H117 H 1.00865 0.36819 0.53875
 H118 H 0.99298 0.36866 0.45832
 H119 H 1.02402 0.46860 0.34769
 H120 H 1.00251 0.58044 0.34533
 H121 H 0.98759 0.63599 0.45765
 H122 H 1.00509 0.63635 0.53784
 H123 H 0.99870 0.57637 0.65467
 H124 H 1.02185 0.46494 0.65351
 O125 O 0.56083 -0.05959 0.58293
 O126 O 0.52965 -0.10712 0.53640
 C127 C 0.55247 -0.09829 0.57014
 O128 O 0.44102 0.06207 0.58931
 O129 O 0.47114 0.11212 0.54384
 C130 C 0.44839 0.10139 0.57671
 O131 O 0.44293 -0.05679 0.59023
 O132 O 0.46879 -0.10539 0.53816
 C133 C 0.44846 -0.09564 0.57471
 O134 O 0.56747 0.05815 0.57735
 O135 O 0.53476 0.11043 0.53906
 C136 C 0.56081 0.09796 0.56586
 Zr137 Zr 0.54377 0.00063 0.55702
 O138 O 0.54347 0.00383 0.63557
 O139 O 0.59746 -0.00567 0.55707
 Zr140 Zr 0.45974 0.00283 0.56273
 O141 O 0.46697 0.00227 0.64052
 O142 O 0.40606 0.00036 0.56936
 O143 O 0.50150 -0.03813 0.56808
 O144 O 0.50265 0.04034 0.57012
 O145 O 0.56485 0.06386 0.41769
 O146 O 0.53207 0.11339 0.45931
 C147 C 0.55781 0.10292 0.43144
 O148 O 0.43647 -0.05084 0.40940
 O149 O 0.46726 -0.10279 0.45141
 C150 C 0.44396 -0.09071 0.41949
 O151 O 0.43133 0.06629 0.42410
 O152 O 0.46672 0.11434 0.46310
 C153 C 0.43973 0.10494 0.43694
 O154 O 0.55650 -0.05395 0.40274
 O155 O 0.52824 -0.10450 0.44981
 C156 C 0.54977 -0.09351 0.41513
 Zr157 Zr 0.53962 0.00520 0.43153
 O158 O 0.53115 0.01473 0.35450
 O159 O 0.59220 0.00107 0.41551
 Zr160 Zr 0.45582 0.00712 0.43724
 O161 O 0.45859 0.01646 0.35933
 O162 O 0.40220 0.00444 0.43109
 Zr163 Zr 0.49899 -0.06201 0.49506
 Zr164 Zr 0.50055 0.06964 0.49944
 O165 O 0.49791 0.04584 0.42665
 O166 O 0.49697 -0.03336 0.42345
 O167 O 0.54909 0.04036 0.49530
 O168 O 0.45071 -0.03237 0.49914
 O169 O 0.54795 -0.03469 0.49273
 O170 O 0.45125 0.04303 0.50193
 H171 H 0.50421 0.05947 0.59936
 H172 H 0.42996 -0.05047 0.49984
 H173 H 0.49730 0.06794 0.39978
 H174 H 0.56826 -0.05376 0.49162
 H175 H 0.39645 0.02229 0.54625
 H176 H 0.39318 0.00406 0.46530
 H177 H 0.46472 -0.01157 0.34429
 H178 H 0.52613 -0.01379 0.33991
 H179 H 0.60394 -0.00495 0.44733
 H180 H 0.60601 0.01150 0.52861
 H181 H 0.53011 -0.02097 0.64820
 H182 H 0.44391 0.00269 0.65538
 O183 O 0.54435 0.57520 0.09174
 O184 O 0.58311 0.53629 0.04666
 C185 C 0.57522 0.56535 0.07920
 O186 O 0.45046 0.41821 0.08568
 O187 O 0.41261 0.46060 0.04194
 C188 C 0.41977 0.42891 0.07210
 O189 O 0.54540 0.42264 0.09265
 O190 O 0.58338 0.46205 0.04611
 C191 C 0.57612 0.43288 0.07932
 O192 O 0.45040 0.58217 0.08123
 O193 O 0.41252 0.53793 0.04158
 C194 C 0.41979 0.57048 0.06952
 Zr195 Zr 0.49745 0.55260 0.06523
 O196 O 0.49269 0.54562 0.14322
 O197 O 0.49976 0.62019 0.07500
 Zr198 Zr 0.49791 0.44482 0.06525
 O199 O 0.49596 0.44951 0.14348
 O200 O 0.49957 0.37642 0.06387
 O201 O 0.52856 0.49869 0.07528
 O202 O 0.46727 0.49874 0.07381
 O203 O 0.45140 0.57887 -0.08469
 O204 O 0.41310 0.53833 -0.04018
 C205 C 0.42070 0.56843 -0.07199
 O206 O 0.54610 0.42439 -0.08599
 O207 O 0.58410 0.46248 -0.03868
 C208 C 0.57676 0.43398 -0.07214
 O209 O 0.45187 0.41947 -0.08240
 O210 O 0.41331 0.46028 -0.03905
 C211 C 0.42108 0.42971 -0.06968
 O212 O 0.54594 0.57665 -0.08617
 O213 O 0.58369 0.53672 -0.03923
 C214 C 0.57660 0.56609 -0.07245
 Zr215 Zr 0.49854 0.55371 -0.06065
 O216 O 0.49811 0.54794 -0.13874
 O217 O 0.50060 0.62198 -0.06479
 Zr218 Zr 0.49865 0.44590 -0.06015
 O219 O 0.49562 0.44908 -0.13862
 O220 O 0.50155 0.37769 -0.06256
 Zr221 Zr 0.54923 0.49944 0.00315
 Zr222 Zr 0.44698 0.49945 0.00158
 O223 O 0.46841 0.49987 -0.06990
 O224 O 0.52951 0.49983 -0.06963
 O225 O 0.46802 0.56202 0.00159
 O226 O 0.52781 0.43731 0.00300
 O227 O 0.52727 0.56155 0.00284
 O228 O 0.46818 0.43691 0.00207
 H229 H 0.45105 0.49875 0.10195
 H230 H 0.54263 0.41131 0.00319
 H231 H 0.45293 0.49969 -0.09902
 H232 H 0.54189 0.58755 0.00290
 H233 H 0.49965 0.36604 0.09876
 H234 H 0.49121 0.36676 -0.03146
 H235 H 0.51510 0.46651 -0.15050
 H236 H 0.49782 0.57786 -0.15215
 H237 H 0.48456 0.63328 -0.03973
 H238 H 0.50004 0.63326 0.04141
 H239 H 0.51428 0.53303 0.15593
 H240 H 0.49507 0.41961 0.15675
 C241 C 1.18544 0.15807 0.16791
 C242 C 1.21429 0.14140 0.19258
 C243 C 1.23623 0.16957 0.21777
 C244 C 1.22926 0.21438 0.21907
 C245 C 1.20154 0.22945 0.19015
 N246 N 1.18036 0.20151 0.16709
 C247 C 1.15899 0.13045 0.14501
 N248 N 1.12639 0.14553 0.14413
 C249 C 1.10034 0.12336 0.12325
 C250 C 1.10629 0.08349 0.10026
 C251 C 1.13981 0.06725 0.10017
 C252 C 1.16620 0.09042 0.12296
 H253 H 1.25840 0.15597 0.23596
 H254 H 1.19582 0.26367 0.18793
 H255 H 1.07508 0.13749 0.12382
 H256 H 1.14558 0.03676 0.08261
 H257 H 1.21933 0.10700 0.19374
 H258 H 1.19191 0.07771 0.12216
 C259 C 1.18204 0.67966 0.65821
 C260 C 1.18472 0.72419 0.64922
 C261 C 1.20848 0.74817 0.67579
 C262 C 1.23005 0.72804 0.71104
 C263 C 1.22576 0.68312 0.71905
 N264 N 1.20257 0.66061 0.69255
 C265 C 1.15594 0.65320 0.63403
 N266 N 1.16303 0.61121 0.62298
 C267 C 1.13914 0.58433 0.60378
 C268 C 1.10573 0.59919 0.59652
 C269 C 1.09797 0.64228 0.60791
 C270 C 1.12300 0.66943 0.62631
 H271 H 1.20998 0.78268 0.66921
 H272 H 1.23955 0.66558 0.74748
 H273 H 1.14604 0.55131 0.59527
 H274 H 1.07253 0.65514 0.60227
 H275 H 1.16857 0.74034 0.62215
 H276 H 1.11636 0.70230 0.63590
 C277 C 0.66510 0.19835 0.65743
 C278 C 0.66916 0.24313 0.65890
 C279 C 0.69618 0.26030 0.68601
 C280 C 0.71945 0.23325 0.71212
 C281 C 0.71372 0.18841 0.70995
 N282 N 0.68749 0.17259 0.68272
 C283 C 0.63784 0.17748 0.62847
 N284 N 0.64448 0.13759 0.61042
 C285 C 0.62052 0.11372 0.58745
 C286 C 0.58684 0.12889 0.58297
 C287 C 0.57940 0.17083 0.59913
 C288 C 0.60501 0.19541 0.62200
 H289 H 0.69895 0.29508 0.68698
 H290 H 0.72923 0.16559 0.73045
 H291 H 0.62765 0.08199 0.57432
 H292 H 0.55374 0.18358 0.59630
 H293 H 0.65208 0.26461 0.63884
 H294 H 0.59876 0.22695 0.63653
 C295 C 0.67856 0.67132 0.16465
 C296 C 0.67720 0.71636 0.15993
 C297 C 0.69927 0.74146 0.18760
 C298 C 0.72374 0.72222 0.21926
 C299 C 0.72458 0.67650 0.22171
 N300 N 0.70230 0.65272 0.19479
 C301 C 0.65234 0.64431 0.14166
 N302 N 0.66046 0.60470 0.12323
 C303 C 0.63648 0.57849 0.10287
 C304 C 0.60224 0.59165 0.10161
 C305 C 0.59359 0.63207 0.12123
 C306 C 0.61844 0.65837 0.14110
 H307 H 0.69695 0.77629 0.18498
 H308 H 0.74147 0.65925 0.24662
 H309 H 0.64408 0.54746 0.08821
 H310 H 0.56755 0.64378 0.12086
 H311 H 0.65865 0.73211 0.13600
 H312 H 0.61102 0.68909 0.15680
 C313 C 0.81175 -0.15980 0.17431
 C314 C 0.79188 -0.18861 0.14720
 C315 C 0.76991 -0.21660 0.17197
 C316 C 0.76613 -0.21502 0.22415
 C317 C 0.78665 -0.18506 0.24963
 N318 N 0.80884 -0.15912 0.22463
 C319 C 0.83795 -0.13339 0.14924
 N320 N 0.86960 -0.13081 0.16965
 C321 C 0.89561 -0.10998 0.14647
 C322 C 0.89046 -0.08989 0.10000
 C323 C 0.85769 -0.09085 0.07918
 C324 C 0.83149 -0.11298 0.10339
 H325 H 0.75724 -0.24045 0.14966
 H326 H 0.78567 -0.18334 0.28972
 H327 H 0.92032 -0.10930 0.16432
 H328 H 0.85249 -0.07527 0.04385
 H329 H 0.79466 -0.19115 0.10733
 H330 H 0.80647 -0.11420 0.08647
 C331 C 0.82038 0.33138 0.66344
 C332 C 0.79560 0.30881 0.63692
 C333 C 0.77218 0.28332 0.66248
 C334 C 0.77248 0.28122 0.71489
 C335 C 0.79891 0.30319 0.73952
 N336 N 0.82168 0.32731 0.71368
 C337 C 0.84631 0.35776 0.63821
 N338 N 0.87779 0.36041 0.65902
 C339 C 0.90317 0.38377 0.63800
 C340 C 0.89742 0.40680 0.59361
 C341 C 0.86490 0.40541 0.57205
 C342 C 0.83931 0.38067 0.59407
 H343 H 0.75440 0.26505 0.64051
 H344 H 0.80109 0.30156 0.77956
 H345 H 0.92776 0.38444 0.65623
 H346 H 0.85939 0.42299 0.53804
 H347 H 0.79488 0.30977 0.59675
 H348 H 0.81427 0.38004 0.57718
 C349 C 0.33903 -0.18787 0.66243
 C350 C 0.31523 -0.21262 0.63628
 C351 C 0.28631 -0.22810 0.66055
 C352 C 0.28018 -0.21857 0.71100
 C353 C 0.30420 -0.19208 0.73487
 N354 N 0.33236 -0.17796 0.71058
 C355 C 0.37099 -0.17114 0.63994
 N356 N 0.38986 -0.14319 0.66718
 C357 C 0.41763 -0.12280 0.64868
 C358 C 0.42749 -0.12898 0.59920
 C359 C 0.41025 -0.16004 0.57144
 C360 C 0.38200 -0.18134 0.59160
 H361 H 0.27011 -0.24963 0.63994
 H362 H 0.30148 -0.18468 0.77386
 H363 H 0.43046 -0.09927 0.67153
 H364 H 0.41698 -0.16544 0.53317
 H365 H 0.31886 -0.22107 0.59786
 H366 H 0.36860 -0.20406 0.56859
 C367 C 0.31090 0.32285 0.14517
 C368 C 0.31312 0.27769 0.14551
 C369 C 0.29141 0.25400 0.17574
 C370 C 0.26754 0.27500 0.20634
 C371 C 0.26233 0.31962 0.19782
 N372 N 0.28462 0.34236 0.16919
 C373 C 0.33868 0.34925 0.12424
 N374 N 0.33209 0.38927 0.10493
 C375 C 0.35740 0.41545 0.08789
 C376 C 0.39161 0.40199 0.09105
 C377 C 0.39876 0.36116 0.11151
 C378 C 0.37253 0.33482 0.12798
 H379 H 0.29519 0.21937 0.17854
 H380 H 0.24184 0.33703 0.21535
 H381 H 0.35084 0.44680 0.07241
 H382 H 0.42469 0.34932 0.11462
 H383 H 0.33266 0.26091 0.12483
 H384 H 0.37890 0.30393 0.14481
 C385 C 0.81443 0.16358 -0.17601
 C386 C 0.79426 0.19188 -0.14852
 C387 C 0.77251 0.22064 -0.17295
 C388 C 0.76919 0.22048 -0.22528
 C389 C 0.79058 0.19165 -0.25123
 N390 N 0.81240 0.16468 -0.22645
 C391 C 0.83997 0.13566 -0.15101
 N392 N 0.87127 0.13089 -0.17184
 C393 C 0.89680 0.10859 -0.14882
 C394 C 0.89152 0.08933 -0.10200
 C395 C 0.85907 0.09251 -0.08069
 C396 C 0.83332 0.11591 -0.10489
 H397 H 0.75952 0.24383 -0.15002
 H398 H 0.79027 0.19126 -0.29141
 H399 H 0.92127 0.10621 -0.16702
 H400 H 0.85383 0.07780 -0.04494
 H401 H 0.79651 0.19333 -0.10849
 H402 H 0.80853 0.11866 -0.08765
 C403 C 0.81962 0.67372 0.33403
 C404 C 0.79538 0.69661 0.36148
 C405 C 0.77169 0.72290 0.33679
 C406 C 0.77105 0.72510 0.28442
 C407 C 0.79709 0.70293 0.25892
 N408 N 0.82018 0.67824 0.28387
 C409 C 0.84557 0.64615 0.35813
 N410 N 0.87737 0.64485 0.33834
 C411 C 0.90270 0.62031 0.35840
 C412 C 0.89657 0.59452 0.40058
 C413 C 0.86359 0.59419 0.42053
 C414 C 0.83810 0.62036 0.39978
 H415 H 0.75430 0.74144 0.35922
 H416 H 0.79854 0.70456 0.21883
 H417 H 0.92762 0.62113 0.34133
 H418 H 0.85763 0.57417 0.45239
 H419 H 0.79528 0.69506 0.40166
 H420 H 0.81278 0.61993 0.41559
 C421 C 0.32964 0.19718 0.34804
 C422 C 0.29646 0.18010 0.34989
 C423 C 0.27109 0.19669 0.31826
 C424 C 0.27860 0.22911 0.28301
 C425 C 0.31177 0.24704 0.28525
 N426 N 0.33592 0.23035 0.31614
 C427 C 0.35856 0.17902 0.37754
 N428 N 0.39112 0.18530 0.36120
 C429 C 0.41870 0.16607 0.38323
 C430 C 0.41416 0.13803 0.42369
 C431 C 0.38113 0.13277 0.44252
 C432 C 0.35342 0.15357 0.42020
 H433 H 0.24562 0.18358 0.32067
 H434 H 0.31886 0.27465 0.26285
 H435 H 0.44366 0.17008 0.36688
 H436 H 0.37655 0.11041 0.47296
 H437 H 0.29006 0.15356 0.37443
 H438 H 0.32831 0.14842 0.43544
 C439 C 0.32000 0.67323 -0.16759
 C440 C 0.29911 0.70295 -0.14311
 C441 C 0.27801 0.73037 -0.17092
 C442 C 0.27678 0.72726 -0.22318
 C443 C 0.29934 0.69778 -0.24571
 N444 N 0.31984 0.67204 -0.21790
 C445 C 0.34434 0.64526 -0.14120
 N446 N 0.37347 0.63435 -0.16524
 C447 C 0.39769 0.60906 -0.14401
 C448 C 0.39308 0.59279 -0.09588
 C449 C 0.36285 0.60243 -0.07063
 C450 C 0.33837 0.62903 -0.09316
 H451 H 0.26340 0.75423 -0.15106
 H452 H 0.30025 0.69482 -0.28568
 H453 H 0.42060 0.60189 -0.16474
 H454 H 0.35864 0.59042 -0.03326
 H455 H 0.29990 0.70608 -0.10314
 H456 H 0.31509 0.63644 -0.07349
 C457 C 1.18079 -0.16538 -0.17620
 C458 C 1.18122 -0.21036 -0.17070
 C459 C 1.20535 -0.23464 -0.19591
 C460 C 1.22986 -0.21472 -0.22659
 C461 C 1.22842 -0.16915 -0.23090
 N462 N 1.20444 -0.14606 -0.20575
 C463 C 1.15361 -0.13954 -0.15261
 N464 N 1.16091 -0.10153 -0.12974
 C465 C 1.13649 -0.07785 -0.10614
 C466 C 1.10250 -0.09201 -0.10540
 C467 C 1.09464 -0.13064 -0.12974
 C468 C 1.11998 -0.15441 -0.15307
 H469 H 1.20481 -0.26947 -0.19175
 H470 H 1.24541 -0.15171 -0.25521
 H471 H 1.14358 -0.04807 -0.08817
 H472 H 1.06887 -0.14298 -0.13024
 H473 H 1.16286 -0.22672 -0.14732
 H474 H 1.11326 -0.18410 -0.17161
 C475 C 1.18389 0.32472 0.34352
 C476 C 1.17275 0.28491 0.32531
 C477 C 1.19435 0.25987 0.29660
 C478 C 1.22695 0.27480 0.28294
 C479 C 1.23815 0.31310 0.30597
 N480 N 1.21641 0.33735 0.33388
 C481 C 1.16022 0.35357 0.37088
 N482 N 1.16426 0.39738 0.36869
 C483 C 1.14105 0.42526 0.38866
 C484 C 1.11136 0.40914 0.41078
 C485 C 1.10754 0.36437 0.41534
 C486 C 1.13204 0.33660 0.39634
 H487 H 1.18490 0.22883 0.28490
 H488 H 1.26386 0.32451 0.30025
 H489 H 1.14500 0.45975 0.38528
 H490 H 1.08537 0.35084 0.43352
 H491 H 1.14719 0.27330 0.33166
 H492 H 1.12847 0.30219 0.40113
 C493 C 0.65780 -0.19287 0.33169
 C494 C 0.66628 -0.23644 0.33902
 C495 C 0.69535 -0.25327 0.31624
 C496 C 0.71693 -0.22692 0.28690
 C497 C 0.70752 -0.18306 0.28173
 N498 N 0.67871 -0.16778 0.30345
 C499 C 0.62598 -0.17328 0.35112
 N500 N 0.61352 -0.13769 0.32729
 C501 C 0.58654 -0.11487 0.34446
 C502 C 0.57093 -0.12633 0.38959
 C503 C 0.58176 -0.16452 0.41338
 C504 C 0.60937 -0.18815 0.39430
 H505 H 0.70040 -0.28758 0.31989
 H506 H 0.72165 -0.16116 0.25826
 H507 H 0.57875 -0.08601 0.32436
 H508 H 0.57040 -0.17449 0.44812
 H509 H 0.64993 -0.25786 0.36000
 H510 H 0.61865 -0.21611 0.41467
 C511 C 0.68108 0.33117 -0.16090
 C512 C 0.67984 0.28603 -0.15872
 C513 C 0.70172 0.26202 -0.18794
 C514 C 0.72608 0.28239 -0.21842
 C515 C 0.72696 0.32809 -0.21817
 N516 N 0.70469 0.35087 -0.18995
 C517 C 0.65472 0.35723 -0.13665
 N518 N 0.66247 0.39628 -0.11660
 C519 C 0.63825 0.42167 -0.09522
 C520 C 0.60416 0.40824 -0.09459
 C521 C 0.59594 0.36834 -0.11566
 C522 C 0.62099 0.34291 -0.13660
 H523 H 0.69945 0.22714 -0.18738
 H524 H 0.74384 0.34618 -0.24196
 H525 H 0.64551 0.45234 -0.07944
 H526 H 0.57003 0.35646 -0.11584
 H527 H 0.66147 0.26938 -0.13562
 H528 H 0.61381 0.31270 -0.15361
 C529 C 1.18148 0.16158 -0.17473
 C530 C 1.20429 0.14325 -0.20844
 C531 C 1.22731 0.16964 -0.23373
 C532 C 1.22910 0.21442 -0.22404
 C533 C 1.20461 0.23139 -0.19117
 N534 N 1.18191 0.20508 -0.16784
 C535 C 1.15549 0.13515 -0.14902
 N536 N 1.12411 0.15252 -0.14128
 C537 C 1.09869 0.13001 -0.11894
 C538 C 1.10423 0.08744 -0.10204
 C539 C 1.13665 0.06913 -0.10848
 C540 C 1.16226 0.09273 -0.13243
 H541 H 1.24308 0.15454 -0.26146
 H542 H 1.20364 0.26572 -0.18401
 H543 H 1.07421 0.14560 -0.11399
 H544 H 1.14198 0.03652 -0.09570
 H545 H 1.20352 0.10907 -0.21661
 H546 H 1.18716 0.07821 -0.13730
 C547 C 1.18399 0.67426 0.33515
 C548 C 1.19912 0.65746 0.29277
 C549 C 1.22121 0.68291 0.26530
 C550 C 1.23075 0.72475 0.28141
 C551 C 1.21272 0.74113 0.32273
 N552 N 1.19032 0.71584 0.34822
 C553 C 1.15917 0.64814 0.36279
 N554 N 1.12811 0.66529 0.37316
 C555 C 1.10294 0.64125 0.39388
 C556 C 1.10848 0.59741 0.40542
 C557 C 1.14070 0.57950 0.39676
 C558 C 1.16604 0.60471 0.37486
 H559 H 1.23056 0.66936 0.23104
 H560 H 1.21667 0.77400 0.33482
 H561 H 1.07855 0.65636 0.40113
 H562 H 1.14592 0.54590 0.40559
 H563 H 1.19292 0.62535 0.27993
 H564 H 1.19064 0.59041 0.36693
 C565 C 0.66732 0.19686 0.34852
 C566 C 0.68945 0.16828 0.32465
 C567 C 0.71605 0.18429 0.29591
 C568 C 0.72190 0.22917 0.29200
 C569 C 0.69871 0.25659 0.31709
 N570 N 0.67231 0.24010 0.34385
 C571 C 0.63856 0.17968 0.37763
 N572 N 0.60579 0.19019 0.36524
 C573 C 0.57859 0.16915 0.38558
 C574 C 0.58407 0.13494 0.41917
 C575 C 0.61748 0.12564 0.43439
 C576 C 0.64473 0.14786 0.41376
 H577 H 0.73104 0.16094 0.27594
 H578 H 0.70132 0.29133 0.31441
 H579 H 0.55310 0.17694 0.37289
 H580 H 0.62258 0.09929 0.46020
 H581 H 0.68547 0.13370 0.32697
 H582 H 0.67051 0.13883 0.42404
 C583 C 0.68247 0.66588 -0.16400
 C584 C 0.70642 0.64716 -0.19565
 C585 C 0.72741 0.67358 -0.22431
 C586 C 0.72577 0.71913 -0.22049
 C587 C 0.70143 0.73616 -0.18741
 N588 N 0.68058 0.70966 -0.16103
 C589 C 0.65668 0.63945 -0.13831
 N590 N 0.62466 0.65578 -0.13376
 C591 C 0.59895 0.63278 -0.11303
 C592 C 0.60482 0.59072 -0.09489
 C593 C 0.63785 0.57353 -0.09793
 C594 C 0.66384 0.59769 -0.12004
 H595 H 0.74355 0.65768 -0.25094
 H596 H 0.69825 0.77075 -0.18393
 H597 H 0.57398 0.64756 -0.11051
 H598 H 0.64342 0.54133 -0.08396
 H599 H 0.70758 0.61250 -0.20054
 H600 H 0.68919 0.58401 -0.12249
 C601 C 0.81337 -0.16018 -0.18045
 C602 C 0.80812 -0.15704 -0.23190
 C603 C 0.78527 -0.18486 -0.25513
 C604 C 0.76696 -0.21604 -0.22770
 C605 C 0.77286 -0.21748 -0.17581
 N606 N 0.79535 -0.18997 -0.15408
 C607 C 0.83973 -0.13386 -0.15504
 N608 N 0.83485 -0.12030 -0.10748
 C609 C 0.85897 -0.09764 -0.08204
 C610 C 0.89064 -0.08866 -0.10393
 C611 C 0.89604 -0.10243 -0.15284
 C612 C 0.87075 -0.12461 -0.17848
 H613 H 0.78226 -0.18270 -0.29505
 H614 H 0.76093 -0.24145 -0.15240
 H615 H 0.85381 -0.08783 -0.04439
 H616 H 0.92002 -0.09623 -0.17131
 H617 H 0.82177 -0.13357 -0.25415
 H618 H 0.87596 -0.13566 -0.21573
 C619 C 0.82592 0.32662 0.33087
 C620 C 0.82755 0.31943 0.27972
 C621 C 0.80314 0.29395 0.25716
 C622 C 0.77619 0.27576 0.28475
 C623 C 0.77612 0.28303 0.33650
 N624 N 0.80039 0.30829 0.35772
 C625 C 0.85200 0.35316 0.35559
 N626 N 0.84331 0.37985 0.39357
 C627 C 0.86658 0.40577 0.41619
 C628 C 0.90078 0.40527 0.40090
 C629 C 0.91001 0.37751 0.36217
 C630 C 0.88589 0.35154 0.33968
 H631 H 0.80461 0.28941 0.21740
 H632 H 0.75718 0.26883 0.36044
 H633 H 0.85841 0.42645 0.44609
 H634 H 0.93603 0.37561 0.34909
 H635 H 0.84716 0.33402 0.25701
 H636 H 0.89387 0.32998 0.31045
 C637 C 0.33726 -0.18939 0.33094
 C638 C 0.31811 -0.22147 0.35492
 C639 C 0.28955 -0.23879 0.33122
 C640 C 0.27885 -0.22374 0.28367
 C641 C 0.29909 -0.19096 0.26180
 N642 N 0.32681 -0.17509 0.28551
 C643 C 0.36812 -0.16928 0.35290
 N644 N 0.38026 -0.13309 0.33030
 C645 C 0.40668 -0.11019 0.34870
 C646 C 0.42246 -0.12266 0.39348
 C647 C 0.41231 -0.16162 0.41575
 C648 C 0.38501 -0.18504 0.39574
 H649 H 0.27710 -0.26558 0.34956
 H650 H 0.29373 -0.17925 0.22462
 H651 H 0.41414 -0.08083 0.32954
 H652 H 0.42431 -0.17281 0.44965
 H653 H 0.32510 -0.23381 0.39120
 H654 H 0.37712 -0.21441 0.41429
 C655 C 0.32014 0.32362 -0.15963
 C656 C 0.29874 0.29392 -0.13561
 C657 C 0.27729 0.26778 -0.16402
 C658 C 0.27642 0.27227 -0.21622
 C659 C 0.29906 0.30217 -0.23804
 N660 N 0.31980 0.32641 -0.20981
 C661 C 0.34503 0.35037 -0.13351
 N662 N 0.37398 0.36082 -0.15834
 C663 C 0.39815 0.38655 -0.13872
 C664 C 0.39362 0.40416 -0.09156
 C665 C 0.36371 0.39463 -0.06527
 C666 C 0.33933 0.36731 -0.08606
 H667 H 0.26215 0.24386 -0.14488
 H668 H 0.29994 0.30663 -0.27789
 H669 H 0.42082 0.39331 -0.16018
 H670 H 0.35960 0.40752 -0.02851
 H671 H 0.29940 0.28991 -0.09566
 H672 H 0.31620 0.36024 -0.06583
 C673 C 1.18186 -0.17005 0.17109
 C674 C 1.18763 -0.21307 0.15808
 C675 C 1.21178 -0.23750 0.18389
 C676 C 1.23137 -0.21952 0.22278
 C677 C 1.22379 -0.17599 0.23514
 N678 N 1.20004 -0.15278 0.20904
 C679 C 1.15464 -0.14458 0.14625
 N680 N 1.16019 -0.10289 0.13162
 C681 C 1.13574 -0.07881 0.10795
 C682 C 1.10338 -0.09635 0.09895
 C683 C 1.09722 -0.13901 0.11441
 C684 C 1.12274 -0.16321 0.13761
 H685 H 1.21501 -0.27098 0.17353
 H686 H 1.23584 -0.16056 0.26638
 H687 H 1.14136 -0.04589 0.09695
 H688 H 1.07267 -0.15387 0.10815
 H689 H 1.17334 -0.22788 0.12834
 H690 H 1.11740 -0.19604 0.14938
 C691 C 1.18613 0.32932 0.66264
 C692 C 1.20442 0.34639 0.70222
 C693 C 1.22588 0.31974 0.72980
 C694 C 1.23109 0.27595 0.71686
 C695 C 1.21131 0.26002 0.67731
 N696 N 1.18950 0.28659 0.65181
 C697 C 1.16080 0.35648 0.63646
 N698 N 1.12919 0.34042 0.62807
 C699 C 1.10365 0.36527 0.60900
 C700 C 1.10927 0.40901 0.59716
 C701 C 1.14198 0.42585 0.60387
 C702 C 1.16776 0.39977 0.62400
 H703 H 1.23745 0.33391 0.76218
 H704 H 1.21296 0.22630 0.66725
 H705 H 1.07894 0.35078 0.60309
 H706 H 1.14738 0.45925 0.59459
 H707 H 1.20089 0.37965 0.71337
 H708 H 1.19279 0.41329 0.63014
 C709 C 0.65723 -0.19496 0.66575
 C710 C 0.67695 -0.16846 0.69631
 C711 C 0.70608 -0.18497 0.71948
 C712 C 0.71624 -0.22828 0.71256
 C713 C 0.69504 -0.25385 0.68199
 N714 N 0.66691 -0.23677 0.65926
 C715 C 0.62566 -0.17757 0.64253
 N716 N 0.60781 -0.14669 0.66704
 C717 C 0.58119 -0.12518 0.64612
 C718 C 0.57190 -0.13265 0.59654
 C719 C 0.58829 -0.16638 0.57141
 C720 C 0.61510 -0.18930 0.59456
 H721 H 0.71951 -0.16385 0.74444
 H722 H 0.70061 -0.28782 0.67710
 H723 H 0.56903 -0.09968 0.66699
 H724 H 0.58223 -0.17274 0.53304
 H725 H 0.66971 -0.13515 0.70266
 H726 H 0.62888 -0.21369 0.57406
 C727 C 0.68342 0.33083 0.16527
 C728 C 0.71007 0.34993 0.19139
 C729 C 0.73202 0.32417 0.21942
 C730 C 0.72852 0.27867 0.22060
 C731 C 0.70156 0.26108 0.19264
 N732 N 0.67984 0.28716 0.16675
 C733 C 0.65697 0.35748 0.14112
 N734 N 0.62421 0.34358 0.14259
 C735 C 0.59810 0.36747 0.12378
 C736 C 0.60436 0.40788 0.10158
 C737 C 0.63805 0.42252 0.09880
 C738 C 0.66443 0.39748 0.11875
 H739 H 0.75040 0.34096 0.24185
 H740 H 0.69704 0.22660 0.19313
 H741 H 0.57256 0.35458 0.12577
 H742 H 0.64396 0.45328 0.08143
 H743 H 0.71273 0.38470 0.19279
 H744 H 0.69034 0.40912 0.11634
 C745 C 0.81613 0.15806 0.18112
 C746 C 0.81441 0.15849 0.23307
 C747 C 0.79170 0.18634 0.25649
 C748 C 0.76987 0.21382 0.22883
 C749 C 0.77191 0.21114 0.17646
 N750 N 0.79456 0.18388 0.15452
 C751 C 0.84265 0.13264 0.15506
 N752 N 0.83610 0.11541 0.10959
 C753 C 0.86020 0.09317 0.08359
 C754 C 0.89335 0.08837 0.10269
 C755 C 0.90048 0.10615 0.14933
 C756 C 0.87534 0.12801 0.17555
 H757 H 0.79168 0.18736 0.29668
 H758 H 0.75696 0.23191 0.15248
 H759 H 0.85366 0.08008 0.04773
 H760 H 0.92562 0.10322 0.16570
 H761 H 0.83086 0.13804 0.25554
 H762 H 0.88182 0.14221 0.21090
 C763 C 0.81893 0.67433 0.66037
 C764 C 0.79409 0.69777 0.63396
 C765 C 0.77090 0.72368 0.65969
 C766 C 0.77133 0.72495 0.71211
 C767 C 0.79816 0.70271 0.73639
 N768 N 0.82063 0.67833 0.71049
 C769 C 0.84449 0.64686 0.63550
 N770 N 0.87590 0.64309 0.65644
 C771 C 0.90090 0.61841 0.63645
 C772 C 0.89493 0.59491 0.59288
 C773 C 0.86235 0.59712 0.57145
 C774 C 0.83713 0.62343 0.59233
 H775 H 0.75305 0.74263 0.63801
 H776 H 0.80057 0.70375 0.77640
 H777 H 0.92546 0.61725 0.65475
 H778 H 0.85654 0.57904 0.53839
 H779 H 0.79308 0.69694 0.59381
 H780 H 0.81211 0.62483 0.57542
 C781 C 0.34108 0.18844 0.67392
 C782 C 0.33182 0.17459 0.72172
 C783 C 0.30256 0.19099 0.74359
 C784 C 0.28101 0.22021 0.71800
 C785 C 0.29039 0.23151 0.66895
 N786 N 0.31972 0.21576 0.64876
 C787 C 0.37308 0.17322 0.65006
 N788 N 0.37625 0.17580 0.59971
 C789 C 0.40320 0.15806 0.57526
 C790 C 0.42811 0.13472 0.60162
 C791 C 0.42670 0.13431 0.65346
 C792 C 0.39972 0.15423 0.67787
 H793 H 0.29730 0.18207 0.78177
 H794 H 0.27588 0.25488 0.64762
 H795 H 0.40366 0.15908 0.53519
 H796 H 0.44547 0.11637 0.67494
 H797 H 0.34693 0.15164 0.74281
 H798 H 0.39947 0.15312 0.71795
 C799 C 0.32042 0.67423 0.16415
 C800 C 0.31469 0.66321 0.21366
 C801 C 0.29428 0.68962 0.24236
 C802 C 0.27713 0.72582 0.22128
 C803 C 0.28613 0.73722 0.17192
 N804 N 0.30709 0.71139 0.14505
 C805 C 0.34307 0.64757 0.13429
 N806 N 0.37104 0.66591 0.11353
 C807 C 0.39527 0.64177 0.09093
 C808 C 0.39186 0.59675 0.08867
 C809 C 0.36245 0.57743 0.10761
 C810 C 0.33807 0.60283 0.13112
 H811 H 0.29081 0.68080 0.28100
 H812 H 0.27686 0.76666 0.15462
 H813 H 0.41753 0.65760 0.07576
 H814 H 0.35917 0.54272 0.10629
 H815 H 0.32655 0.63486 0.23024
 H816 H 0.31595 0.58774 0.14769
   
