data_POSCAR
  _audit_creation_date              2014-09-24
  _audit_creation_method            'ToBaCCo'
  _symmetry_space_group_name_H-M    'P1'
  _symmetry_Int_Tables_number       1
  _symmetry_cell_setting            triclinic
  loop_
  _symmetry_equiv_pos_as_xyz
 x,y,z
_cell_length_a 22.5810
_cell_length_b 22.5830
_cell_length_c 23.4040
_cell_angle_alpha 90.457200
_cell_angle_beta 91.172500
_cell_angle_gamma 88.560900
loop_
  _atom_site_label
  _atom_site_type_symbol
  _atom_site_fract_x
  _atom_site_fract_y
  _atom_site_fract_z
N1 N 0.21613 1.18348 0.22669
 N2 N 0.78593 0.78626 0.20441
 N3 N 0.78416 1.23297 -0.22746
 N4 N 0.18991 0.79301 -0.18600
 C5 C 0.59701 1.09163 -0.04486
 H6 H 0.60365 1.09505 0.00095
 C7 C 0.63462 1.12094 -0.08149
 H8 H 0.66986 1.14687 -0.06301
 C9 C 0.54415 1.05172 -0.12392
 H10 H 0.51000 1.02344 -0.14064
 C11 C 0.58036 1.08031 -0.16193
 H12 H 0.57174 1.07428 -0.20712
 N13 N 0.55267 1.05798 -0.06655
 C14 C 0.46680 1.12348 0.03793
 H15 H 0.49604 1.14619 0.00994
 C16 C 0.42996 1.15613 0.07470
 H17 H 0.43147 1.20397 0.07471
 C18 C 0.42675 1.03374 0.06955
 H19 H 0.42522 0.98596 0.06660
 C20 C 0.38936 1.06439 0.10661
 H21 H 0.35998 1.03948 0.13270
 Zn22 Zn 0.50515 1.01447 -0.01662
 N23 N 0.46423 1.06337 0.03600
 C24 C 0.56322 0.96439 0.08075
 N25 N 0.55472 0.95919 0.02320
 C26 C 0.58273 0.91566 -0.00717
 C27 C 0.61930 0.87373 0.02064
 C28 C 0.60016 0.92396 0.11014
 C29 C 0.40611 1.01250 -0.08786
 C30 C 0.35795 0.98948 -0.11794
 C31 C 0.38953 0.89155 -0.08752
 C32 C 0.43755 0.91652 -0.05831
 N33 N 0.44496 0.97607 -0.05917
 H34 H 0.54182 1.00021 0.10396
 H35 H 0.57628 0.91334 -0.05306
 H36 H 0.64120 0.83947 -0.00436
 H37 H 0.60619 0.92860 0.15596
 H38 H 0.41256 1.05982 -0.08704
 H39 H 0.32847 1.01986 -0.14072
 H40 H 0.38405 0.84421 -0.08524
 H41 H 0.46780 0.88841 -0.03383
 C42 C 0.38998 1.12646 0.10908
 C43 C 0.62682 1.11523 -0.14111
 C44 C 0.34855 0.92823 -0.11756
 C45 C 0.62826 0.87760 0.08008
 C46 C -0.04046 0.54374 1.10936
 H47 H -0.02923 0.50387 1.13280
 C48 C -0.06657 0.59238 1.13764
 H49 H -0.07583 0.58959 1.18275
 C50 C -0.04106 0.59726 1.02257
 H51 H -0.03093 0.59886 0.97766
 C52 C -0.06543 0.64710 1.04937
 H53 H -0.07456 0.68677 1.02469
 N54 N -0.02837 0.54717 1.05273
 C55 C 0.10371 0.41449 1.05964
 H56 H 0.13347 0.44004 1.03474
 C57 C 0.12639 0.36719 1.09208
 H58 H 0.17356 0.35742 1.09212
 C59 C 0.00597 0.39366 1.08687
 H60 H -0.04106 0.40382 1.08380
 C61 C 0.02669 0.34568 1.11947
 H62 H -0.00478 0.31987 1.14227
 Zn63 Zn 0.01200 0.48754 1.01042
 N64 N 0.04445 0.42707 1.05796
 C65 C 0.11158 0.55551 1.00734
 N66 N 0.07189 0.52777 0.97269
 C67 C 0.06829 0.53901 0.91572
 C68 C 0.10305 0.58284 0.89233
 C69 C 0.14784 0.59850 0.98565
 C70 C -0.02082 0.40524 0.92621
 C71 C -0.06015 0.37202 0.89299
 C72 C -0.14032 0.43612 0.92479
 C73 C -0.09951 0.46792 0.95756
 N74 N -0.04115 0.45159 0.95825
 H75 H 0.11241 0.54684 1.05274
 H76 H 0.03525 0.51751 0.88931
 H77 H 0.09662 0.59377 0.84771
 H78 H 0.17790 0.62048 1.01485
 H79 H 0.02575 0.39277 0.92818
 H80 H -0.04298 0.33418 0.86943
 H81 H -0.18646 0.44996 0.92550
 H82 H -0.11490 0.50449 0.98382
 C83 C 0.08762 0.33178 1.12212
 C84 C -0.07816 0.64507 1.10757
 C85 C -0.12111 0.38653 0.89288
 C86 C 0.14170 0.61505 0.92806
 C87 C 1.06836 -0.04630 0.59489
 H88 H 1.08209 -0.00097 0.59115
 C89 C 1.09374 -0.08251 0.63720
 H90 H 1.12700 -0.06458 0.66596
 C91 C 1.00588 -0.12344 0.56368
 H92 H 0.97079 -0.13874 0.53562
 C93 C 1.02922 -0.16083 0.60630
 H94 H 1.01244 -0.20508 0.61028
 N95 N 1.02573 -0.06732 0.55884
 C96 C 1.02797 0.05835 0.41851
 H97 H 0.98117 0.06969 0.41570
 C98 C 1.06700 0.08359 0.38080
 H99 H 1.04935 0.11397 0.34890
 C100 C 1.10660 0.00304 0.46253
 H101 H 1.12176 -0.02924 0.49365
 C102 C 1.14728 0.02730 0.42565
 H103 H 1.19347 0.01400 0.43000
 Zn104 Zn 0.99061 -0.01334 0.50611
 N105 N 1.04824 0.01931 0.45868
 C106 C 0.97169 0.10384 0.54828
 N107 N 0.95284 0.04717 0.54966
 C108 C 0.90940 0.03135 0.58541
 C109 C 0.88234 0.07347 0.62099
 C110 C 0.94614 0.14733 0.58340
 C111 C 0.95841 -0.09583 0.42318
 C112 C 0.92203 -0.12448 0.38340
 C113 C 0.83971 -0.06265 0.41421
 C114 C 0.87778 -0.03505 0.45342
 N115 N 0.93592 -0.05212 0.45724
 H116 H 1.00757 0.11526 0.52095
 H117 H 0.89603 -0.01430 0.58652
 H118 H 0.84760 0.05944 0.64853
 H119 H 0.96293 0.19164 0.58182
 H120 H 1.00498 -0.10801 0.42665
 H121 H 0.94109 -0.15925 0.35698
 H122 H 0.79395 -0.04747 0.41113
 H123 H 0.86106 0.00085 0.47979
 C124 C 1.12766 0.06813 0.38395
 C125 C 1.07370 -0.14035 0.64362
 C126 C 0.86182 -0.10779 0.37824
 C127 C 0.90078 0.13252 0.62062
 N128 N 0.07810 0.23173 1.16586
 N129 N 0.11213 0.19257 1.19341
 C130 C 0.16643 0.21512 1.20089
 C131 C 0.16758 0.27045 1.17592
 C132 C 0.11028 0.27965 1.15454
 H133 H 0.20457 0.29973 1.17364
 H134 H 0.03421 0.22443 1.15338
 H135 H 0.09867 0.15040 1.20464
 N136 N -0.08779 0.75408 1.12317
 N137 N -0.12343 0.79165 1.15005
 C138 C -0.16145 0.76048 1.18054
 C139 C -0.14992 0.70044 1.17313
 C140 C -0.10278 0.69837 1.13605
 H141 H -0.17549 0.66396 1.18805
 H142 H -0.05526 0.76657 1.09487
 H143 H -0.12378 0.83757 1.14502
 N144 N -0.22345 0.35004 0.87079
 N145 N -0.24844 0.30853 0.83910
 C146 C -0.20602 0.27982 0.80908
 C147 C -0.15160 0.30452 0.82230
 C148 C -0.16450 0.34885 0.86192
 H149 H -0.10863 0.29061 0.80678
 H150 H -0.24693 0.37769 0.89869
 H151 H -0.29398 0.30156 0.83737
 N152 N 0.19111 0.71214 0.94326
 N153 N 0.20282 0.75941 0.91319
 C154 C 0.18935 0.74851 0.85788
 C155 C 0.16878 0.69133 0.85229
 C156 C 0.16969 0.66981 0.90789
 H157 H 0.15251 0.66996 0.81377
 H158 H 0.19443 0.71119 0.98776
 H159 H 0.21632 0.79942 0.93123
 N160 N 1.22376 0.06993 0.33145
 N161 N 1.24697 0.10033 0.28974
 C162 C 1.20772 0.14312 0.27325
 C163 C 1.15814 0.14082 0.30698
 C164 C 1.16947 0.09302 0.34279
 H165 H 1.11916 0.16959 0.30532
 H166 H 1.24457 0.03299 0.35030
 H167 H 1.28849 0.09077 0.27269
 N168 N 1.06273 -0.21298 0.72248
 N169 N 1.09340 -0.23033 0.76836
 C170 C 1.14766 -0.20681 0.76685
 C171 C 1.15151 -0.17300 0.71799
 C172 C 1.09645 -0.17735 0.69142
 H173 H 1.18767 -0.14551 0.70582
 H174 H 1.01804 -0.22183 0.71508
 H175 H 1.07542 -0.25390 0.80174
 N176 N 0.76328 -0.13493 0.33451
 N177 N 0.74335 -0.16287 0.28839
 C178 C 0.79009 -0.18191 0.25786
 C179 C 0.84199 -0.16622 0.28592
 C180 C 0.82313 -0.13598 0.33437
 H181 H 0.88690 -0.17432 0.27210
 H182 H 0.73596 -0.11622 0.36561
 H183 H 0.69859 -0.16906 0.27866
 N184 N 0.88382 0.23650 0.65761
 N185 N 0.85145 0.26430 0.70077
 C186 C 0.82167 0.22218 0.72788
 C187 C 0.83473 0.16722 0.70321
 C188 C 0.87372 0.17785 0.65936
 H189 H 0.81901 0.12486 0.71681
 H190 H 0.90985 0.25891 0.62896
 H191 H 0.84857 0.31007 0.70728
 N192 N 0.35354 1.21566 0.16476
 N193 N 0.30752 1.23043 0.19645
 C194 C 0.27183 1.18375 0.19832
 C195 C 0.29525 1.13755 0.16650
 C196 C 0.34760 1.15933 0.14597
 H197 H 0.27602 1.09476 0.15876
 H198 H 0.38848 1.24370 0.15694
 H199 H 0.30113 1.27146 0.21658
 N200 N 0.66739 1.13474 -0.23846
 N201 N 0.70944 1.16605 -0.26115
 C202 C 0.73730 1.19648 -0.21916
 C203 C 0.71151 1.18381 -0.16731
 C204 C 0.66724 1.14420 -0.18135
 H205 H 0.72447 1.19980 -0.12533
 H206 H 0.63990 1.10724 -0.26251
 H207 H 0.71718 1.16754 -0.30494
 N208 N 0.24790 0.93610 -0.16524
 N209 N 0.20626 0.90021 -0.18362
 C210 C 0.22614 0.84399 -0.17707
 C211 C 0.28286 0.84378 -0.15349
 C212 C 0.29519 0.90342 -0.14624
 H213 H 0.30976 0.80546 -0.14133
 H214 H 0.24219 0.98205 -0.16366
 H215 H 0.16405 0.91428 -0.19764
 N216 N 0.67964 0.77873 0.09154
 N217 N 0.72050 0.75410 0.12552
 C218 C 0.73502 0.79331 0.16686
 C219 C 0.70215 0.84534 0.15878
 C220 C 0.66769 0.83431 0.11025
 H221 H 0.70646 0.88682 0.18175
 H222 H 0.66136 0.75790 0.05555
 H223 H 0.73924 0.71191 0.11913
   
