data_POSCAR
  _audit_creation_date              2014-09-24
  _audit_creation_method            'ToBaCCo'
  _symmetry_space_group_name_H-M    'P1'
  _symmetry_Int_Tables_number       1
  _symmetry_cell_setting            triclinic
  loop_
  _symmetry_equiv_pos_as_xyz
 x,y,z
_cell_length_a 56.2705
_cell_length_b 56.2711
_cell_length_c 54.3018
_cell_angle_alpha 89.977700
_cell_angle_beta 89.976900
_cell_angle_gamma 90.021200
loop_
  _atom_site_label
  _atom_site_type_symbol
  _atom_site_fract_x
  _atom_site_fract_y
  _atom_site_fract_z
O1 O 0.02541 0.27876 -0.02036
 O2 O -0.02142 0.27792 0.02697
 O3 O 0.02479 0.27761 0.02755
 O4 O -0.02084 0.27880 -0.02104
 O5 O -0.02100 0.23954 -0.02188
 O6 O 0.02461 0.23835 0.02668
 O7 O -0.02162 0.23869 0.02616
 O8 O 0.02527 0.23951 -0.02125
 Cu9 Cu 0.00198 0.28221 0.00336
 Cu10 Cu 0.00178 0.23508 0.00233
 C11 C 0.03332 0.25929 -0.02885
 C12 C -0.02945 0.25818 0.03472
 C13 C 0.03245 0.25777 0.03539
 C14 C -0.02863 0.25936 -0.02976
 O15 O 0.52143 0.77596 0.47575
 O16 O 0.47515 0.77542 0.52371
 O17 O 0.52139 0.77589 0.52376
 O18 O 0.47522 0.77546 0.47571
 O19 O 0.47560 0.73620 0.47566
 O20 O 0.52180 0.73663 0.52375
 O21 O 0.47553 0.73616 0.52370
 O22 O 0.52184 0.73670 0.47570
 Cu23 Cu 0.49826 0.77962 0.49975
 Cu24 Cu 0.49873 0.73248 0.49971
 C25 C 0.52945 0.75643 0.46751
 C26 C 0.46750 0.75571 0.53189
 C27 C 0.52941 0.75634 0.53197
 C28 C 0.46761 0.75577 0.46746
 O29 O 1.02235 0.71660 0.02371
 O30 O 0.97588 0.71717 -0.02407
 O31 O 1.02219 0.71647 -0.02422
 O32 O 0.97601 0.71724 0.02385
 O33 O 0.97660 0.75650 0.02374
 O34 O 1.02277 0.75571 -0.02432
 O35 O 0.97648 0.75642 -0.02416
 O36 O 1.02292 0.75584 0.02359
 Cu37 Cu 0.99905 0.71293 -0.00016
 Cu38 Cu 0.99976 0.76005 -0.00029
 C39 C 1.03061 0.73612 0.03177
 C40 C 0.96825 0.73690 -0.03221
 C41 C 1.03039 0.73596 -0.03245
 C42 C 0.96840 0.73701 0.03192
 O43 O 0.47906 0.21694 0.47914
 O44 O 0.52576 0.21850 0.52655
 O45 O 0.47949 0.21823 0.52710
 O46 O 0.52537 0.21751 0.47867
 O47 O 0.52498 0.25676 0.47770
 O48 O 0.47916 0.25748 0.52608
 O49 O 0.52542 0.25775 0.52557
 O50 O 0.47868 0.25619 0.47813
 Cu51 Cu 0.50243 0.21385 0.50296
 Cu52 Cu 0.50200 0.26099 0.50176
 C53 C 0.47092 0.23629 0.47057
 C54 C 0.53357 0.23838 0.53409
 C55 C 0.47154 0.23798 0.53484
 C56 C 0.53303 0.23703 0.47002
 O57 O 0.71969 0.02659 -0.02412
 O58 O 0.71971 -0.02001 0.02354
 O59 O 0.71947 0.02624 0.02375
 O60 O 0.71986 -0.01970 -0.02450
 O61 O 0.75912 -0.01954 -0.02436
 O62 O 0.75874 0.02641 0.02390
 O63 O 0.75896 -0.01984 0.02368
 O64 O 0.75896 0.02675 -0.02397
 Cu65 Cu 0.71574 0.00322 -0.00036
 Cu66 Cu 0.76289 0.00343 -0.00018
 C67 C 0.73933 0.03465 -0.03209
 C68 C 0.73934 -0.02782 0.03182
 C69 C 0.73904 0.03418 0.03199
 C70 C 0.73955 -0.02739 -0.03268
 O71 O 0.21791 0.52174 0.47405
 O72 O 0.21788 0.47524 0.52175
 O73 O 0.21718 0.52156 0.52196
 O74 O 0.21891 0.47546 0.47379
 O75 O 0.25816 0.47619 0.47456
 O76 O 0.25643 0.52224 0.52268
 O77 O 0.25712 0.47593 0.52252
 O78 O 0.25716 0.52247 0.47477
 Cu79 Cu 0.21403 0.49841 0.49781
 Cu80 Cu 0.26116 0.49927 0.49872
 C81 C 0.23753 0.53004 0.46632
 C82 C 0.23748 0.46767 0.53025
 C83 C 0.23653 0.52978 0.53046
 C84 C 0.23884 0.46799 0.46598
 O85 O 0.27842 1.02272 0.02164
 O86 O 0.27685 0.97609 -0.02589
 O87 O 0.27745 1.02232 -0.02630
 O88 O 0.27755 0.97646 0.02212
 O89 O 0.23830 0.97708 0.02283
 O90 O 0.23822 1.02293 -0.02556
 O91 O 0.23760 0.97668 -0.02520
 O92 O 0.23919 1.02337 0.02240
 Cu93 Cu 0.28150 0.99932 -0.00218
 Cu94 Cu 0.23439 1.00006 -0.00130
 C95 C 0.25909 1.03101 0.03014
 C96 C 0.25698 0.96850 -0.03369
 C97 C 0.25781 1.03044 -0.03422
 C98 C 0.25793 0.96900 0.03074
 O99 O 0.78133 0.52697 0.52303
 O100 O 0.78078 0.48049 0.47534
 O101 O 0.78110 0.52677 0.47516
 O102 O 0.78097 0.48072 0.52338
 O103 O 0.74170 0.48098 0.52357
 O104 O 0.74183 0.52702 0.47536
 O105 O 0.74152 0.48073 0.47553
 O106 O 0.74206 0.52723 0.52323
 Cu107 Cu 0.78499 0.50367 0.49920
 Cu108 Cu 0.73783 0.50398 0.49943
 C109 C 0.76179 0.53503 0.53120
 C110 C 0.76106 0.47274 0.46728
 C111 C 0.76148 0.53478 0.46711
 C112 C 0.76132 0.47308 0.53174
 C113 C 0.24443 0.25372 0.25174
 C114 C 0.26159 0.23662 0.25141
 C115 C 0.26295 0.21871 0.23134
 C116 C 0.27980 0.23493 0.27113
 C117 C 0.24439 0.27310 0.27033
 C118 C 0.22479 0.25395 0.23347
 C119 C 0.26295 0.19442 0.23711
 C120 C 0.26346 0.17738 0.21841
 C121 C 0.26414 0.18429 0.19352
 C122 C 0.26472 0.20868 0.18782
 C123 C 0.26425 0.22571 0.20655
 C124 C 0.27318 0.23321 0.29599
 C125 C 0.29050 0.23233 0.31441
 C126 C 0.31480 0.23292 0.30829
 C127 C 0.32133 0.23403 0.28330
 C128 C 0.30399 0.23494 0.26492
 C129 C 0.26426 0.28789 0.27348
 C130 C 0.26397 0.30600 0.29110
 C131 C 0.24369 0.30983 0.30575
 C132 C 0.22370 0.29520 0.30224
 C133 C 0.22404 0.27709 0.28465
 C134 C 0.22071 0.27437 0.21929
 C135 C 0.20258 0.27473 0.20175
 C136 C 0.18803 0.25470 0.19815
 C137 C 0.19187 0.23441 0.21277
 C138 C 0.21000 0.23409 0.23034
 H139 H 0.26211 0.18866 0.25613
 H140 H 0.26311 0.15878 0.22351
 H141 H 0.26542 0.21466 0.16888
 H142 H 0.26474 0.24438 0.20173
 H143 H 0.25459 0.23269 0.30113
 H144 H 0.28483 0.23131 0.33343
 H145 H 0.30945 0.23609 0.24583
 H146 H 0.27999 0.28541 0.26227
 H147 H 0.27962 0.31701 0.29319
 H148 H 0.20776 0.29766 0.31311
 H149 H 0.20847 0.26598 0.28239
 H150 H 0.23184 0.28993 0.22156
 H151 H 0.20009 0.29069 0.19092
 H152 H 0.18091 0.21873 0.21062
 H153 H 0.21257 0.21832 0.24146
 H154 H 0.33984 0.23440 0.27790
 C155 C 0.75628 0.74476 0.24839
 C156 C 0.73891 0.76166 0.24822
 C157 C 0.73887 0.78133 0.22995
 C158 C 0.71913 0.76133 0.26637
 C159 C 0.75771 0.72652 0.26813
 C160 C 0.77473 0.74358 0.22885
 C161 C 0.75868 0.79626 0.22719
 C162 C 0.75863 0.81430 0.20949
 C163 C 0.73866 0.81791 0.19435
 C164 C 0.71864 0.80326 0.19761
 C165 C 0.71873 0.78521 0.21529
 C166 C 0.71478 0.78138 0.28101
 C167 C 0.69680 0.78103 0.29875
 C168 C 0.68268 0.76064 0.30209
 C169 C 0.68670 0.74077 0.28692
 C170 C 0.70468 0.74117 0.26915
 C171 C 0.75819 0.70236 0.26187
 C172 C 0.75920 0.68499 0.28021
 C173 C 0.75991 0.69144 0.30523
 C174 C 0.75988 0.71573 0.31142
 C175 C 0.75890 0.73309 0.29304
 C176 C 0.76843 0.74204 0.20389
 C177 C 0.78600 0.74107 0.18571
 C178 C 0.81022 0.74138 0.19217
 C179 C 0.81641 0.74252 0.21724
 C180 C 0.79883 0.74353 0.23537
 H181 H 0.77423 0.79386 0.23868
 H182 H 0.77429 0.82534 0.20762
 H183 H 0.70292 0.80558 0.18638
 H184 H 0.70321 0.77398 0.21726
 H185 H 0.72565 0.79716 0.27902
 H186 H 0.69414 0.79668 0.31000
 H187 H 0.70745 0.72567 0.25768
 H188 H 0.75744 0.69695 0.24275
 H189 H 0.75929 0.66649 0.27475
 H190 H 0.76057 0.72135 0.33047
 H191 H 0.75903 0.75168 0.29823
 H192 H 0.74991 0.74158 0.19850
 H193 H 0.78058 0.74006 0.16661
 H194 H 0.83485 0.74272 0.22291
 H195 H 0.80404 0.74455 0.25455
 H196 H 0.67607 0.72484 0.28884
 C197 C 0.74339 0.24286 0.25170
 C198 C 0.76066 0.25987 0.25173
 C199 C 0.78034 0.25965 0.23347
 C200 C 0.76066 0.27958 0.26992
 C201 C 0.72511 0.24153 0.27141
 C202 C 0.74189 0.22470 0.23192
 C203 C 0.79489 0.23957 0.23062
 C204 C 0.81285 0.23933 0.21283
 C205 C 0.81677 0.25927 0.19771
 C206 C 0.80253 0.27955 0.20109
 C207 C 0.78456 0.27975 0.21885
 C208 C 0.78086 0.28371 0.28441
 C209 C 0.78094 0.30187 0.30194
 C210 C 0.76085 0.31640 0.30520
 C211 C 0.74079 0.31253 0.29025
 C212 C 0.74075 0.29437 0.27270
 C213 C 0.70095 0.24122 0.26510
 C214 C 0.68354 0.24009 0.28339
 C215 C 0.68994 0.23908 0.30841
 C216 C 0.71421 0.23900 0.31465
 C217 C 0.73162 0.24010 0.29632
 C218 C 0.74045 0.23139 0.20707
 C219 C 0.73947 0.21411 0.18862
 C220 C 0.73968 0.18980 0.19470
 C221 C 0.74061 0.18322 0.21968
 C222 C 0.74163 0.20051 0.23809
 H223 H 0.79221 0.22404 0.24207
 H224 H 0.82357 0.22347 0.21088
 H225 H 0.80510 0.29526 0.18987
 H226 H 0.77363 0.29547 0.22088
 H227 H 0.79645 0.27259 0.28241
 H228 H 0.79673 0.30439 0.31303
 H229 H 0.72516 0.29178 0.26134
 H230 H 0.69557 0.24215 0.24597
 H231 H 0.66505 0.24011 0.27788
 H232 H 0.71979 0.23809 0.33371
 H233 H 0.75019 0.23982 0.30155
 H234 H 0.74015 0.25000 0.20196
 H235 H 0.73860 0.21983 0.16960
 H236 H 0.74071 0.16469 0.22506
 H237 H 0.74256 0.19501 0.25718
 H238 H 0.72508 0.32347 0.29214
 C239 C 0.25834 0.75750 0.24798
 C240 C 0.24112 0.74044 0.24799
 C241 C 0.22277 0.73917 0.22836
 C242 C 0.23973 0.72215 0.26769
 C243 C 0.27798 0.75735 0.26628
 C244 C 0.25835 0.77720 0.22976
 C245 C 0.19863 0.73889 0.23477
 C246 C 0.18114 0.73794 0.21655
 C247 C 0.18745 0.73708 0.19149
 C248 C 0.21170 0.73693 0.18514
 C249 C 0.22918 0.73785 0.20341
 C250 C 0.23831 0.72867 0.29259
 C251 C 0.23752 0.71127 0.31095
 C252 C 0.23790 0.68699 0.30473
 C253 C 0.23879 0.68058 0.27971
 C254 C 0.23962 0.69799 0.26139
 C255 C 0.29263 0.73735 0.26916
 C256 C 0.31053 0.73718 0.28700
 C257 C 0.31429 0.75712 0.30215
 C258 C 0.29996 0.77733 0.29874
 C259 C 0.28205 0.77746 0.28093
 C260 C 0.27856 0.78130 0.21525
 C261 C 0.27865 0.79941 0.19765
 C262 C 0.25856 0.81394 0.19434
 C263 C 0.23850 0.81011 0.20932
 C264 C 0.23845 0.79199 0.22694
 H265 H 0.19332 0.73974 0.25393
 H266 H 0.16267 0.73800 0.22214
 H267 H 0.21721 0.73613 0.16606
 H268 H 0.24773 0.73756 0.19809
 H269 H 0.23791 0.74724 0.29781
 H270 H 0.23668 0.71686 0.33000
 H271 H 0.24054 0.69261 0.24226
 H272 H 0.29008 0.72182 0.25769
 H273 H 0.32133 0.72138 0.28898
 H274 H 0.30240 0.79303 0.30997
 H275 H 0.27104 0.79312 0.27888
 H276 H 0.29414 0.77018 0.21728
 H277 H 0.29443 0.80190 0.18654
 H278 H 0.22278 0.82104 0.20740
 H279 H 0.22285 0.78943 0.23831
 H280 H 0.23901 0.66208 0.27422
 C281 C 0.76210 0.26357 0.75104
 C282 C 0.74490 0.24649 0.75109
 C283 C 0.72657 0.24522 0.73146
 C284 C 0.74356 0.22813 0.77072
 C285 C 0.78180 0.26341 0.76925
 C286 C 0.76210 0.28321 0.73275
 C287 C 0.70243 0.24513 0.73786
 C288 C 0.68497 0.24419 0.71963
 C289 C 0.69131 0.24314 0.69459
 C290 C 0.71556 0.24281 0.68826
 C291 C 0.73302 0.24372 0.70654
 C292 C 0.74226 0.23453 0.79567
 C293 C 0.74130 0.21704 0.81393
 C294 C 0.74139 0.19279 0.80757
 C295 C 0.74224 0.18650 0.78252
 C296 C 0.74323 0.20400 0.76430
 C297 C 0.79646 0.24341 0.77201
 C298 C 0.81447 0.24324 0.78972
 C299 C 0.81831 0.26316 0.80486
 C300 C 0.80395 0.28338 0.80157
 C301 C 0.78594 0.28351 0.78388
 C302 C 0.78226 0.28718 0.71813
 C303 C 0.78229 0.30513 0.70036
 C304 C 0.76219 0.31963 0.69697
 C305 C 0.74220 0.31596 0.71209
 C306 C 0.74221 0.29801 0.72988
 H307 H 0.69711 0.24611 0.75701
 H308 H 0.66649 0.24438 0.72519
 H309 H 0.72109 0.24186 0.66919
 H310 H 0.75157 0.24329 0.70125
 H311 H 0.74201 0.25308 0.80098
 H312 H 0.74051 0.22254 0.83302
 H313 H 0.74407 0.19871 0.74514
 H314 H 0.79385 0.22789 0.76054
 H315 H 0.82529 0.22743 0.79162
 H316 H 0.80646 0.29907 0.81280
 H317 H 0.77491 0.29917 0.78189
 H318 H 0.79784 0.27605 0.72018
 H319 H 0.79803 0.30750 0.68915
 H320 H 0.72648 0.32688 0.71012
 H321 H 0.72664 0.29554 0.74133
 H322 H 0.74225 0.16804 0.77692
 C323 C 0.23885 0.73973 0.74917
 C324 C 0.25600 0.75687 0.74919
 C325 C 0.27572 0.75675 0.73098
 C326 C 0.25592 0.77654 0.76746
 C327 C 0.22063 0.73831 0.76893
 C328 C 0.23745 0.72148 0.72944
 C329 C 0.29037 0.73674 0.72817
 C330 C 0.30844 0.73662 0.71050
 C331 C 0.31236 0.75661 0.69545
 C332 C 0.29800 0.77681 0.69877
 C333 C 0.27993 0.77689 0.71641
 C334 C 0.27610 0.78067 0.78199
 C335 C 0.27608 0.79869 0.79968
 C336 C 0.25590 0.81308 0.80310
 C337 C 0.23587 0.80922 0.78811
 C338 C 0.23594 0.79120 0.77039
 C339 C 0.19645 0.73809 0.76273
 C340 C 0.17910 0.73710 0.78111
 C341 C 0.18561 0.73613 0.80610
 C342 C 0.20991 0.73588 0.81223
 C343 C 0.22724 0.73684 0.79381
 C344 C 0.23613 0.72805 0.70453
 C345 C 0.23517 0.71067 0.68616
 C346 C 0.23528 0.68639 0.69235
 C347 C 0.23612 0.67993 0.71737
 C348 C 0.23711 0.69731 0.73570
 H349 H 0.28772 0.72118 0.73958
 H350 H 0.31925 0.72082 0.70858
 H351 H 0.30057 0.79255 0.68761
 H352 H 0.26891 0.79256 0.71843
 H353 H 0.29175 0.76965 0.77990
 H354 H 0.29185 0.80121 0.81080
 H355 H 0.22035 0.78860 0.75901
 H356 H 0.19100 0.73904 0.74362
 H357 H 0.16059 0.73722 0.77569
 H358 H 0.21557 0.73499 0.83126
 H359 H 0.24583 0.73650 0.79896
 H360 H 0.23589 0.74663 0.69933
 H361 H 0.23439 0.71630 0.66711
 H362 H 0.23614 0.66143 0.72284
 H363 H 0.23795 0.69188 0.75482
 H364 H 0.22009 0.82004 0.79010
 C365 C 0.25817 0.24152 0.75009
 C366 C 0.24118 0.25880 0.75021
 C367 C 0.23974 0.27697 0.73039
 C368 C 0.22315 0.26035 0.77014
 C369 C 0.25808 0.22189 0.76839
 C370 C 0.27773 0.24138 0.73170
 C371 C 0.23972 0.30117 0.73650
 C372 C 0.23885 0.31846 0.71805
 C373 C 0.23781 0.31187 0.69308
 C374 C 0.23734 0.28755 0.68705
 C375 C 0.23818 0.27028 0.70554
 C376 C 0.23001 0.26171 0.79496
 C377 C 0.21287 0.26241 0.81357
 C378 C 0.18851 0.26202 0.80772
 C379 C 0.18175 0.26126 0.78279
 C380 C 0.19891 0.26053 0.76421
 C381 C 0.23804 0.20729 0.77139
 C382 C 0.23803 0.18919 0.78902
 C383 C 0.25815 0.18517 0.80382
 C384 C 0.27836 0.19952 0.80036
 C385 C 0.27833 0.21763 0.78276
 C386 C 0.28173 0.22104 0.71739
 C387 C 0.29990 0.22069 0.69986
 C388 C 0.31457 0.24066 0.69641
 C389 C 0.31078 0.26090 0.71111
 C390 C 0.29261 0.26120 0.72867
 H391 H 0.24075 0.30669 0.75558
 H392 H 0.23914 0.33699 0.72339
 H393 H 0.23638 0.28182 0.66805
 H394 H 0.23769 0.25167 0.70047
 H395 H 0.24865 0.26207 0.79990
 H396 H 0.21872 0.26316 0.83255
 H397 H 0.19327 0.25965 0.74516
 H398 H 0.22239 0.20999 0.76013
 H399 H 0.22222 0.17839 0.79106
 H400 H 0.29420 0.19689 0.81134
 H401 H 0.29402 0.22860 0.78059
 H402 H 0.27055 0.20550 0.71957
 H403 H 0.30235 0.20478 0.68895
 H404 H 0.32182 0.27654 0.70907
 H405 H 0.29012 0.27691 0.73989
 H406 H 0.16318 0.26105 0.77758
 C407 C 0.73999 0.76141 0.75007
 C408 C 0.75739 0.74455 0.75005
 C409 C 0.75901 0.72636 0.73031
 C410 C 0.77570 0.74339 0.76974
 C411 C 0.73986 0.78114 0.76823
 C412 C 0.72027 0.76098 0.73186
 C413 C 0.75947 0.70218 0.73652
 C414 C 0.76055 0.68486 0.71815
 C415 C 0.76137 0.69139 0.69316
 C416 C 0.76139 0.71569 0.68701
 C417 C 0.76035 0.73300 0.70543
 C418 C 0.76920 0.74193 0.79466
 C419 C 0.78663 0.74094 0.81298
 C420 C 0.81090 0.74117 0.80672
 C421 C 0.81729 0.74224 0.78169
 C422 C 0.79986 0.74325 0.76341
 C423 C 0.75967 0.79609 0.77096
 C424 C 0.75955 0.81419 0.78857
 C425 C 0.73953 0.81786 0.80362
 C426 C 0.71951 0.80320 0.80038
 C427 C 0.71967 0.78508 0.78280
 C428 C 0.71583 0.78103 0.71723
 C429 C 0.69781 0.78065 0.69954
 C430 C 0.68374 0.76022 0.69623
 C431 C 0.68788 0.74034 0.71135
 C432 C 0.70589 0.74077 0.72907
 H433 H 0.75862 0.69672 0.75564
 H434 H 0.76060 0.66634 0.72357
 H435 H 0.76216 0.72137 0.66798
 H436 H 0.76049 0.75160 0.70028
 H437 H 0.75064 0.74152 0.79991
 H438 H 0.78105 0.73999 0.83204
 H439 H 0.80523 0.74421 0.74428
 H440 H 0.77526 0.79363 0.75954
 H441 H 0.77520 0.82524 0.79043
 H442 H 0.70375 0.80556 0.81154
 H443 H 0.70415 0.77384 0.78083
 H444 H 0.72662 0.79686 0.71921
 H445 H 0.69507 0.79631 0.68832
 H446 H 0.67730 0.72437 0.70946
 H447 H 0.70873 0.72527 0.74053
 H448 H 0.83577 0.74237 0.77616
 N449 N 0.28151 0.07367 0.07406
 C450 C 0.26108 0.08266 0.08345
 N451 N 0.23997 0.07442 0.07496
 N452 N 0.23931 0.05769 0.05761
 C453 C 0.25975 0.04860 0.04816
 N454 N 0.28086 0.05693 0.05672
 C455 C 0.26180 0.10051 0.10232
 C456 C 0.26241 0.11540 0.11828
 C457 C 0.26307 0.13298 0.13741
 N458 N 0.26381 0.15643 0.13176
 N459 N 0.26426 0.17273 0.14956
 C460 C 0.26400 0.16617 0.17367
 N461 N 0.26329 0.14261 0.17919
 N462 N 0.26284 0.12632 0.16140
 N463 N 0.78307 0.57919 0.57606
 C464 C 0.76238 0.58804 0.58499
 N465 N 0.74150 0.57946 0.57626
 N466 N 0.74131 0.56254 0.55910
 C467 C 0.76200 0.55364 0.55011
 N468 N 0.78288 0.56228 0.55889
 C469 C 0.76256 0.60614 0.60356
 C470 C 0.76262 0.62128 0.61925
 C471 C 0.76257 0.63917 0.63804
 N472 N 0.76270 0.66253 0.63196
 N473 N 0.76242 0.67912 0.64945
 C474 C 0.76199 0.67296 0.67366
 N475 N 0.76189 0.64950 0.67961
 N476 N 0.76218 0.63290 0.66213
 N477 N 0.71856 0.92958 0.07669
 C478 C 0.73933 0.92117 0.08584
 N479 N 0.76011 0.92975 0.07685
 N480 N 0.76012 0.94628 0.05926
 C481 C 0.73934 0.95478 0.05005
 N482 N 0.71855 0.94610 0.05911
 C483 C 0.73932 0.90341 0.10482
 C484 C 0.73924 0.88847 0.12074
 C485 C 0.73906 0.87063 0.13964
 N486 N 0.75831 0.86737 0.15424
 N487 N 0.75816 0.85070 0.17168
 C488 C 0.73875 0.83668 0.17516
 N489 N 0.71950 0.84008 0.16045
 N490 N 0.71965 0.85675 0.14301
 N491 N 0.21654 0.42319 0.57501
 C492 C 0.23727 0.41486 0.58433
 N493 N 0.25808 0.42388 0.57588
 N494 N 0.25816 0.44072 0.55862
 C495 C 0.23742 0.44911 0.54924
 N496 N 0.21661 0.44003 0.55775
 C497 C 0.23719 0.39683 0.60303
 C498 C 0.23713 0.38176 0.61881
 C499 C 0.23712 0.36392 0.63770
 N500 N 0.23782 0.37027 0.66176
 N501 N 0.23796 0.35373 0.67932
 C502 C 0.23740 0.33025 0.67350
 N503 N 0.23668 0.32401 0.64932
 N504 N 0.23654 0.34054 0.63174
 N505 N 0.92782 0.23692 0.07926
 C506 C 0.91949 0.25761 0.08869
 N507 N 0.92814 0.27847 0.07997
 N508 N 0.94466 0.27865 0.06239
 C509 C 0.95310 0.25796 0.05290
 N510 N 0.94435 0.23709 0.06167
 C511 C 0.90178 0.25750 0.10771
 C512 C 0.88689 0.25762 0.12368
 C513 C 0.86913 0.25803 0.14265
 N514 N 0.85566 0.27769 0.14617
 N515 N 0.83910 0.27809 0.16371
 C516 C 0.83542 0.25887 0.17840
 N517 N 0.84902 0.23921 0.17478
 N518 N 0.86559 0.23879 0.15723
 N519 N 0.42432 0.73462 0.57798
 C520 C 0.41568 0.75535 0.58701
 N521 N 0.42401 0.77618 0.57788
 N522 N 0.44049 0.77628 0.56026
 C523 C 0.44920 0.75555 0.55117
 N524 N 0.44082 0.73472 0.56036
 C525 C 0.39793 0.75529 0.60600
 C526 C 0.38299 0.75541 0.62192
 C527 C 0.36513 0.75573 0.64079
 N528 N 0.35154 0.77532 0.64424
 N529 N 0.33486 0.77561 0.66166
 C530 C 0.33115 0.75634 0.67628
 N531 N 0.34488 0.73675 0.67272
 N532 N 0.36157 0.73645 0.65531
 N533 N 0.07447 0.75649 0.07547
 C534 C 0.08298 0.73564 0.08433
 N535 N 0.07393 0.71494 0.07566
 N536 N 0.05689 0.71508 0.05862
 C537 C 0.04832 0.73594 0.04966
 N538 N 0.05744 0.75664 0.05843
 C539 C 0.10127 0.73551 0.10274
 C540 C 0.11658 0.73552 0.11828
 C541 C 0.13467 0.73568 0.13690
 N542 N 0.12865 0.73624 0.16105
 N543 N 0.14541 0.73661 0.17836
 C544 C 0.16883 0.73644 0.17217
 N545 N 0.17475 0.73586 0.14790
 N546 N 0.15798 0.73549 0.13058
 N547 N 0.57806 0.26048 0.57816
 C548 C 0.58701 0.23996 0.58740
 N549 N 0.57837 0.21893 0.57915
 N550 N 0.56130 0.21843 0.56215
 C551 C 0.55231 0.23895 0.55286
 N552 N 0.56100 0.25999 0.56116
 C553 C 0.60529 0.24049 0.60579
 C554 C 0.62057 0.24091 0.62132
 C555 C 0.63863 0.24142 0.63995
 N556 N 0.63256 0.24226 0.66407
 N557 N 0.64930 0.24277 0.68140
 C558 C 0.67272 0.24245 0.67525
 N559 N 0.67868 0.24159 0.65100
 N560 N 0.66194 0.24108 0.63366
 N561 N 0.71861 0.07930 0.92325
 C562 C 0.73941 0.08818 0.91461
 N563 N 0.76017 0.07944 0.92344
 N564 N 0.76014 0.06234 0.94042
 C565 C 0.73935 0.05340 0.94912
 N566 N 0.71858 0.06220 0.94023
 C567 C 0.73946 0.10653 0.89625
 C568 C 0.73959 0.12186 0.88074
 C569 C 0.73985 0.13998 0.86214
 N570 N 0.74040 0.13397 0.83799
 N571 N 0.74082 0.15075 0.82069
 C572 C 0.74071 0.17416 0.82688
 N573 N 0.74013 0.18006 0.85116
 N574 N 0.73971 0.16327 0.86847
 N575 N 0.25818 0.57483 0.42175
 C576 C 0.23738 0.58315 0.41257
 N577 N 0.21663 0.57400 0.42104
 N578 N 0.21669 0.55705 0.43818
 C579 C 0.23749 0.54867 0.44741
 N580 N 0.25824 0.55788 0.43889
 C581 C 0.23731 0.60133 0.39404
 C582 C 0.23727 0.61653 0.37840
 C583 C 0.23726 0.63452 0.35966
 N584 N 0.23681 0.65785 0.36583
 N585 N 0.23693 0.67452 0.34839
 C586 C 0.23751 0.66847 0.32416
 N587 N 0.23794 0.64503 0.31813
 N588 N 0.23782 0.62836 0.33555
 N589 N 0.23505 0.92523 0.92077
 C590 C 0.25562 0.91647 0.91144
 N591 N 0.27660 0.92474 0.92022
 N592 N 0.27702 0.94128 0.93776
 C593 C 0.25646 0.95011 0.94713
 N594 N 0.23546 0.94179 0.93832
 C595 C 0.25524 0.89867 0.89251
 C596 C 0.25515 0.88369 0.87663
 C597 C 0.25532 0.86580 0.85779
 N598 N 0.27486 0.85215 0.85425
 N599 N 0.27505 0.83548 0.83684
 C600 C 0.25572 0.83184 0.82230
 N601 N 0.23619 0.84561 0.82594
 N602 N 0.23599 0.86230 0.84336
 N603 N 0.73985 0.42927 0.42165
 C604 C 0.76055 0.42061 0.41256
 N605 N 0.78141 0.42904 0.42150
 N606 N 0.78157 0.44565 0.43898
 C607 C 0.76087 0.45437 0.44812
 N608 N 0.74000 0.44588 0.43914
 C609 C 0.76042 0.40272 0.39376
 C610 C 0.76041 0.38764 0.37799
 C611 C 0.76054 0.36963 0.35931
 N612 N 0.78001 0.35584 0.35594
 N613 N 0.78012 0.33901 0.33870
 C614 C 0.76078 0.33534 0.32419
 N615 N 0.74132 0.34926 0.32766
 N616 N 0.74120 0.36610 0.34490
 N617 N 0.07756 0.28106 0.92656
 C618 C 0.08620 0.26050 0.91715
 N619 N 0.07750 0.23951 0.92551
 N620 N 0.06067 0.23911 0.94278
 C621 C 0.05197 0.25969 0.95224
 N622 N 0.06073 0.28067 0.94383
 C623 C 0.10415 0.26094 0.89838
 C624 C 0.11914 0.26131 0.88251
 C625 C 0.13684 0.26171 0.86349
 N626 N 0.13033 0.26140 0.83947
 N627 N 0.14674 0.26161 0.82178
 C628 C 0.17027 0.26213 0.82744
 N629 N 0.17667 0.26247 0.85158
 N630 N 0.16026 0.26227 0.86929
 N631 N 0.57214 0.77790 0.42118
 C632 C 0.58078 0.75727 0.41191
 N633 N 0.57265 0.73635 0.42100
 N634 N 0.55634 0.73606 0.43881
 C635 C 0.54763 0.75670 0.44812
 N636 N 0.55584 0.77763 0.43898
 C637 C 0.59828 0.75762 0.39268
 C638 C 0.61300 0.75805 0.37655
 C639 C 0.63059 0.75874 0.35741
 N640 N 0.63420 0.73961 0.34273
 N641 N 0.65065 0.74024 0.32508
 C642 C 0.66409 0.76003 0.32146
 N643 N 0.66033 0.77916 0.33625
 N644 N 0.64388 0.77854 0.35389
 N645 N 0.92415 0.75838 0.92295
 C646 C 0.91503 0.73775 0.91418
 N647 N 0.92343 0.71683 0.92298
 N648 N 0.94043 0.71654 0.94006
 C649 C 0.94960 0.73718 0.94889
 N650 N 0.94114 0.75811 0.94003
 C651 C 0.89678 0.73808 0.89572
 C652 C 0.88152 0.73845 0.88015
 C653 C 0.86349 0.73899 0.86147
 N654 N 0.84016 0.73877 0.86771
 N655 N 0.82345 0.73941 0.85034
 C656 C 0.82946 0.74031 0.82609
 N657 N 0.85289 0.74052 0.81999
 N658 N 0.86960 0.73987 0.83735
 N659 N 0.42646 0.25550 0.42501
 C660 C 0.41799 0.23441 0.41671
 N661 N 0.42689 0.21395 0.42611
 N662 N 0.44377 0.21455 0.44331
 C663 C 0.45231 0.23564 0.45166
 N664 N 0.44334 0.25610 0.44221
 C665 C 0.39993 0.23377 0.39807
 C666 C 0.38483 0.23331 0.38234
 C667 C 0.36697 0.23289 0.36350
 N668 N 0.34361 0.23210 0.36954
 N669 N 0.32704 0.23199 0.35202
 C670 C 0.33322 0.23265 0.32782
 N671 N 0.35669 0.23339 0.32191
 N672 N 0.37326 0.23351 0.33942
 N673 N 0.71905 0.92949 0.92102
 C674 C 0.73988 0.92113 0.91195
 N675 N 0.76061 0.92963 0.92112
 N676 N 0.76051 0.94603 0.93881
 C677 C 0.73968 0.95446 0.94793
 N678 N 0.71895 0.94590 0.93871
 C679 C 0.73996 0.90344 0.89293
 C680 C 0.73993 0.88853 0.87700
 C681 C 0.73978 0.87070 0.85813
 N682 N 0.75907 0.86739 0.84359
 N683 N 0.75896 0.85069 0.82621
 C684 C 0.73956 0.83668 0.82273
 N685 N 0.72026 0.84013 0.83737
 N686 N 0.72036 0.85683 0.85475
 N687 N 0.21983 0.42377 0.42006
 C688 C 0.24096 0.41556 0.41157
 N689 N 0.26138 0.42460 0.42093
 N690 N 0.26070 0.44135 0.43826
 C691 C 0.23957 0.44961 0.44682
 N692 N 0.21915 0.44052 0.43739
 C693 C 0.24167 0.39741 0.39303
 C694 C 0.24217 0.38208 0.37752
 C695 C 0.24259 0.36375 0.35915
 N696 N 0.26223 0.36020 0.34517
 N697 N 0.26259 0.34310 0.32819
 C698 C 0.24332 0.32894 0.32457
 N699 N 0.22369 0.33262 0.33866
 N700 N 0.22332 0.34971 0.35563
 N701 N 0.23690 0.07307 0.92105
 C702 C 0.25765 0.08124 0.91158
 N703 N 0.27845 0.07244 0.92025
 N704 N 0.27851 0.05595 0.93787
 C705 C 0.25776 0.04770 0.94742
 N706 N 0.23695 0.05658 0.93867
 C707 C 0.25760 0.09905 0.89267
 C708 C 0.25764 0.11407 0.87683
 C709 C 0.25780 0.13204 0.85808
 N710 N 0.27736 0.14565 0.85450
 N711 N 0.27748 0.16246 0.83722
 C712 C 0.25806 0.16627 0.82287
 N713 N 0.23850 0.15252 0.82655
 N714 N 0.23837 0.13571 0.84383
 N715 N 0.78234 0.57886 0.42189
 C716 C 0.76157 0.58770 0.41316
 N717 N 0.74078 0.57911 0.42212
 N718 N 0.74075 0.56220 0.43931
 C719 C 0.76152 0.55331 0.44809
 N720 N 0.78232 0.56195 0.43907
 C721 C 0.76158 0.60586 0.39461
 C722 C 0.76151 0.62105 0.37895
 C723 C 0.76132 0.63902 0.36021
 N724 N 0.76136 0.66236 0.36636
 N725 N 0.76099 0.67902 0.34891
 C726 C 0.76057 0.67294 0.32468
 N727 N 0.76055 0.64949 0.31867
 N728 N 0.76091 0.63284 0.33610
 N729 N 0.07382 0.75609 0.92323
 C730 C 0.08221 0.73519 0.91439
 N731 N 0.07324 0.71454 0.92329
 N732 N 0.05639 0.71478 0.94054
 C733 C 0.04793 0.73569 0.94947
 N734 N 0.05697 0.75634 0.94048
 C735 C 0.10029 0.73496 0.89575
 C736 C 0.11542 0.73488 0.88004
 C737 C 0.13333 0.73493 0.86123
 N738 N 0.12708 0.73554 0.83715
 N739 N 0.14369 0.73583 0.81966
 C740 C 0.16716 0.73553 0.82560
 N741 N 0.17330 0.73489 0.84981
 N742 N 0.15669 0.73459 0.86731
 N743 N 0.57693 0.25745 0.42442
 C744 C 0.58593 0.23662 0.41604
 N745 N 0.57748 0.21590 0.42533
 N746 N 0.56057 0.21601 0.44251
 C747 C 0.55152 0.23685 0.45095
 N748 N 0.56002 0.25756 0.44160
 C749 C 0.60413 0.23655 0.39753
 C750 C 0.61936 0.23667 0.38192
 C751 C 0.63738 0.23700 0.36322
 N752 N 0.63126 0.23771 0.33911
 N753 N 0.64796 0.23830 0.32172
 C754 C 0.67139 0.23820 0.32780
 N755 N 0.67740 0.23746 0.35204
 N756 N 0.66070 0.23688 0.36944
 N757 N 0.92881 0.28119 0.92400
 C758 C 0.92040 0.26062 0.91436
 N759 N 0.92867 0.23964 0.92314
 N760 N 0.94489 0.23924 0.94101
 C761 C 0.95337 0.25981 0.95069
 N762 N 0.94504 0.28080 0.94186
 C763 C 0.90293 0.26105 0.89513
 C764 C 0.88822 0.26143 0.87901
 C765 C 0.87061 0.26195 0.85992
 N766 N 0.86717 0.24276 0.84527
 N767 N 0.85065 0.24318 0.82770
 C768 C 0.83697 0.26280 0.82414
 N769 N 0.84056 0.28198 0.83889
 N770 N 0.85708 0.28157 0.85645
 N771 N 0.42449 0.77634 0.42115
 C772 C 0.41627 0.75553 0.41189
 N773 N 0.42483 0.73478 0.42097
 N774 N 0.44115 0.73484 0.43876
 C775 C 0.44944 0.75566 0.44806
 N776 N 0.44081 0.77640 0.43893
 C777 C 0.39874 0.75551 0.39269
 C778 C 0.38400 0.75566 0.37658
 C779 C 0.36638 0.75604 0.35748
 N780 N 0.36300 0.73682 0.34286
 N781 N 0.34653 0.73718 0.32523
 C782 C 0.33286 0.75678 0.32155
 N783 N 0.33638 0.77600 0.33627
 N784 N 0.35284 0.77565 0.35390
 N785 N 0.23718 0.92624 0.07737
 C786 C 0.25796 0.91745 0.08612
 N787 N 0.27873 0.92556 0.07664
 N788 N 0.27873 0.94199 0.05895
 C789 C 0.25794 0.95084 0.05015
 N790 N 0.23717 0.94267 0.05969
 C791 C 0.25798 0.89972 0.10512
 C792 C 0.25805 0.88478 0.12104
 C793 C 0.25822 0.86690 0.13989
 N794 N 0.27770 0.85315 0.14334
 N795 N 0.27782 0.83641 0.16069
 C796 C 0.25849 0.83280 0.17524
 N797 N 0.23901 0.84668 0.17169
 N798 N 0.23888 0.86343 0.15433
 N799 N 0.74047 0.43035 0.57836
 C800 C 0.76124 0.42184 0.58743
 N801 N 0.78203 0.43010 0.57813
 N802 N 0.78205 0.44640 0.56032
 C803 C 0.76128 0.45497 0.55121
 N804 N 0.74049 0.44665 0.56055
 C805 C 0.76124 0.40431 0.60663
 C806 C 0.76134 0.38955 0.62273
 C807 C 0.76159 0.37190 0.64181
 N808 N 0.78109 0.35821 0.64536
 N809 N 0.78130 0.34169 0.66295
 C810 C 0.76203 0.33826 0.67764
 N811 N 0.74254 0.35209 0.67398
 N812 N 0.74232 0.36861 0.65639
 N813 N 0.71790 0.07802 0.07725
 C814 C 0.73861 0.08676 0.08622
 N815 N 0.75946 0.07820 0.07740
 N816 N 0.75960 0.06140 0.06011
 C817 C 0.73888 0.05261 0.05108
 N818 N 0.71803 0.06122 0.05995
 C819 C 0.73848 0.10477 0.10488
 C820 C 0.73845 0.11985 0.12063
 C821 C 0.73852 0.13770 0.13947
 N822 N 0.73909 0.13138 0.16354
 N823 N 0.73937 0.14793 0.18106
 C824 C 0.73909 0.17141 0.17517
 N825 N 0.73849 0.17763 0.15098
 N826 N 0.73821 0.16107 0.13344
 N827 N 0.25595 0.57425 0.57590
 C828 C 0.23492 0.58266 0.58442
 N829 N 0.21440 0.57364 0.57526
 N830 N 0.21489 0.55675 0.55807
 C831 C 0.23593 0.54830 0.54949
 N832 N 0.25645 0.55736 0.55872
 C833 C 0.23444 0.60081 0.60298
 C834 C 0.23421 0.61599 0.61863
 C835 C 0.23414 0.63396 0.63738
 N836 N 0.23394 0.65731 0.63123
 N837 N 0.23420 0.67396 0.64867
 C838 C 0.23468 0.66789 0.67290
 N839 N 0.23485 0.64443 0.67893
 N840 N 0.23459 0.62778 0.66150
 N841 N 0.92358 0.71706 0.07681
 C842 C 0.91513 0.73800 0.08549
 N843 N 0.92425 0.75861 0.07665
 N844 N 0.94129 0.75829 0.05960
 C845 C 0.94979 0.73735 0.05085
 N846 N 0.94062 0.71673 0.05976
 C847 C 0.89679 0.73837 0.10385
 C848 C 0.88143 0.73875 0.11932
 C849 C 0.86325 0.73929 0.13784
 N850 N 0.86916 0.74022 0.16201
 N851 N 0.85232 0.74084 0.17923
 C852 C 0.82893 0.74056 0.17295
 N853 N 0.82313 0.73961 0.14866
 N854 N 0.83998 0.73898 0.13142
 N855 N 0.42824 0.21806 0.58132
 C856 C 0.41956 0.23901 0.58976
 N857 N 0.42797 0.25961 0.58016
 N858 N 0.44457 0.25928 0.56266
 C859 C 0.45330 0.23833 0.55416
 N860 N 0.44484 0.21772 0.56381
 C861 C 0.40158 0.23937 0.60849
 C862 C 0.38640 0.23964 0.62417
 C863 C 0.36824 0.23988 0.64272
 N864 N 0.36475 0.25944 0.65682
 N865 N 0.34775 0.25967 0.67392
 C866 C 0.33363 0.24037 0.67753
 N867 N 0.33726 0.22082 0.66332
 N868 N 0.35425 0.22057 0.64623
 N869 N 0.07563 0.27737 0.08205
 C870 C 0.08399 0.25636 0.09066
 N871 N 0.07543 0.23581 0.08111
 N872 N 0.05899 0.23626 0.06347
 C873 C 0.05057 0.25728 0.05479
 N874 N 0.05918 0.27782 0.06441
 C875 C 0.10179 0.25589 0.10956
 C876 C 0.11681 0.25560 0.12537
 C877 C 0.13479 0.25539 0.14408
 N878 N 0.13829 0.23579 0.15812
 N879 N 0.15514 0.23559 0.17536
 C880 C 0.16909 0.25497 0.17918
 N881 N 0.16544 0.27457 0.16503
 N882 N 0.14860 0.27478 0.14780
 N883 N 0.57230 0.77769 0.57813
 C884 C 0.58099 0.75704 0.58729
 N885 N 0.57281 0.73614 0.57822
 N886 N 0.55640 0.73590 0.56052
 C887 C 0.54764 0.75656 0.55131
 N888 N 0.55590 0.77746 0.56044
 C889 C 0.59865 0.75734 0.60637
 C890 C 0.61350 0.75773 0.62236
 C891 C 0.63125 0.75839 0.64133
 N892 N 0.63502 0.73921 0.65593
 N893 N 0.65161 0.73982 0.67343
 C894 C 0.66504 0.75962 0.67698
 N895 N 0.66113 0.77879 0.66228
 N896 N 0.64455 0.77819 0.64479
   
