data_POSCAR
  _audit_creation_date              2014-09-24
  _audit_creation_method            'ToBaCCo'
  _symmetry_space_group_name_H-M    'P1'
  _symmetry_Int_Tables_number       1
  _symmetry_cell_setting            triclinic
  loop_
  _symmetry_equiv_pos_as_xyz
 x,y,z
_cell_length_a 52.8647
_cell_length_b 52.5113
_cell_length_c 53.2855
_cell_angle_alpha 90.251200
_cell_angle_beta 89.905400
_cell_angle_gamma 89.944000
loop_
  _atom_site_label
  _atom_site_type_symbol
  _atom_site_fract_x
  _atom_site_fract_y
  _atom_site_fract_z
C1 C 0.24858 0.50202 0.99817
 C2 C 0.74909 0.49696 0.00026
 C3 C 0.00068 0.25183 0.49843
 C4 C 0.99769 0.74848 0.50034
 C5 C 0.49895 -0.00020 0.25195
 C6 C 0.49947 -0.00027 0.74907
 C7 C 0.28692 0.01847 0.47088
 H8 H 0.28622 0.03372 0.48458
 C9 C 0.30428 0.01950 0.45117
 H10 H 0.31681 0.03574 0.44986
 C11 C 0.27171 -0.02143 0.45653
 H12 H 0.25940 -0.03763 0.45901
 C13 C 0.28884 -0.02121 0.43652
 H14 H 0.28922 -0.03719 0.42361
 N15 N 0.27095 -0.00165 0.47309
 C16 C 0.21275 0.03148 0.52128
 H17 H 0.21354 0.01857 0.53702
 C18 C 0.19588 0.05195 0.52166
 H19 H 0.18378 0.05471 0.53786
 C20 C 0.22704 0.04293 0.48069
 H21 H 0.23885 0.03905 0.46456
 C22 C 0.21011 0.06337 0.48009
 H23 H 0.20938 0.07529 0.46358
 Zn24 Zn 0.24928 -0.00152 0.50140
 N25 N 0.22812 0.02756 0.50114
 C26 C 0.27121 0.01803 0.54658
 N27 N 0.27049 -0.00172 0.52999
 C28 C 0.28627 -0.02201 0.53233
 C29 C 0.30344 -0.02319 0.55214
 C30 C 0.28814 0.01765 0.56670
 C31 C 0.21266 -0.03384 0.48098
 C32 C 0.19551 -0.05402 0.48028
 C33 C 0.20890 -0.06588 0.52196
 C34 C 0.22612 -0.04572 0.52169
 N35 N 0.22774 -0.03026 0.50133
 H36 H 0.25907 0.03436 0.54400
 H37 H 0.28559 -0.03724 0.51861
 H38 H 0.31585 -0.03954 0.55352
 H39 H 0.28852 0.03364 0.57960
 H40 H 0.21389 -0.02087 0.46531
 H41 H 0.18365 -0.05651 0.46391
 H42 H 0.20773 -0.07788 0.53840
 H43 H 0.23774 -0.04211 0.53797
 C44 C 0.19429 0.06809 0.50079
 C45 C 0.30547 -0.00056 0.43367
 C46 C 0.19335 -0.07024 0.50104
 C47 C 0.30463 -0.00313 0.56963
 C48 C 0.71182 0.02264 0.53077
 H49 H 0.71247 0.03776 0.51706
 C50 C 0.69460 0.02393 0.55061
 H51 H 0.68213 0.04024 0.55203
 C52 C 0.72698 -0.01724 0.54497
 H53 H 0.73917 -0.03355 0.54237
 C54 C 0.71002 -0.01675 0.56511
 H55 H 0.70967 -0.03264 0.57799
 N56 N 0.72768 0.00238 0.52840
 C57 C 0.78566 0.03401 0.47934
 H58 H 0.78453 0.02081 0.46374
 C59 C 0.80280 0.05419 0.47858
 H60 H 0.81477 0.05644 0.46223
 C61 C 0.77196 0.04646 0.51995
 H62 H 0.76025 0.04307 0.53623
 C63 C 0.78917 0.06663 0.52017
 H64 H 0.79025 0.07886 0.53655
 Zn65 Zn 0.74903 0.00190 0.49985
 N66 N 0.77047 0.03070 0.49968
 C67 C 0.72678 0.02117 0.45491
 N68 N 0.72754 0.00156 0.47148
 C69 C 0.71169 -0.01868 0.46923
 C70 C 0.69445 -0.01998 0.44947
 C71 C 0.70976 0.02068 0.43486
 C72 C 0.78560 -0.03055 0.52003
 C73 C 0.80251 -0.05096 0.52068
 C74 C 0.78856 -0.06325 0.47921
 C75 C 0.77157 -0.04285 0.47954
 N76 N 0.77032 -0.02708 0.49983
 H77 H 0.73898 0.03746 0.45743
 H78 H 0.71239 -0.03379 0.48295
 H79 H 0.68201 -0.03629 0.44814
 H80 H 0.70937 0.03655 0.42196
 H81 H 0.78467 -0.01733 0.53564
 H82 H 0.81452 -0.05336 0.53694
 H83 H 0.78942 -0.07552 0.46284
 H84 H 0.75983 -0.03933 0.46335
 C85 C 0.80485 0.07069 0.49927
 C86 C 0.69345 0.00400 0.56809
 C87 C 0.80426 -0.06752 0.50000
 C88 C 0.69325 -0.00008 0.43198
 C89 C 0.47442 0.21625 1.03925
 H90 H 0.45767 0.21822 1.02779
 C91 C 0.47393 0.20040 1.06022
 H92 H 0.45664 0.19041 1.06482
 C93 C 0.51758 0.22596 1.04639
 H94 H 0.53468 0.23562 1.04068
 C95 C 0.51803 0.21003 1.06730
 H96 H 0.53549 0.20782 1.07766
 N97 N 0.49605 0.22859 1.03269
 C98 C 0.46488 0.28350 0.97930
 H99 H 0.47730 0.28081 0.96345
 C100 C 0.44504 0.30099 0.97763
 H101 H 0.44235 0.31130 0.96029
 C102 C 0.45393 0.27418 1.02136
 H103 H 0.45795 0.26448 1.03871
 C104 C 0.43383 0.29142 1.02049
 H105 H 0.42236 0.29428 1.03711
 Zn106 Zn 0.49716 0.24791 1.00258
 N107 N 0.46885 0.27029 1.00085
 C108 C 0.50228 0.23359 0.95093
 N109 N 0.49734 0.22507 0.97455
 C110 C 0.49236 0.20002 0.97876
 C111 C 0.49154 0.18268 0.95891
 C112 C 0.50211 0.21673 0.93051
 C113 C 0.52643 0.28770 1.02017
 C114 C 0.54670 0.30460 1.02162
 C115 C 0.56714 0.28143 0.98794
 C116 C 0.54646 0.26483 0.98724
 N117 N 0.52652 0.26847 1.00303
 H118 H 0.50679 0.25339 0.94789
 H119 H 0.48889 0.19329 0.99752
 H120 H 0.48739 0.16290 0.96281
 H121 H 0.50609 0.22385 0.91188
 H122 H 0.51039 0.29003 1.03260
 H123 H 0.54599 0.31993 1.03525
 H124 H 0.58273 0.27841 0.97507
 H125 H 0.54642 0.24911 0.97411
 C126 C 0.42919 0.30517 0.99842
 C127 C 0.49606 0.19682 1.07431
 C128 C 0.56733 0.30177 1.00519
 C129 C 0.49642 0.19094 0.93440
 C130 C 0.48092 0.78818 -0.03293
 H131 H 0.46510 0.78743 -0.02004
 C132 C 0.48039 0.80500 -0.05314
 H133 H 0.46402 0.81710 -0.05573
 C134 C 0.52178 0.77379 -0.04466
 H135 H 0.53806 0.76192 -0.04102
 C136 C 0.52225 0.79069 -0.06484
 H137 H 0.53881 0.79135 -0.07681
 N138 N 0.50124 0.77275 -0.02928
 C139 C 0.46991 0.71394 0.01922
 H140 H 0.48382 0.71449 0.03409
 C141 C 0.44986 0.69674 0.02044
 H142 H 0.44848 0.68417 0.03643
 C143 C 0.45540 0.72939 -0.01991
 H144 H 0.45796 0.74170 -0.03589
 C145 C 0.43503 0.71244 -0.01947
 H146 H 0.42194 0.71221 -0.03507
 Zn147 Zn 0.50101 0.75138 -0.00078
 N148 N 0.47222 0.72996 -0.00062
 C149 C 0.48034 0.77425 0.04308
 N150 N 0.50095 0.77291 0.02780
 C151 C 0.52135 0.78820 0.03157
 C152 C 0.52186 0.80522 0.05176
 C153 C 0.47987 0.79132 0.06326
 C154 C 0.53158 0.71337 -0.02088
 C155 C 0.55129 0.69572 -0.02209
 C156 C 0.56640 0.71146 0.01783
 C157 C 0.54637 0.72885 0.01826
 N158 N 0.52955 0.72958 -0.00102
 H159 H 0.46400 0.76251 0.03935
 H160 H 0.53723 0.78720 0.01876
 H161 H 0.53828 0.81723 0.05442
 H162 H 0.46324 0.79221 0.07512
 H163 H 0.51769 0.71407 -0.03575
 H164 H 0.55242 0.68298 -0.03808
 H165 H 0.57948 0.71107 0.03344
 H166 H 0.54403 0.74135 0.03424
 C167 C 0.43209 0.69576 0.00088
 C168 C 0.50132 0.80650 -0.06932
 C169 C 0.56901 0.69451 -0.00250
 C170 C 0.50085 0.80705 0.06782
 C171 C 1.02945 0.47954 0.20963
 H172 H 1.01483 0.46514 0.20940
 C173 C 1.04932 0.47829 0.19239
 H174 H 1.04985 0.46270 0.17902
 C175 C 1.04590 0.51768 0.22700
 H176 H 1.04421 0.53329 0.24016
 C177 C 1.06610 0.51720 0.21005
 H178 H 1.07991 0.53240 0.21061
 N179 N 1.02815 0.49895 0.22654
 C180 C 0.97920 0.46989 0.28572
 H181 H 0.96487 0.48461 0.28592
 C182 C 0.97801 0.45001 0.30296
 H183 H 0.96255 0.44957 0.31630
 C184 C 1.01713 0.45325 0.26845
 H185 H 1.03264 0.45488 0.25533
 C186 C 1.01674 0.43305 0.28544
 H187 H 1.03188 0.41916 0.28495
 Zn188 Zn 0.99946 0.49998 0.24778
 N189 N 0.99848 0.47111 0.26886
 C190 C 0.95291 0.48235 0.22716
 N191 N 0.97070 0.50104 0.22672
 C192 C 0.96935 0.52045 0.20998
 C193 C 0.94940 0.52175 0.19291
 C194 C 0.93263 0.48287 0.21039
 C195 C 1.01979 0.53005 0.28590
 C196 C 1.02098 0.54990 0.30335
 C197 C 0.98222 0.56686 0.28617
 C198 C 0.98182 0.54669 0.26898
 N199 N 1.00049 0.52884 0.26912
 H200 H 0.95464 0.46674 0.24017
 H201 H 0.98399 0.53483 0.20976
 H202 H 0.94882 0.53733 0.17969
 H203 H 0.91880 0.46770 0.21094
 H204 H 1.03413 0.51534 0.28589
 H205 H 1.03645 0.55033 0.31663
 H206 H 0.96706 0.58072 0.28589
 H207 H 0.96630 0.54505 0.25592
 C208 C 0.99704 0.43131 0.30311
 C209 C 1.06793 0.49737 0.19234
 C210 C 1.00193 0.56857 0.30378
 C211 C 0.93074 0.50271 0.19286
 C212 C -0.03129 0.47914 0.78883
 H213 H -0.01628 0.46511 0.78890
 C214 C -0.05118 0.47726 0.80596
 H215 H -0.05134 0.46159 0.81910
 C216 C -0.04873 0.51692 0.77191
 H217 H -0.04743 0.53262 0.75896
 C218 C -0.06897 0.51581 0.78877
 H219 H -0.08321 0.53064 0.78834
 N220 N -0.03047 0.49865 0.77218
 C221 C 0.01899 0.47085 0.71255
 H222 H 0.03304 0.48582 0.71251
 C223 C 0.02055 0.45104 0.69507
 H224 H 0.03599 0.45092 0.68171
 C225 C -0.01858 0.45348 0.72968
 H226 H -0.03409 0.45480 0.74283
 C227 C -0.01781 0.43335 0.71246
 H228 H -0.03268 0.41919 0.71282
 Zn229 Zn -0.00183 0.50040 0.75093
 N230 N -0.00028 0.47167 0.72946
 C231 C 0.04510 0.48356 0.77124
 N232 N 0.02693 0.50191 0.77196
 C233 C 0.02793 0.52129 0.78892
 C234 C 0.04794 0.52296 0.80589
 C235 C 0.06545 0.48445 0.78793
 C236 C -0.02280 0.53037 0.71324
 C237 C -0.02432 0.55028 0.69604
 C238 C 0.01418 0.56770 0.71341
 C239 C 0.01492 0.54747 0.73034
 N240 N -0.00346 0.52936 0.72998
 H241 H 0.04366 0.46796 0.75806
 H242 H 0.01299 0.53538 0.78935
 H243 H 0.04825 0.53852 0.81927
 H244 H 0.07962 0.46956 0.78714
 H245 H -0.03690 0.51545 0.71306
 H246 H -0.03980 0.55055 0.68278
 H247 H 0.02913 0.58177 0.71386
 H248 H 0.03049 0.54599 0.74335
 C249 C 0.00188 0.43201 0.69475
 C250 C -0.07034 0.49583 0.80618
 C251 C -0.00555 0.56921 0.69584
 C252 C 0.06702 0.50430 0.80563
 C253 C 0.06298 0.20092 0.49805
 N254 N 0.05797 0.21541 0.51861
 N255 N 0.03877 0.23186 0.51861
 C256 C 0.02379 0.23448 0.49804
 N257 N 0.02871 0.21969 0.47759
 N258 N 0.04803 0.20338 0.47753
 C259 C 0.08370 0.18229 0.49828
 N260 N 0.09114 0.17050 0.47677
 N261 N 0.10951 0.15312 0.47709
 C262 C 0.12098 0.14675 0.49897
 N263 N 0.11356 0.15856 0.52047
 N264 N 0.09532 0.17608 0.52012
 C265 C 0.14058 0.12693 0.49946
 N266 N 0.14839 0.11695 0.52158
 N267 N 0.16557 0.09837 0.52201
 C268 C 0.17573 0.08919 0.50035
 N269 N 0.16803 0.09937 0.47824
 N270 N 0.15071 0.11781 0.47779
 C271 C 0.69881 0.55991 -0.00258
 N272 N 0.71547 0.55768 0.01663
 N273 N 0.73158 0.53817 0.01745
 C274 C 0.73174 0.52014 -0.00097
 N275 N 0.71496 0.52244 -0.02015
 N276 N 0.69888 0.54195 -0.02097
 C277 C 0.68051 0.58096 -0.00315
 N278 N 0.66377 0.58297 -0.02233
 N279 N 0.64669 0.60163 -0.02256
 C280 C 0.64569 0.61897 -0.00362
 N281 N 0.66250 0.61704 0.01553
 N282 N 0.67960 0.59837 0.01575
 C283 C 0.62633 0.63905 -0.00359
 N284 N 0.62461 0.65592 0.01571
 N285 N 0.60657 0.67367 0.01597
 C286 C 0.58955 0.67525 -0.00305
 N287 N 0.59142 0.65840 -0.02239
 N288 N 0.60943 0.64065 -0.02265
 C289 C 0.93563 -0.20033 0.49934
 N290 N 0.94033 -0.21461 0.51998
 N291 N 0.95947 -0.23112 0.52019
 C292 C 0.97470 -0.23403 0.49977
 N293 N 0.97010 -0.21942 0.47926
 N294 N 0.95084 -0.20306 0.47898
 C295 C 0.91492 -0.18169 0.49929
 N296 N 0.90775 -0.17024 0.47764
 N297 N 0.88937 -0.15286 0.47768
 C298 C 0.87763 -0.14616 0.49941
 N299 N 0.88479 -0.15761 0.52106
 N300 N 0.90303 -0.17514 0.52099
 C301 C 0.85802 -0.12634 0.49959
 N302 N 0.84996 -0.11596 0.52156
 N303 N 0.83277 -0.09739 0.52169
 C304 C 0.82284 -0.08861 0.49988
 N305 N 0.83077 -0.09919 0.47792
 N306 N 0.84811 -0.11763 0.47776
 C307 C 0.29859 0.43885 0.99557
 N308 N 0.29823 0.45620 0.97678
 N309 N 0.28218 0.47577 0.97749
 C310 C 0.26572 0.47869 0.99694
 N311 N 0.26617 0.46125 1.01574
 N312 N 0.28225 0.44171 1.01504
 C313 C 0.31693 0.41783 0.99525
 N314 N 0.31849 0.40151 1.01488
 N315 N 0.33570 0.38296 1.01497
 C316 C 0.35195 0.38002 0.99542
 N317 N 0.35030 0.39625 0.97572
 N318 N 0.33312 0.41483 0.97565
 C319 C 0.37146 0.36009 0.99588
 N320 N 0.38748 0.35694 0.97619
 N321 N 0.40563 0.33934 0.97690
 C322 C 0.40852 0.32424 0.99734
 N323 N 0.39237 0.32738 1.01699
 N324 N 0.37419 0.34495 1.01627
 C325 C 0.93838 0.20103 0.49936
 N326 N 0.95359 0.20356 0.51970
 N327 N 0.97297 0.21975 0.51941
 C328 C 0.97770 0.23436 0.49892
 N329 N 0.96249 0.23162 0.47851
 N330 N 0.94322 0.21528 0.47873
 C331 C 0.91744 0.18269 0.49948
 N332 N 0.90542 0.17638 0.47783
 N333 N 0.88688 0.15921 0.47784
 C334 C 0.87956 0.14788 0.49952
 N335 N 0.89145 0.15433 0.52119
 N336 N 0.91011 0.17136 0.52115
 C337 C 0.85959 0.12846 0.49943
 N338 N 0.84958 0.11992 0.52130
 N339 N 0.83193 0.10184 0.52123
 C340 C 0.82375 0.09145 0.49930
 N341 N 0.83377 0.10007 0.47744
 N342 N 0.85129 0.11829 0.47749
 C343 C 0.29923 0.56453 0.00139
 N344 N 0.28289 0.56213 -0.01809
 N345 N 0.26660 0.54281 -0.01899
 C346 C 0.26593 0.52514 -0.00040
 N347 N 0.28235 0.52764 0.01907
 N348 N 0.29862 0.54696 0.01998
 C349 C 0.31788 0.58524 0.00197
 N350 N 0.33445 0.58726 0.02130
 N351 N 0.35194 0.60550 0.02148
 C352 C 0.35352 0.62239 0.00234
 N353 N 0.33687 0.62046 -0.01695
 N354 N 0.31936 0.60222 -0.01713
 C355 C 0.37338 0.64193 0.00222
 N356 N 0.37562 0.65838 -0.01723
 N357 N 0.39411 0.67561 -0.01758
 C358 C 0.41109 0.67707 0.00150
 N359 N 0.40870 0.66064 0.02099
 N360 N 0.39023 0.64342 0.02135
 C361 C 0.06015 -0.20092 0.50138
 N362 N 0.04484 -0.20324 0.52170
 N363 N 0.02544 -0.21940 0.52140
 C364 C 0.02078 -0.23419 0.50090
 N365 N 0.03609 -0.23168 0.48052
 N366 N 0.05539 -0.21538 0.48076
 C367 C 0.08108 -0.18257 0.50148
 N368 N 0.09317 -0.17647 0.47984
 N369 N 0.11166 -0.15924 0.47981
 C370 C 0.11885 -0.14763 0.50146
 N371 N 0.10689 -0.15388 0.52314
 N372 N 0.08828 -0.17096 0.52314
 C373 C 0.13875 -0.12815 0.50134
 N374 N 0.14863 -0.11931 0.52319
 N375 N 0.16623 -0.10117 0.52308
 C376 C 0.17449 -0.09103 0.50113
 N377 N 0.16458 -0.09994 0.47928
 N378 N 0.14712 -0.11822 0.47937
 C379 C 0.69934 0.43377 1.00427
 N380 N 0.71598 0.43576 0.98496
 N381 N 0.73194 0.45535 0.98377
 C382 C 0.73197 0.47368 1.00190
 N383 N 0.71527 0.47157 1.02121
 N384 N 0.69931 0.45201 1.02238
 C385 C 0.68102 0.41278 1.00519
 N386 N 0.66361 0.41175 1.02390
 N387 N 0.64636 0.39329 1.02437
 C388 C 0.64589 0.37514 1.00616
 N389 N 0.66340 0.37605 0.98751
 N390 N 0.68065 0.39455 0.98703
 C391 C 0.62618 0.35544 1.00631
 N392 N 0.62547 0.33708 0.98830
 N393 N 0.60700 0.31981 0.98810
 C394 C 0.58849 0.32027 1.00585
 N395 N 0.58937 0.33861 1.02389
 N396 N 0.60784 0.35582 1.02414
 C397 C 0.49889 0.06332 1.20309
 N398 N 0.51946 0.04796 1.20484
 N399 N 0.51948 0.02821 1.22043
 C400 C 0.49907 0.02320 1.23517
 N401 N 0.47843 0.03857 1.23323
 N402 N 0.47835 0.05823 1.21751
 C403 C 0.49865 0.08463 1.18535
 N404 N 0.47684 0.09726 1.18029
 N405 N 0.47649 0.11604 1.16355
 C406 C 0.49798 0.12299 1.15141
 N407 N 0.51984 0.11050 1.15663
 N408 N 0.52015 0.09162 1.17324
 C409 C 0.49748 0.14303 1.13229
 N410 N 0.51933 0.15188 1.12219
 N411 N 0.51887 0.16934 1.10413
 C412 C 0.49654 0.17851 1.09536
 N413 N 0.47470 0.16970 1.10559
 N414 N 0.47515 0.15236 1.12377
 C415 C -0.00484 0.69838 0.56252
 N416 N 0.01516 0.71424 0.55942
 N417 N 0.01597 0.73026 0.54011
 C418 C -0.00325 0.73114 0.52319
 N419 N -0.02319 0.71513 0.52634
 N420 N -0.02400 0.69912 0.54563
 C421 C -0.00553 0.68023 0.58340
 N422 N -0.02522 0.66385 0.58587
 N423 N -0.02562 0.64691 0.60440
 C424 C -0.00636 0.64574 0.62117
 N425 N 0.01329 0.66220 0.61878
 N426 N 0.01370 0.67914 0.60023
 C427 C -0.00651 0.62650 0.64109
 N428 N 0.01278 0.62504 0.65780
 N429 N 0.01295 0.60706 0.67537
 C430 C -0.00615 0.58982 0.67691
 N431 N -0.02549 0.59143 0.66022
 N432 N -0.02567 0.60941 0.64267
 C433 C 0.50182 0.93672 -0.20146
 N434 N 0.52195 0.95258 -0.20367
 N435 N 0.52132 0.97205 -0.21960
 C436 C 0.50071 0.97622 -0.23426
 N437 N 0.48056 0.96029 -0.23194
 N438 N 0.48111 0.94094 -0.21587
 C439 C 0.50205 0.91599 -0.18306
 N440 N 0.48032 0.90375 -0.17691
 N441 N 0.48030 0.88564 -0.15948
 C442 C 0.50206 0.87897 -0.14770
 N443 N 0.52384 0.89105 -0.15401
 N444 N 0.52382 0.90931 -0.17130
 C445 C 0.50188 0.85958 -0.12792
 N446 N 0.52388 0.84997 -0.11887
 N447 N 0.52369 0.83285 -0.10049
 C448 C 0.50151 0.82486 -0.09029
 N449 N 0.47953 0.83451 -0.09939
 N450 N 0.47970 0.85147 -0.11791
 C451 C 0.99846 0.30195 0.43626
 N452 N 0.97919 0.30117 0.45308
 N453 N 0.97991 0.28515 0.47236
 C454 C 0.99988 0.26916 0.47557
 N455 N 1.01922 0.27007 0.45872
 N456 N 1.01850 0.28611 0.43942
 C457 C 0.99780 0.32013 0.41540
 N458 N 1.01714 0.32140 0.39865
 N459 N 1.01671 0.33838 0.38013
 C460 C 0.99692 0.35469 0.37771
 N461 N 0.97755 0.35334 0.39440
 N462 N 0.97798 0.33637 0.41290
 C463 C 0.99667 0.37397 0.35782
 N464 N 0.97729 0.39084 0.35623
 N465 N 0.97731 0.40884 0.33870
 C466 C 0.99670 0.41070 0.32204
 N467 N 1.01602 0.39368 0.32358
 N468 N 1.01602 0.37567 0.34114
 C469 C 0.49869 0.93791 0.20057
 N470 N 0.47784 0.95269 0.20372
 N471 N 0.47788 0.97186 0.22017
 C472 C 0.49863 0.97680 0.23444
 N473 N 0.51952 0.96201 0.23113
 N474 N 0.51955 0.94295 0.21454
 C475 C 0.49891 0.91735 0.18182
 N476 N 0.52095 0.90590 0.17508
 N477 N 0.52125 0.88778 0.15749
 C478 C 0.49950 0.88033 0.14613
 N479 N 0.47743 0.89164 0.15300
 N480 N 0.47716 0.90989 0.17046
 C481 C 0.49990 0.86081 0.12631
 N482 N 0.47801 0.85067 0.11754
 N483 N 0.47834 0.83337 0.09918
 C484 C 0.50055 0.82569 0.08873
 N485 N 0.52244 0.83587 0.09755
 N486 N 0.52213 0.85303 0.11604
 C487 C 0.00239 0.30251 0.56061
 N488 N -0.01748 0.28648 0.55743
 N489 N -0.01804 0.27030 0.53811
 C490 C 0.00131 0.26941 0.52126
 N491 N 0.02111 0.28559 0.52449
 N492 N 0.02166 0.30177 0.54379
 C493 C 0.00283 0.32080 0.58154
 N494 N 0.02239 0.33733 0.58408
 N495 N 0.02259 0.35436 0.60268
 C496 C 0.00325 0.35547 0.61944
 N497 N -0.01627 0.33886 0.61697
 N498 N -0.01648 0.32184 0.59835
 C499 C 0.00322 0.37476 0.63948
 N500 N -0.01611 0.37610 0.65623
 N501 N -0.01641 0.39409 0.67395
 C502 C 0.00258 0.41145 0.67560
 N503 N 0.02195 0.40995 0.65886
 N504 N 0.02227 0.39197 0.64116
 C505 C 0.49562 0.06185 0.80007
 N506 N 0.47817 0.04294 0.80061
 N507 N 0.47928 0.02377 0.78423
 C508 C 0.49795 0.02262 0.76668
 N509 N 0.51539 0.04165 0.76615
 N510 N 0.51420 0.06093 0.78247
 C511 C 0.49484 0.08231 0.81893
 N512 N 0.51040 0.10280 0.81727
 N513 N 0.51006 0.12086 0.83495
 C514 C 0.49427 0.11895 0.85499
 N515 N 0.47870 0.09849 0.85658
 N516 N 0.47892 0.08056 0.83885
 C517 C 0.49446 0.13810 0.87515
 N518 N 0.48222 0.13342 0.89703
 N519 N 0.48281 0.15029 0.91573
 C520 C 0.49552 0.17260 0.91327
 N521 N 0.50761 0.17739 0.89125
 N522 N 0.50718 0.16040 0.87257
 C523 C 1.00012 0.69787 0.43811
 N524 N 0.98015 0.71385 0.44121
 N525 N 0.97936 0.73001 0.46055
 C526 C 0.99856 0.73092 0.47750
 N527 N 1.01846 0.71478 0.47435
 N528 N 1.01925 0.69863 0.45504
 C529 C 1.00086 0.67963 0.41715
 N530 N 1.02060 0.66327 0.41462
 N531 N 1.02110 0.64629 0.39599
 C532 C 1.00188 0.64504 0.37918
 N533 N 0.98216 0.66147 0.38163
 N534 N 0.98166 0.67846 0.40029
 C535 C 1.00219 0.62579 0.35910
 N536 N 0.98294 0.62420 0.34235
 N537 N 0.98298 0.60623 0.32460
 C538 C 1.00224 0.58914 0.32294
 N539 N 1.02153 0.59088 0.33967
 N540 N 1.02152 0.60885 0.35739
 C541 C 1.19821 0.49882 0.06012
 N542 N 1.19841 0.48020 0.04240
 N543 N 1.21451 0.48118 0.02319
 C544 C 1.23117 0.50076 0.02096
 N545 N 1.23088 0.51942 0.03875
 N546 N 1.21475 0.51845 0.05797
 C547 C 1.17989 0.49800 0.08085
 N548 N 1.17902 0.51691 0.09831
 N549 N 1.16188 0.51642 0.11668
 C550 C 1.14501 0.49701 0.11825
 N551 N 1.14596 0.47806 0.10087
 N552 N 1.16308 0.47855 0.08251
 C553 C 1.12557 0.49677 0.13798
 N554 N 1.10833 0.47768 0.13895
 N555 N 1.09022 0.47776 0.15636
 C556 C 1.08861 0.49693 0.17350
 N557 N 1.10599 0.51597 0.17256
 N558 N 1.12412 0.51590 0.15514
 C559 C 0.56170 0.00354 0.69886
 N560 N 0.54420 0.02243 0.69975
 N561 N 0.52495 0.02134 0.71586
 C562 C 0.52248 0.00137 0.73185
 N563 N 0.54004 -0.01755 0.73084
 N564 N 0.55929 -0.01646 0.71471
 C565 C 0.58241 0.00433 0.68047
 N566 N 0.59940 -0.01503 0.67889
 N567 N 0.61770 -0.01467 0.66167
 C568 C 0.61968 0.00507 0.64540
 N569 N 0.60277 0.02448 0.64707
 N570 N 0.58447 0.02411 0.66428
 C571 C 0.63932 0.00511 0.62588
 N572 N 0.64091 0.02463 0.60935
 N573 N 0.65824 0.02437 0.59118
 C574 C 0.67467 0.00459 0.58878
 N575 N 0.67311 -0.01488 0.60545
 N576 N 0.65578 -0.01463 0.62363
 C577 C -0.20121 0.49366 0.93776
 N578 N -0.21797 0.51312 0.94010
 N579 N -0.23394 0.51404 0.95945
 C580 C -0.23387 0.49549 0.97720
 N581 N -0.21703 0.47604 0.97475
 N582 N -0.20106 0.47512 0.95541
 C583 C -0.18290 0.49312 0.91699
 N584 N -0.16563 0.47405 0.91520
 N585 N -0.14844 0.47397 0.89689
 C586 C -0.14788 0.49297 0.87971
 N587 N -0.16523 0.51198 0.88141
 N588 N -0.18243 0.51206 0.89973
 C589 C -0.12833 0.49331 0.86009
 N590 N -0.12731 0.51256 0.84320
 N591 N -0.10907 0.51323 0.82593
 C592 C -0.09112 0.49470 0.82487
 N593 N -0.09229 0.47540 0.84173
 N594 N -0.11052 0.47472 0.85900
 C595 C 0.43707 0.00057 0.30271
 N596 N 0.44043 -0.01947 0.28686
 N597 N 0.45959 -0.01971 0.27057
 C598 C 0.47608 0.00013 0.26941
 N599 N 0.47267 0.02009 0.28541
 N600 N 0.45353 0.02033 0.30166
 C601 C 0.41644 0.00069 0.32121
 N602 N 0.41360 0.02068 0.33719
 N603 N 0.39537 0.02066 0.35446
 C604 C 0.37928 0.00064 0.35640
 N605 N 0.38204 -0.01935 0.34035
 N606 N 0.40029 -0.01932 0.32306
 C607 C 0.35967 0.00047 0.37595
 N608 N 0.34374 -0.01963 0.37843
 N609 N 0.32639 -0.01989 0.39662
 C610 C 0.32431 -0.00010 0.41302
 N611 N 0.34024 0.02001 0.41039
 N612 N 0.35756 0.02029 0.39223
 C613 C 0.19865 0.50531 0.93605
 N614 N 0.19889 0.52407 0.95363
 N615 N 0.21493 0.52313 0.97284
 C616 C 0.23146 0.50343 0.97523
 N617 N 0.23115 0.48465 0.95756
 N618 N 0.21510 0.48560 0.93833
 C619 C 0.18025 0.50594 0.91544
 N620 N 0.17938 0.48687 0.89817
 N621 N 0.16208 0.48708 0.88000
 C622 C 0.14503 0.50636 0.87845
 N623 N 0.14599 0.52548 0.89564
 N624 N 0.16328 0.52528 0.91379
 C625 C 0.12536 0.50620 0.85902
 N626 N 0.10779 0.52503 0.85819
 N627 N 0.08945 0.52453 0.84110
 C628 C 0.08792 0.50520 0.82414
 N629 N 0.10564 0.48644 0.82492
 N630 N 0.12399 0.48691 0.84203
 C631 C 0.56152 -0.00174 0.30163
 N632 N 0.54517 -0.02159 0.30027
 N633 N 0.52583 -0.02114 0.28431
 C634 C 0.52209 -0.00088 0.26895
 N635 N 0.53850 0.01902 0.27041
 N636 N 0.55785 0.01858 0.28639
 C637 C 0.58228 -0.00196 0.31990
 N638 N 0.59829 0.01814 0.32197
 N639 N 0.61662 0.01817 0.33912
 C640 C 0.61958 -0.00191 0.35482
 N641 N 0.60365 -0.02205 0.35266
 N642 N 0.58534 -0.02208 0.33552
 C643 C 0.63921 -0.00166 0.37430
 N644 N 0.64146 -0.02146 0.39041
 N645 N 0.65875 -0.02102 0.40855
 C646 C 0.67449 -0.00077 0.41132
 N647 N 0.67228 0.01899 0.39508
 N648 N 0.65497 0.01857 0.37692
 C649 C 0.79960 0.50102 0.06192
 N650 N 0.78305 0.48137 0.05993
 N651 N 0.76687 0.48016 0.04082
 C652 C 0.76652 0.49860 0.02297
 N653 N 0.78316 0.51823 0.02504
 N654 N 0.79933 0.51944 0.04415
 C655 C 0.81803 0.50200 0.08249
 N656 N 0.83493 0.52139 0.08400
 N657 N 0.85217 0.52195 0.10219
 C658 C 0.85316 0.50313 0.11956
 N659 N 0.83619 0.48379 0.11813
 N660 N 0.81893 0.48323 0.09993
 C661 C 0.87273 0.50339 0.13909
 N662 N 0.87420 0.48434 0.15616
 N663 N 0.89244 0.48425 0.17339
 C664 C 0.90994 0.50318 0.17422
 N665 N 0.90832 0.52228 0.15717
 N666 N 0.89009 0.52239 0.13995
 C667 C 0.43683 -0.00305 0.69953
 N668 N 0.43936 0.01666 0.71590
 N669 N 0.45876 0.01747 0.73182
 C670 C 0.47639 -0.00143 0.73203
 N671 N 0.47376 -0.02112 0.71557
 N672 N 0.45436 -0.02193 0.69970
 C673 C 0.41598 -0.00363 0.68135
 N674 N 0.41377 -0.02334 0.66494
 N675 N 0.39538 -0.02359 0.64789
 C676 C 0.37852 -0.00413 0.64659
 N677 N 0.38065 0.01555 0.66307
 N678 N 0.39905 0.01580 0.68015
 C679 C 0.35881 -0.00413 0.62720
 N680 N 0.34243 0.01567 0.62511
 N681 N 0.32507 0.01590 0.60700
 C682 C 0.32341 -0.00364 0.59027
 N683 N 0.33976 -0.02348 0.59252
 N684 N 0.35711 -0.02372 0.61061
   
