data_POSCAR
  _audit_creation_date              2014-09-24
  _audit_creation_method            'ToBaCCo'
  _symmetry_space_group_name_H-M    'P1'
  _symmetry_Int_Tables_number       1
  _symmetry_cell_setting            triclinic
  loop_
  _symmetry_equiv_pos_as_xyz
 x,y,z
_cell_length_a 56.9271
_cell_length_b 56.0161
_cell_length_c 56.8953
_cell_angle_alpha 90.001200
_cell_angle_beta 90.012200
_cell_angle_gamma 90.019200
loop_
  _atom_site_label
  _atom_site_type_symbol
  _atom_site_fract_x
  _atom_site_fract_y
  _atom_site_fract_z
N1 N 0.62462 0.62529 0.62512
 N2 N 0.87511 0.37513 0.12504
 N3 N 0.37506 0.12520 -0.12505
 N4 N 0.12461 0.87507 0.37485
 N5 N 0.09790 0.16303 0.11389
 N6 N 0.08875 0.15333 0.13281
 C7 C 0.06967 0.16594 0.13925
 C8 C 0.06665 0.18459 0.12350
 C9 C 0.08497 0.18211 0.10764
 H10 H 0.05871 0.16174 0.15417
 H11 H 0.08880 0.19341 0.09273
 Cu12 Cu 0.10272 0.12515 0.14711
 Cu13 Cu 0.12592 0.15029 0.09876
 Cu14 Cu 0.15107 0.10004 0.12395
 N15 N 0.11700 0.09697 0.16110
 N16 N 0.13588 0.08723 0.15192
 C17 C 0.14207 0.06811 0.16483
 C18 C 0.12623 0.06565 0.18317
 C19 C 0.11055 0.08436 0.18019
 H20 H 0.15712 0.05697 0.16117
 H21 H 0.09545 0.08838 0.19098
 N22 N 0.16382 0.11563 0.09563
 N23 N 0.15428 0.13476 0.08607
 C24 C 0.16697 0.14112 0.06711
 C25 C 0.18543 0.12522 0.06453
 C26 C 0.18282 0.10930 0.08298
 H27 H 0.16293 0.15612 0.05588
 H28 H 0.19403 0.09431 0.08705
 H29 H 0.12130 0.11543 0.10971
 H30 H 0.14011 0.13489 0.12856
 N31 N 0.40176 0.83732 0.61390
 N32 N 0.41089 0.84701 0.63284
 C33 C 0.42997 0.83440 0.63928
 C34 C 0.43301 0.81577 0.62352
 C35 C 0.41470 0.81826 0.60764
 H36 H 0.44093 0.83860 0.65422
 H37 H 0.41088 0.80697 0.59272
 Cu38 Cu 0.39690 0.87517 0.64716
 Cu39 Cu 0.37374 0.85006 0.59877
 Cu40 Cu 0.34853 0.90026 0.62400
 N41 N 0.38259 0.90332 0.66117
 N42 N 0.36370 0.91304 0.65199
 C43 C 0.35749 0.93214 0.66492
 C44 C 0.37332 0.93459 0.68328
 C45 C 0.38902 0.91591 0.68028
 H46 H 0.34243 0.94327 0.66127
 H47 H 0.40412 0.91189 0.69108
 N48 N 0.33580 0.88469 0.59565
 N49 N 0.34536 0.86558 0.58608
 C50 C 0.33269 0.85923 0.56709
 C51 C 0.31421 0.87511 0.56452
 C52 C 0.31680 0.89101 0.58299
 H53 H 0.33675 0.84425 0.55585
 H54 H 0.30557 0.90599 0.58707
 H55 H 0.37832 0.88492 0.60976
 H56 H 0.35952 0.86541 0.62858
 N57 N 0.90229 0.66233 0.38673
 N58 N 0.91174 0.65230 0.36813
 C59 C 0.93081 0.66494 0.36167
 C60 C 0.93351 0.68393 0.37707
 C61 C 0.91501 0.68163 0.39276
 H62 H 0.94196 0.66053 0.34694
 H63 H 0.91092 0.69321 0.40738
 Cu64 Cu 0.89822 0.62373 0.35412
 Cu65 Cu 0.87417 0.64970 0.40171
 Cu66 Cu 0.84902 0.59946 0.37656
 N67 N 0.88348 0.59592 0.33987
 N68 N 0.86430 0.58651 0.34874
 C69 C 0.85788 0.56761 0.33563
 C70 C 0.87389 0.56496 0.31745
 C71 C 0.88989 0.58333 0.32076
 H72 H 0.84256 0.55675 0.33902
 H73 H 0.90518 0.58716 0.31016
 N74 N 0.83615 0.61515 0.40476
 N75 N 0.84570 0.63429 0.41430
 C76 C 0.83295 0.64073 0.43320
 C77 C 0.81444 0.62487 0.43575
 C78 C 0.81709 0.60890 0.41734
 H79 H 0.83700 0.65574 0.44441
 H80 H 0.80587 0.59390 0.41328
 H81 H 0.87867 0.61468 0.39123
 H82 H 0.86054 0.63413 0.37169
 N83 N 0.59866 0.33661 -0.11466
 N84 N 0.58986 0.34594 -0.13392
 C85 C 0.57077 0.33332 -0.14036
 C86 C 0.56740 0.31504 -0.12427
 C87 C 0.58551 0.31776 -0.10819
 H88 H 0.56003 0.33729 -0.15551
 H89 H 0.58903 0.30677 -0.09299
 Cu90 Cu 0.60410 0.37374 -0.14868
 Cu91 Cu 0.62650 0.34954 -0.09939
 Cu92 Cu 0.65160 0.39980 -0.12452
 N93 N 0.61808 0.40233 -0.16217
 N94 N 0.63660 0.41244 -0.15263
 C95 C 0.64256 0.43180 -0.16530
 C96 C 0.62694 0.43403 -0.18387
 C97 C 0.61163 0.41495 -0.18126
 H98 H 0.65730 0.44327 -0.16133
 H99 H 0.59677 0.41067 -0.19229
 N100 N 0.66423 0.38437 -0.09608
 N101 N 0.65470 0.36522 -0.08654
 C102 C 0.66732 0.35894 -0.06749
 C103 C 0.68572 0.37491 -0.06484
 C104 C 0.68314 0.39079 -0.08333
 H105 H 0.66328 0.34394 -0.05628
 H106 H 0.69435 0.40580 -0.08738
 H107 H 0.62159 0.38419 -0.11095
 H108 H 0.64117 0.36475 -0.12905
 C109 C -0.07849 0.33280 0.10350
 C110 C -0.07150 0.32194 0.12453
 C111 C -0.08211 0.32862 0.14572
 C112 C -0.09965 0.34608 0.14591
 C113 C -0.10677 0.35708 0.12487
 C114 C -0.09602 0.35027 0.10366
 C115 C -0.05345 0.30396 0.12435
 C116 C -0.03833 0.28890 0.12422
 C117 C -0.02062 0.27128 0.12407
 C118 C -0.00549 0.25623 0.12396
 C119 C 0.01258 0.23826 0.12384
 C120 C 0.01545 0.22320 0.14324
 C121 C 0.03301 0.20574 0.14315
 C122 C 0.04798 0.20311 0.12362
 C123 C 0.04490 0.21838 0.10420
 C124 C 0.02733 0.23581 0.10434
 H125 H -0.07037 0.32780 0.08700
 H126 H -0.07686 0.32030 0.16209
 H127 H -0.10780 0.35091 0.16242
 H128 H -0.10111 0.35863 0.08727
 H129 H 0.00415 0.22496 0.15846
 H130 H 0.03488 0.19451 0.15849
 H131 H 0.05590 0.21684 0.08878
 H132 H 0.02523 0.24736 0.08920
 C133 C 0.57824 0.66764 0.60355
 C134 C 0.57122 0.67848 0.62458
 C135 C 0.58181 0.67178 0.64578
 C136 C 0.59935 0.65432 0.64597
 C137 C 0.60650 0.64334 0.62493
 C138 C 0.59577 0.65017 0.60371
 C139 C 0.55316 0.69645 0.62440
 C140 C 0.53804 0.71151 0.62426
 C141 C 0.52032 0.72912 0.62411
 C142 C 0.50519 0.74417 0.62399
 C143 C 0.48711 0.76213 0.62386
 C144 C 0.48420 0.77715 0.64328
 C145 C 0.46664 0.79460 0.64319
 C146 C 0.45169 0.79726 0.62363
 C147 C 0.45481 0.78203 0.60419
 C148 C 0.47239 0.76460 0.60433
 H149 H 0.57014 0.67267 0.58704
 H150 H 0.57654 0.68008 0.66216
 H151 H 0.60749 0.64947 0.66250
 H152 H 0.60087 0.64184 0.58733
 H153 H 0.49548 0.77536 0.65852
 H154 H 0.46473 0.80580 0.65855
 H155 H 0.44383 0.78359 0.58876
 H156 H 0.47452 0.75309 0.58918
 C157 C 1.08180 0.82853 0.35420
 C158 C 1.07123 0.82183 0.37541
 C159 C 1.07824 0.83268 0.39643
 C160 C 1.09577 0.85017 0.39626
 C161 C 1.10649 0.85701 0.37504
 C162 C 1.09933 0.84601 0.35400
 C163 C 1.05319 0.80382 0.37560
 C164 C 1.03808 0.78873 0.37576
 C165 C 1.02041 0.77106 0.37597
 C166 C 1.00532 0.75596 0.37616
 C167 C 0.98731 0.73792 0.37638
 C168 C 0.97231 0.73579 0.39573
 C169 C 0.95481 0.71826 0.39598
 C170 C 0.95207 0.70257 0.37683
 C171 C 0.96729 0.70491 0.35745
 C172 C 0.98476 0.72245 0.35725
 H173 H 1.07653 0.82022 0.33783
 H174 H 1.07015 0.82766 0.41294
 H175 H 1.10087 0.85852 0.41264
 H176 H 1.10747 0.85087 0.33748
 H177 H 0.97415 0.74765 0.41066
 H178 H 0.94362 0.71697 0.41128
 H179 H 0.96568 0.69335 0.34231
 H180 H 0.99626 0.72397 0.34215
 C181 C 0.40526 0.18459 -0.11991
 C182 C 0.42859 0.17828 -0.12460
 C183 C 0.43426 0.15447 -0.12942
 C184 C 0.41670 0.13702 -0.12956
 C185 C 0.39322 0.14321 -0.12488
 C186 C 0.38768 0.16717 -0.12004
 C187 C 0.44668 0.19623 -0.12449
 C188 C 0.46185 0.21125 -0.12442
 C189 C 0.47962 0.22882 -0.12435
 C190 C 0.49482 0.24381 -0.12431
 C191 C 0.51298 0.26170 -0.12428
 C192 C 0.52741 0.26453 -0.10458
 C193 C 0.54510 0.28186 -0.10455
 C194 C 0.54859 0.29665 -0.12426
 C195 C 0.53393 0.29363 -0.14398
 C196 C 0.51627 0.27628 -0.14396
 H197 H 0.40067 0.20298 -0.11619
 H198 H 0.45226 0.14938 -0.13304
 H199 H 0.42140 0.11866 -0.13315
 H200 H 0.36970 0.17237 -0.11656
 H201 H 0.52500 0.25336 -0.08923
 H202 H 0.55585 0.28371 -0.08899
 H203 H 0.53613 0.30448 -0.15954
 H204 H 0.50521 0.27421 -0.15933
 C205 C 0.10388 -0.07845 0.33203
 C206 C 0.12506 -0.07173 0.32142
 C207 C 0.14609 -0.08254 0.32843
 C208 C 0.14596 -0.10002 0.34597
 C209 C 0.12476 -0.10687 0.35672
 C210 C 0.10372 -0.09591 0.34958
 C211 C 0.12521 -0.05375 0.30335
 C212 C 0.12533 -0.03870 0.28821
 C213 C 0.12548 -0.02108 0.27047
 C214 C 0.12561 -0.00604 0.25533
 C215 C 0.12577 0.01193 0.23725
 C216 C 0.14057 0.00951 0.21778
 C217 C 0.14075 0.02695 0.20020
 C218 C 0.12607 0.04711 0.20184
 C219 C 0.11125 0.04935 0.22153
 C220 C 0.11112 0.03189 0.23909
 H221 H 0.08751 -0.07016 0.32677
 H222 H 0.16258 -0.07751 0.32031
 H223 H 0.16234 -0.10834 0.35106
 H224 H 0.08722 -0.10078 0.35774
 H225 H 0.15197 -0.00590 0.21616
 H226 H 0.15227 0.02444 0.18530
 H227 H 0.09984 0.06464 0.22357
 H228 H 0.09961 0.03397 0.25411
 C229 C 0.64618 0.58294 -0.32847
 C230 C 0.62517 0.57208 -0.32146
 C231 C 0.60397 0.57877 -0.33205
 C232 C 0.60378 0.59625 -0.34959
 C233 C 0.62480 0.60724 -0.35674
 C234 C 0.64601 0.60042 -0.34600
 C235 C 0.62537 0.55406 -0.30343
 C236 C 0.62554 0.53896 -0.28834
 C237 C 0.62575 0.52127 -0.27068
 C238 C 0.62593 0.50615 -0.25560
 C239 C 0.62616 0.48809 -0.23761
 C240 C 0.61202 0.46779 -0.23984
 C241 C 0.61224 0.45022 -0.22238
 C242 C 0.62666 0.45270 -0.20242
 C243 C 0.64082 0.47321 -0.20038
 C244 C 0.64055 0.49076 -0.21786
 H245 H 0.66268 0.57792 -0.32036
 H246 H 0.58762 0.57045 -0.32679
 H247 H 0.58727 0.60109 -0.35774
 H248 H 0.66239 0.60878 -0.35110
 H249 H 0.60084 0.46552 -0.25509
 H250 H 0.60123 0.43467 -0.22472
 H251 H 0.65201 0.47590 -0.18525
 H252 H 0.65155 0.50643 -0.21594
 C253 C 0.36976 1.06572 0.84492
 C254 C 0.37447 1.07195 0.82156
 C255 C 0.37936 1.09574 0.81580
 C256 C 0.37954 1.11323 0.83332
 C257 C 0.37484 1.10713 0.85683
 C258 C 0.36995 1.08320 0.86246
 C259 C 0.37429 1.05395 0.80351
 C260 C 0.37415 1.03888 0.78838
 C261 C 0.37399 1.02126 0.77066
 C262 C 0.37386 1.00621 0.75552
 C263 C 0.37371 0.98825 0.73742
 C264 C 0.35890 0.99068 0.71795
 C265 C 0.35875 0.97326 0.70035
 C266 C 0.37345 0.95311 0.70197
 C267 C 0.38828 0.95087 0.72167
 C268 C 0.38839 0.96831 0.73924
 H269 H 0.36599 1.04736 0.84957
 H270 H 0.38299 1.10076 0.79778
 H271 H 0.38319 1.13157 0.82856
 H272 H 0.36645 1.07806 0.88046
 H273 H 0.34749 1.00607 0.71634
 H274 H 0.34723 0.97576 0.68545
 H275 H 0.39971 0.93559 0.72369
 H276 H 0.39990 0.96623 0.75427
 C277 C 0.89578 0.42156 0.16797
 C278 C 0.87459 0.42823 0.17857
 C279 C 0.85356 0.41742 0.17151
 C280 C 0.85372 0.39999 0.15393
 C281 C 0.87493 0.39317 0.14319
 C282 C 0.89596 0.40413 0.15038
 C283 C 0.87442 0.44615 0.19670
 C284 C 0.87430 0.46115 0.21189
 C285 C 0.87418 0.47870 0.22969
 C286 C 0.87409 0.49369 0.24489
 C287 C 0.87400 0.51158 0.26306
 C288 C 0.85890 0.50932 0.28231
 C289 C 0.85883 0.52666 0.29999
 C290 C 0.87391 0.54655 0.29866
 C291 C 0.88902 0.54862 0.27917
 C292 C 0.88905 0.53126 0.26152
 H293 H 0.91214 0.42983 0.17327
 H294 H 0.83707 0.42243 0.17963
 H295 H 0.83734 0.39166 0.14880
 H296 H 0.91247 0.39929 0.14224
 H297 H 0.84720 0.49412 0.28370
 H298 H 0.84707 0.52429 0.31473
 H299 H 0.90075 0.56370 0.27737
 H300 H 0.90079 0.53321 0.24666
 C301 C 0.34562 0.12970 -0.06614
 C302 C 0.32217 0.12530 -0.07216
 C303 C 0.31615 0.12088 -0.09562
 C304 C 0.33351 0.12085 -0.11299
 C305 C 0.35711 0.12524 -0.10710
 C306 C 0.36299 0.12967 -0.08350
 C307 C 0.30429 0.12530 -0.05427
 C308 C 0.28932 0.12529 -0.03930
 C309 C 0.27179 0.12526 -0.02176
 C310 C 0.25682 0.12525 -0.00678
 C311 C 0.23893 0.12525 0.01109
 C312 C 0.22414 0.14500 0.01373
 C313 C 0.20675 0.14502 0.03108
 C314 C 0.20390 0.12523 0.04608
 C315 C 0.21891 0.10546 0.04326
 C316 C 0.23628 0.10549 0.02589
 H317 H 0.35048 0.13310 -0.04803
 H318 H 0.29805 0.11749 -0.10047
 H319 H 0.32854 0.11758 -0.13108
 H320 H 0.38108 0.13292 -0.07853
 H321 H 0.22607 0.16042 0.00239
 H322 H 0.19573 0.16064 0.03278
 H323 H 0.21720 0.08983 0.05428
 H324 H 0.24761 0.09007 0.02397
 C325 C 0.67038 0.64676 0.58251
 C326 C 0.67748 0.62525 0.57220
 C327 C 0.66715 0.60376 0.57933
 C328 C 0.64979 0.60376 0.59670
 C329 C 0.64255 0.62528 0.60716
 C330 C 0.65302 0.64679 0.59989
 C331 C 0.69536 0.62524 0.55432
 C332 C 0.71034 0.62522 0.53935
 C333 C 0.72789 0.62518 0.52184
 C334 C 0.74288 0.62515 0.50688
 C335 C 0.76080 0.62509 0.48903
 C336 C 0.76344 0.60530 0.47428
 C337 C 0.78085 0.60521 0.45695
 C338 C 0.79591 0.62495 0.45413
 C339 C 0.79307 0.64477 0.46909
 C340 C 0.77564 0.64481 0.48640
 H341 H 0.67828 0.66350 0.57715
 H342 H 0.67249 0.58701 0.57145
 H343 H 0.64185 0.58700 0.60190
 H344 H 0.64785 0.66355 0.60782
 H345 H 0.75207 0.58991 0.47619
 H346 H 0.78255 0.58956 0.44596
 H347 H 0.80413 0.66037 0.46740
 H348 H 0.77372 0.66025 0.49771
 C349 C 0.83256 0.39664 0.07924
 C350 C 0.82226 0.37513 0.07209
 C351 C 0.82938 0.35363 0.08241
 C352 C 0.84672 0.35362 0.09980
 C353 C 0.85717 0.37513 0.10708
 C354 C 0.84991 0.39665 0.09663
 C355 C 0.80440 0.37513 0.05419
 C356 C 0.78944 0.37511 0.03918
 C357 C 0.77193 0.37510 0.02163
 C358 C 0.75696 0.37509 0.00664
 C359 C 0.73909 0.37506 -0.01126
 C360 C 0.72439 0.35523 -0.01398
 C361 C 0.70703 0.35517 -0.03137
 C362 C 0.70413 0.37497 -0.04634
 C363 C 0.71904 0.39482 -0.04343
 C364 C 0.73637 0.39484 -0.02601
 H365 H 0.82721 0.41338 0.07135
 H366 H 0.82149 0.33689 0.07703
 H367 H 0.85191 0.33686 0.10773
 H368 H 0.85783 0.41341 0.10183
 H369 H 0.72637 0.33980 -0.00268
 H370 H 0.69609 0.33949 -0.03313
 H371 H 0.71727 0.41047 -0.05442
 H372 H 0.74763 0.41031 -0.02403
 C373 C 0.17039 0.85357 0.41742
 C374 C 0.17751 0.87507 0.42774
 C375 C 0.16720 0.89657 0.42063
 C376 C 0.14983 0.89659 0.40326
 C377 C 0.14257 0.87507 0.39279
 C378 C 0.15303 0.85356 0.40004
 C379 C 0.19538 0.87506 0.44564
 C380 C 0.21034 0.87505 0.46064
 C381 C 0.22787 0.87505 0.47819
 C382 C 0.24284 0.87506 0.49317
 C383 C 0.26073 0.87508 0.51105
 C384 C 0.26340 0.89485 0.52583
 C385 C 0.28076 0.89489 0.54321
 C386 C 0.29575 0.87510 0.54606
 C387 C 0.29289 0.85530 0.53108
 C388 C 0.27550 0.85531 0.51372
 H389 H 0.17828 0.83683 0.42276
 H390 H 0.17255 0.91331 0.42853
 H391 H 0.14190 0.91334 0.39808
 H392 H 0.14784 0.83680 0.39210
 H393 H 0.25208 0.91027 0.52389
 H394 H 0.28249 0.91053 0.55421
 H395 H 0.30389 0.83967 0.53280
 H396 H 0.27356 0.83988 0.50240
   
