data_POSCAR
  _audit_creation_date              2014-09-24
  _audit_creation_method            'ToBaCCo'
  _symmetry_space_group_name_H-M    'P1'
  _symmetry_Int_Tables_number       1
  _symmetry_cell_setting            triclinic
  loop_
  _symmetry_equiv_pos_as_xyz
 x,y,z
_cell_length_a 36.0863
_cell_length_b 37.1323
_cell_length_c 34.6182
_cell_angle_alpha 91.426300
_cell_angle_beta 89.823400
_cell_angle_gamma 92.439200
loop_
  _atom_site_label
  _atom_site_type_symbol
  _atom_site_fract_x
  _atom_site_fract_y
  _atom_site_fract_z
C1 C 0.19160 0.52902 1.04836
 H2 H 0.19154 0.55047 1.02777
 C3 C 0.16538 0.52782 1.07810
 H4 H 0.14521 0.54856 1.08058
 C5 C 0.21687 0.47485 1.06917
 H6 H 0.23625 0.45373 1.06497
 C7 C 0.19115 0.47261 1.09932
 H8 H 0.19117 0.44995 1.11847
 N9 N 0.21662 0.50276 1.04443
 C10 C 0.30515 0.54906 0.97260
 H11 H 0.30573 0.52857 0.94985
 C12 C 0.33035 0.57862 0.97208
 H13 H 0.35054 0.58087 0.94894
 C14 C 0.27890 0.57063 1.03120
 H15 H 0.25924 0.56709 1.05453
 C16 C 0.30371 0.60063 1.03182
 H17 H 0.30305 0.62013 1.05559
 Zn18 Zn 0.24781 0.50395 1.00048
 N19 N 0.27997 0.54567 1.00175
 C20 C 0.21787 0.53182 0.93202
 N21 N 0.21610 0.50420 0.95717
 C22 C 0.18946 0.47723 0.95392
 C23 C 0.16325 0.47729 0.92435
 C24 C 0.19219 0.53291 0.90203
 C25 C 0.30282 0.45997 1.02709
 C26 C 0.32574 0.43061 1.02724
 C27 C 0.29665 0.40822 0.96809
 C28 C 0.27421 0.43802 0.96905
 N29 N 0.27746 0.46299 0.99848
 H30 H 0.23856 0.55350 0.93567
 H31 H 0.18825 0.45601 0.97480
 H32 H 0.14186 0.45597 0.92224
 H33 H 0.19344 0.55523 0.88243
 H34 H 0.30516 0.48045 1.04983
 H35 H 0.34589 0.42848 1.05011
 H36 H 0.29404 0.38855 0.94451
 H37 H 0.25450 0.44127 0.94613
 C38 C 0.32967 0.60463 1.00197
 C39 C 0.16499 0.49918 1.10362
 C40 C 0.32258 0.40446 0.99751
 C41 C 0.16454 0.50551 0.89834
 C42 C 0.80852 0.52576 -0.04150
 H43 H 0.80936 0.54526 -0.01774
 C44 C 0.83463 0.52849 -0.07113
 H45 H 0.85559 0.55028 -0.07038
 C46 C 0.78075 0.47295 -0.07101
 H47 H 0.76018 0.45098 -0.07040
 C48 C 0.80645 0.47469 -0.10129
 H49 H 0.80540 0.45426 -0.12420
 N50 N 0.78216 0.49846 -0.04205
 C51 C 0.69612 0.54071 0.03302
 H52 H 0.69408 0.52022 0.05469
 C53 C 0.67306 0.57001 0.03513
 H54 H 0.65315 0.57212 0.05847
 C55 C 0.72369 0.56256 -0.02459
 H56 H 0.74286 0.55923 -0.04829
 C57 C 0.70116 0.59224 -0.02357
 H58 H 0.70326 0.61173 -0.04633
 Zn59 Zn 0.75034 0.49645 0.00129
 N60 N 0.72096 0.53762 0.00359
 C61 C 0.78207 0.52088 0.07340
 N62 N 0.78170 0.49509 0.04473
 C63 C 0.80619 0.46823 0.04435
 C64 C 0.83225 0.46634 0.07377
 C65 C 0.80779 0.51999 0.10346
 C66 C 0.69332 0.45164 -0.03080
 C67 C 0.66795 0.42219 -0.03317
 C68 C 0.69389 0.39972 0.02536
 C69 C 0.71881 0.42958 0.02663
 N70 N 0.71816 0.45476 -0.00130
 H71 H 0.76302 0.54250 0.07264
 H72 H 0.80570 0.44852 0.02079
 H73 H 0.85179 0.44497 0.07309
 H74 H 0.80823 0.54070 0.12607
 H75 H 0.69299 0.47233 -0.05225
 H76 H 0.64792 0.42020 -0.05645
 H77 H 0.69416 0.38014 0.04803
 H78 H 0.73808 0.43293 0.05037
 C79 C 0.67560 0.59599 0.00653
 C80 C 0.83364 0.50270 -0.10122
 C81 C 0.66817 0.39605 -0.00476
 C82 C 0.83316 0.49252 0.10348
 C83 C -0.03499 0.29591 0.47353
 H84 H -0.05618 0.29697 0.49566
 C85 C -0.03514 0.31976 0.44306
 H86 H -0.05661 0.33923 0.44164
 C87 C 0.01970 0.27012 0.44920
 H88 H 0.04151 0.25138 0.45222
 C89 C 0.02062 0.29354 0.41822
 H90 H 0.04299 0.29248 0.39731
 N91 N -0.00794 0.27165 0.47598
 C92 C -0.05668 0.18933 0.55050
 H93 H -0.03646 0.18966 0.57353
 C94 C -0.08695 0.16460 0.55076
 H95 H -0.09005 0.14569 0.57400
 C96 C -0.07644 0.21226 0.49096
 H97 H -0.07175 0.23014 0.46716
 C98 C -0.10706 0.18797 0.49011
 H99 H -0.12586 0.18735 0.46574
 Zn100 Zn -0.00859 0.24291 0.52024
 N101 N -0.05196 0.21246 0.52084
 C102 C -0.03459 0.27613 0.59002
 N103 N -0.00707 0.27532 0.56306
 C104 C 0.02162 0.30028 0.56355
 C105 C 0.02337 0.32764 0.59182
 C106 C -0.03396 0.30324 0.61884
 C107 C 0.03570 0.18853 0.49122
 C108 C 0.06619 0.16666 0.48911
 C109 C 0.09024 0.19608 0.54742
 C110 C 0.05929 0.21745 0.54845
 N111 N 0.03307 0.21367 0.52026
 H112 H -0.05762 0.25659 0.58850
 H113 H 0.04266 0.29939 0.54126
 H114 H 0.04587 0.34791 0.59139
 H115 H -0.05643 0.30444 0.63959
 H116 H 0.01420 0.18577 0.46951
 H117 H 0.06817 0.14684 0.46578
 H118 H 0.11105 0.19926 0.56988
 H119 H 0.05629 0.23692 0.57181
 C120 C -0.11220 0.16377 0.52013
 C121 C -0.00698 0.31867 0.41526
 C122 C 0.09379 0.17064 0.51734
 C123 C -0.00485 0.32937 0.61943
 C124 C 0.98147 0.70135 0.52249
 H125 H 0.96110 0.69889 0.49960
 C126 C 0.97972 0.67749 0.55295
 H127 H 0.95793 0.65652 0.55364
 C128 C 1.03542 0.73109 0.54906
 H129 H 1.05748 0.75152 0.54703
 C130 C 1.03469 0.70771 0.58008
 H131 H 1.05604 0.71035 0.60203
 N132 N 1.00883 0.72766 0.52124
 C133 C 0.96172 0.80766 0.44803
 H134 H 0.98225 0.80954 0.42524
 C135 C 0.93101 0.82934 0.44762
 H136 H 0.92783 0.84807 0.42448
 C137 C 0.94133 0.78194 0.50685
 H138 H 0.94582 0.76413 0.53039
 C139 C 0.91028 0.80310 0.50754
 H140 H 0.89089 0.80130 0.53144
 Zn141 Zn 1.00937 0.75720 0.47764
 N142 N 0.96621 0.78444 0.47728
 C143 C 0.98299 0.72304 0.40778
 N144 N 1.01097 0.72570 0.43414
 C145 C 1.03933 0.70273 0.43290
 C146 C 1.04002 0.67529 0.40472
 C147 C 0.98257 0.69584 0.37911
 C148 C 1.05272 0.81447 0.50862
 C149 C 1.08265 0.83939 0.51172
 C150 C 1.10863 0.81328 0.45354
 C151 C 1.07818 0.78874 0.45155
 N152 N 1.05117 0.78961 0.47909
 H153 H 0.96019 0.74091 0.40993
 H154 H 1.06071 0.70496 0.45478
 H155 H 1.06208 0.65638 0.40476
 H156 H 0.95957 0.69297 0.35908
 H157 H 1.03061 0.81485 0.52979
 H158 H 1.08355 0.85920 0.53525
 H159 H 1.12989 0.81270 0.43140
 H160 H 1.07603 0.76931 0.42784
 C161 C 0.90513 0.82706 0.47772
 C162 C 1.00658 0.68071 0.58195
 C163 C 1.11087 0.83875 0.48399
 C164 C 1.01111 0.67148 0.37798
 C165 C 0.45591 -0.01891 0.30235
 H166 H 0.47636 -0.03938 0.30257
 C167 C 0.42753 -0.01916 0.32989
 H168 H 0.42594 -0.04000 0.35125
 C169 C 0.43378 0.03411 0.27521
 H170 H 0.43681 0.05531 0.25450
 C171 C 0.40496 0.03485 0.30226
 H172 H 0.38567 0.05642 0.30201
 N173 N 0.45850 0.00743 0.27570
 C174 C 0.52627 -0.03637 0.18241
 H175 H 0.54757 -0.01505 0.18076
 C176 C 0.52710 -0.06619 0.15708
 H177 H 0.54920 -0.06786 0.13593
 C178 C 0.47130 -0.06002 0.21182
 H179 H 0.44937 -0.05730 0.23285
 C180 C 0.47107 -0.09035 0.18700
 H181 H 0.44909 -0.11101 0.18931
 Zn182 Zn 0.50013 0.00774 0.24218
 N183 N 0.49891 -0.03400 0.20939
 C184 C 0.56669 -0.01842 0.27259
 N185 N 0.54266 0.00887 0.27429
 C186 C 0.54642 0.03592 0.30146
 C187 C 0.57517 0.03612 0.32846
 C188 C 0.59582 -0.01922 0.29900
 C189 C 0.47235 0.04963 0.18395
 C190 C 0.47115 0.07813 0.15849
 C191 C 0.52808 0.10335 0.18648
 C192 C 0.52822 0.07432 0.21149
 N193 N 0.50042 0.04834 0.20998
 H194 H 0.56274 -0.04018 0.25155
 H195 H 0.52648 0.05687 0.30269
 H196 H 0.57756 0.05740 0.35039
 H197 H 0.61440 -0.04138 0.29787
 H198 H 0.45091 0.02835 0.18298
 H199 H 0.44865 0.07892 0.13793
 H200 H 0.55027 0.12392 0.18783
 H201 H 0.55068 0.07244 0.23180
 C202 C 0.49931 -0.09352 0.15945
 C203 C 0.40195 0.00808 0.32996
 C204 C 0.49925 0.10526 0.15976
 C205 C 0.59990 0.00812 0.32739
 C206 C 0.54460 -0.03633 0.69805
 H207 H 0.52263 -0.05709 0.69769
 C208 C 0.57315 -0.03759 0.67085
 H209 H 0.57333 -0.05952 0.64961
 C210 C 0.57054 0.01826 0.72538
 H211 H 0.56895 0.04036 0.74611
 C212 C 0.59966 0.01802 0.69857
 H213 H 0.62066 0.03976 0.69901
 N214 N 0.54381 -0.00878 0.72466
 C215 C 0.47186 -0.05280 0.81557
 H216 H 0.45033 -0.03339 0.81651
 C217 C 0.47086 -0.08128 0.84132
 H218 H 0.44842 -0.08393 0.86205
 C219 C 0.52809 -0.07251 0.78834
 H220 H 0.55081 -0.06862 0.76829
 C221 C 0.52814 -0.10133 0.81353
 H222 H 0.55070 -0.11968 0.81248
 Zn223 Zn 0.50158 -0.00835 0.75734
 N224 N 0.50013 -0.04901 0.78965
 C225 C 0.43223 -0.03489 0.72461
 N226 N 0.46007 -0.00898 0.72391
 C227 C 0.46056 0.01743 0.69735
 C228 C 0.43201 0.01893 0.67047
 C229 C 0.40301 -0.03438 0.69811
 C230 C 0.52996 0.03919 0.81598
 C231 C 0.53041 0.06919 0.84129
 C232 C 0.47349 0.08729 0.81238
 C233 C 0.47408 0.05701 0.78767
 N234 N 0.50218 0.03379 0.78967
 H235 H 0.43275 -0.05608 0.74541
 H236 H 0.48332 0.03736 0.69710
 H237 H 0.43266 0.04017 0.64955
 H238 H 0.38087 -0.05499 0.69879
 H239 H 0.55162 0.02000 0.81746
 H240 H 0.55252 0.07322 0.86224
 H241 H 0.45088 0.10547 0.81069
 H242 H 0.45172 0.05188 0.76737
 C243 C 0.49934 -0.10572 0.84035
 C244 C 0.60084 -0.01010 0.67096
 C245 C 0.50185 0.09344 0.83947
 C246 C 0.40296 -0.00717 0.67083
 C247 C 0.22514 0.04884 0.50659
 C248 C 0.25006 0.04419 0.54174
 C249 C 0.27133 0.01470 0.53856
 C250 C 0.26577 -0.00747 0.50067
 C251 C 0.25151 0.04971 0.47178
 C252 C 0.27277 0.02020 0.46877
 C253 C 0.20265 0.01319 0.50208
 C254 C 0.22377 -0.01617 0.49897
 H255 H 0.25176 0.06313 0.56616
 H256 H 0.28298 -0.03154 0.49815
 H257 H 0.25362 0.07180 0.45178
 H258 H 0.17250 0.01131 0.50143
 C259 C 0.77651 -0.04841 0.49236
 C260 C 0.75080 -0.04956 0.52773
 C261 C 0.72953 -0.02011 0.53146
 C262 C 0.73583 0.00776 0.49965
 C263 C 0.75089 -0.04357 0.45783
 C264 C 0.72959 -0.01419 0.46171
 C265 C 0.79900 -0.01274 0.49671
 C266 C 0.77784 0.01656 0.50057
 H267 H 0.74914 -0.07180 0.54757
 H268 H 0.71858 0.03177 0.50271
 H269 H 0.74890 -0.06227 0.43321
 H270 H 0.82915 -0.01084 0.49719
 C271 C 0.45249 0.28068 0.99649
 C272 C 0.45513 0.25403 0.96208
 C273 C 0.48616 0.23418 0.96282
 C274 C 0.51175 0.24290 0.99762
 C275 C 0.45512 0.25752 1.03240
 C276 C 0.48612 0.23766 1.03287
 C277 C 0.48869 0.30349 0.99577
 C278 C 0.51962 0.28390 0.99635
 H279 H 0.43346 0.24968 0.94054
 H280 H 0.53714 0.22698 0.99811
 H281 H 0.43329 0.25509 1.05398
 H282 H 0.48980 0.33277 0.99490
 C283 C 0.54520 0.71942 0.00503
 C284 C 0.54297 0.74291 -0.03069
 C285 C 0.51215 0.76307 -0.03111
 C286 C 0.48634 0.75777 0.00398
 C287 C 0.54266 0.74582 0.03963
 C288 C 0.51187 0.76597 0.03896
 C289 C 0.50880 0.69691 0.00538
 C290 C 0.47808 0.71679 0.00483
 H291 H 0.56483 0.74518 -0.05225
 H292 H 0.46112 0.77393 0.00357
 H293 H 0.56437 0.74995 0.06116
 H294 H 0.50741 0.66761 0.00580
 C295 C 0.99870 0.44771 0.28613
 C296 C 0.96464 0.44861 0.25991
 C297 C 0.96553 0.47741 0.23619
 C298 C 1.00022 0.50264 0.24067
 C299 C 1.03212 0.44888 0.25870
 C300 C 1.03282 0.47769 0.23497
 C301 C 1.00042 0.48424 0.30774
 C302 C 1.00122 0.51289 0.28390
 H303 H 0.94219 0.42815 0.25971
 H304 H 1.00085 0.52608 0.22129
 H305 H 1.05317 0.42880 0.25799
 H306 H 1.00112 0.48719 0.33905
 C307 C 0.00119 0.55156 0.71392
 C308 C -0.03277 0.55042 0.74063
 C309 C -0.03399 0.52158 0.76431
 C310 C -0.00135 0.49659 0.75932
 C311 C 0.03471 0.55060 0.74087
 C312 C 0.03328 0.52179 0.76458
 C313 C -0.00018 0.51507 0.69228
 C314 C -0.00153 0.48640 0.71607
 H315 H -0.05363 0.57069 0.74111
 H316 H -0.00242 0.47311 0.77866
 H317 H 0.05716 0.57106 0.74160
 H318 H -0.00016 0.51216 0.66096
 C319 C 0.12501 0.14783 0.51590
 C320 C 0.15033 0.12771 0.51433
 C321 C 0.17851 0.10259 0.51206
 C322 C 0.20084 0.07942 0.50978
 C323 C 0.65068 0.62528 0.00690
 C324 C 0.62887 0.64901 0.00677
 C325 C 0.60191 0.67547 0.00626
 C326 C 0.57733 0.69647 0.00570
 C327 C 0.87469 -0.14917 0.47943
 C328 C 0.85003 -0.12833 0.48166
 C329 C 0.82254 -0.10256 0.48500
 C330 C 0.80063 -0.07906 0.48822
 C331 C 0.34702 0.37478 0.99656
 C332 C 0.36862 0.35085 0.99608
 C333 C 0.39552 0.32432 0.99588
 C334 C 0.42016 0.30338 0.99600
 C335 C 0.85899 0.13583 0.51753
 C336 C 0.83649 0.11102 0.51450
 C337 C 0.81262 0.08013 0.51015
 C338 C 0.79495 0.05205 0.50594
 C339 C 0.35734 0.63376 0.00312
 C340 C 0.38209 0.65663 0.00378
 C341 C 0.41318 0.68107 0.00429
 C342 C 0.44168 0.69922 0.00458
 C343 C 0.14063 -0.13426 0.48585
 C344 C 0.16387 -0.11004 0.48808
 C345 C 0.18845 -0.07961 0.49138
 C346 C 0.20652 -0.05169 0.49466
 C347 C 0.64020 0.36720 0.99503
 C348 C 0.61535 0.34444 0.99514
 C349 C 0.58429 0.32000 0.99549
 C350 C 0.55587 0.30174 0.99588
 C351 C 0.49844 0.13465 1.13337
 C352 C 0.49697 0.15887 1.11088
 C353 C 0.49429 0.18678 1.08412
 C354 C 0.49110 0.21020 1.06096
 C355 C 0.00594 0.65530 0.61256
 C356 C 0.00510 0.63310 0.63732
 C357 C 0.00385 0.60605 0.66512
 C358 C 0.00266 0.58198 0.68779
 C359 C 0.49994 0.86554 -0.13240
 C360 C 0.50137 0.84166 -0.10948
 C361 C 0.50409 0.81394 -0.08246
 C362 C 0.50728 0.79057 -0.05922
 C363 C 0.99445 0.34317 0.38668
 C364 C 0.99562 0.36568 0.36222
 C365 C 0.99685 0.39303 0.33472
 C366 C 0.99776 0.41724 0.31222
 C367 C 0.50000 0.87704 0.13514
 C368 C 0.50133 0.85118 0.11344
 C369 C 0.50387 0.82117 0.08778
 C370 C 0.50696 0.79584 0.06568
 C371 C -0.00529 0.35994 0.64566
 C372 C -0.00505 0.38707 0.66544
 C373 C -0.00417 0.42037 0.68587
 C374 C -0.00308 0.44995 0.70095
 C375 C 0.50079 0.12400 0.86591
 C376 C 0.49884 0.14954 0.88798
 C377 C 0.49545 0.17930 0.91385
 C378 C 0.49167 0.20447 0.93603
 C379 C 1.00888 0.64029 0.35255
 C380 C 1.00704 0.61275 0.33342
 C381 C 1.00495 0.57913 0.31360
 C382 C 1.00321 0.54940 0.29888
 C383 C 1.13822 0.49618 0.13129
 C384 C 1.11422 0.49290 0.15537
 C385 C 1.08590 0.48830 0.18319
 C386 C 1.06167 0.48376 0.20680
 C387 C 0.62961 -0.01053 0.64202
 C388 C 0.65306 -0.01166 0.61715
 C389 C 0.67997 -0.01381 0.58754
 C390 C 0.70263 -0.01633 0.56204
 C391 C -0.13890 0.50487 0.86867
 C392 C -0.11531 0.50757 0.84412
 C393 C -0.08722 0.51165 0.81601
 C394 C -0.06301 0.51585 0.79235
 C395 C 0.37363 0.00942 0.35933
 C396 C 0.35027 0.01101 0.38424
 C397 C 0.32319 0.01349 0.41363
 C398 C 0.30020 0.01620 0.43877
 C399 C 0.13659 0.50729 0.86903
 C400 C 0.11293 0.50946 0.84484
 C401 C 0.08512 0.51285 0.81681
 C402 C 0.06141 0.51650 0.79300
 C403 C 0.62820 0.00621 0.35645
 C404 C 0.65160 0.00345 0.38089
 C405 C 0.67879 -0.00117 0.40942
 C406 C 0.70193 -0.00637 0.43348
 C407 C 0.86079 0.49137 0.13320
 C408 C 0.88450 0.48951 0.15740
 C409 C 0.91263 0.48630 0.18510
 C410 C 0.93677 0.48269 0.20845
 C411 C 0.37347 -0.00560 0.64304
 C412 C 0.34943 -0.00287 0.61929
 C413 C 0.32188 0.00184 0.59117
 C414 C 0.29872 0.00707 0.56714
   
