data_POSCAR
  _audit_creation_date              2014-09-24
  _audit_creation_method            'ToBaCCo'
  _symmetry_space_group_name_H-M    'P1'
  _symmetry_Int_Tables_number       1
  _symmetry_cell_setting            triclinic
  loop_
  _symmetry_equiv_pos_as_xyz
 x,y,z
_cell_length_a 33.1163
_cell_length_b 29.0980
_cell_length_c 34.2603
_cell_angle_alpha 90.265500
_cell_angle_beta 89.992100
_cell_angle_gamma 90.146500
loop_
  _atom_site_label
  _atom_site_type_symbol
  _atom_site_fract_x
  _atom_site_fract_y
  _atom_site_fract_z
C1 C 0.23850 0.24353 0.20963
 C2 C 0.24447 0.29073 0.20062
 C3 C 0.27256 0.31659 0.22187
 C4 C 0.29705 0.29654 0.25042
 C5 C 0.29554 0.24802 0.25611
 C6 C 0.26542 0.22265 0.23605
 H7 H 0.26268 0.18617 0.24116
 H8 H 0.27503 0.35315 0.21634
 C9 C 0.79363 0.28480 0.24727
 C10 C 0.79074 0.23664 0.23962
 C11 C 0.75985 0.21105 0.25765
 C12 C 0.73366 0.23114 0.28489
 C13 C 0.74081 0.27694 0.29713
 C14 C 0.76989 0.30336 0.27768
 H15 H 0.77239 0.33938 0.28540
 H16 H 0.75630 0.17491 0.25079
 C17 C 0.71836 0.75018 0.72918
 C18 C 0.72209 0.79862 0.72739
 C19 C 0.75243 0.82064 0.74901
 C20 C 0.77970 0.79612 0.77255
 C21 C 0.77746 0.74719 0.77243
 C22 C 0.74648 0.72523 0.75126
 H23 H 0.74455 0.68805 0.75155
 H24 H 0.75356 0.85785 0.74849
 C25 C 0.25318 0.77976 0.70569
 C26 C 0.25948 0.73374 0.71743
 C27 C 0.23318 0.71393 0.74480
 C28 C 0.20250 0.74005 0.76297
 C29 C 0.20174 0.78836 0.75611
 C30 C 0.22555 0.80696 0.72625
 H31 H 0.22326 0.84322 0.71953
 H32 H 0.23629 0.67767 0.75095
 O33 O 1.04442 -0.08621 0.02185
 O34 O 0.96651 -0.02876 0.08175
 O35 O 0.96636 -0.08944 0.02538
 O36 O 1.04600 -0.02989 0.08075
 O37 O 1.04322 0.02842 0.03974
 O38 O 0.96498 -0.03259 -0.01698
 O39 O 0.96490 0.02834 0.03942
 O40 O 1.04256 -0.02842 -0.01966
 Cu41 Cu 1.00594 -0.06416 0.05686
 Cu42 Cu 1.00370 0.00481 0.00658
 C43 C 1.05628 -0.06725 -0.00953
 C44 C 0.95249 0.00958 0.07049
 C45 C 0.95278 -0.07186 -0.00579
 C46 C 1.05822 0.00927 0.06966
 O47 O 0.54042 0.44230 0.49894
 O48 O 0.46300 0.48161 0.56923
 O49 O 0.46297 0.43180 0.50635
 O50 O 0.54203 0.49045 0.56324
 O51 O 0.53193 0.55415 0.52976
 O52 O 0.45529 0.49395 0.47035
 O53 O 0.45447 0.54431 0.53402
 O54 O 0.53229 0.50601 0.46521
 Cu55 Cu 0.50308 0.45535 0.53814
 Cu56 Cu 0.49255 0.53097 0.49645
 C57 C 0.54923 0.46733 0.46979
 C58 C 0.44550 0.51973 0.56324
 C59 C 0.44624 0.45251 0.47816
 C60 C 0.55030 0.53224 0.55631
 O61 O 0.03520 0.49603 -0.05685
 O62 O -0.04318 0.43350 -0.00357
 O63 O -0.04333 0.48867 -0.06376
 O64 O 0.03374 0.44796 0.00639
 O65 O 0.02378 0.51032 0.04198
 O66 O -0.05494 0.54829 -0.02516
 O67 O -0.05230 0.49310 0.03550
 O68 O 0.02307 0.55847 -0.02181
 Cu69 Cu -0.00352 0.46047 -0.03326
 Cu70 Cu -0.01640 0.53371 0.01115
 C71 C 0.04255 0.53767 -0.04855
 C72 C -0.06015 0.45174 0.02581
 C73 C -0.06214 0.52569 -0.05605
 C74 C 0.04192 0.47258 0.03621
 O75 O 0.52664 0.97571 0.42494
 O76 O 0.45020 0.93830 0.49712
 O77 O 0.44825 0.98664 0.43304
 O78 O 0.52680 0.92378 0.48613
 O79 O 0.53830 0.98497 0.52288
 O80 O 0.46182 1.04939 0.46724
 O81 O 0.46196 1.00113 0.53159
 O82 O 0.53851 1.03736 0.46118
 Cu83 Cu 0.48656 0.95000 0.45663
 Cu84 Cu 0.50132 1.02437 0.49931
 C85 C 0.54556 1.01312 0.43115
 C86 C 0.44341 0.96331 0.52698
 C87 C 0.44206 1.02874 0.44062
 C88 C 0.54565 0.94335 0.51385
 C89 C 1.21051 0.17122 0.18242
 C90 C 1.17882 0.14722 0.16401
 C91 C 1.14190 0.16981 0.15653
 C92 C 1.13640 0.21494 0.16952
 C93 C 1.16763 0.23820 0.18842
 C94 C 1.20588 0.21773 0.19355
 C95 C 1.11104 0.14704 0.13615
 C96 C 1.11623 0.10149 0.12379
 C97 C 1.15238 0.07801 0.13285
 C98 C 1.18365 0.10119 0.15247
 C99 C 1.15661 0.03171 0.12202
 C100 C 1.12549 0.00908 0.10210
 C101 C 1.09025 0.03275 0.09176
 C102 C 1.08572 0.07894 0.10265
 H103 H 1.23933 0.15420 0.18595
 H104 H 1.10787 0.23232 0.16512
 H105 H 1.16154 0.27243 0.19936
 H106 H 1.08302 0.16478 0.12986
 H107 H 1.21168 0.08347 0.15870
 H108 H 1.18391 0.01302 0.12900
 H109 H 1.12927 -0.02666 0.09393
 H110 H 1.05818 0.09697 0.09518
 C111 C 0.69475 0.68595 0.68554
 C112 C 0.66425 0.66267 0.66492
 C113 C 0.62410 0.67903 0.66645
 C114 C 0.61486 0.71704 0.69005
 C115 C 0.64519 0.73913 0.71142
 C116 C 0.68559 0.72475 0.70847
 C117 C 0.59385 0.65701 0.64455
 C118 C 0.60299 0.61796 0.62209
 C119 C 0.64281 0.60038 0.62199
 C120 C 0.67329 0.62326 0.64289
 C121 C 0.65142 0.56000 0.60108
 C122 C 0.62094 0.53737 0.58031
 C123 C 0.58179 0.55550 0.57921
 C124 C 0.57289 0.59585 0.60001
 H125 H 0.72574 0.67428 0.68333
 H126 H 0.58415 0.72958 0.69213
 H127 H 0.63715 0.76794 0.72993
 H128 H 0.56319 0.67002 0.64524
 H129 H 0.70395 0.61022 0.64224
 H130 H 0.68164 0.54583 0.60096
 H131 H 0.62807 0.50617 0.56438
 H132 H 0.54242 0.60942 0.59952
 C133 C -0.17944 0.30809 0.18333
 C134 C -0.15799 0.33913 0.15985
 C135 C -0.13920 0.37790 0.17701
 C136 C -0.14206 0.38482 0.21737
 C137 C -0.16357 0.35392 0.24056
 C138 C -0.18262 0.31492 0.22405
 C139 C -0.11791 0.40913 0.15357
 C140 C -0.11493 0.40190 0.11315
 C141 C -0.13375 0.36304 0.09601
 C142 C -0.15533 0.33209 0.11941
 C143 C -0.13009 0.35531 0.05577
 C144 C -0.10708 0.38504 0.03285
 C145 C -0.08791 0.42352 0.04956
 C146 C -0.09260 0.43226 0.08969
 H147 H -0.19512 0.27967 0.16945
 H148 H -0.12760 0.41419 0.23108
 H149 H -0.16416 0.36008 0.27173
 H150 H -0.10341 0.43881 0.16682
 H151 H -0.16969 0.30230 0.10619
 H152 H -0.14430 0.32574 0.04216
 H153 H -0.10387 0.37763 0.00199
 H154 H -0.07746 0.46151 0.10292
 C155 C 0.29580 0.84181 0.67577
 C156 C 0.31861 0.85918 0.64459
 C157 C 0.32064 0.83434 0.60904
 C158 C 0.29897 0.79318 0.60497
 C159 C 0.27622 0.77625 0.63608
 C160 C 0.27509 0.79987 0.67194
 C161 C 0.34467 0.85073 0.57834
 C162 C 0.36675 0.89164 0.58274
 C163 C 0.36398 0.91693 0.61801
 C164 C 0.33995 0.90057 0.64866
 C165 C 0.38577 0.95793 0.62227
 C166 C 0.41078 0.97332 0.59226
 C167 C 0.41461 0.94801 0.55737
 C168 C 0.39205 0.90734 0.55266
 H169 H 0.29511 0.86016 0.70338
 H170 H 0.29991 0.77384 0.57788
 H171 H 0.25991 0.74421 0.63239
 H172 H 0.34657 0.83139 0.55126
 H173 H 0.33826 0.91975 0.67584
 H174 H 0.38388 0.97782 0.64902
 H175 H 0.42774 1.00478 0.59675
 H176 H 0.39461 0.88756 0.52588
 C177 C -0.20152 0.68028 -0.18595
 C178 C -0.17158 0.65335 -0.16821
 C179 C -0.13037 0.66438 -0.17387
 C180 C -0.11980 0.70099 -0.19830
 C181 C -0.14973 0.72710 -0.21630
 C182 C -0.19082 0.71784 -0.20955
 C183 C -0.10041 0.63903 -0.15472
 C184 C -0.11109 0.60269 -0.12998
 C185 C -0.15222 0.59059 -0.12532
 C186 C -0.18220 0.61601 -0.14446
 C187 C -0.16270 0.55405 -0.10064
 C188 C -0.13287 0.53096 -0.07957
 C189 C -0.09227 0.54385 -0.08317
 C190 C -0.08137 0.57918 -0.10880
 H191 H -0.23312 0.67264 -0.18081
 H192 H -0.08838 0.70957 -0.20335
 H193 H -0.14078 0.75503 -0.23525
 H194 H -0.06886 0.64807 -0.15853
 H195 H -0.21377 0.60727 -0.14034
 H196 H -0.19403 0.54425 -0.09677
 H197 H -0.14160 0.50419 -0.05936
 H198 H -0.04995 0.58947 -0.11103
 C199 C 0.31187 1.18568 0.30233
 C200 C 0.33958 1.16279 0.32638
 C201 C 0.37963 1.17923 0.32948
 C202 C 0.39170 1.21713 0.30736
 C203 C 0.36434 1.23889 0.28265
 C204 C 0.32360 1.22458 0.28044
 C205 C 0.40713 1.15716 0.35421
 C206 C 0.39545 1.11788 0.37495
 C207 C 0.35573 1.10046 0.37087
 C208 C 0.32786 1.12350 0.34718
 C209 C 0.34478 1.05980 0.39006
 C210 C 0.37303 1.03637 0.41276
 C211 C 0.41212 1.05407 0.41765
 C212 C 0.42313 1.09507 0.39904
 H213 H 0.28082 1.17392 0.30204
 H214 H 0.42256 1.22953 0.30864
 H215 H 0.37562 1.26642 0.26452
 H216 H 0.43778 1.17009 0.35680
 H217 H 0.29729 1.11041 0.34441
 H218 H 0.31461 1.04575 0.38701
 H219 H 0.36429 1.00460 0.42684
 H220 H 0.45363 1.10822 0.40228
 C221 C 1.18357 -0.18480 -0.17660
 C222 C 1.16062 -0.15773 -0.15107
 C223 C 1.13537 -0.12301 -0.16622
 C224 C 1.13361 -0.11607 -0.20670
 C225 C 1.15566 -0.14425 -0.23202
 C226 C 1.18023 -0.17938 -0.21723
 C227 C 1.11167 -0.09655 -0.14076
 C228 C 1.11198 -0.10537 -0.10051
 C229 C 1.13697 -0.14041 -0.08545
 C230 C 1.16161 -0.16587 -0.11077
 C231 C 1.13617 -0.15012 -0.04539
 C232 C 1.11023 -0.12600 -0.02055
 C233 C 1.08530 -0.09114 -0.03522
 C234 C 1.08680 -0.08056 -0.07520
 H235 H 1.20310 -0.21127 -0.16495
 H236 H 1.11440 -0.08963 -0.21880
 H237 H 1.15268 -0.13944 -0.26321
 H238 H 1.09223 -0.06995 -0.15235
 H239 H 1.18070 -0.19285 -0.09924
 H240 H 1.15505 -0.17694 -0.03340
 H241 H 1.10958 -0.13467 0.01015
 H242 H 1.06729 -0.05409 -0.08687
 C243 C 0.69853 0.34019 0.32565
 C244 C 0.67516 0.35856 0.35609
 C245 C 0.67151 0.33436 0.39164
 C246 C 0.69219 0.29280 0.39648
 C247 C 0.71553 0.27488 0.36610
 C248 C 0.71826 0.29789 0.33022
 C249 C 0.64692 0.35180 0.42157
 C250 C 0.62588 0.39312 0.41639
 C251 C 0.63028 0.41777 0.38115
 C252 C 0.65486 0.40036 0.35125
 C253 C 0.60955 0.45921 0.37614
 C254 C 0.58400 0.47568 0.40539
 C255 C 0.57856 0.45100 0.44021
 C256 C 0.60004 0.40988 0.44567
 H257 H 0.70045 0.35806 0.29801
 H258 H 0.68999 0.27394 0.42359
 H259 H 0.73104 0.24255 0.37035
 H260 H 0.64377 0.33295 0.44865
 H261 H 0.65781 0.41905 0.32407
 H262 H 0.61269 0.47862 0.34939
 H263 H 0.56787 0.50743 0.40036
 H264 H 0.59625 0.39059 0.47242
 C265 C 0.81459 -0.19184 -0.16462
 C266 C 0.83993 -0.16537 -0.14048
 C267 C 0.85804 -0.12498 -0.15522
 C268 C 0.85068 -0.11185 -0.19378
 C269 C 0.82533 -0.13814 -0.21754
 C270 C 0.80692 -0.17865 -0.20352
 C271 C 0.88301 -0.09814 -0.13115
 C272 C 0.89014 -0.11112 -0.09243
 C273 C 0.87210 -0.15153 -0.07760
 C274 C 0.84705 -0.17837 -0.10169
 C275 C 0.87967 -0.16456 -0.03895
 C276 C 0.90530 -0.13818 -0.01538
 C277 C 0.92357 -0.09806 -0.02990
 C278 C 0.91546 -0.08453 -0.06844
 H279 H 0.79951 -0.22160 -0.15245
 H280 H 0.86450 -0.08111 -0.20560
 H281 H 0.82106 -0.12722 -0.24742
 H282 H 0.89688 -0.06717 -0.14256
 H283 H 0.83321 -0.20937 -0.09030
 H284 H 0.86611 -0.19541 -0.02707
 H285 H 0.91107 -0.14940 0.01419
 H286 H 0.92961 -0.05389 -0.08012
 C287 C 0.31836 0.32407 0.31693
 C288 C 0.34162 0.35266 0.34120
 C289 C 0.36631 0.38710 0.32453
 C290 C 0.36760 0.39200 0.28386
 C291 C 0.34515 0.36259 0.25986
 C292 C 0.32062 0.32814 0.27611
 C293 C 0.38980 0.41557 0.34870
 C294 C 0.38986 0.40912 0.38926
 C295 C 0.36563 0.37418 0.40586
 C296 C 0.34118 0.34668 0.38179
 C297 C 0.36700 0.36660 0.44622
 C298 C 0.39284 0.39262 0.46981
 C299 C 0.41691 0.42746 0.45363
 C300 C 0.41476 0.43612 0.41339
 H301 H 0.29901 0.29805 0.32969
 H302 H 0.38645 0.41809 0.27057
 H303 H 0.34738 0.36630 0.22850
 H304 H 0.40870 0.44201 0.33590
 H305 H 0.32259 0.31992 0.39455
 H306 H 0.34876 0.33989 0.45941
 H307 H 0.39414 0.38546 0.50079
 H308 H 0.43377 0.46249 0.40066
 C309 C 0.18257 0.68017 -0.18962
 C310 C 0.15332 0.66020 -0.16520
 C311 C 0.11371 0.67815 -0.16434
 C312 C 0.10361 0.71467 -0.18877
 C313 C 0.13256 0.73385 -0.21335
 C314 C 0.17289 0.71812 -0.21338
 C315 C 0.08465 0.65904 -0.13941
 C316 C 0.09437 0.62134 -0.11595
 C317 C 0.13375 0.60259 -0.11746
 C318 C 0.16311 0.62254 -0.14162
 C319 C 0.14287 0.56357 -0.09532
 C320 C 0.11308 0.54284 -0.07250
 C321 C 0.07418 0.56164 -0.07049
 C322 C 0.06503 0.60126 -0.09179
 H323 H 0.21320 0.66729 -0.18853
 H324 H 0.07315 0.72820 -0.18917
 H325 H 0.12297 0.76082 -0.23289
 H326 H 0.05433 0.67307 -0.13869
 H327 H 0.19336 0.60835 -0.14250
 H328 H 0.17276 0.54854 -0.09628
 H329 H 0.12033 0.51202 -0.05634
 H330 H 0.03469 0.61517 -0.09077
 C331 C 0.70223 1.15939 0.31285
 C332 C 0.66885 1.13609 0.32874
 C333 C 0.63110 1.15862 0.33122
 C334 C 0.62669 1.20272 0.31569
 C335 C 0.65972 1.22515 0.29922
 C336 C 0.69810 1.20461 0.29905
 C337 C 0.59853 1.13716 0.34983
 C338 C 0.60300 1.09321 0.36571
 C339 C 0.63991 1.06938 0.36128
 C340 C 0.67273 1.09110 0.34297
 C341 C 0.64360 1.02475 0.37632
 C342 C 0.61168 1.00488 0.39715
 C343 C 0.57601 1.02963 0.40348
 C344 C 0.57148 1.07333 0.38710
 H345 H 0.73157 1.14299 0.31237
 H346 H 0.59780 1.22009 0.31666
 H347 H 0.65550 1.25924 0.28736
 H348 H 0.56996 1.15504 0.35267
 H349 H 0.70142 1.07342 0.34053
 H350 H 0.67150 1.00578 0.37294
 H351 H 0.61556 0.97123 0.40998
 H352 H 0.54378 1.09232 0.39205
 C353 C 0.20096 0.35348 0.17406
 C354 C 0.17689 0.37162 0.14424
 C355 C 0.17592 0.34989 0.10721
 C356 C 0.20019 0.31130 0.10028
 C357 C 0.22389 0.29330 0.13022
 C358 C 0.22352 0.31341 0.16759
 C359 C 0.15003 0.36642 0.07807
 C360 C 0.12493 0.40421 0.08560
 C361 C 0.12678 0.42658 0.12232
 C362 C 0.15280 0.41025 0.15132
 C363 C 0.10201 0.46452 0.12974
 C364 C 0.07504 0.47971 0.10139
 C365 C 0.07213 0.45717 0.06509
 C366 C 0.09751 0.41959 0.05724
 H367 H 0.20061 0.36907 0.20286
 H368 H 0.20011 0.29442 0.07203
 H369 H 0.24158 0.26270 0.12465
 H370 H 0.14887 0.34936 0.04987
 H371 H 0.15368 0.42703 0.17966
 H372 H 0.10315 0.48215 0.15766
 H373 H 0.05588 0.50876 0.10825
 H374 H 0.09574 0.40212 0.02927
 C375 C 0.68939 0.81861 0.66344
 C376 C 0.66344 0.84608 0.64114
 C377 C 0.64372 0.88393 0.65879
 C378 C 0.64986 0.89326 0.69850
 C379 C 0.67511 0.86527 0.72062
 C380 C 0.69499 0.82770 0.70340
 C381 C 0.61796 0.91164 0.63660
 C382 C 0.61095 0.90148 0.59714
 C383 C 0.63015 0.86322 0.57961
 C384 C 0.65661 0.83606 0.60160
 C385 C 0.62211 0.85238 0.54048
 C386 C 0.59487 0.87876 0.51905
 C387 C 0.57580 0.91696 0.53613
 C388 C 0.58437 0.92848 0.57511
 H389 H 0.70505 0.79002 0.64989
 H390 H 0.63488 0.92199 0.71254
 H391 H 0.67896 0.87275 0.75140
 H392 H 0.60297 0.94072 0.65016
 H393 H 0.67140 0.80680 0.58811
 H394 H 0.63645 0.82313 0.52659
 H395 H 0.58873 0.86930 0.48901
 H396 H 0.56938 0.95756 0.58865
 C397 C 0.81169 0.17457 0.19201
 C398 C 0.84164 0.14842 0.17330
 C399 C 0.88280 0.15993 0.17859
 C400 C 0.89332 0.19652 0.20330
 C401 C 0.86343 0.22123 0.22293
 C402 C 0.82228 0.21105 0.21718
 C403 C 0.91280 0.13436 0.15952
 C404 C 0.90226 0.09664 0.13599
 C405 C 0.86116 0.08419 0.13162
 C406 C 0.83109 0.11051 0.14991
 C407 C 0.85086 0.04567 0.10886
 C408 C 0.88094 0.02021 0.09006
 C409 C 0.92154 0.03317 0.09354
 C410 C 0.93218 0.07123 0.11656
 H411 H 0.78016 0.16627 0.18721
 H412 H 0.92472 0.20545 0.20808
 H413 H 0.87258 0.24812 0.24302
 H414 H 0.94434 0.14357 0.16324
 H415 H 0.79957 0.10126 0.14622
 H416 H 0.81957 0.03551 0.10531
 H417 H 0.87248 -0.00890 0.07197
 H418 H 0.96367 0.08122 0.11897
 C419 C 0.28997 0.66254 0.68722
 C420 C 0.32297 0.63989 0.66992
 C421 C 0.36089 0.66235 0.66798
 C422 C 0.36588 0.70558 0.68539
 C423 C 0.33323 0.72739 0.70308
 C424 C 0.29467 0.70706 0.70275
 C425 C 0.39305 0.64175 0.64804
 C426 C 0.38807 0.59867 0.63032
 C427 C 0.35100 0.57481 0.63410
 C428 C 0.31855 0.59573 0.65369
 C429 C 0.34686 0.53089 0.61736
 C430 C 0.37860 0.51166 0.59584
 C431 C 0.41449 0.53643 0.59031
 C432 C 0.41934 0.57955 0.60804
 H433 H 0.26045 0.64636 0.68730
 H434 H 0.39490 0.72287 0.68481
 H435 H 0.33779 0.76100 0.71608
 H436 H 0.42174 0.65963 0.64570
 H437 H 0.28975 0.57805 0.65567
 H438 H 0.31885 0.51188 0.62022
 H439 H 0.37452 0.47837 0.58208
 H440 H 0.44726 0.59848 0.60385
   
