data_POSCAR
  _audit_creation_date              2014-09-24
  _audit_creation_method            'ToBaCCo'
  _symmetry_space_group_name_H-M    'P1'
  _symmetry_Int_Tables_number       1
  _symmetry_cell_setting            triclinic
  loop_
  _symmetry_equiv_pos_as_xyz
 x,y,z
_cell_length_a 32.5029
_cell_length_b 32.5247
_cell_length_c 32.6634
_cell_angle_alpha 90.079000
_cell_angle_beta 90.140400
_cell_angle_gamma 90.045300
loop_
  _atom_site_label
  _atom_site_type_symbol
  _atom_site_fract_x
  _atom_site_fract_y
  _atom_site_fract_z
C1 C 0.51949 1.00013 -0.50185
 C2 C 0.47767 0.99987 -0.50214
 C3 C 0.45317 1.00250 -0.54055
 C4 C 0.45301 0.99724 -0.46399
 C5 C 0.54389 1.00279 -0.46341
 C6 C 0.54429 0.99791 -0.53992
 C7 C 0.42317 1.03322 -0.54366
 C8 C 0.39626 1.03431 -0.57686
 C9 C 0.39862 1.00464 -0.60838
 C10 C 0.42996 0.97457 -0.60580
 C11 C 0.45655 0.97322 -0.57197
 C12 C 0.45542 1.02733 -0.43317
 C13 C 0.42840 1.02611 -0.39981
 C14 C 0.39806 0.99531 -0.39731
 C15 C 0.39641 0.96492 -0.42784
 C16 C 0.42361 0.96586 -0.46070
 C17 C 0.54154 0.97259 -0.43280
 C18 C 0.56836 0.97392 -0.39913
 C19 C 0.59840 1.00499 -0.39611
 C20 C 0.59992 1.03552 -0.42641
 C21 C 0.57295 1.03445 -0.45958
 C22 C 0.57377 0.96666 -0.54340
 C23 C 0.60116 0.96611 -0.57610
 C24 C 0.59966 0.99678 -0.60627
 C25 C 0.56923 1.02744 -0.60362
 C26 C 0.54198 1.02825 -0.57042
 H27 H 0.41998 1.05606 -0.51971
 H28 H 0.37325 1.05838 -0.57726
 H29 H 0.43323 0.95110 -0.62912
 H30 H 0.47898 0.94873 -0.56980
 H31 H 0.47729 1.05233 -0.43555
 H32 H 0.43023 1.05008 -0.37684
 H33 H 0.42112 0.94249 -0.48425
 H34 H 0.51987 0.94742 -0.43558
 H35 H 0.56663 0.94984 -0.37634
 H36 H 0.62242 1.06005 -0.42485
 H37 H 0.57536 1.05795 -0.48293
 H38 H 0.57617 0.94309 -0.52011
 H39 H 0.62396 0.94188 -0.57739
 H40 H 0.56749 1.05160 -0.62632
 H41 H 0.52000 1.05312 -0.56788
 H42 H 0.37365 0.94061 -0.42668
 C43 C -0.52256 1.49835 0.00367
 C44 C -0.48090 1.50020 0.00213
 C45 C -0.45794 1.53941 -0.00163
 C46 C -0.45508 1.46269 0.00490
 C47 C -0.54421 1.45846 0.00592
 C48 C -0.54929 1.53535 0.00325
 C49 C -0.42889 1.54323 -0.03303
 C50 C -0.40267 1.57705 -0.03442
 C51 C -0.40494 1.60791 -0.00441
 C52 C -0.43523 1.60501 0.02617
 C53 C -0.46135 1.57077 0.02776
 C54 C -0.45707 1.43175 -0.02505
 C55 C -0.42948 1.39879 -0.02402
 C56 C -0.39888 1.39681 0.00643
 C57 C -0.39739 1.42757 0.03662
 C58 C -0.42527 1.46011 0.03588
 C59 C -0.54937 1.43833 0.04349
 C60 C -0.57441 1.40343 0.04593
 C61 C -0.59352 1.38770 0.01059
 C62 C -0.58676 1.40698 -0.02723
 C63 C -0.56287 1.44253 -0.02939
 C64 C -0.57987 1.53925 0.03317
 C65 C -0.60788 1.57155 0.03182
 C66 C -0.60590 1.60130 0.00060
 C67 C -0.57439 1.59802 -0.02886
 C68 C -0.54672 1.56503 -0.02784
 H69 H -0.42574 1.51930 -0.05592
 H70 H -0.37997 1.57853 -0.05859
 H71 H -0.43756 1.62825 0.04981
 H72 H -0.48310 1.56802 0.05267
 H73 H -0.47895 1.43384 -0.04998
 H74 H -0.43110 1.37574 -0.04792
 H75 H -0.42304 1.48389 0.05904
 H76 H -0.53532 1.45059 0.07103
 H77 H -0.57920 1.38898 0.07538
 H78 H -0.60147 1.39562 -0.05480
 H79 H -0.55937 1.45805 -0.05850
 H80 H -0.58246 1.51692 0.05757
 H81 H -0.63122 1.57290 0.05539
 H82 H -0.57177 1.62013 -0.05347
 H83 H -0.52392 1.56221 -0.05180
 H84 H -0.37432 1.42681 0.06058
 C85 C -0.00057 0.51987 0.49964
 C86 C -0.00028 0.47800 0.49992
 C87 C -0.00209 0.45308 0.46165
 C88 C 0.00194 0.45362 0.53844
 C89 C -0.00267 0.54491 0.53778
 C90 C 0.00114 0.54415 0.46109
 C91 C 0.02763 0.45664 0.43071
 C92 C 0.02734 0.42954 0.39726
 C93 C -0.00205 0.39763 0.39468
 C94 C -0.03212 0.39493 0.42556
 C95 C -0.03215 0.42232 0.45839
 C96 C -0.02777 0.45705 0.56941
 C97 C -0.02699 0.43037 0.60313
 C98 C 0.00290 0.39900 0.60594
 C99 C 0.03296 0.39646 0.57504
 C100 C 0.03250 0.42344 0.54196
 C101 C -0.03316 0.57521 0.54078
 C102 C -0.03352 0.60274 0.57349
 C103 C -0.00343 0.60063 0.60454
 C104 C 0.02642 0.56918 0.60223
 C105 C 0.02710 0.54196 0.56889
 C106 C 0.03197 0.57406 0.45704
 C107 C 0.03181 0.60111 0.42401
 C108 C 0.00086 0.59887 0.39401
 C109 C -0.02932 0.56796 0.39719
 C110 C -0.02942 0.54104 0.43073
 H111 H 0.05170 0.47956 0.43300
 H112 H 0.05107 0.43279 0.37427
 H113 H -0.05558 0.37127 0.42486
 H114 H -0.05528 0.41890 0.48198
 H115 H -0.05218 0.47955 0.56695
 H116 H -0.05072 0.43348 0.62613
 H117 H 0.05565 0.42013 0.51837
 H118 H -0.05635 0.57817 0.51709
 H119 H -0.05733 0.62601 0.57398
 H120 H 0.05017 0.56640 0.62536
 H121 H 0.05148 0.51939 0.56681
 H122 H 0.05572 0.57711 0.48018
 H123 H 0.05570 0.62428 0.42234
 H124 H -0.05369 0.56561 0.37465
 H125 H -0.05398 0.51874 0.43365
 H126 H 0.05680 0.37323 0.57591
 O127 O -0.10652 1.00207 -0.05539
 O128 O 0.10507 0.99766 -0.05680
 O129 O -0.00121 1.05626 -0.10580
 O130 O -0.00087 0.94445 -0.10676
 O131 O -0.00005 0.89415 -0.05692
 O132 O -0.00083 1.10598 -0.05522
 O133 O 0.05468 0.99789 -0.10670
 O134 O -0.05696 1.00282 -0.10589
 Zr135 Zr -0.00083 1.00014 -0.07311
 O136 O 0.03601 0.96195 -0.03862
 O137 O -0.03708 1.03782 -0.03750
 C138 C -0.09484 1.00314 -0.09332
 C139 C 0.09276 0.99722 -0.09459
 C140 C -0.00173 1.09417 -0.09320
 C141 C 0.00016 0.90640 -0.09472
 H142 H 0.05487 1.05400 -0.05514
 O143 O 0.03717 1.03648 -0.03782
 H144 H -0.05617 0.94602 -0.05538
 O145 O -0.03820 0.96330 -0.03796
 O146 O 0.10616 0.99803 0.05354
 O147 O -0.10559 1.00054 0.05489
 O148 O 0.05754 1.10438 0.00203
 O149 O 0.05359 0.89289 -0.00285
 O150 O -0.05773 0.89479 -0.00035
 O151 O -0.05405 1.10640 -0.00048
 O152 O 0.00245 1.05473 0.10517
 O153 O -0.00130 0.94320 0.10427
 O154 O 0.00406 1.10508 0.05544
 O155 O -0.00366 0.89348 0.05379
 O156 O 0.10652 1.05307 0.00013
 O157 O -0.10484 1.05680 -0.00215
 O158 O -0.10683 0.94595 0.00169
 O159 O 0.10442 0.94241 -0.00468
 O160 O 0.05667 1.00007 0.10410
 O161 O -0.05529 0.99818 0.10485
 Zr162 Zr 0.07191 0.99837 -0.00141
 Zr163 Zr -0.07233 1.00081 -0.00044
 Zr164 Zr 0.00110 1.07203 -0.00016
 Zr165 Zr -0.00146 0.92729 -0.00134
 Zr166 Zr 0.00040 0.99918 0.07143
 O167 O -0.03779 0.96272 0.03634
 O168 O 0.03804 1.03599 0.03642
 C169 C 0.09453 0.99938 0.09149
 C170 C -0.09336 0.99902 0.09268
 C171 C 0.09525 1.09124 0.00203
 C172 C 0.09170 0.90462 -0.00486
 C173 C -0.09544 0.90776 0.00145
 C174 C -0.09219 1.09461 -0.00193
 C175 C 0.00428 1.09276 0.09321
 C176 C -0.00337 0.90532 0.09175
 H177 H -0.05345 1.05493 0.05434
 O178 O -0.03631 1.03715 0.03672
 H179 H 0.05401 0.94360 0.05284
 O180 O 0.03656 0.96161 0.03571
 C181 C 0.31265 1.00339 0.30045
 N182 N 0.31037 1.03102 0.33142
 N183 N 0.33886 1.03175 0.36072
 C184 C 0.37074 1.00463 0.36068
 N185 N 0.37296 0.97703 0.32935
 N186 N 0.34461 0.97654 0.29975
 C187 C 0.28039 1.00230 0.26893
 N188 N 0.28602 0.98175 0.23317
 N189 N 0.25649 0.98112 0.20477
 C190 C 0.22015 1.00063 0.21131
 N191 N 0.21448 1.02096 0.24714
 N192 N 0.24413 1.02194 0.27533
 C193 C 0.18747 0.99997 0.18021
 N194 N 0.14846 1.01110 0.19007
 N195 N 0.11875 1.01068 0.16188
 C196 C 0.12709 0.99954 0.12271
 N197 N 0.16614 0.98857 0.11283
 N198 N 0.19575 0.98860 0.14110
 C199 C -0.30981 0.99901 0.30237
 N200 N -0.30397 0.97757 0.33746
 N201 N -0.33295 0.97671 0.36614
 C202 C -0.36886 0.99743 0.36105
 N203 N -0.37466 1.01906 0.32593
 N204 N -0.34573 1.01968 0.29704
 C205 C -0.27753 0.99970 0.27102
 N206 N -0.28511 1.01488 0.23304
 N207 N -0.25571 1.01489 0.20465
 C208 C -0.21763 1.00001 0.21331
 N209 N -0.21003 0.98504 0.25133
 N210 N -0.23948 0.98476 0.27960
 C211 C -0.18526 0.99982 0.18204
 N212 N -0.14567 0.99117 0.19230
 N213 N -0.11629 0.99097 0.16390
 C214 C -0.12552 0.99907 0.12417
 N215 N -0.16513 1.00757 0.11393
 N216 N -0.19444 1.00806 0.14235
 C217 C -0.31196 1.00421 -0.30342
 N218 N -0.34777 0.98324 -0.29845
 N219 N -0.37644 0.98342 -0.32776
 C220 C -0.37048 1.00489 -0.36293
 N221 N -0.33469 1.02592 -0.36764
 N222 N -0.30597 1.02550 -0.33856
 C223 C -0.27983 1.00383 -0.27174
 N224 N -0.24174 1.01871 -0.28014
 N225 N -0.21234 1.01855 -0.25168
 C226 C -0.22003 1.00379 -0.21363
 N227 N -0.25817 0.98901 -0.20513
 N228 N -0.28752 0.98889 -0.23372
 C229 C -0.18754 1.00384 -0.18232
 N230 N -0.19659 0.99590 -0.14256
 N231 N -0.16706 0.99603 -0.11420
 C232 C -0.12738 1.00383 -0.12458
 N233 N -0.11832 1.01167 -0.16436
 N234 N -0.14790 1.01184 -0.19268
 C235 C 0.30825 0.99656 -0.30525
 N236 N 0.30202 0.97562 -0.34064
 N237 N 0.33078 0.97504 -0.36955
 C238 C 0.36684 0.99556 -0.36439
 N239 N 0.37302 1.01668 -0.32897
 N240 N 0.34432 1.01702 -0.29984
 C241 C 0.27618 0.99705 -0.27367
 N242 N 0.28420 1.01154 -0.23548
 N243 N 0.25497 1.01148 -0.20691
 C244 C 0.21663 0.99721 -0.21561
 N245 N 0.20861 0.98292 -0.25385
 N246 N 0.23789 0.98269 -0.28230
 C247 C 0.18440 0.99711 -0.18421
 N248 N 0.14458 0.98955 -0.19448
 N249 N 0.11530 0.98958 -0.16599
 C250 C 0.12485 0.99683 -0.12614
 N251 N 0.16470 1.00422 -0.11588
 N252 N 0.19391 1.00449 -0.14440
 C253 C 0.31925 1.29332 0.01491
 N254 N 0.32308 1.32019 0.04653
 N255 N 0.35181 1.34941 0.04578
 C256 C 0.37744 1.35306 0.01321
 N257 N 0.37366 1.32605 -0.01831
 N258 N 0.34529 1.29653 -0.01733
 C259 C 0.28639 1.26247 0.01457
 N260 N 0.28868 1.22943 -0.01072
 N261 N 0.25820 1.20209 -0.01216
 C262 C 0.22408 1.20714 0.01116
 N263 N 0.22171 1.24024 0.03640
 N264 N 0.25243 1.26734 0.03822
 C265 C 0.19038 1.17729 0.00887
 N266 N 0.15196 1.18729 0.02172
 N267 N 0.12136 1.16009 0.01912
 C268 C 0.12828 1.12183 0.00395
 N269 N 0.16674 1.11184 -0.00869
 N270 N 0.19717 1.13916 -0.00655
 C271 C 0.30570 0.69203 -0.00546
 N272 N 0.30290 0.66135 0.02240
 N273 N 0.33174 0.63247 0.02453
 C274 C 0.36446 0.63274 -0.00132
 N275 N 0.36715 0.66358 -0.02930
 N276 N 0.33844 0.69280 -0.03119
 C277 C 0.27352 0.72349 -0.00750
 N278 N 0.27985 0.75951 -0.02746
 N279 N 0.25063 0.78825 -0.02823
 C280 C 0.21396 0.78175 -0.00945
 N281 N 0.20757 0.74560 0.01019
 N282 N 0.23689 0.71708 0.01130
 C283 C 0.18199 0.81348 -0.00944
 N284 N 0.14292 0.80409 0.00184
 N285 N 0.11399 0.83305 0.00285
 C286 C 0.12322 0.87251 -0.00695
 N287 N 0.16231 0.88191 -0.01821
 N288 N 0.19115 0.85287 -0.01960
 C289 C -0.31496 0.70028 -0.00129
 N290 N -0.35094 0.70536 0.01917
 N291 N -0.37985 0.67624 0.01804
 C292 C -0.37395 0.64121 -0.00391
 N293 N -0.33803 0.63646 -0.02451
 N294 N -0.30908 0.66534 -0.02315
 C295 C -0.28242 0.73148 0.00040
 N296 N -0.24431 0.72260 -0.01400
 N297 N -0.21446 0.75060 -0.01271
 C298 C -0.22169 0.78862 0.00277
 N299 N -0.25984 0.79760 0.01711
 N300 N -0.28967 0.76945 0.01611
 C301 C -0.18883 0.81950 0.00337
 N302 N -0.19731 0.85951 0.01160
 N303 N -0.16749 0.88762 0.01110
 C304 C -0.12810 0.87668 0.00264
 N305 N -0.11958 0.83662 -0.00529
 N306 N -0.14945 0.80857 -0.00508
 C307 C -0.30799 1.30553 0.00289
 N308 N -0.30195 1.34071 0.02441
 N309 N -0.33109 1.36938 0.02589
 C310 C -0.36733 1.36412 0.00574
 N311 N -0.37332 1.32887 -0.01585
 N312 N -0.34426 1.30002 -0.01710
 C313 C -0.27562 1.27423 0.00112
 N314 N -0.28347 1.23635 -0.01453
 N315 N -0.25400 1.20792 -0.01577
 C316 C -0.21559 1.21650 -0.00173
 N317 N -0.20770 1.25445 0.01372
 N318 N -0.23723 1.28277 0.01523
 C319 C -0.18331 1.18508 -0.00261
 N320 N -0.14357 1.19511 0.00560
 N321 N -0.11437 1.16639 0.00540
 C322 C -0.12395 1.12657 -0.00273
 N323 N -0.16369 1.11657 -0.01093
 N324 N -0.19282 1.14533 -0.01102
 C325 C 0.00233 1.30938 0.30365
 N326 N 0.02776 1.34252 0.30233
 N327 N 0.02631 1.37121 0.33154
 C328 C -0.00091 1.36815 0.36300
 N329 N -0.02653 1.33508 0.36380
 N330 N -0.02484 1.30626 0.33491
 C331 C 0.00420 1.27698 0.27229
 N332 N -0.01422 1.24012 0.27897
 N333 N -0.01289 1.21055 0.25076
 C334 C 0.00662 1.21684 0.21462
 N335 N 0.02498 1.25375 0.20784
 N336 N 0.02399 1.28322 0.23625
 C337 C 0.00714 1.18439 0.18325
 N338 N 0.01750 1.19315 0.14398
 N339 N 0.01674 1.16391 0.11536
 C340 C 0.00597 1.12475 0.12502
 N341 N -0.00404 1.11591 0.16436
 N342 N -0.00366 1.14524 0.19290
 C343 C 0.00002 1.31153 -0.30244
 N344 N 0.02714 1.30856 -0.33375
 N345 N 0.02836 1.33716 -0.36281
 C346 C 0.00228 1.36983 -0.36214
 N347 N -0.02489 1.37275 -0.33062
 N348 N -0.02586 1.34429 -0.30124
 C349 C -0.00142 1.27924 -0.27101
 N350 N -0.02094 1.28546 -0.23480
 N351 N -0.02163 1.25601 -0.20641
 C352 C -0.00322 1.21917 -0.21340
 N353 N 0.01603 1.21293 -0.24969
 N354 N 0.01707 1.24247 -0.27786
 C355 C -0.00365 1.18661 -0.18221
 N356 N 0.00652 1.14740 -0.19232
 N357 N 0.00674 1.11788 -0.16407
 C358 C -0.00279 1.12655 -0.12455
 N359 N -0.01288 1.16579 -0.11441
 N360 N -0.01349 1.19524 -0.14276
 C361 C -0.00054 0.68921 -0.30467
 N362 N -0.02765 0.69183 -0.33615
 N363 N -0.02885 0.66291 -0.36498
 C364 C -0.00277 0.63023 -0.36387
 N365 N 0.02440 0.62768 -0.33219
 N366 N 0.02535 0.65648 -0.30306
 C367 C 0.00077 0.72169 -0.27335
 N368 N 0.02041 0.71574 -0.23710
 N369 N 0.02094 0.74528 -0.20873
 C370 C 0.00224 0.78196 -0.21577
 N371 N -0.01713 0.78796 -0.25212
 N372 N -0.01800 0.75832 -0.28029
 C373 C 0.00241 0.81447 -0.18446
 N374 N -0.00831 0.85360 -0.19429
 N375 N -0.00868 0.88302 -0.16583
 C376 C 0.00125 0.87428 -0.12640
 N377 N 0.01189 0.83513 -0.11657
 N378 N 0.01264 0.80581 -0.14510
 C379 C -0.00370 0.68880 0.30191
 N380 N -0.02396 0.65255 0.29699
 N381 N -0.02260 0.62381 0.32610
 C382 C -0.00061 0.63012 0.36103
 N383 N 0.01969 0.66635 0.36568
 N384 N 0.01809 0.69513 0.33680
 C385 C -0.00516 0.72099 0.27036
 N386 N 0.00934 0.75924 0.27879
 N387 N 0.00855 0.78861 0.25043
 C388 C -0.00650 0.78078 0.21242
 N389 N -0.02098 0.74249 0.20390
 N390 N -0.02047 0.71315 0.23240
 C391 C -0.00653 0.81319 0.18107
 N392 N -0.01448 0.80412 0.14124
 N393 N -0.01354 0.83348 0.11281
 C394 C -0.00489 0.87302 0.12319
 N395 N 0.00280 0.88211 0.16306
 N396 N 0.00215 0.85272 0.19143
   
