data_POSCAR
  _audit_creation_date              2014-09-24
  _audit_creation_method            'ToBaCCo'
  _symmetry_space_group_name_H-M    'P1'
  _symmetry_Int_Tables_number       1
  _symmetry_cell_setting            triclinic
  loop_
  _symmetry_equiv_pos_as_xyz
 x,y,z
_cell_length_a 59.4540
_cell_length_b 59.4534
_cell_length_c 21.0201
_cell_angle_alpha 90.000000
_cell_angle_beta 90.000000
_cell_angle_gamma 120.000000
loop_
  _atom_site_label
  _atom_site_type_symbol
  _atom_site_fract_x
  _atom_site_fract_y
  _atom_site_fract_z
C1 C 0.18189 0.49396 0.50070
 C2 C 0.19281 0.49455 0.43958
 C3 C 0.21865 0.49531 0.44156
 C4 C 0.23322 0.49510 0.50014
 C5 C 0.21879 0.49505 0.55880
 C6 C 0.19317 0.49441 0.56094
 C7 C 0.26249 0.49500 0.50030
 C8 C 0.27719 0.49507 0.55890
 C9 C 0.30218 0.49415 0.56098
 C10 C 0.31250 0.49349 0.49983
 C11 C 0.30173 0.49405 0.43950
 C12 C 0.27684 0.49486 0.44166
 H13 H 0.16436 0.49500 0.50219
 H14 H 0.22747 0.49569 0.39635
 H15 H 0.22756 0.49538 0.60407
 H16 H 0.26874 0.49548 0.60407
 H17 H 0.33098 0.49433 0.49841
 H18 H 0.26842 0.49526 0.39640
 C19 C 0.50408 -0.31410 0.50044
 C20 C 0.50360 -0.30342 0.43993
 C21 C 0.50296 -0.27836 0.44216
 C22 C 0.50300 -0.26383 0.50094
 C23 C 0.50303 -0.27840 0.55935
 C24 C 0.50368 -0.30342 0.56105
 C25 C 0.50294 -0.23454 0.50130
 C26 C 0.50276 -0.21999 0.55993
 C27 C 0.50355 -0.19414 0.56197
 C28 C 0.50415 -0.18319 0.50088
 C29 C 0.50366 -0.19446 0.44060
 C30 C 0.50300 -0.22008 0.44268
 H31 H 0.50338 -0.33258 0.50037
 H32 H 0.50254 -0.26997 0.39689
 H33 H 0.50269 -0.27005 0.60476
 H34 H 0.50238 -0.22884 0.60510
 H35 H 0.50313 -0.16564 0.49946
 H36 H 0.50265 -0.22885 0.39739
 C37 C 1.31372 0.81644 0.49951
 C38 C 1.30338 0.80546 0.43843
 C39 C 1.27836 0.77956 0.44050
 C40 C 1.26364 0.76498 0.49914
 C41 C 1.27803 0.77949 0.55775
 C42 C 1.30296 0.80517 0.55982
 C43 C 1.23433 0.73561 0.49951
 C44 C 1.21983 0.72104 0.55829
 C45 C 1.19415 0.69594 0.56046
 C46 C 1.18305 0.68523 0.49999
 C47 C 1.19412 0.69591 0.43944
 C48 C 1.21975 0.72098 0.44110
 H49 H 1.33225 0.83402 0.50092
 H50 H 1.26992 0.77069 0.39533
 H51 H 1.26963 0.77072 0.60305
 H52 H 1.22860 0.72945 0.60359
 H53 H 1.16533 0.66670 0.50005
 H54 H 1.22843 0.72931 0.39567
 C55 C 0.81672 0.50274 0.50174
 C56 C 0.80561 0.50228 0.44116
 C57 C 0.77991 0.50161 0.44315
 C58 C 0.76533 0.50160 0.50176
 C59 C 0.77989 0.50162 0.56034
 C60 C 0.80559 0.50230 0.56229
 C61 C 0.73596 0.50152 0.50168
 C62 C 0.72118 0.50133 0.56015
 C63 C 0.69611 0.50210 0.56197
 C64 C 0.68578 0.50267 0.50083
 C65 C 0.69657 0.50217 0.44059
 C66 C 0.72157 0.50153 0.44290
 H67 H 0.83452 0.50206 0.50176
 H68 H 0.77115 0.50122 0.39780
 H69 H 0.77114 0.50124 0.60568
 H70 H 0.72962 0.50098 0.60538
 H71 H 0.66721 0.50165 0.49933
 H72 H 0.73003 0.50117 0.39768
 C73 C 0.49532 0.31194 0.50135
 C74 C 0.49580 0.30113 0.44115
 C75 C 0.49646 0.27614 0.44360
 C76 C 0.49649 0.26177 0.50248
 C77 C 0.49665 0.27657 0.56085
 C78 C 0.49587 0.30162 0.56252
 C79 C 0.49641 0.23239 0.50268
 C80 C 0.49650 0.21777 0.56121
 C81 C 0.49560 0.19187 0.56319
 C82 C 0.49494 0.18088 0.50203
 C83 C 0.49550 0.19219 0.44168
 C84 C 0.49629 0.21789 0.44397
 H85 H 0.49637 0.33052 0.49979
 H86 H 0.49682 0.26766 0.39841
 H87 H 0.49700 0.26815 0.60613
 H88 H 0.49690 0.22663 0.60639
 H89 H 0.49579 0.16324 0.50061
 H90 H 0.49668 0.22671 0.39872
 C91 C 0.68701 0.18050 0.50227
 C92 C 0.69782 0.19183 0.44200
 C93 C 0.72278 0.21749 0.44449
 C94 C 0.73712 0.23189 0.50335
 C95 C 0.72235 0.21727 0.56173
 C96 C 0.69732 0.19144 0.56348
 C97 C 0.76645 0.26119 0.50352
 C98 C 0.78104 0.27590 0.56204
 C99 C 0.80691 0.30091 0.56397
 C100 C 0.81789 0.31125 0.50282
 C101 C 0.80658 0.30048 0.44250
 C102 C 0.78091 0.27555 0.44480
 H103 H 0.66849 0.16289 0.50073
 H104 H 0.73127 0.22634 0.39931
 H105 H 0.73079 0.22607 0.60696
 H106 H 0.77220 0.26744 0.60721
 H107 H 0.83550 0.32976 0.50137
 H108 H 0.77209 0.26711 0.39956
 O109 O 1.03709 0.55508 0.12715
 O110 O 1.06657 0.55092 0.06483
 C111 C 1.06151 0.56209 0.11353
 O112 O 0.96246 0.43999 0.12521
 O113 O 0.93289 0.44453 0.06407
 C114 C 0.93800 0.43299 0.11196
 O115 O 1.03697 0.47893 0.12840
 O116 O 1.06657 0.51194 0.06483
 C117 C 1.06146 0.49597 0.11422
 O118 O 0.96245 0.51902 0.12537
 O119 O 0.93292 0.48492 0.06406
 C120 C 0.93798 0.50155 0.11202
 Zr121 Zr 0.99977 0.52669 0.08184
 O122 O 0.99835 0.52862 0.18207
 O123 O 1.00153 0.56291 0.07085
 Zr124 Zr 0.99980 0.46940 0.08125
 O125 O 0.99929 0.46419 0.18077
 O126 O 1.00164 0.43515 0.06661
 O127 O 1.02320 0.50975 0.09302
 O128 O 0.97702 0.48665 0.09198
 O129 O 0.96237 0.51919 -0.12204
 O130 O 0.93287 0.48489 -0.06118
 C131 C 0.93791 0.50163 -0.10885
 O132 O 1.03697 0.47846 -0.12492
 O133 O 1.06650 0.51216 -0.06280
 C134 C 1.06140 0.49591 -0.11146
 O135 O 0.96240 0.43993 -0.12294
 O136 O 0.93286 0.44424 -0.06100
 C137 C 0.93793 0.43275 -0.10916
 O138 O 1.03691 0.55481 -0.12548
 O139 O 1.06650 0.55091 -0.06298
 C140 C 1.06140 0.56197 -0.11194
 Zr141 Zr 0.99970 0.52680 -0.07886
 O142 O 0.99962 0.53123 -0.17864
 O143 O 1.00011 0.56207 -0.06329
 Zr144 Zr 0.99970 0.46955 -0.07946
 O145 O 0.99823 0.46627 -0.17971
 O146 O 1.00151 0.43511 -0.06855
 Zr147 Zr 1.04049 0.51849 0.00114
 Zr148 Zr 0.95879 0.47761 0.00133
 O149 O 0.97687 0.48676 -0.08943
 O150 O 1.02312 0.50989 -0.09062
 O151 O 0.97554 0.51880 0.00151
 O152 O 1.02340 0.47752 0.00084
 O153 O 1.02340 0.54238 0.00137
 O154 O 0.97555 0.45318 0.00098
 H155 H 0.96630 0.48135 0.13097
 H156 H 1.03582 0.47100 0.00072
 H157 H 0.96602 0.48133 -0.12820
 H158 H 1.03577 0.56133 0.00131
 H159 H 0.98353 0.42062 0.06332
 H160 H 0.98363 0.42089 -0.05990
 H161 H 1.00705 0.48416 -0.19680
 H162 H 0.99481 0.51419 -0.19751
 H163 H 1.00104 0.56940 -0.10614
 H164 H 0.98371 0.55921 0.06116
 H165 H 1.00707 0.51947 0.19923
 H166 H 0.99638 0.47766 0.20011
 O167 O 0.47997 0.44169 -0.12763
 O168 O 0.51312 0.44527 -0.06428
 C169 C 0.49708 0.43433 -0.11347
 O170 O 0.52052 0.55677 -0.12394
 O171 O 0.48617 0.55194 -0.06319
 C172 C 0.50295 0.56364 -0.11075
 O173 O 0.55642 0.51811 -0.12638
 O174 O 0.55232 0.48444 -0.06427
 C175 C 0.56352 0.50075 -0.11289
 O176 O 0.44107 0.47731 -0.12488
 O177 O 0.44543 0.51127 -0.06334
 C178 C 0.43393 0.49467 -0.11141
 Zr179 Zr 0.47072 0.46966 -0.08131
 O180 O 0.46661 0.46547 -0.18121
 O181 O 0.43579 0.43434 -0.06677
 Zr182 Zr 0.52789 0.52688 -0.08106
 O183 O 0.53008 0.53036 -0.18129
 O184 O 0.56330 0.56181 -0.06753
 O185 O 0.51106 0.48657 -0.09253
 O186 O 0.48788 0.50970 -0.09151
 O187 O 0.44110 0.47739 0.12295
 O188 O 0.44563 0.51146 0.06166
 C189 C 0.43410 0.49484 0.10957
 O190 O 0.55617 0.51794 0.12542
 O191 O 0.55208 0.48428 0.06331
 C192 C 0.56319 0.50052 0.11204
 O193 O 0.52013 0.55646 0.12335
 O194 O 0.48601 0.55185 0.06206
 C195 C 0.50264 0.56344 0.11004
 O196 O 0.48003 0.44181 0.12636
 O197 O 0.51333 0.44551 0.06344
 C198 C 0.49728 0.43458 0.11261
 Zr199 Zr 0.47056 0.46948 0.07926
 O200 O 0.46553 0.46497 0.17885
 O201 O 0.43625 0.43336 0.06537
 Zr202 Zr 0.52781 0.52683 0.07974
 O203 O 0.52997 0.53047 0.17991
 O204 O 0.56399 0.56129 0.06801
 Zr205 Zr 0.51969 0.47788 -0.00071
 Zr206 Zr 0.47876 0.51868 -0.00082
 O207 O 0.48778 0.50952 0.08988
 O208 O 0.51090 0.48648 0.09107
 O209 O 0.45433 0.47747 -0.00108
 O210 O 0.54348 0.51886 -0.00066
 O211 O 0.47870 0.45393 -0.00107
 O212 O 0.51992 0.54311 -0.00071
 H213 H 0.48254 0.51521 -0.13029
 H214 H 0.56245 0.52550 -0.00064
 H215 H 0.48246 0.51494 0.12883
 H216 H 0.47217 0.43499 -0.00115
 H217 H 0.57017 0.56805 -0.11080
 H218 H 0.56025 0.57540 0.05854
 H219 H 0.52063 0.51264 0.19735
 H220 H 0.47894 0.48143 0.19798
 H221 H 0.42187 0.43704 0.05979
 H222 H 0.42953 0.42717 -0.10982
 H223 H 0.47863 0.48264 -0.19977
 H224 H 0.52092 0.51250 -0.19859
 O225 O 0.51957 -0.03827 0.12629
 O226 O 0.48597 -0.06785 0.06405
 C227 C 0.50219 -0.06272 0.11278
 O228 O 0.47892 0.03608 0.12439
 O229 O 0.51308 0.06567 0.06325
 C230 C 0.49641 0.06055 0.11115
 O231 O 0.44302 -0.03846 0.12659
 O232 O 0.44690 -0.06799 0.06383
 C233 C 0.43583 -0.06293 0.11283
 O234 O 0.55842 0.03614 0.12346
 O235 O 0.55360 0.06573 0.06309
 C236 C 0.56528 0.06061 0.11064
 Zr237 Zr 0.52874 -0.00111 0.07991
 O238 O 0.53346 -0.00110 0.17960
 O239 O 0.56361 -0.00144 0.06374
 Zr240 Zr 0.47151 -0.00114 0.08120
 O241 O 0.46981 0.00012 0.18155
 O242 O 0.43604 -0.00162 0.06900
 O243 O 0.48844 -0.02456 0.09195
 O244 O 0.51155 0.02170 0.09095
 O245 O 0.55817 0.03615 -0.12369
 O246 O 0.55379 0.06574 -0.06206
 C247 C 0.56532 0.06062 -0.11004
 O248 O 0.44316 -0.03822 -0.12595
 O249 O 0.44717 -0.06784 -0.06377
 C250 C 0.43609 -0.06269 -0.11251
 O251 O 0.47880 0.03627 -0.12288
 O252 O 0.51299 0.06584 -0.06188
 C253 C 0.49625 0.06075 -0.10961
 O254 O 0.51956 -0.03837 -0.12616
 O255 O 0.48612 -0.06794 -0.06352
 C256 C 0.50229 -0.06284 -0.11245
 Zr257 Zr 0.52833 -0.00109 -0.08073
 O258 O 0.53123 0.00024 -0.18109
 O259 O 0.56332 -0.00157 -0.06868
 Zr260 Zr 0.47116 -0.00104 -0.07947
 O261 O 0.46650 -0.00100 -0.17918
 O262 O 0.43595 -0.00136 -0.06343
 Zr263 Zr 0.47953 -0.04189 0.00017
 Zr264 Zr 0.52043 0.03988 0.00033
 O265 O 0.51117 0.02180 -0.09038
 O266 O 0.48799 -0.02451 -0.09155
 O267 O 0.54482 0.02307 -0.00043
 O268 O 0.45567 -0.02477 0.00081
 O269 O 0.52051 -0.02478 -0.00045
 O270 O 0.47922 0.02308 0.00099
 H271 H 0.51692 0.03247 0.12986
 H272 H 0.43670 -0.03709 0.00092
 H273 H 0.51664 0.03267 -0.12913
 H274 H 0.52716 -0.03710 -0.00061
 H275 H 0.42937 -0.00225 0.11251
 H276 H 0.42849 -0.00242 -0.10617
 H277 H 0.48351 0.00383 -0.19828
 H278 H 0.51327 -0.00879 -0.19780
 H279 H 0.56936 -0.00217 -0.11222
 H280 H 0.57003 -0.00251 0.10646
 H281 H 0.52112 0.00350 0.19877
 H282 H 0.47884 -0.00880 0.19831
 C283 C 1.13667 0.49151 0.32305
 C284 C 1.14980 0.50026 0.26672
 C285 C 1.17605 0.50612 0.26363
 C286 C 1.18928 0.50334 0.31866
 C287 C 1.17759 0.49532 0.38046
 C288 C 1.14997 0.48911 0.37989
 O289 O 1.11153 0.48615 0.31657
 C290 C 1.10858 0.49179 0.25512
 C291 C 1.13160 0.50079 0.22263
 C292 C 1.13283 0.50843 0.15841
 C293 C 1.11050 0.50692 0.12670
 C294 C 1.08547 0.49723 0.15577
 C295 C 1.08524 0.48946 0.22281
 H296 H 1.18645 0.51278 0.21909
 H297 H 1.20934 0.50844 0.31269
 H298 H 1.13830 0.48182 0.42232
 H299 H 1.15091 0.51575 0.13262
 H300 H 1.11286 0.51320 0.07761
 H301 H 1.06741 0.48207 0.24969
 C302 C 0.50850 0.64398 0.31842
 C303 C 0.49598 0.64554 0.26525
 C304 C 0.48687 0.66352 0.26462
 C305 C 0.49028 0.68001 0.31893
 C306 C 0.50254 0.67943 0.37718
 C307 C 0.51185 0.66043 0.37458
 O308 O 0.51612 0.62591 0.30974
 C309 C 0.50823 0.61567 0.25014
 C310 C 0.49559 0.62694 0.22104
 C311 C 0.48531 0.61860 0.15932
 C312 C 0.48788 0.59860 0.12654
 C313 C 0.50107 0.58593 0.15204
 C314 C 0.51147 0.59541 0.21666
 H315 H 0.47706 0.66489 0.22269
 H316 H 0.48252 0.69300 0.31565
 H317 H 0.52170 0.65838 0.41546
 H318 H 0.47518 0.62725 0.13631
 H319 H 0.47943 0.59308 0.07953
 H320 H 0.52160 0.58703 0.24087
 C321 C 0.35630 -0.13829 0.32173
 C322 C 0.35196 -0.15143 0.26541
 C323 C 0.33164 -0.17772 0.26240
 C324 C 0.31569 -0.19098 0.31747
 C325 C 0.31932 -0.17929 0.37925
 C326 C 0.34064 -0.15163 0.37861
 O327 O 0.37600 -0.11312 0.31519
 C328 C 0.38458 -0.11015 0.25372
 C329 C 0.37064 -0.13319 0.22127
 C330 C 0.37706 -0.13440 0.15705
 C331 C 0.39781 -0.11203 0.12530
 C332 C 0.41308 -0.08698 0.15432
 C333 C 0.40552 -0.08677 0.22136
 H334 H 0.32794 -0.18813 0.21787
 H335 H 0.30078 -0.21107 0.31154
 H336 H 0.34499 -0.13995 0.42102
 H337 H 0.36636 -0.15250 0.13129
 H338 H 0.40177 -0.11438 0.07622
 H339 H 0.41591 -0.06893 0.24823
 C340 C 0.86320 0.50730 0.31999
 C341 C 0.84915 0.49480 0.26676
 C342 C 0.82206 0.48567 0.26598
 C343 C 0.80894 0.48903 0.32023
 C344 C 0.82174 0.50127 0.37852
 C345 C 0.85005 0.51060 0.37608
 O346 O 0.88889 0.51493 0.31145
 C347 C 0.89128 0.50708 0.25186
 C348 C 0.86739 0.49444 0.22264
 C349 C 0.86550 0.48421 0.16091
 C350 C 0.88808 0.48680 0.12823
 C351 C 0.91392 0.49998 0.15389
 C352 C 0.91480 0.51035 0.21850
 H353 H 0.81093 0.47588 0.22399
 H354 H 0.78819 0.48126 0.31686
 H355 H 0.86192 0.52044 0.41702
 H356 H 0.84673 0.47408 0.13782
 H357 H 0.88519 0.47837 0.08121
 H358 H 0.93330 0.52046 0.24279
 C359 C 0.49095 0.35367 0.31991
 C360 C 0.50397 0.35254 0.26727
 C361 C 0.51335 0.33478 0.26675
 C362 C 0.50973 0.31809 0.32073
 C363 C 0.49695 0.31826 0.37842
 C364 C 0.48734 0.33700 0.37566
 O365 O 0.48315 0.37159 0.31122
 C366 C 0.49144 0.38218 0.25212
 C367 C 0.50449 0.37126 0.22338
 C368 C 0.51517 0.37995 0.16218
 C369 C 0.51259 0.39994 0.12956
 C370 C 0.49901 0.41227 0.15477
 C371 C 0.48820 0.40245 0.21884
 H372 H 0.52355 0.33377 0.22520
 H373 H 0.51773 0.30531 0.31771
 H374 H 0.47708 0.33870 0.41613
 H375 H 0.52562 0.37157 0.13947
 H376 H 0.52132 0.40572 0.08289
 H377 H 0.47771 0.41052 0.24269
 C378 C 0.64560 0.13469 0.31958
 C379 C 0.64705 0.14895 0.26686
 C380 C 0.66488 0.17607 0.26676
 C381 C 0.68132 0.18899 0.32120
 C382 C 0.68083 0.17594 0.37899
 C383 C 0.66200 0.14762 0.37582
 O384 O 0.62766 0.10901 0.31043
 C385 C 0.61739 0.10684 0.25097
 C386 C 0.62852 0.13086 0.22243
 C387 C 0.62013 0.13299 0.16094
 C388 C 0.60022 0.11050 0.12783
 C389 C 0.58771 0.08455 0.15281
 C390 C 0.59723 0.08343 0.21717
 H391 H 0.66615 0.18737 0.22517
 H392 H 0.69419 0.20978 0.31842
 H393 H 0.66005 0.13558 0.41634
 H394 H 0.62867 0.15185 0.13839
 H395 H 0.59463 0.11354 0.08102
 H396 H 0.58894 0.06483 0.24094
 C397 C 0.49219 0.13578 -0.31943
 C398 C 0.50081 0.14897 -0.26311
 C399 C 0.50672 0.17523 -0.26037
 C400 C 0.50413 0.18842 -0.31570
 C401 C 0.49624 0.17668 -0.37749
 C402 C 0.48998 0.14905 -0.37660
 O403 O 0.48677 0.11064 -0.31260
 C404 C 0.49223 0.10774 -0.25094
 C405 C 0.50118 0.13079 -0.21864
 C406 C 0.50866 0.13208 -0.15425
 C407 C 0.50705 0.10977 -0.12219
 C408 C 0.49740 0.08472 -0.15107
 C409 C 0.48979 0.08443 -0.21827
 H410 H 0.51329 0.18568 -0.21585
 H411 H 0.50925 0.20850 -0.30994
 H412 H 0.48282 0.13736 -0.41903
 H413 H 0.51595 0.15019 -0.12863
 H414 H 0.51326 0.11216 -0.07302
 H415 H 0.48249 0.06659 -0.24505
 C416 C 0.64313 0.50524 -0.32152
 C417 C 0.64749 0.49645 -0.26522
 C418 C 0.66784 0.49054 -0.26215
 C419 C 0.68382 0.49330 -0.31718
 C420 C 0.68016 0.50135 -0.37893
 C421 C 0.65881 0.50762 -0.37835
 O422 O 0.62339 0.51064 -0.31501
 C423 C 0.61481 0.50499 -0.25357
 C424 C 0.62879 0.49594 -0.22112
 C425 C 0.62238 0.48826 -0.15693
 C426 C 0.60158 0.48979 -0.12522
 C427 C 0.58629 0.49953 -0.15427
 C428 C 0.59383 0.50734 -0.22125
 H429 H 0.67156 0.48384 -0.21763
 H430 H 0.69876 0.48816 -0.31125
 H431 H 0.65445 0.51494 -0.42077
 H432 H 0.63311 0.48090 -0.13120
 H433 H 0.59762 0.48347 -0.07615
 H434 H 0.58342 0.51477 -0.24809
 C435 C 0.86295 0.35363 -0.31875
 C436 C 0.84976 0.34906 -0.26243
 C437 C 0.82351 0.32868 -0.25965
 C438 C 0.81033 0.31289 -0.31496
 C439 C 0.82209 0.31675 -0.37673
 C440 C 0.84969 0.33813 -0.37588
 O441 O 0.88807 0.37336 -0.31196
 C442 C 0.89096 0.38173 -0.25032
 C443 C 0.86792 0.36762 -0.21800
 C444 C 0.86662 0.37381 -0.15362
 C445 C 0.88892 0.39453 -0.12159
 C446 C 0.91396 0.40993 -0.15053
 C447 C 0.91426 0.40262 -0.21771
 H448 H 0.81307 0.32481 -0.21513
 H449 H 0.79026 0.29792 -0.30919
 H450 H 0.86139 0.34267 -0.41831
 H451 H 0.84852 0.36297 -0.12798
 H452 H 0.88654 0.39834 -0.07242
 H453 H 0.93209 0.41317 -0.24450
 C454 C 0.50671 -0.13801 -0.32133
 C455 C 0.49792 -0.15117 -0.26504
 C456 C 0.49201 -0.17744 -0.26203
 C457 C 0.49476 -0.19066 -0.31711
 C458 C 0.50281 -0.17894 -0.37886
 C459 C 0.50909 -0.15130 -0.37821
 O460 O 0.51212 -0.11287 -0.31477
 C461 C 0.50648 -0.10993 -0.25331
 C462 C 0.49742 -0.13297 -0.22089
 C463 C 0.48976 -0.13423 -0.15668
 C464 C 0.49131 -0.11190 -0.12492
 C465 C 0.50105 -0.08685 -0.15392
 C466 C 0.50885 -0.08659 -0.22094
 H467 H 0.48531 -0.18786 -0.21753
 H468 H 0.48962 -0.21074 -0.31121
 H469 H 0.51640 -0.13962 -0.42061
 H470 H 0.48239 -0.15233 -0.13096
 H471 H 0.48500 -0.11426 -0.07585
 H472 H 0.51627 -0.06875 -0.24778
 C473 C 0.35489 0.49073 -0.32153
 C474 C 0.35028 0.49929 -0.26517
 C475 C 0.32990 0.50517 -0.26245
 C476 C 0.31414 0.50260 -0.31782
 C477 C 0.31802 0.49477 -0.37966
 C478 C 0.33942 0.48855 -0.37875
 O479 O 0.37462 0.48533 -0.31469
 C480 C 0.38295 0.49073 -0.25297
 C481 C 0.36881 0.49963 -0.22066
 C482 C 0.37497 0.50706 -0.15622
 C483 C 0.39567 0.50544 -0.12411
 C484 C 0.41111 0.49583 -0.15298
 C485 C 0.40383 0.48829 -0.22026
 H486 H 0.32599 0.51169 -0.21791
 H487 H 0.29916 0.50770 -0.31203
 H488 H 0.34399 0.48144 -0.42121
 H489 H 0.36412 0.51431 -0.13057
 H490 H 0.39944 0.51160 -0.07492
 H491 H 0.41440 0.48103 -0.24707
 C492 C 1.13643 0.64305 -0.31904
 C493 C 1.15044 0.64433 -0.26596
 C494 C 1.17754 0.66224 -0.26498
 C495 C 1.19073 0.67895 -0.31889
 C496 C 1.17798 0.67866 -0.37704
 C497 C 1.14964 0.65973 -0.37478
 O498 O 1.11072 0.62501 -0.31071
 C499 C 1.10826 0.61449 -0.25143
 C500 C 1.13214 0.62557 -0.22220
 C501 C 1.13398 0.61695 -0.16076
 C502 C 1.11135 0.59688 -0.12838
 C503 C 1.08550 0.58438 -0.15401
 C504 C 1.08468 0.59414 -0.21835
 H505 H 1.18865 0.66338 -0.22310
 H506 H 1.21149 0.69187 -0.31541
 H507 H 1.13780 0.65790 -0.41562
 H508 H 1.15273 0.62545 -0.13766
 H509 H 1.11422 0.59118 -0.08153
 H510 H 1.06619 0.58595 -0.24259
 C511 C 0.86315 0.50738 -0.31659
 C512 C 0.84911 0.49485 -0.26339
 C513 C 0.82201 0.48568 -0.26261
 C514 C 0.80889 0.48903 -0.31684
 C515 C 0.82171 0.50130 -0.37509
 C516 C 0.85001 0.51068 -0.37265
 O517 O 0.88884 0.51504 -0.30805
 C518 C 0.89123 0.50717 -0.24850
 C519 C 0.86734 0.49450 -0.21930
 C520 C 0.86544 0.48424 -0.15760
 C521 C 0.88802 0.48685 -0.12495
 C522 C 0.91386 0.50007 -0.15062
 C523 C 0.91475 0.51046 -0.21517
 H524 H 0.81088 0.47586 -0.22064
 H525 H 0.78814 0.48123 -0.31352
 H526 H 0.86188 0.52055 -0.41357
 H527 H 0.84667 0.47409 -0.13454
 H528 H 0.88515 0.47841 -0.07794
 H529 H 0.93325 0.52059 -0.23944
 C530 C 0.49267 0.35463 -0.32143
 C531 C 0.50147 0.35032 -0.26508
 C532 C 0.50739 0.32999 -0.26180
 C533 C 0.50465 0.31397 -0.31672
 C534 C 0.49659 0.31759 -0.37850
 C535 C 0.49029 0.33891 -0.37813
 O536 O 0.48726 0.37436 -0.31513
 C537 C 0.49291 0.38300 -0.25375
 C538 C 0.50196 0.36905 -0.22114
 C539 C 0.50962 0.37550 -0.15698
 C540 C 0.50806 0.39631 -0.12544
 C541 C 0.49833 0.41157 -0.15470
 C542 C 0.49054 0.40399 -0.22164
 H543 H 0.51409 0.32632 -0.21722
 H544 H 0.50981 0.29905 -0.31068
 H545 H 0.48295 0.34321 -0.42057
 H546 H 0.51697 0.36478 -0.13113
 H547 H 0.51435 0.40030 -0.07636
 H548 H 0.48312 0.41438 -0.24859
 C549 C 0.64454 0.13547 -0.31941
 C550 C 0.64912 0.14866 -0.26308
 C551 C 0.66952 0.17489 -0.26025
 C552 C 0.68533 0.18804 -0.31553
 C553 C 0.68146 0.17628 -0.37729
 C554 C 0.66005 0.14870 -0.37650
 O555 O 0.62477 0.11037 -0.31265
 C556 C 0.61640 0.10749 -0.25103
 C557 C 0.63054 0.13052 -0.21869
 C558 C 0.62435 0.13185 -0.15433
 C559 C 0.60360 0.10957 -0.12234
 C560 C 0.58817 0.08455 -0.15131
 C561 C 0.59548 0.08422 -0.21846
 H562 H 0.67339 0.18533 -0.21573
 H563 H 0.70032 0.20811 -0.30974
 H564 H 0.65551 0.13701 -0.41893
 H565 H 0.63521 0.14995 -0.12869
 H566 H 0.59978 0.11196 -0.07318
 H567 H 0.58491 0.06639 -0.24525
 C568 C 1.13586 0.48948 -0.31808
 C569 C 1.15004 0.50260 -0.26555
 C570 C 1.17718 0.51208 -0.26501
 C571 C 1.19023 0.50843 -0.31892
 C572 C 1.17724 0.49556 -0.37646
 C573 C 1.14890 0.48585 -0.37373
 O574 O 1.11015 0.48162 -0.30940
 C575 C 1.10788 0.48997 -0.25041
 C576 C 1.13185 0.50312 -0.22173
 C577 C 1.13388 0.51389 -0.16067
 C578 C 1.11130 0.51129 -0.12810
 C579 C 1.08541 0.49760 -0.15332
 C580 C 1.08438 0.48671 -0.21720
 H581 H 1.18840 0.52236 -0.22353
 H582 H 1.21103 0.51651 -0.31600
 H583 H 1.13694 0.47551 -0.41413
 H584 H 1.15271 0.52442 -0.13805
 H585 H 1.11424 0.52009 -0.08152
 H586 H 1.06581 0.47616 -0.24098
 C587 C 0.50877 0.64414 -0.31809
 C588 C 0.49624 0.64566 -0.26489
 C589 C 0.48706 0.66357 -0.26402
 C590 C 0.49042 0.68004 -0.31822
 C591 C 0.50268 0.67949 -0.37643
 C592 C 0.51207 0.66058 -0.37409
 O593 O 0.51643 0.62612 -0.30962
 C594 C 0.50855 0.61587 -0.25009
 C595 C 0.49589 0.62709 -0.22086
 C596 C 0.48562 0.61874 -0.15918
 C597 C 0.48822 0.59875 -0.12659
 C598 C 0.50143 0.58615 -0.15234
 C599 C 0.51183 0.59563 -0.21685
 H600 H 0.47725 0.66488 -0.22203
 H601 H 0.48261 0.69300 -0.31489
 H602 H 0.52194 0.65860 -0.41502
 H603 H 0.47547 0.62736 -0.13612
 H604 H 0.47978 0.59317 -0.07959
 H605 H 0.52195 0.58726 -0.24114
 C606 C 0.35531 -0.13735 -0.31933
 C607 C 0.35422 -0.15147 -0.26664
 C608 C 0.33655 -0.17861 -0.26597
 C609 C 0.31990 -0.19172 -0.31991
 C610 C 0.32004 -0.17881 -0.37761
 C611 C 0.33868 -0.15046 -0.37500
 O612 O 0.37316 -0.11163 -0.31075
 C613 C 0.38375 -0.10928 -0.25166
 C614 C 0.37289 -0.13323 -0.22283
 C615 C 0.38158 -0.13519 -0.16164
 C616 C 0.40153 -0.11259 -0.12911
 C617 C 0.41379 -0.08671 -0.15446
 C618 C 0.40397 -0.08575 -0.21848
 H619 H 0.33558 -0.18978 -0.22438
 H620 H 0.30717 -0.21252 -0.31686
 H621 H 0.34032 -0.13853 -0.41552
 H622 H 0.37324 -0.15401 -0.13889
 H623 H 0.40734 -0.11549 -0.08242
 H624 H 0.41202 -0.06720 -0.24239
 C625 C 0.50858 -0.13715 0.31963
 C626 C 0.49553 -0.15131 0.26703
 C627 C 0.48610 -0.17844 0.26645
 C628 C 0.48972 -0.19149 0.32041
 C629 C 0.50252 -0.17852 0.37801
 C630 C 0.51218 -0.15018 0.37531
 O631 O 0.51640 -0.11144 0.31096
 C632 C 0.50810 -0.10917 0.25191
 C633 C 0.49502 -0.13314 0.22318
 C634 C 0.48430 -0.13516 0.16204
 C635 C 0.48690 -0.11260 0.12945
 C636 C 0.50050 -0.08671 0.15471
 C637 C 0.51135 -0.08568 0.21868
 H638 H 0.47587 -0.18966 0.22492
 H639 H 0.48168 -0.21229 0.31745
 H640 H 0.52248 -0.13822 0.41577
 H641 H 0.47384 -0.15400 0.13937
 H642 H 0.47815 -0.11554 0.08280
 H643 H 0.52184 -0.06711 0.24249
 C644 C 0.35384 0.48889 0.31766
 C645 C 0.35246 0.50171 0.26487
 C646 C 0.33471 0.51109 0.26453
 C647 C 0.31827 0.50765 0.31886
 C648 C 0.31870 0.49508 0.37668
 C649 C 0.33743 0.48548 0.37375
 O650 O 0.37172 0.48109 0.30874
 C651 C 0.38203 0.48915 0.24934
 C652 C 0.37097 0.50208 0.22062
 C653 C 0.37939 0.51255 0.15914
 C654 C 0.39928 0.50989 0.12622
 C655 C 0.41171 0.49643 0.15146
 C656 C 0.40217 0.48584 0.21578
 H657 H 0.33351 0.52113 0.22288
 H658 H 0.30546 0.51563 0.31598
 H659 H 0.33929 0.47536 0.41431
 H660 H 0.37090 0.52289 0.13647
 H661 H 0.40491 0.51849 0.07939
 H662 H 0.41042 0.47551 0.23967
 C663 C 1.13648 0.64317 0.31951
 C664 C 1.15048 0.64437 0.26649
 C665 C 1.17758 0.66220 0.26536
 C666 C 1.19077 0.67892 0.31915
 C667 C 1.17799 0.67868 0.37716
 C668 C 1.14967 0.65986 0.37507
 O669 O 1.11077 0.62518 0.31133
 C670 C 1.10832 0.61461 0.25217
 C671 C 1.13219 0.62562 0.22290
 C672 C 1.13404 0.61696 0.16157
 C673 C 1.11141 0.59690 0.12935
 C674 C 1.08560 0.58450 0.15515
 C675 C 1.08476 0.59429 0.21930
 H676 H 1.18866 0.66326 0.22350
 H677 H 1.21154 0.69179 0.31570
 H678 H 1.13785 0.65812 0.41589
 H679 H 1.15279 0.62541 0.13848
 H680 H 1.11423 0.59112 0.08255
 H681 H 1.06627 0.58613 0.24355
 C682 C 0.49043 0.13489 0.31965
 C683 C 0.50318 0.14908 0.26680
 C684 C 0.51248 0.17620 0.26650
 C685 C 0.50904 0.18920 0.32088
 C686 C 0.49655 0.17623 0.37879
 C687 C 0.48702 0.14790 0.37582
 O688 O 0.48268 0.10920 0.31069
 C689 C 0.49070 0.10696 0.25122
 C690 C 0.50356 0.13094 0.22248
 C691 C 0.51399 0.13298 0.16092
 C692 C 0.51136 0.11045 0.12796
 C693 C 0.49797 0.08454 0.15316
 C694 C 0.48741 0.08350 0.21758
 H695 H 0.52247 0.18745 0.22480
 H696 H 0.51697 0.20999 0.31795
 H697 H 0.47696 0.13591 0.41643
 H698 H 0.52428 0.15182 0.13822
 H699 H 0.51993 0.11343 0.08108
 H700 H 0.47714 0.06494 0.24151
 C701 C 0.64409 0.50699 0.31929
 C702 C 0.64522 0.49393 0.26672
 C703 C 0.66295 0.48453 0.26627
 C704 C 0.67963 0.48818 0.32027
 C705 C 0.67946 0.50100 0.37788
 C706 C 0.66074 0.51062 0.37505
 O707 O 0.62619 0.51480 0.31052
 C708 C 0.61561 0.50648 0.25144
 C709 C 0.62651 0.49339 0.22279
 C710 C 0.61782 0.48266 0.16165
 C711 C 0.59783 0.48523 0.12897
 C712 C 0.58554 0.49885 0.15410
 C713 C 0.59536 0.50971 0.21810
 H714 H 0.66396 0.47430 0.22478
 H715 H 0.69240 0.48016 0.31734
 H716 H 0.65905 0.52091 0.41548
 H717 H 0.62618 0.47219 0.13902
 H718 H 0.59203 0.47646 0.08235
 H719 H 0.58729 0.52021 0.24188
 C720 C 0.86379 0.35269 0.32044
 C721 C 0.84957 0.35126 0.26767
 C722 C 0.82245 0.33345 0.26741
 C723 C 0.80948 0.31701 0.32178
 C724 C 0.82250 0.31748 0.37961
 C725 C 0.85082 0.33627 0.37660
 O726 O 0.88947 0.37062 0.31145
 C727 C 0.89168 0.38090 0.25201
 C728 C 0.86769 0.36979 0.22334
 C729 C 0.86560 0.37819 0.16185
 C730 C 0.88812 0.39810 0.12885
 C731 C 0.91403 0.41059 0.15400
 C732 C 0.91511 0.40107 0.21836
 H733 H 0.81118 0.33221 0.22577
 H734 H 0.78870 0.30415 0.31892
 H735 H 0.86283 0.33819 0.41716
 H736 H 0.84676 0.36966 0.13921
 H737 H 0.88512 0.40370 0.08201
 H738 H 0.93369 0.40935 0.24221
   
