data_POSCAR
  _audit_creation_date              2014-09-24
  _audit_creation_method            'ToBaCCo'
  _symmetry_space_group_name_H-M    'P1'
  _symmetry_Int_Tables_number       1
  _symmetry_cell_setting            triclinic
  loop_
  _symmetry_equiv_pos_as_xyz
 x,y,z
_cell_length_a 19.6699
_cell_length_b 20.3622
_cell_length_c 20.7008
_cell_angle_alpha 88.664600
_cell_angle_beta 90.124300
_cell_angle_gamma 88.270400
loop_
  _atom_site_label
  _atom_site_type_symbol
  _atom_site_fract_x
  _atom_site_fract_y
  _atom_site_fract_z
N1 N 0.20229 1.18907 0.20777
 N2 N 0.80354 0.79465 0.21412
 N3 N 0.80518 1.20887 -0.20383
 N4 N 0.19676 0.80000 -0.19299
 C5 C 0.56146 1.12173 -0.04261
 H6 H 0.52733 1.14058 -0.00626
 C7 C 0.60633 1.16424 -0.07285
 H8 H 0.60469 1.21555 -0.05996
 C9 C 0.60770 1.03177 -0.09997
 H10 H 0.60857 0.97968 -0.10927
 C11 C 0.65411 1.07244 -0.13105
 H12 H 0.68981 1.04976 -0.16382
 N13 N 0.56251 1.05685 -0.05681
 C14 C 0.43526 1.03655 0.10513
 H15 H 0.46548 0.99917 0.13079
 C16 C 0.38724 1.07480 0.13865
 H17 H 0.38170 1.06746 0.19032
 C18 C 0.40426 1.09115 0.00654
 H19 H 0.41074 1.09667 -0.04517
 C20 C 0.35728 1.13137 0.03819
 H21 H 0.32763 1.16803 0.01068
 Zn22 Zn 0.50623 0.99805 -0.01078
 N23 N 0.44347 1.04618 0.04033
 C24 C 0.59837 0.96516 0.09017
 N25 N 0.56471 0.94110 0.03881
 C26 C 0.57923 0.87970 0.01709
 C27 C 0.62978 0.84007 0.04704
 C28 C 0.64830 0.92661 0.12242
 C29 C 0.44772 0.96236 -0.13127
 C30 C 0.40115 0.92918 -0.16881
 C31 C 0.36844 0.86736 -0.07342
 C32 C 0.41492 0.90209 -0.03775
 N33 N 0.45298 0.94879 -0.06681
 H34 H 0.58799 1.01512 0.10476
 H35 H 0.55392 0.86250 -0.02541
 H36 H 0.64240 0.79216 0.02793
 H37 H 0.67602 0.94740 0.16189
 H38 H 0.47768 1.00051 -0.15315
 H39 H 0.39605 0.94182 -0.21975
 H40 H 0.33984 0.83013 -0.04850
 H41 H 0.42004 0.89262 0.01370
 C42 C 0.34820 1.12334 0.10485
 C43 C 0.65416 1.14009 -0.11741
 C44 C 0.35951 0.88211 -0.13972
 C45 C 0.66494 0.86342 0.10029
 C46 C -0.03190 0.59123 1.09455
 H47 H 0.02273 0.58725 1.10060
 C48 C -0.06960 0.63677 1.12981
 H49 H -0.04298 0.66580 1.16420
 C50 C -0.13158 0.55547 1.04329
 H51 H -0.15514 0.52411 1.00884
 C52 C -0.17145 0.60116 1.07725
 H53 H -0.22585 0.60445 1.06898
 N54 N -0.06306 0.55172 1.05244
 C55 C 0.09298 0.39720 1.03627
 H56 H 0.10353 0.40027 0.98503
 C57 C 0.12740 0.35019 1.07527
 H58 H 0.16568 0.31873 1.05338
 C59 C 0.03056 0.43573 1.12624
 H60 H -0.00843 0.46797 1.14574
 C61 C 0.06368 0.38939 1.16700
 H62 H 0.05045 0.38707 1.21776
 Zn63 Zn -0.00331 0.49697 1.00514
 N64 N 0.04572 0.43885 1.06215
 C65 C 0.02446 0.59895 0.91932
 N66 N 0.05520 0.55411 0.96025
 C67 C 0.12340 0.55415 0.97113
 C68 C 0.16342 0.60071 0.93985
 C69 C 0.06244 0.64590 0.88673
 C70 C -0.09245 0.39900 0.97164
 C71 C -0.12260 0.35364 0.93176
 C72 C -0.06641 0.40379 0.84034
 C73 C -0.03693 0.44769 0.88212
 N74 N -0.05024 0.44449 0.94650
 H75 H -0.03003 0.59826 0.91222
 H76 H 0.14669 0.51912 1.00504
 H77 H 0.21757 0.60052 0.94953
 H78 H 0.03596 0.67959 0.85368
 H79 H -0.10117 0.39680 1.02323
 H80 H -0.15454 0.31789 0.95468
 H81 H -0.05412 0.40694 0.78936
 H82 H -0.00177 0.48290 0.86311
 C83 C 0.11191 0.34510 1.14155
 C84 C -0.14035 0.64341 1.12030
 C85 C -0.10923 0.35503 0.86471
 C86 C 0.13305 0.64795 0.89754
 C87 C 1.10714 -0.05278 0.57535
 H88 H 1.13766 -0.01779 0.54940
 C89 C 1.13748 -0.09364 0.62301
 H90 H 1.19158 -0.09098 0.63187
 C91 C 0.99931 -0.09698 0.59744
 H92 H 0.94511 -0.09657 0.58842
 C93 C 1.02777 -0.13955 0.64462
 H94 H 0.99535 -0.17244 0.67145
 N95 N 1.03924 -0.05544 0.56320
 C96 C 1.05854 0.11462 0.44289
 H97 H 1.02055 0.14438 0.46728
 C98 C 1.10181 0.14373 0.39767
 H99 H 1.09774 0.19623 0.38820
 C100 C 1.10766 0.00940 0.42225
 H101 H 1.10784 -0.04328 0.43043
 C102 C 1.15301 0.03659 0.37828
 H103 H 1.18852 0.00472 0.35296
 Zn104 Zn 0.99633 0.00444 0.50354
 N105 N 1.06179 0.04842 0.45358
 C106 C 0.97404 0.09797 0.59864
 N107 N 0.94241 0.06288 0.55300
 C108 C 0.87346 0.06268 0.54886
 C109 C 0.83349 0.09728 0.59292
 C110 C 0.93605 0.13311 0.64402
 C111 C 0.93633 -0.10506 0.44250
 C112 C 0.89742 -0.13401 0.39491
 C113 C 0.87011 -0.02582 0.35007
 C114 C 0.90930 0.00098 0.39849
 N115 N 0.94129 -0.03862 0.44356
 H116 H 1.02899 0.09616 0.60159
 H117 H 0.84912 0.03311 0.51344
 H118 H 0.77864 0.09459 0.58970
 H119 H 0.96359 0.15791 0.68092
 H120 H 0.96331 -0.13592 0.47772
 H121 H 0.89360 -0.18686 0.39595
 H122 H 0.84557 0.00659 0.31429
 H123 H 0.91483 0.05362 0.39996
 C124 C 1.14904 0.10412 0.36423
 C125 C 1.09738 -0.13740 0.65851
 C126 C 0.86452 -0.09413 0.34714
 C127 C 0.86433 0.13195 0.64251
 C128 C 0.17168 0.23792 1.16436
 C129 C 0.14442 0.29460 1.18530
 H130 H 0.17141 0.22777 1.11331
 H131 H 0.14392 0.30339 1.23673
 C132 C -0.15632 0.74779 1.17854
 C133 C -0.18245 0.69341 1.15444
 H134 H -0.10252 0.75634 1.17449
 H135 H -0.23663 0.68618 1.15869
 C136 C -0.17624 0.25646 0.83843
 C137 C -0.13450 0.30907 0.82133
 H138 H -0.19521 0.25389 0.88715
 H139 H -0.12085 0.31547 0.77098
 C140 C 0.15225 0.75224 0.83511
 C141 C 0.17655 0.69804 0.86642
 H142 H 0.09813 0.76161 0.83061
 H143 H 0.23122 0.69069 0.87048
 C144 C 1.16591 0.17172 0.26600
 C145 C 1.19181 0.13061 0.31186
 H146 H 1.11398 0.19021 0.27116
 H147 H 1.24289 0.11006 0.30738
 C148 C 1.17433 -0.16083 0.75137
 C149 C 1.12610 -0.18049 0.71075
 H150 H 1.19511 -0.11260 0.74386
 H151 H 1.10313 -0.22765 0.71854
 C152 C 0.83451 -0.18282 0.27238
 C153 C 0.82550 -0.12116 0.29292
 H154 H 0.87182 -0.21529 0.29608
 H155 H 0.79279 -0.08706 0.26548
 C156 C 0.84517 0.19524 0.74336
 C157 C 0.82235 0.15955 0.69052
 H158 H 0.89628 0.21303 0.74188
 H159 H 0.76825 0.15164 0.68681
 C160 C 0.25661 1.14689 0.18370
 C161 C 0.29864 1.16737 0.13701
 H162 H 0.26142 1.09645 0.20123
 H163 H 0.29299 1.21710 0.11761
 C164 C 0.75314 1.16774 -0.18772
 C165 C 0.70144 1.18408 -0.14348
 H166 H 0.75138 1.12068 -0.21045
 H167 H 0.69729 1.23447 -0.12792
 C168 C 0.25212 0.82186 -0.15394
 C169 C 0.30604 0.85203 -0.17932
 H170 H 0.24798 0.81475 -0.10224
 H171 H 0.30921 0.85834 -0.23131
 C172 C 0.74058 0.82438 0.18973
 C173 C 0.72347 0.82442 0.12701
 H174 H 0.70792 0.85088 0.22288
 H175 H 0.75418 0.79687 0.09316
   
