data_POSCAR
  _audit_creation_date              2014-09-24
  _audit_creation_method            'ToBaCCo'
  _symmetry_space_group_name_H-M    'P1'
  _symmetry_Int_Tables_number       1
  _symmetry_cell_setting            triclinic
  loop_
  _symmetry_equiv_pos_as_xyz
 x,y,z
_cell_length_a 52.0957
_cell_length_b 51.9720
_cell_length_c 52.0291
_cell_angle_alpha 89.981800
_cell_angle_beta 89.929900
_cell_angle_gamma 89.688000
loop_
  _atom_site_label
  _atom_site_type_symbol
  _atom_site_fract_x
  _atom_site_fract_y
  _atom_site_fract_z
N1 N 0.29125 0.23625 0.22214
 N2 N 0.28266 0.25678 0.21004
 C3 C 0.29695 0.26059 0.18879
 C4 C 0.31536 0.24147 0.18773
 C5 C 0.31130 0.22631 0.20905
 H6 H 0.29404 0.27585 0.17495
 H7 H 0.32189 0.20919 0.21442
 Cu8 Cu 0.25319 0.27618 0.22272
 Cu9 Cu 0.27534 0.22349 0.25345
 Cu10 Cu 0.22193 0.25653 0.27588
 N11 N 0.22264 0.29395 0.23518
 N12 N 0.21060 0.28621 0.25602
 C13 C 0.18990 0.30130 0.25996
 C14 C 0.18901 0.31937 0.24061
 C15 C 0.20992 0.31427 0.22513
 H16 H 0.17623 0.29903 0.27546
 H17 H 0.21516 0.32429 0.20770
 N18 N 0.23625 0.22606 0.29338
 N19 N 0.25665 0.21352 0.28481
 C20 C 0.26122 0.19320 0.30025
 C21 C 0.24289 0.19308 0.31932
 C22 C 0.22730 0.21402 0.31451
 H23 H 0.27637 0.17915 0.29753
 H24 H 0.21040 0.21966 0.32526
 H25 H 0.23908 0.23760 0.24526
 H26 H 0.26022 0.25823 0.26552
 N27 N 0.70482 -0.23646 0.21970
 N28 N 0.71545 -0.25579 0.20721
 C29 C 0.70228 -0.25989 0.18531
 C30 C 0.68251 -0.24218 0.18427
 C31 C 0.68456 -0.22758 0.20624
 H32 H 0.70684 -0.27440 0.17109
 H33 H 0.67246 -0.21156 0.21185
 Cu34 Cu 0.74578 -0.27320 0.22065
 Cu35 Cu 0.71838 -0.22375 0.25209
 Cu36 Cu 0.77215 -0.25476 0.27663
 N37 N 0.77571 -0.29079 0.23472
 N38 N 0.78588 -0.28346 0.25666
 C39 C 0.80654 -0.29827 0.26177
 C40 C 0.80931 -0.31571 0.24200
 C41 C 0.78959 -0.31055 0.22509
 H42 H 0.81884 -0.29625 0.27838
 H43 H 0.78591 -0.32018 0.20705
 N44 N 0.75538 -0.22534 0.29394
 N45 N 0.73484 -0.21365 0.28457
 C46 C 0.72839 -0.19394 0.30013
 C47 C 0.74561 -0.19331 0.32014
 C48 C 0.76254 -0.21331 0.31574
 H49 H 0.71275 -0.18058 0.29686
 H50 H 0.77913 -0.21828 0.32722
 H51 H 0.75606 -0.23519 0.24607
 H52 H 0.73493 -0.25812 0.26369
 N53 N 0.70683 0.23928 0.77616
 N54 N 0.71672 0.25872 0.78890
 C55 C 0.70316 0.26240 0.81068
 C56 C 0.68390 0.24433 0.81142
 C57 C 0.68668 0.22995 0.78936
 H58 H 0.70715 0.27682 0.82509
 H59 H 0.67517 0.21370 0.78357
 Cu60 Cu 0.74682 0.27658 0.77598
 Cu61 Cu 0.72135 0.22696 0.74391
 Cu62 Cu 0.77507 0.25871 0.72068
 N63 N 0.77680 0.29450 0.76288
 N64 N 0.78777 0.28739 0.74119
 C65 C 0.80842 0.30228 0.73686
 C66 C 0.81032 0.31952 0.75689
 C67 C 0.79013 0.31415 0.77313
 H68 H 0.82133 0.30037 0.72066
 H69 H 0.78581 0.32352 0.79120
 N70 N 0.75926 0.22926 0.70281
 N71 N 0.73873 0.21732 0.71166
 C72 C 0.73320 0.19750 0.69599
 C73 C 0.75101 0.19704 0.67646
 C74 C 0.76733 0.21727 0.68124
 H75 H 0.71791 0.18383 0.69899
 H76 H 0.78423 0.22231 0.67029
 H77 H 0.75864 0.23878 0.75076
 H78 H 0.73747 0.26147 0.73269
 N79 N 0.29019 -0.23626 0.77547
 N80 N 0.28217 -0.25700 0.78750
 C81 C 0.29709 -0.26115 0.80824
 C82 C 0.31531 -0.24204 0.80908
 C83 C 0.31048 -0.22652 0.78813
 H84 H 0.29464 -0.27653 0.82201
 H85 H 0.32061 -0.20920 0.78283
 Cu86 Cu 0.25227 -0.27580 0.77553
 Cu87 Cu 0.27300 -0.22282 0.74503
 Cu88 Cu 0.21971 -0.25611 0.72332
 N89 N 0.22234 -0.29433 0.76325
 N90 N 0.20973 -0.28654 0.74274
 C91 C 0.18938 -0.30195 0.73899
 C92 C 0.18938 -0.32027 0.75815
 C93 C 0.21039 -0.31499 0.77329
 H94 H 0.17529 -0.29959 0.72391
 H95 H 0.21610 -0.32500 0.79061
 N96 N 0.23277 -0.22491 0.70629
 N97 N 0.25308 -0.21226 0.71458
 C98 C 0.25663 -0.19142 0.69961
 C99 C 0.23772 -0.19106 0.68116
 C100 C 0.22287 -0.21242 0.68582
 H101 H 0.27149 -0.17722 0.70223
 H102 H 0.20586 -0.21806 0.67541
 H103 H 0.23704 -0.23718 0.75358
 H104 H 0.25818 -0.25750 0.73280
 N105 N 0.70308 -0.24783 0.77088
 N106 N 0.71217 -0.26953 0.78030
 C107 C 0.69781 -0.27652 0.80067
 C108 C 0.67881 -0.25828 0.80398
 C109 C 0.68262 -0.24030 0.78490
 H110 H 0.70126 -0.29322 0.81260
 H111 H 0.67174 -0.22278 0.78186
 Cu112 Cu 0.74262 -0.28603 0.76603
 Cu113 Cu 0.71913 -0.23042 0.74194
 Cu114 Cu 0.77432 -0.25823 0.71697
 N115 N 0.77428 -0.30063 0.75232
 N116 N 0.78651 -0.28969 0.73310
 C117 C 0.80813 -0.30307 0.72805
 C118 C 0.80935 -0.32339 0.74498
 C119 C 0.78777 -0.32138 0.76022
 H120 H 0.82221 -0.29801 0.71364
 H121 H 0.78268 -0.33366 0.77620
 N122 N 0.75913 -0.22642 0.70312
 N123 N 0.73811 -0.21575 0.71264
 C124 C 0.73300 -0.19394 0.69954
 C125 C 0.75168 -0.19096 0.68102
 C126 C 0.76795 -0.21172 0.68373
 H127 H 0.71715 -0.18098 0.70337
 H128 H 0.78512 -0.21554 0.67264
 H129 H 0.73584 -0.26268 0.72586
 H130 H 0.75564 -0.24422 0.74935
 N131 N 0.29962 0.24707 0.77400
 N132 N 0.28686 0.26572 0.78546
 C133 C 0.29993 0.27327 0.80644
 C134 C 0.32196 0.25856 0.80804
 C135 C 0.32124 0.24207 0.78731
 H136 H 0.29364 0.28790 0.81986
 H137 H 0.33505 0.22716 0.78267
 Cu138 Cu 0.25376 0.27761 0.77290
 Cu139 Cu 0.28650 0.22979 0.74361
 Cu140 Cu 0.23113 0.25497 0.71664
 N141 N 0.22512 0.29393 0.75529
 N142 N 0.21630 0.28505 0.73335
 C143 C 0.19590 0.29932 0.72608
 C144 C 0.19196 0.31807 0.74441
 C145 C 0.21068 0.31418 0.76271
 H146 H 0.18443 0.29594 0.70912
 H147 H 0.21319 0.32488 0.78034
 N148 N 0.24903 0.22459 0.70262
 N149 N 0.27020 0.21500 0.71289
 C150 C 0.27736 0.19393 0.69956
 C151 C 0.25989 0.19027 0.68007
 C152 C 0.24216 0.20987 0.68248
 H153 H 0.29370 0.18181 0.70398
 H154 H 0.22525 0.21281 0.67078
 H155 H 0.26737 0.26242 0.73085
 H156 H 0.24784 0.23797 0.74848
 N157 N 0.29777 -0.24662 0.22386
 N158 N 0.28543 -0.26543 0.21244
 C159 C 0.29845 -0.27253 0.19119
 C160 C 0.31999 -0.25736 0.18937
 C161 C 0.31905 -0.24108 0.21026
 H162 H 0.29250 -0.28727 0.17782
 H163 H 0.33254 -0.22604 0.21490
 Cu164 Cu 0.25302 -0.27834 0.22559
 Cu165 Cu 0.28473 -0.23007 0.25482
 Cu166 Cu 0.23101 -0.25713 0.28278
 N167 N 0.22531 -0.29557 0.24365
 N168 N 0.21685 -0.28728 0.26600
 C169 C 0.19718 -0.30214 0.27368
 C170 C 0.19328 -0.32064 0.25517
 C171 C 0.21130 -0.31602 0.23632
 H172 H 0.18614 -0.29933 0.29108
 H173 H 0.21366 -0.32638 0.21845
 N174 N 0.24807 -0.22653 0.29683
 N175 N 0.26858 -0.21617 0.28616
 C176 C 0.27520 -0.19508 0.29962
 C177 C 0.25807 -0.19225 0.31962
 C178 C 0.24109 -0.21233 0.31736
 H179 H 0.29089 -0.18237 0.29493
 H180 H 0.22456 -0.21591 0.32941
 H181 H 0.26722 -0.26337 0.26744
 H182 H 0.24636 -0.23918 0.25072
 N183 N 0.70634 0.24296 0.22454
 N184 N 0.71646 0.26352 0.21390
 C185 C 0.70193 0.27077 0.19374
 C186 C 0.68175 0.25388 0.19179
 C187 C 0.68504 0.23641 0.21148
 H188 H 0.70599 0.28679 0.18113
 H189 H 0.67317 0.21991 0.21562
 Cu190 Cu 0.74823 0.27843 0.22635
 Cu191 Cu 0.72219 0.22571 0.25376
 Cu192 Cu 0.77477 0.25559 0.28084
 N193 N 0.77551 0.29666 0.24401
 N194 N 0.78566 0.28775 0.26539
 C195 C 0.80476 0.30341 0.27282
 C196 C 0.80651 0.32309 0.25519
 C197 C 0.78783 0.31832 0.23709
 H198 H 0.81704 0.30025 0.28928
 H199 H 0.78404 0.32932 0.21985
 N200 N 0.76102 0.22290 0.29376
 N201 N 0.74100 0.21139 0.28340
 C202 C 0.73673 0.18915 0.29601
 C203 C 0.75493 0.18677 0.31508
 C204 C 0.77002 0.20833 0.31321
 H205 H 0.72175 0.17555 0.29151
 H206 H 0.78652 0.21283 0.32493
 H207 H 0.73732 0.25955 0.26767
 H208 H 0.75927 0.23839 0.24841
 C209 C 0.23780 0.00093 0.43087
 C210 C 0.23480 0.02406 0.44437
 C211 C 0.23282 0.02343 0.47129
 C212 C 0.23571 0.00010 0.48501
 C213 C 0.23964 -0.02277 0.47084
 C214 C 0.23990 -0.02257 0.44386
 C215 C 0.23518 -0.00035 0.51390
 C216 C 0.22867 -0.02296 0.52744
 C217 C 0.22946 -0.02386 0.55442
 C218 C 0.23535 -0.00144 0.56811
 C219 C 0.24121 0.02148 0.55524
 C220 C 0.24170 0.02170 0.52826
 H221 H 0.23878 0.00126 0.41007
 H222 H 0.22948 0.04134 0.48132
 H223 H 0.24248 -0.04094 0.48054
 H224 H 0.22271 -0.04004 0.51727
 H225 H 0.23559 -0.00188 0.58892
 H226 H 0.24785 0.03908 0.51872
 C227 C 0.76532 0.00326 0.56896
 C228 C 0.76381 0.02595 0.55455
 C229 C 0.76276 0.02441 0.52763
 C230 C 0.76507 0.00051 0.51476
 C231 C 0.76743 -0.02196 0.52994
 C232 C 0.76651 -0.02078 0.55689
 C233 C 0.76461 -0.00096 0.48580
 C234 C 0.75859 -0.02414 0.47294
 C235 C 0.75823 -0.02553 0.44599
 C236 C 0.76256 -0.00321 0.43159
 C237 C 0.76791 0.02020 0.44370
 C238 C 0.76980 0.02096 0.47060
 H239 H 0.76527 0.00431 0.58976
 H240 H 0.76022 0.04210 0.51706
 H241 H 0.76953 -0.04064 0.52113
 H242 H 0.75350 -0.04124 0.48351
 H243 H 0.76157 -0.00403 0.41081
 H244 H 0.77559 0.03886 0.47930
 C245 C 0.43227 0.23861 -0.00011
 C246 C 0.44519 0.23286 0.02282
 C247 C 0.47213 0.23162 0.02278
 C248 C 0.48635 0.23724 0.00039
 C249 C 0.47282 0.24353 -0.02225
 C250 C 0.44588 0.24374 -0.02277
 C251 C 0.51512 0.23697 0.00073
 C252 C 0.52926 0.23202 -0.02190
 C253 C 0.55619 0.23294 -0.02201
 C254 C 0.56920 0.23761 0.00107
 C255 C 0.55569 0.24200 0.02398
 C256 C 0.52874 0.24212 0.02357
 H257 H 0.41149 0.23927 -0.00028
 H258 H 0.48181 0.22596 0.04028
 H259 H 0.48305 0.24892 -0.03952
 H260 H 0.51952 0.22717 -0.03957
 H261 H 0.58998 0.23805 0.00117
 H262 H 0.51857 0.24694 0.04107
 C263 C 0.56805 0.76229 -0.00365
 C264 C 0.55498 0.76723 0.01940
 C265 C 0.52804 0.76815 0.01936
 C266 C 0.51396 0.76302 -0.00321
 C267 C 0.52765 0.75757 -0.02601
 C268 C 0.55459 0.75764 -0.02647
 C269 C 0.48517 0.76292 -0.00289
 C270 C 0.47102 0.76830 -0.02539
 C271 C 0.44410 0.76712 -0.02551
 C272 C 0.43109 0.76170 -0.00256
 C273 C 0.44461 0.75686 0.02023
 C274 C 0.47156 0.75702 0.01981
 H275 H 0.58884 0.76185 -0.00380
 H276 H 0.51824 0.77318 0.03701
 H277 H 0.51755 0.75255 -0.04343
 H278 H 0.48075 0.77372 -0.04293
 H279 H 0.41032 0.76108 -0.00246
 H280 H 0.48173 0.75186 0.03719
 C281 C -0.00282 0.43365 0.23919
 C282 C 0.02058 0.44612 0.23496
 C283 C 0.02094 0.47310 0.23339
 C284 C -0.00149 0.48789 0.23796
 C285 C -0.02458 0.47468 0.24305
 C286 C -0.02548 0.44771 0.24308
 C287 C -0.00067 0.51682 0.23838
 C288 C -0.02313 0.53173 0.23447
 C289 C -0.02275 0.55865 0.23679
 C290 C 0.00067 0.57100 0.24113
 C291 C 0.02338 0.55684 0.24435
 C292 C 0.02247 0.52987 0.24359
 H293 H -0.00339 0.41282 0.23918
 H294 H 0.03897 0.48234 0.22913
 H295 H -0.04196 0.48508 0.24781
 H296 H -0.04119 0.52262 0.23012
 H297 H 0.00126 0.59183 0.24168
 H298 H 0.03989 0.51934 0.24783
 C299 C 0.00218 0.56745 0.77066
 C300 C 0.02497 0.55356 0.77452
 C301 C 0.02416 0.52655 0.77502
 C302 C 0.00109 0.51318 0.77022
 C303 C -0.02137 0.52779 0.76560
 C304 C -0.02111 0.55478 0.76658
 C305 C 0.00044 0.48425 0.76988
 C306 C -0.02266 0.47082 0.77445
 C307 C -0.02358 0.44385 0.77320
 C308 C -0.00085 0.43000 0.76886
 C309 C 0.02249 0.44269 0.76506
 C310 C 0.02287 0.46970 0.76481
 H311 H 0.00267 0.58828 0.76998
 H312 H 0.04165 0.51624 0.77950
 H313 H -0.03931 0.51842 0.76132
 H314 H -0.04011 0.48104 0.77934
 H315 H -0.00143 0.40920 0.76762
 H316 H 0.04085 0.47913 0.76077
 C317 C 0.39180 0.21511 0.06904
 C318 C 0.39946 0.22805 0.09130
 C319 C 0.42299 0.24091 0.09175
 C320 C 0.43842 0.24155 0.06975
 C321 C 0.33418 0.23764 0.16788
 C322 C 0.40718 0.21574 0.04702
 C323 C 0.38234 0.22967 0.11298
 C324 C 0.36752 0.23170 0.13068
 C325 C 0.34971 0.23470 0.15093
 C326 C 0.43041 0.22943 0.04698
 H327 H 0.37362 0.20509 0.06848
 H328 H 0.42904 0.25110 0.10885
 H329 H 0.45606 0.25246 0.07022
 H330 H 0.40068 0.20595 0.02987
 C331 C 0.60804 0.78421 0.06617
 C332 C 0.60048 0.77051 0.08803
 C333 C 0.57711 0.75735 0.08809
 C334 C 0.56174 0.75719 0.06607
 C335 C 0.66510 0.76086 0.16505
 C336 C 0.59272 0.78406 0.04413
 C337 C 0.61749 0.76860 0.10973
 C338 C 0.63220 0.76647 0.12748
 C339 C 0.64982 0.76354 0.14787
 C340 C 0.56965 0.77011 0.04367
 H341 H 0.62607 0.79449 0.06593
 H342 H 0.57113 0.74660 0.10488
 H343 H 0.54423 0.74606 0.06620
 H344 H 0.59914 0.79445 0.02729
 C345 C 0.60926 0.21639 -0.06926
 C346 C 0.60139 0.23017 -0.09100
 C347 C 0.57787 0.24331 -0.09078
 C348 C 0.56265 0.24335 -0.06863
 C349 C 0.66547 0.24062 -0.16839
 C350 C 0.59409 0.21642 -0.04709
 C351 C 0.61822 0.23219 -0.11285
 C352 C 0.63278 0.23447 -0.13072
 C353 C 0.65025 0.23764 -0.15120
 C354 C 0.57085 0.23032 -0.04637
 H355 H 0.62743 0.20613 -0.06923
 H356 H 0.57165 0.25413 -0.10747
 H357 H 0.54500 0.25446 -0.06856
 H358 H 0.60073 0.20595 -0.03035
 C359 C 0.39091 0.78448 -0.07225
 C360 C 0.39891 0.77138 -0.09437
 C361 C 0.42255 0.75845 -0.09453
 C362 C 0.43777 0.75795 -0.07241
 C363 C 0.33422 0.76177 -0.17123
 C364 C 0.40607 0.78398 -0.05011
 C365 C 0.38205 0.76971 -0.11620
 C366 C 0.36741 0.76767 -0.13401
 C367 C 0.34973 0.76469 -0.15431
 C368 C 0.42945 0.77029 -0.04979
 H369 H 0.37263 0.79453 -0.07190
 H370 H 0.42887 0.74811 -0.11150
 H371 H 0.45551 0.74700 -0.07266
 H372 H 0.39931 0.79392 -0.03309
 C373 C 0.08651 0.42138 0.21469
 C374 C 0.09003 0.40107 0.23209
 C375 C 0.07103 0.39572 0.25028
 C376 C 0.04858 0.41043 0.25111
 C377 C 0.16930 0.33843 0.23677
 C378 C 0.06396 0.43621 0.21550
 C379 C 0.11286 0.38534 0.23157
 C380 C 0.13132 0.37126 0.23227
 C381 C 0.15215 0.35389 0.23425
 C382 C 0.04469 0.43076 0.23367
 H383 H 0.10110 0.42567 0.20050
 H384 H 0.07358 0.38014 0.26391
 H385 H 0.03435 0.40605 0.26563
 H386 H 0.06142 0.45165 0.20174
 C387 C 0.07366 0.60520 0.79025
 C388 C 0.09477 0.59712 0.77561
 C389 C 0.09375 0.57376 0.76226
 C390 C 0.07139 0.55897 0.76285
 C391 C 0.17108 0.66166 0.76243
 C392 C 0.05130 0.59047 0.79082
 C393 C 0.11663 0.61374 0.77283
 C394 C 0.13434 0.62831 0.76994
 C395 C 0.15443 0.64603 0.76605
 C396 C 0.04972 0.56746 0.77668
 H397 H 0.07423 0.62323 0.80066
 H398 H 0.10993 0.56737 0.75078
 H399 H 0.07066 0.54148 0.75156
 H400 H 0.03504 0.59733 0.80191
 C401 C -0.07309 0.60880 0.25347
 C402 C -0.09204 0.60402 0.23511
 C403 C -0.08858 0.58412 0.21725
 C404 C -0.06611 0.56915 0.21771
 C405 C -0.17152 0.66663 0.23920
 C406 C -0.05071 0.59395 0.25394
 C407 C -0.11475 0.61995 0.23480
 C408 C -0.13319 0.63407 0.23547
 C409 C -0.15413 0.65136 0.23716
 C410 C -0.04685 0.57406 0.23599
 H411 H -0.07560 0.62406 0.26745
 H412 H -0.10314 0.58027 0.20293
 H413 H -0.06361 0.55406 0.20357
 H414 H -0.03647 0.59790 0.26855
 C415 C -0.07238 0.39200 0.78793
 C416 C -0.09351 0.40050 0.77361
 C417 C -0.09245 0.42416 0.76079
 C418 C -0.07004 0.43887 0.76160
 C419 C -0.17077 0.33705 0.76070
 C420 C -0.04997 0.40664 0.78873
 C421 C -0.11549 0.38408 0.77069
 C422 C -0.13336 0.36971 0.76780
 C423 C -0.15374 0.35230 0.76406
 C424 C -0.04836 0.42998 0.77513
 H425 H -0.07298 0.37373 0.79794
 H426 H -0.10864 0.43088 0.74955
 H427 H -0.06928 0.45662 0.75071
 H428 H -0.03369 0.39946 0.79955
 C429 C 0.25301 0.07553 0.39633
 C430 C 0.23501 0.09485 0.40164
 C431 C 0.21711 0.09139 0.42146
 C432 C 0.21710 0.06850 0.43573
 C433 C 0.23966 0.17372 0.33875
 C434 C 0.25300 0.05272 0.41045
 C435 C 0.23485 0.11774 0.38604
 C436 C 0.23564 0.13614 0.37195
 C437 C 0.23746 0.15679 0.35444
 C438 C 0.23491 0.04881 0.43013
 H439 H 0.26700 0.07802 0.38111
 H440 H 0.20305 0.10623 0.42570
 H441 H 0.20289 0.06595 0.45070
 H442 H 0.26724 0.03812 0.40603
 C443 C 0.77909 0.07884 0.60212
 C444 C 0.76126 0.09785 0.59528
 C445 C 0.74475 0.09379 0.57445
 C446 C 0.74583 0.07060 0.56077
 C447 C 0.75360 0.17747 0.65711
 C448 C 0.78015 0.05570 0.58855
 C449 C 0.75918 0.12081 0.61064
 C450 C 0.75751 0.13937 0.62445
 C451 C 0.75549 0.16030 0.64163
 C452 C 0.76334 0.05118 0.56792
 H453 H 0.79194 0.08176 0.61820
 H454 H 0.73077 0.10833 0.56909
 H455 H 0.73251 0.06757 0.54511
 H456 H 0.79407 0.04124 0.59424
 C457 C 0.21083 -0.07146 0.60643
 C458 C 0.22361 -0.09371 0.59811
 C459 C 0.23655 -0.09367 0.57452
 C460 C 0.23747 -0.07122 0.55972
 C461 C 0.23347 -0.17137 0.66221
 C462 C 0.21174 -0.04899 0.59168
 C463 C 0.22513 -0.11584 0.61472
 C464 C 0.22717 -0.13386 0.62920
 C465 C 0.23030 -0.15436 0.64675
 C466 C 0.22555 -0.04846 0.56842
 H467 H 0.20077 -0.07127 0.62466
 H468 H 0.24662 -0.11074 0.56795
 H469 H 0.24849 -0.07134 0.54205
 H470 H 0.20210 -0.03188 0.59871
 C471 C 0.73559 -0.07406 0.39672
 C472 C 0.74926 -0.09609 0.40412
 C473 C 0.76453 -0.09554 0.42624
 C474 C 0.76669 -0.07281 0.44048
 C475 C 0.74686 -0.17410 0.33994
 C476 C 0.73776 -0.05134 0.41087
 C477 C 0.74865 -0.11862 0.38805
 C478 C 0.74820 -0.13680 0.37367
 C479 C 0.74759 -0.15728 0.35587
 C480 C 0.75371 -0.05033 0.43264
 H481 H 0.72369 -0.07427 0.37965
 H482 H 0.77528 -0.11246 0.43209
 H483 H 0.77928 -0.07251 0.45703
 H484 H 0.72728 -0.03444 0.40458
 C485 C 0.60562 0.73484 -0.07342
 C486 C 0.59813 0.74749 -0.09596
 C487 C 0.57570 0.76245 -0.09614
 C488 C 0.56109 0.76518 -0.07371
 C489 C 0.66034 0.74282 -0.17552
 C490 C 0.59109 0.73757 -0.05099
 C491 C 0.61416 0.74597 -0.11847
 C492 C 0.62820 0.74488 -0.13687
 C493 C 0.64528 0.74375 -0.15793
 C494 C 0.56885 0.75306 -0.05079
 H495 H 0.62292 0.72319 -0.07306
 H496 H 0.56978 0.77240 -0.11347
 H497 H 0.54421 0.77742 -0.07406
 H498 H 0.59734 0.72772 -0.03374
 C499 C 0.39519 0.26763 -0.06943
 C500 C 0.40273 0.25531 -0.09215
 C501 C 0.42514 0.24033 -0.09254
 C502 C 0.43964 0.23720 -0.07014
 C503 C 0.34041 0.25863 -0.17148
 C504 C 0.40962 0.26451 -0.04703
 C505 C 0.38664 0.25689 -0.11456
 C506 C 0.37257 0.25779 -0.13291
 C507 C 0.35548 0.25841 -0.15392
 C508 C 0.43180 0.24893 -0.04703
 H509 H 0.37787 0.27927 -0.06892
 H510 H 0.43107 0.23060 -0.10999
 H511 H 0.45647 0.22489 -0.07065
 H512 H 0.40331 0.27406 -0.02962
 C513 C 0.39385 0.73348 0.06693
 C514 C 0.40102 0.74613 0.08952
 C515 C 0.42322 0.76119 0.08983
 C516 C 0.43788 0.76405 0.06747
 C517 C 0.33842 0.74282 0.16881
 C518 C 0.40843 0.73635 0.04457
 C519 C 0.38481 0.74470 0.11190
 C520 C 0.37066 0.74384 0.13023
 C521 C 0.35350 0.74317 0.15123
 C522 C 0.43040 0.75198 0.04449
 H523 H 0.37672 0.72176 0.06647
 H524 H 0.42888 0.77116 0.10719
 H525 H 0.45454 0.77641 0.06792
 H526 H 0.40241 0.72653 0.02726
 C527 C 0.60653 0.26405 0.07106
 C528 C 0.59926 0.25097 0.09341
 C529 C 0.57696 0.23605 0.09345
 C530 C 0.56231 0.23374 0.07106
 C531 C 0.66268 0.25336 0.17188
 C532 C 0.59195 0.26173 0.04867
 C533 C 0.61547 0.25189 0.11576
 C534 C 0.62975 0.25245 0.13396
 C535 C 0.64721 0.25296 0.15468
 C536 C 0.56990 0.24624 0.04831
 H537 H 0.62373 0.27567 0.07081
 H538 H 0.57122 0.22576 0.11062
 H539 H 0.54556 0.22149 0.07127
 H540 H 0.59806 0.27187 0.03155
 C541 C -0.07251 0.60560 0.77693
 C542 C -0.09038 0.59920 0.75798
 C543 C -0.08579 0.57809 0.74187
 C544 C -0.06331 0.56349 0.74465
 C545 C -0.17095 0.65956 0.74754
 C546 C -0.05006 0.59108 0.77972
 C547 C -0.11309 0.61474 0.75484
 C548 C -0.13173 0.62835 0.75243
 C549 C -0.15310 0.64490 0.74977
 C550 C -0.04515 0.56992 0.76355
 H551 H -0.07588 0.62189 0.78951
 H552 H -0.09947 0.57305 0.72706
 H553 H -0.05993 0.54748 0.73175
 H554 H -0.03660 0.59628 0.79467
 C555 C -0.07363 0.39788 0.26499
 C556 C -0.09563 0.40556 0.25156
 C557 C -0.09511 0.42781 0.23640
 C558 C -0.07247 0.44202 0.23423
 C559 C -0.17403 0.34252 0.25429
 C560 C -0.05101 0.41200 0.26280
 C561 C -0.11817 0.38972 0.25238
 C562 C -0.13643 0.37560 0.25298
 C563 C -0.15705 0.35815 0.25365
 C564 C -0.05007 0.43401 0.24710
 H565 H -0.07383 0.38069 0.27678
 H566 H -0.11201 0.43385 0.22583
 H567 H -0.07223 0.45875 0.22181
 H568 H -0.03416 0.40557 0.27320
 C569 C 0.08685 0.41921 0.73943
 C570 C 0.09120 0.39765 0.75501
 C571 C 0.07335 0.39111 0.77398
 C572 C 0.05115 0.40589 0.77728
 C573 C 0.17112 0.33623 0.74558
 C574 C 0.06460 0.43409 0.74273
 C575 C 0.11370 0.38185 0.75153
 C576 C 0.13216 0.36798 0.74916
 C577 C 0.15335 0.35110 0.74699
 C578 C 0.04644 0.42746 0.76161
 H579 H 0.10054 0.42440 0.72465
 H580 H 0.07655 0.37451 0.78620
 H581 H 0.03770 0.40055 0.79223
 H582 H 0.06138 0.45046 0.73024
 C583 C 0.07188 0.60616 0.26657
 C584 C 0.09366 0.59879 0.25259
 C585 C 0.09291 0.57688 0.23697
 C586 C 0.07025 0.56272 0.23489
 C587 C 0.17306 0.66071 0.25463
 C588 C 0.04922 0.59208 0.26448
 C589 C 0.11626 0.61457 0.25333
 C590 C 0.13466 0.62851 0.25380
 C591 C 0.15562 0.64557 0.25424
 C592 C 0.04804 0.57043 0.24831
 H593 H 0.07226 0.62307 0.27873
 H594 H 0.10964 0.57108 0.22598
 H595 H 0.06982 0.54628 0.22211
 H596 H 0.03252 0.59826 0.27530
 C597 C 0.74683 -0.06848 0.60819
 C598 C 0.76280 -0.08947 0.60273
 C599 C 0.78014 -0.08814 0.58218
 C600 C 0.78148 -0.06583 0.56714
 C601 C 0.75443 -0.16986 0.66343
 C602 C 0.74814 -0.04622 0.59327
 C603 C 0.76126 -0.11217 0.61848
 C604 C 0.75940 -0.13072 0.63225
 C605 C 0.75680 -0.15198 0.64889
 C606 C 0.76553 -0.04459 0.57262
 H607 H 0.73329 -0.06932 0.62400
 H608 H 0.79264 -0.10429 0.57782
 H609 H 0.79517 -0.06504 0.55149
 H610 H 0.73530 -0.03037 0.59768
 C611 C 0.22964 -0.07312 0.39253
 C612 C 0.24779 -0.09181 0.39939
 C613 C 0.26305 -0.08823 0.42122
 C614 C 0.26033 -0.06587 0.43600
 C615 C 0.25677 -0.17145 0.33774
 C616 C 0.22692 -0.05080 0.40721
 C617 C 0.25095 -0.11428 0.38353
 C618 C 0.25317 -0.13267 0.36959
 C619 C 0.25532 -0.15375 0.35263
 C620 C 0.24237 -0.04682 0.42898
 H621 H 0.21768 -0.07573 0.37571
 H622 H 0.27722 -0.10256 0.42666
 H623 H 0.27263 -0.06320 0.45253
 H624 H 0.21267 -0.03665 0.40156
 C625 C 0.78238 0.06577 0.38861
 C626 C 0.76913 0.08791 0.39645
 C627 C 0.75701 0.08848 0.42046
 C628 C 0.75750 0.06674 0.43628
 C629 C 0.75817 0.16576 0.33272
 C630 C 0.78288 0.04399 0.40439
 C631 C 0.76678 0.10953 0.37931
 C632 C 0.76430 0.12740 0.36474
 C633 C 0.76103 0.14813 0.34751
 C634 C 0.77005 0.04410 0.42821
 H635 H 0.79185 0.06514 0.37007
 H636 H 0.74661 0.10549 0.42667
 H637 H 0.74718 0.06731 0.45435
 H638 H 0.79295 0.02694 0.39781
 C639 C 0.26490 0.06634 0.60752
 C640 C 0.25354 0.08965 0.60015
 C641 C 0.23912 0.09095 0.57751
 C642 C 0.23566 0.06891 0.56252
 C643 C 0.25922 0.16926 0.66218
 C644 C 0.26146 0.04428 0.59259
 C645 C 0.25572 0.11188 0.61646
 C646 C 0.25714 0.13023 0.63054
 C647 C 0.25841 0.15141 0.64744
 C648 C 0.24653 0.04525 0.57009
 H649 H 0.27610 0.06511 0.62502
 H650 H 0.23012 0.10888 0.57170
 H651 H 0.22383 0.07018 0.54546
 H652 H 0.27034 0.02642 0.59872
   
