data_POSCAR
  _audit_creation_date              2014-09-24
  _audit_creation_method            'ToBaCCo'
  _symmetry_space_group_name_H-M    'P1'
  _symmetry_Int_Tables_number       1
  _symmetry_cell_setting            triclinic
  loop_
  _symmetry_equiv_pos_as_xyz
 x,y,z
_cell_length_a 26.2408
_cell_length_b 25.9872
_cell_length_c 26.1631
_cell_angle_alpha 77.314900
_cell_angle_beta 93.338200
_cell_angle_gamma 81.045500
loop_
  _atom_site_label
  _atom_site_type_symbol
  _atom_site_fract_x
  _atom_site_fract_y
  _atom_site_fract_z
O1 O 0.55720 0.50173 0.01106
 O2 O 0.41696 0.50958 0.01849
 O3 O 0.49304 0.43331 0.01824
 O4 O 0.47974 0.57789 0.01075
 O5 O 0.47038 0.59418 -0.07609
 O6 O 0.47955 0.44999 -0.06841
 O7 O 0.40418 0.52761 -0.06819
 O8 O 0.54525 0.51559 -0.07549
 Cu9 Cu 0.48812 0.50400 0.02336
 Cu10 Cu 0.47355 0.52365 -0.08080
 C11 C 0.57516 0.50704 -0.03350
 C12 C 0.38655 0.51977 -0.02344
 C13 C 0.48780 0.41712 -0.02389
 C14 C 0.47315 0.61058 -0.03394
 O15 O -0.03933 0.55778 0.51169
 O16 O -0.03288 0.41156 0.53150
 O17 O -0.03569 0.47877 0.59244
 O18 O -0.03939 0.49093 0.44984
 O19 O 0.04602 0.48099 0.45507
 O20 O 0.04979 0.46689 0.59881
 O21 O 0.05255 0.40083 0.53556
 O22 O 0.04614 0.54615 0.51769
 Cu23 Cu -0.04539 0.48584 0.52076
 Cu24 Cu 0.05720 0.47247 0.52746
 C25 C 0.00253 0.57681 0.51199
 C26 C 0.01106 0.38144 0.53617
 C27 C 0.00742 0.47142 0.61992
 C28 C 0.00265 0.48778 0.42813
 O29 O 0.49031 0.04648 0.55182
 O30 O 0.48680 0.04463 0.41130
 O31 O 0.41811 0.04461 0.47986
 O32 O 0.55862 0.04600 0.48310
 O33 O 0.57429 -0.04241 0.50585
 O34 O 0.43399 -0.04378 0.50126
 O35 O 0.50282 -0.04378 0.43283
 O36 O 0.50561 -0.04189 0.57346
 Cu37 Cu 0.48682 0.05428 0.47939
 Cu38 Cu 0.50568 -0.05182 0.50536
 C39 C 0.49841 0.00269 0.58668
 C40 C 0.49464 0.00010 0.39813
 C41 C 0.40212 0.00013 0.49031
 C42 C 0.59035 0.00206 0.49516
 C43 C 0.50991 -0.01817 0.01207
 C44 C 0.51177 0.02429 -0.02838
 C45 C 0.51089 0.01876 -0.08375
 C46 C 0.51330 0.07881 -0.02033
 C47 C 0.51084 -0.01444 0.06803
 C48 C 0.50576 -0.07118 0.00199
 C49 C 0.55084 -0.01468 -0.10011
 C50 C 0.55041 -0.01772 -0.15285
 C51 C 0.51065 0.01338 -0.19033
 C52 C 0.47036 0.04643 -0.17361
 C53 C 0.47075 0.04928 -0.12090
 C54 C 0.55165 0.10656 -0.04197
 C55 C 0.55219 0.15903 -0.03771
 C56 C 0.51456 0.18479 -0.01153
 C57 C 0.47597 0.15700 0.01019
 C58 C 0.47526 0.10450 0.00558
 C59 C 0.47284 -0.03401 0.09877
 C60 C 0.47367 -0.03260 0.15181
 C61 C 0.51282 -0.01179 0.17545
 C62 C 0.55047 0.00847 0.14460
 C63 C 0.54994 0.00652 0.09151
 C64 C 0.45813 -0.08161 -0.01664
 C65 C 0.45388 -0.13282 -0.02302
 C66 C 0.49755 -0.17377 -0.01180
 C67 C 0.54546 -0.16265 0.00516
 C68 C 0.54933 -0.11192 0.01298
 H69 H 0.58273 -0.03773 -0.07224
 H70 H 0.58175 -0.04366 -0.16462
 H71 H 0.43815 0.06967 -0.20089
 H72 H 0.43956 0.07525 -0.10894
 H73 H 0.58103 0.08764 -0.06258
 H74 H 0.58193 0.17974 -0.05526
 H75 H 0.44443 0.08432 0.02120
 H76 H 0.44210 -0.05007 0.08158
 H77 H 0.44312 -0.04704 0.17395
 H78 H 0.58087 0.02494 0.16188
 H79 H 0.58021 0.02100 0.06890
 H80 H 0.42421 -0.05038 -0.02521
 H81 H 0.41670 -0.14042 -0.03688
 H82 H 0.57953 -0.19371 0.01382
 H83 H 0.58629 -0.10427 0.02744
 H84 H 0.44530 0.17617 0.02909
 C85 C -0.03046 0.50468 0.99986
 C86 C 0.00747 0.50951 1.03535
 C87 C 0.06132 0.51153 1.02168
 C88 C -0.00188 0.51207 1.09026
 C89 C -0.08528 0.50567 1.01192
 C90 C -0.01939 0.49821 0.94635
 C91 C 0.10217 0.47437 1.05239
 C92 C 0.15337 0.47758 1.04271
 C93 C 0.16481 0.51870 1.00251
 C94 C 0.12381 0.55494 0.97075
 C95 C 0.07240 0.55171 0.98052
 C96 C -0.02244 0.47177 1.12340
 C97 C -0.02685 0.47259 1.17626
 C98 C -0.01037 0.51363 1.19689
 C99 C 0.01012 0.55376 1.16358
 C100 C 0.01420 0.55309 1.11081
 C101 C -0.11224 0.54730 1.03138
 C102 C -0.16478 0.54913 1.03901
 C103 C -0.19151 0.51041 1.02578
 C104 C -0.16431 0.46836 1.00710
 C105 C -0.11178 0.46608 1.00025
 C106 C -0.04838 0.53348 0.90230
 C107 C -0.04141 0.52600 0.85185
 C108 C -0.00562 0.48256 0.84447
 C109 C 0.02452 0.44817 0.88845
 C110 C 0.01731 0.45554 0.93911
 H111 H 0.09430 0.44288 1.08407
 H112 H 0.18383 0.44764 1.06667
 H113 H 0.13164 0.58661 0.93925
 H114 H 0.04136 0.58110 0.95674
 H115 H -0.03368 0.43890 1.10873
 H116 H -0.04128 0.44001 1.20112
 H117 H 0.03066 0.58426 1.08605
 H118 H -0.09297 0.57893 1.03961
 H119 H -0.18500 0.58177 1.05363
 H120 H -0.18357 0.43712 0.99790
 H121 H -0.09178 0.43354 0.98533
 H122 H -0.07669 0.56676 0.90709
 H123 H -0.06398 0.55442 0.81870
 H124 H 0.05260 0.41471 0.88369
 H125 H 0.03957 0.42741 0.97268
 H126 H 0.02352 0.58548 1.17859
 C127 C 0.01659 -0.03269 0.49193
 C128 C -0.02256 0.00672 0.49582
 C129 C -0.07740 -0.00043 0.49340
 C130 C -0.01296 0.05989 0.50134
 C131 C 0.07114 -0.02394 0.49193
 C132 C 0.00741 -0.08700 0.48855
 C133 C -0.10328 -0.00356 0.44605
 C134 C -0.15595 -0.00729 0.44337
 C135 C -0.18310 -0.00912 0.48823
 C136 C -0.15691 -0.00625 0.53570
 C137 C -0.10460 -0.00147 0.53808
 C138 C -0.01800 0.10214 0.45664
 C139 C -0.01238 0.15341 0.46170
 C140 C -0.00373 0.16364 0.51166
 C141 C 0.00151 0.12119 0.55651
 C142 C -0.00268 0.06950 0.55129
 C143 C 0.10805 -0.05438 0.53252
 C144 C 0.16024 -0.04929 0.53132
 C145 C 0.17660 -0.01405 0.48893
 C146 C 0.13932 0.01711 0.44886
 C147 C 0.08713 0.01183 0.45004
 C148 C -0.01838 -0.11740 0.52664
 C149 C -0.02419 -0.16952 0.52447
 C150 C -0.00371 -0.19248 0.48442
 C151 C 0.02252 -0.16219 0.44680
 C152 C 0.02788 -0.10998 0.44873
 H153 H -0.08289 -0.00215 0.41107
 H154 H -0.17553 -0.00889 0.40628
 H155 H -0.17714 -0.00621 0.57059
 H156 H -0.08528 0.00137 0.57482
 H157 H -0.02664 0.09541 0.41789
 H158 H -0.01641 0.18554 0.42667
 H159 H 0.00104 0.03725 0.58616
 H160 H 0.09637 -0.08227 0.56509
 H161 H 0.18744 -0.07273 0.56381
 H162 H 0.15081 0.04464 0.41589
 H163 H 0.05945 0.03468 0.41766
 H164 H -0.03276 -0.10138 0.55892
 H165 H -0.04298 -0.19228 0.55528
 H166 H 0.03922 -0.17914 0.41597
 H167 H 0.04848 -0.08757 0.41930
 H168 H 0.00901 0.12795 0.59543
 C169 C -0.36875 0.50292 0.96278
 C170 C -0.33589 0.50622 1.00246
 C171 C -0.27998 0.50131 0.99699
 C172 C -0.24764 0.51462 1.03138
 H173 H -0.35026 0.51319 1.03881
 H174 H -0.26532 0.48788 0.96338
 H175 H -0.35422 0.49821 0.92582
 H176 H -0.26307 0.53179 1.06266
 C177 C 0.33333 0.52153 0.97927
 C178 C 0.31266 0.51233 1.02552
 C179 C 0.25762 0.50914 1.03185
 C180 C 0.21896 0.52432 0.99292
 H181 H 0.33760 0.50388 1.06193
 H182 H 0.24894 0.49427 1.07179
 H183 H 0.30912 0.52891 0.94264
 H184 H 0.22612 0.54360 0.95363
 C185 C 0.00175 -0.36843 0.50692
 C186 C -0.04192 -0.33298 0.50466
 C187 C -0.04199 -0.27577 0.50364
 C188 C -0.00550 -0.24890 0.48291
 H189 H -0.07883 -0.34663 0.50776
 H190 H -0.07442 -0.25508 0.51913
 H191 H 0.03883 -0.35504 0.50728
 H192 H 0.02381 -0.26838 0.46265
 C193 C 0.01459 0.32356 0.54033
 C194 C -0.02510 0.29791 0.55244
 C195 C -0.02300 0.24081 0.55239
 C196 C -0.00047 0.21887 0.51571
 H197 H -0.05997 0.31881 0.56399
 H198 H -0.04514 0.21799 0.57982
 H199 H 0.05092 0.30156 0.53288
 H200 H 0.01638 0.24368 0.48458
 C201 C 0.49929 0.00273 -0.35987
 C202 C 0.49075 0.04807 -0.34262
 C203 C 0.48957 0.04983 -0.28654
 C204 C 0.51194 0.00976 -0.24607
 H205 H 0.48171 0.08640 -0.37076
 H206 H 0.47141 0.08743 -0.27907
 H207 H 0.50601 -0.03573 -0.33202
 H208 H 0.53446 -0.02589 -0.25365
 C209 C 0.49458 0.00014 0.34181
 C210 C 0.49835 -0.04503 0.32452
 C211 C 0.49724 -0.04607 0.26824
 C212 C 0.51438 -0.00960 0.23163
 H213 H 0.49941 -0.08292 0.35229
 H214 H 0.48434 -0.08021 0.25755
 H215 H 0.49025 0.03853 0.31406
 H216 H 0.53245 0.02130 0.24332
 C217 C 0.46996 -0.33188 -0.03728
 C218 C 0.45528 -0.30993 0.00238
 C219 C 0.45539 -0.25309 0.00126
 C220 C 0.49405 -0.22845 -0.01694
 H221 H 0.44140 -0.33385 0.03633
 H222 H 0.42603 -0.23297 0.02101
 H223 H 0.47941 -0.30703 -0.07325
 H224 H 0.52664 -0.25074 -0.03090
 C225 C 0.49100 0.35979 -0.02207
 C226 C 0.49222 0.32297 0.02299
 C227 C 0.49321 0.26561 0.02468
 C228 C 0.51485 0.24157 -0.01110
 H229 H 0.48922 0.33538 0.05976
 H230 H 0.47748 0.24251 0.05775
 H231 H 0.49010 0.34820 -0.05937
 H232 H 0.53520 0.26391 -0.04081
 C233 C -0.35372 0.00330 0.49623
 C234 C -0.31812 -0.03923 0.52025
 C235 C -0.26208 -0.03779 0.52357
 C236 C -0.23916 -0.01116 0.48407
 H237 H -0.33033 -0.07519 0.54163
 H238 H -0.23879 -0.06184 0.55870
 H239 H -0.34174 0.04076 0.47863
 H240 H -0.26167 0.00803 0.44684
 C241 C 0.34589 0.00008 0.49023
 C242 C 0.32676 -0.04542 0.50426
 C243 C 0.27113 -0.04838 0.50768
 C244 C 0.23186 -0.00859 0.48544
 H245 H 0.35332 -0.08318 0.51624
 H246 H 0.26279 -0.08673 0.52784
 H247 H 0.32041 0.03849 0.48019
 H248 H 0.23987 0.02818 0.46127
 C249 C 0.00180 0.49141 1.37118
 C250 C -0.04127 0.48974 1.34178
 C251 C -0.04253 0.49032 1.28513
 C252 C -0.01048 0.51404 1.25337
 H253 H -0.07652 0.48434 1.36032
 H254 H -0.07260 0.47258 1.26912
 H255 H 0.03817 0.49287 1.35386
 H256 H 0.01589 0.53639 1.26874
 C257 C 0.00840 0.47000 0.67660
 C258 C -0.03567 0.47839 0.69939
 C259 C -0.03891 0.48488 0.75382
 C260 C 0.00089 0.47270 0.79140
 H261 H -0.07249 0.48456 0.67600
 H262 H -0.07721 0.50007 0.76311
 H263 H 0.04572 0.46537 0.69847
 H264 H 0.03842 0.45305 0.78439
   
