data_POSCAR
  _audit_creation_date              2014-09-24
  _audit_creation_method            'ToBaCCo'
  _symmetry_space_group_name_H-M    'P1'
  _symmetry_Int_Tables_number       1
  _symmetry_cell_setting            triclinic
  loop_
  _symmetry_equiv_pos_as_xyz
 x,y,z
_cell_length_a 21.8662
_cell_length_b 24.3452
_cell_length_c 22.7393
_cell_angle_alpha 89.883700
_cell_angle_beta 92.667700
_cell_angle_gamma 89.347600
loop_
  _atom_site_label
  _atom_site_type_symbol
  _atom_site_fract_x
  _atom_site_fract_y
  _atom_site_fract_z
C1 C 0.17924 0.19797 0.27756
 C2 C 0.21130 0.15340 0.25389
 C3 C 0.22725 0.15242 0.19503
 C4 C 0.21418 0.19886 0.15962
 C5 C 0.18195 0.24432 0.18156
 C6 C 0.16531 0.24360 0.24075
 H7 H 0.22380 0.11841 0.28094
 H8 H 0.22518 0.19764 0.11384
 H9 H 0.14154 0.27877 0.25787
 C10 C -0.15730 0.80279 0.26907
 C11 C -0.21525 0.82894 0.26187
 C12 C -0.26037 0.80925 0.22148
 C13 C -0.24859 0.76142 0.18933
 C14 C -0.19185 0.73427 0.19679
 C15 C -0.14665 0.75525 0.23596
 H16 H -0.22497 0.86644 0.28513
 H17 H -0.28313 0.74572 0.15824
 H18 H -0.10383 0.73283 0.24134
 C19 C -0.21578 0.18802 -0.27407
 C20 C -0.18178 0.23573 -0.26358
 C21 C -0.18930 0.26756 -0.21318
 C22 C -0.22835 0.24864 -0.17003
 C23 C -0.26232 0.19985 -0.17851
 C24 C -0.25777 0.17172 -0.23243
 H25 H -0.14977 0.24865 -0.29552
 H26 H -0.23311 0.27284 -0.13069
 H27 H -0.28226 0.13389 -0.23956
 C28 C 0.16027 0.81310 -0.24406
 C29 C 0.20884 0.83929 -0.21334
 C30 C 0.24588 0.81015 -0.17106
 C31 C 0.23009 0.75556 -0.15708
 C32 C 0.17962 0.73063 -0.18600
 C33 C 0.14554 0.75946 -0.22937
 H34 H 0.22100 0.88036 -0.22648
 H35 H 0.25634 0.73236 -0.12379
 H36 H 0.10686 0.73983 -0.25189
 C37 C 0.21009 1.21218 0.74119
 C38 C 0.17859 1.26023 0.75690
 C39 C 0.19433 1.28640 0.81040
 C40 C 0.24051 1.26455 0.84807
 C41 C 0.27153 1.21619 0.83383
 C42 C 0.25666 1.19067 0.77969
 H43 H 0.14257 1.27724 0.72775
 H44 H 0.25214 1.28617 0.88849
 H45 H 0.27956 1.15287 0.76808
 C46 C 0.84423 0.81834 0.74054
 C47 C 0.85531 0.76341 0.75850
 C48 C 0.83213 0.74301 0.81119
 C49 C 0.79434 0.77708 0.84413
 C50 C 0.77704 0.82911 0.82256
 C51 C 0.80489 0.85067 0.77351
 H52 H 0.88503 0.73731 0.73370
 H53 H 0.77204 0.76060 0.88183
 H54 H 0.79045 0.89104 0.75784
 C55 C 0.19814 0.81869 1.25358
 C56 C 0.23874 0.83766 1.21179
 C57 C 0.25896 0.80185 1.16748
 C58 C 0.23385 0.74925 1.16222
 C59 C 0.19174 0.73071 1.20175
 C60 C 0.17577 0.76471 1.24830
 H61 H 0.25734 0.87857 1.21599
 H62 H 0.24856 0.72144 1.12848
 H63 H 0.14289 0.75011 1.27874
 C64 C 0.81314 1.20409 1.25295
 C65 C 0.82505 1.25370 1.22333
 C66 C 0.77946 1.28016 1.18671
 C67 C 0.72089 1.25706 1.18261
 C68 C 0.70927 1.20718 1.20972
 C69 C 0.75450 1.18138 1.24561
 H70 H 0.87002 1.27123 1.22848
 H71 H 0.68437 1.27532 1.15533
 H72 H 0.74456 1.14174 1.26437
 O73 O 0.56956 0.96303 0.89556
 O74 O 0.44402 0.93593 1.10527
 O75 O 0.59305 0.92757 1.07123
 O76 O 0.38130 0.97659 0.93045
 O77 O 0.54738 0.96976 1.13738
 O78 O 0.46250 0.94435 0.89746
 O79 O 0.41672 0.91857 1.01573
 O80 O 0.62281 0.93726 0.97305
 C81 C 0.61138 0.93498 0.91925
 C82 C 0.41987 0.90409 1.06799
 C83 C 0.58063 0.93082 1.12308
 C84 C 0.40624 0.94151 0.89990
 O85 O 0.44197 1.05645 0.90316
 O86 O 0.51368 1.06960 1.10329
 O87 O 0.62721 1.04631 0.98072
 O88 O 0.34144 0.99613 1.03587
 O89 O 0.40890 1.04168 1.08911
 O90 O 0.55702 1.06693 0.90975
 O91 O 0.40804 1.06518 0.98962
 O92 O 0.60550 1.03952 1.08776
 Co93 Co 0.50633 1.00682 0.91087
 Co94 Co 0.48117 1.00272 1.09856
 Co95 Co 0.60274 0.98857 1.02712
 Co96 Co 0.41547 0.99165 1.00358
 O97 O 0.50668 0.99600 1.00572
 C98 C 0.41346 1.08402 0.93969
 C99 C 0.57001 1.07546 1.10792
 C100 C 0.60804 1.07533 0.93689
 C101 C 0.35444 1.02448 1.08332
 O102 O 0.05866 0.44353 0.10723
 O103 O 0.01602 0.55931 -0.11859
 O104 O 0.03524 0.39665 -0.05485
 O105 O 0.07769 0.58136 0.05851
 O106 O 0.06616 0.47434 -0.08307
 O107 O 0.03771 0.54275 0.13125
 O108 O 0.07065 0.57972 -0.04352
 O109 O 0.01575 0.38333 0.04796
 C110 C 0.05911 0.39737 0.08322
 C111 C 0.06103 0.58384 -0.09739
 C112 C 0.07363 0.42419 -0.08084
 C113 C 0.07607 0.57424 0.11203
 O114 O -0.07722 0.53042 0.11439
 O115 O -0.03200 0.46383 -0.14826
 O116 O -0.10279 0.42352 0.02372
 O117 O -0.05302 0.60481 -0.04459
 O118 O -0.08790 0.52996 -0.08518
 O119 O -0.05844 0.42701 0.10788
 O120 O -0.04387 0.60360 0.06693
 O121 O -0.08224 0.43069 -0.07649
 Co122 Co -0.00957 0.48671 0.10483
 Co123 Co -0.01119 0.49932 -0.08016
 Co124 Co -0.03116 0.41597 -0.01236
 Co125 Co 0.01059 0.58478 0.00888
 O126 O -0.00743 0.49932 0.00904
 C127 C -0.08038 0.58117 0.10188
 C128 C -0.06967 0.42717 -0.13016
 C129 C -0.10470 0.41612 0.07707
 C130 C -0.09225 0.58078 -0.07798
 O131 O 1.12873 0.06931 0.46951
 O132 O 0.87445 0.04834 0.53637
 O133 O 0.96607 0.03415 0.37100
 O134 O 1.05142 0.09611 0.58960
 O135 O 0.90309 0.06680 0.43260
 O136 O 1.12727 0.04486 0.57486
 O137 O 0.94343 0.09278 0.58498
 O138 O 1.04833 0.08575 0.41588
 C139 C 1.09814 0.10137 0.43637
 C140 C 0.88878 0.08463 0.57233
 C141 C 0.92620 0.06905 0.38338
 C142 C 1.10735 0.08952 0.59185
 O143 O 1.09717 -0.05589 0.54868
 O144 O 0.91557 -0.04156 0.42028
 O145 O 1.08428 -0.00293 0.36193
 O146 O 0.94361 -0.01692 0.61044
 O147 O 0.89892 -0.05329 0.52953
 O148 O 1.11399 -0.04031 0.44641
 O149 O 1.05710 -0.01389 0.62240
 O150 O 1.01098 -0.05951 0.41483
 Co151 Co 1.10645 0.00672 0.50866
 Co152 Co 0.90845 0.00653 0.48087
 Co153 Co 1.03114 0.01394 0.41955
 Co154 Co 1.00028 0.03779 0.59380
 O155 O 1.00632 0.01902 0.50310
 C156 C 1.08120 -0.05607 0.60058
 C157 C 0.95710 -0.07315 0.40504
 C158 C 1.12202 -0.03670 0.39151
 C159 C 0.91192 -0.05442 0.58447
 N160 N 1.08790 0.19751 0.40326
 N161 N 1.11012 0.22448 0.35454
 C162 C 1.15708 0.19408 0.33498
 C163 C 1.16834 0.15043 0.37411
 C164 C 1.12285 0.15240 0.41398
 H165 H 1.19833 0.11534 0.36917
 H166 H 1.04472 0.20496 0.41959
 H167 H 1.08621 0.25616 0.33232
 N168 N 0.98126 -0.15800 0.34902
 N169 N 0.94872 -0.19255 0.31025
 C170 C 0.88935 -0.17560 0.30730
 C171 C 0.88329 -0.13119 0.34500
 C172 C 0.94118 -0.12134 0.36944
 H173 H 0.84278 -0.10679 0.35246
 H174 H 1.02864 -0.15905 0.35725
 H175 H 0.96950 -0.22302 0.28566
 N176 N 0.78345 0.09220 0.60685
 N177 N 0.75483 0.11898 0.65238
 C178 C 0.79451 0.15584 0.67589
 C179 C 0.84873 0.15324 0.64588
 C180 C 0.84036 0.11234 0.60416
 H181 H 0.89122 0.17402 0.65691
 H182 H 0.76548 0.05853 0.58380
 H183 H 0.71049 0.11081 0.66485
 N184 N 1.09027 -0.15605 0.61449
 N185 N 1.11080 -0.19062 0.65563
 C186 C 1.12869 -0.16176 0.70390
 C187 C 1.11820 -0.10632 0.69337
 C188 C 1.09396 -0.10484 0.63613
 H189 H 1.12956 -0.07200 0.72185
 H190 H 1.07548 -0.16739 0.57192
 H191 H 1.11515 -0.23294 0.64936
 N192 N 0.28091 1.01700 1.16147
 N193 N 0.24777 1.05355 1.19503
 C194 C 0.25360 1.10445 1.17203
 C195 C 0.29029 1.10123 1.12381
 C196 C 0.30665 1.04630 1.11937
 H197 H 0.30664 1.13479 1.09774
 H198 H 0.28783 0.97532 1.17084
 H199 H 0.22172 1.04164 1.23010
 N200 N 0.39552 0.84118 0.88917
 N201 N 0.34916 0.80435 0.87384
 C202 C 0.29992 0.83371 0.85330
 C203 C 0.31351 0.88964 0.85673
 C204 C 0.37339 0.89231 0.87947
 H205 H 0.28339 0.92412 0.84586
 H206 H 0.43826 0.83032 0.90846
 H207 H 0.35456 0.76170 0.87512
 N208 N 0.61074 0.90173 1.22575
 N209 N 0.65319 0.86977 1.25184
 C210 C 0.68220 0.84127 1.21040
 C211 C 0.65675 0.85565 1.15547
 C212 C 0.61214 0.89467 1.16711
 H213 H 0.67275 0.84378 1.11293
 H214 H 0.58391 0.93017 1.24767
 H215 H 0.66369 0.86937 1.29712
 N216 N 0.67456 1.15622 0.95692
 N217 N 0.70952 1.19191 0.92440
 C218 C 0.70279 1.17775 0.86696
 C219 C 0.66159 1.13410 0.86214
 C220 C 0.64559 1.12190 0.91901
 H221 H 0.64665 1.11199 0.82295
 H222 H 0.67319 1.15578 1.00278
 H223 H 0.73955 1.22051 0.94342
 N224 N 0.14715 0.33741 0.06039
 N225 N 0.17992 0.29740 0.08607
 C226 C 0.16146 0.29031 0.14149
 C227 C 0.11534 0.32875 0.15137
 C228 C 0.10782 0.35741 0.09887
 H229 H 0.08778 0.33285 0.18943
 H230 H 0.15086 0.34987 0.01673
 H231 H 0.21336 0.27505 0.06485
 N232 N -0.09878 0.38937 -0.22895
 N233 N -0.13045 0.34759 -0.25072
 C234 C -0.15481 0.31971 -0.20608
 C235 C -0.13853 0.34587 -0.15363
 C236 C -0.10261 0.38938 -0.17018
 H237 H -0.14879 0.33360 -0.10945
 H238 H -0.07442 0.41682 -0.25404
 H239 H -0.13483 0.33879 -0.29561
 N240 N 0.10854 0.60070 -0.19228
 N241 N 0.14305 0.63851 -0.21521
 C242 C 0.16065 0.67439 -0.17275
 C243 C 0.13709 0.65805 -0.12005
 C244 C 0.10351 0.61176 -0.13483
 H245 H 0.13708 0.68075 -0.07916
 H246 H 0.08619 0.56979 -0.21641
 H247 H 0.15024 0.64210 -0.26015
 N248 N -0.18340 0.59691 0.14208
 N249 N -0.21409 0.63829 0.16477
 C250 C -0.17878 0.68327 0.16480
 C251 C -0.12370 0.67024 0.14026
 C252 C -0.12841 0.61518 0.12677
 H253 H -0.08439 0.69634 0.13600
 H254 H -0.19956 0.55682 0.13809
 H255 H -0.25703 0.63491 0.18266
 N256 N 1.21052 0.12736 0.61309
 N257 N 1.23780 0.15965 0.65249
 C258 C 1.19506 0.18316 0.68537
 C259 C 1.13750 0.16544 0.66528
 C260 C 1.14968 0.12933 0.61984
 H261 H 1.09419 0.17251 0.68534
 H262 H 1.23367 0.10201 0.58429
 H263 H 1.28523 0.16322 0.65858
 N264 N 0.90483 -0.15496 0.59953
 N265 N 0.88905 -0.19069 0.64428
 C266 C 0.86844 -0.16007 0.68887
 C267 C 0.87249 -0.10446 0.67386
 C268 C 0.89513 -0.10327 0.61798
 H269 H 0.86136 -0.06910 0.70023
 H270 H 0.92314 -0.16693 0.55986
 H271 H 0.89009 -0.23341 0.64075
 N272 N 1.15778 -0.13235 0.39417
 N273 N 1.17529 -0.17316 0.35578
 C274 C 1.18269 -0.14992 0.30287
 C275 C 1.16919 -0.09336 0.30625
 C276 C 1.15225 -0.08457 0.36426
 H277 H 1.16727 -0.06388 0.27052
 H278 H 1.14588 -0.13967 0.43743
 H279 H 1.18236 -0.21429 0.36768
 N280 N 0.95175 0.14218 0.31302
 N281 N 0.92042 0.18178 0.27859
 C282 C 0.85986 0.17536 0.28555
 C283 C 0.85192 0.13291 0.32592
 C284 C 0.91012 0.11345 0.34158
 H285 H 0.80948 0.11747 0.34177
 H286 H 0.99924 0.13673 0.31578
 H287 H 0.94147 0.20785 0.24939
 N288 N 0.14804 0.42399 -0.15979
 N289 N 0.17523 0.38708 -0.19249
 C290 C 0.16372 0.33687 -0.17121
 C291 C 0.12875 0.34187 -0.12227
 C292 C 0.11941 0.39783 -0.11673
 H293 H 0.11150 0.30928 -0.09539
 H294 H 0.14739 0.46620 -0.16825
 H295 H 0.20186 0.39628 -0.22809
 N296 N -0.21199 0.38475 0.07598
 N297 N -0.24467 0.34659 0.10727
 C298 C -0.20698 0.32584 0.15114
 C299 C -0.15081 0.35209 0.14952
 C300 C -0.15576 0.38747 0.10182
 H301 H -0.10944 0.34402 0.17617
 H302 H -0.22783 0.40440 0.03724
 H303 H -0.28859 0.33426 0.09381
 N304 N -0.13689 0.59909 -0.17701
 N305 N -0.15127 0.64634 -0.20967
 C306 C -0.15691 0.68820 -0.17164
 C307 C -0.14581 0.66881 -0.11432
 C308 C -0.13146 0.61320 -0.11973
 H309 H -0.14059 0.69343 -0.07484
 H310 H -0.12274 0.56201 -0.19532
 H311 H -0.15591 0.64789 -0.25557
 N312 N 0.11250 0.60296 0.21235
 N313 N 0.14190 0.64504 0.23639
 C314 C 0.16332 0.67633 0.19311
 C315 C 0.14737 0.65269 0.13917
 C316 C 0.11456 0.60664 0.15333
 H317 H 0.15349 0.66951 0.09576
 H318 H 0.08875 0.57395 0.23602
 H319 H 0.14539 0.65279 0.28157
 N320 N 0.35861 1.16975 0.96261
 N321 N 0.32029 1.20429 0.93498
 C322 C 0.31670 1.19149 0.87711
 C323 C 0.35564 1.14719 0.86774
 C324 C 0.38053 1.13452 0.92313
 H325 H 0.36122 1.12420 0.82765
 H326 H 0.36682 1.16858 1.00822
 H327 H 0.29453 1.23350 0.95683
 N328 N 0.36066 0.81960 1.04902
 N329 N 0.31490 0.79509 1.07390
 C330 C 0.30790 0.81712 1.12768
 C331 C 0.35230 0.85655 1.13771
 C332 C 0.38452 0.85712 1.08659
 H333 H 0.35697 0.88450 1.17455
 H334 H 0.37219 0.81344 1.00547
 H335 H 0.28692 0.76623 1.05242
 N336 N 0.56104 1.16627 1.15644
 N337 N 0.59746 1.20062 1.18565
 C338 C 0.65378 1.17773 1.19116
 C339 C 0.65372 1.12726 1.16353
 C340 C 0.59424 1.12183 1.14176
 H341 H 0.69226 1.09994 1.15721
 H342 H 0.51485 1.17402 1.14532
 H343 H 0.58433 1.23965 1.19972
 N344 N 0.62900 0.89100 0.82419
 N345 N 0.67299 0.86411 0.79870
 C346 C 0.71899 0.85430 0.83882
 C347 C 0.70357 0.87536 0.89292
 C348 C 0.64610 0.89902 0.88114
 H349 H 0.73165 0.87684 0.93334
 H350 H 0.58893 0.90530 0.80215
 H351 H 0.67203 0.85386 0.75407
   
