data_POSCAR
  _audit_creation_date              2014-09-24
  _audit_creation_method            'ToBaCCo'
  _symmetry_space_group_name_H-M    'P1'
  _symmetry_Int_Tables_number       1
  _symmetry_cell_setting            triclinic
  loop_
  _symmetry_equiv_pos_as_xyz
 x,y,z
_cell_length_a 22.4580
_cell_length_b 25.4369
_cell_length_c 27.1523
_cell_angle_alpha 100.162200
_cell_angle_beta 97.456700
_cell_angle_gamma 96.236800
loop_
  _atom_site_label
  _atom_site_type_symbol
  _atom_site_fract_x
  _atom_site_fract_y
  _atom_site_fract_z
C1 C 0.34506 0.23485 0.28233
 C2 C 0.32151 0.21883 0.32356
 C3 C 0.28464 0.25043 0.34959
 C4 C 0.27206 0.29903 0.33533
 C5 C 0.29556 0.31471 0.29459
 C6 C 0.33220 0.28258 0.26805
 C7 C 0.37413 0.20840 0.24568
 N8 N 0.37923 0.23926 0.21024
 C9 C 0.35391 0.28469 0.22323
 C10 C 0.26783 0.35760 0.28333
 N11 N 0.22868 0.36862 0.31656
 C12 C 0.23098 0.33352 0.34872
 C13 C 0.26201 0.22173 0.38326
 N14 N 0.28532 0.17450 0.37870
 C15 C 0.32165 0.17198 0.34242
 H16 H 0.38751 0.16852 0.24336
 H17 H 0.34839 0.31508 0.20029
 H18 H 0.27180 0.37625 0.25080
 H19 H 0.20046 0.32975 0.37603
 H20 H 0.23003 0.23359 0.40833
 H21 H 0.34417 0.13778 0.32934
 C22 C 0.76751 -0.22525 0.19412
 C23 C 0.78342 -0.20879 0.24683
 C24 C 0.81614 -0.24001 0.27456
 C25 C 0.83200 -0.28856 0.25030
 C26 C 0.81613 -0.30489 0.19838
 C27 C 0.78402 -0.27317 0.17028
 C28 C 0.73497 -0.20401 0.15724
 N29 N 0.73195 -0.23854 0.11260
 C30 C 0.76132 -0.28077 0.11976
 C31 C 0.83040 -0.35617 0.18566
 N32 N 0.85417 -0.37087 0.22867
 C33 C 0.85535 -0.33045 0.26861
 C34 C 0.82283 -0.21607 0.32481
 N35 N 0.79417 -0.17189 0.32802
 C36 C 0.76974 -0.16674 0.28099
 H37 H 0.71551 -0.16666 0.16230
 H38 H 0.76620 -0.31409 0.09032
 H39 H 0.81961 -0.38244 0.14879
 H40 H 0.86755 -0.33304 0.30794
 H41 H 0.84466 -0.23062 0.35675
 H42 H 0.74329 -0.13541 0.27258
 C43 C 0.66378 0.20958 0.78393
 C44 C 0.69621 0.20107 0.74340
 C45 C 0.74784 0.23552 0.74256
 C46 C 0.76674 0.27999 0.78198
 C47 C 0.73469 0.28891 0.82266
 C48 C 0.68286 0.25270 0.82402
 C49 C 0.61571 0.17868 0.79552
 N50 N 0.60497 0.20154 0.84164
 C51 C 0.64552 0.24661 0.86018
 C52 C 0.76364 0.33584 0.85448
 N53 N 0.81137 0.35434 0.83344
 C54 C 0.81406 0.32091 0.78954
 C55 C 0.77244 0.21491 0.70041
 N56 N 0.73609 0.16933 0.67611
 C57 C 0.68939 0.16037 0.70181
 H58 H 0.59281 0.14041 0.77361
 H59 H 0.64974 0.27093 0.89775
 H60 H 0.75017 0.35568 0.88915
 H61 H 0.84685 0.32690 0.76442
 H62 H 0.81395 0.23096 0.68888
 H63 H 0.65449 0.12579 0.69194
 C64 C 0.27724 -0.20924 0.75799
 C65 C 0.26283 -0.19484 0.71071
 C66 C 0.21188 -0.22130 0.67756
 C67 C 0.17523 -0.26325 0.69108
 C68 C 0.18957 -0.27768 0.73784
 C69 C 0.24079 -0.25031 0.77161
 C70 C 0.32099 -0.18727 0.79914
 N71 N 0.31188 -0.21430 0.83680
 C72 C 0.26304 -0.25263 0.82097
 C73 C 0.14654 -0.31982 0.74050
 N74 N 0.10721 -0.33070 0.69664
 C75 C 0.12383 -0.29689 0.66603
 C76 C 0.20785 -0.19724 0.63560
 N77 N 0.25542 -0.15746 0.64286
 C78 C 0.28936 -0.15565 0.68827
 H79 H 0.35454 -0.15237 0.80247
 H80 H 0.24325 -0.27793 0.84441
 H81 H 0.14481 -0.34167 0.77120
 H82 H 0.10115 -0.29760 0.62816
 H83 H 0.17305 -0.20757 0.60264
 H84 H 0.32961 -0.12724 0.70409
 C85 C 0.69547 -0.16986 0.76740
 C86 C 0.71571 -0.17039 0.72075
 C87 C 0.75457 -0.20630 0.70460
 C88 C 0.77249 -0.24319 0.73453
 C89 C 0.75141 -0.24364 0.78029
 C90 C 0.71293 -0.20644 0.79702
 C91 C 0.65830 -0.13858 0.79255
 N92 N 0.65305 -0.15574 0.83630
 C93 C 0.68558 -0.19711 0.83982
 C94 C 0.76891 -0.28839 0.79745
 N95 N 0.80007 -0.31448 0.76337
 C96 C 0.80255 -0.28738 0.72483
 C97 C 0.76733 -0.19704 0.65829
 N98 N 0.73615 -0.15729 0.64617
 C99 C 0.70455 -0.14049 0.68388
 H100 H 0.63730 -0.10573 0.78038
 H101 H 0.68977 -0.21795 0.87135
 H102 H 0.75442 -0.30391 0.82926
 H103 H 0.81880 -0.30205 0.68977
 H104 H 0.79762 -0.21687 0.63556
 H105 H 0.67743 -0.10773 0.68511
 C106 C 0.27987 0.25214 0.77355
 C107 C 0.26316 0.23228 0.72155
 C108 C 0.22052 0.25518 0.69361
 C109 C 0.19512 0.29921 0.71740
 C110 C 0.21200 0.31920 0.76894
 C111 C 0.25410 0.29499 0.79734
 C112 C 0.31018 0.23039 0.81071
 N113 N 0.30321 0.25872 0.85613
 C114 C 0.26895 0.29815 0.84882
 C115 C 0.17608 0.35844 0.78263
 N116 N 0.13845 0.36249 0.74056
 C117 C 0.14904 0.32639 0.70073
 C118 C 0.20725 0.22311 0.64587
 N119 N 0.24126 0.18217 0.64464
 C120 C 0.27551 0.18708 0.69053
 H121 H 0.32942 0.19292 0.80519
 H122 H 0.25054 0.32292 0.87828
 H123 H 0.17559 0.38066 0.82041
 H124 H 0.12371 0.31933 0.66290
 H125 H 0.17385 0.22791 0.61503
 H126 H 0.30478 0.15852 0.70118
 C127 C 0.33198 -0.25259 0.18917
 C128 C 0.30991 -0.22865 0.23292
 C129 C 0.25295 -0.24833 0.24223
 C130 C 0.21790 -0.29254 0.20864
 C131 C 0.23984 -0.31566 0.16573
 C132 C 0.29644 -0.29564 0.15594
 C133 C 0.38597 -0.24413 0.17014
 N134 N 0.38211 -0.28102 0.12671
 C135 C 0.32823 -0.31267 0.11774
 C136 C 0.19901 -0.35935 0.14109
 N137 N 0.15296 -0.36313 0.16809
 C138 C 0.16330 -0.32307 0.20959
 C139 C 0.24279 -0.21739 0.28657
 N140 N 0.29210 -0.17984 0.30436
 C141 C 0.33359 -0.18635 0.27242
 H142 H 0.42502 -0.21465 0.18692
 H143 H 0.31402 -0.34636 0.08639
 H144 H 0.20350 -0.38756 0.10732
 H145 H 0.13480 -0.31794 0.23886
 H146 H 0.20261 -0.22167 0.30442
 H147 H 0.37701 -0.16153 0.27711
 C148 C 0.72738 0.20101 0.23604
 C149 C 0.73829 0.18118 0.28085
 C150 C 0.78455 0.20741 0.31891
 C151 C 0.81961 0.25414 0.31308
 C152 C 0.80801 0.27423 0.26899
 C153 C 0.76176 0.24751 0.23021
 C154 C 0.68338 0.18563 0.19430
 N155 N 0.69026 0.22196 0.16371
 C156 C 0.73767 0.26011 0.18512
 C157 C 0.84668 0.32126 0.27457
 N158 N 0.88086 0.32941 0.32071
 C159 C 0.86535 0.28918 0.34499
 C160 C 0.78418 0.18032 0.35832
 N161 N 0.73841 0.13878 0.34496
 C162 C 0.70974 0.13874 0.29798
 H163 H 0.64690 0.15255 0.18812
 H164 H 0.75142 0.29557 0.17027
 H165 H 0.84946 0.34782 0.24762
 H166 H 0.88505 0.28623 0.38281
 H167 H 0.81429 0.19028 0.39413
 H168 H 0.67150 0.10994 0.27795
 O169 O 0.33233 0.03439 0.45803
 O170 O 0.29661 -0.06462 0.53779
 O171 O 0.30847 -0.07004 0.44097
 O172 O 0.31824 0.04007 0.55210
 O173 O 0.22064 0.04517 0.53281
 O174 O 0.21087 -0.06484 0.42254
 O175 O 0.19897 -0.06031 0.51812
 O176 O 0.23491 0.04111 0.44043
 Cu177 Cu 0.32355 -0.01609 0.49910
 Cu178 Cu 0.20645 -0.00987 0.47633
 C179 C 0.28992 0.05570 0.43693
 C180 C 0.24180 -0.07874 0.54212
 C181 C 0.25782 -0.08554 0.41241
 C182 C 0.27146 0.06207 0.56062
 O183 O 0.66695 0.03918 0.53302
 O184 O 0.68305 -0.06678 0.42768
 O185 O 0.66640 -0.06328 0.52283
 O186 O 0.69437 0.03682 0.44232
 O187 O 0.79237 0.04596 0.47121
 O188 O 0.76502 -0.05584 0.54815
 O189 O 0.78158 -0.05819 0.45398
 O190 O 0.76521 0.04832 0.56085
 Cu191 Cu 0.66778 -0.01471 0.47863
 Cu192 Cu 0.78587 -0.00452 0.51135
 C193 C 0.71281 0.06171 0.56479
 C194 C 0.73498 -0.07943 0.42194
 C195 C 0.71126 -0.07561 0.55001
 C196 C 0.74851 0.05834 0.44337
 O197 O 0.45401 0.26998 0.06436
 O198 O 0.52203 0.22123 -0.04919
 O199 O 0.41518 0.24887 -0.03314
 O200 O 0.55467 0.23455 0.04936
 O201 O 0.51650 0.15107 0.05100
 O202 O 0.37461 0.16974 -0.02151
 O203 O 0.48000 0.13894 -0.04830
 O204 O 0.42245 0.18601 0.06970
 Cu205 Cu 0.49032 0.25200 0.00694
 Cu206 Cu 0.44521 0.15245 0.01023
 C207 C 0.42911 0.23632 0.08744
 C208 C 0.51221 0.17123 -0.06796
 C209 C 0.37013 0.21217 -0.03927
 C210 C 0.55811 0.19064 0.06534
 O211 O 0.59771 0.74966 -0.02907
 O212 O 0.44285 0.76973 -0.07597
 O213 O 0.55137 0.80300 -0.08545
 O214 O 0.49173 0.71610 -0.00359
 O215 O 0.49193 0.78633 0.05716
 O216 O 0.55685 0.87316 -0.02322
 O217 O 0.44674 0.83714 -0.01154
 O218 O 0.60114 0.81401 0.03809
 Cu219 Cu 0.51780 0.75117 -0.05338
 Cu220 Cu 0.52432 0.83462 0.02136
 C221 C 0.62624 0.77884 0.01160
 C222 C 0.41900 0.80786 -0.05266
 C223 C 0.56668 0.85291 -0.06713
 C224 C 0.48252 0.73594 0.04064
 O225 O 0.10798 0.48109 0.28829
 O226 O -0.03393 0.54138 0.26870
 O227 O 0.01185 0.48358 0.33004
 O228 O 0.06908 0.55066 0.23284
 O229 O 0.02147 0.48370 0.17273
 O230 O -0.02402 0.41190 0.27052
 O231 O -0.07499 0.46775 0.21329
 O232 O 0.07019 0.41576 0.22311
 Cu233 Cu 0.04335 0.52173 0.28547
 Cu234 Cu -0.00491 0.43760 0.21382
 C235 C 0.11236 0.43737 0.25880
 C236 C -0.07927 0.51340 0.23883
 C237 C -0.01589 0.43608 0.31659
 C238 C 0.05320 0.52966 0.18633
 O239 O -0.03938 0.52091 0.68983
 O240 O -0.10416 0.44791 0.78095
 O241 O -0.14081 0.51582 0.72760
 O242 O -0.00812 0.44467 0.73615
 O243 O 0.03739 0.50675 0.80149
 O244 O -0.09407 0.58350 0.78739
 O245 O -0.06104 0.51432 0.84344
 O246 O 0.01016 0.58353 0.75307
 Cu247 Cu -0.07754 0.47605 0.72736
 Cu248 Cu -0.02224 0.55348 0.80261
 C249 C -0.00282 0.56418 0.70602
 C250 C -0.09434 0.46936 0.82780
 C251 C -0.14054 0.56134 0.75542
 C252 C 0.03691 0.46280 0.77046
 N253 N 0.40025 0.22273 0.16432
 N254 N 0.40947 0.25508 0.13447
 N255 N 0.70878 0.76856 0.06892
 N256 N 0.68816 0.77318 0.02588
 N257 N 0.57037 0.17680 -0.13322
 N258 N 0.53717 0.14972 -0.11164
 N259 N 0.33706 0.80186 -0.11690
 N260 N 0.36048 0.81887 -0.07247
 N261 N 0.18149 0.39985 0.31013
 N262 N 0.16360 0.40997 0.26682
 N263 N 0.06446 0.62934 0.68368
 N264 N 0.02382 0.59077 0.67037
 N265 N -0.14017 0.58028 0.23195
 N266 N -0.13630 0.53279 0.23352
 N267 N -0.15443 0.39957 0.84940
 N268 N -0.12122 0.44293 0.86349
 N269 N 0.27095 0.13376 0.40569
 N270 N 0.30487 0.09733 0.40983
 N271 N 0.74727 0.13443 0.63327
 N272 N 0.70405 0.10100 0.60646
 N273 N 0.26808 -0.12221 0.60992
 N274 N 0.22785 -0.11503 0.57504
 N275 N 0.78842 -0.13847 0.37351
 N276 N 0.74083 -0.11630 0.37749
 N277 N 0.62438 0.86593 -0.12922
 N278 N 0.59743 0.88627 -0.09550
 N279 N 0.30901 0.23926 -0.10331
 N280 N 0.31304 0.21847 -0.06560
 N281 N 0.42421 0.71091 0.09960
 N282 N 0.46254 0.70043 0.07210
 N283 N 0.64811 0.22554 0.12197
 N284 N 0.60646 0.18657 0.10325
 N285 N -0.19557 0.63499 0.75810
 N286 N -0.19465 0.58594 0.75093
 N287 N -0.07851 0.37003 0.33845
 N288 N -0.03993 0.40978 0.35329
 N289 N 0.09128 0.39444 0.73835
 N290 N 0.08739 0.43313 0.77413
 N291 N 0.11034 0.59699 0.15857
 N292 N 0.07051 0.55782 0.14837
 N293 N 0.74352 -0.13143 0.60544
 N294 N 0.70089 -0.10900 0.58585
 N295 N 0.29871 -0.13909 0.34786
 N296 N 0.25279 -0.12660 0.36810
 N297 N 0.72389 0.10061 0.37443
 N298 N 0.76118 0.09656 0.41252
 N299 N 0.23709 0.13905 0.60355
 N300 N 0.27657 0.10668 0.60179
   
