data_POSCAR
  _audit_creation_date              2014-09-24
  _audit_creation_method            'ToBaCCo'
  _symmetry_space_group_name_H-M    'P1'
  _symmetry_Int_Tables_number       1
  _symmetry_cell_setting            triclinic
  loop_
  _symmetry_equiv_pos_as_xyz
 x,y,z
_cell_length_a 36.4435
_cell_length_b 17.7613
_cell_length_c 12.5842
_cell_angle_alpha 91.223700
_cell_angle_beta 90.364300
_cell_angle_gamma 90.643000
loop_
  _atom_site_label
  _atom_site_type_symbol
  _atom_site_fract_x
  _atom_site_fract_y
  _atom_site_fract_z
C1 C 0.81840 0.17324 0.38665
 C2 C 0.83892 0.15933 0.47918
 C3 C 0.82591 0.17808 0.58087
 C4 C 0.78904 0.20249 0.59198
 C5 C 0.76721 0.21385 0.50031
 C6 C 0.78115 0.19566 0.39787
 C7 C 0.75634 0.19484 0.31165
 C8 C 0.72162 0.22577 0.32149
 C9 C 0.70943 0.25467 0.41957
 C10 C 0.73105 0.24296 0.51113
 C11 C 0.77206 0.20884 0.69192
 C12 C 0.73667 0.23671 0.70210
 C13 C 0.71680 0.26076 0.61308
 C14 C 0.68200 0.29659 0.62215
 C15 C 0.66153 0.30936 0.52893
 C16 C 0.67573 0.29298 0.42813
 H17 H 0.76294 0.16841 0.23625
 H18 H 0.70401 0.22566 0.25185
 H19 H 0.78546 0.18987 0.76326
 H20 H 0.72478 0.23696 0.78051
 H21 H 0.86728 0.14207 0.47166
 H22 H 0.63613 0.34050 0.53383
 C23 C 0.17498 0.77424 0.61680
 C24 C 0.15533 0.79107 0.52436
 C25 C 0.16898 0.77269 0.42338
 C26 C 0.20459 0.74188 0.41401
 C27 C 0.22441 0.72357 0.50697
 C28 C 0.20840 0.73500 0.60800
 C29 C 0.22577 0.70481 0.69709
 C30 C 0.26060 0.67450 0.68922
 C31 C 0.28001 0.67592 0.59297
 C32 C 0.26051 0.69451 0.49940
 C33 C 0.22116 0.72966 0.31464
 C34 C 0.25644 0.70083 0.30715
 C35 C 0.27713 0.68528 0.39878
 C36 C 0.31375 0.65973 0.39270
 C37 C 0.33278 0.64199 0.48594
 C38 C 0.31749 0.65482 0.58659
 H39 H 0.21238 0.70334 0.77351
 H40 H 0.27200 0.64939 0.75943
 H41 H 0.20737 0.74359 0.24144
 H42 H 0.26719 0.69073 0.22833
 H43 H 0.12900 0.81854 0.53096
 H44 H 0.36134 0.62589 0.47998
 C45 C 0.18362 0.19768 -0.38446
 C46 C 0.16215 0.19206 -0.47751
 C47 C 0.17553 0.21413 -0.57677
 C48 C 0.21299 0.23746 -0.58519
 C49 C 0.23520 0.24363 -0.49241
 C50 C 0.21985 0.22853 -0.39139
 C51 C 0.24056 0.24930 -0.30033
 C52 C 0.27724 0.27022 -0.30751
 C53 C 0.29437 0.27522 -0.40652
 C54 C 0.27297 0.26537 -0.50025
 C55 C 0.22946 0.25200 -0.68376
 C56 C 0.26590 0.27526 -0.69079
 C57 C 0.28913 0.27803 -0.60123
 C58 C 0.32731 0.29774 -0.60737
 C59 C 0.34719 0.30863 -0.51245
 C60 C 0.33187 0.29442 -0.41384
 H61 H 0.22852 0.25166 -0.22218
 H62 H 0.29184 0.28429 -0.23447
 H63 H 0.21480 0.24474 -0.75795
 H64 H 0.27488 0.29311 -0.76766
 H65 H 0.13420 0.17070 -0.47259
 H66 H 0.37626 0.32246 -0.51506
 C67 C -0.32468 0.72494 -0.39064
 C68 C -0.34571 0.71828 -0.48441
 C69 C -0.33331 0.74726 -0.58072
 C70 C -0.29710 0.77731 -0.58662
 C71 C -0.27338 0.77303 -0.49703
 C72 C -0.28692 0.74579 -0.39917
 C73 C -0.26156 0.73438 -0.31618
 C74 C -0.22512 0.75750 -0.32390
 C75 C -0.21166 0.78782 -0.41810
 C76 C -0.23560 0.79342 -0.50660
 C77 C -0.28290 0.80648 -0.68125
 C78 C -0.24671 0.83029 -0.68799
 C79 C -0.22168 0.81806 -0.60529
 C80 C -0.18342 0.83259 -0.61645
 C81 C -0.16149 0.83567 -0.52444
 C82 C -0.17478 0.81200 -0.42684
 H83 H -0.26902 0.70448 -0.24562
 H84 H -0.20737 0.74969 -0.25583
 H85 H -0.29892 0.81036 -0.75299
 H86 H -0.23883 0.85894 -0.75924
 H87 H -0.37386 0.69788 -0.48044
 H88 H -0.13249 0.84957 -0.52995
 O89 O -0.05911 0.87825 0.17852
 O90 O -0.09333 0.93961 0.05404
 C91 C -0.09001 0.89569 0.13398
 O92 O 0.04608 1.14804 0.19647
 O93 O 0.08982 1.07011 0.12544
 C94 C 0.07975 1.12725 0.18378
 O95 O -0.05627 1.13267 0.17602
 O96 O -0.09179 1.06609 0.05476
 C97 C -0.08763 1.11335 0.13366
 O98 O 0.04333 0.85909 0.19803
 O99 O 0.08863 0.93355 0.12798
 C100 C 0.07745 0.87799 0.18528
 Zr101 Zr -0.00454 0.91013 0.13930
 O102 O -0.00601 0.92325 0.30701
 O103 O -0.01122 0.79270 0.15608
 Zr104 Zr -0.00261 1.09889 0.13301
 O105 O -0.00438 1.10175 0.30124
 O106 O -0.00712 1.21751 0.13097
 O107 O -0.03713 1.00515 0.14237
 O108 O 0.02774 1.00477 0.16862
 O109 O 0.06130 0.85987 -0.15985
 O110 O 0.09706 0.93272 -0.04621
 C111 C 0.09276 0.88125 -0.11977
 O112 O -0.03882 1.12903 -0.21081
 O113 O -0.08373 1.06160 -0.12615
 C114 C -0.07291 1.11094 -0.19361
 O115 O 0.06422 1.12623 -0.17199
 O116 O 0.09827 1.06033 -0.05178
 C117 C 0.09530 1.10600 -0.13024
 O118 O -0.04059 0.85797 -0.20030
 O119 O -0.08452 0.93361 -0.12532
 C120 C -0.07428 0.87892 -0.18776
 Zr121 Zr 0.00790 0.90097 -0.12737
 O122 O 0.01786 0.89745 -0.29305
 O123 O 0.00486 0.78192 -0.12418
 Zr124 Zr 0.00961 1.09117 -0.13386
 O125 O 0.01934 1.08703 -0.29950
 O126 O 0.00836 1.21036 -0.13380
 Zr127 Zr -0.05158 1.00017 -0.02060
 Zr128 Zr 0.05684 0.99991 0.02504
 O129 O 0.04096 0.99520 -0.13646
 O130 O -0.02289 0.99541 -0.16524
 O131 O 0.03371 0.89054 0.01914
 O132 O -0.02790 1.10893 -0.01330
 O133 O -0.02981 0.89155 -0.00628
 O134 O 0.03608 1.10970 0.01200
 H135 H 0.04228 1.00619 0.23550
 H136 H -0.04387 1.15343 -0.01912
 H137 H 0.05956 0.99255 -0.19341
 H138 H -0.04629 0.84682 -0.01002
 H139 H 0.01163 1.23618 0.08127
 H140 H 0.03033 1.22938 -0.09469
 H141 H 0.00011 1.05428 -0.33243
 H142 H -0.00257 0.92357 -0.32838
 H143 H 0.02414 0.76482 -0.07478
 H144 H -0.00164 0.76903 0.09031
 H145 H -0.03051 0.94243 0.32644
 H146 H -0.02595 1.07162 0.32285
 O147 O 0.45373 0.37271 0.19422
 O148 O 0.41357 0.42465 0.07555
 C149 C 0.42107 0.38145 0.15397
 O150 O 0.54184 0.66562 0.18957
 O151 O 0.58832 0.59851 0.11177
 C152 C 0.57614 0.65252 0.17242
 O153 O 0.44110 0.63178 0.17752
 O154 O 0.40713 0.54934 0.07277
 C155 C 0.41028 0.60305 0.14353
 O156 O 0.55790 0.38929 0.20769
 O157 O 0.59568 0.46768 0.11397
 C158 C 0.59013 0.41610 0.18336
 Zr159 Zr 0.50536 0.41594 0.14243
 O160 O 0.50248 0.41093 0.30991
 O161 O 0.51049 0.29767 0.13109
 Zr162 Zr 0.49536 0.60500 0.13407
 O163 O 0.49515 0.60601 0.30240
 O164 O 0.48518 0.72200 0.13573
 O165 O 0.46742 0.50318 0.15163
 O166 O 0.53153 0.51929 0.16513
 O167 O 0.56669 0.37856 -0.16395
 O168 O 0.60027 0.46248 -0.05989
 C169 C 0.59754 0.40765 -0.12940
 O170 O 0.45069 0.62036 -0.20541
 O171 O 0.41194 0.54547 -0.10911
 C172 C 0.41835 0.59506 -0.18076
 O173 O 0.55331 0.64684 -0.17919
 O174 O 0.59378 0.59052 -0.06579
 C175 C 0.58602 0.63658 -0.14074
 O176 O 0.46393 0.35600 -0.19138
 O177 O 0.41817 0.41922 -0.10337
 C178 C 0.42967 0.36910 -0.17079
 Zr179 Zr 0.51193 0.40801 -0.12530
 O180 O 0.51925 0.40416 -0.29212
 O181 O 0.51548 0.28931 -0.11957
 Zr182 Zr 0.50236 0.59691 -0.13503
 O183 O 0.50974 0.59117 -0.30176
 O184 O 0.49335 0.71435 -0.14047
 Zr185 Zr 0.44974 0.49363 -0.00820
 Zr186 Zr 0.55763 0.52059 0.01676
 O187 O 0.53914 0.50959 -0.14182
 O188 O 0.47507 0.49378 -0.15829
 O189 O 0.54188 0.40602 0.01647
 O190 O 0.46685 0.60716 -0.00806
 O191 O 0.47766 0.39079 0.00234
 O192 O 0.53034 0.62405 0.00610
 H193 H 0.54680 0.52591 0.23013
 H194 H 0.44846 0.64760 -0.01320
 H195 H 0.55702 0.51128 -0.20072
 H196 H 0.46353 0.34278 0.00123
 H197 H 0.49929 0.74349 0.07658
 H198 H 0.51348 0.73994 -0.10027
 H199 H 0.49112 0.55549 -0.33144
 H200 H 0.49738 0.42690 -0.32489
 H201 H 0.53364 0.27768 -0.06364
 H202 H 0.50890 0.27947 0.20480
 H203 H 0.50562 0.46292 0.33800
 H204 H 0.47365 0.57593 0.32500
 C205 C 0.34775 0.30472 0.29786
 C206 C 0.34141 0.26684 0.20190
 C207 C 0.36845 0.29039 0.13568
 C208 C 0.39022 0.33832 0.19649
 O209 O 0.37817 0.34662 0.29457
 H210 H 0.32104 0.22386 0.18280
 H211 H 0.37233 0.27359 0.05338
 C212 C -0.16526 0.83912 0.28505
 C213 C -0.17703 0.80995 0.18714
 C214 C -0.15038 0.82839 0.11672
 C215 C -0.12365 0.86416 0.17694
 O216 O -0.13213 0.87002 0.27836
 H217 H -0.20099 0.77557 0.16866
 H218 H -0.14985 0.81518 0.03235
 C219 C 0.64217 0.74445 0.33264
 C220 C 0.63369 0.80422 0.26844
 C221 C 0.60797 0.77694 0.19824
 C222 C 0.60264 0.70299 0.22502
 O223 O 0.62246 0.68346 0.30792
 H224 H 0.64395 0.86160 0.27455
 H225 H 0.59435 0.80738 0.13600
 C226 C 0.15084 1.21124 0.33634
 C227 C 0.14763 1.26595 0.26016
 C228 C 0.12019 1.24149 0.19366
 C229 C 0.10843 1.17422 0.23422
 O230 O 0.12625 1.15621 0.32180
 H231 H 0.16269 1.31863 0.25536
 H232 H 0.10992 1.26923 0.12391
 C233 C 0.66855 0.32833 -0.28186
 C234 C 0.68992 0.36005 -0.20066
 C235 C 0.66598 0.39215 -0.13115
 C236 C 0.63173 0.37831 -0.17437
 O237 O 0.63313 0.34078 -0.26615
 H238 H 0.71949 0.36501 -0.19600
 H239 H 0.67276 0.42448 -0.05977
 C240 C 0.16157 0.80456 -0.28008
 C241 C 0.18396 0.83752 -0.20268
 C242 C 0.16088 0.86609 -0.12813
 C243 C 0.12609 0.84963 -0.16605
 O244 O 0.12635 0.81303 -0.25866
 H245 H 0.21353 0.84360 -0.20320
 H246 H 0.16842 0.89896 -0.05775
 C247 C 0.34123 0.65427 -0.32411
 C248 C 0.33768 0.69996 -0.23407
 C249 C 0.36658 0.68374 -0.17050
 C250 C 0.38632 0.63115 -0.22658
 O251 O 0.37159 0.61359 -0.32037
 H252 H 0.31739 0.74261 -0.21770
 H253 H 0.37282 0.70783 -0.09275
 C254 C -0.14836 1.17931 -0.33465
 C255 C -0.14718 1.23259 -0.25268
 C256 C -0.11712 1.21597 -0.19355
 C257 C -0.10175 1.15466 -0.24378
 O258 O -0.12029 1.13233 -0.32975
 H259 H -0.16531 1.27961 -0.23911
 H260 H -0.10786 1.24403 -0.12088
 C261 C 0.65700 0.71378 -0.29298
 C262 C 0.66724 0.74425 -0.19451
 C263 C 0.64170 0.71944 -0.12462
 C264 C 0.61682 0.67858 -0.18533
 O265 O 0.62556 0.67563 -0.28709
 H266 H 0.68962 0.78274 -0.17526
 H267 H 0.64090 0.73079 -0.03979
 C268 C 0.16861 1.16898 -0.28949
 C269 C 0.18868 1.13637 -0.20903
 C270 C 0.16380 1.11317 -0.13674
 C271 C 0.13004 1.13117 -0.17814
 O272 O 0.13270 1.16369 -0.27174
 H273 H 0.21783 1.12570 -0.20588
 H274 H 0.16949 1.08283 -0.06488
 C275 C 0.35724 0.29396 -0.32221
 C276 C 0.36174 0.23361 -0.25620
 C277 C 0.39071 0.25303 -0.19188
 C278 C 0.40169 0.32317 -0.22457
 O279 O 0.38160 0.34829 -0.30344
 H280 H 0.34620 0.18134 -0.25666
 H281 H 0.40221 0.22061 -0.12816
 C282 C -0.14767 0.80589 -0.34029
 C283 C -0.13333 0.73827 -0.30919
 C284 C -0.10390 0.75708 -0.24649
 C285 C -0.10270 0.83467 -0.24389
 O286 O -0.12898 0.86466 -0.30141
 H287 H -0.14218 0.68223 -0.33408
 H288 H -0.08513 0.71903 -0.20863
 C289 C 0.33515 0.66079 0.29332
 C290 C 0.33730 0.72197 0.22750
 C291 C 0.36453 0.70564 0.15758
 C292 C 0.37698 0.63610 0.18616
 O293 O 0.35987 0.60928 0.26959
 H294 H 0.32248 0.77431 0.23422
 H295 H 0.37556 0.74196 0.09741
 C296 C -0.16259 1.16995 0.28852
 C297 C -0.17164 1.20701 0.19591
 C298 C -0.14499 1.18926 0.12450
 C299 C -0.12078 1.14574 0.17925
 O300 O -0.13093 1.13447 0.27818
 H301 H -0.19353 1.24627 0.18226
 H302 H -0.14274 1.20813 0.04362
 C303 C 0.65997 0.33225 0.33551
 C304 C 0.68167 0.37152 0.26580
 C305 C 0.65813 0.40645 0.20022
 C306 C 0.62349 0.38719 0.23466
 O307 O 0.62435 0.34259 0.31802
 H308 H 0.71130 0.37634 0.26540
 H309 H 0.66539 0.44312 0.13590
 C310 C 0.14453 0.78307 0.33061
 C311 C 0.13548 0.72600 0.25876
 C312 C 0.10968 0.75544 0.19363
 C313 C 0.10489 0.82816 0.23048
 O314 O 0.12557 0.84518 0.31458
 H315 H 0.14570 0.66901 0.25652
 H316 H 0.09544 0.72705 0.12825
   
