data_POSCAR
  _audit_creation_date              2014-09-24
  _audit_creation_method            'ToBaCCo'
  _symmetry_space_group_name_H-M    'P1'
  _symmetry_Int_Tables_number       1
  _symmetry_cell_setting            triclinic
  loop_
  _symmetry_equiv_pos_as_xyz
 x,y,z
_cell_length_a 36.2385
_cell_length_b 35.7521
_cell_length_c 36.3145
_cell_angle_alpha 89.831200
_cell_angle_beta 90.032500
_cell_angle_gamma 89.973100
loop_
  _atom_site_label
  _atom_site_type_symbol
  _atom_site_fract_x
  _atom_site_fract_y
  _atom_site_fract_z
C1 C 0.59860 0.65090 0.62564
 N2 N 0.59891 0.62427 0.65234
 C3 C 0.62568 0.59770 0.65263
 N4 N 0.65214 0.59778 0.62619
 C5 C 0.65183 0.62441 0.59948
 N6 N 0.62506 0.65096 0.59921
 C7 C 0.90275 0.34823 0.12562
 N8 N 0.90250 0.37483 0.15219
 C9 C 0.87579 0.40145 0.15234
 N10 N 0.84931 0.40145 0.12589
 C11 C 0.84954 0.37485 0.09931
 N12 N 0.87626 0.34824 0.09918
 C13 C 0.40153 0.15128 -0.12498
 N14 N 0.37510 0.15127 -0.09852
 C15 C 0.34831 0.12476 -0.09873
 N16 N 0.34796 0.09825 -0.12540
 C17 C 0.37439 0.09826 -0.15186
 N18 N 0.40117 0.12477 -0.15165
 C19 C 0.09714 0.84858 0.37439
 N20 N 0.09742 0.87525 0.34772
 C21 C 0.12414 0.90183 0.34750
 N22 N 0.15059 0.90174 0.37397
 C23 C 0.15033 0.87508 0.40065
 N24 N 0.12360 0.84850 0.40085
 N25 N 0.08151 0.18476 0.10938
 N26 N 0.06708 0.16943 0.13904
 C27 C 0.03719 0.18932 0.14924
 C28 C 0.03293 0.21842 0.12463
 C29 C 0.06135 0.21487 0.09969
 H30 H 0.01982 0.18320 0.17269
 H31 H 0.06690 0.23281 0.07632
 Cu32 Cu 0.08884 0.12504 0.16130
 Cu33 Cu 0.12530 0.16456 0.08554
 Cu34 Cu 0.16451 0.08539 0.12483
 N35 N 0.11105 0.08065 0.18311
 N36 N 0.14069 0.06528 0.16868
 C37 C 0.15035 0.03518 0.18888
 C38 C 0.12543 0.03169 0.21732
 C39 C 0.10085 0.06081 0.21303
 H40 H 0.17370 0.01721 0.18333
 H41 H 0.07741 0.06696 0.23040
 N42 N 0.18456 0.10985 0.08044
 N43 N 0.16962 0.14001 0.06547
 C44 C 0.18949 0.14995 0.03565
 C45 C 0.21807 0.12486 0.03189
 C46 C 0.21431 0.09983 0.06052
 H47 H 0.18370 0.17361 0.01795
 H48 H 0.23197 0.07614 0.06632
 H49 H 0.11783 0.10989 0.10263
 H50 H 0.14760 0.14008 0.13214
 N51 N 0.41771 0.81526 0.60880
 N52 N 0.43209 0.83050 0.63845
 C53 C 0.46208 0.81072 0.64867
 C54 C 0.46647 0.78177 0.62409
 C55 C 0.43802 0.78530 0.59914
 H56 H 0.47944 0.81681 0.67214
 H57 H 0.43253 0.76744 0.57579
 Cu58 Cu 0.41011 0.87466 0.66066
 Cu59 Cu 0.37379 0.83533 0.58492
 Cu60 Cu 0.33419 0.91409 0.62414
 N61 N 0.38769 0.91882 0.68243
 N62 N 0.35796 0.93410 0.66798
 C63 C 0.34816 0.96405 0.68815
 C64 C 0.37309 0.96753 0.71658
 C65 C 0.39782 0.93857 0.71233
 H66 H 0.32472 0.98193 0.68258
 H67 H 0.42131 0.93246 0.72970
 N68 N 0.31424 0.88974 0.57977
 N69 N 0.32932 0.85974 0.56483
 C70 C 0.30947 0.84984 0.53502
 C71 C 0.28075 0.87478 0.53124
 C72 C 0.28440 0.89969 0.55985
 H73 H 0.31537 0.82630 0.51735
 H74 H 0.26662 0.92325 0.56563
 H75 H 0.38099 0.88995 0.60197
 H76 H 0.35140 0.85945 0.63150
 N77 N 0.91812 0.68548 0.39078
 N78 N 0.93213 0.67069 0.36074
 C79 C 0.96201 0.69060 0.35050
 C80 C 0.96669 0.71916 0.37546
 C81 C 0.93854 0.71527 0.40066
 H82 H 0.97910 0.68484 0.32678
 H83 H 0.93335 0.73277 0.42434
 Cu84 Cu 0.91000 0.62688 0.33802
 Cu85 Cu 0.87455 0.66504 0.41484
 Cu86 Cu 0.83538 0.58606 0.37579
 N87 N 0.88819 0.58207 0.31692
 N88 N 0.85900 0.56625 0.33183
 C89 C 0.84961 0.53595 0.31199
 C90 C 0.87425 0.53278 0.28330
 C91 C 0.89838 0.56230 0.28706
 H92 H 0.82663 0.51761 0.31795
 H93 H 0.92153 0.56879 0.26938
 N94 N 0.81548 0.61021 0.42026
 N95 N 0.83041 0.64031 0.43514
 C96 C 0.81062 0.65009 0.46501
 C97 C 0.78210 0.62495 0.46889
 C98 C 0.78581 0.60006 0.44028
 H99 H 0.81640 0.67370 0.48263
 H100 H 0.76816 0.57641 0.43453
 H101 H 0.88235 0.61068 0.39714
 H102 H 0.85164 0.64098 0.36846
 N103 N 0.58265 0.31521 -0.10901
 N104 N 0.56869 0.33008 -0.13914
 C105 C 0.53871 0.31032 -0.14929
 C106 C 0.53390 0.28177 -0.12417
 C107 C 0.56209 0.28551 -0.09898
 H108 H 0.52165 0.31616 -0.17306
 H109 H 0.56722 0.26797 -0.07521
 Cu110 Cu 0.59104 0.37377 -0.16211
 Cu111 Cu 0.62636 0.33540 -0.08507
 Cu112 Cu 0.66592 0.41415 -0.12458
 N113 N 0.61307 0.41845 -0.18346
 N114 N 0.64236 0.43410 -0.16864
 C115 C 0.65188 0.46437 -0.18865
 C116 C 0.62721 0.46768 -0.21735
 C117 C 0.60293 0.43829 -0.21342
 H118 H 0.67494 0.48259 -0.18278
 H119 H 0.57971 0.43195 -0.23105
 N120 N 0.68574 0.38988 -0.07997
 N121 N 0.67066 0.35987 -0.06492
 C122 C 0.69044 0.34998 -0.03499
 C123 C 0.71910 0.37494 -0.03126
 C124 C 0.71550 0.39986 -0.06002
 H125 H 0.68455 0.32640 -0.01723
 H126 H 0.73328 0.42340 -0.06590
 H127 H 0.61885 0.38980 -0.10308
 H128 H 0.64935 0.35933 -0.13158
 C129 C -0.07052 0.32160 0.12546
 C130 C -0.04680 0.29795 0.12531
 C131 C -0.01903 0.27026 0.12509
 C132 C 0.00469 0.24661 0.12489
 C133 C 0.57028 0.67897 0.62532
 C134 C 0.54650 0.70255 0.62504
 C135 C 0.51864 0.73015 0.62469
 C136 C 0.49484 0.75371 0.62441
 C137 C 1.07040 0.82199 0.37460
 C138 C 1.04664 0.79839 0.37480
 C139 C 1.01882 0.77079 0.37503
 C140 C 0.99504 0.74722 0.37523
 C141 C 0.42986 0.17931 -0.12475
 C142 C 0.45368 0.20282 -0.12459
 C143 C 0.48160 0.23034 -0.12442
 C144 C 0.50545 0.25382 -0.12430
 C145 C 0.12440 -0.07149 0.32080
 C146 C 0.12463 -0.04782 0.29709
 C147 C 0.12489 -0.02012 0.26932
 C148 C 0.12512 0.00352 0.24559
 C149 C 0.62597 0.57105 -0.32066
 C150 C 0.62624 0.54737 -0.29695
 C151 C 0.62657 0.51963 -0.26922
 C152 C 0.62686 0.49594 -0.24555
 C153 C 0.37404 1.07022 0.81994
 C154 C 0.37378 1.04668 0.79626
 C155 C 0.37350 1.01912 0.76851
 C156 C 0.37330 0.99558 0.74482
 C157 C 0.87553 0.42958 0.18044
 C158 C 0.87528 0.45322 0.20403
 C159 C 0.87496 0.48092 0.23165
 C160 C 0.87465 0.50458 0.25522
 C161 C 0.32037 0.12474 -0.07074
 C162 C 0.29692 0.12474 -0.04722
 C163 C 0.26946 0.12476 -0.01967
 C164 C 0.24601 0.12479 0.00385
 C165 C 0.67980 0.62449 0.57152
 C166 C 0.70327 0.62457 0.54802
 C167 C 0.73074 0.62468 0.52048
 C168 C 0.75418 0.62480 0.49695
 C169 C 0.82154 0.37487 0.07135
 C170 C 0.79804 0.37488 0.04785
 C171 C 0.77054 0.37491 0.02032
 C172 C 0.74706 0.37493 -0.00321
 C173 C 0.17831 0.87499 0.42863
 C174 C 0.20179 0.87491 0.45215
 C175 C 0.22928 0.87484 0.47969
 C176 C 0.25276 0.87481 0.50322
   
