data_POSCAR
  _audit_creation_date              2014-09-24
  _audit_creation_method            'ToBaCCo'
  _symmetry_space_group_name_H-M    'P1'
  _symmetry_Int_Tables_number       1
  _symmetry_cell_setting            triclinic
  loop_
  _symmetry_equiv_pos_as_xyz
 x,y,z
_cell_length_a 49.5996
_cell_length_b 49.5560
_cell_length_c 40.9017
_cell_angle_alpha 90.236300
_cell_angle_beta 89.818800
_cell_angle_gamma 94.514200
loop_
  _atom_site_label
  _atom_site_type_symbol
  _atom_site_fract_x
  _atom_site_fract_y
  _atom_site_fract_z
C1 C -0.06605 0.27368 -0.02009
 C2 C -0.06850 0.27263 0.01328
 C3 C -0.04560 0.28673 0.02601
 N4 N -0.02901 0.29591 0.00147
 C5 C -0.04160 0.28809 -0.02670
 C6 C -0.04016 0.29129 0.05970
 C7 C -0.01324 0.29645 0.07118
 C8 C -0.00608 0.30620 0.10212
 C9 C 0.02157 0.30654 0.10423
 C10 C 0.03072 0.29740 0.07444
 N11 N 0.00941 0.29127 0.05442
 C12 C 0.05799 0.29323 0.06744
 C13 C 0.06837 0.29040 0.03548
 C14 C 0.09522 0.28719 0.02823
 C15 C 0.09765 0.28818 -0.00507
 C16 C 0.07207 0.29157 -0.01748
 N17 N 0.05441 0.29349 0.00760
 C18 C 0.06599 0.29639 -0.05088
 C19 C 0.04000 0.30350 -0.06067
 C20 C 0.03391 0.31521 -0.09038
 C21 C 0.00621 0.31456 -0.09238
 C22 C -0.00399 0.30255 -0.06398
 N23 N 0.01661 0.29615 -0.04467
 C24 C -0.03154 0.29472 -0.05822
 H25 H -0.08037 0.26434 -0.03743
 H26 H -0.08499 0.26206 0.02657
 H27 H 0.01447 0.28362 -0.02433
 H28 H -0.01926 0.31248 0.12136
 H29 H 0.03353 0.31278 0.12542
 H30 H 0.11178 0.28568 0.04510
 H31 H 0.11665 0.28817 -0.01804
 H32 H -0.00514 0.32143 -0.11288
 H33 H 0.01001 0.28127 0.03205
 H34 H 0.04765 0.32290 -0.10930
 C35 C 0.41982 0.73992 0.49561
 C36 C 0.41903 0.73995 0.52914
 C37 C 0.44336 0.75276 0.53964
 N38 N 0.45895 0.76052 0.51367
 C39 C 0.44462 0.75265 0.48674
 C40 C 0.45045 0.75808 0.57263
 C41 C 0.47724 0.76570 0.58274
 C42 C 0.48436 0.77529 0.61367
 C43 C 0.51213 0.77783 0.61478
 C44 C 0.52132 0.76997 0.58438
 N45 N 0.49988 0.76256 0.56502
 C46 C 0.54877 0.76736 0.57631
 C47 C 0.55818 0.76544 0.54368
 C48 C 0.58464 0.76198 0.53446
 C49 C 0.58532 0.76231 0.50094
 C50 C 0.55944 0.76664 0.49065
 N51 N 0.54296 0.76871 0.51680
 C52 C 0.55158 0.76956 0.45771
 C53 C 0.52447 0.77113 0.44783
 C54 C 0.51676 0.77937 0.41709
 C55 C 0.48903 0.77606 0.41610
 C56 C 0.48051 0.76587 0.44625
 N57 N 0.50224 0.76297 0.46549
 C58 C 0.45340 0.75769 0.45430
 H59 H 0.40406 0.73121 0.47966
 H60 H 0.40253 0.73122 0.54402
 H61 H 0.50205 0.75279 0.48764
 H62 H 0.47096 0.77955 0.63365
 H63 H 0.52407 0.78431 0.63588
 H64 H 0.60192 0.75982 0.54998
 H65 H 0.60300 0.75982 0.48602
 H66 H 0.47659 0.78037 0.39536
 H67 H 0.50064 0.75259 0.54270
 H68 H 0.52980 0.78673 0.39725
 C69 C 1.07555 0.69556 -0.00937
 C70 C 1.07759 0.70242 0.02294
 C71 C 1.05184 0.70758 0.03357
 N72 N 1.03449 0.70516 0.00789
 C73 C 1.04896 0.69798 -0.01843
 C74 C 1.04504 0.71792 0.06491
 C75 C 1.01826 0.72451 0.07187
 C76 C 1.01071 0.74239 0.09597
 C77 C 0.98301 0.73957 0.09806
 C78 C 0.97426 0.72014 0.07525
 N79 N 0.99576 0.71122 0.05921
 C80 C 0.94717 0.70978 0.07140
 C81 C 0.93812 0.69523 0.04334
 C82 C 0.91297 0.68126 0.03978
 C83 C 0.91119 0.67307 0.00773
 C84 C 0.93544 0.68207 -0.00697
 N85 N 0.95189 0.69551 0.01482
 C86 C 0.94078 0.68089 -0.04073
 C87 C 0.96711 0.68534 -0.05397
 C88 C 0.97267 0.68986 -0.08677
 C89 C 1.00027 0.69385 -0.08967
 C90 C 1.01101 0.69152 -0.05852
 N91 N 0.99058 0.68599 -0.03693
 C92 C 1.03902 0.69508 -0.05097
 H93 H 1.09215 0.69006 -0.02459
 H94 H 1.09656 0.70467 0.03583
 H95 H 0.99261 0.68130 -0.01234
 H96 H 1.02347 0.75610 0.11092
 H97 H 0.97074 0.75037 0.11480
 H98 H 0.89730 0.67784 0.05811
 H99 H 0.89387 0.66223 -0.00366
 H100 H 1.01102 0.69872 -0.11220
 H101 H 0.99531 0.69438 0.04384
 H102 H 0.95834 0.69085 -0.10654
 C103 C 0.42507 0.19501 0.52338
 C104 C 0.42418 0.19055 0.49028
 C105 C 0.44912 0.20021 0.47794
 N106 N 0.46510 0.21069 0.50229
 C107 C 0.45041 0.20763 0.53012
 C108 C 0.45612 0.20061 0.44444
 C109 C 0.48296 0.20501 0.43277
 C110 C 0.49002 0.20894 0.40021
 C111 C 0.51780 0.21128 0.39879
 C112 C 0.52705 0.20905 0.43058
 N113 N 0.50564 0.20480 0.45105
 C114 C 0.55465 0.20968 0.43963
 C115 C 0.56387 0.21199 0.47226
 C116 C 0.59068 0.21170 0.48163
 C117 C 0.59156 0.21731 0.51448
 C118 C 0.56523 0.22067 0.52427
 N119 N 0.54842 0.21764 0.49832
 C120 C 0.55750 0.22895 0.55587
 C121 C 0.53037 0.23145 0.56550
 C122 C 0.52266 0.24406 0.59402
 C123 C 0.49492 0.24075 0.59559
 C124 C 0.48635 0.22614 0.56804
 N125 N 0.50809 0.22038 0.54995
 C126 C 0.45910 0.21750 0.56116
 H127 H 0.40885 0.18957 0.54044
 H128 H 0.40717 0.18110 0.47684
 H129 H 0.50787 0.20711 0.53023
 H130 H 0.47659 0.20982 0.37951
 H131 H 0.52969 0.21416 0.37669
 H132 H 0.60796 0.20857 0.46625
 H133 H 0.60973 0.21939 0.52912
 H134 H 0.48250 0.24817 0.61494
 H135 H 0.50640 0.19939 0.47548
 H136 H 0.53564 0.25438 0.61210
 C137 C 0.73575 -0.07063 0.01600
 C138 C 0.74096 -0.07150 -0.01684
 C139 C 0.73170 -0.04833 -0.03021
 N140 N 0.72198 -0.03286 -0.00624
 C141 C 0.72463 -0.04624 0.02230
 C142 C 0.73106 -0.04224 -0.06410
 C143 C 0.72792 -0.01563 -0.07546
 C144 C 0.72051 -0.00939 -0.10710
 C145 C 0.72051 0.01821 -0.10877
 C146 C 0.72786 0.02835 -0.07812
 N147 N 0.73219 0.00755 -0.05782
 C148 C 0.73093 0.05630 -0.07001
 C149 C 0.73089 0.06538 -0.03707
 C150 C 0.74018 0.09096 -0.02612
 C151 C 0.73422 0.09203 0.00653
 C152 C 0.72260 0.06666 0.01499
 N153 N 0.72044 0.05047 -0.01177
 C154 C 0.71224 0.05914 0.04620
 C155 C 0.70371 0.03207 0.05388
 C156 C 0.68815 0.02394 0.08077
 C157 C 0.68826 -0.00375 0.08251
 C158 C 0.70404 -0.01191 0.05663
 N159 N 0.71304 0.01014 0.03915
 C160 C 0.71394 -0.03787 0.05277
 H161 H 0.73921 -0.08689 0.03254
 H162 H 0.75029 -0.08767 -0.02930
 H163 H 0.72833 0.01075 0.02162
 H164 H 0.71511 -0.02325 -0.12695
 H165 H 0.71514 0.02943 -0.13012
 H166 H 0.75025 0.10734 -0.04001
 H167 H 0.73799 0.10974 0.02182
 H168 H 0.67868 -0.01600 0.10171
 H169 H 0.74004 0.00926 -0.03426
 H170 H 0.67861 0.03666 0.09821
 C171 C 0.21898 0.40770 0.48995
 C172 C 0.21195 0.40745 0.52239
 C173 C 0.20173 0.43216 0.52905
 N174 N 0.20180 0.44721 0.50156
 C175 C 0.21246 0.43238 0.47767
 C176 C 0.19097 0.43977 0.55950
 C177 C 0.18246 0.46583 0.56591
 C178 C 0.16732 0.47269 0.59282
 C179 C 0.16590 0.50033 0.59188
 C180 C 0.18030 0.50959 0.56448
 N181 N 0.19030 0.48844 0.54886
 C182 C 0.18644 0.53714 0.55663
 C183 C 0.19785 0.54608 0.52647
 C184 C 0.20768 0.57245 0.51973
 C185 C 0.21607 0.57278 0.48776
 C186 C 0.21057 0.54674 0.47575
 N187 N 0.19937 0.53049 0.49944
 C188 C 0.21481 0.53848 0.44313
 C189 C 0.21253 0.51106 0.43323
 C190 C 0.21052 0.50233 0.40101
 C191 C 0.21058 0.47463 0.40147
 C192 C 0.21271 0.46715 0.43396
 N193 N 0.21388 0.48949 0.45317
 C194 C 0.21529 0.44041 0.44466
 H195 H 0.22784 0.39150 0.47698
 H196 H 0.21399 0.39078 0.53895
 H197 H 0.21874 0.49028 0.47786
 H198 H 0.15876 0.45930 0.61165
 H199 H 0.15611 0.51233 0.60989
 H200 H 0.20883 0.58972 0.53607
 H201 H 0.22521 0.59027 0.47500
 H202 H 0.20947 0.46150 0.38021
 H203 H 0.20477 0.48983 0.53045
 H204 H 0.20928 0.51465 0.37936
 C205 C 0.26858 0.91221 -0.02891
 C206 C 0.26337 0.91154 0.00403
 C207 C 0.27073 0.93722 0.01590
 N208 N 0.27995 0.95359 -0.00870
 C209 C 0.27824 0.93859 -0.03643
 C210 C 0.27069 0.94486 0.04917
 C211 C 0.27607 0.97187 0.05971
 C212 C 0.28342 0.97927 0.09133
 C213 C 0.28535 1.00700 0.09240
 C214 C 0.27874 1.01591 0.06146
 N215 N 0.27337 0.99428 0.04153
 C216 C 0.27650 1.04338 0.05294
 C217 C 0.27624 1.05183 0.01981
 C218 C 0.26772 1.07608 0.00860
 C219 C 0.27261 1.07690 -0.02436
 C220 C 0.28278 1.05247 -0.03286
 N221 N 0.28525 1.03742 -0.00560
 C222 C 0.29275 1.04526 -0.06413
 C223 C 0.30192 1.01923 -0.06969
 C224 C 0.31842 1.01207 -0.09528
 C225 C 0.31713 0.98425 -0.09623
 C226 C 0.29986 0.97496 -0.07119
 N227 N 0.29117 0.99648 -0.05485
 C228 C 0.28854 0.94795 -0.06725
 H229 H 0.26658 0.89466 -0.04471
 H230 H 0.25577 0.89389 0.01768
 H231 H 0.27500 0.99568 -0.03848
 H232 H 0.28714 0.96604 0.11154
 H233 H 0.29107 1.01911 0.11371
 H234 H 0.25885 1.09178 0.02246
 H235 H 0.26954 1.09414 -0.03955
 H236 H 0.32711 0.97248 -0.11424
 H237 H 0.26534 0.99467 0.01807
 H238 H 0.32948 1.02524 -0.11251
 C239 C 0.77684 0.43440 0.50418
 C240 C 0.77913 0.43358 0.47075
 C241 C 0.79027 0.45885 0.46114
 N242 N 0.79539 0.47482 0.48764
 C243 C 0.78716 0.45996 0.51399
 C244 C 0.79713 0.46627 0.42865
 C245 C 0.80492 0.49315 0.41905
 C246 C 0.81508 0.50063 0.38848
 C247 C 0.81718 0.52848 0.38766
 C248 C 0.80841 0.53728 0.41782
 N249 N 0.80088 0.51563 0.43671
 C250 C 0.80520 0.56454 0.42613
 C251 C 0.80194 0.57370 0.45861
 C252 C 0.79801 0.60016 0.46748
 C253 C 0.79736 0.60091 0.50096
 C254 C 0.80111 0.57494 0.51154
 N255 N 0.80414 0.55841 0.48563
 C256 C 0.80277 0.56719 0.54461
 C257 C 0.80371 0.53995 0.55454
 C258 C 0.81144 0.53192 0.58534
 C259 C 0.80767 0.50416 0.58602
 C260 C 0.79801 0.49593 0.55550
 N261 N 0.79565 0.51785 0.53643
 C262 C 0.79022 0.46882 0.54679
 H263 H 0.76862 0.41793 0.51941
 H264 H 0.77324 0.41631 0.45539
 H265 H 0.78599 0.51784 0.51392
 H266 H 0.81976 0.48741 0.36846
 H267 H 0.82388 0.54082 0.36697
 H268 H 0.79616 0.61733 0.45164
 H269 H 0.79453 0.61863 0.51574
 H270 H 0.81161 0.49147 0.60667
 H271 H 0.79025 0.51618 0.45856
 H272 H 0.81887 0.54471 0.60539
 O273 O 0.23134 0.25752 0.22046
 O274 O 0.29502 0.25341 0.26550
 O275 O 0.27502 0.23264 0.21091
 O276 O 0.25162 0.27861 0.27377
 O277 O 0.23359 0.24373 0.30190
 O278 O 0.25612 0.19773 0.23825
 O279 O 0.27682 0.21801 0.29256
 O280 O 0.21283 0.22273 0.24838
 Cu281 Cu 0.26520 0.25900 0.23984
 Cu282 Cu 0.24309 0.21698 0.27307
 C283 C 0.21119 0.24094 0.22692
 C284 C 0.29669 0.23512 0.28687
 C285 C 0.26916 0.20737 0.21360
 C286 C 0.23861 0.26908 0.29848
 O287 O 0.70901 0.77317 0.27423
 O288 O 0.75520 0.75350 0.20931
 O289 O 0.73407 0.73023 0.26115
 O290 O 0.72982 0.79624 0.22155
 O291 O 0.76466 0.81332 0.25047
 O292 O 0.76909 0.74709 0.28995
 O293 O 0.79000 0.77061 0.23832
 O294 O 0.74380 0.79008 0.30332
 Cu295 Cu 0.72844 0.76167 0.23872
 Cu296 Cu 0.77031 0.78206 0.27355
 C297 C 0.71852 0.78472 0.29996
 C298 C 0.78049 0.75872 0.21280
 C299 C 0.75245 0.72734 0.28206
 C300 C 0.74676 0.81588 0.22884
 O301 O 0.77606 0.27499 0.20872
 O302 O 0.71549 0.25649 0.25895
 O303 O 0.73915 0.23456 0.20942
 O304 O 0.75265 0.29658 0.25883
 O305 O 0.72716 0.31857 0.22558
 O306 O 0.71570 0.25729 0.17460
 O307 O 0.69067 0.27790 0.22432
 O308 O 0.75140 0.29811 0.17567
 Cu309 Cu 0.74832 0.26342 0.23740
 Cu310 Cu 0.71868 0.29017 0.19672
 C311 C 0.77396 0.28964 0.18353
 C312 C 0.69277 0.26415 0.25017
 C313 C 0.72560 0.23557 0.18321
 C314 C 0.74192 0.31804 0.25083
 O315 O 0.27826 0.75829 0.21196
 O316 O 0.25410 0.70546 0.27052
 O317 O 0.23892 0.72022 0.21306
 O318 O 0.29338 0.74313 0.27016
 O319 O 0.26672 0.77145 0.29314
 O320 O 0.21236 0.74869 0.23598
 O321 O 0.22726 0.73367 0.29345
 O322 O 0.25146 0.78648 0.23494
 Cu323 Cu 0.26896 0.72905 0.23908
 Cu324 Cu 0.23689 0.76302 0.26670
 C325 C 0.26856 0.78123 0.21309
 C326 C 0.23657 0.71056 0.29193
 C327 C 0.21635 0.73057 0.21484
 C328 C 0.28914 0.76077 0.29181
 O329 O 0.79016 0.27872 0.70450
 O330 O 0.76689 0.22558 0.76292
 O331 O 0.75154 0.24003 0.70530
 O332 O 0.80511 0.26466 0.76286
 O333 O 0.77742 0.29231 0.78521
 O334 O 0.72386 0.26744 0.72813
 O335 O 0.73935 0.25315 0.78572
 O336 O 0.76231 0.30620 0.72686
 Cu337 Cu 0.78127 0.24953 0.73164
 Cu338 Cu 0.74801 0.28260 0.75873
 C339 C 0.77998 0.30140 0.70549
 C340 C 0.74919 0.23029 0.78427
 C341 C 0.72854 0.24953 0.70700
 C342 C 0.80028 0.28253 0.78402
 O343 O 0.27011 0.74733 0.73025
 O344 O 0.21110 0.73390 0.78455
 O345 O 0.23508 0.70647 0.74037
 O346 O 0.24751 0.77419 0.77625
 O347 O 0.22103 0.79097 0.73942
 O348 O 0.20864 0.72272 0.70312
 O349 O 0.18501 0.75104 0.74753
 O350 O 0.24371 0.76399 0.69327
 Cu351 Cu 0.24358 0.73882 0.76159
 Cu352 Cu 0.21197 0.75877 0.71700
 C353 C 0.26686 0.75792 0.70242
 C354 C 0.18806 0.74049 0.77532
 C355 C 0.21992 0.70302 0.71560
 C356 C 0.23632 0.79406 0.76423
 O357 O 0.25647 0.28200 0.73942
 O358 O 0.26645 0.21639 0.77743
 O359 O 0.28868 0.24394 0.72849
 O360 O 0.23339 0.25411 0.78692
 O361 O 0.20416 0.23301 0.75300
 O362 O 0.25898 0.22403 0.69426
 O363 O 0.23711 0.19598 0.74314
 O364 O 0.22649 0.26192 0.70563
 Cu365 Cu 0.26426 0.25108 0.76149
 Cu366 Cu 0.22883 0.22670 0.72047
 C367 C 0.23972 0.28319 0.71620
 C368 C 0.25326 0.19507 0.76707
 C369 C 0.28309 0.23249 0.70121
 C370 C 0.20939 0.24508 0.77989
 O371 O 0.73792 0.69379 0.76023
 O372 O 0.72231 0.75161 0.81084
 O373 O 0.70611 0.73153 0.75561
 O374 O 0.76300 0.71909 0.81054
 O375 O 0.78949 0.74848 0.78238
 O376 O 0.73393 0.75901 0.72646
 O377 O 0.75027 0.77896 0.78178
 O378 O 0.76729 0.72011 0.73182
 Cu379 Cu 0.73041 0.72144 0.78774
 Cu380 Cu 0.76301 0.75351 0.75246
 C381 C 0.75499 0.69700 0.73722
 C382 C 0.73330 0.77507 0.80509
 C383 C 0.71068 0.74717 0.73121
 C384 C 0.78591 0.73201 0.80586
 C385 C 0.27373 0.06192 0.07894
 C386 C 0.28348 0.08918 0.07854
 C387 C 0.27943 0.10770 0.10631
 C388 C 0.29749 0.13067 0.11069
 C389 C 0.29414 0.14850 0.13674
 C390 C 0.27240 0.14377 0.15871
 C391 C 0.25434 0.12086 0.15422
 C392 C 0.25760 0.10315 0.12816
 C393 C 0.26781 0.16202 0.18652
 C394 C 0.27716 0.18930 0.18733
 H395 H 0.29632 0.09669 0.05857
 H396 H 0.31441 0.13466 0.09414
 H397 H 0.30883 0.16563 0.13980
 H398 H 0.23734 0.11686 0.17067
 H399 H 0.24270 0.08621 0.12499
 H400 H 0.25467 0.15414 0.20606
 H401 H 0.26588 0.05404 0.10198
 H402 H 0.28886 0.19822 0.16720
 C403 C 0.80428 0.58897 0.56978
 C404 C 0.78669 0.58802 0.59652
 C405 C 0.78503 0.61037 0.62047
 C406 C 0.76192 0.61051 0.64029
 C407 C 0.75909 0.63136 0.66282
 C408 C 0.77959 0.65246 0.66636
 C409 C 0.80279 0.65228 0.64667
 C410 C 0.80564 0.63137 0.62412
 C411 C 0.77689 0.67534 0.68930
 C412 C 0.75977 0.67356 0.71647
 H413 H 0.77216 0.57060 0.59879
 H414 H 0.74571 0.59464 0.63795
 H415 H 0.74051 0.63111 0.67673
 H416 H 0.81885 0.66831 0.64888
 H417 H 0.82409 0.63174 0.60994
 H418 H 0.78896 0.69415 0.68477
 H419 H 0.81719 0.60712 0.56491
 H420 H 0.74894 0.65446 0.72267
 C421 C 0.71209 0.94438 0.07978
 C422 C 0.73374 0.93032 0.09042
 C423 C 0.73139 0.91022 0.11712
 C424 C 0.75484 0.90377 0.13346
 C425 C 0.75364 0.88348 0.15718
 C426 C 0.72886 0.86905 0.16483
 C427 C 0.70541 0.87555 0.14851
 C428 C 0.70658 0.89597 0.12497
 C429 C 0.72715 0.84571 0.18740
 C430 C 0.74645 0.84169 0.21127
 H431 H 0.75354 0.93504 0.07964
 H432 H 0.77425 0.91418 0.12747
 H433 H 0.77230 0.87851 0.16844
 H434 H 0.68616 0.86444 0.15358
 H435 H 0.68822 0.89983 0.11218
 H436 H 0.71017 0.83073 0.18458
 H437 H 0.69485 0.94441 0.09597
 H438 H 0.76242 0.85727 0.21637
 C439 C 0.18824 0.41929 0.58581
 C440 C 0.21127 0.41052 0.60064
 C441 C 0.21135 0.38664 0.62227
 C442 C 0.23501 0.38262 0.63969
 C443 C 0.23709 0.35915 0.65800
 C444 C 0.21542 0.33907 0.65930
 C445 C 0.19167 0.34314 0.64204
 C446 C 0.18957 0.36669 0.62376
 C447 C 0.21753 0.31308 0.67661
 C448 C 0.23625 0.30967 0.70136
 H449 H 0.23062 0.42105 0.59454
 H450 H 0.25224 0.39745 0.63854
 H451 H 0.25607 0.35650 0.67003
 H452 H 0.17482 0.32785 0.64230
 H453 H 0.17125 0.36862 0.61002
 H454 H 0.20369 0.29602 0.66968
 H455 H 0.16819 0.41134 0.59302
 H456 H 0.24889 0.32684 0.71043
 C457 C 0.93856 0.29007 0.08300
 C458 C 0.91233 0.29703 0.07628
 C459 C 0.89017 0.29499 0.10072
 C460 C 0.86864 0.31146 0.09727
 C461 C 0.84686 0.30943 0.11913
 C462 C 0.84590 0.29041 0.14470
 C463 C 0.86764 0.27414 0.14830
 C464 C 0.88950 0.27629 0.12653
 C465 C 0.82266 0.28651 0.16769
 C466 C 0.79752 0.29658 0.16237
 H467 H 0.90826 0.30618 0.05299
 H468 H 0.86870 0.32604 0.07760
 H469 H 0.83104 0.32291 0.11575
 H470 H 0.86748 0.25930 0.16769
 H471 H 0.90542 0.26279 0.12950
 H472 H 0.82493 0.27371 0.18876
 H473 H 0.94318 0.28593 0.10822
 H474 H 0.79411 0.30859 0.14103
 C475 C 0.42920 0.75500 0.59830
 C476 C 0.40486 0.76715 0.59553
 C477 C 0.38277 0.76430 0.62004
 C478 C 0.36201 0.78192 0.61840
 C479 C 0.34024 0.77941 0.64023
 C480 C 0.33864 0.75894 0.66404
 C481 C 0.35958 0.74159 0.66605
 C482 C 0.38132 0.74403 0.64415
 C483 C 0.31559 0.75514 0.68708
 C484 C 0.28992 0.76322 0.68009
 H485 H 0.40206 0.77975 0.57439
 H486 H 0.36265 0.79774 0.60015
 H487 H 0.32493 0.79370 0.63851
 H488 H 0.35882 0.72568 0.68420
 H489 H 0.39648 0.72961 0.64588
 H490 H 0.31848 0.74403 0.70940
 H491 H 0.43400 0.74488 0.62065
 H492 H 0.28608 0.77265 0.65695
 C493 C 0.06486 0.72339 0.08948
 C494 C 0.08590 0.70702 0.09610
 C495 C 0.10743 0.71437 0.12037
 C496 C 0.12354 0.69428 0.13158
 C497 C 0.14440 0.70062 0.15393
 C498 C 0.14960 0.72731 0.16540
 C499 C 0.13350 0.74737 0.15428
 C500 C 0.11288 0.74111 0.13170
 C501 C 0.17120 0.73491 0.18928
 C502 C 0.19474 0.72144 0.19188
 H503 H 0.08569 0.68725 0.08466
 H504 H 0.11990 0.67357 0.12313
 H505 H 0.15608 0.68454 0.16254
 H506 H 0.13721 0.76809 0.16266
 H507 H 0.10168 0.75745 0.12289
 H508 H 0.16928 0.75296 0.20389
 H509 H 0.06184 0.73881 0.10744
 H510 H 0.19811 0.70467 0.17573
 C511 C 0.57897 0.23764 0.57960
 C512 C 0.59537 0.21917 0.59344
 C513 C 0.61711 0.22701 0.61715
 C514 C 0.63841 0.21024 0.62079
 C515 C 0.65953 0.21716 0.64258
 C516 C 0.65969 0.24106 0.66130
 C517 C 0.63796 0.25738 0.65835
 C518 C 0.61689 0.25049 0.63655
 C519 C 0.68163 0.24949 0.68457
 C520 C 0.70723 0.23962 0.68400
 H521 H 0.59299 0.19830 0.58520
 H522 H 0.63882 0.19181 0.60651
 H523 H 0.67538 0.20352 0.64484
 H524 H 0.63732 0.27565 0.67288
 H525 H 0.60037 0.26343 0.63543
 H526 H 0.67776 0.26514 0.70218
 H527 H 0.58104 0.25876 0.58655
 H528 H 0.71229 0.22490 0.66587
 C529 C 0.73419 0.07500 0.90390
 C530 C 0.72464 0.10083 0.90449
 C531 C 0.73050 0.12108 0.87843
 C532 C 0.71380 0.14250 0.87540
 C533 C 0.71950 0.16279 0.85218
 C534 C 0.74237 0.16225 0.83179
 C535 C 0.75886 0.14063 0.83459
 C536 C 0.75314 0.12034 0.85776
 C537 C 0.74980 0.18364 0.80743
 C538 C 0.73995 0.20927 0.80792
 H539 H 0.71135 0.10612 0.92417
 H540 H 0.69626 0.14354 0.89108
 H541 H 0.70581 0.17862 0.85033
 H542 H 0.77659 0.13971 0.81921
 H543 H 0.76691 0.10458 0.85993
 H544 H 0.76480 0.17942 0.78917
 H545 H 0.74229 0.06820 0.88096
 H546 H 0.72579 0.21465 0.82653
 C547 C 0.22281 0.55897 0.41780
 C548 C 0.20871 0.58188 0.41279
 C549 C 0.21653 0.60277 0.38794
 C550 C 0.19788 0.62144 0.37949
 C551 C 0.20462 0.64173 0.35655
 C552 C 0.23034 0.64386 0.34177
 C553 C 0.24894 0.62516 0.35011
 C554 C 0.24228 0.60500 0.37315
 C555 C 0.23840 0.66490 0.31731
 C556 C 0.22693 0.68967 0.31555
 H557 H 0.19077 0.58429 0.42738
 H558 H 0.17794 0.62021 0.39052
 H559 H 0.18950 0.65536 0.35016
 H560 H 0.26890 0.62643 0.33912
 H561 H 0.25761 0.59165 0.37956
 H562 H 0.25522 0.66137 0.30129
 H563 H 0.23871 0.55431 0.40104
 H564 H 0.21138 0.69451 0.33272
 C565 C 0.28803 0.93039 0.90542
 C566 C 0.26517 0.91344 0.89726
 C567 C 0.26480 0.89328 0.87055
 C568 C 0.24003 0.88454 0.85606
 C569 C 0.23853 0.86359 0.83301
 C570 C 0.26182 0.85072 0.82441
 C571 C 0.28664 0.85964 0.83867
 C572 C 0.28820 0.88086 0.86136
 C573 C 0.26032 0.82634 0.80338
 C574 C 0.24033 0.82082 0.77985
 H575 H 0.24644 0.91557 0.91040
 H576 H 0.22167 0.89358 0.86311
 H577 H 0.21894 0.85673 0.82319
 H578 H 0.30477 0.84976 0.83275
 H579 H 0.30749 0.88668 0.87271
 H580 H 0.27530 0.81186 0.80709
 H581 H 0.30384 0.93267 0.88718
 H582 H 0.22688 0.83610 0.77334
 C583 C 0.79692 0.44470 0.40347
 C584 C 0.77265 0.43327 0.39054
 C585 C 0.77101 0.41103 0.36614
 C586 C 0.74763 0.40679 0.34699
 C587 C 0.74487 0.38540 0.32453
 C588 C 0.76547 0.36764 0.32092
 C589 C 0.78869 0.37166 0.34040
 C590 C 0.79154 0.39317 0.36269
 C591 C 0.76273 0.34397 0.29855
 C592 C 0.74595 0.34260 0.27116
 H593 H 0.75400 0.44136 0.39840
 H594 H 0.73135 0.41999 0.34956
 H595 H 0.72628 0.38247 0.31078
 H596 H 0.80464 0.35800 0.33848
 H597 H 0.80948 0.39524 0.37773
 H598 H 0.77480 0.32716 0.30356
 H599 H 0.81612 0.43917 0.39400
 H600 H 0.73529 0.35993 0.26426
 C601 C 0.08625 0.29499 0.92486
 C602 C 0.10345 0.27397 0.92354
 C603 C 0.12475 0.27253 0.89846
 C604 C 0.13136 0.24713 0.88714
 C605 C 0.15190 0.24514 0.86402
 C606 C 0.16662 0.26855 0.85237
 C607 C 0.16049 0.29393 0.86431
 C608 C 0.13950 0.29597 0.88690
 C609 C 0.18885 0.26674 0.82857
 C610 C 0.18718 0.24789 0.80317
 H611 H 0.09992 0.25695 0.93999
 H612 H 0.12050 0.22881 0.89611
 H613 H 0.15666 0.22526 0.85581
 H614 H 0.17182 0.31219 0.85592
 H615 H 0.13524 0.31578 0.89588
 H616 H 0.20617 0.28146 0.82995
 H617 H 0.08631 0.30792 0.90366
 H618 H 0.16859 0.23525 0.79955
 C619 C 0.57215 0.76979 0.43133
 C620 C 0.59484 0.78828 0.43034
 C621 C 0.61442 0.78888 0.40295
 C622 C 0.64165 0.79723 0.40877
 C623 C 0.66082 0.79666 0.38363
 C624 C 0.65295 0.78799 0.35196
 C625 C 0.62548 0.78067 0.34600
 C626 C 0.60641 0.78118 0.37110
 C627 C 0.67239 0.78516 0.32473
 C628 C 0.70027 0.79150 0.32669
 H629 H 0.59898 0.80180 0.45091
 H630 H 0.64823 0.80353 0.43305
 H631 H 0.68165 0.80259 0.38952
 H632 H 0.61874 0.77422 0.32183
 H633 H 0.58542 0.77564 0.36537
 H634 H 0.66431 0.77656 0.30205
 H635 H 0.56803 0.75594 0.41111
 H636 H 0.70936 0.80066 0.34842
 C637 C 0.91740 0.67855 0.93657
 C638 C 0.89820 0.69765 0.93813
 C639 C 0.87587 0.69914 0.91458
 C640 C 0.86577 0.72436 0.90905
 C641 C 0.84446 0.72678 0.88736
 C642 C 0.83248 0.70387 0.87112
 C643 C 0.84204 0.67846 0.87730
 C644 C 0.86379 0.67611 0.89862
 C645 C 0.80972 0.70620 0.84834
 C646 C 0.80861 0.72858 0.82799
 H647 H 0.90093 0.71366 0.95626
 H648 H 0.87453 0.74232 0.92143
 H649 H 0.83704 0.74652 0.88377
 H650 H 0.83286 0.66050 0.86534
 H651 H 0.87072 0.65629 0.90305
 H652 H 0.79439 0.68946 0.84628
 H653 H 0.91734 0.66435 0.91638
 H654 H 0.82553 0.74378 0.82733
 C655 C 0.43404 0.19727 0.42008
 C656 C 0.41424 0.21571 0.41908
 C657 C 0.39257 0.21470 0.39436
 C658 C 0.38152 0.23883 0.38562
 C659 C 0.36046 0.23862 0.36304
 C660 C 0.34975 0.21412 0.34910
 C661 C 0.36047 0.18990 0.35825
 C662 C 0.38189 0.19017 0.38047
 C663 C 0.32639 0.21322 0.32668
 C664 C 0.32175 0.23453 0.30580
 H665 H 0.41569 0.23257 0.43614
 H666 H 0.38921 0.25792 0.39637
 H667 H 0.35208 0.25754 0.35728
 H668 H 0.35223 0.17075 0.34820
 H669 H 0.38951 0.17114 0.38738
 H670 H 0.31261 0.19513 0.32637
 H671 H 0.43517 0.18224 0.40095
 H672 H 0.33673 0.25155 0.30357
 C673 C 0.73366 0.93727 0.91202
 C674 C 0.72327 0.91035 0.91567
 C675 C 0.72673 0.88904 0.89081
 C676 C 0.70814 0.86622 0.89001
 C677 C 0.71129 0.84516 0.86781
 C678 C 0.73354 0.84624 0.84622
 C679 C 0.75194 0.86928 0.84677
 C680 C 0.74869 0.89041 0.86888
 C681 C 0.73843 0.82386 0.82317
 C682 C 0.72631 0.79758 0.82628
 H683 H 0.71046 0.90498 0.93652
 H684 H 0.69102 0.86470 0.90660
 H685 H 0.69612 0.82829 0.86772
 H686 H 0.76924 0.87070 0.83045
 H687 H 0.76380 0.90739 0.86927
 H688 H 0.75344 0.82783 0.80412
 H689 H 0.74149 0.94314 0.88814
 H690 H 0.71221 0.79259 0.84594
 C691 C 0.22201 0.42031 0.41962
 C692 C 0.20655 0.39579 0.41543
 C693 C 0.21285 0.37552 0.39049
 C694 C 0.20384 0.34830 0.39538
 C695 C 0.21001 0.32847 0.37274
 C696 C 0.22529 0.33559 0.34456
 C697 C 0.23356 0.36296 0.33927
 C698 C 0.22739 0.38274 0.36186
 C699 C 0.23306 0.31555 0.31998
 C700 C 0.22928 0.28750 0.32361
 H701 H 0.18992 0.39077 0.43213
 H702 H 0.19227 0.34231 0.41704
 H703 H 0.20265 0.30779 0.37760
 H704 H 0.24497 0.36911 0.31756
 H705 H 0.23380 0.40361 0.35649
 H706 H 0.24303 0.32341 0.29799
 H707 H 0.23877 0.42588 0.40340
 H708 H 0.21970 0.27855 0.34515
 C709 C 0.29404 0.06393 0.90974
 C710 C 0.27223 0.07866 0.90120
 C711 C 0.27365 0.09941 0.87524
 C712 C 0.24972 0.10566 0.85981
 C713 C 0.24997 0.12665 0.83706
 C714 C 0.27421 0.14208 0.82962
 C715 C 0.29817 0.13581 0.84502
 C716 C 0.29798 0.11454 0.86744
 C717 C 0.27462 0.16618 0.80830
 C718 C 0.25571 0.16907 0.78363
 H719 H 0.25284 0.07387 0.91298
 H720 H 0.23067 0.09454 0.86579
 H721 H 0.23098 0.13143 0.82643
 H722 H 0.31701 0.14767 0.84005
 H723 H 0.31666 0.11069 0.87954
 H724 H 0.29018 0.18240 0.81256
 H725 H 0.31045 0.06398 0.89230
 H726 H 0.24161 0.15216 0.77700
 C727 C 0.80566 0.58470 0.39952
 C728 C 0.78211 0.59677 0.39149
 C729 C 0.78128 0.62071 0.37012
 C730 C 0.75608 0.62781 0.35900
 C731 C 0.75395 0.65158 0.34129
 C732 C 0.77712 0.66885 0.33435
 C733 C 0.80236 0.66171 0.34534
 C734 C 0.80449 0.63786 0.36298
 C735 C 0.77551 0.69506 0.31747
 C736 C 0.75406 0.70070 0.29727
 H737 H 0.76336 0.58897 0.40295
 H738 H 0.73784 0.61518 0.36465
 H739 H 0.73403 0.65671 0.33415
 H740 H 0.82046 0.67483 0.34066
 H741 H 0.82419 0.63354 0.37187
 H742 H 0.79220 0.71032 0.32055
 H743 H 0.82448 0.58985 0.38676
 H744 H 0.73825 0.68511 0.29164
 C745 C 0.05756 0.69616 0.92263
 C746 C 0.08011 0.71490 0.92146
 C747 C 0.10010 0.71545 0.89473
 C748 C 0.11176 0.74044 0.88369
 C749 C 0.13183 0.74151 0.85963
 C750 C 0.14110 0.71753 0.84692
 C751 C 0.12977 0.69250 0.85833
 C752 C 0.10908 0.69143 0.88175
 C753 C 0.16340 0.71853 0.82295
 C754 C 0.16464 0.73691 0.79726
 H755 H 0.08237 0.73080 0.93976
 H756 H 0.10533 0.75916 0.89376
 H757 H 0.14069 0.76107 0.85167
 H758 H 0.13687 0.67382 0.84905
 H759 H 0.10075 0.67191 0.89047
 H760 H 0.17862 0.70410 0.82498
 H761 H 0.05264 0.68459 0.90062
 H762 H 0.14776 0.74905 0.79299
 C763 C 0.57540 0.20911 0.41355
 C764 C 0.58162 0.23164 0.39381
 C765 C 0.60369 0.23361 0.36921
 C766 C 0.60350 0.25362 0.34508
 C767 C 0.62441 0.25699 0.32211
 C768 C 0.64610 0.24033 0.32282
 C769 C 0.64642 0.22044 0.34712
 C770 C 0.62546 0.21703 0.37006
 C771 C 0.66941 0.24416 0.30004
 C772 C 0.66848 0.25782 0.27032
 H773 H 0.56931 0.24867 0.39631
 H774 H 0.58719 0.26691 0.34416
 H775 H 0.62377 0.27316 0.30455
 H776 H 0.66309 0.20763 0.34855
 H777 H 0.62688 0.20191 0.38880
 H778 H 0.68813 0.23591 0.30707
 H779 H 0.58692 0.19152 0.41197
 H780 H 0.64965 0.26479 0.26171
 C781 C 0.95026 0.29166 0.91302
 C782 C 0.92464 0.30144 0.91275
 C783 C 0.90548 0.29687 0.88521
 C784 C 0.88435 0.31387 0.88191
 C785 C 0.86520 0.30945 0.85705
 C786 C 0.86657 0.28755 0.83520
 C787 C 0.88790 0.27075 0.83835
 C788 C 0.90707 0.27522 0.86313
 C789 C 0.84619 0.28115 0.80922
 C790 C 0.82098 0.29183 0.80809
 H791 H 0.91851 0.31319 0.93352
 H792 H 0.88267 0.33067 0.89863
 H793 H 0.84955 0.32334 0.85519
 H794 H 0.88945 0.25370 0.82196
 H795 H 0.92259 0.26119 0.86537
 H796 H 0.85062 0.26602 0.79120
 H797 H 0.95810 0.28297 0.89097
 H798 H 0.81537 0.30631 0.82619
 C799 C 0.43388 0.75356 0.42696
 C800 C 0.40960 0.76598 0.42630
 C801 C 0.39051 0.76318 0.39847
 C802 C 0.37216 0.78297 0.39383
 C803 C 0.35371 0.78086 0.36795
 C804 C 0.35299 0.75859 0.34640
 C805 C 0.37139 0.73884 0.35109
 C806 C 0.38983 0.74098 0.37689
 C807 C 0.33340 0.75482 0.31910
 C808 C 0.30991 0.76846 0.31648
 H809 H 0.40509 0.77932 0.44631
 H810 H 0.37227 0.80027 0.41012
 H811 H 0.34033 0.79685 0.36496
 H812 H 0.37123 0.72141 0.33500
 H813 H 0.40308 0.72488 0.38015
 H814 H 0.33664 0.73903 0.30143
 H815 H 0.44036 0.74292 0.40552
 H816 H 0.30530 0.78356 0.33434
 C817 C 0.26461 0.92414 0.07481
 C818 C 0.27924 0.90136 0.07798
 C819 C 0.27485 0.88175 0.10514
 C820 C 0.29539 0.86497 0.11301
 C821 C 0.29203 0.84643 0.13872
 C822 C 0.26783 0.84416 0.15690
 C823 C 0.24727 0.86085 0.14891
 C824 C 0.25058 0.87926 0.12318
 C825 C 0.26311 0.82490 0.18432
 C826 C 0.27678 0.80153 0.18807
 H827 H 0.29555 0.89867 0.06086
 H828 H 0.31426 0.86645 0.09948
 H829 H 0.30857 0.83433 0.14451
 H830 H 0.22837 0.85939 0.16238
 H831 H 0.23388 0.89112 0.11734
 H832 H 0.24659 0.82818 0.20091
 H833 H 0.25065 0.92906 0.09389
 H834 H 0.29221 0.79671 0.17073
 C835 C 0.78469 0.44931 0.57385
 C836 C 0.79720 0.42513 0.57586
 C837 C 0.79198 0.40550 0.60278
 C838 C 0.81092 0.38658 0.60899
 C839 C 0.80643 0.36743 0.63385
 C840 C 0.78262 0.36663 0.65275
 C841 C 0.76376 0.38563 0.64660
 C842 C 0.76824 0.40474 0.62177
 C843 C 0.77658 0.34646 0.67894
 C844 C 0.78862 0.32200 0.68104
 H845 H 0.81204 0.42087 0.55742
 H846 H 0.82936 0.38673 0.59470
 H847 H 0.82182 0.35361 0.63827
 H848 H 0.74522 0.38542 0.66071
 H849 H 0.75275 0.41842 0.61720
 H850 H 0.76061 0.35027 0.69612
 H851 H 0.77258 0.45567 0.59409
 H852 H 0.80360 0.31689 0.66329
 C853 C 0.70959 0.08015 0.07177
 C854 C 0.73201 0.09604 0.08331
 C855 C 0.72950 0.11880 0.10610
 C856 C 0.74409 0.14360 0.09971
 C857 C 0.74217 0.16559 0.12084
 C858 C 0.72626 0.16285 0.14927
 C859 C 0.71219 0.13783 0.15615
 C860 C 0.71340 0.11604 0.13440
 C861 C 0.72533 0.18565 0.17243
 C862 C 0.72226 0.21183 0.16155
 H863 H 0.75172 0.09345 0.07280
 H864 H 0.75674 0.14603 0.07812
 H865 H 0.75362 0.18456 0.11537
 H866 H 0.70007 0.13527 0.17816
 H867 H 0.70231 0.09691 0.14001
 H868 H 0.72667 0.18172 0.19839
 H869 H 0.68982 0.08262 0.08216
 H870 H 0.71774 0.21511 0.13604
 C871 C 0.18114 0.55781 0.58149
 C872 C 0.20255 0.57059 0.59904
 C873 C 0.20045 0.59489 0.61973
 C874 C 0.22194 0.60272 0.64077
 C875 C 0.22209 0.62673 0.65872
 C876 C 0.20063 0.64354 0.65603
 C877 C 0.17908 0.63572 0.63502
 C878 C 0.17890 0.61160 0.61709
 C879 C 0.20106 0.66999 0.67311
 C880 C 0.21628 0.67579 0.70122
 H881 H 0.22233 0.56296 0.59618
 H882 H 0.23901 0.59046 0.64281
 H883 H 0.23956 0.63243 0.67369
 H884 H 0.16251 0.64850 0.63215
 H885 H 0.16232 0.60671 0.60045
 H886 H 0.18915 0.68540 0.66312
 H887 H 0.16057 0.56299 0.58513
 H888 H 0.22663 0.66003 0.71292
 C889 C 0.92771 0.71536 0.09768
 C890 C 0.90371 0.72719 0.09107
 C891 C 0.88430 0.73425 0.11665
 C892 C 0.85742 0.73721 0.10772
 C893 C 0.83844 0.74398 0.13107
 C894 C 0.84608 0.74803 0.16393
 C895 C 0.87312 0.74572 0.17269
 C896 C 0.89207 0.73888 0.14937
 C897 C 0.82681 0.75553 0.18948
 C898 C 0.79880 0.75087 0.18674
 H899 H 0.89858 0.73083 0.06581
 H900 H 0.85105 0.73420 0.08257
 H901 H 0.81805 0.74649 0.12306
 H902 H 0.87962 0.74920 0.19772
 H903 H 0.91278 0.73780 0.15706
 H904 H 0.83515 0.76423 0.21197
 H905 H 0.93358 0.71169 0.12260
 H906 H 0.78987 0.74077 0.16545
 C907 C 0.43904 0.21918 0.58805
 C908 C 0.41501 0.23166 0.58387
 C909 C 0.39410 0.23302 0.60962
 C910 C 0.36734 0.23599 0.60014
 C911 C 0.34687 0.23720 0.62352
 C912 C 0.35279 0.23562 0.65703
 C913 C 0.37968 0.23343 0.66659
 C914 C 0.40016 0.23201 0.64316
 C915 C 0.33159 0.23725 0.68243
 C916 C 0.30439 0.22924 0.67672
 H917 H 0.41069 0.23959 0.55995
 H918 H 0.36222 0.23724 0.57448
 H919 H 0.32658 0.23989 0.61521
 H920 H 0.38483 0.23268 0.69227
 H921 H 0.42067 0.23063 0.65148
 H922 H 0.33772 0.24423 0.70663
 H923 H 0.44411 0.21138 0.61171
 H924 H 0.29828 0.22025 0.65348
 C925 C 0.07716 0.29333 0.09512
 C926 C 0.08902 0.26977 0.10358
 C927 C 0.11147 0.26894 0.12718
 C928 C 0.11756 0.24380 0.13963
 C929 C 0.13989 0.24181 0.15997
 C930 C 0.15670 0.26503 0.16817
 C931 C 0.15061 0.29017 0.15572
 C932 C 0.12820 0.29218 0.13550
 C933 C 0.18152 0.26358 0.18787
 C934 C 0.18560 0.24244 0.20926
 H935 H 0.08202 0.25108 0.09132
 H936 H 0.10525 0.22555 0.13313
 H937 H 0.14435 0.22195 0.16822
 H938 H 0.16345 0.30829 0.16131
 H939 H 0.12470 0.31180 0.12562
 H940 H 0.19704 0.28016 0.18586
 H941 H 0.08151 0.31193 0.10869
 H942 H 0.16962 0.22674 0.21374
 C943 C 0.56842 0.76751 0.60365
 C944 C 0.58386 0.74568 0.60917
 C945 C 0.60364 0.74552 0.63598
 C946 C 0.62859 0.73495 0.63010
 C947 C 0.64782 0.73465 0.65493
 C948 C 0.64209 0.74426 0.68637
 C949 C 0.61679 0.75402 0.69260
 C950 C 0.59780 0.75504 0.66744
 C951 C 0.66217 0.74347 0.71284
 C952 C 0.68942 0.75094 0.70712
 H953 H 0.58279 0.72900 0.59190
 H954 H 0.63334 0.72727 0.60609
 H955 H 0.66700 0.72648 0.64973
 H956 H 0.61190 0.76122 0.71678
 H957 H 0.57842 0.76275 0.67272
 H958 H 0.65535 0.73773 0.73720
 H959 H 0.56970 0.78443 0.62055
 H960 H 0.69556 0.75949 0.68366
   
