data_POSCAR
  _audit_creation_date              2014-09-24
  _audit_creation_method            'ToBaCCo'
  _symmetry_space_group_name_H-M    'P1'
  _symmetry_Int_Tables_number       1
  _symmetry_cell_setting            triclinic
  loop_
  _symmetry_equiv_pos_as_xyz
 x,y,z
_cell_length_a 40.6597
_cell_length_b 10.2311
_cell_length_c 14.6070
_cell_angle_alpha 92.908300
_cell_angle_beta 89.855300
_cell_angle_gamma 86.870100
loop_
  _atom_site_label
  _atom_site_type_symbol
  _atom_site_fract_x
  _atom_site_fract_y
  _atom_site_fract_z
C1 C 0.65518 0.16532 0.47462
 C2 C 0.67201 0.18976 0.55722
 C3 C 0.70586 0.20574 0.55385
 C4 C 0.72384 0.18393 0.47177
 C5 C 0.70663 0.15856 0.38977
 C6 C 0.67221 0.15313 0.39019
 C7 C 0.76034 0.19106 0.47375
 C8 C 0.77791 0.23323 0.39849
 C9 C 0.81198 0.24868 0.40381
 C10 C 0.82821 0.22505 0.48720
 C11 C 0.81116 0.18083 0.56206
 C12 C 0.77779 0.15882 0.55344
 H13 H 0.62861 0.16760 0.47519
 H14 H 0.71830 0.23447 0.61658
 H15 H 0.71971 0.14404 0.32513
 H16 H 0.76514 0.25726 0.33611
 H17 H 0.85463 0.22983 0.49258
 H18 H 0.76543 0.11791 0.61024
 C19 C 0.17694 0.83074 0.48386
 C20 C 0.19076 0.83874 0.57219
 C21 C 0.22469 0.85992 0.57947
 C22 C 0.24536 0.85797 0.50058
 C23 C 0.23045 0.84518 0.41363
 C24 C 0.19645 0.83432 0.40481
 C25 C 0.28233 0.86366 0.50844
 C26 C 0.30200 0.90162 0.43461
 C27 C 0.33663 0.89643 0.43984
 C28 C 0.35156 0.85483 0.52004
 C29 C 0.33308 0.82257 0.59573
 C30 C 0.29855 0.82479 0.58897
 H31 H 0.15053 0.83109 0.47598
 H32 H 0.23482 0.87534 0.64725
 H33 H 0.24499 0.84194 0.35148
 H34 H 0.29081 0.93563 0.37254
 H35 H 0.37817 0.84493 0.52347
 H36 H 0.28450 0.79027 0.64452
 C37 C 0.33834 0.21612 -0.49790
 C38 C 0.31734 0.25746 -0.56800
 C39 C 0.28345 0.25121 -0.55744
 C40 C 0.26997 0.20485 -0.47713
 C41 C 0.29147 0.16890 -0.40551
 C42 C 0.32562 0.17590 -0.41581
 C43 C 0.23354 0.19990 -0.46826
 C44 C 0.21815 0.21589 -0.38219
 C45 C 0.18377 0.22420 -0.37382
 C46 C 0.16435 0.21875 -0.45415
 C47 C 0.17942 0.19761 -0.54086
 C48 C 0.21379 0.18436 -0.54660
 H49 H 0.36482 0.21669 -0.50633
 H50 H 0.26770 0.28691 -0.61141
 H51 H 0.28216 0.13179 -0.34303
 H52 H 0.23279 0.22744 -0.32083
 H53 H 0.13778 0.22036 -0.44949
 H54 H 0.22507 0.16237 -0.61321
 C55 C -0.15944 0.71536 -0.53209
 C56 C -0.17385 0.68818 -0.61834
 C57 C -0.20855 0.68279 -0.62268
 C58 C -0.22808 0.69959 -0.54206
 C59 C -0.21260 0.72908 -0.45792
 C60 C -0.17849 0.73466 -0.45203
 C61 C -0.26459 0.68733 -0.54256
 C62 C -0.27978 0.63232 -0.46714
 C63 C -0.31406 0.63989 -0.45682
 C64 C -0.33341 0.69290 -0.52606
 C65 C -0.31932 0.74297 -0.60310
 C66 C -0.28476 0.74045 -0.61194
 H67 H -0.13350 0.73233 -0.52734
 H68 H -0.22019 0.66173 -0.68801
 H69 H -0.22717 0.74877 -0.39606
 H70 H -0.26494 0.58876 -0.41400
 H71 H -0.36004 0.69487 -0.52032
 H72 H -0.27386 0.78522 -0.66949
 O73 O -0.04381 0.76315 0.13866
 O74 O -0.08066 0.87284 0.04717
 C75 C -0.07364 0.79198 0.11071
 O76 O 0.03045 1.24266 0.19587
 O77 O 0.07420 1.14048 0.11616
 C78 C 0.06173 1.21636 0.18310
 O79 O -0.05936 1.20691 0.16679
 O80 O -0.08828 1.08528 0.06158
 C81 C -0.08658 1.16533 0.13314
 O82 O 0.04827 0.77606 0.15365
 O83 O 0.08310 0.92045 0.09435
 C84 C 0.07704 0.82346 0.14494
 Zr85 Zr 0.00198 0.83417 0.09810
 O86 O -0.00077 0.79538 0.23862
 O87 O 0.00845 0.63182 0.06455
 Zr88 Zr -0.01006 1.16433 0.12604
 O89 O -0.01409 1.15090 0.26983
 O90 O -0.01540 1.37143 0.14080
 O91 O -0.03334 0.98807 0.12067
 O92 O 0.02323 1.00647 0.13837
 O93 O 0.06033 0.81759 -0.16921
 O94 O 0.08872 0.94131 -0.06418
 C95 C 0.08742 0.86382 -0.13715
 O96 O -0.04661 1.24079 -0.16391
 O97 O -0.08165 1.10003 -0.10221
 C98 C -0.07513 1.19196 -0.15662
 O99 O 0.04174 1.28410 -0.12351
 O100 O 0.08011 1.15981 -0.04555
 C101 C 0.07165 1.25258 -0.10005
 O102 O -0.02997 0.79011 -0.20043
 O103 O -0.07400 0.88485 -0.11784
 C104 C -0.06129 0.81158 -0.18570
 Zr105 Zr 0.01070 0.85890 -0.12681
 O106 O 0.01879 0.85780 -0.26988
 O107 O 0.01578 0.65150 -0.13224
 Zr108 Zr -0.00183 1.18983 -0.09942
 O109 O 0.00686 1.21432 -0.24035
 O110 O -0.01349 1.39289 -0.07775
 Zr111 Zr -0.04859 0.99564 -0.01707
 Zr112 Zr 0.04895 1.02905 0.01532
 O113 O 0.03272 1.03647 -0.12139
 O114 O -0.02344 1.01650 -0.14138
 O115 O 0.03688 0.83184 -0.00664
 O116 O -0.03558 1.19068 0.00558
 O117 O -0.02182 0.81336 -0.02557
 O118 O 0.02260 1.21249 0.02504
 H119 H 0.03502 1.00411 0.19755
 H120 H -0.05343 1.26049 0.00538
 H121 H 0.04822 1.04917 -0.17218
 H122 H -0.03433 0.73339 -0.03555
 H123 H -0.03622 1.40181 0.11186
 H124 H 0.00153 1.42483 -0.02961
 H125 H -0.00578 1.14907 -0.27551
 H126 H 0.00528 0.93236 -0.29272
 H127 H 0.03716 0.62593 -0.10416
 H128 H 0.01091 0.58978 0.12385
 H129 H -0.00424 0.88110 0.27241
 H130 H -0.03000 1.08370 0.28146
 O131 O 0.46085 0.35733 0.20589
 O132 O 0.42093 0.46976 0.12608
 C133 C 0.43102 0.40378 0.19524
 O134 O 0.55981 0.73155 0.12116
 O135 O 0.58651 0.57548 0.02491
 C136 C 0.58642 0.67297 0.08474
 O137 O 0.46705 0.78581 0.17202
 O138 O 0.42431 0.67766 0.10651
 C139 C 0.43574 0.76481 0.16274
 O140 O 0.54800 0.26971 0.14546
 O141 O 0.58162 0.35730 0.04111
 C142 C 0.57661 0.28325 0.10876
 Zr143 Zr 0.50188 0.36383 0.11960
 O144 O 0.51402 0.36481 0.26027
 O145 O 0.49309 0.16260 0.12084
 Zr146 Zr 0.50907 0.69082 0.10081
 O147 O 0.52097 0.72281 0.24080
 O148 O 0.51035 0.89384 0.08124
 O149 O 0.47823 0.54888 0.14172
 O150 O 0.53434 0.51126 0.11330
 O151 O 0.52730 0.22023 -0.16959
 O152 O 0.57092 0.33334 -0.11405
 C153 C 0.55836 0.24240 -0.16616
 O154 O 0.44733 0.73785 -0.15508
 O155 O 0.41417 0.65301 -0.04789
 C156 C 0.41889 0.72336 -0.11749
 O157 O 0.53867 0.68870 -0.19463
 O158 O 0.57676 0.55264 -0.12569
 C159 C 0.56834 0.63812 -0.18512
 O160 O 0.43708 0.29190 -0.13305
 O161 O 0.40961 0.44363 -0.03558
 C162 C 0.41024 0.34923 -0.09832
 Zr163 Zr 0.48701 0.32680 -0.10498
 O164 O 0.48056 0.29103 -0.24749
 O165 O 0.47948 0.12839 -0.08228
 Zr166 Zr 0.49449 0.65293 -0.12559
 O167 O 0.48848 0.62745 -0.26927
 O168 O 0.49611 0.85724 -0.13809
 Zr169 Zr 0.45004 0.53968 0.02062
 Zr170 Zr 0.54626 0.47665 -0.02653
 O171 O 0.51744 0.46907 -0.14605
 O172 O 0.46107 0.50600 -0.11977
 O173 O 0.52315 0.30129 -0.00562
 O174 O 0.47406 0.71333 -0.00001
 O175 O 0.46530 0.34060 0.02344
 O176 O 0.53136 0.67741 -0.02824
 H177 H 0.55192 0.50920 0.16009
 H178 H 0.46099 0.79809 0.00285
 H179 H 0.52817 0.45233 -0.20680
 H180 H 0.44839 0.27780 0.03654
 H181 H 0.53062 0.90790 0.04622
 H182 H 0.51694 0.88417 -0.10992
 H183 H 0.46686 0.58981 -0.28037
 H184 H 0.46772 0.36769 -0.26985
 H185 H 0.49906 0.09424 -0.04931
 H186 H 0.49642 0.13786 0.18498
 H187 H 0.51398 0.45774 0.28224
 H188 H 0.50494 0.67680 0.27676
 C189 C 0.33060 0.30635 0.34700
 C190 C 0.35767 0.37367 0.34896
 C191 C 0.37611 0.39601 0.26581
 C192 C 0.40875 0.38585 0.27116
 H193 H 0.36884 0.40011 0.41419
 H194 H 0.36368 0.41158 0.20140
 H195 H 0.31879 0.28246 0.28230
 H196 H 0.42016 0.36010 0.33542
 C197 C -0.15418 0.67556 0.30091
 C198 C -0.12143 0.64505 0.30287
 C199 C -0.09720 0.66007 0.22868
 C200 C -0.10181 0.74025 0.15960
 H201 H -0.11042 0.60883 0.36465
 H202 H -0.07256 0.61941 0.24125
 H203 H -0.16594 0.69071 0.23556
 H204 H -0.12612 0.78394 0.14698
 C205 C 0.65735 0.80293 0.33203
 C206 C 0.65599 0.76406 0.24372
 C207 C 0.62404 0.77699 0.19547
 C208 C 0.61933 0.70834 0.11700
 H209 H 0.67614 0.70321 0.21290
 H210 H 0.60300 0.82533 0.23134
 H211 H 0.63575 0.85421 0.36278
 H212 H 0.64043 0.65721 0.08313
 C213 C 0.16041 1.17980 0.37322
 C214 C 0.13088 1.23876 0.35824
 C215 C 0.11315 1.20961 0.27191
 C216 C 0.08362 1.26747 0.25536
 H217 H 0.11948 1.30621 0.41005
 H218 H 0.12322 1.13213 0.22491
 H219 H 0.17199 1.11919 0.31796
 H220 H 0.07327 1.34182 0.30431
 C221 C 0.65611 0.20684 -0.35721
 C222 C 0.62615 0.16641 -0.33949
 C223 C 0.60985 0.20612 -0.25198
 C224 C 0.57977 0.16831 -0.23363
 H225 H 0.61294 0.10860 -0.38986
 H226 H 0.62091 0.27958 -0.20757
 H227 H 0.66931 0.25327 -0.30095
 H228 H 0.56874 0.09599 -0.27902
 C229 C 0.17115 0.82997 -0.34779
 C230 C 0.14196 0.77268 -0.34956
 C231 C 0.11747 0.77118 -0.27410
 C232 C 0.11800 0.83931 -0.19308
 H233 H 0.13429 0.72176 -0.41190
 H234 H 0.09561 0.71981 -0.29219
 H235 H 0.18065 0.86573 -0.28259
 H236 H 0.13941 0.89209 -0.17323
 C237 C 0.35082 0.78788 -0.32608
 C238 C 0.33856 0.76678 -0.24291
 C239 C 0.36140 0.73371 -0.16794
 C240 C 0.39056 0.78839 -0.16070
 H241 H 0.31243 0.76606 -0.22980
 H242 H 0.35569 0.65369 -0.12584
 H243 H 0.37740 0.77932 -0.33383
 H244 H 0.39563 0.87020 -0.20196
 C245 C -0.17176 1.15037 -0.35172
 C246 C -0.14714 1.22026 -0.31954
 C247 C -0.12739 1.17956 -0.24066
 C248 C -0.10069 1.24368 -0.21782
 H249 H -0.14030 1.30556 -0.35486
 H250 H -0.13278 1.09085 -0.20739
 H251 H -0.17986 1.06997 -0.31346
 H252 H -0.09523 1.32995 -0.25411
 C253 C 0.66995 0.59725 -0.37276
 C254 C 0.64348 0.66585 -0.33737
 C255 C 0.62262 0.61960 -0.26445
 C256 C 0.59328 0.68225 -0.24775
 H257 H 0.63564 0.75747 -0.36703
 H258 H 0.62999 0.53169 -0.22969
 H259 H 0.67944 0.50925 -0.34141
 H260 H 0.58610 0.76678 -0.28657
 C261 C 0.17029 1.22965 -0.28503
 C262 C 0.13970 1.27509 -0.26433
 C263 C 0.12505 1.25279 -0.17482
 C264 C 0.09688 1.31731 -0.14991
 H265 H 0.12453 1.32347 -0.31475
 H266 H 0.13379 1.16727 -0.13915
 H267 H 0.18583 1.19684 -0.22940
 H268 H 0.08856 1.40143 -0.18779
 C269 C 0.34910 0.14549 -0.34224
 C270 C 0.34673 0.20740 -0.25959
 C271 C 0.37643 0.21668 -0.20248
 C272 C 0.37834 0.31071 -0.13596
 H273 H 0.32478 0.26813 -0.24116
 H274 H 0.39837 0.15737 -0.22320
 H275 H 0.37221 0.09394 -0.36242
 H276 H 0.35647 0.37083 -0.11592
 C277 C -0.16319 0.76953 -0.36259
 C278 C -0.13252 0.72722 -0.34225
 C279 C -0.11500 0.77893 -0.26120
 C280 C -0.08281 0.74837 -0.25327
 H281 H -0.11918 0.65787 -0.38923
 H282 H -0.12750 0.84884 -0.21299
 H283 H -0.17726 0.83260 -0.31324
 H284 H -0.07081 0.68062 -0.30406
 C285 C 0.35739 0.91784 0.35816
 C286 C 0.38939 0.94747 0.36499
 C287 C 0.41519 0.91451 0.29356
 C288 C 0.40993 0.83683 0.21942
 H289 H 0.39859 0.98358 0.43041
 H290 H 0.44017 0.93858 0.31008
 H291 H 0.34667 0.89524 0.29204
 H292 H 0.38518 0.80973 0.20394
 C293 C -0.17056 1.27505 0.32413
 C294 C -0.14002 1.31791 0.32621
 C295 C -0.11690 1.30526 0.24840
 C296 C -0.11713 1.20812 0.18304
 H297 H -0.13006 1.35866 0.38939
 H298 H -0.09530 1.36213 0.25634
 H299 H -0.18197 1.25583 0.25817
 H300 H -0.13815 1.14817 0.17467
 C301 C 0.65428 0.15012 0.30167
 C302 C 0.62370 0.10823 0.29392
 C303 C 0.60097 0.13344 0.21761
 C304 C 0.60535 0.21996 0.15324
 H305 H 0.61288 0.06120 0.35037
 H306 H 0.57695 0.09399 0.22493
 H307 H 0.66610 0.18978 0.24358
 H308 H 0.62905 0.26006 0.14283
 C309 C 0.18106 0.83902 0.31291
 C310 C 0.15308 0.78110 0.29290
 C311 C 0.13267 0.81752 0.21388
 C312 C 0.10327 0.76678 0.20256
 H313 H 0.14335 0.71481 0.34049
 H314 H 0.13985 0.89603 0.17225
 H315 H 0.19188 0.89876 0.26286
 H316 H 0.09656 0.68917 0.24579
   
