data_POSCAR
  _audit_creation_date              2014-09-24
  _audit_creation_method            'ToBaCCo'
  _symmetry_space_group_name_H-M    'P1'
  _symmetry_Int_Tables_number       1
  _symmetry_cell_setting            triclinic
  loop_
  _symmetry_equiv_pos_as_xyz
 x,y,z
_cell_length_a 59.1864
_cell_length_b 56.0214
_cell_length_c 8.9082
_cell_angle_alpha 89.765400
_cell_angle_beta 89.999600
_cell_angle_gamma 89.953900
loop_
  _atom_site_label
  _atom_site_type_symbol
  _atom_site_fract_x
  _atom_site_fract_y
  _atom_site_fract_z
O1 O 0.26970 0.27347 0.39791
 O2 O 0.22620 0.22682 0.36186
 O3 O 0.26980 0.22704 0.40389
 O4 O 0.22608 0.27323 0.35722
 O5 O 0.23099 0.27272 0.11195
 O6 O 0.27480 0.22652 0.15893
 O7 O 0.23120 0.22628 0.11667
 O8 O 0.27462 0.27294 0.15265
 Cu9 Cu 0.24740 0.25019 0.40421
 Cu10 Cu 0.25345 0.24956 0.11105
 C11 C 0.27968 0.28114 0.28101
 C12 C 0.22118 0.21862 0.23338
 C13 C 0.27992 0.21888 0.28914
 C14 C 0.22096 0.28083 0.22711
 O15 O 0.77386 0.27294 0.35697
 O16 O 0.73025 0.22672 0.40379
 O17 O 0.77385 0.22653 0.36184
 O18 O 0.73025 0.27315 0.39769
 O19 O 0.72533 0.27259 0.15244
 O20 O 0.76886 0.22597 0.11666
 O21 O 0.72526 0.22616 0.15884
 O22 O 0.76895 0.27240 0.11171
 Cu23 Cu 0.75259 0.24989 0.40408
 Cu24 Cu 0.74655 0.24922 0.11092
 C25 C 0.77896 0.28054 0.22684
 C26 C 0.72015 0.21854 0.28907
 C27 C 0.77890 0.21833 0.23340
 C28 C 0.72026 0.28080 0.28077
 O29 O 0.76939 0.77259 0.89360
 O30 O 0.72620 0.72618 0.83977
 O31 O 0.76967 0.72617 0.88702
 O32 O 0.72595 0.77258 0.84492
 O33 O 0.73185 0.77350 0.60059
 O34 O 0.77547 0.72711 0.64281
 O35 O 0.73201 0.72711 0.59534
 O36 O 0.77528 0.77351 0.64925
 Cu37 Cu 0.74718 0.74928 0.89045
 Cu38 Cu 0.75428 0.75041 0.59792
 C39 C 0.77982 0.78094 0.78035
 C40 C 0.72161 0.71876 0.70874
 C41 C 0.78017 0.71871 0.77182
 C42 C 0.72134 0.78092 0.71565
 O43 O 0.23039 0.72668 0.88734
 O44 O 0.27405 0.77307 0.84513
 O45 O 0.23060 0.77310 0.89379
 O46 O 0.27385 0.72667 0.83981
 O47 O 0.26801 0.72761 0.59541
 O48 O 0.22472 0.77404 0.64969
 O49 O 0.26814 0.77401 0.60082
 O50 O 0.22456 0.72764 0.64292
 Cu51 Cu 0.25285 0.74978 0.89065
 Cu52 Cu 0.24573 0.75093 0.59813
 C53 C 0.21993 0.71927 0.77200
 C54 C 0.27865 0.78141 0.71588
 C55 C 0.22012 0.78150 0.78076
 C56 C 0.27843 0.71925 0.70875
 C57 C 0.97978 -0.05102 -0.00569
 C58 C 1.00040 -0.06306 -0.01740
 C59 C 1.02100 -0.05101 -0.00557
 C60 C 1.02113 -0.02612 0.02121
 C61 C 1.00035 -0.01363 0.03386
 C62 C 0.97959 -0.02613 0.02111
 C63 C 0.95924 -0.01355 0.04003
 C64 C 0.95921 0.01088 0.06744
 C65 C 0.97954 0.02375 0.07695
 C66 C 1.00032 0.01133 0.06187
 C67 C 1.04146 -0.01353 0.04017
 C68 C 1.04143 0.01091 0.06755
 C69 C 1.02108 0.02376 0.07700
 C70 C 1.02089 0.04860 0.10559
 C71 C 1.00027 0.06054 0.12079
 C72 C 0.97967 0.04859 0.10558
 H73 H 0.94307 -0.02252 0.03600
 H74 H 0.94303 0.01949 0.08326
 H75 H 1.05764 -0.02249 0.03615
 H76 H 1.05760 0.01953 0.08339
 H77 H 1.00042 -0.08211 -0.03867
 H78 H 1.00025 0.07961 0.14170
 C79 C 0.52060 0.55179 0.50479
 C80 C 0.50000 0.56386 0.51696
 C81 C 0.47938 0.55185 0.50474
 C82 C 0.47921 0.52699 0.47718
 C83 C 0.49997 0.51448 0.46410
 C84 C 0.52075 0.52693 0.47721
 C85 C 0.54108 0.51433 0.45780
 C86 C 0.54107 0.48992 0.42975
 C87 C 0.52072 0.47709 0.42006
 C88 C 0.49996 0.48953 0.43539
 C89 C 0.45886 0.51445 0.45774
 C90 C 0.45885 0.49004 0.42971
 C91 C 0.47918 0.47715 0.42006
 C92 C 0.47932 0.45232 0.39121
 C93 C 0.49993 0.44035 0.37568
 C94 C 0.52055 0.45226 0.39119
 H95 H 0.55726 0.52327 0.46205
 H96 H 0.55723 0.48129 0.41357
 H97 H 0.44269 0.52343 0.46196
 H98 H 0.44267 0.48145 0.41353
 H99 H 0.50001 0.58290 0.53868
 H100 H 0.49992 0.42128 0.35487
 C101 C 0.02023 0.54872 -0.07964
 C102 C -0.00039 0.56046 -0.10086
 C103 C -0.02098 0.54871 -0.07962
 C104 C -0.02112 0.52420 -0.04031
 C105 C -0.00034 0.51191 -0.02112
 C106 C 0.02042 0.52421 -0.04032
 C107 C 0.04078 0.51162 -0.02158
 C108 C 0.04081 0.48756 0.01775
 C109 C 0.02047 0.47495 0.03644
 C110 C -0.00031 0.48725 0.01728
 C111 C -0.04146 0.51160 -0.02155
 C112 C -0.04143 0.48754 0.01777
 C113 C -0.02106 0.47494 0.03644
 C114 C -0.02088 0.45043 0.07567
 C115 C -0.00026 0.43868 0.09687
 C116 C 0.02033 0.45044 0.07568
 H117 H 0.05697 0.52021 -0.03750
 H118 H 0.05701 0.47898 0.03374
 H119 H -0.05766 0.52018 -0.03745
 H120 H -0.05762 0.47895 0.03379
 H121 H -0.00040 0.57931 -0.12952
 H122 H -0.00024 0.41983 0.12525
 C123 C 0.52067 1.05038 0.46568
 C124 C 0.50007 1.06258 0.45961
 C125 C 0.47946 1.05044 0.46559
 C126 C 0.47929 1.02529 0.48176
 C127 C 0.50005 1.01267 0.49053
 C128 C 0.52083 1.02524 0.48183
 C129 C 0.54117 1.01236 0.49179
 C130 C 0.54116 0.98765 0.50768
 C131 C 0.52080 0.97484 0.51780
 C132 C 0.50004 0.98745 0.50882
 C133 C 0.45893 1.01247 0.49169
 C134 C 0.45892 0.98776 0.50762
 C135 C 0.47927 0.97489 0.51778
 C136 C 0.47942 0.94975 0.53451
 C137 C 0.50002 0.93756 0.54057
 C138 C 0.52063 0.94970 0.53448
 H139 H 0.55737 1.02126 0.48784
 H140 H 0.55736 0.97871 0.51156
 H141 H 0.44273 1.02142 0.48774
 H142 H 0.44272 0.97886 0.51155
 H143 H 0.50008 1.08184 0.44621
 H144 H 0.50001 0.91830 0.55436
 C145 C 1.17969 0.17460 0.06523
 C146 C 1.16844 0.16639 0.19358
 C147 C 1.17473 0.17487 0.33503
 C148 C 1.19206 0.19167 0.34818
 C149 C 1.20333 0.20024 0.21971
 C150 C 1.19704 0.19141 0.07805
 C151 C 1.15005 0.14974 0.18014
 C152 C 1.13442 0.13606 0.16971
 C153 C 1.11587 0.12035 0.15837
 C154 C 1.09982 0.10720 0.14940
 C155 C 1.08041 0.09183 0.13943
 C156 C 1.06622 0.08887 0.26392
 C157 C 1.04698 0.07453 0.25333
 C158 C 1.04184 0.06289 0.11834
 C159 C 1.05610 0.06591 -0.00628
 C160 C 1.07535 0.08027 0.00442
 H161 H 1.17493 0.16818 -0.04486
 H162 H 1.16611 0.16866 0.43513
 H163 H 1.19649 0.19809 0.45884
 H164 H 1.20537 0.19763 -0.02302
 H165 H 1.06992 0.09782 0.36868
 H166 H 1.03604 0.07254 0.35004
 H167 H 1.05219 0.05732 -0.11185
 H168 H 1.08613 0.08255 -0.09286
 C169 C 0.68054 0.67591 0.52500
 C170 C 0.66891 0.66697 0.64994
 C171 C 0.67485 0.67454 0.79408
 C172 C 0.69219 0.69117 0.81336
 C173 C 0.70382 0.70048 0.68840
 C174 C 0.69791 0.69255 0.54398
 C175 C 0.65045 0.65058 0.63017
 C176 C 0.63474 0.63716 0.61403
 C177 C 0.61606 0.62181 0.59524
 C178 C 0.59989 0.60902 0.57892
 C179 C 0.58032 0.59414 0.55873
 C180 C 0.57535 0.57606 0.66263
 C181 C 0.55601 0.56204 0.64446
 C182 C 0.54156 0.56593 0.52168
 C183 C 0.54659 0.58412 0.41822
 C184 C 0.56592 0.59811 0.43644
 H185 H 0.67604 0.67020 0.41287
 H186 H 0.66593 0.66776 0.89154
 H187 H 0.69632 0.69689 0.92603
 H188 H 0.70652 0.69937 0.44552
 H189 H 0.58631 0.57294 0.75818
 H190 H 0.55218 0.54829 0.72644
 H191 H 0.53549 0.58748 0.32376
 H192 H 0.56954 0.61214 0.35589
 C193 C -0.17469 0.32464 0.32127
 C194 C -0.16816 0.33248 0.17845
 C195 C -0.17920 0.32369 0.05122
 C196 C -0.19660 0.30696 0.06667
 C197 C -0.20313 0.29880 0.20983
 C198 C -0.19205 0.30793 0.33703
 C199 C -0.14977 0.34910 0.16287
 C200 C -0.13415 0.36277 0.15123
 C201 C -0.11562 0.37849 0.13876
 C202 C -0.09961 0.39167 0.12858
 C203 C -0.08027 0.40712 0.11641
 C204 C -0.07468 0.41747 -0.02205
 C205 C -0.05549 0.43187 -0.03497
 C206 C -0.04180 0.43615 0.09081
 C207 C -0.04745 0.42571 0.22932
 C208 C -0.06665 0.41132 0.24212
 H209 H -0.16623 0.33130 0.42048
 H210 H -0.17425 0.32961 -0.05994
 H211 H -0.20478 0.30028 -0.03341
 H212 H -0.19665 0.30203 0.44881
 H213 H -0.08502 0.41421 -0.12024
 H214 H -0.05116 0.43949 -0.14313
 H215 H -0.03694 0.42866 0.32707
 H216 H -0.07075 0.40329 0.34956
 C217 C 0.32591 0.82457 0.80880
 C218 C 0.33162 0.83322 0.66617
 C219 C 0.31970 0.82532 0.54015
 C220 C 0.30227 0.80867 0.55635
 C221 C 0.29657 0.79967 0.69911
 C222 C 0.30850 0.80791 0.82533
 C223 C 0.35009 0.84970 0.64868
 C224 C 0.36577 0.86322 0.63380
 C225 C 0.38436 0.87873 0.61611
 C226 C 0.40044 0.89170 0.60074
 C227 C 0.41988 0.90686 0.58217
 C228 C 0.43373 0.90432 0.45577
 C229 C 0.45298 0.91853 0.43944
 C230 C 0.45847 0.93551 0.54895
 C231 C 0.44456 0.93797 0.67566
 C232 C 0.42530 0.92374 0.69191
 H233 H 0.33506 0.83053 0.90712
 H234 H 0.32400 0.83188 0.42920
 H235 H 0.29343 0.80270 0.45696
 H236 H 0.30453 0.80135 0.93675
 H237 H 0.42975 0.89125 0.37049
 H238 H 0.46366 0.91626 0.34178
 H239 H 0.44876 0.95074 0.76224
 H240 H 0.41477 0.92575 0.79055
 C241 C -0.17974 0.67509 -0.05629
 C242 C -0.16799 0.66724 -0.18314
 C243 C -0.17371 0.67617 -0.32492
 C244 C -0.19098 0.69303 -0.34010
 C245 C -0.20285 0.70129 -0.21313
 C246 C -0.19706 0.69195 -0.07090
 C247 C -0.14970 0.65046 -0.16792
 C248 C -0.13415 0.63667 -0.15628
 C249 C -0.11570 0.62082 -0.14365
 C250 C -0.09973 0.60755 -0.13333
 C251 C -0.08042 0.59204 -0.12101
 C252 C -0.06679 0.58778 -0.24666
 C253 C -0.04759 0.57337 -0.23364
 C254 C -0.04194 0.56297 -0.09500
 C255 C -0.05565 0.56729 0.03066
 C256 C -0.07484 0.58170 0.01754
 H257 H -0.17542 0.66831 0.05413
 H258 H -0.16470 0.67023 -0.42384
 H259 H -0.19487 0.69968 -0.45151
 H260 H -0.20573 0.69778 0.02959
 H261 H -0.07089 0.59579 -0.35420
 H262 H -0.03706 0.57040 -0.33132
 H263 H -0.05133 0.55967 0.13889
 H264 H -0.08519 0.58500 0.11565
 C265 C 0.32050 1.17637 0.46642
 C266 C 0.33193 1.16776 0.34029
 C267 C 0.32581 1.17579 0.19711
 C268 C 0.30847 1.19252 0.17986
 C269 C 0.29694 1.20156 0.30612
 C270 C 0.30313 1.19310 0.44977
 C271 C 0.35032 1.15116 0.35789
 C272 C 0.36595 1.13753 0.37234
 C273 C 0.38450 1.12190 0.38922
 C274 C 0.40054 1.10883 0.40370
 C275 C 0.41995 1.09357 0.42117
 C276 C 0.42532 1.07682 0.31041
 C277 C 0.44456 1.06251 0.32564
 C278 C 0.45852 1.06476 0.45225
 C279 C 0.45309 1.08160 0.56279
 C280 C 0.43385 1.09589 0.54750
 H281 H 0.32514 1.17029 0.57786
 H282 H 0.33458 1.16926 0.09868
 H283 H 0.30427 1.19848 0.06744
 H284 H 0.29472 1.19953 0.54980
 H285 H 0.41476 1.07498 0.21175
 H286 H 0.44871 1.04983 0.23839
 H287 H 0.46380 1.08369 0.66046
 H288 H 0.42992 1.10887 0.63346
 C289 C 1.17408 -0.17506 -0.30352
 C290 C 1.16849 -0.16727 -0.15930
 C291 C 1.18035 -0.17610 -0.03512
 C292 C 1.19761 -0.19286 -0.05471
 C293 C 1.20325 -0.20111 -0.19939
 C294 C 1.19131 -0.19181 -0.32370
 C295 C 1.15016 -0.15071 -0.13852
 C296 C 1.13457 -0.13714 -0.12123
 C297 C 1.11605 -0.12162 -0.10088
 C298 C 1.10000 -0.10867 -0.08322
 C299 C 1.08058 -0.09361 -0.06168
 C300 C 1.06628 -0.09750 0.06125
 C301 C 1.04702 -0.08340 0.08039
 C302 C 1.04196 -0.06517 -0.02281
 C303 C 1.05632 -0.06133 -0.14608
 C304 C 1.07559 -0.07546 -0.16518
 H305 H 1.16497 -0.16835 -0.40045
 H306 H 1.17612 -0.17020 0.07710
 H307 H 1.20635 -0.19948 0.04389
 H308 H 1.19509 -0.19760 -0.43685
 H309 H 1.06992 -0.11157 0.14152
 H310 H 1.03601 -0.08672 0.17528
 H311 H 1.05246 -0.04755 -0.22783
 H312 H 1.08645 -0.07241 -0.26121
 C313 C 0.67401 0.32472 0.17687
 C314 C 0.66760 0.33327 0.31793
 C315 C 0.67867 0.32500 0.44691
 C316 C 0.69599 0.30810 0.43506
 C317 C 0.70241 0.29922 0.29375
 C318 C 0.69129 0.30782 0.16470
 C319 C 0.64929 0.35008 0.33003
 C320 C 0.63374 0.36391 0.33879
 C321 C 0.61528 0.37980 0.34784
 C322 C 0.59930 0.39311 0.35486
 C323 C 0.57998 0.40868 0.36263
 C324 C 0.57482 0.42050 0.49658
 C325 C 0.55562 0.43499 0.50539
 C326 C 0.54150 0.43789 0.37995
 C327 C 0.54675 0.42601 0.24595
 C328 C 0.56595 0.41153 0.23722
 H329 H 0.66553 0.33096 0.07630
 H330 H 0.67380 0.33148 0.55671
 H331 H 0.70419 0.30184 0.53652
 H332 H 0.69582 0.30137 0.05427
 H333 H 0.58548 0.41830 0.59454
 H334 H 0.55162 0.44376 0.61025
 H335 H 0.53591 0.42789 0.14861
 H336 H 0.56972 0.40238 0.13325
 C337 C 0.82660 -0.17477 -0.30353
 C338 C 0.83234 -0.16711 -0.15919
 C339 C 0.82060 -0.17605 -0.03473
 C340 C 0.80332 -0.19276 -0.05428
 C341 C 0.79758 -0.20077 -0.19888
 C342 C 0.80933 -0.19147 -0.32341
 C343 C 0.85068 -0.15060 -0.13864
 C344 C 0.86628 -0.13706 -0.12147
 C345 C 0.88480 -0.12157 -0.10121
 C346 C 0.90085 -0.10864 -0.08360
 C347 C 0.92027 -0.09361 -0.06208
 C348 C 0.93457 -0.09752 0.06084
 C349 C 0.95381 -0.08342 0.08006
 C350 C 0.95885 -0.06518 -0.02307
 C351 C 0.94450 -0.06134 -0.14638
 C352 C 0.92525 -0.07546 -0.16555
 H353 H 0.83560 -0.16800 -0.40064
 H354 H 0.82495 -0.17027 0.07755
 H355 H 0.79461 -0.19956 0.04387
 H356 H 0.80534 -0.19725 -0.43619
 H357 H 0.93094 -0.11159 0.14107
 H358 H 0.96483 -0.08675 0.17496
 H359 H 0.94834 -0.04756 -0.22810
 H360 H 0.91438 -0.07240 -0.26162
 C361 C 0.32120 0.32533 0.44730
 C362 C 0.33226 0.33360 0.31834
 C363 C 0.32585 0.32508 0.17725
 C364 C 0.30859 0.30819 0.16503
 C365 C 0.29749 0.29957 0.29405
 C366 C 0.30391 0.30843 0.43539
 C367 C 0.35055 0.35040 0.33048
 C368 C 0.36610 0.36421 0.33922
 C369 C 0.38456 0.38008 0.34822
 C370 C 0.40053 0.39336 0.35517
 C371 C 0.41986 0.40889 0.36285
 C372 C 0.43389 0.41169 0.23743
 C373 C 0.45310 0.42613 0.24607
 C374 C 0.45836 0.43801 0.38003
 C375 C 0.44423 0.43516 0.50548
 C376 C 0.42503 0.42071 0.49674
 H377 H 0.32606 0.33178 0.55713
 H378 H 0.33431 0.33133 0.07670
 H379 H 0.30406 0.30176 0.05456
 H380 H 0.29571 0.30216 0.53683
 H381 H 0.43011 0.40254 0.13350
 H382 H 0.46394 0.42797 0.14872
 H383 H 0.44825 0.44393 0.61029
 H384 H 0.41437 0.41855 0.59473
 C385 C 0.17875 0.67512 -0.05538
 C386 C 0.16721 0.66708 -0.18264
 C387 C 0.17316 0.67577 -0.32464
 C388 C 0.19046 0.69258 -0.33952
 C389 C 0.20205 0.70095 -0.21224
 C390 C 0.19609 0.69194 -0.06995
 C391 C 0.14890 0.65034 -0.16765
 C392 C 0.13335 0.63658 -0.15616
 C393 C 0.11489 0.62077 -0.14364
 C394 C 0.09892 0.60752 -0.13334
 C395 C 0.07961 0.59203 -0.12102
 C396 C 0.06599 0.58779 -0.24666
 C397 C 0.04680 0.57339 -0.23365
 C398 C 0.04116 0.56299 -0.09500
 C399 C 0.05487 0.56730 0.03066
 C400 C 0.07405 0.58171 0.01755
 H401 H 0.17425 0.66854 0.05517
 H402 H 0.16431 0.66969 -0.42384
 H403 H 0.19462 0.69914 -0.45062
 H404 H 0.20467 0.69802 0.03021
 H405 H 0.07008 0.59578 -0.35422
 H406 H 0.03629 0.57041 -0.33134
 H407 H 0.05055 0.55969 0.13889
 H408 H 0.08439 0.58500 0.11565
 C409 C 0.67433 1.17543 0.19717
 C410 C 0.66821 1.16743 0.34039
 C411 C 0.67963 1.17604 0.46649
 C412 C 0.69699 1.19277 0.44978
 C413 C 0.70316 1.20121 0.30610
 C414 C 0.69165 1.19216 0.17987
 C415 C 0.64983 1.15084 0.35804
 C416 C 0.63421 1.13723 0.37251
 C417 C 0.61567 1.12163 0.38941
 C418 C 0.59963 1.10858 0.40392
 C419 C 0.58022 1.09336 0.42139
 C420 C 0.57485 1.07662 0.31060
 C421 C 0.55559 1.06236 0.32580
 C422 C 0.54163 1.06465 0.45239
 C423 C 0.54706 1.08147 0.56293
 C424 C 0.56631 1.09571 0.54769
 H425 H 0.66556 1.16890 0.09877
 H426 H 0.67499 1.16998 0.57795
 H427 H 0.70538 1.19921 0.54979
 H428 H 0.69585 1.19811 0.06742
 H429 H 0.58540 1.07477 0.21193
 H430 H 0.55143 1.04970 0.23854
 H431 H 0.53635 1.08359 0.66057
 H432 H 0.57024 1.10869 0.63364
 C433 C 0.17902 0.32395 0.05160
 C434 C 0.16795 0.33272 0.17883
 C435 C 0.17450 0.32488 0.32164
 C436 C 0.19190 0.30819 0.33737
 C437 C 0.20301 0.29907 0.21015
 C438 C 0.19647 0.30725 0.06701
 C439 C 0.14951 0.34931 0.16326
 C440 C 0.13385 0.36295 0.15159
 C441 C 0.11527 0.37864 0.13906
 C442 C 0.09922 0.39180 0.12880
 C443 C 0.07983 0.40720 0.11655
 C444 C 0.06620 0.41139 0.24224
 C445 C 0.04696 0.42576 0.22939
 C446 C 0.04129 0.43618 0.09085
 C447 C 0.05499 0.43190 -0.03491
 C448 C 0.07422 0.41753 -0.02194
 H449 H 0.17406 0.32987 -0.05955
 H450 H 0.16602 0.33152 0.42085
 H451 H 0.19652 0.30229 0.44914
 H452 H 0.20467 0.30058 -0.03307
 H453 H 0.07032 0.40338 0.34971
 H454 H 0.03644 0.42870 0.32713
 H455 H 0.05064 0.43952 -0.14308
 H456 H 0.08457 0.41428 -0.12011
 C457 C 0.67405 0.82413 0.80852
 C458 C 0.66834 0.83279 0.66588
 C459 C 0.68026 0.82487 0.53986
 C460 C 0.69769 0.80819 0.55608
 C461 C 0.70340 0.79919 0.69886
 C462 C 0.69147 0.80746 0.82507
 C463 C 0.64988 0.84930 0.64838
 C464 C 0.63421 0.86286 0.63349
 C465 C 0.61562 0.87842 0.61580
 C466 C 0.59956 0.89143 0.60046
 C467 C 0.58013 0.90664 0.58194
 C468 C 0.57473 0.92353 0.69175
 C469 C 0.55548 0.93781 0.67554
 C470 C 0.54157 0.93539 0.54883
 C471 C 0.54704 0.91841 0.43925
 C472 C 0.56628 0.90415 0.45553
 H473 H 0.66491 0.83012 0.90682
 H474 H 0.67595 0.83142 0.42889
 H475 H 0.70653 0.80220 0.45669
 H476 H 0.69544 0.80089 0.93650
 H477 H 0.58526 0.92550 0.79040
 H478 H 0.55130 0.95059 0.76212
 H479 H 0.53636 0.91619 0.34157
 H480 H 0.57025 0.89107 0.37022
 C481 C 0.82051 0.17435 0.06541
 C482 C 0.83178 0.16616 0.19378
 C483 C 0.82547 0.17465 0.33521
 C484 C 0.80809 0.19143 0.34830
 C485 C 0.79679 0.19997 0.21981
 C486 C 0.80311 0.19113 0.07818
 C487 C 0.85022 0.14953 0.18039
 C488 C 0.86589 0.13588 0.16998
 C489 C 0.88448 0.12020 0.15864
 C490 C 0.90057 0.10708 0.14963
 C491 C 0.92003 0.09174 0.13959
 C492 C 0.93423 0.08879 0.26405
 C493 C 0.95351 0.07448 0.25340
 C494 C 0.95869 0.06286 0.11837
 C495 C 0.94442 0.06588 -0.00624
 C496 C 0.92513 0.08020 0.00453
 H497 H 0.82529 0.16792 -0.04467
 H498 H 0.83410 0.16846 0.43532
 H499 H 0.80365 0.19785 0.45894
 H500 H 0.79476 0.19733 -0.02291
 H501 H 0.93051 0.09772 0.36885
 H502 H 0.96446 0.07249 0.35012
 H503 H 0.94836 0.05731 -0.11184
 H504 H 0.91434 0.08248 -0.09272
 C505 C 0.32523 0.67498 0.79383
 C506 C 0.33116 0.66742 0.64964
 C507 C 0.31952 0.67638 0.52477
 C508 C 0.30215 0.69304 0.54385
 C509 C 0.29624 0.70097 0.68832
 C510 C 0.30789 0.69163 0.81321
 C511 C 0.34962 0.65099 0.62977
 C512 C 0.36532 0.63754 0.61362
 C513 C 0.38399 0.62215 0.59485
 C514 C 0.40015 0.60932 0.57858
 C515 C 0.41970 0.59438 0.55848
 C516 C 0.42465 0.57628 0.66242
 C517 C 0.44398 0.56220 0.64431
 C518 C 0.45844 0.56605 0.52158
 C519 C 0.45344 0.58425 0.41808
 C520 C 0.43412 0.59831 0.43624
 H521 H 0.33416 0.66819 0.89124
 H522 H 0.32401 0.67068 0.41261
 H523 H 0.29352 0.69988 0.44545
 H524 H 0.30376 0.69735 0.92592
 H525 H 0.41368 0.57320 0.75792
 H526 H 0.44778 0.54844 0.72630
 H527 H 0.46454 0.58758 0.32364
 H528 H 0.43052 0.61234 0.35565
   
