data_POSCAR
  _audit_creation_date              2014-09-24
  _audit_creation_method            'ToBaCCo'
  _symmetry_space_group_name_H-M    'P1'
  _symmetry_Int_Tables_number       1
  _symmetry_cell_setting            triclinic
  loop_
  _symmetry_equiv_pos_as_xyz
 x,y,z
_cell_length_a 10.0246
_cell_length_b 10.0167
_cell_length_c 10.0974
_cell_angle_alpha 91.142300
_cell_angle_beta 91.325100
_cell_angle_gamma 91.414600
loop_
  _atom_site_label
  _atom_site_type_symbol
  _atom_site_fract_x
  _atom_site_fract_y
  _atom_site_fract_z
C1 C -0.21603 0.47015 0.22405
 C2 C -0.08278 0.47083 0.21820
 C3 C -0.01230 0.58744 0.17235
 C4 C -0.06077 0.71131 0.18834
 C5 C -0.14868 0.68244 0.30928
 C6 C -0.23668 0.55599 0.32559
 C7 C -0.03211 0.39968 0.33694
 C8 C -0.03362 0.27777 0.27793
 C9 C 0.05107 0.27021 0.17439
 C10 C 0.16956 0.37134 0.19542
 C11 C 0.20328 0.44701 0.32437
 C12 C 0.08603 0.45264 0.39548
 H13 H -0.27401 0.37780 0.21115
 H14 H 0.09245 0.60095 0.18541
 H15 H -0.12515 0.22347 0.26905
 H16 H 0.07615 0.52960 0.46830
 H17 H -0.08978 0.68819 0.40009
 H18 H 0.18700 0.42886 0.10957
 C19 C -0.15981 0.53793 0.79027
 C20 C -0.06686 0.49201 0.88922
 C21 C -0.06430 0.36711 0.92042
 C22 C -0.04845 0.27459 0.82178
 C23 C -0.10556 0.33585 0.68710
 C24 C -0.19001 0.46183 0.67724
 C25 C 0.07816 0.50316 0.87311
 C26 C 0.08070 0.62782 0.90794
 C27 C 0.04670 0.71861 0.81798
 C28 C 0.10176 0.67082 0.68738
 C29 C 0.19891 0.55111 0.67399
 C30 C 0.15269 0.46059 0.75981
 H31 H -0.21517 0.62634 0.81134
 H32 H -0.10684 0.34701 1.01271
 H33 H 0.12176 0.65074 1.00119
 H34 H 0.15539 0.36029 0.71927
 H35 H -0.07287 0.30368 0.59182
 H36 H 0.05851 0.71847 0.60400
 C37 C 0.22660 -0.21977 0.46641
 C38 C 0.21784 -0.08662 0.46596
 C39 C 0.17335 -0.01502 0.58049
 C40 C 0.19128 -0.06373 0.70365
 C41 C 0.30893 -0.15437 0.67746
 C42 C 0.32413 -0.24243 0.55456
 C43 C 0.33574 -0.03758 0.39518
 C44 C 0.27246 -0.04209 0.27483
 C45 C 0.17113 0.04337 0.26146
 C46 C 0.18803 0.16469 0.35729
 C47 C 0.31955 0.19887 0.44320
 C48 C 0.39777 0.07906 0.44804
 H49 H 0.21107 -0.27931 0.37608
 H50 H 0.17605 0.09062 0.58716
 H51 H 0.25621 -0.13615 0.22722
 H52 H 0.46979 0.06796 0.52563
 H53 H 0.40090 -0.09666 0.68113
 H54 H 0.23918 0.21857 0.42583
 C55 C 0.78841 -0.16795 0.54181
 C56 C 0.88732 -0.07348 0.49537
 C57 C 0.91721 -0.06753 0.37071
 C58 C 0.81525 -0.05652 0.28148
 C59 C 0.68152 -0.11615 0.34197
 C60 C 0.67406 -0.20077 0.46673
 C61 C 0.86982 0.07161 0.50588
 C62 C 0.90369 0.07512 0.62994
 C63 C 0.81353 0.04292 0.71976
 C64 C 0.68257 0.09816 0.67055
 C65 C 0.67230 0.19685 0.55161
 C66 C 0.75673 0.14667 0.46195
 H67 H 0.81170 -0.22220 0.63044
 H68 H 1.01029 -0.10792 0.34761
 H69 H 0.99860 0.10945 0.65238
 H70 H 0.71672 0.14925 0.36226
 H71 H 0.58560 -0.08749 0.30766
 H72 H 0.59749 0.05911 0.72017
 C73 C 0.44837 0.40089 1.08985
 C74 C 0.39917 0.34226 0.97187
 C75 C 0.27830 0.27700 0.96697
 C76 C 0.26598 0.17342 1.05037
 C77 C 0.36812 0.19590 1.16971
 C78 C 0.44229 0.32634 1.20452
 C79 C 0.47393 0.22680 0.92645
 C80 C 0.59138 0.18222 0.99755
 C81 C 0.71267 0.18453 0.93992
 C82 C 0.68831 0.30069 0.84722
 C83 C 0.56219 0.32060 0.76470
 C84 C 0.46974 0.22971 0.79328
 H85 H 0.52936 0.46991 1.07874
 H86 H 0.22456 0.26714 0.87672
 H87 H 0.60570 0.19347 1.10227
 H88 H 0.37681 0.22040 0.73632
 H89 H 0.42290 0.11482 1.20651
 H90 H 0.69389 0.39416 0.90290
 C91 C 0.45311 0.76481 1.14426
 C92 C 0.50249 0.87614 1.06914
 C93 C 0.62672 0.91122 1.07738
 C94 C 0.71864 0.82077 1.04491
 C95 C 0.67970 0.68865 1.10136
 C96 C 0.55064 0.67625 1.19499
 C97 C 0.49407 0.89504 0.92524
 C98 C 0.36863 0.92651 0.92334
 C99 C 0.27647 0.82622 0.94265
 C100 C 0.33899 0.69067 0.88783
 C101 C 0.46498 0.68034 0.80524
 C102 C 0.54148 0.79472 0.83491
 H103 H 0.35481 0.71891 1.14088
 H104 H 0.64779 1.00272 1.12561
 H105 H 0.34686 1.02018 0.88242
 H106 H 0.63191 0.81447 0.78175
 H107 H 0.62672 0.65828 1.17618
 H108 H 0.31054 0.59500 0.92385
 B109 B 1.00044 1.13398 0.07599
 B110 B 1.07707 0.99994 0.13343
 B111 B 0.90082 0.99157 0.13135
 B112 B 0.84963 1.08409 -0.01492
 B113 B 0.99230 1.13198 -0.09908
 B114 B 1.13541 1.07740 0.00166
 B115 B 0.99348 0.84915 -0.10037
 B116 B 0.89782 0.99319 -0.14922
 B117 B 1.08393 0.98584 -0.14976
 B118 B 1.13285 0.90097 -0.00886
 B119 B 0.98502 0.84846 0.08475
 B120 B 0.84952 0.89911 -0.00551
 B121 B 0.64052 0.51127 0.41496
 B122 B 0.50208 0.58901 0.35688
 B123 B 0.49424 0.40995 0.35705
 B124 B 0.58839 0.35613 0.50283
 B125 B 0.65214 0.50244 0.58714
 B126 B 0.58900 0.65178 0.50100
 B127 B 0.35698 0.50337 0.58736
 B128 B 0.51157 0.41605 0.63889
 B129 B 0.50354 0.58954 0.64928
 B130 B 0.41562 0.63990 0.51044
 B131 B 0.35663 0.49438 0.41019
 B132 B 0.41110 0.35677 0.49494
   
