data_POSCAR
  _audit_creation_date              2014-09-24
  _audit_creation_method            'ToBaCCo'
  _symmetry_space_group_name_H-M    'P1'
  _symmetry_Int_Tables_number       1
  _symmetry_cell_setting            triclinic
  loop_
  _symmetry_equiv_pos_as_xyz
 x,y,z
_cell_length_a 38.1048
_cell_length_b 32.1813
_cell_length_c 27.6050
_cell_angle_alpha 90.306300
_cell_angle_beta 90.124200
_cell_angle_gamma 89.568900
loop_
  _atom_site_label
  _atom_site_type_symbol
  _atom_site_fract_x
  _atom_site_fract_y
  _atom_site_fract_z
Si1 Si 1.25534 0.24568 0.25143
 Si2 Si 0.74513 -0.24628 0.25024
 Si3 Si 0.74975 0.25496 -0.25176
 Si4 Si 1.25476 -0.25327 -0.25575
 Si5 Si 0.25312 0.25191 0.75078
 Si6 Si 0.74341 0.74728 0.75077
 Si7 Si 0.74668 0.25174 0.25597
 Si8 Si 0.25023 0.75043 0.25156
 O9 O 1.05052 0.07442 0.08174
 O10 O 1.08931 0.03700 0.03474
 C11 C 1.08205 0.06416 0.06836
 O12 O 0.95308 -0.07106 0.08881
 O13 O 0.91260 -0.03447 0.04392
 C14 C 0.92107 -0.06155 0.07689
 O15 O 1.05046 -0.06676 0.09146
 O16 O 1.08929 -0.03495 0.04023
 C17 C 1.08199 -0.05877 0.07674
 O18 O 0.95322 0.08113 0.07739
 O19 O 0.91260 0.04036 0.03834
 C20 C 0.92118 0.07089 0.06709
 Zr21 Zr 1.00136 0.05529 0.05451
 O22 O 0.99956 0.06280 0.13064
 O23 O 1.00323 0.12011 0.04293
 Zr24 Zr 1.00136 -0.04841 0.06300
 O25 O 1.00075 -0.03937 0.13890
 O26 O 1.00434 -0.11380 0.06987
 O27 O 1.03315 0.00359 0.06711
 O28 O 0.97049 0.00429 0.06860
 O29 O 0.95031 0.06967 -0.09167
 O30 O 0.91142 0.03543 -0.04269
 C31 C 0.91881 0.06123 -0.07726
 O32 O 1.04736 -0.07856 -0.08590
 O33 O 1.08796 -0.03993 -0.04413
 C34 C 1.07936 -0.06863 -0.07519
 O35 O 0.95024 -0.08136 -0.07768
 O36 O 0.91103 -0.03941 -0.03697
 C37 C 0.91858 -0.07042 -0.06577
 O38 O 1.04737 0.06595 -0.09765
 O39 O 1.08790 0.03192 -0.05025
 C40 C 1.07941 0.05707 -0.08528
 Zr41 Zr 0.99928 0.04785 -0.06664
 O42 O 0.99506 0.04603 -0.14307
 O43 O 1.00021 0.11351 -0.06460
 Zr44 Zr 0.99919 -0.05616 -0.05852
 O45 O 0.99410 -0.06185 -0.13467
 O46 O 1.00102 -0.12132 -0.04926
 Zr47 Zr 1.05347 -0.00106 -0.00376
 Zr48 Zr 0.94722 0.00008 -0.00037
 O49 O 0.96826 -0.00445 -0.07060
 O50 O 1.03066 -0.00514 -0.07330
 O51 O 0.96875 0.06001 -0.00577
 O52 O 1.03102 -0.06038 0.00189
 O53 O 1.03132 0.05887 -0.00751
 O54 O 0.96890 -0.06018 0.00380
 H55 H 0.95515 0.00621 0.09747
 H56 H 1.04650 -0.08520 0.00356
 H57 H 0.95210 -0.00630 -0.09869
 H58 H 1.04713 0.08311 -0.00953
 H59 H 0.99009 -0.12573 0.04329
 H60 H 1.00034 -0.13368 -0.08222
 H61 H 1.01312 -0.04554 -0.14951
 H62 H 1.01169 0.02454 -0.15484
 H63 H 1.00002 0.12270 -0.09881
 H64 H 1.00458 0.13309 0.07551
 H65 H 1.01206 0.03865 0.14472
 H66 H 1.00079 -0.06747 0.15341
 O67 O 1.05113 0.58565 0.56874
 O68 O 1.08967 0.54258 0.52816
 C69 C 1.08248 0.57398 0.55629
 O70 O 0.95546 0.43652 0.59329
 O71 O 0.91430 0.47038 0.54677
 C72 C 0.92334 0.44471 0.58084
 O73 O 1.05251 0.44134 0.59353
 O74 O 1.09049 0.47119 0.53964
 C75 C 1.08379 0.44848 0.57734
 O76 O 0.95350 0.58895 0.56889
 O77 O 0.91340 0.54387 0.53588
 C78 C 0.92162 0.57678 0.56070
 Zr79 Zr 1.00195 0.56179 0.54838
 O80 O 1.00133 0.57206 0.62416
 O81 O 1.00249 0.62604 0.53275
 Zr82 Zr 1.00308 0.45892 0.56565
 O83 O 1.00342 0.47405 0.64024
 O84 O 1.00621 0.39445 0.57970
 O85 O 1.03450 0.51135 0.56474
 O86 O 0.97177 0.51146 0.56751
 O87 O 0.94941 0.56701 0.40267
 O88 O 0.91151 0.53593 0.45572
 C89 C 0.91823 0.56007 0.41933
 O90 O 1.04709 0.42019 0.41786
 O91 O 1.08789 0.46104 0.45620
 C92 C 1.07909 0.43089 0.42725
 O93 O 0.95026 0.41607 0.43096
 O94 O 0.91166 0.46183 0.46696
 C95 C 0.91886 0.42843 0.44220
 O96 O 1.04662 0.56304 0.39512
 O97 O 1.08759 0.53192 0.44452
 C98 C 1.07874 0.55531 0.40818
 Zr99 Zr 0.99879 0.54669 0.42807
 O100 O 0.99785 0.54135 0.35157
 O101 O 0.99886 0.61233 0.42522
 Zr102 Zr 0.99928 0.44350 0.44493
 O103 O 0.99350 0.43411 0.36939
 O104 O 1.00198 0.37893 0.45840
 Zr105 Zr 1.05376 0.50208 0.49394
 Zr106 Zr 0.94797 0.50285 0.49945
 O107 O 0.96785 0.49411 0.42921
 O108 O 1.03028 0.49365 0.42535
 O109 O 0.96890 0.56243 0.48846
 O110 O 1.03181 0.44318 0.50484
 O111 O 1.03115 0.56145 0.48541
 O112 O 0.97009 0.44323 0.50829
 H113 H 0.95658 0.51489 0.59638
 H114 H 1.04737 0.41853 0.50800
 H115 H 0.95081 0.49034 0.40243
 H116 H 1.04642 0.58584 0.48047
 H117 H 0.99512 0.38025 0.55179
 H118 H 1.00093 0.36495 0.42635
 H119 H 1.01010 0.45302 0.35319
 H120 H 0.98182 0.51849 0.34284
 H121 H 0.99910 0.61962 0.39039
 H122 H 1.00339 0.64066 0.56442
 H123 H 1.01875 0.55277 0.63855
 H124 H 1.00345 0.44723 0.65769
 O125 O 0.56146 -0.06337 0.58454
 O126 O 0.52778 -0.10783 0.53877
 C127 C 0.55168 -0.10011 0.57139
 O128 O 0.44258 0.05934 0.59427
 O129 O 0.47386 0.10543 0.54830
 C130 C 0.45068 0.09663 0.58134
 O131 O 0.44252 -0.05495 0.59625
 O132 O 0.46667 -0.10338 0.54433
 C133 C 0.44717 -0.09269 0.58100
 O134 O 0.57203 0.04972 0.57916
 O135 O 0.53950 0.10096 0.54218
 C136 C 0.56570 0.08821 0.56883
 Zr137 Zr 0.54685 -0.00488 0.55803
 O138 O 0.55279 -0.00223 0.63423
 O139 O 0.60148 -0.01150 0.54651
 Zr140 Zr 0.46009 0.00154 0.56793
 O141 O 0.46883 0.00204 0.64357
 O142 O 0.40491 0.00194 0.57640
 O143 O 0.50212 -0.03950 0.57107
 O144 O 0.50576 0.03522 0.57306
 O145 O 0.56134 0.05338 0.41256
 O146 O 0.53512 0.10224 0.46202
 C147 C 0.55653 0.09117 0.42747
 O148 O 0.43131 -0.05033 0.41897
 O149 O 0.46150 -0.10161 0.45925
 C150 C 0.43741 -0.08890 0.42898
 O151 O 0.43447 0.06356 0.42712
 O152 O 0.47127 0.10760 0.46865
 C153 C 0.44516 0.10016 0.43952
 O154 O 0.55274 -0.06030 0.40568
 O155 O 0.52410 -0.10649 0.45471
 C156 C 0.54513 -0.09762 0.41914
 Zr157 Zr 0.54010 -0.00250 0.43716
 O158 O 0.53804 0.00281 0.36080
 O159 O 0.59543 -0.00809 0.43791
 Zr160 Zr 0.45294 0.00442 0.44660
 O161 O 0.44780 0.01050 0.37054
 O162 O 0.39800 0.00688 0.45698
 Zr163 Zr 0.49676 -0.06353 0.50016
 Zr164 Zr 0.50297 0.06266 0.50430
 O165 O 0.49785 0.03777 0.43404
 O166 O 0.49405 -0.03640 0.43085
 O167 O 0.55219 0.03294 0.49789
 O168 O 0.44804 -0.03285 0.50679
 O169 O 0.54822 -0.04073 0.49594
 O170 O 0.45126 0.04048 0.50907
 H171 H 0.50833 0.05367 0.60170
 H172 H 0.42627 -0.04941 0.50865
 H173 H 0.49715 0.05684 0.40598
 H174 H 0.56816 -0.06059 0.49369
 H175 H 0.39507 0.01822 0.54920
 H176 H 0.38731 0.00857 0.42427
 H177 H 0.46106 -0.01263 0.35531
 H178 H 0.51987 -0.01654 0.34896
 H179 H 0.60290 -0.00872 0.40354
 H180 H 0.61241 -0.01355 0.57903
 H181 H 0.53329 -0.01825 0.64834
 H182 H 0.44534 0.00340 0.65886
 O183 O 0.54788 0.58892 0.06913
 O184 O 0.58701 0.54253 0.03523
 C185 C 0.57946 0.57600 0.05965
 O186 O 0.45189 0.44161 0.10574
 O187 O 0.41170 0.47120 0.05410
 C188 C 0.42007 0.44804 0.09071
 O189 O 0.54910 0.44765 0.10839
 O190 O 0.58775 0.47365 0.05267
 C191 C 0.58053 0.45366 0.09209
 O192 O 0.45021 0.59167 0.06513
 O193 O 0.41082 0.54382 0.03603
 C194 C 0.41856 0.57859 0.05746
 Zr195 Zr 0.49900 0.56345 0.04942
 O196 O 0.49688 0.57973 0.12374
 O197 O 0.49974 0.62617 0.02701
 Zr198 Zr 0.49997 0.46244 0.07781
 O199 O 0.49880 0.48352 0.15042
 O200 O 0.50319 0.39961 0.09954
 O201 O 0.53123 0.51473 0.07218
 O202 O 0.46855 0.51464 0.07293
 O203 O 0.44892 0.55612 -0.09790
 O204 O 0.41049 0.52902 -0.04265
 C205 C 0.41762 0.55014 -0.08115
 O206 O 0.54723 0.41119 -0.06155
 O207 O 0.58670 0.45693 -0.02845
 C208 C 0.57886 0.42384 -0.05306
 O209 O 0.44950 0.40902 -0.05453
 O210 O 0.41041 0.45733 -0.02454
 C211 C 0.41789 0.42245 -0.04614
 O212 O 0.54637 0.55177 -0.10236
 O213 O 0.58639 0.52592 -0.04777
 C214 C 0.57822 0.54577 -0.08704
 Zr215 Zr 0.49800 0.53876 -0.06887
 O216 O 0.49653 0.52891 -0.14462
 O217 O 0.49825 0.60393 -0.07808
 Zr218 Zr 0.49851 0.43705 -0.04077
 O219 O 0.49458 0.42111 -0.11510
 O220 O 0.50044 0.37400 -0.01972
 Zr221 Zr 0.55165 0.50015 0.00321
 Zr222 Zr 0.44618 0.50033 0.00525
 O223 O 0.46747 0.48616 -0.06311
 O224 O 0.52957 0.48578 -0.06497
 O225 O 0.46701 0.55898 -0.01140
 O226 O 0.52982 0.44214 0.01998
 O227 O 0.52929 0.55844 -0.01237
 O228 O 0.46815 0.44179 0.02128
 H229 H 0.45274 0.52009 0.10074
 H230 H 0.54528 0.41791 0.02653
 H231 H 0.45131 0.48032 -0.09044
 H232 H 0.54483 0.58223 -0.01927
 H233 H 0.49310 0.38290 0.07282
 H234 H 0.49996 0.35737 -0.05005
 H235 H 0.51440 0.43441 -0.13201
 H236 H 0.49220 0.49902 -0.14984
 H237 H 0.49899 0.60866 -0.11350
 H238 H 0.50013 0.64321 0.05702
 H239 H 0.51397 0.56168 0.14080
 H240 H 0.49884 0.45822 0.17071
 C241 C 1.18665 0.15477 0.16759
 N242 N 1.21108 0.17738 0.14367
 N243 N 1.23201 0.20343 0.16785
 C244 C 1.22933 0.20743 0.21672
 N245 N 1.20541 0.18432 0.24055
 N246 N 1.18434 0.15869 0.21644
 C247 C 1.16088 0.12910 0.14155
 N248 N 1.13017 0.11976 0.16353
 N249 N 1.10554 0.09851 0.14014
 C250 C 1.11079 0.08511 0.09405
 N251 N 1.14175 0.09383 0.07204
 N252 N 1.16631 0.11571 0.09531
 C253 C 1.18734 0.67311 0.63950
 N254 N 1.18165 0.71447 0.64601
 N255 N 1.20235 0.73656 0.67508
 C256 C 1.22912 0.71785 0.69905
 N257 N 1.23518 0.67668 0.69200
 N258 N 1.21469 0.65465 0.66259
 C259 C 1.16172 0.64810 0.61317
 N260 N 1.16883 0.60807 0.60037
 N261 N 1.14393 0.58432 0.58084
 C262 C 1.11102 0.59975 0.57437
 N263 N 1.10413 0.63980 0.58678
 N264 N 1.12904 0.66360 0.60566
 C265 C 0.67022 0.18916 0.65278
 N266 N 0.66784 0.23095 0.65930
 N267 N 0.69203 0.25087 0.68549
 C268 C 0.71924 0.22965 0.70588
 N269 N 0.72175 0.18814 0.69887
 N270 N 0.69776 0.16835 0.67269
 C271 C 0.64282 0.16516 0.62802
 N272 N 0.64625 0.12336 0.62710
 N273 N 0.62143 0.09988 0.60785
 C274 C 0.59198 0.11695 0.58854
 N275 N 0.58839 0.15906 0.58870
 N276 N 0.61344 0.18282 0.60841
 C277 C 0.68401 0.67690 0.14150
 N278 N 0.67846 0.71849 0.14541
 N279 N 0.69806 0.74146 0.17499
 C280 C 0.72373 0.72358 0.20194
 N281 N 0.72985 0.68216 0.19733
 N282 N 0.71040 0.65919 0.16744
 C283 C 0.65870 0.65115 0.11531
 N284 N 0.66526 0.61032 0.10592
 N285 N 0.64041 0.58627 0.08675
 C286 C 0.60803 0.60217 0.07722
 N287 N 0.60168 0.64299 0.08625
 N288 N 0.62657 0.66706 0.10476
 C289 C 0.81894 -0.15439 0.17774
 N290 N 0.78440 -0.15509 0.16524
 N291 N 0.76234 -0.18089 0.18736
 C292 C 0.77405 -0.20679 0.22272
 N293 N 0.80839 -0.20574 0.23542
 N294 N 0.83036 -0.18003 0.21345
 C295 C 0.84445 -0.12821 0.15207
 N296 N 0.87887 -0.13079 0.16425
 N297 N 0.90278 -0.10908 0.14045
 C298 C 0.89339 -0.08373 0.10342
 N299 N 0.85885 -0.08073 0.09123
 N300 N 0.83480 -0.10267 0.11511
 C301 C 0.82371 0.34446 0.67405
 N302 N 0.78857 0.34755 0.66634
 N303 N 0.76668 0.32121 0.68773
 C304 C 0.77929 0.29085 0.71711
 N305 N 0.81431 0.28776 0.72468
 N306 N 0.83611 0.31409 0.70355
 C307 C 0.84851 0.37272 0.65096
 N308 N 0.88295 0.37015 0.66286
 N309 N 0.90633 0.39407 0.64116
 C310 C 0.89626 0.42156 0.60668
 N311 N 0.86169 0.42454 0.59486
 N312 N 0.83816 0.40055 0.61679
 C313 C 0.34554 -0.18852 0.67215
 N314 N 0.33819 -0.18150 0.71960
 N315 N 0.31044 -0.19892 0.74019
 C316 C 0.28870 -0.22324 0.71375
 N317 N 0.29585 -0.23017 0.66626
 N318 N 0.32371 -0.21288 0.64567
 C319 C 0.37562 -0.16825 0.64974
 N320 N 0.38478 -0.17628 0.60303
 N321 N 0.40992 -0.15438 0.58165
 C322 C 0.42673 -0.12386 0.60642
 N323 N 0.41807 -0.11668 0.65337
 N324 N 0.39323 -0.13868 0.67477
 C325 C 0.32322 0.33910 0.17387
 N326 N 0.28837 0.33756 0.16336
 N327 N 0.26810 0.30896 0.18399
 C328 C 0.28227 0.28080 0.21504
 N329 N 0.31704 0.28217 0.22473
 N330 N 0.33713 0.31066 0.20450
 C331 C 0.34635 0.37082 0.15402
 N332 N 0.37925 0.37407 0.17225
 N333 N 0.40196 0.40041 0.15331
 C334 C 0.39268 0.42472 0.11544
 N335 N 0.35948 0.42219 0.09752
 N336 N 0.33656 0.39576 0.11671
 C337 C 0.81725 0.15798 -0.17497
 N338 N 0.79179 0.17888 -0.15031
 N339 N 0.77164 0.20690 -0.17276
 C340 C 0.77618 0.21480 -0.22060
 N341 N 0.80123 0.19353 -0.24535
 N342 N 0.82152 0.16581 -0.22288
 C343 C 0.84182 0.12986 -0.15003
 N344 N 0.87236 0.11909 -0.17196
 N345 N 0.89624 0.09627 -0.14884
 C346 C 0.89039 0.08278 -0.10311
 N347 N 0.85953 0.09284 -0.08125
 N348 N 0.83570 0.11618 -0.10428
 C349 C 0.81585 0.66067 0.32836
 N350 N 0.82167 0.67185 0.28180
 N351 N 0.80072 0.69909 0.25988
 C352 C 0.77330 0.71660 0.28371
 N353 N 0.76718 0.70551 0.33035
 N354 N 0.78817 0.67797 0.35237
 C355 C 0.84066 0.63190 0.35196
 N356 N 0.83487 0.61623 0.39690
 N357 N 0.85885 0.59176 0.41805
 C358 C 0.88941 0.58230 0.39499
 N359 N 0.89488 0.59773 0.35006
 N360 N 0.87092 0.62177 0.32888
 C361 C 0.34308 0.19021 0.34194
 N362 N 0.31744 0.21301 0.36390
 N363 N 0.29027 0.22748 0.33827
 C364 C 0.28754 0.21882 0.29021
 N365 N 0.31278 0.19544 0.26864
 N366 N 0.33995 0.18128 0.29406
 C367 C 0.37341 0.17396 0.36885
 N368 N 0.39963 0.15465 0.34421
 N369 N 0.42511 0.13479 0.36770
 C370 C 0.42579 0.13399 0.41676
 N371 N 0.40009 0.15432 0.44163
 N372 N 0.37449 0.17437 0.41806
 C373 C 0.31753 0.64808 -0.17680
 N374 N 0.29298 0.67049 -0.15201
 N375 N 0.27406 0.69972 -0.17444
 C376 C 0.27935 0.70734 -0.22215
 N377 N 0.30359 0.68477 -0.24674
 N378 N 0.32245 0.65580 -0.22445
 C379 C 0.34094 0.61866 -0.15262
 N380 N 0.36995 0.60492 -0.17629
 N381 N 0.39364 0.58145 -0.15386
 C382 C 0.38894 0.57032 -0.10711
 N383 N 0.35949 0.58315 -0.08356
 N384 N 0.33586 0.60709 -0.10594
 C385 C 1.18022 -0.16991 -0.16969
 N386 N 1.21534 -0.16806 -0.16127
 N387 N 1.23744 -0.19296 -0.18551
 C388 C 1.22509 -0.22049 -0.21881
 N389 N 1.19009 -0.22243 -0.22686
 N390 N 1.16810 -0.19770 -0.20273
 C391 C 1.15504 -0.14248 -0.14462
 N392 N 1.12044 -0.14604 -0.15506
 N393 N 1.09684 -0.12197 -0.13314
 C394 C 1.10675 -0.09315 -0.09992
 N395 N 1.14146 -0.08926 -0.08936
 N396 N 1.16524 -0.11352 -0.11144
 C397 C 1.17991 0.32884 0.33514
 N398 N 1.21508 0.33430 0.33968
 N399 N 1.23740 0.30945 0.31593
 C400 C 1.22525 0.27836 0.28714
 N401 N 1.19022 0.27288 0.28280
 N402 N 1.16796 0.29763 0.30643
 C403 C 1.15463 0.35616 0.35969
 N404 N 1.11992 0.34989 0.35250
 N405 N 1.09626 0.37414 0.37399
 C406 C 1.10629 0.40571 0.40351
 N407 N 1.14110 0.41222 0.41086
 N408 N 1.16492 0.38783 0.38918
 C409 C 0.64922 -0.19211 0.32725
 N410 N 0.67090 -0.21874 0.35132
 N411 N 0.69980 -0.23386 0.32996
 C412 C 0.70821 -0.22234 0.28415
 N413 N 0.68667 -0.19564 0.26043
 N414 N 0.65787 -0.18069 0.28159
 C415 C 0.61783 -0.17354 0.35015
 N416 N 0.59838 -0.14561 0.32489
 N417 N 0.57266 -0.12426 0.34622
 C418 C 0.56478 -0.13039 0.39353
 N419 N 0.58344 -0.15940 0.41861
 N420 N 0.60941 -0.18076 0.39723
 C421 C 0.68207 0.32712 -0.14569
 N422 N 0.67587 0.28637 -0.15493
 N423 N 0.69645 0.26495 -0.18500
 C424 C 0.72369 0.28371 -0.20714
 N425 N 0.73023 0.32430 -0.19762
 N426 N 0.70975 0.34570 -0.16728
 C427 C 0.65699 0.35137 -0.11710
 N428 N 0.66394 0.39107 -0.10337
 N429 N 0.63945 0.41408 -0.08130
 C430 C 0.60715 0.39820 -0.07285
 N431 N 0.60044 0.35842 -0.08613
 N432 N 0.62495 0.33537 -0.10767
 C433 C 1.18006 0.15582 -0.18169
 N434 N 1.21443 0.15732 -0.16845
 N435 N 1.23604 0.18468 -0.18878
 C436 C 1.22408 0.21160 -0.22294
 N437 N 1.18986 0.20993 -0.23628
 N438 N 1.16832 0.18258 -0.21614
 C439 C 1.15512 0.12729 -0.15812
 N440 N 1.12107 0.12720 -0.17249
 N441 N 1.09759 0.10376 -0.15003
 C442 C 1.10705 0.07921 -0.11226
 N443 N 1.14126 0.07879 -0.09803
 N444 N 1.16487 0.10237 -0.12061
 C445 C 1.17815 0.65929 0.31986
 N446 N 1.21297 0.65852 0.33065
 N447 N 1.23458 0.68632 0.31127
 C448 C 1.22201 0.71615 0.28106
 N449 N 1.18728 0.71693 0.27051
 N450 N 1.16576 0.68911 0.28959
 C451 C 1.15366 0.62912 0.34059
 N452 N 1.11984 0.62887 0.32528
 N453 N 1.09657 0.60378 0.34550
 C454 C 1.10614 0.57774 0.38177
 N455 N 1.14017 0.57742 0.39676
 N456 N 1.16357 0.60255 0.37634
 C457 C 0.65994 0.18472 0.33522
 N458 N 0.66692 0.17621 0.28797
 N459 N 0.69375 0.19405 0.26565
 C460 C 0.71499 0.22048 0.29000
 N461 N 0.70830 0.22885 0.33738
 N462 N 0.68136 0.21104 0.35977
 C463 C 0.63009 0.16466 0.35887
 N464 N 0.62155 0.17262 0.40588
 N465 N 0.59599 0.15145 0.42751
 C466 C 0.57804 0.12187 0.40263
 N467 N 0.58621 0.11474 0.35550
 N468 N 0.61147 0.13593 0.33394
 C469 C 0.67584 0.64972 -0.17702
 N470 N 0.71018 0.65307 -0.16412
 N471 N 0.73026 0.68237 -0.18377
 C472 C 0.71638 0.70961 -0.21615
 N473 N 0.68215 0.70628 -0.22859
 N474 N 0.66226 0.67699 -0.20938
 C475 C 0.65274 0.61819 -0.15633
 N476 N 0.62010 0.61349 -0.17511
 N477 N 0.59720 0.58826 -0.15446
 C478 C 0.60600 0.56653 -0.11425
 N479 N 0.63899 0.57039 -0.09592
 N480 N 0.66207 0.59567 -0.11676
 C481 C 0.81632 -0.17106 -0.15816
 N482 N 0.78096 -0.16519 -0.15539
 N483 N 0.75917 -0.18932 -0.18097
 C484 C 0.77203 -0.22003 -0.21016
 N485 N 0.80720 -0.22588 -0.21254
 N486 N 0.82885 -0.20199 -0.18707
 C487 C 0.84163 -0.14446 -0.13199
 N488 N 0.87635 -0.15253 -0.13732
 N489 N 0.90020 -0.12888 -0.11574
 C490 C 0.89057 -0.09597 -0.08774
 N491 N 0.85571 -0.08772 -0.08194
 N492 N 0.83164 -0.11157 -0.10376
 C493 C 0.81501 0.32868 0.35680
 N494 N 0.78817 0.34675 0.33210
 N495 N 0.76766 0.32403 0.30335
 C496 C 0.77323 0.28253 0.29852
 N497 N 0.79957 0.26431 0.32388
 N498 N 0.82026 0.28705 0.35230
 C499 C 0.84022 0.35401 0.38378
 N500 N 0.87220 0.33792 0.39476
 N501 N 0.89677 0.36165 0.41467
 C502 C 0.89021 0.40224 0.42487
 N503 N 0.85795 0.41828 0.41491
 N504 N 0.83341 0.39458 0.39440
 C505 C 0.33219 -0.18645 0.34019
 N506 N 0.32997 -0.22858 0.34061
 N507 N 0.30437 -0.24772 0.31614
 C508 C 0.28001 -0.22541 0.29096
 N509 N 0.28199 -0.18346 0.29137
 N510 N 0.30750 -0.16442 0.31551
 C511 C 0.36146 -0.16377 0.36290
 N512 N 0.36542 -0.12331 0.35140
 N513 N 0.39061 -0.10090 0.37155
 C514 C 0.41317 -0.11768 0.40422
 N515 N 0.40972 -0.15855 0.41571
 N516 N 0.38435 -0.18132 0.39506
 C517 C 0.31431 0.32478 -0.13605
 N518 N 0.28857 0.34373 -0.16213
 N519 N 0.26930 0.32204 -0.19357
 C520 C 0.27492 0.28066 -0.19971
 N521 N 0.30001 0.26155 -0.17281
 N522 N 0.31944 0.28324 -0.14168
 C523 C 0.33915 0.34931 -0.10715
 N524 N 0.37060 0.33247 -0.09463
 N525 N 0.39517 0.35563 -0.07370
 C526 C 0.38913 0.39643 -0.06398
 N527 N 0.35737 0.41317 -0.07543
 N528 N 0.33287 0.39005 -0.09693
 C529 C 1.18372 -0.15479 0.17582
 N530 N 1.17989 -0.16202 0.22394
 N531 N 1.20028 -0.18963 0.24652
 C532 C 1.22502 -0.21145 0.22173
 N533 N 1.22910 -0.20411 0.17366
 N534 N 1.20887 -0.17621 0.15110
 C535 C 1.15913 -0.12660 0.15071
 N536 N 1.16505 -0.11364 0.10463
 N537 N 1.14125 -0.09039 0.08138
 C538 C 1.11058 -0.07960 0.10333
 N539 N 1.10492 -0.09235 0.14942
 N540 N 1.12878 -0.11510 0.17275
 C541 C 1.18436 0.34723 0.67192
 N542 N 1.21198 0.32926 0.64841
 N543 N 1.23228 0.30114 0.67071
 C544 C 1.22557 0.29001 0.71719
 N545 N 1.19818 0.30813 0.74056
 N546 N 1.17791 0.33600 0.71835
 C547 C 1.16029 0.37678 0.64773
 N548 N 1.13024 0.38842 0.67044
 N549 N 1.10682 0.41274 0.64847
 C550 C 1.11260 0.42703 0.60305
 N551 N 1.14301 0.41610 0.58040
 N552 N 1.16645 0.39138 0.60237
 C553 C 0.65451 -0.19142 0.66744
 N554 N 0.65894 -0.18403 0.71554
 N555 N 0.68651 -0.19956 0.73915
 C556 C 0.71102 -0.22254 0.71541
 N557 N 0.70693 -0.22960 0.66719
 N558 N 0.67932 -0.21397 0.64347
 C559 C 0.62377 -0.17399 0.64215
 N560 N 0.61975 -0.17783 0.59336
 N561 N 0.59386 -0.15768 0.57049
 C562 C 0.57077 -0.13359 0.59571
 N563 N 0.57433 -0.13091 0.64454
 N564 N 0.60005 -0.15100 0.66735
 C565 C 0.67886 0.34850 0.18116
 N566 N 0.71334 0.34499 0.16913
 N567 N 0.73346 0.31569 0.18944
 C568 C 0.71949 0.28861 0.22155
 N569 N 0.68509 0.29198 0.23300
 N570 N 0.66516 0.32131 0.21317
 C571 C 0.65584 0.38042 0.16044
 N572 N 0.62368 0.38647 0.18017
 N573 N 0.60064 0.41203 0.15967
 C574 C 0.60880 0.43272 0.11864
 N575 N 0.64136 0.42758 0.09932
 N576 N 0.66462 0.40196 0.12007
 C577 C 0.82051 0.17083 0.16491
 N578 N 0.83296 0.19978 0.19635
 N579 N 0.81116 0.22350 0.22219
 C580 C 0.77598 0.21936 0.21757
 N581 N 0.76327 0.19062 0.18595
 N582 N 0.78518 0.16670 0.16004
 C583 C 0.84562 0.14453 0.13782
 N584 N 0.83518 0.11337 0.10759
 N585 N 0.85888 0.08964 0.08451
 C586 C 0.89381 0.09634 0.09095
 N587 N 0.90396 0.12752 0.12100
 N588 N 0.88043 0.15104 0.14393
 C589 C 0.81666 0.67293 0.65267
 N590 N 0.82082 0.71451 0.65859
 N591 N 0.79866 0.73643 0.68604
 C592 C 0.77183 0.71745 0.70901
 N593 N 0.76741 0.67597 0.70282
 N594 N 0.78938 0.65408 0.67495
 C595 C 0.84283 0.64849 0.62572
 N596 N 0.83627 0.60876 0.61168
 N597 N 0.86104 0.58604 0.58976
 C598 C 0.89334 0.60213 0.58173
 N599 N 0.89977 0.64186 0.59562
 N600 N 0.87493 0.66468 0.61698
 C601 C 0.34745 0.19438 0.67246
 N602 N 0.33903 0.18380 0.71849
 N603 N 0.31090 0.20003 0.74011
 C604 C 0.28980 0.22733 0.71657
 N605 N 0.29798 0.23808 0.67040
 N606 N 0.32623 0.22168 0.64858
 C607 C 0.37816 0.17433 0.64920
 N608 N 0.38664 0.18091 0.60198
 N609 N 0.41222 0.15872 0.58073
 C610 C 0.43041 0.12948 0.60611
 N611 N 0.42234 0.12382 0.65344
 N612 N 0.39704 0.14597 0.67462
 C613 C 0.31590 0.67801 0.14787
 N614 N 0.32241 0.71879 0.15660
 N615 N 0.30208 0.74070 0.18657
 C616 C 0.27474 0.72248 0.20919
 N617 N 0.26790 0.68186 0.20010
 N618 N 0.28813 0.65997 0.16989
 C619 C 0.34069 0.65313 0.11930
 N620 N 0.33371 0.61302 0.10730
 N621 N 0.35801 0.58941 0.08565
 C622 C 0.39017 0.60509 0.07577
 N623 N 0.39688 0.64530 0.08720
 N624 N 0.37256 0.66893 0.10838
   
