data_POSCAR
  _audit_creation_date              2014-09-24
  _audit_creation_method            'ToBaCCo'
  _symmetry_space_group_name_H-M    'P1'
  _symmetry_Int_Tables_number       1
  _symmetry_cell_setting            triclinic
  loop_
  _symmetry_equiv_pos_as_xyz
 x,y,z
_cell_length_a 27.0610
_cell_length_b 26.6604
_cell_length_c 63.7973
_cell_angle_alpha 90.197500
_cell_angle_beta 88.194300
_cell_angle_gamma 119.841800
loop_
  _atom_site_label
  _atom_site_type_symbol
  _atom_site_fract_x
  _atom_site_fract_y
  _atom_site_fract_z
Si1 Si 0.00507 -0.01657 0.49807
 Si2 Si 1.00276 0.03591 0.16633
 Si3 Si 0.00299 0.98796 0.83660
 O4 O 0.47789 0.05931 0.01966
 O5 O 0.56739 0.04396 -0.02209
 O6 O 0.47471 0.05114 -0.02111
 O7 O 0.57567 0.06167 0.01794
 O8 O 0.52678 -0.03291 0.02313
 O9 O 0.42537 -0.04360 -0.01658
 O10 O 0.51902 -0.05063 -0.01722
 O11 O 0.42983 -0.03554 0.02380
 Cu12 Cu 0.52866 0.06344 -0.00187
 Cu13 Cu 0.47058 -0.05014 0.00362
 C14 C 0.43826 0.01409 0.02882
 C15 C 0.55873 -0.00628 -0.02657
 C16 C 0.43261 0.00239 -0.02544
 C17 C 0.56872 0.01651 0.02721
 O18 O 0.03979 0.45248 0.64715
 O19 O 0.04094 0.55211 0.68794
 O20 O 0.04672 0.45742 0.68788
 O21 O 0.04435 0.55236 0.64709
 O22 O -0.04964 0.50681 0.64938
 O23 O -0.04731 0.40689 0.68897
 O24 O -0.05298 0.50202 0.69012
 O25 O -0.05422 0.40646 0.64857
 Cu26 Cu 0.05229 0.50835 0.66735
 Cu27 Cu -0.06038 0.45083 0.66944
 C28 C -0.00783 0.41225 0.64093
 C29 C -0.00623 0.54380 0.69602
 C30 C 0.00050 0.41547 0.69518
 C31 C -0.00264 0.54665 0.64143
 O32 O 0.47265 0.44081 0.30949
 O33 O 0.57126 0.52871 0.35089
 O34 O 0.47661 0.42963 0.35005
 O35 O 0.57288 0.53362 0.31019
 O36 O 0.52977 0.58494 0.31415
 O37 O 0.42867 0.47648 0.35290
 O38 O 0.52361 0.57554 0.35478
 O39 O 0.42970 0.49242 0.31279
 Cu40 Cu 0.52773 0.47818 0.32982
 Cu41 Cu 0.47347 0.53723 0.33403
 C42 C 0.43426 0.45210 0.30406
 C43 C 0.56409 0.56751 0.35985
 C44 C 0.43584 0.43453 0.35810
 C45 C 0.56874 0.57753 0.30554
 C46 C -0.01494 0.12067 0.53800
 C47 C 0.03645 0.13496 0.52715
 C48 C 0.04117 0.09426 0.51479
 C49 C -0.00525 0.03818 0.51294
 C50 C -0.05688 0.02364 0.52358
 C51 C -0.06181 0.06459 0.53593
 C52 C -0.01824 0.16360 0.55207
 C53 C -0.04814 0.14620 0.57152
 C54 C -0.04765 0.18712 0.58540
 C55 C -0.01695 0.24636 0.58020
 C56 C 0.01204 0.26376 0.56063
 C57 C 0.01114 0.22283 0.54667
 C58 C -0.01457 0.28984 0.59530
 C59 C 0.03741 0.34004 0.59917
 C60 C 0.03982 0.38009 0.61393
 C61 C -0.00985 0.37097 0.62493
 C62 C -0.06191 0.32111 0.62079
 C63 C -0.06419 0.28090 0.60622
 H64 H 0.07382 0.17716 0.52874
 H65 H 0.08195 0.10671 0.50718
 H66 H -0.09327 -0.01940 0.52256
 H67 H -0.10221 0.05228 0.54393
 H68 H -0.07041 0.10112 0.57634
 H69 H -0.06993 0.17259 0.60048
 H70 H 0.03524 0.30906 0.55610
 H71 H 0.03369 0.23766 0.53166
 H72 H 0.07640 0.34771 0.59109
 H73 H 0.08054 0.41806 0.61678
 H74 H -0.10098 0.31273 0.62900
 H75 H -0.10488 0.24287 0.60339
 C76 C 0.87252 0.88561 0.21046
 C77 C 0.91442 0.87916 0.19905
 C78 C 0.95449 0.92394 0.18589
 C79 C 0.95305 0.97552 0.18404
 C80 C 0.91106 0.98171 0.19521
 C81 C 0.87130 0.93737 0.20829
 C82 C 0.82940 0.83875 0.22439
 C83 C 0.81273 0.85226 0.24372
 C84 C 0.76947 0.80903 0.25629
 C85 C 0.74195 0.75119 0.24990
 C86 C 0.75941 0.73737 0.23080
 C87 C 0.80270 0.78074 0.21816
 C88 C 0.69563 0.70558 0.26329
 C89 C 0.69317 0.65232 0.26649
 C90 C 0.65126 0.61043 0.27990
 C91 C 0.61066 0.62073 0.29034
 C92 C 0.61225 0.67347 0.28675
 C93 C 0.65438 0.71551 0.27339
 H94 H 0.91646 0.83978 0.20046
 H95 H 0.98615 0.91811 0.17715
 H96 H 0.90883 1.02101 0.19373
 H97 H 0.83890 0.94327 0.21645
 H98 H 0.83326 0.89640 0.24915
 H99 H 0.75785 0.82082 0.27115
 H100 H 0.73869 0.69318 0.22540
 H101 H 0.81413 0.76910 0.20324
 H102 H 0.72464 0.64362 0.25908
 H103 H 0.65124 0.57023 0.28231
 H104 H 0.58155 0.68267 0.29453
 H105 H 0.65477 0.75589 0.27098
 C106 C 0.14068 0.00605 -0.11916
 C107 C 0.08273 -0.03031 -0.11397
 C108 C 0.04099 -0.03266 -0.12689
 C109 C 0.05622 0.00122 -0.14531
 C110 C 0.11434 0.03805 -0.15042
 C111 C 0.15619 0.04109 -0.13727
 C112 C 0.18458 0.00498 -0.10622
 C113 C 0.23038 0.05647 -0.09910
 C114 C 0.27105 0.05499 -0.08652
 C115 C 0.26738 0.00198 -0.08113
 C116 C 0.22180 -0.04944 -0.08864
 C117 C 0.18066 -0.04794 -0.10089
 C118 C 0.31044 0.00034 -0.06755
 C119 C 0.29466 -0.04543 -0.05309
 C120 C 0.33476 -0.04588 -0.03990
 C121 C 0.39127 -0.00010 -0.04059
 C122 C 0.40737 0.04517 -0.05518
 C123 C 0.36761 0.04514 -0.06862
 H124 H 0.06977 -0.05767 -0.10006
 H125 H -0.00308 -0.06267 -0.12267
 H126 H 0.12787 0.06255 -0.16499
 H127 H 0.20072 0.06878 -0.14175
 H128 H 0.23398 0.09775 -0.10290
 H129 H 0.30476 0.09543 -0.08072
 H130 H 0.21810 -0.09094 -0.08524
 H131 H 0.14607 -0.08820 -0.10648
 H132 H 0.25094 -0.08022 -0.05152
 H133 H 0.32109 -0.08104 -0.02865
 H134 H 0.45083 0.08079 -0.05618
 H135 H 0.38181 0.08034 -0.07987
 C136 C 0.01698 0.85461 0.54450
 C137 C -0.02553 0.87000 0.54698
 C138 C -0.02677 0.91037 0.53351
 C139 C 0.01432 0.93648 0.51724
 C140 C 0.05675 0.92123 0.51452
 C141 C 0.05845 0.88108 0.52817
 C142 C 0.01615 0.80943 0.55841
 C143 C 0.03113 0.76927 0.55050
 C144 C 0.02746 0.72513 0.56339
 C145 C 0.00802 0.71973 0.58438
 C146 C -0.00647 0.75997 0.59238
 C147 C -0.00202 0.80457 0.57960
 C148 C 0.00367 0.67287 0.59807
 C149 C -0.04549 0.63961 0.61078
 C150 C -0.04849 0.59708 0.62439
 C151 C -0.00195 0.58780 0.62580
 C152 C 0.04683 0.62051 0.61283
 C153 C 0.04943 0.66229 0.59899
 H154 H -0.05918 0.84942 0.55891
 H155 H -0.06117 0.91969 0.53552
 H156 H 0.08733 0.93850 0.50150
 H157 H 0.09188 0.87036 0.52578
 H158 H 0.04435 0.77099 0.53420
 H159 H 0.03864 0.69440 0.55686
 H160 H -0.02055 0.75735 0.60862
 H161 H -0.01269 0.83539 0.58639
 H162 H -0.08150 0.64672 0.61020
 H163 H -0.08651 0.57266 0.63424
 H164 H 0.08330 0.61417 0.61354
 H165 H 0.08788 0.68757 0.58944
 C166 C 0.13025 0.19175 0.20566
 C167 C 0.08516 0.14282 0.21568
 C168 C 0.04456 0.09766 0.20396
 C169 C 0.04773 0.10095 0.18200
 C170 C 0.09100 0.15090 0.17191
 C171 C 0.13224 0.19591 0.18365
 C172 C 0.17676 0.23596 0.21822
 C173 C 0.23409 0.25580 0.21231
 C174 C 0.27783 0.29309 0.22527
 C175 C 0.26506 0.31169 0.24426
 C176 C 0.20777 0.29294 0.24987
 C177 C 0.16411 0.25534 0.23703
 C178 C 0.31088 0.34966 0.25848
 C179 C 0.30913 0.39587 0.26835
 C180 C 0.34992 0.42958 0.28277
 C181 C 0.39345 0.41783 0.28778
 C182 C 0.39609 0.37240 0.27755
 C183 C 0.35524 0.33871 0.26298
 H184 H 0.08300 0.13811 0.23260
 H185 H 0.01252 0.05927 0.21219
 H186 H 0.09448 0.15389 0.15495
 H187 H 0.16638 0.23335 0.17555
 H188 H 0.24497 0.24097 0.19800
 H189 H 0.32163 0.30726 0.22049
 H190 H 0.19660 0.30615 0.26451
 H191 H 0.12031 0.24085 0.24192
 H192 H 0.27594 0.40582 0.26497
 H193 H 0.34673 0.46444 0.29025
 H194 H 0.42910 0.36231 0.28105
 H195 H 0.35734 0.30303 0.25570
 C196 C 0.84196 -0.03296 -0.12555
 C197 C 0.87994 0.01890 -0.13611
 C198 C 0.92684 0.02400 -0.14763
 C199 C 0.93710 -0.02258 -0.14897
 C200 C 0.89929 -0.07464 -0.13850
 C201 C 0.85203 -0.07987 -0.12691
 C202 C 0.79383 -0.03642 -0.11249
 C203 C 0.77947 -0.06411 -0.09273
 C204 C 0.73807 -0.06216 -0.07961
 C205 C 0.71037 -0.03227 -0.08594
 C206 C 0.72330 -0.00629 -0.10596
 C207 C 0.76435 -0.00856 -0.11912
 C208 C 0.66978 -0.02628 -0.07141
 C209 C 0.67253 0.02751 -0.06908
 C210 C 0.63608 0.03397 -0.05470
 C211 C 0.59579 -0.01335 -0.04247
 C212 C 0.59236 -0.06740 -0.04510
 C213 C 0.62914 -0.07371 -0.05934
 H214 H 0.87442 0.05637 -0.13498
 H215 H 0.95559 0.06518 -0.15508
 H216 H 0.90654 -0.11105 -0.13905
 H217 H 0.82344 -0.12052 -0.11901
 H218 H 0.80183 -0.08530 -0.08704
 H219 H 0.72927 -0.08217 -0.06418
 H220 H 0.70186 0.01613 -0.11139
 H221 H 0.77353 0.01215 -0.13443
 H222 H 0.70388 0.06497 -0.07802
 H223 H 0.63981 0.07615 -0.05304
 H224 H 0.56182 -0.10473 -0.03591
 H225 H 0.62576 -0.11575 -0.06096
 C226 C 0.14428 0.02202 0.12737
 C227 C 0.13909 0.01318 0.14925
 C228 C 0.09464 0.01402 0.16081
 C229 C 0.05461 0.02328 0.15068
 C230 C 0.05896 0.03072 0.12884
 C231 C 0.10299 0.02961 0.11729
 C232 C 0.19312 0.02496 0.11500
 C233 C 0.21913 0.06546 0.09847
 C234 C 0.26280 0.06633 0.08595
 C235 C 0.28179 0.02692 0.08970
 C236 C 0.25716 -0.01228 0.10670
 C237 C 0.21329 -0.01326 0.11921
 C238 C 0.32457 0.02450 0.07517
 C239 C 0.31794 -0.02918 0.06918
 C240 C 0.35552 -0.03220 0.05445
 C241 C 0.40066 0.01839 0.04524
 C242 C 0.40813 0.07225 0.05148
 C243 C 0.37048 0.07527 0.06632
 H244 H 0.17051 0.00777 0.15750
 H245 H 0.09269 0.00948 0.17773
 H246 H 0.02981 0.03959 0.12060
 H247 H 0.10517 0.03558 0.10044
 H248 H 0.20538 0.09630 0.09508
 H249 H 0.28041 0.09672 0.07290
 H250 H 0.27140 -0.04267 0.11020
 H251 H 0.19409 -0.04502 0.13180
 H252 H 0.28256 -0.06914 0.07539
 H253 H 0.34842 -0.07445 0.04999
 H254 H 0.44265 0.11200 0.04475
 H255 H 0.37716 0.11735 0.07080
 C256 C 0.85483 0.84936 0.45835
 C257 C 0.85203 0.89653 0.46707
 C258 C 0.89649 0.93728 0.47906
 C259 C 0.94411 0.93119 0.48254
 C260 C 0.94734 0.88480 0.47361
 C261 C 0.90317 0.84421 0.46170
 C262 C 0.80849 0.80618 0.44536
 C263 C 0.79165 0.74714 0.44696
 C264 C 0.75044 0.70681 0.43391
 C265 C 0.72495 0.72455 0.41901
 C266 C 0.74104 0.78341 0.41765
 C267 C 0.78233 0.82377 0.43069
 C268 C 0.68233 0.68209 0.40469
 C269 C 0.63386 0.68557 0.39989
 C270 C 0.59500 0.64748 0.38570
 C271 C 0.60366 0.60496 0.37593
 C272 C 0.65148 0.60055 0.38107
 C273 C 0.69040 0.63872 0.39533
 H274 H 0.81535 0.90169 0.46474
 H275 H 0.89383 0.97364 0.48531
 H276 H 0.98428 0.87995 0.47579
 H277 H 0.90735 0.80929 0.45480
 H278 H 0.81032 0.73208 0.45836
 H279 H 0.73824 0.66166 0.43555
 H280 H 0.72273 0.79853 0.40612
 H281 H 0.79497 0.86900 0.42885
 H282 H 0.62597 0.71786 0.40710
 H283 H 0.55846 0.65193 0.38219
 H284 H 0.65942 0.56838 0.37378
 H285 H 0.72766 0.63531 0.39859
 C286 C 0.02853 0.13047 0.79033
 C287 C -0.00715 0.07164 0.78597
 C288 C -0.01133 0.02877 0.79955
 C289 C 0.01991 0.04337 0.81789
 C290 C 0.05604 0.10200 0.82231
 C291 C 0.06092 0.14511 0.80850
 C292 C 0.02871 0.17572 0.77661
 C293 C 0.03361 0.22670 0.78519
 C294 C 0.02943 0.26701 0.77249
 C295 C 0.01919 0.25667 0.75106
 C296 C 0.01518 0.20648 0.74236
 C297 C 0.02053 0.16678 0.75492
 C298 C 0.01267 0.29804 0.73770
 C299 C -0.03524 0.27891 0.72528
 C300 C -0.04039 0.31760 0.71202
 C301 C 0.00297 0.37574 0.71062
 C302 C 0.05054 0.39493 0.72326
 C303 C 0.05503 0.35653 0.73686
 H304 H -0.03407 0.05842 0.77254
 H305 H -0.04120 -0.01591 0.79605
 H306 H 0.07851 0.11488 0.83682
 H307 H 0.08908 0.18990 0.81235
 H308 H 0.03889 0.23474 0.80183
 H309 H 0.03254 0.30550 0.77950
 H310 H 0.00826 0.19821 0.72577
 H311 H 0.01796 0.12889 0.74762
 H312 H -0.06855 0.23395 0.72581
 H313 H -0.07730 0.30169 0.70235
 H314 H 0.08450 0.43959 0.72250
 H315 H 0.09237 0.37208 0.74628
 C316 C 0.86813 0.04326 0.12444
 C317 C 0.87983 -0.00252 0.12320
 C318 C 0.92116 -0.00305 0.13547
 C319 C 0.95338 0.04306 0.14870
 C320 C 0.94351 0.08982 0.14971
 C321 C 0.90094 0.08984 0.13773
 C322 C 0.82143 0.04136 0.11206
 C323 C 0.82560 0.09206 0.10367
 C324 C 0.78279 0.08930 0.09115
 C325 C 0.73516 0.03569 0.08638
 C326 C 0.73056 -0.01480 0.09517
 C327 C 0.77261 -0.01192 0.10803
 C328 C 0.69158 0.03199 0.07173
 C329 C 0.63423 -0.01241 0.07391
 C330 C 0.59429 -0.01786 0.05936
 C331 C 0.61043 0.02183 0.04266
 C332 C 0.66712 0.06698 0.04070
 C333 C 0.70736 0.07162 0.05490
 H334 H 0.85692 -0.03832 0.11277
 H335 H 0.92781 -0.03988 0.13469
 H336 H 0.96728 0.12524 0.16020
 H337 H 0.89273 0.12548 0.13933
 H338 H 0.86255 0.13387 0.10632
 H339 H 0.78737 0.12933 0.08511
 H340 H 0.69516 -0.05701 0.09175
 H341 H 0.76686 -0.05185 0.11467
 H342 H 0.61992 -0.04298 0.08689
 H343 H 0.55062 -0.05264 0.06133
 H344 H 0.68072 0.09790 0.02783
 H345 H 0.75112 0.10555 0.05232
 C346 C 0.15170 0.10674 0.45133
 C347 C 0.09402 0.08270 0.44643
 C348 C 0.05101 0.04238 0.45985
 C349 C 0.06433 0.02509 0.47854
 C350 C 0.12166 0.04805 0.48347
 C351 C 0.16502 0.08788 0.46984
 C352 C 0.19689 0.15400 0.43789
 C353 C 0.24532 0.19987 0.44683
 C354 C 0.28541 0.24638 0.43440
 C355 C 0.27731 0.24858 0.41289
 C356 C 0.22969 0.20272 0.40383
 C357 C 0.19029 0.15562 0.41613
 C358 C 0.31846 0.29850 0.39983
 C359 C 0.29989 0.32964 0.38781
 C360 C 0.33853 0.37557 0.37483
 C361 C 0.39600 0.39004 0.37328
 C362 C 0.41457 0.35919 0.38549
 C363 C 0.37624 0.31425 0.39885
 H364 H 0.08167 0.09707 0.43273
 H365 H 0.00708 0.02692 0.45604
 H366 H 0.13304 0.03774 0.49829
 H367 H 0.20887 0.10502 0.47411
 H368 H 0.25151 0.20093 0.46353
 H369 H 0.32195 0.28149 0.44166
 H370 H 0.22324 0.20322 0.38718
 H371 H 0.15448 0.12060 0.40854
 H372 H 0.25545 0.31820 0.38845
 H373 H 0.32315 0.39846 0.36547
 H374 H 0.45872 0.36963 0.38460
 H375 H 0.39130 0.29065 0.40797
 C376 C -0.01121 0.83341 0.79702
 C377 C -0.06101 0.83060 0.80572
 C378 C -0.05776 0.87615 0.81777
 C379 C -0.00469 0.92495 0.82131
 C380 C 0.04474 0.92813 0.81235
 C381 C 0.04163 0.88282 0.80044
 C382 C -0.01374 0.78622 0.78385
 C383 C 0.02753 0.76921 0.78557
 C384 C 0.02801 0.72799 0.77212
 C385 C -0.01284 0.70274 0.75665
 C386 C -0.05500 0.71868 0.75526
 C387 C -0.05548 0.75995 0.76873
 C388 C -0.01078 0.66090 0.74172
 C389 C -0.06126 0.61197 0.73570
 C390 C -0.05955 0.57366 0.72110
 C391 C -0.00729 0.58335 0.71216
 C392 C 0.04333 0.63181 0.71840
 C393 C 0.04160 0.67017 0.73303
 H394 H -0.10237 0.79314 0.80326
 H395 H -0.09668 0.87351 0.82390
 H396 H 0.08605 0.96599 0.81438
 H397 H 0.08059 0.88703 0.79352
 H398 H 0.05966 0.78800 0.79731
 H399 H 0.06035 0.71582 0.77385
 H400 H -0.08664 0.70054 0.74334
 H401 H -0.08734 0.77271 0.76684
 H402 H -0.10217 0.60317 0.74233
 H403 H -0.09936 0.53661 0.71672
 H404 H 0.08423 0.64058 0.71176
 H405 H 0.08120 0.70787 0.73717
   
