data_POSCAR
  _audit_creation_date              2014-09-24
  _audit_creation_method            'ToBaCCo'
  _symmetry_space_group_name_H-M    'P1'
  _symmetry_Int_Tables_number       1
  _symmetry_cell_setting            triclinic
  loop_
  _symmetry_equiv_pos_as_xyz
 x,y,z
_cell_length_a 30.3345
_cell_length_b 30.7437
_cell_length_c 40.5457
_cell_angle_alpha 89.963400
_cell_angle_beta 90.047500
_cell_angle_gamma 119.290500
loop_
  _atom_site_label
  _atom_site_type_symbol
  _atom_site_fract_x
  _atom_site_fract_y
  _atom_site_fract_z
C1 C -0.02487 0.48471 1.24910
 C2 C 0.02624 0.51388 1.24920
 C3 C 0.05463 0.52969 1.28065
 C4 C 0.05651 0.53122 1.21845
 C5 C -0.05510 0.46756 1.21828
 C6 C -0.05333 0.46929 1.28045
 C7 C 0.07672 0.57942 1.29050
 C8 C 0.10437 0.59512 1.31979
 C9 C 0.11188 0.56158 1.34013
 C10 C 0.08857 0.51105 1.32951
 C11 C 0.06044 0.49556 1.30035
 C12 C 0.04585 0.55706 1.19392
 C13 C 0.07431 0.57193 1.16484
 C14 C 0.11430 0.56176 1.15998
 C15 C 0.12567 0.53720 1.18507
 C16 C 0.09712 0.52215 1.21395
 C17 C -0.04455 0.44167 1.19376
 C18 C -0.07301 0.42689 1.16464
 C19 C -0.11287 0.43726 1.15971
 C20 C -0.12410 0.46191 1.18476
 C21 C -0.09556 0.47686 1.21367
 C22 C -0.07146 0.42068 1.29215
 C23 C -0.09915 0.40546 1.32142
 C24 C -0.11026 0.43831 1.33916
 C25 C -0.09161 0.48727 1.32723
 C26 C -0.06305 0.50270 1.29827
 H27 H 0.07191 0.60612 1.27565
 H28 H 0.11771 0.63351 1.32649
 H29 H 0.09362 0.48299 1.34224
 H30 H 0.04405 0.45697 1.29272
 H31 H 0.01532 0.56537 1.19720
 H32 H 0.06451 0.59067 1.14597
 H33 H 0.10638 0.50279 1.23269
 H34 H -0.01410 0.43323 1.19708
 H35 H -0.06332 0.40807 1.14580
 H36 H -0.15527 0.46942 1.18214
 H37 H -0.10476 0.49632 1.23233
 H38 H -0.06384 0.39465 1.27868
 H39 H -0.11171 0.36793 1.33015
 H40 H -0.10001 0.51340 1.33980
 H41 H -0.04933 0.54038 1.28936
 H42 H 0.15696 0.52987 1.18250
 C43 C 0.51358 0.48761 1.25089
 C44 C 0.48767 0.51349 1.25081
 C45 C 0.47328 0.52918 1.28184
 C46 C 0.47217 0.52775 1.21963
 C47 C 0.52915 0.47323 1.21979
 C48 C 0.52777 0.47193 1.28201
 C49 C 0.42274 0.51689 1.28674
 C50 C 0.40819 0.53149 1.31544
 C51 C 0.44389 0.55873 1.34001
 C52 C 0.49474 0.57163 1.33486
 C53 C 0.50936 0.55736 1.30592
 C54 C 0.44334 0.49206 1.19568
 C55 C 0.42982 0.50658 1.16638
 C56 C 0.44410 0.55695 1.16075
 C57 C 0.47182 0.59227 1.18524
 C58 C 0.48571 0.57781 1.21430
 C59 C 0.55797 0.50880 1.19577
 C60 C 0.57151 0.49415 1.16655
 C61 C 0.55727 0.44375 1.16107
 C62 C 0.52959 0.40856 1.18564
 C63 C 0.51568 0.42315 1.21461
 C64 C 0.57826 0.48420 1.28712
 C65 C 0.59261 0.46964 1.31595
 C66 C 0.55675 0.44248 1.34043
 C67 C 0.50594 0.42960 1.33508
 C68 C 0.49152 0.44380 1.30600
 H69 H 0.39440 0.49574 1.26829
 H70 H 0.36898 0.52196 1.31816
 H71 H 0.52317 0.59234 1.35332
 H72 H 0.54878 0.56820 1.30233
 H73 H 0.43156 0.45303 1.19960
 H74 H 0.40869 0.47845 1.14800
 H75 H 0.50738 0.60584 1.23265
 H76 H 0.56971 0.54784 1.19957
 H77 H 0.59260 0.52219 1.14812
 H78 H 0.51907 0.36969 1.18266
 H79 H 0.49403 0.39520 1.23301
 H80 H 0.60672 0.50530 1.26874
 H81 H 0.63179 0.47914 1.31883
 H82 H 0.47739 0.40894 1.35347
 H83 H 0.45212 0.43297 1.30225
 H84 H 0.48236 0.63114 1.18214
 C85 C 0.51105 1.02592 1.25053
 C86 C 0.48582 0.97509 1.25044
 C87 C 0.47040 0.94577 1.28155
 C88 C 0.47236 0.94583 1.21931
 C89 C 0.52524 1.05548 1.21953
 C90 C 0.52633 1.05495 1.28172
 C91 C 0.48591 0.91047 1.28748
 C92 C 0.47197 0.88240 1.31644
 C93 C 0.44165 0.88851 1.34049
 C94 C 0.42556 0.92380 1.33387
 C95 C 0.43965 0.95185 1.30477
 C96 C 0.50910 0.95340 1.19554
 C97 C 0.49541 0.92551 1.16639
 C98 C 0.44486 0.88894 1.16073
 C99 C 0.40851 0.88076 1.18501
 C100 C 0.42213 0.90890 1.21393
 C101 C 0.48892 1.04949 1.19592
 C102 C 0.50326 1.07765 1.16685
 C103 C 0.55448 1.11293 1.16066
 C104 C 0.59035 1.11904 1.18514
 C105 C 0.57585 1.09087 1.21405
 C106 C 0.51104 1.09038 1.28768
 C107 C 0.52505 1.11833 1.31668
 C108 C 0.55525 1.11192 1.34073
 C109 C 0.57104 1.07643 1.33410
 C110 C 0.55691 1.04856 1.30495
 H111 H 0.50900 0.90464 1.26957
 H112 H 0.48363 0.85449 1.31896
 H113 H 0.40358 0.93153 1.35148
 H114 H 0.42672 0.97855 1.30043
 H115 H 0.54831 0.98094 1.19952
 H116 H 0.52431 0.93293 1.14816
 H117 H 0.39332 0.90201 1.23215
 H118 H 0.44945 1.02271 1.19989
 H119 H 0.47398 1.06996 1.14891
 H120 H 0.62973 1.14695 1.18296
 H121 H 0.60437 1.09665 1.23226
 H122 H 0.48810 1.09646 1.26975
 H123 H 0.51361 1.14638 1.31923
 H124 H 0.59286 1.06843 1.35172
 H125 H 0.56969 1.02176 1.30058
 H126 H 0.36951 0.85212 1.18186
 C127 C 1.02607 0.51428 0.75086
 C128 C 0.97503 0.48504 0.75079
 C129 C 0.94511 0.46771 0.71989
 C130 C 0.94643 0.46959 0.78210
 C131 C 1.05458 0.52999 0.78221
 C132 C 1.05616 0.53138 0.72006
 C133 C 0.90488 0.47720 0.71480
 C134 C 0.87695 0.46236 0.68565
 C135 C 0.88862 0.43764 0.66086
 C136 C 0.92819 0.42702 0.66632
 C137 C 0.95600 0.44168 0.69567
 C138 C 0.93600 0.50275 0.79963
 C139 C 0.90690 0.48713 0.82838
 C140 C 0.88839 0.43823 0.84038
 C141 C 0.90029 0.40566 0.82299
 C142 C 0.92856 0.42107 0.79393
 C143 C 1.06187 0.49606 0.80120
 C144 C 1.09070 0.51164 0.83006
 C145 C 1.11289 0.56181 0.84090
 C146 C 1.10394 0.59516 0.82159
 C147 C 1.07565 0.57948 0.79256
 C148 C 1.09497 0.52006 0.71474
 C149 C 1.12306 0.53454 0.68568
 C150 C 1.11346 0.56127 0.66089
 C151 C 1.07501 0.57368 0.66702
 C152 C 1.04681 0.55891 0.69621
 H153 H 0.89546 0.49678 0.73324
 H154 H 0.84596 0.47005 0.68260
 H155 H 0.93818 0.40814 0.64770
 H156 H 0.98625 0.43307 0.69939
 H157 H 0.94949 0.54033 0.79061
 H158 H 0.89792 0.51305 0.84067
 H159 H 0.93670 0.39522 0.78069
 H160 H 1.04618 0.45770 0.79320
 H161 H 1.09717 0.48431 0.84266
 H162 H 1.11730 0.63333 0.82899
 H163 H 1.06976 0.60596 0.77822
 H164 H 1.10333 0.49948 0.73308
 H165 H 1.15355 0.52603 0.68353
 H166 H 1.06479 0.59297 0.64887
 H167 H 1.01728 0.56851 0.70006
 H168 H 0.88785 0.36819 0.83179
 C169 C 0.48817 0.51412 0.74894
 C170 C 0.51351 0.48769 0.74907
 C171 C 0.52919 0.47326 0.71807
 C172 C 0.52715 0.47165 0.78028
 C173 C 0.47440 0.53025 0.78000
 C174 C 0.47258 0.52840 0.71778
 C175 C 0.51594 0.42322 0.71303
 C176 C 0.53040 0.40866 0.68429
 C177 C 0.55842 0.44386 0.65981
 C178 C 0.57233 0.49420 0.66511
 C179 C 0.55822 0.50883 0.69410
 C180 C 0.49052 0.44374 0.80413
 C181 C 0.50442 0.42950 0.83340
 C182 C 0.55508 0.44213 0.83911
 C183 C 0.59131 0.46898 0.81474
 C184 C 0.57748 0.48358 0.78571
 C185 C 0.51094 0.55825 0.80389
 C186 C 0.49688 0.57238 0.83310
 C187 C 0.44616 0.55955 0.83870
 C188 C 0.41003 0.53267 0.81428
 C189 C 0.42401 0.51817 0.78530
 C190 C 0.48574 0.57840 0.71259
 C191 C 0.47122 0.59279 0.68375
 C192 C 0.44322 0.55747 0.65933
 C193 C 0.42946 0.50717 0.66477
 C194 C 0.44362 0.49272 0.69385
 H195 H 0.49412 0.39528 0.73139
 H196 H 0.52012 0.36982 0.68144
 H197 H 0.59367 0.52224 0.64672
 H198 H 0.56982 0.54785 0.69781
 H199 H 0.45125 0.43319 0.80014
 H200 H 0.47560 0.40908 0.85168
 H201 H 0.60622 0.50451 0.76745
 H202 H 0.55025 0.56889 0.79999
 H203 H 0.52563 0.59284 0.85144
 H204 H 0.37090 0.52323 0.81737
 H205 H 0.39535 0.49716 0.76700
 H206 H 0.50749 0.60643 0.73091
 H207 H 0.48141 0.63159 0.68081
 H208 H 0.40815 0.47904 0.64644
 H209 H 0.43208 0.45373 0.69766
 H210 H 0.63039 0.47827 0.81791
 C211 C 0.48626 -0.02643 0.74998
 C212 C 0.51149 0.02430 0.75005
 C213 C 0.52719 0.05347 0.71896
 C214 C 0.52490 0.05328 0.78124
 C215 C 0.47293 -0.05555 0.78103
 C216 C 0.47061 -0.05550 0.71889
 C217 C 0.55861 0.04735 0.69623
 C218 C 0.57347 0.07548 0.66721
 C219 C 0.55736 0.11041 0.66050
 C220 C 0.52616 0.11662 0.68345
 C221 C 0.51144 0.08857 0.71247
 C222 C 0.57558 0.08779 0.78788
 C223 C 0.58889 0.11551 0.81703
 C224 C 0.55164 0.10961 0.83998
 C225 C 0.50076 0.07534 0.83311
 C226 C 0.48750 0.04749 0.80396
 C227 C 0.42215 -0.08793 0.78849
 C228 C 0.40879 -0.11540 0.81773
 C229 C 0.44608 -0.11195 0.84017
 C230 C 0.49732 -0.07954 0.83202
 C231 C 0.51045 -0.05164 0.80289
 C232 C 0.43728 -0.05119 0.69695
 C233 C 0.42234 -0.07932 0.66792
 C234 C 0.44066 -0.11243 0.65994
 C235 C 0.47435 -0.11617 0.68241
 C236 C 0.48864 -0.08844 0.71155
 H237 H 0.57180 0.02098 0.70106
 H238 H 0.59730 0.06972 0.64991
 H239 H 0.51387 0.14381 0.67923
 H240 H 0.48753 0.09408 0.72986
 H241 H 0.60491 0.09305 0.77051
 H242 H 0.62828 0.14221 0.82137
 H243 H 0.44807 0.02156 0.79903
 H244 H 0.39270 -0.09177 0.77165
 H245 H 0.36906 -0.14095 0.82172
 H246 H 0.52763 -0.07391 0.84857
 H247 H 0.54997 -0.02687 0.79740
 H248 H 0.42282 -0.02599 0.70233
 H249 H 0.39783 -0.07341 0.65134
 H250 H 0.48821 -0.14216 0.67854
 H251 H 0.51402 -0.09261 0.72844
 H252 H 0.47127 0.06983 0.85039
 O253 O 0.41224 0.65861 0.97159
 O254 O 0.41098 0.74160 0.96263
 C255 C 0.38644 0.76386 0.95554
 O256 O 0.34787 0.75759 0.97170
 O257 O 0.26511 0.67458 0.96172
 C258 C 0.24253 0.62854 0.95482
 O259 O 0.24857 0.59668 0.97135
 O260 O 0.33381 0.59729 0.96196
 C261 C 0.38053 0.62100 0.95514
 O262 O 0.40971 0.67080 1.03752
 O263 O 0.41235 0.75571 1.02863
 C264 C 0.38061 0.76320 1.04463
 O265 O 0.33406 0.74222 1.03739
 O266 O 0.24871 0.66111 1.02763
 C267 C 0.24165 0.62282 1.04389
 O268 O 0.26379 0.59814 1.03704
 O269 O 0.34638 0.59419 1.02776
 C270 C 0.38480 0.62474 1.04425
 Cr271 Cr 0.40850 0.70533 1.00009
 Cr272 Cr 0.30031 0.70742 0.99963
 Cr273 Cr 0.29959 0.59938 0.99952
 O274 O 0.33617 0.67074 0.99978
 O275 O 0.58834 0.34229 0.97209
 O276 O 0.58916 0.25922 0.96262
 C277 C 0.61295 0.23616 0.95574
 O278 O 0.65109 0.24172 0.97217
 O279 O 0.73407 0.32461 0.96152
 C280 C 0.75723 0.37076 0.95488
 O281 O 0.75197 0.40282 0.97172
 O282 O 0.66699 0.40293 0.96220
 C283 C 0.62020 0.37966 0.95552
 O284 O 0.59102 0.32936 1.03795
 O285 O 0.58777 0.24412 1.02859
 C286 C 0.61954 0.23698 1.04492
 O287 O 0.66612 0.25807 1.03776
 O288 O 0.75177 0.33858 1.02734
 C289 C 0.75889 0.37665 1.04389
 O290 O 0.73657 0.40128 1.03738
 O291 O 0.65432 0.40593 1.02800
 C292 C 0.61602 0.37544 1.04462
 Cr293 Cr 0.59184 0.29505 1.00031
 Cr294 Cr 0.69943 0.29218 0.99971
 Cr295 Cr 0.70101 0.40049 0.99981
 O296 O 0.66406 0.32924 0.99998
 O297 O 0.65811 0.40625 0.52799
 O298 O 0.74065 0.40215 0.53736
 C299 C 0.76314 0.37770 0.54394
 O300 O 0.75642 0.33979 0.52736
 O301 O 0.67121 0.25895 0.53797
 C302 C 0.62460 0.23758 0.54508
 O303 O 0.59271 0.24454 0.52874
 O304 O 0.59534 0.32948 0.53818
 C305 C 0.61990 0.37564 0.54464
 O306 O 0.67075 0.40313 0.46221
 O307 O 0.75604 0.40363 0.47171
 C308 C 0.76123 0.37158 0.45480
 O309 O 0.73842 0.32548 0.46157
 O310 O 0.65592 0.24233 0.47238
 C311 C 0.61770 0.23668 0.45600
 O312 O 0.59385 0.25967 0.46289
 O313 O 0.59231 0.34234 0.47241
 C314 C 0.62390 0.37975 0.45575
 Cr315 Cr 0.70499 0.40105 0.49981
 Cr316 Cr 0.70418 0.29308 0.49983
 Cr317 Cr 0.59631 0.29530 0.50056
 O318 O 0.66845 0.32981 0.50012
 O319 O 0.34234 0.59413 0.52755
 O320 O 0.25950 0.59733 0.53714
 C321 C 0.23697 0.62153 0.54426
 O322 O 0.24311 0.65948 0.52792
 O323 O 0.32808 0.74116 0.53783
 C324 C 0.37469 0.76246 0.54494
 O325 O 0.40655 0.75546 0.52869
 O326 O 0.40498 0.67102 0.53751
 C327 C 0.38066 0.62487 0.54406
 O328 O 0.32934 0.59727 0.46179
 O329 O 0.24373 0.59583 0.47142
 C330 C 0.23749 0.62757 0.45488
 O331 O 0.25956 0.67355 0.46197
 O332 O 0.34190 0.75714 0.47208
 C333 C 0.38046 0.76355 0.45579
 O334 O 0.40499 0.74123 0.46272
 O335 O 0.40752 0.65889 0.47159
 C336 C 0.37609 0.62116 0.45511
 Cr337 Cr 0.29510 0.59892 0.49947
 Cr338 Cr 0.29453 0.70639 0.49995
 Cr339 Cr 0.40321 0.70532 0.50012
 O340 O 0.33099 0.67023 0.49989
 C341 C 0.45875 0.62084 0.38503
 C342 C 0.42788 0.57394 0.37058
 C343 C 0.38077 0.54204 0.38507
 C344 C 0.36430 0.55716 0.41270
 C345 C 0.39477 0.60435 0.42680
 C346 C 0.44245 0.63580 0.41291
 H347 H 0.49494 0.64660 0.37429
 H348 H 0.35650 0.50525 0.37504
 H349 H 0.32757 0.53184 0.42298
 H350 H 0.46668 0.67252 0.42308
 C351 C 0.45693 0.83912 0.38249
 C352 C 0.42753 0.85966 0.37001
 C353 C 0.38337 0.84978 0.38767
 C354 C 0.36862 0.81950 0.41579
 C355 C 0.39748 0.79826 0.42731
 C356 C 0.44208 0.80894 0.41051
 H357 H 0.49251 0.84718 0.37137
 H358 H 0.35826 0.86299 0.37911
 H359 H 0.33379 0.81173 0.42803
 H360 H 0.46570 0.79380 0.41896
 C361 C 0.17486 0.62872 0.37433
 C362 C 0.14084 0.57740 0.36837
 C363 C 0.13890 0.54335 0.39283
 C364 C 0.16974 0.55956 0.42085
 C365 C 0.20326 0.61033 0.42596
 C366 C 0.20508 0.64466 0.40255
 H367 H 0.18126 0.65751 0.35671
 H368 H 0.11245 0.50393 0.39167
 H369 H 0.16693 0.53213 0.43874
 H370 H 0.23117 0.68415 0.40548
 C371 C 0.54151 0.38040 0.38557
 C372 C 0.57253 0.42728 0.37112
 C373 C 0.61958 0.45913 0.38572
 C374 C 0.63590 0.44394 0.41342
 C375 C 0.60530 0.39676 0.42749
 C376 C 0.55764 0.36539 0.41353
 H377 H 0.50536 0.35468 0.37474
 H378 H 0.64396 0.49591 0.37571
 H379 H 0.67262 0.46918 0.42378
 H380 H 0.53333 0.32866 0.42367
 C381 C 0.61373 0.15026 0.38785
 C382 C 0.56962 0.14074 0.37024
 C383 C 0.54058 0.16162 0.38274
 C384 C 0.55574 0.19178 0.41076
 C385 C 0.60027 0.20204 0.42752
 C386 C 0.62877 0.18047 0.41597
 H387 H 0.63862 0.13682 0.37925
 H388 H 0.50506 0.15386 0.37164
 H389 H 0.53241 0.20722 0.41925
 H390 H 0.66356 0.18795 0.42818
 C391 C 0.81821 0.37161 0.37193
 C392 C 0.85777 0.42113 0.36938
 C393 C 0.86574 0.45409 0.39569
 C394 C 0.83448 0.43811 0.42349
 C395 C 0.79521 0.38860 0.42590
 C396 C 0.78767 0.35545 0.39996
 H397 H 0.80999 0.34541 0.35195
 H398 H 0.89634 0.49220 0.39495
 H399 H 0.84131 0.46437 0.44325
 H400 H 0.75724 0.31722 0.40095
 C401 C 0.61884 0.45753 1.11531
 C402 C 0.57147 0.42768 1.13012
 C403 C 0.53810 0.38156 1.11558
 C404 C 0.55229 0.36499 1.08758
 C405 C 0.59998 0.39440 1.07314
 C406 C 0.63286 0.44116 1.08706
 H407 H 0.64572 0.49295 1.12606
 H408 H 0.50090 0.35810 1.12588
 H409 H 0.52590 0.32898 1.07730
 H410 H 0.67002 0.46455 1.07665
 C411 C 0.84281 0.37657 1.11345
 C412 C 0.85706 0.42266 1.12871
 C413 C 0.84098 0.45437 1.11469
 C414 C 0.80999 0.43973 1.08685
 C415 C 0.79458 0.39315 1.07207
 C416 C 0.81195 0.36200 1.08537
 H417 H 0.85421 0.35111 1.12378
 H418 H 0.85221 0.49059 1.12536
 H419 H 0.79775 0.46488 1.07707
 H420 H 0.80059 0.32578 1.07463
 C421 C 0.61962 0.16214 1.11915
 C422 C 0.56963 0.14174 1.13114
 C423 C 0.53569 0.15165 1.11295
 C424 C 0.55154 0.18175 1.08474
 C425 C 0.60166 0.20276 1.07367
 C426 C 0.63528 0.19212 1.09103
 H427 H 0.64694 0.15407 1.13071
 H428 H 0.49733 0.13854 1.12111
 H429 H 0.52468 0.18946 1.07205
 H430 H 0.67406 0.20710 1.08295
 C431 C 0.46315 0.61887 1.11508
 C432 C 0.42981 0.57285 1.12975
 C433 C 0.38234 0.54296 1.11505
 C434 C 0.36819 0.55921 1.08678
 C435 C 0.40104 0.60587 1.07274
 C436 C 0.44884 0.63531 1.08705
 H437 H 0.50042 0.64234 1.12531
 H438 H 0.35548 0.50763 1.12591
 H439 H 0.33095 0.53581 1.07646
 H440 H 0.47520 0.67126 1.07667
 C441 C 0.15824 0.62252 1.11375
 C442 C 0.14432 0.57650 1.12901
 C443 C 0.16055 0.54496 1.11497
 C444 C 0.19130 0.55969 1.08703
 C445 C 0.20629 0.60619 1.07221
 C446 C 0.18883 0.63718 1.08559
 H447 H 0.14673 0.64786 1.12412
 H448 H 0.14960 0.50880 1.12566
 H449 H 0.20365 0.53468 1.07719
 H450 H 0.19989 0.67333 1.07483
 C451 C 0.46136 0.84247 1.11565
 C452 C 0.42986 0.85894 1.12989
 C453 C 0.38308 0.84541 1.11490
 C454 C 0.36750 0.81497 1.08699
 C455 C 0.39855 0.79773 1.07311
 C456 C 0.44595 0.81233 1.08749
 H457 H 0.49734 0.85168 1.12677
 H458 H 0.35836 0.85832 1.12478
 H459 H 0.33096 0.80479 1.07634
 H460 H 0.47061 0.79941 1.07750
 C461 C 0.54044 0.38164 0.61457
 C462 C 0.57338 0.42784 0.62917
 C463 C 0.62106 0.45777 0.61476
 C464 C 0.63578 0.44139 0.58683
 C465 C 0.60330 0.39456 0.57288
 C466 C 0.55533 0.36507 0.58691
 H467 H 0.50303 0.35813 0.62456
 H468 H 0.64761 0.49325 0.62559
 H469 H 0.67313 0.46483 0.57670
 H470 H 0.52922 0.32902 0.57655
 C471 C 0.54000 0.15083 0.61214
 C472 C 0.57394 0.14118 0.63009
 C473 C 0.62422 0.16220 0.61926
 C474 C 0.64044 0.19288 0.59142
 C475 C 0.60669 0.20313 0.57368
 C476 C 0.55616 0.18140 0.58421
 H477 H 0.50087 0.13465 0.61968
 H478 H 0.65138 0.15592 0.63281
 H479 H 0.67965 0.20906 0.58407
 H480 H 0.52916 0.18847 0.57112
 C481 C 0.84399 0.45523 0.61514
 C482 C 0.85937 0.42326 0.62957
 C483 C 0.84528 0.37715 0.61441
 C484 C 0.81518 0.36278 0.58599
 C485 C 0.79842 0.39416 0.57229
 C486 C 0.81373 0.44080 0.58696
 H487 H 0.85516 0.49148 0.62574
 H488 H 0.85618 0.35150 0.62507
 H489 H 0.80382 0.32651 0.57535
 H490 H 0.80193 0.46610 0.57686
 C491 C 0.38036 0.54313 0.61426
 C492 C 0.42805 0.57328 0.62864
 C493 C 0.46075 0.61950 0.61396
 C494 C 0.44561 0.63587 0.58627
 C495 C 0.39762 0.60615 0.57228
 C496 C 0.36539 0.55930 0.58631
 H497 H 0.35397 0.50762 0.62514
 H498 H 0.49815 0.64320 0.62392
 H499 H 0.47152 0.67195 0.57587
 H500 H 0.32803 0.53568 0.57624
 C501 C 0.45625 0.84162 0.61563
 C502 C 0.42521 0.85839 0.63065
 C503 C 0.37791 0.84436 0.61586
 C504 C 0.36184 0.81376 0.58796
 C505 C 0.39273 0.79679 0.57357
 C506 C 0.44034 0.81158 0.58748
 H507 H 0.49375 0.85271 0.62482
 H508 H 0.35164 0.85458 0.62660
 H509 H 0.32481 0.80291 0.57788
 H510 H 0.46521 0.79935 0.57688
 C511 C 0.14860 0.61684 0.61232
 C512 C 0.14182 0.57515 0.63105
 C513 C 0.16486 0.54783 0.61928
 C514 C 0.19456 0.56239 0.59090
 C515 C 0.20241 0.60470 0.57306
 C516 C 0.17861 0.63144 0.58386
 H517 H 0.13315 0.64018 0.62029
 H518 H 0.15910 0.51402 0.63125
 H519 H 0.21169 0.54038 0.58308
 H520 H 0.18407 0.66443 0.57076
 C521 C 0.46196 0.62114 0.88421
 C522 C 0.43076 0.57442 0.86964
 C523 C 0.38394 0.54237 0.88441
 C524 C 0.36802 0.55721 0.91242
 C525 C 0.39879 0.60425 0.92662
 C526 C 0.44623 0.63581 0.91247
 H527 H 0.49795 0.64700 0.87327
 H528 H 0.35945 0.50569 0.87428
 H529 H 0.33146 0.53183 0.92290
 H530 H 0.47066 0.67245 0.92270
 C531 C 0.14061 0.54453 0.89458
 C532 C 0.14383 0.57835 0.86972
 C533 C 0.17972 0.62929 0.87431
 C534 C 0.21082 0.64540 0.90211
 C535 C 0.20779 0.61132 0.92620
 C536 C 0.17231 0.56076 0.92218
 H537 H 0.11270 0.50544 0.89367
 H538 H 0.18616 0.65718 0.85590
 H539 H 0.23838 0.68462 0.90425
 H540 H 0.16865 0.53363 0.94058
 C541 C 0.46527 0.84465 0.88450
 C542 C 0.43239 0.85928 0.86963
 C543 C 0.38496 0.84351 0.88474
 C544 C 0.37075 0.81375 0.91301
 C545 C 0.40311 0.79827 0.92697
 C546 C 0.45064 0.81431 0.91254
 H547 H 0.50145 0.85413 0.87370
 H548 H 0.35890 0.85515 0.87550
 H549 H 0.33389 0.80219 0.92363
 H550 H 0.47643 0.80287 0.92266
 C551 C 0.53891 0.38033 0.88463
 C552 C 0.57032 0.42704 0.87008
 C553 C 0.61722 0.45882 0.88488
 C554 C 0.63301 0.44373 0.91288
 C555 C 0.60204 0.39670 0.92704
 C556 C 0.55451 0.36542 0.91288
 H557 H 0.50285 0.35466 0.87367
 H558 H 0.64188 0.49548 0.87479
 H559 H 0.66965 0.46891 0.92337
 H560 H 0.52993 0.32880 0.92307
 C561 C 0.81637 0.37116 0.87269
 C562 C 0.85572 0.42081 0.87032
 C563 C 0.86282 0.45369 0.89650
 C564 C 0.83092 0.43754 0.92400
 C565 C 0.79181 0.38792 0.92624
 C566 C 0.78514 0.35483 0.90043
 H567 H 0.80883 0.34498 0.85280
 H568 H 0.89323 0.49190 0.89592
 H569 H 0.83713 0.46377 0.94366
 H570 H 0.75490 0.31650 0.90129
 C571 C 0.53726 0.16173 0.88161
 C572 C 0.56591 0.13995 0.87060
 C573 C 0.60910 0.14853 0.88854
 C574 C 0.62379 0.17889 0.91656
 C575 C 0.59571 0.20152 0.92723
 C576 C 0.55203 0.19225 0.90955
 H577 H 0.50411 0.15624 0.86810
 H578 H 0.63157 0.13174 0.88087
 H579 H 0.65761 0.18521 0.92957
 H580 H 0.52956 0.20914 0.91701
   
