data_POSCAR
  _audit_creation_date              2014-09-24
  _audit_creation_method            'ToBaCCo'
  _symmetry_space_group_name_H-M    'P1'
  _symmetry_Int_Tables_number       1
  _symmetry_cell_setting            triclinic
  loop_
  _symmetry_equiv_pos_as_xyz
 x,y,z
_cell_length_a 73.2862
_cell_length_b 73.3109
_cell_length_c 21.5881
_cell_angle_alpha 89.936500
_cell_angle_beta 90.067500
_cell_angle_gamma 120.020900
loop_
  _atom_site_label
  _atom_site_type_symbol
  _atom_site_fract_x
  _atom_site_fract_y
  _atom_site_fract_z
C1 C 0.24724 0.49479 0.52752
 C2 C 0.24703 0.49479 0.46434
 C3 C 0.23018 0.49581 0.42881
 C4 C 0.26361 0.49375 0.42756
 C5 C 0.26502 0.49566 0.56313
 C6 C 0.22968 0.49388 0.56435
 C7 C 0.21853 0.48032 0.38455
 C8 C 0.20227 0.48071 0.35186
 C9 C 0.19730 0.49676 0.36236
 C10 C 0.20952 0.51258 0.40606
 C11 C 0.22579 0.51213 0.43857
 C12 C 0.26804 0.47739 0.43653
 C13 C 0.28406 0.47692 0.40274
 C14 C 0.29582 0.49269 0.35885
 C15 C 0.29095 0.50876 0.34897
 C16 C 0.27496 0.50922 0.38284
 C17 C 0.28582 0.51191 0.55343
 C18 C 0.30242 0.51229 0.58648
 C19 C 0.29851 0.49653 0.63033
 C20 C 0.27758 0.48054 0.64080
 C21 C 0.26101 0.48016 0.60767
 C22 C 0.23395 0.50935 0.60913
 C23 C 0.21759 0.50893 0.64341
 C24 C 0.19661 0.49291 0.63389
 C25 C 0.19244 0.47716 0.58980
 C26 C 0.20883 0.47759 0.55560
 H27 H 0.22180 0.46767 0.37605
 H28 H 0.19355 0.46823 0.31869
 H29 H 0.20657 0.52538 0.41569
 H30 H 0.23492 0.52449 0.47169
 H31 H 0.25916 0.46505 0.46996
 H32 H 0.28727 0.46423 0.41127
 H33 H 0.27167 0.52189 0.37494
 H34 H 0.28920 0.52426 0.52011
 H35 H 0.31831 0.52491 0.57751
 H36 H 0.27395 0.46819 0.67434
 H37 H 0.24505 0.46757 0.61611
 H38 H 0.24996 0.52197 0.61686
 H39 H 0.22141 0.52126 0.67710
 H40 H 0.17650 0.46452 0.58152
 H41 H 0.20526 0.46525 0.52212
 H42 H 0.29960 0.52111 0.31540
 C43 C 0.50534 -0.24766 0.53234
 C44 C 0.50531 -0.24778 0.46916
 C45 C 0.50440 -0.26551 0.43335
 C46 C 0.50622 -0.23017 0.43254
 C47 C 0.50431 -0.23089 0.56806
 C48 C 0.50641 -0.26428 0.56893
 C49 C 0.51985 -0.26146 0.38868
 C50 C 0.51942 -0.27798 0.35529
 C51 C 0.50342 -0.29891 0.36563
 C52 C 0.48770 -0.30287 0.40963
 C53 C 0.48814 -0.28632 0.44294
 C54 C 0.52253 -0.20935 0.44147
 C55 C 0.52296 -0.19290 0.40745
 C56 C 0.50719 -0.19699 0.36339
 C57 C 0.49115 -0.21795 0.35368
 C58 C 0.49073 -0.23436 0.38777
 C59 C 0.48794 -0.22650 0.55833
 C60 C 0.48751 -0.21028 0.59101
 C61 C 0.50333 -0.19825 0.63453
 C62 C 0.51940 -0.20307 0.64518
 C63 C 0.51982 -0.21927 0.61242
 C64 C 0.49098 -0.27568 0.61363
 C65 C 0.49145 -0.29172 0.64732
 C66 C 0.50751 -0.29666 0.63735
 C67 C 0.52327 -0.28476 0.59333
 C68 C 0.52276 -0.26870 0.55977
 H69 H 0.53245 -0.24550 0.38032
 H70 H 0.53173 -0.27432 0.32165
 H71 H 0.47507 -0.31877 0.41851
 H72 H 0.47582 -0.28973 0.47635
 H73 H 0.53487 -0.20583 0.47493
 H74 H 0.53561 -0.17698 0.41587
 H75 H 0.47811 -0.25035 0.37990
 H76 H 0.47558 -0.23558 0.52515
 H77 H 0.47482 -0.20712 0.58192
 H78 H 0.53177 -0.19422 0.67850
 H79 H 0.53250 -0.22251 0.62088
 H80 H 0.47832 -0.27239 0.62168
 H81 H 0.47907 -0.30032 0.68084
 H82 H 0.53602 -0.28784 0.58437
 H83 H 0.53508 -0.25977 0.52635
 H84 H 0.47881 -0.22171 0.32001
 C85 C 1.24751 0.75287 0.53303
 C86 C 1.24760 0.75290 0.46984
 C87 C 1.26538 0.76965 0.43388
 C88 C 1.22993 0.73618 0.43343
 C89 C 1.23075 0.73509 0.56898
 C90 C 1.26417 0.77060 0.56942
 C91 C 1.26140 0.78106 0.38902
 C92 C 1.27796 0.79713 0.35562
 C93 C 1.29896 0.80210 0.36606
 C94 C 1.30277 0.79022 0.41035
 C95 C 1.28615 0.77413 0.44361
 C96 C 1.20912 0.73169 0.44249
 C97 C 1.19261 0.71564 0.40876
 C98 C 1.19662 0.70390 0.36484
 C99 C 1.21756 0.70880 0.35497
 C100 C 1.23404 0.72483 0.38878
 C101 C 1.22636 0.71435 0.55960
 C102 C 1.21022 0.69772 0.59270
 C103 C 1.19820 0.70149 0.63646
 C104 C 1.20310 0.72246 0.64661
 C105 C 1.21922 0.73904 0.61338
 C106 C 1.27551 0.76658 0.61442
 C107 C 1.29150 0.78310 0.64818
 C108 C 1.29645 0.80409 0.63798
 C109 C 1.28463 0.80794 0.59358
 C110 C 1.26862 0.79136 0.55995
 H111 H 1.24545 0.77772 0.38054
 H112 H 1.27422 0.80572 0.32190
 H113 H 1.31860 0.79334 0.41968
 H114 H 1.28949 0.76520 0.47718
 H115 H 1.20567 0.74057 0.47586
 H116 H 1.17671 0.71240 0.41729
 H117 H 1.25001 0.72816 0.38081
 H118 H 1.23539 0.71103 0.52640
 H119 H 1.20717 0.68191 0.58361
 H120 H 1.19441 0.72618 0.67993
 H121 H 1.22249 0.75497 0.62159
 H122 H 1.27219 0.75063 0.62272
 H123 H 1.30004 0.77932 0.68197
 H124 H 1.28773 0.82376 0.58442
 H125 H 1.25973 0.79474 0.52629
 H126 H 1.22126 0.70017 0.32140
 C127 C 0.75111 0.50190 0.53304
 C128 C 0.75112 0.50183 0.46985
 C129 C 0.76785 0.50080 0.43388
 C130 C 0.73443 0.50289 0.43363
 C131 C 0.73329 0.50078 0.56896
 C132 C 0.76898 0.50319 0.56918
 C133 C 0.77937 0.51625 0.38928
 C134 C 0.79565 0.51591 0.35665
 C135 C 0.80064 0.49999 0.36770
 C136 C 0.78869 0.48420 0.41137
 C137 C 0.77239 0.48455 0.44390
 C138 C 0.73010 0.51929 0.44301
 C139 C 0.71383 0.51969 0.41034
 C140 C 0.70172 0.50379 0.36716
 C141 C 0.70652 0.48772 0.35670
 C142 C 0.72277 0.48733 0.38947
 C143 C 0.71256 0.48441 0.55919
 C144 C 0.69582 0.48404 0.59120
 C145 C 0.69945 0.49997 0.63427
 C146 C 0.72042 0.51599 0.64515
 C147 C 0.73711 0.51632 0.61299
 C148 C 0.76527 0.48774 0.61349
 C149 C 0.78203 0.48823 0.64580
 C150 C 0.80295 0.50433 0.63477
 C151 C 0.80647 0.52018 0.59147
 C152 C 0.78965 0.51965 0.55931
 H153 H 0.77602 0.52884 0.38060
 H154 H 0.80443 0.52825 0.32319
 H155 H 0.79198 0.47162 0.42075
 H156 H 0.76340 0.47224 0.47728
 H157 H 0.73921 0.53168 0.47605
 H158 H 0.71069 0.53238 0.41926
 H159 H 0.72599 0.47464 0.38129
 H160 H 0.70933 0.47201 0.52625
 H161 H 0.68002 0.47129 0.58165
 H162 H 0.72403 0.52849 0.67806
 H163 H 0.75303 0.52901 0.62148
 H164 H 0.74939 0.47500 0.62206
 H165 H 0.77852 0.47578 0.67890
 H166 H 0.82222 0.53298 0.58181
 H167 H 0.79278 0.53198 0.52616
 H168 H 0.69761 0.47529 0.32360
 C169 C 0.49795 0.24884 0.53419
 C170 C 0.49796 0.24886 0.47100
 C171 C 0.49906 0.26666 0.43488
 C172 C 0.49677 0.23105 0.43499
 C173 C 0.49897 0.23211 0.57032
 C174 C 0.49681 0.26549 0.57020
 C175 C 0.48355 0.26278 0.39049
 C176 C 0.48391 0.27944 0.35794
 C177 C 0.49991 0.30033 0.36884
 C178 C 0.51576 0.30410 0.41224
 C179 C 0.51539 0.28741 0.44469
 C180 C 0.48032 0.21035 0.44468
 C181 C 0.47986 0.19361 0.41244
 C182 C 0.49575 0.19728 0.36938
 C183 C 0.51186 0.21814 0.35853
 C184 C 0.51230 0.23485 0.39088
 C185 C 0.51526 0.22763 0.56066
 C186 C 0.51557 0.21128 0.59307
 C187 C 0.49967 0.19912 0.63643
 C188 C 0.48372 0.20416 0.64713
 C189 C 0.48344 0.22050 0.61457
 C190 C 0.51234 0.27718 0.61439
 C191 C 0.51195 0.29347 0.64676
 C192 C 0.49589 0.29836 0.63592
 C193 C 0.47998 0.28609 0.59266
 C194 C 0.48041 0.26979 0.56044
 H195 H 0.47089 0.24685 0.38198
 H196 H 0.47151 0.27592 0.32468
 H197 H 0.52840 0.31996 0.42149
 H198 H 0.52774 0.29069 0.47791
 H199 H 0.46795 0.20714 0.47769
 H200 H 0.46714 0.17779 0.42163
 H201 H 0.52504 0.25074 0.38246
 H202 H 0.52764 0.23670 0.52756
 H203 H 0.52825 0.20814 0.58364
 H204 H 0.47124 0.19539 0.68023
 H205 H 0.47083 0.22383 0.62298
 H206 H 0.52504 0.27398 0.62287
 H207 H 0.52443 0.30235 0.67981
 H208 H 0.46722 0.28910 0.58314
 H209 H 0.46803 0.26064 0.52738
 H210 H 0.52428 0.22157 0.32550
 C211 C 0.75089 0.24957 0.53286
 C212 C 0.75087 0.24955 0.46967
 C213 C 0.73427 0.23167 0.43364
 C214 C 0.76751 0.26738 0.43362
 C215 C 0.76877 0.26619 0.56887
 C216 C 0.73305 0.23296 0.56893
 C217 C 0.73000 0.21098 0.44377
 C218 C 0.71381 0.19419 0.41128
 C219 C 0.70170 0.19779 0.36754
 C220 C 0.70644 0.21862 0.35634
 C221 C 0.72261 0.23538 0.38893
 C222 C 0.77921 0.26361 0.38933
 C223 C 0.79550 0.28035 0.35703
 C224 C 0.80031 0.30120 0.36810
 C225 C 0.78814 0.30485 0.41132
 C226 C 0.77183 0.28809 0.44352
 C227 C 0.76507 0.27790 0.61325
 C228 C 0.78183 0.29413 0.64567
 C229 C 0.80275 0.29894 0.63469
 C230 C 0.80627 0.28668 0.59121
 C231 C 0.78945 0.27044 0.55895
 C232 C 0.71233 0.22861 0.55881
 C233 C 0.69556 0.21232 0.59103
 C234 C 0.69922 0.20018 0.63448
 C235 C 0.72008 0.20502 0.64578
 C236 C 0.73683 0.22130 0.61345
 H237 H 0.73910 0.20783 0.47723
 H238 H 0.71072 0.17839 0.42078
 H239 H 0.69753 0.22200 0.32281
 H240 H 0.72577 0.25126 0.38016
 H241 H 0.77601 0.24772 0.38076
 H242 H 0.80446 0.27693 0.32388
 H243 H 0.76269 0.29128 0.47667
 H244 H 0.74919 0.27474 0.62187
 H245 H 0.77831 0.30300 0.67888
 H246 H 0.82202 0.28964 0.58156
 H247 H 0.79259 0.26129 0.52575
 H248 H 0.70914 0.23772 0.52548
 H249 H 0.67973 0.20915 0.58150
 H250 H 0.72350 0.19609 0.67911
 H251 H 0.75272 0.22451 0.62219
 H252 H 0.79128 0.32067 0.42069
 O253 O 0.97070 0.45450 0.11444
 O254 O 0.94754 0.45878 0.05289
 C255 C 0.95178 0.44959 0.09735
 O256 O 1.02949 0.54848 0.10633
 O257 O 1.05285 0.54261 0.05138
 C258 C 1.04846 0.55318 0.09085
 O259 O 0.97062 0.51734 0.11100
 O260 O 0.94752 0.48930 0.05145
 C261 C 0.95173 0.50313 0.09458
 O262 O 1.02976 0.48216 0.10881
 O263 O 1.05308 0.51101 0.05201
 C264 C 1.04873 0.49640 0.09280
 Zr265 Zr 1.00019 0.47720 0.07711
 O266 O 1.00056 0.47493 0.17473
 O267 O 0.99942 0.44814 0.06772
 Zr268 Zr 1.00014 0.52331 0.07616
 O269 O 1.00203 0.52436 0.17409
 O270 O 0.99778 0.55094 0.07462
 O271 O 0.98141 0.49091 0.08854
 O272 O 1.01847 0.50946 0.08851
 O273 O 1.02982 0.48114 -0.10716
 O274 O 1.05302 0.51043 -0.05193
 C275 C 1.04874 0.49545 -0.09128
 O276 O 0.97112 0.51718 -0.11629
 O277 O 0.94773 0.48919 -0.05692
 C278 C 0.95215 0.50306 -0.10020
 O279 O 1.03020 0.54817 -0.10953
 O280 O 1.05328 0.54237 -0.05241
 C281 C 1.04910 0.55282 -0.09299
 O282 O 0.97100 0.45347 -0.11425
 O283 O 0.94767 0.45844 -0.05598
 C284 C 0.95204 0.44876 -0.09856
 Zr285 Zr 1.00038 0.47706 -0.07865
 O286 O 1.00292 0.47828 -0.17645
 O287 O 0.99827 0.44719 -0.07720
 Zr288 Zr 1.00052 0.52319 -0.08014
 O289 O 1.00307 0.52422 -0.17791
 O290 O 0.99822 0.55085 -0.08026
 Zr291 Zr 0.96875 0.48445 -0.00190
 Zr292 Zr 1.03178 0.51596 -0.00067
 O293 O 1.01881 0.50925 -0.09042
 O294 O 0.98163 0.49070 -0.09196
 O295 O 1.01919 0.48306 -0.00027
 O296 O 0.98195 0.51740 -0.00243
 O297 O 0.98176 0.46457 -0.00082
 O298 O 1.01917 0.53627 -0.00170
 H299 H 1.02794 0.51436 0.12498
 H300 H 0.97246 0.52338 -0.00284
 H301 H 1.02840 0.51392 -0.12663
 H302 H 0.97215 0.44911 -0.00043
 H303 H 1.00965 0.56158 0.04958
 H304 H 1.01026 0.56168 -0.05617
 H305 H 0.99136 0.51085 -0.19415
 H306 H 0.99105 0.47961 -0.19308
 H307 H 1.00883 0.44798 -0.04706
 H308 H 0.99905 0.44299 0.11040
 H309 H 1.00428 0.48889 0.19157
 H310 H 0.99042 0.51083 0.18990
 O311 O 0.54639 0.51679 0.11223
 O312 O 0.54169 0.48881 0.05277
 C313 C 0.55120 0.50266 0.09602
 O314 O 0.45177 0.48123 0.10453
 O315 O 0.45777 0.51044 0.04886
 C316 C 0.44714 0.49553 0.08851
 O317 O 0.48292 0.45332 0.11169
 O318 O 0.51097 0.45814 0.05242
 C319 C 0.49712 0.44860 0.09562
 O320 O 0.51834 0.54780 0.10605
 O321 O 0.48936 0.54196 0.04942
 C322 C 0.50405 0.55242 0.08981
 Zr323 Zr 0.52301 0.52284 0.07643
 O324 O 0.52178 0.52401 0.17424
 O325 O 0.55301 0.55050 0.07580
 Zr326 Zr 0.47692 0.47674 0.07576
 O327 O 0.47550 0.47781 0.17354
 O328 O 0.44930 0.44672 0.07470
 O329 O 0.50937 0.49038 0.08841
 O330 O 0.49079 0.50891 0.08738
 O331 O 0.51914 0.54818 -0.10965
 O332 O 0.48992 0.54219 -0.05443
 C333 C 0.50486 0.55283 -0.09393
 O334 O 0.48313 0.45345 -0.11576
 O335 O 0.51110 0.45819 -0.05596
 C336 C 0.49725 0.44864 -0.09922
 O337 O 0.45212 0.48151 -0.11051
 O338 O 0.45796 0.51053 -0.05427
 C339 C 0.44750 0.49581 -0.09455
 O340 O 0.54674 0.51694 -0.11516
 O341 O 0.54182 0.48890 -0.05556
 C342 C 0.55143 0.50274 -0.09875
 Zr343 Zr 0.52324 0.52294 -0.07995
 O344 O 0.52197 0.52405 -0.17779
 O345 O 0.55329 0.55053 -0.07913
 Zr346 Zr 0.47711 0.47690 -0.08057
 O347 O 0.47609 0.47820 -0.17842
 O348 O 0.44943 0.44692 -0.08026
 Zr349 Zr 0.51583 0.48408 -0.00180
 Zr350 Zr 0.48437 0.51554 -0.00227
 O351 O 0.49105 0.50911 -0.09173
 O352 O 0.50960 0.49050 -0.09224
 O353 O 0.51730 0.53589 -0.00186
 O354 O 0.48287 0.46431 -0.00230
 O355 O 0.53563 0.51703 -0.00154
 O356 O 0.46401 0.48263 -0.00258
 H357 H 0.48595 0.51360 0.12370
 H358 H 0.47690 0.44883 -0.00227
 H359 H 0.48636 0.51393 -0.12817
 H360 H 0.55111 0.52299 -0.00136
 H361 H 0.43860 0.44793 0.04990
 H362 H 0.43865 0.44815 -0.05603
 H363 H 0.48944 0.47977 -0.19448
 H364 H 0.52058 0.51081 -0.19404
 H365 H 0.55222 0.56110 -0.05336
 H366 H 0.55170 0.56139 0.05235
 H367 H 0.51999 0.51060 0.19053
 H368 H 0.48889 0.47963 0.19011
 O369 O 0.48289 0.02880 0.11673
 O370 O 0.51074 0.05225 0.05706
 C371 C 0.49697 0.04779 0.10060
 O372 O 0.51878 -0.02990 0.10628
 O373 O 0.48946 -0.05304 0.05106
 C374 C 0.50448 -0.04880 0.09031
 O375 O 0.54652 0.02892 0.11338
 O376 O 0.54149 0.05229 0.05539
 C377 C 0.55123 0.04788 0.09779
 O378 O 0.45190 -0.03029 0.10966
 O379 O 0.45759 -0.05335 0.05223
 C380 C 0.44723 -0.04918 0.09306
 Zr381 Zr 0.47680 -0.00054 0.08020
 O382 O 0.47590 -0.00316 0.17797
 O383 O 0.44912 0.00174 0.08086
 Zr384 Zr 0.52290 -0.00043 0.07776
 O385 O 0.52193 -0.00308 0.17554
 O386 O 0.55293 0.00200 0.07581
 O387 O 0.50931 0.01832 0.09162
 O388 O 0.49075 -0.01885 0.08998
 O389 O 0.45101 -0.02939 -0.10575
 O390 O 0.45707 -0.05279 -0.05147
 C391 C 0.44638 -0.04837 -0.09052
 O392 O 0.54564 0.02956 -0.11386
 O393 O 0.54105 0.05258 -0.05289
 C394 C 0.55043 0.04843 -0.09688
 O395 O 0.51788 -0.02942 -0.10968
 O396 O 0.48898 -0.05275 -0.05335
 C397 C 0.50364 -0.04838 -0.09388
 O398 O 0.48222 0.02950 -0.11064
 O399 O 0.51039 0.05254 -0.05132
 C400 C 0.49647 0.04838 -0.09422
 Zr401 Zr 0.47630 -0.00005 -0.07600
 O402 O 0.47481 -0.00222 -0.17387
 O403 O 0.44870 0.00237 -0.07382
 Zr404 Zr 0.52235 -0.00004 -0.07851
 O405 O 0.52078 -0.00216 -0.17637
 O406 O 0.55238 0.00238 -0.07903
 Zr407 Zr 0.51535 0.03127 0.00162
 Zr408 Zr 0.48384 -0.03176 0.00023
 O409 O 0.49010 -0.01836 -0.08897
 O410 O 0.50870 0.01882 -0.08897
 O411 O 0.46354 -0.01914 0.00186
 O412 O 0.53514 0.01814 -0.00015
 O413 O 0.48240 0.01808 0.00269
 O414 O 0.51679 -0.01909 -0.00095
 H415 H 0.48616 -0.02843 0.12621
 H416 H 0.55062 0.02765 -0.00052
 H417 H 0.48520 -0.02775 -0.12561
 H418 H 0.47643 0.02758 0.00339
 H419 H 0.55174 -0.00970 0.05010
 H420 H 0.55122 -0.00974 -0.05549
 H421 H 0.51912 0.00962 -0.19200
 H422 H 0.48808 0.00958 -0.19032
 H423 H 0.43812 -0.00947 -0.04857
 H424 H 0.43820 -0.01036 0.05719
 H425 H 0.48935 0.00844 0.19411
 H426 H 0.52055 0.00871 0.19243
 N427 N 1.15340 0.48149 0.26021
 C428 C 1.14862 0.49681 0.27104
 N429 N 1.16030 0.51219 0.31236
 N430 N 1.17627 0.51222 0.34205
 C431 C 1.18120 0.49687 0.33167
 N432 N 1.16936 0.48152 0.28991
 C433 C 1.13130 0.49665 0.23948
 C434 C 1.11670 0.49648 0.21310
 C435 C 1.09932 0.49629 0.18186
 N436 N 1.10279 0.51091 0.13792
 N437 N 1.08665 0.51086 0.10932
 C438 C 1.06649 0.49620 0.12367
 N439 N 1.06307 0.48156 0.16764
 N440 N 1.07922 0.48161 0.19625
 N441 N 0.51853 0.67162 0.25817
 C442 C 0.50330 0.65143 0.26875
 N443 N 0.48802 0.64747 0.31077
 N444 N 0.48800 0.66324 0.34135
 C445 C 0.50325 0.68354 0.33104
 N446 N 0.51850 0.68738 0.28875
 C447 C 0.50350 0.63444 0.23644
 C448 C 0.50374 0.62016 0.20959
 C449 C 0.50406 0.60310 0.17810
 N450 N 0.51887 0.59785 0.19228
 N451 N 0.51898 0.58179 0.16377
 C452 C 0.50427 0.57045 0.12009
 N453 N 0.48948 0.57579 0.10589
 N454 N 0.48938 0.59185 0.13441
 N455 N 0.32784 -0.15405 0.26051
 C456 C 0.34799 -0.14919 0.27121
 N457 N 0.35184 -0.16061 0.31320
 N458 N 0.33600 -0.17640 0.34364
 C459 C 0.31570 -0.18139 0.33332
 N460 N 0.31201 -0.16985 0.29095
 C461 C 0.36506 -0.13197 0.23910
 C462 C 0.37940 -0.11741 0.21244
 C463 C 0.39653 -0.09999 0.18116
 N464 N 0.40770 -0.10335 0.13717
 N465 N 0.42378 -0.08715 0.10876
 C466 C 0.42922 -0.06704 0.12338
 N467 N 0.41796 -0.06373 0.16738
 N468 N 0.40188 -0.07994 0.19578
 N469 N 0.83960 0.48511 0.31636
 C470 C 0.85117 0.50048 0.27480
 N471 N 0.84611 0.51559 0.26331
 N472 N 0.83001 0.51536 0.29259
 C473 C 0.81835 0.50002 0.33441
 N474 N 0.82350 0.48489 0.34564
 C475 C 0.86863 0.50085 0.24361
 C476 C 0.88333 0.50123 0.21737
 C477 C 0.90083 0.50172 0.18606
 N478 N 0.92088 0.51630 0.20142
 N479 N 0.93713 0.51678 0.17224
 C480 C 0.93386 0.50269 0.12669
 N481 N 0.91376 0.48811 0.11145
 N482 N 0.89752 0.48764 0.14063
 N483 N 0.51487 0.35426 0.31780
 C484 C 0.49942 0.35052 0.27655
 N485 N 0.48424 0.33037 0.26515
 N486 N 0.48446 0.31444 0.29424
 C487 C 0.49988 0.31807 0.33575
 N488 N 0.51508 0.33832 0.34688
 C489 C 0.49909 0.36766 0.24547
 C490 C 0.49876 0.38203 0.21927
 C491 C 0.49835 0.39909 0.18787
 N492 N 0.51247 0.40983 0.14244
 N493 N 0.51206 0.42562 0.11308
 C494 C 0.49752 0.43119 0.12814
 N495 N 0.48341 0.42041 0.17370
 N496 N 0.48382 0.40461 0.20307
 N497 N 0.66317 0.14369 0.31683
 C498 C 0.65141 0.14724 0.27527
 N499 N 0.65619 0.16731 0.26355
 N500 N 0.67223 0.18336 0.29260
 C501 C 0.68408 0.17993 0.33442
 N502 N 0.67921 0.15975 0.34587
 C503 C 0.63400 0.12994 0.24445
 C504 C 0.61934 0.11543 0.21864
 C505 C 0.60186 0.09816 0.18794
 N506 N 0.59091 0.10179 0.14372
 N507 N 0.57472 0.08575 0.11509
 C508 C 0.56894 0.06555 0.12975
 N509 N 0.57994 0.06197 0.17412
 N510 N 0.59613 0.07801 0.20275
 N511 N 0.51452 0.16096 -0.31385
 C512 C 0.49902 0.14923 -0.27288
 N513 N 0.48383 0.15418 -0.26175
 N514 N 0.48410 0.17036 -0.29082
 C515 C 0.49958 0.18222 -0.33216
 N516 N 0.51479 0.17714 -0.34292
 C517 C 0.49860 0.13169 -0.24193
 C518 C 0.49821 0.11693 -0.21591
 C519 C 0.49773 0.09939 -0.18485
 N520 N 0.48312 0.07937 -0.20028
 N521 N 0.48268 0.06308 -0.17137
 C522 C 0.49685 0.06628 -0.12604
 N523 N 0.51146 0.08635 -0.11072
 N524 N 0.51189 0.10263 -0.13963
 N525 N 0.64629 0.48495 -0.31721
 C526 C 0.64995 0.50049 -0.27654
 N527 N 0.67007 0.51575 -0.26519
 N528 N 0.68605 0.51552 -0.29378
 C529 C 0.68255 0.50002 -0.33482
 N530 N 0.66228 0.48473 -0.34579
 C531 C 0.63273 0.50083 -0.24603
 C532 C 0.61830 0.50116 -0.22031
 C533 C 0.60116 0.50155 -0.18948
 N534 N 0.59565 0.51607 -0.20512
 N535 N 0.57978 0.51646 -0.17627
 C536 C 0.56890 0.50234 -0.13079
 N537 N 0.57446 0.48782 -0.11529
 N538 N 0.59032 0.48743 -0.14414
 N539 N 0.85602 0.33666 -0.31632
 C540 C 0.85250 0.34853 -0.27525
 N541 N 0.83243 0.34380 -0.26378
 N542 N 0.81637 0.32772 -0.29264
 C543 C 0.81973 0.31574 -0.33409
 N544 N 0.83994 0.32059 -0.34517
 C545 C 0.86982 0.36598 -0.24464
 C546 C 0.88436 0.38067 -0.21900
 C547 C 0.90166 0.39817 -0.18850
 N548 N 0.89807 0.40909 -0.14420
 N549 N 0.91414 0.42528 -0.11567
 C550 C 0.93434 0.43109 -0.13053
 N551 N 0.93787 0.42012 -0.17499
 N552 N 0.92180 0.40394 -0.20350
 N553 N 0.48798 -0.15977 -0.31293
 C554 C 0.50337 -0.14814 -0.27147
 N555 N 0.51866 -0.15299 -0.26048
 N556 N 0.51858 -0.16895 -0.29013
 C557 C 0.50322 -0.18067 -0.33184
 N558 N 0.48791 -0.17574 -0.34257
 C559 C 0.50357 -0.13082 -0.23996
 C560 C 0.50374 -0.11624 -0.21363
 C561 C 0.50390 -0.09888 -0.18248
 N562 N 0.48923 -0.10238 -0.13881
 N563 N 0.48922 -0.08627 -0.11034
 C564 C 0.50391 -0.06611 -0.12458
 N565 N 0.51861 -0.06266 -0.16829
 N566 N 0.51861 -0.07878 -0.19676
 N567 N 0.35221 0.51180 -0.31544
 C568 C 0.34830 0.49649 -0.27355
 N569 N 0.32811 0.48126 -0.26286
 N570 N 0.31231 0.48134 -0.29321
 C571 C 0.31611 0.49663 -0.33536
 N572 N 0.33640 0.51187 -0.34578
 C573 C 0.36533 0.49626 -0.24138
 C574 C 0.37964 0.49601 -0.21460
 C575 C 0.39675 0.49573 -0.18310
 N576 N 0.40802 0.51042 -0.13951
 N577 N 0.42410 0.51034 -0.11093
 C578 C 0.42945 0.49556 -0.12497
 N579 N 0.41809 0.48084 -0.16855
 N580 N 0.40201 0.48092 -0.19713
 N581 N 1.15406 0.67252 -0.25907
 C582 C 1.14927 0.65239 -0.26954
 N583 N 1.16083 0.64859 -0.31099
 N584 N 1.17670 0.66445 -0.34115
 C585 C 1.18162 0.68473 -0.33107
 N586 N 1.16993 0.68838 -0.28924
 C587 C 1.13199 0.63529 -0.23771
 C588 C 1.11739 0.62091 -0.21129
 C589 C 1.09994 0.60373 -0.18027
 N590 N 1.10329 0.59245 -0.13651
 N591 N 1.08708 0.57630 -0.10836
 C592 C 1.06696 0.57090 -0.12303
 N593 N 1.06366 0.58226 -0.16680
 N594 N 1.07989 0.59841 -0.19494
 N595 N 0.85623 0.51965 -0.31705
 C596 C 0.85272 0.50417 -0.27625
 N597 N 0.83265 0.48886 -0.26463
 N598 N 0.81657 0.48898 -0.29312
 C599 C 0.81993 0.50442 -0.33432
 N600 N 0.84015 0.51976 -0.34553
 C601 C 0.87003 0.50392 -0.24603
 C602 C 0.88456 0.50366 -0.22067
 C603 C 0.90184 0.50336 -0.19038
 N604 N 0.89822 0.48897 -0.14555
 N605 N 0.91427 0.48880 -0.11703
 C606 C 0.93447 0.50301 -0.13244
 N607 N 0.93804 0.51737 -0.17746
 N608 N 0.92198 0.51754 -0.20597
 N609 N 0.51154 0.34340 -0.26310
 C610 C 0.49624 0.34820 -0.27449
 N611 N 0.48073 0.33632 -0.31529
 N612 N 0.48055 0.32015 -0.34398
 C613 C 0.49588 0.31523 -0.33299
 N614 N 0.51135 0.32723 -0.29180
 C615 C 0.49655 0.36574 -0.24409
 C616 C 0.49681 0.38049 -0.21868
 C617 C 0.49706 0.39804 -0.18851
 N618 N 0.51141 0.40883 -0.14360
 N619 N 0.51154 0.42504 -0.11531
 C620 C 0.49733 0.43100 -0.13102
 N621 N 0.48300 0.42018 -0.17610
 N622 N 0.48288 0.40397 -0.20438
 N623 N 0.66886 0.15430 -0.26283
 C624 C 0.64875 0.14938 -0.27473
 N625 N 0.64514 0.16118 -0.31594
 N626 N 0.66117 0.17739 -0.34450
 C627 C 0.68139 0.18239 -0.33287
 N628 N 0.68488 0.17050 -0.29139
 C629 C 0.63150 0.13182 -0.24432
 C630 C 0.61706 0.11705 -0.21869
 C631 C 0.59993 0.09948 -0.18794
 N632 N 0.59428 0.07948 -0.20420
 N633 N 0.57847 0.06317 -0.17528
 C634 C 0.56777 0.06634 -0.12914
 N635 N 0.57347 0.08640 -0.11303
 N636 N 0.58928 0.10270 -0.14195
 N637 N 1.14321 0.47757 -0.30916
 C638 C 1.14733 0.49291 -0.26722
 N639 N 1.16757 0.50816 -0.25731
 N640 N 1.18321 0.50808 -0.28847
 C641 C 1.17921 0.49277 -0.33070
 N642 N 1.15886 0.47750 -0.34031
 C643 C 1.13043 0.49321 -0.23461
 C644 C 1.11615 0.49349 -0.20785
 C645 C 1.09898 0.49378 -0.17691
 N646 N 1.10267 0.50898 -0.13482
 N647 N 1.08667 0.50945 -0.10713
 C648 C 1.06644 0.49475 -0.12066
 N649 N 1.06281 0.47954 -0.16274
 N650 N 1.07881 0.47907 -0.19041
 N651 N 0.52295 0.66595 -0.30953
 C652 C 0.50758 0.65446 -0.26793
 N653 N 0.49229 0.65932 -0.25751
 N654 N 0.49234 0.67518 -0.28785
 C655 C 0.50767 0.68679 -0.32985
 N656 N 0.52300 0.68182 -0.33986
 C657 C 0.50730 0.63711 -0.23615
 C658 C 0.50700 0.62243 -0.20995
 C659 C 0.50662 0.60484 -0.17945
 N660 N 0.49145 0.59333 -0.13725
 N661 N 0.49093 0.57680 -0.10972
 C662 C 0.50556 0.57121 -0.12352
 N663 N 0.52074 0.58279 -0.16574
 N664 N 0.52125 0.59932 -0.19325
 N665 N 0.34018 -0.16712 -0.25591
 C666 C 0.34504 -0.14696 -0.26646
 N667 N 0.33365 -0.14309 -0.30850
 N668 N 0.31789 -0.15890 -0.33913
 C669 C 0.31291 -0.17920 -0.32898
 N670 N 0.32442 -0.18292 -0.28655
 C671 C 0.36228 -0.12991 -0.23432
 C672 C 0.37688 -0.11556 -0.20777
 C673 C 0.39440 -0.09842 -0.17683
 N674 N 0.39986 -0.07823 -0.18999
 N675 N 0.41636 -0.06228 -0.16217
 C676 C 0.42797 -0.06598 -0.12026
 N677 N 0.42244 -0.08623 -0.10709
 N678 N 0.40593 -0.10218 -0.13493
 N679 N 0.52253 -0.14351 0.30705
 C680 C 0.50718 -0.14756 0.26512
 N681 N 0.49192 -0.16777 0.25503
 N682 N 0.49200 -0.18346 0.28599
 C683 C 0.50733 -0.17953 0.32819
 N684 N 0.52261 -0.15921 0.33799
 C685 C 0.50687 -0.13062 0.23273
 C686 C 0.50658 -0.11629 0.20615
 C687 C 0.50625 -0.09910 0.17540
 N688 N 0.49102 -0.10275 0.13338
 N689 N 0.49051 -0.08672 0.10586
 C690 C 0.50522 -0.06651 0.11950
 N691 N 0.52047 -0.06293 0.16151
 N692 N 0.52097 -0.07895 0.18900
 N693 N 0.33409 0.47739 0.30380
 C694 C 0.34552 0.49278 0.26214
 N695 N 0.34059 0.50804 0.25174
 N696 N 0.32473 0.50793 0.28217
 C697 C 0.31322 0.49257 0.32412
 N698 N 0.31823 0.47729 0.33422
 C699 C 0.36287 0.49312 0.23029
 C700 C 0.37755 0.49344 0.20410
 C701 C 0.39514 0.49382 0.17368
 N702 N 0.40066 0.47919 0.18766
 N703 N 0.41718 0.47970 0.16026
 C704 C 0.42876 0.49485 0.11795
 N705 N 0.42317 0.50947 0.10395
 N706 N 0.40663 0.50896 0.13139
 N707 N 1.14303 0.66572 0.30920
 C708 C 1.14700 0.65438 0.26738
 N709 N 1.16720 0.65931 0.25713
 N710 N 1.18295 0.67511 0.28784
 C711 C 1.17909 0.68655 0.32995
 N712 N 1.15878 0.68152 0.33990
 C713 C 1.13001 0.63712 0.23513
 C714 C 1.11569 0.62251 0.20852
 C715 C 1.09854 0.60501 0.17753
 N716 N 1.10230 0.59361 0.13529
 N717 N 1.08634 0.57713 0.10735
 C718 C 1.06609 0.57152 0.12077
 N719 N 1.06239 0.58300 0.16302
 N720 N 1.07835 0.59947 0.19094
 N721 N 0.51132 0.16698 0.26691
 C722 C 0.49603 0.14688 0.27836
 N723 N 0.48054 0.14326 0.31920
 N724 N 0.48039 0.15927 0.34784
 C725 C 0.49570 0.17948 0.33667
 N726 N 0.51116 0.18298 0.29556
 C727 C 0.49630 0.12964 0.24788
 C728 C 0.49656 0.11517 0.22228
 C729 C 0.49683 0.09795 0.19170
 N730 N 0.48270 0.07779 0.20728
 N731 N 0.48282 0.06178 0.17848
 C732 C 0.49709 0.06541 0.13315
 N733 N 0.51124 0.08563 0.11775
 N734 N 0.51112 0.10163 0.14656
 N735 N 0.66298 0.51894 0.31539
 C736 C 0.65120 0.50346 0.27441
 N737 N 0.65604 0.48818 0.26340
 N738 N 0.67215 0.48835 0.29261
 C739 C 0.68402 0.50382 0.33387
 N740 N 0.67909 0.51911 0.34459
 C741 C 0.63374 0.50317 0.24340
 C742 C 0.61906 0.50294 0.21749
 C743 C 0.60159 0.50274 0.18676
 N744 N 0.59087 0.48841 0.14178
 N745 N 0.57473 0.48832 0.11300
 C746 C 0.56878 0.50256 0.12827
 N747 N 0.57954 0.51686 0.17341
 N748 N 0.59568 0.51695 0.20218
 N749 N 0.83928 0.35526 0.31824
 C750 C 0.85111 0.35165 0.27723
 N751 N 0.84622 0.33155 0.26557
 N752 N 0.83002 0.31553 0.29418
 C753 C 0.81810 0.31902 0.33546
 N754 N 0.82308 0.33924 0.34685
 C755 C 0.86864 0.36888 0.24669
 C756 C 0.88338 0.38330 0.22088
 C757 C 0.90089 0.40039 0.18982
 N758 N 0.92094 0.40612 0.20610
 N759 N 0.93719 0.42186 0.17678
 C760 C 0.93394 0.43238 0.13019
 N761 N 0.91384 0.42660 0.11407
 N762 N 0.89759 0.41086 0.14339
   
