data_POSCAR
  _audit_creation_date              2014-09-24
  _audit_creation_method            'ToBaCCo'
  _symmetry_space_group_name_H-M    'P1'
  _symmetry_Int_Tables_number       1
  _symmetry_cell_setting            triclinic
  loop_
  _symmetry_equiv_pos_as_xyz
 x,y,z
_cell_length_a 45.2460
_cell_length_b 45.4176
_cell_length_c 45.5228
_cell_angle_alpha 89.989400
_cell_angle_beta 90.017200
_cell_angle_gamma 89.868400
loop_
  _atom_site_label
  _atom_site_type_symbol
  _atom_site_fract_x
  _atom_site_fract_y
  _atom_site_fract_z
N1 N 0.28220 0.22381 0.19555
 N2 N 0.26879 0.24669 0.18378
 C3 C 0.28376 0.25514 0.15961
 C4 C 0.30758 0.23644 0.15622
 C5 C 0.30608 0.21690 0.17931
 H6 H 0.27828 0.27384 0.14594
 H7 H 0.32163 0.19948 0.18432
 Cu8 Cu 0.23403 0.26387 0.20229
 Cu9 Cu 0.26873 0.20561 0.23189
 Cu10 Cu 0.20664 0.23603 0.26492
 N11 N 0.19910 0.28077 0.22076
 N12 N 0.18852 0.26972 0.24533
 C13 C 0.16508 0.28586 0.25400
 C14 C 0.16085 0.30803 0.23375
 C15 C 0.18272 0.30435 0.21299
 H16 H 0.15247 0.28214 0.27382
 H17 H 0.18671 0.31819 0.19408
 N18 N 0.22810 0.20190 0.28128
 N19 N 0.25173 0.19031 0.26869
 C20 C 0.26160 0.16777 0.28532
 C21 C 0.24328 0.16520 0.30932
 C22 C 0.22232 0.18702 0.30624
 H23 H 0.28082 0.15441 0.28057
 H24 H 0.20443 0.19183 0.32125
 H25 H 0.22485 0.21756 0.22770
 H26 H 0.24895 0.24283 0.24932
 N27 N 0.71730 -0.22397 0.19499
 N28 N 0.73073 -0.24683 0.18321
 C29 C 0.71575 -0.25530 0.15904
 C30 C 0.69193 -0.23660 0.15569
 C31 C 0.69339 -0.21706 0.17877
 H32 H 0.72123 -0.27402 0.14539
 H33 H 0.67782 -0.19967 0.18382
 Cu34 Cu 0.76555 -0.26396 0.20170
 Cu35 Cu 0.73077 -0.20578 0.23136
 Cu36 Cu 0.79295 -0.23616 0.26433
 N37 N 0.80050 -0.28086 0.22016
 N38 N 0.81110 -0.26980 0.24471
 C39 C 0.83457 -0.28590 0.25340
 C40 C 0.83877 -0.30805 0.23314
 C41 C 0.81687 -0.30444 0.21238
 H42 H 0.84717 -0.28217 0.27324
 H43 H 0.81283 -0.31830 0.19348
 N44 N 0.77146 -0.20208 0.28074
 N45 N 0.74779 -0.19052 0.26819
 C46 C 0.73791 -0.16803 0.28486
 C47 C 0.75626 -0.16547 0.30884
 C48 C 0.77725 -0.18725 0.30571
 H49 H 0.71866 -0.15469 0.28015
 H50 H 0.79518 -0.19205 0.32069
 H51 H 0.77465 -0.21765 0.22713
 H52 H 0.75061 -0.24299 0.24873
 N53 N 0.72017 0.22522 0.79865
 N54 N 0.73276 0.24925 0.80877
 C55 C 0.71828 0.25817 0.83309
 C56 C 0.69566 0.23857 0.83832
 C57 C 0.69733 0.21800 0.81615
 H58 H 0.72327 0.27777 0.84563
 H59 H 0.68257 0.19965 0.81260
 Cu60 Cu 0.76594 0.26706 0.78822
 Cu61 Cu 0.73320 0.20594 0.76269
 Cu62 Cu 0.79254 0.23734 0.72602
 N63 N 0.79943 0.28436 0.76775
 N64 N 0.80975 0.27261 0.74338
 C65 C 0.83250 0.28895 0.73350
 C66 C 0.83647 0.31200 0.75277
 C67 C 0.81525 0.30861 0.77421
 H68 H 0.84499 0.28455 0.71371
 H69 H 0.81152 0.32287 0.79288
 N70 N 0.77213 0.20166 0.71201
 N71 N 0.74957 0.18968 0.72600
 C72 C 0.74019 0.16602 0.71078
 C73 C 0.75772 0.16312 0.68624
 C74 C 0.77769 0.18592 0.68753
 H75 H 0.72181 0.15211 0.71684
 H76 H 0.79475 0.19078 0.67164
 H77 H 0.77655 0.21999 0.76475
 H78 H 0.75048 0.24308 0.74282
 N79 N 0.28020 -0.22521 0.79946
 N80 N 0.26733 -0.24899 0.80981
 C81 C 0.28181 -0.25793 0.83414
 C82 C 0.30473 -0.23862 0.83911
 C83 C 0.30323 -0.21819 0.81680
 H84 H 0.27661 -0.27736 0.84685
 H85 H 0.31823 -0.20007 0.81305
 Cu86 Cu 0.23379 -0.26656 0.78961
 Cu87 Cu 0.26724 -0.20599 0.76345
 Cu88 Cu 0.20761 -0.23706 0.72702
 N89 N 0.20029 -0.28375 0.76903
 N90 N 0.19014 -0.27210 0.74453
 C91 C 0.16736 -0.28839 0.73463
 C92 C 0.16318 -0.31130 0.75403
 C93 C 0.18431 -0.30788 0.77556
 H94 H 0.15500 -0.28406 0.71474
 H95 H 0.18790 -0.32206 0.79433
 N96 N 0.22825 -0.20161 0.71283
 N97 N 0.25094 -0.18975 0.72673
 C98 C 0.26045 -0.16621 0.71141
 C99 C 0.24287 -0.16325 0.68690
 C100 C 0.22273 -0.18589 0.68832
 H101 H 0.27894 -0.15241 0.71741
 H102 H 0.20557 -0.19066 0.67249
 H103 H 0.22373 -0.21956 0.76568
 H104 H 0.24957 -0.24317 0.74401
 N105 N 0.71697 -0.22678 0.80203
 N106 N 0.73000 -0.25015 0.81325
 C107 C 0.71356 -0.26042 0.83570
 C108 C 0.68914 -0.24247 0.83853
 C109 C 0.69184 -0.22137 0.81695
 H110 H 0.71870 -0.27963 0.84879
 H111 H 0.67654 -0.20365 0.81228
 Cu112 Cu 0.76673 -0.26521 0.79688
 Cu113 Cu 0.73308 -0.20558 0.76846
 Cu114 Cu 0.79869 -0.23203 0.73910
 N115 N 0.80346 -0.27987 0.78015
 N116 N 0.81591 -0.26672 0.75757
 C117 C 0.84021 -0.28189 0.74956
 C118 C 0.84300 -0.30562 0.76821
 C119 C 0.81943 -0.30391 0.78728
 H120 H 0.85423 -0.27658 0.73106
 H121 H 0.81390 -0.31946 0.80441
 N122 N 0.77794 -0.19723 0.72345
 N123 N 0.75289 -0.18718 0.73455
 C124 C 0.74370 -0.16400 0.71841
 C125 C 0.76399 -0.15941 0.69634
 C126 C 0.78533 -0.18074 0.69999
 H127 H 0.72347 -0.15181 0.72196
 H128 H 0.80437 -0.18437 0.68610
 H129 H 0.75534 -0.24100 0.75042
 H130 H 0.77666 -0.21684 0.77592
 N131 N 0.28345 0.22655 0.80181
 N132 N 0.27057 0.25010 0.81281
 C133 C 0.28706 0.26047 0.83518
 C134 C 0.31135 0.24237 0.83821
 C135 C 0.30852 0.22110 0.81682
 H136 H 0.28202 0.27981 0.84811
 H137 H 0.32371 0.20324 0.81232
 Cu138 Cu 0.23389 0.26504 0.79621
 Cu139 Cu 0.26723 0.20515 0.76838
 Cu140 Cu 0.20156 0.23166 0.73892
 N141 N 0.19714 0.27983 0.77965
 N142 N 0.18451 0.26652 0.75726
 C143 C 0.16015 0.28166 0.74934
 C144 C 0.15751 0.30556 0.76780
 C145 C 0.18124 0.30393 0.78670
 H146 H 0.14595 0.27622 0.73103
 H147 H 0.18686 0.31958 0.80371
 N148 N 0.22224 0.19671 0.72344
 N149 N 0.24729 0.18665 0.73457
 C150 C 0.25642 0.16341 0.71851
 C151 C 0.23611 0.15877 0.69646
 C152 C 0.21480 0.18014 0.70005
 H153 H 0.27666 0.15121 0.72208
 H154 H 0.19575 0.18375 0.68615
 H155 H 0.24507 0.24042 0.74992
 H156 H 0.22374 0.21659 0.77566
 N157 N 0.28296 -0.22670 0.20346
 N158 N 0.27087 -0.25136 0.19424
 C159 C 0.28671 -0.26192 0.17146
 C160 C 0.30974 -0.24282 0.16633
 C161 C 0.30686 -0.22074 0.18690
 H162 H 0.28208 -0.28207 0.15969
 H163 H 0.32124 -0.20197 0.18979
 Cu164 Cu 0.23602 -0.26742 0.21333
 Cu165 Cu 0.26725 -0.20456 0.23666
 Cu166 Cu 0.20454 -0.23249 0.27040
 N167 N 0.20065 -0.28264 0.23217
 N168 N 0.18839 -0.26884 0.25449
 C169 C 0.16466 -0.28416 0.26366
 C170 C 0.16207 -0.30871 0.24608
 C171 C 0.18511 -0.30722 0.22637
 H172 H 0.15058 -0.27811 0.28188
 H173 H 0.19026 -0.32303 0.20935
 N174 N 0.22413 -0.19603 0.28331
 N175 N 0.24805 -0.18539 0.27053
 C176 C 0.25673 -0.16104 0.28508
 C177 C 0.23727 -0.15629 0.30787
 C178 C 0.21697 -0.17875 0.30629
 H179 H 0.27614 -0.14815 0.28002
 H180 H 0.19884 -0.18258 0.32127
 H181 H 0.24785 -0.23986 0.25776
 H182 H 0.22411 -0.21847 0.23183
 N183 N 0.71752 0.22637 0.20342
 N184 N 0.72942 0.25117 0.19435
 C185 C 0.71360 0.26168 0.17153
 C186 C 0.69077 0.24238 0.16620
 C187 C 0.69375 0.22026 0.18672
 H188 H 0.71808 0.28192 0.15986
 H189 H 0.67952 0.20136 0.18948
 Cu190 Cu 0.76402 0.26748 0.21369
 Cu191 Cu 0.73324 0.20427 0.23665
 Cu192 Cu 0.79550 0.23266 0.27086
 N193 N 0.79915 0.28295 0.23279
 N194 N 0.81142 0.26919 0.25514
 C195 C 0.83497 0.28469 0.26447
 C196 C 0.83744 0.30930 0.24695
 C197 C 0.81451 0.30767 0.22712
 H198 H 0.84903 0.27869 0.28274
 H199 H 0.80932 0.32346 0.21009
 N200 N 0.77617 0.19598 0.28355
 N201 N 0.75242 0.18516 0.27059
 C202 C 0.74387 0.16069 0.28502
 C203 C 0.76323 0.15605 0.30793
 C204 C 0.78335 0.17869 0.30653
 H205 H 0.72461 0.14766 0.27981
 H206 H 0.80134 0.18265 0.32165
 H207 H 0.75221 0.23967 0.25799
 H208 H 0.77629 0.21859 0.23214
 C209 C 0.25091 -0.01138 0.49959
 C210 C 0.25088 0.01856 0.50096
 C211 C 0.25119 0.03711 0.47409
 C212 C 0.24951 0.03454 0.52938
 C213 C 0.25079 -0.02999 0.52644
 C214 C 0.25007 -0.02740 0.47117
 C215 C 0.27371 0.03440 0.45297
 C216 C 0.27361 0.05235 0.42796
 C217 C 0.25115 0.07328 0.42400
 C218 C 0.22887 0.07622 0.44511
 C219 C 0.22894 0.05832 0.47003
 C220 C 0.27113 0.05564 0.53599
 C221 C 0.26939 0.07202 0.56189
 C222 C 0.24590 0.06763 0.58139
 C223 C 0.22425 0.04657 0.57500
 C224 C 0.22598 0.03016 0.54905
 C225 C 0.22852 -0.05116 0.53000
 C226 C 0.22831 -0.06946 0.55462
 C227 C 0.25045 -0.06696 0.57592
 C228 C 0.27283 -0.04596 0.57253
 C229 C 0.27307 -0.02758 0.54783
 C230 C 0.22673 -0.02320 0.45120
 C231 C 0.22529 -0.03997 0.42546
 C232 C 0.24704 -0.06117 0.41957
 C233 C 0.27041 -0.06526 0.43931
 C234 C 0.27187 -0.04855 0.46500
 H235 H 0.29136 0.01854 0.45595
 H236 H 0.29105 0.05001 0.41183
 H237 H 0.21145 0.09239 0.44232
 H238 H 0.21147 0.06086 0.48611
 H239 H 0.28928 0.05951 0.52097
 H240 H 0.28615 0.08837 0.56653
 H241 H 0.20874 0.01443 0.54405
 H242 H 0.21122 -0.05345 0.51370
 H243 H 0.21095 -0.08569 0.55697
 H244 H 0.29018 -0.04396 0.58882
 H245 H 0.29072 -0.01174 0.54523
 H246 H 0.20937 -0.00743 0.45587
 H247 H 0.20696 -0.03681 0.41047
 H248 H 0.28725 -0.08173 0.43507
 H249 H 0.28988 -0.05226 0.48026
 H250 H 0.20585 0.04318 0.58982
 C251 C 0.74926 -0.01918 0.50073
 C252 C 0.74939 0.01076 0.49937
 C253 C 0.75026 0.02680 0.47096
 C254 C 0.74965 0.02935 0.52622
 C255 C 0.75061 -0.03521 0.52914
 C256 C 0.74884 -0.03771 0.47384
 C257 C 0.77357 0.02253 0.45098
 C258 C 0.77507 0.03934 0.42526
 C259 C 0.75340 0.06063 0.41940
 C260 C 0.73005 0.06479 0.43914
 C261 C 0.72854 0.04804 0.46481
 C262 C 0.77202 0.05044 0.52974
 C263 C 0.77233 0.06878 0.55432
 C264 C 0.75019 0.06640 0.57563
 C265 C 0.72773 0.04547 0.57230
 C266 C 0.72739 0.02706 0.54763
 C267 C 0.72892 -0.05625 0.53575
 C268 C 0.73065 -0.07267 0.56163
 C269 C 0.75419 -0.06838 0.58112
 C270 C 0.77589 -0.04739 0.57473
 C271 C 0.77418 -0.03093 0.54880
 C272 C 0.72633 -0.03487 0.45273
 C273 C 0.72634 -0.05278 0.42770
 C274 C 0.74872 -0.07378 0.42370
 C275 C 0.77100 -0.07684 0.44481
 C276 C 0.77102 -0.05899 0.46976
 H277 H 0.79087 0.00669 0.45563
 H278 H 0.79338 0.03614 0.41027
 H279 H 0.71328 0.08133 0.43492
 H280 H 0.71056 0.05180 0.48007
 H281 H 0.78930 0.05264 0.51342
 H282 H 0.78975 0.08494 0.55662
 H283 H 0.70967 0.01128 0.54507
 H284 H 0.71074 -0.06004 0.52074
 H285 H 0.71385 -0.08898 0.56627
 H286 H 0.79433 -0.04408 0.58953
 H287 H 0.79146 -0.01525 0.54380
 H288 H 0.70874 -0.01894 0.45572
 H289 H 0.70890 -0.05035 0.41157
 H290 H 0.78836 -0.09307 0.44199
 H291 H 0.78849 -0.06161 0.48583
 H292 H 0.71039 0.04358 0.58859
 C293 C 0.50263 0.25138 0.01437
 C294 C 0.50394 0.25185 -0.01550
 C295 C 0.53247 0.25111 -0.03159
 C296 C 0.47686 0.25200 -0.03394
 C297 C 0.47406 0.25013 0.03037
 C298 C 0.52966 0.25117 0.03288
 C299 C 0.53859 0.27302 -0.05246
 C300 C 0.56431 0.27162 -0.06935
 C301 C 0.58414 0.24821 -0.06569
 C302 C 0.57832 0.22636 -0.04475
 C303 C 0.55255 0.22775 -0.02781
 C304 C 0.45530 0.27416 -0.03107
 C305 C 0.43012 0.27392 -0.04896
 C306 C 0.42643 0.25167 -0.06996
 C307 C 0.44797 0.22974 -0.07303
 C308 C 0.47306 0.22994 -0.05520
 C309 C 0.45416 0.22682 0.02591
 C310 C 0.42814 0.22516 0.04242
 C311 C 0.42190 0.24665 0.06363
 C312 C 0.44160 0.26994 0.06805
 C313 C 0.46758 0.27162 0.05158
 C314 C 0.53347 0.22870 0.05374
 C315 C 0.55823 0.22842 0.07201
 C316 C 0.57942 0.25069 0.06982
 C317 C 0.57579 0.27327 0.04913
 C318 C 0.55095 0.27357 0.03077
 H319 H 0.52324 0.29104 -0.05587
 H320 H 0.56848 0.28852 -0.08561
 H321 H 0.59338 0.20800 -0.04194
 H322 H 0.54792 0.21030 -0.01228
 H323 H 0.45807 0.29165 -0.01515
 H324 H 0.41365 0.29109 -0.04651
 H325 H 0.48948 0.21275 -0.05784
 H326 H 0.45906 0.20971 0.01008
 H327 H 0.41317 0.20690 0.03901
 H328 H 0.43709 0.28657 0.08452
 H329 H 0.48277 0.28960 0.05549
 H330 H 0.51726 0.21131 0.05580
 H331 H 0.56076 0.21091 0.08800
 H332 H 0.59198 0.29071 0.04737
 H333 H 0.54815 0.29138 0.01518
 H334 H 0.44538 0.21248 -0.08925
 C335 C 0.49811 0.74815 0.01487
 C336 C 0.49676 0.74773 -0.01500
 C337 C 0.52383 0.74764 -0.03346
 C338 C 0.46820 0.74848 -0.03107
 C339 C 0.47108 0.74829 0.03339
 C340 C 0.52669 0.74944 0.03087
 C341 C 0.52756 0.76973 -0.05471
 C342 C 0.55263 0.77000 -0.07255
 C343 C 0.57420 0.74809 -0.06952
 C344 C 0.57057 0.72581 -0.04854
 C345 C 0.54542 0.72551 -0.03063
 C346 C 0.44811 0.77181 -0.02723
 C347 C 0.42230 0.77319 -0.04413
 C348 C 0.41646 0.75138 -0.06509
 C349 C 0.43631 0.72800 -0.06882
 C350 C 0.46208 0.72660 -0.05198
 C351 C 0.44981 0.72588 0.03122
 C352 C 0.42495 0.72613 0.04955
 C353 C 0.42130 0.74866 0.07027
 C354 C 0.44248 0.77093 0.07253
 C355 C 0.46725 0.77071 0.05428
 C356 C 0.53321 0.72794 0.05208
 C357 C 0.55917 0.72966 0.06858
 C358 C 0.57882 0.75301 0.06421
 C359 C 0.57254 0.77450 0.04300
 C360 C 0.54654 0.77279 0.02645
 H361 H 0.51112 0.78691 -0.05732
 H362 H 0.55517 0.78728 -0.08877
 H363 H 0.58707 0.70866 -0.04612
 H364 H 0.54270 0.70800 -0.01471
 H365 H 0.45274 0.78923 -0.01167
 H366 H 0.40722 0.79152 -0.04126
 H367 H 0.47744 0.70860 -0.05544
 H368 H 0.45263 0.70811 0.01560
 H369 H 0.40877 0.70869 0.04773
 H370 H 0.43993 0.78841 0.08854
 H371 H 0.48345 0.78810 0.05639
 H372 H 0.51805 0.70992 0.05596
 H373 H 0.56370 0.71303 0.08504
 H374 H 0.58747 0.79280 0.03962
 H375 H 0.54161 0.78991 0.01063
 H376 H 0.43212 0.71113 -0.08511
 C377 C 0.01431 0.50039 0.24864
 C378 C -0.01577 0.50094 0.24870
 C379 C -0.03352 0.47349 0.24951
 C380 C -0.03275 0.52896 0.24717
 C381 C 0.03207 0.52783 0.24919
 C382 C 0.03127 0.47235 0.24725
 C383 C -0.05504 0.46866 0.22784
 C384 C -0.07253 0.44342 0.22859
 C385 C -0.06885 0.42276 0.25111
 C386 C -0.04750 0.42743 0.27291
 C387 C -0.02995 0.45275 0.27218
 C388 C -0.02873 0.54880 0.22381
 C389 C -0.04622 0.57417 0.22175
 C390 C -0.06800 0.57982 0.24289
 C391 C -0.07200 0.56018 0.26624
 C392 C -0.05455 0.53486 0.26832
 C393 C 0.02864 0.54871 0.27174
 C394 C 0.04629 0.57398 0.27228
 C395 C 0.06759 0.57844 0.25041
 C396 C 0.07110 0.55767 0.22799
 C397 C 0.05352 0.53248 0.22742
 C398 C 0.05314 0.46658 0.26840
 C399 C 0.07055 0.44122 0.26645
 C400 C 0.06646 0.42142 0.24325
 C401 C 0.04461 0.42695 0.22214
 C402 C 0.02715 0.45235 0.22405
 H403 H -0.05822 0.48445 0.21028
 H404 H -0.08905 0.44007 0.21168
 H405 H -0.04461 0.41166 0.29054
 H406 H -0.01383 0.45634 0.28939
 H407 H -0.01248 0.54434 0.20692
 H408 H -0.04308 0.58911 0.20347
 H409 H -0.05816 0.51971 0.28634
 H410 H 0.01257 0.54527 0.28903
 H411 H 0.04352 0.58984 0.28984
 H412 H 0.08758 0.56086 0.21102
 H413 H 0.05660 0.51659 0.20994
 H414 H 0.05682 0.48185 0.28629
 H415 H 0.08748 0.43725 0.28283
 H416 H 0.04139 0.41189 0.20397
 H417 H 0.01084 0.45671 0.20718
 H418 H -0.08888 0.56425 0.28264
 C419 C 0.01461 0.49997 0.75081
 C420 C -0.01546 0.50110 0.75076
 C421 C -0.03176 0.52946 0.75244
 C422 C -0.03385 0.47402 0.75003
 C423 C 0.03090 0.47160 0.75236
 C424 C 0.03301 0.52705 0.75033
 C425 C -0.02726 0.54901 0.77594
 C426 C -0.04406 0.57481 0.77811
 C427 C -0.06561 0.58116 0.75693
 C428 C -0.07011 0.56179 0.73345
 C429 C -0.05335 0.53604 0.73126
 C430 C -0.05556 0.46978 0.77165
 C431 C -0.07357 0.44487 0.77103
 C432 C -0.07024 0.42395 0.74872
 C433 C -0.04872 0.42804 0.72697
 C434 C -0.03065 0.45302 0.72755
 C435 C 0.05254 0.46515 0.73121
 C436 C 0.06930 0.43938 0.73332
 C437 C 0.06475 0.41988 0.75668
 C438 C 0.04313 0.42610 0.77781
 C439 C 0.02633 0.45190 0.77574
 C440 C 0.02993 0.54820 0.72796
 C441 C 0.04807 0.57314 0.72758
 C442 C 0.06955 0.57704 0.74941
 C443 C 0.07275 0.55597 0.77163
 C444 C 0.05468 0.53111 0.77204
 H445 H -0.01117 0.54400 0.79285
 H446 H -0.04058 0.58952 0.79650
 H447 H -0.08685 0.56641 0.71705
 H448 H -0.05732 0.52109 0.71314
 H449 H -0.05849 0.48575 0.78908
 H450 H -0.09019 0.44199 0.78791
 H451 H -0.01440 0.45613 0.71037
 H452 H 0.05654 0.48020 0.71319
 H453 H 0.08609 0.43487 0.71695
 H454 H 0.03961 0.41127 0.79612
 H455 H 0.01018 0.45679 0.79261
 H456 H 0.01373 0.54523 0.71070
 H457 H 0.04552 0.58922 0.71018
 H458 H 0.08934 0.55870 0.78857
 H459 H 0.05751 0.51502 0.78939
 H460 H -0.04608 0.41207 0.70949
 C461 C 0.33082 0.23853 0.13484
 C462 C 0.35086 0.24027 0.11749
 C463 C 0.37494 0.24235 0.09792
 C464 C 0.39605 0.24423 0.08188
 C465 C 0.66987 0.76134 0.13552
 C466 C 0.64982 0.75953 0.11816
 C467 C 0.62574 0.75739 0.09856
 C468 C 0.60465 0.75547 0.08250
 C469 C 0.67314 0.24063 -0.13954
 C470 C 0.65367 0.24229 -0.12154
 C471 C 0.63020 0.24422 -0.10122
 C472 C 0.60954 0.24596 -0.08458
 C473 C 0.32731 0.75921 -0.13879
 C474 C 0.34681 0.75747 -0.12084
 C475 C 0.37033 0.75544 -0.10055
 C476 C 0.39102 0.75366 -0.08395
 C477 C 0.13956 0.33152 0.23525
 C478 C 0.12206 0.35153 0.23673
 C479 C 0.10207 0.37536 0.23874
 C480 C 0.08551 0.39611 0.24067
 C481 C 0.14304 0.66659 0.75198
 C482 C 0.12550 0.64669 0.75053
 C483 C 0.10543 0.62295 0.74940
 C484 C 0.08876 0.60227 0.74903
 C485 C -0.14113 0.66969 0.23461
 C486 C -0.12363 0.64968 0.23613
 C487 C -0.10363 0.62585 0.23820
 C488 C -0.08706 0.60511 0.24020
 C489 C -0.14344 0.33415 0.75075
 C490 C -0.12596 0.35410 0.74937
 C491 C -0.10595 0.37791 0.74838
 C492 C -0.08936 0.39865 0.74814
 C493 C 0.24597 0.14468 0.33319
 C494 C 0.24797 0.12773 0.35347
 C495 C 0.24983 0.10827 0.37758
 C496 C 0.25083 0.09205 0.39853
 C497 C 0.75514 0.14144 0.66341
 C498 C 0.75323 0.12355 0.64396
 C499 C 0.75145 0.10304 0.62075
 C500 C 0.75049 0.08601 0.60046
 C501 C 0.24553 -0.14166 0.66400
 C502 C 0.24747 -0.12384 0.64448
 C503 C 0.24926 -0.10343 0.62118
 C504 C 0.25021 -0.08648 0.60083
 C505 C 0.75361 -0.14499 0.33275
 C506 C 0.75167 -0.12809 0.35307
 C507 C 0.74989 -0.10868 0.37722
 C508 C 0.74895 -0.09251 0.39820
 C509 C 0.66527 0.75442 -0.14092
 C510 C 0.64496 0.75209 -0.12396
 C511 C 0.62081 0.74988 -0.10448
 C512 C 0.59980 0.74863 -0.08826
 C513 C 0.33525 0.24550 -0.14126
 C514 C 0.35558 0.24782 -0.12432
 C515 C 0.37976 0.24999 -0.10487
 C516 C 0.40080 0.25119 -0.08867
 C517 C 0.33273 0.75421 0.14477
 C518 C 0.35234 0.75203 0.12699
 C519 C 0.37576 0.75002 0.10662
 C520 C 0.39624 0.74896 0.08972
 C521 C 0.66784 0.24526 0.14456
 C522 C 0.64827 0.24737 0.12672
 C523 C 0.62489 0.24932 0.10628
 C524 C 0.60445 0.25037 0.08933
 C525 C -0.13699 0.67211 0.76628
 C526 C -0.11971 0.65198 0.76441
 C527 C -0.10013 0.62789 0.76202
 C528 C -0.08402 0.60685 0.75980
 C529 C -0.14121 0.33251 0.24929
 C530 C -0.12374 0.35243 0.25073
 C531 C -0.10389 0.37631 0.25172
 C532 C -0.08754 0.39721 0.25187
 C533 C 0.13627 0.32901 0.76584
 C534 C 0.11895 0.34911 0.76402
 C535 C 0.09934 0.37318 0.76168
 C536 C 0.08320 0.39421 0.75950
 C537 C 0.14056 0.66822 0.24834
 C538 C 0.12295 0.64841 0.24977
 C539 C 0.10294 0.62467 0.25081
 C540 C 0.08645 0.60388 0.25104
 C541 C 0.76200 -0.13851 0.67272
 C542 C 0.76035 -0.12151 0.65246
 C543 C 0.75837 -0.10227 0.62819
 C544 C 0.75655 -0.08645 0.60699
 C545 C 0.23929 -0.13429 0.33044
 C546 C 0.24096 -0.11644 0.34995
 C547 C 0.24294 -0.09631 0.37347
 C548 C 0.24473 -0.07984 0.39415
 C549 C 0.76125 0.13398 0.33044
 C550 C 0.75959 0.11607 0.34990
 C551 C 0.75759 0.09587 0.37337
 C552 C 0.75577 0.07936 0.39401
 C553 C 0.23807 0.13783 0.67290
 C554 C 0.23971 0.12079 0.65267
 C555 C 0.24169 0.10152 0.62844
 C556 C 0.24350 0.08569 0.60726
   
