data_POSCAR
  _audit_creation_date              2014-09-24
  _audit_creation_method            'ToBaCCo'
  _symmetry_space_group_name_H-M    'P1'
  _symmetry_Int_Tables_number       1
  _symmetry_cell_setting            triclinic
  loop_
  _symmetry_equiv_pos_as_xyz
 x,y,z
_cell_length_a 29.8596
_cell_length_b 29.8915
_cell_length_c 29.8278
_cell_angle_alpha 90.120900
_cell_angle_beta 90.165300
_cell_angle_gamma 89.904900
loop_
  _atom_site_label
  _atom_site_type_symbol
  _atom_site_fract_x
  _atom_site_fract_y
  _atom_site_fract_z
C1 C 0.40256 1.02263 -0.53888
 C2 C 0.38084 1.02084 -0.49714
 C3 C 0.40365 1.01270 -0.45708
 C4 C 0.45064 1.00654 -0.45790
 C5 C 0.47427 1.01112 -0.49894
 C6 C 0.45037 1.02053 -0.53929
 C7 C 0.47536 1.03130 -0.57763
 C8 C 0.52171 1.02754 -0.57819
 C9 C 0.54585 1.01290 -0.54039
 C10 C 0.52208 1.00762 -0.49935
 C11 C 0.47482 0.99705 -0.41871
 C12 C 0.52092 0.99204 -0.41938
 C13 C 0.54586 0.99969 -0.45855
 C14 C 0.59356 0.99798 -0.45870
 C15 C 0.61547 0.99976 -0.50023
 C16 C 0.59323 1.00679 -0.54123
 H17 H 0.45997 1.04525 -0.60722
 H18 H 0.53808 1.03875 -0.60826
 H19 H 0.45874 0.99320 -0.38665
 H20 H 0.53604 0.98101 -0.38852
 H21 H 0.34466 1.02345 -0.49549
 H22 H 0.65154 0.99627 -0.50055
 C23 C -0.46064 1.59274 -0.00162
 C24 C -0.50095 1.61538 0.00529
 C25 C -0.54268 1.59356 0.00619
 C26 C -0.54297 1.54570 0.00397
 C27 C -0.50198 1.52202 -0.00281
 C28 C -0.46100 1.54577 -0.00684
 C29 C -0.42177 1.52204 -0.01739
 C30 C -0.42182 1.47572 -0.02076
 C31 C -0.46104 1.45098 -0.01350
 C32 C -0.50187 1.47433 -0.00580
 C33 C -0.58223 1.52040 0.01017
 C34 C -0.58233 1.47415 0.00572
 C35 C -0.54263 1.45018 -0.00182
 C36 C -0.54238 1.40287 -0.00617
 C37 C -0.50163 1.38070 -0.01279
 C38 C -0.46097 1.40361 -0.01555
 H39 H -0.39055 1.53893 -0.02408
 H40 H -0.39074 1.45978 -0.03018
 H41 H -0.61359 1.53520 0.01990
 H42 H -0.61431 1.45779 0.00867
 H43 H -0.49943 1.65150 0.00821
 H44 H -0.50149 1.34445 -0.01459
 C45 C 0.02031 0.45714 0.40614
 C46 C 0.01846 0.49870 0.38416
 C47 C 0.01080 0.53890 0.40679
 C48 C 0.00515 0.53838 0.45389
 C49 C 0.00972 0.49750 0.47777
 C50 C 0.01867 0.45701 0.45404
 C51 C 0.02947 0.41880 0.47924
 C52 C 0.02617 0.41853 0.52567
 C53 C 0.01195 0.45650 0.54969
 C54 C 0.00671 0.49739 0.52568
 C55 C -0.00381 0.57771 0.47793
 C56 C -0.00833 0.57734 0.52412
 C57 C -0.00072 0.53831 0.54930
 C58 C -0.00197 0.53842 0.59708
 C59 C -0.00024 0.49705 0.61923
 C60 C 0.00623 0.45594 0.59716
 H61 H 0.04313 0.38906 0.46396
 H62 H 0.03742 0.38851 0.54217
 H63 H -0.00760 0.60967 0.46168
 H64 H -0.01898 0.60834 0.53912
 H65 H 0.02070 0.50014 0.34792
 H66 H -0.00335 0.49692 0.65536
 O67 O -0.11689 0.99982 -0.06031
 O68 O 0.11382 0.99541 -0.05846
 O69 O -0.00304 1.05831 -0.11411
 O70 O 0.00073 0.93710 -0.11402
 O71 O -0.00034 0.88292 -0.05900
 O72 O -0.00270 1.11283 -0.05917
 O73 O 0.05919 0.99710 -0.11334
 O74 O -0.06167 0.99903 -0.11429
 Zr75 Zr -0.00138 0.99782 -0.07742
 O76 O 0.03904 0.95713 -0.03894
 O77 O -0.04209 1.03865 -0.03956
 C78 C -0.10317 1.00006 -0.10156
 C79 C 0.10052 0.99581 -0.09996
 C80 C -0.00350 1.09965 -0.10066
 C81 C 0.00092 0.89583 -0.10047
 H82 H 0.05803 1.05726 -0.05763
 O83 O 0.03883 1.03822 -0.03865
 H84 H -0.06100 0.93850 -0.05866
 O85 O -0.04202 0.95762 -0.03934
 O86 O 0.11311 0.99986 0.06314
 O87 O -0.11791 0.99712 0.06084
 O88 O 0.05915 1.11305 0.00400
 O89 O 0.05881 0.88253 0.00030
 O90 O -0.06256 0.88294 0.00306
 O91 O -0.06225 1.11360 -0.00047
 O92 O -0.00111 1.05886 0.11719
 O93 O -0.00449 0.93761 0.11705
 O94 O 0.00010 1.11305 0.06220
 O95 O -0.00274 0.88316 0.06207
 O96 O 0.11342 1.05796 0.00303
 O97 O -0.11671 1.05889 -0.00230
 O98 O -0.11696 0.93788 0.00134
 O99 O 0.11319 0.93728 0.00142
 O100 O 0.05788 1.00043 0.11717
 O101 O -0.06345 0.99714 0.11592
 Zr102 Zr 0.07692 0.99774 0.00207
 Zr103 Zr -0.08063 0.99828 0.00067
 Zr104 Zr -0.00170 1.07678 0.00154
 Zr105 Zr -0.00184 0.91932 0.00155
 Zr106 Zr -0.00251 0.99824 0.08040
 O107 O -0.04285 0.95761 0.04179
 O108 O 0.03851 1.03847 0.04245
 C109 C 0.09938 1.00132 0.10440
 C110 C -0.10478 0.99655 0.10237
 C111 C 0.10047 1.09938 0.00416
 C112 C 0.10016 0.89594 0.00039
 C113 C -0.10390 0.89648 0.00265
 C114 C -0.10356 1.10023 -0.00272
 C115 C 0.00053 1.10011 0.10369
 C116 C -0.00410 0.89627 0.10352
 H117 H -0.06183 1.05805 0.06047
 O118 O -0.04261 1.03876 0.04161
 H119 H 0.05738 0.93878 0.06178
 O120 O 0.03830 0.95771 0.04240
 C121 C 0.31882 1.02220 0.34992
 N122 N 0.30369 1.03513 0.39069
 N123 N 0.33107 1.03608 0.42590
 C124 C 0.37497 1.02439 0.42216
 N125 N 0.38987 1.01117 0.38110
 N126 N 0.36249 1.01029 0.34566
 C127 C 0.28751 1.01984 0.31191
 N128 N 0.30163 1.00926 0.26992
 N129 N 0.27240 1.00652 0.23608
 C130 C 0.22807 1.01405 0.24314
 N131 N 0.21412 1.02463 0.28508
 N132 N 0.24327 1.02754 0.31876
 C133 C 0.19519 1.01048 0.20659
 N134 N 0.15083 1.01367 0.21578
 N135 N 0.12050 1.01051 0.18317
 C136 C 0.13334 1.00419 0.14002
 N137 N 0.17777 1.00105 0.13069
 N138 N 0.20817 1.00403 0.16343
 C139 C -0.32480 1.00401 0.34664
 N140 N -0.30815 1.01276 0.38794
 N141 N -0.33491 1.01419 0.42335
 C142 C -0.37975 1.00714 0.41946
 N143 N -0.39631 0.99800 0.37784
 N144 N -0.36947 0.99665 0.34208
 C145 C -0.29389 1.00194 0.30848
 N146 N -0.30850 0.99598 0.26568
 N147 N -0.27933 0.99438 0.23183
 C148 C -0.23464 0.99852 0.23974
 N149 N -0.22028 1.00436 0.28249
 N150 N -0.24930 1.00610 0.31613
 C151 C -0.20166 0.99708 0.20334
 N152 N -0.15737 0.99886 0.21343
 N153 N -0.12675 0.99835 0.18115
 C154 C -0.13919 0.99614 0.13745
 N155 N -0.18355 0.99425 0.12719
 N156 N -0.21429 0.99466 0.15960
 C157 C -0.32257 0.99656 -0.34756
 N158 N -0.36546 1.01107 -0.34354
 N159 N -0.39287 1.01100 -0.37896
 C160 C -0.37885 0.99595 -0.41969
 N161 N -0.33566 0.98179 -0.42318
 N162 N -0.30822 0.98198 -0.38804
 C163 C -0.29125 0.99745 -0.30957
 N164 N -0.24742 0.98776 -0.31649
 N165 N -0.21826 0.98876 -0.28274
 C166 C -0.23180 0.99931 -0.24067
 N167 N -0.27572 1.00890 -0.23355
 N168 N -0.30496 1.00811 -0.26747
 C169 C -0.19894 1.00023 -0.20402
 N170 N -0.21174 1.00558 -0.16067
 N171 N -0.18132 1.00566 -0.12781
 C172 C -0.13710 1.00060 -0.13724
 N173 N -0.12444 0.99547 -0.18058
 N174 N -0.15477 0.99519 -0.21331
 C175 C 0.32049 1.00796 -0.34386
 N176 N 0.31634 1.04110 -0.37457
 N177 N 0.34359 1.04292 -0.40972
 C178 C 0.37608 1.01165 -0.41568
 N179 N 0.37974 0.97801 -0.38528
 N180 N 0.35274 0.97642 -0.34977
 C181 C 0.28915 1.00570 -0.30613
 N182 N 0.29797 0.98016 -0.26950
 N183 N 0.26886 0.97831 -0.23569
 C184 C 0.22975 1.00154 -0.23764
 N185 N 0.22100 1.02688 -0.27432
 N186 N 0.25025 1.02912 -0.30779
 C187 C 0.19667 0.99910 -0.20145
 N188 N 0.15375 1.01169 -0.20948
 N189 N 0.12328 1.01011 -0.17710
 C190 C 0.13463 0.99635 -0.13527
 N191 N 0.17765 0.98387 -0.12704
 N192 N 0.20812 0.98497 -0.15968
 C193 C 0.34564 1.31808 -0.00222
 N194 N 0.34950 1.35211 0.02777
 N195 N 0.38470 1.37952 0.02650
 C196 C 0.41683 1.37446 -0.00531
 N197 N 0.41292 1.34016 -0.03498
 N198 N 0.37809 1.31253 -0.03345
 C199 C 0.30798 1.28665 -0.00051
 N200 N 0.31078 1.24696 -0.02245
 N201 N 0.27719 1.21783 -0.02097
 C202 C 0.23928 1.22744 0.00209
 N203 N 0.23623 1.26730 0.02387
 N204 N 0.27012 1.29633 0.02278
 C205 C 0.20280 1.19464 0.00350
 N206 N 0.16067 1.20653 0.01593
 N207 N 0.12779 1.17634 0.01613
 C208 C 0.13607 1.13317 0.00437
 N209 N 0.17824 1.12138 -0.00772
 N210 N 0.21090 1.15157 -0.00838
 C211 C 0.34652 0.67757 0.00607
 N212 N 0.34240 0.63448 -0.00769
 N213 N 0.37774 0.60710 -0.00720
 C214 C 0.41850 0.62129 0.00754
 N215 N 0.42215 0.66472 0.02085
 N216 N 0.38707 0.69216 0.02024
 C217 C 0.30846 0.70872 0.00492
 N218 N 0.31522 0.75264 0.01412
 N219 N 0.28135 0.78156 0.01291
 C220 C 0.23933 0.76769 0.00264
 N221 N 0.23238 0.72367 -0.00646
 N222 N 0.26641 0.69468 -0.00545
 C223 C 0.20257 0.80036 0.00142
 N224 N 0.15927 0.78741 -0.00395
 N225 N 0.12638 0.81770 -0.00440
 C226 C 0.13574 0.86196 0.00030
 N227 N 0.17901 0.87473 0.00547
 N228 N 0.21176 0.84453 0.00611
 C229 C -0.34761 0.67601 -0.00482
 N230 N -0.38559 0.68701 -0.02726
 N231 N -0.42082 0.65985 -0.02704
 C232 C -0.41955 0.62053 -0.00439
 N233 N -0.38157 0.60958 0.01836
 N234 N -0.34611 0.63669 0.01792
 C235 C -0.30987 0.70742 -0.00394
 N236 N -0.26935 0.69555 0.01319
 N237 N -0.23572 0.72490 0.01434
 C238 C -0.24163 0.76719 -0.00126
 N239 N -0.28213 0.77892 -0.01828
 N240 N -0.31554 0.74958 -0.01973
 C241 C -0.20540 0.80030 0.00046
 N242 N -0.21457 0.84398 -0.00776
 N243 N -0.18218 0.87447 -0.00663
 C244 C -0.13929 0.86244 0.00247
 N245 N -0.12998 0.81868 0.01064
 N246 N -0.16252 0.78815 0.00984
 C247 C -0.34734 1.32079 -0.02045
 N248 N -0.38460 1.31079 -0.04456
 N249 N -0.42002 1.33787 -0.04395
 C250 C -0.41964 1.37609 -0.01924
 N251 N -0.38240 1.38589 0.00518
 N252 N -0.34679 1.35893 0.00434
 C253 C -0.30939 1.28949 -0.01961
 N254 N -0.26972 1.30099 -0.00040
 N255 N -0.23599 1.27172 0.00138
 C256 C -0.24092 1.22981 -0.01563
 N257 N -0.28055 1.21843 -0.03484
 N258 N -0.31408 1.24775 -0.03693
 C259 C -0.20472 1.19666 -0.01245
 N260 N -0.21333 1.15292 -0.02102
 N261 N -0.18104 1.12237 -0.01771
 C262 C -0.13879 1.13440 -0.00600
 N263 N -0.13001 1.17822 0.00237
 N264 N -0.16248 1.20880 -0.00059
 C265 C 0.01956 1.34572 0.32291
 N266 N 0.00787 1.34170 0.36666
 N267 N 0.00880 1.37722 0.39387
 C268 C 0.02185 1.41811 0.37871
 N269 N 0.03328 1.42160 0.33473
 N270 N 0.03227 1.38633 0.30752
 C271 C 0.01732 1.30760 0.29175
 N272 N 0.02503 1.31425 0.24747
 N273 N 0.02235 1.28050 0.21846
 C274 C 0.01199 1.23868 0.23255
 N275 N 0.00442 1.23182 0.27693
 N276 N 0.00694 1.26573 0.30603
 C277 C 0.00872 1.20209 0.19971
 N278 N 0.00238 1.15901 0.21270
 N279 N -0.00030 1.12631 0.18227
 C280 C 0.00306 1.13560 0.13781
 N281 N 0.00929 1.17865 0.12498
 N282 N 0.01213 1.21122 0.15532
 C283 C 0.00304 1.34425 -0.32036
 N284 N 0.01199 1.38544 -0.30379
 N285 N 0.01351 1.42071 -0.33070
 C286 C 0.00637 1.41678 -0.37560
 N287 N -0.00301 1.37528 -0.39205
 N288 N -0.00445 1.33967 -0.36508
 C289 C 0.00103 1.30616 -0.28936
 N290 N -0.00499 1.26349 -0.30402
 N291 N -0.00647 1.22968 -0.27485
 C292 C -0.00214 1.23746 -0.23011
 N293 N 0.00375 1.28008 -0.21568
 N294 N 0.00535 1.31370 -0.24471
 C295 C -0.00340 1.20100 -0.19717
 N296 N -0.00137 1.21082 -0.15278
 N297 N -0.00174 1.17845 -0.12227
 C298 C -0.00405 1.13491 -0.13491
 N299 N -0.00618 1.12493 -0.17936
 N300 N -0.00591 1.15743 -0.20999
 C301 C -0.00253 0.64978 -0.31952
 N302 N 0.01160 0.65353 -0.36255
 N303 N 0.01129 0.61804 -0.38980
 C304 C -0.00363 0.57751 -0.37548
 N305 N -0.01737 0.57429 -0.33214
 N306 N -0.01694 0.60949 -0.30487
 C307 C -0.00149 0.68786 -0.28835
 N308 N -0.01090 0.68114 -0.24443
 N309 N -0.00986 0.71494 -0.21540
 C310 C 0.00044 0.75688 -0.22915
 N311 N 0.00977 0.76381 -0.27317
 N312 N 0.00893 0.72982 -0.30228
 C313 C 0.00136 0.79356 -0.19635
 N314 N 0.00650 0.83683 -0.20921
 N315 N 0.00652 0.86966 -0.17879
 C316 C 0.00161 0.86027 -0.13451
 N317 N -0.00332 0.81702 -0.12181
 N318 N -0.00353 0.78434 -0.15213
 C319 C 0.00629 0.65168 0.32301
 N320 N 0.03905 0.62050 0.31874
 N321 N 0.04079 0.58548 0.34614
 C322 C 0.00981 0.58010 0.37893
 N323 N -0.02348 0.61096 0.38269
 N324 N -0.02497 0.64635 0.35553
 C325 C 0.00421 0.68940 0.29162
 N326 N -0.02084 0.72635 0.30055
 N327 N -0.02244 0.76020 0.27148
 C328 C 0.00057 0.75801 0.23229
 N329 N 0.02541 0.72101 0.22342
 N330 N 0.02740 0.68748 0.25262
 C331 C -0.00154 0.79435 0.19931
 N332 N 0.01106 0.78646 0.15637
 N333 N 0.00975 0.81897 0.12602
 C334 C -0.00373 0.86081 0.13751
 N335 N -0.01621 0.86890 0.18055
 N336 N -0.01537 0.83614 0.21090
   
