data_POSCAR
  _audit_creation_date              2014-09-24
  _audit_creation_method            'ToBaCCo'
  _symmetry_space_group_name_H-M    'P1'
  _symmetry_Int_Tables_number       1
  _symmetry_cell_setting            triclinic
  loop_
  _symmetry_equiv_pos_as_xyz
 x,y,z
_cell_length_a 64.2192
_cell_length_b 64.1811
_cell_length_c 22.5642
_cell_angle_alpha 89.966200
_cell_angle_beta 90.015400
_cell_angle_gamma 119.979300
loop_
  _atom_site_label
  _atom_site_type_symbol
  _atom_site_fract_x
  _atom_site_fract_y
  _atom_site_fract_z
O1 O 0.21114 0.46270 0.44348
 O2 O 0.25218 0.46282 0.55788
 O3 O 0.21146 0.46282 0.55858
 O4 O 0.25188 0.46279 0.44280
 O5 O 0.27165 0.50253 0.44263
 O6 O 0.23132 0.50256 0.55835
 O7 O 0.27197 0.50254 0.55763
 O8 O 0.23097 0.50244 0.44333
 Cu9 Cu 0.22967 0.45879 0.50072
 Cu10 Cu 0.25346 0.50650 0.50049
 C11 C 0.21395 0.48255 0.42435
 C12 C 0.26925 0.48271 0.57679
 C13 C 0.21437 0.48271 0.57770
 C14 C 0.26878 0.48267 0.42343
 O15 O 0.53717 -0.21097 0.55965
 O16 O 0.53729 -0.25178 0.44497
 O17 O 0.53723 -0.21110 0.44456
 O18 O 0.53712 -0.25175 0.56006
 O19 O 0.49743 -0.27156 0.55983
 O20 O 0.49751 -0.23101 0.44438
 O21 O 0.49758 -0.27163 0.44482
 O22 O 0.49748 -0.23083 0.55939
 Cu23 Cu 0.54119 -0.22941 0.50237
 Cu24 Cu 0.49352 -0.25325 0.50212
 C25 C 0.51730 -0.21377 0.57859
 C26 C 0.51744 -0.26878 0.42577
 C27 C 0.51737 -0.21403 0.42522
 C28 C 0.51724 -0.26877 0.57915
 O29 O 1.25150 0.78879 0.44381
 O30 O 1.21054 0.74778 0.55819
 O31 O 1.25130 0.78847 0.55890
 O32 O 1.21082 0.74808 0.44311
 O33 O 1.23070 0.72822 0.44305
 O34 O 1.27109 0.76852 0.55879
 O35 O 1.23038 0.72789 0.55806
 O36 O 1.27132 0.76887 0.44378
 Cu37 Cu 1.22905 0.77028 0.50103
 Cu38 Cu 1.25286 0.74638 0.50093
 C39 C 1.26851 0.78593 0.42474
 C40 C 1.21331 0.73067 0.57716
 C41 C 1.26823 0.78550 0.57809
 C42 C 1.21376 0.73114 0.42379
 O43 O 0.78883 0.53744 0.44360
 O44 O 0.74772 0.53739 0.55764
 O45 O 0.78842 0.53735 0.55870
 O46 O 0.74812 0.53740 0.44256
 O47 O 0.72831 0.49766 0.44253
 O48 O 0.76852 0.49760 0.55862
 O49 O 0.72789 0.49767 0.55753
 O50 O 0.76897 0.49770 0.44361
 Cu51 Cu 0.77027 0.54139 0.50065
 Cu52 Cu 0.74644 0.49368 0.50059
 C53 C 0.78602 0.51757 0.42461
 C54 C 0.73063 0.51752 0.57657
 C55 C 0.78546 0.51745 0.57796
 C56 C 0.73122 0.51753 0.42320
 O57 O 0.46282 0.25162 0.44375
 O58 O 0.46294 0.21059 0.55794
 O59 O 0.46297 0.25135 0.55885
 O60 O 0.46289 0.21095 0.44286
 O61 O 0.50261 0.23086 0.44269
 O62 O 0.50268 0.27118 0.55863
 O63 O 0.50264 0.23046 0.55770
 O64 O 0.50254 0.27148 0.44361
 Cu65 Cu 0.45891 0.22913 0.50090
 Cu66 Cu 0.50660 0.25299 0.50067
 C67 C 0.48267 0.26866 0.42465
 C68 C 0.48282 0.21336 0.57682
 C69 C 0.48285 0.26829 0.57800
 C70 C 0.48275 0.21391 0.42345
 O71 O 0.78946 0.25217 0.55813
 O72 O 0.74845 0.21103 0.44408
 O73 O 0.78909 0.25177 0.44305
 O74 O 0.74875 0.21144 0.55917
 O75 O 0.72891 0.23134 0.55899
 O76 O 0.76916 0.27159 0.44292
 O77 O 0.72857 0.23090 0.44397
 O78 O 0.76958 0.27200 0.55792
 Cu79 Cu 0.77094 0.22961 0.50115
 Cu80 Cu 0.74706 0.25345 0.50095
 C81 C 0.78668 0.26927 0.57700
 C82 C 0.73140 0.21385 0.42502
 C83 C 0.78611 0.26868 0.42364
 C84 C 0.73182 0.21439 0.57837
 N85 N 0.97464 0.52434 0.06345
 N86 N 0.95709 0.52902 0.07304
 N87 N 1.02520 0.53500 0.10423
 N88 N 1.04280 0.54683 0.14244
 N89 N 1.02524 0.54959 0.06334
 N90 N 1.04289 0.57179 0.07265
 N91 N 0.97467 0.50977 0.10428
 N92 N 0.95716 0.50411 0.14272
 C93 C 0.94632 0.51617 0.12252
 C94 C 1.05370 0.56971 0.12203
 N95 N 1.02519 0.47560 0.06330
 N96 N 1.04276 0.47094 0.07279
 N97 N 0.97463 0.46490 0.10415
 N98 N 0.95702 0.45305 0.14233
 N99 N 0.97459 0.45034 0.06322
 N100 N 0.95693 0.42815 0.07245
 N101 N 1.02516 0.49014 0.10418
 N102 N 1.04269 0.49579 0.14255
 Mn103 Mn 0.99991 0.49995 0.10482
 C104 C 1.05355 0.48377 0.12227
 C105 C 0.94611 0.43019 0.12184
 N106 N 1.02526 0.54966 -0.06449
 N107 N 1.04287 0.57187 -0.07394
 N108 N 0.97466 0.50986 -0.10532
 N109 N 0.95700 0.50408 -0.14337
 N110 N 0.97466 0.52439 -0.06437
 N111 N 0.95698 0.52891 -0.07346
 N112 N 1.02520 0.53508 -0.10539
 N113 N 1.04275 0.54694 -0.14373
 Mn114 Mn 0.99995 0.53725 -0.00052
 C115 C 1.05365 0.56982 -0.12341
 C116 C 0.94611 0.51604 -0.12278
 N117 N 0.97456 0.45037 -0.06460
 N118 N 0.95698 0.42815 -0.07413
 N119 N 1.02515 0.49020 -0.10543
 N120 N 1.04279 0.49599 -0.14354
 N121 N 1.02516 0.47565 -0.06452
 N122 N 1.04283 0.47111 -0.07370
 N123 N 0.97461 0.46497 -0.10545
 N124 N 0.95708 0.45314 -0.14385
 Mn125 Mn 0.99988 0.46273 -0.00065
 Mn126 Mn 0.99990 0.50003 -0.10602
 Cl127 Cl 0.99991 0.49999 -0.00060
 C128 C 0.94620 0.43024 -0.12361
 C129 C 1.05368 0.48402 -0.12303
 N130 N 0.47571 0.45051 0.06301
 N131 N 0.47106 0.42828 0.07260
 N132 N 0.46499 0.49038 0.10387
 N133 N 0.45315 0.49614 0.14210
 N134 N 0.45042 0.47586 0.06298
 N135 N 0.42823 0.47130 0.07230
 N136 N 0.49027 0.46509 0.10384
 N137 N 0.49593 0.45323 0.14226
 C138 C 0.48390 0.43034 0.12207
 C139 C 0.43029 0.48417 0.12169
 N140 N 0.52433 0.54981 0.06294
 N141 N 0.52898 0.57204 0.07253
 N142 N 0.53507 0.50993 0.10370
 N143 N 0.54693 0.50415 0.14186
 N144 N 0.54962 0.52447 0.06278
 N145 N 0.57181 0.52901 0.07199
 N146 N 0.50980 0.53521 0.10382
 N147 N 0.50415 0.54706 0.14227
 Mn148 Mn 0.50003 0.50015 0.10442
 C149 C 0.51616 0.56996 0.12205
 C150 C 0.56978 0.51612 0.12136
 N151 N 0.45037 0.47587 -0.06484
 N152 N 0.42816 0.47126 -0.07428
 N153 N 0.49019 0.46511 -0.10576
 N154 N 0.49600 0.45325 -0.14382
 N155 N 0.47568 0.45056 -0.06481
 N156 N 0.47120 0.42836 -0.07389
 N157 N 0.46493 0.49042 -0.10575
 N158 N 0.45306 0.49611 -0.14409
 Mn159 Mn 0.46279 0.46295 -0.00092
 C160 C 0.43020 0.48411 -0.12375
 C161 C 0.48408 0.43040 -0.12323
 N162 N 0.54960 0.52449 -0.06505
 N163 N 0.57181 0.52911 -0.07459
 N164 N 0.50975 0.53525 -0.10579
 N165 N 0.50396 0.54713 -0.14389
 N166 N 0.52429 0.54980 -0.06489
 N167 N 0.52880 0.57201 -0.07405
 N168 N 0.53502 0.50995 -0.10590
 N169 N 0.54686 0.50426 -0.14430
 Mn170 Mn 0.53721 0.53740 -0.00106
 Mn171 Mn 0.49997 0.50018 -0.10643
 Cl172 Cl 0.50000 0.50017 -0.00100
 C173 C 0.56974 0.51626 -0.12406
 C174 C 0.51591 0.56998 -0.12337
 N175 N 0.45041 -0.02537 0.06365
 N176 N 0.42818 -0.04294 0.07314
 N177 N 0.49027 0.02521 0.10441
 N178 N 0.49603 0.04284 0.14253
 N179 N 0.47577 0.02525 0.06343
 N180 N 0.47125 0.04294 0.07257
 N181 N 0.46495 -0.02535 0.10458
 N182 N 0.45308 -0.04288 0.14299
 C183 C 0.43021 -0.05373 0.12268
 C184 C 0.48411 0.05376 0.12196
 N185 N 0.54964 0.02513 0.06390
 N186 N 0.57186 0.04269 0.07349
 N187 N 0.50974 -0.02543 0.10478
 N188 N 0.50398 -0.04302 0.14309
 N189 N 0.52427 -0.02550 0.06395
 N190 N 0.52882 -0.04315 0.07339
 N191 N 0.53505 0.02513 0.10469
 N192 N 0.54690 0.04265 0.14309
 Mn193 Mn 0.50000 -0.00011 0.10523
 C194 C 0.56979 0.05348 0.12292
 C195 C 0.51594 -0.05394 0.12279
 N196 N 0.47582 0.02525 -0.06440
 N197 N 0.47123 0.04286 -0.07401
 N198 N 0.46503 -0.02540 -0.10503
 N199 N 0.45317 -0.04305 -0.14311
 N200 N 0.45048 -0.02538 -0.06417
 N201 N 0.42828 -0.04304 -0.07335
 N202 N 0.49036 0.02517 -0.10521
 N203 N 0.49607 0.04271 -0.14365
 Mn204 Mn 0.46287 -0.00006 -0.00038
 C205 C 0.48409 0.05363 -0.12348
 C206 C 0.43032 -0.05391 -0.12264
 N207 N 0.52432 -0.02555 -0.06387
 N208 N 0.52890 -0.04319 -0.07320
 N209 N 0.53515 0.02508 -0.10492
 N210 N 0.54702 0.04274 -0.14300
 N211 N 0.54966 0.02508 -0.06392
 N212 N 0.57186 0.04276 -0.07300
 N213 N 0.50981 -0.02549 -0.10482
 N214 N 0.50411 -0.04307 -0.14309
 Mn215 Mn 0.53723 -0.00021 0.00001
 Mn216 Mn 0.50009 -0.00016 -0.10562
 Cl217 Cl 0.50005 -0.00014 -0.00019
 C218 C 0.51606 -0.05399 -0.12266
 C219 C 0.56985 0.05363 -0.12238
 N220 N 1.16169 0.46160 0.32530
 C221 C 1.16391 0.48267 0.30624
 N222 N 1.18291 0.50367 0.32482
 N223 N 1.19915 0.50362 0.36152
 C224 C 1.19691 0.48256 0.38097
 N225 N 1.17792 0.46155 0.36201
 C226 C 1.14557 0.48279 0.27010
 C227 C 1.12986 0.48309 0.24149
 C228 C 1.11084 0.48370 0.20957
 N229 N 1.10137 0.49699 0.23040
 N230 N 1.08324 0.49713 0.20213
 C231 C 1.07395 0.48398 0.15207
 N232 N 1.08349 0.47072 0.13111
 N233 N 1.10164 0.47057 0.15945
 N234 N 0.49634 0.67925 0.32577
 C235 C 0.51733 0.68125 0.30709
 N236 N 0.53838 0.70002 0.32626
 N237 N 0.53844 0.71626 0.36316
 C238 C 0.51744 0.71423 0.38222
 N239 N 0.49639 0.69548 0.36267
 C240 C 0.51720 0.66284 0.27073
 C241 C 0.51689 0.64687 0.24193
 C242 C 0.51627 0.62726 0.20983
 N243 N 0.52938 0.63124 0.15967
 N244 N 0.52922 0.61295 0.13117
 C245 C 0.51595 0.59013 0.15200
 N246 N 0.50281 0.58622 0.20210
 N247 N 0.50297 0.60448 0.23053
 N248 N 0.32066 -0.18310 0.32531
 C249 C 0.31871 -0.16405 0.30668
 N250 N 0.29991 -0.16178 0.32566
 N251 N 0.28360 -0.17801 0.36236
 C252 C 0.28558 -0.19703 0.38137
 N253 N 0.30436 -0.19932 0.36200
 C254 C 0.33719 -0.14572 0.27055
 C255 C 0.35320 -0.13002 0.24193
 C256 C 0.37284 -0.11100 0.21001
 N257 N 0.36893 -0.10180 0.15983
 N258 N 0.38724 -0.08365 0.13149
 C259 C 0.41002 -0.07412 0.15250
 N260 N 0.41386 -0.08342 0.20261
 N261 N 0.39558 -0.10155 0.23089
 N262 N 0.81707 0.49640 0.32543
 C263 C 0.83609 0.51738 0.30681
 N264 N 0.83833 0.53846 0.32574
 N265 N 0.82209 0.53854 0.36236
 C266 C 0.80309 0.51754 0.38136
 N267 N 0.80083 0.49647 0.36205
 C268 C 0.85442 0.51724 0.27070
 C269 C 0.87011 0.51692 0.24206
 C270 C 0.88911 0.51629 0.21008
 N271 N 0.89830 0.52943 0.15994
 N272 N 0.91642 0.52927 0.13153
 C273 C 0.92595 0.51597 0.15242
 N274 N 0.91666 0.50281 0.20250
 N275 N 0.89856 0.50297 0.23085
 N276 N 0.46174 0.30006 0.32565
 C277 C 0.48279 0.31888 0.30660
 N278 N 0.50377 0.32084 0.32518
 N279 N 0.50372 0.30454 0.36189
 C280 C 0.48268 0.28575 0.38132
 N281 N 0.46168 0.28375 0.36236
 C282 C 0.48291 0.33734 0.27040
 C283 C 0.48321 0.35335 0.24171
 C284 C 0.48382 0.37298 0.20969
 N285 N 0.49713 0.39575 0.23042
 N286 N 0.49728 0.41403 0.20204
 C287 C 0.48412 0.41015 0.15198
 N288 N 0.47084 0.38734 0.13113
 N289 N 0.47069 0.36904 0.15957
 N290 N 0.67922 0.18278 0.32575
 C291 C 0.68119 0.16375 0.30719
 N292 N 0.70001 0.16151 0.32619
 N293 N 0.71631 0.17776 0.36282
 C294 C 0.71432 0.19677 0.38176
 N295 N 0.69552 0.19903 0.36238
 C296 C 0.66272 0.14542 0.27107
 C297 C 0.64672 0.12972 0.24243
 C298 C 0.62710 0.11071 0.21045
 N299 N 0.63105 0.10150 0.16037
 N300 N 0.61276 0.08337 0.13197
 C301 C 0.58996 0.07386 0.15281
 N302 N 0.58609 0.08317 0.20283
 N303 N 0.60435 0.10127 0.23117
 N304 N 0.46204 0.16198 -0.32614
 C305 C 0.48311 0.16415 -0.30751
 N306 N 0.50407 0.18313 -0.32640
 N307 N 0.50397 0.19936 -0.36306
 C308 C 0.48290 0.19715 -0.38226
 N309 N 0.46193 0.17821 -0.36280
 C310 C 0.48328 0.14580 -0.27144
 C311 C 0.48358 0.13008 -0.24285
 C312 C 0.48416 0.11102 -0.21091
 N313 N 0.49741 0.10150 -0.23172
 N314 N 0.49752 0.08334 -0.20342
 C315 C 0.48436 0.07406 -0.15335
 N316 N 0.47115 0.08365 -0.13241
 N317 N 0.47104 0.10184 -0.16077
 N318 N 0.67920 0.49630 -0.32663
 C319 C 0.68120 0.51728 -0.30783
 N320 N 0.70008 0.53836 -0.32652
 N321 N 0.71640 0.53845 -0.36317
 C322 C 0.71436 0.51746 -0.38254
 N323 N 0.69551 0.49638 -0.36327
 C324 C 0.66271 0.51714 -0.27178
 C325 C 0.64669 0.51683 -0.24322
 C326 C 0.62705 0.51624 -0.21133
 N327 N 0.63098 0.52937 -0.16121
 N328 N 0.61269 0.52924 -0.13289
 C329 C 0.58990 0.51601 -0.15388
 N330 N 0.58605 0.50286 -0.20394
 N331 N 0.60431 0.50299 -0.23220
 N332 N 0.81686 0.32073 -0.32626
 C333 C 0.83583 0.31874 -0.30740
 N334 N 0.83804 0.29985 -0.32603
 N335 N 0.82182 0.28351 -0.36267
 C336 C 0.80288 0.28555 -0.38210
 N337 N 0.80064 0.30441 -0.36290
 C338 C 0.85417 0.33724 -0.27135
 C339 C 0.86987 0.35327 -0.24279
 C340 C 0.88890 0.37291 -0.21089
 N341 N 0.89809 0.36897 -0.16075
 N342 N 0.91625 0.38727 -0.13243
 C343 C 0.92580 0.41007 -0.15342
 N344 N 0.91651 0.41394 -0.20350
 N345 N 0.89837 0.39567 -0.23176
 N346 N 0.49605 -0.18363 -0.32445
 C347 C 0.51701 -0.16467 -0.30554
 N348 N 0.53808 -0.16248 -0.32418
 N349 N 0.53819 -0.17869 -0.36088
 C350 C 0.51722 -0.19762 -0.38036
 N351 N 0.49615 -0.19984 -0.36114
 C352 C 0.51685 -0.14631 -0.26955
 C353 C 0.51654 -0.13057 -0.24108
 C354 C 0.51596 -0.11149 -0.20935
 N355 N 0.52907 -0.10227 -0.15922
 N356 N 0.52897 -0.08405 -0.13109
 C357 C 0.51578 -0.07446 -0.15226
 N358 N 0.50264 -0.08378 -0.20233
 N359 N 0.50273 -0.10198 -0.23040
 N360 N 0.32062 0.50398 -0.32623
 C361 C 0.31864 0.48302 -0.30731
 N362 N 0.29978 0.46193 -0.32597
 N363 N 0.28347 0.46181 -0.36270
 C364 C 0.28549 0.48279 -0.38219
 N365 N 0.30432 0.50388 -0.36295
 C366 C 0.33714 0.48319 -0.27122
 C367 C 0.35318 0.48351 -0.24267
 C368 C 0.37283 0.48412 -0.21082
 N369 N 0.36893 0.47099 -0.16068
 N370 N 0.38724 0.47112 -0.13243
 C371 C 0.41002 0.48436 -0.15348
 N372 N 0.41384 0.49752 -0.20356
 N373 N 0.39556 0.49740 -0.23175
 N374 N 1.18313 0.67928 -0.32580
 C375 C 1.16418 0.68131 -0.30694
 N376 N 1.16201 0.70022 -0.32566
 N377 N 1.17822 0.71652 -0.36239
 C378 C 1.19713 0.71444 -0.38182
 N379 N 1.19934 0.69557 -0.36253
 C380 C 1.14583 0.66283 -0.27086
 C381 C 1.13011 0.64680 -0.24231
 C382 C 1.11105 0.62716 -0.21047
 N383 N 1.10185 0.63108 -0.16034
 N384 N 1.08366 0.61278 -0.13209
 C385 C 1.07409 0.58999 -0.15314
 N386 N 1.08338 0.58614 -0.20321
 N387 N 1.10155 0.60441 -0.23140
 N388 N 0.83749 0.53815 -0.32245
 C389 C 0.83516 0.51703 -0.30350
 N390 N 0.81612 0.49609 -0.32216
 N391 N 0.79995 0.49624 -0.35889
 C392 C 0.80231 0.51734 -0.37827
 N393 N 0.82132 0.53831 -0.35919
 C394 C 0.85351 0.51681 -0.26774
 C395 C 0.86927 0.51644 -0.23955
 C396 C 0.88838 0.51583 -0.20821
 N397 N 0.89784 0.50261 -0.22961
 N398 N 0.91612 0.50253 -0.20194
 C399 C 0.92557 0.51569 -0.15197
 N400 N 0.91603 0.52887 -0.13045
 N401 N 0.89773 0.52895 -0.15818
 N402 N 0.46216 0.29968 -0.32253
 C403 C 0.48326 0.31848 -0.30372
 N404 N 0.50420 0.32037 -0.32241
 N405 N 0.50405 0.30403 -0.35905
 C406 C 0.48296 0.28527 -0.37830
 N407 N 0.46201 0.28333 -0.35918
 C408 C 0.48348 0.33707 -0.26803
 C409 C 0.48383 0.35319 -0.23989
 C410 C 0.48441 0.37291 -0.20859
 N411 N 0.49758 0.39559 -0.23003
 N412 N 0.49762 0.41394 -0.20239
 C413 C 0.48447 0.41021 -0.15240
 N414 N 0.47133 0.38749 -0.13084
 N415 N 0.47129 0.36912 -0.15854
 N416 N 0.70052 0.16233 -0.32198
 C417 C 0.68174 0.16465 -0.30309
 N418 N 0.67983 0.18370 -0.32180
 N419 N 0.69613 0.19989 -0.35853
 C420 C 0.71488 0.19753 -0.37785
 N421 N 0.71684 0.17852 -0.35871
 C422 C 0.66317 0.14629 -0.26733
 C423 C 0.64707 0.13052 -0.23914
 C424 C 0.62734 0.11139 -0.20781
 N425 N 0.63112 0.10204 -0.15773
 N426 N 0.61275 0.08373 -0.13001
 C427 C 0.59005 0.07419 -0.15157
 N428 N 0.58634 0.08364 -0.20158
 N429 N 0.60469 0.10193 -0.22925
 N430 N 1.18362 0.50404 -0.32274
 C431 C 1.16459 0.48308 -0.30405
 N432 N 1.16229 0.46198 -0.32287
 N433 N 1.17849 0.46183 -0.35953
 C434 C 1.19749 0.48280 -0.37865
 N435 N 1.19981 0.50390 -0.35939
 C436 C 1.14623 0.48330 -0.26830
 C437 C 1.13047 0.48364 -0.24010
 C438 C 1.11136 0.48424 -0.20870
 N439 N 1.10203 0.47109 -0.15866
 N440 N 1.08375 0.47117 -0.13087
 C441 C 1.07421 0.48436 -0.15231
 N442 N 1.08364 0.49754 -0.20229
 N443 N 1.10190 0.49748 -0.23003
 N444 N 0.53794 0.70076 -0.32322
 C445 C 0.51684 0.68191 -0.30455
 N446 N 0.49590 0.67995 -0.32348
 N447 N 0.49604 0.69626 -0.36027
 C448 C 0.51714 0.71506 -0.37956
 N449 N 0.53809 0.71708 -0.36001
 C450 C 0.51663 0.66334 -0.26872
 C451 C 0.51628 0.64722 -0.24047
 C452 C 0.51567 0.62749 -0.20906
 N453 N 0.50245 0.60481 -0.23037
 N454 N 0.50239 0.58646 -0.20262
 C455 C 0.51555 0.59018 -0.15265
 N456 N 0.52873 0.61291 -0.13121
 N457 N 0.52880 0.63128 -0.15902
 N458 N 0.32029 -0.18383 -0.32230
 C459 C 0.31842 -0.16475 -0.30367
 N460 N 0.29966 -0.16240 -0.32255
 N461 N 0.28331 -0.17858 -0.35920
 C462 C 0.28522 -0.19763 -0.37826
 N463 N 0.30395 -0.20001 -0.35895
 C464 C 0.33701 -0.14641 -0.26792
 C465 C 0.35312 -0.13067 -0.23972
 C466 C 0.37284 -0.11157 -0.20832
 N467 N 0.36904 -0.10222 -0.15831
 N468 N 0.38741 -0.08394 -0.13051
 C469 C 0.41013 -0.07444 -0.15191
 N470 N 0.41385 -0.08389 -0.20185
 N471 N 0.39551 -0.10214 -0.22960
 N472 N 0.49613 -0.18340 0.32484
 C473 C 0.51708 -0.16436 0.30619
 N474 N 0.53816 -0.16200 0.32541
 N475 N 0.53828 -0.17814 0.36238
 C476 C 0.51731 -0.19715 0.38143
 N477 N 0.49624 -0.19954 0.36180
 C478 C 0.51688 -0.14608 0.27001
 C479 C 0.51652 -0.13040 0.24143
 C480 C 0.51588 -0.11138 0.20962
 N481 N 0.52900 -0.10215 0.15951
 N482 N 0.52887 -0.08395 0.13133
 C483 C 0.51564 -0.07440 0.15243
 N484 N 0.50249 -0.08373 0.20247
 N485 N 0.50261 -0.10191 0.23060
 N486 N 0.30000 0.46191 0.32361
 C487 C 0.31870 0.48301 0.30442
 N488 N 0.32060 0.50397 0.32306
 N489 N 0.30436 0.50384 0.35999
 C490 C 0.28569 0.48275 0.37961
 N491 N 0.28374 0.46177 0.36056
 C492 C 0.33719 0.48323 0.26832
 C493 C 0.35323 0.48360 0.23983
 C494 C 0.37291 0.48424 0.20814
 N495 N 0.39561 0.49750 0.22924
 N496 N 0.41392 0.49762 0.20123
 C497 C 0.41013 0.48447 0.15120
 N498 N 0.38738 0.47125 0.12998
 N499 N 0.36905 0.47113 0.15804
 N500 N 1.18317 0.67931 0.32345
 C501 C 1.16416 0.68126 0.30475
 N502 N 1.16180 0.70000 0.32390
 N503 N 1.17793 0.71624 0.36085
 C504 C 1.19692 0.71425 0.37996
 N505 N 1.19930 0.69554 0.36040
 C506 C 1.14588 0.66279 0.26865
 C507 C 1.13020 0.64675 0.24015
 C508 C 1.11117 0.62708 0.20846
 N509 N 1.10191 0.63097 0.15837
 N510 N 1.08370 0.61264 0.13031
 C511 C 1.07417 0.58987 0.15153
 N512 N 1.08353 0.58606 0.20155
 N513 N 1.10172 0.60436 0.22955
 N514 N 0.46196 0.16199 0.32343
 C515 C 0.48304 0.16437 0.30420
 N516 N 0.50400 0.18339 0.32287
 N517 N 0.50388 0.19950 0.35988
 C518 C 0.48281 0.19710 0.37953
 N519 N 0.46184 0.17810 0.36045
 C520 C 0.48324 0.14609 0.26809
 C521 C 0.48360 0.13039 0.23963
 C522 C 0.48424 0.11134 0.20803
 N523 N 0.49747 0.10187 0.22924
 N524 N 0.49757 0.08364 0.20135
 C525 C 0.48443 0.07427 0.15132
 N526 N 0.47124 0.08382 0.12998
 N527 N 0.47113 0.10207 0.15793
 N528 N 0.70011 0.53832 0.32302
 C529 C 0.68141 0.51722 0.30384
 N530 N 0.67948 0.49626 0.32260
 N531 N 0.69569 0.49637 0.35964
 C532 C 0.71436 0.51746 0.37924
 N533 N 0.71634 0.53844 0.36006
 C534 C 0.66294 0.51702 0.26770
 C535 C 0.64689 0.51666 0.23921
 C536 C 0.62720 0.51601 0.20756
 N537 N 0.60451 0.50274 0.22872
 N538 N 0.58619 0.50263 0.20078
 C539 C 0.58996 0.51581 0.15077
 N540 N 0.61269 0.52904 0.12950
 N541 N 0.63104 0.52915 0.15749
 N542 N 0.83800 0.29982 0.32355
 C543 C 0.83560 0.31853 0.30433
 N544 N 0.81658 0.32047 0.32302
 N545 N 0.80049 0.30424 0.36005
 C546 C 0.80290 0.28555 0.37969
 N547 N 0.82190 0.28358 0.36058
 C548 C 0.85387 0.33702 0.26820
 C549 C 0.86955 0.35308 0.23971
 C550 C 0.88858 0.37276 0.20806
 N551 N 0.89804 0.39547 0.22922
 N552 N 0.91625 0.41379 0.20128
 C553 C 0.92562 0.41001 0.15126
 N554 N 0.91608 0.38726 0.12998
 N555 N 0.89785 0.36892 0.15797
   
