data_POSCAR
  _audit_creation_date              2014-09-24
  _audit_creation_method            'ToBaCCo'
  _symmetry_space_group_name_H-M    'P1'
  _symmetry_Int_Tables_number       1
  _symmetry_cell_setting            triclinic
  loop_
  _symmetry_equiv_pos_as_xyz
 x,y,z
_cell_length_a 28.1242
_cell_length_b 21.5604
_cell_length_c 22.2470
_cell_angle_alpha 90.287300
_cell_angle_beta 91.067900
_cell_angle_gamma 88.299800
loop_
  _atom_site_label
  _atom_site_type_symbol
  _atom_site_fract_x
  _atom_site_fract_y
  _atom_site_fract_z
C1 C 1.22730 0.19501 0.21266
 C2 C 1.25916 0.23690 0.17635
 C3 C 1.27937 0.28246 0.20921
 C4 C 1.26602 0.28195 0.27583
 C5 C 1.25877 0.17072 0.26448
 C6 C 1.27889 0.21588 0.29787
 C7 C 1.19065 0.23958 0.24232
 C8 C 1.21111 0.28560 0.27518
 H9 H 1.26096 0.23503 0.12774
 H10 H 1.28370 0.31852 0.30242
 H11 H 1.26373 0.12181 0.27463
 H12 H 1.15252 0.23609 0.23650
 C13 C 0.72709 -0.29973 0.20192
 C14 C 0.76137 -0.26002 0.16690
 C15 C 0.78399 -0.21747 0.20125
 C16 C 0.77041 -0.21897 0.26796
 C17 C 0.75678 -0.32822 0.25317
 C18 C 0.77889 -0.28629 0.28808
 C19 C 0.69277 -0.25302 0.23296
 C20 C 0.71573 -0.21050 0.26769
 H21 H 0.76298 -0.26045 0.11827
 H22 H 0.79053 -0.18608 0.29632
 H23 H 0.75571 -0.37687 0.26514
 H24 H 0.65439 -0.25476 0.22945
 C25 C 0.72531 0.19751 -0.28408
 C26 C 0.75599 0.23961 -0.31642
 C27 C 0.77713 0.28561 -0.27877
 C28 C 0.76309 0.28056 -0.21628
 C29 C 0.75538 0.17150 -0.23549
 C30 C 0.77634 0.21735 -0.19780
 C31 C 0.68994 0.23795 -0.25385
 C32 C 0.71123 0.28524 -0.21747
 H33 H 0.76181 0.23705 -0.36443
 H34 H 0.77907 0.31483 -0.18635
 H35 H 0.76213 0.12218 -0.22901
 H36 H 0.65194 0.23663 -0.26236
 C37 C 1.22337 -0.31290 -0.29235
 C38 C 1.25651 -0.27862 -0.33406
 C39 C 1.28100 -0.23295 -0.30648
 C40 C 1.26988 -0.22517 -0.23999
 C41 C 1.25508 -0.33527 -0.23944
 C42 C 1.27878 -0.28902 -0.21158
 C43 C 1.19091 -0.26151 -0.26536
 C44 C 1.21567 -0.21532 -0.23812
 H45 H 1.25511 -0.28372 -0.38255
 H46 H 1.29085 -0.18820 -0.21849
 H47 H 1.25615 -0.38260 -0.22322
 H48 H 1.15244 -0.26266 -0.26591
 C49 C 0.22930 0.21014 0.80286
 C50 C 0.25409 0.25979 0.83323
 C51 C 0.27618 0.30089 0.79345
 C52 C 0.27123 0.28349 0.73052
 C53 C 0.19480 0.24258 0.75685
 C54 C 0.21746 0.28064 0.71820
 C55 C 0.26696 0.17728 0.76385
 C56 C 0.28901 0.21579 0.72604
 H57 H 0.25337 0.26734 0.88143
 H58 H 0.29078 0.31360 0.70000
 H59 H 0.15721 0.23352 0.75306
 H60 H 0.27043 0.12721 0.75996
 C61 C 0.71961 0.71751 0.82213
 C62 C 0.75474 0.76183 0.84227
 C63 C 0.78291 0.78475 0.79520
 C64 C 0.77147 0.75728 0.73620
 C65 C 0.69154 0.74954 0.77494
 C66 C 0.72012 0.77191 0.72684
 C67 C 0.74618 0.66890 0.79134
 C68 C 0.77485 0.68973 0.74380
 H69 H 0.75534 0.78201 0.88703
 H70 H 0.79496 0.77231 0.70014
 H71 H 0.65336 0.75741 0.77666
 H72 H 0.74458 0.62041 0.80381
 C73 C 0.71910 0.17613 0.28049
 C74 C 0.74111 0.21686 0.32932
 C75 C 0.76654 0.26406 0.30771
 C76 C 0.76748 0.26649 0.23874
 C77 C 0.68938 0.22123 0.24076
 C78 C 0.71468 0.26834 0.21831
 C79 C 0.76097 0.15456 0.24134
 C80 C 0.78570 0.20181 0.21825
 H81 H 0.73522 0.21073 0.37689
 H82 H 0.78828 0.30577 0.22290
 H83 H 0.65255 0.21390 0.22825
 H84 H 0.76798 0.10651 0.22913
 C85 C 0.21474 0.68681 0.29593
 C86 C 0.23660 0.72667 0.34571
 C87 C 0.26579 0.77093 0.32474
 C88 C 0.26929 0.77188 0.25574
 C89 C 0.18910 0.73337 0.25382
 C90 C 0.21729 0.77768 0.23230
 C91 C 0.25735 0.66125 0.26045
 C92 C 0.28520 0.70568 0.23819
 H93 H 0.22948 0.72070 0.39296
 H94 H 0.29317 0.80791 0.23937
 H95 H 0.15222 0.72930 0.23971
 H96 H 0.26050 0.61332 0.24572
 O97 O 1.07786 0.08640 0.11267
 O98 O 1.12598 0.02677 0.05210
 C99 C 1.11928 0.06561 0.09564
 O100 O 0.93467 -0.11760 0.09665
 O101 O 0.88459 -0.04942 0.04534
 C102 C 0.89270 -0.09375 0.08382
 O103 O 1.07005 -0.12274 0.10388
 O104 O 1.12228 -0.07164 0.04519
 C105 C 1.11305 -0.10927 0.08807
 O106 O 0.94582 0.11075 0.10399
 O107 O 0.88905 0.05989 0.04866
 C108 C 0.90227 0.10186 0.08725
 Zr109 Zr 1.00919 0.06516 0.07799
 O110 O 1.00396 0.05378 0.17214
 O111 O 1.01891 0.16102 0.09219
 Zr112 Zr 1.00263 -0.09122 0.06615
 O113 O 0.99986 -0.10855 0.15935
 O114 O 1.00437 -0.18818 0.05031
 O115 O 1.04781 -0.01804 0.08403
 O116 O 0.96455 -0.00877 0.08280
 O117 O 0.94231 0.12232 -0.09653
 O118 O 0.88714 0.06247 -0.05109
 C119 C 0.89903 0.10947 -0.08300
 O120 O 1.06700 -0.10809 -0.12432
 O121 O 1.12110 -0.06260 -0.06091
 C122 C 1.11014 -0.09508 -0.10790
 O123 O 0.93521 -0.10198 -0.12093
 O124 O 0.88393 -0.04462 -0.06184
 C125 C 0.89311 -0.08247 -0.10641
 O126 O 1.07626 0.10331 -0.10308
 O127 O 1.12516 0.03638 -0.04909
 C128 C 1.11807 0.08144 -0.08655
 Zr129 Zr 1.00783 0.07671 -0.07383
 O130 O 1.00184 0.08132 -0.16875
 O131 O 1.01708 0.17376 -0.07020
 Zr132 Zr 1.00174 -0.08001 -0.08424
 O133 O 0.99785 -0.08306 -0.17913
 O134 O 1.00322 -0.17828 -0.08228
 Zr135 Zr 1.07516 -0.01405 -0.00345
 Zr136 Zr 0.93384 0.00082 -0.00404
 O137 O 0.96350 0.00380 -0.09032
 O138 O 1.04637 -0.00487 -0.09100
 O139 O 0.96695 0.08744 0.00267
 O140 O 1.04379 -0.10111 -0.00969
 O141 O 1.04970 0.07829 0.00322
 O142 O 0.95830 -0.09267 -0.01029
 H143 H 0.94352 -0.00710 0.11804
 H144 H 1.06556 -0.13801 -0.01222
 H145 H 0.94223 0.00984 -0.12593
 H146 H 1.07225 0.11265 0.00638
 H147 H 0.97194 -0.19984 0.03751
 H148 H 0.97124 -0.19150 -0.07083
 H149 H 1.00202 -0.04015 -0.19302
 H150 H 1.03020 0.05953 -0.18533
 H151 H 0.99362 0.19147 -0.04182
 H152 H 1.00382 0.18285 0.05754
 H153 H 1.03330 0.03157 0.18644
 H154 H 1.00433 -0.06822 0.17962
 O155 O 1.06355 0.58717 0.61454
 O156 O 1.11052 0.53074 0.54958
 C157 C 1.10473 0.56748 0.59511
 O158 O 0.92898 0.37654 0.60891
 O159 O 0.87317 0.43975 0.56097
 C160 C 0.88577 0.39730 0.59969
 O161 O 1.06205 0.37508 0.60390
 O162 O 1.10952 0.43075 0.54271
 C163 C 1.10326 0.39003 0.58415
 O164 O 0.92789 0.59962 0.61953
 O165 O 0.87374 0.54369 0.56483
 C166 C 0.88459 0.58295 0.60671
 Zr167 Zr 0.99380 0.56520 0.58265
 O168 O 0.99526 0.56635 0.67777
 O169 O 0.99611 0.66292 0.57907
 Zr170 Zr 0.99353 0.40677 0.57364
 O171 O 0.99520 0.39447 0.66788
 O172 O 0.99774 0.30931 0.56117
 O173 O 1.03591 0.48362 0.58703
 O174 O 0.95402 0.48696 0.59246
 O175 O 0.91803 0.61224 0.40940
 O176 O 0.86855 0.55427 0.46595
 C177 C 0.87662 0.59888 0.42882
 O178 O 1.04975 0.38738 0.38058
 O179 O 1.10380 0.43940 0.43895
 C180 C 1.09296 0.40390 0.39412
 O181 O 0.91481 0.38437 0.39722
 O182 O 0.86724 0.44417 0.45876
 C183 C 0.87348 0.40209 0.41760
 O184 O 1.04880 0.59481 0.38959
 O185 O 1.10458 0.53775 0.44394
 C186 C 1.09214 0.57585 0.40133
 Zr187 Zr 0.98483 0.57242 0.43180
 O188 O 0.97304 0.58385 0.33832
 O189 O 0.99230 0.66946 0.44121
 Zr190 Zr 0.98392 0.41489 0.42244
 O191 O 0.97215 0.41888 0.32825
 O192 O 0.98959 0.31683 0.41876
 Zr193 Zr 1.05878 0.48708 0.49755
 Zr194 Zr 0.91860 0.49254 0.50826
 O195 O 0.94253 0.49613 0.41932
 O196 O 1.02512 0.49262 0.41222
 O197 O 0.94682 0.58203 0.51107
 O198 O 1.03010 0.39816 0.49429
 O199 O 1.03111 0.57833 0.50461
 O200 O 0.94602 0.40066 0.50097
 H201 H 0.93584 0.48641 0.63013
 H202 H 1.05222 0.36178 0.49043
 H203 H 0.91871 0.49935 0.38601
 H204 H 1.05391 0.61252 0.50435
 H205 H 0.96572 0.29561 0.54883
 H206 H 0.96378 0.30067 0.44332
 H207 H 0.99754 0.44389 0.31129
 H208 H 0.98864 0.54786 0.31834
 H209 H 0.96718 0.68489 0.46856
 H210 H 0.99881 0.67710 0.62138
 H211 H 1.01754 0.53257 0.69095
 H212 H 1.01390 0.42855 0.68512
 O213 O 0.57527 0.09339 0.61445
 O214 O 0.62212 0.03035 0.55525
 C215 C 0.61640 0.07178 0.59716
 O216 O 0.43140 -0.11700 0.60872
 O217 O 0.38148 -0.04789 0.55859
 C218 C 0.38926 -0.09411 0.59456
 O219 O 0.56751 -0.12445 0.61284
 O220 O 0.61816 -0.07204 0.55297
 C221 C 0.60996 -0.11178 0.59469
 O222 O 0.44106 0.11247 0.61234
 O223 O 0.38577 0.05855 0.55770
 C224 C 0.39757 0.10137 0.59544
 Zr225 Zr 0.50603 0.06875 0.58423
 O226 O 0.50404 0.06038 0.67899
 O227 O 0.51028 0.16615 0.59368
 Zr228 Zr 0.49979 -0.08812 0.58090
 O229 O 0.49694 -0.08863 0.67588
 O230 O 0.50188 -0.18630 0.57892
 O231 O 0.54562 -0.01426 0.59262
 O232 O 0.46190 -0.00534 0.59446
 O233 O 0.43553 0.11752 0.40971
 O234 O 0.38227 0.06124 0.46219
 C235 C 0.39301 0.10646 0.42709
 O236 O 0.56008 -0.11622 0.38800
 O237 O 0.61461 -0.06844 0.44911
 C238 C 0.60358 -0.10251 0.40339
 O239 O 0.42390 -0.11464 0.40385
 O240 O 0.37779 -0.04859 0.46099
 C241 C 0.38286 -0.09401 0.42322
 O242 O 0.56588 0.08905 0.39098
 O243 O 0.61838 0.02866 0.44716
 C244 C 0.60797 0.06609 0.40307
 Zr245 Zr 0.50061 0.07161 0.43175
 O246 O 0.48936 0.07696 0.33759
 O247 O 0.51217 0.16816 0.43491
 Zr248 Zr 0.49418 -0.08572 0.42813
 O249 O 0.48331 -0.08572 0.33375
 O250 O 0.49797 -0.18392 0.42764
 Zr251 Zr 0.57020 -0.01529 0.50364
 Zr252 Zr 0.43027 -0.00043 0.50800
 O253 O 0.45580 -0.00227 0.41997
 O254 O 0.53840 -0.01120 0.41701
 O255 O 0.46224 0.08669 0.50954
 O256 O 0.53785 -0.10218 0.50274
 O257 O 0.54517 0.07730 0.50632
 O258 O 0.45450 -0.09407 0.50578
 H259 H 0.44086 -0.00323 0.62969
 H260 H 0.55871 -0.13996 0.50082
 H261 H 0.43217 0.00103 0.38646
 H262 H 0.56915 0.10995 0.50462
 H263 H 0.47438 -0.19946 0.55415
 H264 H 0.47095 -0.19834 0.45114
 H265 H 0.50849 -0.06069 0.31636
 H266 H 0.50911 0.04352 0.31921
 H267 H 0.48973 0.18652 0.46429
 H268 H 0.52724 0.18164 0.55854
 H269 H 0.53461 0.04093 0.69278
 H270 H 0.52475 -0.06600 0.69131
 O271 O 0.57145 0.58896 0.11934
 O272 O 0.61742 0.52887 0.05647
 C273 C 0.61224 0.56799 0.09998
 O274 O 0.42617 0.38545 0.10269
 O275 O 0.37596 0.45616 0.05481
 C276 C 0.38420 0.41020 0.09135
 O277 O 0.56208 0.37649 0.10439
 O278 O 0.61292 0.42965 0.04539
 C279 C 0.60461 0.38975 0.08670
 O280 O 0.43721 0.60978 0.11953
 O281 O 0.38103 0.56372 0.05924
 C282 C 0.39376 0.60242 0.10079
 Zr283 Zr 0.50148 0.56832 0.08786
 O284 O 0.49926 0.55500 0.18202
 O285 O 0.51066 0.66442 0.10189
 Zr286 Zr 0.49410 0.41238 0.07242
 O287 O 0.49228 0.39723 0.16612
 O288 O 0.49471 0.31533 0.05721
 O289 O 0.54018 0.48464 0.09033
 O290 O 0.45689 0.49446 0.09204
 O291 O 0.43278 0.63164 -0.08268
 O292 O 0.37823 0.57061 -0.03770
 C293 C 0.38978 0.61794 -0.06941
 O294 O 0.55404 0.39606 -0.11986
 O295 O 0.60916 0.44227 -0.05829
 C296 C 0.59745 0.40894 -0.10456
 O297 O 0.42124 0.40578 -0.11057
 O298 O 0.37308 0.46440 -0.04869
 C299 C 0.38004 0.42674 -0.09346
 O300 O 0.56479 0.61338 -0.09214
 O301 O 0.61475 0.54450 -0.04206
 C302 C 0.60676 0.59254 -0.07585
 Zr303 Zr 0.49733 0.58308 -0.06473
 O304 O 0.48986 0.58438 -0.15965
 O305 O 0.50434 0.68033 -0.06605
 Zr306 Zr 0.48983 0.42714 -0.07857
 O307 O 0.48236 0.43148 -0.17323
 O308 O 0.49051 0.32892 -0.08203
 Zr309 Zr 0.56527 0.49062 0.00182
 Zr310 Zr 0.42515 0.50664 0.00614
 O311 O 0.45210 0.51130 -0.08139
 O312 O 0.53536 0.50184 -0.08489
 O313 O 0.45839 0.59284 0.01385
 O314 O 0.53297 0.40415 -0.00545
 O315 O 0.54008 0.58288 0.01174
 O316 O 0.44851 0.41309 -0.00293
 H317 H 0.43651 0.49482 0.12790
 H318 H 0.55383 0.36657 -0.00971
 H319 H 0.42970 0.51822 -0.11578
 H320 H 0.56213 0.61771 0.01569
 H321 H 0.46297 0.30478 0.04093
 H322 H 0.46035 0.31525 -0.06493
 H323 H 0.50189 0.46602 -0.18660
 H324 H 0.52100 0.57175 -0.17655
 H325 H 0.50167 0.69464 -0.02398
 H326 H 0.48770 0.68675 0.07493
 H327 H 0.52940 0.53363 0.19466
 H328 H 0.51127 0.42999 0.18529
 C329 C 1.20802 0.14356 0.17503
 C330 C 1.23700 0.10038 0.14650
 C331 C 1.20711 0.06451 0.11416
 C332 C 1.16209 0.08821 0.12564
 O333 O 1.16235 0.13637 0.16260
 H334 H 1.27547 0.09685 0.14803
 H335 H 1.21703 0.02676 0.08432
 C336 C 1.19893 0.63533 0.67534
 C337 C 1.22360 0.58445 0.65268
 C338 C 1.19096 0.55209 0.62101
 C339 C 1.14863 0.58549 0.62651
 O340 O 1.15316 0.63621 0.65967
 H341 H 1.26130 0.57355 0.65730
 H342 H 1.19738 0.50968 0.59580
 C343 C 0.70650 0.15022 0.67704
 C344 C 0.73506 0.10763 0.64663
 C345 C 0.70487 0.07257 0.61353
 C346 C 0.65990 0.09594 0.62572
 O347 O 0.66059 0.14311 0.66433
 H348 H 0.77351 0.10327 0.64818
 H349 H 0.71450 0.03467 0.58362
 C350 C 0.70528 0.65048 0.16469
 C351 C 0.73229 0.60488 0.13663
 C352 C 0.70049 0.56639 0.11129
 C353 C 0.65639 0.59151 0.12549
 O354 O 0.65901 0.64264 0.15819
 H355 H 0.77069 0.60028 0.13545
 H356 H 0.70845 0.52569 0.08421
 C357 C 0.80762 -0.16480 0.17362
 C358 C 0.78848 -0.10531 0.17437
 C359 C 0.81704 -0.07188 0.13882
 C360 C 0.85199 -0.11320 0.11951
 O361 O 0.84636 -0.17002 0.14045
 H362 H 0.75671 -0.08881 0.19688
 H363 H 0.81349 -0.02279 0.12910
 C364 C 0.80771 0.33112 0.70063
 C365 C 0.82566 0.37829 0.73629
 C366 C 0.85403 0.41054 0.70046
 C367 C 0.85197 0.38146 0.64561
 O368 O 0.82434 0.33266 0.64508
 H369 H 0.82071 0.38835 0.78331
 H370 H 0.87573 0.44921 0.71350
 C371 C 0.30006 -0.18174 0.65938
 C372 C 0.27131 -0.13469 0.63626
 C373 C 0.30140 -0.09537 0.61018
 C374 C 0.34646 -0.12131 0.61939
 O375 O 0.34589 -0.17396 0.64979
 H376 H 0.23297 -0.12973 0.63861
 H377 H 0.29165 -0.05280 0.58684
 C378 C 0.30033 0.33589 0.17986
 C379 C 0.27690 0.39260 0.17464
 C380 C 0.30480 0.42701 0.13921
 C381 C 0.34349 0.38890 0.12573
 O382 O 0.34086 0.33318 0.15021
 H383 H 0.24282 0.40643 0.19300
 H384 H 0.29816 0.47463 0.12548
 C385 C 0.80966 0.20316 -0.15152
 C386 C 0.82805 0.24609 -0.11136
 C387 C 0.86228 0.21485 -0.07913
 C388 C 0.86217 0.15519 -0.10084
 O389 O 0.83027 0.14735 -0.14458
 H390 H 0.81888 0.29477 -0.10583
 H391 H 0.88572 0.23370 -0.04498
 C392 C 0.79791 0.69469 0.34679
 C393 C 0.77018 0.68995 0.39702
 C394 C 0.79593 0.65255 0.43578
 C395 C 0.83712 0.63757 0.40580
 O396 O 0.83829 0.66263 0.35192
 H397 H 0.73423 0.70802 0.40278
 H398 H 0.78571 0.63727 0.47985
 C399 C 0.30953 0.20095 0.35042
 C400 C 0.32030 0.24178 0.39623
 C401 C 0.35084 0.20945 0.43356
 C402 C 0.35585 0.15127 0.40813
 O403 O 0.33126 0.14605 0.35739
 H404 H 0.30814 0.28955 0.40136
 H405 H 0.36893 0.22683 0.47329
 C406 C 0.30715 0.70162 -0.15619
 C407 C 0.31841 0.74831 -0.11617
 C408 C 0.34855 0.72113 -0.07504
 C409 C 0.35251 0.65988 -0.09236
 O410 O 0.32777 0.64779 -0.14178
 H411 H 0.30732 0.79676 -0.11764
 H412 H 0.36734 0.74374 -0.03853
 C413 C 1.19388 -0.16321 -0.20466
 C414 C 1.21789 -0.11015 -0.18995
 C415 C 1.18922 -0.07821 -0.15184
 C416 C 1.14954 -0.11354 -0.14660
 O417 O 1.15181 -0.16511 -0.17901
 H418 H 1.25258 -0.09650 -0.20426
 H419 H 1.19634 -0.03430 -0.13020
 C420 C 1.18440 0.33634 0.30582
 C421 C 1.20488 0.39193 0.32000
 C422 C 1.17238 0.42370 0.35279
 C423 C 1.13368 0.38615 0.35603
 O424 O 1.14059 0.33258 0.32719
 H425 H 1.23986 0.40746 0.30901
 H426 H 1.17694 0.46865 0.37360
 C427 C 0.69188 -0.16367 0.30629
 C428 C 0.71586 -0.11423 0.33015
 C429 C 0.68577 -0.08705 0.36929
 C430 C 0.64464 -0.12033 0.36594
 O431 O 0.64794 -0.16733 0.32728
 H432 H 0.75144 -0.09962 0.32110
 H433 H 0.69296 -0.04687 0.39701
 C434 C 0.68672 0.33587 -0.19085
 C435 C 0.70813 0.39155 -0.17797
 C436 C 0.67614 0.42579 -0.14701
 C437 C 0.63705 0.38946 -0.14288
 O438 O 0.64255 0.33494 -0.17056
 H439 H 0.74297 0.40656 -0.18969
 H440 H 0.68111 0.47160 -0.12814
 C441 C 1.20823 0.16565 -0.15383
 C442 C 1.23613 0.13165 -0.11355
 C443 C 1.20574 0.09564 -0.08410
 C444 C 1.16126 0.11015 -0.10826
 O445 O 1.16244 0.15296 -0.15075
 H446 H 1.27433 0.13290 -0.10701
 H447 H 1.21487 0.06282 -0.04875
 C448 C 1.18158 0.63723 0.31418
 C449 C 1.16462 0.59404 0.27362
 C450 C 1.12979 0.56478 0.30243
 C451 C 1.12804 0.59202 0.35832
 O452 O 1.15899 0.63655 0.36590
 H453 H 1.17492 0.58704 0.22739
 H454 H 1.10735 0.52891 0.28450
 C455 C 0.69046 0.12462 0.30464
 C456 C 0.67839 0.07264 0.27200
 C457 C 0.64813 0.04197 0.30734
 C458 C 0.64417 0.07725 0.35884
 O459 O 0.66882 0.12824 0.35695
 H460 H 0.68867 0.06020 0.22678
 H461 H 0.62898 0.00067 0.29566
 C462 C 0.69389 0.69106 -0.12973
 C463 C 0.71637 0.67192 -0.07662
 C464 C 0.68656 0.63241 -0.05074
 C465 C 0.64798 0.62956 -0.08939
 O466 O 0.65206 0.66477 -0.13756
 H467 H 0.75199 0.68190 -0.06085
 H468 H 0.69254 0.60764 -0.00903
 C469 C 0.81290 -0.16530 -0.19457
 C470 C 0.83070 -0.12839 -0.23881
 C471 C 0.85823 -0.08696 -0.20909
 C472 C 0.85551 -0.10119 -0.14887
 O473 O 0.82807 -0.14896 -0.13989
 H474 H 0.82507 -0.13135 -0.28694
 H475 H 0.88079 -0.05330 -0.22927
 C476 C 0.78460 0.31316 0.34759
 C477 C 0.75667 0.34317 0.38951
 C478 C 0.78617 0.38185 0.41949
 C479 C 0.83027 0.37224 0.39425
 O480 O 0.82949 0.33052 0.35016
 H481 H 0.71930 0.33684 0.39759
 H482 H 0.77696 0.41221 0.45667
 C483 C 0.28855 -0.18334 0.36478
 C484 C 0.26493 -0.15457 0.41132
 C485 C 0.29691 -0.11630 0.43712
 C486 C 0.33830 -0.12483 0.40522
 O487 O 0.33335 -0.16561 0.36071
 H488 H 0.22852 -0.16060 0.42454
 H489 H 0.29105 -0.08649 0.47569
 C490 C 0.29905 0.35388 -0.18660
 C491 C 0.30631 0.40546 -0.22148
 C492 C 0.33280 0.44340 -0.18634
 C493 C 0.34011 0.41217 -0.13298
 O494 O 0.31961 0.35785 -0.13278
 H495 H 0.29454 0.41425 -0.26732
 H496 H 0.34846 0.48635 -0.19975
 C497 C 1.20015 -0.17904 0.18490
 C498 C 1.22974 -0.14422 0.15086
 C499 C 1.20080 -0.11553 0.10955
 C500 C 1.15534 -0.13407 0.12147
 O501 O 1.15474 -0.17291 0.16732
 H502 H 1.26801 -0.14134 0.15416
 H503 H 1.21165 -0.08456 0.07459
 C504 C 1.19520 0.31267 0.66577
 C505 C 1.22118 0.33275 0.61782
 C506 C 1.18964 0.36298 0.58114
 C507 C 1.14647 0.35930 0.60880
 O508 O 1.14937 0.32836 0.66023
 H509 H 1.25877 0.32635 0.60974
 H510 H 1.19726 0.38564 0.53922
 C511 C 0.70098 -0.19363 0.67777
 C512 C 0.72787 -0.17134 0.63158
 C513 C 0.69690 -0.13930 0.59524
 C514 C 0.65290 -0.14386 0.62087
 O515 O 0.65503 -0.17710 0.67114
 H516 H 0.76564 -0.17663 0.62437
 H517 H 0.70554 -0.11482 0.55468
 C518 C 0.69505 0.31162 0.17226
 C519 C 0.72328 0.34533 0.13536
 C520 C 0.69277 0.37698 0.09827
 C521 C 0.64774 0.36090 0.11495
 O522 O 0.64884 0.32078 0.16000
 H523 H 0.76161 0.34643 0.13448
 H524 H 0.70233 0.40871 0.06324
 C525 C 0.82116 0.19161 0.17072
 C526 C 0.84117 0.23858 0.13876
 C527 C 0.87144 0.20967 0.10016
 C528 C 0.86749 0.14720 0.11061
 O529 O 0.83732 0.13578 0.15385
 H530 H 0.83565 0.28811 0.14358
 H531 H 0.89548 0.23155 0.06990
 C532 C 0.79752 0.64649 0.70516
 C533 C 0.78085 0.58725 0.69716
 C534 C 0.81041 0.55902 0.65804
 C535 C 0.84439 0.60148 0.64555
 O536 O 0.83654 0.65570 0.67340
 H537 H 0.74961 0.56713 0.71584
 H538 H 0.80787 0.51214 0.64099
 C539 C 0.31230 0.19137 0.67232
 C540 C 0.28921 0.18912 0.61734
 C541 C 0.31899 0.15598 0.58140
 C542 C 0.35828 0.14100 0.61700
 O543 O 0.35430 0.16188 0.67273
 H544 H 0.25372 0.20640 0.60589
 H545 H 0.31233 0.14260 0.53514
 C546 C 0.31266 0.69211 0.18421
 C547 C 0.29647 0.70892 0.12759
 C548 C 0.32494 0.67687 0.08901
 C549 C 0.35663 0.64354 0.12499
 O550 O 0.34914 0.65197 0.18296
 H551 H 0.26555 0.73756 0.11582
 H552 H 0.32240 0.67670 0.04047
   
