data_POSCAR
  _audit_creation_date              2014-09-24
  _audit_creation_method            'ToBaCCo'
  _symmetry_space_group_name_H-M    'P1'
  _symmetry_Int_Tables_number       1
  _symmetry_cell_setting            triclinic
  loop_
  _symmetry_equiv_pos_as_xyz
 x,y,z
_cell_length_a 20.5574
_cell_length_b 18.6189
_cell_length_c 18.3098
_cell_angle_alpha 89.792800
_cell_angle_beta 90.478500
_cell_angle_gamma 89.779900
loop_
  _atom_site_label
  _atom_site_type_symbol
  _atom_site_fract_x
  _atom_site_fract_y
  _atom_site_fract_z
Si1 Si 1.24805 0.25256 0.24503
 Si2 Si 0.74939 -0.24950 0.25071
 Si3 Si 0.74911 0.25000 -0.24935
 Si4 Si 1.25075 -0.24834 -0.25578
 Si5 Si 0.25132 0.24915 0.75423
 Si6 Si 0.74951 0.74563 0.74730
 Si7 Si 0.75007 0.24720 0.24873
 Si8 Si 0.24824 0.75031 0.25345
 O9 O 1.09097 0.11862 0.13092
 O10 O 1.16378 0.05446 0.06247
 C11 C 1.14975 0.10109 0.11244
 O12 O 0.90897 -0.13472 0.12889
 O13 O 0.83663 -0.06712 0.06121
 C14 C 0.85035 -0.11591 0.10974
 O15 O 1.09034 -0.12377 0.14327
 O16 O 1.16292 -0.06884 0.06697
 C17 C 1.14919 -0.10947 0.12242
 O18 O 0.91047 0.12861 0.11914
 O19 O 0.83716 0.05855 0.05673
 C20 C 0.85165 0.11037 0.10108
 Zr21 Zr 1.00060 0.08468 0.08865
 O22 O 0.99621 0.08097 0.20390
 O23 O 1.00832 0.19805 0.08922
 Zr24 Zr 1.00006 -0.09571 0.09432
 O25 O 0.99219 -0.09576 0.20945
 O26 O 1.00896 -0.20911 0.09497
 O27 O 1.05852 -0.00535 0.10647
 O28 O 0.94318 -0.00454 0.10419
 O29 O 0.91039 0.12298 -0.13055
 O30 O 0.83741 0.05397 -0.06744
 C31 C 0.85152 0.10416 -0.11405
 O32 O 1.09133 -0.13433 -0.13038
 O33 O 1.16393 -0.07192 -0.05912
 C34 C 1.15002 -0.11759 -0.11011
 O35 O 0.90971 -0.14154 -0.12465
 O36 O 0.83713 -0.06993 -0.06374
 C37 C 0.85099 -0.12116 -0.10902
 O38 O 1.09241 0.11260 -0.13522
 O39 O 1.16484 0.04978 -0.06298
 C40 C 1.15111 0.09532 -0.11464
 Zr41 Zr 1.00091 0.07990 -0.09549
 O42 O 0.99327 0.07382 -0.21075
 O43 O 1.00899 0.19299 -0.10258
 Zr44 Zr 1.00046 -0.10069 -0.08944
 O45 O 0.99327 -0.10626 -0.20466
 O46 O 1.00806 -0.21403 -0.08338
 Zr47 Zr 1.09808 -0.00848 0.00078
 Zr48 Zr 0.90272 -0.00693 -0.00175
 O49 O 0.94393 -0.01022 -0.10663
 O50 O 1.05906 -0.01114 -0.10620
 O51 O 0.94275 0.09719 -0.00458
 O52 O 1.05720 -0.11196 0.00369
 O53 O 1.05730 0.09535 -0.00306
 O54 O 0.94176 -0.11192 0.00213
 H55 H 0.91375 -0.00289 0.14676
 H56 H 1.08678 -0.15409 0.00580
 H57 H 0.91497 -0.01083 -0.15016
 H58 H 1.08621 0.13780 -0.00371
 H59 H 0.97035 -0.22882 0.06955
 H60 H 0.97005 -0.23178 -0.05602
 H61 H 1.02561 -0.07259 -0.22485
 H62 H 1.03300 0.04985 -0.22883
 H63 H 0.97663 0.21382 -0.06901
 H64 H 0.97590 0.21708 0.05389
 H65 H 0.99665 0.13154 0.22062
 H66 H 1.01571 -0.05293 0.22730
 O67 O 1.09016 0.62492 0.62902
 O68 O 1.16333 0.56110 0.56084
 C69 C 1.14897 0.60761 0.61070
 O70 O 0.91053 0.36875 0.62589
 O71 O 0.83714 0.43719 0.56081
 C72 C 0.85157 0.38741 0.60818
 O73 O 1.09116 0.37800 0.63559
 O74 O 1.16364 0.43797 0.56304
 C75 C 1.14981 0.39351 0.61532
 O76 O 0.90882 0.63165 0.62172
 O77 O 0.83641 0.56105 0.55885
 C78 C 0.85015 0.61180 0.60481
 Zr79 Zr 0.99961 0.59019 0.58813
 O80 O 0.99237 0.59149 0.70347
 O81 O 1.00650 0.70365 0.58656
 Zr82 Zr 1.00061 0.40905 0.59029
 O83 O 0.99521 0.40194 0.70530
 O84 O 1.00457 0.29591 0.58185
 O85 O 1.05829 0.49994 0.60448
 O86 O 0.94364 0.49962 0.60270
 O87 O 0.90876 0.63060 0.37090
 O88 O 0.83641 0.56023 0.43353
 C89 C 0.85016 0.61116 0.38776
 O90 O 1.09131 0.37345 0.36676
 O91 O 1.16386 0.43677 0.43724
 C92 C 1.15000 0.39058 0.38668
 O93 O 0.90995 0.36414 0.37432
 O94 O 0.83707 0.43579 0.43486
 C95 C 0.85116 0.38404 0.39034
 O96 O 1.09082 0.62129 0.36230
 O97 O 1.16347 0.56043 0.43562
 C98 C 1.14980 0.60540 0.38326
 Zr99 Zr 0.99975 0.58819 0.40429
 O100 O 0.99100 0.58516 0.28900
 O101 O 1.00760 0.70147 0.40033
 Zr102 Zr 1.00034 0.40766 0.40695
 O103 O 0.99216 0.40815 0.29154
 O104 O 1.00775 0.29425 0.40729
 Zr105 Zr 1.09787 0.49897 0.49848
 Zr106 Zr 0.90226 0.49871 0.49718
 O107 O 0.94297 0.49777 0.39191
 O108 O 1.05853 0.49781 0.39164
 O109 O 0.94130 0.60340 0.49563
 O110 O 1.05758 0.39517 0.49939
 O111 O 1.05628 0.60259 0.49651
 O112 O 0.94207 0.39424 0.49858
 H113 H 0.91505 0.49993 0.64601
 H114 H 1.08689 0.35279 0.50041
 H115 H 0.91353 0.49728 0.34880
 H116 H 1.08495 0.64525 0.49588
 H117 H 1.00545 0.27721 0.63259
 H118 H 0.97843 0.27626 0.44578
 H119 H 1.02973 0.43493 0.27209
 H120 H 1.02857 0.55775 0.27017
 H121 H 0.97449 0.72136 0.43356
 H122 H 0.96954 0.72242 0.55719
 H123 H 1.03093 0.56627 0.72384
 H124 H 1.01344 0.44705 0.72471
 O125 O 0.59027 0.12245 0.63000
 O126 O 0.66223 0.05816 0.56057
 C127 C 0.64886 0.10431 0.61133
 O128 O 0.40568 -0.12780 0.62503
 O129 O 0.33371 -0.05795 0.55918
 C130 C 0.34721 -0.10761 0.60669
 O131 O 0.58762 -0.12496 0.63421
 O132 O 0.66079 -0.06511 0.56236
 C133 C 0.64655 -0.11004 0.61408
 O134 O 0.40994 0.13386 0.62054
 O135 O 0.33591 0.06747 0.55534
 C136 C 0.35086 0.11749 0.60163
 Zr137 Zr 0.49947 0.09020 0.58707
 O138 O 0.49314 0.09111 0.70241
 O139 O 0.50864 0.20344 0.58510
 Zr140 Zr 0.49717 -0.09065 0.59001
 O141 O 0.49797 -0.09757 0.70551
 O142 O 0.49760 -0.20388 0.58218
 O143 O 0.55647 -0.00119 0.60363
 O144 O 0.44138 0.00128 0.60166
 O145 O 0.40861 0.13101 0.36831
 O146 O 0.33521 0.06323 0.43216
 C147 C 0.34967 0.11287 0.38526
 O148 O 0.58740 -0.12891 0.36624
 O149 O 0.66070 -0.06599 0.43619
 C150 C 0.64633 -0.11226 0.38598
 O151 O 0.40491 -0.13761 0.37796
 O152 O 0.33375 -0.06058 0.43379
 C153 C 0.34632 -0.11521 0.39231
 O154 O 0.58995 0.12037 0.36242
 O155 O 0.66204 0.05681 0.43430
 C156 C 0.64852 0.10293 0.38297
 Zr157 Zr 0.49894 0.08758 0.40305
 O158 O 0.49113 0.08324 0.28772
 O159 O 0.50771 0.20074 0.39830
 Zr160 Zr 0.49659 -0.09287 0.40632
 O161 O 0.48707 -0.09116 0.29104
 O162 O 0.50291 -0.20626 0.40421
 Zr163 Zr 0.59582 -0.00322 0.49774
 Zr164 Zr 0.40028 0.00092 0.49605
 O165 O 0.44070 -0.00177 0.39078
 O166 O 0.55633 -0.00397 0.39086
 O167 O 0.44127 0.10456 0.49440
 O168 O 0.55369 -0.10612 0.49890
 O169 O 0.55601 0.10113 0.49538
 O170 O 0.43839 -0.10450 0.49825
 H171 H 0.41178 0.00323 0.64399
 H172 H 0.58224 -0.14913 0.49987
 H173 H 0.41100 -0.00227 0.34789
 H174 H 0.58539 0.14319 0.49523
 H175 H 0.49810 -0.22232 0.63302
 H176 H 0.47819 -0.22427 0.44659
 H177 H 0.52618 -0.06751 0.27121
 H178 H 0.52916 0.05617 0.26952
 H179 H 0.47456 0.22120 0.43116
 H180 H 0.47251 0.22289 0.55490
 H181 H 0.52504 0.05557 0.72140
 H182 H 0.47252 -0.05672 0.72456
 O183 O 0.59281 0.62900 0.13197
 O184 O 0.66529 0.56397 0.06388
 C185 C 0.65142 0.61096 0.11348
 O186 O 0.41004 0.37460 0.12943
 O187 O 0.33763 0.44447 0.06451
 C188 C 0.35143 0.39421 0.11134
 O189 O 0.59082 0.38126 0.14012
 O190 O 0.66395 0.44069 0.06787
 C191 C 0.64955 0.39665 0.12032
 O192 O 0.41160 0.64130 0.11943
 O193 O 0.33833 0.56792 0.06141
 C194 C 0.35249 0.62172 0.10337
 Zr195 Zr 0.50185 0.59505 0.09117
 O196 O 0.49285 0.59423 0.20637
 O197 O 0.51094 0.70818 0.09323
 Zr198 Zr 0.50081 0.41482 0.09587
 O199 O 0.49270 0.41823 0.21102
 O200 O 0.50833 0.30142 0.09978
 O201 O 0.55986 0.50465 0.10845
 O202 O 0.44437 0.50594 0.10661
 O203 O 0.41132 0.63352 -0.12744
 O204 O 0.33846 0.56646 -0.06222
 C205 C 0.35257 0.61590 -0.10926
 O206 O 0.59152 0.37440 -0.12789
 O207 O 0.66462 0.43805 -0.05847
 C208 C 0.65043 0.39098 -0.10820
 O209 O 0.40977 0.37006 -0.12193
 O210 O 0.33741 0.44172 -0.06077
 C211 C 0.35115 0.39049 -0.10591
 O212 O 0.59248 0.62329 -0.13481
 O213 O 0.66498 0.56149 -0.06192
 C214 C 0.65115 0.60643 -0.11421
 Zr215 Zr 0.50182 0.59103 -0.09282
 O216 O 0.49343 0.58709 -0.20812
 O217 O 0.51057 0.70425 -0.09747
 Zr218 Zr 0.50087 0.41051 -0.08798
 O219 O 0.49323 0.40845 -0.20335
 O220 O 0.50765 0.29702 -0.08512
 Zr221 Zr 0.59914 0.50182 0.00235
 Zr222 Zr 0.40358 0.50391 0.00079
 O223 O 0.44441 0.50118 -0.10432
 O224 O 0.55980 0.49981 -0.10441
 O225 O 0.44388 0.60800 -0.00175
 O226 O 0.55747 0.39871 0.00485
 O227 O 0.55848 0.60583 -0.00069
 O228 O 0.44247 0.39888 0.00378
 H229 H 0.41494 0.50750 0.14918
 H230 H 0.58622 0.35587 0.00635
 H231 H 0.41510 0.50091 -0.14756
 H232 H 0.58750 0.64818 -0.00163
 H233 H 0.47327 0.28182 0.06849
 H234 H 0.47107 0.27903 -0.05556
 H235 H 0.52998 0.43639 -0.22305
 H236 H 0.53066 0.55887 -0.22655
 H237 H 0.47544 0.72500 -0.06750
 H238 H 0.48157 0.72774 0.05498
 H239 H 0.53225 0.57096 0.22712
 H240 H 0.52870 0.44815 0.22991
 C241 C 1.18864 0.18651 0.20060
 C242 C 1.20329 0.13919 0.14903
 H243 H 1.22416 0.21871 0.22282
 H244 H 1.25288 0.13263 0.13049
 C245 C 1.18990 0.68845 0.70389
 C246 C 1.20234 0.64595 0.64723
 H247 H 1.14188 0.69055 0.72767
 H248 H 1.25099 0.64274 0.62520
 C249 C 0.68922 0.18664 0.70246
 C250 C 0.70303 0.14081 0.64904
 H251 H 0.72534 0.21706 0.72646
 H252 H 0.75256 0.13370 0.63050
 C253 C 0.69557 0.68089 0.21361
 C254 C 0.70499 0.64952 0.14921
 H255 H 0.65124 0.67161 0.24373
 H256 H 0.75031 0.65652 0.12033
 C257 C 0.80485 -0.21383 0.18106
 C258 C 0.79636 -0.15017 0.14866
 H259 H 0.84916 -0.24430 0.17277
 H260 H 0.75107 -0.12096 0.15467
 C261 C 0.80989 0.29282 0.68773
 C262 C 0.79803 0.35111 0.64683
 H263 H 0.85773 0.26827 0.68835
 H264 H 0.74954 0.37396 0.64449
 C265 C 0.29978 -0.20925 0.66826
 C266 C 0.29345 -0.14168 0.64545
 H267 H 0.34055 -0.24169 0.65046
 H268 H 0.25172 -0.10961 0.66073
 C269 C 0.30650 0.29380 0.17896
 C270 C 0.29758 0.35838 0.14879
 H271 H 0.35138 0.26440 0.17062
 H272 H 0.25166 0.38639 0.15460
 C273 C 0.80390 0.20795 -0.17755
 C274 C 0.79763 0.14048 -0.15352
 H275 H 0.84627 0.23899 -0.16210
 H276 H 0.75422 0.11024 -0.16666
 C277 C 0.80365 0.71333 0.32204
 C278 C 0.79615 0.64747 0.34958
 H279 H 0.84709 0.74398 0.33413
 H280 H 0.75172 0.61787 0.33965
 C281 C 0.30412 0.21403 0.31683
 C282 C 0.29607 0.14884 0.34571
 H283 H 0.34786 0.24434 0.32834
 H284 H 0.25127 0.11976 0.33619
 C285 C 0.31233 0.70659 -0.19161
 C286 C 0.29874 0.65311 -0.14634
 H287 H 0.27595 0.72928 -0.22289
 H288 H 0.24934 0.63395 -0.14037
 C289 C 1.19684 -0.17813 -0.21453
 C290 C 1.20379 -0.15526 -0.14607
 H291 H 1.15438 -0.16284 -0.24652
 H292 H 1.24726 -0.16832 -0.11487
 C293 C 1.19563 0.32525 0.28462
 C294 C 1.20368 0.35180 0.35156
 H295 H 1.15270 0.33906 0.25275
 H296 H 1.24759 0.34044 0.38263
 C297 C 0.69316 -0.18067 0.28586
 C298 C 0.70024 -0.15130 0.35168
 H299 H 0.64967 -0.17048 0.25358
 H300 H 0.74479 -0.15939 0.38267
 C301 C 0.69603 0.32242 -0.20903
 C302 C 0.70402 0.35063 -0.14260
 H303 H 0.65293 0.33556 -0.24087
 H304 H 0.74811 0.34012 -0.11156
 C305 C 1.19037 0.18213 -0.20077
 C306 C 1.20495 0.13300 -0.15040
 H307 H 1.22504 0.21368 -0.22145
 H308 H 1.25463 0.12517 -0.13164
 C309 C 1.19184 0.68310 0.28691
 C310 C 1.20159 0.64095 0.34933
 H311 H 1.14538 0.68133 0.25863
 H312 H 1.24994 0.63690 0.37303
 C313 C 0.69324 0.17651 0.28514
 C314 C 0.70255 0.14180 0.34833
 H315 H 0.64824 0.17008 0.25473
 H316 H 0.74844 0.14645 0.37738
 C317 C 0.69617 0.67474 -0.21586
 C318 C 0.70491 0.64450 -0.15019
 H319 H 0.65214 0.66456 -0.24698
 H320 H 0.74982 0.65269 -0.12008
 C321 C 0.80559 -0.21894 -0.18207
 C322 C 0.79704 -0.15579 -0.14898
 H323 H 0.85016 -0.24917 -0.17368
 H324 H 0.75157 -0.12682 -0.15553
 C325 C 0.80522 0.28277 0.32309
 C326 C 0.79728 0.34785 0.35217
 H327 H 0.84909 0.25205 0.33404
 H328 H 0.75252 0.37746 0.34291
 C329 C 0.30037 -0.21767 0.32656
 C330 C 0.29355 -0.15058 0.35956
 H331 H 0.34485 -0.24806 0.33503
 H332 H 0.24634 -0.12453 0.35899
 C333 C 0.30609 0.28989 -0.17306
 C334 C 0.29740 0.35508 -0.14490
 H335 H 0.34981 0.25947 -0.16050
 H336 H 0.25264 0.38441 -0.15504
 C337 C 1.19269 -0.17851 0.22574
 C338 C 1.20105 -0.14139 0.16020
 H339 H 1.14723 -0.17453 0.25494
 H340 H 1.24897 -0.13967 0.13602
 C341 C 1.19452 0.32220 0.71586
 C342 C 1.20356 0.35455 0.65160
 H343 H 1.15009 0.33101 0.74598
 H344 H 1.24891 0.34738 0.62279
 C345 C 0.69233 -0.18485 0.71245
 C346 C 0.70050 -0.15009 0.64927
 H347 H 0.64773 -0.17825 0.74282
 H348 H 0.74604 -0.15507 0.62036
 C349 C 0.69280 0.32116 0.21861
 C350 C 0.70282 0.35771 0.15688
 H351 H 0.64758 0.32628 0.24810
 H352 H 0.74896 0.35328 0.12908
 C353 C 0.80416 0.21585 0.16803
 C354 C 0.79868 0.15082 0.13498
 H355 H 0.77135 0.23208 0.21224
 H356 H 0.82075 0.20349 0.13398
 C357 C 0.80385 0.71079 0.67531
 C358 C 0.79617 0.64658 0.64402
 H359 H 0.84740 0.74178 0.66545
 H360 H 0.75166 0.61672 0.65192
 C361 C 0.31419 0.20664 0.68653
 C362 C 0.29815 0.15857 0.63603
 H363 H 0.28393 0.24618 0.70487
 H364 H 0.24779 0.14953 0.62090
 C365 C 0.30495 0.72357 0.17754
 C366 C 0.30108 0.66102 0.13282
 H367 H 0.26882 0.73523 0.21743
 H368 H 0.32377 0.71231 0.14226
   
