data_POSCAR
  _audit_creation_date              2014-09-24
  _audit_creation_method            'ToBaCCo'
  _symmetry_space_group_name_H-M    'P1'
  _symmetry_Int_Tables_number       1
  _symmetry_cell_setting            triclinic
  loop_
  _symmetry_equiv_pos_as_xyz
 x,y,z
_cell_length_a 37.2370
_cell_length_b 41.4099
_cell_length_c 39.5659
_cell_angle_alpha 87.963500
_cell_angle_beta 92.440700
_cell_angle_gamma 85.279100
loop_
  _atom_site_label
  _atom_site_type_symbol
  _atom_site_fract_x
  _atom_site_fract_y
  _atom_site_fract_z
C1 C 0.18739 1.19803 0.20716
 N2 N 0.21791 1.18670 0.19220
 C3 C 0.23671 1.15881 0.20414
 N4 N 0.22475 1.14217 0.23100
 C5 C 0.19425 1.15312 0.24602
 N6 N 0.17567 1.18109 0.23398
 C7 C 0.81840 0.77799 0.18072
 N8 N 0.79218 0.79958 0.16651
 C9 C 0.78048 0.82627 0.18317
 N10 N 0.79527 0.83137 0.21424
 C11 C 0.82163 0.80999 0.22879
 N12 N 0.83312 0.78334 0.21189
 C13 C 0.82104 1.25890 -0.20382
 N14 N 0.83533 1.24291 -0.23007
 C15 C 0.82148 1.21562 -0.24098
 N16 N 0.79270 1.20449 -0.22558
 C17 C 0.77787 1.22059 -0.19950
 N18 N 0.79233 1.24762 -0.18851
 C19 C 0.19452 0.75271 -0.15520
 N20 N 0.17529 0.76328 -0.18403
 C21 C 0.18302 0.79076 -0.20103
 N22 N 0.21019 0.80781 -0.18891
 C23 C 0.22960 0.79736 -0.16017
 N24 N 0.22161 0.76988 -0.14345
 C25 C 0.52733 1.08154 -0.07151
 H26 H 0.50992 1.09498 -0.05487
 C27 C 0.55036 1.09803 -0.09164
 H28 H 0.54948 1.12416 -0.09084
 C29 C 0.54964 1.03122 -0.09244
 H30 H 0.54965 1.00509 -0.09206
 C31 C 0.57302 1.04673 -0.11304
 H32 H 0.59084 1.03239 -0.12870
 N33 N 0.52751 1.04871 -0.07214
 C34 C 0.47948 1.05169 0.02040
 H35 H 0.50044 1.03466 0.03174
 C36 C 0.45761 1.07053 0.04122
 H37 H 0.46293 1.06831 0.06833
 C38 C 0.44707 1.07495 -0.02857
 H39 H 0.44279 1.07603 -0.05581
 C40 C 0.42457 1.09426 -0.00868
 H41 H 0.40303 1.11035 -0.02079
 Zn42 Zn 0.50001 1.02556 -0.04198
 N43 N 0.47374 1.05404 -0.01381
 C44 C 0.52933 0.96408 -0.01490
 N45 N 0.53273 0.99652 -0.01553
 C46 C 0.56044 1.00895 0.00170
 C47 C 0.58567 0.98862 0.02126
 C48 C 0.55389 0.94285 0.00430
 C49 C 0.46431 1.00005 -0.09964
 C50 C 0.43891 0.98174 -0.11534
 C51 C 0.41653 0.96914 -0.06041
 C52 C 0.44238 0.98754 -0.04587
 N53 N 0.46595 1.00210 -0.06541
 H54 H 0.50772 0.95449 -0.02943
 H55 H 0.56291 1.03481 0.00019
 H56 H 0.60728 0.99969 0.03424
 H57 H 0.55046 0.91711 0.00443
 H58 H 0.48278 1.01239 -0.11483
 H59 H 0.43842 0.98010 -0.14263
 H60 H 0.39855 0.95828 -0.04354
 H61 H 0.44392 0.99008 -0.01874
 C62 C 0.42915 1.09162 0.02669
 C63 C 0.57413 1.08046 -0.11227
 C64 C 0.41473 0.96552 -0.09577
 C65 C 0.58251 0.95488 0.02298
 C66 C -0.01596 0.51788 1.08011
 H67 H 0.00255 0.49881 1.09168
 C68 C -0.03314 0.54079 1.10043
 H69 H -0.02798 0.53892 1.12761
 C70 C -0.04414 0.54443 1.03070
 H71 H -0.04797 0.54578 1.00341
 C72 C -0.06182 0.56782 1.05002
 H73 H -0.07996 0.58650 1.03721
 N74 N -0.02169 0.52015 1.04589
 C75 C 0.07134 0.45822 1.03865
 H76 H 0.08316 0.47475 1.02147
 C77 C 0.09339 0.43362 1.05610
 H78 H 0.12215 0.43169 1.05246
 C79 C 0.01955 0.43969 1.06333
 H80 H -0.00937 0.44215 1.06575
 C81 C 0.04056 0.41478 1.08128
 H82 H 0.02738 0.39886 1.09807
 Zn83 Zn 0.00384 0.49183 1.01715
 N84 N 0.03512 0.46079 1.04257
 C85 C 0.05410 0.53661 1.00334
 N86 N 0.03000 0.51798 0.98855
 C87 C 0.02283 0.51990 0.95454
 C88 C 0.04036 0.54112 0.93400
 C89 C 0.07247 0.55805 0.98378
 C90 C -0.06441 0.47216 0.99340
 C91 C -0.08663 0.45361 0.97402
 C92 C -0.03346 0.42733 0.95059
 C93 C -0.01238 0.44633 0.97042
 N94 N -0.02801 0.46842 0.99098
 H95 H 0.05872 0.53509 1.03056
 H96 H 0.00286 0.50557 0.94329
 H97 H 0.03383 0.54241 0.90700
 H98 H 0.09107 0.57241 0.99692
 H99 H -0.07628 0.48929 1.01054
 H100 H -0.11557 0.45704 0.97634
 H101 H -0.01948 0.40984 0.93519
 H102 H 0.01671 0.44341 0.96957
 C103 C 0.07803 0.41119 1.07732
 C104 C -0.05585 0.56651 1.08540
 C105 C -0.07140 0.43091 0.95194
 C106 C 0.06550 0.56082 0.94838
 C107 C 1.00213 -0.06182 0.56079
 H108 H 0.97310 -0.06222 0.56035
 C109 C 1.02366 -0.08161 0.58427
 H110 H 1.01064 -0.09763 0.60107
 C111 C 1.05372 -0.04016 0.53896
 H112 H 1.06532 -0.02342 0.52187
 C113 C 1.07625 -0.05950 0.56201
 H114 H 1.10511 -0.05767 0.56211
 N115 N 1.01735 -0.04159 0.53882
 C116 C 1.00966 0.04670 0.48524
 H117 H 0.99200 0.05806 0.50311
 C118 C 1.02849 0.06599 0.46370
 H119 H 1.02535 0.09211 0.46546
 C120 C 1.03433 -0.00088 0.46038
 H121 H 1.03623 -0.02702 0.45919
 C122 C 1.05371 0.01746 0.43842
 H123 H 1.07095 0.00479 0.42108
 Zn124 Zn 0.98613 -0.01287 0.51057
 N125 N 1.01299 0.01388 0.48328
 C126 C 0.97509 0.02870 0.56331
 N127 N 0.95722 0.01271 0.53936
 C128 C 0.92058 0.01437 0.53724
 C129 C 0.90049 0.03352 0.55925
 C130 C 0.95618 0.04800 0.58590
 C131 C 0.96106 -0.06865 0.47988
 C132 C 0.94140 -0.08466 0.45570
 C133 C 0.91444 -0.03260 0.43390
 C134 C 0.93476 -0.01768 0.45829
 N135 N 0.95742 -0.03575 0.48071
 H136 H 1.00428 0.02645 0.56479
 H137 H 0.90682 0.00083 0.51860
 H138 H 0.87130 0.03463 0.55689
 H139 H 0.97191 0.06001 0.60438
 H140 H 0.97974 -0.08255 0.49753
 H141 H 0.94503 -0.11080 0.45609
 H142 H 0.89674 -0.01753 0.41622
 H143 H 0.93287 0.00849 0.45913
 C144 C 1.05058 0.05149 0.43964
 C145 C 1.06132 -0.08015 0.58547
 C146 C 0.91785 -0.06653 0.43187
 C147 C 0.91808 0.05095 0.58398
 C148 C 0.16725 0.22625 1.19493
 C149 C 0.17715 0.24505 1.16733
 C150 C 0.15455 0.27376 1.15283
 C151 C 0.17071 0.29712 1.13344
 C152 C 0.15006 0.32409 1.11857
 C153 C 0.11262 0.32813 1.12272
 C154 C 0.09643 0.30449 1.14169
 C155 C 0.11707 0.27762 1.15661
 C156 C 0.08920 0.35557 1.10655
 C157 C 0.10177 0.38460 1.09467
 H158 H 0.20281 0.23898 1.15617
 H159 H 0.19943 0.29443 1.12966
 H160 H 0.16351 0.34110 1.10326
 H161 H 0.06758 0.30671 1.14484
 H162 H 0.10330 0.25962 1.17028
 H163 H 0.06069 0.35241 1.10401
 H164 H 0.14297 0.23359 1.20774
 H165 H 0.13027 0.38783 1.09697
 C166 C -0.16968 0.75124 1.16251
 C167 C -0.14253 0.72790 1.17476
 C168 C -0.12828 0.70085 1.15426
 C169 C -0.11094 0.67290 1.17074
 C170 C -0.09651 0.64719 1.15214
 C171 C -0.09900 0.64906 1.11649
 C172 C -0.11583 0.67726 1.10010
 C173 C -0.13027 0.70288 1.11866
 C174 C -0.08335 0.62308 1.09533
 C175 C -0.07258 0.59140 1.10719
 H176 H -0.13172 0.72899 1.20052
 H177 H -0.10852 0.67096 1.19814
 H178 H -0.08289 0.62640 1.16591
 H179 H -0.11764 0.67961 1.07270
 H180 H -0.14215 0.72444 1.10491
 H181 H -0.08007 0.62959 1.06899
 H182 H -0.18241 0.74882 1.13773
 H183 H -0.07493 0.58462 1.13358
 C184 C -0.16162 0.28714 0.80859
 C185 C -0.16939 0.30077 0.83951
 C186 C -0.14809 0.32546 0.85546
 C187 C -0.16078 0.34022 0.88459
 C188 C -0.14046 0.36201 0.90175
 C189 C -0.10691 0.36962 0.88996
 C190 C -0.09437 0.35503 0.86077
 C191 C -0.11456 0.33321 0.84372
 C192 C -0.08305 0.39083 0.90820
 C193 C -0.09449 0.41238 0.93288
 H194 H -0.19138 0.29208 0.85340
 H195 H -0.18625 0.33441 0.89450
 H196 H -0.15075 0.37193 0.92466
 H197 H -0.06845 0.36012 0.85133
 H198 H -0.10297 0.32201 0.82204
 H199 H -0.05549 0.38968 0.90063
 H200 H -0.14080 0.29596 0.79342
 H201 H -0.12303 0.41560 0.93721
 C202 C 0.18606 0.72531 0.86336
 C203 C 0.15832 0.70642 0.85340
 C204 C 0.14684 0.67949 0.87492
 C205 C 0.12916 0.65475 0.85968
 C206 C 0.11666 0.62965 0.87937
 C207 C 0.12100 0.62915 0.91495
 C208 C 0.13900 0.65381 0.93007
 C209 C 0.15163 0.67877 0.91038
 C210 C 0.10714 0.60391 0.93738
 C211 C 0.08150 0.58291 0.92691
 H212 H 0.14464 0.71120 0.82878
 H213 H 0.12513 0.65479 0.83240
 H214 H 0.10391 0.61084 0.86638
 H215 H 0.14271 0.65415 0.95736
 H216 H 0.16418 0.69787 0.92318
 H217 H 0.11672 0.60336 0.96353
 H218 H 0.20174 0.71883 0.88663
 H219 H 0.07237 0.58413 0.90058
 C220 C 1.18184 0.13474 0.27266
 C221 C 1.15023 0.14386 0.28901
 C222 C 1.13489 0.12286 0.31484
 C223 C 1.11077 0.13700 0.33745
 C224 C 1.09463 0.11781 0.36129
 C225 C 1.10223 0.08391 0.36287
 C226 C 1.12598 0.06977 0.33995
 C227 C 1.14220 0.08895 0.31622
 C228 C 1.08468 0.06237 0.38663
 C229 C 1.06958 0.07268 0.41658
 H230 H 1.13614 0.16744 0.28293
 H231 H 1.10418 0.16301 0.33650
 H232 H 1.07554 0.12962 0.37766
 H233 H 1.13184 0.04369 0.34024
 H234 H 1.15957 0.07695 0.29847
 H235 H 1.08400 0.03736 0.37993
 H236 H 1.19750 0.11235 0.28049
 H237 H 1.07087 0.09765 0.42333
 C238 C 1.16212 -0.19846 0.77003
 C239 C 1.16809 -0.17029 0.75128
 C240 C 1.14426 -0.15708 0.72223
 C241 C 1.15770 -0.13546 0.69876
 C242 C 1.13561 -0.12134 0.67184
 C243 C 1.09941 -0.12852 0.66790
 C244 C 1.08590 -0.14989 0.69157
 C245 C 1.10801 -0.16409 0.71842
 C246 C 1.07441 -0.11273 0.64095
 C247 C 1.08585 -0.09896 0.61089
 H248 H 1.19146 -0.15742 0.75779
 H249 H 1.18534 -0.12922 0.70145
 H250 H 1.14680 -0.10412 0.65492
 H251 H 1.05796 -0.15540 0.68948
 H252 H 1.09620 -0.17972 0.73657
 H253 H 1.04596 -0.11183 0.64554
 H254 H 1.14043 -0.21277 0.76214
 H255 H 1.11434 -0.10069 0.60622
 C256 C 0.83779 -0.18441 0.26033
 C257 C 0.82756 -0.15707 0.27862
 C258 C 0.84603 -0.14808 0.31048
 C259 C 0.82988 -0.12250 0.32841
 C260 C 0.84718 -0.11148 0.35728
 C261 C 0.88131 -0.12567 0.36874
 C262 C 0.89698 -0.15196 0.35159
 C263 C 0.87973 -0.16295 0.32260
 C264 C 0.90131 -0.11334 0.39809
 C265 C 0.89803 -0.08051 0.40591
 H266 H 0.80488 -0.14082 0.26887
 H267 H 0.80386 -0.11073 0.31986
 H268 H 0.83369 -0.09189 0.37054
 H269 H 0.92318 -0.16341 0.36006
 H270 H 0.89350 -0.18242 0.30950
 H271 H 0.92130 -0.13010 0.41132
 H272 H 0.85908 -0.20191 0.27029
 H273 H 0.88013 -0.06424 0.38960
 C274 C 0.83830 0.19887 0.73329
 C275 C 0.82792 0.16926 0.72195
 C276 C 0.84898 0.14958 0.69785
 C277 C 0.83239 0.12556 0.68024
 C278 C 0.85183 0.10594 0.65806
 C279 C 0.88844 0.11001 0.65310
 C280 C 0.90507 0.13369 0.67117
 C281 C 0.88573 0.15316 0.69332
 C282 C 0.91084 0.08960 0.63060
 C283 C 0.89695 0.07030 0.60557
 H284 H 0.80361 0.15995 0.73112
 H285 H 0.80430 0.12186 0.68376
 H286 H 0.83813 0.08735 0.64559
 H287 H 0.93336 0.13703 0.66834
 H288 H 0.90011 0.17035 0.70737
 H289 H 0.93954 0.09125 0.63360
 H290 H 0.86106 0.20935 0.72242
 H291 H 0.86797 0.07069 0.60190
 C292 C 0.26907 1.14547 0.18770
 C293 C 0.28067 1.15877 0.15753
 C294 C 0.31092 1.14367 0.13871
 C295 C 0.32610 1.16220 0.11344
 C296 C 0.35383 1.14851 0.09434
 C297 C 0.36673 1.11579 0.10000
 C298 C 0.35183 1.09738 0.12545
 C299 C 0.32406 1.11098 0.14440
 C300 C 0.39552 1.09987 0.08016
 C301 C 0.40341 1.11039 0.04755
 H302 H 0.26689 1.18121 0.14708
 H303 H 0.31649 1.18740 0.10848
 H304 H 0.36523 1.16371 0.07550
 H305 H 0.36121 1.07210 0.13026
 H306 H 0.31261 1.09541 0.16281
 H307 H 0.40857 1.07713 0.09051
 H308 H 0.28344 1.12406 0.19967
 H309 H 0.38759 1.13105 0.03549
 C310 C 0.74695 1.20869 -0.18232
 C311 C 0.73064 1.18117 -0.19237
 C312 C 0.70032 1.16790 -0.17485
 C313 C 0.67937 1.14636 -0.19188
 C314 C 0.65109 1.13263 -0.17601
 C315 C 0.64347 1.13989 -0.14246
 C316 C 0.66420 1.16164 -0.12554
 C317 C 0.69248 1.17533 -0.14138
 C318 C 0.61428 1.12550 -0.12428
 C319 C 0.60060 1.09625 -0.13277
 H320 H 0.73999 1.16909 -0.21461
 H321 H 0.68479 1.14024 -0.21767
 H322 H 0.63514 1.11669 -0.19027
 H323 H 0.65893 1.16762 -0.09968
 H324 H 0.70846 1.19109 -0.12694
 H325 H 0.60560 1.13703 -0.10156
 H326 H 0.73677 1.22241 -0.16151
 H327 H 0.61214 1.08274 -0.15316
 C328 C 0.25820 0.81597 -0.14587
 C329 C 0.26595 0.84604 -0.15955
 C330 C 0.29219 0.86636 -0.14322
 C331 C 0.30661 0.89084 -0.16257
 C332 C 0.33085 0.91089 -0.14774
 C333 C 0.34109 0.90682 -0.11308
 C334 C 0.32609 0.88274 -0.09370
 C335 C 0.30192 0.86279 -0.10847
 C336 C 0.36612 0.92757 -0.09567
 C337 C 0.39013 0.94644 -0.11226
 H338 H 0.25246 0.85500 -0.18325
 H339 H 0.29903 0.89451 -0.18925
 H340 H 0.34077 0.92980 -0.16343
 H341 H 0.33299 0.87939 -0.06685
 H342 H 0.29042 0.84518 -0.09226
 H343 H 0.36638 0.92617 -0.06840
 H344 H 0.27302 0.80563 -0.12343
 H345 H 0.39081 0.94557 -0.13952
 C346 C 0.75273 0.85026 0.16759
 C347 C 0.73796 0.84718 0.13494
 C348 C 0.71130 0.87143 0.11747
 C349 C 0.69250 0.86250 0.08823
 C350 C 0.66771 0.88468 0.07040
 C351 C 0.66107 0.91642 0.08155
 C352 C 0.68034 0.92555 0.11043
 C353 C 0.70516 0.90337 0.12826
 C354 C 0.63553 0.94090 0.06304
 C355 C 0.60678 0.93262 0.04195
 H356 H 0.74598 0.82561 0.12147
 H357 H 0.69715 0.83826 0.07899
 H358 H 0.65452 0.87699 0.04754
 H359 H 0.67621 0.95000 0.11922
 H360 H 0.71983 0.91170 0.14997
 H361 H 0.63899 0.96598 0.06781
 H362 H 0.74413 0.87068 0.18240
 H363 H 0.60229 0.90719 0.04064
   
