data_POSCAR
  _audit_creation_date              2014-09-24
  _audit_creation_method            'ToBaCCo'
  _symmetry_space_group_name_H-M    'P1'
  _symmetry_Int_Tables_number       1
  _symmetry_cell_setting            triclinic
  loop_
  _symmetry_equiv_pos_as_xyz
 x,y,z
_cell_length_a 38.7515
_cell_length_b 37.5269
_cell_length_c 37.8051
_cell_angle_alpha 89.984900
_cell_angle_beta 90.036600
_cell_angle_gamma 90.064900
loop_
  _atom_site_label
  _atom_site_type_symbol
  _atom_site_fract_x
  _atom_site_fract_y
  _atom_site_fract_z
O1 O 0.32019 0.37522 0.03449
 O2 O 0.36942 0.32908 -0.03361
 O3 O 0.32024 0.37579 -0.03373
 O4 O 0.36938 0.32831 0.03368
 O5 O 0.33151 0.28425 0.03341
 O6 O 0.28060 0.33341 -0.03418
 O7 O 0.33100 0.28547 -0.03499
 O8 O 0.28088 0.33250 0.03454
 Cu9 Cu 0.34848 0.35647 0.00030
 Cu10 Cu 0.30194 0.30452 -0.00028
 C11 C 0.29189 0.36245 0.04549
 C12 C 0.35941 0.29906 -0.04503
 C13 C 0.29179 0.36340 -0.04485
 C14 C 0.35986 0.29769 0.04390
 O15 O 0.68196 0.62616 0.03229
 O16 O 0.63142 0.67183 -0.03506
 O17 O 0.68052 0.62489 -0.03520
 O18 O 0.63264 0.67296 0.03231
 O19 O 0.67047 0.71704 0.03110
 O20 O 0.71986 0.66746 -0.03739
 O21 O 0.66961 0.71561 -0.03728
 O22 O 0.72127 0.66889 0.03128
 Cu23 Cu 0.65287 0.64468 -0.00123
 Cu24 Cu 0.69935 0.69668 -0.00316
 C25 C 0.71059 0.63888 0.04238
 C26 C 0.64108 0.70186 -0.04674
 C27 C 0.70872 0.63710 -0.04708
 C28 C 0.64233 0.70363 0.04218
 O29 O 0.67854 0.37590 0.96699
 O30 O 0.63091 0.32858 1.03520
 O31 O 0.68037 0.37541 1.03459
 O32 O 0.62959 0.32885 0.96776
 O33 O 0.66806 0.28542 0.96556
 O34 O 0.71947 0.33257 1.03416
 O35 O 0.66846 0.28433 1.03401
 O36 O 0.71817 0.33363 0.96564
 Cu37 Cu 0.65109 0.35645 1.00133
 Cu38 Cu 0.69756 0.30454 0.99986
 C39 C 0.70680 0.36368 0.95543
 C40 C 0.64041 0.29788 1.04507
 C41 C 0.70899 0.36279 1.04487
 C42 C 0.63949 0.29896 0.95597
 O43 O 0.32122 0.62361 0.96815
 O44 O 0.37078 0.67051 1.03553
 O45 O 0.32147 0.62362 1.03633
 O46 O 0.37047 0.67039 0.96814
 O47 O 0.33228 0.71414 0.96757
 O48 O 0.28216 0.66622 1.03665
 O49 O 0.33300 0.71458 1.03582
 O50 O 0.28187 0.66622 0.96792
 Cu51 Cu 0.34966 0.64267 1.00210
 Cu52 Cu 0.30327 0.69466 1.00212
 C53 C 0.29290 0.63628 0.95710
 C54 C 0.36140 0.70106 1.04597
 C55 C 0.29309 0.63616 1.04738
 C56 C 0.36056 0.70059 0.95714
 O57 O -0.03394 0.36978 0.32744
 O58 O 0.03250 0.32026 0.37473
 O59 O 0.03191 0.36980 0.32688
 O60 O -0.03402 0.32049 0.37553
 O61 O -0.03484 0.27869 0.33438
 O62 O 0.03191 0.32918 0.28452
 O63 O 0.03239 0.27850 0.33350
 O64 O -0.03477 0.32934 0.28496
 Cu65 Cu -0.00085 0.34903 0.35536
 Cu66 Cu -0.00143 0.29960 0.30514
 C67 C -0.04474 0.35893 0.29769
 C68 C 0.04329 0.29078 0.36277
 C69 C 0.04230 0.35873 0.29707
 C70 C -0.04512 0.29095 0.36390
 O71 O 0.03247 0.67908 0.62342
 O72 O -0.03166 0.62769 0.67221
 O73 O -0.03389 0.67678 0.62394
 O74 O 0.03455 0.62903 0.67035
 O75 O 0.03368 0.66875 0.71352
 O76 O -0.03391 0.71892 0.66479
 O77 O -0.03346 0.66875 0.71411
 O78 O 0.03306 0.72019 0.66531
 Cu79 Cu 0.00036 0.64912 0.64332
 Cu80 Cu -0.00017 0.69835 0.69376
 C81 C 0.04324 0.70854 0.63555
 C82 C -0.04303 0.63893 0.70158
 C83 C -0.04481 0.70636 0.63561
 C84 C 0.04505 0.63996 0.70017
 O85 O 1.03349 0.63106 0.32692
 O86 O 0.96687 0.67932 0.37508
 O87 O 0.96769 0.63022 0.32686
 O88 O 1.03339 0.68049 0.37486
 O89 O 1.03289 0.72252 0.33390
 O90 O 0.96677 0.67081 0.28451
 O91 O 0.96573 0.72118 0.33395
 O92 O 1.03347 0.67184 0.28469
 Cu93 Cu 1.00043 0.65132 0.35514
 Cu94 Cu 0.99967 0.70092 0.30506
 C95 C 1.04393 0.64233 0.29721
 C96 C 0.95544 0.70864 0.36335
 C97 C 0.95693 0.64108 0.29709
 C98 C 1.04376 0.71033 0.36324
 O99 O 0.96834 0.32130 0.62357
 O100 O 1.03505 0.37117 0.67032
 O101 O 1.03471 0.32154 0.62268
 O102 O 0.96868 0.37040 0.67160
 O103 O 0.96944 0.32982 0.71400
 O104 O 1.03602 0.27985 0.66398
 O105 O 1.03652 0.33060 0.71272
 O106 O 0.96899 0.27948 0.66478
 Cu107 Cu 1.00162 0.35016 0.64292
 Cu108 Cu 1.00284 0.30072 0.69317
 C109 C 0.95785 0.29169 0.63556
 C110 C 1.04657 0.36006 0.69968
 C111 C 1.04602 0.29210 0.63436
 C112 C 0.95838 0.35903 0.70135
 O113 O 0.37645 0.03285 0.32343
 O114 O 0.32876 -0.03562 0.37096
 O115 O 0.37670 -0.03524 0.32311
 O116 O 0.32896 0.03236 0.37165
 O117 O 0.28816 0.03289 0.33078
 O118 O 0.33736 -0.03557 0.28079
 O119 O 0.28815 -0.03593 0.32983
 O120 O 0.33695 0.03378 0.28126
 Cu121 Cu 0.35668 -0.00145 0.35135
 Cu122 Cu 0.30859 -0.00118 0.30128
 C123 C 0.36557 0.04432 0.29396
 C124 C 0.29993 -0.04648 0.35939
 C125 C 0.36598 -0.04622 0.29340
 C126 C 0.30004 0.04325 0.36041
 O127 O 0.62432 0.03388 0.67846
 O128 O 0.67101 -0.03488 0.63014
 O129 O 0.62413 -0.03402 0.67917
 O130 O 0.67111 0.03385 0.62942
 O131 O 0.71242 0.03467 0.66976
 O132 O 0.66440 -0.03414 0.72064
 O133 O 0.71244 -0.03473 0.67035
 O134 O 0.66436 0.03469 0.72011
 Cu135 Cu 0.64375 -0.00034 0.65016
 Cu136 Cu 0.69268 0.00017 0.69932
 C137 C 0.63544 0.04500 0.70799
 C138 C 0.69990 -0.04592 0.64133
 C139 C 0.63541 -0.04466 0.70881
 C140 C 0.69995 0.04526 0.64048
 O141 O 0.32696 1.03274 0.63064
 O142 O 0.37313 0.96492 0.68057
 O143 O 0.32616 0.96467 0.63156
 O144 O 0.37372 1.03291 0.67971
 O145 O 0.33368 1.03435 0.72127
 O146 O 0.28478 0.96513 0.67180
 O147 O 0.33301 0.96539 0.72214
 O148 O 0.28555 1.03407 0.67077
 Cu149 Cu 0.35399 0.99870 0.65160
 Cu150 Cu 0.30505 0.99983 0.70072
 C151 C 0.29802 1.04410 0.64130
 C152 C 0.36183 0.95455 0.71027
 C153 C 0.29700 0.95419 0.64256
 C154 C 0.36269 1.04438 0.70911
 O155 O 0.62366 0.96643 0.32554
 O156 O 0.67013 1.03498 0.37458
 O157 O 0.62317 1.03439 0.32576
 O158 O 0.67043 0.96630 0.37462
 O159 O 0.71170 0.96625 0.33428
 O160 O 0.66336 1.03545 0.28433
 O161 O 0.71153 1.03551 0.33439
 O162 O 0.66377 0.96625 0.28402
 Cu163 Cu 0.64292 1.00049 0.35423
 Cu164 Cu 0.69180 1.00091 0.30508
 C165 C 0.63498 0.95546 0.29607
 C166 C 0.69901 1.04631 0.36354
 C167 C 0.63442 1.04576 0.29638
 C168 C 0.69930 0.95522 0.36342
 C169 C 0.87825 0.77739 0.53376
 C170 C 0.89240 0.76760 0.50119
 C171 C 0.87819 0.77798 0.46881
 C172 C 0.85086 0.80292 0.46882
 C173 C 0.83672 0.81461 0.50160
 C174 C 0.85089 0.80232 0.53417
 C175 C 0.83881 0.81712 0.56585
 C176 C 0.81186 0.84154 0.56606
 C177 C 0.79577 0.85227 0.53458
 C178 C 0.80906 0.83957 0.50179
 C179 C 0.83875 0.81827 0.43738
 C180 C 0.81177 0.84263 0.43756
 C181 C 0.79570 0.85279 0.46922
 C182 C 0.76810 0.87745 0.46957
 C183 C 0.75632 0.89008 0.50218
 C184 C 0.76821 0.87698 0.53460
 H185 H 0.85107 0.81154 0.59077
 H186 H 0.80501 0.85296 0.59119
 H187 H 0.85098 0.81310 0.41235
 H188 H 0.80487 0.85448 0.41261
 H189 H 0.91509 0.75082 0.50107
 H190 H 0.73768 0.91146 0.50234
 C191 C 0.12077 0.21937 0.46679
 C192 C 0.10638 0.22932 0.49920
 C193 C 0.12098 0.22004 0.53173
 C194 C 0.14824 0.19498 0.53213
 C195 C 0.16170 0.18196 0.49952
 C196 C 0.14809 0.19439 0.46674
 C197 C 0.16150 0.18060 0.43516
 C198 C 0.18853 0.15630 0.43533
 C199 C 0.20204 0.14308 0.46713
 C200 C 0.18863 0.15617 0.49970
 C201 C 0.16172 0.18167 0.56391
 C202 C 0.18864 0.15724 0.56408
 C203 C 0.20206 0.14353 0.53246
 C204 C 0.22901 0.11814 0.53243
 C205 C 0.24352 0.10825 0.50006
 C206 C 0.22908 0.11777 0.46752
 H207 H 0.15098 0.18768 0.40982
 H208 H 0.19887 0.14856 0.41006
 H209 H 0.15128 0.18920 0.58915
 H210 H 0.19900 0.14980 0.58946
 H211 H 0.08345 0.24574 0.49911
 H212 H 0.26650 0.09200 0.50019
 C213 C 0.11814 0.78284 0.46615
 C214 C 0.10366 0.77262 0.49846
 C215 C 0.11770 0.78248 0.53107
 C216 C 0.14480 0.80769 0.53169
 C217 C 0.15917 0.81993 0.49923
 C218 C 0.14547 0.80787 0.46634
 C219 C 0.15808 0.82290 0.43495
 C220 C 0.18508 0.84732 0.43537
 C221 C 0.20056 0.85793 0.46725
 C222 C 0.18674 0.84501 0.49968
 C223 C 0.15654 0.82265 0.56349
 C224 C 0.18344 0.84716 0.56394
 C225 C 0.19973 0.85787 0.53256
 C226 C 0.22735 0.88255 0.53282
 C227 C 0.23952 0.89557 0.50051
 C228 C 0.22821 0.88254 0.46787
 H229 H 0.14626 0.81740 0.40979
 H230 H 0.19257 0.85880 0.41039
 H231 H 0.14406 0.81702 0.58831
 H232 H 0.19022 0.85861 0.58914
 H233 H 0.08105 0.75566 0.49818
 H234 H 0.25798 0.91711 0.50079
 C235 C 0.76811 0.12226 0.53319
 C236 C 0.75569 0.10973 0.50077
 C237 C 0.76745 0.12245 0.46815
 C238 C 0.79547 0.14666 0.46772
 C239 C 0.80938 0.15927 0.50028
 C240 C 0.79616 0.14645 0.53309
 C241 C 0.81278 0.15652 0.56450
 C242 C 0.84022 0.18039 0.56422
 C243 C 0.85223 0.19537 0.53256
 C244 C 0.83753 0.18372 0.50001
 C245 C 0.81138 0.15694 0.43599
 C246 C 0.83880 0.18086 0.43575
 C247 C 0.85156 0.19558 0.46721
 C248 C 0.87942 0.22001 0.46717
 C249 C 0.89412 0.22972 0.49954
 C250 C 0.87998 0.21986 0.53212
 H251 H 0.80592 0.14497 0.58959
 H252 H 0.85292 0.18538 0.58905
 H253 H 0.80398 0.14555 0.41099
 H254 H 0.85087 0.18611 0.41066
 H255 H 0.73672 0.08863 0.50092
 H256 H 0.91702 0.24626 0.49939
 C257 C 0.46729 0.88310 0.78391
 C258 C 0.49888 0.89768 0.77338
 C259 C 0.53062 0.88314 0.78337
 C260 C 0.53097 0.85552 0.80887
 C261 C 0.49918 0.84126 0.82146
 C262 C 0.46726 0.85557 0.80946
 C263 C 0.43652 0.84329 0.82480
 C264 C 0.43665 0.81573 0.84940
 C265 C 0.46753 0.79928 0.85977
 C266 C 0.49932 0.81302 0.84661
 C267 C 0.56191 0.84308 0.82359
 C268 C 0.56207 0.81551 0.84817
 C269 C 0.53126 0.79923 0.85919
 C270 C 0.53125 0.77068 0.88363
 C271 C 0.49964 0.75827 0.89657
 C272 C 0.46784 0.77068 0.88420
 H273 H 0.41208 0.85576 0.81922
 H274 H 0.41224 0.80851 0.86101
 H275 H 0.58633 0.85540 0.81750
 H276 H 0.58668 0.80808 0.85920
 H277 H 0.49874 0.92083 0.75636
 H278 H 0.49977 0.73904 0.91774
 C279 C 0.53191 0.12424 0.22479
 C280 C 0.50026 0.11384 0.23921
 C281 C 0.46860 0.12391 0.22459
 C282 C 0.46830 0.14977 0.19742
 C283 C 0.50012 0.16248 0.18346
 C284 C 0.53204 0.15003 0.19750
 C285 C 0.56284 0.16532 0.18531
 C286 C 0.56276 0.19046 0.15831
 C287 C 0.53184 0.20159 0.14246
 C288 C 0.50002 0.18827 0.15585
 C289 C 0.43739 0.16486 0.18528
 C290 C 0.43727 0.19002 0.15829
 C291 C 0.46810 0.20133 0.14239
 C292 C 0.46817 0.22666 0.11466
 C293 C 0.49985 0.23998 0.10288
 C294 C 0.53159 0.22692 0.11477
 H295 H 0.58727 0.15939 0.19753
 H296 H 0.58727 0.20194 0.15103
 H297 H 0.41301 0.15877 0.19754
 H298 H 0.41272 0.20140 0.15112
 H299 H 0.50028 0.09633 0.26196
 H300 H 0.49976 0.26197 0.08456
 C301 C 0.53104 0.11969 0.78065
 C302 C 0.49932 0.10894 0.76662
 C303 C 0.46767 0.11957 0.78079
 C304 C 0.46752 0.14662 0.80685
 C305 C 0.49944 0.16045 0.81968
 C306 C 0.53130 0.14670 0.80678
 C307 C 0.56225 0.16109 0.81968
 C308 C 0.56229 0.18757 0.84538
 C309 C 0.53137 0.20222 0.85801
 C310 C 0.49948 0.18836 0.84522
 C311 C 0.43661 0.16097 0.81976
 C312 C 0.43666 0.18748 0.84541
 C313 C 0.46762 0.20218 0.85800
 C314 C 0.46782 0.22992 0.88337
 C315 C 0.49952 0.24152 0.89678
 C316 C 0.53123 0.22994 0.88344
 H317 H 0.58695 0.15268 0.80972
 H318 H 0.58703 0.19605 0.85525
 H319 H 0.41189 0.15252 0.80984
 H320 H 0.41194 0.19595 0.85528
 H321 H 0.49926 0.09149 0.74392
 H322 H 0.49953 0.25970 0.91882
 C323 C 0.53433 0.77411 0.11356
 C324 C 0.50276 0.76031 0.10195
 C325 C 0.47092 0.77287 0.11399
 C326 C 0.47052 0.79837 0.14153
 C327 C 0.50225 0.81210 0.15482
 C328 C 0.53425 0.79940 0.14130
 C329 C 0.56501 0.81101 0.15717
 C330 C 0.56472 0.83608 0.18424
 C331 C 0.53372 0.85086 0.19643
 C332 C 0.50198 0.83793 0.18236
 C333 C 0.43952 0.80933 0.15729
 C334 C 0.43927 0.83464 0.18411
 C335 C 0.46997 0.85019 0.19627
 C336 C 0.46990 0.87609 0.22341
 C337 C 0.50141 0.88659 0.23807
 C338 C 0.53320 0.87661 0.22373
 H339 H 0.58965 0.79990 0.14992
 H340 H 0.58907 0.84236 0.19648
 H341 H 0.41508 0.79767 0.15003
 H342 H 0.41478 0.84050 0.19623
 H343 H 0.50306 0.73830 0.08367
 H344 H 0.50118 0.90402 0.26086
 C345 C 0.77740 0.46840 0.87685
 C346 C 0.76354 0.50144 0.88610
 C347 C 0.77849 0.53375 0.87588
 C348 C 0.80521 0.53313 0.85040
 C349 C 0.81764 0.49976 0.83768
 C350 C 0.80386 0.46729 0.85117
 C351 C 0.81629 0.43491 0.83785
 C352 C 0.84255 0.43403 0.81288
 C353 C 0.85625 0.46545 0.79858
 C354 C 0.84383 0.49883 0.81129
 C355 C 0.81910 0.56458 0.83638
 C356 C 0.84532 0.56370 0.81134
 C357 C 0.85765 0.53129 0.79786
 C358 C 0.88381 0.53022 0.77182
 C359 C 0.89713 0.49712 0.76187
 C360 C 0.88264 0.46479 0.77271
 H361 H 0.80551 0.40974 0.84587
 H362 H 0.85215 0.40825 0.80555
 H363 H 0.80945 0.59034 0.84379
 H364 H 0.85591 0.58891 0.80311
 H365 H 0.74105 0.50211 0.90302
 H366 H 0.91947 0.49633 0.74483
 C367 C 0.21971 0.46750 0.12146
 C368 C 0.23078 0.50023 0.10790
 C369 C 0.22012 0.53298 0.12167
 C370 C 0.19378 0.53320 0.14757
 C371 C 0.18074 0.50027 0.16085
 C372 C 0.19336 0.46733 0.14734
 C373 C 0.17774 0.43553 0.15851
 C374 C 0.15191 0.43556 0.18403
 C375 C 0.14051 0.46740 0.19950
 C376 C 0.15424 0.50029 0.18694
 C377 C 0.17852 0.56505 0.15894
 C378 C 0.15265 0.56507 0.18440
 C379 C 0.14089 0.53321 0.19967
 C380 C 0.11479 0.53306 0.22581
 C381 C 0.10087 0.50038 0.23645
 C382 C 0.11438 0.46762 0.22565
 H383 H 0.18403 0.41033 0.14657
 H384 H 0.13999 0.41035 0.19016
 H385 H 0.18510 0.59027 0.14718
 H386 H 0.14100 0.59034 0.19067
 H387 H 0.24865 0.50024 0.08592
 H388 H 0.07872 0.50044 0.25378
 C389 C 0.78492 0.53246 0.11440
 C390 C 0.77549 0.49971 0.09968
 C391 C 0.78437 0.46709 0.11505
 C392 C 0.80881 0.46697 0.14289
 C393 C 0.82155 0.49995 0.15632
 C394 C 0.80938 0.53281 0.14219
 C395 C 0.82275 0.56481 0.15562
 C396 C 0.84640 0.56495 0.18327
 C397 C 0.85923 0.53307 0.19744
 C398 C 0.84654 0.50009 0.18396
 C399 C 0.82168 0.43509 0.15700
 C400 C 0.84540 0.43522 0.18461
 C401 C 0.85872 0.46723 0.19809
 C402 C 0.88322 0.46758 0.22585
 C403 C 0.89275 0.50035 0.24048
 C404 C 0.88366 0.53297 0.22529
 H405 H 0.81575 0.59023 0.14455
 H406 H 0.85388 0.59051 0.19366
 H407 H 0.81428 0.40956 0.14650
 H408 H 0.85259 0.40977 0.19550
 H409 H 0.75956 0.49958 0.07619
 H410 H 0.90846 0.50049 0.26410
 C411 C 0.22092 0.53192 0.87987
 C412 C 0.23076 0.49907 0.89400
 C413 C 0.22079 0.46653 0.87920
 C414 C 0.19621 0.46667 0.85150
 C415 C 0.18428 0.49978 0.83768
 C416 C 0.19620 0.53249 0.85239
 C417 C 0.18132 0.56446 0.84083
 C418 C 0.15710 0.56486 0.81373
 C419 C 0.14674 0.53333 0.79688
 C420 C 0.15956 0.50020 0.80980
 C421 C 0.18151 0.43503 0.83880
 C422 C 0.15732 0.43542 0.81163
 C423 C 0.14676 0.46748 0.79590
 C424 C 0.12232 0.46806 0.76809
 C425 C 0.10969 0.50098 0.75659
 C426 C 0.12231 0.53357 0.76905
 H427 H 0.18675 0.58941 0.85373
 H428 H 0.14554 0.59012 0.80750
 H429 H 0.18710 0.40968 0.85079
 H430 H 0.14605 0.41024 0.80430
 H431 H 0.24743 0.49882 0.91698
 H432 H 0.08873 0.50137 0.73774
 C433 C 0.27504 0.43713 0.09393
 C434 C 0.28141 0.39855 0.10612
 C435 C 0.27064 0.38532 0.06932
 C436 C 0.26430 0.42383 0.05706
 C437 C 0.23285 0.38196 0.08127
 C438 C 0.24333 0.39587 0.11861
 C439 C 0.23692 0.43454 0.10592
 C440 C 0.22643 0.42087 0.06905
 H441 H 0.29328 0.45937 0.09914
 H442 H 0.30422 0.38917 0.12124
 H443 H 0.27317 0.43575 0.03182
 H444 H 0.21564 0.35891 0.07596
 H445 H 0.23598 0.38360 0.14422
 H446 H 0.20376 0.43009 0.05362
 C447 C 0.73027 0.56128 0.08373
 C448 C 0.72017 0.59772 0.09919
 C449 C 0.73261 0.61564 0.06502
 C450 C 0.74272 0.57926 0.04947
 C451 C 0.76904 0.62038 0.08048
 C452 C 0.75681 0.60178 0.11516
 C453 C 0.76705 0.56528 0.09928
 C454 C 0.77930 0.58352 0.06504
 H455 H 0.71315 0.53757 0.08501
 H456 H 0.69567 0.60375 0.11314
 H457 H 0.73681 0.56992 0.02225
 H458 H 0.78478 0.64506 0.07906
 H459 H 0.76129 0.61160 0.14245
 H460 H 0.80370 0.57760 0.05087
 C461 C 0.72817 0.41902 0.88398
 C462 C 0.74217 0.38170 0.89451
 C463 C 0.72778 0.38722 0.93198
 C464 C 0.71375 0.42411 0.92168
 C465 C 0.76198 0.40396 0.94406
 C466 C 0.77680 0.39916 0.90633
 C467 C 0.76238 0.43612 0.89583
 C468 C 0.74801 0.44087 0.93375
 H469 H 0.71421 0.42528 0.85911
 H470 H 0.73959 0.35702 0.87855
 H471 H 0.68775 0.43480 0.92791
 H472 H 0.77569 0.39763 0.96908
 H473 H 0.80300 0.38833 0.90147
 H474 H 0.75049 0.46460 0.95112
 C475 C 0.27587 0.56142 0.90901
 C476 C 0.28321 0.59980 0.89677
 C477 C 0.27176 0.61342 0.93318
 C478 C 0.26447 0.57512 0.94550
 C479 C 0.23436 0.61735 0.92017
 C480 C 0.24554 0.60306 0.88323
 C481 C 0.23813 0.56459 0.89597
 C482 C 0.22695 0.57862 0.93245
 H483 H 0.29376 0.53879 0.90442
 H484 H 0.30657 0.60873 0.88225
 H485 H 0.27251 0.56322 0.97104
 H486 H 0.21745 0.64071 0.92491
 H487 H 0.23906 0.61530 0.85735
 H488 H 0.20373 0.56984 0.94727
 C489 C 0.06960 0.22361 0.42011
 C490 C 0.05546 0.26181 0.42359
 C491 C 0.06719 0.26979 0.38561
 C492 C 0.08129 0.23173 0.38167
 C493 C 0.10226 0.28303 0.39915
 C494 C 0.09061 0.27500 0.43724
 C495 C 0.10478 0.23655 0.43411
 C496 C 0.11689 0.24471 0.39591
 H497 H 0.05600 0.19906 0.42875
 H498 H 0.03022 0.26907 0.43533
 H499 H 0.07730 0.21407 0.35848
 H500 H 0.11554 0.30771 0.39034
 H501 H 0.09444 0.29372 0.45964
 H502 H 0.14228 0.23946 0.38346
 C503 C 0.06714 0.77686 0.57845
 C504 C 0.05346 0.73845 0.57484
 C505 C 0.06625 0.73021 0.61243
 C506 C 0.07989 0.76848 0.61648
 C507 C 0.10116 0.71774 0.59787
 C508 C 0.08844 0.72603 0.56018
 C509 C 0.10210 0.76465 0.56349
 C510 C 0.11530 0.75627 0.60123
 H511 H 0.05303 0.80128 0.57039
 H512 H 0.02805 0.73089 0.56365
 H513 H 0.07624 0.78576 0.64000
 H514 H 0.11499 0.69320 0.60607
 H515 H 0.09196 0.70767 0.53743
 H516 H 0.14099 0.76226 0.61276
 C517 C 0.92936 0.77465 0.42204
 C518 C 0.94354 0.73639 0.42471
 C519 C 0.93155 0.72914 0.38663
 C520 C 0.91742 0.76729 0.38352
 C521 C 0.89657 0.71561 0.40014
 C522 C 0.90848 0.72290 0.43831
 C523 C 0.89430 0.76138 0.43597
 C524 C 0.88192 0.75400 0.39772
 H525 H 0.94299 0.79902 0.43110
 H526 H 0.96884 0.72890 0.43618
 H527 H 0.92123 0.78540 0.36064
 H528 H 0.88323 0.69112 0.39092
 H529 H 0.90483 0.70377 0.46041
 H530 H 0.85637 0.75983 0.38582
 C531 C 0.88471 0.24420 0.60312
 C532 C 0.92086 0.23201 0.61647
 C533 C 0.93396 0.27052 0.61283
 C534 C 0.89833 0.28298 0.60015
 C535 C 0.94517 0.26343 0.57450
 C536 C 0.93203 0.22480 0.57771
 C537 C 0.89631 0.23696 0.56460
 C538 C 0.90946 0.27581 0.56172
 H539 H 0.85966 0.23785 0.61584
 H540 H 0.92571 0.21414 0.63933
 H541 H 0.88464 0.30714 0.60958
 H542 H 0.96995 0.27165 0.56234
 H543 H 0.94604 0.20077 0.56843
 H544 H 0.90478 0.29460 0.53953
 C545 C 0.40054 0.09663 0.22442
 C546 C 0.40418 0.05760 0.23728
 C547 C 0.38890 0.06815 0.27324
 C548 C 0.38457 0.10689 0.26082
 C549 C 0.42517 0.07647 0.28762
 C550 C 0.44047 0.06594 0.25160
 C551 C 0.43688 0.10508 0.23922
 C552 C 0.42125 0.11540 0.27518
 H553 H 0.38980 0.10354 0.19809
 H554 H 0.39698 0.03361 0.22178
 H555 H 0.36125 0.12356 0.26478
 H556 H 0.43574 0.06822 0.31367
 H557 H 0.46301 0.04811 0.24769
 H558 H 0.42834 0.13934 0.29084
 C559 C 0.57967 0.11505 0.73076
 C560 C 0.61593 0.10525 0.74540
 C561 C 0.61186 0.06771 0.72965
 C562 C 0.57603 0.07730 0.71499
 C563 C 0.59556 0.05422 0.76417
 C564 C 0.59889 0.09199 0.78035
 C565 C 0.56299 0.10174 0.76527
 C566 C 0.55971 0.06378 0.74954
 H567 H 0.57308 0.14024 0.71693
 H568 H 0.63937 0.12216 0.74352
 H569 H 0.56617 0.07136 0.68804
 H570 H 0.60222 0.02890 0.77775
 H571 H 0.60879 0.09669 0.80749
 H572 H 0.53737 0.04530 0.75131
 C573 C 0.43779 0.91324 0.72821
 C574 C 0.40216 0.89744 0.71928
 C575 C 0.38523 0.93203 0.73212
 C576 C 0.42079 0.94791 0.74104
 C577 C 0.38193 0.91704 0.76983
 C578 C 0.39951 0.88194 0.75720
 C579 C 0.43516 0.89817 0.76623
 C580 C 0.41793 0.93282 0.77888
 H581 H 0.46021 0.91170 0.71001
 H582 H 0.39546 0.88299 0.69459
 H583 H 0.42961 0.97524 0.73426
 H584 H 0.35858 0.91868 0.78673
 H585 H 0.39034 0.85449 0.76279
 H586 H 0.42452 0.94749 0.80347
 C587 C 0.57945 0.88478 0.27540
 C588 C 0.61652 0.89317 0.26211
 C589 C 0.61204 0.93188 0.27454
 C590 C 0.57537 0.92368 0.28785
 C591 C 0.59774 0.94263 0.23819
 C592 C 0.60154 0.90362 0.22531
 C593 C 0.56478 0.89528 0.23902
 C594 C 0.56105 0.93440 0.25143
 H595 H 0.57188 0.86082 0.29079
 H596 H 0.63964 0.87637 0.26670
 H597 H 0.56416 0.93189 0.31361
 H598 H 0.60543 0.96665 0.22298
 H599 H 0.61301 0.89685 0.19929
 H600 H 0.53869 0.95234 0.24693
 C601 C 0.43745 0.28412 0.91701
 C602 C 0.40274 0.29466 0.90017
 C603 C 0.38390 0.27881 0.93222
 C604 C 0.41852 0.26827 0.94911
 C605 C 0.38133 0.24234 0.91389
 C606 C 0.40084 0.25802 0.88137
 C607 C 0.43553 0.24732 0.89859
 C608 C 0.41638 0.23163 0.93068
 H609 H 0.45956 0.30288 0.91849
 H610 H 0.39688 0.32075 0.88769
 H611 H 0.42588 0.27266 0.97716
 H612 H 0.35789 0.22536 0.91267
 H613 H 0.39337 0.25472 0.85321
 H614 H 0.42211 0.20563 0.94337
 C615 C 0.56254 0.71607 0.91589
 C616 C 0.59736 0.70666 0.89863
 C617 C 0.61606 0.72201 0.93101
 C618 C 0.58136 0.73142 0.94832
 C619 C 0.61788 0.75902 0.91366
 C620 C 0.59849 0.74386 0.88081
 C621 C 0.56371 0.75336 0.89845
 C622 C 0.58273 0.76857 0.93086
 H623 H 0.54075 0.69688 0.91698
 H624 H 0.60364 0.68105 0.88545
 H625 H 0.57426 0.72616 0.97629
 H626 H 0.64100 0.77647 0.91279
 H627 H 0.60561 0.74835 0.85273
 H628 H 0.57658 0.79411 0.94424
 C629 C 0.40406 0.77402 0.08649
 C630 C 0.40569 0.75418 0.05065
 C631 C 0.38668 0.72230 0.06713
 C632 C 0.38432 0.74179 0.10282
 C633 C 0.42127 0.70539 0.07791
 C634 C 0.44031 0.73724 0.06134
 C635 C 0.43867 0.75673 0.09736
 C636 C 0.41935 0.72495 0.11382
 H637 H 0.39698 0.80252 0.08941
 H638 H 0.39986 0.76616 0.02446
 H639 H 0.36098 0.74351 0.11972
 H640 H 0.42868 0.67702 0.07456
 H641 H 0.46215 0.73517 0.04247
 H642 H 0.42512 0.71290 0.13997
 C643 C 0.56209 0.26089 0.06124
 C644 C 0.58076 0.29341 0.07694
 C645 C 0.61555 0.27661 0.06667
 C646 C 0.59688 0.24406 0.05107
 C647 C 0.61810 0.25817 0.10291
 C648 C 0.58289 0.27493 0.11337
 C649 C 0.56390 0.24248 0.09781
 C650 C 0.59869 0.22526 0.08748
 H651 H 0.54015 0.26213 0.04238
 H652 H 0.57296 0.32157 0.07279
 H653 H 0.60286 0.23141 0.02525
 H654 H 0.64145 0.25719 0.11988
 H655 H 0.57698 0.28766 0.13916
 H656 H 0.60609 0.19694 0.09117
 C657 C 0.22785 0.08914 0.60111
 C658 C 0.24521 0.05216 0.59778
 C659 C 0.27750 0.06665 0.61646
 C660 C 0.26053 0.10343 0.62053
 C661 C 0.29316 0.07763 0.58069
 C662 C 0.26082 0.06312 0.56199
 C663 C 0.24387 0.10032 0.56531
 C664 C 0.27615 0.11465 0.58431
 H665 H 0.20075 0.09261 0.60990
 H666 H 0.23262 0.02618 0.60345
 H667 H 0.26057 0.11985 0.64494
 H668 H 0.32012 0.07299 0.57192
 H669 H 0.26092 0.04510 0.53870
 H670 H 0.28892 0.14053 0.57870
 C671 C 0.71244 0.09356 0.43747
 C672 C 0.70627 0.10586 0.39910
 C673 C 0.71805 0.06912 0.38606
 C674 C 0.72412 0.05672 0.42428
 C675 C 0.75558 0.08210 0.38324
 C676 C 0.74411 0.11938 0.39705
 C677 C 0.75031 0.10657 0.43547
 C678 C 0.76177 0.06977 0.42190
 H679 H 0.69370 0.09832 0.45917
 H680 H 0.68325 0.12055 0.38949
 H681 H 0.71559 0.03111 0.43597
 H682 H 0.77321 0.07727 0.36062
 H683 H 0.75115 0.14547 0.38526
 H684 H 0.78467 0.05477 0.43134
 C685 C 0.76342 0.92934 0.58149
 C686 C 0.72587 0.94264 0.57953
 C687 C 0.71994 0.92990 0.61768
 C688 C 0.75740 0.91662 0.62004
 C689 C 0.70781 0.89338 0.60423
 C690 C 0.71379 0.90606 0.56598
 C691 C 0.75156 0.89277 0.56758
 C692 C 0.74553 0.87958 0.60589
 H693 H 0.78637 0.94431 0.57207
 H694 H 0.71751 0.96849 0.56828
 H695 H 0.77521 0.92107 0.64261
 H696 H 0.68474 0.87872 0.61382
 H697 H 0.69485 0.90170 0.54435
 H698 H 0.75242 0.85331 0.61736
 C699 C 0.28289 0.91290 0.43765
 C700 C 0.29171 0.89667 0.40138
 C701 C 0.27888 0.93089 0.38350
 C702 C 0.27004 0.94718 0.41969
 C703 C 0.24223 0.91549 0.38029
 C704 C 0.25484 0.88077 0.39886
 C705 C 0.24593 0.89742 0.43513
 C706 C 0.23327 0.93167 0.41692
 H707 H 0.30095 0.91189 0.46043
 H708 H 0.31592 0.88238 0.39473
 H709 H 0.27640 0.97469 0.42835
 H710 H 0.22573 0.91662 0.35631
 H711 H 0.24932 0.85312 0.39011
 H712 H 0.20915 0.94618 0.42344
 C713 C 0.12004 0.39719 0.74303
 C714 C 0.08548 0.38134 0.75708
 C715 C 0.07017 0.38420 0.71965
 C716 C 0.10425 0.39933 0.70537
 C717 C 0.05702 0.42198 0.72751
 C718 C 0.07236 0.41955 0.76506
 C719 C 0.10647 0.43511 0.75101
 C720 C 0.09113 0.43723 0.71326
 H721 H 0.14625 0.38659 0.74836
 H722 H 0.08304 0.35801 0.77494
 H723 H 0.11722 0.39076 0.68063
 H724 H 0.03110 0.43252 0.72091
 H725 H 0.05912 0.42795 0.78970
 H726 H 0.09342 0.45946 0.69402
 C727 C 0.11534 0.60308 0.25241
 C728 C 0.08168 0.62120 0.23879
 C729 C 0.06624 0.61799 0.27611
 C730 C 0.09942 0.60056 0.28994
 C731 C 0.05107 0.58123 0.26702
 C732 C 0.06661 0.58398 0.22956
 C733 C 0.09984 0.56623 0.24320
 C734 C 0.08432 0.56372 0.28084
 H735 H 0.14207 0.61246 0.24742
 H736 H 0.08052 0.64521 0.22169
 H737 H 0.11280 0.60761 0.31495
 H738 H 0.02444 0.57217 0.27314
 H739 H 0.05301 0.57706 0.20464
 H740 H 0.08536 0.54074 0.29931
 C741 C 0.91133 0.39843 0.22544
 C742 C 0.94720 0.40212 0.24311
 C743 C 0.93332 0.38369 0.27648
 C744 C 0.89764 0.37927 0.25921
 C745 C 0.92270 0.41989 0.29211
 C746 C 0.93661 0.43833 0.25870
 C747 C 0.90052 0.43467 0.24144
 C748 C 0.88679 0.41592 0.27480
 H749 H 0.90789 0.38919 0.19778
 H750 H 0.97233 0.39632 0.23025
 H751 H 0.88178 0.35463 0.25959
 H752 H 0.92730 0.42908 0.31962
 H753 H 0.95402 0.46185 0.25846
 H754 H 0.86177 0.42166 0.28786
 C755 C 0.91823 0.55950 0.71817
 C756 C 0.90280 0.59533 0.70626
 C757 C 0.93417 0.61455 0.72212
 C758 C 0.94961 0.57884 0.73406
 C759 C 0.91554 0.61869 0.75779
 C760 C 0.88373 0.59873 0.74210
 C761 C 0.89954 0.56291 0.75418
 C762 C 0.93090 0.58249 0.76989
 H763 H 0.91954 0.53608 0.70029
 H764 H 0.89134 0.60084 0.67991
 H765 H 0.97683 0.57047 0.73081
 H766 H 0.91453 0.64340 0.77387
 H767 H 0.85637 0.60712 0.74448
 H768 H 0.94255 0.57709 0.79618
 C769 C 0.77622 0.60554 0.90126
 C770 C 0.73939 0.61928 0.89194
 C771 C 0.72877 0.61474 0.93082
 C772 C 0.76512 0.60178 0.94051
 C773 C 0.71702 0.57621 0.92382
 C774 C 0.72769 0.58032 0.88475
 C775 C 0.76410 0.56682 0.89410
 C776 C 0.75346 0.56322 0.93344
 H777 H 0.80073 0.61883 0.89381
 H778 H 0.73339 0.64263 0.87500
 H779 H 0.78036 0.61068 0.96378
 H780 H 0.69271 0.56352 0.93299
 H781 H 0.71215 0.57150 0.86168
 H782 H 0.75934 0.54057 0.95138
 C783 C 0.24441 0.39468 0.88306
 C784 C 0.28250 0.39776 0.89554
 C785 C 0.27176 0.38524 0.93257
 C786 C 0.23400 0.38140 0.92065
 C787 C 0.26529 0.42390 0.94415
 C788 C 0.27595 0.43655 0.90701
 C789 C 0.23783 0.43357 0.89501
 C790 C 0.22742 0.42052 0.93214
 H791 H 0.23729 0.38167 0.85775
 H792 H 0.30536 0.38824 0.88063
 H793 H 0.21687 0.35840 0.92640
 H794 H 0.27412 0.43638 0.96915
 H795 H 0.29394 0.45889 0.90139
 H796 H 0.20470 0.42990 0.94737
 C797 C 0.22833 0.57895 0.06894
 C798 C 0.23469 0.61805 0.08066
 C799 C 0.27272 0.61430 0.06970
 C800 C 0.26645 0.57563 0.05790
 C801 C 0.28259 0.60170 0.10696
 C802 C 0.24422 0.60471 0.11848
 C803 C 0.23786 0.56583 0.10629
 C804 C 0.27624 0.56292 0.09527
 H805 H 0.20596 0.56957 0.05310
 H806 H 0.21770 0.64103 0.07455
 H807 H 0.27589 0.56315 0.03316
 H808 H 0.30511 0.61122 0.12248
 H809 H 0.23643 0.61754 0.14366
 H810 H 0.29412 0.54062 0.10130
 C811 C 0.72870 0.43880 0.08601
 C812 C 0.74003 0.42157 0.05097
 C813 C 0.73014 0.38491 0.06606
 C814 C 0.71877 0.40204 0.10098
 C815 C 0.76696 0.37963 0.08030
 C816 C 0.77700 0.41679 0.06535
 C817 C 0.76591 0.43433 0.10036
 C818 C 0.75587 0.39750 0.11574
 H819 H 0.71192 0.46266 0.08835
 H820 H 0.73342 0.43163 0.02417
 H821 H 0.69463 0.39583 0.11554
 H822 H 0.78252 0.35494 0.07787
 H823 H 0.80103 0.42289 0.05055
 H824 H 0.76093 0.38688 0.14263
 C825 C 0.88343 0.75301 0.60494
 C826 C 0.89651 0.71403 0.60187
 C827 C 0.93248 0.72615 0.61387
 C828 C 0.91994 0.76481 0.61767
 C829 C 0.94321 0.73302 0.57536
 C830 C 0.90711 0.72102 0.56321
 C831 C 0.89451 0.76004 0.56619
 C832 C 0.93060 0.77181 0.57870
 H833 H 0.85869 0.75966 0.61810
 H834 H 0.88264 0.69005 0.61157
 H835 H 0.92536 0.78272 0.64037
 H836 H 0.96765 0.72445 0.56274
 H837 H 0.90184 0.70229 0.54113
 H838 H 0.94478 0.79565 0.56915
 C839 C 0.88342 0.24460 0.39603
 C840 C 0.89709 0.28340 0.39900
 C841 C 0.93260 0.27096 0.38601
 C842 C 0.91946 0.23247 0.38231
 C843 C 0.94420 0.26371 0.42421
 C844 C 0.90858 0.27605 0.43733
 C845 C 0.89536 0.23720 0.43445
 C846 C 0.93098 0.22509 0.42098
 H847 H 0.85827 0.23829 0.38349
 H848 H 0.88329 0.30760 0.38981
 H849 H 0.92407 0.21464 0.35938
 H850 H 0.96910 0.27184 0.43622
 H851 H 0.90411 0.29476 0.45961
 H852 H 0.94507 0.20102 0.43003
 C853 C 0.11781 0.24693 0.60203
 C854 C 0.10311 0.28519 0.59815
 C855 C 0.06822 0.27215 0.61228
 C856 C 0.08239 0.23420 0.61691
 C857 C 0.05600 0.26339 0.57463
 C858 C 0.09102 0.27632 0.56034
 C859 C 0.10527 0.23795 0.56414
 C860 C 0.07026 0.22527 0.57878
 H861 H 0.14337 0.24189 0.61425
 H862 H 0.11646 0.31007 0.60628
 H863 H 0.07870 0.21700 0.64050
 H864 H 0.03066 0.27041 0.56296
 H865 H 0.09458 0.29456 0.53749
 H866 H 0.05661 0.20052 0.57080
 C867 C 0.06643 0.77642 0.42040
 C868 C 0.07769 0.76968 0.38157
 C869 C 0.06579 0.73076 0.38519
 C870 C 0.05444 0.73737 0.42356
 C871 C 0.10181 0.71939 0.39768
 C872 C 0.11425 0.75864 0.39480
 C873 C 0.10255 0.76540 0.43340
 C874 C 0.09058 0.72611 0.43618
 H875 H 0.05172 0.79996 0.42976
 H876 H 0.07225 0.78748 0.35880
 H877 H 0.02995 0.72836 0.43581
 H878 H 0.11622 0.69571 0.38817
 H879 H 0.13901 0.76580 0.38193
 H880 H 0.09588 0.70744 0.45832
 C881 C 0.55934 0.91378 0.72736
 C882 C 0.57653 0.94843 0.74017
 C883 C 0.61197 0.93271 0.73066
 C884 C 0.59486 0.89815 0.71784
 C885 C 0.61579 0.91745 0.76822
 C886 C 0.57991 0.93307 0.77787
 C887 C 0.56251 0.89844 0.76526
 C888 C 0.59804 0.88239 0.75561
 H889 H 0.53667 0.91230 0.70946
 H890 H 0.56762 0.97579 0.73368
 H891 H 0.60120 0.88389 0.69296
 H892 H 0.63936 0.91904 0.78484
 H893 H 0.57370 0.94756 0.80265
 H894 H 0.60733 0.85494 0.76087
 C895 C 0.42245 0.88367 0.27404
 C896 C 0.42591 0.92260 0.28663
 C897 C 0.38950 0.93044 0.27235
 C898 C 0.38565 0.89168 0.25978
 C899 C 0.40460 0.94137 0.23640
 C900 C 0.44102 0.93353 0.25061
 C901 C 0.43790 0.89438 0.23809
 C902 C 0.40143 0.90234 0.22340
 H903 H 0.42985 0.85978 0.28961
 H904 H 0.43646 0.93088 0.31267
 H905 H 0.36255 0.87463 0.26371
 H906 H 0.39709 0.96532 0.22099
 H907 H 0.46333 0.95172 0.24675
 H908 H 0.39074 0.89535 0.19707
 C909 C 0.60059 0.09816 0.22616
 C910 C 0.61536 0.10825 0.26316
 C911 C 0.61127 0.06929 0.27503
 C912 C 0.59717 0.05891 0.23848
 C913 C 0.57448 0.07681 0.28833
 C914 C 0.57817 0.11595 0.27645
 C915 C 0.56371 0.10581 0.23988
 C916 C 0.56036 0.06646 0.25172
 H917 H 0.61211 0.10547 0.20030
 H918 H 0.63830 0.12530 0.26805
 H919 H 0.60514 0.03523 0.22294
 H920 H 0.56326 0.06807 0.31393
 H921 H 0.57032 0.13956 0.29217
 H922 H 0.53817 0.04833 0.24691
 C923 C 0.43884 0.06351 0.74988
 C924 C 0.40317 0.05378 0.76489
 C925 C 0.38644 0.06719 0.73055
 C926 C 0.42210 0.07695 0.71550
 C927 C 0.38248 0.10472 0.74634
 C928 C 0.39994 0.09153 0.78110
 C929 C 0.43565 0.10146 0.76564
 C930 C 0.41855 0.11469 0.73131
 H931 H 0.46125 0.04515 0.75139
 H932 H 0.39673 0.02843 0.77854
 H933 H 0.43165 0.07107 0.68845
 H934 H 0.35898 0.12152 0.74472
 H935 H 0.39036 0.09622 0.80835
 H936 H 0.42493 0.13991 0.71742
 C937 C 0.56474 0.74232 0.05894
 C938 C 0.60005 0.75861 0.04968
 C939 C 0.61771 0.72495 0.06407
 C940 C 0.58240 0.70867 0.07339
 C941 C 0.62045 0.74178 0.10105
 C942 C 0.60206 0.77582 0.08687
 C943 C 0.56673 0.75910 0.09627
 C944 C 0.58474 0.72552 0.11055
 H945 H 0.54276 0.74256 0.04008
 H946 H 0.60651 0.77211 0.02439
 H947 H 0.57383 0.68096 0.06800
 H948 H 0.64368 0.74142 0.11823
 H949 H 0.61030 0.80375 0.09162
 H950 H 0.57833 0.71184 0.13575
 C951 C 0.43773 0.25911 0.06025
 C952 C 0.40238 0.24288 0.05096
 C953 C 0.38476 0.27644 0.06558
 C954 C 0.42009 0.29268 0.07492
 C955 C 0.38214 0.25936 0.10247
 C956 C 0.40048 0.22542 0.08804
 C957 C 0.43584 0.24206 0.09748
 C958 C 0.41788 0.27556 0.11200
 H959 H 0.45963 0.25901 0.04132
 H960 H 0.39583 0.22951 0.02563
 H961 H 0.42859 0.32044 0.06966
 H962 H 0.35896 0.25961 0.11969
 H963 H 0.39226 0.19747 0.09265
 H964 H 0.42436 0.28906 0.13727
 C965 C 0.58217 0.23176 0.93135
 C966 C 0.61749 0.24223 0.91500
 C967 C 0.61490 0.27882 0.93311
 C968 C 0.58002 0.26851 0.94955
 C969 C 0.59657 0.29455 0.90069
 C970 C 0.59847 0.25780 0.88211
 C971 C 0.56351 0.24731 0.89888
 C972 C 0.56159 0.28423 0.91708
 H973 H 0.57615 0.20584 0.94410
 H974 H 0.64083 0.22515 0.91422
 H975 H 0.57232 0.27312 0.97746
 H976 H 0.60272 0.32055 0.88817
 H977 H 0.60632 0.25437 0.85409
 H978 H 0.53955 0.30307 0.91810
 C979 C 0.39971 0.74496 0.88396
 C980 C 0.40127 0.70698 0.90006
 C981 C 0.38485 0.72109 0.93423
 C982 C 0.38263 0.75886 0.91861
 C983 C 0.42072 0.72925 0.94966
 C984 C 0.43724 0.71517 0.91543
 C985 C 0.43567 0.75325 0.89974
 C986 C 0.41892 0.76716 0.93396
 H987 H 0.39080 0.75060 0.85662
 H988 H 0.39378 0.68206 0.88622
 H989 H 0.35982 0.77666 0.92000
 H990 H 0.42948 0.72261 0.97684
 H991 H 0.45887 0.69584 0.91419
 H992 H 0.42627 0.79199 0.94804
 C993 C 0.71352 0.90688 0.43865
 C994 C 0.72553 0.94354 0.42525
 C995 C 0.71941 0.93103 0.38705
 C996 C 0.70735 0.89442 0.40035
 C997 C 0.75686 0.91775 0.38448
 C998 C 0.76307 0.93024 0.42308
 C999 C 0.75127 0.89358 0.43682
 C1000 C 0.74505 0.88063 0.39847
 H1001 H 0.69468 0.90239 0.46033
 H1002 H 0.71722 0.96929 0.43673
 H1003 H 0.68422 0.87983 0.39078
 H1004 H 0.77456 0.92234 0.36186
 H1005 H 0.78607 0.94514 0.43249
 H1006 H 0.75191 0.85443 0.38685
 C1007 C 0.28150 0.91236 0.56450
 C1008 C 0.26871 0.94719 0.58138
 C1009 C 0.27623 0.93147 0.61816
 C1010 C 0.28899 0.89669 0.60135
 C1011 C 0.23924 0.91674 0.62045
 C1012 C 0.23163 0.93237 0.58323
 C1013 C 0.24423 0.89755 0.56607
 C1014 C 0.25180 0.88146 0.60294
 H1015 H 0.30017 0.91058 0.54230
 H1016 H 0.27577 0.97443 0.57240
 H1017 H 0.31275 0.88210 0.60903
 H1018 H 0.22204 0.91862 0.64384
 H1019 H 0.20797 0.94718 0.57568
 H1020 H 0.24566 0.85408 0.61211
 C1021 C 0.26089 0.06243 0.43872
 C1022 C 0.24609 0.05152 0.40255
 C1023 C 0.27890 0.06579 0.38471
 C1024 C 0.29375 0.07671 0.42086
 C1025 C 0.26225 0.10267 0.38013
 C1026 C 0.22903 0.08861 0.39870
 C1027 C 0.24425 0.09974 0.43491
 C1028 C 0.27707 0.11382 0.41672
 H1029 H 0.26030 0.04450 0.46208
 H1030 H 0.23349 0.02562 0.39658
 H1031 H 0.32046 0.07192 0.43038
 H1032 H 0.26298 0.11906 0.35571
 H1033 H 0.20218 0.09211 0.38911
 H1034 H 0.28987 0.13962 0.42262
 C1035 C 0.71365 0.09323 0.56487
 C1036 C 0.72556 0.05657 0.57833
 C1037 C 0.71997 0.06930 0.61653
 C1038 C 0.70802 0.10591 0.60318
 C1039 C 0.75754 0.08240 0.61862
 C1040 C 0.76322 0.06969 0.58001
 C1041 C 0.75153 0.10634 0.56622
 C1042 C 0.74584 0.11951 0.60457
 H1043 H 0.69456 0.09771 0.54342
 H1044 H 0.71692 0.03080 0.56708
 H1045 H 0.68512 0.12068 0.61292
 H1046 H 0.77548 0.07783 0.64106
 H1047 H 0.78600 0.05461 0.57043
 H1048 H 0.75309 0.14573 0.61595
 C1049 C 0.88840 0.58398 0.27461
 C1050 C 0.92469 0.57982 0.29098
 C1051 C 0.93491 0.61636 0.27579
 C1052 C 0.89885 0.62096 0.25944
 C1053 C 0.94806 0.59863 0.24177
 C1054 C 0.93783 0.56207 0.25690
 C1055 C 0.90134 0.56591 0.24057
 C1056 C 0.91178 0.60251 0.22500
 H1057 H 0.86369 0.57793 0.28818
 H1058 H 0.92994 0.57011 0.31820
 H1059 H 0.88296 0.64551 0.26066
 H1060 H 0.97289 0.60476 0.22843
 H1061 H 0.95511 0.53851 0.25580
 H1062 H 0.90791 0.61243 0.19764
 C1063 C 0.93397 0.41858 0.76698
 C1064 C 0.92273 0.37938 0.76078
 C1065 C 0.93484 0.38244 0.72219
 C1066 C 0.94610 0.42121 0.72827
 C1067 C 0.89887 0.39482 0.71053
 C1068 C 0.88624 0.39244 0.74942
 C1069 C 0.89787 0.43147 0.75567
 C1070 C 0.91003 0.43371 0.71670
 H1071 H 0.94862 0.42834 0.79029
 H1072 H 0.92811 0.35671 0.77882
 H1073 H 0.97059 0.43346 0.71924
 H1074 H 0.88459 0.38485 0.68707
 H1075 H 0.86150 0.37924 0.75621
 H1076 H 0.90479 0.45568 0.69777
 C1077 C 0.09511 0.56590 0.71323
 C1078 C 0.05856 0.57707 0.72451
 C1079 C 0.06904 0.61635 0.72031
 C1080 C 0.10550 0.60530 0.70889
 C1081 C 0.08036 0.61800 0.75925
 C1082 C 0.06989 0.57833 0.76355
 C1083 C 0.10645 0.56680 0.75248
 C1084 C 0.11733 0.60629 0.74813
 H1085 H 0.10122 0.54490 0.69352
 H1086 H 0.03463 0.56457 0.71427
 H1087 H 0.11999 0.61662 0.68620
 H1088 H 0.07415 0.63974 0.77809
 H1089 H 0.05504 0.56720 0.78610
 H1090 H 0.14178 0.61931 0.75632
 C1091 C 0.08392 0.43704 0.28081
 C1092 C 0.05017 0.42023 0.26728
 C1093 C 0.06471 0.38315 0.27598
 C1094 C 0.09838 0.39986 0.28952
 C1095 C 0.07972 0.37992 0.23847
 C1096 C 0.06528 0.41746 0.22963
 C1097 C 0.09901 0.43451 0.24297
 C1098 C 0.11387 0.39731 0.25180
 H1099 H 0.08561 0.45991 0.29937
 H1100 H 0.02379 0.42974 0.27376
 H1101 H 0.11189 0.39242 0.31435
 H1102 H 0.07790 0.35606 0.22122
 H1103 H 0.05154 0.42478 0.20490
 H1104 H 0.14034 0.38743 0.24649
   
