data_POSCAR
  _audit_creation_date              2014-09-24
  _audit_creation_method            'ToBaCCo'
  _symmetry_space_group_name_H-M    'P1'
  _symmetry_Int_Tables_number       1
  _symmetry_cell_setting            triclinic
  loop_
  _symmetry_equiv_pos_as_xyz
 x,y,z
_cell_length_a 35.7437
_cell_length_b 36.1837
_cell_length_c 10.2342
_cell_angle_alpha 90.701200
_cell_angle_beta 91.039200
_cell_angle_gamma 119.008100
loop_
  _atom_site_label
  _atom_site_type_symbol
  _atom_site_fract_x
  _atom_site_fract_y
  _atom_site_fract_z
C1 C 0.22629 0.53034 0.49098
 C2 C 0.22151 0.50780 0.60591
 C3 C 0.24530 0.48689 0.62401
 C4 C 0.27767 0.49227 0.53750
 C5 C 0.28529 0.51815 0.42702
 C6 C 0.25878 0.53626 0.40508
 H7 H 0.26170 0.55319 0.31590
 H8 H 0.24211 0.47036 0.71451
 C9 C 0.49738 -0.27742 0.39401
 C10 C 0.50461 -0.28593 0.52541
 C11 C 0.50634 -0.25894 0.62801
 C12 C 0.50452 -0.22150 0.60555
 C13 C 0.49815 -0.21262 0.47437
 C14 C 0.49230 -0.24159 0.37348
 H15 H 0.48632 -0.23405 0.27618
 H16 H 0.51102 -0.26670 0.72669
 C17 C 1.26408 0.80131 0.40072
 C18 C 1.27939 0.79256 0.51916
 C19 C 1.25105 0.75944 0.59666
 C20 C 1.20839 0.73207 0.55788
 C21 C 1.19308 0.74053 0.44057
 C22 C 1.22036 0.77512 0.36584
 H23 H 1.20753 0.77911 0.27370
 H24 H 1.26293 0.75529 0.69031
 C25 C 0.76314 0.47440 0.39223
 C26 C 0.77541 0.47146 0.52255
 C27 C 0.75321 0.47747 0.62643
 C28 C 0.71865 0.48558 0.60445
 C29 C 0.70927 0.49120 0.47273
 C30 C 0.73009 0.48369 0.36951
 H31 H 0.72257 0.48820 0.26973
 H32 H 0.76153 0.47288 0.72461
 C33 C 0.49011 0.28377 0.47554
 C34 C 0.49420 0.27261 0.60618
 C35 C 0.49932 0.23668 0.62504
 C36 C 0.50264 0.21318 0.51955
 C37 C 0.49742 0.22438 0.39065
 C38 C 0.49241 0.25989 0.37093
 H39 H 0.48765 0.26766 0.27208
 H40 H 0.50470 0.22896 0.72288
 C41 C 0.73111 0.20840 0.45725
 C42 C 0.74176 0.20447 0.58826
 C43 C 0.78321 0.23219 0.63842
 C44 C 0.81366 0.26438 0.56282
 C45 C 0.80237 0.26915 0.43360
 C46 C 0.76213 0.23975 0.38106
 H47 H 0.75326 0.24399 0.28263
 H48 H 0.79136 0.22961 0.73935
 O49 O 0.94155 0.51013 -0.30110
 O50 O 0.89758 0.45412 -0.17518
 C51 C 0.90494 0.47754 -0.27599
 O52 O 1.08677 0.47880 -0.13534
 O53 O 1.11806 0.54359 -0.02949
 C54 C 1.11978 0.51382 -0.09721
 O55 O 0.97250 0.40323 -0.20490
 O56 O 0.91223 0.40210 -0.12737
 C57 C 0.93141 0.38614 -0.19601
 O58 O 1.05822 0.59292 -0.24284
 O59 O 1.10324 0.59694 -0.07399
 C60 C 1.09561 0.60986 -0.18326
 Zr61 Zr 0.99993 0.53838 -0.18910
 O62 O 1.00926 0.53656 -0.39211
 O63 O 0.98469 0.58752 -0.21288
 Zr64 Zr 1.02135 0.45890 -0.11611
 O65 O 1.03699 0.45462 -0.31197
 O66 O 1.02996 0.40682 -0.06686
 O67 O 0.97560 0.47284 -0.19542
 O68 O 1.04744 0.52212 -0.15939
 O69 O 1.03072 0.60542 0.20362
 O70 O 1.09076 0.60344 0.13768
 C71 C 1.07183 0.62114 0.19864
 O72 O 0.94516 0.41601 0.25945
 O73 O 0.89908 0.41134 0.09218
 C74 C 0.90745 0.39955 0.20242
 O75 O 1.06519 0.49520 0.30715
 O76 O 1.10659 0.55186 0.18067
 C77 C 1.10131 0.52874 0.28062
 O78 O 0.91548 0.52296 0.16210
 O79 O 0.88496 0.46146 0.03866
 C80 C 0.88262 0.48885 0.11590
 Zr81 Zr 0.98157 0.54684 0.12919
 O82 O 0.97415 0.55638 0.32947
 O83 O 0.96392 0.59286 0.07792
 Zr84 Zr 1.00419 0.46809 0.20213
 O85 O 0.99655 0.47359 0.40405
 O86 O 1.01446 0.41601 0.23486
 Zr87 Zr 0.94052 0.46091 -0.02317
 Zr88 Zr 1.06279 0.54498 0.03491
 O89 O 1.02692 0.53257 0.20574
 O90 O 0.95498 0.48306 0.17278
 O91 O 1.02607 0.57403 -0.01764
 O92 O 0.97807 0.43306 0.03104
 O93 O 0.95317 0.52341 -0.05229
 O94 O 1.05153 0.48300 0.06537
 H95 H 1.07031 0.53236 -0.22425
 H96 H 0.96392 0.40192 0.03871
 H97 H 1.04090 0.54731 0.28939
 H98 H 0.92926 0.52861 -0.07758
 H99 H 1.05269 0.41655 0.00218
 H100 H 1.04527 0.42571 0.22396
 H101 H 0.97009 0.47558 0.41415
 H102 H 0.95524 0.52834 0.36593
 H103 H 0.98734 0.61446 0.02657
 H104 H 0.98668 0.59326 -0.30759
 H105 H 1.03341 0.53088 -0.40376
 H106 H 1.01663 0.45900 -0.36739
 O107 O 0.58555 0.54484 0.27128
 O108 O 0.57758 0.48206 0.18897
 C109 C 0.59567 0.51493 0.26641
 O110 O 0.39725 0.47831 0.18894
 O111 O 0.41239 0.52812 0.03205
 C112 C 0.39059 0.50620 0.12981
 O113 O 0.45396 0.41844 0.27839
 O114 O 0.51402 0.42075 0.19375
 C115 C 0.48229 0.40591 0.27289
 O116 O 0.52822 0.60429 0.17303
 O117 O 0.47523 0.58851 0.01687
 C118 C 0.50108 0.61215 0.10992
 Zr119 Zr 0.54131 0.55322 0.15224
 O120 O 0.54152 0.57173 0.34904
 O121 O 0.60219 0.60715 0.13250
 Zr122 Zr 0.44660 0.46262 0.16253
 O123 O 0.43975 0.47511 0.36079
 O124 O 0.38885 0.40438 0.16370
 O125 O 0.51163 0.49057 0.21307
 O126 O 0.47575 0.52751 0.15233
 O127 O 0.54409 0.58155 -0.27061
 O128 O 0.48228 0.57702 -0.19228
 C129 C 0.51537 0.59369 -0.26609
 O130 O 0.46903 0.39343 -0.17937
 O131 O 0.52140 0.40891 -0.02141
 C132 C 0.49600 0.38555 -0.11537
 O133 O 0.40417 0.44706 -0.25351
 O134 O 0.41509 0.51252 -0.18689
 C135 C 0.39440 0.47716 -0.25349
 O136 O 0.59629 0.51535 -0.19489
 O137 O 0.58406 0.46925 -0.02811
 C138 C 0.60524 0.49021 -0.12783
 Zr139 Zr 0.54866 0.53355 -0.16638
 O140 O 0.54948 0.52310 -0.37021
 O141 O 0.61035 0.58697 -0.17253
 Zr142 Zr 0.45482 0.44363 -0.15670
 O143 O 0.45876 0.43640 -0.36087
 O144 O 0.39890 0.38395 -0.15546
 Zr145 Zr 0.52850 0.46665 0.04916
 Zr146 Zr 0.46683 0.52989 -0.05129
 O147 O 0.48407 0.50582 -0.21379
 O148 O 0.52082 0.46813 -0.15573
 O149 O 0.53382 0.56937 -0.03700
 O150 O 0.46160 0.42812 0.03208
 O151 O 0.56978 0.53147 0.02138
 O152 O 0.42480 0.46501 -0.02563
 H153 H 0.46539 0.54120 0.21562
 H154 H 0.44853 0.39739 0.04736
 H155 H 0.47621 0.51119 -0.30218
 H156 H 0.60105 0.54289 0.03379
 H157 H 0.36776 0.40685 0.10563
 H158 H 0.37845 0.38694 -0.09856
 H159 H 0.48428 0.43318 -0.37636
 H160 H 0.54781 0.49519 -0.38347
 H161 H 0.60913 0.61040 -0.12565
 H162 H 0.59801 0.62868 0.08555
 H163 H 0.51651 0.54825 0.38923
 H164 H 0.46597 0.47987 0.40929
 O165 O 0.45807 0.07172 0.15266
 O166 O 0.52033 0.11238 0.04563
 C167 C 0.48843 0.10781 0.11371
 O168 O 0.53123 -0.04561 0.28338
 O169 O 0.47742 -0.09768 0.15702
 C170 C 0.50527 -0.08480 0.25407
 O171 O 0.58624 0.06995 0.26413
 O172 O 0.58028 0.11187 0.10832
 C173 C 0.59660 0.10641 0.21585
 O174 O 0.39387 -0.04681 0.16865
 O175 O 0.41122 -0.09777 0.10622
 C176 C 0.38577 -0.08573 0.15780
 Zr177 Zr 0.44815 0.00935 0.11477
 O178 O 0.43606 0.01261 0.31523
 O179 O 0.39224 0.01118 0.05416
 Zr180 Zr 0.54028 0.00953 0.19373
 O181 O 0.52586 0.01322 0.39101
 O182 O 0.59938 0.01407 0.25306
 O183 O 0.51224 0.04788 0.16957
 O184 O 0.47437 -0.02659 0.18777
 O185 O 0.41634 -0.06371 -0.26939
 O186 O 0.42286 -0.10601 -0.11481
 C187 C 0.40634 -0.10028 -0.22178
 O188 O 0.60748 0.05530 -0.19477
 O189 O 0.59083 0.10450 -0.11056
 C190 C 0.61538 0.09409 -0.17325
 O191 O 0.54743 -0.06453 -0.15542
 O192 O 0.48378 -0.10647 -0.05559
 C193 C 0.51661 -0.10108 -0.12113
 O194 O 0.48253 0.05355 -0.30980
 O195 O 0.53122 0.10445 -0.16764
 C196 C 0.50899 0.09259 -0.27592
 Zr197 Zr 0.46313 -0.00269 -0.20314
 O198 O 0.46610 -0.01153 -0.40632
 O199 O 0.40700 0.00190 -0.23941
 Zr200 Zr 0.55588 -0.00239 -0.12523
 O201 O 0.56381 -0.01288 -0.32417
 O202 O 0.61550 0.00160 -0.07518
 Zr203 Zr 0.53373 0.06565 -0.02119
 Zr204 Zr 0.46981 -0.05962 0.01239
 O205 O 0.49203 -0.03977 -0.17721
 O206 O 0.52970 0.03370 -0.19912
 O207 O 0.42938 -0.03462 -0.04008
 O208 O 0.57338 0.03991 0.03074
 O209 O 0.46773 0.03996 -0.06025
 O210 O 0.53617 -0.03386 0.05030
 H211 H 0.46134 -0.04311 0.26671
 H212 H 0.60455 0.05862 0.04514
 H213 H 0.48619 -0.06131 -0.24663
 H214 H 0.45639 0.05908 -0.08543
 H215 H 0.60524 -0.00341 0.19055
 H216 H 0.60980 -0.02245 -0.01858
 H217 H 0.55833 0.00714 -0.37518
 H218 H 0.48162 -0.02762 -0.41837
 H219 H 0.38354 -0.02083 -0.19116
 H220 H 0.37955 0.01517 0.13483
 H221 H 0.46102 0.03782 0.35429
 H222 H 0.52555 0.04018 0.40493
 N223 N 1.17469 0.58225 0.34536
 N224 N 1.21070 0.58270 0.40035
 C225 C 1.19793 0.54521 0.45626
 C226 C 1.15352 0.52001 0.43859
 C227 C 1.14051 0.54392 0.36405
 H228 H 1.13482 0.48661 0.45742
 H229 H 1.17591 0.60573 0.28452
 H230 H 1.24210 0.60677 0.38890
 N231 N 0.50286 0.68082 0.07696
 N232 N 0.50231 0.71182 0.15803
 C233 C 0.49676 0.69811 0.28285
 C234 C 0.49267 0.65778 0.28098
 C235 C 0.49785 0.64900 0.15320
 H236 H 0.48574 0.63608 0.35983
 H237 H 0.50897 0.68365 -0.02288
 H238 H 0.50916 0.74155 0.12493
 N239 N 0.30742 -0.11825 0.15995
 N240 N 0.27377 -0.14905 0.22865
 C241 C 0.28992 -0.16628 0.31413
 C242 C 0.33433 -0.14710 0.29856
 C243 C 0.34357 -0.11756 0.20134
 H244 H 0.35727 -0.15347 0.34946
 H245 H 0.30455 -0.09867 0.09094
 H246 H 0.24234 -0.15453 0.21967
 N247 N 0.80281 0.44913 0.10483
 N248 N 0.77113 0.44559 0.17781
 C249 C 0.78767 0.47386 0.27801
 C250 C 0.83160 0.49743 0.26589
 C251 C 0.83996 0.48012 0.15654
 H252 H 0.85452 0.52090 0.33427
 H253 H 0.79907 0.42930 0.02484
 H254 H 0.73917 0.42248 0.16357
 N255 N 0.44343 0.35162 0.43926
 N256 N 0.44475 0.31887 0.49017
 C257 C 0.47846 0.31667 0.44204
 C258 C 0.49920 0.34911 0.35508
 C259 C 0.47612 0.37076 0.35700
 H260 H 0.52667 0.35555 0.29726
 H261 H 0.41991 0.36000 0.45881
 H262 H 0.42271 0.29826 0.55594
 N263 N 0.63320 0.18235 0.28496
 N264 N 0.66773 0.20863 0.35435
 C265 C 0.68685 0.18719 0.40239
 C266 C 0.66351 0.14536 0.36067
 C267 C 0.62970 0.14367 0.28719
 H268 H 0.67187 0.12053 0.37148
 H269 H 0.61313 0.19110 0.23462
 H270 H 0.67910 0.24116 0.36349
 N271 N 0.53591 0.13400 -0.47662
 N272 N 0.53526 0.16873 -0.53190
 C273 C 0.51235 0.18037 -0.45421
 C274 C 0.49998 0.15476 -0.34536
 C275 C 0.51430 0.12584 -0.36527
 H276 H 0.48132 0.15568 -0.26448
 H277 H 0.55162 0.11843 -0.51431
 H278 H 0.55219 0.18397 -0.61440
 N279 N 0.67327 0.48845 -0.08472
 N280 N 0.70552 0.48856 -0.16023
 C281 C 0.69379 0.48612 -0.28819
 C282 C 0.65335 0.48344 -0.29403
 C283 C 0.64243 0.48603 -0.16698
 H284 H 0.63260 0.47862 -0.37763
 H285 H 0.67471 0.49227 0.01695
 H286 H 0.73431 0.49240 -0.12056
 N287 N 0.92358 0.32994 -0.35279
 N288 N 0.89056 0.29601 -0.42141
 C289 C 0.85347 0.29241 -0.38034
 C290 C 0.86154 0.32313 -0.28415
 C291 C 0.90590 0.34649 -0.27189
 H292 H 0.83839 0.32952 -0.23675
 H293 H 0.95611 0.34140 -0.36841
 H294 H 0.89458 0.27748 -0.49295
 N295 N 0.53890 -0.15613 -0.10166
 N296 N 0.53440 -0.19050 -0.17732
 C297 C 0.51130 -0.19334 -0.28709
 C298 C 0.49915 -0.16204 -0.27927
 C299 C 0.51782 -0.13920 -0.16474
 H300 H 0.47973 -0.15583 -0.34837
 H301 H 0.55679 -0.14514 -0.01427
 H302 H 0.55033 -0.20752 -0.15606
 N303 N 0.32048 0.43013 -0.33210
 N304 N 0.28731 0.43432 -0.39022
 C305 C 0.30339 0.47470 -0.42679
 C306 C 0.34647 0.49751 -0.38900
 C307 C 0.35558 0.46849 -0.32856
 H308 H 0.36718 0.53132 -0.39346
 H309 H 0.31700 0.40282 -0.28778
 H310 H 0.25533 0.41062 -0.39611
 N311 N 1.17320 0.64859 -0.21073
 N312 N 1.20223 0.67875 -0.28043
 C313 C 1.18308 0.69454 -0.35941
 C314 C 1.13876 0.67178 -0.34037
 C315 C 1.13425 0.64301 -0.24436
 H316 H 1.11364 0.67626 -0.38483
 H317 H 1.18024 0.63192 -0.14105
 H318 H 1.23473 0.68777 -0.27336
 N319 N 0.85759 0.44152 -0.46892
 N320 N 0.82016 0.43867 -0.52299
 C321 C 0.80932 0.46307 -0.44886
 C322 C 0.83851 0.48055 -0.34463
 C323 C 0.86849 0.46737 -0.36334
 H324 H 0.83918 0.50182 -0.26814
 H325 H 0.87339 0.42572 -0.50413
 H326 H 0.80302 0.41901 -0.60250
 N327 N 0.48835 0.31456 -0.07896
 N328 N 0.48671 0.28235 -0.15946
 C329 C 0.49516 0.29690 -0.28283
 C330 C 0.50387 0.33876 -0.28071
 C331 C 0.49810 0.34788 -0.15464
 H332 H 0.51382 0.36108 -0.35874
 H333 H 0.47992 0.31154 0.01908
 H334 H 0.47672 0.25168 -0.12828
 N335 N 0.67348 0.16670 -0.13925
 N336 N 0.70592 0.19576 -0.20228
 C337 C 0.70942 0.17886 -0.31610
 C338 C 0.67807 0.13641 -0.32482
 C339 C 0.65573 0.13037 -0.21053
 H340 H 0.67161 0.11362 -0.40290
 H341 H 0.66308 0.17215 -0.04989
 H342 H 0.72442 0.22708 -0.16932
 N343 N 1.19716 0.55838 -0.13654
 N344 N 1.22521 0.55688 -0.22648
 C345 C 1.20600 0.51802 -0.28335
 C346 C 1.16580 0.49423 -0.23366
 C347 C 1.16107 0.52087 -0.14425
 H348 H 1.14131 0.46351 -0.26939
 H349 H 1.20240 0.58526 -0.08311
 H350 H 1.25433 0.58263 -0.25146
 N351 N 0.55440 0.64924 -0.42951
 N352 N 0.55170 0.68086 -0.48371
 C353 C 0.51679 0.68160 -0.43946
 C354 C 0.49676 0.64939 -0.35102
 C355 C 0.52149 0.62933 -0.34853
 H356 H 0.46860 0.64200 -0.29545
 H357 H 0.57882 0.64193 -0.44667
 H358 H 0.57362 0.70174 -0.54917
 N359 N 0.37682 -0.17450 -0.29996
 N360 N 0.34504 -0.20181 -0.37645
 C361 C 0.32343 -0.18300 -0.42585
 C362 C 0.34264 -0.14151 -0.37906
 C363 C 0.37609 -0.13772 -0.29862
 H364 H 0.33171 -0.11863 -0.39238
 H365 H 0.39801 -0.18136 -0.24774
 H366 H 0.33683 -0.23359 -0.38860
 N367 N 0.54559 -0.10183 0.41750
 N368 N 0.54415 -0.13485 0.47451
 C369 C 0.50819 -0.16968 0.43410
 C370 C 0.48625 -0.15840 0.34270
 C371 C 0.51111 -0.11475 0.33659
 H372 H 0.45695 -0.17887 0.28842
 H373 H 0.57066 -0.07098 0.43177
 H374 H 0.56806 -0.13344 0.53798
 N375 N 0.36026 0.55413 0.16520
 N376 N 0.33480 0.55847 0.24840
 C377 C 0.31730 0.52448 0.32566
 C378 C 0.33259 0.49720 0.28861
 C379 C 0.35979 0.51732 0.18687
 H380 H 0.32566 0.46727 0.33005
 H381 H 0.37926 0.57713 0.09928
 H382 H 0.33074 0.58514 0.25399
 N383 N 1.08392 0.68497 0.32804
 N384 N 1.11588 0.71622 0.39454
 C385 C 1.15077 0.71148 0.38399
 C386 C 1.14127 0.67662 0.30554
 C387 C 1.09850 0.66061 0.27221
 H388 H 1.16241 0.66451 0.27794
 H389 H 1.05272 0.68038 0.32203
 H390 H 1.11360 0.73993 0.44703
 N391 N 0.51278 0.18377 0.08946
 N392 N 0.51597 0.21502 0.16478
 C393 C 0.49380 0.19858 0.27346
 C394 C 0.47357 0.15477 0.26366
 C395 C 0.48808 0.14691 0.14828
 H396 H 0.45603 0.13231 0.33804
 H397 H 0.52997 0.18797 0.00431
 H398 H 0.53584 0.24701 0.14662
 N399 N 0.65415 0.55112 0.43516
 N400 N 0.68479 0.54519 0.48800
 C401 C 0.68139 0.50909 0.43721
 C402 C 0.64771 0.49153 0.34760
 C403 C 0.63106 0.51890 0.35006
 H404 H 0.63682 0.46283 0.28918
 H405 H 0.64951 0.57688 0.45672
 H406 H 0.70749 0.56544 0.55755
 N407 N 0.83143 0.36343 0.25651
 N408 N 0.80402 0.32921 0.31625
 C409 C 0.82492 0.30964 0.36498
 C410 C 0.86802 0.33293 0.33583
 C411 C 0.87044 0.36665 0.26688
 H412 H 0.89345 0.32549 0.35317
 H413 H 0.82333 0.38403 0.20875
 H414 H 0.77143 0.31946 0.32289
   
