data_POSCAR
  _audit_creation_date              2014-09-24
  _audit_creation_method            'ToBaCCo'
  _symmetry_space_group_name_H-M    'P1'
  _symmetry_Int_Tables_number       1
  _symmetry_cell_setting            triclinic
  loop_
  _symmetry_equiv_pos_as_xyz
 x,y,z
_cell_length_a 34.7864
_cell_length_b 26.6583
_cell_length_c 12.8909
_cell_angle_alpha 87.499400
_cell_angle_beta 89.855000
_cell_angle_gamma 90.189600
loop_
  _atom_site_label
  _atom_site_type_symbol
  _atom_site_fract_x
  _atom_site_fract_y
  _atom_site_fract_z
C1 C 0.80600 0.11514 0.45752
 C2 C 0.81111 0.12032 0.56175
 C3 C 0.79973 0.16873 0.58266
 N4 N 0.78662 0.19270 0.49525
 C5 C 0.79081 0.16004 0.41873
 C6 C 0.80342 0.19151 0.67952
 C7 C 0.77861 0.23105 0.70603
 C8 C 0.78447 0.26309 0.78647
 C9 C 0.75372 0.29546 0.78619
 C10 C 0.72960 0.28217 0.70595
 N11 N 0.74510 0.24288 0.65766
 C12 C 0.69357 0.30442 0.68090
 C13 C 0.67473 0.29356 0.58679
 C14 C 0.63525 0.29222 0.57154
 C15 C 0.62952 0.28598 0.46755
 C16 C 0.66563 0.28285 0.42306
 N17 N 0.69326 0.28673 0.49619
 C18 C 0.67329 0.28040 0.31551
 C19 C 0.70702 0.25713 0.28076
 C20 C 0.72088 0.25876 0.17959
 C21 C 0.75250 0.22764 0.17895
 C22 C 0.75697 0.20825 0.27974
 N23 N 0.72919 0.22628 0.34088
 C24 C 0.78411 0.17198 0.31272
 H25 H 0.81253 0.08205 0.41507
 H26 H 0.82205 0.09168 0.61586
 H27 H 0.72328 0.21393 0.41704
 H28 H 0.80869 0.26382 0.83890
 H29 H 0.75008 0.32561 0.83878
 H30 H 0.61291 0.29571 0.62935
 H31 H 0.60199 0.28390 0.42901
 H32 H 0.76988 0.21975 0.11186
 H33 H 0.73193 0.22261 0.60022
 H34 H 0.70931 0.27960 0.11293
 C35 C 0.33342 0.63872 0.53009
 C36 C 0.33145 0.64057 0.42446
 C37 C 0.30596 0.67854 0.39649
 N38 N 0.29206 0.69973 0.48258
 C39 C 0.30956 0.67626 0.56476
 C40 C 0.29423 0.68997 0.29282
 C41 C 0.26205 0.71994 0.26736
 C42 C 0.24198 0.71916 0.17460
 C43 C 0.21274 0.75353 0.18102
 C44 C 0.21638 0.77512 0.27655
 N45 N 0.24657 0.75454 0.32826
 C46 C 0.19429 0.81556 0.31045
 C47 C 0.19911 0.83537 0.40924
 C48 C 0.19149 0.88456 0.43224
 C49 C 0.19779 0.88794 0.53641
 C50 C 0.20809 0.84029 0.57420
 N51 N 0.20948 0.80828 0.49578
 C52 C 0.21292 0.82601 0.68081
 C53 C 0.23659 0.78474 0.71231
 C54 C 0.23901 0.76364 0.81248
 C55 C 0.26447 0.72430 0.80917
 C56 C 0.27669 0.72179 0.70694
 N57 N 0.26008 0.75932 0.64899
 C58 C 0.30312 0.68593 0.67114
 H59 H 0.34975 0.61117 0.57517
 H60 H 0.34582 0.61484 0.37471
 H61 H 0.26657 0.76949 0.57230
 H62 H 0.24745 0.69595 0.10941
 H63 H 0.19176 0.76220 0.12111
 H64 H 0.18271 0.91494 0.37913
 H65 H 0.19466 0.92153 0.57985
 H66 H 0.27253 0.69987 0.87473
 H67 H 0.25847 0.76728 0.39602
 H68 H 0.22370 0.77465 0.88095
 C69 C 0.36585 0.26740 -0.40936
 C70 C 0.36836 0.27077 -0.51573
 C71 C 0.33175 0.28162 -0.55206
 N72 N 0.30690 0.28463 -0.47182
 C73 C 0.32778 0.27644 -0.38431
 C74 C 0.32206 0.29144 -0.65767
 C75 C 0.28820 0.27008 -0.70014
 C76 C 0.27819 0.27035 -0.80475
 C77 C 0.24408 0.24432 -0.81140
 C78 C 0.23341 0.22969 -0.71084
 N79 N 0.26080 0.24466 -0.64444
 C80 C 0.19758 0.20754 -0.68168
 C81 C 0.18098 0.21798 -0.58455
 C82 C 0.14305 0.23167 -0.56994
 C83 C 0.13848 0.23762 -0.46558
 C84 C 0.17375 0.22721 -0.41978
 N85 N 0.19997 0.21665 -0.49311
 C86 C 0.18058 0.22499 -0.31112
 C87 C 0.21499 0.24463 -0.26960
 C88 C 0.21954 0.26146 -0.16979
 C89 C 0.25675 0.27880 -0.16265
 C90 C 0.27422 0.27151 -0.25767
 N91 N 0.24854 0.25072 -0.32178
 C92 C 0.31330 0.28146 -0.28237
 H93 H 0.38937 0.25955 -0.35635
 H94 H 0.39411 0.26596 -0.56151
 H95 H 0.25472 0.23708 -0.39386
 H96 H 0.29342 0.28681 -0.87101
 H97 H 0.22806 0.23971 -0.88218
 H98 H 0.12117 0.23749 -0.62880
 H99 H 0.11220 0.24826 -0.42723
 H100 H 0.26915 0.29498 -0.09485
 H101 H 0.26156 0.23594 -0.56550
 H102 H 0.19816 0.26309 -0.10900
 C103 C -0.31620 0.62552 -0.53565
 C104 C -0.32277 0.63236 -0.43252
 C105 C -0.31035 0.68053 -0.41336
 N106 N -0.29568 0.70309 -0.50125
 C107 C -0.29998 0.66971 -0.57656
 C108 C -0.31265 0.70342 -0.31608
 C109 C -0.28558 0.74023 -0.29002
 C110 C -0.28862 0.77205 -0.20794
 C111 C -0.25492 0.79919 -0.20607
 C112 C -0.23240 0.78302 -0.28692
 N113 N -0.25130 0.74733 -0.33771
 C114 C -0.19433 0.79795 -0.30824
 C115 C -0.17585 0.78570 -0.40129
 C116 C -0.13651 0.78139 -0.41487
 C117 C -0.13059 0.77592 -0.51907
 C118 C -0.16650 0.77810 -0.56553
 N119 N -0.19420 0.78303 -0.49306
 C120 C -0.17387 0.77967 -0.67358
 C121 C -0.20824 0.75744 -0.71064
 C122 C -0.22235 0.76202 -0.81143
 C123 C -0.25546 0.73351 -0.81399
 C124 C -0.26104 0.71253 -0.71468
 N125 N -0.23213 0.72708 -0.65260
 C126 C -0.29162 0.67991 -0.68328
 H127 H -0.32238 0.59166 -0.57600
 H128 H -0.33455 0.60454 -0.37753
 H129 H -0.22761 0.71378 -0.57641
 H130 H -0.31249 0.77531 -0.15467
 H131 H -0.24774 0.82711 -0.15075
 H132 H -0.11448 0.78267 -0.35591
 H133 H -0.10301 0.77162 -0.55668
 H134 H -0.27366 0.72957 -0.88112
 H135 H -0.23972 0.72527 -0.39468
 H136 H -0.21067 0.78393 -0.87672
 O137 O -0.03508 0.97467 0.19952
 O138 O 0.03774 0.93776 -0.16289
 O139 O -0.08235 0.97181 -0.09891
 O140 O 0.06195 0.94629 0.06954
 O141 O -0.03288 0.93561 -0.16494
 O142 O 0.03464 0.97607 0.20060
 O143 O 0.08559 0.97776 -0.09714
 O144 O -0.05875 0.94025 0.06917
 C145 C -0.05344 0.93905 0.16364
 C146 C 0.07317 0.94339 -0.15188
 C147 C -0.06846 0.93989 -0.15672
 C148 C 0.05528 0.94312 0.16333
 O149 O 0.03655 1.07048 0.11943
 O150 O -0.03604 1.03424 -0.21437
 O151 O -0.09276 1.02671 0.08521
 O152 O 0.06223 1.06695 -0.07136
 O153 O 0.03784 1.03631 -0.21277
 O154 O -0.03846 1.06860 0.11759
 O155 O 0.09286 1.03404 0.08758
 O156 O -0.06338 1.06134 -0.07310
 Co157 Co -0.00044 1.02089 0.14452
 Co158 Co 0.00161 0.98706 -0.17492
 Co159 Co -0.05647 1.00173 0.00393
 Co160 Co 0.05776 1.00691 0.00474
 O161 O 0.00077 0.99904 -0.01481
 C162 C 0.07292 1.06707 0.13754
 C163 C -0.05839 1.06453 -0.17028
 C164 C -0.07499 1.06295 0.13164
 C165 C 0.05784 1.06911 -0.16859
 O166 O 0.47570 0.46547 0.21347
 O167 O 0.53731 0.44358 -0.13916
 O168 O 0.42898 0.43491 -0.03028
 O169 O 0.55525 0.44361 0.05262
 O170 O 0.46585 0.44675 -0.16627
 O171 O 0.54177 0.47890 0.19387
 O172 O 0.58980 0.48469 -0.09234
 O173 O 0.42207 0.47959 0.13710
 C174 C 0.44128 0.45546 0.20307
 C175 C 0.57374 0.45005 -0.14767
 C176 C 0.44069 0.42152 -0.11661
 C177 C 0.55578 0.44240 0.14920
 O178 O 0.52999 0.57702 0.13796
 O179 O 0.47348 0.54883 -0.19822
 O180 O 0.42223 0.56520 0.03727
 O181 O 0.55275 0.57180 -0.06121
 O182 O 0.54020 0.53951 -0.19928
 O183 O 0.46022 0.56432 0.17351
 O184 O 0.57975 0.53627 0.09229
 O185 O 0.42229 0.52028 -0.13038
 Co186 Co 0.50130 0.52092 0.16509
 Co187 Co 0.50283 0.49521 -0.15871
 Co188 Co 0.43065 0.50081 0.00344
 Co189 Co 0.55130 0.50673 -0.00974
 O190 O 0.49423 0.50728 0.00574
 C191 C 0.56587 0.57294 0.13791
 C192 C 0.43882 0.55394 -0.18216
 C193 C 0.43265 0.58315 0.12108
 C194 C 0.55251 0.57621 -0.15565
 C195 C 0.34597 0.32301 0.27769
 C196 C 0.37271 0.35466 0.31282
 C197 C 0.39222 0.39132 0.24175
 C198 C 0.42286 0.41722 0.27223
 H199 H 0.37877 0.35672 0.39473
 H200 H 0.38125 0.39749 0.16354
 H201 H 0.34066 0.32586 0.19521
 H202 H 0.43537 0.40906 0.34800
 C203 C -0.14804 0.80457 0.25472
 C204 C -0.12221 0.83968 0.28086
 C205 C -0.09854 0.86836 0.20313
 C206 C -0.07224 0.90140 0.23431
 H207 H -0.12025 0.85124 0.36000
 H208 H -0.10435 0.86495 0.12116
 H209 H -0.15066 0.79785 0.17289
 H210 H -0.06692 0.90436 0.31667
 C211 C 0.68652 0.65625 0.23974
 C212 C 0.64932 0.64399 0.25362
 C213 C 0.62760 0.61331 0.18146
 C214 C 0.58954 0.60879 0.19314
 H215 H 0.63423 0.65620 0.32173
 H216 H 0.64269 0.59249 0.12365
 H217 H 0.69950 0.64986 0.16497
 H218 H 0.57487 0.63138 0.24883
 C219 C 0.17740 1.17873 0.24528
 C220 C 0.14593 1.15076 0.26795
 C221 C 0.12815 1.11796 0.19211
 C222 C 0.09162 1.10302 0.20467
 H223 H 0.13339 1.14949 0.34476
 H224 H 0.14487 1.10586 0.12673
 H225 H 0.18947 1.17529 0.16844
 H226 H 0.07442 1.11814 0.26614
 C227 C 0.67668 0.33720 -0.24781
 C228 C 0.65042 0.37210 -0.27464
 C229 C 0.63160 0.40333 -0.19819
 C230 C 0.59563 0.41835 -0.21631
 H231 H 0.64179 0.37822 -0.35476
 H232 H 0.64616 0.41230 -0.12707
 H233 H 0.68611 0.33556 -0.16774
 H234 H 0.58061 0.40523 -0.28365
 C235 C 0.19275 0.85263 -0.24282
 C236 C 0.15744 0.87125 -0.26110
 C237 C 0.13572 0.90189 -0.18862
 C238 C 0.09852 0.91020 -0.20865
 H239 H 0.14316 0.86286 -0.33304
 H240 H 0.14976 0.91831 -0.12322
 H241 H 0.20441 0.85484 -0.16532
 H242 H 0.08518 0.89125 -0.27219
 C243 C 0.32368 0.65375 -0.25004
 C244 C 0.36206 0.65116 -0.25045
 C245 C 0.38228 0.60884 -0.19840
 C246 C 0.41808 0.59750 -0.22727
 H247 H 0.37823 0.67657 -0.30227
 H248 H 0.36713 0.58512 -0.14127
 H249 H 0.30700 0.62866 -0.19897
 H250 H 0.43296 0.62142 -0.28461
 C251 C -0.16854 1.17426 -0.24760
 C252 C -0.13486 1.15429 -0.27557
 C253 C -0.10954 1.12743 -0.20060
 C254 C -0.07939 1.10187 -0.23528
 H255 H -0.12655 1.15518 -0.35674
 H256 H -0.11772 1.12422 -0.11936
 H257 H -0.17387 1.17850 -0.16555
 H258 H -0.07238 1.10427 -0.31738
 C259 C 0.66002 0.68728 -0.24001
 C260 C 0.62543 0.66896 -0.26352
 C261 C 0.60107 0.64242 -0.18509
 C262 C 0.57016 0.61774 -0.21683
 H263 H 0.61593 0.67025 -0.34366
 H264 H 0.61118 0.63698 -0.10589
 H265 H 0.66688 0.69082 -0.15863
 H266 H 0.56181 0.62151 -0.29781
 C267 C 0.15285 1.20294 -0.24176
 C268 C 0.12563 1.17089 -0.27191
 C269 C 0.10198 1.14087 -0.19762
 C270 C 0.07675 1.10814 -0.23397
 H271 H 0.12306 1.16170 -0.35244
 H272 H 0.10722 1.14254 -0.11497
 H273 H 0.15621 1.20634 -0.15897
 H274 H 0.07209 1.10697 -0.31702
 C275 C 0.33919 0.29980 -0.19932
 C276 C 0.36678 0.33377 -0.22085
 C277 C 0.38959 0.35812 -0.14106
 C278 C 0.42264 0.38015 -0.17034
 H279 H 0.37157 0.34693 -0.30054
 H280 H 0.37744 0.36324 -0.06477
 H281 H 0.33389 0.28829 -0.11895
 H282 H 0.43393 0.37333 -0.24703
 C283 C -0.17383 0.82849 -0.23219
 C284 C -0.15074 0.86609 -0.26402
 C285 C -0.12820 0.89474 -0.19157
 C286 C -0.09292 0.90903 -0.21988
 H287 H -0.14652 0.87446 -0.34635
 H288 H -0.13962 0.90274 -0.11575
 H289 H -0.17844 0.82086 -0.14980
 H290 H -0.08099 0.89687 -0.29246
 C291 C 0.31489 0.66554 0.20764
 C292 C 0.35303 0.67039 0.19811
 C293 C 0.37549 0.63608 0.13592
 C294 C 0.41187 0.62577 0.16236
 H295 H 0.36823 0.69519 0.24862
 H296 H 0.36105 0.61461 0.07791
 H297 H 0.29922 0.64072 0.15842
 H298 H 0.42509 0.64511 0.22548
 C299 C -0.19412 1.14466 0.23415
 C300 C -0.15606 1.13922 0.24223
 C301 C -0.13478 1.10525 0.17675
 C302 C -0.09674 1.10063 0.18657
 H303 H -0.14074 1.15779 0.30304
 H304 H -0.15049 1.08229 0.12381
 H305 H -0.20958 1.12835 0.17088
 H306 H -0.08106 1.12477 0.23728
 C307 C 0.64609 0.30318 0.23710
 C308 C 0.62646 0.34492 0.25551
 C309 C 0.60095 0.37066 0.17899
 C310 C 0.57665 0.40482 0.21364
 H311 H 0.63001 0.36211 0.32956
 H312 H 0.60372 0.36440 0.09681
 H313 H 0.64375 0.28716 0.16157
 H314 H 0.57463 0.40929 0.29678
 C315 C 0.16662 0.84000 0.23706
 C316 C 0.13142 0.85334 0.26733
 C317 C 0.10606 0.88179 0.19590
 C318 C 0.07516 0.90573 0.23054
 H319 H 0.12225 0.84575 0.34696
 H320 H 0.11486 0.88709 0.11534
 H321 H 0.17529 0.84681 0.15682
 H322 H 0.06731 0.90231 0.31197
   
