data_POSCAR
  _audit_creation_date              2014-09-24
  _audit_creation_method            'ToBaCCo'
  _symmetry_space_group_name_H-M    'P1'
  _symmetry_Int_Tables_number       1
  _symmetry_cell_setting            triclinic
  loop_
  _symmetry_equiv_pos_as_xyz
 x,y,z
_cell_length_a 25.0784
_cell_length_b 24.1590
_cell_length_c 24.7058
_cell_angle_alpha 90.111400
_cell_angle_beta 90.002700
_cell_angle_gamma 89.895600
loop_
  _atom_site_label
  _atom_site_type_symbol
  _atom_site_fract_x
  _atom_site_fract_y
  _atom_site_fract_z
N1 N 0.19420 1.30623 0.15795
 N2 N 0.15674 1.30509 0.19519
 C3 C 0.11709 1.33971 0.18082
 C4 C 0.13067 1.36370 0.13202
 C5 C 0.17973 1.34160 0.11853
 H6 H 0.08038 1.34535 0.20317
 H7 H 0.20244 1.34939 0.08210
 Cu8 Cu 0.16151 1.25584 0.25719
 Cu9 Cu 0.25754 1.25966 0.16275
 Cu10 Cu 0.23694 1.14235 0.24010
 N11 N 0.15607 1.19305 0.30589
 N12 N 0.18584 1.14872 0.29899
 C13 C 0.17046 1.10943 0.33413
 C14 C 0.12870 1.13021 0.36437
 C15 C 0.12052 1.18345 0.34566
 H16 H 0.18619 1.06773 0.33539
 H17 H 0.08906 1.21163 0.35754
 N18 N 0.29582 1.14911 0.18776
 N19 N 0.30414 1.19416 0.15881
 C20 C 0.34464 1.18474 0.12415
 C21 C 0.36248 1.13128 0.13193
 C22 C 0.33106 1.10997 0.17260
 H23 H 0.35790 1.21341 0.09343
 H24 H 0.33208 1.06805 0.18783
 H25 H 0.20584 1.20132 0.18761
 H26 H 0.25344 1.22484 0.24089
 N27 N 0.80696 0.69519 0.15706
 N28 N 0.84274 0.69497 0.19597
 C29 C 0.88273 0.66038 0.18232
 C30 C 0.87117 0.63799 0.13220
 C31 C 0.82289 0.66080 0.11730
 H32 H 0.91834 0.65361 0.20611
 H33 H 0.80164 0.65398 0.07978
 Cu34 Cu 0.83552 0.74306 0.25870
 Cu35 Cu 0.74342 0.74144 0.16046
 Cu36 Cu 0.75415 0.85315 0.24820
 N37 N 0.84190 0.80594 0.30726
 N38 N 0.81050 0.84930 0.30231
 C39 C 0.82652 0.88893 0.33697
 C40 C 0.87029 0.86933 0.36487
 C41 C 0.87912 0.81650 0.34522
 H42 H 0.80927 0.92990 0.33993
 H43 H 0.91176 0.78913 0.35544
 N44 N 0.69953 0.84849 0.19099
 N45 N 0.69479 0.80541 0.15835
 C46 C 0.65636 0.81594 0.12168
 C47 C 0.63623 0.86809 0.13182
 C48 C 0.66421 0.88756 0.17590
 H49 H 0.64610 0.78912 0.08819
 H50 H 0.66073 0.92828 0.19381
 H51 H 0.79105 0.80136 0.19277
 H52 H 0.74238 0.76981 0.24055
 N53 N 0.80710 1.30462 -0.15640
 N54 N 0.84288 1.30481 -0.19529
 C55 C 0.88289 1.33918 -0.18153
 C56 C 0.87133 1.36147 -0.13136
 C57 C 0.82303 1.33883 -0.11653
 H58 H 0.91850 1.34589 -0.20530
 H59 H 0.80176 1.34566 -0.07901
 Cu60 Cu 0.83565 1.25696 -0.25818
 Cu61 Cu 0.74352 1.25868 -0.15997
 Cu62 Cu 0.75424 1.14717 -0.24800
 N63 N 0.84200 1.19420 -0.30693
 N64 N 0.81061 1.15094 -0.30208
 C65 C 0.82661 1.11135 -0.33686
 C66 C 0.87035 1.13088 -0.36473
 C67 C 0.87919 1.18361 -0.34494
 H68 H 0.80936 1.07046 -0.33992
 H69 H 0.91183 1.21089 -0.35511
 N70 N 0.69960 1.15190 -0.19080
 N71 N 0.69485 1.19492 -0.15807
 C72 C 0.65638 1.18446 -0.12147
 C73 C 0.63623 1.13241 -0.13176
 C74 C 0.66426 1.11294 -0.17585
 H75 H 0.64609 1.21123 -0.08792
 H76 H 0.66078 1.07228 -0.19387
 H77 H 0.79114 1.19866 -0.19242
 H78 H 0.74249 1.23055 -0.24014
 N79 N 0.19591 0.69408 -0.15859
 N80 N 0.15846 0.69511 -0.19584
 C81 C 0.11896 0.66051 -0.18136
 C82 C 0.13256 0.63674 -0.13247
 C83 C 0.18153 0.65883 -0.11908
 H84 H 0.08227 0.65472 -0.20365
 H85 H 0.20424 0.65112 -0.08262
 Cu86 Cu 0.16302 0.74427 -0.25791
 Cu87 Cu 0.25908 0.74065 -0.16348
 Cu88 Cu 0.23802 0.85781 -0.24098
 N89 N 0.15726 0.80703 -0.30665
 N90 N 0.18688 0.85137 -0.29982
 C91 C 0.17128 0.89064 -0.33494
 C92 C 0.12954 0.86984 -0.36509
 C93 C 0.12160 0.81661 -0.34635
 H94 H 0.18684 0.93236 -0.33623
 H95 H 0.09020 0.78842 -0.35815
 N96 N 0.29693 0.85118 -0.18864
 N97 N 0.30542 0.80616 -0.15962
 C98 C 0.34583 0.81566 -0.12493
 C99 C 0.36344 0.86914 -0.13273
 C100 C 0.33197 0.89037 -0.17346
 H101 H 0.35917 0.78705 -0.09414
 H102 H 0.33280 0.93228 -0.18871
 H103 H 0.20715 0.79892 -0.18843
 H104 H 0.25483 0.77534 -0.24167
 C105 C 0.50006 1.00029 -0.00020
 C106 C 0.00245 0.49943 1.00056
 C107 C 0.99976 0.00006 0.49985
 C108 C 0.06777 0.48186 1.08878
 C109 C 0.04843 0.42946 1.11889
 C110 C 0.09858 0.39872 1.09961
 C111 C 0.11844 0.45055 1.07007
 C112 C 0.06966 0.37873 1.04850
 C113 C 0.01899 0.40995 1.06728
 C114 C 0.03831 0.46227 1.03720
 C115 C 0.08895 0.43109 1.01839
 H116 H 0.06800 0.52397 1.10662
 H117 H 0.03166 0.42899 1.16046
 H118 H 0.15967 0.46713 1.07142
 H119 H 0.07058 0.33595 1.03205
 H120 H -0.02154 0.39177 1.06723
 H121 H 0.10684 0.43081 0.97738
 C122 C -0.08419 0.56767 1.01772
 C123 C -0.11377 0.54869 1.06939
 C124 C -0.09435 0.60096 1.09867
 C125 C -0.06524 0.62041 1.04752
 C126 C -0.04414 0.57067 1.11835
 C127 C -0.06310 0.51783 1.08856
 C128 C -0.03351 0.53692 1.03696
 C129 C -0.01452 0.58967 1.06674
 H130 H -0.10199 0.56750 0.97667
 H131 H -0.15495 0.53197 1.07069
 H132 H -0.06629 0.66301 1.03079
 H133 H -0.02767 0.57187 1.16003
 H134 H -0.06330 0.47595 1.10677
 H135 H 0.02595 0.60798 1.06671
 C136 C -0.06294 0.48133 0.91245
 C137 C -0.04396 0.42841 0.88268
 C138 C -0.09422 0.39833 0.90226
 C139 C -0.11367 0.45068 0.93152
 C140 C -0.06521 0.37874 0.95346
 C141 C -0.01444 0.40927 0.93434
 C142 C -0.03345 0.46209 0.96410
 C143 C -0.08418 0.43156 0.98323
 H144 H -0.06309 0.52321 0.89425
 H145 H -0.02742 0.42715 0.84103
 H146 H -0.15483 0.46757 0.93014
 H147 H -0.06631 0.33615 0.97018
 H148 H 0.02603 0.39079 0.93445
 H149 H -0.10205 0.43180 1.02425
 C150 C 0.08902 0.56737 0.98292
 C151 C 0.11855 0.54786 0.93126
 C152 C 0.09883 0.59984 0.90173
 C153 C 0.06981 0.61982 0.95284
 C154 C 0.04867 0.56933 0.88241
 C155 C 0.06790 0.51680 0.91245
 C156 C 0.03839 0.53645 0.96400
 C157 C 0.01916 0.58889 0.93395
 H158 H 0.10688 0.56755 1.02395
 H159 H 0.15978 0.53114 0.92993
 H160 H 0.07078 0.66258 0.96931
 H161 H 0.03207 0.57006 0.84077
 H162 H 0.06814 0.47470 0.89455
 H163 H -0.02135 0.60728 0.93394
 C164 C 1.08528 0.01693 0.43228
 C165 C 1.06567 0.04786 0.38131
 C166 C 1.09603 0.09952 0.40008
 C167 C 1.11609 0.06912 0.45060
 C168 C 1.04679 0.12064 0.43074
 C169 C 1.01595 0.06845 0.41243
 C170 C 1.03551 0.03739 0.46339
 C171 C 1.06624 0.08958 0.48190
 H172 H 1.10269 -0.02524 0.43182
 H173 H 1.06548 0.03073 0.33958
 H174 H 1.15759 0.06964 0.46622
 H175 H 1.03089 0.16354 0.43023
 H176 H 0.97524 0.06940 0.39508
 H177 H 1.06722 0.10805 0.52298
 C178 C 1.06657 -0.08950 0.51758
 C179 C 1.11645 -0.06907 0.54871
 C180 C 1.09666 -0.09946 0.59930
 C181 C 1.04738 -0.12056 0.56880
 C182 C 1.06620 -0.04778 0.61817
 C183 C 1.08555 -0.01687 0.56714
 C184 C 1.03574 -0.03730 0.53619
 C185 C 1.01644 -0.06834 0.58722
 H186 H 1.06747 -0.10797 0.47650
 H187 H 1.15790 -0.06961 0.53296
 H188 H 1.03161 -0.16345 0.56936
 H189 H 1.06609 -0.03065 0.65990
 H190 H 1.10284 0.02530 0.56755
 H191 H 0.97578 -0.06927 0.60470
 C192 C 0.91385 -0.01701 0.43269
 C193 C 0.93318 -0.04785 0.38144
 C194 C 0.90315 -0.09962 0.40022
 C195 C 0.88335 -0.06932 0.45103
 C196 C 0.95267 -0.12057 0.43045
 C197 C 0.98320 -0.06827 0.41213
 C198 C 0.96390 -0.03731 0.46338
 C199 C 0.93347 -0.08961 0.48187
 H200 H 0.89634 0.02513 0.43256
 H201 H 0.93299 -0.03073 0.33977
 H202 H 0.84196 -0.06998 0.46694
 H203 H 0.96871 -0.16341 0.42966
 H204 H 1.02379 -0.06916 0.39448
 H205 H 0.93275 -0.10813 0.52287
 C206 C 0.91401 0.01719 0.56728
 C207 C 0.93341 0.04801 0.61849
 C208 C 0.90319 0.09981 0.59980
 C209 C 0.88332 0.06954 0.54905
 C210 C 0.95256 0.12072 0.56943
 C211 C 0.98329 0.06838 0.58764
 C212 C 0.96392 0.03745 0.53645
 C213 C 0.93329 0.08979 0.51806
 H214 H 0.89661 -0.02493 0.56746
 H215 H 0.93340 0.03087 0.66015
 H216 H 0.84188 0.07024 0.53327
 H217 H 0.96849 0.16355 0.57019
 H218 H 1.02393 0.06923 0.60517
 H219 H 0.93239 0.10831 0.47707
 C220 C 0.43312 1.01685 0.08641
 C221 C 0.45056 1.06899 0.11815
 C222 C 0.40069 1.09930 0.09766
 C223 C 0.38289 1.04767 0.06631
 C224 C 0.43117 1.12063 0.04805
 C225 C 0.48165 1.08968 0.06793
 C226 C 0.46397 1.03756 0.03623
 C227 C 0.41371 1.06855 0.01626
 H228 H 0.43293 0.97464 0.10385
 H229 H 0.46557 1.06946 0.16041
 H230 H 0.34190 1.03041 0.06572
 H231 H 0.43039 1.16362 0.03232
 H232 H 0.52202 1.10823 0.06926
 H233 H 0.39676 1.06985 -0.02511
 C234 C 0.58635 1.06835 -0.01637
 C235 C 0.61685 1.04791 -0.06696
 C236 C 0.59870 1.09986 -0.09747
 C237 C 0.56858 1.12077 -0.04735
 C238 C 0.54873 1.06987 -0.11795
 C239 C 0.56649 1.01739 -0.08703
 C240 C 0.53597 1.03770 -0.03637
 C241 C 0.51800 1.09016 -0.06725
 H242 H 0.60346 1.06916 0.02495
 H243 H 0.65788 1.03060 -0.06695
 H244 H 0.56941 1.16361 -0.03107
 H245 H 0.53340 1.07076 -0.16009
 H246 H 0.56670 0.97532 -0.10497
 H247 H 0.47764 1.10888 -0.06817
 C248 C 0.43346 0.98367 -0.08704
 C249 C 0.45121 0.93154 -0.11871
 C250 C 0.40141 0.90120 -0.09838
 C251 C 0.38329 0.95283 -0.06711
 C252 C 0.43181 0.87991 -0.04866
 C253 C 0.48223 0.91088 -0.06837
 C254 C 0.46423 0.96300 -0.03675
 C255 C 0.41403 0.93199 -0.01694
 H256 H 0.43316 1.02589 -0.10449
 H257 H 0.46636 0.93107 -0.16091
 H258 H 0.34223 0.97006 -0.06666
 H259 H 0.43116 0.83693 -0.03292
 H260 H 0.52267 0.89235 -0.06956
 H261 H 0.39694 0.93068 0.02436
 C262 C 0.56628 0.98318 0.08687
 C263 C 0.54859 0.93070 0.11773
 C264 C 0.59872 0.90069 0.09742
 C265 C 0.61680 0.95264 0.06697
 C266 C 0.56882 0.87980 0.04719
 C267 C 0.51809 0.91042 0.06693
 C268 C 0.53599 0.96288 0.03611
 C269 C 0.58652 0.93221 0.01627
 H270 H 0.56628 1.02525 0.10481
 H271 H 0.53313 0.92981 0.15982
 H272 H 0.65778 0.96994 0.06710
 H273 H 0.56985 0.83696 0.03091
 H274 H 0.47779 0.89170 0.06771
 H275 H 0.60377 0.93140 -0.02499
   
