data_POSCAR
  _audit_creation_date              2014-09-24
  _audit_creation_method            'ToBaCCo'
  _symmetry_space_group_name_H-M    'P1'
  _symmetry_Int_Tables_number       1
  _symmetry_cell_setting            triclinic
  loop_
  _symmetry_equiv_pos_as_xyz
 x,y,z
_cell_length_a 41.0134
_cell_length_b 40.7755
_cell_length_c 49.4615
_cell_angle_alpha 90.284300
_cell_angle_beta 91.771300
_cell_angle_gamma 80.490000
loop_
  _atom_site_label
  _atom_site_type_symbol
  _atom_site_fract_x
  _atom_site_fract_y
  _atom_site_fract_z
C1 C 1.21358 0.24476 0.20744
 C2 C 1.23085 0.26842 0.19104
 C3 C 1.24867 0.28747 0.20633
 C4 C 1.24762 0.28117 0.23697
 C5 C 1.24189 0.22468 0.22443
 C6 C 1.25937 0.24349 0.24028
 C7 C 1.19315 0.26703 0.22785
 C8 C 1.21073 0.28596 0.24332
 H9 H 1.23240 0.26757 0.16927
 H10 H 1.26188 0.29682 0.24955
 H11 H 1.24605 0.19778 0.22531
 H12 H 1.16706 0.26680 0.23056
 C13 C 0.72906 -0.26962 0.20432
 C14 C 0.74432 -0.24505 0.18720
 C15 C 0.75996 -0.22347 0.20191
 C16 C 0.75868 -0.22841 0.23276
 C17 C 0.75775 -0.28653 0.22248
 C18 C 0.77310 -0.26522 0.23747
 C19 C 0.70640 -0.24717 0.22338
 C20 C 0.72181 -0.22607 0.23855
 H21 H 0.74384 -0.24512 0.16541
 H22 H 0.77115 -0.21114 0.24519
 H23 H 0.76380 -0.31330 0.22469
 H24 H 0.68035 -0.24840 0.22506
 C25 C 0.73243 0.23768 -0.29784
 C26 C 0.75004 0.25999 -0.31233
 C27 C 0.76827 0.27966 -0.29524
 C28 C 0.76553 0.27227 -0.26626
 C29 C 0.75830 0.21753 -0.28150
 C30 C 0.77661 0.23607 -0.26348
 C31 C 0.71216 0.25859 -0.27887
 C32 C 0.72979 0.27800 -0.26119
 H33 H 0.75509 0.25682 -0.33359
 H34 H 0.77934 0.28746 -0.25337
 H35 H 0.76206 0.19068 -0.28217
 H36 H 0.68633 0.25680 -0.27670
 C37 C 1.23900 -0.26448 -0.29146
 C38 C 1.25492 -0.23961 -0.30764
 C39 C 1.27325 -0.22092 -0.29240
 C40 C 1.27396 -0.22893 -0.26188
 C41 C 1.26775 -0.28496 -0.27553
 C42 C 1.28609 -0.26676 -0.25988
 C43 C 1.21926 -0.24288 -0.27015
 C44 C 1.23742 -0.22478 -0.25444
 H45 H 1.25211 -0.23680 -0.32928
 H46 H 1.28847 -0.21367 -0.24919
 H47 H 1.27125 -0.31187 -0.27496
 H48 H 1.19316 -0.24267 -0.26716
 C49 C 0.23108 0.21775 0.79155
 C50 C 0.24802 0.24064 0.80677
 C51 C 0.26859 0.25814 0.79110
 C52 C 0.26796 0.24888 0.76232
 C53 C 0.21185 0.23959 0.76918
 C54 C 0.23109 0.25505 0.75309
 C55 C 0.25815 0.19474 0.77684
 C56 C 0.27728 0.21083 0.76132
 H57 H 0.24563 0.24326 0.82836
 H58 H 0.28346 0.26123 0.74914
 H59 H 0.18524 0.24349 0.76680
 H60 H 0.25997 0.16792 0.77683
 C61 C 0.71817 0.72622 0.79177
 C62 C 0.74101 0.74273 0.80761
 C63 C 0.75970 0.76236 0.79216
 C64 C 0.75154 0.76122 0.76300
 C65 C 0.69747 0.75252 0.77624
 C66 C 0.71548 0.77245 0.76007
 C67 C 0.73801 0.70700 0.77142
 C68 C 0.75681 0.72583 0.75549
 H69 H 0.74113 0.74261 0.82949
 H70 H 0.76701 0.77497 0.75131
 H71 H 0.67106 0.75324 0.77422
 H72 H 0.73275 0.68328 0.76417
 C73 C 0.73140 0.22203 0.29171
 C74 C 0.75681 0.23597 0.30981
 C75 C 0.77872 0.25106 0.29628
 C76 C 0.77245 0.25158 0.26532
 C77 C 0.71462 0.25244 0.27541
 C78 C 0.73588 0.26751 0.26115
 C79 C 0.75174 0.19980 0.27120
 C80 C 0.77302 0.21510 0.25730
 H81 H 0.75537 0.23687 0.33161
 H82 H 0.78969 0.26399 0.25374
 H83 H 0.68807 0.25984 0.27344
 H84 H 0.74854 0.17432 0.26736
 C85 C 0.23533 0.71743 0.29870
 C86 C 0.25824 0.73932 0.31194
 C87 C 0.27357 0.75665 0.29414
 C88 C 0.26412 0.75069 0.26427
 C89 C 0.21135 0.74122 0.28070
 C90 C 0.22600 0.75844 0.26233
 C91 C 0.25766 0.69562 0.27905
 C92 C 0.27219 0.71270 0.26055
 H93 H 0.26292 0.74052 0.33347
 H94 H 0.27654 0.76464 0.24975
 H95 H 0.18484 0.74374 0.28258
 H96 H 0.26167 0.66875 0.28007
 O97 O 1.05544 0.02680 0.02234
 O98 O 0.93687 -0.03809 0.01152
 O99 O 0.95281 0.06071 0.01376
 O100 O 1.03983 -0.07242 0.01823
 O101 O 0.93735 0.01694 0.02721
 O102 O 1.05201 -0.02817 0.03545
 O103 O 0.98264 -0.06204 0.02901
 O104 O 1.00735 0.04879 0.03375
 C105 C 1.03728 0.04310 0.03916
 C106 C 0.95234 -0.05424 0.03062
 C107 C 0.93959 0.04626 0.03147
 C108 C 1.05129 -0.05809 0.03784
 O109 O 1.06440 -0.04885 -0.01652
 O110 O 0.93358 0.03850 -0.02576
 O111 O 1.03233 0.05434 -0.01617
 O112 O 0.96607 -0.06529 -0.02438
 O113 O 0.94444 -0.01798 -0.04004
 O114 O 1.05456 0.00745 -0.03083
 O115 O 1.02196 -0.06309 -0.03547
 O116 O 0.97911 0.05295 -0.03598
 Co117 Co 1.05090 -0.01017 0.00212
 Co118 Co 0.94373 -0.00058 -0.00629
 Co119 Co 0.99338 0.04839 -0.00120
 Co120 Co 1.00220 -0.05986 -0.00309
 O121 O 0.99751 -0.00557 -0.00215
 C122 C 1.05148 -0.06070 -0.03666
 C123 C 0.94984 0.05225 -0.04202
 C124 C 1.04907 0.03785 -0.03368
 C125 C 0.95079 -0.04839 -0.04316
 O126 O 1.04029 0.51859 0.54646
 O127 O 0.93762 0.47924 0.52707
 O128 O 0.96445 0.56894 0.53371
 O129 O 1.03123 0.41886 0.51622
 O130 O 0.92566 0.54062 0.51969
 O131 O 1.04381 0.46174 0.53727
 O132 O 0.98673 0.45600 0.54149
 O133 O 1.02525 0.56527 0.52720
 C134 C 1.03744 0.54917 0.54738
 C135 C 0.95624 0.46328 0.54516
 C136 C 0.93583 0.56198 0.53538
 C137 C 1.05132 0.43089 0.53284
 O138 O 1.05822 0.47183 0.48466
 O139 O 0.93902 0.52900 0.46619
 O140 O 1.01498 0.56069 0.47503
 O141 O 0.96958 0.43238 0.49723
 O142 O 0.95025 0.47249 0.47225
 O143 O 1.05774 0.53012 0.49440
 O144 O 1.01492 0.45234 0.47236
 O145 O 0.95417 0.57269 0.48259
 Co146 Co 1.04532 0.49648 0.51471
 Co147 Co 0.94252 0.50517 0.49724
 Co148 Co 0.99028 0.56109 0.50464
 Co149 Co 1.00205 0.45621 0.50708
 O150 O 0.99313 0.50685 0.50500
 C151 C 1.04314 0.45719 0.46725
 C152 C 0.94105 0.55871 0.46388
 C153 C 1.04514 0.54933 0.47549
 C154 C 0.95175 0.44263 0.47744
 O155 O 0.55649 0.03593 0.51364
 O156 O 0.43657 -0.03135 0.51164
 O157 O 0.45374 0.06755 0.51445
 O158 O 0.53948 -0.06325 0.51537
 O159 O 0.43873 0.02339 0.52814
 O160 O 0.55408 -0.01846 0.52973
 O161 O 0.48341 -0.05394 0.52762
 O162 O 0.51031 0.05655 0.52932
 C163 C 0.54068 0.05169 0.53198
 C164 C 0.45327 -0.04702 0.53034
 C165 C 0.44229 0.05233 0.53277
 C166 C 0.55208 -0.04786 0.53384
 O167 O 0.56242 -0.04189 0.47863
 O168 O 0.42933 0.04678 0.47628
 O169 O 0.52822 0.06154 0.47643
 O170 O 0.46407 -0.05704 0.47439
 O171 O 0.43969 -0.00965 0.46028
 O172 O 0.55020 0.01413 0.46203
 O173 O 0.51890 -0.05527 0.46153
 O174 O 0.47340 0.06039 0.46217
 Co175 Co 0.54991 -0.00208 0.49586
 Co176 Co 0.44192 0.00689 0.49420
 Co177 Co 0.49190 0.05593 0.49565
 Co178 Co 0.50106 -0.05181 0.49470
 O179 O 0.49612 0.00222 0.49510
 C180 C 0.54834 -0.05358 0.45912
 C181 C 0.44362 0.06031 0.45855
 C182 C 0.54332 0.04441 0.45830
 C183 C 0.44765 -0.03984 0.45624
 O184 O 0.55475 0.49839 0.03812
 O185 O 0.44334 0.47794 0.03142
 O186 O 0.47762 0.54492 0.03585
 O187 O 0.52274 0.42891 0.03277
 O188 O 0.43356 0.53481 0.01706
 O189 O 0.56578 0.44367 0.01833
 O190 O 0.46678 0.43021 0.01777
 O191 O 0.53236 0.54689 0.02553
 C192 C 0.54845 0.52842 0.04306
 C193 C 0.44955 0.44749 0.03489
 C194 C 0.44762 0.54580 0.03699
 C195 C 0.55222 0.43071 0.03663
 O196 O 0.55845 0.47063 -0.03111
 O197 O 0.44375 0.51379 -0.03508
 O198 O 0.51528 0.54544 -0.02902
 O199 O 0.48578 0.43588 -0.03484
 O200 O 0.43954 0.45838 -0.02028
 O201 O 0.56118 0.52415 -0.01130
 O202 O 0.54193 0.42523 -0.02083
 O203 O 0.45916 0.55657 -0.01777
 Co204 Co 0.55410 0.48483 0.00332
 Co205 Co 0.44602 0.49569 -0.00153
 Co206 Co 0.49651 0.54290 0.00335
 Co207 Co 0.50395 0.43563 -0.00100
 O208 O 0.50013 0.48970 0.00105
 C209 C 0.55623 0.44150 -0.03695
 C210 C 0.44714 0.54315 -0.03758
 C211 C 0.54561 0.54114 -0.02974
 C212 C 0.45565 0.44293 -0.03859
 C213 C 1.15237 0.18233 0.16478
 C214 C 1.16206 0.17646 0.19200
 C215 C 1.18152 0.19681 0.20544
 C216 C 1.19251 0.22309 0.19188
 C217 C 1.18180 0.22950 0.16479
 C218 C 1.16215 0.20924 0.15141
 C219 C 1.13247 0.16024 0.15024
 C220 C 1.10601 0.17362 0.13277
 C221 C 1.08853 0.15272 0.11783
 C222 C 1.09726 0.11800 0.11994
 C223 C 1.12315 0.10462 0.13795
 C224 C 1.14050 0.12554 0.15303
 C225 C 1.08099 0.09605 0.10189
 C226 C 1.10016 0.06968 0.08828
 C227 C 1.08562 0.05150 0.06869
 C228 C 1.05160 0.05922 0.06241
 C229 C 1.03207 0.08436 0.07706
 C230 C 1.04668 0.10272 0.09654
 H231 H 1.15425 0.15634 0.20299
 H232 H 1.18803 0.19199 0.22660
 H233 H 1.18795 0.25031 0.15378
 H234 H 1.15492 0.21440 0.13042
 H235 H 1.09905 0.20028 0.13048
 H236 H 1.06892 0.16373 0.10389
 H237 H 1.13024 0.07795 0.14009
 H238 H 1.16090 0.11455 0.16624
 H239 H 1.12669 0.06414 0.09183
 H240 H 1.10122 0.03212 0.05781
 H241 H 1.00573 0.09073 0.07272
 H242 H 1.03129 0.12263 0.10702
 C243 C 1.17758 0.67366 0.66535
 C244 C 1.19972 0.68951 0.65113
 C245 C 1.21997 0.70898 0.66470
 C246 C 1.21835 0.71346 0.69292
 C247 C 1.19762 0.69578 0.70722
 C248 C 1.17722 0.67650 0.69362
 C249 C 1.15454 0.65489 0.65059
 C250 C 1.14713 0.62501 0.66098
 C251 C 1.12536 0.60757 0.64685
 C252 C 1.11058 0.61966 0.62205
 C253 C 1.11794 0.64960 0.61180
 C254 C 1.13950 0.66705 0.62594
 C255 C 1.08864 0.60072 0.60614
 C256 C 1.06133 0.61763 0.59119
 C257 C 1.04357 0.60049 0.57308
 C258 C 1.05247 0.56601 0.56979
 C259 C 1.07817 0.54864 0.58612
 C260 C 1.09624 0.56589 0.60406
 H261 H 1.20151 0.68673 0.62942
 H262 H 1.23696 0.71995 0.65281
 H263 H 1.19674 0.69739 0.72905
 H264 H 1.16059 0.66448 0.70522
 H265 H 1.15852 0.61485 0.67983
 H266 H 1.12005 0.58468 0.65535
 H267 H 1.10751 0.65932 0.59252
 H268 H 1.14426 0.69023 0.61758
 H269 H 1.05426 0.64433 0.59289
 H270 H 1.02353 0.61437 0.56097
 H271 H 1.08555 0.52203 0.58391
 H272 H 1.11723 0.55214 0.61517
 C273 C 0.67043 0.18108 0.65616
 C274 C 0.68052 0.20897 0.64458
 C275 C 0.70087 0.22749 0.65920
 C276 C 0.71237 0.21823 0.68580
 C277 C 0.70059 0.19102 0.69758
 C278 C 0.68045 0.17249 0.68288
 C279 C 0.64942 0.16099 0.64049
 C280 C 0.65636 0.12609 0.64142
 C281 C 0.63734 0.10705 0.62598
 C282 C 0.61084 0.12252 0.60943
 C283 C 0.60342 0.15742 0.60896
 C284 C 0.62260 0.17647 0.62426
 C285 C 0.59219 0.10244 0.59152
 C286 C 0.55761 0.11034 0.58832
 C287 C 0.54052 0.09292 0.56975
 C288 C 0.55781 0.06757 0.55384
 C289 C 0.59222 0.05897 0.55771
 C290 C 0.60922 0.07614 0.57641
 H291 H 0.67280 0.21639 0.62406
 H292 H 0.70678 0.24940 0.64955
 H293 H 0.70672 0.18413 0.71847
 H294 H 0.67219 0.15173 0.69262
 H295 H 0.67701 0.11349 0.65362
 H296 H 0.64347 0.08020 0.62686
 H297 H 0.58334 0.17000 0.59617
 H298 H 0.61645 0.20332 0.62341
 H299 H 0.54385 0.13025 0.59996
 H300 H 0.51396 0.10000 0.56722
 H301 H 0.60614 0.03943 0.54581
 H302 H 0.63588 0.06968 0.57829
 C303 C 0.67711 0.65744 0.16497
 C304 C 0.69680 0.67496 0.14965
 C305 C 0.71380 0.69838 0.16189
 C306 C 0.71137 0.70492 0.18983
 C307 C 0.69269 0.68612 0.20520
 C308 C 0.67543 0.66303 0.19289
 C309 C 0.65771 0.63405 0.15166
 C310 C 0.62416 0.63540 0.15734
 C311 C 0.60508 0.61526 0.14316
 C312 C 0.61932 0.59314 0.12331
 C313 C 0.65318 0.59086 0.11841
 C314 C 0.67216 0.61126 0.13236
 C315 C 0.59853 0.57471 0.10597
 C316 C 0.60936 0.54122 0.09935
 C317 C 0.59188 0.52534 0.08001
 C318 C 0.56362 0.54289 0.06669
 C319 C 0.55187 0.57582 0.07435
 C320 C 0.56908 0.59154 0.09391
 H321 H 0.69856 0.67098 0.12804
 H322 H 0.72885 0.71079 0.14921
 H323 H 0.69119 0.68958 0.22688
 H324 H 0.66090 0.64938 0.20523
 H325 H 0.61242 0.65290 0.17204
 H326 H 0.57904 0.61738 0.14733
 H327 H 0.66467 0.57427 0.10299
 H328 H 0.69805 0.60958 0.12782
 H329 H 0.63186 0.52767 0.10857
 H330 H 0.60144 0.49994 0.07448
 H331 H 0.53001 0.58982 0.06449
 H332 H 0.56032 0.61743 0.09852
 C333 C 0.81555 -0.15788 0.16158
 C334 C 0.78659 -0.16645 0.14952
 C335 C 0.76789 -0.18639 0.16310
 C336 C 0.77795 -0.19918 0.18892
 C337 C 0.80633 -0.18994 0.20141
 C338 C 0.82479 -0.16938 0.18798
 C339 C 0.83654 -0.13846 0.14602
 C340 C 0.87123 -0.14451 0.14931
 C341 C 0.89095 -0.12845 0.13292
 C342 C 0.87660 -0.10641 0.11238
 C343 C 0.84187 -0.09969 0.10968
 C344 C 0.82219 -0.11508 0.12648
 C345 C 0.89752 -0.09170 0.09303
 C346 C 0.88599 -0.06069 0.08071
 C347 C 0.90396 -0.04853 0.06057
 C348 C 0.93443 -0.06646 0.05288
 C349 C 0.94692 -0.09655 0.06596
 C350 C 0.92849 -0.10927 0.08554
 H351 H 0.77873 -0.15868 0.12913
 H352 H 0.74574 -0.19217 0.15303
 H353 H 0.81502 -0.19944 0.22119
 H354 H 0.84653 -0.16286 0.19820
 H355 H 0.88337 -0.16248 0.16393
 H356 H 0.91750 -0.13377 0.13619
 H357 H 0.82962 -0.08332 0.09400
 H358 H 0.79560 -0.10898 0.12372
 H359 H 0.86290 -0.04578 0.08639
 H360 H 0.89401 -0.02502 0.05099
 H361 H 0.97034 -0.11091 0.06027
 H362 H 0.93812 -0.13344 0.09405
 C363 C 0.82640 0.34585 0.67013
 C364 C 0.80069 0.33463 0.65530
 C365 C 0.78157 0.31351 0.66691
 C366 C 0.78759 0.30217 0.69384
 C367 C 0.81334 0.31378 0.70884
 C368 C 0.83246 0.33521 0.69710
 C369 C 0.84688 0.36795 0.65695
 C370 C 0.88127 0.36411 0.66188
 C371 C 0.90066 0.38268 0.64725
 C372 C 0.88618 0.40542 0.62720
 C373 C 0.85161 0.41002 0.62309
 C374 C 0.83228 0.39184 0.63790
 C375 C 0.90679 0.42269 0.60932
 C376 C 0.89421 0.45427 0.59840
 C377 C 0.91106 0.46814 0.57838
 C378 C 0.94135 0.45126 0.56928
 C379 C 0.95528 0.42096 0.58151
 C380 C 0.93806 0.40668 0.60114
 H381 H 0.79546 0.34181 0.63437
 H382 H 0.76150 0.30684 0.65452
 H383 H 0.81999 0.30562 0.72930
 H384 H 0.85201 0.34347 0.70919
 H385 H 0.89342 0.34589 0.67633
 H386 H 0.92708 0.37880 0.65138
 H387 H 0.83937 0.42681 0.60767
 H388 H 0.80581 0.39609 0.63395
 H389 H 0.87080 0.46796 0.60473
 H390 H 0.89999 0.49177 0.56950
 H391 H 0.97852 0.40733 0.57472
 H392 H 0.94853 0.38225 0.60876
 C393 C 0.32722 -0.15323 0.66799
 C394 C 0.29631 -0.15896 0.65766
 C395 C 0.27827 -0.17950 0.67124
 C396 C 0.29087 -0.19585 0.69524
 C397 C 0.32120 -0.18941 0.70620
 C398 C 0.33910 -0.16822 0.69280
 C399 C 0.34733 -0.13321 0.65201
 C400 C 0.38208 -0.14094 0.65230
 C401 C 0.40054 -0.12451 0.63506
 C402 C 0.38478 -0.10041 0.61652
 C403 C 0.35011 -0.09190 0.61700
 C404 C 0.33179 -0.10761 0.63474
 C405 C 0.40397 -0.08548 0.59587
 C406 C 0.39218 -0.05370 0.58491
 C407 C 0.40824 -0.04127 0.56365
 C408 C 0.43717 -0.05968 0.55347
 C409 C 0.45006 -0.09057 0.56511
 C410 C 0.43341 -0.10356 0.58575
 H411 H 0.28631 -0.14853 0.63850
 H412 H 0.25456 -0.18297 0.66251
 H413 H 0.33172 -0.20159 0.72460
 H414 H 0.36245 -0.16398 0.70175
 H415 H 0.39512 -0.16054 0.66513
 H416 H 0.42718 -0.13124 0.63604
 H417 H 0.33667 -0.07388 0.60302
 H418 H 0.30522 -0.10006 0.63439
 H419 H 0.37036 -0.03833 0.59255
 H420 H 0.39812 -0.01712 0.55524
 H421 H 0.47234 -0.10526 0.55749
 H422 H 0.44317 -0.12830 0.59305
 C423 C 0.31279 0.34388 0.16598
 C424 C 0.28022 0.34387 0.15628
 C425 C 0.25912 0.32656 0.16998
 C426 C 0.26997 0.30887 0.19377
 C427 C 0.30210 0.30980 0.20411
 C428 C 0.32339 0.32699 0.19025
 C429 C 0.33572 0.36038 0.15006
 C430 C 0.36850 0.34481 0.14621
 C431 C 0.38909 0.35906 0.12927
 C432 C 0.37743 0.38930 0.11592
 C433 C 0.34493 0.40524 0.12037
 C434 C 0.32437 0.39098 0.13721
 C435 C 0.39843 0.40379 0.09668
 C436 C 0.39738 0.43838 0.09543
 C437 C 0.41473 0.45236 0.07584
 C438 C 0.43366 0.43212 0.05700
 C439 C 0.43581 0.39745 0.05884
 C440 C 0.41836 0.38343 0.07846
 H441 H 0.27135 0.35631 0.13754
 H442 H 0.23439 0.32651 0.16166
 H443 H 0.31121 0.29617 0.22228
 H444 H 0.34824 0.32681 0.19836
 H445 H 0.37790 0.32107 0.15562
 H446 H 0.41410 0.34631 0.12649
 H447 H 0.33499 0.42834 0.11020
 H448 H 0.29938 0.40378 0.13996
 H449 H 0.38284 0.45474 0.10946
 H450 H 0.41283 0.47917 0.07518
 H451 H 0.45024 0.38120 0.04465
 H452 H 0.41951 0.35671 0.07873
 C453 C 0.83960 0.18466 -0.20184
 C454 C 0.83277 0.16864 -0.22596
 C455 C 0.81365 0.18599 -0.24672
 C456 C 0.80028 0.22008 -0.24405
 C457 C 0.80988 0.23664 -0.22070
 C458 C 0.82895 0.21909 -0.19980
 C459 C 0.85646 0.16504 -0.17863
 C460 C 0.88011 0.17744 -0.16209
 C461 C 0.89547 0.15881 -0.14014
 C462 C 0.88740 0.12744 -0.13419
 C463 C 0.86373 0.11513 -0.15073
 C464 C 0.84844 0.13369 -0.17264
 C465 C 0.90350 0.10763 -0.11082
 C466 C 0.88511 0.08987 -0.09435
 C467 C 0.90020 0.07148 -0.07222
 C468 C 0.93401 0.07046 -0.06607
 C469 C 0.95249 0.08786 -0.08271
 C470 C 0.93741 0.10626 -0.10480
 H471 H 0.84193 0.14240 -0.22872
 H472 H 0.80975 0.17216 -0.26487
 H473 H 0.80145 0.26269 -0.21737
 H474 H 0.83405 0.23229 -0.18151
 H475 H 0.88696 0.20140 -0.16625
 H476 H 0.91335 0.16915 -0.12760
 H477 H 0.85720 0.09094 -0.14689
 H478 H 0.82995 0.12363 -0.18471
 H479 H 0.85887 0.09070 -0.09828
 H480 H 0.88533 0.05835 -0.05976
 H481 H 0.97865 0.08747 -0.07855
 H482 H 0.95237 0.11919 -0.11733
 C483 C 0.83730 0.69158 0.30227
 C484 C 0.81297 0.71955 0.30689
 C485 C 0.79347 0.73509 0.28542
 C486 C 0.79761 0.72265 0.25907
 C487 C 0.82293 0.69589 0.25417
 C488 C 0.84280 0.68073 0.27550
 C489 C 0.85509 0.67235 0.32533
 C490 C 0.86239 0.63743 0.32411
 C491 C 0.87738 0.61902 0.34618
 C492 C 0.88507 0.63495 0.37024
 C493 C 0.87815 0.66989 0.37139
 C494 C 0.86350 0.68837 0.34916
 C495 C 0.89971 0.61514 0.39413
 C496 C 0.92317 0.62687 0.41134
 C497 C 0.93643 0.60855 0.43403
 C498 C 0.92686 0.57789 0.43986
 C499 C 0.90378 0.56586 0.42255
 C500 C 0.89016 0.58441 0.40005
 H501 H 0.80774 0.72840 0.32722
 H502 H 0.77379 0.75549 0.28967
 H503 H 0.82669 0.68615 0.23389
 H504 H 0.86191 0.65991 0.27108
 H505 H 0.85578 0.62413 0.30632
 H506 H 0.88285 0.59222 0.34437
 H507 H 0.88339 0.68301 0.38967
 H508 H 0.85861 0.71521 0.35073
 H509 H 0.93161 0.65007 0.40714
 H510 H 0.95451 0.61822 0.44687
 H511 H 0.89586 0.54236 0.42665
 H512 H 0.87172 0.57486 0.38755
 C513 C 0.32239 0.19470 0.30412
 C514 C 0.30328 0.22615 0.30838
 C515 C 0.28403 0.24285 0.28725
 C516 C 0.28344 0.22836 0.26146
 C517 C 0.30363 0.19762 0.25691
 C518 C 0.32286 0.18097 0.27798
 C519 C 0.34057 0.17550 0.32697
 C520 C 0.37193 0.15641 0.32331
 C521 C 0.38833 0.13715 0.34444
 C522 C 0.37383 0.13655 0.36979
 C523 C 0.34255 0.15578 0.37351
 C524 C 0.32611 0.17503 0.35235
 C525 C 0.39154 0.11633 0.39233
 C526 C 0.37445 0.09881 0.41008
 C527 C 0.39129 0.08022 0.43148
 C528 C 0.42554 0.07882 0.43553
 C529 C 0.44262 0.09605 0.41762
 C530 C 0.42584 0.11461 0.39634
 H531 H 0.30277 0.23761 0.32820
 H532 H 0.26847 0.26634 0.29145
 H533 H 0.30392 0.18601 0.23716
 H534 H 0.33709 0.15671 0.27402
 H535 H 0.38386 0.15641 0.30409
 H536 H 0.41225 0.12237 0.34080
 H537 H 0.33088 0.15619 0.39288
 H538 H 0.30178 0.18909 0.35573
 H539 H 0.34809 0.09927 0.40730
 H540 H 0.37753 0.06708 0.44490
 H541 H 0.46903 0.09555 0.42022
 H542 H 0.43968 0.12817 0.38331
 C543 C 0.35066 0.68100 -0.19866
 C544 C 0.34870 0.66751 -0.22467
 C545 C 0.32947 0.68549 -0.24509
 C546 C 0.31126 0.71712 -0.23980
 C547 C 0.31473 0.73137 -0.21415
 C548 C 0.33442 0.71350 -0.19378
 C549 C 0.36727 0.66014 -0.17623
 C550 C 0.39029 0.67187 -0.15872
 C551 C 0.40496 0.65226 -0.13706
 C552 C 0.39632 0.62081 -0.13211
 C553 C 0.37327 0.60922 -0.14985
 C554 C 0.35914 0.62854 -0.17176
 C555 C 0.41037 0.60066 -0.10813
 C556 C 0.41599 0.56562 -0.10909
 C557 C 0.42771 0.54685 -0.08615
 C558 C 0.43464 0.56267 -0.06189
 C559 C 0.42971 0.59756 -0.06100
 C560 C 0.41744 0.61631 -0.08373
 H561 H 0.36143 0.64268 -0.22899
 H562 H 0.32799 0.67411 -0.26482
 H563 H 0.30078 0.75546 -0.20926
 H564 H 0.33547 0.72432 -0.17379
 H565 H 0.39707 0.69609 -0.16192
 H566 H 0.42310 0.66179 -0.12424
 H567 H 0.36537 0.58558 -0.14647
 H568 H 0.34105 0.61919 -0.18480
 H569 H 0.41152 0.55261 -0.12761
 H570 H 0.43167 0.51996 -0.08746
 H571 H 0.43476 0.61042 -0.04252
 H572 H 0.41284 0.64313 -0.08192
 C573 C 1.18939 -0.17097 -0.18796
 C574 C 1.20819 -0.15507 -0.20559
 C575 C 1.22527 -0.17284 -0.22664
 C576 C 1.22336 -0.20655 -0.23054
 C577 C 1.20592 -0.22273 -0.21228
 C578 C 1.18939 -0.20526 -0.19112
 C579 C 1.16876 -0.15208 -0.16696
 C580 C 1.13783 -0.16048 -0.16107
 C581 C 1.11870 -0.14394 -0.14077
 C582 C 1.12964 -0.11809 -0.12600
 C583 C 1.16023 -0.10906 -0.13229
 C584 C 1.17960 -0.12591 -0.15249
 C585 C 1.10954 -0.10150 -0.10367
 C586 C 1.12492 -0.09169 -0.07985
 C587 C 1.10603 -0.07794 -0.05827
 C588 C 1.07135 -0.07408 -0.05987
 C589 C 1.05588 -0.08325 -0.08378
 C590 C 1.07473 -0.09659 -0.10550
 H591 H 1.20869 -0.12869 -0.20379
 H592 H 1.23867 -0.15999 -0.24056
 H593 H 1.20470 -0.24894 -0.21466
 H594 H 1.17619 -0.21861 -0.17743
 H595 H 1.12826 -0.17995 -0.17218
 H596 H 1.09558 -0.15198 -0.13632
 H597 H 1.16924 -0.08895 -0.12162
 H598 H 1.20332 -0.11885 -0.15641
 H599 H 1.15161 -0.09547 -0.07752
 H600 H 1.11863 -0.07101 -0.04008
 H601 H 1.02916 -0.08011 -0.08572
 H602 H 1.06197 -0.10310 -0.12372
 C603 C 1.16278 0.34392 0.30802
 C604 C 1.16195 0.30963 0.30583
 C605 C 1.17800 0.29089 0.28503
 C606 C 1.19590 0.30572 0.26622
 C607 C 1.19824 0.33948 0.26891
 C608 C 1.18155 0.35854 0.28947
 C609 C 1.14375 0.36404 0.32938
 C610 C 1.15565 0.39097 0.34189
 C611 C 1.13820 0.40884 0.36263
 C612 C 1.10863 0.39995 0.37172
 C613 C 1.09648 0.37342 0.35882
 C614 C 1.11357 0.35601 0.33780
 C615 C 1.09129 0.41710 0.39528
 C616 C 1.05666 0.42052 0.39713
 C617 C 1.04086 0.43395 0.42033
 C618 C 1.05922 0.44491 0.44197
 C619 C 1.09356 0.44279 0.43976
 C620 C 1.10943 0.42879 0.41684
 H621 H 1.14884 0.29713 0.32019
 H622 H 1.17642 0.26467 0.28358
 H623 H 1.21196 0.35132 0.25452
 H624 H 1.18262 0.38486 0.29033
 H625 H 1.17884 0.39787 0.33613
 H626 H 1.14808 0.42951 0.37163
 H627 H 1.07412 0.36541 0.36534
 H628 H 1.10306 0.33604 0.32825
 H629 H 1.04168 0.41261 0.38074
 H630 H 1.01429 0.43557 0.42139
 H631 H 1.10838 0.45094 0.45618
 H632 H 1.13611 0.42614 0.41652
 C633 C 0.67169 -0.16732 0.30204
 C634 C 0.66722 -0.20041 0.29769
 C635 C 0.68355 -0.21929 0.27712
 C636 C 0.70509 -0.20576 0.26052
 C637 C 0.71050 -0.17310 0.26522
 C638 C 0.69378 -0.15394 0.28571
 C639 C 0.65316 -0.14719 0.32353
 C640 C 0.66797 -0.12464 0.33939
 C641 C 0.65084 -0.10713 0.36044
 C642 C 0.61857 -0.11191 0.36625
 C643 C 0.60362 -0.13401 0.35003
 C644 C 0.62056 -0.15118 0.32887
 C645 C 0.60083 -0.09496 0.38961
 C646 C 0.56627 -0.08507 0.38822
 C647 C 0.54929 -0.07149 0.41078
 C648 C 0.56648 -0.06706 0.43513
 C649 C 0.60106 -0.07573 0.43635
 C650 C 0.61805 -0.08977 0.41390
 H651 H 0.65126 -0.21192 0.31037
 H652 H 0.67963 -0.24474 0.27441
 H653 H 0.72701 -0.16215 0.25265
 H654 H 0.69765 -0.12849 0.28838
 H655 H 0.69310 -0.12109 0.33597
 H656 H 0.66295 -0.08993 0.37223
 H657 H 0.57902 -0.13874 0.35405
 H658 H 0.60809 -0.16780 0.31675
 H659 H 0.55224 -0.08784 0.36969
 H660 H 0.52269 -0.06424 0.40912
 H661 H 0.61491 -0.07247 0.45489
 H662 H 0.64456 -0.09744 0.41588
 C663 C 0.67974 0.33355 -0.19693
 C664 C 0.66232 0.32503 -0.22001
 C665 C 0.67891 0.30793 -0.24137
 C666 C 0.71371 0.29846 -0.24046
 C667 C 0.73119 0.30917 -0.21792
 C668 C 0.71443 0.32613 -0.19640
 C669 C 0.66156 0.34943 -0.17339
 C670 C 0.67356 0.37446 -0.15831
 C671 C 0.65621 0.38927 -0.13628
 C672 C 0.62641 0.37944 -0.12880
 C673 C 0.61452 0.35433 -0.14383
 C674 C 0.63189 0.33947 -0.16578
 C675 C 0.60776 0.39538 -0.10552
 C676 C 0.59192 0.37651 -0.08788
 C677 C 0.57470 0.39150 -0.06585
 C678 C 0.57310 0.42566 -0.06088
 C679 C 0.58858 0.44461 -0.07867
 C680 C 0.60565 0.42966 -0.10073
 H681 H 0.63565 0.33162 -0.22163
 H682 H 0.66394 0.30282 -0.25874
 H683 H 0.75767 0.30344 -0.21576
 H684 H 0.72869 0.33241 -0.17891
 H685 H 0.69617 0.38290 -0.16373
 H686 H 0.66631 0.40823 -0.12493
 H687 H 0.59151 0.34639 -0.13884
 H688 H 0.62219 0.31991 -0.17666
 H689 H 0.59335 0.34998 -0.09080
 H690 H 0.56306 0.37626 -0.05248
 H691 H 0.58760 0.47105 -0.07550
 H692 H 0.61699 0.44505 -0.11417
 C693 C 1.17459 0.15839 -0.16091
 C694 C 1.20518 0.16539 -0.15111
 C695 C 1.22318 0.18443 -0.16640
 C696 C 1.21069 0.19773 -0.19161
 C697 C 1.18079 0.18908 -0.20189
 C698 C 1.16281 0.17008 -0.18659
 C699 C 1.15495 0.13902 -0.14443
 C700 C 1.12053 0.14868 -0.14305
 C701 C 1.10208 0.13120 -0.12681
 C702 C 1.11764 0.10367 -0.11164
 C703 C 1.15197 0.09361 -0.11342
 C704 C 1.17045 0.11113 -0.12963
 C705 C 1.09843 0.08642 -0.09307
 C706 C 1.10460 0.05159 -0.09074
 C707 C 1.08790 0.03563 -0.07192
 C708 C 1.06489 0.05425 -0.05499
 C709 C 1.05805 0.08897 -0.05786
 C710 C 1.07465 0.10489 -0.07671
 H711 H 1.21505 0.15647 -0.13145
 H712 H 1.24701 0.18868 -0.15844
 H713 H 1.17131 0.19616 -0.22200
 H714 H 1.13989 0.16401 -0.19508
 H715 H 1.10796 0.17022 -0.15408
 H716 H 1.07561 0.13932 -0.12601
 H717 H 1.16467 0.07268 -0.10174
 H718 H 1.19687 0.10288 -0.13057
 H719 H 1.12247 0.03673 -0.10336
 H720 H 1.09349 0.00879 -0.07025
 H721 H 1.04032 0.10392 -0.04516
 H722 H 1.06962 0.13177 -0.07787
 C723 C 1.18264 0.65805 0.34955
 C724 C 1.19766 0.68357 0.36111
 C725 C 1.21454 0.70299 0.34513
 C726 C 1.21714 0.69712 0.31711
 C727 C 1.20109 0.67220 0.30555
 C728 C 1.18445 0.65269 0.32155
 C729 C 1.16425 0.63788 0.36653
 C730 C 1.13434 0.62895 0.35687
 C731 C 1.11615 0.61144 0.37330
 C732 C 1.12730 0.60264 0.39984
 C733 C 1.15766 0.61073 0.40926
 C734 C 1.17596 0.62812 0.39277
 C735 C 1.10630 0.58708 0.41816
 C736 C 1.12029 0.56231 0.43674
 C737 C 1.10040 0.54942 0.45509
 C738 C 1.06621 0.56111 0.45519
 C739 C 1.05219 0.58523 0.43614
 C740 C 1.07200 0.59812 0.41792
 H741 H 1.19574 0.68907 0.38250
 H742 H 1.22468 0.72286 0.35497
 H743 H 1.20163 0.66764 0.28397
 H744 H 1.17318 0.63322 0.31198
 H745 H 1.12447 0.63632 0.33686
 H746 H 1.09307 0.60517 0.36533
 H747 H 1.16677 0.60456 0.42969
 H748 H 1.19917 0.63417 0.40064
 H749 H 1.14660 0.55302 0.43715
 H750 H 1.11184 0.53064 0.46940
 H751 H 1.02591 0.59477 0.43566
 H752 H 1.06051 0.61753 0.40418
 C753 C 0.66729 0.16339 0.33130
 C754 C 0.65701 0.17997 0.30694
 C755 C 0.67743 0.19915 0.29439
 C756 C 0.70824 0.20299 0.30629
 C757 C 0.71881 0.18536 0.33025
 C758 C 0.69844 0.16621 0.34275
 C759 C 0.64574 0.14323 0.34492
 C760 C 0.65937 0.11276 0.35704
 C761 C 0.63977 0.09521 0.37208
 C762 C 0.60608 0.10768 0.37527
 C763 C 0.59210 0.13741 0.36213
 C764 C 0.61174 0.15502 0.34708
 C765 C 0.58655 0.09115 0.39412
 C766 C 0.56533 0.11027 0.41212
 C767 C 0.55027 0.09495 0.43235
 C768 C 0.55621 0.06020 0.43506
 C769 C 0.57604 0.04094 0.41624
 C770 C 0.59108 0.05629 0.39595
 H771 H 0.63347 0.17750 0.29729
 H772 H 0.66924 0.21040 0.27507
 H773 H 0.74309 0.18573 0.33927
 H774 H 0.70708 0.15367 0.36151
 H775 H 0.68538 0.10279 0.35532
 H776 H 0.65137 0.07256 0.38217
 H777 H 0.56611 0.14741 0.36397
 H778 H 0.60060 0.17848 0.33800
 H779 H 0.56160 0.13717 0.41142
 H780 H 0.53488 0.11039 0.44645
 H781 H 0.58072 0.01405 0.41767
 H782 H 0.60686 0.04091 0.38207
 C783 C 0.66506 0.67087 -0.15618
 C784 C 0.69156 0.65458 -0.17104
 C785 C 0.70921 0.67236 -0.18761
 C786 C 0.69994 0.70712 -0.19111
 C787 C 0.67385 0.72345 -0.17545
 C788 C 0.65660 0.70559 -0.15839
 C789 C 0.64700 0.65161 -0.13803
 C790 C 0.61281 0.66084 -0.13452
 C791 C 0.59602 0.64250 -0.11749
 C792 C 0.61294 0.61424 -0.10385
 C793 C 0.64703 0.60485 -0.10766
 C794 C 0.66388 0.62349 -0.12423
 C795 C 0.59548 0.59496 -0.08525
 C796 C 0.61183 0.58053 -0.06172
 C797 C 0.59577 0.56239 -0.04415
 C798 C 0.56273 0.55880 -0.04933
 C799 C 0.54616 0.57320 -0.07271
 C800 C 0.56247 0.59090 -0.09063
 H801 H 0.69885 0.62786 -0.16993
 H802 H 0.73043 0.65842 -0.19725
 H803 H 0.66691 0.75024 -0.17621
 H804 H 0.63703 0.71914 -0.14655
 H805 H 0.59891 0.68209 -0.14508
 H806 H 0.56986 0.65076 -0.11476
 H807 H 0.66084 0.58294 -0.09792
 H808 H 0.69029 0.61591 -0.12596
 H809 H 0.63693 0.58376 -0.05651
 H810 H 0.60901 0.55185 -0.02610
 H811 H 0.52066 0.57067 -0.07716
 H812 H 0.54927 0.60118 -0.10876
 C813 C 0.82677 -0.18055 -0.16958
 C814 C 0.81599 -0.20676 -0.15603
 C815 C 0.79460 -0.22564 -0.16878
 C816 C 0.78248 -0.21874 -0.19556
 C817 C 0.79350 -0.19233 -0.20914
 C818 C 0.81535 -0.17367 -0.19637
 C819 C 0.84918 -0.16027 -0.15535
 C820 C 0.84598 -0.12581 -0.15975
 C821 C 0.86525 -0.10656 -0.14462
 C822 C 0.88793 -0.12119 -0.12442
 C823 C 0.89176 -0.15583 -0.12068
 C824 C 0.87299 -0.17507 -0.13611
 C825 C 0.90609 -0.10054 -0.10619
 C826 C 0.93743 -0.11370 -0.09484
 C827 C 0.95239 -0.09625 -0.07493
 C828 C 0.93688 -0.06482 -0.06643
 C829 C 0.90672 -0.05054 -0.07892
 C830 C 0.89130 -0.06835 -0.09837
 H831 H 0.82371 -0.21261 -0.13525
 H832 H 0.78842 -0.24614 -0.15736
 H833 H 0.78461 -0.18473 -0.22928
 H834 H 0.82324 -0.15377 -0.20755
 H835 H 0.82782 -0.11343 -0.17428
 H836 H 0.86198 -0.08012 -0.14854
 H837 H 0.90849 -0.16817 -0.10516
 H838 H 0.87684 -0.20162 -0.13256
 H839 H 0.95021 -0.13786 -0.10089
 H840 H 0.97591 -0.10756 -0.06584
 H841 H 0.89419 -0.02635 -0.07261
 H842 H 0.86706 -0.05740 -0.10626
 C843 C 0.84691 0.30160 0.34212
 C844 C 0.83685 0.27276 0.35213
 C845 C 0.81627 0.25558 0.33663
 C846 C 0.80416 0.26717 0.31090
 C847 C 0.81518 0.29516 0.30029
 C848 C 0.83651 0.31203 0.31564
 C849 C 0.86624 0.32158 0.36002
 C850 C 0.86173 0.35642 0.35777
 C851 C 0.87716 0.37540 0.37625
 C852 C 0.89685 0.36027 0.39806
 C853 C 0.90224 0.32535 0.39979
 C854 C 0.88758 0.30631 0.38084
 C855 C 0.91078 0.38085 0.41922
 C856 C 0.94068 0.36885 0.43347
 C857 C 0.95339 0.38832 0.45331
 C858 C 0.93696 0.42050 0.45880
 C859 C 0.90725 0.43257 0.44476
 C860 C 0.89402 0.41283 0.42558
 H861 H 0.84371 0.26393 0.37243
 H862 H 0.80924 0.23351 0.34523
 H863 H 0.80646 0.30486 0.28058
 H864 H 0.84431 0.33360 0.30685
 H865 H 0.84538 0.36936 0.34228
 H866 H 0.87318 0.40209 0.37352
 H867 H 0.91700 0.31254 0.41622
 H868 H 0.89260 0.27954 0.38292
 H869 H 0.95478 0.34472 0.42895
 H870 H 0.97670 0.37874 0.46358
 H871 H 0.89414 0.45735 0.44871
 H872 H 0.87049 0.42277 0.41587
 C873 C 0.34053 -0.17981 0.32496
 C874 C 0.32179 -0.17141 0.30087
 C875 C 0.30075 -0.19247 0.29021
 C876 C 0.29810 -0.22231 0.30338
 C877 C 0.31801 -0.23134 0.32665
 C878 C 0.33852 -0.21029 0.33744
 C879 C 0.36074 -0.15659 0.33818
 C880 C 0.38937 -0.16914 0.35367
 C881 C 0.40534 -0.14816 0.36980
 C882 C 0.39401 -0.11363 0.37028
 C883 C 0.36684 -0.10074 0.35316
 C884 C 0.35022 -0.12196 0.33755
 C885 C 0.40909 -0.09191 0.38993
 C886 C 0.39001 -0.06326 0.40096
 C887 C 0.40310 -0.04520 0.42159
 C888 C 0.43512 -0.05598 0.43225
 C889 C 0.45458 -0.08380 0.42087
 C890 C 0.44205 -0.10105 0.39956
 H891 H 0.32303 -0.14841 0.29044
 H892 H 0.28577 -0.18482 0.27223
 H893 H 0.31740 -0.25458 0.33695
 H894 H 0.35194 -0.21761 0.35621
 H895 H 0.39898 -0.19551 0.35408
 H896 H 0.42576 -0.15954 0.38275
 H897 H 0.35778 -0.07429 0.35220
 H898 H 0.32829 -0.11124 0.32592
 H899 H 0.36444 -0.05546 0.39463
 H900 H 0.38759 -0.02386 0.43021
 H901 H 0.47947 -0.09241 0.42866
 H902 H 0.45817 -0.12200 0.39110
 C903 C 0.32445 0.32694 -0.17174
 C904 C 0.33176 0.31477 -0.19789
 C905 C 0.31329 0.29255 -0.21045
 C906 C 0.28690 0.28173 -0.19716
 C907 C 0.27944 0.29492 -0.17117
 C908 C 0.29800 0.31668 -0.15869
 C909 C 0.34462 0.34930 -0.15735
 C910 C 0.32966 0.37355 -0.13928
 C911 C 0.34875 0.39131 -0.12276
 C912 C 0.38343 0.38607 -0.12425
 C913 C 0.39826 0.36337 -0.14363
 C914 C 0.37913 0.34504 -0.15983
 C915 C 0.40380 0.40254 -0.10443
 C916 C 0.43501 0.38613 -0.09500
 C917 C 0.45254 0.39997 -0.07439
 C918 C 0.43891 0.43009 -0.06224
 C919 C 0.40838 0.44710 -0.07208
 C920 C 0.39126 0.43376 -0.09320
 H921 H 0.35186 0.32232 -0.20867
 H922 H 0.32093 0.28322 -0.23011
 H923 H 0.25878 0.28934 -0.16010
 H924 H 0.29178 0.32499 -0.13839
 H925 H 0.30309 0.37826 -0.13730
 H926 H 0.33616 0.40816 -0.10803
 H927 H 0.42477 0.35916 -0.14596
 H928 H 0.39158 0.32659 -0.17348
 H929 H 0.44543 0.36189 -0.10267
 H930 H 0.47607 0.38635 -0.06708
 H931 H 0.39765 0.47068 -0.06331
 H932 H 0.36791 0.44780 -0.10038
 C933 C 1.17160 -0.18331 0.19759
 C934 C 1.15778 -0.20770 0.21112
 C935 C 1.17526 -0.22628 0.23208
 C936 C 1.20687 -0.22053 0.24073
 C937 C 1.22035 -0.19549 0.22772
 C938 C 1.20308 -0.17731 0.20631
 C939 C 1.15337 -0.16475 0.17430
 C940 C 1.15619 -0.13143 0.16925
 C941 C 1.13916 -0.11426 0.14729
 C942 C 1.11838 -0.12973 0.13001
 C943 C 1.11539 -0.16296 0.13520
 C944 C 1.13288 -0.18030 0.15682
 C945 C 1.10016 -0.11147 0.10657
 C946 C 1.09422 -0.12827 0.08242
 C947 C 1.07751 -0.11110 0.06035
 C948 C 1.06697 -0.07663 0.06169
 C949 C 1.07266 -0.05975 0.08574
 C950 C 1.08877 -0.07700 0.10801
 H951 H 1.13334 -0.21264 0.20551
 H952 H 1.16401 -0.24567 0.24098
 H953 H 1.24427 -0.18976 0.23393
 H954 H 1.21478 -0.15899 0.19628
 H955 H 1.17134 -0.11840 0.18239
 H956 H 1.14264 -0.08892 0.14375
 H957 H 1.09929 -0.17567 0.12270
 H958 H 1.13051 -0.20609 0.15960
 H959 H 1.10312 -0.15462 0.08024
 H960 H 1.07368 -0.12466 0.04195
 H961 H 1.06455 -0.03316 0.08735
 H962 H 1.09210 -0.06327 0.12638
 C963 C 1.19384 0.30124 0.67717
 C964 C 1.17779 0.27771 0.68963
 C965 C 1.18998 0.26287 0.71399
 C966 C 1.21812 0.27174 0.72727
 C967 C 1.23422 0.29536 0.71495
 C968 C 1.22242 0.30969 0.69009
 C969 C 1.17953 0.31791 0.65165
 C970 C 1.18202 0.35128 0.64657
 C971 C 1.16502 0.36816 0.62455
 C972 C 1.14419 0.35252 0.60741
 C973 C 1.14332 0.31860 0.61146
 C974 C 1.16109 0.30143 0.63306
 C975 C 1.12142 0.37231 0.58719
 C976 C 1.11140 0.35826 0.56279
 C977 C 1.08838 0.37697 0.54492
 C978 C 1.07545 0.41012 0.55097
 C979 C 1.08574 0.42415 0.57508
 C980 C 1.10803 0.40547 0.59303
 H981 H 1.15533 0.27095 0.68087
 H982 H 1.17726 0.24409 0.72213
 H983 H 1.25576 0.30313 0.72449
 H984 H 1.23582 0.32736 0.68105
 H985 H 1.19584 0.36501 0.66025
 H986 H 1.16736 0.39393 0.62155
 H987 H 1.12772 0.30557 0.59875
 H988 H 1.15949 0.27541 0.63561
 H989 H 1.12139 0.33290 0.55744
 H990 H 1.08093 0.36570 0.52635
 H991 H 1.07600 0.44960 0.58046
 H992 H 1.11403 0.41699 0.61188
 C993 C 0.66665 -0.16225 0.69900
 C994 C 0.70122 -0.16914 0.70074
 C995 C 0.71749 -0.18876 0.72172
 C996 C 0.69959 -0.20328 0.74113
 C997 C 0.66474 -0.19372 0.74027
 C998 C 0.64860 -0.17368 0.71948
 C999 C 0.64947 -0.14458 0.67521
 C1000 C 0.62272 -0.11864 0.67838
 C1001 C 0.60605 -0.10281 0.65571
 C1002 C 0.61550 -0.11305 0.62952
 C1003 C 0.64216 -0.13906 0.62640
 C1004 C 0.65912 -0.15453 0.64902
 C1005 C 0.59795 -0.09643 0.60546
 C1006 C 0.58800 -0.11526 0.58378
 C1007 C 0.57243 -0.09952 0.56065
 C1008 C 0.56704 -0.06469 0.55867
 C1009 C 0.57668 -0.04588 0.58050
 C1010 C 0.59180 -0.06160 0.60374
 H1011 H 0.71574 -0.15961 0.68560
 H1012 H 0.74404 -0.19269 0.72161
 H1013 H 0.64926 -0.20162 0.75535
 H1014 H 0.62183 -0.16815 0.71888
 H1015 H 0.61488 -0.11051 0.69838
 H1016 H 0.58547 -0.08287 0.65860
 H1017 H 0.65009 -0.14717 0.60641
 H1018 H 0.67944 -0.17472 0.64607
 H1019 H 0.59223 -0.14216 0.58477
 H1020 H 0.56515 -0.11459 0.54416
 H1021 H 0.57269 -0.01897 0.57956
 H1022 H 0.59943 -0.04658 0.62013
 C1023 C 0.69073 0.32777 0.19543
 C1024 C 0.68122 0.33569 0.22200
 C1025 C 0.69727 0.31731 0.24375
 C1026 C 0.72351 0.29123 0.23928
 C1027 C 0.73446 0.28481 0.21289
 C1028 C 0.71796 0.30272 0.19108
 C1029 C 0.67056 0.34361 0.17228
 C1030 C 0.65804 0.32376 0.15252
 C1031 C 0.63763 0.33839 0.13123
 C1032 C 0.62994 0.37312 0.12907
 C1033 C 0.64274 0.39302 0.14866
 C1034 C 0.66257 0.37835 0.17031
 C1035 C 0.60933 0.38849 0.10598
 C1036 C 0.62097 0.41182 0.08968
 C1037 C 0.60238 0.42528 0.06708
 C1038 C 0.57141 0.41627 0.06070
 C1039 C 0.55940 0.39342 0.07735
 C1040 C 0.57843 0.37932 0.09964
 H1041 H 0.66021 0.35483 0.22578
 H1042 H 0.68839 0.32255 0.26397
 H1043 H 0.75437 0.26455 0.20892
 H1044 H 0.72577 0.29635 0.17073
 H1045 H 0.66360 0.29690 0.15384
 H1046 H 0.62822 0.32262 0.11623
 H1047 H 0.63704 0.41987 0.14735
 H1048 H 0.67191 0.39408 0.18539
 H1049 H 0.64483 0.41905 0.09410
 H1050 H 0.61225 0.44281 0.05459
 H1051 H 0.53562 0.38607 0.07286
 H1052 H 0.56898 0.36140 0.11205
 C1053 C 0.82737 0.16678 0.19113
 C1054 C 0.79384 0.16447 0.19419
 C1055 C 0.77635 0.18017 0.21567
 C1056 C 0.79177 0.19899 0.23444
 C1057 C 0.82488 0.20237 0.23108
 C1058 C 0.84264 0.18618 0.20974
 C1059 C 0.84609 0.14872 0.16873
 C1060 C 0.87031 0.16258 0.15530
 C1061 C 0.88705 0.14579 0.13375
 C1062 C 0.87975 0.11486 0.12494
 C1063 C 0.85574 0.10093 0.13856
 C1064 C 0.83938 0.11747 0.16028
 C1065 C 0.89647 0.09736 0.10135
 C1066 C 0.90350 0.06240 0.10059
 C1067 C 0.91742 0.04588 0.07786
 C1068 C 0.92513 0.06390 0.05551
 C1069 C 0.91909 0.09879 0.05645
 C1070 C 0.90466 0.11535 0.07903
 H1071 H 0.78092 0.15069 0.17983
 H1072 H 0.75055 0.17794 0.21743
 H1073 H 0.83722 0.21681 0.24535
 H1074 H 0.86847 0.18829 0.20817
 H1075 H 0.87596 0.18671 0.16109
 H1076 H 0.90574 0.15706 0.12403
 H1077 H 0.84903 0.07744 0.13218
 H1078 H 0.82140 0.10565 0.17044
 H1079 H 0.89836 0.04769 0.11762
 H1080 H 0.92243 0.01896 0.07787
 H1081 H 0.92488 0.11327 0.03948
 H1082 H 0.89922 0.14224 0.07869
 C1083 C 0.80555 0.68101 0.68653
 C1084 C 0.79614 0.71569 0.68784
 C1085 C 0.78115 0.73077 0.71079
 C1086 C 0.77450 0.71152 0.73295
 C1087 C 0.78494 0.67677 0.73168
 C1088 C 0.80023 0.66183 0.70891
 C1089 C 0.82139 0.66480 0.66217
 C1090 C 0.81470 0.63363 0.65338
 C1091 C 0.83133 0.61736 0.63160
 C1092 C 0.85487 0.63199 0.61805
 C1093 C 0.86049 0.66376 0.62612
 C1094 C 0.84411 0.67988 0.64799
 C1095 C 0.87502 0.61357 0.59669
 C1096 C 0.90878 0.61555 0.59565
 C1097 C 0.92819 0.59867 0.57580
 C1098 C 0.91450 0.57904 0.55648
 C1099 C 0.88086 0.57639 0.55769
 C1100 C 0.86124 0.59358 0.57763
 H1101 H 0.79960 0.73123 0.67083
 H1102 H 0.77343 0.75729 0.71011
 H1103 H 0.78205 0.66080 0.74855
 H1104 H 0.80826 0.63517 0.70902
 H1105 H 0.79683 0.62162 0.66351
 H1106 H 0.82653 0.59287 0.62597
 H1107 H 0.87801 0.67601 0.61576
 H1108 H 0.85003 0.70373 0.65427
 H1109 H 0.92042 0.62990 0.61045
 H1110 H 0.95414 0.60094 0.57573
 H1111 H 0.86967 0.56139 0.54311
 H1112 H 0.83524 0.59164 0.57788
 C1113 C 0.33820 0.16174 0.69913
 C1114 C 0.30689 0.15352 0.70390
 C1115 C 0.28764 0.16898 0.72450
 C1116 C 0.29891 0.19343 0.74064
 C1117 C 0.32985 0.20222 0.73581
 C1118 C 0.34950 0.18629 0.71539
 C1119 C 0.35823 0.14514 0.67682
 C1120 C 0.37755 0.16270 0.66107
 C1121 C 0.39421 0.14756 0.63883
 C1122 C 0.39157 0.11465 0.63156
 C1123 C 0.37290 0.09694 0.64777
 C1124 C 0.35684 0.11181 0.67023
 C1125 C 0.40694 0.09913 0.60667
 C1126 C 0.41809 0.06461 0.60550
 C1127 C 0.42957 0.04954 0.58145
 C1128 C 0.43099 0.06870 0.55819
 C1129 C 0.42136 0.10329 0.55947
 C1130 C 0.40908 0.11834 0.58338
 H1131 H 0.29679 0.13563 0.69131
 H1132 H 0.26339 0.16249 0.72728
 H1133 H 0.33889 0.22117 0.74798
 H1134 H 0.37358 0.19306 0.71246
 H1135 H 0.37905 0.18846 0.66540
 H1136 H 0.40887 0.16182 0.62719
 H1137 H 0.36977 0.07177 0.64275
 H1138 H 0.34289 0.09720 0.68223
 H1139 H 0.41782 0.04906 0.62313
 H1140 H 0.43753 0.02286 0.58108
 H1141 H 0.42230 0.11856 0.54175
 H1142 H 0.40031 0.14486 0.58328
 C1143 C 0.32553 0.66472 0.19320
 C1144 C 0.33229 0.69542 0.20309
 C1145 C 0.31552 0.71076 0.22523
 C1146 C 0.29128 0.69600 0.23779
 C1147 C 0.28458 0.66534 0.22782
 C1148 C 0.30170 0.64978 0.20612
 C1149 C 0.34310 0.64815 0.16960
 C1150 C 0.32684 0.62920 0.15138
 C1151 C 0.34358 0.61236 0.12995
 C1152 C 0.37689 0.61454 0.12574
 C1153 C 0.39294 0.63417 0.14355
 C1154 C 0.37636 0.65052 0.16532
 C1155 C 0.39484 0.59625 0.10302
 C1156 C 0.42878 0.58335 0.10585
 C1157 C 0.44580 0.56683 0.08442
 C1158 C 0.42917 0.56220 0.05982
 C1159 C 0.39519 0.57428 0.05704
 C1160 C 0.37826 0.59143 0.07831
 H1161 H 0.35023 0.70789 0.19353
 H1162 H 0.32180 0.73405 0.23250
 H1163 H 0.26563 0.65338 0.23642
 H1164 H 0.29624 0.62586 0.19956
 H1165 H 0.30104 0.62732 0.15358
 H1166 H 0.33043 0.59720 0.11694
 H1167 H 0.41837 0.63706 0.14070
 H1168 H 0.38985 0.66456 0.17903
 H1169 H 0.44227 0.58576 0.12472
 H1170 H 0.47200 0.55749 0.08713
 H1171 H 0.38188 0.57123 0.03819
 H1172 H 0.35232 0.60146 0.07512
   
