data_POSCAR
  _audit_creation_date              2014-09-24
  _audit_creation_method            'ToBaCCo'
  _symmetry_space_group_name_H-M    'P1'
  _symmetry_Int_Tables_number       1
  _symmetry_cell_setting            triclinic
  loop_
  _symmetry_equiv_pos_as_xyz
 x,y,z
_cell_length_a 24.9789
_cell_length_b 24.8459
_cell_length_c 24.6732
_cell_angle_alpha 91.228400
_cell_angle_beta 90.720600
_cell_angle_gamma 90.909400
loop_
  _atom_site_label
  _atom_site_type_symbol
  _atom_site_fract_x
  _atom_site_fract_y
  _atom_site_fract_z
C1 C 0.17964 0.18149 0.27876
 N2 N 0.16025 0.22523 0.25401
 C3 C 0.18865 0.25027 0.21538
 N4 N 0.23551 0.22872 0.19839
 C5 C 0.25543 0.18376 0.22170
 N6 N 0.22693 0.16056 0.26216
 C7 C -0.19894 0.79043 0.26129
 N8 N -0.24143 0.81727 0.24081
 C9 C -0.26065 0.80622 0.18981
 N10 N -0.23565 0.76850 0.15874
 C11 C -0.19307 0.74179 0.17868
 N12 N -0.17430 0.75366 0.22926
 C13 C -0.21419 0.19684 -0.25690
 N14 N -0.26099 0.17705 -0.23789
 C15 C -0.28241 0.19586 -0.19110
 N16 N -0.25526 0.23523 -0.16256
 C17 C -0.20818 0.25519 -0.18098
 N18 N -0.18713 0.23504 -0.22733
 C19 C 0.18524 0.79254 -0.28270
 N20 N 0.16738 0.74684 -0.25970
 C21 C 0.18816 0.73072 -0.21199
 N22 N 0.22434 0.76293 -0.18484
 C23 C 0.24107 0.81039 -0.20598
 N24 N 0.22233 0.82392 -0.25577
 C25 C 0.20404 1.19176 0.73053
 N26 N 0.25269 1.17720 0.75021
 C27 C 0.27623 1.20421 0.79272
 N28 N 0.24878 1.24382 0.81801
 C29 C 0.19868 1.25708 0.80197
 N30 N 0.17704 1.23165 0.75707
 C31 C 0.79977 0.80852 0.76813
 N32 N 0.75713 0.82798 0.79548
 C33 C 0.74061 0.80532 0.84213
 N34 N 0.76775 0.76353 0.86287
 C35 C 0.81043 0.74294 0.83633
 N36 N 0.82677 0.76684 0.78993
 C37 C 0.20289 0.80569 1.26911
 N38 N 0.17983 0.75627 1.25910
 C39 C 0.19221 0.72648 1.21421
 N40 N 0.22726 0.74682 1.17797
 C41 C 0.25030 0.79595 1.18728
 N42 N 0.23751 0.82509 1.23214
 C43 C 0.79881 1.17258 1.25188
 N44 N 0.74642 1.16154 1.24019
 C45 C 0.71963 1.18826 1.20115
 N46 N 0.74742 1.22423 1.17076
 C47 C 0.80089 1.23372 1.17897
 N48 N 0.82559 1.20808 1.22053
 O49 O 0.53575 0.93520 0.91671
 O50 O 0.44274 0.92147 1.07135
 O51 O 0.60963 0.99682 1.07348
 O52 O 0.37151 0.98525 0.95089
 O53 O 0.54262 0.93752 1.08127
 O54 O 0.43267 0.93395 0.91596
 O55 O 0.37536 0.97111 1.04886
 O56 O 0.58146 0.95385 0.99074
 C57 C 0.57679 0.93005 0.94556
 C58 C 0.39333 0.92647 1.06447
 C59 C 0.59136 0.95088 1.09305
 C60 C 0.38464 0.94497 0.92200
 O61 O 0.43597 1.03774 0.89531
 O62 O 0.52353 1.03453 1.12479
 O63 O 0.58970 1.05203 0.97407
 O64 O 0.41939 1.07503 1.06008
 O65 O 0.42546 1.01591 1.11888
 O66 O 0.53619 1.03787 0.90277
 O67 O 0.41211 1.08515 0.96485
 O68 O 0.54331 1.07981 1.05840
 Co69 Co 0.48427 0.98718 0.91700
 Co70 Co 0.48319 0.97977 1.09048
 Co71 Co 0.55582 1.01400 1.02666
 Co72 Co 0.40077 1.02719 1.00703
 O73 O 0.47942 1.00305 1.00432
 C74 C 0.41918 1.08126 0.91495
 C75 C 0.54063 1.07830 1.10764
 C76 C 0.57786 1.05858 0.92470
 C77 C 0.41211 1.06238 1.10739
 O78 O 0.02235 0.42210 0.11798
 O79 O 0.05464 0.53570 -0.09127
 O80 O 0.08325 0.42479 -0.03488
 O81 O 0.05168 0.58814 0.06766
 O82 O 0.03657 0.43376 -0.10351
 O83 O 0.04284 0.51969 0.12117
 O84 O 0.05948 0.60770 -0.03388
 O85 O 0.07831 0.41921 0.05614
 C86 C 0.06807 0.40973 0.10334
 C87 C 0.06650 0.58611 -0.08211
 C88 C 0.07924 0.41843 -0.08400
 C89 C 0.06098 0.56603 0.11172
 O90 O -0.05826 0.54079 0.09705
 O91 O -0.06352 0.44729 -0.07631
 O92 O -0.02578 0.37517 0.04859
 O93 O -0.03163 0.59634 -0.01663
 O94 O -0.05320 0.54171 -0.08221
 O95 O -0.07536 0.44003 0.08011
 O96 O -0.02875 0.59524 0.03346
 O97 O -0.01974 0.37980 -0.04742
 Co98 Co -0.01593 0.48095 0.09532
 Co99 Co -0.00502 0.48883 -0.07847
 Co100 Co 0.02709 0.40539 0.00562
 Co101 Co 0.02887 0.55726 0.00320
 O102 O 0.00239 0.48333 0.00975
 C103 C -0.05737 0.58642 0.07579
 C104 C -0.06190 0.39859 -0.06756
 C105 C -0.06898 0.39090 0.07000
 C106 C -0.05761 0.58665 -0.06064
 O107 O 1.06032 0.05944 0.47751
 O108 O 0.87719 0.03622 0.55891
 O109 O 0.93115 0.00632 0.39557
 O110 O 1.03931 0.05955 0.58157
 O111 O 0.88814 0.04720 0.45967
 O112 O 1.10344 0.01352 0.55642
 O113 O 0.94997 0.06578 0.59662
 O114 O 1.02674 0.03048 0.40274
 C115 C 1.05429 0.06555 0.42834
 C116 C 0.90109 0.06829 0.59009
 C117 C 0.90166 0.04396 0.41141
 C118 C 1.08800 0.05277 0.58335
 O119 O 1.06420 -0.07732 0.52470
 O120 O 0.88027 -0.05814 0.44818
 O121 O 1.04775 -0.07209 0.43015
 O122 O 0.93734 -0.03990 0.61660
 O123 O 0.88079 -0.06601 0.55077
 O124 O 1.11616 -0.02421 0.45745
 O125 O 1.03743 -0.05033 0.60351
 O126 O 0.95497 -0.09421 0.43172
 Co127 Co 1.05901 -0.00905 0.49968
 Co128 Co 0.89099 -0.01013 0.50405
 Co129 Co 0.98891 -0.03009 0.42312
 Co130 Co 0.99071 0.00654 0.59202
 O131 O 0.97857 -0.00913 0.50796
 C132 C 1.06242 -0.08411 0.57442
 C133 C 0.90549 -0.09760 0.43107
 C134 C 1.09640 -0.05922 0.42265
 C135 C 0.89683 -0.06755 0.59966
 C136 C 1.17286 0.14487 0.37122
 C137 C 1.14996 0.15832 0.32040
 C138 C 1.09465 0.15089 0.31199
 C139 C 1.06355 0.12374 0.34921
 C140 C 1.08524 0.10710 0.39856
 C141 C 1.13975 0.12139 0.41163
 C142 C 1.22703 0.15770 0.38429
 C143 C 1.24854 0.14689 0.43508
 C144 C 1.21642 0.12493 0.47460
 C145 C 1.16274 0.11300 0.46342
 H146 H 1.25319 0.17763 0.35630
 H147 H 1.29003 0.15698 0.44430
 H148 H 1.23289 0.11809 0.51463
 H149 H 1.13999 0.09948 0.49703
 H150 H 1.07596 0.16214 0.27407
 H151 H 1.02252 0.11350 0.33809
 C152 C 0.79328 -0.17332 0.35577
 C153 C 0.82363 -0.19476 0.31213
 C154 C 0.87957 -0.19780 0.31864
 C155 C 0.90589 -0.17055 0.36119
 C156 C 0.87707 -0.14141 0.39992
 C157 C 0.82048 -0.14785 0.40078
 C158 C 0.73691 -0.17943 0.35746
 C159 C 0.70820 -0.16010 0.40168
 C160 C 0.73491 -0.13595 0.44581
 C161 C 0.79049 -0.13050 0.44584
 H162 H 0.71454 -0.20115 0.32601
 H163 H 0.66510 -0.16530 0.40237
 H164 H 0.71257 -0.12245 0.48075
 H165 H 0.80976 -0.11483 0.48240
 H166 H 0.90405 -0.21594 0.28746
 H167 H 0.94924 -0.16838 0.36082
 C168 C 0.84839 0.19424 0.66173
 C169 C 0.81164 0.16892 0.69709
 C170 C 0.80224 0.11328 0.69191
 C171 C 0.83082 0.08226 0.65569
 C172 C 0.86992 0.10549 0.62336
 C173 C 0.87851 0.16189 0.62506
 C174 C 0.85495 0.25076 0.66072
 C175 C 0.89132 0.27455 0.62570
 C176 C 0.92134 0.24279 0.59069
 C177 C 0.91512 0.18692 0.59012
 H178 H 0.83107 0.27724 0.68548
 H179 H 0.89575 0.31795 0.62524
 H180 H 0.94885 0.26170 0.56316
 H181 H 0.93831 0.16371 0.56146
 H182 H 0.77436 0.09277 0.71804
 H183 H 0.82409 0.03912 0.65485
 C184 C 1.18223 -0.15991 0.63047
 C185 C 1.15681 -0.18648 0.67356
 C186 C 1.10058 -0.18765 0.67558
 C187 C 1.07027 -0.15639 0.64104
 C188 C 1.09437 -0.12694 0.60015
 C189 C 1.15045 -0.13278 0.59151
 C190 C 1.23827 -0.16257 0.62338
 C191 C 1.26246 -0.13963 0.57871
 C192 C 1.23134 -0.11536 0.53946
 C193 C 1.17606 -0.11261 0.54541
 H194 H 1.26372 -0.18381 0.65122
 H195 H 1.30533 -0.14229 0.57364
 H196 H 1.24995 -0.09955 0.50360
 H197 H 1.15387 -0.09766 0.51194
 H198 H 1.08003 -0.20806 0.70789
 H199 H 1.02779 -0.15354 0.64766
 C200 C 0.34216 1.18550 1.17026
 C201 C 0.30225 1.15855 1.20135
 C202 C 0.30816 1.10287 1.20936
 C203 C 0.34626 1.07312 1.18134
 C204 C 0.38095 1.09763 1.14483
 C205 C 0.38128 1.15469 1.14159
 C206 C 0.34659 1.24238 1.16953
 C207 C 0.38567 1.26801 1.13911
 C208 C 0.42255 1.23799 1.11027
 C209 C 0.42110 1.18204 1.11206
 H210 H 0.32201 1.26805 1.19431
 H211 H 0.38820 1.31155 1.13905
 H212 H 0.45349 1.25821 1.08763
 H213 H 0.45278 1.16091 1.09170
 H214 H 0.28034 1.08075 1.23422
 H215 H 0.34615 1.02981 1.18571
 C216 C 0.27119 0.90431 0.82186
 C217 C 0.27291 0.84683 0.82613
 C218 C 0.30752 0.82514 0.86520
 C219 C 0.34255 0.85768 0.89608
 C220 C 0.34387 0.91345 0.89027
 C221 C 0.30832 0.93736 0.85279
 C222 C 0.23160 0.93052 0.79070
 C223 C 0.23266 0.98618 0.78490
 C224 C 0.27191 1.01751 0.81110
 C225 C 0.30893 0.99362 0.84521
 H226 H 0.19784 0.90951 0.77218
 H227 H 0.20240 1.00515 0.76035
 H228 H 0.27279 1.06072 0.80618
 H229 H 0.33755 1.01997 0.86563
 H230 H 0.30929 0.78204 0.87064
 H231 H 0.36939 0.83898 0.92466
 C232 C 0.66333 0.81901 1.12472
 C233 C 0.69818 0.83776 1.16758
 C234 C 0.69401 0.89158 1.18607
 C235 C 0.66033 0.92748 1.16042
 C236 C 0.62799 0.91086 1.11646
 C237 C 0.62904 0.85603 1.09819
 C238 C 0.65921 0.76372 1.10958
 C239 C 0.62679 0.74618 1.06624
 C240 C 0.59648 0.78275 1.03796
 C241 C 0.59690 0.83678 1.05402
 H242 H 0.67922 0.73290 1.13195
 H243 H 0.62476 0.70385 1.05491
 H244 H 0.57147 0.76899 1.00411
 H245 H 0.57139 0.86250 1.03121
 H246 H 0.71922 0.90728 1.21900
 H247 H 0.65928 0.96881 1.17535
 C248 C 0.64546 1.12523 0.80465
 C249 C 0.67397 1.16814 0.83230
 C250 C 0.66444 1.17674 0.88794
 C251 C 0.63360 1.14066 0.91694
 C252 C 0.61175 1.09417 0.89188
 C253 C 0.61883 1.08532 0.83538
 C254 C 0.64229 1.12076 0.74737
 C255 C 0.62100 1.07459 0.72167
 C256 C 0.60222 1.03216 0.75227
 C257 C 0.60108 1.03727 0.80857
 H258 H 0.65485 1.15327 0.72180
 H259 H 0.61982 1.07143 0.67784
 H260 H 0.58760 0.99549 0.73229
 H261 H 0.58720 1.00279 0.83058
 H262 H 0.68321 1.21004 0.91044
 H263 H 0.62756 1.14875 0.95975
 C264 C 0.13895 0.33890 0.22063
 C265 C 0.16616 0.29867 0.19018
 C266 C 0.16710 0.30169 0.13379
 C267 C 0.13727 0.33996 0.10714
 C268 C 0.10508 0.37648 0.13573
 C269 C 0.10798 0.37802 0.19316
 C270 C 0.14296 0.34202 0.27780
 C271 C 0.11630 0.38170 0.30717
 C272 C 0.08611 0.41968 0.28036
 C273 C 0.08231 0.41835 0.22395
 H274 H 0.16789 0.31499 0.30033
 H275 H 0.11985 0.38355 0.35094
 H276 H 0.06628 0.45096 0.30337
 H277 H 0.06051 0.45017 0.20501
 H278 H 0.18844 0.27214 0.10984
 H279 H 0.13728 0.33886 0.06332
 C280 C -0.19196 0.34597 -0.13572
 C281 C -0.17602 0.29274 -0.14726
 C282 C -0.12712 0.27440 -0.12767
 C283 C -0.09249 0.30861 -0.09878
 C284 C -0.10539 0.36261 -0.08896
 C285 C -0.15687 0.38132 -0.10539
 C286 C -0.24160 0.36503 -0.15467
 C287 C -0.25738 0.41736 -0.14253
 C288 C -0.22446 0.45137 -0.11097
 C289 C -0.17502 0.43371 -0.09219
 H290 H -0.26865 0.33974 -0.17895
 H291 H -0.29568 0.43135 -0.15705
 H292 H -0.23754 0.49155 -0.10045
 H293 H -0.15298 0.46113 -0.06548
 H294 H -0.11504 0.23336 -0.13600
 H295 H -0.05405 0.29310 -0.08637
 C296 C 0.10960 0.71245 -0.15476
 C297 C 0.15562 0.69322 -0.18113
 C298 C 0.16817 0.63854 -0.18000
 C299 C 0.13671 0.60272 -0.15066
 C300 C 0.09232 0.62116 -0.12199
 C301 C 0.07742 0.67627 -0.12537
 C302 C 0.09513 0.76741 -0.15683
 C303 C 0.04931 0.78587 -0.13146
 C304 C 0.01722 0.75041 -0.10329
 C305 C 0.03111 0.69655 -0.10006
 H306 H 0.11881 0.79684 -0.17803
 H307 H 0.03869 0.82784 -0.13372
 H308 H -0.01860 0.76464 -0.08371
 H309 H 0.00461 0.67134 -0.07786
 H310 H 0.20294 0.62380 -0.20111
 H311 H 0.14852 0.56107 -0.14821
 C312 C -0.11215 0.72314 0.12314
 C313 C -0.16187 0.70582 0.14379
 C314 C -0.17757 0.65174 0.13868
 C315 C -0.14366 0.61410 0.11523
 C316 C -0.09289 0.62936 0.09659
 C317 C -0.07668 0.68473 0.10036
 C318 C -0.09645 0.77806 0.12630
 C319 C -0.04628 0.79480 0.10874
 C320 C -0.01064 0.75730 0.08853
 C321 C -0.02532 0.70298 0.08474
 H322 H -0.12282 0.80849 0.14236
 H323 H -0.03473 0.83696 0.11154
 H324 H 0.02883 0.77027 0.07604
 H325 H 0.00482 0.67615 0.07069
 H326 H -0.21543 0.63821 0.15496
 H327 H -0.15679 0.57233 0.11272
 C328 C 1.14162 0.18368 0.65028
 C329 C 1.18040 0.16213 0.68642
 C330 C 1.19492 0.10781 0.67868
 C331 C 1.16678 0.07350 0.64265
 C332 C 1.12404 0.09239 0.61189
 C333 C 1.11344 0.14849 0.61279
 C334 C 1.13290 0.23975 0.64745
 C335 C 1.09620 0.26029 0.61061
 C336 C 1.06847 0.22595 0.57470
 C337 C 1.07704 0.17079 0.57537
 H338 H 1.15601 0.26884 0.67135
 H339 H 1.09037 0.30330 0.60890
 H340 H 1.04133 0.24230 0.54501
 H341 H 1.05649 0.14646 0.54462
 H342 H 1.22567 0.09018 0.70373
 H343 H 1.17641 0.03111 0.64132
 C344 C 0.78698 -0.13204 0.68759
 C345 C 0.81903 -0.16571 0.72092
 C346 C 0.87372 -0.17027 0.70838
 C347 C 0.89750 -0.13891 0.66875
 C348 C 0.86791 -0.10242 0.63873
 C349 C 0.81200 -0.09880 0.64807
 C350 C 0.73036 -0.13202 0.69055
 C351 C 0.70008 -0.09629 0.66063
 C352 C 0.72508 -0.06060 0.62621
 C353 C 0.78029 -0.06204 0.61962
 H354 H 0.70834 -0.16065 0.71423
 H355 H 0.65691 -0.09641 0.66410
 H356 H 0.70148 -0.03229 0.60371
 H357 H 0.79772 -0.03362 0.59249
 H358 H 0.89959 -0.19606 0.73153
 H359 H 0.93992 -0.14247 0.66216
 C360 C 1.20680 -0.10857 0.32660
 C361 C 1.18576 -0.16155 0.31353
 C362 C 1.14141 -0.17997 0.34292
 C363 C 1.11463 -0.14640 0.37857
 C364 C 1.13021 -0.09249 0.38657
 C365 C 1.17659 -0.07288 0.36037
 C366 C 1.25719 -0.08988 0.30827
 C367 C 1.27360 -0.03637 0.31631
 C368 C 1.24104 -0.00043 0.34372
 C369 C 1.19325 -0.01839 0.36601
 H370 H 1.28576 -0.11626 0.28960
 H371 H 1.31185 -0.02273 0.30112
 H372 H 1.25345 0.04134 0.34882
 H373 H 1.16961 0.01111 0.38706
 H374 H 1.12504 -0.22031 0.33680
 H375 H 1.08010 -0.16273 0.39913
 C376 C 0.86917 0.16654 0.32563
 C377 C 0.82514 0.14476 0.29389
 C378 C 0.80679 0.09217 0.30468
 C379 C 0.83283 0.06019 0.34198
 C380 C 0.87704 0.07991 0.37170
 C381 C 0.89496 0.13356 0.36476
 C382 C 0.88591 0.22116 0.32293
 C383 C 0.92847 0.24141 0.35480
 C384 C 0.95435 0.20858 0.39136
 C385 C 0.93745 0.15537 0.39693
 H386 H 0.86550 0.24976 0.29817
 H387 H 0.94081 0.28319 0.35179
 H388 H 0.98711 0.22466 0.41623
 H389 H 0.95780 0.13157 0.42681
 H390 H 0.77320 0.07424 0.28225
 H391 H 0.81812 0.01947 0.34786
 C392 C 0.18418 0.31281 -0.11370
 C393 C 0.16989 0.29645 -0.16807
 C394 C 0.12724 0.32288 -0.19336
 C395 C 0.10055 0.36465 -0.16695
 C396 C 0.11677 0.38362 -0.11513
 C397 C 0.16235 0.36049 -0.09044
 C398 C 0.21633 0.28106 -0.07974
 C399 C 0.23595 0.30114 -0.03006
 C400 C 0.22268 0.35263 -0.01248
 C401 C 0.18561 0.38194 -0.04187
 H402 H 0.22418 0.23953 -0.08977
 H403 H 0.26160 0.27671 -0.00525
 H404 H 0.23928 0.36898 0.02525
 H405 H 0.17602 0.42155 -0.02634
 H406 H 0.11411 0.31133 -0.23404
 H407 H 0.06605 0.38155 -0.18700
 C408 C -0.18840 0.29577 0.09848
 C409 C -0.16883 0.27018 0.14646
 C410 C -0.11595 0.28338 0.16366
 C411 C -0.08486 0.32161 0.13760
 C412 C -0.10536 0.35059 0.09441
 C413 C -0.15792 0.33888 0.07537
 C414 C -0.23553 0.27840 0.07047
 C415 C -0.25606 0.30706 0.02716
 C416 C -0.22936 0.35269 0.00940
 C417 C -0.18005 0.36790 0.03237
 H418 H -0.25547 0.24104 0.07886
 H419 H -0.29265 0.29340 0.00687
 H420 H -0.24613 0.37516 -0.02359
 H421 H -0.15910 0.40221 0.01608
 H422 H -0.09781 0.26460 0.19841
 H423 H -0.04447 0.32980 0.15252
 C424 C -0.12475 0.66793 -0.17202
 C425 C -0.16024 0.70027 -0.14100
 C426 C -0.16306 0.69180 -0.08458
 C427 C -0.12950 0.65561 -0.05866
 C428 C -0.09166 0.62675 -0.08798
 C429 C -0.08769 0.63455 -0.14490
 C430 C -0.12622 0.66598 -0.22954
 C431 C -0.08708 0.63935 -0.25893
 C432 C -0.04633 0.61325 -0.23197
 C433 C -0.04677 0.61050 -0.17572
 H434 H -0.15831 0.68324 -0.25274
 H435 H -0.08822 0.63928 -0.30281
 H436 H -0.01490 0.59398 -0.25471
 H437 H -0.01405 0.59027 -0.15682
 H438 H -0.19012 0.71478 -0.05949
 H439 H -0.13304 0.65029 -0.01540
 C440 C 0.18480 0.63040 0.17668
 C441 C 0.16112 0.67681 0.20009
 C442 C 0.10519 0.67908 0.20338
 C443 C 0.07277 0.63931 0.17882
 C444 C 0.09531 0.59569 0.15116
 C445 C 0.15148 0.58954 0.15187
 C446 C 0.24080 0.62384 0.17690
 C447 C 0.26339 0.57860 0.15237
 C448 C 0.23080 0.53919 0.12728
 C449 C 0.17530 0.54447 0.12683
 H450 H 0.26745 0.65311 0.19665
 H451 H 0.30642 0.57404 0.15292
 H452 H 0.24860 0.50423 0.10827
 H453 H 0.15123 0.51283 0.10735
 H454 H 0.08629 0.71410 0.22115
 H455 H 0.02979 0.64465 0.17800
 C456 C 0.36370 1.15129 0.79063
 C457 C 0.32656 1.18468 0.81793
 C458 C 0.33457 1.19539 0.87350
 C459 C 0.36947 1.16517 0.90378
 C460 C 0.39905 1.12418 0.87930
 C461 C 0.40125 1.12157 0.82169
 C462 C 0.36577 1.14811 0.73348
 C463 C 0.40356 1.11627 0.70754
 C464 C 0.44092 1.08834 0.73778
 C465 C 0.44035 1.09141 0.79422
 H466 H 0.34010 1.17188 0.70822
 H467 H 0.40488 1.11455 0.66370
 H468 H 0.47132 1.06517 0.71739
 H469 H 0.47252 1.07235 0.81565
 H470 H 0.31056 1.22410 0.89520
 H471 H 0.36969 1.17116 0.94742
 C472 C 0.26709 0.84403 1.09990
 C473 C 0.28642 0.82006 1.14767
 C474 C 0.34044 0.82535 1.16196
 C475 C 0.37503 0.85640 1.13145
 C476 C 0.35651 0.88461 1.08629
 C477 C 0.30231 0.87664 1.06884
 C478 C 0.21307 0.83742 1.08315
 C479 C 0.19436 0.86113 1.03602
 C480 C 0.22879 0.89214 1.00515
 C481 C 0.28203 0.90008 1.02144
 H482 H 0.18501 0.81357 1.10596
 H483 H 0.15300 0.85531 1.02332
 H484 H 0.21422 0.91018 0.96834
 H485 H 0.30698 0.92391 0.99602
 H486 H 0.35553 0.80717 1.19855
 H487 H 0.41602 0.86125 1.14581
 C488 C 0.62860 1.14157 1.22062
 C489 C 0.66249 1.17315 1.18705
 C490 C 0.64309 1.18587 1.13542
 C491 C 0.59792 1.16012 1.11322
 C492 C 0.57052 1.11981 1.14137
 C493 C 0.58251 1.11424 1.19733
 C494 C 0.63844 1.13731 1.27686
 C495 C 0.60564 1.10534 1.30873
 C496 C 0.56158 1.07810 1.28581
 C497 C 0.54958 1.08290 1.23084
 H498 H 0.66987 1.16031 1.29746
 H499 H 0.61380 1.10260 1.35177
 H500 H 0.53571 1.05421 1.31107
 H501 H 0.51305 1.06381 1.21577
 H502 H 0.66512 1.21273 1.10979
 H503 H 0.58797 1.16794 1.07127
 C504 C 0.71607 0.88014 0.90558
 C505 C 0.70098 0.83341 0.87532
 C506 C 0.64722 0.81700 0.87231
 C507 C 0.60781 0.84754 0.89745
 C508 C 0.62100 0.89569 0.92569
 C509 C 0.67595 0.91263 0.92945
 C510 C 0.77056 0.89617 0.91082
 C511 C 0.78522 0.94431 0.93716
 C512 C 0.74608 0.97775 0.95775
 C513 C 0.69226 0.96247 0.95347
 H514 H 0.80230 0.87182 0.89442
 H515 H 0.82702 0.95621 0.94064
 H516 H 0.75739 1.01600 0.97676
 H517 H 0.66425 0.99112 0.96786
 H518 H 0.63552 0.78122 0.84895
 H519 H 0.56640 0.83425 0.89352
   
