data_POSCAR
  _audit_creation_date              2014-09-24
  _audit_creation_method            'ToBaCCo'
  _symmetry_space_group_name_H-M    'P1'
  _symmetry_Int_Tables_number       1
  _symmetry_cell_setting            triclinic
  loop_
  _symmetry_equiv_pos_as_xyz
 x,y,z
_cell_length_a 52.9103
_cell_length_b 54.0709
_cell_length_c 22.5716
_cell_angle_alpha 90.482300
_cell_angle_beta 89.458900
_cell_angle_gamma 120.599600
loop_
  _atom_site_label
  _atom_site_type_symbol
  _atom_site_fract_x
  _atom_site_fract_y
  _atom_site_fract_z
C1 C 0.12926 0.41263 0.52782
 C2 C 0.13046 0.41396 0.46717
 C3 C 0.15825 0.41961 0.45059
 N4 N 0.17395 0.42171 0.49923
 C5 C 0.15628 0.41739 0.54644
 C6 C 0.16962 0.42572 0.39213
 C7 C 0.19760 0.43035 0.37580
 C8 C 0.21180 0.44211 0.32241
 C9 C 0.23817 0.44287 0.32371
 C10 C 0.23937 0.43144 0.37767
 N11 N 0.21437 0.42346 0.40871
 C12 C 0.26276 0.42781 0.39590
 C13 C 0.26599 0.42049 0.45398
 C14 C 0.28718 0.41417 0.47110
 C15 C 0.28536 0.41170 0.53153
 C16 C 0.26317 0.41671 0.54947
 N17 N 0.25138 0.42205 0.50192
 C18 C 0.25666 0.41973 0.60895
 C19 C 0.23279 0.42300 0.62637
 C20 C 0.22924 0.43176 0.68228
 C21 C 0.20343 0.43203 0.68137
 C22 C 0.19187 0.42346 0.62495
 N23 N 0.20965 0.41752 0.59203
 C24 C 0.16518 0.42070 0.60611
 H25 H 0.11086 0.40928 0.55516
 H26 H 0.11315 0.41187 0.43861
 H27 H 0.20501 0.40797 0.55034
 H28 H 0.20402 0.44952 0.28635
 H29 H 0.25460 0.45092 0.28885
 H30 H 0.30284 0.41227 0.44310
 H31 H 0.29938 0.40758 0.55930
 H32 H 0.19429 0.43800 0.71809
 H33 H 0.20799 0.41171 0.44772
 H34 H 0.24383 0.43752 0.71978
 C35 C 0.52110 -0.31148 0.52421
 C36 C 0.52460 -0.31064 0.46387
 C37 C 0.53240 -0.28312 0.44619
 N38 N 0.53408 -0.26709 0.49403
 C39 C 0.52684 -0.28443 0.54178
 C40 C 0.53891 -0.27304 0.38709
 C41 C 0.54492 -0.24553 0.36929
 C42 C 0.55596 -0.23338 0.31412
 C43 C 0.55614 -0.20786 0.31255
 C44 C 0.54529 -0.20507 0.36677
 N45 N 0.53846 -0.22810 0.40092
 C46 C 0.53986 -0.18280 0.38163
 C47 C 0.53367 -0.17729 0.43956
 C48 C 0.52617 -0.15685 0.45405
 C49 C 0.52302 -0.15746 0.51435
 C50 C 0.52870 -0.17826 0.53488
 N51 N 0.53551 -0.19012 0.48912
 C52 C 0.52892 -0.18481 0.59517
 C53 C 0.53150 -0.20809 0.61542
 C54 C 0.53606 -0.21239 0.67387
 C55 C 0.53541 -0.23816 0.67565
 C56 C 0.53045 -0.24895 0.61818
 N57 N 0.52790 -0.23054 0.58197
 C58 C 0.52665 -0.27594 0.60129
 H59 H 0.51524 -0.32985 0.55201
 H60 H 0.52203 -0.32823 0.43627
 H61 H 0.52066 -0.23471 0.53855
 H62 H 0.56269 -0.24223 0.27830
 H63 H 0.56301 -0.19325 0.27538
 H64 H 0.52346 -0.14275 0.42441
 H65 H 0.51729 -0.14403 0.54012
 H66 H 0.53797 -0.24799 0.71494
 H67 H 0.52648 -0.23342 0.44010
 H68 H 0.53919 -0.19856 0.71143
 C69 C 1.13468 0.70157 0.47618
 C70 C 1.13362 0.70183 0.53682
 C71 C 1.16030 0.72470 0.55563
 N72 N 1.17758 0.73831 0.50831
 C73 C 1.16195 0.72429 0.45965
 C74 C 1.16894 0.73111 0.61561
 C75 C 1.19514 0.75576 0.63489
 C76 C 1.20551 0.76039 0.69265
 C77 C 1.23112 0.78655 0.69348
 C78 C 1.23591 0.79729 0.63615
 N79 N 1.21357 0.77862 0.60112
 C80 C 1.26037 0.82387 0.61832
 C81 C 1.26837 0.83245 0.55859
 C82 C 1.29231 0.85853 0.54116
 C83 C 1.29403 0.85768 0.48064
 C84 C 1.27103 0.83115 0.46263
 N85 N 1.25552 0.81577 0.51045
 C86 C 1.26601 0.82103 0.40337
 C87 C 1.24161 0.79458 0.38467
 C88 C 1.23869 0.78276 0.32848
 C89 C 1.21242 0.75723 0.32778
 C90 C 1.19987 0.75400 0.38349
 N91 N 1.21752 0.77713 0.41745
 C92 C 1.17261 0.73017 0.40080
 H93 H 1.11747 0.68611 0.44759
 H94 H 1.11541 0.68665 0.56402
 H95 H 1.21234 0.78172 0.45885
 H96 H 1.19567 0.74637 0.73040
 H97 H 1.24479 0.79644 0.73196
 H98 H 1.30744 0.87611 0.56926
 H99 H 1.31066 0.87450 0.45310
 H100 H 1.20370 0.74257 0.29053
 H101 H 1.20996 0.78235 0.55793
 H102 H 1.25403 0.79154 0.29177
 C103 C 0.70988 0.56743 0.48534
 C104 C 0.71145 0.57079 0.54578
 C105 C 0.73411 0.56685 0.56430
 N106 N 0.74639 0.56129 0.51710
 C107 C 0.73175 0.56178 0.46876
 C108 C 0.74116 0.56567 0.62411
 C109 C 0.76451 0.56179 0.64184
 C110 C 0.76752 0.55348 0.69815
 C111 C 0.79293 0.55245 0.69769
 C112 C 0.80495 0.56031 0.64121
 N113 N 0.78764 0.56631 0.60773
 C114 C 0.83182 0.56279 0.62298
 C115 C 0.84165 0.56661 0.56353
 C116 C 0.86920 0.57219 0.54538
 C117 C 0.86896 0.57154 0.48466
 C118 C 0.84123 0.56544 0.46763
 N119 N 0.82461 0.56241 0.51591
 C120 C 0.83088 0.55993 0.40882
 C121 C 0.80288 0.55462 0.39193
 C122 C 0.78992 0.54337 0.33759
 C123 C 0.76315 0.54179 0.33828
 C124 C 0.76047 0.55222 0.39295
 N125 N 0.78499 0.56035 0.42503
 C126 C 0.73631 0.55503 0.41053
 H127 H 0.69412 0.56857 0.45695
 H128 H 0.69704 0.57487 0.57316
 H129 H 0.79041 0.57160 0.46480
 H130 H 0.75281 0.54846 0.73563
 H131 H 0.80163 0.54665 0.73484
 H132 H 0.88738 0.57581 0.57309
 H133 H 0.88692 0.57449 0.45637
 H134 H 0.74748 0.53394 0.30242
 H135 H 0.79264 0.57553 0.56593
 H136 H 0.79878 0.53687 0.30124
 C137 C 0.48127 0.17107 0.50019
 C138 C 0.47592 0.16914 0.44047
 C139 C 0.46738 0.18890 0.42799
 N140 N 0.46709 0.20259 0.47816
 C141 C 0.47587 0.19198 0.52230
 C142 C 0.45882 0.19304 0.37156
 C143 C 0.45276 0.21501 0.35857
 C144 C 0.43983 0.21675 0.30679
 C145 C 0.44016 0.24237 0.30905
 C146 C 0.45341 0.25564 0.36203
 N147 N 0.46100 0.23881 0.39183
 C148 C 0.46055 0.28366 0.37897
 C149 C 0.46980 0.29517 0.43639
 C150 C 0.47972 0.32347 0.45239
 C151 C 0.48524 0.32556 0.51203
 C152 C 0.47856 0.29847 0.53056
 N153 N 0.46886 0.27991 0.48434
 C154 C 0.47986 0.29089 0.58975
 C155 C 0.47585 0.26397 0.60648
 C156 C 0.47159 0.25389 0.66421
 C157 C 0.47099 0.22818 0.66224
 C158 C 0.47482 0.22314 0.60330
 N159 N 0.47790 0.24514 0.56978
 C160 C 0.47754 0.19981 0.58267
 H161 H 0.48824 0.15845 0.52461
 H162 H 0.47796 0.15474 0.40982
 H163 H 0.48470 0.24885 0.52582
 H164 H 0.43154 0.20141 0.27061
 H165 H 0.43209 0.25057 0.27505
 H166 H 0.48254 0.34078 0.42413
 H167 H 0.49310 0.34478 0.53880
 H168 H 0.46848 0.21491 0.70004
 H169 H 0.47450 0.24495 0.42861
 H170 H 0.46957 0.26422 0.70378
 C171 C 0.69243 0.14721 0.54083
 C172 C 0.69120 0.14924 0.48052
 C173 C 0.71960 0.16830 0.46154
 N174 N 0.73811 0.17780 0.50815
 C175 C 0.72153 0.16524 0.55685
 C176 C 0.72816 0.17555 0.40184
 C177 C 0.75665 0.19665 0.38367
 C178 C 0.76716 0.20041 0.32593
 C179 C 0.79457 0.22478 0.32584
 C180 C 0.79999 0.23519 0.38351
 N181 N 0.77677 0.21793 0.41834
 C182 C 0.82457 0.26142 0.40141
 C183 C 0.83231 0.26946 0.46112
 C184 C 0.85443 0.29628 0.47980
 C185 C 0.85505 0.29527 0.54038
 C186 C 0.83328 0.26786 0.55684
 N187 N 0.81974 0.25198 0.50822
 C188 C 0.82684 0.25784 0.61579
 C189 C 0.80349 0.23047 0.63201
 C190 C 0.80044 0.21780 0.68676
 C191 C 0.77377 0.19251 0.68651
 C192 C 0.76116 0.19055 0.63167
 N193 N 0.77946 0.21382 0.59888
 C194 C 0.73242 0.16907 0.61527
 H195 H 0.67397 0.13404 0.56965
 H196 H 0.67165 0.13792 0.45370
 H197 H 0.77415 0.22003 0.55977
 H198 H 0.75602 0.18727 0.28766
 H199 H 0.80863 0.23409 0.28747
 H200 H 0.86862 0.31469 0.45268
 H201 H 0.86995 0.31274 0.56894
 H202 H 0.76444 0.17756 0.72298
 H203 H 0.77306 0.22264 0.46104
 H204 H 0.81573 0.22608 0.72328
 O205 O 0.96638 0.49335 -0.10659
 O206 O 1.03649 0.52766 0.11847
 O207 O 0.94635 0.48599 0.07513
 O208 O 1.05669 0.53977 -0.06302
 O209 O 0.98756 0.51882 0.10855
 O210 O 1.01578 0.53251 -0.09583
 O211 O 1.05214 0.54997 0.03748
 O212 O 0.95139 0.50087 -0.02498
 C213 C 0.95374 0.50400 -0.07908
 C214 C 1.04955 0.55083 0.09156
 C215 C 0.96092 0.50885 0.10347
 C216 C 1.04249 0.54870 -0.09032
 O217 O 1.03484 0.49497 -0.10916
 O218 O 0.96717 0.46199 0.12029
 O219 O 0.94513 0.44910 -0.05976
 O220 O 1.05694 0.50363 0.07076
 O221 O 1.01611 0.47079 0.10626
 O222 O 0.98551 0.45572 -0.09557
 O223 O 1.05092 0.48825 -0.02917
 O224 O 0.95065 0.43950 0.03955
 Co225 Co 1.00068 0.49416 -0.09102
 Co226 Co 1.00177 0.49478 0.10259
 Co227 Co 0.95350 0.47137 0.00731
 Co228 Co 1.04905 0.51790 0.00416
 O229 O 1.00125 0.49456 0.00577
 C230 C 1.04773 0.48451 -0.08302
 C231 C 0.95336 0.43876 0.09340
 C232 C 0.95889 0.43965 -0.08778
 C233 C 1.04272 0.48082 0.09923
 O234 O 0.49329 0.46857 -0.10905
 O235 O 0.48159 0.51177 0.12108
 O236 O 0.49969 0.45654 0.02628
 O237 O 0.44054 0.48692 -0.04402
 O238 O 0.49883 0.47711 0.10748
 O239 O 0.46627 0.49400 -0.12323
 O240 O 0.45001 0.48829 0.05684
 O241 O 0.53064 0.47252 -0.06418
 C242 C 0.51052 0.45976 -0.10077
 C243 C 0.45577 0.49431 0.10903
 C244 C 0.49204 0.45461 0.07897
 C245 C 0.44206 0.48395 -0.09798
 O246 O 0.51312 0.54348 -0.11761
 O247 O 0.55231 0.52212 0.07908
 O248 O 0.56114 0.52484 -0.02410
 O249 O 0.48840 0.54773 0.05027
 O250 O 0.53057 0.55287 0.07535
 O251 O 0.54367 0.51979 -0.11205
 O252 O 0.47946 0.54316 -0.05784
 O253 O 0.55457 0.48560 0.04351
 Co254 Co 0.50427 0.50642 -0.10539
 Co255 Co 0.51442 0.51478 0.08576
 Co256 Co 0.52900 0.49133 0.00195
 Co257 Co 0.46782 0.51591 0.00152
 O258 O 0.50198 0.50692 -0.00878
 C259 C 0.49792 0.55403 -0.10004
 C260 C 0.56207 0.50509 0.08496
 C261 C 0.56519 0.53003 -0.07796
 C262 C 0.51404 0.56295 0.07081
 O263 O 0.52614 0.02624 -0.11763
 O264 O 0.50300 -0.02445 0.11265
 O265 O 0.53677 0.06343 0.05468
 O266 O 0.50620 -0.03533 -0.06799
 O267 O 0.53521 0.02768 0.09830
 O268 O 0.48517 -0.02409 -0.13083
 O269 O 0.50665 -0.04431 0.03256
 O270 O 0.54897 0.04612 -0.03690
 C271 C 0.54976 0.04006 -0.08976
 C272 C 0.50993 -0.04050 0.08656
 C273 C 0.54762 0.05399 0.09035
 C274 C 0.49996 -0.03520 -0.11979
 O275 O 0.44819 -0.01112 -0.08295
 O276 O 0.48719 0.03294 0.10396
 O277 O 0.52598 0.07669 -0.05216
 O278 O 0.45130 -0.05605 0.04940
 O279 O 0.45639 -0.02119 0.10953
 O280 O 0.48555 0.04043 -0.08692
 O281 O 0.44728 -0.05053 -0.05825
 O282 O 0.48416 0.04679 0.01648
 Co283 Co 0.48737 0.00748 -0.09466
 Co284 Co 0.49551 0.00404 0.09606
 Co285 Co 0.51566 0.04440 -0.01100
 Co286 Co 0.47903 -0.04261 -0.01124
 O287 O 0.49427 0.00149 -0.00054
 C288 C 0.43459 -0.03786 -0.07802
 C289 C 0.47923 0.04601 0.07052
 C290 C 0.50584 0.06649 -0.09315
 C291 C 0.44248 -0.04695 0.09232
 C292 C 1.08754 0.45396 0.20112
 C293 C 1.09203 0.46354 0.26082
 C294 C 1.10899 0.45690 0.29887
 C295 C 1.12144 0.44080 0.27702
 C296 C 1.11683 0.43109 0.21752
 C297 C 1.09982 0.43769 0.17942
 C298 C 1.09564 0.42787 0.12003
 C299 C 1.10793 0.41199 0.09888
 C300 C 1.12454 0.40553 0.13615
 C301 C 1.12900 0.41491 0.19487
 C302 C 1.11322 0.46677 0.35832
 C303 C 1.10116 0.48283 0.37948
 C304 C 1.08465 0.48939 0.34224
 C305 C 1.08003 0.47988 0.28361
 C306 C 1.13914 0.43456 0.31600
 C307 C 1.15360 0.43007 0.35048
 C308 C 1.07106 0.46180 0.16212
 C309 C 1.05778 0.46964 0.13197
 H310 H 1.08287 0.43236 0.08942
 H311 H 1.10455 0.40466 0.05334
 H312 H 1.13403 0.39319 0.11950
 H313 H 1.14210 0.40938 0.22221
 H314 H 1.12594 0.46229 0.38904
 H315 H 1.10468 0.49023 0.42503
 H316 H 1.07537 0.50192 0.35883
 H317 H 1.06698 0.48553 0.25649
 C318 C 0.52845 0.63060 0.17482
 C319 C 0.50813 0.62206 0.22256
 C320 C 0.51102 0.64251 0.26596
 C321 C 0.53433 0.67136 0.26172
 C322 C 0.55454 0.67993 0.21386
 C323 C 0.55151 0.65950 0.17014
 C324 C 0.57183 0.66856 0.12257
 C325 C 0.59453 0.69706 0.11822
 C326 C 0.59759 0.71701 0.16107
 C327 C 0.57791 0.70865 0.20852
 C328 C 0.49032 0.63346 0.31299
 C329 C 0.46754 0.60500 0.31726
 C330 C 0.46478 0.58497 0.27500
 C331 C 0.48475 0.59326 0.22814
 C332 C 0.53715 0.69209 0.30642
 C333 C 0.53850 0.70868 0.34410
 C334 C 0.52574 0.60912 0.13220
 C335 C 0.52159 0.58922 0.10096
 H336 H 0.57030 0.65376 0.08827
 H337 H 0.60985 0.70367 0.08142
 H338 H 0.61530 0.73910 0.15757
 H339 H 0.58121 0.72490 0.24085
 H340 H 0.49142 0.64824 0.34686
 H341 H 0.45193 0.59848 0.35353
 H342 H 0.44704 0.56289 0.27842
 H343 H 0.48154 0.57683 0.19639
 C344 C 0.37104 -0.10082 0.19314
 C345 C 0.36942 -0.12548 0.21833
 C346 C 0.34751 -0.14168 0.26155
 C347 C 0.32723 -0.13321 0.27907
 C348 C 0.32832 -0.10904 0.25258
 C349 C 0.35024 -0.09284 0.20939
 C350 C 0.35094 -0.06874 0.18361
 C351 C 0.33059 -0.06080 0.20011
 C352 C 0.30921 -0.07657 0.24247
 C353 C 0.30799 -0.10043 0.26856
 C354 C 0.34660 -0.16604 0.28659
 C355 C 0.36664 -0.17424 0.26920
 C356 C 0.38792 -0.15851 0.22666
 C357 C 0.38945 -0.13434 0.20149
 C358 C 0.30525 -0.14932 0.32426
 C359 C 0.28694 -0.16291 0.36154
 C360 C 0.39531 -0.08252 0.15396
 C361 C 0.41633 -0.06664 0.12404
 H362 H 0.36710 -0.05586 0.15032
 H363 H 0.33143 -0.04232 0.17988
 H364 H 0.29347 -0.07031 0.25519
 H365 H 0.29095 -0.11201 0.30130
 H366 H 0.33042 -0.17897 0.31979
 H367 H 0.36562 -0.19294 0.28877
 H368 H 0.40341 -0.16498 0.21323
 H369 H 0.40642 -0.12277 0.16862
 C370 C 0.91730 0.53595 0.21108
 C371 C 0.91257 0.52572 0.27008
 C372 C 0.89540 0.53188 0.30959
 C373 C 0.88293 0.54810 0.28980
 C374 C 0.88817 0.55883 0.23121
 C375 C 0.90545 0.55276 0.19174
 C376 C 0.91041 0.56369 0.13341
 C377 C 0.89867 0.58023 0.11462
 C378 C 0.88167 0.58607 0.15310
 C379 C 0.87640 0.57554 0.21081
 C380 C 0.89099 0.52142 0.36836
 C381 C 0.90308 0.50524 0.38745
 C382 C 0.91981 0.49916 0.34877
 C383 C 0.92456 0.50921 0.29074
 C384 C 0.86438 0.55324 0.32973
 C385 C 0.84903 0.55670 0.36458
 C386 C 0.93343 0.52811 0.17017
 C387 C 0.94632 0.52018 0.13826
 H388 H 0.92349 0.55969 0.10190
 H389 H 0.90282 0.58857 0.06999
 H390 H 0.87259 0.59891 0.13823
 H391 H 0.86310 0.58067 0.23921
 H392 H 0.87817 0.52559 0.40018
 H393 H 0.89950 0.49744 0.43255
 H394 H 0.92916 0.48658 0.36376
 H395 H 0.93780 0.50396 0.26244
 C396 C 0.46998 0.38373 0.17680
 C397 C 0.44180 0.35971 0.18796
 C398 C 0.43856 0.33794 0.22759
 C399 C 0.46354 0.34042 0.25586
 C400 C 0.49180 0.36429 0.24403
 C401 C 0.49505 0.38592 0.20420
 C402 C 0.52360 0.40952 0.19288
 C403 C 0.54814 0.41168 0.22022
 C404 C 0.54492 0.39065 0.25957
 C405 C 0.51716 0.36718 0.27147
 C406 C 0.41017 0.31413 0.23820
 C407 C 0.38566 0.31190 0.21045
 C408 C 0.38883 0.33320 0.17178
 C409 C 0.41655 0.35691 0.16051
 C410 C 0.46048 0.31895 0.29810
 C411 C 0.45962 0.30226 0.33430
 C412 C 0.47372 0.40691 0.13885
 C413 C 0.48005 0.42786 0.10966
 H414 H 0.52737 0.42651 0.16270
 H415 H 0.56976 0.42978 0.21078
 H416 H 0.56405 0.39249 0.28086
 H417 H 0.51587 0.35137 0.30231
 H418 H 0.40666 0.29703 0.26789
 H419 H 0.36408 0.29353 0.21903
 H420 H 0.36972 0.33135 0.15034
 H421 H 0.41801 0.37293 0.13002
 C422 C 0.61850 0.10532 0.19367
 C423 C 0.64548 0.10615 0.18527
 C424 C 0.66859 0.12107 0.22655
 C425 C 0.66455 0.13505 0.27587
 C426 C 0.63790 0.13494 0.28334
 C427 C 0.61479 0.12002 0.24210
 C428 C 0.58822 0.11999 0.25074
 C429 C 0.58465 0.13435 0.29872
 C430 C 0.60729 0.14898 0.33901
 C431 C 0.63364 0.14932 0.33168
 C432 C 0.69531 0.12148 0.21757
 C433 C 0.69910 0.10754 0.16909
 C434 C 0.67648 0.09291 0.12873
 C435 C 0.64991 0.09213 0.13653
 C436 C 0.68755 0.14916 0.31951
 C437 C 0.70624 0.16097 0.35657
 C438 C 0.59401 0.08806 0.15461
 C439 C 0.57312 0.07296 0.12405
 H440 H 0.57000 0.10898 0.22050
 H441 H 0.56421 0.13412 0.30467
 H442 H 0.60443 0.16012 0.37621
 H443 H 0.65060 0.16102 0.36420
 H444 H 0.71353 0.13259 0.24778
 H445 H 0.71969 0.10809 0.16286
 H446 H 0.67953 0.08212 0.09115
 H447 H 0.63299 0.08053 0.10387
 C448 C 0.49744 0.11874 -0.21135
 C449 C 0.47484 0.12519 -0.20341
 C450 C 0.47087 0.14210 -0.24604
 C451 C 0.48957 0.15250 -0.29629
 C452 C 0.51244 0.14638 -0.30382
 C453 C 0.51641 0.12947 -0.26118
 C454 C 0.53945 0.12366 -0.26960
 C455 C 0.55808 0.13432 -0.31867
 C456 C 0.55414 0.15078 -0.36046
 C457 C 0.53159 0.15678 -0.35339
 C458 C 0.44805 0.14818 -0.23727
 C459 C 0.42976 0.13797 -0.18766
 C460 C 0.43369 0.12149 -0.14590
 C461 C 0.45588 0.11505 -0.15352
 C462 C 0.48528 0.16951 -0.34008
 C463 C 0.48164 0.18366 -0.37629
 C464 C 0.50075 0.10055 -0.16895
 C465 C 0.50317 0.08514 -0.13409
 H466 H 0.54337 0.11093 -0.23833
 H467 H 0.57564 0.12974 -0.32435
 H468 H 0.56865 0.15900 -0.39853
 H469 H 0.52936 0.16963 -0.38713
 H470 H 0.44407 0.16084 -0.26859
 H471 H 0.41248 0.14290 -0.18158
 H472 H 0.41943 0.11361 -0.10742
 H473 H 0.45804 0.10213 -0.11983
 C474 C 0.64118 0.55402 -0.16626
 C475 C 0.64243 0.52976 -0.18643
 C476 C 0.66429 0.53329 -0.22810
 C477 C 0.68480 0.56104 -0.24935
 C478 C 0.68422 0.58539 -0.22760
 C479 C 0.66233 0.58185 -0.18583
 C480 C 0.66196 0.60641 -0.16507
 C481 C 0.68272 0.63377 -0.18490
 C482 C 0.70413 0.63725 -0.22575
 C483 C 0.70494 0.61339 -0.24708
 C484 C 0.66484 0.50868 -0.24821
 C485 C 0.64436 0.48137 -0.22778
 C486 C 0.62300 0.47790 -0.18696
 C487 C 0.62193 0.50171 -0.16640
 C488 C 0.70584 0.56416 -0.29471
 C489 C 0.72263 0.56543 -0.33274
 C490 C 0.61644 0.54951 -0.12991
 C491 C 0.59396 0.54260 -0.10341
 H492 H 0.64574 0.60469 -0.13316
 H493 H 0.68221 0.65238 -0.16842
 H494 H 0.72019 0.65854 -0.24102
 H495 H 0.72199 0.61712 -0.27878
 H496 H 0.68107 0.51024 -0.27987
 H497 H 0.64509 0.46280 -0.24370
 H498 H 0.60712 0.45664 -0.17120
 H499 H 0.60492 0.49784 -0.13453
 C500 C 0.91076 0.36683 -0.18570
 C501 C 0.90563 0.33918 -0.17161
 C502 C 0.88790 0.31544 -0.20935
 C503 C 0.87533 0.31952 -0.26068
 C504 C 0.87970 0.34702 -0.27372
 C505 C 0.89772 0.37079 -0.23653
 C506 C 0.90224 0.39820 -0.25121
 C507 C 0.88905 0.40192 -0.30074
 C508 C 0.87105 0.37858 -0.33662
 C509 C 0.86633 0.35142 -0.32348
 C510 C 0.88307 0.28800 -0.19451
 C511 C 0.89538 0.28409 -0.14369
 C512 C 0.91268 0.30728 -0.10673
 C513 C 0.91785 0.33459 -0.12037
 C514 C 0.85836 0.29586 -0.30120
 C515 C 0.84417 0.27766 -0.33760
 C516 C 0.92889 0.39137 -0.14796
 C517 C 0.94320 0.41291 -0.11911
 H518 H 0.91596 0.41705 -0.22465
 H519 H 0.89275 0.42303 -0.31119
 H520 H 0.86064 0.38152 -0.37482
 H521 H 0.85196 0.33394 -0.35256
 H522 H 0.86964 0.26933 -0.22182
 H523 H 0.89141 0.26293 -0.13289
 H524 H 0.92216 0.30411 -0.06728
 H525 H 0.93144 0.35200 -0.09038
 C526 C 0.51319 -0.08740 -0.23111
 C527 C 0.54175 -0.08213 -0.24409
 C528 C 0.54534 -0.10295 -0.27593
 C529 C 0.52036 -0.12888 -0.29462
 C530 C 0.49180 -0.13405 -0.28202
 C531 C 0.48821 -0.11325 -0.25015
 C532 C 0.45943 -0.11893 -0.23795
 C533 C 0.43492 -0.14433 -0.25702
 C534 C 0.43843 -0.16462 -0.28837
 C535 C 0.46648 -0.15968 -0.30076
 C536 C 0.57409 -0.09720 -0.28848
 C537 C 0.59860 -0.07159 -0.27019
 C538 C 0.59509 -0.05125 -0.23899
 C539 C 0.56704 -0.05636 -0.22588
 C540 C 0.52393 -0.14950 -0.32982
 C541 C 0.52645 -0.16607 -0.36191
 C542 C 0.50936 -0.06718 -0.19507
 C543 C 0.50546 -0.05165 -0.16253
 H544 H 0.45554 -0.10377 -0.21390
 H545 H 0.41308 -0.14828 -0.24744
 H546 H 0.41932 -0.18433 -0.30309
 H547 H 0.46807 -0.17616 -0.32512
 H548 H 0.57792 -0.11240 -0.31252
 H549 H 0.62043 -0.06753 -0.28023
 H550 H 0.61421 -0.03140 -0.22487
 H551 H 0.56542 -0.03986 -0.20166
 C552 C 0.36952 0.45096 -0.20244
 C553 C 0.37411 0.46138 -0.26125
 C554 C 0.34969 0.45322 -0.29878
 C555 C 0.32083 0.43483 -0.27714
 C556 C 0.31626 0.42422 -0.21854
 C557 C 0.34071 0.43233 -0.18102
 C558 C 0.33565 0.42183 -0.12230
 C559 C 0.30721 0.40371 -0.10133
 C560 C 0.28330 0.39565 -0.13814
 C561 C 0.28764 0.40580 -0.19610
 C562 C 0.35480 0.46405 -0.35735
 C563 C 0.38321 0.48245 -0.37813
 C564 C 0.40709 0.49060 -0.34125
 C565 C 0.40273 0.48025 -0.28349
 C566 C 0.29610 0.42777 -0.31510
 C567 C 0.27686 0.42328 -0.34929
 C568 C 0.39447 0.46074 -0.16348
 C569 C 0.41588 0.47042 -0.13258
 H570 H 0.35358 0.42757 -0.09204
 H571 H 0.30373 0.39589 -0.05626
 H572 H 0.26125 0.38154 -0.12166
 H573 H 0.26838 0.39911 -0.22304
 H574 H 0.33698 0.45850 -0.38770
 H575 H 0.38668 0.49050 -0.42302
 H576 H 0.42912 0.50504 -0.35745
 H577 H 0.42204 0.48729 -0.25654
 C578 C 1.08645 0.62052 -0.19288
 C579 C 1.09641 0.64884 -0.17247
 C580 C 1.11301 0.67257 -0.21085
 C581 C 1.11944 0.66782 -0.26942
 C582 C 1.10907 0.63947 -0.29013
 C583 C 1.09255 0.61577 -0.25179
 C584 C 1.08259 0.58764 -0.27353
 C585 C 1.08875 0.58308 -0.33140
 C586 C 1.10488 0.60626 -0.36889
 C587 C 1.11498 0.63415 -0.34874
 C588 C 1.12290 0.70068 -0.18941
 C589 C 1.11646 0.70524 -0.13175
 C590 C 1.10017 0.68205 -0.09430
 C591 C 1.09026 0.65412 -0.11415
 C592 C 1.13712 0.69187 -0.30849
 C593 C 1.15194 0.71079 -0.34305
 C594 C 1.07047 0.59615 -0.15351
 C595 C 1.05749 0.57497 -0.12319
 H596 H 1.06991 0.56887 -0.24620
 H597 H 1.08097 0.56144 -0.34722
 H598 H 1.10962 0.60262 -0.41383
 H599 H 1.12746 0.65144 -0.37965
 H600 H 1.13561 0.71938 -0.21698
 H601 H 1.12414 0.72689 -0.11609
 H602 H 1.09515 0.68572 -0.04965
 H603 H 1.07767 0.63675 -0.08345
 C604 C 0.91115 0.53296 -0.18179
 C605 C 0.89932 0.54982 -0.16143
 C606 C 0.88350 0.55727 -0.20102
 C607 C 0.87971 0.54787 -0.26072
 C608 C 0.89194 0.53137 -0.28132
 C609 C 0.90768 0.52387 -0.24176
 C610 C 0.91949 0.50716 -0.26334
 C611 C 0.91571 0.49796 -0.32214
 C612 C 0.90033 0.50531 -0.36082
 C613 C 0.88861 0.52187 -0.34095
 C614 C 0.87163 0.57391 -0.17959
 C615 C 0.87521 0.58289 -0.12066
 C616 C 0.89074 0.57570 -0.08201
 C617 C 0.90277 0.55940 -0.10194
 C618 C 0.86261 0.55439 -0.30081
 C619 C 0.84825 0.55886 -0.33564
 C620 C 0.92631 0.52417 -0.14138
 C621 C 0.93887 0.51566 -0.11087
 H622 H 0.93179 0.50101 -0.23515
 H623 H 0.92479 0.48510 -0.33775
 H624 H 0.89745 0.49813 -0.40649
 H625 H 0.87695 0.52712 -0.37284
 H626 H 0.85952 0.58017 -0.20811
 H627 H 0.86589 0.59553 -0.10493
 H628 H 0.89351 0.58281 -0.03637
 H629 H 0.91480 0.55443 -0.07035
 C630 C 0.50301 0.39377 -0.20343
 C631 C 0.52378 0.39997 -0.24938
 C632 C 0.51960 0.37809 -0.29030
 C633 C 0.49475 0.35014 -0.28482
 C634 C 0.47462 0.34367 -0.23747
 C635 C 0.47877 0.36556 -0.19664
 C636 C 0.45825 0.35867 -0.14990
 C637 C 0.43431 0.33090 -0.14369
 C638 C 0.43023 0.30949 -0.18365
 C639 C 0.45009 0.31568 -0.23010
 C640 C 0.54044 0.38488 -0.33633
 C641 C 0.56476 0.41248 -0.34172
 C642 C 0.56888 0.43386 -0.30162
 C643 C 0.54871 0.42779 -0.25587
 C644 C 0.48940 0.32838 -0.32902
 C645 C 0.48488 0.31065 -0.36664
 C646 C 0.50581 0.41671 -0.16513
 C647 C 0.50798 0.43615 -0.13484
 H648 H 0.46055 0.37459 -0.11761
 H649 H 0.41885 0.32598 -0.10764
 H650 H 0.41160 0.28795 -0.17864
 H651 H 0.44605 0.29831 -0.25998
 H652 H 0.53823 0.36895 -0.36849
 H653 H 0.58048 0.41730 -0.37721
 H654 H 0.58781 0.45526 -0.30597
 H655 H 0.55293 0.44511 -0.22563
 C656 C 0.62492 0.08437 -0.18583
 C657 C 0.62906 0.11105 -0.20528
 C658 C 0.65296 0.12873 -0.24339
 C659 C 0.67262 0.11965 -0.26197
 C660 C 0.66878 0.09322 -0.24175
 C661 C 0.64481 0.07550 -0.20358
 C662 C 0.64114 0.04901 -0.18457
 C663 C 0.66060 0.04021 -0.20278
 C664 C 0.68406 0.05754 -0.24002
 C665 C 0.68823 0.08379 -0.25939
 C666 C 0.65641 0.15513 -0.26280
 C667 C 0.63673 0.16375 -0.24529
 C668 C 0.61336 0.14648 -0.20799
 C669 C 0.60946 0.12045 -0.18807
 C670 C 0.69559 0.13692 -0.30449
 C671 C 0.71346 0.15181 -0.34134
 C672 C 0.59942 0.06596 -0.14957
 C673 C 0.57717 0.05265 -0.12101
 H674 H 0.62322 0.03486 -0.15557
 H675 H 0.65746 0.01985 -0.18789
 H676 H 0.69911 0.05061 -0.25401
 H677 H 0.70680 0.09659 -0.28823
 H678 H 0.67430 0.16941 -0.29169
 H679 H 0.63964 0.18394 -0.26077
 H680 H 0.59809 0.15323 -0.19454
 H681 H 0.59090 0.10785 -0.15914
 C682 C 1.08836 0.45419 -0.19036
 C683 C 1.09389 0.46526 -0.24873
 C684 C 1.10841 0.45673 -0.29014
 C685 C 1.11742 0.43729 -0.27287
 C686 C 1.11166 0.42602 -0.21472
 C687 C 1.09698 0.43443 -0.17335
 C688 C 1.09130 0.42280 -0.11557
 C689 C 1.09993 0.40341 -0.09906
 C690 C 1.11445 0.39532 -0.13938
 C691 C 1.12032 0.40644 -0.19663
 C692 C 1.11371 0.46809 -0.34824
 C693 C 1.10501 0.48739 -0.36488
 C694 C 1.09086 0.49578 -0.32435
 C695 C 1.08526 0.48490 -0.26694
 C696 C 1.13350 0.42983 -0.31458
 C697 C 1.14748 0.42489 -0.35020
 C698 C 1.07396 0.46348 -0.14830
 C699 C 1.06197 0.47239 -0.11638
 H700 H 1.08010 0.42851 -0.08270
 H701 H 1.09528 0.39457 -0.05480
 H702 H 1.12114 0.38030 -0.12623
 H703 H 1.13160 0.39945 -0.22653
 H704 H 1.12457 0.46215 -0.38143
 H705 H 1.10927 0.49589 -0.40945
 H706 H 1.08413 0.51077 -0.33749
 H707 H 1.07412 0.49206 -0.23714
 C708 C 0.50599 0.62129 -0.19650
 C709 C 0.52724 0.65029 -0.18426
 C710 C 0.53103 0.67230 -0.22379
 C711 C 0.51349 0.66516 -0.27522
 C712 C 0.49155 0.63623 -0.28637
 C713 C 0.48785 0.61423 -0.24699
 C714 C 0.46602 0.58542 -0.25947
 C715 C 0.44829 0.57856 -0.30928
 C716 C 0.45179 0.60008 -0.34761
 C717 C 0.47314 0.62860 -0.33653
 C718 C 0.55257 0.70111 -0.21084
 C719 C 0.56977 0.70800 -0.16016
 C720 C 0.56606 0.68648 -0.12154
 C721 C 0.54508 0.65790 -0.13326
 C722 C 0.51861 0.68726 -0.31788
 C723 C 0.52260 0.70489 -0.35493
 C724 C 0.50350 0.59847 -0.15892
 C725 C 0.50115 0.57867 -0.13032
 H726 H 0.46236 0.56791 -0.23092
 H727 H 0.43167 0.55644 -0.31802
 H728 H 0.43789 0.59465 -0.38616
 H729 H 0.47493 0.64457 -0.36752
 H730 H 0.55625 0.71857 -0.23956
 H731 H 0.58610 0.73017 -0.15084
 H732 H 0.57946 0.69196 -0.08221
 H733 H 0.54296 0.64190 -0.10191
 C734 C 0.36286 -0.08824 -0.17817
 C735 C 0.37064 -0.09736 -0.23080
 C736 C 0.34853 -0.11563 -0.27147
 C737 C 0.31876 -0.12464 -0.25944
 C738 C 0.31096 -0.11562 -0.20681
 C739 C 0.33311 -0.09733 -0.16603
 C740 C 0.32486 -0.08856 -0.11376
 C741 C 0.29550 -0.09764 -0.10197
 C742 C 0.27384 -0.11554 -0.14180
 C743 C 0.28135 -0.12451 -0.19372
 C744 C 0.35683 -0.12454 -0.32367
 C745 C 0.38615 -0.11556 -0.33543
 C746 C 0.40780 -0.09758 -0.29583
 C747 C 0.40029 -0.08858 -0.24402
 C748 C 0.29646 -0.14315 -0.30164
 C749 C 0.27908 -0.15854 -0.33847
 C750 C 0.38582 -0.06972 -0.13707
 C751 C 0.40695 -0.05471 -0.10697
 H752 H 0.34099 -0.07464 -0.08158
 H753 H 0.28955 -0.09073 -0.06172
 H754 H 0.25107 -0.12254 -0.13241
 H755 H 0.26375 -0.13845 -0.22339
 H756 H 0.34082 -0.13852 -0.35596
 H757 H 0.39208 -0.12259 -0.37553
 H758 H 0.43057 -0.09058 -0.30525
 H759 H 0.41801 -0.07468 -0.21464
 C760 C 0.52820 -0.09154 0.18672
 C761 C 0.55248 -0.09545 0.17838
 C762 C 0.55553 -0.11512 0.21470
 C763 C 0.53423 -0.13072 0.25889
 C764 C 0.50964 -0.12718 0.26646
 C765 C 0.50673 -0.10738 0.23055
 C766 C 0.48219 -0.10384 0.23956
 C767 C 0.46116 -0.11946 0.28277
 C768 C 0.46384 -0.13907 0.31751
 C769 C 0.48770 -0.14302 0.30958
 C770 C 0.57999 -0.11867 0.20583
 C771 C 0.60089 -0.10320 0.16222
 C772 C 0.59790 -0.08398 0.12663
 C773 C 0.57400 -0.08006 0.13444
 C774 C 0.53794 -0.14948 0.29872
 C775 C 0.53967 -0.16481 0.33481
 C776 C 0.52450 -0.07192 0.14962
 C777 C 0.51919 -0.05672 0.12010
 H778 H 0.47898 -0.08897 0.21353
 H779 H 0.44268 -0.11634 0.28927
 H780 H 0.44735 -0.15130 0.35079
 H781 H 0.48864 -0.15870 0.33746
 H782 H 0.58313 -0.13349 0.23229
 H783 H 0.61949 -0.10617 0.15596
 H784 H 0.61418 -0.07203 0.09280
 H785 H 0.57256 -0.06488 0.10577
 C786 C 0.38542 0.46668 0.22029
 C787 C 0.38770 0.47763 0.27836
 C788 C 0.36190 0.46907 0.31264
 C789 C 0.33395 0.44975 0.28840
 C790 C 0.33168 0.43876 0.23034
 C791 C 0.35750 0.44721 0.19619
 C792 C 0.35469 0.43602 0.13811
 C793 C 0.32716 0.41705 0.11447
 C794 C 0.30193 0.40881 0.14791
 C795 C 0.30402 0.41948 0.20520
 C796 C 0.36476 0.48029 0.37072
 C797 C 0.39229 0.49950 0.39405
 C798 C 0.41749 0.50799 0.36033
 C799 C 0.41536 0.49722 0.30314
 C800 C 0.30768 0.44128 0.32349
 C801 C 0.28662 0.43476 0.35476
 C802 C 0.41158 0.47635 0.18415
 C803 C 0.43251 0.48454 0.15170
 H804 H 0.37367 0.44177 0.11036
 H805 H 0.32543 0.40873 0.06996
 H806 H 0.28060 0.39407 0.12934
 H807 H 0.28377 0.41250 0.22947
 H808 H 0.34581 0.47440 0.39868
 H809 H 0.39407 0.50788 0.43852
 H810 H 0.43883 0.52300 0.37854
 H811 H 0.43559 0.50444 0.27862
 C812 C 1.09302 0.62163 0.19709
 C813 C 1.09667 0.61551 0.25627
 C814 C 1.11254 0.63834 0.29704
 C815 C 1.12467 0.66718 0.27846
 C816 C 1.12082 0.67329 0.21947
 C817 C 1.10491 0.65043 0.17865
 C818 C 1.10139 0.65701 0.11990
 C819 C 1.11321 0.68542 0.10198
 C820 C 1.12875 0.70779 0.14186
 C821 C 1.13264 0.70192 0.19998
 C822 C 1.11602 0.63168 0.35588
 C823 C 1.10413 0.60328 0.37392
 C824 C 1.08865 0.58094 0.33401
 C825 C 1.08487 0.58685 0.27586
 C826 C 1.14148 0.69037 0.32006
 C827 C 1.15554 0.70887 0.35602
 C828 C 1.07751 0.59808 0.15554
 C829 C 1.06468 0.57722 0.12414
 H830 H 1.08947 0.64030 0.08736
 H831 H 1.11029 0.69011 0.05691
 H832 H 1.13787 0.72982 0.12767
 H833 H 1.14496 0.72002 0.22941
 H834 H 1.12795 0.64830 0.38855
 H835 H 1.10700 0.59859 0.41909
 H836 H 1.07949 0.55890 0.34814
 H837 H 1.07262 0.56868 0.24657
 C838 C 0.46283 0.10210 0.15886
 C839 C 0.43514 0.09872 0.17287
 C840 C 0.43321 0.11798 0.21346
 C841 C 0.45899 0.14040 0.23987
 C842 C 0.48680 0.14435 0.22426
 C843 C 0.48874 0.12521 0.18352
 C844 C 0.51681 0.12949 0.16902
 C845 C 0.54218 0.15195 0.19412
 C846 C 0.54026 0.17060 0.23412
 C847 C 0.51297 0.16697 0.24915
 C848 C 0.40527 0.11406 0.22718
 C849 C 0.37994 0.09174 0.20156
 C850 C 0.38184 0.07288 0.16200
 C851 C 0.40909 0.07623 0.14768
 C852 C 0.45716 0.15871 0.28506
 C853 C 0.45712 0.17416 0.32386
 C854 C 0.46502 0.08087 0.12294
 C855 C 0.46966 0.06411 0.09654
 H856 H 0.51954 0.11563 0.13806
 H857 H 0.56343 0.15489 0.18249
 H858 H 0.56002 0.18799 0.25360
 H859 H 0.51267 0.18211 0.28039
 H860 H 0.40274 0.12822 0.25767
 H861 H 0.35872 0.08906 0.21246
 H862 H 0.36210 0.05557 0.14226
 H863 H 0.40955 0.06111 0.11658
 C864 C 0.62735 0.52276 0.20334
 C865 C 0.65675 0.54403 0.19024
 C866 C 0.67922 0.55080 0.23234
 C867 C 0.67217 0.53632 0.28738
 C868 C 0.64279 0.51485 0.30023
 C869 C 0.62032 0.50809 0.25813
 C870 C 0.59113 0.48665 0.27211
 C871 C 0.58434 0.47212 0.32591
 C872 C 0.60630 0.47870 0.36702
 C873 C 0.63522 0.49983 0.35462
 C874 C 0.70844 0.57210 0.21816
 C875 C 0.71527 0.58633 0.16397
 C876 C 0.69329 0.57975 0.12287
 C877 C 0.66433 0.55888 0.13565
 C878 C 0.69508 0.54342 0.33067
 C879 C 0.71394 0.54899 0.36679
 C880 C 0.60429 0.51627 0.16084
 C881 C 0.58508 0.51108 0.12593
 H882 H 0.57328 0.48080 0.24160
 H883 H 0.56191 0.45570 0.33574
 H884 H 0.60092 0.46736 0.40877
 H885 H 0.65152 0.50423 0.38806
 H886 H 0.72629 0.57798 0.24870
 H887 H 0.73774 0.60255 0.15382
 H888 H 0.69869 0.59088 0.08086
 H889 H 0.64801 0.55452 0.10228
 C890 C 0.90570 0.36834 0.19689
 C891 C 0.89807 0.33990 0.18202
 C892 C 0.88163 0.31726 0.22276
 C893 C 0.87266 0.32318 0.27773
 C894 C 0.87967 0.35154 0.29194
 C895 C 0.89636 0.37420 0.25153
 C896 C 0.90315 0.40241 0.26679
 C897 C 0.89363 0.40803 0.32025
 C898 C 0.87718 0.38582 0.35964
 C899 C 0.87021 0.35787 0.34589
 C900 C 0.87435 0.28901 0.20713
 C901 C 0.88282 0.28325 0.15252
 C902 C 0.89869 0.30536 0.11248
 C903 C 0.90636 0.33344 0.12690
 C904 C 0.85596 0.30026 0.31969
 C905 C 0.84187 0.28208 0.35605
 C906 C 0.92299 0.39180 0.15646
 C907 C 0.93712 0.41258 0.12577
 H908 H 0.91574 0.42043 0.23757
 H909 H 0.89895 0.42971 0.33101
 H910 H 0.86972 0.39024 0.40103
 H911 H 0.85716 0.34134 0.37784
 H912 H 0.86194 0.27111 0.23676
 H913 H 0.87696 0.26148 0.14119
 H914 H 0.90507 0.30074 0.06997
 H915 H 0.91865 0.34995 0.09435
   
