data_POSCAR
  _audit_creation_date              2014-09-24
  _audit_creation_method            'ToBaCCo'
  _symmetry_space_group_name_H-M    'P1'
  _symmetry_Int_Tables_number       1
  _symmetry_cell_setting            triclinic
  loop_
  _symmetry_equiv_pos_as_xyz
 x,y,z
_cell_length_a 48.9733
_cell_length_b 56.0344
_cell_length_c 24.3757
_cell_angle_alpha 89.860100
_cell_angle_beta 90.104800
_cell_angle_gamma 90.044900
loop_
  _atom_site_label
  _atom_site_type_symbol
  _atom_site_fract_x
  _atom_site_fract_y
  _atom_site_fract_z
C1 C 0.20361 0.22809 0.17888
 C2 C 0.19316 0.24988 0.15955
 C3 C 0.20416 0.27181 0.17542
 C4 C 0.22726 0.27235 0.21030
 C5 C 0.23913 0.25060 0.22850
 C6 C 0.22729 0.22842 0.21300
 C7 C 0.24028 0.20726 0.22989
 C8 C 0.26312 0.20772 0.26369
 C9 C 0.27554 0.22935 0.27897
 C10 C 0.26293 0.25106 0.26229
 C11 C 0.23862 0.29405 0.22799
 C12 C 0.26169 0.29450 0.26122
 C13 C 0.27406 0.27326 0.27920
 C14 C 0.29745 0.27365 0.31324
 C15 C 0.30933 0.25221 0.33010
 C16 C 0.29940 0.22997 0.31258
 H17 H 0.23326 0.18992 0.21678
 H18 H 0.27065 0.19070 0.27800
 H19 H 0.22980 0.31102 0.21648
 H20 H 0.26969 0.31178 0.27260
 H21 H 0.17500 0.24996 0.13397
 H22 H 0.32775 0.25305 0.35486
 C23 C 0.80299 0.27160 0.18220
 C24 C 0.81493 0.24923 0.17201
 C25 C 0.80186 0.22784 0.18526
 C26 C 0.77610 0.22836 0.21123
 C27 C 0.76390 0.25062 0.22408
 C28 C 0.77730 0.27232 0.20981
 C29 C 0.76546 0.29396 0.22696
 C30 C 0.74022 0.29448 0.25297
 C31 C 0.72642 0.27331 0.26650
 C32 C 0.73848 0.25113 0.25243
 C33 C 0.76254 0.20717 0.22583
 C34 C 0.73736 0.20771 0.25188
 C35 C 0.72518 0.22944 0.26664
 C36 C 0.69987 0.23009 0.29464
 C37 C 0.68803 0.25211 0.30695
 C38 C 0.70086 0.27366 0.29365
 H39 H 0.77570 0.31086 0.22164
 H40 H 0.73187 0.31178 0.26285
 H41 H 0.77125 0.18984 0.21751
 H42 H 0.72762 0.19078 0.26035
 H43 H 0.83422 0.24822 0.15031
 H44 H 0.66867 0.25250 0.32850
 C45 C 0.69477 0.72894 0.71278
 C46 C 0.68291 0.75085 0.69906
 C47 C 0.69421 0.77251 0.71629
 C48 C 0.71832 0.77238 0.74850
 C49 C 0.73113 0.75037 0.76150
 C50 C 0.71904 0.72855 0.74449
 C51 C 0.73096 0.70695 0.76145
 C52 C 0.75492 0.70672 0.79205
 C53 C 0.76795 0.72807 0.80720
 C54 C 0.75571 0.75014 0.79281
 C55 C 0.72923 0.79352 0.77024
 C56 C 0.75315 0.79328 0.80104
 C57 C 0.76764 0.77195 0.81056
 C58 C 0.79253 0.77160 0.84104
 C59 C 0.80390 0.74940 0.85539
 C60 C 0.79239 0.72786 0.83812
 H61 H 0.72170 0.68992 0.75205
 H62 H 0.76284 0.68952 0.80455
 H63 H 0.71906 0.81049 0.76476
 H64 H 0.75969 0.81004 0.81853
 H65 H 0.66457 0.75105 0.67401
 H66 H 0.82322 0.74875 0.87720
 C67 C 0.20514 0.72853 0.81711
 C68 C 0.19264 0.75031 0.83013
 C69 C 0.20354 0.77247 0.81425
 C70 C 0.22792 0.77280 0.78244
 C71 C 0.24147 0.75100 0.77026
 C72 C 0.23042 0.72891 0.78855
 C73 C 0.24592 0.70802 0.78104
 C74 C 0.27022 0.70835 0.75182
 C75 C 0.28040 0.72965 0.72939
 C76 C 0.26629 0.75129 0.73978
 C77 C 0.23840 0.79408 0.75990
 C78 C 0.26284 0.79439 0.73102
 C79 C 0.27720 0.77323 0.72055
 C80 C 0.30236 0.77340 0.69192
 C81 C 0.31569 0.75186 0.68129
 C82 C 0.30492 0.73002 0.69871
 H83 H 0.23983 0.69116 0.79887
 H84 H 0.28121 0.69171 0.74793
 H85 H 0.22773 0.81086 0.76353
 H86 H 0.27021 0.81150 0.71679
 H87 H 0.17376 0.74999 0.85327
 H88 H 0.33470 0.75209 0.65849
 O89 O 1.02899 -0.03056 0.03559
 O90 O 0.97467 0.01249 0.06799
 O91 O 0.97599 -0.03153 0.03372
 O92 O 1.02769 0.01359 0.06983
 O93 O 1.02819 0.02609 -0.01603
 O94 O 0.97610 -0.01864 -0.05184
 O95 O 0.97536 0.02549 -0.01751
 O96 O 1.02928 -0.01795 -0.05019
 Cu97 Cu 1.00182 -0.01029 0.06036
 Cu98 Cu 1.00226 0.00497 -0.04252
 C99 C 1.03829 -0.03177 -0.01294
 C100 C 0.96596 0.02657 0.03097
 C101 C 0.96725 -0.03287 -0.01528
 C102 C 1.03661 0.02772 0.03314
 O103 O 0.52782 0.47069 0.52262
 O104 O 0.47623 0.51496 0.56304
 O105 O 0.47492 0.47151 0.52483
 O106 O 0.52926 0.51435 0.56041
 O107 O 0.52811 0.52866 0.47605
 O108 O 0.47423 0.48563 0.44029
 O109 O 0.47542 0.52905 0.47846
 O110 O 0.52752 0.48506 0.43827
 Cu111 Cu 0.50217 0.49145 0.55119
 Cu112 Cu 0.50128 0.50843 0.44972
 C113 C 0.53636 0.47017 0.47348
 C114 C 0.46716 0.52973 0.52782
 C115 C 0.46538 0.47117 0.47633
 C116 C 0.53763 0.52913 0.52453
 O117 O 0.02822 0.51457 -0.07901
 O118 O -0.02451 0.46987 -0.04614
 O119 O -0.02483 0.51449 -0.07782
 O120 O 0.02843 0.47005 -0.04685
 O121 O 0.02917 0.48201 0.03931
 O122 O -0.02465 0.52592 0.00871
 O123 O -0.02405 0.48148 0.04026
 O124 O 0.02826 0.52642 0.00721
 Cu125 Cu 0.00178 0.49108 -0.07112
 Cu126 Cu 0.00224 0.50509 0.03254
 C127 C 0.03705 0.52833 -0.04160
 C128 C -0.03315 0.46790 0.00277
 C129 C -0.03375 0.52791 -0.03992
 C130 C 0.03783 0.46836 0.00162
 O131 O 0.47565 1.03095 0.52148
 O132 O 0.52786 0.98696 0.56111
 O133 O 0.52836 1.03077 0.52372
 O134 O 0.47467 0.98733 0.55842
 O135 O 0.47543 0.97370 0.47359
 O136 O 0.52962 1.01684 0.43918
 O137 O 0.52828 0.97305 0.47653
 O138 O 0.47657 1.01755 0.43650
 Cu139 Cu 0.50160 1.01030 0.54973
 Cu140 Cu 0.50257 0.99392 0.44794
 C141 C 0.46744 1.03203 0.47208
 C142 C 0.53674 0.97225 0.52580
 C143 C 0.53790 1.03147 0.47532
 C144 C 0.46595 0.97300 0.52205
 C145 C 1.15770 0.16640 0.13669
 C146 C 1.16485 0.18332 0.09662
 C147 C 1.18018 0.20343 0.11053
 C148 C 1.18927 0.20700 0.16477
 C149 C 1.18181 0.19009 0.20496
 C150 C 1.16640 0.16998 0.19100
 C151 C 1.14071 0.14539 0.12188
 C152 C 1.14612 0.12277 0.14450
 C153 C 1.13014 0.10305 0.13004
 C154 C 1.10847 0.10553 0.09259
 C155 C 1.10298 0.12817 0.07028
 C156 C 1.11888 0.14786 0.08478
 C157 C 1.09138 0.08472 0.07700
 C158 C 1.08292 0.08167 0.02235
 C159 C 1.06566 0.06285 0.00796
 C160 C 1.05641 0.04664 0.04791
 C161 C 1.06539 0.04934 0.10237
 C162 C 1.08272 0.06817 0.11675
 H163 H 1.15877 0.18093 0.05426
 H164 H 1.18547 0.21598 0.07837
 H165 H 1.18707 0.19284 0.24767
 H166 H 1.16062 0.15756 0.22307
 H167 H 1.16298 0.12025 0.17270
 H168 H 1.13502 0.08577 0.14748
 H169 H 1.08608 0.13075 0.04220
 H170 H 1.11382 0.16512 0.06751
 H171 H 1.08962 0.09391 -0.00935
 H172 H 1.05924 0.06122 -0.03441
 H173 H 1.05861 0.03717 0.13413
 H174 H 1.08871 0.07018 0.15927
 C175 C 0.65301 0.66660 0.65306
 C176 C 0.63961 0.68298 0.68720
 C177 C 0.65343 0.70294 0.70727
 C178 C 0.68084 0.70698 0.69337
 C179 C 0.69421 0.69075 0.65878
 C180 C 0.68050 0.67054 0.63934
 C181 C 0.63803 0.64574 0.63110
 C182 C 0.64924 0.62271 0.63434
 C183 C 0.63449 0.60300 0.61526
 C184 C 0.60851 0.60607 0.59172
 C185 C 0.59756 0.62917 0.58767
 C186 C 0.61210 0.64878 0.60747
 C187 C 0.59240 0.58533 0.57255
 C188 C 0.57911 0.58609 0.52151
 C189 C 0.56213 0.56738 0.50510
 C190 C 0.55781 0.54764 0.53973
 C191 C 0.57170 0.54659 0.59021
 C192 C 0.58899 0.56520 0.60630
 H193 H 0.61847 0.68025 0.69858
 H194 H 0.64270 0.71534 0.73357
 H195 H 0.71519 0.69382 0.64665
 H196 H 0.69113 0.65829 0.61255
 H197 H 0.66916 0.61994 0.65265
 H198 H 0.64338 0.58536 0.61863
 H199 H 0.57748 0.63198 0.57015
 H200 H 0.60312 0.66639 0.60416
 H201 H 0.58162 0.60133 0.49457
 H202 H 0.55172 0.56875 0.46599
 H203 H 0.56881 0.53159 0.61771
 H204 H 0.59890 0.56427 0.64600
 C205 C -0.15380 0.33180 0.12069
 C206 C -0.18220 0.33021 0.11391
 C207 C -0.19657 0.31049 0.13421
 C208 C -0.18296 0.29217 0.16314
 C209 C -0.15437 0.29390 0.16924
 C210 C -0.14005 0.31344 0.14845
 C211 C -0.13832 0.35244 0.09874
 C212 C -0.11381 0.34879 0.07011
 C213 C -0.09842 0.36818 0.05164
 C214 C -0.10708 0.39164 0.06186
 C215 C -0.13179 0.39532 0.08982
 C216 C -0.14737 0.37588 0.10776
 C217 C -0.08973 0.41208 0.04521
 C218 C -0.08431 0.43068 0.08220
 C219 C -0.06627 0.44904 0.06810
 C220 C -0.05351 0.44929 0.01649
 C221 C -0.05959 0.43106 -0.02110
 C222 C -0.07740 0.41258 -0.00677
 H223 H -0.19319 0.34393 0.09164
 H224 H -0.21823 0.30923 0.12565
 H225 H -0.14304 0.28035 0.19141
 H226 H -0.11817 0.31436 0.15473
 H227 H -0.10651 0.33088 0.06222
 H228 H -0.07935 0.36483 0.03062
 H229 H -0.13898 0.41324 0.09791
 H230 H -0.16613 0.37916 0.12998
 H231 H -0.09335 0.43062 0.12271
 H232 H -0.06205 0.46286 0.09792
 H233 H -0.05010 0.43075 -0.06119
 H234 H -0.08143 0.39856 -0.03621
 C235 C 0.34407 0.83719 0.64000
 C236 C 0.35538 0.82210 0.68027
 C237 C 0.34157 0.80160 0.69730
 C238 C 0.31619 0.79568 0.67443
 C239 C 0.30494 0.81039 0.63361
 C240 C 0.31866 0.83108 0.61682
 C241 C 0.35908 0.85892 0.62190
 C242 C 0.35911 0.86596 0.56648
 C243 C 0.37446 0.88566 0.54926
 C244 C 0.39029 0.89871 0.58696
 C245 C 0.38978 0.89192 0.64252
 C246 C 0.37428 0.87239 0.65978
 C247 C 0.40811 0.91868 0.56838
 C248 C 0.41230 0.93879 0.60182
 C249 C 0.43071 0.95664 0.58633
 C250 C 0.44511 0.95496 0.53671
 C251 C 0.44028 0.93531 0.50235
 C252 C 0.42211 0.91731 0.51812
 H253 H 0.37519 0.82589 0.69805
 H254 H 0.35075 0.79024 0.72826
 H255 H 0.28554 0.80587 0.61494
 H256 H 0.30926 0.84236 0.58602
 H257 H 0.34784 0.85590 0.53610
 H258 H 0.37403 0.89058 0.50629
 H259 H 0.40195 0.90132 0.67266
 H260 H 0.37436 0.86775 0.70293
 H261 H 0.40147 0.94070 0.64023
 H262 H 0.43381 0.97168 0.61345
 H263 H 0.45118 0.93344 0.46399
 H264 H 0.41974 0.90195 0.49170
 C265 C -0.16085 0.66460 -0.12687
 C266 C -0.17096 0.67881 -0.08395
 C267 C -0.18651 0.69915 -0.09530
 C268 C -0.19237 0.70559 -0.14969
 C269 C -0.18228 0.69150 -0.19262
 C270 C -0.16683 0.67112 -0.18134
 C271 C -0.14356 0.64341 -0.11495
 C272 C -0.12080 0.63824 -0.14791
 C273 C -0.10417 0.61864 -0.13619
 C274 C -0.10983 0.60378 -0.09112
 C275 C -0.13266 0.60883 -0.05830
 C276 C -0.14937 0.62840 -0.07014
 C277 C -0.09152 0.58348 -0.07771
 C278 C -0.08374 0.57898 -0.02316
 C279 C -0.06535 0.56067 -0.01079
 C280 C -0.05443 0.54639 -0.05269
 C281 C -0.06270 0.55055 -0.10713
 C282 C -0.08099 0.56893 -0.11951
 H283 H -0.16634 0.67452 -0.04162
 H284 H -0.19383 0.71000 -0.06168
 H285 H -0.18625 0.69640 -0.23490
 H286 H -0.15960 0.66045 -0.21530
 H287 H -0.11544 0.64968 -0.18210
 H288 H -0.08645 0.61544 -0.16166
 H289 H -0.13771 0.59751 -0.02369
 H290 H -0.16698 0.63168 -0.04446
 H291 H -0.09129 0.59005 0.00984
 H292 H -0.05939 0.55794 0.03157
 H293 H -0.05471 0.53984 -0.14035
 H294 H -0.08689 0.57179 -0.16185
 C295 C 0.34672 1.16950 0.35814
 C296 C 0.33955 1.18682 0.39709
 C297 C 0.32388 1.20658 0.38203
 C298 C 0.31443 1.20937 0.32777
 C299 C 0.32206 1.19216 0.28862
 C300 C 0.33782 1.17240 0.30371
 C301 C 0.36379 1.14871 0.37425
 C302 C 0.35838 1.12584 0.35317
 C303 C 0.37434 1.10630 0.36901
 C304 C 0.39598 1.10920 0.40633
 C305 C 0.40149 1.13208 0.42706
 C306 C 0.38561 1.15160 0.41118
 C307 C 0.41297 1.08856 0.42354
 C308 C 0.42125 1.08611 0.47848
 C309 C 0.43838 1.06742 0.49441
 C310 C 0.44768 1.05075 0.45573
 C311 C 0.43888 1.05285 0.40100
 C312 C 0.42166 1.07154 0.38509
 H313 H 0.34582 1.18497 0.43951
 H314 H 0.31852 1.21941 0.41339
 H315 H 0.31656 1.19436 0.24583
 H316 H 0.34362 1.15970 0.27243
 H317 H 0.34151 1.12299 0.32518
 H318 H 0.36945 1.08883 0.35278
 H319 H 0.41837 1.13497 0.45503
 H320 H 0.39067 1.16904 0.42730
 H321 H 0.41452 1.09871 0.50922
 H322 H 0.44468 1.06627 0.53694
 H323 H 0.44571 1.04031 0.37019
 H324 H 0.41579 1.07308 0.34238
 C325 C 1.16072 -0.16650 -0.12862
 C326 C 1.18932 -0.16735 -0.12536
 C327 C 1.20358 -0.18730 -0.14454
 C328 C 1.18958 -0.20665 -0.16862
 C329 C 1.16085 -0.20556 -0.17161
 C330 C 1.14667 -0.18578 -0.15206
 C331 C 1.14530 -0.14579 -0.10718
 C332 C 1.12171 -0.14945 -0.07557
 C333 C 1.10624 -0.13010 -0.05756
 C334 C 1.11392 -0.10666 -0.07104
 C335 C 1.13778 -0.10294 -0.10190
 C336 C 1.15343 -0.12234 -0.11952
 C337 C 1.09636 -0.08634 -0.05469
 C338 C 1.08978 -0.06832 -0.09263
 C339 C 1.07135 -0.05029 -0.07874
 C340 C 1.05927 -0.04982 -0.02647
 C341 C 1.06657 -0.06741 0.01205
 C342 C 1.08484 -0.08552 -0.00199
 H343 H 1.20059 -0.15288 -0.10653
 H344 H 1.22550 -0.18791 -0.13876
 H345 H 1.14923 -0.21987 -0.19029
 H346 H 1.12463 -0.18544 -0.15578
 H347 H 1.11514 -0.16734 -0.06501
 H348 H 1.08782 -0.13351 -0.03429
 H349 H 1.14425 -0.08504 -0.11253
 H350 H 1.17148 -0.11906 -0.14403
 H351 H 1.09817 -0.06864 -0.13370
 H352 H 1.06619 -0.03697 -0.10929
 H353 H 1.05769 -0.06753 0.05270
 H354 H 1.08979 -0.09905 0.02824
 C355 C 0.65665 0.33608 0.34422
 C356 C 0.68326 0.33207 0.36377
 C357 C 0.69793 0.31198 0.34679
 C358 C 0.68648 0.29598 0.30889
 C359 C 0.66007 0.30024 0.28874
 C360 C 0.64525 0.32005 0.30635
 C361 C 0.64028 0.35636 0.36474
 C362 C 0.61358 0.35249 0.38367
 C363 C 0.59793 0.37149 0.40304
 C364 C 0.60852 0.39477 0.40312
 C365 C 0.63520 0.39871 0.38396
 C366 C 0.65107 0.37959 0.36543
 C367 C 0.59149 0.41483 0.42264
 C368 C 0.58839 0.43553 0.39065
 C369 C 0.57072 0.45371 0.40740
 C370 C 0.55622 0.45167 0.45691
 C371 C 0.56002 0.43126 0.48965
 C372 C 0.57732 0.41295 0.47246
 H373 H 0.69231 0.34404 0.39350
 H374 H 0.71803 0.30870 0.36381
 H375 H 0.65078 0.28797 0.25992
 H376 H 0.62481 0.32284 0.29055
 H377 H 0.60491 0.33470 0.38390
 H378 H 0.57735 0.36805 0.41722
 H379 H 0.64381 0.41651 0.38386
 H380 H 0.67158 0.38298 0.35084
 H381 H 0.59901 0.43730 0.35191
 H382 H 0.56825 0.46927 0.38142
 H383 H 0.54909 0.42914 0.52793
 H384 H 0.57955 0.39722 0.49799
 C385 C 0.83941 -0.16710 -0.11767
 C386 C 0.82774 -0.16929 -0.17009
 C387 C 0.81197 -0.18926 -0.18354
 C388 C 0.80730 -0.20752 -0.14477
 C389 C 0.81948 -0.20536 -0.09255
 C390 C 0.83507 -0.18533 -0.07906
 C391 C 0.85664 -0.14619 -0.10357
 C392 C 0.85427 -0.13516 -0.05209
 C393 C 0.87117 -0.11602 -0.03804
 C394 C 0.89094 -0.10753 -0.07505
 C395 C 0.89306 -0.11839 -0.12681
 C396 C 0.87607 -0.13748 -0.14094
 C397 C 0.90972 -0.08784 -0.05926
 C398 C 0.91746 -0.07035 -0.09766
 C399 C 0.93589 -0.05234 -0.08325
 C400 C 0.94694 -0.05138 -0.03004
 C401 C 0.93890 -0.06865 0.00859
 C402 C 0.92056 -0.08669 -0.00587
 H403 H 0.83084 -0.15555 -0.20078
 H404 H 0.80419 -0.19074 -0.22501
 H405 H 0.81649 -0.21899 -0.06153
 H406 H 0.84416 -0.18431 -0.03860
 H407 H 0.83920 -0.14128 -0.02278
 H408 H 0.86868 -0.10778 0.00177
 H409 H 0.90835 -0.11256 -0.15593
 H410 H 0.87863 -0.14584 -0.18061
 H411 H 0.90918 -0.07051 -0.13888
 H412 H 0.94156 -0.03924 -0.11391
 H413 H 0.94713 -0.06848 0.04986
 H414 H 0.91535 -0.10008 0.02447
 C415 C 0.34002 0.33758 0.36062
 C416 C 0.35198 0.32105 0.32461
 C417 C 0.33788 0.30052 0.30893
 C418 C 0.31156 0.29604 0.32889
 C419 C 0.29952 0.31231 0.36517
 C420 C 0.31359 0.33299 0.38074
 C421 C 0.35547 0.35919 0.37773
 C422 C 0.35443 0.36737 0.43217
 C423 C 0.37038 0.38677 0.44885
 C424 C 0.38779 0.39841 0.41152
 C425 C 0.38829 0.39056 0.35680
 C426 C 0.37227 0.37127 0.34009
 C427 C 0.40620 0.41800 0.42977
 C428 C 0.41189 0.43743 0.39498
 C429 C 0.43075 0.45490 0.41047
 C430 C 0.44421 0.45346 0.46132
 C431 C 0.43795 0.43445 0.49685
 C432 C 0.41924 0.41688 0.48118
 H433 H 0.37249 0.32373 0.30930
 H434 H 0.34759 0.28798 0.28140
 H435 H 0.27930 0.30896 0.38140
 H436 H 0.30373 0.34543 0.40821
 H437 H 0.34188 0.35836 0.46232
 H438 H 0.36921 0.39256 0.49112
 H439 H 0.40167 0.39888 0.32705
 H440 H 0.37322 0.36569 0.29765
 H441 H 0.40184 0.43910 0.35556
 H442 H 0.43495 0.46944 0.38237
 H443 H 0.44805 0.43279 0.53623
 H444 H 0.41567 0.40200 0.50868
 C445 C 0.16041 0.66622 -0.13983
 C446 C 0.17227 0.66837 -0.19207
 C447 C 0.18751 0.68862 -0.20600
 C448 C 0.19142 0.70720 -0.16791
 C449 C 0.17947 0.70490 -0.11562
 C450 C 0.16445 0.68463 -0.10164
 C451 C 0.14323 0.64524 -0.12548
 C452 C 0.11953 0.64818 -0.09374
 C453 C 0.10338 0.62858 -0.07970
 C454 C 0.11041 0.60556 -0.09731
 C455 C 0.13392 0.60255 -0.12952
 C456 C 0.15022 0.62219 -0.14334
 C457 C 0.09299 0.58489 -0.08238
 C458 C 0.08601 0.56761 -0.12165
 C459 C 0.06822 0.54896 -0.10822
 C460 C 0.05721 0.54713 -0.05513
 C461 C 0.06483 0.56406 -0.01550
 C462 C 0.08246 0.58276 -0.02902
 H463 H 0.16905 0.65475 -0.22284
 H464 H 0.19530 0.69016 -0.24743
 H465 H 0.18224 0.71863 -0.08487
 H466 H 0.15605 0.68334 -0.06068
 H467 H 0.11319 0.66574 -0.08037
 H468 H 0.08508 0.63150 -0.05575
 H469 H 0.13993 0.58496 -0.14327
 H470 H 0.16850 0.61927 -0.16729
 H471 H 0.09367 0.56892 -0.16320
 H472 H 0.06276 0.53619 -0.13967
 H473 H 0.05679 0.56314 0.02581
 H474 H 0.08781 0.59564 0.00227
 C475 C 0.65568 1.16824 0.35023
 C476 C 0.64353 1.18457 0.31386
 C477 C 0.65813 1.20437 0.29503
 C478 C 0.68509 1.20827 0.31245
 C479 C 0.69717 1.19211 0.34934
 C480 C 0.68270 1.17207 0.36751
 C481 C 0.63992 1.14756 0.37093
 C482 C 0.65110 1.12449 0.37006
 C483 C 0.63583 1.10495 0.38854
 C484 C 0.60934 1.10826 0.40915
 C485 C 0.59834 1.13139 0.41069
 C486 C 0.61341 1.15083 0.39141
 C487 C 0.59283 1.08769 0.42805
 C488 C 0.57870 1.08881 0.47802
 C489 C 0.56164 1.07011 0.49427
 C490 C 0.55805 1.05007 0.46047
 C491 C 0.57267 1.04872 0.41100
 C492 C 0.59008 1.06729 0.39514
 H493 H 0.62275 1.18193 0.29979
 H494 H 0.64837 1.21675 0.26700
 H495 H 0.71773 1.19511 0.36426
 H496 H 0.69236 1.15988 0.39610
 H497 H 0.67147 1.12155 0.35421
 H498 H 0.64476 1.08729 0.38714
 H499 H 0.57787 1.13436 0.42594
 H500 H 0.60443 1.16847 0.39285
 H501 H 0.58069 1.10428 0.50428
 H502 H 0.55061 1.07171 0.53255
 H503 H 0.57035 1.03348 0.38415
 H504 H 0.60066 1.06609 0.35627
 C505 C 0.16039 0.33338 0.11708
 C506 C 0.14764 0.31647 0.15108
 C507 C 0.16217 0.29685 0.17085
 C508 C 0.18969 0.29365 0.15678
 C509 C 0.20250 0.31046 0.12260
 C510 C 0.18804 0.33036 0.10343
 C511 C 0.14453 0.35382 0.09543
 C512 C 0.15460 0.37722 0.09966
 C513 C 0.13874 0.39655 0.08199
 C514 C 0.11278 0.39272 0.05891
 C515 C 0.10308 0.36926 0.05345
 C516 C 0.11872 0.35002 0.07184
 C517 C 0.09529 0.41306 0.04235
 C518 C 0.08132 0.41269 -0.00799
 C519 C 0.06326 0.43104 -0.02193
 C520 C 0.05854 0.44997 0.01457
 C521 C 0.07296 0.45057 0.06448
 C522 C 0.09130 0.43237 0.07806
 H523 H 0.12641 0.31852 0.16253
 H524 H 0.15189 0.28400 0.19691
 H525 H 0.22359 0.30805 0.11050
 H526 H 0.19821 0.34307 0.07688
 H527 H 0.17441 0.38057 0.11793
 H528 H 0.14670 0.41448 0.08639
 H529 H 0.08305 0.36585 0.03624
 H530 H 0.11062 0.33211 0.06779
 H531 H 0.08421 0.39807 -0.03638
 H532 H 0.05246 0.43006 -0.06066
 H533 H 0.06980 0.46496 0.09336
 H534 H 0.10167 0.43296 0.11731
 C535 C 0.65186 0.83530 0.66038
 C536 C 0.63829 0.81788 0.69168
 C537 C 0.65229 0.79785 0.71097
 C538 C 0.68011 0.79478 0.69915
 C539 C 0.69373 0.81217 0.66786
 C540 C 0.67979 0.83240 0.64914
 C541 C 0.63662 0.85604 0.63834
 C542 C 0.64709 0.87929 0.64327
 C543 C 0.63222 0.89883 0.62352
 C544 C 0.60684 0.89539 0.59769
 C545 C 0.59661 0.87210 0.59209
 C546 C 0.61127 0.85264 0.61247
 C547 C 0.59064 0.91597 0.57767
 C548 C 0.57821 0.91527 0.52574
 C549 C 0.56141 0.93394 0.50821
 C550 C 0.55643 0.95357 0.54254
 C551 C 0.56936 0.95450 0.59404
 C552 C 0.58644 0.93594 0.61129
 H553 H 0.61682 0.81980 0.70125
 H554 H 0.64137 0.78459 0.73476
 H555 H 0.71504 0.80988 0.65732
 H556 H 0.69061 0.84545 0.62456
 H557 H 0.66654 0.88235 0.66328
 H558 H 0.64058 0.91661 0.62812
 H559 H 0.57699 0.86899 0.57281
 H560 H 0.60287 0.83488 0.60774
 H561 H 0.58134 0.90016 0.49886
 H562 H 0.55174 0.93267 0.46833
 H563 H 0.56595 0.96941 0.62136
 H564 H 0.59565 0.93683 0.65166
 C565 C 0.84441 0.16360 0.14048
 C566 C 0.85571 0.17962 0.17867
 C567 C 0.84164 0.20026 0.19366
 C568 C 0.81601 0.20534 0.17080
 C569 C 0.80476 0.18961 0.13216
 C570 C 0.81871 0.16882 0.11748
 C571 C 0.85971 0.14183 0.12406
 C572 C 0.85930 0.13383 0.06943
 C573 C 0.87467 0.11400 0.05363
 C574 C 0.89100 0.10177 0.09199
 C575 C 0.89104 0.10954 0.14679
 C576 C 0.87550 0.12923 0.16266
 C577 C 0.90872 0.08158 0.07471
 C578 C 0.91323 0.06201 0.10984
 C579 C 0.93142 0.04391 0.09521
 C580 C 0.94528 0.04481 0.04485
 C581 C 0.94015 0.06394 0.00893
 C582 C 0.92218 0.08217 0.02380
 H583 H 0.87570 0.17648 0.19626
 H584 H 0.85083 0.21240 0.22289
 H585 H 0.78517 0.19346 0.11344
 H586 H 0.80930 0.15680 0.08833
 H587 H 0.84760 0.14323 0.03848
 H588 H 0.87385 0.10832 0.01125
 H589 H 0.90361 0.10078 0.17734
 H590 H 0.87596 0.13464 0.20526
 H591 H 0.90281 0.06073 0.14886
 H592 H 0.93478 0.02930 0.12357
 H593 H 0.95064 0.06522 -0.03003
 H594 H 0.91955 0.09711 -0.00394
 C595 C 0.34887 0.66691 0.65090
 C596 C 0.36154 0.68458 0.68302
 C597 C 0.34715 0.70492 0.69902
 C598 C 0.31981 0.70798 0.68335
 C599 C 0.30713 0.69051 0.65094
 C600 C 0.32146 0.67009 0.63514
 C601 C 0.36437 0.64547 0.63319
 C602 C 0.36093 0.63611 0.58016
 C603 C 0.37615 0.61641 0.56297
 C604 C 0.39525 0.60565 0.59832
 C605 C 0.39843 0.61483 0.65158
 C606 C 0.38314 0.63445 0.66884
 C607 C 0.41239 0.58541 0.57929
 C608 C 0.41909 0.56656 0.61503
 C609 C 0.43644 0.54823 0.59802
 C610 C 0.44740 0.54827 0.54476
 C611 C 0.44018 0.56679 0.50858
 C612 C 0.42294 0.58518 0.52568
 H613 H 0.38275 0.68292 0.69498
 H614 H 0.35737 0.71835 0.72350
 H615 H 0.28614 0.69273 0.63783
 H616 H 0.31102 0.65674 0.61086
 H617 H 0.34686 0.64430 0.55146
 H618 H 0.37295 0.60962 0.52191
 H619 H 0.41318 0.60716 0.67966
 H620 H 0.38602 0.64101 0.71020
 H621 H 0.41094 0.56598 0.65627
 H622 H 0.44149 0.53415 0.62679
 H623 H 0.44837 0.56741 0.46736
 H624 H 0.41853 0.59958 0.49735
   
