data_POSCAR
  _audit_creation_date              2014-09-24
  _audit_creation_method            'ToBaCCo'
  _symmetry_space_group_name_H-M    'P1'
  _symmetry_Int_Tables_number       1
  _symmetry_cell_setting            triclinic
  loop_
  _symmetry_equiv_pos_as_xyz
 x,y,z
_cell_length_a 37.6704
_cell_length_b 37.7140
_cell_length_c 37.6096
_cell_angle_alpha 89.910000
_cell_angle_beta 89.803900
_cell_angle_gamma 90.000500
loop_
  _atom_site_label
  _atom_site_type_symbol
  _atom_site_fract_x
  _atom_site_fract_y
  _atom_site_fract_z
C1 C 0.17185 0.17084 0.21700
 C2 C 0.20232 0.15572 0.20176
 C3 C 0.21765 0.17097 0.17132
 C4 C 0.20246 0.20136 0.15616
 C5 C 0.17203 0.21648 0.17136
 C6 C 0.15674 0.20122 0.20176
 H7 H 0.21407 0.13221 0.21355
 H8 H 0.21425 0.21326 0.13263
 H9 H 0.13319 0.21302 0.21348
 C10 C -0.17195 0.82828 0.21907
 C11 C -0.15680 0.79790 0.20382
 C12 C -0.17194 0.78275 0.17344
 C13 C -0.20226 0.79799 0.15828
 C14 C -0.21746 0.82834 0.17345
 C15 C -0.20230 0.84348 0.20383
 H16 H -0.13333 0.78604 0.21552
 H17 H -0.21400 0.78625 0.13479
 H18 H -0.21414 0.86697 0.21554
 C19 C -0.17181 0.17170 -0.21785
 C20 C -0.15670 0.20209 -0.20269
 C21 C -0.17194 0.21729 -0.17228
 C22 C -0.20232 0.20210 -0.15698
 C23 C -0.21751 0.17171 -0.17206
 C24 C -0.20222 0.15653 -0.20249
 H25 H -0.13319 0.21393 -0.21450
 H26 H -0.21407 0.21395 -0.13345
 H27 H -0.21397 0.13301 -0.21421
 C28 C 0.17359 0.82909 -0.21707
 C29 C 0.15844 0.79873 -0.20180
 C30 C 0.17359 0.78349 -0.17144
 C31 C 0.20396 0.79865 -0.15631
 C32 C 0.21919 0.82905 -0.17154
 C33 C 0.20395 0.84425 -0.20194
 H34 H 0.13495 0.78699 -0.21352
 H35 H 0.21565 0.78677 -0.13281
 H36 H 0.21564 0.86776 -0.21384
 C37 C 0.17216 1.17198 0.78200
 C38 C 0.15700 1.20232 0.79721
 C39 C 0.17218 1.21751 0.82753
 C40 C 0.20254 1.20234 0.84265
 C41 C 0.21772 1.17200 0.82747
 C42 C 0.20252 1.15683 0.79714
 H43 H 0.13351 1.21408 0.78547
 H44 H 0.21432 1.21411 0.86611
 H45 H 0.21429 1.13336 0.78536
 C46 C 0.82974 0.82765 0.78297
 C47 C 0.84488 0.79725 0.79817
 C48 C 0.82963 0.78202 0.82864
 C49 C 0.79923 0.79722 0.84388
 C50 C 0.78410 0.82759 0.82870
 C51 C 0.79935 0.84279 0.79828
 H52 H 0.86840 0.78548 0.78632
 H53 H 0.78732 0.78550 0.86744
 H54 H 0.78753 0.86629 0.78657
 C55 C 0.17053 0.82831 1.21777
 C56 C 0.20094 0.84348 1.20248
 C57 C 0.21623 0.82830 1.17210
 C58 C 0.20112 0.79795 1.15698
 C59 C 0.17073 0.78276 1.17222
 C60 C 0.15543 0.79793 1.20260
 H61 H 0.21274 0.86698 1.21414
 H62 H 0.21298 0.78618 1.13348
 H63 H 0.13190 0.78608 1.21437
 C64 C 0.82815 1.17105 1.21842
 C65 C 0.84334 1.20145 1.20318
 C66 C 0.82821 1.21667 1.17279
 C67 C 0.79789 1.20152 1.15764
 C68 C 0.78268 1.17116 1.17282
 C69 C 0.79780 1.15592 1.20320
 H70 H 0.86682 1.21327 1.21488
 H71 H 0.78616 1.21333 1.13414
 H72 H 0.78593 1.13241 1.21492
 N73 N 0.53791 1.06299 0.96163
 N74 N 0.56477 1.08504 0.95706
 N75 N 0.46335 1.03840 0.93673
 N76 N 0.43661 1.04295 0.91459
 N77 N 0.46320 1.06303 0.96139
 N78 N 0.43636 1.08503 0.95673
 N79 N 0.53806 1.03835 0.93697
 N80 N 0.56503 1.04296 0.91492
 C81 C 0.58132 1.07214 0.92786
 C82 C 0.42017 1.07210 0.92747
 N83 N 0.46307 0.93737 0.96159
 N84 N 0.43621 0.91538 0.95698
 N85 N 0.53797 0.96195 0.93710
 N86 N 0.56496 0.95734 0.91510
 N87 N 0.53778 0.93733 0.96184
 N88 N 0.56462 0.91527 0.95739
 N89 N 0.46325 0.96200 0.93685
 N90 N 0.43651 0.95745 0.91470
 Mn91 Mn 0.50066 1.00017 0.93649
 C92 C 0.42002 0.92830 0.92767
 C93 C 0.58120 0.92816 0.92818
 N94 N 0.46262 1.06303 1.03800
 N95 N 0.43575 1.08508 1.04249
 N96 N 0.53715 1.03835 1.06298
 N97 N 0.56387 1.04286 1.08513
 N98 N 0.53734 1.06298 1.03825
 N99 N 0.56420 1.08496 1.04287
 N100 N 0.46245 1.03839 1.06273
 N101 N 0.43546 1.04298 1.08474
 Mn102 Mn 0.50027 1.06343 0.99982
 C103 C 0.41918 1.07216 1.07170
 C104 C 0.58036 1.07200 1.07218
 N105 N 0.53732 0.93734 1.03844
 N106 N 0.56414 0.91531 1.04315
 N107 N 0.46245 0.96201 1.06284
 N108 N 0.43547 0.95744 1.08486
 N109 N 0.46261 0.93738 1.03819
 N110 N 0.43573 0.91535 1.04273
 N111 N 0.53716 0.96197 1.06310
 N112 N 0.56387 0.95740 1.08528
 Mn113 Mn 0.50019 0.93694 1.00001
 Mn114 Mn 0.49980 1.00018 1.06333
 Cl115 Cl 0.50023 1.00018 0.99991
 C116 C 0.58033 0.92823 1.07243
 C117 C 0.41919 0.92828 1.07190
 N118 N 0.06278 0.46292 -0.03854
 N119 N 0.08481 0.43609 -0.04317
 N120 N 0.03825 0.53766 -0.06301
 N121 N 0.04294 0.56458 -0.08504
 N122 N 0.06283 0.53753 -0.03833
 N123 N 0.08495 0.56433 -0.04285
 N124 N 0.03819 0.46303 -0.06321
 N125 N 0.04279 0.43628 -0.08535
 C126 C 0.07193 0.41986 -0.07244
 C127 C 0.07213 0.58084 -0.07204
 N128 N -0.06296 0.53758 -0.03824
 N129 N -0.08498 0.56444 -0.04274
 N130 N -0.03830 0.46303 -0.06315
 N131 N -0.04281 0.43626 -0.08528
 N132 N -0.06302 0.46294 -0.03843
 N133 N -0.08505 0.43612 -0.04303
 N134 N -0.03824 0.53766 -0.06295
 N135 N -0.04273 0.56457 -0.08497
 Mn136 Mn -0.00002 0.50035 -0.06351
 C137 C -0.07195 0.58089 -0.07195
 C138 C -0.07204 0.41985 -0.07232
 N139 N 0.06263 0.53716 0.03826
 N140 N 0.08464 0.56400 0.04285
 N141 N 0.03788 0.46244 0.06277
 N142 N 0.04242 0.43552 0.08479
 N143 N 0.06260 0.46254 0.03805
 N144 N 0.08465 0.43570 0.04254
 N145 N 0.03792 0.53706 0.06298
 N146 N 0.04239 0.56383 0.08509
 Mn147 Mn 0.06313 0.50004 -0.00014
 C148 C 0.07160 0.58024 0.07213
 C149 C 0.07165 0.41922 0.07176
 N150 N -0.06320 0.46266 0.03819
 N151 N -0.08527 0.43582 0.04274
 N152 N -0.03855 0.53716 0.06306
 N153 N -0.04314 0.56390 0.08522
 N154 N -0.06315 0.53729 0.03839
 N155 N -0.08517 0.56414 0.04307
 N156 N -0.03859 0.46255 0.06285
 N157 N -0.04321 0.43565 0.08488
 Mn158 Mn -0.06351 0.50012 -0.00002
 Mn159 Mn -0.00034 0.49980 0.06333
 Cl160 Cl -0.00019 0.50008 -0.00009
 C161 C -0.07238 0.41936 0.07193
 C162 C -0.07228 0.58035 0.07235
 N163 N 1.03785 0.06289 0.53674
 N164 N 1.04247 0.08494 0.56355
 N165 N 1.06225 0.03812 0.46183
 N166 N 1.08427 0.04271 0.43483
 N167 N 1.03756 0.06273 0.46191
 N168 N 1.04210 0.08476 0.43495
 N169 N 1.06254 0.03829 0.53664
 N170 N 1.08467 0.04291 0.56338
 C171 C 1.07174 0.07208 0.57978
 C172 C 1.07129 0.07186 0.41843
 N173 N 1.03773 -0.06292 0.46244
 N174 N 1.04224 -0.08502 0.43562
 N175 N 1.06266 -0.03808 0.53697
 N176 N 1.08485 -0.04255 0.56371
 N177 N 1.03805 -0.06275 0.53727
 N178 N 1.04280 -0.08471 0.56422
 N179 N 1.06235 -0.03826 0.46216
 N180 N 1.08432 -0.04287 0.43513
 Mn181 Mn 1.06287 0.00002 0.49940
 C182 C 1.07136 -0.07210 0.41897
 C183 C 1.07205 -0.07170 0.58033
 N184 N 0.96108 0.06261 0.46254
 N185 N 0.95639 0.08457 0.43559
 N186 N 0.93675 0.03811 0.53765
 N187 N 0.91476 0.04274 0.56467
 N188 N 0.96137 0.06278 0.53737
 N189 N 0.95683 0.08490 0.56419
 N190 N 0.93645 0.03796 0.46281
 N191 N 0.91430 0.04244 0.43605
 Mn192 Mn 0.99946 0.06317 0.49964
 C193 C 0.92715 0.07158 0.41945
 C194 C 0.92770 0.07199 0.58085
 N195 N 0.96157 -0.06288 0.53778
 N196 N 0.95713 -0.08491 0.56474
 N197 N 0.93656 -0.03845 0.46305
 N198 N 0.91444 -0.04309 0.43630
 N199 N 0.96126 -0.06304 0.46296
 N200 N 0.95664 -0.08510 0.43615
 N201 N 0.93687 -0.03830 0.53789
 N202 N 0.91490 -0.04291 0.56494
 Mn203 Mn 0.99965 -0.06332 0.50011
 Mn204 Mn 0.93623 -0.00017 0.50035
 Cl205 Cl 0.99955 -0.00007 0.49988
 C206 C 0.92797 -0.07204 0.58130
 C207 C 0.92737 -0.07226 0.41989
 C208 C 1.15699 0.15610 0.24663
 C209 C 1.14380 0.14315 0.27288
 C210 C 1.12835 0.12805 0.30363
 C211 C 1.11518 0.11520 0.32991
 C212 C 1.09979 0.10015 0.36073
 C213 C 1.08673 0.08727 0.38705
 C214 C 0.84274 -0.15702 0.24866
 C215 C 0.85572 -0.14402 0.27485
 C216 C 0.87089 -0.12880 0.30554
 C217 C 0.88382 -0.11582 0.33175
 C218 C 0.89897 -0.10064 0.36246
 C219 C 0.91192 -0.08768 0.38868
 C220 C 0.84298 0.15697 0.75252
 C221 C 0.85603 0.14395 0.72628
 C222 C 0.87127 0.12871 0.69554
 C223 C 0.88424 0.11570 0.66927
 C224 C 0.89941 0.10047 0.63848
 C225 C 0.91233 0.08748 0.61218
 C226 C 1.15798 -0.15537 0.75167
 C227 C 1.14485 -0.14246 0.72548
 C228 C 1.12942 -0.12744 0.69479
 C229 C 1.11624 -0.11467 0.66857
 C230 C 1.10080 -0.09972 0.63784
 C231 C 1.08766 -0.08696 0.61159
 C232 C 0.24732 1.15633 1.15656
 C233 C 0.27359 1.14343 1.14350
 C234 C 0.30437 1.12835 1.12822
 C235 C 0.33067 1.11550 1.11520
 C236 C 0.36150 1.10043 1.09999
 C237 C 0.38782 1.08755 1.08706
 C238 C 0.24877 0.84375 0.84312
 C239 C 0.27496 0.85675 0.85607
 C240 C 0.30564 0.87195 0.87121
 C241 C 0.33185 0.88490 0.88413
 C242 C 0.36257 0.90005 0.89927
 C243 C 0.38879 0.91296 0.91221
 C244 C 0.75133 0.84390 1.15786
 C245 C 0.72518 0.85687 1.14479
 C246 C 0.69455 0.87201 1.12946
 C247 C 0.66837 0.88490 1.11637
 C248 C 0.63770 0.89999 1.10105
 C249 C 0.61151 0.91287 1.08798
 C250 C 0.75288 1.15700 0.84280
 C251 C 0.72667 1.14399 0.85590
 C252 C 0.69594 1.12876 0.87120
 C253 C 0.66970 1.11577 0.88423
 C254 C 0.63892 1.10056 0.89946
 C255 C 0.61264 1.08758 0.91243
 C256 C 0.15650 0.24775 0.15583
 C257 C 0.14349 0.27395 0.14290
 C258 C 0.12824 0.30467 0.12781
 C259 C 0.11523 0.33091 0.11496
 C260 C 0.10001 0.36166 0.09993
 C261 C 0.08705 0.38793 0.08709
 C262 C -0.15642 0.24856 -0.15681
 C263 C -0.14346 0.27475 -0.14388
 C264 C -0.12830 0.30545 -0.12874
 C265 C -0.11537 0.33167 -0.11582
 C266 C -0.10026 0.36239 -0.10068
 C267 C -0.08738 0.38862 -0.08775
 C268 C 0.15798 0.75222 -0.15588
 C269 C 0.14484 0.72603 -0.14296
 C270 C 0.12941 0.69533 -0.12793
 C271 C 0.11622 0.66910 -0.11514
 C272 C 0.10080 0.63836 -0.10017
 C273 C 0.08768 0.61211 -0.08737
 C274 C -0.15643 0.75151 0.15784
 C275 C -0.14350 0.72534 0.14474
 C276 C -0.12841 0.69467 0.12939
 C277 C -0.11555 0.66848 0.11629
 C278 C -0.10050 0.63778 0.10095
 C279 C -0.08764 0.61157 0.08788
 C280 C 1.15661 0.15646 0.75080
 C281 C 1.14359 0.14350 0.72465
 C282 C 1.12836 0.12837 0.69401
 C283 C 1.11536 0.11546 0.66783
 C284 C 1.10015 0.10035 0.63716
 C285 C 1.08718 0.08746 0.61096
 C286 C 0.84444 -0.15759 0.75331
 C287 C 0.85733 -0.14447 0.72703
 C288 C 0.87232 -0.12907 0.69624
 C289 C 0.88506 -0.11593 0.66992
 C290 C 0.89996 -0.10056 0.63907
 C291 C 0.91271 -0.08750 0.61270
 C292 C 1.15574 -0.15699 0.24737
 C293 C 1.14272 -0.14398 0.27359
 C294 C 1.12754 -0.12875 0.30431
 C295 C 1.11462 -0.11575 0.33057
 C296 C 1.09953 -0.10053 0.36135
 C297 C 1.08667 -0.08755 0.38765
 C298 C 0.84279 0.15629 0.24802
 C299 C 0.85570 0.14323 0.27423
 C300 C 0.87078 0.12797 0.30494
 C301 C 0.88365 0.11496 0.33118
 C302 C 0.89874 0.09978 0.36193
 C303 C 0.91167 0.08688 0.38819
 C304 C 0.15664 0.24873 -0.15694
 C305 C 0.14363 0.27489 -0.14398
 C306 C 0.12841 0.30555 -0.12884
 C307 C 0.11543 0.33175 -0.11592
 C308 C 0.10025 0.36244 -0.10080
 C309 C 0.08731 0.38866 -0.08788
 C310 C -0.15629 0.24793 0.15720
 C311 C -0.14341 0.27413 0.14410
 C312 C -0.12839 0.30484 0.12874
 C313 C -0.11560 0.33108 0.11563
 C314 C -0.10061 0.36182 0.10033
 C315 C -0.08777 0.38809 0.08732
 C316 C -0.15575 0.75242 -0.15665
 C317 C -0.14287 0.72620 -0.14363
 C318 C -0.12785 0.69549 -0.12839
 C319 C -0.11504 0.66923 -0.11540
 C320 C -0.10006 0.63847 -0.10022
 C321 C -0.08725 0.61219 -0.08729
 C322 C 0.15531 0.75152 0.15673
 C323 C 0.14244 0.72533 0.14376
 C324 C 0.12742 0.69465 0.12858
 C325 C 0.11462 0.66843 0.11562
 C326 C 0.09964 0.63771 0.10046
 C327 C 0.08686 0.61147 0.08752
 C328 C 0.24896 1.15649 0.84295
 C329 C 0.27514 1.14351 0.85589
 C330 C 0.30582 1.12835 0.87102
 C331 C 0.33203 1.11542 0.88395
 C332 C 0.36274 1.10031 0.89908
 C333 C 0.38896 1.08743 0.91202
 C334 C 0.24751 0.84381 1.15650
 C335 C 0.27375 0.85678 1.14348
 C336 C 0.30449 0.87194 1.12827
 C337 C 0.33076 0.88487 1.11531
 C338 C 0.36155 0.90000 1.10017
 C339 C 0.38786 0.91291 1.08726
 C340 C 0.75147 1.15571 1.15727
 C341 C 0.72531 1.14283 1.14423
 C342 C 0.69466 1.12781 1.12895
 C343 C 0.66846 1.11502 1.11591
 C344 C 0.63777 1.10006 1.10065
 C345 C 0.61156 1.08727 1.08764
 C346 C 0.75283 0.84311 0.84427
 C347 C 0.72660 0.85614 0.85722
 C348 C 0.69587 0.87142 0.87229
 C349 C 0.66960 0.88447 0.88511
 C350 C 0.63882 0.89972 0.90010
 C351 C 0.61252 0.91272 0.91290
   
