data_POSCAR
  _audit_creation_date              2014-09-24
  _audit_creation_method            'ToBaCCo'
  _symmetry_space_group_name_H-M    'P1'
  _symmetry_Int_Tables_number       1
  _symmetry_cell_setting            triclinic
  loop_
  _symmetry_equiv_pos_as_xyz
 x,y,z
_cell_length_a 19.0967
_cell_length_b 19.6604
_cell_length_c 31.7564
_cell_angle_alpha 96.091500
_cell_angle_beta 90.756200
_cell_angle_gamma 97.966300
loop_
  _atom_site_label
  _atom_site_type_symbol
  _atom_site_fract_x
  _atom_site_fract_y
  _atom_site_fract_z
C1 C 0.09074 0.33378 1.01446
 C2 C 0.07384 0.34739 1.05608
 C3 C 0.02711 0.39576 1.05731
 N4 N 0.01589 0.41257 1.01774
 C5 C 0.05517 0.37520 0.99162
 C6 C -0.00495 0.42377 1.09407
 C7 C -0.04521 0.47897 1.09248
 C8 C -0.09829 0.49317 1.12008
 C9 C -0.11804 0.55470 1.11128
 C10 C -0.07829 0.57563 1.07747
 N11 N -0.03447 0.52863 1.06596
 C12 C -0.07548 0.64055 1.06158
 C13 C -0.04974 0.65178 1.02109
 C14 C -0.04516 0.71377 1.00347
 C15 C -0.03108 0.69944 0.96148
 C16 C -0.02667 0.62922 0.95480
 N17 N -0.03863 0.60047 0.99125
 C18 C -0.02077 0.59089 0.91505
 C19 C -0.00539 0.52179 0.91078
 C20 C -0.00347 0.48062 0.87257
 C21 C 0.01802 0.41975 0.88168
 C22 C 0.02875 0.42500 0.92521
 N23 N 0.01526 0.48752 0.94262
 C24 C 0.05653 0.37533 0.94717
 H25 H 0.12594 0.29802 1.00253
 H26 H 0.09506 0.32477 1.08217
 H27 H 0.02717 0.50797 0.97379
 H28 H -0.11987 0.46300 1.14467
 H29 H -0.15639 0.58092 1.12876
 H30 H -0.05470 0.76348 1.01859
 H31 H -0.02668 0.73679 0.93872
 H32 H 0.02630 0.37712 0.85867
 H33 H 0.00744 0.53512 1.04543
 H34 H -0.01391 0.49348 0.84104
 C35 C 0.31351 -0.03923 0.43363
 C36 C 0.29155 -0.04934 0.47377
 C37 C 0.34918 -0.02550 0.50091
 N38 N 0.40506 -0.00015 0.47884
 C39 C 0.38375 -0.00912 0.43763
 C40 C 0.34902 -0.02282 0.54548
 C41 C 0.41083 0.00066 0.57045
 C42 C 0.41284 0.03107 0.61185
 C43 C 0.48214 0.03806 0.62602
 C44 C 0.52007 0.00879 0.59348
 N45 N 0.47629 -0.01193 0.55925
 C46 C 0.59157 -0.00356 0.59642
 C47 C 0.63112 -0.01396 0.55928
 C48 C 0.69299 -0.04382 0.55642
 C49 C 0.71349 -0.04381 0.51527
 C50 C 0.66296 -0.01535 0.49392
 N51 N 0.61316 0.00364 0.52093
 C52 C 0.66479 -0.00429 0.45068
 C53 C 0.60907 0.02038 0.43029
 C54 C 0.61438 0.05302 0.39366
 C55 C 0.54643 0.05821 0.38073
 C56 C 0.50145 0.02657 0.40909
 N57 N 0.54033 0.00509 0.43970
 C58 C 0.42696 0.01107 0.40401
 H59 H 0.28141 -0.05352 0.40491
 H60 H 0.23886 -0.07089 0.48188
 H61 H 0.52147 -0.02775 0.46192
 H62 H 0.36928 0.04707 0.62997
 H63 H 0.50186 0.06144 0.65704
 H64 H 0.71998 -0.06574 0.58070
 H65 H 0.76036 -0.06282 0.50276
 H66 H 0.53204 0.08088 0.35284
 H67 H 0.48790 -0.04190 0.53184
 H68 H 0.66193 0.07046 0.37750
 C69 C 0.16667 0.04529 0.24057
 H70 H 0.15755 0.04844 0.20719
 C71 C 0.23458 0.04028 0.25589
 H72 H 0.27748 0.03963 0.23400
 C73 C 0.12180 0.04306 0.30968
 H74 H 0.07801 0.04494 0.33073
 C75 C 0.18874 0.03905 0.32638
 H76 H 0.19537 0.03658 0.36009
 N77 N 0.11153 0.04415 0.26730
 C78 C -0.07827 -0.03634 0.19021
 H79 H -0.11158 0.00105 0.20240
 C80 C -0.10717 -0.09391 0.16290
 H81 H -0.16265 -0.09996 0.15373
 C82 C 0.03406 -0.07478 0.18892
 H83 H 0.08829 -0.06866 0.20031
 C84 C 0.00755 -0.13264 0.16101
 H85 H 0.04207 -0.17016 0.15082
 Zn86 Zn 0.01859 0.04522 0.24593
 N87 N -0.00913 -0.02829 0.20309
 C88 C 0.00096 0.13263 0.18275
 N89 N 0.01482 0.13057 0.22468
 C90 C 0.02958 0.18941 0.25167
 C91 C 0.02901 0.25376 0.23694
 C92 C 0.00021 0.19583 0.16662
 C93 C -0.04796 -0.03304 0.30369
 C94 C -0.09574 -0.05358 0.33410
 C95 C -0.13984 0.05598 0.33506
 C96 C -0.09071 0.07463 0.30445
 N97 N -0.04609 0.02996 0.28954
 H98 H -0.00889 0.08530 0.16163
 H99 H 0.04187 0.18622 0.28470
 H100 H 0.04099 0.29974 0.25910
 H101 H -0.01132 0.19643 0.13319
 H102 H -0.01224 -0.06768 0.29094
 H103 H -0.09521 -0.10390 0.34476
 H104 H -0.17570 0.09155 0.34635
 H105 H -0.08921 0.12398 0.29216
 C106 C -0.06428 -0.14350 0.14858
 C107 C 0.24579 0.03590 0.29928
 C108 C -0.14321 -0.00923 0.34990
 C109 C 0.01378 0.25744 0.19385
 C110 C 0.10103 0.08121 0.79586
 H111 H 0.13705 0.06166 0.77318
 C112 C 0.12415 0.14038 0.82365
 H113 H 0.17765 0.16601 0.82146
 C114 C -0.01231 0.07184 0.82581
 H115 H -0.06544 0.04517 0.82670
 C116 C 0.00835 0.13110 0.85385
 H117 H -0.02938 0.14926 0.87601
 N118 N 0.03342 0.04877 0.79694
 C119 C 0.08878 -0.09969 0.70349
 H120 H 0.07102 -0.14163 0.72181
 C121 C 0.13440 -0.11082 0.67041
 H122 H 0.15104 -0.16125 0.66394
 C123 C 0.09001 0.01669 0.69008
 H124 H 0.07208 0.06623 0.69787
 C125 C 0.13707 0.00810 0.65706
 H126 H 0.15504 0.05106 0.63936
 Zn127 Zn 0.00008 -0.02768 0.75634
 N128 N 0.06631 -0.03715 0.71230
 C129 C -0.09736 0.00059 0.69323
 N130 N -0.08937 -0.01558 0.73347
 C131 C -0.14634 -0.02856 0.75814
 C132 C -0.21442 -0.02534 0.74277
 C133 C -0.16469 0.00427 0.67652
 C134 C 0.01657 -0.11591 0.82066
 C135 C 0.00703 -0.17899 0.83804
 C136 C -0.06506 -0.22940 0.77648
 C137 C -0.05398 -0.16572 0.76030
 N138 N -0.01372 -0.11066 0.78237
 H139 H -0.05186 0.00953 0.67373
 H140 H -0.13923 -0.04374 0.78947
 H141 H -0.25842 -0.03666 0.76315
 H142 H -0.17002 0.01631 0.64423
 H143 H 0.04867 -0.07144 0.83750
 H144 H 0.03140 -0.18245 0.86858
 H145 H -0.09665 -0.27236 0.75792
 H146 H -0.07687 -0.16021 0.72971
 C147 C 0.15854 -0.05680 0.64644
 C148 C 0.07713 0.16657 0.85278
 C149 C -0.03446 -0.23670 0.81592
 C150 C -0.22445 -0.00939 0.70123
 C151 C -0.09826 -0.30407 0.08663
 C152 C -0.16643 -0.30140 0.09989
 C153 C -0.16390 -0.23909 0.12362
 C154 C -0.09427 -0.20851 0.12314
 O155 O -0.05467 -0.24763 0.10033
 H156 H -0.21247 -0.33993 0.09282
 H157 H -0.20717 -0.21960 0.14041
 C158 C 0.00189 0.39581 0.13301
 C159 C 0.00418 0.43308 0.17267
 C160 C 0.01003 0.38682 0.20100
 C161 C 0.01109 0.32434 0.17687
 O162 O 0.00663 0.32988 0.13574
 H163 H 0.00311 0.48792 0.18019
 H164 H 0.01230 0.39780 0.23512
 C165 C 0.28507 -0.05323 0.56651
 C166 C 0.25607 -0.12161 0.55797
 C167 C 0.20398 -0.13175 0.58630
 C168 C 0.20509 -0.06884 0.61037
 O169 O 0.25442 -0.02095 0.59844
 H170 H 0.27247 -0.15992 0.53454
 H171 H 0.16970 -0.17956 0.58925
 C172 C -0.37612 -0.00754 0.63649
 C173 C -0.41082 -0.02799 0.67206
 C174 C -0.35923 -0.02928 0.70187
 C175 C -0.29626 -0.01002 0.68260
 O176 O -0.30664 0.00321 0.64320
 H177 H -0.46665 -0.04481 0.67538
 H178 H -0.36728 -0.04543 0.73314
 C179 C -0.03900 -0.37766 0.87651
 C180 C -0.09460 -0.40521 0.84899
 C181 C -0.09912 -0.35737 0.82145
 C182 C -0.04641 -0.30335 0.83445
 O183 O -0.01002 -0.31571 0.86792
 H184 H -0.12948 -0.45331 0.85001
 H185 H -0.13845 -0.36064 0.79624
 C186 C 0.08846 0.32040 0.92201
 C187 C 0.15996 0.32190 0.91632
 C188 C 0.16618 0.26391 0.88977
 C189 C 0.09773 0.23136 0.88119
 O190 O 0.05056 0.26585 0.90083
 H191 H 0.20221 0.36097 0.92967
 H192 H 0.21492 0.24766 0.87824
 C193 C -0.27812 -0.02825 0.42434
 C194 C -0.26650 -0.09616 0.41897
 C195 C -0.21355 -0.09826 0.39097
 C196 C -0.19689 -0.03131 0.38082
 O197 O -0.23668 0.01119 0.40088
 H198 H -0.29451 -0.13926 0.43323
 H199 H -0.19162 -0.14397 0.37877
 C200 C 0.39268 0.01418 0.36199
 C201 C 0.41783 -0.00951 0.32336
 C202 C 0.36778 -0.00147 0.29397
 C203 C 0.31518 0.02564 0.31683
 O204 O 0.33030 0.03504 0.35797
 H205 H 0.46559 -0.03246 0.31746
 H206 H 0.36816 -0.01699 0.26027
   
