data_POSCAR
  _audit_creation_date              2014-09-24
  _audit_creation_method            'ToBaCCo'
  _symmetry_space_group_name_H-M    'P1'
  _symmetry_Int_Tables_number       1
  _symmetry_cell_setting            triclinic
  loop_
  _symmetry_equiv_pos_as_xyz
 x,y,z
_cell_length_a 28.0241
_cell_length_b 32.9365
_cell_length_c 28.7371
_cell_angle_alpha 90.040800
_cell_angle_beta 89.900600
_cell_angle_gamma 89.963100
loop_
  _atom_site_label
  _atom_site_type_symbol
  _atom_site_fract_x
  _atom_site_fract_y
  _atom_site_fract_z
C1 C 0.28345 0.29393 0.21555
 C2 C 0.25374 0.27285 0.24646
 C3 C 0.22424 0.29427 0.27724
 C4 C 0.22431 0.33691 0.27772
 C5 C 0.25510 0.35776 0.24731
 C6 C 0.28464 0.33656 0.21602
 C7 C 0.25331 0.22823 0.24691
 C8 C 0.28216 0.20701 0.27838
 C9 C 0.28066 0.16440 0.28036
 C10 C 0.24963 0.14346 0.25030
 C11 C 0.22023 0.16446 0.21878
 C12 C 0.22252 0.20705 0.21728
 H13 H 0.30616 0.27706 0.19186
 H14 H 0.20117 0.27748 0.30061
 H15 H 0.30547 0.22389 0.30138
 H16 H 0.20008 0.22396 0.19350
 H17 H 0.25558 0.39064 0.24737
 H18 H 0.24803 0.11064 0.25173
 C19 C 0.77591 0.79603 0.22156
 C20 C 0.74770 0.77472 0.25343
 C21 C 0.71905 0.79580 0.28528
 C22 C 0.71696 0.83853 0.28453
 C23 C 0.74528 0.85957 0.25181
 C24 C 0.77566 0.83873 0.22071
 C25 C 0.74813 0.73008 0.25296
 C26 C 0.77812 0.70880 0.28329
 C27 C 0.78033 0.66620 0.28174
 C28 C 0.75156 0.64529 0.24960
 C29 C 0.72124 0.66630 0.21894
 C30 C 0.71993 0.70892 0.22084
 H31 H 0.79821 0.77894 0.19770
 H32 H 0.69762 0.77859 0.30973
 H33 H 0.80006 0.72563 0.30759
 H34 H 0.69718 0.72585 0.19736
 H35 H 0.74440 0.89244 0.25121
 H36 H 0.75303 0.61247 0.24821
 C37 C 0.78399 0.29185 0.71697
 C38 C 0.75385 0.27074 0.74735
 C39 C 0.72383 0.29211 0.77782
 C40 C 0.72321 0.33488 0.77801
 C41 C 0.75307 0.35563 0.74644
 C42 C 0.78360 0.33443 0.71611
 C43 C 0.75340 0.22610 0.74742
 C44 C 0.78314 0.20472 0.77790
 C45 C 0.78048 0.16209 0.78102
 C46 C 0.74734 0.14147 0.75267
 C47 C 0.71859 0.16259 0.72078
 C48 C 0.72182 0.20505 0.71842
 H49 H 0.80710 0.27504 0.69359
 H50 H 0.70109 0.27507 0.80128
 H51 H 0.80745 0.22167 0.79984
 H52 H 0.69914 0.22190 0.69479
 H53 H 0.75334 0.38851 0.74578
 H54 H 0.74482 0.10868 0.75421
 C55 C 0.27641 0.79278 0.72285
 C56 C 0.24652 0.77161 0.75354
 C57 C 0.21644 0.79291 0.78385
 C58 C 0.21670 0.83550 0.78440
 C59 C 0.24717 0.85652 0.75390
 C60 C 0.27699 0.83556 0.72240
 C61 C 0.24682 0.72698 0.75364
 C62 C 0.27778 0.70584 0.78326
 C63 C 0.28059 0.66329 0.78126
 C64 C 0.25181 0.64222 0.74933
 C65 C 0.21969 0.66309 0.72045
 C66 C 0.21744 0.70561 0.72282
 H67 H 0.29907 0.77557 0.69943
 H68 H 0.19338 0.77624 0.80735
 H69 H 0.30035 0.72266 0.80702
 H70 H 0.19357 0.72225 0.70012
 H71 H 0.24684 0.88941 0.75432
 H72 H 0.25350 0.60938 0.74783
 C73 C 0.03045 0.07499 0.04339
 H74 H 0.00521 0.09060 0.02141
 C75 C 0.06015 0.09747 0.07276
 H76 H 0.05776 0.13028 0.07248
 C77 C 0.06328 0.01346 0.07156
 H78 H 0.06421 -0.01938 0.07079
 C79 C 0.09347 0.03464 0.10145
 H80 H 0.11754 0.01771 0.12357
 N81 N 0.03329 0.03375 0.04263
 C82 C 0.01741 -0.06075 -0.06243
 H83 H -0.02060 -0.06637 -0.06123
 C84 C 0.04655 -0.08413 -0.09151
 H85 H 0.03073 -0.10787 -0.11250
 C86 C 0.08400 -0.02217 -0.03754
 H87 H 0.09839 0.00249 -0.01714
 C88 C 0.11421 -0.04420 -0.06678
 H89 H 0.15180 -0.03665 -0.06792
 Zn90 Zn -0.00396 0.00070 0.00280
 N91 N 0.03663 -0.03100 -0.03549
 C92 C -0.09028 0.02151 -0.04128
 N93 N -0.04350 0.03184 -0.03688
 C94 C -0.02422 0.06244 -0.06253
 C95 C -0.05290 0.08537 -0.09235
 C96 C -0.11987 0.04285 -0.07164
 C97 C -0.03928 -0.07320 0.04307
 C98 C -0.06927 -0.09556 0.07233
 C99 C -0.10388 -0.03267 0.09960
 C100 C -0.07335 -0.01160 0.06985
 N101 N -0.04240 -0.03200 0.04187
 H102 H -0.10458 -0.00382 -0.02190
 H103 H 0.01345 0.06911 -0.05969
 H104 H -0.03721 0.10992 -0.11219
 H105 H -0.15700 0.03418 -0.07477
 H106 H -0.01348 -0.08885 0.02162
 H107 H -0.06645 -0.12834 0.07261
 H108 H -0.12852 -0.01567 0.12117
 H109 H -0.07458 0.02122 0.06862
 C110 C 0.09561 -0.07581 -0.09399
 C111 C 0.09257 0.07727 0.10198
 C112 C -0.10234 -0.07527 0.10093
 C113 C -0.10131 0.07545 -0.09722
 C114 C 0.02265 0.56006 0.56484
 H115 H -0.01543 0.56536 0.56369
 C116 C 0.05125 0.58296 0.59477
 H117 H 0.03494 0.60602 0.61647
 C118 C 0.08996 0.52276 0.53885
 H119 H 0.10485 0.49881 0.51765
 C120 C 0.11966 0.54433 0.56890
 H121 H 0.15736 0.53715 0.56985
 N122 N 0.04248 0.53121 0.53696
 C123 C 0.03761 0.42653 0.45661
 H124 H 0.01240 0.41089 0.47866
 C125 C 0.06719 0.40413 0.42696
 H126 H 0.06469 0.37133 0.42702
 C127 C 0.07060 0.48813 0.42875
 H128 H 0.07156 0.52095 0.42973
 C129 C 0.10074 0.46701 0.39862
 H130 H 0.12484 0.48397 0.37649
 Zn131 Zn 0.00260 0.50029 0.49739
 N132 N 0.04046 0.46775 0.45754
 C133 C -0.06444 0.51384 0.42869
 N134 N -0.03500 0.53377 0.45846
 C135 C -0.03281 0.57503 0.45907
 C136 C -0.06242 0.59788 0.42998
 C137 C -0.09452 0.53539 0.39907
 C138 C -0.01806 0.43882 0.56271
 C139 C -0.04696 0.41524 0.59173
 C140 C -0.11510 0.45449 0.56670
 C141 C -0.08511 0.47673 0.53753
 N142 N -0.03761 0.46835 0.53568
 H143 H -0.06491 0.48099 0.42847
 H144 H -0.00817 0.59036 0.48194
 H145 H -0.06050 0.63069 0.43126
 H146 H -0.11806 0.51872 0.37614
 H147 H 0.02003 0.43354 0.56161
 H148 H -0.03088 0.39171 0.61283
 H149 H -0.15279 0.46169 0.56769
 H150 H -0.09980 0.50117 0.51702
 C151 C 0.09960 0.42439 0.39770
 C152 C 0.10042 0.57507 0.59707
 C153 C -0.09614 0.42313 0.59405
 C154 C -0.09411 0.57803 0.39970
 C155 C 0.56307 0.05960 0.52508
 H156 H 0.56215 0.06538 0.48804
 C157 C 0.59272 0.08278 0.55377
 H158 H 0.61445 0.10649 0.53853
 C159 C 0.53679 0.02093 0.58970
 H160 H 0.51564 -0.00367 0.60354
 C161 C 0.56654 0.04281 0.61944
 H162 H 0.56726 0.03516 0.65608
 N163 N 0.53512 0.02991 0.54353
 C164 C 0.56186 -0.06364 0.48187
 H165 H 0.55908 -0.07107 0.51843
 C166 C 0.59187 -0.08641 0.45293
 H167 H 0.61187 -0.11158 0.46731
 C168 C 0.54038 -0.02108 0.41884
 H169 H 0.52086 0.00479 0.40576
 C170 C 0.57094 -0.04223 0.38908
 H171 H 0.57401 -0.03283 0.35309
 Zn172 Zn 0.49555 -0.00124 0.50365
 N173 N 0.53594 -0.03228 0.46420
 C174 C 0.42664 0.01219 0.43656
 N175 N 0.45565 0.03218 0.46670
 C176 C 0.45518 0.07342 0.46964
 C177 C 0.42589 0.09621 0.44014
 C178 C 0.39684 0.03369 0.40657
 C179 C 0.45347 -0.07565 0.53672
 C180 C 0.42344 -0.09821 0.56580
 C181 C 0.39453 -0.03548 0.59913
 C182 C 0.42503 -0.01422 0.56952
 N183 N 0.45448 -0.03443 0.53985
 H184 H 0.42730 -0.02064 0.43538
 H185 H 0.47743 0.08877 0.49472
 H186 H 0.42641 0.12900 0.44263
 H187 H 0.37464 0.01698 0.38244
 H188 H 0.47580 -0.09120 0.51179
 H189 H 0.42361 -0.13100 0.56323
 H190 H 0.37209 -0.01860 0.62298
 H191 H 0.42597 0.01860 0.57072
 C192 C 0.59672 -0.07559 0.40595
 C193 C 0.59473 0.07440 0.60163
 C194 C 0.39382 -0.07811 0.59795
 C195 C 0.39651 0.07632 0.40773
 C196 C 0.54600 0.57491 0.03055
 H197 H 0.52273 0.59020 0.00634
 C198 C 0.57555 0.59782 0.05967
 H199 H 0.57419 0.63063 0.05779
 C200 C 0.57680 0.51378 0.06186
 H201 H 0.57691 0.48093 0.06251
 C202 C 0.60689 0.53540 0.09145
 H203 H 0.63008 0.51877 0.11474
 N204 N 0.54647 0.53364 0.03287
 C205 C 0.54658 0.42547 -0.03732
 H206 H 0.52377 0.41017 -0.01263
 C207 C 0.57630 0.40258 -0.06643
 H208 H 0.57551 0.36979 -0.06406
 C209 C 0.57620 0.48661 -0.06969
 H210 H 0.57586 0.51944 -0.07069
 C211 C 0.60640 0.46501 -0.09934
 H212 H 0.62921 0.48164 -0.12303
 Zn213 Zn 0.50603 0.50010 -0.00342
 N214 N 0.54642 0.46671 -0.04012
 C215 C 0.46391 0.52231 -0.08898
 N216 N 0.46577 0.53112 -0.04275
 C217 C 0.43753 0.56048 -0.02393
 C218 C 0.40736 0.58351 -0.05226
 C219 C 0.43363 0.54400 -0.11837
 C220 C 0.43836 0.43921 0.01814
 C221 C 0.40868 0.41612 0.04698
 C222 C 0.43497 0.45623 0.11248
 C223 C 0.46478 0.47796 0.08262
 N224 N 0.46639 0.46890 0.03645
 H225 H 0.48534 0.49798 -0.10313
 H226 H 0.43861 0.56613 0.01315
 H227 H 0.38540 0.60697 -0.03675
 H228 H 0.43277 0.53649 -0.15505
 H229 H 0.43923 0.43337 -0.01890
 H230 H 0.38688 0.39240 0.03189
 H231 H 0.43430 0.46395 0.14911
 H232 H 0.48603 0.50252 0.09637
 C233 C 0.60641 0.42237 -0.09834
 C234 C 0.60616 0.57804 0.09106
 C235 C 0.40670 0.42465 0.09482
 C236 C 0.40513 0.57526 -0.10016
 N237 N 0.19712 -0.10372 -0.16943
 C238 C 0.18527 -0.14178 -0.18344
 N239 N 0.14380 -0.15821 -0.16776
 N240 N 0.11519 -0.13727 -0.13945
 C241 C 0.12715 -0.09923 -0.12537
 N242 N 0.16875 -0.08296 -0.14082
 N243 N 0.16118 0.33974 0.33789
 C244 C 0.19204 0.35961 0.30938
 N245 N 0.19226 0.40084 0.31008
 N246 N 0.16294 0.42130 0.33806
 C247 C 0.13205 0.40145 0.36651
 N248 N 0.13183 0.36022 0.36588
 N249 N 0.68041 -0.09935 0.31068
 C250 C 0.68711 -0.14002 0.31554
 N251 N 0.66404 -0.15932 0.35088
 N252 N 0.63578 -0.13887 0.38001
 C253 C 0.62893 -0.09832 0.37465
 N254 N 0.65173 -0.07901 0.33937
 N255 N 0.66498 0.33702 -0.16003
 C256 C 0.69374 0.35660 -0.19090
 N257 N 0.69357 0.39787 -0.19082
 N258 N 0.66603 0.41858 -0.16141
 C259 C 0.63736 0.39901 -0.13063
 N260 N 0.63739 0.35776 -0.13057
 N261 N -0.19643 0.10008 -0.18094
 C262 C -0.18979 0.14047 -0.18826
 N263 N -0.15357 0.15929 -0.16534
 N264 N -0.12517 0.13864 -0.13670
 C265 C -0.13220 0.09838 -0.12932
 N266 N -0.16847 0.07954 -0.15188
 N267 N -0.15741 0.66318 0.34270
 C268 C -0.18704 0.64346 0.31289
 N269 N -0.18580 0.60226 0.31182
 N270 N -0.15631 0.58164 0.33930
 C271 C -0.12665 0.60129 0.36906
 N272 N -0.12784 0.64252 0.37022
 N273 N 0.33981 0.16143 0.34428
 C274 C 0.31088 0.14168 0.31384
 N275 N 0.31010 0.10046 0.31475
 N276 N 0.33710 0.07988 0.34462
 C277 C 0.36604 0.09956 0.37502
 N278 N 0.36683 0.14081 0.37423
 N279 N 0.32909 0.60312 -0.19992
 C280 C 0.31344 0.64072 -0.18788
 N281 N 0.32813 0.65683 -0.14679
 N282 N 0.35710 0.63605 -0.11879
 C283 C 0.37284 0.59847 -0.13095
 N284 N 0.35834 0.58251 -0.17214
 N285 N -0.16401 -0.15971 0.16080
 C286 C -0.19434 -0.13979 0.18995
 N287 N -0.19427 -0.09853 0.18929
 N288 N -0.16524 -0.07817 0.16100
 C289 C -0.13484 -0.09811 0.13209
 N290 N -0.13491 -0.13934 0.13251
 N291 N -0.14351 0.34080 0.66824
 C292 C -0.18519 0.35705 0.68373
 N293 N -0.19744 0.39491 0.66942
 N294 N -0.16928 0.41569 0.64071
 C295 C -0.12746 0.39962 0.62546
 N296 N -0.11509 0.36176 0.63982
 N297 N 0.33499 -0.16284 0.66024
 C298 C 0.30639 -0.14298 0.69107
 N299 N 0.30667 -0.10171 0.69072
 N300 N 0.33422 -0.08128 0.66111
 C301 C 0.36274 -0.10113 0.63038
 N302 N 0.36257 -0.14238 0.63058
 N303 N 0.33163 0.34264 0.14348
 C304 C 0.31666 0.35918 0.18431
 N305 N 0.33144 0.39720 0.19546
 N306 N 0.36013 0.41782 0.16709
 C307 C 0.37492 0.40144 0.12616
 N308 N 0.36003 0.36344 0.11486
 N309 N 0.18573 0.10070 0.18876
 C310 C 0.18690 0.14191 0.18815
 N311 N 0.15665 0.16187 0.15916
 N312 N 0.12659 0.14146 0.13193
 C313 C 0.12549 0.10022 0.13257
 N314 N 0.15573 0.08031 0.16154
 N315 N 0.20151 0.60294 0.67272
 C316 C 0.18872 0.64043 0.68797
 N317 N 0.14671 0.65643 0.67315
 N318 N 0.11853 0.63565 0.64442
 C319 C 0.13144 0.59820 0.62906
 N320 N 0.17355 0.58233 0.64369
 N321 N 0.66972 0.10260 0.70206
 C322 C 0.68554 0.14011 0.69000
 N323 N 0.67119 0.15609 0.64875
 N324 N 0.64241 0.13527 0.62060
 C325 C 0.62655 0.09776 0.63275
 N326 N 0.64066 0.08194 0.67413
 N327 N 0.69287 0.60239 0.18368
 C328 C 0.69145 0.64358 0.18508
 N329 N 0.66210 0.66328 0.15499
 N330 N 0.63525 0.64261 0.12493
 C331 C 0.63665 0.60137 0.12367
 N332 N 0.66606 0.58176 0.15368
   
