data_POSCAR
  _audit_creation_date              2014-09-24
  _audit_creation_method            'ToBaCCo'
  _symmetry_space_group_name_H-M    'P1'
  _symmetry_Int_Tables_number       1
  _symmetry_cell_setting            triclinic
  loop_
  _symmetry_equiv_pos_as_xyz
 x,y,z
_cell_length_a 48.7932
_cell_length_b 48.8016
_cell_length_c 48.9731
_cell_angle_alpha 89.893000
_cell_angle_beta 90.097200
_cell_angle_gamma 89.950800
loop_
  _atom_site_label
  _atom_site_type_symbol
  _atom_site_fract_x
  _atom_site_fract_y
  _atom_site_fract_z
N1 N 0.15447 0.22541 0.22253
 N2 N 0.15939 0.20384 0.23787
 C3 C 0.13998 0.20213 0.25732
 C4 C 0.12183 0.22379 0.25401
 C5 C 0.13181 0.23813 0.23168
 H6 H 0.13888 0.18600 0.27242
 H7 H 0.12320 0.25636 0.22252
 Cu8 Cu 0.19024 0.17975 0.23020
 Cu9 Cu 0.17715 0.23497 0.19124
 Cu10 Cu 0.23255 0.19258 0.17770
 N11 N 0.22157 0.15626 0.22263
 N12 N 0.23802 0.16147 0.20207
 C13 C 0.25750 0.14199 0.20092
 C14 C 0.25312 0.12339 0.22190
 C15 C 0.23007 0.13323 0.23528
 H16 H 0.27339 0.14127 0.18560
 H17 H 0.22005 0.12421 0.25277
 N18 N 0.22357 0.22505 0.15541
 N19 N 0.20249 0.24117 0.16054
 C20 C 0.20137 0.26092 0.14133
 C21 C 0.22276 0.25710 0.12313
 C22 C 0.23640 0.23413 0.13283
 H23 H 0.18576 0.27659 0.14040
 H24 H 0.25420 0.22448 0.12397
 H25 H 0.19064 0.19570 0.18299
 H26 H 0.21265 0.21703 0.20578
 N27 N 0.65637 0.72662 0.72391
 N28 N 0.66142 0.70507 0.73923
 C29 C 0.64225 0.70345 0.75893
 C30 C 0.62412 0.72516 0.75579
 C31 C 0.63388 0.73943 0.73330
 H32 H 0.64124 0.68733 0.77403
 H33 H 0.62516 0.75762 0.72416
 Cu34 Cu 0.69198 0.68079 0.73116
 Cu35 Cu 0.67863 0.73593 0.69221
 Cu36 Cu 0.73346 0.69301 0.67789
 N37 N 0.72292 0.65695 0.72315
 N38 N 0.73905 0.66190 0.70228
 C39 C 0.75830 0.64222 0.70087
 C40 C 0.75409 0.62376 0.72202
 C41 C 0.73140 0.63389 0.73575
 H42 H 0.77390 0.64126 0.68528
 H43 H 0.72161 0.62506 0.75346
 N44 N 0.72440 0.72550 0.65567
 N45 N 0.70355 0.74183 0.66109
 C46 C 0.70233 0.76157 0.64188
 C47 C 0.72341 0.75754 0.62337
 C48 C 0.73697 0.73445 0.63290
 H49 H 0.68688 0.77742 0.64119
 H50 H 0.75455 0.72462 0.62378
 H51 H 0.69166 0.69653 0.68388
 H52 H 0.71424 0.71778 0.70617
 N53 N 0.34364 0.77435 0.72346
 N54 N 0.33869 0.79597 0.73861
 C55 C 0.35799 0.79770 0.75823
 C56 C 0.37610 0.77599 0.75523
 C57 C 0.36622 0.76160 0.73289
 H58 H 0.35905 0.81387 0.77322
 H59 H 0.37487 0.74334 0.72391
 Cu60 Cu 0.30797 0.82013 0.73058
 Cu61 Cu 0.32108 0.76481 0.69203
 Cu62 Cu 0.26572 0.80723 0.67795
 N63 N 0.27673 0.84367 0.72267
 N64 N 0.26019 0.83837 0.70218
 C65 C 0.24070 0.85785 0.70091
 C66 C 0.24521 0.87665 0.72174
 C67 C 0.26836 0.86676 0.73513
 H68 H 0.22475 0.85835 0.68560
 H69 H 0.27860 0.87572 0.75252
 N70 N 0.27478 0.77474 0.65583
 N71 N 0.29586 0.75864 0.66116
 C72 C 0.29715 0.73895 0.64198
 C73 C 0.27587 0.74277 0.62358
 C74 C 0.26211 0.76569 0.63313
 H75 H 0.31282 0.72334 0.64120
 H76 H 0.24437 0.77535 0.62406
 H77 H 0.30761 0.80408 0.68346
 H78 H 0.28555 0.78281 0.70626
 N79 N 0.83891 0.26958 0.22746
 N80 N 0.83326 0.29055 0.24322
 C81 C 0.85356 0.29369 0.26158
 C82 C 0.87318 0.27346 0.25719
 C83 C 0.86296 0.25854 0.23524
 H84 H 0.85385 0.30965 0.27684
 H85 H 0.87205 0.24090 0.22551
 Cu86 Cu 0.79977 0.31163 0.23843
 Cu87 Cu 0.81427 0.25774 0.19853
 Cu88 Cu 0.76625 0.30624 0.17856
 N89 N 0.77290 0.33870 0.22700
 N90 N 0.76014 0.33669 0.20345
 C91 C 0.74290 0.35802 0.20059
 C92 C 0.74496 0.37443 0.22356
 C93 C 0.76430 0.36148 0.23989
 H94 H 0.72995 0.36135 0.18297
 H95 H 0.77152 0.36797 0.25973
 N96 N 0.77523 0.27371 0.15652
 N97 N 0.79310 0.25500 0.16439
 C98 C 0.79442 0.23523 0.14531
 C99 C 0.77641 0.24170 0.12433
 C100 C 0.76463 0.26629 0.13225
 H101 H 0.80763 0.21750 0.14666
 H102 H 0.74948 0.27804 0.12117
 H103 H 0.80614 0.29821 0.19113
 H104 H 0.77790 0.27846 0.20753
 N105 N 0.84385 0.72671 0.27562
 N106 N 0.83881 0.70518 0.26037
 C107 C 0.85796 0.70356 0.24066
 C108 C 0.87606 0.72526 0.24370
 C109 C 0.86632 0.73952 0.26616
 H110 H 0.85896 0.68745 0.22560
 H111 H 0.87502 0.75770 0.27523
 Cu112 Cu 0.80827 0.68092 0.26856
 Cu113 Cu 0.82161 0.73603 0.30730
 Cu114 Cu 0.76685 0.69313 0.32183
 N115 N 0.77738 0.65708 0.27668
 N116 N 0.76127 0.66203 0.29756
 C117 C 0.74205 0.64234 0.29905
 C118 C 0.74626 0.62389 0.27796
 C119 C 0.76893 0.63402 0.26417
 H120 H 0.72646 0.64138 0.31466
 H121 H 0.77871 0.62520 0.24648
 N122 N 0.77589 0.72562 0.34393
 N123 N 0.79671 0.74193 0.33843
 C124 C 0.79795 0.76167 0.35758
 C125 C 0.77689 0.75765 0.37613
 C126 C 0.76334 0.73457 0.36669
 H127 H 0.81338 0.77750 0.35819
 H128 H 0.74579 0.72475 0.37586
 H129 H 0.80862 0.69664 0.31578
 H130 H 0.78599 0.71791 0.29345
 N131 N 0.34488 0.22514 -0.22337
 N132 N 0.33939 0.20412 -0.23915
 C133 C 0.35859 0.20249 -0.25882
 C134 C 0.37734 0.22363 -0.25517
 C135 C 0.36774 0.23757 -0.23236
 H136 H 0.35904 0.18674 -0.27427
 H137 H 0.37669 0.25533 -0.22271
 Cu138 Cu 0.30826 0.18042 -0.23149
 Cu139 Cu 0.32244 0.23457 -0.19186
 Cu140 Cu 0.26665 0.19261 -0.17840
 N141 N 0.27702 0.15687 -0.22386
 N142 N 0.26085 0.16180 -0.20302
 C143 C 0.24147 0.14225 -0.20175
 C144 C 0.24565 0.12390 -0.22293
 C145 C 0.26846 0.13395 -0.23655
 H146 H 0.22584 0.14128 -0.18619
 H147 H 0.27831 0.12512 -0.25420
 N148 N 0.27602 0.22478 -0.15592
 N149 N 0.29726 0.24069 -0.16100
 C150 C 0.29855 0.26035 -0.14178
 C151 C 0.27710 0.25670 -0.12361
 C152 C 0.26326 0.23392 -0.13334
 H153 H 0.31426 0.27590 -0.14086
 H154 H 0.24531 0.22448 -0.12455
 H155 H 0.30850 0.19535 -0.18403
 H156 H 0.28651 0.21744 -0.20619
 N157 N 0.65575 0.27347 -0.22374
 N158 N 0.66197 0.29365 -0.24035
 C159 C 0.64267 0.29541 -0.25996
 C160 C 0.62312 0.27518 -0.25546
 C161 C 0.63233 0.26167 -0.23217
 H162 H 0.64278 0.31060 -0.27602
 H163 H 0.62274 0.24465 -0.22181
 Cu164 Cu 0.69415 0.31649 -0.23453
 Cu165 Cu 0.67807 0.26430 -0.19210
 Cu166 Cu 0.73370 0.30602 -0.17880
 N167 N 0.72444 0.34071 -0.22524
 N168 N 0.73976 0.33655 -0.20356
 C169 C 0.75860 0.35659 -0.20180
 C170 C 0.75494 0.37445 -0.22355
 C171 C 0.73301 0.36362 -0.23800
 H172 H 0.77350 0.35823 -0.18554
 H173 H 0.72377 0.37187 -0.25632
 N174 N 0.72432 0.27412 -0.15605
 N175 N 0.70308 0.25822 -0.16108
 C176 C 0.70174 0.23866 -0.14168
 C177 C 0.72319 0.24239 -0.12346
 C178 C 0.73707 0.26510 -0.13335
 H179 H 0.68603 0.22313 -0.14071
 H180 H 0.75504 0.27456 -0.12459
 H181 H 0.69196 0.30396 -0.18637
 H182 H 0.71448 0.28039 -0.20641
 N183 N 0.15670 0.77394 0.27522
 N184 N 0.16229 0.79492 0.25936
 C185 C 0.14300 0.79671 0.23974
 C186 C 0.12424 0.77569 0.24345
 C187 C 0.13373 0.76166 0.26623
 H188 H 0.14244 0.81246 0.22422
 H189 H 0.12456 0.74396 0.27583
 Cu190 Cu 0.19378 0.81839 0.26627
 Cu191 Cu 0.17904 0.76457 0.30684
 Cu192 Cu 0.23450 0.80659 0.32065
 N193 N 0.22440 0.84236 0.27513
 N194 N 0.24038 0.83747 0.29617
 C195 C 0.25953 0.85722 0.29779
 C196 C 0.25535 0.87580 0.27664
 C197 C 0.23275 0.86551 0.26269
 H198 H 0.27496 0.85809 0.31359
 H199 H 0.22288 0.87420 0.24492
 N200 N 0.22520 0.77439 0.34309
 N201 N 0.20404 0.75843 0.33789
 C202 C 0.20262 0.73885 0.35724
 C203 C 0.22391 0.74262 0.37564
 C204 C 0.23780 0.76538 0.36588
 H205 H 0.18689 0.72332 0.35813
 H206 H 0.25562 0.77492 0.37485
 H207 H 0.19266 0.80408 0.31398
 H208 H 0.21506 0.78160 0.29268
 N209 N 0.47729 0.40690 0.47485
 N210 N 0.45662 0.41280 0.49093
 C211 C 0.45490 0.39358 0.51061
 C212 C 0.47566 0.37454 0.50672
 C213 C 0.48946 0.38380 0.48376
 H214 H 0.43934 0.39324 0.52627
 H215 H 0.50688 0.37435 0.47396
 Cu216 Cu 0.43318 0.44441 0.48422
 Cu217 Cu 0.48634 0.42899 0.44303
 Cu218 Cu 0.44391 0.48403 0.42874
 N219 N 0.40892 0.47470 0.47485
 N220 N 0.41318 0.49006 0.45323
 C221 C 0.39312 0.50892 0.45135
 C222 C 0.37515 0.50521 0.47294
 C223 C 0.38593 0.48324 0.48743
 H224 H 0.39155 0.52387 0.43513
 H225 H 0.37762 0.47399 0.50567
 N226 N 0.47604 0.47469 0.40633
 N227 N 0.49221 0.45371 0.41177
 C228 C 0.51183 0.45231 0.39252
 C229 C 0.50788 0.47343 0.37395
 C230 C 0.48495 0.48719 0.38348
 H231 H 0.52756 0.43675 0.39187
 H232 H 0.47526 0.50490 0.37438
 H233 H 0.46942 0.46523 0.45683
 H234 H 0.44660 0.44235 0.43633
 N235 N -0.01912 -0.08845 0.97706
 N236 N -0.04044 -0.08311 0.99249
 C237 C -0.04367 -0.10355 1.01069
 C238 C -0.02313 -0.12281 1.00655
 C239 C -0.00792 -0.11237 0.98498
 H240 H -0.05985 -0.10426 1.02570
 H241 H 0.01005 -0.12132 0.97568
 Cu242 Cu -0.06168 -0.04975 0.98769
 Cu243 Cu -0.00728 -0.06363 0.94826
 Cu244 Cu -0.05613 -0.01601 0.92801
 N245 N -0.08876 -0.02288 0.97631
 N246 N -0.08668 -0.01003 0.95282
 C247 C -0.10800 0.00724 0.94999
 C248 C -0.12446 0.00509 0.97294
 C249 C -0.11155 -0.01433 0.98921
 H250 H -0.11126 0.02029 0.93244
 H251 H -0.11806 -0.02160 1.00901
 N252 N -0.02347 -0.02483 0.90608
 N253 N -0.00461 -0.04251 0.91406
 C254 C 0.01519 -0.04376 0.89498
 C255 C 0.00858 -0.02590 0.87391
 C256 C -0.01611 -0.01429 0.88176
 H257 H 0.03302 -0.05683 0.89640
 H258 H -0.02798 0.00069 0.87058
 H259 H -0.02843 -0.02748 0.95712
 H260 H -0.04777 -0.05586 0.94051
 N261 N 1.02367 0.59437 0.97324
 N262 N 1.04502 0.58917 0.98878
 C263 C 1.04678 0.60854 1.00827
 C264 C 1.02535 0.62694 1.00478
 C265 C 1.01111 0.61715 0.98230
 H266 H 1.06278 0.60945 1.02350
 H267 H 0.99309 0.62600 0.97295
 Cu268 Cu 1.06894 0.55813 0.98135
 Cu269 Cu 1.01423 0.57188 0.94179
 Cu270 Cu 1.05654 0.51645 0.92820
 N271 N 1.09254 0.52695 0.97348
 N272 N 1.08751 0.51075 0.95269
 C273 C 1.10709 0.49138 0.95139
 C274 C 1.12557 0.49558 0.97251
 C275 C 1.11556 0.51841 0.98612
 H276 H 1.10797 0.47572 0.93585
 H277 H 1.12448 0.52826 1.00375
 N278 N 1.02422 0.52561 0.90580
 N279 N 1.00813 0.54671 0.91093
 C280 C 0.98846 0.54796 0.89163
 C281 C 0.99232 0.52665 0.87336
 C282 C 1.01521 0.51291 0.88312
 H283 H 0.97282 0.56361 0.89070
 H284 H 1.02486 0.49512 0.87423
 H285 H 1.03183 0.53618 0.95621
 H286 H 1.05358 0.55833 0.93394
 N287 N 0.52254 0.09323 0.47504
 N288 N 0.54328 0.08736 0.49114
 C289 C 0.54499 0.10654 0.51081
 C290 C 0.52416 0.12551 0.50688
 C291 C 0.51032 0.11627 0.48392
 H292 H 0.56059 0.10689 0.52647
 H293 H 0.49284 0.12568 0.47410
 Cu294 Cu 0.56682 0.05585 0.48449
 Cu295 Cu 0.51348 0.07120 0.44323
 Cu296 Cu 0.55606 0.01634 0.42907
 N297 N 0.59117 0.02567 0.47517
 N298 N 0.58686 0.01035 0.45358
 C299 C 0.60696 -0.00844 0.45168
 C300 C 0.62501 -0.00474 0.47325
 C301 C 0.61424 0.01716 0.48773
 H302 H 0.60849 -0.02333 0.43547
 H303 H 0.62263 0.02638 0.50595
 N304 N 0.52386 0.02562 0.40663
 N305 N 0.50763 0.04653 0.41198
 C306 C 0.48800 0.04790 0.39267
 C307 C 0.49202 0.02682 0.37415
 C308 C 0.51498 0.01312 0.38379
 H309 H 0.47222 0.06342 0.39193
 H310 H 0.52473 -0.00453 0.37475
 H311 H 0.53054 0.03501 0.45712
 H312 H 0.55323 0.05801 0.43660
 N313 N -0.02330 0.09393 0.52485
 N314 N -0.04393 0.08800 0.50866
 C315 C -0.04567 0.10721 0.48896
 C316 C -0.02497 0.12628 0.49294
 C317 C -0.01118 0.11704 0.51598
 H318 H -0.06119 0.10751 0.47321
 H319 H 0.00619 0.12651 0.52587
 Cu320 Cu -0.06730 0.05637 0.51524
 Cu321 Cu -0.01423 0.07185 0.55671
 Cu322 Cu -0.05654 0.01676 0.57074
 N323 N -0.09152 0.02607 0.52449
 N324 N -0.08721 0.01071 0.54611
 C325 C -0.10720 -0.00817 0.54793
 C326 C -0.12518 -0.00449 0.52629
 C327 C -0.11448 0.01750 0.51183
 H328 H -0.10872 -0.02312 0.56416
 H329 H -0.12284 0.02674 0.49357
 N330 N -0.02449 0.02610 0.59330
 N331 N -0.00836 0.04710 0.58801
 C332 C 0.01123 0.04845 0.60737
 C333 C 0.00728 0.02726 0.62585
 C334 C -0.01560 0.01353 0.61615
 H335 H 0.02694 0.06399 0.60814
 H336 H -0.02526 -0.00422 0.62513
 H337 H -0.03101 0.03563 0.54279
 H338 H -0.05393 0.05847 0.56318
 N339 N 0.47645 0.59371 0.02629
 N340 N 0.45496 0.58866 0.01092
 C341 C 0.45320 0.60799 -0.00867
 C342 C 0.47476 0.62622 -0.00542
 C343 C 0.48908 0.61637 0.01703
 H344 H 0.43710 0.60900 -0.02380
 H345 H 0.50721 0.62511 0.02622
 Cu346 Cu 0.43095 0.55783 0.01878
 Cu347 Cu 0.48593 0.57120 0.05783
 Cu348 Cu 0.44349 0.51592 0.07180
 N349 N 0.40738 0.52665 0.02657
 N350 N 0.41244 0.51034 0.04735
 C351 C 0.39289 0.49096 0.04860
 C352 C 0.37443 0.49528 0.02745
 C353 C 0.38440 0.51817 0.01389
 H354 H 0.39203 0.47520 0.06409
 H355 H 0.37552 0.52810 -0.00376
 N356 N 0.47592 0.52501 0.09410
 N357 N 0.49205 0.54603 0.08879
 C358 C 0.51177 0.54725 0.10801
 C359 C 0.50795 0.52599 0.12642
 C360 C 0.48498 0.51232 0.11683
 H361 H 0.52745 0.56284 0.10880
 H362 H 0.47533 0.49459 0.12586
 H363 H 0.46811 0.53557 0.04366
 H364 H 0.44663 0.55776 0.06608
 N365 N 0.52355 -0.09322 0.02651
 N366 N 0.54506 -0.08814 0.01122
 C367 C 0.54675 -0.10735 -0.00842
 C368 C 0.52513 -0.12552 -0.00530
 C369 C 0.51083 -0.11577 0.01713
 H370 H 0.56286 -0.10833 -0.02348
 H371 H 0.49268 -0.12451 0.02624
 Cu372 Cu 0.56920 -0.05750 0.01931
 Cu373 Cu 0.51419 -0.07091 0.05813
 Cu374 Cu 0.55701 -0.01602 0.07253
 N375 N 0.59303 -0.02660 0.02735
 N376 N 0.58812 -0.01046 0.04821
 C377 C 0.60783 0.00874 0.04964
 C378 C 0.62625 0.00448 0.02853
 C379 C 0.61608 -0.01819 0.01479
 H380 H 0.60882 0.02435 0.06522
 H381 H 0.62486 -0.02801 -0.00290
 N382 N 0.52450 -0.02508 0.09466
 N383 N 0.50823 -0.04594 0.08919
 C384 C 0.48847 -0.04717 0.10831
 C385 C 0.49242 -0.02608 0.12683
 C386 C 0.51550 -0.01250 0.11739
 H387 H 0.47266 -0.06263 0.10893
 H388 H 0.52529 0.00507 0.12655
 H389 H 0.53222 -0.03525 0.04424
 H390 H 0.55358 -0.05779 0.06657
 N391 N 1.02326 0.40681 0.52526
 N392 N 1.04476 0.41187 0.50996
 C393 C 1.04632 0.39276 0.49021
 C394 C 1.02463 0.37466 0.49329
 C395 C 1.01043 0.38436 0.51580
 H396 H 1.06240 0.39178 0.47511
 H397 H 0.99226 0.37565 0.52491
 Cu398 Cu 1.06906 0.44238 0.51814
 Cu399 Cu 1.01405 0.42897 0.55702
 Cu400 Cu 1.05699 0.48368 0.57156
 N401 N 1.09290 0.47327 0.52626
 N402 N 1.08802 0.48933 0.54719
 C403 C 1.10769 0.50857 0.54863
 C404 C 1.12605 0.50443 0.52744
 C405 C 1.11589 0.48178 0.51366
 H406 H 1.10869 0.52412 0.56427
 H407 H 1.12464 0.47206 0.49590
 N408 N 1.02456 0.47456 0.59375
 N409 N 1.00823 0.45376 0.58822
 C410 C 0.98852 0.45247 0.60740
 C411 C 0.99258 0.47346 0.62601
 C412 C 1.01565 0.48704 0.61657
 H413 H 0.97268 0.43704 0.60798
 H414 H 1.02549 0.50455 0.62578
 H415 H 1.03214 0.46462 0.54320
 H416 H 1.05348 0.44194 0.56542
 C417 C 0.34343 -0.02471 0.25535
 C418 C 0.35760 -0.00031 0.25024
 C419 C 0.34308 0.02388 0.24495
 C420 C 0.31428 0.02389 0.24467
 C421 C 0.30025 -0.00078 0.24965
 C422 C 0.31465 -0.02516 0.25503
 C423 C 0.38772 -0.00010 0.25030
 C424 C 0.40210 -0.00473 0.22602
 C425 C 0.43089 -0.00453 0.22581
 C426 C 0.44506 0.00038 0.25035
 C427 C 0.43083 0.00504 0.27485
 C428 C 0.40204 0.00477 0.27460
 H429 H 0.35487 -0.04338 0.25916
 H430 H 0.35428 0.04271 0.24141
 H431 H 0.39078 -0.00816 0.20727
 H432 H 0.39069 0.00801 0.29332
 H433 H 0.27805 -0.00101 0.24936
 H434 H 0.46725 0.00056 0.25037
 C435 C 0.15638 -0.02470 0.74408
 C436 C 0.14202 -0.00044 0.74933
 C437 C 0.15635 0.02384 0.75456
 C438 C 0.18514 0.02408 0.75463
 C439 C 0.19937 -0.00044 0.74946
 C440 C 0.18516 -0.02492 0.74415
 C441 C 0.11191 -0.00046 0.74936
 C442 C 0.09764 -0.00548 0.77364
 C443 C 0.06886 -0.00537 0.77394
 C444 C 0.05457 -0.00023 0.74950
 C445 C 0.06869 0.00477 0.72498
 C446 C 0.09748 0.00463 0.72514
 H447 H 0.14508 -0.04343 0.74033
 H448 H 0.14499 0.04257 0.75821
 H449 H 0.10903 -0.00907 0.79233
 H450 H 0.10874 0.00815 0.70641
 H451 H 0.22156 -0.00049 0.74955
 H452 H 0.03237 -0.00008 0.74958
 C453 C 0.65689 0.47531 0.24537
 C454 C 0.64259 0.49963 0.25052
 C455 C 0.65699 0.52385 0.25576
 C456 C 0.68579 0.52399 0.25591
 C457 C 0.69995 0.49941 0.25084
 C458 C 0.68568 0.47497 0.24552
 C459 C 0.61247 0.49970 0.25043
 C460 C 0.59809 0.49506 0.27471
 C461 C 0.56930 0.49498 0.27485
 C462 C 0.55513 0.49966 0.25025
 C463 C 0.56936 0.50435 0.22573
 C464 C 0.59815 0.50432 0.22605
 H465 H 0.64552 0.45662 0.24163
 H466 H 0.64568 0.54263 0.25933
 H467 H 0.60940 0.49180 0.29351
 H468 H 0.60950 0.50757 0.20732
 H469 H 0.72215 0.49929 0.25098
 H470 H 0.53293 0.49964 0.25018
 C471 C 0.84367 0.47501 0.75444
 C472 C 0.85792 0.49939 0.74947
 C473 C 0.84348 0.52367 0.74443
 C474 C 0.81469 0.52382 0.74430
 C475 C 0.80057 0.49921 0.74931
 C476 C 0.81487 0.47469 0.75441
 C477 C 0.88803 0.49949 0.74954
 C478 C 0.90241 0.49477 0.72528
 C479 C 0.93120 0.49491 0.72510
 C480 C 0.94537 0.49983 0.74963
 C481 C 0.93113 0.50458 0.77412
 C482 C 0.90234 0.50438 0.77384
 H483 H 0.85508 0.45628 0.75800
 H484 H 0.85476 0.54248 0.74095
 H485 H 0.89110 0.49134 0.70654
 H486 H 0.89099 0.50770 0.79255
 H487 H 0.77837 0.49914 0.74925
 H488 H 0.96756 0.49996 0.74967
 C489 C 0.25494 0.34721 -0.02476
 C490 C 0.25009 0.36157 -0.00051
 C491 C 0.24518 0.34724 0.02378
 C492 C 0.24510 0.31846 0.02407
 C493 C 0.24998 0.30425 -0.00039
 C494 C 0.25490 0.31842 -0.02492
 C495 C 0.25011 0.39168 -0.00054
 C496 C 0.22577 0.40607 -0.00549
 C497 C 0.22551 0.43486 -0.00539
 C498 C 0.25007 0.44902 -0.00026
 C499 C 0.27465 0.43478 0.00474
 C500 C 0.27443 0.40599 0.00457
 H501 H 0.25839 0.35853 -0.04350
 H502 H 0.24177 0.35858 0.04248
 H503 H 0.20700 0.39476 -0.00905
 H504 H 0.29320 0.39462 0.00808
 H505 H 0.24994 0.28205 -0.00034
 H506 H 0.25005 0.47122 -0.00015
 C507 C 0.74574 0.15222 -0.02402
 C508 C 0.75072 0.13788 0.00028
 C509 C 0.75573 0.15224 0.02450
 C510 C 0.75572 0.18102 0.02465
 C511 C 0.75069 0.19521 0.00014
 C512 C 0.74570 0.18100 -0.02432
 C513 C 0.75070 0.10777 0.00039
 C514 C 0.77495 0.09340 -0.00487
 C515 C 0.77520 0.06461 -0.00470
 C516 C 0.75075 0.05042 0.00077
 C517 C 0.72624 0.06467 0.00598
 C518 C 0.72646 0.09346 0.00578
 H519 H 0.74222 0.14088 -0.04271
 H520 H 0.75925 0.14094 0.04325
 H521 H 0.79366 0.10470 -0.00872
 H522 H 0.70773 0.10482 0.00944
 H523 H 0.75063 0.21741 0.00011
 H524 H 0.75079 0.02823 0.00093
 C525 C 0.24540 0.65274 0.47547
 C526 C 0.25005 0.63838 0.49982
 C527 C 0.25458 0.65272 0.52415
 C528 C 0.25452 0.68150 0.52435
 C529 C 0.24982 0.69572 0.49977
 C530 C 0.24523 0.68152 0.47522
 C531 C 0.25016 0.60827 0.49985
 C532 C 0.27450 0.59400 0.49472
 C533 C 0.27485 0.56521 0.49476
 C534 C 0.25037 0.55093 0.49993
 C535 C 0.22579 0.56508 0.50506
 C536 C 0.22592 0.59386 0.50501
 H537 H 0.24224 0.64141 0.45672
 H538 H 0.25783 0.64138 0.54292
 H539 H 0.29320 0.60539 0.49109
 H540 H 0.20714 0.60515 0.50860
 H541 H 0.24975 0.71791 0.49975
 H542 H 0.25045 0.52874 0.49998
 C543 C 0.75509 0.84772 0.47539
 C544 C 0.75021 0.86204 0.49964
 C545 C 0.74533 0.84768 0.52392
 C546 C 0.74531 0.81890 0.52418
 C547 C 0.75020 0.80472 0.49969
 C548 C 0.75510 0.81894 0.47518
 C549 C 0.75017 0.89215 0.49962
 C550 C 0.72578 0.90648 0.49477
 C551 C 0.72549 0.93527 0.49472
 C552 C 0.75006 0.94950 0.49964
 C553 C 0.77468 0.93530 0.50455
 C554 C 0.77450 0.90651 0.50448
 H555 H 0.75851 0.85906 0.45666
 H556 H 0.74190 0.85899 0.54263
 H557 H 0.70701 0.89512 0.49137
 H558 H 0.79332 0.89518 0.50789
 H559 H 0.75019 0.78252 0.49971
 H560 H 0.75001 0.97169 0.49965
 C561 C -0.02600 0.25583 0.34444
 C562 C -0.00150 0.25101 0.35859
 C563 C 0.02271 0.24594 0.34415
 C564 C 0.02266 0.24564 0.31546
 C565 C -0.00210 0.25034 0.30146
 C566 C -0.02653 0.25543 0.31577
 C567 C -0.00125 0.25097 0.38860
 C568 C -0.00550 0.22648 0.40291
 C569 C -0.00528 0.22617 0.43159
 C570 C -0.00076 0.25081 0.44573
 C571 C 0.00352 0.27553 0.43157
 C572 C 0.00326 0.27539 0.40289
 H573 H -0.04470 0.25939 0.35582
 H574 H 0.04161 0.24257 0.35533
 H575 H -0.00863 0.20765 0.39163
 H576 H 0.00623 0.29427 0.39160
 H577 H -0.00239 0.24997 0.27935
 H578 H -0.00058 0.25074 0.46784
 C579 C -0.02457 0.74631 0.15327
 C580 C -0.00017 0.75088 0.13898
 C581 C 0.02429 0.75540 0.15328
 C582 C 0.02457 0.75534 0.18197
 C583 C -0.00007 0.75076 0.19610
 C584 C -0.02476 0.74626 0.18196
 C585 C -0.00022 0.75098 0.10896
 C586 C -0.00478 0.77546 0.09471
 C587 C -0.00478 0.77582 0.06602
 C588 C -0.00020 0.75122 0.05182
 C589 C 0.00441 0.72650 0.06594
 C590 C 0.00437 0.72662 0.09463
 H591 H -0.04343 0.74316 0.14199
 H592 H 0.04311 0.75860 0.14200
 H593 H -0.00792 0.79426 0.10604
 H594 H 0.00758 0.70774 0.10588
 H595 H -0.00003 0.75071 0.21822
 H596 H -0.00017 0.75131 0.02971
 C597 C 0.47558 0.24472 0.65536
 C598 C 0.49989 0.24984 0.64108
 C599 C 0.52422 0.25494 0.65541
 C600 C 0.52447 0.25488 0.68409
 C601 C 0.49991 0.24991 0.69821
 C602 C 0.47536 0.24485 0.68404
 C603 C 0.49987 0.24986 0.61108
 C604 C 0.49560 0.27436 0.59676
 C605 C 0.49555 0.27462 0.56807
 C606 C 0.49986 0.24993 0.55395
 C607 C 0.50416 0.22521 0.56812
 C608 C 0.50413 0.22540 0.59680
 H609 H 0.45680 0.24107 0.64410
 H610 H 0.54299 0.25851 0.64415
 H611 H 0.49264 0.29322 0.60802
 H612 H 0.50711 0.20651 0.60810
 H613 H 0.49989 0.24995 0.72033
 H614 H 0.49985 0.24996 0.53183
 C615 C 0.47564 0.75510 0.84580
 C616 C 0.50007 0.75056 0.86016
 C617 C 0.52452 0.74604 0.84594
 C618 C 0.52478 0.74606 0.81726
 C619 C 0.50012 0.75060 0.80304
 C620 C 0.47544 0.75512 0.81711
 C621 C 0.50003 0.75053 0.89017
 C622 C 0.49548 0.72608 0.90447
 C623 C 0.49542 0.72582 0.93315
 C624 C 0.49990 0.75046 0.94729
 C625 C 0.50446 0.77514 0.93315
 C626 C 0.50452 0.77494 0.90446
 H627 H 0.45678 0.75826 0.85703
 H628 H 0.54336 0.74286 0.85727
 H629 H 0.49235 0.70725 0.89318
 H630 H 0.50770 0.79379 0.89318
 H631 H 0.50014 0.75062 0.78093
 H632 H 0.49985 0.75044 0.96941
 C633 C 0.09073 0.21479 0.29396
 C634 C 0.09674 0.22975 0.27012
 C635 C 0.07831 0.25028 0.26166
 C636 C 0.05443 0.25551 0.27645
 C637 C 0.04834 0.24039 0.30009
 C638 C 0.06682 0.22006 0.30876
 H639 H 0.10438 0.19894 0.30129
 H640 H 0.08208 0.26227 0.24347
 H641 H 0.04079 0.27159 0.26946
 H642 H 0.06257 0.20788 0.32677
 C643 C 0.59314 0.71590 0.79578
 C644 C 0.59912 0.73107 0.77207
 C645 C 0.58070 0.75169 0.76383
 C646 C 0.55678 0.75671 0.77863
 C647 C 0.55066 0.74127 0.80207
 C648 C 0.56920 0.72095 0.81060
 H649 H 0.60681 0.69999 0.80296
 H650 H 0.58446 0.76387 0.74577
 H651 H 0.54310 0.77280 0.77178
 H652 H 0.56494 0.70856 0.82846
 C653 C 0.41959 0.74955 0.76343
 C654 C 0.40114 0.77012 0.77157
 C655 C 0.40709 0.78527 0.79527
 C656 C 0.43102 0.78022 0.81019
 C657 C 0.44959 0.75993 0.80178
 C658 C 0.44351 0.74453 0.77835
 H659 H 0.41585 0.73740 0.74538
 H660 H 0.39340 0.80115 0.80236
 H661 H 0.43526 0.79259 0.82804
 H662 H 0.45721 0.72846 0.77158
 C663 C -0.09501 0.28549 0.29427
 C664 C -0.10215 0.26901 0.27171
 C665 C -0.08394 0.24791 0.26405
 C666 C -0.05951 0.24358 0.27833
 C667 C -0.05257 0.26006 0.30073
 C668 C -0.07061 0.28100 0.30860
 H669 H -0.10813 0.30195 0.30111
 H670 H -0.08826 0.23460 0.24698
 H671 H -0.04614 0.22705 0.27200
 H672 H -0.06565 0.29420 0.32566
 C673 C -0.08055 0.75176 0.23553
 C674 C -0.09897 0.73118 0.22736
 C675 C -0.09303 0.71606 0.20365
 C676 C -0.06913 0.72114 0.18877
 C677 C -0.05059 0.74143 0.19722
 C678 C -0.05668 0.75681 0.22066
 H679 H -0.08428 0.76391 0.25359
 H680 H -0.10670 0.70018 0.19653
 H681 H -0.06490 0.70879 0.17092
 H682 H -0.04300 0.77288 0.22746
 C683 C 0.41889 0.25082 0.73674
 C684 C 0.40112 0.22925 0.72939
 C685 C 0.40797 0.21331 0.70637
 C686 C 0.43184 0.21857 0.69150
 C687 C 0.44960 0.23977 0.69927
 C688 C 0.44279 0.25591 0.72194
 H689 H 0.41472 0.26384 0.75407
 H690 H 0.39512 0.19660 0.69966
 H691 H 0.43669 0.20567 0.67420
 H692 H 0.45593 0.27267 0.72815
 C693 C 0.58085 0.24889 0.73714
 C694 C 0.59908 0.26990 0.72930
 C695 C 0.59248 0.28558 0.70596
 C696 C 0.56844 0.28057 0.69120
 C697 C 0.55029 0.25985 0.69936
 C698 C 0.55683 0.24400 0.72241
 H699 H 0.58482 0.23608 0.75472
 H700 H 0.60564 0.30191 0.69890
 H701 H 0.56381 0.29328 0.67364
 H702 H 0.54342 0.22759 0.72895
 C703 C 0.08061 0.74949 0.23547
 C704 C 0.09907 0.77003 0.22725
 C705 C 0.09301 0.78529 0.20358
 C706 C 0.06901 0.78036 0.18875
 C707 C 0.05046 0.76007 0.19723
 C708 C 0.05662 0.74459 0.22065
 H709 H 0.08442 0.73721 0.25347
 H710 H 0.10667 0.80118 0.19644
 H711 H 0.06471 0.79280 0.17092
 H712 H 0.04294 0.72852 0.22747
 C713 C 0.26044 0.07991 0.24863
 C714 C 0.26904 0.09813 0.22807
 C715 C 0.29290 0.09177 0.21326
 C716 C 0.30761 0.06780 0.21873
 C717 C 0.29885 0.04956 0.23913
 C718 C 0.27516 0.05594 0.25408
 H719 H 0.24225 0.08397 0.26054
 H720 H 0.30033 0.10519 0.19733
 H721 H 0.32563 0.06331 0.20665
 H722 H 0.26810 0.04248 0.27021
 C723 C 0.79359 0.59188 0.71310
 C724 C 0.76987 0.59837 0.72806
 C725 C 0.76125 0.58019 0.74865
 C726 C 0.77583 0.55610 0.75398
 C727 C 0.79939 0.54958 0.73888
 C728 C 0.80816 0.56779 0.71845
 H729 H 0.80103 0.60528 0.69716
 H730 H 0.74316 0.58435 0.76066
 H731 H 0.76878 0.54267 0.77013
 H732 H 0.82608 0.56320 0.70627
 C733 C 0.79419 0.40653 0.78555
 C734 C 0.77054 0.39991 0.77048
 C735 C 0.76183 0.41802 0.74982
 C736 C 0.77626 0.44218 0.74454
 C737 C 0.79975 0.44883 0.75975
 C738 C 0.80860 0.43069 0.78025
 H739 H 0.80170 0.39315 0.80151
 H740 H 0.74376 0.41376 0.73776
 H741 H 0.76913 0.45556 0.72835
 H742 H 0.82647 0.43538 0.79251
 C743 C 0.29320 -0.09265 0.28696
 C744 C 0.27026 -0.10004 0.27100
 C745 C 0.26251 -0.08247 0.24941
 C746 C 0.27693 -0.05829 0.24424
 C747 C 0.29961 -0.05103 0.26032
 C748 C 0.30768 -0.06853 0.28162
 H749 H 0.30021 -0.10530 0.30370
 H750 H 0.24519 -0.08703 0.23643
 H751 H 0.27047 -0.04534 0.22743
 H752 H 0.32496 -0.06332 0.29450
 C753 C 0.20679 -0.09220 0.71204
 C754 C 0.23011 -0.09936 0.72758
 C755 C 0.23806 -0.08172 0.74897
 C756 C 0.22344 -0.05770 0.75435
 C757 C 0.20040 -0.05065 0.73866
 C758 C 0.19215 -0.06822 0.71756
 H759 H 0.19964 -0.10490 0.69545
 H760 H 0.25565 -0.08612 0.76167
 H761 H 0.23005 -0.04472 0.77102
 H762 H 0.17459 -0.06318 0.70496
 C763 C 0.73821 0.41775 0.25038
 C764 C 0.72974 0.40012 0.22933
 C765 C 0.70657 0.40731 0.21376
 C766 C 0.69226 0.43152 0.21908
 C767 C 0.70081 0.44917 0.24004
 C768 C 0.72394 0.44202 0.25564
 H769 H 0.75601 0.41300 0.26272
 H770 H 0.69927 0.39421 0.19752
 H771 H 0.67467 0.43661 0.20655
 H772 H 0.73084 0.45508 0.27213
 C773 C 0.73914 0.58036 0.25145
 C774 C 0.73053 0.59850 0.27202
 C775 C 0.70684 0.59197 0.28702
 C776 C 0.69230 0.56789 0.28173
 C777 C 0.70106 0.54973 0.26132
 C778 C 0.72460 0.55628 0.24618
 H779 H 0.75721 0.58454 0.23940
 H780 H 0.69940 0.60535 0.30295
 H781 H 0.67440 0.56328 0.29394
 H782 H 0.73165 0.54289 0.23004
 C783 C 0.23844 0.08053 0.75030
 C784 C 0.22985 0.09858 0.77097
 C785 C 0.20617 0.09198 0.78596
 C786 C 0.19162 0.06793 0.78057
 C787 C 0.20037 0.04985 0.76007
 C788 C 0.22388 0.05648 0.74493
 H789 H 0.25648 0.08476 0.73825
 H790 H 0.19877 0.10528 0.80196
 H791 H 0.17374 0.06326 0.79278
 H792 H 0.23091 0.04316 0.72873
 C793 C 0.21396 0.29710 0.09179
 C794 C 0.22898 0.27329 0.09814
 C795 C 0.24976 0.26488 0.08011
 C796 C 0.25512 0.27965 0.05625
 C797 C 0.23986 0.30321 0.04980
 C798 C 0.21934 0.31187 0.06792
 H799 H 0.19790 0.30439 0.10511
 H800 H 0.26186 0.24676 0.08415
 H801 H 0.27136 0.27270 0.04290
 H802 H 0.20707 0.32981 0.06338
 C803 C 0.75020 0.76532 0.58021
 C804 C 0.72946 0.77369 0.59830
 C805 C 0.71435 0.79745 0.59197
 C806 C 0.71963 0.81221 0.56807
 C807 C 0.74013 0.80361 0.54990
 C808 C 0.75545 0.78009 0.55632
 H809 H 0.76239 0.74725 0.58424
 H810 H 0.69830 0.80470 0.60532
 H811 H 0.70729 0.83012 0.56355
 H812 H 0.77168 0.77317 0.54294
 C813 C 0.75012 0.76545 0.41928
 C814 C 0.77086 0.77378 0.40115
 C815 C 0.78600 0.79750 0.40741
 C816 C 0.78074 0.81226 0.43128
 C817 C 0.76024 0.80368 0.44948
 C818 C 0.74490 0.78020 0.44312
 H819 H 0.73792 0.74742 0.41530
 H820 H 0.80205 0.80473 0.39405
 H821 H 0.79310 0.83012 0.43575
 H822 H 0.72867 0.77331 0.45654
 C823 C 0.28598 0.29676 -0.09253
 C824 C 0.27092 0.27297 -0.09872
 C825 C 0.25013 0.26469 -0.08063
 C826 C 0.24479 0.27956 -0.05688
 C827 C 0.26008 0.30310 -0.05058
 C828 C 0.28061 0.31163 -0.06876
 H829 H 0.30205 0.30396 -0.10590
 H830 H 0.23802 0.24659 -0.08455
 H831 H 0.22855 0.27270 -0.04348
 H832 H 0.29292 0.32954 -0.06435
 C833 C 0.71437 0.20247 -0.09208
 C834 C 0.72939 0.22624 -0.09841
 C835 C 0.75021 0.23461 -0.08035
 C836 C 0.75562 0.21982 -0.05649
 C837 C 0.74038 0.19628 -0.05005
 C838 C 0.71980 0.18768 -0.06819
 H839 H 0.69827 0.19521 -0.10542
 H840 H 0.76230 0.25271 -0.08438
 H841 H 0.77189 0.22674 -0.04312
 H842 H 0.70753 0.16977 -0.06367
 C843 C 0.21483 0.70273 0.40698
 C844 C 0.22982 0.72656 0.40082
 C845 C 0.25029 0.73510 0.41920
 C846 C 0.25540 0.72040 0.44318
 C847 C 0.24020 0.69678 0.44942
 C848 C 0.21996 0.68803 0.43098
 H849 H 0.19900 0.69534 0.39339
 H850 H 0.26233 0.75327 0.41531
 H851 H 0.27141 0.72744 0.45679
 H852 H 0.20771 0.67006 0.43534
 C853 C 0.28498 0.70284 0.59242
 C854 C 0.26989 0.72663 0.59852
 C855 C 0.24928 0.73505 0.58020
 C856 C 0.24416 0.72030 0.55631
 C857 C 0.25949 0.69676 0.55010
 C858 C 0.27984 0.68810 0.56852
 H859 H 0.30092 0.69553 0.60596
 H860 H 0.23713 0.75316 0.58406
 H861 H 0.22805 0.72726 0.54273
 H862 H 0.29218 0.67018 0.56419
 C863 C 0.78657 0.20257 0.09249
 C864 C 0.77097 0.22594 0.09894
 C865 C 0.75013 0.23415 0.08079
 C866 C 0.74514 0.21952 0.05680
 C867 C 0.76083 0.19630 0.05034
 C868 C 0.78153 0.18791 0.06849
 H869 H 0.80288 0.19561 0.10576
 H870 H 0.73745 0.25180 0.08502
 H871 H 0.72876 0.22624 0.04342
 H872 H 0.79417 0.17026 0.06390
 C873 C 0.46602 0.34335 0.54655
 C874 C 0.48121 0.34929 0.52287
 C875 C 0.50157 0.33065 0.51460
 C876 C 0.50635 0.30660 0.52938
 C877 C 0.49094 0.30055 0.55282
 C878 C 0.47083 0.31928 0.56133
 H879 H 0.45025 0.35713 0.55373
 H880 H 0.51379 0.33438 0.49659
 H881 H 0.52228 0.29277 0.52253
 H882 H 0.45843 0.31507 0.57917
 C883 C -0.03396 0.84492 0.04518
 C884 C -0.01842 0.85125 0.02183
 C885 C 0.00171 0.83250 0.01326
 C886 C 0.00614 0.80811 0.02760
 C887 C -0.00943 0.80182 0.05088
 C888 C -0.02950 0.82053 0.05953
 H889 H -0.04959 0.85876 0.05254
 H890 H 0.01410 0.83649 -0.00459
 H891 H 0.02201 0.79429 0.02062
 H892 H -0.04204 0.81612 0.07722
 C893 C -0.00094 0.67059 0.01244
 C894 C 0.01957 0.65212 0.02085
 C895 C 0.03469 0.65815 0.04457
 C896 C 0.02963 0.68214 0.05930
 C897 C 0.00935 0.70069 0.05068
 C898 C -0.00597 0.69456 0.02717
 H899 H -0.01308 0.66680 -0.00564
 H900 H 0.05055 0.64447 0.05185
 H901 H 0.04197 0.68641 0.07719
 H902 H -0.02203 0.70825 0.02023
 C903 C 0.53374 0.15657 0.54674
 C904 C 0.51856 0.15069 0.52301
 C905 C 0.49818 0.16934 0.51466
 C906 C 0.49337 0.19334 0.52942
 C907 C 0.50879 0.19932 0.55290
 C908 C 0.52890 0.18058 0.56150
 H909 H 0.54951 0.14277 0.55398
 H910 H 0.48597 0.16566 0.49661
 H911 H 0.47743 0.20717 0.52250
 H912 H 0.54130 0.18474 0.57938
 C913 C -0.03485 0.15757 0.45320
 C914 C -0.01945 0.15151 0.47678
 C915 C 0.00105 0.17003 0.48495
 C916 C 0.00579 0.19407 0.47017
 C917 C -0.00983 0.20024 0.44684
 C918 C -0.03008 0.18163 0.43842
 H919 H -0.05074 0.14390 0.44610
 H920 H 0.01345 0.16620 0.50287
 H921 H 0.02183 0.20780 0.47695
 H922 H -0.04264 0.18593 0.42066
 C923 C 0.46538 0.65739 0.95464
 C924 C 0.48054 0.65134 0.97837
 C925 C 0.50105 0.66979 0.98667
 C926 C 0.50602 0.69377 0.97188
 C927 C 0.49062 0.69993 0.94839
 C928 C 0.47037 0.68139 0.93983
 H929 H 0.44954 0.64371 0.94743
 H930 H 0.51322 0.66598 1.00475
 H931 H 0.52205 0.70746 0.97876
 H932 H 0.45800 0.68569 0.92195
 C933 C 0.53451 0.84347 0.95479
 C934 C 0.51930 0.84945 0.97843
 C935 C 0.49873 0.83101 0.98661
 C936 C 0.49377 0.80709 0.97178
 C937 C 0.50922 0.80098 0.94840
 C938 C 0.52951 0.81953 0.93995
 H939 H 0.55040 0.85714 0.94767
 H940 H 0.48653 0.83477 1.00462
 H941 H 0.47770 0.79340 0.97857
 H942 H 0.54193 0.81527 0.92215
 C943 C -0.00178 0.33121 0.48527
 C944 C 0.01867 0.34971 0.47696
 C945 C 0.03363 0.34387 0.45312
 C946 C 0.02852 0.31999 0.43824
 C947 C 0.00835 0.30136 0.44683
 C948 C -0.00687 0.30735 0.47039
 H949 H -0.01379 0.33486 0.50343
 H950 H 0.04941 0.35761 0.44590
 H951 H 0.04075 0.31583 0.42028
 H952 H -0.02283 0.29360 0.47730
 C953 C 0.34295 0.54442 0.46366
 C954 C 0.34965 0.52081 0.47880
 C955 C 0.33160 0.51216 0.49945
 C956 C 0.30743 0.52660 0.50468
 C957 C 0.30070 0.55006 0.48941
 C958 C 0.31878 0.55886 0.46891
 H959 H 0.35628 0.55188 0.44769
 H960 H 0.33591 0.49412 0.51157
 H961 H 0.29411 0.51952 0.52088
 H962 H 0.31403 0.57671 0.45660
 C963 C 0.84268 0.04353 -0.03677
 C964 C 0.84988 0.02035 -0.02123
 C965 C 0.83230 0.01191 -0.00011
 C966 C 0.80808 0.02625 0.00525
 C967 C 0.80094 0.04940 -0.01031
 C968 C 0.81853 0.05790 -0.03135
 H969 H 0.85574 0.05080 -0.05307
 H970 H 0.83704 -0.00589 0.01221
 H971 H 0.79507 0.01938 0.02179
 H972 H 0.81343 0.07550 -0.04386
 C973 C 0.65832 0.04382 0.03745
 C974 C 0.65166 0.02015 0.02248
 C975 C 0.66969 0.01149 0.00183
 C976 C 0.69378 0.02597 -0.00356
 C977 C 0.70047 0.04947 0.01153
 C978 C 0.68243 0.05829 0.03204
 H979 H 0.64504 0.05127 0.05345
 H980 H 0.66541 -0.00656 -0.01020
 H981 H 0.70707 0.01888 -0.01977
 H982 H 0.68715 0.07618 0.04421
 C983 C 0.15793 0.54390 0.53639
 C984 C 0.15137 0.52023 0.52139
 C985 C 0.16944 0.51168 0.50072
 C986 C 0.19347 0.52628 0.49536
 C987 C 0.20006 0.54978 0.51051
 C988 C 0.18196 0.55849 0.53102
 H989 H 0.14461 0.55128 0.55239
 H990 H 0.16524 0.49364 0.48866
 H991 H 0.20681 0.51927 0.47915
 H992 H 0.18661 0.57636 0.54324
 C993 C 0.16904 0.48819 -0.00074
 C994 C 0.15091 0.47972 -0.02144
 C995 C 0.15744 0.45608 -0.03651
 C996 C 0.18152 0.44148 -0.03120
 C997 C 0.19969 0.45012 -0.01069
 C998 C 0.19312 0.47357 0.00455
 H999 H 0.16484 0.50619 0.01139
 H1000 H 0.14409 0.44876 -0.05254
 H1001 H 0.18614 0.42365 -0.04349
 H1002 H 0.20651 0.48052 0.02077
 C1003 C 0.65713 0.95607 0.46397
 C1004 C 0.65057 0.97969 0.47904
 C1005 C 0.66882 0.98837 0.49954
 C1006 C 0.69304 0.97393 0.50468
 C1007 C 0.69961 0.95045 0.48948
 C1008 C 0.68134 0.94164 0.46913
 H1009 H 0.64365 0.94858 0.44812
 H1010 H 0.66462 1.00642 0.51159
 H1011 H 0.70653 0.98102 0.52076
 H1012 H 0.68597 0.92378 0.45687
 C1013 C 0.83111 0.98859 0.49988
 C1014 C 0.84936 0.97987 0.52040
 C1015 C 0.84290 0.95614 0.53543
 C1016 C 0.81877 0.94166 0.53020
 C1017 C 0.80049 0.95052 0.50983
 C1018 C 0.80698 0.97410 0.49467
 H1019 H 0.83525 1.00672 0.48787
 H1020 H 0.85639 0.94862 0.55129
 H1021 H 0.81421 0.92373 0.54243
 H1022 H 0.79348 0.98123 0.47858
 C1023 C 0.34264 0.45566 0.03615
 C1024 C 0.34913 0.47947 0.02127
 C1025 C 0.33101 0.48816 0.00061
 C1026 C 0.30697 0.47360 -0.00483
 C1027 C 0.30043 0.44997 0.01021
 C1028 C 0.31859 0.44110 0.03069
 H1029 H 0.35599 0.44816 0.05214
 H1030 H 0.33516 0.50631 -0.01136
 H1031 H 0.29359 0.48073 -0.02101
 H1032 H 0.31399 0.42312 0.04283
 C1033 C 0.51558 0.49998 0.33056
 C1034 C 0.52402 0.47940 0.34890
 C1035 C 0.54786 0.46437 0.34283
 C1036 C 0.56266 0.46957 0.31896
 C1037 C 0.55399 0.48992 0.30055
 C1038 C 0.53037 0.50517 0.30671
 H1039 H 0.49743 0.51208 0.33438
 H1040 H 0.55518 0.44844 0.35637
 H1041 H 0.58063 0.45729 0.31466
 H1042 H 0.52340 0.52127 0.29312
 C1043 C 0.01604 0.00038 0.83036
 C1044 C 0.02427 -0.02049 0.84846
 C1045 C 0.04755 -0.03617 0.84189
 C1046 C 0.06210 -0.03118 0.81782
 C1047 C 0.05369 -0.01045 0.79970
 C1048 C 0.03055 0.00531 0.80629
 H1049 H -0.00154 0.01313 0.83469
 H1050 H 0.05451 -0.05251 0.85513
 H1051 H 0.07968 -0.04388 0.81313
 H1052 H 0.02383 0.02172 0.79295
 C1053 C 0.04716 0.03616 0.65728
 C1054 C 0.02338 0.02114 0.65095
 C1055 C 0.01497 0.00038 0.66906
 C1056 C 0.02976 -0.00502 0.69293
 C1057 C 0.05333 0.01017 0.69932
 C1058 C 0.06194 0.03073 0.68116
 H1059 H 0.05443 0.05223 0.64392
 H1060 H -0.00313 -0.01171 0.66505
 H1061 H 0.02282 -0.02127 0.70631
 H1062 H 0.07988 0.04298 0.68566
 C1063 C 0.54796 0.53496 0.15765
 C1064 C 0.52414 0.51993 0.15148
 C1065 C 0.51575 0.49930 0.16974
 C1066 C 0.53054 0.49410 0.19365
 C1067 C 0.55410 0.50937 0.19993
 C1068 C 0.56274 0.52974 0.18157
 H1069 H 0.55524 0.55091 0.14416
 H1070 H 0.49763 0.48719 0.16583
 H1071 H 0.52360 0.47797 0.20718
 H1072 H 0.58067 0.54203 0.18597
 C1073 C 0.45253 -0.03526 0.15804
 C1074 C 0.47621 -0.02006 0.15181
 C1075 C 0.48445 0.00070 0.16995
 C1076 C 0.46964 0.00587 0.19378
 C1077 C 0.44619 -0.00955 0.20011
 C1078 C 0.43771 -0.03006 0.18189
 H1079 H 0.44536 -0.05134 0.14467
 H1080 H 0.50246 0.01295 0.16599
 H1081 H 0.47646 0.02210 0.20721
 H1082 H 0.41988 -0.04249 0.18633
 C1083 C 0.95277 0.46419 0.65731
 C1084 C 0.97644 0.47940 0.65105
 C1085 C 0.98472 0.50013 0.66921
 C1086 C 0.96994 0.50528 0.69307
 C1087 C 0.94650 0.48986 0.69941
 C1088 C 0.93799 0.46936 0.68118
 H1089 H 0.94558 0.44814 0.64393
 H1090 H 1.00272 0.51239 0.66523
 H1091 H 0.97678 0.52150 0.70650
 H1092 H 0.92016 0.45695 0.68563
 C1093 C 0.98473 0.49991 0.83015
 C1094 C 0.97621 0.52054 0.84829
 C1095 C 0.95235 0.53550 0.84200
 C1096 C 0.93761 0.53018 0.81808
 C1097 C 0.94637 0.50978 0.79987
 C1098 C 0.97000 0.49461 0.80626
 H1099 H 1.00291 0.48786 0.83414
 H1100 H 0.94497 0.55145 0.85540
 H1101 H 0.91962 0.54240 0.81360
 H1102 H 0.97703 0.47847 0.79284
 C1103 C 0.45205 0.03579 0.34281
 C1104 C 0.47593 0.02083 0.34905
 C1105 C 0.48446 0.00027 0.33083
 C1106 C 0.46973 -0.00497 0.30693
 C1107 C 0.44608 0.01020 0.30060
 C1108 C 0.43731 0.03053 0.31888
 H1109 H 0.44467 0.05170 0.35626
 H1110 H 0.50264 -0.01178 0.33478
 H1111 H 0.47677 -0.02106 0.29345
 H1112 H 0.41931 0.04275 0.31444
   
