data_POSCAR
  _audit_creation_date              2014-09-24
  _audit_creation_method            'ToBaCCo'
  _symmetry_space_group_name_H-M    'P1'
  _symmetry_Int_Tables_number       1
  _symmetry_cell_setting            triclinic
  loop_
  _symmetry_equiv_pos_as_xyz
 x,y,z
_cell_length_a 38.8262
_cell_length_b 38.6780
_cell_length_c 24.9630
_cell_angle_alpha 90.095100
_cell_angle_beta 90.061100
_cell_angle_gamma 120.108300
loop_
  _atom_site_label
  _atom_site_type_symbol
  _atom_site_fract_x
  _atom_site_fract_y
  _atom_site_fract_z
C1 C 0.06252 0.50158 0.07244
 C2 C 0.07838 0.54117 0.08994
 C3 C 0.06343 0.56536 0.07241
 C4 C 0.03108 0.54966 0.03642
 C5 C 0.01407 0.50948 0.01837
 C6 C 0.02944 0.48512 0.03712
 C7 C 0.01160 0.44530 0.01964
 C8 C -0.02100 0.42935 -0.01496
 C9 C -0.03669 0.45281 -0.03463
 C10 C -0.01856 0.49363 -0.01807
 C11 C 0.01566 0.57335 0.01773
 C12 C -0.01612 0.55804 -0.01783
 C13 C -0.03371 0.51839 -0.03637
 C14 C -0.06749 0.50204 -0.07017
 C15 C -0.08382 0.46230 -0.08707
 C16 C -0.07080 0.43653 -0.06852
 H17 H 0.02244 0.42586 0.03303
 H18 H -0.03374 0.39820 -0.02545
 H19 H 0.02796 0.60406 0.03066
 H20 H -0.02706 0.57765 -0.02974
 H21 H 0.10258 0.55332 0.11882
 H22 H -0.10592 0.45208 -0.11872
 C23 C 0.49990 0.56300 0.07626
 C24 C 0.46113 0.53868 0.09504
 C25 C 0.43678 0.49959 0.07656
 C26 C 0.45197 0.48349 0.03889
 C27 C 0.49154 0.50754 0.01960
 C28 C 0.51573 0.54730 0.03879
 C29 C 0.55473 0.57037 0.01946
 C30 C 0.57007 0.55474 -0.01771
 C31 C 0.54677 0.51556 -0.03776
 C32 C 0.50686 0.49178 -0.01900
 C33 C 0.42842 0.44439 0.01927
 C34 C 0.44346 0.42882 -0.01822
 C35 C 0.48250 0.45186 -0.03757
 C36 C 0.49826 0.43562 -0.07388
 C37 C 0.53733 0.45916 -0.09169
 C38 C 0.56264 0.49841 -0.07344
 H39 H 0.57390 0.60071 0.03333
 H40 H 0.60065 0.57377 -0.02981
 H41 H 0.39813 0.42537 0.03283
 H42 H 0.42425 0.39835 -0.03161
 H43 H 0.44950 0.55057 0.12485
 H44 H 0.54777 0.44645 -0.12195
 C45 C 0.43930 0.93205 0.07121
 C46 C 0.46483 0.91965 0.09188
 C47 C 0.50408 0.93589 0.07482
 C48 C 0.51970 0.96751 0.03786
 C49 C 0.49508 0.98215 0.01794
 C50 C 0.45480 0.96466 0.03506
 C51 C 0.43133 0.98003 0.01519
 C52 C 0.44717 1.01245 -0.01989
 C53 C 0.48681 1.03003 -0.03811
 C54 C 0.51082 1.01417 -0.01936
 C55 C 0.55902 0.98430 0.01974
 C56 C 0.57430 1.01523 -0.01717
 C57 C 0.55091 1.03074 -0.03687
 C58 C 0.56705 1.06323 -0.07246
 C59 C 0.54361 1.07911 -0.08938
 C60 C 0.50409 1.06422 -0.07209
 H61 H 0.40056 0.96749 0.02713
 H62 H 0.42781 1.02359 -0.03203
 H63 H 0.57841 0.97371 0.03411
 H64 H 0.60496 1.02734 -0.02941
 H65 H 0.45385 0.89625 0.12186
 H66 H 0.55637 1.10278 -0.11889
 C67 C 0.93824 0.49783 0.57765
 C68 C 0.92388 0.45862 0.59546
 C69 C 0.93988 0.43524 0.57778
 C70 C 0.97198 0.45179 0.54122
 C71 C 0.98769 0.49193 0.52351
 C72 C 0.97117 0.51522 0.54249
 C73 C 0.98753 0.55489 0.52499
 C74 C 1.01974 0.57164 0.48994
 C75 C 1.03621 0.54913 0.47004
 C76 C 1.01973 0.50864 0.48643
 C77 C 0.98807 0.42899 0.52079
 C78 C 1.01893 0.44515 0.48368
 C79 C 1.03525 0.48481 0.46619
 C80 C 1.06721 0.50160 0.42963
 C81 C 1.08304 0.54143 0.41408
 C82 C 1.06948 0.56618 0.43513
 H83 H 0.97563 0.57342 0.53846
 H84 H 1.03147 0.60253 0.47852
 H85 H 0.97669 0.39826 0.53297
 H86 H 1.03015 0.42628 0.46900
 H87 H 0.89977 0.44604 0.62431
 H88 H 1.10664 0.55375 0.38431
 C89 C 0.49799 0.43664 0.57625
 C90 C 0.53691 0.46101 0.59484
 C91 C 0.56130 0.49994 0.57612
 C92 C 0.54584 0.51596 0.53867
 C93 C 0.50618 0.49177 0.51949
 C94 C 0.48204 0.45208 0.53869
 C95 C 0.44309 0.42866 0.51889
 C96 C 0.42784 0.44388 0.48107
 C97 C 0.45115 0.48290 0.46130
 C98 C 0.49082 0.50710 0.48045
 C99 C 0.56915 0.55501 0.51894
 C100 C 0.55391 0.57024 0.48110
 C101 C 0.51496 0.54679 0.46123
 C102 C 0.49900 0.56217 0.42358
 C103 C 0.46011 0.53772 0.40489
 C104 C 0.43567 0.49886 0.42377
 H105 H 0.42403 0.39827 0.53243
 H106 H 0.39754 0.42474 0.46746
 H107 H 0.59946 0.57414 0.53255
 H108 H 0.57296 0.60064 0.46757
 H109 H 0.54870 0.44920 0.62451
 H110 H 0.44837 0.54945 0.37506
 C111 C 0.56450 0.07472 0.56247
 C112 C 0.53897 0.08594 0.58558
 C113 C 0.49831 0.06626 0.57338
 C114 C 0.48245 0.03371 0.53718
 C115 C 0.50787 0.02079 0.51499
 C116 C 0.54897 0.04107 0.52848
 C117 C 0.57354 0.02748 0.50745
 C118 C 0.55797 -0.00611 0.47448
 C119 C 0.51751 -0.02637 0.45935
 C120 C 0.49242 -0.01187 0.47850
 C121 C 0.44240 0.01464 0.52134
 C122 C 0.42750 -0.01633 0.48403
 C123 C 0.45182 -0.03022 0.46208
 C124 C 0.43620 -0.06333 0.42667
 C125 C 0.46108 -0.07808 0.41061
 C126 C 0.50074 -0.06172 0.42784
 H127 H 0.60493 0.04223 0.51753
 H128 H 0.57829 -0.01568 0.46099
 H129 H 0.42220 0.02364 0.53749
 H130 H 0.39630 -0.02988 0.47386
 H131 H 0.55148 0.11200 0.61162
 H132 H 0.45026 -0.10127 0.38025
 O133 O 0.20193 0.47392 0.19566
 O134 O 0.27064 0.47358 0.30011
 O135 O 0.20307 0.47465 0.30055
 O136 O 0.27037 0.47362 0.19530
 O137 O 0.30262 0.53966 0.19569
 O138 O 0.23756 0.54069 0.29968
 O139 O 0.30280 0.53961 0.29956
 O140 O 0.23658 0.53992 0.19592
 Cu141 Cu 0.23303 0.46712 0.24775
 Cu142 Cu 0.27318 0.54646 0.24757
 C143 C 0.20793 0.50742 0.17828
 C144 C 0.29828 0.50701 0.31768
 C145 C 0.20944 0.50830 0.31804
 C146 C 0.29808 0.50695 0.17792
 O147 O 0.52735 0.72947 0.19994
 O148 O 0.52808 0.79911 0.30444
 O149 O 0.52583 0.72916 0.30459
 O150 O 0.52754 0.79774 0.19920
 O151 O 0.46173 0.76417 0.19827
 O152 O 0.46007 0.69803 0.30292
 O153 O 0.46234 0.76548 0.30189
 O154 O 0.46157 0.69829 0.19931
 Cu155 Cu 0.53405 0.76732 0.25232
 Cu156 Cu 0.45499 0.72839 0.25074
 C157 C 0.49395 0.70220 0.18187
 C158 C 0.49463 0.79359 0.32069
 C159 C 0.49216 0.70169 0.32125
 C160 C 0.49453 0.79192 0.18055
 O161 O 0.19441 0.75226 0.29000
 O162 O 0.27429 0.80257 0.19284
 O163 O 0.20284 0.74015 0.18833
 O164 O 0.27083 0.80662 0.29580
 O165 O 0.28581 0.75986 0.31418
 O166 O 0.22531 0.69866 0.20351
 O167 O 0.29552 0.76048 0.21093
 O168 O 0.21078 0.70592 0.30363
 Cu169 Cu 0.23336 0.77947 0.24063
 Cu170 Cu 0.25624 0.72690 0.25987
 C171 C 0.18818 0.72041 0.31252
 C172 C 0.29904 0.79077 0.18589
 C173 C 0.20393 0.70853 0.17690
 C174 C 0.29019 0.79404 0.32285
 O175 O 0.72777 0.52624 0.79891
 O176 O 0.79701 0.52600 0.69498
 O177 O 0.72852 0.52659 0.69395
 O178 O 0.79659 0.52782 0.80006
 O179 O 0.76283 0.46177 0.79922
 O180 O 0.69707 0.46057 0.69437
 O181 O 0.76277 0.45999 0.69564
 O182 O 0.69652 0.46022 0.79790
 Cu183 Cu 0.76590 0.53354 0.74671
 Cu184 Cu 0.72664 0.45419 0.74668
 C185 C 0.70045 0.49257 0.81611
 C186 C 0.79120 0.49239 0.67794
 C187 C 0.70106 0.49302 0.67654
 C188 C 0.79057 0.49445 0.81784
 O189 O 0.47267 0.27133 0.69982
 O190 O 0.47425 0.20261 0.80368
 O191 O 0.47313 0.27081 0.80492
 O192 O 0.47186 0.20264 0.69923
 O193 O 0.53765 0.23695 0.69796
 O194 O 0.53890 0.30329 0.80298
 O195 O 0.53998 0.23758 0.80145
 O196 O 0.53846 0.30347 0.69899
 Cu197 Cu 0.46619 0.23350 0.75218
 Cu198 Cu 0.54523 0.27366 0.75029
 C199 C 0.50579 0.29889 0.68161
 C200 C 0.50805 0.20888 0.81984
 C201 C 0.50656 0.29862 0.82185
 C202 C 0.50487 0.20856 0.68072
 O203 O 0.80472 0.27071 0.80139
 O204 O 0.74914 0.18628 0.70898
 O205 O 0.80622 0.26311 0.69795
 O206 O 0.73981 0.19962 0.80883
 O207 O 0.70190 0.22647 0.79442
 O208 O 0.76340 0.28381 0.68258
 O209 O 0.70671 0.20748 0.69521
 O210 O 0.76330 0.29280 0.78392
 Cu211 Cu 0.77928 0.22753 0.75560
 Cu212 Cu 0.72969 0.25376 0.73567
 C213 C 0.79338 0.29594 0.80864
 C214 C 0.71730 0.18162 0.68835
 C215 C 0.79586 0.28504 0.67226
 C216 C 0.70972 0.20324 0.82058
 C217 C 0.08152 0.47904 0.09338
 C218 C 0.12132 0.49673 0.09412
 C219 C 0.14394 0.48437 0.12917
 C220 C 0.18270 0.51050 0.13679
 H221 H 0.13813 0.52475 0.07274
 H222 H 0.12879 0.45715 0.15249
 H223 H 0.06337 0.45056 0.11303
 H224 H 0.19617 0.53856 0.11510
 C225 C 0.52214 0.60451 0.09745
 C226 C 0.50507 0.62716 0.09610
 C227 C 0.51702 0.66189 0.13169
 C228 C 0.49083 0.67421 0.13976
 H229 H 0.47790 0.61649 0.07289
 H230 H 0.54411 0.67396 0.15521
 H231 H 0.54936 0.61404 0.11988
 H232 H 0.46282 0.65960 0.11801
 C233 C 0.39717 0.91003 0.08964
 C234 C 0.37884 0.87035 0.09720
 C235 C 0.34244 0.84847 0.12914
 C236 C 0.33264 0.81252 0.14915
 H237 H 0.39320 0.85396 0.08391
 H238 H 0.32542 0.86276 0.13952
 H239 H 0.38276 0.92656 0.10181
 H240 H 0.35114 0.79950 0.14061
 C241 C 0.91799 0.51930 0.59785
 C242 C 0.87820 0.50094 0.59780
 C243 C 0.85529 0.51437 0.63032
 C244 C 0.81641 0.48880 0.63702
 H245 H 0.86179 0.47228 0.57755
 H246 H 0.87031 0.54201 0.65298
 H247 H 0.93546 0.54838 0.61642
 H248 H 0.80296 0.46037 0.61601
 C249 C 0.47587 0.39511 0.59698
 C250 C 0.49334 0.37286 0.59592
 C251 C 0.48162 0.33815 0.63116
 C252 C 0.50827 0.32646 0.63944
 H253 H 0.52084 0.38404 0.57345
 H254 H 0.45443 0.32575 0.65435
 H255 H 0.44813 0.38505 0.61819
 H256 H 0.53628 0.34144 0.61785
 C257 C 0.60732 0.10383 0.56725
 C258 C 0.62808 0.10515 0.61053
 C259 C 0.66301 0.14333 0.62623
 C260 C 0.69025 0.14444 0.65997
 H261 H 0.61641 0.08006 0.63836
 H262 H 0.66414 0.17115 0.61449
 H263 H 0.61915 0.12926 0.54019
 H264 H 0.68998 0.11704 0.67116
 C265 C 0.48345 0.08364 0.90938
 C266 C 0.50315 0.12320 0.89975
 C267 C 0.48754 0.14503 0.86890
 C268 C 0.51258 0.18404 0.86048
 H269 H 0.53381 0.14069 0.91318
 H270 H 0.45903 0.12922 0.84863
 H271 H 0.45162 0.06696 0.90273
 H272 H 0.54150 0.19813 0.87996
 C273 C 0.60252 0.51880 0.90781
 C274 C 0.62179 0.49871 0.89807
 C275 C 0.65886 0.51407 0.86679
 C276 C 0.67216 0.48866 0.85783
 H277 H 0.60824 0.46791 0.91140
 H278 H 0.67164 0.54260 0.84648
 H279 H 0.61792 0.55072 0.90108
 H280 H 0.65745 0.45986 0.87774
 C281 C 0.90851 0.39609 0.91361
 C282 C 0.87001 0.37795 0.89859
 C283 C 0.84988 0.34024 0.86815
 C284 C 0.81466 0.32976 0.84551
 H285 H 0.85264 0.39228 0.90645
 H286 H 0.86460 0.32314 0.86098
 H287 H 0.92361 0.37910 0.91082
 H288 H 0.80128 0.34822 0.85203
 C289 C 0.52196 0.91896 0.41126
 C290 C 0.50281 0.87902 0.40515
 C291 C 0.51749 0.85658 0.37378
 C292 C 0.49073 0.81857 0.36181
 H293 H 0.47264 0.86180 0.42037
 H294 H 0.54690 0.87143 0.35605
 H295 H 0.55347 0.93596 0.40271
 H296 H 0.46111 0.80570 0.37883
 C297 C 0.39410 0.47687 0.40327
 C298 C 0.37239 0.49495 0.40367
 C299 C 0.33755 0.48305 0.36860
 C300 C 0.32603 0.50989 0.35989
 H301 H 0.38401 0.52293 0.42552
 H302 H 0.32483 0.45544 0.34587
 H303 H 0.38353 0.44862 0.38270
 H304 H 0.34115 0.53819 0.38119
 C305 C 0.08653 0.60594 0.41673
 C306 C 0.10269 0.64366 0.39928
 C307 C 0.14024 0.66395 0.36774
 C308 C 0.15356 0.70046 0.34812
 H309 H 0.08432 0.65737 0.40091
 H310 H 0.15588 0.64791 0.35880
 H311 H 0.11550 0.60966 0.42640
 H312 H 0.13718 0.71579 0.35652
 C313 C 0.91422 0.52362 0.91125
 C314 C 0.87449 0.50483 0.90578
 C315 C 0.85273 0.51832 0.87131
 C316 C 0.81463 0.49154 0.86085
 H317 H 0.85709 0.47536 0.92347
 H318 H 0.86815 0.54645 0.85000
 H319 H 0.93195 0.55485 0.90042
 H320 H 0.80101 0.46287 0.88108
 C321 C 0.47588 0.39386 0.90599
 C322 C 0.49304 0.37137 0.90865
 C323 C 0.48206 0.33697 0.87310
 C324 C 0.50944 0.32637 0.86403
 H325 H 0.52014 0.38245 0.93213
 H326 H 0.45463 0.32390 0.85018
 H327 H 0.44870 0.38402 0.88331
 H328 H 0.53776 0.34208 0.88494
 C329 C 0.60815 0.08147 0.90587
 C330 C 0.63221 0.12112 0.90753
 C331 C 0.66779 0.14219 0.87328
 C332 C 0.68299 0.18132 0.86505
 H333 H 0.62268 0.13888 0.93010
 H334 H 0.67805 0.12543 0.85003
 H335 H 0.61680 0.06279 0.88398
 H336 H 0.67003 0.19668 0.88584
 C337 C 0.08553 0.47932 0.40640
 C338 C 0.12514 0.49603 0.40734
 C339 C 0.14722 0.48458 0.37026
 C340 C 0.18527 0.51156 0.36060
 H341 H 0.14219 0.52274 0.43154
 H342 H 0.13196 0.45718 0.34712
 H343 H 0.06726 0.45239 0.38341
 H344 H 0.19872 0.53994 0.38171
 C345 C 0.52088 0.60382 0.40320
 C346 C 0.50292 0.62562 0.40411
 C347 C 0.51507 0.66108 0.37032
 C348 C 0.48852 0.67294 0.36219
 H349 H 0.47499 0.61382 0.42568
 H350 H 0.54275 0.67424 0.34811
 H351 H 0.54901 0.61447 0.38274
 H352 H 0.46001 0.65729 0.38247
 C353 C 0.39687 0.91823 0.40590
 C354 C 0.37643 0.87892 0.39533
 C355 C 0.33840 0.85850 0.36588
 C356 C 0.31973 0.81861 0.36350
 H357 H 0.38867 0.86046 0.40807
 H358 H 0.32878 0.87541 0.34177
 H359 H 0.38253 0.93566 0.39898
 H360 H 0.33079 0.80305 0.38797
 C361 C 0.52665 0.91729 0.09576
 C362 C 0.51020 0.87769 0.09209
 C363 C 0.52041 0.85449 0.12868
 C364 C 0.49265 0.81652 0.13750
 H365 H 0.48378 0.86141 0.06732
 H366 H 0.54735 0.86905 0.15261
 H367 H 0.55304 0.93493 0.11987
 H368 H 0.46473 0.80375 0.11559
 C369 C 0.39542 0.47749 0.09724
 C370 C 0.37342 0.49515 0.09583
 C371 C 0.33827 0.48313 0.12987
 C372 C 0.32600 0.50954 0.13656
 H373 H 0.38493 0.52293 0.07372
 H374 H 0.32596 0.45603 0.15353
 H375 H 0.38507 0.44939 0.11795
 H376 H 0.34095 0.53754 0.11477
 C377 C 0.08187 0.60653 0.09429
 C378 C 0.12117 0.63099 0.09104
 C379 C 0.14250 0.66682 0.12517
 C380 C 0.18166 0.68255 0.13180
 H381 H 0.13849 0.62158 0.06733
 H382 H 0.12604 0.67652 0.15005
 H383 H 0.06358 0.61510 0.11707
 H384 H 0.19683 0.67011 0.10930
 C385 C 0.47481 0.08299 0.59722
 C386 C 0.48814 0.12205 0.59164
 C387 C 0.47892 0.14511 0.63007
 C388 C 0.50661 0.18334 0.63824
 H389 H 0.51200 0.13871 0.56325
 H390 H 0.45256 0.13049 0.65497
 H391 H 0.45155 0.06521 0.62571
 H392 H 0.53418 0.19608 0.61569
 C393 C 0.60291 0.52186 0.59639
 C394 C 0.62478 0.50399 0.59471
 C395 C 0.66031 0.51618 0.62838
 C396 C 0.67271 0.48987 0.63523
 H397 H 0.61305 0.47611 0.57259
 H398 H 0.67296 0.54352 0.65171
 H399 H 0.61352 0.54993 0.61746
 H400 H 0.65761 0.46164 0.61375
 C401 C 0.92187 0.39375 0.59894
 C402 C 0.88227 0.36990 0.59848
 C403 C 0.86088 0.33274 0.63017
 C404 C 0.82105 0.31398 0.63111
 H405 H 0.86463 0.38030 0.57764
 H406 H 0.87715 0.32393 0.65691
 H407 H 0.94079 0.38412 0.61785
 H408 H 0.80608 0.32507 0.60544
   
