data_POSCAR
  _audit_creation_date              2014-09-24
  _audit_creation_method            'ToBaCCo'
  _symmetry_space_group_name_H-M    'P1'
  _symmetry_Int_Tables_number       1
  _symmetry_cell_setting            triclinic
  loop_
  _symmetry_equiv_pos_as_xyz
 x,y,z
_cell_length_a 51.7511
_cell_length_b 51.5762
_cell_length_c 51.3358
_cell_angle_alpha 90.169200
_cell_angle_beta 89.991100
_cell_angle_gamma 90.003500
loop_
  _atom_site_label
  _atom_site_type_symbol
  _atom_site_fract_x
  _atom_site_fract_y
  _atom_site_fract_z
N1 N 0.13979 0.15884 0.21051
 N2 N 0.16002 0.14400 0.21446
 C3 C 0.15587 0.12944 0.23581
 C4 C 0.13150 0.13528 0.24565
 C5 C 0.12193 0.15401 0.22886
 H6 H 0.16946 0.11544 0.24334
 H7 H 0.10378 0.16423 0.23033
 Cu8 Cu 0.18921 0.14505 0.19057
 Cu9 Cu 0.13888 0.18519 0.18351
 Cu10 Cu 0.19329 0.19090 0.14431
 N11 N 0.21848 0.14656 0.16684
 N12 N 0.22053 0.16527 0.14964
 C13 C 0.24195 0.16145 0.13527
 C14 C 0.25386 0.13875 0.14349
 C15 C 0.23831 0.12995 0.16370
 H16 H 0.24741 0.17348 0.11898
 H17 H 0.24092 0.11258 0.17510
 N18 N 0.16318 0.21426 0.14170
 N19 N 0.14193 0.21093 0.15552
 C20 C 0.12426 0.22858 0.14818
 C21 C 0.13489 0.24391 0.12897
 C22 C 0.15963 0.23439 0.12537
 H23 H 0.10521 0.23058 0.15658
 H24 H 0.17373 0.24128 0.11148
 H25 H 0.16399 0.16738 0.15746
 H26 H 0.17850 0.19016 0.18171
 N27 N -0.15082 0.83331 0.22232
 N28 N -0.16939 0.85070 0.22214
 C29 C -0.16696 0.86599 0.24337
 C30 C -0.14600 0.85733 0.25770
 C31 C -0.13628 0.83659 0.24377
 H32 H -0.17959 0.88198 0.24826
 H33 H -0.11949 0.82510 0.24862
 Cu34 Cu -0.19516 0.85086 0.19442
 Cu35 Cu -0.14613 0.80817 0.19452
 Cu36 Cu -0.19074 0.80878 0.14428
 N37 N -0.21995 0.85125 0.16581
 N38 N -0.21766 0.83517 0.14605
 C39 C -0.23651 0.83998 0.12869
 C40 C -0.25181 0.86008 0.13810
 C41 C -0.24064 0.86662 0.16186
 H42 H -0.23901 0.82923 0.11079
 H43 H -0.24669 0.88179 0.17507
 N44 N -0.16200 0.78368 0.14607
 N45 N -0.14451 0.78417 0.16478
 C46 C -0.12687 0.76555 0.16021
 C47 C -0.13372 0.75246 0.13777
 C48 C -0.15615 0.76435 0.12933
 H49 H -0.11047 0.76139 0.17255
 H50 H -0.16711 0.75950 0.11207
 H51 H -0.16420 0.82962 0.16563
 H52 H -0.18468 0.80594 0.18380
 N53 N -0.15242 0.16770 -0.21754
 N54 N -0.16761 0.14748 -0.21472
 C55 C -0.16075 0.12900 -0.23190
 C56 C -0.14028 0.13822 -0.24654
 C57 C -0.13563 0.16297 -0.23703
 H58 H -0.17022 0.11041 -0.23384
 H59 H -0.12076 0.17630 -0.24330
 Cu60 Cu -0.19551 0.14751 -0.18951
 Cu61 Cu -0.15506 0.19772 -0.19436
 Cu62 Cu -0.18234 0.18051 -0.13505
 N63 N -0.21741 0.14468 -0.15910
 N64 N -0.21173 0.15697 -0.13743
 C65 C -0.22884 0.15026 -0.11891
 C66 C -0.24657 0.13300 -0.12968
 C67 C -0.23859 0.13009 -0.15539
 H68 H -0.22842 0.15777 -0.09925
 H69 H -0.24698 0.11779 -0.17022
 N70 N -0.15948 0.21084 -0.13950
 N71 N -0.15024 0.21818 -0.16229
 C72 C -0.13644 0.24010 -0.15909
 C73 C -0.13684 0.24681 -0.13292
 C74 C -0.15175 0.22785 -0.12118
 H75 H -0.12641 0.25002 -0.17461
 H76 H -0.15708 0.22679 -0.10086
 H77 H -0.16054 0.17031 -0.16746
 H78 H -0.18923 0.19152 -0.17251
 N79 N 0.14472 0.84280 -0.21226
 N80 N 0.16666 0.85420 -0.21816
 C81 C 0.16284 0.87000 -0.23869
 C82 C 0.13703 0.86855 -0.24582
 C83 C 0.12618 0.85111 -0.22858
 H84 H 0.17764 0.88184 -0.24759
 H85 H 0.10640 0.84436 -0.22844
 Cu86 Cu 0.19800 0.84764 -0.19814
 Cu87 Cu 0.14213 0.81641 -0.18544
 Cu88 Cu 0.19485 0.80903 -0.14513
 N89 N 0.22481 0.84792 -0.17144
 N90 N 0.22306 0.83343 -0.15052
 C91 C 0.24309 0.83864 -0.13465
 C92 C 0.25856 0.85738 -0.14624
 C93 C 0.24626 0.86264 -0.16975
 H94 H 0.24605 0.82930 -0.11608
 H95 H 0.25183 0.87679 -0.18419
 N96 N 0.16401 0.78675 -0.14286
 N97 N 0.14339 0.79045 -0.15749
 C98 C 0.12530 0.77282 -0.15113
 C99 C 0.13509 0.75707 -0.13177
 C100 C 0.15973 0.76639 -0.12704
 H101 H 0.10667 0.77096 -0.16048
 H102 H 0.17342 0.75897 -0.11301
 H103 H 0.16984 0.83466 -0.16276
 H104 H 0.18088 0.80633 -0.18295
 N105 N 0.16886 1.15055 0.78050
 N106 N 0.14945 1.16683 0.78266
 C107 C 0.13395 1.16420 0.76173
 C108 C 0.14454 1.14550 0.74549
 C109 C 0.16666 1.13729 0.75805
 H110 H 0.11659 1.17537 0.75835
 H111 H 0.17992 1.12241 0.75156
 Cu112 Cu 0.14689 1.19076 0.81190
 Cu113 Cu 0.19507 1.14706 0.80718
 Cu114 Cu 0.19852 1.19657 0.85206
 N115 N 0.15206 1.22102 0.83393
 N116 N 0.17270 1.22375 0.84862
 C117 C 0.17136 1.24658 0.86129
 C118 C 0.14857 1.25876 0.85433
 C119 C 0.13678 1.24193 0.83694
 H120 H 0.18545 1.25338 0.87528
 H121 H 0.11850 1.24469 0.82712
 N122 N 0.22234 1.16680 0.85227
 N123 N 0.22023 1.14737 0.83565
 C124 C 0.23786 1.12918 0.84152
 C125 C 0.25194 1.13767 0.86273
 C126 C 0.24169 1.16165 0.86901
 H127 H 0.24050 1.11120 0.83098
 H128 H 0.24747 1.17406 0.88500
 H129 H 0.17683 1.16600 0.83840
 H130 H 0.19339 1.18701 0.81352
 N131 N 0.82909 0.84634 0.77457
 N132 N 0.84684 0.82813 0.77542
 C133 C 0.86326 0.83135 0.75530
 C134 C 0.85551 0.85291 0.74131
 C135 C 0.83379 0.86193 0.75415
 H136 H 0.87981 0.81918 0.75128
 H137 H 0.82200 0.87839 0.74878
 Cu138 Cu 0.84644 0.80224 0.80293
 Cu139 Cu 0.80069 0.84812 0.79946
 Cu140 Cu 0.79964 0.80152 0.84812
 N141 N 0.84603 0.77625 0.83034
 N142 N 0.82714 0.77564 0.84747
 C143 C 0.83062 0.75529 0.86345
 C144 C 0.85304 0.74260 0.85615
 C145 C 0.86237 0.75647 0.83510
 H146 H 0.81799 0.75029 0.87945
 H147 H 0.87948 0.75210 0.82383
 N148 N 0.77360 0.82934 0.84538
 N149 N 0.77361 0.84663 0.82646
 C150 C 0.75299 0.86231 0.82936
 C151 C 0.73954 0.85474 0.85131
 C152 C 0.75319 0.83386 0.86104
 H153 H 0.74828 0.87838 0.81674
 H154 H 0.74831 0.82258 0.87807
 H155 H 0.82000 0.83075 0.82997
 H156 H 0.80020 0.80918 0.80867
 N157 N 0.16775 0.85347 1.22042
 N158 N 0.14616 0.84073 1.21617
 C159 C 0.12954 0.84552 1.23577
 C160 C 0.14146 0.86197 1.25342
 C161 C 0.16571 0.86663 1.24301
 H162 H 0.11048 0.83709 1.23737
 H163 H 0.18069 0.87880 1.25116
 Cu164 Cu 0.14212 0.81789 1.18632
 Cu165 Cu 0.19670 0.85203 1.19626
 Cu166 Cu 0.19492 0.80250 1.15095
 N167 N 0.14314 0.78742 1.16409
 N168 N 0.16412 0.78076 1.15128
 C169 C 0.15955 0.75859 1.13816
 C170 C 0.13429 0.75106 1.14290
 C171 C 0.12445 0.76988 1.15940
 H172 H 0.17332 0.74906 1.12551
 H173 H 0.10523 0.77062 1.16765
 N174 N 0.22397 0.82711 1.15358
 N175 N 0.22407 0.84669 1.17019
 C176 C 0.24504 0.86146 1.16575
 C177 C 0.25893 0.85055 1.14549
 C178 C 0.24510 0.82871 1.13834
 H179 H 0.24979 0.87898 1.17633
 H180 H 0.24953 0.81567 1.12242
 H181 H 0.17847 0.83687 1.16326
 H182 H 0.18854 0.81326 1.18915
 N183 N 0.84411 1.14528 1.21062
 N184 N 0.85810 1.16637 1.21346
 C185 C 0.87462 1.16300 1.23347
 C186 C 0.87090 1.13836 1.24346
 C187 C 0.85144 1.12768 1.22841
 H188 H 0.88838 1.17727 1.24025
 H189 H 0.84265 1.10883 1.23086
 Cu190 Cu 0.85323 1.19581 1.19031
 Cu191 Cu 0.81581 1.14292 1.18576
 Cu192 Cu 0.80409 1.19701 1.14746
 N193 N 0.84774 1.22532 1.16743
 N194 N 0.82792 1.22605 1.15142
 C195 C 0.82901 1.24804 1.13738
 C196 C 0.85087 1.26166 1.14472
 C197 C 0.86230 1.24667 1.16385
 H198 H 0.81573 1.25303 1.12194
 H199 H 0.88015 1.25079 1.17397
 N200 N 0.78256 1.16545 1.14616
 N201 N 0.78788 1.14446 1.15980
 C202 C 0.77063 1.12585 1.15381
 C203 C 0.75351 1.13559 1.13567
 C204 C 0.76160 1.16078 1.13129
 H205 H 0.77016 1.10677 1.16243
 H206 H 0.75308 1.17449 1.11792
 H207 H 0.83016 1.16909 1.15872
 H208 H 0.80845 1.18235 1.18457
 O209 O 0.46312 0.95099 0.95803
 O210 O 0.43507 0.97704 0.98086
 C211 C 0.43998 0.95838 0.96462
 O212 O 0.53454 0.95675 1.05288
 O213 O 0.56366 0.97736 1.02634
 C214 C 0.55799 0.96223 1.04563
 O215 O 0.46180 0.95463 1.04832
 O216 O 0.43448 0.97942 1.02354
 C217 C 0.43885 0.96178 1.04092
 O218 O 0.53625 0.95196 0.95670
 O219 O 0.56446 0.97578 0.98159
 C220 C 0.55947 0.95856 0.96386
 Zr221 Zr 0.49975 0.96492 0.97074
 O222 O 0.50183 0.92405 0.97381
 O223 O 0.49748 0.96187 0.92968
 Zr224 Zr 0.49868 0.96836 1.03648
 O225 O 0.50113 0.92744 1.03845
 O226 O 0.49478 0.97035 1.07748
 O227 O 0.47609 0.96208 1.00345
 O228 O 0.52160 0.96148 1.00422
 O229 O 0.53766 1.04091 0.95235
 O230 O 0.56496 1.01905 0.97970
 C231 C 0.56057 1.03445 0.96032
 O232 O 0.46407 1.05045 1.04375
 O233 O 0.43552 1.02403 1.02216
 C234 C 0.44081 1.04331 1.03754
 O235 O 0.53645 1.04670 1.04738
 O236 O 0.56462 1.02071 1.02475
 C237 C 0.55961 1.03895 1.04144
 O238 O 0.46524 1.04561 0.95448
 O239 O 0.43615 1.02159 0.97792
 C240 C 0.44183 1.03925 0.96096
 Zr241 Zr 0.50102 1.03040 0.96749
 O242 O 0.50518 1.07117 0.96534
 O243 O 0.49820 1.02808 0.92639
 Zr244 Zr 0.50008 1.03387 1.03335
 O245 O 0.50379 1.07471 1.03232
 O246 O 0.49648 1.03493 1.07444
 Zr247 Zr 0.46154 1.00022 1.00144
 Zr248 Zr 0.53826 0.99867 1.00271
 O249 O 0.52303 1.03644 1.00053
 O250 O 0.47766 1.03771 0.99981
 O251 O 0.52348 0.99697 0.96445
 O252 O 0.47688 1.00180 1.03935
 O253 O 0.47803 0.99789 0.96402
 O254 O 0.52233 1.00093 1.04044
 H255 H 0.53310 0.94615 1.00510
 H256 H 0.46484 1.00275 1.05434
 H257 H 0.53497 1.05143 0.99988
 H258 H 0.46655 0.99741 0.94859
 H259 H 0.50851 0.98200 1.08403
 H260 H 0.51192 1.02639 1.08186
 H261 H 0.49099 1.08127 1.01965
 H262 H 0.49095 1.07900 0.97554
 H263 H 0.51270 1.01722 0.92014
 H264 H 0.51102 0.97324 0.92236
 H265 H 0.48585 0.91808 0.98253
 H266 H 0.48725 0.92031 1.02730
 O267 O -0.04659 0.46348 0.04290
 O268 O -0.02159 0.43558 0.01890
 C269 C -0.03966 0.44032 0.03572
 O270 O -0.04261 0.53890 -0.04755
 O271 O -0.01867 0.56630 -0.02180
 C272 C -0.03541 0.56191 -0.04009
 O273 O -0.04556 0.46561 -0.04755
 O274 O -0.02154 0.43654 -0.02402
 C275 C -0.03918 0.44210 -0.04100
 O276 O -0.04415 0.53603 0.04697
 O277 O -0.01978 0.56477 0.02345
 C278 C -0.03715 0.55940 0.04084
 Zr279 Zr -0.03131 0.50002 0.03184
 O280 O -0.07210 0.50306 0.03214
 O281 O -0.03067 0.49625 0.07289
 Zr282 Zr -0.03087 0.50180 -0.03409
 O283 O -0.07164 0.50504 -0.03429
 O284 O -0.03043 0.50010 -0.07528
 O285 O -0.03641 0.47790 -0.00182
 O286 O -0.03551 0.52344 -0.00052
 O287 O 0.04691 0.53521 0.04776
 O288 O 0.02361 0.56457 0.02385
 C289 C 0.04038 0.55876 0.04170
 O290 O 0.04865 0.46461 -0.04695
 O291 O 0.02286 0.43614 -0.02461
 C292 C 0.04098 0.44131 -0.04121
 O293 O 0.04777 0.53768 -0.04665
 O294 O 0.02418 0.56568 -0.02128
 C295 C 0.04130 0.56088 -0.03911
 O296 O 0.04889 0.46240 0.04259
 O297 O 0.02328 0.43491 0.01869
 C298 C 0.04175 0.43936 0.03518
 Zr299 Zr 0.03399 0.49931 0.03232
 O300 O 0.07478 0.50175 0.03399
 O301 O 0.03247 0.49509 0.07332
 Zr302 Zr 0.03447 0.50100 -0.03361
 O303 O 0.07532 0.50319 -0.03363
 O304 O 0.03411 0.49941 -0.07485
 Zr305 Zr 0.00116 0.46213 -0.00197
 Zr306 Zr 0.00206 0.53908 0.00027
 O307 O 0.03925 0.52252 0.00006
 O308 O 0.03907 0.47707 -0.00132
 O309 O 0.00156 0.52273 0.03786
 O310 O 0.00156 0.47905 -0.03923
 O311 O 0.00110 0.47700 0.03621
 O312 O 0.00214 0.52468 -0.03824
 H313 H -0.05058 0.53526 -0.00042
 H314 H 0.00144 0.46770 -0.05484
 H315 H 0.05461 0.53398 0.00056
 H316 H 0.00101 0.46467 0.05097
 H317 H -0.01973 0.51472 -0.08150
 H318 H 0.02478 0.51492 -0.08113
 H319 H 0.08186 0.48838 -0.02339
 H320 H 0.08168 0.48957 0.02081
 H321 H 0.02359 0.51053 0.08047
 H322 H -0.02117 0.51133 0.08002
 H323 H -0.07890 0.48969 0.02011
 H324 H -0.07863 0.49021 -0.02434
 O325 O 1.04207 -0.04577 0.46381
 O326 O 1.01952 -0.01980 0.43558
 C327 C 1.03531 -0.03867 0.44049
 O328 O 0.94992 -0.04056 0.53640
 O329 O 0.97530 -0.01809 0.56536
 C330 C 0.95678 -0.03414 0.55990
 O331 O 0.95266 -0.04187 0.46314
 O332 O 0.97718 -0.01735 0.43530
 C333 C 0.95969 -0.03472 0.43993
 O334 O 1.04478 -0.04300 0.53745
 O335 O 1.02007 -0.01936 0.56605
 C336 C 1.03802 -0.03618 0.56090
 Zr337 Zr 1.03016 -0.03112 0.50073
 O338 O 1.02706 -0.07195 0.50365
 O339 O 1.07081 -0.03443 0.49798
 Zr340 Zr 0.96499 -0.02800 0.50010
 O341 O 0.96282 -0.06892 0.50229
 O342 O 0.92427 -0.02547 0.49701
 O343 O 0.99757 -0.03433 0.47712
 O344 O 0.99719 -0.03443 0.52305
 O345 O 1.04768 0.04637 0.53843
 O346 O 1.02108 0.02407 0.56617
 C347 C 1.03961 0.04029 0.56159
 O348 O 0.95755 0.05364 0.46420
 O349 O 0.97908 0.02694 0.43580
 C350 C 0.96387 0.04626 0.44081
 O351 O 0.95404 0.05054 0.53754
 O352 O 0.97695 0.02518 0.56596
 C353 C 0.96018 0.04315 0.56093
 O354 O 1.04729 0.04818 0.46519
 O355 O 1.02263 0.02492 0.43625
 C356 C 1.04034 0.04185 0.44169
 Zr357 Zr 1.03346 0.03437 0.50151
 O358 O 1.03556 0.07528 0.50440
 O359 O 1.07424 0.03177 0.49938
 Zr360 Zr 0.96794 0.03758 0.50082
 O361 O 0.96879 0.07847 0.50417
 O362 O 0.92718 0.03851 0.49735
 Zr363 Zr 0.99951 0.00369 0.46220
 Zr364 Zr 0.99867 0.00298 0.53945
 O365 O 1.00063 0.04056 0.52366
 O366 O 1.00123 0.04136 0.47808
 O367 O 1.03656 0.00126 0.52440
 O368 O 0.96197 0.00523 0.47784
 O369 O 1.03673 0.00156 0.47858
 O370 O 0.96113 0.00485 0.52365
 H371 H 0.99664 -0.04962 0.53481
 H372 H 0.94702 0.00609 0.46582
 H373 H 1.00108 0.05583 0.53542
 H374 H 1.05198 0.00075 0.46693
 H375 H 0.91800 -0.01537 0.51216
 H376 H 0.91992 0.02945 0.51265
 H377 H 0.98183 0.08485 0.49166
 H378 H 1.02589 0.08257 0.48951
 H379 H 1.08025 0.02227 0.51496
 H380 H 1.07828 -0.02164 0.51021
 H381 H 1.01823 -0.07827 0.48776
 H382 H 0.97398 -0.07603 0.48835
 C383 C 1.09296 0.13024 0.27295
 C384 C 1.08078 0.12012 0.29494
 C385 C 1.09459 0.10518 0.31277
 C386 C 1.12079 0.09989 0.30814
 C387 C 1.13294 0.10947 0.28579
 C388 C 1.11927 0.12503 0.26792
 N389 N 1.08137 0.09517 0.33505
 N390 N 1.09325 0.08686 0.35504
 C391 C 1.07956 0.07618 0.37675
 C392 C 1.09231 0.07327 0.40061
 C393 C 1.07940 0.06269 0.42203
 C394 C 1.05368 0.05427 0.41963
 C395 C 1.04096 0.05710 0.39563
 C396 C 1.05371 0.06816 0.37443
 H397 H 1.08140 0.14168 0.25975
 H398 H 1.06049 0.12412 0.29822
 H399 H 1.13178 0.08814 0.32162
 H400 H 1.15317 0.10500 0.28298
 H401 H 1.11226 0.07930 0.40261
 H402 H 1.08968 0.06053 0.44027
 H403 H 1.02111 0.05084 0.39330
 H404 H 1.04349 0.07007 0.35613
 C405 C 0.87651 -0.14849 0.30027
 C406 C 0.88770 -0.13840 0.32288
 C407 C 0.88768 -0.11167 0.32747
 C408 C 0.87534 -0.09510 0.30967
 C409 C 0.86356 -0.10526 0.28733
 C410 C 0.86449 -0.13200 0.28222
 N411 N 0.90075 -0.10178 0.34998
 N412 N 0.90772 -0.07818 0.35154
 C413 C 0.92074 -0.06796 0.37392
 C414 C 0.93320 -0.04402 0.37188
 C415 C 0.94626 -0.03350 0.39322
 C416 C 0.94657 -0.04653 0.41724
 C417 C 0.93387 -0.07053 0.41933
 C418 C 0.92124 -0.08130 0.39776
 H419 H 0.87724 -0.16921 0.29688
 H420 H 0.89704 -0.15135 0.33651
 H421 H 0.87491 -0.07437 0.31298
 H422 H 0.85448 -0.09215 0.27367
 H423 H 0.93295 -0.03358 0.35361
 H424 H 0.95577 -0.01495 0.39100
 H425 H 0.93387 -0.08103 0.43757
 H426 H 0.91164 -0.09984 0.39977
 C427 C 0.87403 0.09726 0.73150
 C428 C 0.88631 0.08429 0.71102
 C429 C 0.89757 0.09826 0.69066
 C430 C 0.89726 0.12549 0.69143
 C431 C 0.88546 0.13851 0.71218
 C432 C 0.87338 0.12451 0.73221
 N433 N 0.90902 0.08448 0.66936
 N434 N 0.91236 0.09508 0.64727
 C435 C 0.92425 0.08165 0.62598
 C436 C 0.92115 0.09131 0.60074
 C437 C 0.93248 0.07863 0.57952
 C438 C 0.94763 0.05631 0.58330
 C439 C 0.95107 0.04696 0.60880
 C440 C 0.93921 0.05931 0.62991
 H441 H 0.86517 0.08596 0.74684
 H442 H 0.88658 0.06329 0.71071
 H443 H 0.90618 0.13666 0.67604
 H444 H 0.88528 0.15949 0.71223
 H445 H 0.90971 0.10859 0.59752
 H446 H 0.92958 0.08649 0.56020
 H447 H 0.96298 0.03014 0.61251
 H448 H 0.94208 0.05165 0.64931
 C449 C 1.09703 -0.11340 0.73377
 C450 C 1.08416 -0.10164 0.71300
 C451 C 1.09758 -0.09482 0.69040
 C452 C 1.12436 -0.09927 0.68903
 C453 C 1.13737 -0.11065 0.71001
 C454 C 1.12375 -0.11813 0.73246
 N455 N 1.08352 -0.08363 0.66917
 N456 N 1.09330 -0.08095 0.64658
 C457 C 1.07908 -0.06971 0.62548
 C458 C 1.08932 -0.07101 0.60028
 C459 C 1.07582 -0.06047 0.57923
 C460 C 1.05192 -0.04805 0.58309
 C461 C 1.04176 -0.04659 0.60848
 C462 C 1.05513 -0.05745 0.62946
 H463 H 1.08606 -0.11868 0.75091
 H464 H 1.06356 -0.09819 0.71435
 H465 H 1.13518 -0.09401 0.67179
 H466 H 1.15793 -0.11418 0.70841
 H467 H 1.10778 -0.08035 0.59695
 H468 H 1.08429 -0.06174 0.55997
 H469 H 1.02339 -0.03718 0.61211
 H470 H 1.04685 -0.05610 0.64878
 C471 C 0.28239 1.10092 1.13952
 C472 C 0.30326 1.08834 1.12770
 C473 C 0.31843 1.10115 1.10928
 C474 C 0.31247 1.12682 1.10262
 C475 C 0.29121 1.13928 1.11393
 C476 C 0.27574 1.12651 1.13256
 N477 N 0.33936 1.08746 1.09723
 N478 N 0.35759 1.09907 1.08539
 C479 C 0.37799 1.08501 1.07285
 C480 C 0.40157 1.09743 1.06814
 C481 C 0.42207 1.08389 1.05668
 C482 C 0.41902 1.05786 1.04909
 C483 C 0.39507 1.04568 1.05312
 C484 C 0.37481 1.05903 1.06517
 H485 H 0.27116 1.09009 1.15352
 H486 H 0.30765 1.06851 1.13295
 H487 H 0.32393 1.13708 1.08834
 H488 H 0.28723 1.15902 1.10813
 H489 H 0.40421 1.11748 1.07386
 H490 H 0.44027 1.09382 1.05362
 H491 H 0.39219 1.02567 1.04745
 H492 H 0.35664 1.04914 1.06835
 C493 C 0.29671 0.88536 0.84858
 C494 C 0.31900 0.89689 0.85888
 C495 C 0.32593 0.89288 0.88488
 C496 C 0.31067 0.87657 0.90039
 C497 C 0.28875 0.86454 0.89001
 C498 C 0.28117 0.86894 0.86398
 N499 N 0.34841 0.90555 0.89516
 N500 N 0.35171 0.90841 0.91958
 C501 C 0.37419 0.92062 0.93036
 C502 C 0.37319 0.92989 0.95598
 C503 C 0.39457 0.94225 0.96705
 C504 C 0.41763 0.94490 0.95285
 C505 C 0.41885 0.93506 0.92731
 C506 C 0.39717 0.92327 0.91601
 H507 H 0.29203 0.88917 0.82842
 H508 H 0.33068 0.90932 0.84666
 H509 H 0.31577 0.87301 0.92051
 H510 H 0.27756 0.85227 0.90280
 H511 H 0.35563 0.92786 0.96727
 H512 H 0.39317 0.94952 0.98682
 H513 H 0.43638 0.93698 0.91594
 H514 H 0.39841 0.91605 0.89623
 C515 C 0.71990 0.86512 1.10008
 C516 C 0.69854 0.87647 1.08803
 C517 C 0.68270 0.89369 1.10169
 C518 C 0.68868 0.89989 1.12763
 C519 C 0.71044 0.88904 1.13961
 C520 C 0.72636 0.87131 1.12608
 N521 N 0.66111 0.90503 1.08852
 N522 N 0.64232 0.91555 1.10056
 C523 C 0.62139 0.92737 1.08670
 C524 C 0.59781 0.93164 1.09941
 C525 C 0.57697 0.94271 1.08605
 C526 C 0.57970 0.95028 1.05992
 C527 C 0.60356 0.94647 1.04741
 C528 C 0.62413 0.93489 1.06056
 H529 H 0.73154 0.85195 1.08862
 H530 H 0.69420 0.87169 1.06794
 H531 H 0.67677 0.91338 1.13849
 H532 H 0.71438 0.89438 1.15960
 H533 H 0.59549 0.92606 1.11959
 H534 H 0.55888 0.94566 1.09622
 H535 H 0.60622 0.95214 1.02732
 H536 H 0.64223 0.93203 1.05039
 C537 C 0.72857 1.12329 0.90983
 C538 C 0.70753 1.11142 0.92199
 C539 C 0.68944 1.09750 0.90739
 C540 C 0.69291 1.09495 0.88041
 C541 C 0.71419 1.10637 0.86822
 C542 C 0.73227 1.12098 0.88269
 N543 N 0.66772 1.08626 0.92040
 N544 N 0.64793 1.07820 0.90809
 C545 C 0.62640 1.06681 0.92130
 C546 C 0.60288 1.06408 0.90811
 C547 C 0.58131 1.05377 0.92082
 C548 C 0.58318 1.04549 0.94680
 C549 C 0.60697 1.04773 0.95982
 C550 C 0.62835 1.05848 0.94726
 H551 H 0.74197 1.13396 0.92194
 H552 H 0.70511 1.11339 0.94286
 H553 H 0.67923 1.08409 0.86874
 H554 H 0.71596 1.10403 0.84737
 H555 H 0.60119 1.07032 0.88805
 H556 H 0.56326 1.05206 0.91026
 H557 H 0.60894 1.04154 0.97986
 H558 H 0.64639 1.06019 0.95779
 C559 C 0.09534 0.26625 0.11256
 C560 C 0.08322 0.28732 0.10071
 C561 C 0.09772 0.30852 0.09217
 C562 C 0.12475 0.30813 0.09487
 C563 C 0.13698 0.28681 0.10629
 C564 C 0.12232 0.26585 0.11558
 N565 N 0.08448 0.33023 0.08114
 N566 N 0.09541 0.35205 0.07773
 C567 C 0.08185 0.37358 0.06670
 C568 C 0.09291 0.39830 0.06809
 C569 C 0.07980 0.41979 0.05808
 C570 C 0.05555 0.41676 0.04610
 C571 C 0.04469 0.39182 0.04438
 C572 C 0.05763 0.37045 0.05475
 H573 H 0.08360 0.25022 0.11926
 H574 H 0.06240 0.28735 0.09858
 H575 H 0.13636 0.32426 0.08821
 H576 H 0.15778 0.28701 0.10846
 H577 H 0.11160 0.40094 0.07720
 H578 H 0.08877 0.43871 0.05951
 H579 H 0.02608 0.38883 0.03523
 H580 H 0.04875 0.35149 0.05330
 C581 C -0.11972 0.26912 -0.09306
 C582 C -0.10815 0.29038 -0.08081
 C583 C -0.10101 0.31219 -0.09521
 C584 C -0.10495 0.31230 -0.12229
 C585 C -0.11626 0.29090 -0.13465
 C586 C -0.12407 0.26920 -0.12010
 N587 N -0.08986 0.33389 -0.08185
 N588 N -0.08692 0.35588 -0.09263
 C589 C -0.07548 0.37735 -0.07912
 C590 C -0.07594 0.40192 -0.09064
 C591 C -0.06469 0.42321 -0.07803
 C592 C -0.05242 0.42009 -0.05383
 C593 C -0.05210 0.39540 -0.04225
 C594 C -0.06364 0.37426 -0.05470
 H595 H -0.12507 0.25259 -0.08130
 H596 H -0.10504 0.29000 -0.05995
 H597 H -0.09927 0.32885 -0.13387
 H598 H -0.11927 0.29158 -0.15549
 H599 H -0.08501 0.40454 -0.10945
 H600 H -0.06515 0.44196 -0.08746
 H601 H -0.04296 0.39242 -0.02351
 H602 H -0.06304 0.35547 -0.04537
 C603 C 0.09509 0.73424 -0.11707
 C604 C 0.08269 0.71293 -0.10591
 C605 C 0.09697 0.69145 -0.09765
 C606 C 0.12403 0.69176 -0.10002
 C607 C 0.13653 0.71335 -0.11065
 C608 C 0.12213 0.73466 -0.11953
 N609 N 0.08356 0.66974 -0.08679
 N610 N 0.09393 0.64746 -0.08477
 C611 C 0.08043 0.62605 -0.07338
 C612 C 0.08973 0.60088 -0.07736
 C613 C 0.07683 0.57960 -0.06660
 C614 C 0.05463 0.58327 -0.05118
 C615 C 0.04562 0.60866 -0.04690
 C616 C 0.05823 0.62983 -0.05810
 H617 H 0.08355 0.75051 -0.12352
 H618 H 0.06185 0.71297 -0.10402
 H619 H 0.13547 0.67544 -0.09353
 H620 H 0.15737 0.71314 -0.11242
 H621 H 0.10689 0.59773 -0.08902
 H622 H 0.08444 0.56035 -0.07008
 H623 H 0.02885 0.61223 -0.03484
 H624 H 0.05084 0.64915 -0.05451
 C625 C -0.09298 0.72841 0.12795
 C626 C -0.07989 0.70732 0.11705
 C627 C -0.09357 0.68755 0.10445
 C628 C -0.12058 0.68939 0.10223
 C629 C -0.13365 0.71082 0.11258
 C630 C -0.11997 0.73036 0.12579
 N631 N -0.07958 0.66603 0.09386
 N632 N -0.09054 0.64465 0.08825
 C633 C -0.07654 0.62346 0.07697
 C634 C -0.08760 0.59871 0.07705
 C635 C -0.07453 0.57772 0.06587
 C636 C -0.05035 0.58131 0.05390
 C637 C -0.03937 0.60624 0.05374
 C638 C -0.05221 0.62709 0.06541
 H639 H -0.08196 0.74333 0.13783
 H640 H -0.05907 0.70617 0.11875
 H641 H -0.13151 0.67441 0.09236
 H642 H -0.15447 0.71184 0.11077
 H643 H -0.10637 0.59569 0.08587
 H644 H -0.08361 0.55881 0.06613
 H645 H -0.02086 0.60966 0.04457
 H646 H -0.04334 0.64610 0.06498
 C647 C 1.15119 0.12538 0.70168
 C648 C 1.14148 0.11453 0.67872
 C649 C 1.11483 0.11317 0.67454
 C650 C 1.09788 0.12382 0.69313
 C651 C 1.10759 0.13514 0.71587
 C652 C 1.13430 0.13556 0.72057
 N653 N 1.10541 0.10016 0.65179
 N654 N 1.08196 0.09303 0.64996
 C655 C 1.07209 0.07982 0.62755
 C656 C 1.04749 0.06877 0.62897
 C657 C 1.03722 0.05551 0.60765
 C658 C 1.05129 0.05344 0.58429
 C659 C 1.07596 0.06473 0.58279
 C660 C 1.08641 0.07766 0.60436
 H661 H 1.17189 0.12573 0.70469
 H662 H 1.15472 0.10651 0.66449
 H663 H 1.07718 0.12317 0.69018
 H664 H 1.09417 0.14276 0.73016
 H665 H 1.03629 0.07036 0.64673
 H666 H 1.01803 0.04728 0.60932
 H667 H 1.08719 0.06343 0.56503
 H668 H 1.10548 0.08614 0.60285
 C669 C 0.88207 -0.15171 0.70070
 C670 C 0.89332 -0.14112 0.67834
 C671 C 0.89089 -0.11463 0.67303
 C672 C 0.87666 -0.09884 0.69015
 C673 C 0.86501 -0.10948 0.71222
 C674 C 0.86771 -0.13598 0.71780
 N675 N 0.90313 -0.10414 0.65035
 N676 N 0.90639 -0.07983 0.64768
 C677 C 0.91837 -0.06880 0.62517
 C678 C 0.92747 -0.04332 0.62662
 C679 C 0.93997 -0.03212 0.60535
 C680 C 0.94295 -0.04601 0.58199
 C681 C 0.93317 -0.07138 0.58026
 C682 C 0.92121 -0.08284 0.60182
 H683 H 0.88431 -0.17224 0.70440
 H684 H 0.90421 -0.15350 0.66528
 H685 H 0.87442 -0.07831 0.68640
 H686 H 0.85424 -0.09684 0.72513
 H687 H 0.92528 -0.03228 0.64446
 H688 H 0.94716 -0.01252 0.60710
 H689 H 0.93534 -0.08252 0.56247
 H690 H 0.91412 -0.10252 0.60024
 C691 C 1.14721 -0.12022 0.29853
 C692 C 1.13703 -0.11038 0.32178
 C693 C 1.11031 -0.10765 0.32491
 C694 C 1.09375 -0.11551 0.30467
 C695 C 1.10388 -0.12570 0.28157
 C696 C 1.13073 -0.12788 0.27815
 N697 N 1.10049 -0.09636 0.34845
 N698 N 1.07697 -0.08945 0.35053
 C699 C 1.06673 -0.07783 0.37370
 C700 C 1.04238 -0.06617 0.37255
 C701 C 1.03220 -0.05354 0.39433
 C702 C 1.04604 -0.05281 0.41788
 C703 C 1.07018 -0.06522 0.41929
 C704 C 1.08060 -0.07745 0.39726
 H705 H 1.16797 -0.12203 0.29661
 H706 H 1.15000 -0.10452 0.33727
 H707 H 1.07300 -0.11373 0.30666
 H708 H 1.09069 -0.13138 0.26621
 H709 H 1.03147 -0.06647 0.35455
 H710 H 1.01342 -0.04440 0.39275
 H711 H 1.08123 -0.06493 0.43720
 H712 H 1.09941 -0.08651 0.39861
 C713 C 0.88651 0.09910 0.26707
 C714 C 0.89806 0.08737 0.28861
 C715 C 0.90670 0.10237 0.30961
 C716 C 0.90434 0.12949 0.30855
 C717 C 0.89325 0.14133 0.28673
 C718 C 0.88393 0.12619 0.26594
 N719 N 0.91769 0.08948 0.33163
 N720 N 0.92117 0.10066 0.35349
 C721 C 0.93235 0.08714 0.37509
 C722 C 0.93065 0.09788 0.40012
 C723 C 0.94071 0.08462 0.42162
 C724 C 0.95305 0.06053 0.41829
 C725 C 0.95519 0.05012 0.39302
 C726 C 0.94479 0.06317 0.37168
 H727 H 0.87976 0.08698 0.25122
 H728 H 0.89992 0.06647 0.28914
 H729 H 0.91108 0.14147 0.32451
 H730 H 0.89140 0.16223 0.28639
 H731 H 0.92120 0.11640 0.40300
 H732 H 0.93896 0.09328 0.44078
 H733 H 0.96477 0.03176 0.38968
 H734 H 0.94658 0.05456 0.35251
 C735 C 0.15510 0.30240 -0.12512
 C736 C 0.14527 0.32526 -0.11426
 C737 C 0.11858 0.32938 -0.11301
 C738 C 0.10176 0.31072 -0.12362
 C739 C 0.11157 0.28807 -0.13483
 C740 C 0.13832 0.28349 -0.13533
 N741 N 0.10892 0.35214 -0.10027
 N742 N 0.08525 0.35402 -0.09384
 C743 C 0.07482 0.37631 -0.08095
 C744 C 0.04992 0.37470 -0.07059
 C745 C 0.03910 0.39578 -0.05748
 C746 C 0.05292 0.41911 -0.05489
 C747 C 0.07784 0.42089 -0.06563
 C748 C 0.08885 0.39954 -0.07840
 H749 H 0.17582 0.29952 -0.12549
 H750 H 0.15843 0.33953 -0.10626
 H751 H 0.08104 0.31355 -0.12306
 H752 H 0.09815 0.27384 -0.14242
 H753 H 0.03893 0.35692 -0.07252
 H754 H 0.01975 0.39390 -0.04966
 H755 H 0.08891 0.43863 -0.06387
 H756 H 0.10814 0.40121 -0.08637
 C757 C -0.15559 0.30378 0.12141
 C758 C -0.14572 0.32593 0.10926
 C759 C -0.11900 0.32985 0.10764
 C760 C -0.10221 0.31176 0.11909
 C761 C -0.11206 0.28993 0.13171
 C762 C -0.13884 0.28555 0.13270
 N763 N -0.10929 0.35208 0.09412
 N764 N -0.08609 0.35289 0.08595
 C765 C -0.07552 0.37493 0.07285
 C766 C -0.05217 0.37207 0.05946
 C767 C -0.04090 0.39319 0.04689
 C768 C -0.05255 0.41781 0.04797
 C769 C -0.07605 0.42067 0.06146
 C770 C -0.08757 0.39934 0.07364
 H771 H -0.17632 0.30096 0.12205
 H772 H -0.15887 0.33978 0.10062
 H773 H -0.08149 0.31450 0.11827
 H774 H -0.09868 0.27613 0.14008
 H775 H -0.04268 0.35337 0.05877
 H776 H -0.02277 0.39032 0.03676
 H777 H -0.08550 0.43938 0.06261
 H778 H -0.10558 0.40200 0.08405
 C779 C -0.15151 0.70058 -0.12010
 C780 C -0.14077 0.67846 -0.10873
 C781 C -0.11396 0.67495 -0.10831
 C782 C -0.09793 0.69361 -0.11997
 C783 C -0.10869 0.71545 -0.13189
 C784 C -0.13557 0.71924 -0.13184
 N785 N -0.10352 0.65236 -0.09600
 N786 N -0.07988 0.65102 -0.08932
 C787 C -0.06917 0.62840 -0.07731
 C788 C -0.04561 0.63052 -0.06417
 C789 C -0.03479 0.60897 -0.05188
 C790 C -0.04706 0.58467 -0.05310
 C791 C -0.07056 0.58248 -0.06670
 C792 C -0.08167 0.60422 -0.07850
 H793 H -0.17231 0.70290 -0.12001
 H794 H -0.15333 0.66417 -0.09990
 H795 H -0.07715 0.69121 -0.12004
 H796 H -0.09597 0.72960 -0.14070
 H797 H -0.03577 0.64903 -0.06315
 H798 H -0.01672 0.61131 -0.04156
 H799 H -0.08052 0.56405 -0.06790
 H800 H -0.09985 0.60212 -0.08872
 C801 C 0.09361 0.72863 0.12908
 C802 C 0.08078 0.70742 0.11807
 C803 C 0.09457 0.68537 0.11039
 C804 C 0.12150 0.68470 0.11383
 C805 C 0.13442 0.70608 0.12441
 C806 C 0.12060 0.72828 0.13209
 N807 N 0.08092 0.66429 0.09848
 N808 N 0.09132 0.64222 0.09483
 C809 C 0.07792 0.62152 0.08201
 C810 C 0.08829 0.59649 0.08286
 C811 C 0.07593 0.57599 0.07008
 C812 C 0.05315 0.58032 0.05580
 C813 C 0.04287 0.60553 0.05485
 C814 C 0.05501 0.62592 0.06802
 H815 H 0.08246 0.74550 0.13470
 H816 H 0.06003 0.70818 0.11547
 H817 H 0.13258 0.66785 0.10799
 H818 H 0.15519 0.70516 0.12677
 H819 H 0.10600 0.59289 0.09348
 H820 H 0.08445 0.55684 0.07105
 H821 H 0.02546 0.60953 0.04393
 H822 H 0.04671 0.64515 0.06692
 C823 C 0.27398 1.09667 0.87571
 C824 C 0.29456 1.08354 0.88728
 C825 C 0.31501 1.09736 0.89842
 C826 C 0.31438 1.12460 0.89859
 C827 C 0.29352 1.13777 0.88750
 C828 C 0.27333 1.12389 0.87565
 N829 N 0.33616 1.08330 0.90935
 N830 N 0.35766 1.09408 0.91457
 C831 C 0.37857 1.07990 0.92588
 C832 C 0.40317 1.09110 0.92650
 C833 C 0.42395 1.07770 0.93745
 C834 C 0.42023 1.05302 0.94838
 C835 C 0.39546 1.04187 0.94782
 C836 C 0.37483 1.05511 0.93650
 H837 H 0.25850 1.08551 0.86698
 H838 H 0.29479 1.06254 0.88720
 H839 H 0.32994 1.13565 0.90730
 H840 H 0.29348 1.15876 0.88763
 H841 H 0.40625 1.11020 0.91838
 H842 H 0.44279 1.08683 0.93779
 H843 H 0.39205 1.02285 0.95603
 H844 H 0.35593 1.04610 0.93631
 C845 C 0.30050 0.84452 1.12119
 C846 C 0.32259 0.85470 1.10927
 C847 C 0.32648 0.88153 1.10827
 C848 C 0.30822 0.89816 1.11980
 C849 C 0.28646 0.88800 1.13220
 C850 C 0.28233 0.86110 1.13290
 N851 N 0.34898 0.89154 1.09555
 N852 N 0.35014 0.91508 1.08827
 C853 C 0.37256 0.92592 1.07616
 C854 C 0.37018 0.94951 1.06308
 C855 C 0.39166 0.96094 1.05135
 C856 C 0.41614 0.94924 1.05306
 C857 C 0.41853 0.92553 1.06633
 C858 C 0.39685 0.91382 1.07760
 H859 H 0.29778 0.82370 1.12152
 H860 H 0.33652 0.84169 1.10045
 H861 H 0.31085 0.91897 1.11935
 H862 H 0.27260 0.90123 1.14077
 H863 H 0.35155 0.95898 1.06183
 H864 H 0.38910 0.97910 1.04117
 H865 H 0.43709 0.91596 1.06782
 H866 H 0.39911 0.89557 1.08772
 C867 C 0.73128 1.09476 1.12178
 C868 C 0.71019 1.08176 1.11090
 C869 C 0.68857 1.09559 1.10234
 C870 C 0.68845 1.12278 1.10431
 C871 C 0.70973 1.13585 1.11480
 C872 C 0.73127 1.12194 1.12383
 N873 N 0.66715 1.08160 1.09164
 N874 N 0.64535 1.09226 1.08757
 C875 C 0.62410 1.07831 1.07645
 C876 C 0.59965 1.08985 1.07623
 C877 C 0.57855 1.07687 1.06530
 C878 C 0.58170 1.05220 1.05400
 C879 C 0.60631 1.04065 1.05420
 C880 C 0.62731 1.05351 1.06548
 H881 H 0.74771 1.08354 1.12831
 H882 H 0.71056 1.06082 1.10935
 H883 H 0.67199 1.13390 1.09766
 H884 H 0.70913 1.15679 1.11629
 H885 H 0.59695 1.10897 1.08457
 H886 H 0.55989 1.08637 1.06526
 H887 H 0.60933 1.02164 1.04571
 H888 H 0.64607 1.04423 1.06534
 C889 C 0.69765 0.87838 0.84571
 C890 C 0.67528 0.88964 0.85608
 C891 C 0.67111 0.88988 0.88301
 C892 C 0.68930 0.87809 0.89952
 C893 C 0.71134 0.86631 0.88914
 C894 C 0.71585 0.86658 0.86217
 N895 N 0.64853 0.90233 0.89325
 N896 N 0.64732 0.90935 0.91700
 C897 C 0.62498 0.92152 0.92801
 C898 C 0.62767 0.93504 0.95147
 C899 C 0.60644 0.94728 0.96287
 C900 C 0.58183 0.94564 0.95132
 C901 C 0.57908 0.93177 0.92785
 C902 C 0.60055 0.91998 0.91613
 H903 H 0.70057 0.87866 0.82483
 H904 H 0.66139 0.89859 0.84315
 H905 H 0.68641 0.87790 0.92040
 H906 H 0.72513 0.85747 0.90226
 H907 H 0.64640 0.93635 0.96080
 H908 H 0.60932 0.95790 0.98083
 H909 H 0.56041 0.93024 0.91843
 H910 H 0.59804 0.90944 0.89804
   
