data_POSCAR
  _audit_creation_date              2014-09-24
  _audit_creation_method            'ToBaCCo'
  _symmetry_space_group_name_H-M    'P1'
  _symmetry_Int_Tables_number       1
  _symmetry_cell_setting            triclinic
  loop_
  _symmetry_equiv_pos_as_xyz
 x,y,z
_cell_length_a 35.3017
_cell_length_b 36.9609
_cell_length_c 26.9112
_cell_angle_alpha 90.391600
_cell_angle_beta 90.729400
_cell_angle_gamma 90.045300
loop_
  _atom_site_label
  _atom_site_type_symbol
  _atom_site_fract_x
  _atom_site_fract_y
  _atom_site_fract_z
Si1 Si 1.24507 0.25608 0.24696
 Si2 Si 0.75772 -0.25091 0.25244
 Si3 Si 0.74608 0.25373 -0.25398
 Si4 Si 1.25829 -0.25102 -0.24610
 Si5 Si 0.24323 0.25191 0.75124
 Si6 Si 0.75280 0.74578 0.74703
 Si7 Si 0.74309 0.25215 0.25007
 Si8 Si 0.25182 0.74682 0.24757
 O9 O 1.06363 -0.04627 0.09696
 O10 O 1.03791 -0.08890 0.04401
 C11 C 1.05954 -0.07940 0.08145
 O12 O 0.91833 0.04054 0.07612
 O13 O 0.95302 0.08582 0.04071
 C14 C 0.92508 0.07437 0.06765
 O15 O 0.93111 -0.05847 0.07627
 O16 O 0.97283 -0.09501 0.03438
 C17 C 0.94417 -0.08987 0.06338
 O18 O 1.05714 0.05397 0.09625
 O19 O 1.02163 0.09226 0.04734
 C20 C 1.04660 0.08596 0.08218
 Zr21 Zr 1.04181 0.00257 0.06810
 O22 O 1.03722 0.00409 0.14645
 O23 O 1.10154 0.00697 0.07043
 Zr24 Zr 0.94823 -0.00616 0.05555
 O25 O 0.95028 -0.00628 0.13404
 O26 O 0.88874 -0.01279 0.05604
 O27 O 0.99765 -0.03473 0.07029
 O28 O 0.99101 0.03008 0.07186
 O29 O 1.07003 0.05761 -0.07177
 O30 O 1.02624 0.09427 -0.03390
 C31 C 1.05675 0.08908 -0.05967
 O32 O 0.94337 -0.05492 -0.10025
 O33 O 0.97722 -0.09330 -0.04963
 C34 C 0.95348 -0.08695 -0.08585
 O35 O 0.93074 0.04460 -0.09414
 O36 O 0.95774 0.08764 -0.04305
 C37 C 0.93476 0.07773 -0.07883
 O38 O 1.07527 -0.04208 -0.08413
 O39 O 1.04364 -0.08692 -0.04314
 C40 C 1.06922 -0.07580 -0.07397
 Zr41 Zr 1.05032 0.00529 -0.05583
 O42 O 1.05666 0.01148 -0.13342
 O43 O 1.10937 0.00849 -0.04219
 Zr44 Zr 0.95647 -0.00354 -0.06957
 O45 O 0.96472 0.00200 -0.14701
 O46 O 0.89768 -0.01201 -0.08103
 Zr47 Zr 1.00461 -0.05494 -0.00254
 Zr48 Zr 0.99310 0.05401 0.00122
 O49 O 1.00073 0.03296 -0.07073
 O50 O 1.00740 -0.03156 -0.07371
 O51 O 1.04979 0.03676 0.00827
 O52 O 0.94833 -0.03648 -0.00907
 O53 O 1.05625 -0.02713 0.00586
 O54 O 0.94113 0.02634 -0.00696
 H55 H 0.98750 0.04590 0.10133
 H56 H 0.92705 -0.05382 -0.01270
 H57 H 1.00131 0.05012 -0.09885
 H58 H 1.08014 -0.04111 0.00817
 H59 H 0.88045 -0.01568 0.02106
 H60 H 0.88420 0.00427 -0.05789
 H61 H 0.97807 -0.01986 -0.15896
 H62 H 1.04196 -0.00809 -0.14988
 H63 H 1.12145 0.00996 -0.07518
 H64 H 1.10900 0.00666 0.10606
 H65 H 1.02017 -0.01590 0.15594
 H66 H 0.92367 -0.00836 0.14493
 O67 O 1.05141 0.56230 0.59785
 O68 O 1.09525 0.53812 0.54471
 C69 C 1.08576 0.55844 0.58205
 O70 O 0.95868 0.42466 0.57858
 O71 O 0.91148 0.45714 0.54048
 C72 C 0.92343 0.43017 0.56712
 O73 O 1.06244 0.43877 0.58422
 O74 O 1.10090 0.47583 0.53865
 C75 C 1.09532 0.45046 0.57083
 O76 O 0.94650 0.55662 0.59704
 O77 O 0.90545 0.52284 0.54865
 C78 C 0.91276 0.54650 0.58344
 Zr79 Zr 0.99967 0.54256 0.56875
 O80 O 1.00263 0.54264 0.64741
 O81 O 0.99466 0.59954 0.56708
 Zr82 Zr 1.00783 0.45294 0.55927
 O83 O 1.00547 0.45118 0.63782
 O84 O 1.01735 0.39642 0.55697
 O85 O 1.03812 0.50021 0.57282
 O86 O 0.97050 0.49417 0.57399
 O87 O 0.94127 0.56719 0.42575
 O88 O 0.90308 0.52715 0.46689
 C89 C 0.90850 0.55499 0.43868
 O90 O 1.05789 0.44380 0.40765
 O91 O 1.09871 0.47852 0.45500
 C92 C 1.09152 0.45338 0.42234
 O93 O 0.95388 0.43354 0.41201
 O94 O 0.90912 0.46164 0.45990
 C95 C 0.91930 0.43843 0.42619
 O96 O 1.04553 0.57314 0.41790
 O97 O 1.09267 0.54244 0.45907
 C98 C 1.08083 0.56778 0.42934
 Zr99 Zr 0.99594 0.54903 0.44445
 O100 O 0.98984 0.55347 0.36635
 O101 O 0.99229 0.60563 0.45555
 Zr102 Zr 1.00437 0.45967 0.43369
 O103 O 0.99872 0.47029 0.35669
 O104 O 1.01006 0.40407 0.41665
 Zr105 Zr 1.05897 0.50577 0.50011
 Zr106 Zr 0.94502 0.49564 0.50306
 O107 O 0.96627 0.50177 0.43092
 O108 O 1.03433 0.50781 0.42832
 O109 O 0.96342 0.54979 0.50831
 O110 O 1.03901 0.45208 0.49536
 O111 O 1.03027 0.55536 0.50657
 O112 O 0.97368 0.44585 0.49637
 H113 H 0.95372 0.49056 0.60277
 H114 H 1.05674 0.43136 0.49418
 H115 H 0.94797 0.50176 0.40268
 H116 H 1.04486 0.57824 0.50873
 H117 H 1.00128 0.38640 0.52983
 H118 H 1.01465 0.39163 0.44852
 H119 H 1.02413 0.47644 0.34409
 H120 H 1.01133 0.54045 0.35121
 H121 H 0.99054 0.61655 0.42205
 H122 H 0.99640 0.60783 0.60213
 H123 H 0.98822 0.52152 0.65926
 H124 H 1.02546 0.46752 0.65109
 O125 O 0.44190 -0.05330 0.39529
 O126 O 0.47610 -0.09241 0.44443
 C127 C 0.45230 -0.08557 0.40830
 O128 O 0.56941 0.05808 0.42709
 O129 O 0.52523 0.09472 0.46411
 C130 C 0.55598 0.08959 0.43880
 O131 O 0.57352 -0.04159 0.41219
 O132 O 0.54184 -0.08665 0.45269
 C133 C 0.56754 -0.07538 0.42219
 O134 O 0.42878 0.04592 0.40406
 O135 O 0.45639 0.08841 0.45562
 C136 C 0.43311 0.07890 0.41995
 Zr137 Zr 0.45378 -0.00267 0.42844
 O138 O 0.45534 -0.00213 0.34976
 O139 O 0.39420 -0.00862 0.42859
 Zr140 Zr 0.54761 0.00584 0.43910
 O141 O 0.54634 0.01204 0.36090
 O142 O 0.60737 0.00826 0.43691
 O143 O 0.50457 -0.03081 0.42255
 O144 O 0.49818 0.03398 0.42630
 O145 O 0.41914 0.04090 0.57688
 O146 O 0.45196 0.08614 0.53829
 C147 C 0.42502 0.07471 0.56698
 O148 O 0.56373 -0.04622 0.59087
 O149 O 0.53729 -0.08898 0.53894
 C150 C 0.55991 -0.07930 0.57534
 O151 O 0.55660 0.05339 0.59271
 O152 O 0.52094 0.09229 0.54517
 C153 C 0.54614 0.08557 0.57954
 O154 O 0.43096 -0.05853 0.57505
 O155 O 0.47178 -0.09492 0.53137
 C156 C 0.44376 -0.08990 0.56154
 Zr157 Zr 0.44669 -0.00624 0.55239
 O158 O 0.43898 -0.01018 0.63009
 O159 O 0.38796 -0.01145 0.53760
 Zr160 Zr 0.54072 0.00234 0.56408
 O161 O 0.53359 0.00301 0.64210
 O162 O 0.60036 0.00451 0.57309
 Zr163 Zr 0.50302 -0.05476 0.49352
 Zr164 Zr 0.49204 0.05432 0.49887
 O165 O 0.49007 0.02972 0.56895
 O166 O 0.49648 -0.03476 0.56648
 O167 O 0.43967 0.02724 0.49122
 O168 O 0.55460 -0.02647 0.50087
 O169 O 0.44661 -0.03679 0.48798
 O170 O 0.54869 0.03654 0.50423
 H171 H 0.49871 0.05194 0.39916
 H172 H 0.57880 -0.03997 0.50271
 H173 H 0.48715 0.04568 0.59836
 H174 H 0.42577 -0.05462 0.48442
 H175 H 0.61640 0.00961 0.47175
 H176 H 0.60973 0.02458 0.55241
 H177 H 0.51880 -0.01875 0.65085
 H178 H 0.45576 0.00773 0.64664
 H179 H 0.37573 -0.01426 0.57029
 H180 H 0.38602 -0.00969 0.39324
 H181 H 0.47186 0.01802 0.33956
 H182 H 0.53651 -0.01079 0.34620
 O183 O 0.55239 0.57055 0.08430
 O184 O 0.59550 0.53956 0.03699
 C185 C 0.58661 0.56338 0.07054
 O186 O 0.45698 0.43485 0.09396
 O187 O 0.41006 0.46377 0.05021
 C188 C 0.42180 0.43950 0.08157
 O189 O 0.56082 0.44707 0.09621
 O190 O 0.59967 0.47678 0.04197
 C191 C 0.59384 0.45524 0.07899
 O192 O 0.44743 0.57132 0.07886
 O193 O 0.40532 0.53101 0.04351
 C194 C 0.41337 0.56044 0.06823
 Zr195 Zr 0.50016 0.54968 0.05929
 O196 O 0.49791 0.55507 0.13757
 O197 O 0.49935 0.60634 0.04876
 Zr198 Zr 0.50624 0.46047 0.06992
 O199 O 0.50582 0.47220 0.14685
 O200 O 0.51338 0.40484 0.08513
 O201 O 0.53789 0.50754 0.07230
 O202 O 0.46958 0.50363 0.07550
 O203 O 0.44158 0.55803 -0.08787
 O204 O 0.40271 0.52536 -0.03691
 C205 C 0.40860 0.54896 -0.07144
 O206 O 0.55473 0.43269 -0.07972
 O207 O 0.59691 0.47133 -0.04090
 C208 C 0.58878 0.44337 -0.06854
 O209 O 0.45002 0.42685 -0.07432
 O210 O 0.40668 0.46051 -0.03083
 C211 C 0.41579 0.43454 -0.06106
 O212 O 0.54589 0.56054 -0.09722
 O213 O 0.59250 0.53526 -0.04867
 C214 C 0.58105 0.55653 -0.08418
 Zr215 Zr 0.49600 0.54148 -0.06513
 O216 O 0.48959 0.53753 -0.14330
 O217 O 0.49377 0.59866 -0.06586
 Zr218 Zr 0.50188 0.45182 -0.05562
 O219 O 0.49613 0.45040 -0.13407
 O220 O 0.50757 0.39485 -0.05392
 Zr221 Zr 0.55814 0.50380 -0.00105
 Zr222 Zr 0.44404 0.49724 0.00508
 O223 O 0.46517 0.49421 -0.06762
 O224 O 0.53301 0.49788 -0.07212
 O225 O 0.46409 0.55057 -0.00217
 O226 O 0.53681 0.45091 0.00650
 O227 O 0.53075 0.55416 -0.00518
 O228 O 0.47136 0.44668 0.00953
 H229 H 0.45268 0.50452 0.10462
 H230 H 0.55395 0.42977 0.00891
 H231 H 0.44707 0.49167 -0.09589
 H232 H 0.54604 0.57655 -0.00781
 H233 H 0.50912 0.39183 0.05336
 H234 H 0.49124 0.38590 -0.02704
 H235 H 0.52032 0.45872 -0.14829
 H236 H 0.50949 0.52095 -0.15534
 H237 H 0.49237 0.60576 -0.10129
 H238 H 0.50040 0.61747 0.08237
 H239 H 0.51837 0.53987 0.15172
 H240 H 0.50750 0.44855 0.16382
 C241 C 1.14756 0.18787 0.17384
 C242 C 1.16889 0.21091 0.14378
 C243 C 1.19817 0.23164 0.16553
 C244 C 1.20557 0.22985 0.21700
 C245 C 1.18400 0.20653 0.24644
 C246 C 1.15501 0.18539 0.22509
 C247 C 1.11799 0.16469 0.15091
 C248 C 1.09840 0.14001 0.18061
 C249 C 1.07270 0.11588 0.15808
 C250 C 1.06629 0.11656 0.10641
 C251 C 1.08470 0.14258 0.07736
 C252 C 1.11122 0.16634 0.09937
 C253 C 1.13395 0.16119 0.25379
 C254 C 1.10621 0.13878 0.23189
 C255 C 1.16096 0.21220 0.09247
 C256 C 1.13254 0.19040 0.07067
 H257 H 1.13942 0.15907 0.29338
 H258 H 1.09120 0.11990 0.25518
 H259 H 1.17716 0.22990 0.06884
 H260 H 1.12780 0.19180 0.03085
 H261 H 1.21537 0.24846 0.14215
 H262 H 1.19051 0.20390 0.28566
 H263 H 1.05887 0.09552 0.18032
 H264 H 1.08046 0.14251 0.03738
 C265 C 1.18182 0.66432 0.67378
 C266 C 1.17489 0.67438 0.72316
 C267 C 1.19647 0.70189 0.74505
 C268 C 1.22482 0.71950 0.71828
 C269 C 1.23125 0.70962 0.66847
 C270 C 1.20966 0.68189 0.64592
 C271 C 1.15978 0.63453 0.65117
 C272 C 1.16642 0.62432 0.60166
 C273 C 1.14394 0.59702 0.57972
 C274 C 1.11481 0.58073 0.60705
 C275 C 1.10970 0.59030 0.65713
 C276 C 1.13193 0.61727 0.67932
 C277 C 1.21583 0.67071 0.59664
 C278 C 1.19448 0.64249 0.57481
 C279 C 1.14714 0.65617 0.75028
 C280 C 1.12591 0.62809 0.72865
 H281 H 1.23727 0.68392 0.57472
 H282 H 1.19985 0.63497 0.53655
 H283 H 1.14173 0.66373 0.78852
 H284 H 1.10446 0.61492 0.75060
 H285 H 1.19210 0.70826 0.78369
 H286 H 1.25403 0.72204 0.64815
 H287 H 1.14754 0.59004 0.54086
 H288 H 1.08732 0.57774 0.67822
 C289 C 0.64809 0.18584 0.67325
 C290 C 0.66680 0.21162 0.64435
 C291 C 0.69617 0.23230 0.66608
 C292 C 0.70654 0.22737 0.71629
 C293 C 0.68761 0.20130 0.74451
 C294 C 0.65834 0.18048 0.72327
 C295 C 0.61822 0.16302 0.65025
 C296 C 0.60097 0.13607 0.67869
 C297 C 0.57487 0.11255 0.65581
 C298 C 0.56598 0.11572 0.60490
 C299 C 0.58210 0.14393 0.57728
 C300 C 0.60878 0.16741 0.59972
 C301 C 0.63964 0.15389 0.75080
 C302 C 0.61147 0.13202 0.72886
 C303 C 0.65613 0.21571 0.59415
 C304 C 0.62763 0.19401 0.57224
 H305 H 0.64725 0.14957 0.78944
 H306 H 0.59829 0.11133 0.75115
 H307 H 0.67028 0.23552 0.57141
 H308 H 0.62081 0.19762 0.53321
 H309 H 0.71101 0.25178 0.64371
 H310 H 0.69628 0.19651 0.78264
 H311 H 0.56275 0.09063 0.67700
 H312 H 0.57596 0.14592 0.53781
 C313 C 0.68263 0.66603 0.16762
 C314 C 0.70991 0.68505 0.14069
 C315 C 0.73113 0.71224 0.16489
 C316 C 0.72472 0.72030 0.21531
 C317 C 0.69683 0.70142 0.24117
 C318 C 0.67580 0.67420 0.21772
 C319 C 0.66101 0.63675 0.14318
 C320 C 0.63381 0.61796 0.17050
 C321 C 0.61183 0.59166 0.14669
 C322 C 0.61629 0.58444 0.09581
 C323 C 0.64481 0.60206 0.06911
 C324 C 0.66727 0.62864 0.09280
 C325 C 0.64872 0.65443 0.24390
 C326 C 0.62801 0.62673 0.22062
 C327 C 0.71593 0.67585 0.09060
 C328 C 0.69482 0.64824 0.06697
 H329 H 0.64345 0.66047 0.28266
 H330 H 0.60702 0.61231 0.24187
 H331 H 0.73699 0.69023 0.06943
 H332 H 0.69996 0.64233 0.02814
 H333 H 0.75362 0.72559 0.14519
 H334 H 0.69260 0.70654 0.28027
 H335 H 0.58983 0.57793 0.16714
 H336 H 0.64784 0.59674 0.02968
 C337 C 0.84533 -0.18975 0.15588
 C338 C 0.80679 -0.18935 0.14212
 C339 C 0.78071 -0.20828 0.17089
 C340 C 0.79294 -0.22755 0.21290
 C341 C 0.83169 -0.22835 0.22573
 C342 C 0.85807 -0.20924 0.19745
 C343 C 0.87253 -0.16796 0.12764
 C344 C 0.91077 -0.16664 0.14301
 C345 C 0.93577 -0.14314 0.11880
 C346 C 0.92224 -0.12096 0.08031
 C347 C 0.88440 -0.12382 0.06393
 C348 C 0.85931 -0.14716 0.08758
 C349 C 0.89674 -0.20837 0.21061
 C350 C 0.92263 -0.18738 0.18392
 C351 C 0.79498 -0.16927 0.10063
 C352 C 0.82083 -0.14853 0.07376
 H353 H 0.90694 -0.22343 0.24248
 H354 H 0.95199 -0.18674 0.19611
 H355 H 0.76539 -0.16897 0.08948
 H356 H 0.81044 -0.13271 0.04271
 H357 H 0.75083 -0.20763 0.16108
 H358 H 0.84121 -0.24298 0.25830
 H359 H 0.96480 -0.14029 0.13189
 H360 H 0.87406 -0.10626 0.03460
 C361 C 0.82185 0.32385 0.64567
 C362 C 0.78266 0.33020 0.64553
 C363 C 0.75910 0.30662 0.67175
 C364 C 0.77489 0.27789 0.69917
 C365 C 0.81383 0.27077 0.69647
 C366 C 0.83751 0.29377 0.67005
 C367 C 0.84724 0.35033 0.62256
 C368 C 0.88644 0.34458 0.62495
 C369 C 0.91065 0.37068 0.60590
 C370 C 0.89625 0.40283 0.58500
 C371 C 0.85673 0.40784 0.58150
 C372 C 0.83201 0.38160 0.60058
 C373 C 0.87682 0.28835 0.66995
 C374 C 0.90092 0.31333 0.64762
 C375 C 0.76824 0.36107 0.62161
 C376 C 0.79250 0.38633 0.59948
 H377 H 0.88914 0.26512 0.68843
 H378 H 0.93120 0.30862 0.64928
 H379 H 0.73803 0.36623 0.62112
 H380 H 0.78028 0.41014 0.58237
 H381 H 0.72905 0.31229 0.67417
 H382 H 0.82631 0.24870 0.71715
 H383 H 0.94092 0.36598 0.60812
 H384 H 0.84533 0.43227 0.56505
 C385 C 0.34548 -0.18922 0.65682
 C386 C 0.30721 -0.19040 0.64175
 C387 C 0.28111 -0.20941 0.67062
 C388 C 0.29314 -0.22719 0.71400
 C389 C 0.33162 -0.22614 0.72828
 C390 C 0.35795 -0.20705 0.69990
 C391 C 0.37267 -0.16758 0.62820
 C392 C 0.41054 -0.16476 0.64477
 C393 C 0.43543 -0.14148 0.61993
 C394 C 0.42226 -0.12109 0.57939
 C395 C 0.38479 -0.12542 0.56198
 C396 C 0.35974 -0.14848 0.58641
 C397 C 0.39629 -0.20466 0.71435
 C398 C 0.42211 -0.18382 0.68733
 C399 C 0.29571 -0.17186 0.59876
 C400 C 0.32154 -0.15128 0.57152
 H401 H 0.40628 -0.21843 0.74742
 H402 H 0.45120 -0.18203 0.70046
 H403 H 0.26635 -0.17272 0.58657
 H404 H 0.31132 -0.13673 0.53921
 H405 H 0.25142 -0.20996 0.65983
 H406 H 0.34098 -0.23942 0.76202
 H407 H 0.46408 -0.13745 0.63391
 H408 H 0.37462 -0.10914 0.53119
 C409 C 0.32315 0.32905 0.15544
 C410 C 0.28407 0.33031 0.14548
 C411 C 0.26031 0.30518 0.16856
 C412 C 0.27572 0.27933 0.20136
 C413 C 0.31511 0.27683 0.20776
 C414 C 0.33890 0.30203 0.18576
 C415 C 0.34777 0.35780 0.13640
 C416 C 0.38634 0.35753 0.14923
 C417 C 0.40948 0.38532 0.13275
 C418 C 0.39485 0.41321 0.10258
 C419 C 0.35599 0.41321 0.08981
 C420 C 0.33219 0.38554 0.10708
 C421 C 0.37790 0.30209 0.19629
 C422 C 0.40125 0.32950 0.17844
 C423 C 0.26945 0.35803 0.11525
 C424 C 0.29316 0.38501 0.09602
 H425 H 0.39029 0.28135 0.21967
 H426 H 0.43113 0.32902 0.18814
 H427 H 0.23935 0.35922 0.10707
 H428 H 0.28072 0.40603 0.07319
 H429 H 0.22986 0.30795 0.16481
 H430 H 0.32734 0.25740 0.23318
 H431 H 0.43928 0.38460 0.14286
 H432 H 0.34447 0.43430 0.06630
 C433 C 0.83022 0.17584 -0.17375
 C434 C 0.81928 0.20781 -0.14939
 C435 C 0.79275 0.23075 -0.17258
 C436 C 0.77749 0.22171 -0.21964
 C437 C 0.78843 0.18945 -0.24323
 C438 C 0.81482 0.16639 -0.22048
 C439 C 0.85850 0.15187 -0.15007
 C440 C 0.86917 0.11991 -0.17451
 C441 C 0.89521 0.09673 -0.15151
 C442 C 0.91071 0.10505 -0.10421
 C443 C 0.90051 0.13775 -0.08066
 C444 C 0.87410 0.16118 -0.10337
 C445 C 0.82646 0.13427 -0.24384
 C446 C 0.85313 0.11139 -0.22120
 C447 C 0.83550 0.21631 -0.10272
 C448 C 0.86238 0.19340 -0.08010
 H449 H 0.81483 0.12673 -0.27990
 H450 H 0.86119 0.08675 -0.24037
 H451 H 0.82735 0.24089 -0.08349
 H452 H 0.87401 0.20093 -0.04404
 H453 H 0.78475 0.25588 -0.15463
 H454 H 0.77700 0.18275 -0.27972
 H455 H 0.90299 0.07181 -0.17026
 H456 H 0.91209 0.14433 -0.04425
 C457 C 0.81574 0.65772 0.34284
 C458 C 0.80993 0.65410 0.29140
 C459 C 0.79405 0.68280 0.26512
 C460 C 0.78271 0.71445 0.28994
 C461 C 0.78885 0.71810 0.34139
 C462 C 0.80576 0.68970 0.36812
 C463 C 0.83406 0.62805 0.37023
 C464 C 0.84263 0.63266 0.42097
 C465 C 0.86405 0.60610 0.44538
 C466 C 0.87617 0.57517 0.41941
 C467 C 0.86565 0.56997 0.36949
 C468 C 0.84501 0.59662 0.34439
 C469 C 0.81335 0.69267 0.41937
 C470 C 0.83179 0.66474 0.44528
 C471 C 0.82030 0.62194 0.26710
 C472 C 0.83745 0.59357 0.29323
 H473 H 0.80574 0.71708 0.43939
 H474 H 0.83820 0.66855 0.48445
 H475 H 0.81557 0.61886 0.22743
 H476 H 0.84580 0.56949 0.27297
 H477 H 0.78995 0.68019 0.22528
 H478 H 0.78087 0.74283 0.36031
 H479 H 0.87399 0.61089 0.48311
 H480 H 0.87637 0.54673 0.34926
 C481 C 0.32798 0.17729 0.32726
 C482 C 0.31422 0.16916 0.27924
 C483 C 0.28781 0.19231 0.25679
 C484 C 0.27525 0.22338 0.28188
 C485 C 0.28868 0.23102 0.33031
 C486 C 0.31526 0.20796 0.35324
 C487 C 0.35651 0.15337 0.35051
 C488 C 0.37053 0.16138 0.39848
 C489 C 0.39717 0.13794 0.42072
 C490 C 0.40916 0.10656 0.39533
 C491 C 0.39528 0.09959 0.34685
 C492 C 0.36899 0.12276 0.32435
 C493 C 0.32992 0.21515 0.40116
 C494 C 0.35701 0.19226 0.42341
 C495 C 0.32760 0.13836 0.25425
 C496 C 0.35449 0.11551 0.27646
 H497 H 0.32040 0.23871 0.42165
 H498 H 0.36740 0.19875 0.46048
 H499 H 0.31722 0.13185 0.21719
 H500 H 0.36395 0.09191 0.25600
 H501 H 0.27781 0.18673 0.21925
 H502 H 0.27945 0.25528 0.34940
 H503 H 0.40741 0.14333 0.45818
 H504 H 0.40448 0.07566 0.32683
 C505 C 0.31793 0.65495 -0.16347
 C506 C 0.31685 0.65612 -0.21556
 C507 C 0.30041 0.68585 -0.23890
 C508 C 0.28466 0.71407 -0.21080
 C509 C 0.28699 0.71340 -0.15866
 C510 C 0.30343 0.68351 -0.13464
 C511 C 0.33573 0.62377 -0.13882
 C512 C 0.33825 0.62307 -0.08669
 C513 C 0.35838 0.59494 -0.06371
 C514 C 0.37671 0.56871 -0.09282
 C515 C 0.37231 0.56871 -0.14466
 C516 C 0.35190 0.59627 -0.16798
 C517 C 0.30569 0.68147 -0.08254
 C518 C 0.32281 0.65174 -0.05894
 C519 C 0.33215 0.62755 -0.24341
 C520 C 0.34952 0.59811 -0.21998
 H521 H 0.29451 0.70319 -0.05983
 H522 H 0.32469 0.65156 -0.01871
 H523 H 0.33118 0.62821 -0.28366
 H524 H 0.36186 0.57700 -0.24273
 H525 H 0.29920 0.68667 -0.27915
 H526 H 0.27611 0.73571 -0.13694
 H527 H 0.36280 0.59533 -0.02379
 H528 H 0.38727 0.54884 -0.16685
 C529 C 1.17702 -0.17214 -0.16387
 C530 C 1.18258 -0.20693 -0.14467
 C531 C 1.20899 -0.22994 -0.16727
 C532 C 1.22948 -0.21841 -0.20892
 C533 C 1.22430 -0.18309 -0.22666
 C534 C 1.19799 -0.15988 -0.20447
 C535 C 1.14825 -0.14829 -0.14162
 C536 C 1.14259 -0.11369 -0.16131
 C537 C 1.11563 -0.09095 -0.13992
 C538 C 1.09441 -0.10226 -0.09871
 C539 C 1.09987 -0.13740 -0.07991
 C540 C 1.12697 -0.16053 -0.10122
 C541 C 1.19153 -0.12497 -0.22294
 C542 C 1.16429 -0.10224 -0.20170
 C543 C 1.16093 -0.21826 -0.10409
 C544 C 1.13364 -0.19545 -0.08271
 H545 H 1.20750 -0.11520 -0.25425
 H546 H 1.16016 -0.07549 -0.21706
 H547 H 1.16495 -0.24508 -0.08891
 H548 H 1.11756 -0.20529 -0.05155
 H549 H 1.21258 -0.25705 -0.15319
 H550 H 1.23964 -0.17395 -0.25877
 H551 H 1.11159 -0.06410 -0.15508
 H552 H 1.08389 -0.14632 -0.04813
 C553 C 1.19047 0.34666 0.34343
 C554 C 1.18272 0.31018 0.35390
 C555 C 1.20078 0.28296 0.32654
 C556 C 1.22615 0.29206 0.28892
 C557 C 1.23571 0.32868 0.28161
 C558 C 1.21721 0.35616 0.30782
 C559 C 1.16877 0.37538 0.36836
 C560 C 1.17456 0.41184 0.35541
 C561 C 1.15092 0.43872 0.37556
 C562 C 1.12178 0.42869 0.40766
 C563 C 1.11782 0.39244 0.42221
 C564 C 1.14097 0.36560 0.40245
 C565 C 1.22374 0.39290 0.29759
 C566 C 1.20260 0.42028 0.32078
 C567 C 1.15589 0.30170 0.39005
 C568 C 1.13539 0.32900 0.41406
 H569 H 1.24447 0.40050 0.27020
 H570 H 1.20761 0.44817 0.31062
 H571 H 1.14994 0.27372 0.39885
 H572 H 1.11415 0.32133 0.44074
 H573 H 1.19428 0.25490 0.33368
 H574 H 1.25665 0.33629 0.25478
 H575 H 1.15370 0.46669 0.36430
 H576 H 1.09528 0.38492 0.44717
 C577 C 0.67590 -0.17189 0.33351
 C578 C 0.68142 -0.20667 0.35284
 C579 C 0.70790 -0.22975 0.33038
 C580 C 0.72849 -0.21821 0.28884
 C581 C 0.72341 -0.18289 0.27106
 C582 C 0.69700 -0.15968 0.29300
 C583 C 0.64712 -0.14795 0.35559
 C584 C 0.64150 -0.11337 0.33573
 C585 C 0.61446 -0.09058 0.35685
 C586 C 0.59308 -0.10179 0.39794
 C587 C 0.59861 -0.13686 0.41707
 C588 C 0.62579 -0.16005 0.39601
 C589 C 0.69061 -0.12480 0.27439
 C590 C 0.66331 -0.10203 0.29539
 C591 C 0.65974 -0.21785 0.39347
 C592 C 0.63247 -0.19493 0.41475
 H593 H 0.70667 -0.11509 0.24312
 H594 H 0.65922 -0.07532 0.27988
 H595 H 0.66374 -0.24462 0.40881
 H596 H 0.61643 -0.20463 0.44604
 H597 H 0.71174 -0.25684 0.34455
 H598 H 0.73899 -0.17367 0.23925
 H599 H 0.61043 -0.06378 0.34153
 H600 H 0.58262 -0.14567 0.44892
 C601 C 0.68946 0.33976 -0.15214
 C602 C 0.68103 0.30290 -0.14592
 C603 C 0.69986 0.27706 -0.17476
 C604 C 0.72646 0.28791 -0.20997
 C605 C 0.73659 0.32470 -0.21315
 C606 C 0.71752 0.35090 -0.18511
 C607 C 0.66709 0.36724 -0.12563
 C608 C 0.67377 0.40424 -0.13417
 C609 C 0.64969 0.43018 -0.11265
 C610 C 0.61901 0.41875 -0.08399
 C611 C 0.61415 0.38181 -0.07361
 C612 C 0.63785 0.35589 -0.09460
 C613 C 0.72477 0.38805 -0.19090
 C614 C 0.70316 0.41428 -0.16601
 C615 C 0.65276 0.29270 -0.11260
 C616 C 0.63153 0.31880 -0.08727
 H617 H 0.74652 0.39694 -0.21612
 H618 H 0.70884 0.44262 -0.17277
 H619 H 0.64624 0.26436 -0.10718
 H620 H 0.60916 0.30989 -0.06299
 H621 H 0.69281 0.24877 -0.17090
 H622 H 0.75846 0.33331 -0.23816
 H623 H 0.65331 0.45868 -0.12056
 H624 H 0.59067 0.37318 -0.05090
 C625 C 1.15708 0.18860 -0.15140
 C626 C 1.19616 0.18521 -0.14182
 C627 C 1.22183 0.20456 -0.17087
 C628 C 1.20868 0.22721 -0.20909
 C629 C 1.16943 0.23059 -0.21793
 C630 C 1.14345 0.21125 -0.18923
 C631 C 1.13005 0.16677 -0.12277
 C632 C 1.09104 0.16870 -0.13398
 C633 C 1.06582 0.14539 -0.10963
 C634 C 1.07983 0.12002 -0.07533
 C635 C 1.11868 0.11969 -0.06293
 C636 C 1.14397 0.14285 -0.08666
 C637 C 1.10419 0.21340 -0.19832
 C638 C 1.07846 0.19248 -0.17123
 C639 C 1.20879 0.16190 -0.10412
 C640 C 1.18313 0.14107 -0.07699
 H641 H 1.09330 0.23090 -0.22730
 H642 H 1.04854 0.19434 -0.18029
 H643 H 1.23882 0.15919 -0.09617
 H644 H 1.19412 0.12277 -0.04904
 H645 H 1.25203 0.20166 -0.16430
 H646 H 1.15901 0.24760 -0.24770
 H647 H 1.03601 0.14514 -0.11984
 H648 H 1.12943 0.09987 -0.03677
 C649 C 1.18034 0.67424 0.34568
 C650 C 1.21944 0.66794 0.34319
 C651 C 1.24219 0.69239 0.31703
 C652 C 1.22570 0.72220 0.29228
 C653 C 1.18677 0.72900 0.29781
 C654 C 1.16399 0.70505 0.32401
 C655 C 1.15570 0.64720 0.36913
 C656 C 1.11653 0.65312 0.36949
 C657 C 1.09295 0.62687 0.38937
 C658 C 1.10783 0.59444 0.40892
 C659 C 1.14740 0.58913 0.40956
 C660 C 1.17153 0.61549 0.38916
 C661 C 1.12475 0.71047 0.32668
 C662 C 1.10139 0.68492 0.34911
 C663 C 1.23453 0.63639 0.36471
 C664 C 1.21101 0.61067 0.38739
 H665 H 1.11186 0.73423 0.31025
 H666 H 1.07112 0.68975 0.34959
 H667 H 1.26469 0.63117 0.36313
 H668 H 1.22377 0.58650 0.40281
 H669 H 1.27209 0.68664 0.31272
 H670 H 1.17330 0.75169 0.27970
 H671 H 1.06271 0.63193 0.38945
 H672 H 1.15921 0.56451 0.42495
 C673 C 0.65629 0.18981 0.34780
 C674 C 0.69516 0.18797 0.35955
 C675 C 0.72105 0.20745 0.33085
 C676 C 0.70831 0.22830 0.29048
 C677 C 0.66922 0.23031 0.27968
 C678 C 0.64305 0.21104 0.30820
 C679 C 0.62912 0.16778 0.37605
 C680 C 0.59041 0.16833 0.36290
 C681 C 0.56521 0.14492 0.38710
 C682 C 0.57892 0.12069 0.42313
 C683 C 0.61745 0.12161 0.43725
 C684 C 0.64272 0.14505 0.41381
 C685 C 0.60401 0.21181 0.29715
 C686 C 0.57817 0.19085 0.32401
 C687 C 0.70739 0.16594 0.39893
 C688 C 0.68164 0.14480 0.42554
 H689 H 0.59340 0.22824 0.26683
 H690 H 0.54846 0.19164 0.31346
 H691 H 0.73724 0.16441 0.40858
 H692 H 0.69240 0.12747 0.45479
 H693 H 0.75112 0.20585 0.33920
 H694 H 0.65918 0.24609 0.24844
 H695 H 0.53570 0.14369 0.37552
 H696 H 0.62802 0.10263 0.46469
 C697 C 0.67694 0.66552 -0.16757
 C698 C 0.71538 0.66778 -0.15416
 C699 C 0.73800 0.69437 -0.17631
 C700 C 0.72211 0.71862 -0.21105
 C701 C 0.68296 0.71765 -0.22066
 C702 C 0.66048 0.69056 -0.20034
 C703 C 0.65360 0.63597 -0.14787
 C704 C 0.61573 0.63302 -0.16346
 C705 C 0.59359 0.60509 -0.14509
 C706 C 0.60815 0.58081 -0.10936
 C707 C 0.64648 0.58378 -0.09432
 C708 C 0.66950 0.61127 -0.11402
 C709 C 0.62218 0.68711 -0.21407
 C710 C 0.60025 0.65858 -0.19628
 C711 C 0.73052 0.64258 -0.12033
 C712 C 0.70788 0.61506 -0.10019
 H713 H 0.60926 0.70620 -0.23952
 H714 H 0.57086 0.65661 -0.20814
 H715 H 0.76014 0.64407 -0.10946
 H716 H 0.72062 0.59639 -0.07403
 H717 H 0.76797 0.69520 -0.16777
 H718 H 0.66996 0.73650 -0.24609
 H719 H 0.56425 0.60345 -0.15730
 H720 H 0.65799 0.56553 -0.06664
 C721 C 0.84853 -0.18552 -0.17677
 C722 C 0.82411 -0.20550 -0.14653
 C723 C 0.79441 -0.22555 -0.16878
 C724 C 0.78986 -0.22613 -0.22080
 C725 C 0.81478 -0.20626 -0.25045
 C726 C 0.84387 -0.18551 -0.22866
 C727 C 0.87901 -0.16346 -0.15367
 C728 C 0.90189 -0.14183 -0.18385
 C729 C 0.92863 -0.11857 -0.16148
 C730 C 0.93309 -0.11744 -0.10949
 C731 C 0.91135 -0.14065 -0.07985
 C732 C 0.88363 -0.16323 -0.10174
 C733 C 0.86814 -0.16446 -0.25769
 C734 C 0.89644 -0.14276 -0.23564
 C735 C 0.82986 -0.20483 -0.09472
 C736 C 0.85919 -0.18420 -0.07273
 H737 H 0.86481 -0.16427 -0.29777
 H738 H 0.91397 -0.12629 -0.25932
 H739 H 0.81138 -0.22020 -0.07091
 H740 H 0.86228 -0.18411 -0.03261
 H741 H 0.77519 -0.24067 -0.14578
 H742 H 0.81130 -0.20678 -0.29054
 H743 H 0.94486 -0.10023 -0.18421
 H744 H 0.91401 -0.13905 -0.03972
 C745 C 0.82230 0.33324 0.33330
 C746 C 0.79395 0.31591 0.36055
 C747 C 0.77151 0.28915 0.33699
 C748 C 0.77751 0.28015 0.28672
 C749 C 0.80637 0.29754 0.26066
 C750 C 0.82885 0.32394 0.28355
 C751 C 0.84513 0.36215 0.35683
 C752 C 0.87333 0.37925 0.32912
 C753 C 0.89588 0.40571 0.35182
 C754 C 0.89068 0.41519 0.40191
 C755 C 0.86144 0.39888 0.42903
 C756 C 0.83863 0.37194 0.40656
 C757 C 0.85711 0.34189 0.25700
 C758 C 0.87909 0.36906 0.27949
 C759 C 0.78812 0.32646 0.41021
 C760 C 0.81013 0.35392 0.43286
 H761 H 0.86224 0.33490 0.21850
 H762 H 0.90080 0.38214 0.25788
 H763 H 0.76631 0.31343 0.43172
 H764 H 0.80484 0.36106 0.47128
 H765 H 0.74848 0.27680 0.35692
 H766 H 0.81053 0.29194 0.22182
 H767 H 0.91831 0.41833 0.33087
 H768 H 0.85772 0.40585 0.46784
 C769 C 0.34869 -0.18541 0.31628
 C770 C 0.33272 -0.21318 0.34454
 C771 C 0.30295 -0.23406 0.32393
 C772 C 0.28928 -0.22729 0.27533
 C773 C 0.30539 -0.19884 0.24811
 C774 C 0.33516 -0.17804 0.26815
 C775 C 0.37923 -0.16270 0.33810
 C776 C 0.39399 -0.13406 0.31034
 C777 C 0.42081 -0.11083 0.33240
 C778 C 0.43268 -0.11569 0.38209
 C779 C 0.41898 -0.14557 0.40880
 C780 C 0.39182 -0.16898 0.38705
 C781 C 0.35130 -0.14966 0.24117
 C782 C 0.38022 -0.12806 0.26188
 C783 C 0.34657 -0.21913 0.39307
 C784 C 0.37553 -0.19741 0.41396
 H785 H 0.34117 -0.14378 0.20392
 H786 H 0.39139 -0.10602 0.24011
 H787 H 0.33459 -0.24047 0.41537
 H788 H 0.38478 -0.20253 0.45180
 H789 H 0.29059 -0.25518 0.34605
 H790 H 0.29448 -0.19239 0.21140
 H791 H 0.43095 -0.08771 0.31181
 H792 H 0.42724 -0.14898 0.44743
 C793 C 0.31822 0.33420 -0.16070
 C794 C 0.29569 0.31025 -0.13354
 C795 C 0.27424 0.28383 -0.15924
 C796 C 0.27569 0.28148 -0.21146
 C797 C 0.29839 0.30580 -0.23765
 C798 C 0.31978 0.33203 -0.21268
 C799 C 0.34041 0.36228 -0.13443
 C800 C 0.36312 0.38579 -0.16203
 C801 C 0.38582 0.41102 -0.13706
 C802 C 0.38601 0.41294 -0.08502
 C803 C 0.36207 0.39041 -0.05750
 C804 C 0.33922 0.36462 -0.08229
 C805 C 0.34219 0.35653 -0.23897
 C806 C 0.36367 0.38291 -0.21401
 C807 C 0.29473 0.31368 -0.08146
 C808 C 0.31620 0.34034 -0.05625
 H809 H 0.34334 0.35512 -0.27916
 H810 H 0.38105 0.40104 -0.23553
 H811 H 0.27739 0.29550 -0.05998
 H812 H 0.31498 0.34180 -0.01607
 H813 H 0.25576 0.26620 -0.13875
 H814 H 0.29807 0.30575 -0.27774
 H815 H 0.40455 0.42836 -0.15794
 H816 H 0.36285 0.39163 -0.01725
 C817 C 1.16570 -0.17758 0.17325
 C818 C 1.17652 -0.20930 0.14820
 C819 C 1.20403 -0.23197 0.16997
 C820 C 1.22059 -0.22293 0.21641
 C821 C 1.20960 -0.19079 0.24064
 C822 C 1.18219 -0.16806 0.21929
 C823 C 1.13646 -0.15386 0.15095
 C824 C 1.12596 -0.12208 0.17600
 C825 C 1.09925 -0.09897 0.15402
 C826 C 1.08306 -0.10713 0.10705
 C827 C 1.09303 -0.13977 0.08306
 C828 C 1.11999 -0.16314 0.10478
 C829 C 1.17061 -0.13619 0.24337
 C830 C 1.14302 -0.11357 0.22208
 C831 C 1.15924 -0.21783 0.10219
 C832 C 1.13154 -0.19515 0.08085
 H833 H 1.18305 -0.12859 0.27896
 H834 H 1.13514 -0.08909 0.24175
 H835 H 1.16724 -0.24223 0.08242
 H836 H 1.11918 -0.20268 0.04520
 H837 H 1.21176 -0.25688 0.15125
 H838 H 1.22170 -0.18387 0.27672
 H839 H 1.09180 -0.07406 0.17303
 H840 H 1.08108 -0.14622 0.04679
 C841 C 1.18519 0.34588 0.66655
 C842 C 1.18445 0.34441 0.71862
 C843 C 1.20029 0.31465 0.74265
 C844 C 1.21715 0.28667 0.71524
 C845 C 1.21724 0.28793 0.66308
 C846 C 1.20118 0.31771 0.63838
 C847 C 1.16788 0.37701 0.64112
 C848 C 1.16695 0.37786 0.58892
 C849 C 1.14698 0.40573 0.56500
 C850 C 1.12751 0.43171 0.59324
 C851 C 1.13057 0.43171 0.64524
 C852 C 1.15053 0.40426 0.66950
 C853 C 1.20074 0.32004 0.58625
 C854 C 1.18379 0.34955 0.56192
 C855 C 1.16796 0.37275 0.74574
 C856 C 1.15119 0.40219 0.72155
 H857 H 1.21309 0.29863 0.56407
 H858 H 1.18319 0.34985 0.52164
 H859 H 1.16751 0.37188 0.78597
 H860 H 1.13790 0.42309 0.74372
 H861 H 1.20035 0.31364 0.78293
 H862 H 1.23003 0.26624 0.64192
 H863 H 1.14357 0.40528 0.52492
 H864 H 1.11466 0.45130 0.66674
 C865 C 0.66877 -0.17716 0.66350
 C866 C 0.69421 -0.16344 0.69951
 C867 C 0.72085 -0.18659 0.72143
 C868 C 0.72195 -0.22347 0.70850
 C869 C 0.69629 -0.23689 0.67212
 C870 C 0.66983 -0.21368 0.64909
 C871 C 0.63980 -0.15299 0.64162
 C872 C 0.61423 -0.16640 0.60544
 C873 C 0.58709 -0.14281 0.58421
 C874 C 0.58533 -0.10627 0.59973
 C875 C 0.61082 -0.09398 0.63712
 C876 C 0.63816 -0.11690 0.65764
 C877 C 0.64369 -0.22630 0.61298
 C878 C 0.61663 -0.20303 0.59126
 C879 C 0.69180 -0.12700 0.71409
 C880 C 0.66417 -0.10415 0.69362
 H881 H 0.64414 -0.25443 0.60141
 H882 H 0.59723 -0.21390 0.56342
 H883 H 0.71119 -0.11612 0.74194
 H884 H 0.66317 -0.07623 0.70609
 H885 H 0.73949 -0.17604 0.75032
 H886 H 0.69533 -0.26555 0.66379
 H887 H 0.56791 -0.15268 0.55541
 H888 H 0.61019 -0.06608 0.64975
 C889 C 0.68435 0.34816 0.16986
 C890 C 0.69904 0.32004 0.14041
 C891 C 0.71528 0.28975 0.16374
 C892 C 0.71730 0.28819 0.21588
 C893 C 0.70173 0.31619 0.24461
 C894 C 0.68525 0.34624 0.22191
 C895 C 0.66652 0.37965 0.14586
 C896 C 0.64994 0.40662 0.17554
 C897 C 0.62948 0.43443 0.15271
 C898 C 0.62564 0.43535 0.10077
 C899 C 0.64444 0.40963 0.07126
 C900 C 0.66442 0.38116 0.09375
 C901 C 0.66959 0.37435 0.25034
 C902 C 0.65203 0.40398 0.22751
 C903 C 0.69711 0.32286 0.08837
 C904 C 0.68013 0.35293 0.06542
 H905 H 0.67033 0.37312 0.29056
 H906 H 0.63937 0.42465 0.25070
 H907 H 0.70844 0.30149 0.06518
 H908 H 0.67852 0.35370 0.02519
 H909 H 0.72628 0.26778 0.14147
 H910 H 0.70291 0.31482 0.28484
 H911 H 0.61418 0.45384 0.17525
 H912 H 0.64039 0.40979 0.03124
 C913 C 0.81936 0.17203 0.16066
 C914 C 0.79661 0.15903 0.19913
 C915 C 0.77205 0.18285 0.22360
 C916 C 0.77030 0.21951 0.21023
 C917 C 0.79215 0.23171 0.17010
 C918 C 0.81708 0.20818 0.14554
 C919 C 0.84657 0.14746 0.13642
 C920 C 0.87002 0.16053 0.09866
 C921 C 0.89637 0.13699 0.07637
 C922 C 0.89882 0.10057 0.09138
 C923 C 0.87487 0.08824 0.12941
 C924 C 0.84889 0.11144 0.15201
 C925 C 0.84049 0.22023 0.10706
 C926 C 0.86654 0.19685 0.08411
 C927 C 0.79960 0.12265 0.21328
 C928 C 0.82526 0.09924 0.19006
 H929 H 0.83901 0.24810 0.09498
 H930 H 0.88422 0.20737 0.05493
 H931 H 0.78221 0.11224 0.24284
 H932 H 0.82680 0.07140 0.20227
 H933 H 0.75531 0.17295 0.25401
 H934 H 0.79052 0.25958 0.15840
 H935 H 0.91455 0.14683 0.04728
 H936 H 0.87648 0.06044 0.14183
 C937 C 0.81800 0.65101 0.67281
 C938 C 0.82706 0.66259 0.72125
 C939 C 0.80854 0.69262 0.74092
 C940 C 0.78049 0.71073 0.71330
 C941 C 0.77250 0.69976 0.66408
 C942 C 0.79113 0.66956 0.64366
 C943 C 0.83791 0.61953 0.65183
 C944 C 0.83007 0.60851 0.60267
 C945 C 0.85162 0.58045 0.58163
 C946 C 0.88169 0.56501 0.60897
 C947 C 0.88731 0.57470 0.65911
 C948 C 0.86582 0.60216 0.68061
 C949 C 0.78343 0.65732 0.59495
 C950 C 0.80253 0.62730 0.57482
 C951 C 0.85439 0.64389 0.74932
 C952 C 0.87349 0.61413 0.72930
 H953 H 0.76271 0.67126 0.57203
 H954 H 0.79626 0.61921 0.53683
 H955 H 0.86137 0.65258 0.78688
 H956 H 0.89500 0.60087 0.75173
 H957 H 0.81586 0.70165 0.77818
 H958 H 0.75188 0.71413 0.64188
 H959 H 0.84719 0.57281 0.54308
 H960 H 0.91046 0.56274 0.68020
 C961 C 0.32062 0.17291 0.66159
 C962 C 0.29469 0.15902 0.69578
 C963 C 0.27028 0.18275 0.72063
 C964 C 0.27200 0.22018 0.71214
 C965 C 0.29727 0.23349 0.67641
 C966 C 0.32187 0.21000 0.65126
 C967 C 0.34730 0.14818 0.63668
 C968 C 0.37362 0.16197 0.60285
 C969 C 0.39942 0.13820 0.57995
 C970 C 0.39875 0.10091 0.59078
 C971 C 0.37182 0.08786 0.62474
 C972 C 0.34619 0.11122 0.64767
 C973 C 0.34816 0.22285 0.61666
 C974 C 0.37357 0.19927 0.59291
 C975 C 0.29423 0.12172 0.70523
 C976 C 0.31956 0.09823 0.68160
 H977 H 0.34936 0.25145 0.60824
 H978 H 0.39350 0.21037 0.56678
 H979 H 0.27437 0.11063 0.73147
 H980 H 0.31843 0.06965 0.69019
 H981 H 0.25066 0.17199 0.74729
 H982 H 0.29807 0.26198 0.66806
 H983 H 0.41978 0.14864 0.55388
 H984 H 0.37070 0.05934 0.63369
 C985 C 0.31023 0.66448 0.14694
 C986 C 0.32017 0.70122 0.14427
 C987 C 0.30029 0.72665 0.17255
 C988 C 0.27121 0.71554 0.20426
 C989 C 0.25944 0.67899 0.20301
 C990 C 0.27953 0.65317 0.17545
 C991 C 0.33364 0.63722 0.12151
 C992 C 0.32520 0.60019 0.12654
 C993 C 0.34997 0.57425 0.10629
 C994 C 0.38309 0.58563 0.08246
 C995 C 0.38976 0.62278 0.07543
 C996 C 0.36539 0.64868 0.09512
 C997 C 0.27069 0.61609 0.17763
 C998 C 0.29322 0.59004 0.15374
 C999 C 0.35104 0.71165 0.11528
 C1000 C 0.37329 0.68577 0.09105
 H1001 H 0.24690 0.60703 0.19935
 H1002 H 0.28613 0.56169 0.15770
 H1003 H 0.35880 0.73993 0.11258
 H1004 H 0.39761 0.69481 0.07031
 H1005 H 0.30873 0.75469 0.17109
 H1006 H 0.23552 0.67010 0.22447
 H1007 H 0.34479 0.54563 0.11156
 H1008 H 0.41495 0.63154 0.05618
   
