data_POSCAR
  _audit_creation_date              2014-09-24
  _audit_creation_method            'ToBaCCo'
  _symmetry_space_group_name_H-M    'P1'
  _symmetry_Int_Tables_number       1
  _symmetry_cell_setting            triclinic
  loop_
  _symmetry_equiv_pos_as_xyz
 x,y,z
_cell_length_a 25.8251
_cell_length_b 25.3161
_cell_length_c 26.3988
_cell_angle_alpha 90.067700
_cell_angle_beta 89.263100
_cell_angle_gamma 89.233100
loop_
  _atom_site_label
  _atom_site_type_symbol
  _atom_site_fract_x
  _atom_site_fract_y
  _atom_site_fract_z
C1 C 0.35005 0.32911 1.40909
 C2 C 0.31001 0.33892 1.44458
 C3 C 0.27403 0.38072 1.43746
 C4 C 0.27872 0.41206 1.39356
 C5 C 0.31863 0.40278 1.35794
 C6 C 0.35490 0.36172 1.36610
 C7 C 0.38526 0.28700 1.41587
 C8 C 0.42709 0.27875 1.38183
 C9 C 0.43225 0.31260 1.33971
 C10 C 0.39577 0.35302 1.33100
 C11 C 0.39912 0.38434 1.28724
 C12 C 0.36212 0.42425 1.27786
 C13 C 0.32239 0.43369 1.31398
 H14 H 0.30716 0.31350 1.47736
 H15 H 0.25121 0.44395 1.38686
 H16 H 0.38091 0.26160 1.44867
 H17 H 0.46325 0.30638 1.31228
 H18 H 0.43017 0.37699 1.26000
 H19 H 0.29391 0.46468 1.30806
 C20 C 1.16564 0.63454 0.89795
 C21 C 1.21072 0.60386 0.90335
 C22 C 1.22662 0.56776 0.86550
 C23 C 1.19454 0.56051 0.82314
 C24 C 1.14919 0.59095 0.81733
 C25 C 1.13535 0.62894 0.85440
 C26 C 1.15163 0.67224 0.93469
 C27 C 1.10921 0.70690 0.92723
 C28 C 1.07978 0.70167 0.88313
 C29 C 1.09187 0.66217 0.84740
 C30 C 1.06180 0.65633 0.80414
 C31 C 1.07507 0.61845 0.76693
 C32 C 1.11853 0.58547 0.77407
 H33 H 1.23432 0.60952 0.93656
 H34 H 1.20503 0.53245 0.79373
 H35 H 1.17593 0.67630 0.96752
 H36 H 1.04691 0.72787 0.87686
 H37 H 1.02809 0.68166 0.79963
 H38 H 1.12941 0.55678 0.74519
 C39 C 0.65519 -0.17214 0.09582
 C40 C 0.69905 -0.16654 0.06452
 C41 C 0.73893 -0.13204 0.07790
 C42 C 0.73494 -0.10431 0.12394
 C43 C 0.69133 -0.10973 0.15569
 C44 C 0.65084 -0.14308 0.14123
 C45 C 0.61559 -0.20636 0.08215
 C46 C 0.57028 -0.21050 0.11196
 C47 C 0.56562 -0.18017 0.15682
 C48 C 0.60617 -0.14751 0.17224
 C49 C 0.60305 -0.11948 0.21829
 C50 C 0.64371 -0.08673 0.23331
 C51 C 0.68765 -0.08213 0.20158
 H52 H 0.70142 -0.18873 0.02953
 H53 H 0.76566 -0.07805 0.13497
 H54 H 0.61975 -0.22907 0.04743
 H55 H 0.53168 -0.18338 0.18103
 H56 H 0.56890 -0.12293 0.24231
 H57 H 0.71959 -0.05760 0.21265
 C58 C -0.17668 1.14674 -0.37883
 C59 C -0.21915 1.11398 -0.38685
 C60 C -0.22586 1.06749 -0.35849
 C61 C -0.18787 1.05341 -0.32268
 C62 C -0.14461 1.08542 -0.31500
 C63 C -0.13916 1.13250 -0.34302
 C64 C -0.17194 1.19415 -0.40556
 C65 C -0.13068 1.22866 -0.39651
 C66 C -0.09252 1.21356 -0.36168
 C67 C -0.09650 1.16562 -0.33491
 C68 C -0.05907 1.15073 -0.29947
 C69 C -0.06393 1.10356 -0.27152
 C70 C -0.10704 1.07143 -0.27925
 H71 H -0.24780 1.12570 -0.41449
 H72 H -0.19139 1.01766 -0.30059
 H73 H -0.20096 1.20388 -0.43330
 H74 H -0.06029 1.23948 -0.35477
 H75 H -0.02689 1.17672 -0.29290
 H76 H -0.11123 1.03540 -0.25750
 C77 C 0.62842 0.64761 0.58780
 C78 C 0.66501 0.63218 0.55074
 C79 C 0.70233 0.59302 0.56135
 C80 C 0.70329 0.56952 0.60948
 C81 C 0.66598 0.58330 0.64639
 C82 C 0.62785 0.62188 0.63520
 C83 C 0.59359 0.68954 0.57890
 C84 C 0.55695 0.70519 0.61615
 C85 C 0.55414 0.67621 0.66177
 C86 C 0.58999 0.63572 0.67192
 C87 C 0.59017 0.61076 0.71933
 C88 C 0.62922 0.57403 0.73142
 C89 C 0.66687 0.56012 0.69469
 H90 H 0.66540 0.65158 0.51415
 H91 H 0.73270 0.53995 0.61789
 H92 H 0.59572 0.71057 0.54318
 H93 H 0.52652 0.68696 0.69125
 H94 H 0.56153 0.62200 0.74790
 H95 H 0.69686 0.53144 0.70379
 C96 C 0.83702 0.36372 0.09761
 C97 C 0.78927 0.39123 0.09668
 C98 C 0.77895 0.43371 0.13014
 C99 C 0.81735 0.44773 0.16493
 C100 C 0.86479 0.42052 0.16628
 C101 C 0.87503 0.37863 0.13241
 C102 C 0.84680 0.32070 0.06519
 C103 C 0.89365 0.29126 0.06791
 C104 C 0.93178 0.30765 0.10201
 C105 C 0.92287 0.35099 0.13419
 C106 C 0.96021 0.36592 0.16957
 C107 C 0.94928 0.40694 0.20402
 C108 C 0.90176 0.43407 0.20202
 H109 H 0.76021 0.37948 0.06976
 H110 H 0.81077 0.47938 0.19184
 H111 H 0.81671 0.30953 0.03936
 H112 H 0.96812 0.28590 0.10455
 H113 H 0.99663 0.34431 0.17177
 H114 H 0.89343 0.46577 0.22872
 C115 C 0.35109 0.14668 0.90746
 C116 C 0.31260 0.11435 0.92827
 C117 C 0.29135 0.07362 0.89932
 C118 C 0.30774 0.06676 0.84862
 C119 C 0.34236 0.10208 0.82618
 C120 C 0.36441 0.14217 0.85567
 C121 C 0.37723 0.18268 0.93777
 C122 C 0.41566 0.21505 0.91676
 C123 C 0.42514 0.21421 0.86424
 C124 C 0.39990 0.17757 0.83343
 C125 C 0.41001 0.17487 0.78104
 C126 C 0.38723 0.13537 0.75165
 C127 C 0.35478 0.09830 0.77455
 H128 H 0.30116 0.11909 0.96772
 H129 H 0.29102 0.03617 0.82546
 H130 H 0.36819 0.18504 0.97794
 H131 H 0.45369 0.24038 0.84785
 H132 H 0.43626 0.20255 0.76330
 H133 H 0.33778 0.06760 0.75166
 C134 C 0.14963 0.83958 0.38846
 C135 C 0.19992 0.84227 0.40733
 C136 C 0.23126 0.88616 0.39703
 C137 C 0.21102 0.92883 0.36922
 C138 C 0.16077 0.92660 0.34943
 C139 C 0.13013 0.88168 0.35912
 C140 C 0.11916 0.79471 0.39716
 C141 C 0.06898 0.79139 0.37716
 C142 C 0.05036 0.83358 0.34735
 C143 C 0.08059 0.87802 0.33798
 C144 C 0.06258 0.91788 0.30589
 C145 C 0.09311 0.96171 0.29468
 C146 C 0.14167 0.96685 0.31764
 H147 H 0.21504 0.80960 0.42940
 H148 H 0.23529 0.96238 0.36079
 H149 H 0.13455 0.76256 0.41979
 H150 H 0.01276 0.83198 0.32997
 H151 H 0.02517 0.91400 0.28811
 H152 H 0.16579 1.00025 0.30827
 Zn153 Zn 0.06166 0.96586 0.03841
 Zn154 Zn -0.00705 0.95778 -0.04253
 Zn155 Zn -0.03614 1.01725 0.04973
 Zn156 Zn 0.04195 1.06083 -0.01495
 O157 O 0.01391 1.00061 0.00668
 O158 O 0.05040 0.89732 0.03645
 O159 O -0.07060 0.93422 -0.02765
 O160 O -0.01122 1.02436 0.11350
 O161 O 0.03363 0.89816 -0.04556
 O162 O 0.06638 0.98653 0.10230
 O163 O -0.08705 0.96950 0.04835
 O164 O 0.01085 1.11874 0.01409
 O165 O -0.00795 0.99191 -0.10324
 O166 O -0.06335 1.07876 0.03055
 O167 O 0.03008 1.06688 -0.08095
 O168 O 0.11224 1.06061 -0.01060
 O169 O 0.12114 0.97521 0.00600
 C170 C 0.04887 0.87378 -0.00596
 C171 C -0.09889 0.93891 0.01203
 C172 C 0.03320 1.01069 0.12999
 C173 C -0.03804 1.12049 0.02176
 C174 C 0.00918 1.03772 -0.11395
 C175 C 0.13936 1.01814 -0.01070
 Zn176 Zn 0.51164 -0.06538 0.46999
 Zn177 Zn 0.56025 0.03813 0.48466
 Zn178 Zn 0.44811 0.03201 0.48667
 Zn179 Zn 0.50784 -0.01745 0.56646
 O180 O 0.50703 -0.00276 0.50109
 O181 O 0.55480 -0.06393 0.41546
 O182 O 0.53859 0.10424 0.46987
 O183 O 0.39921 -0.01211 0.46217
 O184 O 0.59103 0.01408 0.42811
 O185 O 0.44922 -0.08318 0.44864
 O186 O 0.46050 0.08377 0.44208
 O187 O 0.46880 0.02747 0.60272
 O188 O 0.60900 0.03890 0.53327
 O189 O 0.42324 0.06605 0.54206
 O190 O 0.57217 -0.01347 0.59041
 O191 O 0.48598 -0.08277 0.57773
 O192 O 0.53015 -0.11787 0.51354
 C193 C 0.58543 -0.02746 0.40170
 C194 C 0.49793 0.11579 0.44512
 C195 C 0.40514 -0.06016 0.44829
 C196 C 0.43628 0.06207 0.58821
 C197 C 0.61055 0.01316 0.57469
 C198 C 0.50685 -0.12267 0.55613
 Zn199 Zn 0.94351 0.47318 0.45518
 Zn200 Zn 1.01437 0.46598 0.54506
 Zn201 Zn 1.04802 0.51984 0.44937
 Zn202 Zn 0.96464 0.56072 0.51010
 O203 O 0.99452 0.50238 0.48973
 O204 O 0.92186 0.41658 0.48802
 O205 O 1.07890 0.43959 0.53470
 O206 O 1.04056 0.49268 0.38689
 O207 O 0.97054 0.41080 0.55702
 O208 O 0.96342 0.45513 0.39281
 O209 O 1.10705 0.48940 0.47054
 O210 O 0.97114 0.60934 0.46240
 O211 O 1.01736 0.50922 0.60099
 O212 O 1.05306 0.59150 0.44183
 O213 O 0.99287 0.58463 0.56520
 O214 O 0.89738 0.55293 0.52347
 O215 O 0.88640 0.51492 0.44976
 C216 C 0.93326 0.39472 0.52982
 C217 C 1.11428 0.45320 0.50331
 C218 C 1.00444 0.46564 0.36801
 C219 C 1.01348 0.62226 0.44113
 C220 C 1.00942 0.55912 0.60306
 C221 C 0.86785 0.53927 0.48806
 Zn222 Zn 0.49155 0.47366 0.94514
 Zn223 Zn 0.55510 0.54801 1.00425
 Zn224 Zn 0.44088 0.54325 1.02300
 Zn225 Zn 0.51021 0.45373 1.05514
 O226 O 0.49937 0.50467 1.00697
 O227 O 0.53968 0.49280 0.89932
 O228 O 0.53942 0.61416 1.02372
 O229 O 0.39259 0.54227 0.97394
 O230 O 0.58555 0.55018 0.94290
 O231 O 0.43149 0.49027 0.91730
 O232 O 0.45472 0.61076 1.03774
 O233 O 0.46433 0.45828 1.10702
 O234 O 0.60508 0.52753 1.04587
 O235 O 0.41014 0.52022 1.07967
 O236 O 0.57376 0.45570 1.08226
 O237 O 0.50267 0.38881 1.03034
 O238 O 0.49042 0.40306 0.94852
 C239 C 0.57651 0.52527 0.90229
 C240 C 0.49716 0.63546 1.03867
 C241 C 0.39299 0.51814 0.93168
 C242 C 0.42364 0.48650 1.11266
 C243 C 0.60962 0.48890 1.07596
 C244 C 0.49341 0.37207 0.98611
 C245 C 1.23305 0.39110 0.47219
 C246 C 1.22338 0.36434 0.51710
 C247 C 1.17844 0.38577 0.53627
 C248 C 1.16400 0.42417 0.50218
 O249 O 1.19694 0.42760 0.46360
 H250 H 1.24525 0.33230 0.53385
 H251 H 1.15779 0.37366 0.57016
 C252 C 0.27482 0.54162 0.86998
 C253 C 0.29659 0.50653 0.83517
 C254 C 0.34391 0.49337 0.85380
 C255 C 0.34782 0.52109 0.89851
 O256 O 0.30614 0.55018 0.90854
 H257 H 0.28085 0.49220 0.80008
 H258 H 0.37227 0.46671 0.83679
 C259 C -0.21554 0.87629 0.04409
 C260 C -0.20646 0.85140 -0.00195
 C261 C -0.16140 0.87175 -0.02013
 C262 C -0.14614 0.90748 0.01593
 O263 O -0.17872 0.91034 0.05488
 H264 H -0.22954 0.82206 -0.02061
 H265 H -0.14193 0.86174 -0.05547
 C266 C 0.72935 0.03721 0.63425
 C267 C 0.71469 -0.00628 0.66262
 C268 C 0.66806 -0.02098 0.64398
 C269 C 0.65769 0.01394 0.60535
 O270 O 0.69458 0.04914 0.59930
 H271 H 0.73440 -0.02483 0.69393
 H272 H 0.64434 -0.05329 0.65705
 C273 C 0.46250 0.23697 0.39015
 C274 C 0.51159 0.23211 0.36859
 C275 C 0.53229 0.18679 0.38814
 C276 C 0.49412 0.16668 0.41907
 O277 O 0.45201 0.19690 0.42071
 H278 H 0.53091 0.25879 0.34282
 H279 H 0.57010 0.16970 0.37987
 C280 C 0.87188 0.28040 0.57687
 C281 C 0.83118 0.30227 0.55013
 C282 C 0.84939 0.34766 0.53014
 C283 C 0.89969 0.35122 0.54631
 O284 O 0.91368 0.31065 0.57509
 H285 H 0.79246 0.28752 0.54542
 H286 H 0.82841 0.37518 0.50637
 C287 C 0.09735 0.74748 -0.03801
 C288 C 0.11515 0.74985 0.01118
 C289 C 0.09658 0.79631 0.03015
 C290 C 0.06934 0.81945 -0.00871
 O291 O 0.06920 0.78983 -0.04998
 H292 H 0.13860 0.72135 0.03138
 H293 H 0.10371 0.81240 0.06739
 C294 C 0.53198 0.75380 1.09716
 C295 C 0.48193 0.75129 1.11642
 C296 C 0.46034 0.70881 1.09325
 C297 C 0.49874 0.68812 1.06204
 O298 O 0.54184 0.71549 1.06402
 H299 H 0.46326 0.77659 1.14439
 H300 H 0.42232 0.69286 1.10068
 C301 C 0.36514 0.45488 1.22989
 C302 C 0.32988 0.49320 1.21475
 C303 C 0.34709 0.50988 1.16859
 C304 C 0.39147 0.48070 1.15867
 O305 O 0.40257 0.44735 1.19565
 H306 H 0.29548 0.50750 1.23437
 H307 H 0.32943 0.53984 1.14496
 C308 C 0.64013 -0.05698 0.28178
 C309 C 0.66982 -0.01362 0.29332
 C310 C 0.65370 0.00224 0.34015
 C311 C 0.61544 -0.03243 0.35414
 O312 O 0.60684 -0.06836 0.31881
 H313 H 0.69889 0.00539 0.27013
 H314 H 0.66760 0.03572 0.36132
 C315 C -0.02535 1.08880 -0.23269
 C316 C 0.02407 1.10888 -0.23041
 C317 C 0.04418 1.08977 -0.18668
 C318 C 0.00612 1.05876 -0.16567
 O319 O -0.03616 1.05786 -0.19346
 H320 H 0.04295 1.13542 -0.25663
 H321 H 0.08156 1.09876 -0.17096
 C322 C 1.04539 0.61561 0.71940
 C323 C 1.01498 0.65661 0.70138
 C324 C 0.99744 0.63986 0.65612
 C325 C 1.01811 0.58982 0.64942
 O326 O 1.04746 0.57477 0.68769
 H327 H 1.00767 0.69506 0.71805
 H328 H 0.97295 0.66191 0.63049
 C329 C 0.74169 0.57750 0.52307
 C330 C 0.73312 0.57273 0.47175
 C331 C 0.77943 0.55623 0.45128
 C332 C 0.81268 0.55301 0.49162
 O333 O 0.78991 0.56562 0.53512
 H334 H 0.69731 0.57974 0.45186
 H335 H 0.78816 0.54838 0.41176
 C336 C 0.73127 0.46153 1.12831
 C337 C 0.71861 0.50670 1.15601
 C338 C 0.67063 0.52171 1.14060
 C339 C 0.65688 0.48458 1.10551
 O340 O 0.69333 0.44821 1.09755
 H341 H 0.74154 0.52790 1.18306
 H342 H 0.64858 0.55623 1.15272
 C343 C 0.25379 1.04079 -0.07939
 C344 C 0.24591 0.98906 -0.09383
 C345 C 0.20489 0.97277 -0.06555
 C346 C 0.18965 1.01602 -0.03700
 O347 O 0.21949 1.05733 -0.04483
 H348 H 0.26748 0.96579 -0.12152
 H349 H 0.18596 0.93497 -0.06806
 C350 C 0.28638 -0.11508 0.41172
 C351 C 0.31574 -0.16099 0.41336
 C352 C 0.36388 -0.14579 0.42646
 C353 C 0.36072 -0.09168 0.43215
 O354 O 0.31368 -0.07262 0.42297
 H355 H 0.30377 -0.20084 0.40505
 H356 H 0.39739 -0.17125 0.43168
 C357 C 0.52667 -0.24875 0.60902
 C358 C 0.48684 -0.23139 0.64087
 C359 C 0.47292 -0.18285 0.62350
 C360 C 0.50475 -0.17379 0.58229
 O361 O 0.53700 -0.21375 0.57293
 H362 H 0.47010 -0.25065 0.67360
 H363 H 0.44403 -0.15637 0.63994
 C364 C 1.03819 0.74682 0.38702
 C365 C 0.98628 0.74264 0.37486
 C366 C 0.97121 0.69519 0.39313
 C367 C 1.01465 0.67310 0.41453
 O368 O 1.05544 0.70409 0.41113
 H369 H 0.96109 0.77095 0.35654
 H370 H 0.93279 0.67873 0.39160
 C371 C -0.09836 1.24433 0.03987
 C372 C -0.13291 1.22317 0.00582
 C373 C -0.11286 1.17506 -0.00713
 C374 C -0.06728 1.17036 0.01893
 O375 O -0.05808 1.21213 0.04732
 H376 H -0.16944 1.23915 -0.00703
 H377 H -0.13032 1.14587 -0.03130
 C378 C 0.44611 0.24915 0.95007
 C379 C 0.46095 0.23546 0.99842
 C380 C 0.48421 0.27904 1.01731
 C381 C 0.48183 0.31605 0.97910
 O382 O 0.45903 0.29795 0.93809
 H383 H 0.45432 0.19858 1.01799
 H384 H 0.49877 0.28416 1.05523
 C385 C 0.63211 0.55347 0.78364
 C386 C 0.67761 0.54583 0.80972
 C387 C 0.66273 0.53404 0.85813
 C388 C 0.60941 0.53442 0.85764
 O389 O 0.59063 0.54646 0.81271
 H390 H 0.71681 0.55080 0.79574
 H391 H 0.68762 0.52654 0.89008
 C392 C 0.39718 0.13166 0.69689
 C393 C 0.38728 0.17142 0.66259
 C394 C 0.39822 0.14971 0.61620
 C395 C 0.41449 0.09868 0.62609
 O396 O 0.41373 0.08759 0.67495
 H397 H 0.37307 0.21102 0.67049
 H398 H 0.39618 0.16914 0.57976
 C399 C 0.07615 0.99696 0.25352
 C400 C 0.08596 1.05021 0.24893
 C401 C 0.06639 1.06435 0.20279
 C402 C 0.04636 1.01861 0.18307
 O403 O 0.05265 0.97790 0.21348
 H404 H 0.10628 1.07516 0.27515
 H405 H 0.06944 1.10237 0.18438
 C406 C 0.98478 0.42013 0.24506
 C407 C 1.03817 0.42060 0.24201
 C408 C 1.05373 0.43875 0.28820
 C409 C 1.00854 0.44697 0.31569
 O410 O 0.96698 0.43585 0.28966
 H411 H 1.06257 0.41033 0.20975
 H412 H 1.09302 0.44491 0.30044
   
