data_POSCAR
  _audit_creation_date              2014-09-24
  _audit_creation_method            'ToBaCCo'
  _symmetry_space_group_name_H-M    'P1'
  _symmetry_Int_Tables_number       1
  _symmetry_cell_setting            triclinic
  loop_
  _symmetry_equiv_pos_as_xyz
 x,y,z
_cell_length_a 25.6800
_cell_length_b 25.6886
_cell_length_c 25.5282
_cell_angle_alpha 90.247300
_cell_angle_beta 90.009300
_cell_angle_gamma 88.150200
loop_
  _atom_site_label
  _atom_site_type_symbol
  _atom_site_fract_x
  _atom_site_fract_y
  _atom_site_fract_z
N1 N 0.18897 1.29078 0.15794
 N2 N 0.15004 1.28748 0.19109
 C3 C 0.11171 1.32168 0.17729
 C4 C 0.12771 1.34795 0.13319
 C5 C 0.17717 1.32778 0.12228
 H6 H 0.07461 1.32624 0.19716
 H7 H 0.20178 1.33751 0.08957
 Cu8 Cu 0.15248 1.23784 0.24842
 Cu9 Cu 0.24950 1.24300 0.16098
 Cu10 Cu 0.22052 1.12742 0.22241
 N11 N 0.14853 1.17771 0.29390
 N12 N 0.17494 1.13431 0.28305
 C13 C 0.16194 1.09737 0.31737
 C14 C 0.12538 1.11883 0.35164
 C15 C 0.11796 1.17006 0.33588
 H16 H 0.17667 1.05744 0.31630
 H17 H 0.09063 1.19875 0.35206
 N18 N 0.27882 1.13371 0.17296
 N19 N 0.29108 1.17808 0.15095
 C20 C 0.33199 1.16942 0.11869
 C21 C 0.34597 1.11704 0.12064
 C22 C 0.31168 1.09564 0.15553
 H23 H 0.34892 1.19860 0.09411
 H24 H 0.31014 1.05511 0.16651
 H25 H 0.19546 1.19032 0.17691
 H26 H 0.24090 1.20241 0.23232
 N27 N 0.81393 0.70660 0.15935
 N28 N 0.85290 0.71042 0.19242
 C29 C 0.89089 0.67548 0.17924
 C30 C 0.87456 0.64810 0.13581
 C31 C 0.82540 0.66853 0.12442
 H32 H 0.92808 0.67124 0.19894
 H33 H 0.80092 0.65829 0.09171
 Cu34 Cu 0.85110 0.76183 0.24857
 Cu35 Cu 0.75398 0.75522 0.16127
 Cu36 Cu 0.78456 0.87223 0.21997
 N37 N 0.85575 0.82325 0.29272
 N38 N 0.82997 0.86663 0.28078
 C39 C 0.84316 0.90437 0.31444
 C40 C 0.87911 0.88345 0.34947
 C41 C 0.88605 0.83171 0.33479
 H42 H 0.82878 0.94437 0.31257
 H43 H 0.91276 0.80312 0.35190
 N44 N 0.72601 0.86512 0.17091
 N45 N 0.71313 0.82029 0.14990
 C46 C 0.67200 0.82846 0.11786
 C47 C 0.65850 0.88099 0.11898
 C48 C 0.69333 0.90299 0.15310
 H49 H 0.65444 0.79875 0.09415
 H50 H 0.69524 0.94376 0.16342
 H51 H 0.80875 0.80758 0.17594
 H52 H 0.76316 0.79788 0.23165
 N53 N 0.81815 1.28850 -0.14174
 N54 N 0.84599 1.29731 -0.18379
 C55 C 0.87816 1.33656 -0.17388
 C56 C 0.87015 1.35281 -0.12268
 C57 C 0.83180 1.32154 -0.10348
 H58 H 0.90706 1.35035 -0.20086
 H59 H 0.81641 1.32148 -0.06404
 Cu60 Cu 0.84188 1.25238 -0.24488
 Cu61 Cu 0.77017 1.23153 -0.13806
 Cu62 Cu 0.74502 1.16846 -0.25532
 N63 N 0.84550 1.19470 -0.29441
 N64 N 0.80680 1.16280 -0.29980
 C65 C 0.81964 1.12655 -0.33624
 C66 C 0.86952 1.13578 -0.35377
 C67 C 0.88467 1.17947 -0.32656
 H68 H 0.79542 1.09462 -0.34737
 H69 H 0.92175 1.19816 -0.32910
 N70 N 0.70107 1.16163 -0.19263
 N71 N 0.71161 1.18473 -0.14773
 C72 C 0.67768 1.16938 -0.11126
 C73 C 0.64455 1.13459 -0.13407
 C74 C 0.66028 1.13059 -0.18579
 H75 H 0.67814 1.18113 -0.07053
 H76 H 0.64495 1.10511 -0.21547
 H77 H 0.79714 1.18397 -0.19905
 H78 H 0.75222 1.24009 -0.21516
 N79 N 0.17949 0.71043 -0.13813
 N80 N 0.14679 0.70667 -0.17752
 C81 C 0.11522 0.66676 -0.16870
 C82 C 0.12864 0.64485 -0.12096
 C83 C 0.16957 0.67347 -0.10266
 H84 H 0.08280 0.65650 -0.19330
 H85 H 0.18897 0.66939 -0.06521
 Cu86 Cu 0.14417 0.76011 -0.23125
 Cu87 Cu 0.22784 0.76726 -0.13262
 Cu88 Cu 0.24760 0.83357 -0.24926
 N89 N 0.14440 0.81249 -0.28586
 N90 N 0.18548 0.84086 -0.29335
 C91 C 0.17514 0.87531 -0.33191
 C92 C 0.12440 0.86884 -0.34851
 C93 C 0.10613 0.82853 -0.31861
 H94 H 0.20168 0.90441 -0.34505
 H95 H 0.06741 0.81317 -0.31958
 N96 N 0.29505 0.83755 -0.18851
 N97 N 0.28674 0.81313 -0.14399
 C98 C 0.32257 0.82721 -0.10871
 C99 C 0.35467 0.86256 -0.13183
 C100 C 0.33632 0.86820 -0.18250
 H101 H 0.32387 0.81450 -0.06839
 H102 H 0.35010 0.89477 -0.21178
 H103 H 0.19973 0.82177 -0.18759
 H104 H 0.23680 0.76251 -0.21087
 Si105 Si 0.50130 0.99817 -0.01405
 Si106 Si 0.00165 0.49678 1.00382
 Si107 Si 1.00060 0.00224 0.50459
 N108 N 0.04868 0.39689 1.11693
 C109 C 0.09887 0.38440 1.10402
 N110 N 0.11989 0.40695 1.06122
 N111 N 0.09174 0.44056 1.03237
 C112 C 0.04155 0.45262 1.04518
 N113 N 0.02045 0.43025 1.08788
 N114 N -0.04344 0.60093 1.11469
 C115 C -0.09503 0.60934 1.10516
 N116 N -0.11757 0.58278 1.06551
 N117 N -0.08949 0.54908 1.03642
 C118 C -0.03789 0.54103 1.04580
 N119 N -0.01531 0.56747 1.08539
 N120 N -0.06284 0.41885 0.88352
 C121 C -0.09982 0.39056 0.90721
 N122 N -0.10703 0.39590 0.95965
 N123 N -0.07802 0.42796 0.98750
 C124 C -0.04101 0.45607 0.96385
 N125 N -0.03394 0.45110 0.91139
 N126 N 0.11133 0.59602 0.95917
 C127 C 0.10032 0.60534 0.90798
 N128 N 0.06068 0.57990 0.88508
 N129 N 0.03286 0.54662 0.91252
 C130 C 0.04367 0.53772 0.96377
 N131 N 0.08333 0.56297 0.98663
 N132 N 1.06184 0.11795 0.42029
 C133 C 1.09862 0.09273 0.39047
 N134 N 1.10725 0.04080 0.39751
 N135 N 1.07958 0.01488 0.43228
 C136 C 1.04265 0.04002 0.46165
 N137 N 1.03430 0.09201 0.45528
 N138 N 1.04481 -0.10927 0.60726
 C139 C 1.09622 -0.10119 0.61526
 N140 N 1.11904 -0.06234 0.58857
 N141 N 1.09140 -0.03264 0.55531
 C142 C 1.03997 -0.04060 0.54780
 N143 N 1.01714 -0.07935 0.57431
 N144 N 0.89716 -0.03763 0.39446
 C145 C 0.90546 -0.08978 0.38835
 N146 N 0.94127 -0.11464 0.41939
 N147 N 0.96813 -0.08818 0.45476
 C148 C 0.96007 -0.03600 0.46026
 N149 N 0.92416 -0.01120 0.42961
 N150 N 0.87937 0.06348 0.58728
 C151 C 0.89946 0.10569 0.61125
 N152 N 0.94985 0.11713 0.60172
 N153 N 0.97918 0.08725 0.56988
 C154 C 0.95901 0.04518 0.54603
 N155 N 0.90863 0.03380 0.55516
 N156 N 0.39185 1.03630 0.09348
 C157 C 0.38563 1.08878 0.08918
 N158 N 0.41533 1.11417 0.05415
 N159 N 0.44985 1.08791 0.02432
 C160 C 0.45573 1.03542 0.02854
 N161 N 0.42629 1.01009 0.06366
 N162 N 0.59946 1.10981 -0.05410
 C163 C 0.60586 1.10385 -0.10655
 N164 N 0.57835 1.06712 -0.13197
 N165 N 0.54607 1.03708 -0.10561
 C166 C 0.54027 1.04288 -0.05304
 N167 N 0.56736 1.07980 -0.02784
 N168 N 0.40268 0.88620 -0.05300
 C169 C 0.39441 0.89285 -0.10506
 N170 N 0.42089 0.93001 -0.13063
 N171 N 0.45398 0.95982 -0.10479
 C172 C 0.46164 0.95336 -0.05258
 N173 N 0.43556 0.91602 -0.02723
 N174 N 0.58823 0.88294 0.05338
 C175 C 0.61850 0.90880 0.08778
 N176 N 0.61241 0.96134 0.09182
 N177 N 0.57756 0.98716 0.06238
 C178 C 0.54754 0.96137 0.02790
 N179 N 0.55330 0.90882 0.02392
   
