data_POSCAR
  _audit_creation_date              2014-09-24
  _audit_creation_method            'ToBaCCo'
  _symmetry_space_group_name_H-M    'P1'
  _symmetry_Int_Tables_number       1
  _symmetry_cell_setting            triclinic
  loop_
  _symmetry_equiv_pos_as_xyz
 x,y,z
_cell_length_a 28.7378
_cell_length_b 28.7119
_cell_length_c 28.7597
_cell_angle_alpha 92.145000
_cell_angle_beta 92.136100
_cell_angle_gamma 86.021400
loop_
  _atom_site_label
  _atom_site_type_symbol
  _atom_site_fract_x
  _atom_site_fract_y
  _atom_site_fract_z
Si1 Si -0.00838 0.51080 0.24962
 Si2 Si 0.01104 0.49130 0.74861
 Si3 Si 0.24860 0.01663 0.50873
 Si4 Si 0.75298 -0.01683 0.48943
 Si5 Si 0.48324 0.25241 0.98978
 Si6 Si 0.51696 0.74919 1.00928
 B7 B 0.99933 1.04890 0.03003
 B8 B 0.99767 1.04868 -0.02878
 B9 B 1.04696 1.02845 0.00044
 B10 B 1.03075 0.99986 0.04709
 B11 B 0.97174 1.00241 0.04653
 B12 B 0.95118 1.03230 -0.00052
 B13 B 1.00051 0.95287 -0.03182
 B14 B 1.00205 0.95311 0.02697
 B15 B 0.95285 0.97337 -0.00231
 B16 B 0.96917 1.00179 -0.04892
 B17 B 1.02813 0.99944 -0.04836
 B18 B 1.04856 0.96933 -0.00132
 B19 B 0.54897 0.49746 0.47172
 B20 B 0.54906 0.49952 0.53054
 B21 B 0.52865 0.54694 0.50059
 B22 B 0.49978 0.52771 0.45185
 B23 B 0.50220 0.46868 0.45172
 B24 B 0.53264 0.45113 0.50027
 B25 B 0.45336 0.50214 0.52727
 B26 B 0.45325 0.50017 0.46848
 B27 B 0.47371 0.45268 0.49842
 B28 B 0.50260 0.47193 0.54713
 B29 B 0.50000 0.53100 0.54733
 B30 B 0.46961 0.54849 0.49872
 C31 C 0.99565 1.36951 0.17268
 N32 N 1.03492 1.38536 0.19360
 N33 N 1.03414 1.42760 0.21442
 C34 C 0.99422 1.45567 0.21466
 N35 N 0.95507 1.44021 0.19324
 N36 N 0.95577 1.39784 0.17258
 C37 C 0.99594 1.32172 0.15260
 N38 N 0.95558 1.30323 0.13762
 N39 N 0.95582 1.25931 0.12087
 C40 C 0.99642 1.23229 0.11852
 N41 N 1.03677 1.25085 0.13335
 N42 N 1.03651 1.29468 0.15027
 C43 C 0.99697 1.18425 0.09911
 N44 N 1.03808 1.15961 0.09121
 N45 N 1.03873 1.11696 0.07132
 C46 C 0.99842 1.09707 0.05896
 N47 N 0.95732 1.12153 0.06757
 N48 N 0.95656 1.16430 0.08726
 C49 C 0.99017 0.64408 0.16881
 N50 N 1.02116 0.60754 0.15864
 N51 N 1.02028 0.56753 0.18063
 C52 C 0.98809 0.56261 0.21313
 N53 N 0.95693 0.59894 0.22286
 N54 N 0.95785 0.63889 0.20105
 C55 C 0.99291 0.68946 0.14762
 N56 N 0.96576 0.72704 0.16301
 N57 N 0.96903 0.76880 0.14527
 C58 C 0.99957 0.77453 0.11144
 N59 N 1.02664 0.73692 0.09585
 N60 N 1.02352 0.69514 0.11377
 C61 C 1.00243 0.82051 0.09159
 N62 N 1.02855 0.82556 0.05402
 N63 N 1.02931 0.86698 0.03484
 C64 C 1.00422 0.90496 0.05255
 N65 N 0.97880 0.89994 0.09062
 N66 N 0.97784 0.85852 0.10976
 C67 C 1.00769 1.35691 -0.17286
 N68 N 1.04099 1.36213 -0.20406
 N69 N 1.04282 1.40220 -0.22542
 C70 C 1.01161 1.43865 -0.21633
 N71 N 0.97833 1.43371 -0.18495
 N72 N 0.97652 1.39354 -0.16339
 C73 C 1.00472 1.31157 -0.15163
 N74 N 0.97350 1.30571 -0.11839
 N75 N 0.97075 1.26403 -0.10009
 C76 C 0.99885 1.22673 -0.11465
 N77 N 1.02995 1.23264 -0.14791
 N78 N 1.03283 1.27427 -0.16603
 C79 C 0.99657 1.18088 -0.09429
 N80 N 1.02255 1.14323 -0.11131
 N81 N 1.02198 1.10195 -0.09180
 C82 C 0.99555 1.09671 -0.05451
 N83 N 0.96921 1.13435 -0.03785
 N84 N 0.96959 1.17563 -0.05739
 C85 C 1.01317 0.63119 -0.17227
 N86 N 1.04978 0.61485 -0.19806
 N87 N 1.04990 0.57294 -0.21948
 C88 C 1.01361 0.54574 -0.21564
 N89 N 0.97732 0.56160 -0.18923
 N90 N 0.97711 0.60364 -0.16789
 C91 C 1.01153 0.67886 -0.15184
 N92 N 0.97282 0.69731 -0.13044
 N93 N 0.97063 0.74127 -0.11372
 C94 C 1.00701 0.76841 -0.11786
 N95 N 1.04581 0.74992 -0.13908
 N96 N 1.04795 0.70598 -0.15591
 C97 C 1.00460 0.81666 -0.09893
 N98 N 1.04214 0.84284 -0.09945
 N99 N 1.04039 0.88586 -0.08023
 C100 C 1.00096 0.90445 -0.06018
 N101 N 0.96339 0.87832 -0.06020
 N102 N 0.96509 0.83532 -0.07926
 C103 C 1.17213 1.01318 0.36750
 N104 N 1.16782 0.97852 0.39767
 N105 N 1.18835 0.98029 0.44003
 C106 C 1.21363 1.01691 0.45366
 N107 N 1.21747 1.05171 0.42375
 N108 N 1.19699 1.04998 0.38151
 C109 C 1.15232 1.01019 0.31971
 N110 N 1.15903 1.04406 0.28941
 N111 N 1.14236 1.04103 0.24564
 C112 C 1.11849 1.00391 0.23047
 N113 N 1.11172 0.97002 0.26077
 N114 N 1.12844 0.97304 0.30457
 C115 C 1.09917 1.00117 0.18250
 N116 N 1.07342 0.96521 0.16799
 N117 N 1.05375 0.96408 0.12535
 C118 C 1.05914 0.99866 0.09547
 N119 N 1.08557 1.03420 0.10980
 N120 N 1.10528 1.03544 0.15247
 C121 C 1.17061 1.01554 -0.35663
 N122 N 1.20112 1.04848 -0.36330
 N123 N 1.22214 1.04997 -0.40364
 C124 C 1.21336 1.01869 -0.43881
 N125 N 1.18259 0.98594 -0.43243
 N126 N 1.16138 0.98454 -0.39209
 C127 C 1.14991 1.01230 -0.31102
 N128 N 1.11706 0.98161 -0.30457
 N129 N 1.09929 0.97807 -0.26280
 C130 C 1.11402 1.00479 -0.22588
 N131 N 1.14691 1.03542 -0.23234
 N132 N 1.16450 1.03911 -0.27414
 C133 C 1.09397 1.00141 -0.18000
 N134 N 1.11130 1.02515 -0.14223
 N135 N 1.09183 1.02352 -0.10104
 C136 C 1.05423 0.99824 -0.09609
 N137 N 1.03739 0.97406 -0.13381
 N138 N 1.05692 0.97549 -0.17493
 C139 C 0.83091 0.98588 0.35512
 N140 N 0.83917 1.01735 0.39041
 N141 N 0.81800 1.01547 0.43071
 C142 C 0.78823 0.98180 0.43715
 N143 N 0.78047 0.95005 0.40216
 N144 N 0.80146 0.95201 0.36188
 C145 C 0.85134 0.98964 0.30951
 N146 N 0.83770 0.96200 0.27290
 N147 N 0.85493 0.96610 0.23103
 C148 C 0.88646 0.99801 0.22422
 N149 N 0.90026 1.02560 0.26086
 N150 N 0.88285 1.02164 0.30273
 C151 C 0.90611 1.00160 0.17825
 N152 N 0.94192 1.02899 0.17245
 N153 N 0.96134 1.03015 0.13123
 C154 C 0.94567 1.00412 0.09424
 N155 N 0.90914 0.97763 0.09989
 N156 N 0.88979 0.97627 0.14112
 C157 C 0.83053 0.98740 -0.37008
 N158 N 0.80815 0.94922 -0.38492
 N159 N 0.78728 0.94741 -0.42696
 C160 C 0.78834 0.98351 -0.45586
 N161 N 0.81120 1.02152 -0.44143
 N162 N 0.83202 1.02342 -0.39923
 C163 C 0.85048 0.99031 -0.32241
 N164 N 0.86965 1.02970 -0.30553
 N165 N 0.88612 1.03259 -0.26164
 C166 C 0.88386 0.99626 -0.23306
 N167 N 0.86481 0.95688 -0.25001
 N168 N 0.84831 0.95402 -0.29382
 C169 C 0.90261 0.99894 -0.18494
 N170 N 0.90265 0.96151 -0.15749
 N171 N 0.92167 0.96306 -0.11457
 C172 C 0.94100 1.00218 -0.09730
 N173 N 0.94051 1.03973 -0.12468
 N174 N 0.92157 1.03823 -0.16764
 C175 C 1.34811 1.17850 -0.01039
 N176 N 1.38980 1.15336 -0.00548
 N177 N 1.42981 1.17429 -0.00630
 C178 C 1.42931 1.22103 -0.01194
 N179 N 1.38776 1.24601 -0.01682
 N180 N 1.34791 1.22515 -0.01624
 C181 C 1.30370 1.15631 -0.00851
 N182 N 1.26274 1.18136 -0.01756
 N183 N 1.22219 1.16191 -0.01518
 C184 C 1.22109 1.11671 -0.00335
 N185 N 1.26205 1.09161 0.00574
 N186 N 1.30265 1.11103 0.00316
 C187 C 1.17640 1.09519 -0.00084
 N188 N 1.17514 1.05144 0.01500
 N189 N 1.13483 1.03143 0.01626
 C190 C 1.09422 1.05415 0.00164
 N191 N 1.09549 1.09813 -0.01382
 N192 N 1.13580 1.11834 -0.01493
 C193 C 0.62454 1.17093 -0.01038
 N194 N 0.59723 1.17027 0.02715
 N195 N 0.55459 1.19188 0.02654
 C196 C 0.53783 1.21470 -0.01169
 N197 N 0.56486 1.21483 -0.04932
 N198 N 0.60734 1.19318 -0.04878
 C199 C 0.67294 1.15067 -0.00873
 N200 N 0.69999 1.15236 -0.04628
 N201 N 0.74450 1.13595 -0.04442
 C202 C 0.76372 1.11748 -0.00481
 N203 N 0.73667 1.11567 0.03273
 N204 N 0.69211 1.13205 0.03085
 C205 C 0.81269 1.09895 -0.00289
 N206 N 0.83185 1.08068 0.03680
 N207 N 0.87552 1.06188 0.03796
 C208 C 0.90189 1.06082 -0.00031
 N209 N 0.88279 1.07953 -0.03988
 N210 N 0.83909 1.09842 -0.04111
 C211 C 1.37362 0.82692 0.00886
 N212 N 1.40153 0.82926 -0.02799
 N213 N 1.44451 0.80846 -0.02716
 C214 C 1.46102 0.78474 0.01059
 N215 N 1.43336 0.78284 0.04755
 N216 N 1.39052 0.80372 0.04681
 C217 C 1.32513 0.84695 0.00700
 N218 N 1.29787 0.84512 0.04438
 N219 N 1.25345 0.86184 0.04240
 C220 C 1.23453 0.88069 0.00284
 N221 N 1.26178 0.88254 -0.03455
 N222 N 1.30626 0.86593 -0.03253
 C223 C 1.18578 0.89988 0.00090
 N224 N 1.16658 0.91758 -0.03904
 N225 N 1.12323 0.93723 -0.04018
 C226 C 1.09727 0.93979 -0.00157
 N227 N 1.11637 0.92161 0.03825
 N228 N 1.15971 0.90184 0.03943
 C229 C 0.64886 0.82852 0.00811
 N230 N 0.64432 0.79513 0.03941
 N231 N 0.60494 0.77355 0.04073
 C232 C 0.56849 0.78459 0.01102
 N233 N 0.57278 0.81814 -0.02028
 N234 N 0.61225 0.83992 -0.02157
 C235 C 0.69353 0.85011 0.00553
 N236 N 0.69855 0.88541 -0.02363
 N237 N 0.73961 0.90401 -0.02617
 C238 C 0.77714 0.88774 0.00008
 N239 N 0.77206 0.85244 0.02913
 N240 N 0.73104 0.83401 0.03181
 C241 C 0.82234 0.90832 -0.00219
 N242 N 0.86047 0.88964 0.02152
 N243 N 0.90116 0.90910 0.02069
 C244 C 0.90532 0.94805 -0.00370
 N245 N 0.86721 0.96638 -0.02774
 N246 N 0.82653 0.94689 -0.02712
 C247 C 0.85733 0.50747 0.32819
 N248 N 0.86261 0.54087 0.29709
 N249 N 0.90266 0.54270 0.27575
 C250 C 0.93904 0.51140 0.28476
 N251 N 0.93403 0.47802 0.31606
 N252 N 0.89388 0.47621 0.33760
 C253 C 0.81197 0.50449 0.34937
 N254 N 0.80607 0.47326 0.38261
 N255 N 0.76439 0.47051 0.40085
 C256 C 0.72712 0.49861 0.38621
 N257 N 0.73309 0.52971 0.35295
 N258 N 0.77472 0.53260 0.33490
 C259 C 0.68126 0.49631 0.40649
 N260 N 0.64363 0.52218 0.38929
 N261 N 0.60234 0.52160 0.40870
 C262 C 0.59705 0.49527 0.44607
 N263 N 0.63466 0.46906 0.46292
 N264 N 0.67596 0.46944 0.44347
 C265 C 0.13185 0.51247 0.32798
 N266 N 0.10454 0.47614 0.33200
 N267 N 0.06240 0.47647 0.31094
 C268 C 0.04619 0.51314 0.28517
 N269 N 0.07318 0.54968 0.28168
 N270 N 0.11518 0.54945 0.30284
 C271 C 0.17962 0.51077 0.34812
 N272 N 0.20630 0.54768 0.34493
 N273 N 0.25026 0.54558 0.36158
 C274 C 0.26924 0.50634 0.38170
 N275 N 0.24255 0.46945 0.38493
 N276 N 0.19855 0.47160 0.36841
 C277 C 0.31748 0.50404 0.40058
 N278 N 0.33678 0.46402 0.41880
 N279 N 0.37967 0.46243 0.43804
 C280 C 0.40505 0.50061 0.43973
 N281 N 0.38586 0.54051 0.42099
 N282 N 0.34296 0.54217 0.40159
 C283 C 0.86960 0.49592 0.67231
 N284 N 0.89780 0.45594 0.67197
 N285 N 0.94023 0.45508 0.69243
 C286 C 0.95586 0.49416 0.71389
 N287 N 0.92791 0.53419 0.71388
 N288 N 0.88562 0.53513 0.69324
 C289 C 0.82177 0.49634 0.65248
 N290 N 0.79483 0.53699 0.65023
 N291 N 0.75095 0.53733 0.63353
 C292 C 0.73227 0.49696 0.61887
 N293 N 0.75918 0.45627 0.62116
 N294 N 0.80315 0.45597 0.63768
 C295 C 0.68422 0.49753 0.59965
 N296 N 0.66423 0.45704 0.58810
 N297 N 0.62150 0.45773 0.56845
 C298 C 0.59711 0.49882 0.55957
 N299 N 0.61701 0.53921 0.57168
 N300 N 0.65963 0.53864 0.59153
 C301 C 0.14403 0.48983 0.66759
 N302 N 0.10766 0.52112 0.65775
 N303 N 0.06770 0.52024 0.67975
 C304 C 0.06266 0.48776 0.71195
 N305 N 0.09880 0.45628 0.72132
 N306 N 0.13870 0.45719 0.69950
 C307 C 0.18941 0.49262 0.64653
 N308 N 0.22683 0.46520 0.66177
 N309 N 0.26863 0.46856 0.64424
 C310 C 0.27456 0.49948 0.61079
 N311 N 0.23710 0.52681 0.59533
 N312 N 0.19528 0.52360 0.61305
 C313 C 0.32060 0.50245 0.59122
 N314 N 0.32588 0.52888 0.55391
 N315 N 0.36738 0.52971 0.53497
 C316 C 0.40519 0.50442 0.55270
 N317 N 0.39992 0.47867 0.59049
 N318 N 0.35843 0.47763 0.60938
 C319 C 0.51583 0.66937 0.14309
 N320 N 0.48589 0.65938 0.10694
 N321 N 0.48749 0.68096 0.06678
 C322 C 0.51939 0.71287 0.06129
 N323 N 0.54947 0.72240 0.09725
 N324 N 0.54784 0.70101 0.13733
 C325 C 0.51241 0.64851 0.18861
 N326 N 0.53865 0.66362 0.22568
 N327 N 0.53493 0.64605 0.26747
 C328 C 0.50482 0.61266 0.27378
 N329 N 0.47865 0.59739 0.23669
 N330 N 0.48222 0.61513 0.19488
 C331 C 0.50147 0.59278 0.31975
 N332 N 0.47570 0.55565 0.32506
 N333 N 0.47437 0.53635 0.36633
 C334 C 0.49852 0.55348 0.40392
 N335 N 0.52364 0.59115 0.39872
 N336 N 0.52516 0.61040 0.35741
 C337 C 0.51395 0.67369 0.86738
 N338 N 0.47986 0.66834 0.89788
 N339 N 0.48159 0.68868 0.94032
 C340 C 0.51758 0.71486 0.95374
 N341 N 0.55186 0.71976 0.92352
 N342 N 0.55017 0.69945 0.88116
 C343 C 0.51090 0.65386 0.81956
 N344 N 0.54423 0.66118 0.78889
 N345 N 0.54108 0.64434 0.74517
 C346 C 0.50437 0.61968 0.73042
 N347 N 0.47103 0.61232 0.76108
 N348 N 0.47416 0.62919 0.80482
 C349 C 0.50150 0.60013 0.68250
 N350 N 0.46582 0.57385 0.66837
 N351 N 0.46458 0.55397 0.62580
 C352 C 0.49879 0.55965 0.59561
 N353 N 0.53405 0.58660 0.60956
 N354 N 0.53538 0.60652 0.65215
 C355 C 0.48771 0.32861 0.13109
 N356 N 0.44995 0.30552 0.11646
 N357 N 0.44804 0.28506 0.07421
 C358 C 0.48362 0.28721 0.04491
 N359 N 0.52123 0.31076 0.05915
 N360 N 0.52320 0.33121 0.10154
 C361 C 0.49075 0.34830 0.17889
 N362 N 0.52947 0.36901 0.19519
 N363 N 0.53246 0.38547 0.23908
 C364 C 0.49694 0.38165 0.26828
 N365 N 0.45824 0.36102 0.25194
 N366 N 0.45526 0.34455 0.20810
 C367 C 0.49971 0.40064 0.31634
 N368 N 0.46323 0.39877 0.34472
 N369 N 0.46474 0.41823 0.38748
 C370 C 0.50285 0.44001 0.40361
 N371 N 0.53951 0.44130 0.37535
 N372 N 0.53806 0.42191 0.33259
 C373 C 0.48555 0.33110 0.85580
 N374 N 0.45167 0.30166 0.86257
 N375 N 0.44981 0.28050 0.90279
 C376 C 0.48165 0.28809 0.93772
 N377 N 0.51531 0.31787 0.93127
 N378 N 0.51710 0.33920 0.89104
 C379 C 0.48925 0.35163 0.81021
 N380 N 0.52131 0.38306 0.80339
 N381 N 0.52526 0.40051 0.76152
 C382 C 0.49760 0.38682 0.72491
 N383 N 0.46561 0.35538 0.73176
 N384 N 0.46152 0.33811 0.77362
 C385 C 0.50125 0.40647 0.67892
 N386 N 0.47589 0.39022 0.64177
 N387 N 0.47739 0.40953 0.60052
 C388 C 0.50408 0.44594 0.59487
 N389 N 0.53011 0.46155 0.63188
 N390 N 0.52880 0.44217 0.67311
 C391 C 0.67903 0.84804 0.48941
 N392 N 0.65398 0.88978 0.49443
 N393 N 0.67494 0.92979 0.49361
 C394 C 0.72163 0.92923 0.48785
 N395 N 0.74652 0.88762 0.48286
 N396 N 0.72562 0.84776 0.48345
 C397 C 0.65678 0.80364 0.49127
 N398 N 0.68175 0.76260 0.48225
 N399 N 0.66221 0.72206 0.48461
 C400 C 0.61703 0.72106 0.49639
 N401 N 0.59202 0.76211 0.50545
 N402 N 0.61152 0.80269 0.50289
 C403 C 0.59544 0.67640 0.49891
 N404 N 0.55166 0.67526 0.51460
 N405 N 0.53160 0.63495 0.51594
 C406 C 0.55432 0.59423 0.50154
 N407 N 0.59831 0.59539 0.48621
 N408 N 0.61856 0.63569 0.48502
 C409 C 0.67167 0.12460 0.49034
 N410 N 0.69323 0.10732 0.45158
 N411 N 0.71480 0.06478 0.45076
 C412 C 0.71526 0.03776 0.48845
 N413 N 0.69312 0.05460 0.52704
 N414 N 0.67159 0.09729 0.52795
 C415 C 0.65155 0.17306 0.49222
 N416 N 0.63362 0.19236 0.53208
 N417 N 0.61735 0.23699 0.53409
 C418 C 0.61861 0.26396 0.49640
 N419 N 0.63639 0.24460 0.45654
 N420 N 0.65269 0.20003 0.45455
 C421 C 0.60007 0.31294 0.49835
 N422 N 0.59892 0.33909 0.45990
 N423 N 0.57985 0.38273 0.46103
 C424 C 0.56157 0.40205 0.50071
 N425 N 0.56330 0.37598 0.53924
 N426 N 0.58229 0.33234 0.53817
 C427 C 0.32853 0.87435 0.50782
 N428 N 0.32909 0.90175 0.47033
 N429 N 0.30788 0.94459 0.47122
 C430 C 0.28556 0.96150 0.50969
 N431 N 0.28549 0.93437 0.54726
 N432 N 0.30676 0.89168 0.54645
 C433 C 0.34861 0.82584 0.50601
 N434 N 0.34765 0.79897 0.54379
 N435 N 0.36415 0.75445 0.54192
 C436 C 0.38194 0.73502 0.50208
 N437 N 0.38298 0.76188 0.46429
 N438 N 0.36654 0.80647 0.46618
 C439 C 0.40083 0.68612 0.50030
 N440 N 0.41821 0.66654 0.46037
 N441 N 0.43760 0.62304 0.45942
 C442 C 0.44017 0.59730 0.49820
 N443 N 0.42230 0.61679 0.53800
 N444 N 0.40281 0.66028 0.53900
 C445 C 0.32413 0.15090 0.50907
 N446 N 0.27780 0.15151 0.51660
 N447 N 0.25650 0.11188 0.51705
 C448 C 0.28075 0.07012 0.51046
 N449 N 0.32718 0.06920 0.50310
 N450 N 0.34852 0.10901 0.50235
 C451 C 0.34666 0.19518 0.50744
 N452 N 0.39100 0.19635 0.49300
 N453 N 0.41051 0.23696 0.49058
 C454 C 0.38646 0.27779 0.50264
 N455 N 0.34225 0.27653 0.51727
 N456 N 0.32268 0.23601 0.51944
 C457 C 0.40787 0.32258 0.50025
 N458 N 0.38625 0.36250 0.51807
 N459 N 0.40618 0.40296 0.51687
 C460 C 0.44830 0.40516 0.49753
 N461 N 0.46953 0.36524 0.47926
 N462 N 0.44982 0.32472 0.48064
   
