data_POSCAR
  _audit_creation_date              2014-09-24
  _audit_creation_method            'ToBaCCo'
  _symmetry_space_group_name_H-M    'P1'
  _symmetry_Int_Tables_number       1
  _symmetry_cell_setting            triclinic
  loop_
  _symmetry_equiv_pos_as_xyz
 x,y,z
_cell_length_a 20.8582
_cell_length_b 20.8549
_cell_length_c 36.3143
_cell_angle_alpha 90.433400
_cell_angle_beta 90.265800
_cell_angle_gamma 90.436400
loop_
  _atom_site_label
  _atom_site_type_symbol
  _atom_site_fract_x
  _atom_site_fract_y
  _atom_site_fract_z
C1 C -0.03542 0.30618 0.97989
 C2 C -0.03843 0.30469 1.01757
 C3 C -0.01623 0.36381 1.03026
 N4 N -0.00007 0.40137 1.00154
 C5 C -0.01204 0.36628 0.97076
 C6 C -0.00923 0.38129 1.06788
 C7 C 0.00442 0.44518 1.07950
 C8 C 0.02627 0.46246 1.11437
 C9 C 0.02952 0.52825 1.11543
 C10 C 0.01068 0.54977 1.08096
 N11 N -0.00507 0.49870 1.05936
 C12 C 0.00373 0.61525 1.07127
 C13 C -0.00512 0.63599 1.03455
 C14 C -0.01822 0.69850 1.02411
 C15 C -0.01765 0.69930 0.98637
 C16 C -0.00333 0.63758 0.97492
 N17 N 0.00467 0.59914 1.00437
 C18 C 0.00636 0.61877 0.93795
 C19 C 0.01769 0.55485 0.92697
 C20 C 0.04023 0.53643 0.89266
 C21 C 0.03912 0.47051 0.89178
 C22 C 0.01569 0.45065 0.92553
 N23 N 0.00275 0.50232 0.94679
 C24 C 0.00078 0.38658 0.93453
 H25 H -0.04909 0.26752 0.96134
 H26 H -0.05521 0.26464 1.03377
 H27 H -0.02297 0.50189 0.97121
 H28 H 0.03775 0.43093 1.13696
 H29 H 0.04346 0.55685 1.13916
 H30 H -0.02626 0.73967 1.04174
 H31 H -0.02552 0.74091 0.96935
 H32 H 0.05240 0.44063 0.86858
 H33 H -0.02800 0.50042 1.03394
 H34 H 0.05475 0.56732 0.87032
 C35 C 0.30569 0.03020 0.48440
 C36 C 0.30548 0.02638 0.52210
 C37 C 0.36685 0.00892 0.53259
 N38 N 0.40425 0.00130 0.50265
 C39 C 0.36707 0.01453 0.47316
 C40 C 0.38592 -0.00475 0.56898
 C41 C 0.45026 -0.01479 0.57963
 C42 C 0.46905 -0.03937 0.61332
 C43 C 0.53491 -0.03800 0.61397
 C44 C 0.55461 -0.01251 0.58064
 N45 N 0.50268 0.00162 0.55988
 C46 C 0.61930 -0.00008 0.57103
 C47 C 0.63920 0.00691 0.53395
 C48 C 0.70068 0.02374 0.52297
 C49 C 0.70082 0.02188 0.48525
 C50 C 0.63909 0.00552 0.47429
 N51 N 0.60162 -0.00416 0.50407
 C52 C 0.61943 -0.00352 0.43732
 C53 C 0.55463 -0.00969 0.42609
 C54 C 0.53457 -0.02658 0.39082
 C55 C 0.46876 -0.02300 0.39045
 C56 C 0.45038 -0.00403 0.42549
 N57 N 0.50301 0.00454 0.44692
 C58 C 0.38648 0.00819 0.43613
 H59 H 0.26502 0.04211 0.46722
 H60 H 0.26466 0.03472 0.53976
 H61 H 0.50410 0.02580 0.47284
 H62 H 0.43847 -0.05608 0.63531
 H63 H 0.56495 -0.05365 0.63651
 H64 H 0.74142 0.03587 0.54028
 H65 H 0.74172 0.03185 0.46794
 H66 H 0.43799 -0.03269 0.36695
 H67 H 0.50302 0.02776 0.53563
 H68 H 0.56422 -0.03931 0.36755
 C69 C 0.12307 -0.03710 0.27748
 H70 H 0.11916 -0.07374 0.25639
 C71 C 0.17688 -0.03531 0.30050
 H72 H 0.21437 -0.07044 0.29695
 C73 C 0.07871 0.05242 0.30864
 H74 H 0.03973 0.08590 0.31183
 C75 C 0.13164 0.05587 0.33227
 H76 H 0.13341 0.09204 0.35382
 N77 N 0.07553 0.00663 0.28180
 C78 C -0.03279 -0.12464 0.23032
 H79 H -0.06341 -0.12396 0.25423
 C80 C -0.03044 -0.17962 0.20815
 H81 H -0.05930 -0.22115 0.21510
 C82 C 0.04197 -0.07162 0.19185
 H83 H 0.06988 -0.02913 0.18570
 C84 C 0.04516 -0.12523 0.16873
 H85 H 0.07513 -0.12371 0.14447
 Zn86 Zn 0.00119 0.00245 0.25172
 N87 N 0.00351 -0.07228 0.22198
 C88 C -0.04799 0.07565 0.19350
 N89 N -0.00212 0.07463 0.22027
 C90 C 0.04216 0.12269 0.22353
 C91 C 0.04036 0.17510 0.19984
 C92 C -0.05182 0.12739 0.16943
 C93 C -0.06700 -0.03615 0.31403
 C94 C -0.11849 -0.03987 0.33837
 C95 C -0.17863 0.02951 0.29824
 C96 C -0.12558 0.03288 0.27499
 N97 N -0.07141 -0.00035 0.28297
 H98 H -0.08149 0.03603 0.19079
 H99 H 0.07924 0.12037 0.24430
 H100 H 0.07573 0.21315 0.20259
 H101 H -0.08863 0.12800 0.14831
 H102 H -0.02319 -0.06156 0.31998
 H103 H -0.11390 -0.06762 0.36332
 H104 H -0.22165 0.05570 0.29138
 H105 H -0.12807 0.06196 0.25061
 C106 C 0.00939 -0.18043 0.17713
 C107 C 0.18163 0.01188 0.32808
 C108 C -0.17563 -0.00777 0.33017
 C109 C -0.00737 0.17778 0.17270
 C110 C 0.05239 0.11936 0.77855
 H111 H 0.09254 0.11080 0.76057
 C112 C 0.05160 0.17463 0.80053
 H113 H 0.09144 0.20818 0.79962
 C114 C -0.04863 0.08677 0.80190
 H115 H -0.08731 0.05193 0.80236
 C116 C -0.05125 0.14117 0.82438
 H117 H -0.09185 0.14800 0.84244
 N118 N 0.00322 0.07622 0.78017
 C119 C 0.06495 -0.00915 0.68364
 H120 H 0.01696 -0.00999 0.67241
 C121 C 0.11700 -0.01300 0.65981
 H122 H 0.10883 -0.01582 0.63036
 C123 C 0.13465 -0.00568 0.73541
 H124 H 0.14089 -0.00329 0.76498
 C125 C 0.18820 -0.00930 0.71249
 H126 H 0.23591 -0.00945 0.72439
 Zn127 Zn 0.00304 -0.00104 0.75254
 N128 N 0.07454 -0.00493 0.72067
 C129 C -0.08529 0.04955 0.70340
 N130 N -0.07363 -0.00278 0.72447
 C131 C -0.11518 -0.05343 0.72503
 C132 C -0.16985 -0.05360 0.70263
 C133 C -0.13944 0.05149 0.68080
 C134 C 0.00853 -0.06208 0.82183
 C135 C 0.00902 -0.11397 0.84580
 C136 C 0.00933 -0.18561 0.79319
 C137 C 0.00876 -0.13224 0.77014
 N138 N 0.00682 -0.07199 0.78474
 H139 H -0.05168 0.08932 0.70372
 H140 H -0.10579 -0.09403 0.74244
 H141 H -0.20209 -0.09456 0.70264
 H142 H -0.14752 0.09276 0.66350
 H143 H 0.00924 -0.01401 0.83301
 H144 H 0.00913 -0.10554 0.87527
 H145 H 0.00978 -0.23346 0.78140
 H146 H 0.00892 -0.13875 0.74055
 C147 C 0.17935 -0.01345 0.67427
 C148 C -0.00066 0.18575 0.82381
 C149 C 0.00816 -0.17644 0.83146
 C150 C -0.18215 -0.00067 0.68022
 C151 C 0.06749 -0.31768 0.11494
 C152 C 0.00795 -0.33753 0.09926
 C153 C -0.04870 -0.30804 0.11089
 C154 C -0.04721 -0.25868 0.13686
 C155 C 0.01086 -0.23737 0.15235
 C156 C 0.06873 -0.26828 0.14232
 C157 C 0.12597 -0.34516 0.10361
 C158 C 0.18378 -0.32664 0.12006
 C159 C 0.18461 -0.28056 0.14797
 C160 C 0.12780 -0.25162 0.15912
 H161 H 0.12748 -0.38136 0.08213
 H162 H 0.22812 -0.34853 0.11131
 H163 H 0.22955 -0.26704 0.16099
 H164 H 0.13065 -0.21667 0.18122
 H165 H -0.09448 -0.32260 0.09917
 H166 H -0.09180 -0.23568 0.14423
 C167 C -0.05682 0.33211 0.12405
 C168 C -0.01182 0.33217 0.09464
 C169 C 0.03248 0.28189 0.09204
 C170 C 0.03359 0.23304 0.11786
 C171 C -0.00976 0.23232 0.14705
 C172 C -0.05526 0.28201 0.15057
 C173 C -0.10520 0.37901 0.12684
 C174 C -0.14864 0.37830 0.15591
 C175 C -0.14554 0.33062 0.18243
 C176 C -0.09956 0.28266 0.17983
 H177 H -0.11036 0.41622 0.10650
 H178 H -0.18509 0.41484 0.15778
 H179 H -0.17934 0.33043 0.20496
 H180 H -0.09915 0.24611 0.20083
 H181 H 0.06743 0.28101 0.07004
 H182 H 0.06847 0.19511 0.11493
 C183 C 0.29558 -0.06719 0.59908
 C184 C 0.33509 -0.01176 0.59726
 C185 C 0.32569 0.03887 0.62210
 C186 C 0.27631 0.03642 0.64772
 C187 C 0.23491 -0.01669 0.64916
 C188 C 0.24517 -0.06981 0.62534
 C189 C 0.30539 -0.12022 0.57544
 C190 C 0.26647 -0.17468 0.57771
 C191 C 0.21756 -0.17755 0.60361
 C192 C 0.20698 -0.12586 0.62735
 H193 H 0.34338 -0.12024 0.55524
 H194 H 0.27455 -0.21504 0.55944
 H195 H 0.18787 -0.22019 0.60544
 H196 H 0.16921 -0.13058 0.64748
 H197 H 0.35602 0.08122 0.62104
 H198 H 0.26907 0.07719 0.66586
 C199 C -0.33572 0.04620 0.62922
 C200 C -0.33379 0.00144 0.59939
 C201 C -0.28424 -0.04379 0.59825
 C202 C -0.23704 -0.04494 0.62536
 C203 C -0.23748 -0.00097 0.65461
 C204 C -0.28764 0.04424 0.65724
 C205 C -0.38257 0.09481 0.63104
 C206 C -0.38414 0.13769 0.66065
 C207 C -0.33888 0.13376 0.68877
 C208 C -0.29087 0.08773 0.68715
 H209 H -0.41802 0.10064 0.60954
 H210 H -0.42067 0.17424 0.66176
 H211 H -0.34061 0.16694 0.71181
 H212 H -0.25653 0.08642 0.70955
 H213 H -0.28226 -0.07893 0.57614
 H214 H -0.19888 -0.07970 0.62308
 C215 C -0.04839 -0.32339 0.88536
 C216 C 0.00512 -0.33113 0.90905
 C217 C 0.05798 -0.28981 0.90612
 C218 C 0.05832 -0.24069 0.88042
 C219 C 0.00597 -0.23161 0.85679
 C220 C -0.04814 -0.27302 0.85908
 C221 C -0.10277 -0.36385 0.88780
 C222 C -0.15566 -0.35492 0.86485
 C223 C -0.15576 -0.30530 0.83944
 C224 C -0.10283 -0.26440 0.83662
 H225 H -0.10507 -0.40244 0.90751
 H226 H -0.19699 -0.38635 0.86699
 H227 H -0.19724 -0.29823 0.82196
 H228 H -0.10555 -0.22587 0.81694
 H229 H 0.09901 -0.29538 0.92419
 H230 H 0.09972 -0.20909 0.87908
 C231 C -0.05104 0.33556 0.87782
 C232 C -0.00103 0.33793 0.90437
 C233 C 0.04867 0.29335 0.90259
 C234 C 0.04882 0.24576 0.87556
 C235 C -0.00061 0.24141 0.84939
 C236 C -0.05035 0.28747 0.84975
 C237 C -0.10200 0.37971 0.87873
 C238 C -0.15004 0.37778 0.85191
 C239 C -0.14832 0.33205 0.82382
 C240 C -0.09903 0.28728 0.82260
 H241 H -0.10516 0.41606 0.90004
 H242 H -0.18863 0.41217 0.85281
 H243 H -0.18541 0.33122 0.80287
 H244 H -0.09913 0.25312 0.80005
 H245 H 0.08722 0.29498 0.92268
 H246 H 0.08708 0.21092 0.87564
 C247 C -0.30726 -0.06753 0.39541
 C248 C -0.32995 -0.00788 0.40869
 C249 C -0.30425 0.04915 0.39487
 C250 C -0.25514 0.04798 0.36910
 C251 C -0.23086 -0.01028 0.35582
 C252 C -0.25836 -0.06883 0.36814
 C253 C -0.33266 -0.12596 0.40850
 C254 C -0.31182 -0.18436 0.39420
 C255 C -0.26582 -0.18568 0.36657
 C256 C -0.23942 -0.12864 0.35347
 H257 H -0.36907 -0.12697 0.42962
 H258 H -0.33196 -0.22881 0.40432
 H259 H -0.25059 -0.23115 0.35516
 H260 H -0.20489 -0.13202 0.33145
 H261 H -0.32153 0.09497 0.40478
 H262 H -0.23497 0.09312 0.35993
 C263 C 0.32871 0.06590 0.38438
 C264 C 0.33635 0.01132 0.40693
 C265 C 0.29543 -0.04160 0.40217
 C266 C 0.24653 -0.04080 0.37601
 C267 C 0.23704 0.01293 0.35376
 C268 C 0.27903 0.06652 0.35731
 C269 C 0.36928 0.12001 0.38830
 C270 C 0.36201 0.17296 0.36548
 C271 C 0.31452 0.17298 0.33842
 C272 C 0.27341 0.12036 0.33421
 H273 H 0.40692 0.12181 0.40890
 H274 H 0.39362 0.21405 0.36868
 H275 H 0.30954 0.21400 0.32057
 H276 H 0.23775 0.12209 0.31253
 H277 H 0.30105 -0.08362 0.41922
 H278 H 0.21493 -0.08211 0.37355
   
