data_POSCAR
  _audit_creation_date              2014-09-24
  _audit_creation_method            'ToBaCCo'
  _symmetry_space_group_name_H-M    'P1'
  _symmetry_Int_Tables_number       1
  _symmetry_cell_setting            triclinic
  loop_
  _symmetry_equiv_pos_as_xyz
 x,y,z
_cell_length_a 43.6996
_cell_length_b 42.9656
_cell_length_c 45.0976
_cell_angle_alpha 89.751100
_cell_angle_beta 90.777100
_cell_angle_gamma 90.409000
loop_
  _atom_site_label
  _atom_site_type_symbol
  _atom_site_fract_x
  _atom_site_fract_y
  _atom_site_fract_z
C1 C 0.13131 0.17525 0.18947
 C2 C 0.13272 0.19838 0.16729
 C3 C 0.15498 0.19705 0.14559
 C4 C 0.17621 0.17251 0.14582
 C5 C 0.17408 0.14961 0.16729
 C6 C 0.15179 0.15099 0.18899
 C7 C 0.11379 0.17111 0.21461
 N8 N 0.12362 0.14492 0.22898
 C9 C 0.14662 0.13254 0.21320
 C10 C 0.19768 0.12939 0.16359
 N11 N 0.21478 0.13936 0.14060
 C12 C 0.20181 0.16574 0.12927
 C13 C 0.15087 0.22255 0.12729
 N14 N 0.12665 0.23912 0.13721
 C15 C 0.11565 0.22460 0.16171
 H16 H 0.09595 0.18644 0.22202
 H17 H 0.15947 0.11200 0.21949
 H18 H 0.20278 0.10937 0.17745
 H19 H 0.21054 0.17948 0.11105
 H20 H 0.16445 0.22827 0.10813
 H21 H 0.09633 0.23244 0.17440
 C22 C -0.14859 0.80705 0.20871
 C23 C -0.14898 0.78425 0.18656
 C24 C -0.17326 0.78254 0.16661
 C25 C -0.19751 0.80368 0.16857
 C26 C -0.19705 0.82616 0.19041
 C27 C -0.17246 0.82782 0.21060
 C28 C -0.12821 0.81393 0.23131
 N29 N -0.13916 0.83833 0.24690
 C30 C -0.16630 0.84701 0.23428
 C31 C -0.22337 0.84328 0.18727
 N32 N -0.23992 0.83173 0.16396
 C33 C -0.22423 0.80749 0.15245
 C34 C -0.16759 0.75812 0.14783
 N35 N -0.14044 0.74503 0.15597
 C36 C -0.12897 0.76091 0.17961
 H37 H -0.10703 0.80189 0.23621
 H38 H -0.18084 0.86565 0.24158
 H39 H -0.22969 0.86255 0.20119
 H40 H -0.23174 0.79359 0.13370
 H41 H -0.18228 0.75064 0.12970
 H42 H -0.10760 0.75575 0.19096
 C43 C -0.13714 0.12364 -0.16550
 C44 C -0.13834 0.14740 -0.14431
 C45 C -0.15596 0.14351 -0.11930
 C46 C -0.17265 0.11585 -0.11517
 C47 C -0.17134 0.09242 -0.13602
 C48 C -0.15349 0.09634 -0.16132
 C49 C -0.12456 0.12227 -0.19326
 N50 N -0.13305 0.09479 -0.20605
 C51 C -0.15062 0.07882 -0.18654
 C52 C -0.19235 0.07000 -0.12822
 N53 N -0.20669 0.07931 -0.10332
 C54 C -0.19452 0.10729 -0.09499
 C55 C -0.15498 0.17117 -0.10402
 N56 N -0.13723 0.19171 -0.11908
 C57 C -0.12694 0.17735 -0.14382
 H58 H -0.11133 0.14065 -0.20349
 H59 H -0.16159 0.05658 -0.19088
 H60 H -0.19813 0.04930 -0.14079
 H61 H -0.20199 0.12151 -0.07678
 H62 H -0.16706 0.17632 -0.08383
 H63 H -0.11294 0.18791 -0.16075
 C64 C 0.16862 0.83984 -0.21268
 C65 C 0.16694 0.81559 -0.19155
 C66 C 0.18858 0.81416 -0.16884
 C67 C 0.21194 0.83652 -0.16678
 C68 C 0.21354 0.86017 -0.18744
 C69 C 0.19182 0.86188 -0.21041
 C70 C 0.15123 0.84770 -0.23741
 N71 N 0.16350 0.87391 -0.24987
 C72 C 0.18825 0.88257 -0.23338
 C73 C 0.23853 0.87834 -0.18017
 N74 N 0.25215 0.86628 -0.15550
 C75 C 0.23597 0.84058 -0.14712
 C76 C 0.18190 0.78865 -0.15171
 N77 N 0.15674 0.77430 -0.16315
 C78 C 0.14728 0.79054 -0.18761
 H79 H 0.13125 0.83517 -0.24542
 H80 H 0.20274 0.90257 -0.23786
 H81 H 0.24628 0.89886 -0.19200
 H82 H 0.24104 0.82567 -0.12835
 H83 H 0.19453 0.78096 -0.13222
 H84 H 0.12778 0.78467 -0.20157
 C85 C 0.21599 1.16989 0.78331
 C86 C 0.23856 1.17310 0.80574
 C87 C 0.23834 1.19897 0.82391
 C88 C 0.21583 1.22162 0.82036
 C89 C 0.19354 1.21844 0.79864
 C90 C 0.19370 1.19246 0.77994
 C91 C 0.20996 1.14743 0.76216
 N92 N 0.18467 1.15586 0.74617
 C93 C 0.17462 1.18342 0.75709
 C94 C 0.17399 1.24331 0.80130
 N95 N 0.18409 1.26132 0.82427
 C96 C 0.20974 1.24821 0.83587
 C97 C 0.26183 1.19609 0.84409
 N98 N 0.27645 1.16902 0.83902
 C99 C 0.26251 1.15465 0.81552
 H100 H 0.22302 1.12647 0.75866
 H101 H 0.15505 1.19644 0.74923
 H102 H 0.15378 1.24736 0.78777
 H103 H 0.22267 1.25703 0.85474
 H104 H 0.26757 1.21226 0.86169
 H105 H 0.26894 1.13244 0.80639
 C106 C 0.82247 0.88276 0.81440
 C107 C 0.80268 0.87965 0.83863
 C108 C 0.80440 0.85358 0.85679
 C109 C 0.82586 0.83031 0.85105
 C110 C 0.84540 0.83363 0.82745
 C111 C 0.84370 0.85986 0.80914
 C112 C 0.82528 0.90441 0.79180
 N113 N 0.84764 0.89498 0.77317
 C114 C 0.85900 0.86769 0.78387
 C115 C 0.86293 0.80735 0.82619
 N116 N 0.85447 0.78785 0.84835
 C117 C 0.83178 0.80174 0.86385
 C118 C 0.78212 0.85624 0.87788
 N119 N 0.76690 0.88331 0.87306
 C120 C 0.77930 0.89772 0.84912
 H121 H 0.81160 0.92514 0.78878
 H122 H 0.87646 0.85365 0.77389
 H123 H 0.88016 0.80241 0.80985
 H124 H 0.81996 0.79193 0.88265
 H125 H 0.77747 0.83953 0.89527
 H126 H 0.77167 0.91968 0.83989
 C127 C 0.15405 0.83450 1.20851
 C128 C 0.17782 0.83275 1.18771
 C129 C 0.17664 0.81007 1.16596
 C130 C 0.15202 0.78906 1.16445
 C131 C 0.12881 0.79074 1.18479
 C132 C 0.12984 0.81353 1.20691
 C133 C 0.14858 0.85373 1.23239
 N134 N 0.12172 0.84471 1.24507
 C135 C 0.11030 0.82019 1.22953
 C136 C 0.10810 0.76742 1.17810
 N137 N 0.11813 0.75175 1.15409
 C138 C 0.14510 0.76480 1.14563
 C139 C 0.20236 0.81331 1.14908
 N140 N 0.21934 0.83738 1.15974
 C141 C 0.20458 0.84953 1.18345
 H142 H 0.16322 0.87264 1.23979
 H143 H 0.08917 0.80797 1.23439
 H144 H 0.08718 0.76224 1.18979
 H145 H 0.15899 0.75726 1.12739
 H146 H 0.20840 0.79908 1.13030
 H147 H 0.21264 0.86885 1.19680
 C148 C 0.84956 1.14952 1.18629
 C149 C 0.82764 1.14800 1.16317
 C150 C 0.83404 1.16129 1.13589
 C151 C 0.86223 1.17620 1.13127
 C152 C 0.88373 1.17748 1.15392
 C153 C 0.87737 1.16415 1.18148
 C154 C 0.84921 1.14087 1.21581
 N155 N 0.87616 1.15008 1.22874
 C156 C 0.89336 1.16428 1.20782
 C157 C 0.90743 1.19603 1.14451
 N158 N 0.90076 1.20637 1.11677
 C159 C 0.87317 1.19415 1.10834
 C160 C 0.80827 1.15820 1.11833
 N161 N 0.78635 1.14328 1.13407
 C162 C 0.79793 1.13697 1.16162
 H163 H 0.83038 1.12946 1.22688
 H164 H 0.91576 1.17460 1.21167
 H165 H 0.92715 1.20324 1.15764
 H166 H 0.86092 1.19929 1.08794
 H167 H 0.80544 1.16665 1.09581
 H168 H 0.78571 1.12579 1.17947
 N169 N 0.53855 1.04387 0.99992
 N170 N 0.56428 1.06000 0.99913
 N171 N 0.47646 1.02021 0.97416
 N172 N 0.45667 1.02109 0.95188
 N173 N 0.47482 1.04548 0.99028
 N174 N 0.45373 1.06440 0.97927
 N175 N 0.54031 1.01885 0.98345
 N176 N 0.56749 1.01726 0.97105
 C177 C 0.58198 1.04328 0.98091
 C178 C 0.44266 1.04868 0.95533
 N179 N 0.46916 0.93668 1.00861
 N180 N 0.44549 0.91780 1.00493
 N181 N 0.53638 0.95327 0.99405
 N182 N 0.56212 0.94756 0.98044
 N183 N 0.53328 0.93522 1.01739
 N184 N 0.55718 0.91649 1.02013
 N185 N 0.47281 0.95444 0.98514
 N186 N 0.45168 0.94816 0.96483
 Mn187 Mn 0.50648 0.98663 0.98391
 C188 C 0.43489 0.92523 0.97752
 C189 C 0.57492 0.92461 0.99677
 N190 N 0.46679 1.05708 1.05253
 N191 N 0.44403 1.07671 1.04870
 N192 N 0.52636 1.03775 1.08561
 N193 N 0.54845 1.04231 1.10535
 N194 N 0.53056 1.05525 1.06205
 N195 N 0.55584 1.07210 1.06512
 N196 N 0.46248 1.03952 1.07605
 N197 N 0.43642 1.04674 1.08881
 Mn198 Mn 0.50267 1.05080 1.02615
 C199 C 0.42535 1.07009 1.07148
 C200 C 0.56655 1.06389 1.09239
 N201 N 0.52446 0.94666 1.07976
 N202 N 0.54753 0.92890 1.08798
 N203 N 0.45924 0.97338 1.08734
 N204 N 0.43432 0.97328 1.10348
 N205 N 0.46055 0.94816 1.07104
 N206 N 0.43634 0.93017 1.07573
 N207 N 0.52317 0.97161 1.09643
 N208 N 0.54553 0.97140 1.11651
 Mn209 Mn 0.49683 0.94124 1.04429
 Mn210 Mn 0.49273 1.00565 1.08673
 Cl211 Cl 0.49963 0.99606 1.03530
 C212 C 0.56035 0.94445 1.11103
 C213 C 0.42020 0.94631 1.09602
 N214 N 0.02539 0.46527 0.00807
 N215 N 0.03293 0.44134 0.02497
 N216 N 0.03890 0.53351 -0.00995
 N217 N 0.05673 0.55805 -0.00587
 N218 N 0.01976 0.53029 0.01208
 N219 N 0.02413 0.55258 0.03183
 N220 N 0.04444 0.46830 -0.01405
 N221 N 0.06557 0.44638 -0.01269
 C222 C 0.05801 0.42974 0.01181
 C223 C 0.04725 0.56971 0.02020
 N224 N 0.00925 0.53760 -0.09227
 N225 N 0.00994 0.56203 -0.11011
 N226 N 0.03804 0.47314 -0.07797
 N227 N 0.05858 0.45220 -0.08509
 N228 N 0.01503 0.47277 -0.09701
 N229 N 0.01925 0.45152 -0.11757
 N230 N 0.03256 0.53819 -0.07357
 N231 N 0.04972 0.56316 -0.07818
 Mn232 Mn 0.03888 0.50327 -0.04391
 C233 C 0.03521 0.57781 -0.10099
 C234 C 0.04648 0.43893 -0.10982
 N235 N -0.04588 0.52332 0.01678
 N236 N -0.05004 0.54570 0.03630
 N237 N -0.06275 0.45728 -0.00656
 N238 N -0.07719 0.43031 -0.00545
 N239 N -0.03976 0.45799 0.01248
 N240 N -0.03784 0.43124 0.02696
 N241 N -0.06897 0.52198 -0.00212
 N242 N -0.08946 0.54331 0.00401
 Mn243 Mn -0.01012 0.49427 0.01275
 C244 C -0.07740 0.55786 0.02801
 C245 C -0.06157 0.41442 0.01561
 N246 N -0.05011 0.46550 -0.09208
 N247 N -0.05102 0.44123 -0.10994
 N248 N -0.07529 0.52626 -0.06532
 N249 N -0.09537 0.54893 -0.06428
 N250 N -0.05619 0.53068 -0.08718
 N251 N -0.06272 0.55670 -0.10158
 N252 N -0.06890 0.46142 -0.06991
 N253 N -0.08308 0.43427 -0.07210
 Mn254 Mn -0.02059 0.50173 -0.09249
 Mn255 Mn -0.06929 0.49167 -0.03596
 Cl256 Cl -0.01520 0.49777 -0.03990
 C257 C -0.07188 0.42210 -0.09734
 C258 C -0.08741 0.56758 -0.08709
 N259 N 0.93320 -0.01464 0.47191
 N260 N 0.91259 -0.01775 0.45042
 N261 N 0.96074 -0.03987 0.53067
 N262 N 0.96122 -0.05944 0.55336
 N263 N 0.93895 -0.01933 0.53392
 N264 N 0.92402 -0.02435 0.55871
 N265 N 0.95563 -0.03441 0.46845
 N266 N 0.95090 -0.05157 0.44462
 C267 C 0.92395 -0.04089 0.43366
 C268 C 0.93804 -0.04955 0.57050
 N269 N 1.04611 -0.01325 0.52806
 N270 N 1.06559 -0.01819 0.55036
 N271 N 1.02171 -0.03050 0.46442
 N272 N 1.02635 -0.04831 0.44106
 N273 N 1.04214 -0.00794 0.46565
 N274 N 1.06104 -0.00965 0.44317
 N275 N 1.02602 -0.03609 0.52634
 N276 N 1.03118 -0.05705 0.54710
 Mn277 Mn 0.99101 -0.03557 0.49730
 C278 C 1.05583 -0.04578 0.56185
 C279 C 1.05091 -0.03481 0.42797
 N280 N 0.93593 0.04734 0.53878
 N281 N 0.92081 0.04750 0.56398
 N282 N 0.95026 0.07425 0.47577
 N283 N 0.94418 0.09327 0.45335
 N284 N 0.92988 0.05170 0.47678
 N285 N 0.90936 0.05475 0.45533
 N286 N 0.95564 0.07051 0.53796
 N287 N 0.95444 0.08713 0.56237
 Mn288 Mn 0.93414 0.01622 0.50546
 C289 C 0.93259 0.07265 0.57828
 C290 C 0.91844 0.08077 0.44101
 N291 N 1.03858 0.05873 0.46988
 N292 N 1.05400 0.06434 0.44537
 N293 N 1.02095 0.07459 0.53427
 N294 N 1.02557 0.09305 0.55721
 N295 N 1.04305 0.05415 0.53242
 N296 N 1.06339 0.05824 0.55407
 N297 N 1.01605 0.07860 0.47230
 N298 N 1.01569 0.09837 0.44988
 Mn299 Mn 1.04293 0.02296 0.49911
 Mn300 Mn 0.98570 0.07484 0.50499
 Cl301 Cl 0.98851 0.01960 0.50169
 C302 C 1.03952 0.08933 0.43335
 C303 C 1.05204 0.08259 0.56935
 C304 C 1.11447 0.13246 0.25520
 C305 C 1.09265 0.14570 0.27352
 C306 C 1.08609 0.13174 0.30275
 N307 N 1.06524 0.14480 0.32083
 N308 N 1.05968 0.13244 0.34741
 C309 C 1.07481 0.10662 0.35692
 N310 N 1.09562 0.09360 0.33885
 N311 N 1.10115 0.10593 0.31231
 C312 C 1.06891 0.09249 0.38610
 C313 C 1.04699 0.10425 0.40500
 H314 H 1.08085 0.16674 0.26699
 H315 H 1.08165 0.07196 0.39256
 H316 H 1.12560 0.11134 0.26279
 H317 H 1.03391 0.12451 0.39843
 C318 C 0.87524 -0.14919 0.27107
 C319 C 0.86335 -0.12436 0.28709
 C320 C 0.87882 -0.11182 0.31364
 N321 N 0.86584 -0.08824 0.32879
 N322 N 0.87935 -0.07679 0.35308
 C323 C 0.90638 -0.08850 0.36310
 N324 N 0.91941 -0.11204 0.34791
 N325 N 0.90588 -0.12351 0.32363
 C326 C 0.92147 -0.07630 0.38998
 C327 C 0.90876 -0.05262 0.40671
 H328 H 0.84195 -0.11376 0.28053
 H329 H 0.94309 -0.08640 0.39685
 H330 H 0.89681 -0.15916 0.27837
 H331 H 0.88716 -0.04239 0.40002
 C332 C 0.87277 0.08473 0.76603
 C333 C 0.88958 0.10216 0.74568
 C334 C 0.89386 0.09195 0.71498
 N335 N 0.91002 0.11020 0.69618
 N336 N 0.91396 0.10163 0.66819
 C337 C 0.90185 0.07449 0.65789
 N338 N 0.88563 0.05619 0.67668
 N339 N 0.88167 0.06479 0.70473
 C340 C 0.90668 0.06475 0.62708
 C341 C 0.92463 0.08260 0.60817
 H342 H 0.89963 0.12429 0.75185
 H343 H 0.89695 0.04286 0.61954
 H344 H 0.86338 0.06246 0.75908
 H345 H 0.93482 0.10415 0.61600
 C346 C 1.15401 -0.11009 0.72559
 C347 C 1.12900 -0.11900 0.70796
 C348 C 1.11976 -0.10101 0.68145
 N349 N 1.09626 -0.11136 0.66416
 N350 N 1.08760 -0.09546 0.64010
 C351 C 1.10206 -0.06857 0.63235
 N352 N 1.12556 -0.05814 0.64968
 N353 N 1.13426 -0.07409 0.67376
 C354 C 1.09222 -0.05088 0.60578
 C355 C 1.06865 -0.06217 0.58771
 H356 H 1.11592 -0.13970 0.71322
 H357 H 1.10318 -0.02885 0.60066
 H358 H 1.16673 -0.08939 0.71927
 H359 H 1.05797 -0.08426 0.59313
 C360 C 0.24103 1.12487 1.13290
 C361 C 0.26117 1.13587 1.11146
 C362 C 0.29073 1.12025 1.10712
 N363 N 0.31074 1.13104 1.08670
 N364 N 0.33774 1.11730 1.08333
 C365 C 0.34574 1.09234 1.10033
 N366 N 0.32574 1.08158 1.12069
 N367 N 0.29880 1.09527 1.12402
 C368 C 0.37542 1.07689 1.09708
 C369 C 0.39619 1.08607 1.07565
 H370 H 0.25600 1.15649 1.09856
 H371 H 0.38081 1.05749 1.11162
 H372 H 0.24729 1.10402 1.14513
 H373 H 0.39066 1.10511 1.06074
 C374 C 0.27766 0.87870 0.85756
 C375 C 0.29112 0.86641 0.88328
 C376 C 0.31865 0.88042 0.89686
 N377 N 0.32998 0.86882 0.92275
 N378 N 0.35484 0.88136 0.93540
 C379 C 0.36931 0.90594 0.92257
 N380 N 0.35806 0.91747 0.89663
 N381 N 0.33317 0.90496 0.88401
 C382 C 0.39663 0.92016 0.93629
 C383 C 0.40802 0.91038 0.96372
 H384 H 0.28137 0.84630 0.89420
 H385 H 0.40777 0.93915 0.92469
 H386 H 0.28789 0.89922 0.84760
 H387 H 0.39676 0.89174 0.97568
 C388 C 0.73255 0.84173 1.15323
 C389 C 0.71690 0.86704 1.16508
 C390 C 0.68722 0.87739 1.15291
 N391 N 0.67348 0.90292 1.16419
 N392 N 0.64671 0.91266 1.15321
 C393 C 0.63269 0.89712 1.13059
 N394 N 0.64639 0.87157 1.11941
 N395 N 0.67313 0.86188 1.13034
 C396 C 0.60345 0.90751 1.11766
 C397 C 0.58838 0.93433 1.12658
 H398 H 0.72642 0.88003 1.18351
 H399 H 0.59382 0.89375 1.09970
 H400 H 0.72236 0.82958 1.13449
 H401 H 0.59769 0.94854 1.14436
 C402 C 0.76886 1.06406 0.90838
 C403 C 0.75245 1.07550 0.93228
 C404 C 0.72232 1.06285 0.94020
 N405 N 0.70539 1.07784 0.96056
 N406 N 0.67710 1.06826 0.96647
 C407 C 0.66464 1.04332 0.95224
 N408 N 0.68173 1.02798 0.93220
 N409 N 0.71005 1.03763 0.92621
 C410 C 0.63288 1.03363 0.95773
 C411 C 0.61375 1.05183 0.97481
 H412 H 0.76033 1.09585 0.94420
 H413 H 0.62423 1.01243 0.94764
 H414 H 0.76067 1.04305 0.89755
 H415 H 0.62235 1.07324 0.98451
 C416 C 0.11343 0.26686 0.12457
 C417 C 0.12381 0.28081 0.09844
 C418 C 0.10883 0.30855 0.08546
 N419 N 0.11961 0.32168 0.06016
 N420 N 0.10605 0.34658 0.04819
 C421 C 0.08115 0.35924 0.06109
 N422 N 0.07040 0.34609 0.08634
 N423 N 0.08394 0.32126 0.09829
 C424 C 0.06550 0.38667 0.04849
 C425 C 0.07487 0.40232 0.02292
 H426 H 0.14309 0.27120 0.08693
 H427 H 0.04561 0.39493 0.06009
 H428 H 0.09408 0.27699 0.13568
 H429 H 0.09471 0.39452 0.01099
 C430 C -0.13212 0.22342 -0.11011
 C431 C -0.11528 0.24465 -0.12695
 C432 C -0.11085 0.27727 -0.11788
 N433 N -0.09411 0.29688 -0.13498
 N434 N -0.08981 0.32646 -0.12708
 C435 C -0.10216 0.33754 -0.10177
 N436 N -0.11894 0.31795 -0.08469
 N437 N -0.12323 0.28837 -0.09259
 C438 C -0.09715 0.36997 -0.09239
 C439 C -0.07901 0.39072 -0.10836
 H440 H -0.10506 0.23749 -0.14749
 H441 H -0.10726 0.37739 -0.07181
 H442 H -0.14217 0.23113 -0.08960
 H443 H -0.06853 0.38339 -0.12878
 C444 C 0.14391 0.74654 -0.15032
 C445 C 0.11739 0.73186 -0.16094
 C446 C 0.10544 0.70339 -0.14654
 N447 N 0.07943 0.68949 -0.15686
 N448 N 0.06864 0.66375 -0.14393
 C449 C 0.08346 0.65095 -0.12019
 N450 N 0.10942 0.66485 -0.10991
 N451 N 0.12019 0.69055 -0.12281
 C452 C 0.07218 0.62236 -0.10568
 C453 C 0.04570 0.60688 -0.11506
 H454 H 0.10511 0.74124 -0.17991
 H455 H 0.08534 0.61310 -0.08716
 H456 H 0.15556 0.73670 -0.13113
 H457 H 0.03234 0.61603 -0.13349
 C458 C -0.12546 0.71896 0.14273
 C459 C -0.13802 0.70259 0.11880
 C460 C -0.12252 0.67588 0.10543
 N461 N -0.13592 0.66080 0.08226
 N462 N -0.12227 0.63660 0.06983
 C463 C -0.09468 0.62655 0.08010
 N464 N -0.08125 0.64163 0.10330
 N465 N -0.09492 0.66585 0.11574
 C466 C -0.07935 0.59989 0.06642
 C467 C -0.09242 0.58409 0.04245
 H468 H -0.15990 0.70927 0.10940
 H469 H -0.05731 0.59272 0.07524
 H470 H -0.10355 0.71179 0.15188
 H471 H -0.11439 0.59133 0.03354
 C472 C 1.17238 0.13914 0.72318
 C473 C 1.14588 0.14841 0.70781
 C474 C 1.13259 0.13142 0.68240
 N475 N 1.10641 0.14207 0.66961
 N476 N 1.09391 0.12762 0.64634
 C477 C 1.10711 0.10192 0.63485
 N478 N 1.13334 0.09118 0.64764
 N479 N 1.14587 0.10566 0.67101
 C480 C 1.09341 0.08618 0.60879
 C481 C 1.06628 0.09681 0.59574
 H482 H 1.13386 0.16909 0.71434
 H483 H 1.10485 0.06617 0.59966
 H484 H 1.18351 0.11786 0.71654
 H485 H 1.05479 0.11665 0.60511
 C486 C 0.85576 -0.09003 0.74770
 C487 C 0.87902 -0.10091 0.72944
 C488 C 0.88659 -0.08692 0.70065
 N489 N 0.90887 -0.09990 0.68420
 N490 N 0.91583 -0.08830 0.65770
 C491 C 0.90072 -0.06324 0.64662
 N492 N 0.87848 -0.05014 0.66311
 N493 N 0.87148 -0.06178 0.68965
 C494 C 0.90809 -0.05035 0.61730
 C495 C 0.93040 -0.06331 0.59935
 H496 H 0.89230 -0.12098 0.73581
 H497 H 0.89571 -0.02999 0.60972
 H498 H 0.84353 -0.06919 0.74115
 H499 H 0.94301 -0.08355 0.60678
 C500 C 1.10745 -0.14321 0.26908
 C501 C 1.11852 -0.11774 0.28529
 C502 C 1.10209 -0.10587 0.31131
 N503 N 1.11289 -0.08053 0.32607
 N504 N 1.09830 -0.06971 0.34964
 C505 C 1.07235 -0.08383 0.35938
 N506 N 1.06156 -0.10917 0.34463
 N507 N 1.07612 -0.11996 0.32105
 C508 C 1.05611 -0.07235 0.38563
 C509 C 1.06601 -0.04609 0.40113
 H510 H 1.13946 -0.10605 0.27901
 H511 H 1.03606 -0.08500 0.39302
 H512 H 1.08617 -0.15396 0.27600
 H513 H 1.08591 -0.03330 0.39362
 C514 C 0.88555 0.14701 0.25747
 C515 C 0.86818 0.13245 0.27933
 C516 C 0.88009 0.12886 0.30983
 N517 N 0.86422 0.11177 0.32983
 N518 N 0.87537 0.10736 0.35715
 C519 C 0.90275 0.11998 0.36553
 N520 N 0.91844 0.13739 0.34565
 N521 N 0.90732 0.14174 0.31831
 C522 C 0.91618 0.11362 0.39501
 C523 C 0.90301 0.09193 0.41400
 H524 H 0.84592 0.12263 0.27412
 H525 H 0.93795 0.12431 0.40087
 H526 H 0.90792 0.15617 0.26366
 H527 H 0.88173 0.08054 0.40769
 C528 C 0.17127 0.28741 -0.16447
 C529 C 0.14399 0.30018 -0.17527
 C530 C 0.13003 0.32710 -0.16075
 N531 N 0.10281 0.33828 -0.17075
 N532 N 0.08966 0.36214 -0.15723
 C533 C 0.10328 0.37566 -0.13322
 N534 N 0.13053 0.36456 -0.12332
 N535 N 0.14365 0.34073 -0.13682
 C536 C 0.08896 0.40158 -0.11761
 C537 C 0.06078 0.41368 -0.12632
 H538 H 0.13202 0.29004 -0.19404
 H539 H 0.10084 0.41114 -0.09844
 H540 H 0.18251 0.29842 -0.14563
 H541 H 0.04874 0.40436 -0.14549
 C542 C -0.08183 0.23015 0.10207
 C543 C -0.09200 0.24446 0.07602
 C544 C -0.07940 0.27442 0.06606
 N545 N -0.09321 0.28968 0.04325
 N546 N -0.08403 0.31816 0.03562
 C547 C -0.06071 0.33249 0.05053
 N548 N -0.04651 0.31703 0.07303
 N549 N -0.05576 0.28853 0.08073
 C550 C -0.05177 0.36465 0.04329
 C551 C -0.06899 0.38216 0.02325
 H552 H -0.11170 0.23534 0.06410
 H553 H -0.03209 0.37493 0.05446
 H554 H -0.06169 0.23937 0.11335
 H555 H -0.08882 0.37188 0.01234
 C556 C -0.13314 0.75921 -0.14748
 C557 C -0.14297 0.73830 -0.12581
 C558 C -0.12962 0.70711 -0.12297
 N559 N -0.14068 0.68681 -0.10260
 N560 N -0.12885 0.65846 -0.09985
 C561 C -0.10553 0.64935 -0.11738
 N562 N -0.09446 0.66965 -0.13775
 N563 N -0.10632 0.69800 -0.14052
 C564 C -0.09184 0.61838 -0.11404
 C565 C -0.10260 0.59721 -0.09319
 H566 H -0.16112 0.74432 -0.11088
 H567 H -0.07239 0.61255 -0.12753
 H568 H -0.11509 0.75205 -0.16219
 H569 H -0.12201 0.60306 -0.07967
 C570 C 0.10232 0.72571 0.14087
 C571 C 0.11141 0.71258 0.11418
 C572 C 0.09544 0.68584 0.10057
 N573 N 0.10515 0.67473 0.07425
 N574 N 0.09123 0.65044 0.06158
 C575 C 0.06705 0.63628 0.07475
 N576 N 0.05729 0.64740 0.10110
 N577 N 0.07122 0.67174 0.11378
 C578 C 0.05177 0.60915 0.06103
 C579 C 0.06126 0.59733 0.03397
 H580 H 0.13074 0.72218 0.10248
 H581 H 0.03296 0.59812 0.07254
 H582 H 0.08235 0.71638 0.15188
 H583 H 0.07996 0.60846 0.02239
 C584 C 0.30164 1.15859 0.85714
 C585 C 0.31397 1.12886 0.85539
 C586 C 0.33804 1.11860 0.87639
 N587 N 0.34969 1.08952 0.87447
 N588 N 0.37111 1.07994 0.89367
 C589 C 0.38163 1.09904 0.91557
 N590 N 0.36997 1.12810 0.91750
 N591 N 0.34859 1.13769 0.89828
 C592 C 0.40527 1.08873 0.93695
 C593 C 0.41856 1.05953 0.93490
 H594 H 0.30542 1.11252 0.83904
 H595 H 0.41257 1.10451 0.95437
 H596 H 0.31050 1.17437 0.87391
 H597 H 0.41149 1.04392 0.91727
 C598 C 0.24806 0.84674 1.14713
 C599 C 0.26447 0.87314 1.15607
 C600 C 0.29357 0.88220 1.14197
 N601 N 0.30819 0.90880 1.15029
 N602 N 0.33437 0.91731 1.13764
 C603 C 0.34699 0.89956 1.11618
 N604 N 0.33240 0.87293 1.10791
 N605 N 0.30620 0.86444 1.12053
 C606 C 0.37601 0.90874 1.10200
 C607 C 0.39111 0.93639 1.10929
 H608 H 0.25574 0.88783 1.17338
 H609 H 0.38560 0.89350 1.08552
 H610 H 0.25701 0.83276 1.12932
 H611 H 0.38132 0.95169 1.12560
 C612 C 0.75620 1.13666 1.12249
 C613 C 0.73376 1.12126 1.13880
 C614 C 0.70313 1.11446 1.12623
 N615 N 0.68237 1.09853 1.14257
 N616 N 0.65473 1.09185 1.13139
 C617 C 0.64676 1.10090 1.10344
 N618 N 0.66748 1.11695 1.08713
 N619 N 0.69514 1.12361 1.09831
 C620 C 0.61656 1.09292 1.09053
 C621 C 0.59546 1.07476 1.10586
 H622 H 0.73860 1.11362 1.16123
 H623 H 0.61131 1.10049 1.06810
 H624 H 0.75085 1.14392 1.09998
 H625 H 0.60089 1.06675 1.12811
 C626 C 0.74177 0.89548 0.88957
 C627 C 0.72797 0.87925 0.91288
 C628 C 0.70138 0.89186 0.92851
 N629 N 0.68680 0.87457 0.94941
 N630 N 0.66210 0.88551 0.96290
 C631 C 0.65125 0.91423 0.95598
 N632 N 0.66600 0.93152 0.93532
 N633 N 0.69057 0.92060 0.92186
 C634 C 0.62312 0.92659 0.96878
 C635 C 0.60492 0.91127 0.98960
 H636 H 0.73609 0.85651 0.91942
 H637 H 0.61568 0.94890 0.96013
 H638 H 0.73286 0.91802 0.88314
 H639 H 0.61223 0.88970 0.99986
   
