data_POSCAR
  _audit_creation_date              2014-09-24
  _audit_creation_method            'ToBaCCo'
  _symmetry_space_group_name_H-M    'P1'
  _symmetry_Int_Tables_number       1
  _symmetry_cell_setting            triclinic
  loop_
  _symmetry_equiv_pos_as_xyz
 x,y,z
_cell_length_a 23.4299
_cell_length_b 22.9766
_cell_length_c 66.8073
_cell_angle_alpha 90.220100
_cell_angle_beta 89.897500
_cell_angle_gamma 120.140500
loop_
  _atom_site_label
  _atom_site_type_symbol
  _atom_site_fract_x
  _atom_site_fract_y
  _atom_site_fract_z
C1 C -0.05430 -0.07598 0.48288
 C2 C -0.01422 -0.04042 0.49925
 C3 C -0.00950 -0.07606 0.51557
 C4 C -0.04406 -0.14656 0.51548
 C5 C -0.08452 -0.18180 0.49919
 C6 C -0.08987 -0.14648 0.48293
 C7 C 0.02250 0.03390 0.49932
 C8 C 0.01706 0.06953 0.51564
 C9 C 0.05135 0.13998 0.51564
 C10 C 0.09226 0.17523 0.49950
 C11 C 0.09837 0.13997 0.48327
 C12 C 0.06311 0.06952 0.48310
 H13 H -0.05865 -0.04867 0.47032
 H14 H 0.02186 -0.04881 0.52818
 H15 H -0.01466 0.04243 0.52815
 H16 H 0.06810 0.04242 0.47052
 H17 H -0.11179 -0.23645 0.49919
 H18 H 0.11922 0.22981 0.49957
 C19 C 1.07057 0.01584 0.14865
 C20 C 1.03568 0.02120 0.16500
 C21 C 1.07065 0.06199 0.18138
 C22 C 1.13972 0.09747 0.18136
 C23 C 1.17428 0.09148 0.16512
 C24 C 1.13973 0.05039 0.14879
 C25 C 0.96279 -0.01603 0.16502
 C26 C 0.92797 -0.05680 0.18136
 C27 C 0.85889 -0.09234 0.18138
 C28 C 0.82422 -0.08640 0.16522
 C29 C 0.85863 -0.04539 0.14895
 C30 C 0.92773 -0.01081 0.14876
 H31 H 1.04381 -0.01616 0.13604
 H32 H 1.04412 0.06687 0.19399
 H33 H 0.95461 -0.06163 0.19391
 H34 H 0.95420 0.02106 0.13616
 H35 H 1.22784 0.11864 0.16523
 H36 H 0.77068 -0.11349 0.16531
 C37 C 0.05525 0.98594 0.85225
 C38 C 0.01499 0.98065 0.83599
 C39 C 0.00920 0.93944 0.81964
 C40 C 0.04283 0.90346 0.81961
 C41 C 0.08341 0.90939 0.83577
 C42 C 0.08992 0.95091 0.85206
 C43 C -0.02066 1.01844 0.83600
 C44 C -0.01463 1.05954 0.81969
 C45 C -0.04826 1.09551 0.81967
 C46 C -0.08908 1.08970 0.83578
 C47 C -0.09583 1.04828 0.85202
 C48 C -0.06115 1.01326 0.85222
 H49 H 0.06048 1.01828 0.86483
 H50 H -0.02218 0.93468 0.80709
 H51 H 0.01693 1.06421 0.80718
 H52 H -0.06653 0.98101 0.86476
 H53 H 0.10989 0.88189 0.83561
 H54 H -0.11556 1.11719 0.83562
 O55 O 0.58030 0.05753 -0.01946
 O56 O 0.46987 0.05826 0.01948
 O57 O 0.57979 0.05630 0.01959
 O58 O 0.46844 0.05561 -0.01956
 O59 O 0.41384 -0.05569 -0.01935
 O60 O 0.52480 -0.05501 0.01951
 O61 O 0.41489 -0.05304 0.01969
 O62 O 0.52570 -0.05377 -0.01954
 Cu63 Cu 0.53013 0.06814 0.00000
 Cu64 Cu 0.46428 -0.06560 0.00008
 C65 C 0.57157 0.00197 -0.02617
 C66 C 0.42403 0.00295 0.02625
 C67 C 0.57073 0.00055 0.02621
 C68 C 0.42248 -0.00038 -0.02611
 O69 O -0.05585 0.52600 0.64752
 O70 O -0.05572 0.41397 0.68656
 O71 O -0.05497 0.52725 0.68663
 O72 O -0.05323 0.41438 0.64748
 O73 O 0.05592 0.47110 0.64785
 O74 O 0.05419 0.58375 0.68668
 O75 O 0.05343 0.47047 0.68693
 O76 O 0.05330 0.58269 0.64757
 Cu77 Cu -0.06597 0.46470 0.66702
 Cu78 Cu 0.06523 0.53274 0.66727
 C79 C -0.00148 0.57281 0.64082
 C80 C -0.00132 0.42357 0.69348
 C81 C -0.00049 0.57423 0.69337
 C82 C 0.00183 0.42413 0.64098
 O83 O 0.42161 0.47410 0.35259
 O84 O 0.53272 0.58648 0.31367
 O85 O 0.42092 0.47403 0.31352
 O86 O 0.53528 0.58451 0.35272
 O87 O 0.58701 0.52627 0.35181
 O88 O 0.47293 0.41605 0.31293
 O89 O 0.58473 0.52851 0.31275
 O90 O 0.47333 0.41583 0.35199
 Cu91 Cu 0.47242 0.53565 0.33321
 Cu92 Cu 0.53474 0.46582 0.33230
 C93 C 0.42886 0.42635 0.35897
 C94 C 0.57707 0.57627 0.30651
 C95 C 0.42803 0.42659 0.30654
 C96 C 0.58022 0.57362 0.35895
 C97 C 0.01216 0.31216 0.59491
 C98 C 0.02455 0.33998 0.57542
 C99 C 0.03249 0.30458 0.55917
 C100 C 0.02790 0.24153 0.56249
 C101 C 0.01476 0.21336 0.58193
 C102 C 0.00691 0.24881 0.59820
 C103 C -0.00592 0.21980 0.61751
 C104 C -0.01096 0.15746 0.62066
 C105 C -0.00335 0.12275 0.60476
 C106 C 0.00940 0.15014 0.58558
 C107 C 0.04511 0.33351 0.53984
 C108 C 0.04973 0.39564 0.53666
 C109 C 0.04199 0.43029 0.55255
 C110 C 0.02950 0.40303 0.57173
 C111 C 0.03667 0.20572 0.54591
 C112 C 0.04370 0.17593 0.53212
 C113 C 0.00658 0.34969 0.61159
 C114 C 0.00343 0.38257 0.62520
 H115 H -0.01228 0.24486 0.63034
 H116 H -0.02083 0.13597 0.63553
 H117 H -0.00733 0.07433 0.60728
 H118 H 0.01494 0.12124 0.57369
 H119 H 0.05154 0.30852 0.52700
 H120 H 0.05939 0.41701 0.52178
 H121 H 0.04574 0.47859 0.55000
 H122 H 0.02374 0.43188 0.58359
 C123 C 0.68753 0.69746 0.26047
 C124 C 0.65665 0.68819 0.24158
 C125 C 0.69208 0.73138 0.22540
 C126 C 0.75817 0.78354 0.22819
 C127 C 0.78920 0.79251 0.24703
 C128 C 0.75376 0.74936 0.26322
 C129 C 0.78570 0.75949 0.28193
 C130 C 0.85086 0.81077 0.28457
 C131 C 0.88555 0.85290 0.26873
 C132 C 0.85533 0.84411 0.25014
 C133 C 0.66011 0.72131 0.20669
 C134 C 0.59496 0.67008 0.20404
 C135 C 0.56027 0.62791 0.21986
 C136 C 0.59051 0.63655 0.23844
 C137 C 0.79408 0.82794 0.21169
 C138 C 0.82364 0.86450 0.19790
 C139 C 0.65047 0.65453 0.27711
 C140 C 0.61804 0.61881 0.29071
 H141 H 0.76076 0.72796 0.29469
 H142 H 0.87455 0.81784 0.29898
 H143 H 0.93616 0.89263 0.27085
 H144 H 0.88432 0.87816 0.23827
 H145 H 0.68499 0.75287 0.19393
 H146 H 0.57127 0.66314 0.18963
 H147 H 0.50961 0.58834 0.21774
 H148 H 0.56147 0.60236 0.25027
 C149 C 0.30040 -0.01063 -0.07134
 C150 C 0.30588 -0.03624 -0.09012
 C151 C 0.26195 -0.04415 -0.10591
 C152 C 0.21291 -0.02623 -0.10285
 C153 C 0.20785 0.00001 -0.08414
 C154 C 0.25171 0.00779 -0.06833
 C155 C 0.24559 0.03392 -0.04974
 C156 C 0.19753 0.05191 -0.04685
 C157 C 0.15466 0.04433 -0.06231
 C158 C 0.15953 0.01870 -0.08077
 C159 C 0.26818 -0.07015 -0.12452
 C160 C 0.31651 -0.08774 -0.12745
 C161 C 0.35955 -0.07989 -0.11203
 C162 C 0.35452 -0.05450 -0.09355
 C163 C 0.16786 -0.03472 -0.11898
 C164 C 0.13095 -0.04168 -0.13251
 C165 C 0.34391 -0.00484 -0.05505
 C166 C 0.37991 -0.00170 -0.04170
 H167 H 0.27786 0.04080 -0.03728
 H168 H 0.19355 0.07186 -0.03254
 H169 H 0.11742 0.05839 -0.05999
 H170 H 0.12507 0.01374 -0.09234
 H171 H 0.23587 -0.07718 -0.13698
 H172 H 0.32057 -0.10755 -0.14178
 H173 H 0.39705 -0.09358 -0.11438
 H174 H 0.38919 -0.04931 -0.08202
 C175 C -0.00975 0.68379 0.59440
 C176 C -0.02179 0.65539 0.57493
 C177 C -0.02883 0.69060 0.55855
 C178 C -0.02367 0.75404 0.56173
 C179 C -0.01091 0.78277 0.58115
 C180 C -0.00398 0.74751 0.59754
 C181 C 0.00852 0.77711 0.61683
 C182 C 0.01410 0.83983 0.61984
 C183 C 0.00738 0.87433 0.60381
 C184 C -0.00498 0.84638 0.58466
 C185 C -0.04108 0.66111 0.53925
 C186 C -0.04623 0.59861 0.53621
 C187 C -0.03940 0.56414 0.55222
 C188 C -0.02726 0.59197 0.57138
 C189 C -0.03149 0.78967 0.54503
 C190 C -0.03771 0.81940 0.53115
 C191 C -0.00497 0.64656 0.61120
 C192 C -0.00242 0.61400 0.62491
 H193 H 0.01420 0.75223 0.62976
 H194 H 0.02373 0.86177 0.63469
 H195 H 0.01177 0.92304 0.60623
 H196 H -0.00979 0.87517 0.57267
 H197 H -0.04682 0.68594 0.52632
 H198 H -0.05559 0.57682 0.52134
 H199 H -0.04359 0.51553 0.54978
 H200 H -0.02216 0.56326 0.58334
 C201 C 0.31293 0.30701 0.26072
 C202 C 0.33355 0.32776 0.24079
 C203 C 0.29737 0.28488 0.22456
 C204 C 0.24076 0.22153 0.22837
 C205 C 0.21957 0.20122 0.24829
 C206 C 0.25579 0.24408 0.26452
 C207 C 0.23389 0.22253 0.28431
 C208 C 0.17772 0.16045 0.28796
 C209 C 0.14231 0.11855 0.27209
 C210 C 0.16276 0.13843 0.25246
 C211 C 0.31912 0.30655 0.20477
 C212 C 0.37503 0.36880 0.20110
 C213 C 0.41046 0.41070 0.21696
 C214 C 0.39020 0.39071 0.23660
 C215 C 0.20474 0.17716 0.21180
 C216 C 0.17510 0.14062 0.19796
 C217 C 0.35182 0.34949 0.27728
 C218 C 0.38564 0.38473 0.29080
 H219 H 0.25983 0.25338 0.29714
 H220 H 0.16161 0.14478 0.30319
 H221 H 0.09876 0.07034 0.27501
 H222 H 0.13357 0.10412 0.24061
 H223 H 0.29325 0.27570 0.19193
 H224 H 0.39095 0.38456 0.18587
 H225 H 0.45394 0.45894 0.21403
 H226 H 0.41937 0.42513 0.24843
 C227 C 0.69308 0.01057 -0.07148
 C228 C 0.68662 0.03434 -0.09039
 C229 C 0.73062 0.04204 -0.10618
 C230 C 0.78069 0.02574 -0.10298
 C231 C 0.78664 0.00119 -0.08415
 C232 C 0.74271 -0.00639 -0.06835
 C233 C 0.74973 -0.03084 -0.04964
 C234 C 0.79874 -0.04736 -0.04663
 C235 C 0.84167 -0.03998 -0.06208
 C236 C 0.83593 -0.01600 -0.08066
 C237 C 0.72340 0.06622 -0.12492
 C238 C 0.67406 0.08221 -0.12799
 C239 C 0.63095 0.07456 -0.11257
 C240 C 0.63693 0.05094 -0.09396
 C241 C 0.82587 0.03412 -0.11909
 C242 C 0.86294 0.04098 -0.13259
 C243 C 0.64972 0.00534 -0.05517
 C244 C 0.61390 0.00271 -0.04180
 H245 H 0.71743 -0.03755 -0.03718
 H246 H 0.80340 -0.06603 -0.03223
 H247 H 0.87963 -0.05292 -0.05967
 H248 H 0.87046 -0.01115 -0.09222
 H249 H 0.75570 0.07299 -0.13738
 H250 H 0.66924 0.10061 -0.14241
 H251 H 0.59266 0.08699 -0.11503
 H252 H 0.60213 0.04576 -0.08245
 C253 C 0.31205 0.01290 0.07169
 C254 C 0.34227 0.03662 0.09061
 C255 C 0.30615 0.04427 0.10651
 C256 C 0.23997 0.02800 0.10341
 C257 C 0.20954 0.00366 0.08456
 C258 C 0.24571 -0.00388 0.06864
 C259 C 0.21433 -0.02809 0.04991
 C260 C 0.14904 -0.04445 0.04699
 C261 C 0.11367 -0.03712 0.06255
 C262 C 0.14331 -0.01336 0.08116
 C263 C 0.33752 0.06836 0.12525
 C264 C 0.40267 0.08435 0.12822
 C265 C 0.43796 0.07677 0.11268
 C266 C 0.40838 0.05322 0.09406
 C267 C 0.20332 0.03624 0.11965
 C268 C 0.17331 0.04305 0.13326
 C269 C 0.34985 0.00731 0.05531
 C270 C 0.38276 0.00425 0.04190
 H271 H 0.23981 -0.03472 0.03736
 H272 H 0.12578 -0.06293 0.03257
 H273 H 0.06296 -0.04992 0.06021
 H274 H 0.11379 -0.00852 0.09280
 H275 H 0.31213 0.07510 0.13781
 H276 H 0.42589 0.10271 0.14265
 H277 H 0.48855 0.08922 0.11506
 H278 H 0.43788 0.04814 0.08246
 C279 C 0.70280 0.68385 0.40480
 C280 C 0.68786 0.65617 0.42430
 C281 C 0.73109 0.69132 0.44046
 C282 C 0.78895 0.75400 0.43703
 C283 C 0.80364 0.78192 0.41756
 C284 C 0.76044 0.74672 0.40139
 C285 C 0.77622 0.77551 0.38205
 C286 C 0.83306 0.83737 0.37877
 C287 C 0.87529 0.87183 0.39458
 C288 C 0.86100 0.84467 0.41379
 C289 C 0.71523 0.66253 0.45981
 C290 C 0.65828 0.60078 0.46310
 C291 C 0.61599 0.56641 0.44730
 C292 C 0.63033 0.59354 0.42810
 C293 C 0.83315 0.78977 0.45355
 C294 C 0.86951 0.81955 0.46732
 C295 C 0.65956 0.64678 0.38822
 C296 C 0.62344 0.61441 0.37469
 H297 H 0.74485 0.75062 0.36928
 H298 H 0.84436 0.85868 0.36388
 H299 H 0.91939 0.91987 0.39196
 H300 H 0.89536 0.87337 0.42560
 H301 H 0.74659 0.68734 0.47259
 H302 H 0.64694 0.57947 0.47799
 H303 H 0.57185 0.51843 0.44993
 H304 H 0.59584 0.56489 0.41631
 C305 C -0.00978 0.30416 0.73992
 C306 C -0.02323 0.31952 0.75931
 C307 C -0.03075 0.27690 0.77567
 C308 C -0.02467 0.21925 0.77258
 C309 C -0.01041 0.20436 0.75325
 C310 C -0.00297 0.24694 0.73687
 C311 C 0.01100 0.23091 0.71767
 C312 C 0.01754 0.17445 0.71474
 C313 C 0.01030 0.13281 0.73076
 C314 C -0.00354 0.14734 0.74982
 C315 C -0.04450 0.29309 0.79489
 C316 C -0.05061 0.34979 0.79784
 C317 C -0.04325 0.39148 0.78184
 C318 C -0.02970 0.37679 0.76277
 C319 C -0.03332 0.17521 0.78925
 C320 C -0.04038 0.13877 0.80312
 C321 C -0.00482 0.34631 0.72311
 C322 C -0.00222 0.38147 0.70939
 H323 H 0.01710 0.26180 0.70476
 H324 H 0.02830 0.16295 0.69997
 H325 H 0.01541 0.08901 0.72840
 H326 H -0.00874 0.11345 0.76180
 H327 H -0.05068 0.26219 0.80781
 H328 H -0.06116 0.36141 0.81263
 H329 H -0.04815 0.43540 0.78422
 H330 H -0.02435 0.41082 0.75081
 C331 C 0.68327 -0.00825 0.07150
 C332 C 0.65187 -0.03671 0.08994
 C333 C 0.68826 -0.04419 0.10572
 C334 C 0.75588 -0.02299 0.10300
 C335 C 0.78745 0.00608 0.08463
 C336 C 0.75101 0.01346 0.06883
 C337 C 0.78355 0.04247 0.05059
 C338 C 0.85023 0.06369 0.04804
 C339 C 0.88586 0.05651 0.06349
 C340 C 0.85509 0.02804 0.08161
 C341 C 0.65571 -0.07310 0.12398
 C342 C 0.58915 -0.09390 0.12658
 C343 C 0.55360 -0.08648 0.11116
 C344 C 0.58432 -0.05828 0.09302
 C345 C 0.79282 -0.03105 0.11911
 C346 C 0.82300 -0.03776 0.13263
 C347 C 0.64530 -0.00291 0.05518
 C348 C 0.61223 -0.00021 0.04182
 H349 H 0.75790 0.04914 0.03815
 H350 H 0.87436 0.08583 0.03399
 H351 H 0.93765 0.07308 0.06143
 H352 H 0.88485 0.02347 0.09318
 H353 H 0.68124 -0.07997 0.13642
 H354 H 0.56505 -0.11589 0.14064
 H355 H 0.50191 -0.10268 0.11326
 H356 H 0.55454 -0.05355 0.08149
 C357 C 0.30837 0.31330 0.40469
 C358 C 0.32480 0.33895 0.42445
 C359 C 0.28170 0.30321 0.44054
 C360 C 0.22249 0.24198 0.43679
 C361 C 0.20646 0.21592 0.41706
 C362 C 0.24953 0.25172 0.40096
 C363 C 0.23238 0.22485 0.38136
 C364 C 0.17433 0.16427 0.37777
 C365 C 0.13222 0.12924 0.39351
 C366 C 0.14785 0.15452 0.41296
 C367 C 0.29903 0.33000 0.46015
 C368 C 0.35729 0.39036 0.46376
 C369 C 0.39943 0.42531 0.44802
 C370 C 0.38365 0.40015 0.42857
 C371 C 0.17814 0.20590 0.45321
 C372 C 0.14158 0.17596 0.46689
 C373 C 0.35113 0.35138 0.38819
 C374 C 0.38663 0.38459 0.37469
 H375 H 0.26362 0.25024 0.36864
 H376 H 0.16199 0.14440 0.36269
 H377 H 0.08720 0.08220 0.39064
 H378 H 0.11356 0.12542 0.42471
 H379 H 0.26785 0.30466 0.47289
 H380 H 0.36980 0.41011 0.47884
 H381 H 0.44459 0.47221 0.45090
 H382 H 0.41811 0.42914 0.41684
 C383 C 0.00627 0.69401 0.73978
 C384 C -0.00014 0.75138 0.73667
 C385 C 0.00683 0.79413 0.75306
 C386 C 0.02023 0.77926 0.77245
 C387 C 0.02588 0.72145 0.77560
 C388 C 0.01881 0.67865 0.75922
 C389 C 0.02480 0.62120 0.76274
 C390 C 0.03750 0.60654 0.78188
 C391 C 0.04436 0.64837 0.79789
 C392 C 0.03870 0.70524 0.79487
 C393 C 0.00035 0.85128 0.74958
 C394 C -0.01264 0.86579 0.73046
 C395 C -0.01943 0.82400 0.71444
 C396 C -0.01328 0.76739 0.71742
 C397 C 0.02846 0.82349 0.78913
 C398 C 0.03522 0.86007 0.80302
 C399 C 0.00187 0.65174 0.72296
 C400 C -0.00022 0.61647 0.70925
 H401 H 0.01970 0.58700 0.75078
 H402 H 0.04212 0.56252 0.78429
 H403 H 0.05415 0.63672 0.81273
 H404 H 0.04449 0.73626 0.80780
 H405 H 0.00518 0.88527 0.76158
 H406 H -0.01746 0.90970 0.72807
 H407 H -0.02953 0.83548 0.69962
 H408 H -0.01905 0.73634 0.70450
   
