data_POSCAR
  _audit_creation_date              2014-09-24
  _audit_creation_method            'ToBaCCo'
  _symmetry_space_group_name_H-M    'P1'
  _symmetry_Int_Tables_number       1
  _symmetry_cell_setting            triclinic
  loop_
  _symmetry_equiv_pos_as_xyz
 x,y,z
_cell_length_a 38.8050
_cell_length_b 38.1107
_cell_length_c 37.9734
_cell_angle_alpha 90.075300
_cell_angle_beta 89.987300
_cell_angle_gamma 89.967200
loop_
  _atom_site_label
  _atom_site_type_symbol
  _atom_site_fract_x
  _atom_site_fract_y
  _atom_site_fract_z
N1 N 0.18798 1.25832 0.16420
 N2 N 0.16164 1.25468 0.18570
 C3 C 0.13851 1.28025 0.17928
 C4 C 0.15124 1.30083 0.15245
 C5 C 0.18253 1.28631 0.14330
 H6 H 0.11393 1.28311 0.19242
 H7 H 0.19951 1.29479 0.12238
 Cu8 Cu 0.15878 1.21576 0.21858
 Cu9 Cu 0.22605 1.22506 0.16335
 Cu10 Cu 0.22612 1.16044 0.22734
 N11 N 0.16196 1.18293 0.25754
 N12 N 0.18817 1.16127 0.26086
 C13 C 0.18290 1.14051 0.28904
 C14 C 0.15188 1.14995 0.30401
 C15 C 0.13912 1.17677 0.28352
 H16 H 0.19983 1.11955 0.29740
 H17 H 0.11469 1.19011 0.28672
 N18 N 0.26217 1.16418 0.19097
 N19 N 0.26223 1.18897 0.16669
 C20 C 0.28896 1.18353 0.14468
 C21 C 0.30639 1.15409 0.15581
 C22 C 0.28885 1.14231 0.18504
 H23 H 0.29462 1.19898 0.12153
 H24 H 0.29444 1.11888 0.20002
 H25 H 0.20086 1.18201 0.18471
 H26 H 0.22133 1.21322 0.21651
 N27 N 0.81061 0.74040 0.16373
 N28 N 0.83745 0.74449 0.18449
 C29 C 0.86034 0.71870 0.17810
 C30 C 0.84701 0.69746 0.15209
 C31 C 0.81553 0.71184 0.14339
 H32 H 0.88525 0.71616 0.19063
 H33 H 0.79811 0.70287 0.12305
 Cu34 Cu 0.84130 0.78419 0.21637
 Cu35 Cu 0.77277 0.77401 0.16285
 Cu36 Cu 0.77393 0.83899 0.22663
 N37 N 0.83857 0.81665 0.25576
 N38 N 0.81220 0.83801 0.25979
 C39 C 0.81765 0.85847 0.28820
 C40 C 0.84899 0.84919 0.30256
 C41 C 0.86173 0.82274 0.28146
 H42 H 0.80062 0.87912 0.29714
 H43 H 0.88631 0.80959 0.28407
 N44 N 0.73753 0.83550 0.19062
 N45 N 0.73702 0.81063 0.16635
 C46 C 0.71023 0.81635 0.14452
 C47 C 0.69322 0.84605 0.15577
 C48 C 0.71108 0.85769 0.18486
 H49 H 0.70425 0.80090 0.12141
 H50 H 0.70589 0.88126 0.19985
 H51 H 0.79830 0.81713 0.18315
 H52 H 0.77874 0.78599 0.21556
 N53 N 0.80869 1.26221 -0.16403
 N54 N 0.83185 1.26296 -0.18933
 C55 C 0.85445 1.28898 -0.18272
 C56 C 0.84469 1.30524 -0.15186
 C57 C 0.81569 1.28775 -0.14056
 H58 H 0.87689 1.29495 -0.19850
 H59 H 0.80139 1.29259 -0.11658
 Cu60 Cu 0.83195 1.22877 -0.22742
 Cu61 Cu 0.77251 1.22704 -0.16240
 Cu62 Cu 0.77345 1.16322 -0.22720
 N63 N 0.83314 1.19101 -0.26197
 N64 N 0.81021 1.16558 -0.26186
 C65 C 0.81792 1.14246 -0.28754
 C66 C 0.84713 1.15416 -0.30444
 C67 C 0.85634 1.18486 -0.28768
 H68 H 0.80392 1.11850 -0.29288
 H69 H 0.87870 1.20090 -0.29314
 N70 N 0.73825 1.16506 -0.18994
 N71 N 0.73797 1.18937 -0.16512
 C72 C 0.71205 1.18259 -0.14253
 C73 C 0.69537 1.15275 -0.15384
 C74 C 0.71248 1.14217 -0.18380
 H75 H 0.70632 1.19755 -0.11903
 H76 H 0.70717 1.11895 -0.19926
 H77 H 0.80115 1.18901 -0.18825
 H78 H 0.77132 1.21624 -0.21567
 N79 N 0.18957 0.73931 -0.16417
 N80 N 0.16577 0.73974 -0.18885
 C81 C 0.14311 0.71364 -0.18276
 C82 C 0.15345 0.69617 -0.15281
 C83 C 0.18285 0.71303 -0.14153
 H84 H 0.12037 0.70826 -0.19832
 H85 H 0.19771 0.70715 -0.11818
 Cu86 Cu 0.16600 0.77566 -0.22518
 Cu87 Cu 0.22659 0.77383 -0.16228
 Cu88 Cu 0.22733 0.83767 -0.22744
 N89 N 0.16623 0.81160 -0.26148
 N90 N 0.19042 0.83579 -0.26222
 C91 C 0.18373 0.85847 -0.28852
 C92 C 0.15395 0.84768 -0.30501
 C93 C 0.14332 0.81804 -0.28736
 H94 H 0.19873 0.88165 -0.29442
 H95 H 0.12012 0.80308 -0.29227
 N96 N 0.26233 0.83507 -0.18987
 N97 N 0.26192 0.81091 -0.16494
 C98 C 0.28794 0.81720 -0.14229
 C99 C 0.30539 0.84652 -0.15368
 C100 C 0.28862 0.85735 -0.18372
 H101 H 0.29324 0.80226 -0.11872
 H102 H 0.29454 0.88033 -0.19924
 H103 H 0.20018 0.81387 -0.18735
 H104 H 0.22738 0.78485 -0.21558
 Si105 Si 0.50009 1.00015 0.00072
 Si106 Si 0.00146 0.49928 1.00157
 Si107 Si 0.99955 -0.00005 0.50090
 C108 C 0.10131 0.37795 1.10252
 N109 N 0.07124 0.39071 1.11552
 N110 N 0.05349 0.41480 1.09770
 C111 C 0.06529 0.42689 1.06636
 N112 N 0.09537 0.41416 1.05338
 N113 N 0.11312 0.39007 1.07120
 C114 C 0.11963 0.35086 1.12090
 C115 C 0.13466 0.32758 1.13593
 C116 C 0.04529 0.45140 1.04626
 C117 C 0.02810 0.47118 1.02884
 C118 C -0.10147 0.61881 1.10180
 N119 N -0.11269 0.60634 1.07036
 N120 N -0.09417 0.58269 1.05269
 C121 C -0.06388 0.57081 1.06592
 N122 N -0.05269 0.58322 1.09739
 N123 N -0.07121 0.60686 1.11506
 C124 C -0.12040 0.64570 1.11988
 C125 C -0.13565 0.66897 1.13474
 C126 C -0.04310 0.54678 1.04601
 C127 C -0.02542 0.52729 1.02873
 C128 C -0.10204 0.38094 0.90082
 N129 N -0.07225 0.39366 0.88724
 N130 N -0.05363 0.41697 0.90521
 C131 C -0.06427 0.42826 0.93730
 N132 N -0.09409 0.41557 0.95088
 N133 N -0.11271 0.39226 0.93290
 C134 C -0.12132 0.35484 0.88207
 C135 C -0.13706 0.33244 0.86648
 C136 C -0.04347 0.45211 0.95731
 C137 C -0.02569 0.47148 0.97457
 C138 C 0.10188 0.61858 0.89883
 N139 N 0.11373 0.60670 0.93023
 N140 N 0.09586 0.58300 0.94841
 C141 C 0.06560 0.57044 0.93574
 N142 N 0.05378 0.58226 0.90430
 N143 N 0.07166 0.60597 0.88611
 C144 C 0.12033 0.64533 0.88011
 C145 C 0.13557 0.66829 0.86485
 C146 C 0.04547 0.54637 0.95623
 C147 C 0.02819 0.52695 0.97397
 C148 C 1.10160 0.10084 0.38145
 N149 N 1.11410 0.07061 0.39529
 N150 N 1.09587 0.05281 0.41904
 C151 C 1.06460 0.06469 0.42966
 N152 N 1.05215 0.09498 0.41591
 N153 N 1.07038 0.11278 0.39216
 C154 C 1.12027 0.11890 0.35440
 C155 C 1.13541 0.13367 0.33100
 C156 C 1.04412 0.04448 0.45364
 C157 C 1.02655 0.02703 0.47303
 C158 C 1.10155 -0.10076 0.62064
 N159 N 1.07129 -0.11372 0.60841
 N160 N 1.05289 -0.09575 0.58492
 C161 C 1.06422 -0.06429 0.57294
 N162 N 1.09448 -0.05133 0.58518
 N163 N 1.11289 -0.06930 0.60867
 C164 C 1.12075 -0.11952 0.64683
 C165 C 1.13654 -0.13506 0.66925
 C166 C 1.04377 -0.04430 0.54874
 C167 C 1.02632 -0.02704 0.52907
 C168 C 0.89926 -0.10192 0.38038
 N169 N 0.93165 -0.11202 0.38916
 N170 N 0.94955 -0.09413 0.41315
 C171 C 0.93559 -0.06561 0.42910
 N172 N 0.90316 -0.05557 0.42040
 N173 N 0.88526 -0.07346 0.39641
 C174 C 0.88074 -0.12000 0.35313
 C175 C 0.86561 -0.13469 0.32963
 C176 C 0.95561 -0.04515 0.45337
 C177 C 0.97284 -0.02748 0.47295
 C178 C 0.89943 0.10282 0.62079
 N179 N 0.93175 0.11290 0.61174
 N180 N 0.94971 0.09461 0.58808
 C181 C 0.93587 0.06572 0.57273
 N182 N 0.90354 0.05566 0.58176
 N183 N 0.88559 0.07394 0.60542
 C184 C 0.88057 0.12175 0.64718
 C185 C 0.86482 0.13722 0.66974
 C186 C 0.95579 0.04514 0.54849
 C187 C 0.97292 0.02741 0.52887
 C188 C 0.38362 1.10359 0.10352
 N189 N 0.39264 1.11401 0.07064
 N190 N 0.41585 1.09591 0.05219
 C191 C 0.43076 1.06684 0.06606
 N192 N 0.42182 1.05650 0.09897
 N193 N 0.39861 1.07460 0.11743
 C194 C 0.35718 1.12190 0.12254
 C195 C 0.33432 1.13680 0.13802
 C196 C 0.45418 1.04615 0.04542
 C197 C 0.47307 1.02819 0.02779
 C198 C 0.61933 1.10010 -0.10201
 N199 N 0.60330 1.11493 -0.07395
 N200 N 0.57988 1.09694 -0.05573
 C201 C 0.57177 1.06357 -0.06503
 N202 N 0.58777 1.04876 -0.09312
 N203 N 0.61119 1.06676 -0.11134
 C204 C 0.64556 1.11896 -0.12075
 C205 C 0.66805 1.13452 -0.13608
 C206 C 0.54773 1.04364 -0.04446
 C207 C 0.52818 1.02656 -0.02676
 C208 C 0.38189 0.89819 -0.10147
 N209 N 0.39177 0.88736 -0.06900
 N210 N 0.41506 0.90553 -0.05074
 C211 C 0.42918 0.93507 -0.06441
 N212 N 0.41937 0.94586 -0.09692
 N213 N 0.39607 0.92769 -0.11518
 C214 C 0.35560 0.87956 -0.12038
 C215 C 0.33296 0.86429 -0.13581
 C216 C 0.45298 0.95553 -0.04402
 C217 C 0.47231 0.97306 -0.02647
 C218 C 0.61596 0.89742 0.10456
 N219 N 0.60316 0.88450 0.07395
 N220 N 0.57997 0.90272 0.05562
 C221 C 0.56887 0.93439 0.06737
 N222 N 0.58157 0.94725 0.09805
 N223 N 0.60476 0.92903 0.11638
 C224 C 0.64243 0.87880 0.12317
 C225 C 0.66530 0.86362 0.13829
 C226 C 0.54559 0.95497 0.04653
 C227 C 0.52685 0.97269 0.02855
   
