data_POSCAR
  _audit_creation_date              2014-09-24
  _audit_creation_method            'ToBaCCo'
  _symmetry_space_group_name_H-M    'P1'
  _symmetry_Int_Tables_number       1
  _symmetry_cell_setting            triclinic
  loop_
  _symmetry_equiv_pos_as_xyz
 x,y,z
_cell_length_a 17.5901
_cell_length_b 16.3274
_cell_length_c 36.5366
_cell_angle_alpha 87.508100
_cell_angle_beta 89.760400
_cell_angle_gamma 121.279300
loop_
  _atom_site_label
  _atom_site_type_symbol
  _atom_site_fract_x
  _atom_site_fract_y
  _atom_site_fract_z
C1 C -0.04684 -0.00689 0.49604
 C2 C 1.01851 -0.00825 0.15385
 C3 C 0.02882 1.00526 0.85196
 O4 O 0.46081 0.03248 0.03745
 O5 O 0.61719 0.04133 -0.03233
 O6 O 0.46265 0.04122 -0.03250
 O7 O 0.62242 0.07477 0.03771
 O8 O 0.57007 -0.08122 0.04003
 O9 O 0.39245 -0.11603 -0.02254
 O10 O 0.54312 -0.11708 -0.02933
 O11 O 0.40534 -0.12300 0.04751
 Cu12 Cu 0.54775 0.06229 0.00090
 Cu13 Cu 0.47229 -0.12464 0.00927
 C14 C 0.40607 -0.04727 0.05438
 C15 C 0.60700 -0.03748 -0.04228
 C16 C 0.39647 -0.04169 -0.03741
 C17 C 0.62585 0.00309 0.04984
 O18 O -0.03800 0.57479 0.63894
 O19 O -0.05603 0.39000 0.70567
 O20 O -0.04725 0.55752 0.70984
 O21 O -0.06258 0.40308 0.63529
 O22 O 0.08338 0.47113 0.63545
 O23 O 0.09929 0.63345 0.70490
 O24 O 0.09062 0.46588 0.70685
 O25 O 0.10796 0.64082 0.63477
 Cu26 Cu -0.06572 0.47431 0.67300
 Cu27 Cu 0.10986 0.55897 0.67087
 C28 C 0.03778 0.63896 0.62535
 C29 C 0.01457 0.39542 0.71696
 C30 C 0.02893 0.62584 0.71821
 C31 C 0.00845 0.41058 0.62288
 O32 O 0.56869 0.56513 0.35885
 O33 O 0.42476 0.40623 0.28789
 O34 O 0.58781 0.55444 0.28819
 O35 O 0.43197 0.38969 0.35906
 O36 O 0.35169 0.45783 0.35424
 O37 O 0.52372 0.64023 0.28862
 O38 O 0.36102 0.49223 0.28300
 O39 O 0.48868 0.63360 0.35847
 Cu40 Cu 0.51002 0.47172 0.32367
 Cu41 Cu 0.42452 0.56317 0.32070
 C42 C 0.55248 0.62712 0.37084
 C43 C 0.36834 0.42339 0.27318
 C44 C 0.58562 0.62765 0.27737
 C45 C 0.36436 0.39291 0.36827
 C46 C -0.14390 0.05019 0.52956
 C47 C -0.06120 0.06861 0.51505
 C48 C 0.01533 0.15544 0.52443
 C49 C 0.01085 0.22150 0.54578
 C50 C -0.07163 0.20172 0.56015
 C51 C -0.14899 0.11617 0.55144
 C52 C -0.07391 0.26543 0.58444
 C53 C 0.00604 0.34777 0.59428
 C54 C 0.08694 0.36778 0.57815
 C55 C 0.08936 0.30541 0.55424
 H56 H 0.08091 0.17118 0.51705
 H57 H -0.21310 0.09819 0.56286
 H58 H -0.13682 0.24908 0.59668
 H59 H 0.15321 0.32176 0.54305
 H60 H -0.20427 -0.01835 0.52701
 H61 H 0.14933 0.43090 0.58471
 C62 C 0.90971 0.80734 0.16722
 C63 C 0.94452 0.90322 0.17630
 C64 C 0.89677 0.92141 0.20271
 C65 C 0.81773 0.84844 0.21927
 C66 C 0.78590 0.75241 0.21153
 C67 C 0.83272 0.73237 0.18558
 C68 C 0.70754 0.67916 0.22968
 C69 C 0.65997 0.70234 0.25415
 C70 C 0.69043 0.79871 0.25987
 C71 C 0.76931 0.87116 0.24296
 H72 H 0.91903 0.99450 0.20918
 H73 H 0.80793 0.65914 0.17850
 H74 H 0.68393 0.60464 0.22504
 H75 H 0.79280 0.94508 0.24863
 H76 H 0.93945 0.79017 0.14521
 H77 H 0.65547 0.81788 0.27889
 C78 C 0.19659 0.08819 -0.14123
 C79 C 0.10830 0.01813 -0.12930
 C80 C 0.09799 -0.05341 -0.10278
 C81 C 0.17168 -0.05339 -0.08817
 C82 C 0.25853 0.02068 -0.09899
 C83 C 0.27016 0.09105 -0.12547
 C84 C 0.33232 0.02250 -0.08342
 C85 C 0.32030 -0.05047 -0.05781
 C86 C 0.23353 -0.12617 -0.04846
 C87 C 0.15986 -0.12720 -0.06324
 H88 H 0.03172 -0.11152 -0.09441
 H89 H 0.33641 0.14681 -0.13495
 H90 H 0.39901 0.08110 -0.09093
 H91 H 0.09362 -0.18525 -0.05488
 H92 H 0.21011 0.13966 -0.16369
 H93 H 0.22246 -0.18248 -0.02843
 C94 C -0.07625 0.90961 0.55980
 C95 C -0.02169 0.94385 0.52740
 C96 C 0.03991 0.91319 0.52284
 C97 C 0.04535 0.85098 0.54923
 C98 C -0.01188 0.81742 0.58058
 C99 C -0.07059 0.84902 0.58601
 C100 C -0.01288 0.74902 0.60530
 C101 C 0.04352 0.71387 0.59953
 C102 C 0.10356 0.75027 0.56927
 C103 C 0.10385 0.81770 0.54404
 H104 H 0.07733 0.92867 0.49734
 H105 H -0.11545 0.82329 0.60984
 H106 H -0.05836 0.72224 0.62898
 H107 H 0.14871 0.84264 0.52026
 H108 H -0.12812 0.92454 0.56459
 H109 H 0.14814 0.72435 0.56458
 C110 C 0.10731 0.03563 0.21114
 C111 C 0.07628 0.06744 0.18130
 C112 C 0.11222 0.16700 0.17525
 C113 C 0.17656 0.23204 0.19886
 C114 C 0.20664 0.19730 0.22807
 C115 C 0.17091 0.09921 0.23415
 C116 C 0.27232 0.26093 0.25097
 C117 C 0.30688 0.35945 0.24615
 C118 C 0.27621 0.39446 0.21760
 C119 C 0.21247 0.33131 0.19375
 H120 H 0.09317 0.19411 0.15172
 H121 H 0.19332 0.07149 0.25636
 H122 H 0.29438 0.23347 0.27345
 H123 H 0.19049 0.35989 0.17170
 H124 H 0.08425 -0.03975 0.21598
 H125 H 0.30172 0.47064 0.21377
 C126 C 0.97419 0.02696 -0.08542
 C127 C 0.95369 -0.01225 -0.12038
 C128 C 0.86593 -0.04820 -0.13243
 C129 C 0.80119 -0.04651 -0.11034
 C130 C 0.82414 -0.00582 -0.07584
 C131 C 0.91030 0.02935 -0.06346
 C132 C 0.76080 0.00005 -0.05446
 C133 C 0.67396 -0.03685 -0.06667
 C134 C 0.65056 -0.07978 -0.10046
 C135 C 0.71414 -0.08325 -0.12245
 H136 H 0.84875 -0.07455 -0.15968
 H137 H 0.92910 0.06123 -0.03711
 H138 H 0.77826 0.03126 -0.02792
 H139 H 0.69510 -0.11528 -0.14876
 H140 H 1.04114 0.06052 -0.07549
 H141 H 0.58330 -0.11000 -0.10987
 C142 C 0.14112 0.06243 0.10546
 C143 C 0.09069 -0.01382 0.13181
 C144 C 0.11875 -0.07938 0.13983
 C145 C 0.19215 -0.07111 0.12030
 C146 C 0.23969 0.00550 0.09383
 C147 C 0.21377 0.07164 0.08674
 C148 C 0.31241 0.01510 0.07433
 C149 C 0.33766 -0.05270 0.07956
 C150 C 0.29075 -0.12928 0.10579
 C151 C 0.21929 -0.13761 0.12644
 H152 H 0.08591 -0.13455 0.16156
 H153 H 0.25001 0.13114 0.06674
 H154 H 0.34698 0.07348 0.05372
 H155 H 0.18410 -0.19708 0.14650
 H156 H 0.12496 0.11717 0.09967
 H157 H 0.30876 -0.18305 0.11003
 C158 C 0.87984 0.83029 0.46700
 C159 C 0.87242 0.90877 0.47727
 C160 C 0.79802 0.91186 0.46435
 C161 C 0.73295 0.83785 0.44370
 C162 C 0.74221 0.75997 0.43503
 C163 C 0.81537 0.75662 0.44713
 C164 C 0.68105 0.68917 0.41258
 C165 C 0.61057 0.69539 0.39802
 C166 C 0.59999 0.77168 0.40758
 C167 C 0.66060 0.84223 0.43017
 H168 H 0.79358 0.97474 0.46741
 H169 H 0.82481 0.69867 0.43999
 H170 H 0.69030 0.63109 0.40541
 H171 H 0.65191 0.90121 0.43639
 H172 H 0.93754 0.82608 0.47290
 H173 H 0.54619 0.77847 0.39675
 C174 C 0.08966 0.18283 0.84328
 C175 C 0.04348 0.08975 0.82943
 C176 C -0.00353 0.07873 0.79675
 C177 C -0.00001 0.15718 0.77781
 C178 C 0.05277 0.25027 0.79064
 C179 C 0.09712 0.26217 0.82350
 C180 C 0.05815 0.32916 0.77082
 C181 C 0.00760 0.31462 0.73943
 C182 C -0.04743 0.22125 0.72784
 C183 C -0.05032 0.14335 0.74653
 H184 H -0.04641 0.00824 0.78649
 H185 H 0.13545 0.33249 0.83454
 H186 H 0.10011 0.40117 0.78001
 H187 H -0.09204 0.07224 0.73653
 H188 H 0.12046 0.19447 0.86966
 H189 H -0.08620 0.20897 0.70350
 C190 C 0.93547 -0.04445 0.09482
 C191 C 0.96260 0.01121 0.12618
 C192 C 0.91876 0.06040 0.13480
 C193 C 0.84807 0.05058 0.11344
 C194 C 0.82123 -0.00867 0.08322
 C195 C 0.86705 -0.05314 0.07353
 C196 C 0.74716 -0.02520 0.06354
 C197 C 0.69994 0.01847 0.07280
 C198 C 0.72822 0.08073 0.10177
 C199 C 0.80117 0.09563 0.12235
 H200 H 0.93506 0.10066 0.15925
 H201 H 0.84722 -0.09866 0.05041
 H202 H 0.72679 -0.07122 0.04052
 H203 H 0.82061 0.14186 0.14521
 H204 H 0.96349 -0.08732 0.08782
 H205 H 0.69308 0.11643 0.10876
 C206 C -0.00390 0.08085 0.43276
 C207 C 0.02387 0.05157 0.46452
 C208 C 0.11690 0.09565 0.46895
 C209 C 0.17827 0.16733 0.44360
 C210 C 0.14765 0.19651 0.41298
 C211 C 0.05661 0.15097 0.40737
 C212 C 0.20842 0.27265 0.38903
 C213 C 0.29988 0.31859 0.39489
 C214 C 0.33025 0.28777 0.42486
 C215 C 0.26996 0.21358 0.44928
 H216 H 0.14275 0.08390 0.49409
 H217 H 0.03176 0.17243 0.38406
 H218 H 0.18486 0.29500 0.36550
 H219 H 0.29505 0.19243 0.47257
 H220 H -0.07318 0.05416 0.42816
 H221 H 0.40086 0.32183 0.42952
 C222 C -0.06518 0.82390 0.83711
 C223 C 0.00450 0.91899 0.82791
 C224 C 0.06334 0.93340 0.79852
 C225 C 0.05403 0.85675 0.77926
 C226 C -0.01765 0.76269 0.78793
 C227 C -0.07736 0.74726 0.81676
 C228 C -0.02673 0.68598 0.76813
 C229 C 0.03742 0.70270 0.74092
 C230 C 0.10943 0.79658 0.73338
 C231 C 0.11710 0.87293 0.75201
 H232 H 0.11916 1.00499 0.79157
 H233 H -0.13171 0.67538 0.82442
 H234 H -0.08239 0.61374 0.77417
 H235 H 0.17282 0.94469 0.74524
 H236 H -0.10884 0.80741 0.86074
 H237 H 0.15892 0.81150 0.71220
   
