data_POSCAR
  _audit_creation_date              2014-09-24
  _audit_creation_method            'ToBaCCo'
  _symmetry_space_group_name_H-M    'P1'
  _symmetry_Int_Tables_number       1
  _symmetry_cell_setting            triclinic
  loop_
  _symmetry_equiv_pos_as_xyz
 x,y,z
_cell_length_a 14.8484
_cell_length_b 21.8022
_cell_length_c 14.9711
_cell_angle_alpha 90.229000
_cell_angle_beta 89.766200
_cell_angle_gamma 89.857400
loop_
  _atom_site_label
  _atom_site_type_symbol
  _atom_site_fract_x
  _atom_site_fract_y
  _atom_site_fract_z
N1 N 0.15724 0.06556 0.09481
 N2 N 0.21162 0.11287 0.10477
 N3 N 0.09532 -0.06304 0.15879
 N4 N 0.10511 -0.11009 0.21319
 N5 N 0.15828 -0.06355 0.09692
 N6 N 0.21262 -0.11096 0.10749
 N7 N 0.09434 0.06598 0.15669
 N8 N 0.10408 0.11355 0.21050
 C9 C 0.17755 0.14220 0.17728
 C10 C 0.17870 -0.13938 0.18041
 N11 N -0.16059 -0.06393 0.09618
 N12 N -0.21418 -0.11160 0.10648
 N13 N -0.09936 0.06603 0.15614
 N14 N -0.10958 0.11429 0.20890
 N15 N -0.16143 0.06508 0.09403
 N16 N -0.21822 0.11566 0.10415
 N17 N -0.09848 -0.06310 0.15834
 N18 N -0.10802 -0.11017 0.21268
 Mn19 Mn -0.00207 0.00147 0.15858
 C20 C -0.18060 -0.13978 0.17956
 C21 C -0.18263 0.14420 0.17641
 N22 N 0.15980 -0.06536 -0.09531
 N23 N 0.21695 -0.11571 -0.10511
 N24 N 0.09667 0.06262 -0.16001
 N25 N 0.10647 0.10978 -0.21429
 N26 N 0.15854 0.06355 -0.09756
 N27 N 0.21214 0.11125 -0.10768
 N28 N 0.09765 -0.06671 -0.15733
 N29 N 0.10822 -0.11507 -0.20982
 Mn30 Mn 0.15955 0.00006 -0.00028
 C31 C 0.18155 -0.14456 -0.17714
 C32 C 0.17897 0.13951 -0.18087
 N33 N -0.16004 0.06289 -0.09839
 N34 N -0.21389 0.11055 -0.10870
 N35 N -0.09667 -0.06728 -0.15787
 N36 N -0.10640 -0.11558 -0.21064
 N37 N -0.15957 -0.06606 -0.09604
 N38 N -0.21628 -0.11639 -0.10628
 N39 N -0.09734 0.06205 -0.16052
 N40 N -0.10676 0.10918 -0.21479
 Mn41 Mn -0.16148 -0.00048 -0.00107
 Mn42 Mn 0.00009 -0.00239 -0.16013
 Cl43 Cl -0.00098 -0.00033 -0.00076
 C44 C -0.17992 0.13879 -0.18172
 C45 C -0.17995 -0.14518 -0.17832
 N46 N 0.66079 0.56457 0.59651
 N47 N 0.71540 0.61179 0.60680
 N48 N 0.59783 0.43559 0.65796
 N49 N 0.60743 0.38805 0.71139
 N50 N 0.66044 0.43536 0.59575
 N51 N 0.71439 0.38761 0.60512
 N52 N 0.59812 0.56474 0.65869
 N53 N 0.60838 0.61207 0.71296
 C54 C 0.68190 0.64085 0.67983
 C55 C 0.68051 0.35874 0.67767
 N56 N 0.34130 0.43598 0.59689
 N57 N 0.28715 0.38848 0.60648
 N58 N 0.40405 0.56501 0.65949
 N59 N 0.39384 0.61230 0.71393
 N60 N 0.34145 0.56513 0.59779
 N61 N 0.28688 0.61251 0.60851
 N62 N 0.40382 0.43583 0.65870
 N63 N 0.39389 0.38822 0.71206
 Mn64 Mn 0.50096 0.50030 0.65982
 C65 C 0.32071 0.35927 0.67873
 C66 C 0.32040 0.64132 0.68132
 N67 N 0.66040 0.43519 0.40329
 N68 N 0.71465 0.38760 0.39246
 N69 N 0.59794 0.56444 0.34243
 N70 N 0.60757 0.61186 0.28883
 N71 N 0.66060 0.56441 0.40407
 N72 N 0.71464 0.61192 0.39415
 N73 N 0.59773 0.43546 0.34164
 N74 N 0.60758 0.38813 0.28720
 Mn75 Mn 0.66172 0.49988 0.49991
 C76 C 0.68087 0.35885 0.31965
 C77 C 0.68071 0.64086 0.32183
 N78 N 0.34159 0.56540 0.40547
 N79 N 0.28731 0.61296 0.39580
 N80 N 0.40399 0.43617 0.34242
 N81 N 0.39381 0.38898 0.28798
 N82 N 0.34136 0.43628 0.40458
 N83 N 0.28677 0.38913 0.39419
 N84 N 0.40420 0.56519 0.34326
 N85 N 0.39426 0.61257 0.28954
 Mn86 Mn 0.34030 0.50070 0.50120
 Mn87 Mn 0.50098 0.50031 0.34139
 Cl88 Cl 0.50100 0.50030 0.50061
 C89 C 0.32099 0.64180 0.32309
 C90 C 0.32035 0.36025 0.32109
 N91 N 0.17604 0.22559 0.28721
 C92 C 0.21471 0.19880 0.21458
 N93 N 0.28806 0.22540 0.17691
 N94 N 0.32166 0.27702 0.21084
 C95 C 0.28300 0.30380 0.28350
 N96 N 0.20965 0.27721 0.32114
 N97 N 0.71074 0.77597 0.17909
 C98 C 0.78322 0.80341 0.21682
 N99 N 0.82211 0.77712 0.28912
 N100 N 0.78955 0.72515 0.32264
 C101 C 0.71706 0.69772 0.28490
 N102 N 0.67818 0.72402 0.21262
 N103 N 0.82258 0.22216 0.70892
 C104 C 0.78367 0.19572 0.78132
 N105 N 0.71092 0.22316 0.81955
 N106 N 0.67812 0.27521 0.78649
 C107 C 0.71702 0.30167 0.71413
 N108 N 0.78977 0.27424 0.67585
 N109 N 0.17609 0.77668 0.71627
 C110 C 0.21489 0.80352 0.78852
 N111 N 0.28836 0.77651 0.82538
 N112 N 0.32181 0.72470 0.79129
 C113 C 0.28302 0.69800 0.71912
 N114 N 0.20960 0.72486 0.68216
 N115 N 0.17775 0.22319 0.70981
 C116 C 0.21584 0.19647 0.78222
 N117 N 0.28836 0.22357 0.82054
 N118 N 0.32170 0.27550 0.78759
 C119 C 0.28363 0.30224 0.71521
 N120 N 0.21109 0.27516 0.67686
 N121 N 0.71334 0.77608 0.82394
 C122 C 0.78708 0.80292 0.78709
 N123 N 0.82635 0.77595 0.71473
 N124 N 0.79302 0.72422 0.68056
 C125 C 0.71929 0.69754 0.71755
 N126 N 0.68008 0.72440 0.78982
 N127 N 0.17717 0.77751 0.29041
 C128 C 0.21582 0.80393 0.21784
 N129 N 0.28903 0.77679 0.17999
 N130 N 0.32247 0.72505 0.21355
 C131 C 0.28383 0.69861 0.28609
 N132 N 0.21063 0.72576 0.32398
 N133 N 0.82372 0.22267 0.28360
 C134 C 0.78455 0.19623 0.21119
 N135 N 0.71134 0.22377 0.17465
 N136 N 0.67852 0.27566 0.20918
 C137 C 0.71768 0.30197 0.28150
 N138 N 0.79085 0.27458 0.31814
   
