data_POSCAR
  _audit_creation_date              2014-09-24
  _audit_creation_method            'ToBaCCo'
  _symmetry_space_group_name_H-M    'P1'
  _symmetry_Int_Tables_number       1
  _symmetry_cell_setting            triclinic
  loop_
  _symmetry_equiv_pos_as_xyz
 x,y,z
_cell_length_a 15.7252
_cell_length_b 15.7252
_cell_length_c 15.7252
_cell_angle_alpha 76.726600
_cell_angle_beta 103.271700
_cell_angle_gamma 76.721700
loop_
  _atom_site_label
  _atom_site_type_symbol
  _atom_site_fract_x
  _atom_site_fract_y
  _atom_site_fract_z
O1 O 0.63524 0.47167 0.08950
 O2 O 0.38950 0.50238 0.05937
 O3 O 0.52955 0.36373 0.09079
 O4 O 0.49494 0.61009 0.05694
 O5 O 0.46780 0.63593 -0.09253
 O6 O 0.50257 0.38963 -0.05866
 O7 O 0.36213 0.52791 -0.09004
 O8 O 0.60800 0.49738 -0.05994
 Cu9 Cu 0.51475 0.48464 0.08916
 Cu10 Cu 0.48261 0.51499 -0.09031
 C11 C 0.66258 0.48176 0.01901
 C12 C 0.33480 0.51807 -0.01951
 C13 C 0.51959 0.33562 0.02081
 C14 C 0.47804 0.66404 -0.02258
 O15 O -0.08969 0.63821 0.47149
 O16 O -0.05959 0.39242 0.50213
 O17 O -0.05732 0.49776 0.60983
 O18 O -0.09119 0.53241 0.36347
 O19 O 0.05827 0.50537 0.38937
 O20 O 0.09214 0.47066 0.63566
 O21 O 0.08985 0.36509 0.52771
 O22 O 0.05973 0.61089 0.49713
 Cu23 Cu -0.08947 0.51771 0.48438
 Cu24 Cu 0.09000 0.48555 0.51472
 C25 C -0.01918 0.66553 0.48158
 C26 C 0.01933 0.33776 0.51787
 C27 C 0.02220 0.48072 0.66380
 C28 C -0.02119 0.52226 0.33538
 O29 O 0.50280 0.05888 0.61089
 O30 O 0.47212 0.08901 0.36515
 O31 O 0.36426 0.09058 0.47078
 O32 O 0.61061 0.05672 0.50540
 O33 O 0.63648 -0.09275 0.53253
 O34 O 0.39016 -0.05889 0.49779
 O35 O 0.49782 -0.06043 0.39241
 O36 O 0.52835 -0.09053 0.63825
 Cu37 Cu 0.48518 0.08880 0.48563
 Cu38 Cu 0.51555 -0.09067 0.51778
 C39 C 0.51834 -0.01998 0.66556
 C40 C 0.48205 0.01852 0.33779
 C41 C 0.33615 0.02060 0.48073
 C42 C 0.66457 -0.02278 0.52227
 C43 C 0.50951 -0.01690 -0.08310
 C44 C 0.48810 -0.08108 -0.01932
 C45 C 0.47900 -0.06417 0.06228
 C46 C 0.49016 0.01594 0.08132
 C47 C 0.51138 0.08022 0.01749
 C48 C 0.52061 0.06326 -0.06407
 H49 H 0.53555 0.11357 -0.11383
 H50 H 0.46401 -0.11445 0.11203
 C51 C -0.01759 0.51262 1.08041
 C52 C -0.08133 0.49120 1.01621
 C53 C -0.06233 0.48013 0.93606
 C54 C 0.01923 0.48933 0.91911
 C55 C 0.08308 0.51055 0.98337
 C56 C 0.06402 0.52174 1.06349
 H57 H 0.11379 0.53668 1.11379
 H58 H -0.11207 0.46515 0.88577
 C59 C 0.08071 0.01744 0.48877
 C60 C 0.01644 0.08129 0.50997
 C61 C -0.06368 0.06226 0.52113
 C62 C -0.08059 -0.01936 0.51205
 C63 C -0.01639 -0.08312 0.49061
 C64 C 0.06376 -0.06410 0.47952
 H65 H 0.11408 -0.11386 0.46458
 H66 H -0.11396 0.11202 0.53612
 C67 C -0.24431 0.48054 1.02691
 C68 C -0.16852 0.48405 1.02667
 C69 C 0.24660 0.51975 0.97313
 C70 C 0.17052 0.51702 0.97312
 C71 C -0.02660 -0.24638 0.48043
 C72 C -0.02670 -0.17042 0.48367
 C73 C 0.02716 0.24453 0.51966
 C74 C 0.02684 0.16862 0.51666
 C75 C 0.51957 -0.02731 -0.24634
 C76 C 0.51641 -0.02728 -0.17039
 C77 C 0.48037 0.02646 0.24457
 C78 C 0.48344 0.02627 0.16865
 C79 C 0.47613 -0.24280 -0.03153
 C80 C 0.47986 -0.16725 -0.03116
 C81 C 0.52214 0.24231 0.02968
 C82 C 0.51902 0.16661 0.02922
 C83 C -0.24227 -0.03168 0.52412
 C84 C -0.16675 -0.03125 0.52033
 C85 C 0.24284 0.02952 0.47812
 C86 C 0.16712 0.02913 0.48118
 C87 C -0.03001 0.52431 1.24219
 C88 C -0.02948 0.52072 1.16663
 C89 C 0.03120 0.47832 0.75707
 C90 C 0.03091 0.48157 0.83276
   
