data_POSCAR
  _audit_creation_date              2014-09-24
  _audit_creation_method            'ToBaCCo'
  _symmetry_space_group_name_H-M    'P1'
  _symmetry_Int_Tables_number       1
  _symmetry_cell_setting            triclinic
  loop_
  _symmetry_equiv_pos_as_xyz
 x,y,z
_cell_length_a 38.4485
_cell_length_b 41.7154
_cell_length_c 34.9561
_cell_angle_alpha 87.221500
_cell_angle_beta 93.507500
_cell_angle_gamma 93.372500
loop_
  _atom_site_label
  _atom_site_type_symbol
  _atom_site_fract_x
  _atom_site_fract_y
  _atom_site_fract_z
N1 N 0.60252 0.69366 0.63298
 N2 N 0.57720 0.68232 0.65438
 C3 C 0.55748 0.70658 0.66207
 C4 C 0.57167 0.73456 0.64516
 C5 C 0.60022 0.72559 0.62692
 H6 H 0.53490 0.70416 0.67920
 H7 H 0.61748 0.74093 0.60979
 Cu8 Cu 0.57297 0.63715 0.67154
 Cu9 Cu 0.63474 0.66541 0.61256
 Cu10 Cu 0.64838 0.59979 0.67410
 N11 N 0.57865 0.59616 0.69975
 N12 N 0.60888 0.58278 0.70215
 C13 C 0.60687 0.55619 0.72530
 C14 C 0.57340 0.55230 0.73765
 C15 C 0.55600 0.57808 0.72088
 H16 H 0.62804 0.54050 0.73204
 H17 H 0.52928 0.58364 0.72438
 N18 N 0.67878 0.61260 0.63201
 N19 N 0.67337 0.63738 0.60790
 C20 C 0.69553 0.63720 0.57950
 C21 C 0.71540 0.61069 0.58589
 C22 C 0.70423 0.59576 0.61946
 H23 H 0.69557 0.65380 0.55476
 H24 H 0.71241 0.57318 0.63248
 H25 H 0.61617 0.61874 0.63091
 H26 H 0.63567 0.64763 0.66682
 N27 N 0.93343 0.31535 0.14992
 N28 N 0.94219 0.31998 0.18627
 C29 C 0.96067 0.29545 0.20103
 C30 C 0.96453 0.27476 0.17201
 C31 C 0.94717 0.28822 0.13985
 H32 H 0.97153 0.29344 0.23026
 H33 H 0.94407 0.27864 0.11155
 Cu34 Cu 0.93152 0.35899 0.20997
 Cu35 Cu 0.90399 0.34462 0.11918
 Cu36 Cu 0.86820 0.40304 0.17001
 N37 N 0.92559 0.40213 0.22618
 N38 N 0.89924 0.41855 0.21205
 C39 C 0.89943 0.44643 0.22988
 C40 C 0.92798 0.44783 0.25581
 C41 C 0.94413 0.41939 0.25276
 H42 H 0.88087 0.46474 0.22354
 H43 H 0.96725 0.41167 0.26899
 N44 N 0.85145 0.39224 0.11774
 N45 N 0.86452 0.36979 0.09838
 C46 C 0.84760 0.36871 0.06346
 C47 C 0.82351 0.39214 0.06069
 C48 C 0.82676 0.40670 0.09538
 H49 H 0.85337 0.35309 0.04115
 H50 H 0.81266 0.42677 0.10346
 H51 H 0.91155 0.38627 0.15018
 H52 H 0.87922 0.35422 0.16665
 N53 N 0.41999 0.17510 -0.14076
 N54 N 0.43548 0.14960 -0.15037
 C55 C 0.47029 0.15526 -0.14609
 C56 C 0.47687 0.18610 -0.13359
 C57 C 0.44444 0.19811 -0.13081
 H58 H 0.48936 0.13833 -0.15182
 H59 H 0.43901 0.22146 -0.12114
 Cu60 Cu 0.40873 0.11188 -0.16880
 Cu61 Cu 0.36928 0.17585 -0.14011
 Cu62 Cu 0.32561 0.10134 -0.14655
 N63 N 0.37718 0.08021 -0.19416
 N64 N 0.34431 0.07663 -0.18562
 C65 C 0.32743 0.05523 -0.20865
 C66 C 0.35100 0.04473 -0.23289
 C67 C 0.38246 0.06083 -0.22280
 H68 H 0.29984 0.04846 -0.20839
 H69 H 0.40683 0.05974 -0.23649
 N70 N 0.30559 0.13765 -0.12423
 N71 N 0.32106 0.16675 -0.12403
 C72 C 0.30014 0.18657 -0.10805
 C73 C 0.27042 0.16877 -0.09752
 C74 C 0.27480 0.13793 -0.10810
 H75 H 0.30670 0.21162 -0.10292
 H76 H 0.25689 0.11719 -0.10433
 H77 H 0.36902 0.12887 -0.12282
 H78 H 0.35293 0.13737 -0.17357
 N79 N 0.06688 0.82323 0.35504
 N80 N 0.05304 0.84963 0.34066
 C81 C 0.01800 0.84514 0.33882
 C82 C 0.00966 0.81404 0.35232
 C83 C 0.04125 0.80077 0.36206
 H84 H 0.00010 0.86292 0.32791
 H85 H 0.04533 0.77684 0.37423
 Cu86 Cu 0.08228 0.88651 0.32357
 Cu87 Cu 0.11696 0.82025 0.36522
 Cu88 Cu 0.16578 0.89206 0.35644
 N89 N 0.11628 0.91581 0.29885
 N90 N 0.14928 0.91727 0.31133
 C91 C 0.16759 0.93754 0.28803
 C92 C 0.14477 0.94952 0.25953
 C93 C 0.11235 0.93546 0.26734
 H94 H 0.19547 0.94281 0.29134
 H95 H 0.08807 0.93832 0.25053
 N96 N 0.18227 0.85507 0.38745
 N97 N 0.16454 0.82702 0.38919
 C98 C 0.18232 0.80668 0.41314
 C99 C 0.21241 0.82300 0.42718
 C100 C 0.21157 0.85355 0.41030
 H101 H 0.17307 0.78250 0.42143
 H102 H 0.23047 0.87342 0.41500
 H103 H 0.12031 0.86753 0.37721
 H104 H 0.13603 0.85771 0.32982
 N105 N 0.05536 0.16477 0.09224
 N106 N 0.04917 0.14138 0.11795
 C107 C 0.02966 0.15202 0.14484
 C108 C 0.02267 0.18355 0.13498
 C109 C 0.03910 0.19087 0.10132
 H110 H 0.02234 0.13830 0.17044
 H111 H 0.04124 0.21410 0.08622
 Cu112 Cu 0.06991 0.10028 0.11612
 Cu113 Cu 0.08772 0.16067 0.05206
 Cu114 Cu 0.13426 0.09133 0.05830
 N115 N 0.10157 0.06592 0.12585
 N116 N 0.12766 0.06338 0.10380
 C117 C 0.14783 0.04006 0.11870
 C118 C 0.13352 0.02734 0.15185
 C119 C 0.10406 0.04413 0.15548
 H120 H 0.17164 0.03353 0.10687
 H121 H 0.08691 0.04193 0.17899
 N122 N 0.14406 0.12769 0.02179
 N123 N 0.12741 0.15459 0.02023
 C124 C 0.14322 0.17602 -0.00417
 C125 C 0.17079 0.16164 -0.01874
 C126 C 0.17042 0.13108 -0.00190
 H127 H 0.13589 0.20048 -0.01003
 H128 H 0.18926 0.11328 -0.00507
 H129 H 0.08640 0.11153 0.04929
 H130 H 0.11767 0.12971 0.08590
 N131 N 0.43514 0.82891 0.63143
 N132 N 0.45097 0.85570 0.64348
 C133 C 0.48496 0.85081 0.65188
 C134 C 0.49037 0.81909 0.64529
 C135 C 0.45822 0.80583 0.63273
 H136 H 0.50431 0.86900 0.66149
 H137 H 0.45250 0.78175 0.62301
 Cu138 Cu 0.42535 0.89421 0.64703
 Cu139 Cu 0.38701 0.82714 0.61016
 Cu140 Cu 0.35703 0.90198 0.58421
 N141 N 0.39405 0.92899 0.65003
 N142 N 0.36740 0.93198 0.62493
 C143 C 0.34824 0.95584 0.63483
 C144 C 0.36353 0.96840 0.66806
 C145 C 0.39275 0.95100 0.67685
 H146 H 0.32398 0.96239 0.62001
 H147 H 0.41042 0.95287 0.70205
 N148 N 0.33807 0.86262 0.56045
 N149 N 0.34766 0.83374 0.57222
 C150 C 0.32816 0.81157 0.55235
 C151 C 0.30542 0.82751 0.52687
 C152 C 0.31245 0.85976 0.53271
 H153 H 0.33069 0.78589 0.55580
 H154 H 0.29927 0.87966 0.51853
 H155 H 0.39925 0.87171 0.58811
 H156 H 0.36814 0.86977 0.62721
 N157 N 0.88516 0.68943 0.38850
 N158 N 0.91500 0.67724 0.38166
 C159 C 0.93852 0.70147 0.37389
 C160 C 0.92258 0.73012 0.37547
 C161 C 0.88872 0.72172 0.38478
 H162 H 0.96485 0.69849 0.36595
 H163 H 0.86826 0.73779 0.38860
 Cu164 Cu 0.92054 0.63068 0.37780
 Cu165 Cu 0.84399 0.66241 0.40281
 Cu166 Cu 0.84786 0.58420 0.38847
 N167 N 0.91509 0.58747 0.35835
 N168 N 0.88563 0.56999 0.36055
 C169 C 0.88843 0.54200 0.34377
 C170 C 0.92173 0.54170 0.33115
 C171 C 0.93813 0.57079 0.34104
 H172 H 0.86822 0.52287 0.34206
 H173 H 0.96454 0.57938 0.33558
 N174 N 0.81991 0.59901 0.42777
 N175 N 0.81719 0.62980 0.43273
 C176 C 0.79733 0.63310 0.46262
 C177 C 0.78782 0.60271 0.47744
 C178 C 0.80247 0.58167 0.45456
 H179 H 0.79198 0.65582 0.47408
 H180 H 0.80145 0.55572 0.45779
 H181 H 0.88079 0.63073 0.41498
 H182 H 0.86924 0.63644 0.36260
 N183 N 0.60282 0.31127 -0.08987
 N184 N 0.57594 0.32382 -0.10893
 C185 C 0.55229 0.30008 -0.11867
 C186 C 0.56528 0.27117 -0.10534
 C187 C 0.59737 0.27910 -0.08714
 H188 H 0.52794 0.30349 -0.13514
 H189 H 0.61543 0.26276 -0.07306
 Cu190 Cu 0.57498 0.36983 -0.12114
 Cu191 Cu 0.64234 0.33806 -0.06962
 Cu192 Cu 0.65430 0.40781 -0.12552
 N193 N 0.58113 0.41262 -0.14541
 N194 N 0.61249 0.42650 -0.14853
 C195 C 0.61001 0.45440 -0.16907
 C196 C 0.57523 0.45853 -0.17889
 C197 C 0.55743 0.43161 -0.16340
 H198 H 0.63192 0.47063 -0.17611
 H199 H 0.52962 0.42584 -0.16603
 N200 N 0.69017 0.39197 -0.08771
 N201 N 0.68563 0.36553 -0.06589
 C202 C 0.71278 0.36359 -0.03975
 C203 C 0.73509 0.39045 -0.04509
 C204 C 0.72003 0.40782 -0.07577
 H205 H 0.71479 0.34537 -0.01676
 H206 H 0.72887 0.43135 -0.08688
 H207 H 0.62722 0.38558 -0.08202
 H208 H 0.63678 0.35960 -0.12187
 C209 C -0.01768 0.24651 0.17457
 C210 C -0.00585 0.23146 0.20857
 C211 C 0.00954 0.20489 0.19813
 C212 C 0.00666 0.20611 0.15861
 O213 O -0.00996 0.23123 0.14414
 H214 H -0.00840 0.23875 0.23751
 H215 H 0.02237 0.18731 0.21698
 C216 C 0.55840 0.76679 0.64568
 C217 C 0.57869 0.79510 0.64331
 C218 C 0.55595 0.81890 0.64457
 C219 C 0.52352 0.80319 0.64695
 O220 O 0.52494 0.77159 0.64778
 H221 H 0.60665 0.79798 0.64095
 H222 H 0.56207 0.84456 0.64266
 C223 C 0.97677 0.79873 0.35598
 C224 C 0.94536 0.81316 0.34979
 C225 C 0.92038 0.78940 0.35730
 C226 C 0.93849 0.76232 0.36695
 O227 O 0.97260 0.76792 0.36626
 H228 H 0.94113 0.83796 0.34116
 H229 H 0.89239 0.79142 0.35527
 C230 C 0.51094 0.20244 -0.12388
 C231 C 0.54156 0.18708 -0.11619
 C232 C 0.56621 0.21087 -0.10739
 C233 C 0.54879 0.23893 -0.11089
 O234 O 0.51524 0.23390 -0.12079
 H235 H 0.54534 0.16159 -0.11647
 H236 H 0.59363 0.20815 -0.09986
 C237 C 0.15355 -0.02906 0.22652
 C238 C 0.18633 -0.02519 0.21245
 C239 C 0.18298 -0.00406 0.18167
 C240 C 0.14851 0.00366 0.17965
 O241 O 0.13051 -0.01154 0.20676
 H242 H 0.20976 -0.03663 0.22314
 H243 H 0.20336 0.00512 0.16340
 C244 C 0.56102 0.52722 -0.23816
 C245 C 0.52693 0.52149 -0.22815
 C246 C 0.52717 0.49419 -0.20477
 C247 C 0.56141 0.48575 -0.20203
 O248 O 0.58185 0.50564 -0.22225
 H249 H 0.50462 0.53527 -0.23702
 H250 H 0.50522 0.48220 -0.19100
 C251 C 0.34300 1.02361 0.73493
 C252 C 0.31025 1.01941 0.71695
 C253 C 0.31393 0.99881 0.68869
 C254 C 0.34858 0.99163 0.69183
 O255 O 0.36643 1.00674 0.71984
 H256 H 0.28657 1.03029 0.72349
 H257 H 0.29359 0.98957 0.66873
 C258 C 0.93887 0.47447 0.28055
 C259 C 0.97279 0.48202 0.29362
 C260 C 0.97119 0.50904 0.31383
 C261 C 0.93633 0.51544 0.31203
 O262 O 0.91669 0.49461 0.29177
 H263 H 0.99590 0.46965 0.28844
 H264 H 0.99266 0.52217 0.32861
 C265 C 0.24106 0.17901 -0.07700
 C266 C 0.23244 0.21034 -0.07366
 C267 C 0.20377 0.20826 -0.05214
 C268 C 0.19749 0.17586 -0.04376
 O269 O 0.21998 0.15814 -0.05888
 H270 H 0.24546 0.23198 -0.08541
 H271 H 0.18974 0.22797 -0.04289
 C272 C 0.73920 0.59813 0.55961
 C273 C 0.75062 0.56733 0.56269
 C274 C 0.77009 0.56484 0.53186
 C275 C 0.76937 0.59440 0.51247
 O276 O 0.75060 0.61471 0.52919
 H277 H 0.74493 0.54869 0.58438
 H278 H 0.78343 0.54404 0.52458
 C279 C 0.80183 0.40226 0.02682
 C280 C 0.80073 0.43369 0.01307
 C281 C 0.77668 0.43315 -0.01715
 C282 C 0.76444 0.40146 -0.01908
 O283 O 0.77977 0.38256 0.00757
 H284 H 0.81550 0.45450 0.02408
 H285 H 0.76808 0.45362 -0.03466
 C286 C 0.23825 0.81197 0.45684
 C287 C 0.24148 0.78055 0.47016
 C288 C 0.26797 0.78178 0.49806
 C289 C 0.27855 0.81389 0.49971
 O290 O 0.26064 0.83217 0.47471
 H291 H 0.22627 0.75940 0.46082
 H292 H 0.27788 0.76183 0.51553
   
