data_POSCAR
  _audit_creation_date              2014-09-24
  _audit_creation_method            'ToBaCCo'
  _symmetry_space_group_name_H-M    'P1'
  _symmetry_Int_Tables_number       1
  _symmetry_cell_setting            triclinic
  loop_
  _symmetry_equiv_pos_as_xyz
 x,y,z
_cell_length_a 25.9123
_cell_length_b 27.3689
_cell_length_c 8.9754
_cell_angle_alpha 90.510300
_cell_angle_beta 89.778000
_cell_angle_gamma 89.903900
loop_
  _atom_site_label
  _atom_site_type_symbol
  _atom_site_fract_x
  _atom_site_fract_y
  _atom_site_fract_z
O1 O 0.23835 0.29451 0.05750
 O2 O 0.31540 0.20186 0.25281
 O3 O 0.23990 0.20044 0.06189
 O4 O 0.31406 0.29757 0.24959
 O5 O 0.25832 0.29791 0.43661
 O6 O 0.18472 0.20010 0.25009
 O7 O 0.26049 0.20393 0.44181
 O8 O 0.18301 0.29607 0.24547
 Cu9 Cu 0.28273 0.24858 0.13712
 Cu10 Cu 0.21576 0.24950 0.36171
 C11 C 0.19740 0.31079 0.11807
 C12 C 0.30132 0.18750 0.38087
 C13 C 0.19956 0.18384 0.12386
 C14 C 0.29897 0.31404 0.37525
 O15 O 0.81376 0.28076 0.36228
 O16 O 0.71048 0.18857 0.35084
 O17 O 0.80586 0.19228 0.25301
 O18 O 0.71956 0.27615 0.45855
 O19 O 0.69220 0.30565 0.24439
 O20 O 0.77927 0.22242 0.03893
 O21 O 0.68481 0.21724 0.13405
 O22 O 0.78723 0.31023 0.14724
 Cu23 Cu 0.76531 0.23124 0.37736
 Cu24 Cu 0.73302 0.26697 0.11983
 C25 C 0.81792 0.31123 0.25712
 C26 C 0.67998 0.18728 0.24043
 C27 C 0.80742 0.19317 0.11153
 C28 C 0.69113 0.30515 0.38595
 O29 O 0.74012 0.79603 0.55793
 O30 O 0.81685 0.70331 0.75414
 O31 O 0.74156 0.70200 0.56275
 O32 O 0.81579 0.79925 0.74989
 O33 O 0.76054 0.79916 0.93795
 O34 O 0.68576 0.70261 0.74961
 O35 O 0.76145 0.70512 0.94194
 O36 O 0.68514 0.79835 0.74675
 Cu37 Cu 0.78445 0.75010 0.63796
 Cu38 Cu 0.71740 0.75134 0.86236
 C39 C 0.69940 0.81271 0.61884
 C40 C 0.80234 0.68864 0.88149
 C41 C 0.70077 0.68611 0.62392
 C42 C 0.80103 0.81553 0.87617
 O43 O 0.31425 0.78274 0.86607
 O44 O 0.21184 0.68971 0.85365
 O45 O 0.30673 0.69449 0.75553
 O46 O 0.21989 0.77750 0.96270
 O47 O 0.19257 0.80742 0.74921
 O48 O 0.27937 0.72447 0.54201
 O49 O 0.18519 0.71910 0.63862
 O50 O 0.28760 0.81213 0.65105
 Cu51 Cu 0.26605 0.73301 0.88077
 Cu52 Cu 0.23327 0.76894 0.62404
 C53 C 0.31839 0.81314 0.76070
 C54 C 0.18115 0.68860 0.74375
 C55 C 0.30783 0.69532 0.61401
 C56 C 0.19136 0.80665 0.89079
 O57 O 0.94927 -0.04827 -0.11951
 O58 O 1.05534 0.04120 -0.12530
 O59 O 1.04931 -0.05303 -0.11059
 O60 O 0.95451 0.04686 -0.13490
 O61 O 0.95193 0.05161 0.11060
 O62 O 1.04678 -0.04834 0.13492
 O63 O 1.05201 0.04690 0.12000
 O64 O 0.94595 -0.04257 0.12580
 Cu65 Cu 1.00232 -0.00375 -0.14635
 Cu66 Cu 0.99898 0.00235 0.14663
 C67 C 0.92940 -0.06049 0.00416
 C68 C 1.07186 0.05915 -0.00365
 C69 C 1.06434 -0.06762 0.01581
 C70 C 0.93687 0.06612 -0.01588
 O71 O 0.54587 0.45279 0.63368
 O72 O 0.45128 0.55289 0.61048
 O73 O 0.44519 0.45859 0.62646
 O74 O 0.55139 0.54785 0.61755
 O75 O 0.55394 0.54219 0.37218
 O76 O 0.44774 0.45293 0.38109
 O77 O 0.45323 0.54801 0.36495
 O78 O 0.54784 0.44788 0.38816
 Cu79 Cu 0.49828 0.50353 0.64581
 Cu80 Cu 0.50084 0.49726 0.35281
 C81 C 0.56310 0.43336 0.51444
 C82 C 0.43601 0.56743 0.48424
 C83 C 0.42830 0.44063 0.50525
 C84 C 0.57085 0.56012 0.49340
 O85 O -0.03790 0.55812 0.11870
 O86 O 0.06593 0.46607 0.10085
 O87 O 0.05642 0.55653 0.01103
 O88 O -0.02657 0.46846 0.20609
 O89 O -0.05689 0.44284 -0.01055
 O90 O 0.02612 0.53091 -0.20562
 O91 O 0.03738 0.44118 -0.11861
 O92 O -0.06642 0.53323 -0.10079
 Cu93 Cu 0.01755 0.51517 0.13066
 Cu94 Cu -0.01802 0.48416 -0.13039
 C95 C -0.06962 0.56152 0.01173
 C96 C 0.06911 0.43777 -0.01168
 C97 C 0.05518 0.55895 -0.13031
 C98 C -0.05565 0.44044 0.13080
 O99 O 0.52662 1.03196 0.29388
 O100 O 0.44448 0.94344 0.49024
 O101 O 0.43425 1.03353 0.39928
 O102 O 0.53878 0.94225 0.38139
 O103 O 0.56714 0.96726 0.60092
 O104 O 0.46301 1.05900 0.61792
 O105 O 0.47465 0.96957 0.70650
 O106 O 0.55741 1.05751 0.51005
 Cu107 Cu 0.48302 0.98484 0.36970
 Cu108 Cu 0.51865 1.01625 0.63028
 C109 C 0.55578 1.06003 0.36878
 C110 C 0.44564 0.94135 0.63166
 C111 C 0.43104 1.06199 0.51140
 C112 C 0.57051 0.93901 0.48837
 N113 N 1.14563 0.09849 -0.12047
 N114 N 1.18125 0.13161 -0.08853
 C115 C 1.17123 0.14781 0.05107
 C116 C 1.12845 0.12345 0.10425
 N117 N 1.11375 0.09308 -0.00623
 H118 H 1.10984 0.12737 0.21195
 N119 N 0.64188 0.60224 0.37138
 N120 N 0.67757 0.63536 0.40274
 C121 C 0.67031 0.64873 0.54632
 C122 C 0.62916 0.62278 0.60241
 N123 N 0.61257 0.59423 0.48976
 H124 H 0.61271 0.62466 0.71341
 N125 N -0.08065 0.39364 0.34856
 N126 N -0.11347 0.35875 0.38626
 C127 C -0.14124 0.34815 0.26347
 C128 C -0.12445 0.37749 0.14898
 N129 N -0.08662 0.40526 0.20678
 H130 H -0.13799 0.37827 0.03504
 N131 N 0.42044 0.89508 0.85031
 N132 N 0.38734 0.86053 0.88881
 C133 C 0.35942 0.84989 0.76634
 C134 C 0.37645 0.87882 0.65117
 N135 N 0.41455 0.90642 0.70828
 H136 H 0.36288 0.87947 0.53725
 N137 N -0.13076 0.61461 0.14213
 N138 N -0.16597 0.64820 0.11122
 C139 C -0.16627 0.65293 -0.03827
 C140 C -0.13046 0.62104 -0.09841
 N141 N -0.10928 0.59783 0.01777
 H142 H -0.12016 0.61580 -0.21450
 N143 N 0.36969 1.11484 0.64194
 N144 N 0.33398 1.14795 0.61097
 C145 C 0.33321 1.15225 0.46136
 C146 C 0.36926 1.12061 0.40124
 N147 N 0.39105 1.09797 0.51752
 H148 H 0.37932 1.11517 0.28505
 N149 N 1.11961 -0.12492 0.14835
 N150 N 1.15436 -0.15926 0.11794
 C151 C 1.15846 -0.16189 -0.03190
 C152 C 1.12518 -0.12824 -0.09252
 N153 N 1.10174 -0.10599 0.02346
 H154 H 1.11882 -0.12045 -0.20913
 N155 N 0.61843 0.37625 0.64709
 N156 N 0.65295 0.34170 0.61692
 C157 C 0.65665 0.33861 0.46714
 C158 C 0.62341 0.37217 0.40624
 N159 N 0.60034 0.39487 0.52204
 H160 H 0.61688 0.37961 0.28952
 N161 N 0.85548 -0.09958 0.12095
 N162 N 0.81966 -0.13249 0.08886
 C163 C 0.82959 -0.14866 -0.05081
 C164 C 0.87252 -0.12452 -0.10388
 N165 N 0.88740 -0.09428 0.00674
 H166 H 0.89108 -0.12846 -0.21165
 N167 N 0.35737 0.39837 0.62730
 N168 N 0.32185 0.36509 0.59609
 C169 C 0.32919 0.35165 0.45261
 C170 C 0.37023 0.37774 0.39642
 N171 N 0.38666 0.40644 0.50892
 H172 H 0.38674 0.37583 0.28550
 N173 N 0.08011 0.60581 -0.34801
 N174 N 0.11279 0.64082 -0.38559
 C175 C 0.14049 0.65151 -0.26272
 C176 C 0.12378 0.62210 -0.14830
 N177 N 0.08608 0.59419 -0.20623
 H178 H 0.13727 0.62137 -0.03432
 N179 N 0.57676 1.11052 0.15543
 N180 N 0.60935 1.14560 0.11772
 C181 C 0.64065 1.15284 0.23559
 C182 C 0.62617 1.12123 0.34723
 N183 N 0.58616 1.09560 0.29261
 H184 H 0.64243 1.11772 0.45761
 N185 N 0.13018 0.38467 -0.14229
 N186 N 0.16543 0.35111 -0.11154
 C187 C 0.16582 0.34639 0.03794
 C188 C 0.13003 0.37827 0.09826
 N189 N 0.10877 0.40145 -0.01783
 H190 H 0.11983 0.38354 0.21441
 N191 N 0.63187 0.88614 0.35795
 N192 N 0.66734 0.85280 0.38892
 C193 C 0.66784 0.84825 0.53847
 C194 C 0.63188 0.88000 0.59856
 N195 N 0.61042 0.90293 0.48233
 H196 H 0.62164 0.88529 0.71468
 N197 N 0.88139 0.12300 -0.14909
 N198 N 0.84645 0.15720 -0.11920
 C199 C 0.84226 0.15998 0.03052
 C200 C 0.87566 0.12662 0.09167
 N201 N 0.89932 0.10434 -0.02390
 H202 H 0.88196 0.11907 0.20844
 N203 N 0.38066 0.62466 0.35197
 N204 N 0.34610 0.65915 0.38250
 C205 C 0.34237 0.66205 0.53230
 C206 C 0.37563 0.62845 0.59284
 N207 N 0.39875 0.60591 0.47684
 H208 H 0.38214 0.62087 0.70948
   
