data_POSCAR
  _audit_creation_date              2014-09-24
  _audit_creation_method            'ToBaCCo'
  _symmetry_space_group_name_H-M    'P1'
  _symmetry_Int_Tables_number       1
  _symmetry_cell_setting            triclinic
  loop_
  _symmetry_equiv_pos_as_xyz
 x,y,z
_cell_length_a 15.6809
_cell_length_b 13.6597
_cell_length_c 13.6501
_cell_angle_alpha 89.963600
_cell_angle_beta 90.000600
_cell_angle_gamma 90.051900
loop_
  _atom_site_label
  _atom_site_type_symbol
  _atom_site_fract_x
  _atom_site_fract_y
  _atom_site_fract_z
C1 C 0.37374 0.39009 0.21808
 H2 H 0.36983 0.39650 0.29696
 C3 C 0.43155 0.44778 0.16603
 H4 H 0.46849 0.50056 0.20679
 C5 C 0.32469 0.31657 0.07164
 H6 H 0.28383 0.26442 0.03513
 C7 C 0.38203 0.37216 0.01673
 H8 H 0.38312 0.36339 -0.06212
 N9 N 0.32145 0.32663 0.17053
 C10 C 0.12473 0.28043 0.39063
 H11 H 0.12822 0.20162 0.39757
 C12 C 0.06761 0.33319 0.44836
 H13 H 0.03082 0.29288 0.50167
 C14 C 0.17446 0.42609 0.31611
 H15 H 0.21546 0.46204 0.26365
 C16 C 0.11779 0.48172 0.37176
 H17 H 0.11728 0.56049 0.36265
 Zn18 Zn 0.24890 0.24846 0.24865
 N19 N 0.17693 0.32724 0.32655
 C20 C 0.32463 0.18252 0.42643
 N21 N 0.32101 0.17090 0.32769
 C22 C 0.37313 0.10691 0.28088
 C23 C 0.43126 0.05039 0.33353
 C24 C 0.38239 0.12814 0.48194
 C25 C 0.12559 0.21611 0.10517
 C26 C 0.06826 0.16349 0.04742
 C27 C 0.11565 0.01532 0.12682
 C28 C 0.17290 0.07090 0.18199
 N29 N 0.17676 0.16951 0.17035
 H30 H 0.28379 0.23506 0.46230
 H31 H 0.36893 0.09927 0.20213
 H32 H 0.46794 -0.00297 0.29331
 H33 H 0.38367 0.13799 0.56065
 H34 H 0.13015 0.29476 0.09720
 H35 H 0.03325 0.20430 -0.00709
 H36 H 0.11447 -0.06326 0.13750
 H37 H 0.21320 0.03509 0.23522
 C38 C 0.06069 0.43573 0.43731
 C39 C 0.43897 0.43735 0.06347
 C40 C 0.05888 0.06083 0.05979
 C41 C 0.43926 0.06252 0.43592
 C42 C 0.87448 0.89529 0.21613
 H43 H 0.86960 0.90353 0.29476
 C44 C 0.93201 0.95289 0.16357
 H45 H 0.96678 1.00761 0.20438
 C46 C 0.82777 0.81798 0.07088
 H47 H 0.78760 0.76464 0.03503
 C48 C 0.88529 0.87295 0.01539
 H49 H 0.88677 0.86201 -0.06319
 N50 N 0.82355 0.82990 0.16948
 C51 C 0.62644 0.78209 0.39003
 H52 H 0.63042 0.70329 0.39666
 C53 C 0.56861 0.83406 0.44760
 H54 H 0.53177 0.79330 0.50054
 C55 C 0.67527 0.92844 0.31606
 H56 H 0.71604 0.96495 0.26378
 C57 C 0.61788 0.98326 0.37152
 H58 H 0.61670 1.06204 0.36256
 Zn59 Zn 0.75129 0.75158 0.24841
 N60 N 0.67866 0.82964 0.32643
 C61 C 0.82555 0.68364 0.42629
 N62 N 0.82317 0.67360 0.32734
 C63 C 0.87531 0.60967 0.28046
 C64 C 0.93227 0.55169 0.33323
 C65 C 0.88208 0.62775 0.48194
 C66 C 0.62722 0.71917 0.10649
 C67 C 0.56908 0.66646 0.05000
 C68 C 0.61782 0.51826 0.12826
 C69 C 0.67557 0.57384 0.18264
 N70 N 0.67925 0.67250 0.17077
 H71 H 0.78459 0.73596 0.46230
 H72 H 0.87187 0.60302 0.20157
 H73 H 0.96904 0.49855 0.29284
 H74 H 0.88258 0.63659 0.56078
 H75 H 0.63149 0.79785 0.09862
 H76 H 0.53246 0.70657 -0.00357
 H77 H 0.61650 0.43962 0.13830
 H78 H 0.71633 0.53806 0.23541
 C79 C 0.56107 0.93652 0.43691
 C80 C 0.94197 0.94006 0.06099
 C81 C 0.56098 0.56415 0.06244
 C82 C 0.93912 0.56235 0.43587
 C83 C 0.87521 0.39031 0.71961
 H84 H 0.87172 0.39721 0.79847
 C85 C 0.93228 0.44813 0.66670
 H86 H 0.96908 0.50142 0.70695
 C87 C 0.82547 0.31585 0.57395
 H88 H 0.78448 0.26340 0.53806
 C89 C 0.88206 0.37162 0.51817
 H90 H 0.88256 0.36259 0.43935
 N91 N 0.82302 0.32622 0.67287
 C92 C 0.62634 0.28111 0.89296
 H93 H 0.63032 0.20241 0.90069
 C94 C 0.56843 0.33388 0.94956
 H95 H 0.53165 0.29374 1.00303
 C96 C 0.67538 0.42646 0.81722
 H97 H 0.71640 0.46222 0.76465
 C98 C 0.61777 0.48209 0.87163
 H99 H 0.61673 0.56075 0.86171
 Zn100 Zn 0.75089 0.24853 0.75188
 N101 N 0.67868 0.32778 0.82894
 C102 C 0.82602 0.18356 0.93016
 N103 N 0.82280 0.17069 0.83160
 C104 C 0.87380 0.10522 0.78503
 C105 C 0.93165 0.04726 0.83669
 C106 C 0.88265 0.12942 0.98693
 C107 C 0.62637 0.21779 0.61011
 C108 C 0.56867 0.16579 0.55229
 C109 C 0.61778 0.01657 0.62830
 C110 C 0.67504 0.07143 0.68402
 N111 N 0.67844 0.17025 0.67380
 H112 H 0.78549 0.23712 0.96496
 H113 H 0.86872 0.09715 0.70639
 H114 H 0.96610 -0.00721 0.79528
 H115 H 0.88392 0.14039 1.06548
 H116 H 0.63038 0.29660 0.60359
 H117 H 0.53192 0.20655 0.49933
 H118 H 0.61656 -0.06221 0.63717
 H119 H 0.71571 0.03494 0.73637
 C120 C 0.56078 0.43623 0.93738
 C121 C 0.93915 0.43718 0.56408
 C122 C 0.56111 0.06331 0.56283
 C123 C 0.94273 0.05949 0.93885
 C124 C 0.37293 0.89314 0.71884
 H125 H 0.36867 0.90093 0.79757
 C126 C 0.43109 0.94967 0.66614
 H127 H 0.46772 1.00320 0.70631
 C128 C 0.32455 0.81714 0.57338
 H129 H 0.28376 0.76443 0.53756
 C130 C 0.38233 0.87156 0.51781
 H131 H 0.38366 0.86159 0.43912
 N132 N 0.32088 0.82894 0.67209
 C133 C 0.12593 0.78342 0.89511
 H134 H 0.13077 0.70484 0.90345
 C135 C 0.06865 0.83596 0.95288
 H136 H 0.03403 0.79526 1.00787
 C137 C 0.17257 0.92857 0.81744
 H138 H 0.21264 0.96439 0.76393
 C139 C 0.11530 0.98403 0.87256
 H140 H 0.11393 1.06257 0.86162
 Zn141 Zn 0.24889 0.75129 0.75124
 N142 N 0.17674 0.83004 0.82950
 C143 C 0.32501 0.68383 0.92823
 N144 N 0.32153 0.67345 0.82938
 C145 C 0.37370 0.60997 0.78184
 C146 C 0.43154 0.55247 0.83389
 C147 C 0.38240 0.62843 0.98314
 C148 C 0.12480 0.71914 0.60933
 C149 C 0.06773 0.66635 0.55149
 C150 C 0.11788 0.51782 0.62794
 C151 C 0.17452 0.57349 0.68370
 N152 N 0.17697 0.67235 0.67339
 H153 H 0.28430 0.73607 0.96470
 H154 H 0.36964 0.60337 0.70299
 H155 H 0.46835 0.49962 0.79315
 H156 H 0.38365 0.63737 1.06196
 H157 H 0.12830 0.79797 0.60250
 H158 H 0.03094 0.70666 0.49823
 H159 H 0.11734 0.43905 0.63697
 H160 H 0.21550 0.53757 0.73614
 C161 C 0.05883 0.93846 0.93995
 C162 C 0.43919 0.93733 0.56378
 C163 C 0.06081 0.56379 0.56242
 C164 C 0.43912 0.56310 0.93641
 C165 C 0.00066 -0.00040 -0.00011
 C166 C -0.00006 0.49976 0.49990
 C167 C 0.50013 -0.00008 0.49984
 C168 C 0.50000 0.50021 -0.00006
   
