data_POSCAR
  _audit_creation_date              2014-09-24
  _audit_creation_method            'ToBaCCo'
  _symmetry_space_group_name_H-M    'P1'
  _symmetry_Int_Tables_number       1
  _symmetry_cell_setting            triclinic
  loop_
  _symmetry_equiv_pos_as_xyz
 x,y,z
_cell_length_a 47.4942
_cell_length_b 47.6449
_cell_length_c 45.6722
_cell_angle_alpha 90.273600
_cell_angle_beta 89.732200
_cell_angle_gamma 89.875000
loop_
  _atom_site_label
  _atom_site_type_symbol
  _atom_site_fract_x
  _atom_site_fract_y
  _atom_site_fract_z
C1 C 0.29218 0.28790 0.23874
 H2 H 0.29326 0.28862 0.26239
 C3 C 0.31026 0.30448 0.22200
 H4 H 0.32497 0.31825 0.23298
 C5 C 0.27135 0.26924 0.19583
 H6 H 0.25650 0.25514 0.18569
 C7 C 0.28902 0.28548 0.17825
 H8 H 0.28753 0.28366 0.15467
 N9 N 0.27294 0.27103 0.22551
 C10 C 0.20614 0.26024 0.29035
 H11 H 0.20498 0.23758 0.29111
 C12 C 0.18789 0.27646 0.30754
 H13 H 0.17258 0.26611 0.32139
 C14 C 0.22703 0.30117 0.27066
 H15 H 0.24206 0.31076 0.25602
 C16 C 0.20917 0.31820 0.28743
 H17 H 0.21111 0.34078 0.28592
 Zn18 Zn 0.24928 0.24925 0.24991
 N19 N 0.22547 0.27274 0.27268
 C20 C 0.27109 0.22945 0.30399
 N21 N 0.27290 0.22756 0.27432
 C22 C 0.29238 0.21074 0.26111
 C23 C 0.31052 0.19432 0.27787
 C24 C 0.28881 0.21338 0.32160
 C25 C 0.20653 0.23816 0.20954
 C26 C 0.18853 0.22190 0.19237
 C27 C 0.21006 0.18020 0.21227
 C28 C 0.22764 0.19726 0.22907
 N29 N 0.22585 0.22568 0.22713
 H30 H 0.25606 0.24352 0.31413
 H31 H 0.29363 0.20994 0.23746
 H32 H 0.32545 0.18060 0.26691
 H33 H 0.28716 0.21529 0.34518
 H34 H 0.20528 0.26082 0.20874
 H35 H 0.17370 0.23225 0.17806
 H36 H 0.21167 0.15762 0.21428
 H37 H 0.24253 0.18770 0.24379
 C38 C 0.18935 0.30588 0.30629
 C39 C 0.30870 0.30352 0.19131
 C40 C 0.19025 0.19249 0.19350
 C41 C 0.30877 0.19540 0.30856
 C42 C 0.79340 0.78903 0.23771
 H43 H 0.79454 0.78991 0.26136
 C44 C 0.81137 0.80561 0.22084
 H45 H 0.82538 0.81966 0.23232
 C46 C 0.77237 0.77028 0.19511
 H47 H 0.75760 0.75600 0.18512
 C48 C 0.78987 0.78650 0.17733
 H49 H 0.78825 0.78359 0.15392
 N50 N 0.77412 0.77213 0.22472
 C51 C 0.70765 0.76128 0.28994
 H52 H 0.70652 0.73861 0.29068
 C53 C 0.68943 0.77747 0.30720
 H54 H 0.67417 0.76708 0.32107
 C55 C 0.72843 0.80225 0.27021
 H56 H 0.74340 0.81186 0.25553
 C57 C 0.71059 0.81924 0.28704
 H58 H 0.71249 0.84183 0.28553
 Zn59 Zn 0.75065 0.75034 0.24932
 N60 N 0.72691 0.77382 0.27222
 C61 C 0.77269 0.73044 0.30328
 N62 N 0.77442 0.72868 0.27359
 C63 C 0.79382 0.71186 0.26025
 C64 C 0.81190 0.69526 0.27688
 C65 C 0.79039 0.71423 0.32076
 C66 C 0.70769 0.73909 0.20919
 C67 C 0.68962 0.72274 0.19218
 C68 C 0.71130 0.68115 0.21213
 C69 C 0.72895 0.69829 0.22877
 N70 N 0.72711 0.72670 0.22673
 H71 H 0.75759 0.74437 0.31352
 H72 H 0.79510 0.71127 0.23660
 H73 H 0.82723 0.68206 0.26583
 H74 H 0.78828 0.71548 0.34435
 H75 H 0.70641 0.76174 0.20831
 H76 H 0.67470 0.73301 0.17791
 H77 H 0.71295 0.65858 0.21423
 H78 H 0.74392 0.68880 0.24344
 C79 C 0.69083 0.80688 0.30595
 C80 C 0.80984 0.80484 0.18994
 C81 C 0.69139 0.69334 0.19342
 C82 C 0.81021 0.69619 0.30758
 C83 C 0.79393 0.28815 0.73893
 H84 H 0.79526 0.28873 0.76257
 C85 C 0.81174 0.30495 0.72210
 H86 H 0.82649 0.31872 0.73301
 C87 C 0.77273 0.26966 0.69615
 H88 H 0.75784 0.25556 0.68607
 C89 C 0.79011 0.28611 0.67848
 H90 H 0.78837 0.28445 0.65490
 N91 N 0.77463 0.27127 0.72582
 C92 C 0.70831 0.26002 0.79112
 H93 H 0.70720 0.23735 0.79178
 C94 C 0.69008 0.27614 0.80843
 H95 H 0.67484 0.26569 0.82228
 C96 C 0.72901 0.30108 0.77149
 H97 H 0.74394 0.31076 0.75681
 C98 C 0.71116 0.31800 0.78838
 H99 H 0.71302 0.34059 0.78693
 Zn100 Zn 0.75123 0.24930 0.75031
 N101 N 0.72753 0.27264 0.77340
 C102 C 0.77352 0.22912 0.80400
 N103 N 0.77507 0.22749 0.77437
 C104 C 0.79441 0.21079 0.76097
 C105 C 0.81261 0.19414 0.77740
 C106 C 0.79131 0.21292 0.82139
 C107 C 0.70813 0.23838 0.71029
 C108 C 0.69002 0.22220 0.69316
 C109 C 0.71185 0.18041 0.71249
 C110 C 0.72954 0.19739 0.72926
 N111 N 0.72765 0.22583 0.72758
 H112 H 0.75831 0.24287 0.81434
 H113 H 0.79575 0.21048 0.73731
 H114 H 0.82818 0.18226 0.76527
 H115 H 0.78780 0.21415 0.84472
 H116 H 0.70681 0.26104 0.70969
 H117 H 0.67503 0.23262 0.67908
 H118 H 0.71355 0.15782 0.71429
 H119 H 0.74460 0.18776 0.74374
 C120 C 0.69142 0.30556 0.80726
 C121 C 0.80983 0.30419 0.69143
 C122 C 0.69184 0.19279 0.69402
 C123 C 0.81146 0.19457 0.80845
 C124 C 0.30267 0.77504 0.73282
 H125 H 0.31114 0.76477 0.75189
 C126 C 0.32019 0.79198 0.71582
 H127 H 0.34217 0.79398 0.72166
 C128 C 0.26383 0.78523 0.70230
 H129 H 0.24181 0.78288 0.69726
 C130 C 0.28061 0.80234 0.68468
 H131 H 0.27117 0.81308 0.66633
 N132 N 0.27506 0.77177 0.72573
 C133 C 0.20677 0.75991 0.78813
 H134 H 0.20366 0.73746 0.78671
 C135 C 0.18871 0.77633 0.80534
 H136 H 0.17154 0.76635 0.81695
 C137 C 0.23263 0.80019 0.77407
 H138 H 0.24988 0.80934 0.76193
 C139 C 0.21507 0.81740 0.79098
 H140 H 0.21915 0.83973 0.79189
 Zn141 Zn 0.25180 0.74888 0.74976
 N142 N 0.22824 0.77202 0.77302
 C143 C 0.27208 0.72770 0.80380
 N144 N 0.27500 0.72648 0.77417
 C145 C 0.29492 0.70983 0.76139
 C146 C 0.31255 0.69321 0.77850
 C147 C 0.28926 0.71139 0.82175
 C148 C 0.20625 0.73800 0.71240
 C149 C 0.18810 0.72200 0.69512
 C150 C 0.21512 0.68074 0.70730
 C151 C 0.23273 0.69752 0.72437
 N152 N 0.22834 0.72571 0.72626
 H153 H 0.25654 0.74142 0.81363
 H154 H 0.29710 0.70951 0.73780
 H155 H 0.32793 0.67978 0.76784
 H156 H 0.28677 0.71284 0.84528
 H157 H 0.20245 0.76024 0.71507
 H158 H 0.17092 0.73230 0.68393
 H159 H 0.21889 0.65834 0.70626
 H160 H 0.24972 0.68782 0.73622
 C161 C 0.19275 0.80550 0.80692
 C162 C 0.30922 0.80586 0.69134
 C163 C 0.19252 0.69297 0.69227
 C164 C 0.30979 0.69379 0.80912
 C165 C 0.03820 0.04290 0.01058
 H166 H 0.03878 0.04422 -0.01306
 C167 C 0.05483 0.06085 0.02743
 H168 H 0.06837 0.07601 0.01678
 C169 C 0.01972 0.02168 0.05342
 H170 H 0.00575 0.00668 0.06350
 C171 C 0.03600 0.03925 0.07108
 H172 H 0.03474 0.03751 0.09470
 N173 N 0.02140 0.02353 0.02372
 C174 C 0.01067 -0.04269 -0.04161
 H175 H -0.01206 -0.04392 -0.04236
 C176 C 0.02701 -0.06074 -0.05892
 H177 H 0.01688 -0.07587 -0.07315
 C178 C 0.05173 -0.02174 -0.02190
 H179 H 0.06132 -0.00684 -0.00715
 C180 C 0.06885 -0.03940 -0.03883
 H181 H 0.09154 -0.03782 -0.03727
 Zn182 Zn -0.00043 0.00003 -0.00080
 N183 N 0.02319 -0.02344 -0.02385
 C184 C -0.02061 0.02207 -0.05466
 N185 N -0.02241 0.02365 -0.02493
 C186 C -0.03934 0.04291 -0.01148
 C187 C -0.05593 0.06106 -0.02805
 C188 C -0.03684 0.03984 -0.07205
 C189 C -0.01114 -0.04300 0.03923
 C190 C -0.02728 -0.06119 0.05631
 C191 C -0.06935 -0.03978 0.03682
 C192 C -0.05242 -0.02198 0.02011
 N193 N -0.02386 -0.02364 0.02188
 H194 H -0.00653 0.00715 -0.06497
 H195 H -0.04001 0.04403 0.01218
 H196 H -0.06953 0.07617 -0.01717
 H197 H -0.03543 0.03835 -0.09569
 H198 H 0.01160 -0.04418 0.03985
 H199 H -0.01699 -0.07639 0.07024
 H200 H -0.09206 -0.03823 0.03542
 H201 H -0.06217 -0.00698 0.00567
 C202 C 0.05636 -0.05899 -0.05757
 C203 C 0.05381 0.05890 0.05795
 C204 C -0.05665 -0.05947 0.05516
 C205 C -0.05473 0.05942 -0.05861
 C206 C 0.03785 0.54396 0.51112
 H207 H 0.03818 0.54517 0.48747
 C208 C 0.05476 0.56189 0.52769
 H209 H 0.06826 0.57693 0.51681
 C210 C 0.01972 0.52304 0.55428
 H211 H 0.00578 0.50815 0.56459
 C212 C 0.03629 0.54059 0.57166
 H213 H 0.03526 0.53896 0.59530
 N214 N 0.02108 0.52475 0.52455
 C215 C 0.00924 0.45828 0.45973
 H216 H -0.01350 0.45719 0.45930
 C217 C 0.02526 0.44007 0.44229
 H218 H 0.01486 0.42493 0.42828
 C219 C 0.05067 0.47911 0.47875
 H220 H 0.06053 0.49403 0.49328
 C221 C 0.06747 0.46128 0.46167
 H222 H 0.09019 0.46274 0.46290
 Zn223 Zn -0.00114 0.50126 0.50040
 N224 N 0.02210 0.47756 0.47720
 C225 C -0.02158 0.52317 0.44664
 N226 N -0.02320 0.52489 0.47636
 C227 C -0.03997 0.54428 0.48983
 C228 C -0.05658 0.56243 0.47328
 C229 C -0.03784 0.54094 0.42927
 C230 C -0.01165 0.45843 0.54069
 C231 C -0.02770 0.44026 0.55787
 C232 C -0.06987 0.46176 0.53873
 C233 C -0.05303 0.47955 0.52190
 N234 N -0.02446 0.47781 0.52343
 H235 H -0.00763 0.50816 0.43630
 H236 H -0.04049 0.54550 0.51349
 H237 H -0.07005 0.57765 0.48417
 H238 H -0.03657 0.53934 0.40563
 H239 H 0.01110 0.45718 0.54110
 H240 H -0.01734 0.42501 0.57168
 H241 H -0.09259 0.46334 0.53748
 H242 H -0.06285 0.49455 0.50753
 C243 C 0.05463 0.44167 0.44321
 C244 C 0.05406 0.56008 0.55823
 C245 C -0.05707 0.44201 0.55693
 C246 C -0.05557 0.56066 0.44272
 C247 C 0.53861 0.04404 0.51138
 H248 H 0.53915 0.04536 0.48774
 C249 C 0.55543 0.06186 0.52819
 H250 H 0.56906 0.07691 0.51751
 C251 C 0.52006 0.02299 0.55427
 H252 H 0.50598 0.00810 0.56439
 C253 C 0.53652 0.04042 0.57190
 H254 H 0.53528 0.03870 0.59551
 N255 N 0.52168 0.02482 0.52457
 C256 C 0.51012 -0.04131 0.45928
 H257 H 0.48737 -0.04235 0.45868
 C258 C 0.52621 -0.05946 0.44184
 H259 H 0.51588 -0.07448 0.42765
 C260 C 0.55146 -0.02067 0.47872
 H261 H 0.56126 -0.00585 0.49342
 C262 C 0.56833 -0.03844 0.46166
 H263 H 0.59105 -0.03703 0.46305
 Zn264 Zn 0.49957 0.00151 0.50011
 N265 N 0.52289 -0.02215 0.47696
 C266 C 0.47932 0.02364 0.44634
 N267 N 0.47771 0.02531 0.47607
 C268 C 0.46097 0.04469 0.48959
 C269 C 0.44432 0.06285 0.47308
 C270 C 0.46302 0.04142 0.42901
 C271 C 0.48854 -0.04141 0.54020
 C272 C 0.47224 -0.05946 0.55728
 C273 C 0.43036 -0.03770 0.53779
 C274 C 0.44743 -0.02005 0.52108
 N275 N 0.47598 -0.02195 0.52285
 H276 H 0.49324 0.00863 0.43597
 H277 H 0.46045 0.04586 0.51324
 H278 H 0.43084 0.07801 0.48402
 H279 H 0.46423 0.03982 0.40537
 H280 H 0.51127 -0.04279 0.54081
 H281 H 0.48241 -0.07475 0.57120
 H282 H 0.40766 -0.03597 0.53639
 H283 H 0.43780 -0.00498 0.50664
 C284 C 0.55559 -0.05791 0.44298
 C285 C 0.55445 0.05993 0.55872
 C286 C 0.44289 -0.05750 0.55613
 C287 C 0.44527 0.06108 0.44252
 C288 C 0.53844 0.54255 0.01241
 H289 H 0.53883 0.54381 -0.01123
 C290 C 0.55518 0.56057 0.02907
 H291 H 0.56860 0.57573 0.01826
 C292 C 0.52033 0.52143 0.05547
 H293 H 0.50646 0.50644 0.06571
 C294 C 0.53672 0.53907 0.07295
 H295 H 0.53564 0.53740 0.09657
 N296 N 0.52176 0.52321 0.02576
 C297 C 0.51036 0.45689 -0.03933
 H298 H 0.48762 0.45569 -0.03983
 C299 C 0.52650 0.43878 -0.05678
 H300 H 0.51621 0.42364 -0.07087
 C301 C 0.55165 0.47784 -0.02014
 H302 H 0.56141 0.49276 -0.00553
 C303 C 0.56857 0.46012 -0.03721
 H304 H 0.59128 0.46167 -0.03591
 Zn305 Zn 0.49971 0.49969 0.00148
 N306 N 0.52309 0.47617 -0.02177
 C307 C 0.47901 0.52163 -0.05221
 N308 N 0.47754 0.52330 -0.02247
 C309 C 0.46075 0.54258 -0.00887
 C310 C 0.44394 0.56066 -0.02530
 C311 C 0.46255 0.53932 -0.06945
 C312 C 0.48920 0.45672 0.04168
 C313 C 0.47310 0.43850 0.05877
 C314 C 0.43098 0.45989 0.03939
 C315 C 0.44785 0.47772 0.02266
 N316 N 0.47642 0.47607 0.02436
 H317 H 0.49297 0.50669 -0.06264
 H318 H 0.46034 0.54376 0.01479
 H319 H 0.43044 0.57578 -0.01430
 H320 H 0.46368 0.53775 -0.09310
 H321 H 0.51194 0.45555 0.04223
 H322 H 0.48343 0.42328 0.07264
 H323 H 0.40826 0.46140 0.03801
 H324 H 0.43805 0.49270 0.00824
 C325 C 0.55587 0.44050 -0.05577
 C326 C 0.55439 0.55872 0.05960
 C327 C 0.44373 0.44018 0.05766
 C328 C 0.44477 0.55891 -0.05586
 C329 C 0.14695 -0.16869 -0.13006
 C330 C 0.13834 -0.14242 -0.14032
 C331 C 0.14736 -0.13322 -0.16785
 C332 C 0.16499 -0.15016 -0.18505
 C333 C 0.17384 -0.17659 -0.17492
 C334 C 0.16457 -0.18569 -0.14724
 C335 C 0.12045 -0.12480 -0.12252
 C336 C 0.10557 -0.10992 -0.10763
 C337 C 0.08829 -0.09235 -0.09020
 C338 C 0.07367 -0.07722 -0.07533
 H339 H 0.14017 -0.17599 -0.10874
 H340 H 0.14077 -0.11294 -0.17603
 H341 H 0.17145 -0.14272 -0.20641
 H342 H 0.17129 -0.20575 -0.13866
 C343 C 0.14091 0.36517 0.33053
 C344 C 0.13512 0.35768 0.35952
 C345 C 0.14678 0.33313 0.37105
 C346 C 0.16427 0.31617 0.35371
 C347 C 0.17037 0.32361 0.32457
 C348 C 0.15842 0.34827 0.31315
 C349 C 0.11749 0.37537 0.37753
 C350 C 0.10288 0.39034 0.39260
 C351 C 0.08593 0.40804 0.41023
 C352 C 0.07159 0.42329 0.42527
 H353 H 0.13194 0.38410 0.32137
 H354 H 0.14251 0.32718 0.39350
 H355 H 0.17343 0.29752 0.36325
 H356 H 0.16239 0.35436 0.29071
 C357 C 0.64824 -0.16601 0.37076
 C358 C 0.63649 -0.14149 0.35926
 C359 C 0.64226 -0.13396 0.33027
 C360 C 0.65981 -0.15079 0.31287
 C361 C 0.67185 -0.17543 0.32427
 C362 C 0.66579 -0.18289 0.35340
 C363 C 0.61878 -0.12388 0.37727
 C364 C 0.60409 -0.10899 0.39234
 C365 C 0.58705 -0.09139 0.40998
 C366 C 0.57263 -0.07621 0.42503
 H367 H 0.64399 -0.17198 0.39321
 H368 H 0.63322 -0.11505 0.32112
 H369 H 0.66376 -0.14468 0.29043
 H370 H 0.67500 -0.20152 0.36292
 C371 C 0.64873 0.33251 -0.12792
 C372 C 0.63694 0.35702 -0.13941
 C373 C 0.64272 0.36459 -0.16838
 C374 C 0.66031 0.34781 -0.18579
 C375 C 0.67238 0.32318 -0.17441
 C376 C 0.66631 0.31567 -0.14529
 C377 C 0.61920 0.37459 -0.12140
 C378 C 0.60448 0.38947 -0.10633
 C379 C 0.58741 0.40706 -0.08871
 C380 C 0.57296 0.42222 -0.07369
 H381 H 0.64447 0.32650 -0.10549
 H382 H 0.63365 0.38349 -0.17752
 H383 H 0.66425 0.35395 -0.20822
 H384 H 0.67556 0.29705 -0.13579
 C385 C -0.14891 0.16671 -0.12784
 C386 C -0.13563 0.14339 -0.14031
 C387 C -0.13973 0.13722 -0.16985
 C388 C -0.15712 0.15419 -0.18694
 C389 C -0.17112 0.17803 -0.17489
 C390 C -0.16636 0.18379 -0.14474
 C391 C -0.11800 0.12562 -0.12273
 C392 C -0.10335 0.11063 -0.10802
 C393 C -0.08631 0.09294 -0.09081
 C394 C -0.07186 0.07772 -0.07613
 H395 H -0.14563 0.17186 -0.10498
 H396 H -0.12974 0.11898 -0.17969
 H397 H -0.16039 0.14723 -0.20918
 H398 H -0.17481 0.20216 -0.13390
 C399 C -0.14198 0.67188 0.36893
 C400 C -0.13629 0.64419 0.36039
 C401 C -0.14790 0.63355 0.33452
 C402 C -0.16519 0.65048 0.31729
 C403 C -0.17113 0.67833 0.32572
 C404 C -0.15928 0.68886 0.35174
 C405 C -0.11873 0.62660 0.37822
 C406 C -0.10413 0.61172 0.39311
 C407 C -0.08714 0.59412 0.41046
 C408 C -0.07271 0.57894 0.42521
 H409 H -0.13304 0.68035 0.38888
 H410 H -0.14372 0.61211 0.32776
 H411 H -0.17429 0.64164 0.29762
 H412 H -0.16315 0.71030 0.35863
 C413 C 0.37362 0.15723 0.33622
 C414 C 0.36301 0.14412 0.36130
 C415 C 0.33476 0.14789 0.36924
 C416 C 0.31715 0.16464 0.35217
 C417 C 0.32757 0.17785 0.32686
 C418 C 0.35604 0.17398 0.31910
 C419 C 0.38101 0.12661 0.37874
 C420 C 0.39595 0.11181 0.39336
 C421 C 0.41328 0.09433 0.41047
 C422 C 0.42794 0.07926 0.42509
 H423 H 0.39548 0.15451 0.32990
 H424 H 0.32631 0.13775 0.38856
 H425 H 0.29526 0.16689 0.35851
 H426 H 0.36479 0.18416 0.29997
 C427 C 0.37419 0.65591 -0.16176
 C428 C 0.36299 0.64223 -0.13730
 C429 C 0.33448 0.64554 -0.13021
 C430 C 0.31719 0.66240 -0.14754
 C431 C 0.32821 0.67615 -0.17225
 C432 C 0.35694 0.67276 -0.17913
 C433 C 0.38069 0.62461 -0.11965
 C434 C 0.39547 0.60973 -0.10495
 C435 C 0.41272 0.59219 -0.08781
 C436 C 0.42737 0.57709 -0.07322
 H437 H 0.39625 0.65354 -0.16741
 H438 H 0.32557 0.63497 -0.11138
 H439 H 0.29510 0.66430 -0.14188
 H440 H 0.36614 0.68336 -0.19777
 C441 C -0.12906 -0.15100 0.16545
 C442 C -0.13734 -0.14368 0.13720
 C443 C -0.16290 -0.15349 0.12625
 C444 C -0.18022 -0.17051 0.14345
 C445 C -0.17237 -0.17811 0.17223
 C446 C -0.14629 -0.16797 0.18279
 C447 C -0.11975 -0.12587 0.11954
 C448 C -0.10513 -0.11084 0.10476
 C449 C -0.08814 -0.09311 0.08747
 C450 C -0.07373 -0.07784 0.07272
 H451 H -0.10915 -0.14368 0.17408
 H452 H -0.16965 -0.14774 0.10445
 H453 H -0.20027 -0.17652 0.13430
 H454 H -0.13836 -0.17380 0.20405
 C455 C -0.12629 0.34378 0.66326
 C456 C -0.13734 0.35705 0.63855
 C457 C -0.16555 0.35292 0.63101
 C458 C -0.18270 0.33565 0.64812
 C459 C -0.17183 0.32227 0.67307
 C460 C -0.14341 0.32651 0.68042
 C461 C -0.11982 0.37507 0.62105
 C462 C -0.10528 0.39027 0.60638
 C463 C -0.08838 0.40817 0.58918
 C464 C -0.07406 0.42355 0.57449
 H465 H -0.10446 0.34678 0.66925
 H466 H -0.17435 0.36316 0.61199
 H467 H -0.20457 0.33312 0.64211
 H468 H -0.13433 0.31623 0.69926
 C469 C 0.34194 -0.15882 0.62508
 C470 C 0.36189 -0.14132 0.63826
 C471 C 0.36467 -0.14109 0.66874
 C472 C 0.34759 -0.15827 0.68602
 C473 C 0.32744 -0.17593 0.67300
 C474 C 0.32481 -0.17600 0.64232
 C475 C 0.37941 -0.12352 0.62052
 C476 C 0.39405 -0.10853 0.60571
 C477 C 0.41113 -0.09089 0.58842
 C478 C 0.42565 -0.07573 0.57368
 H479 H 0.33965 -0.15920 0.60149
 H480 H 0.37998 -0.12755 0.67917
 H481 H 0.34986 -0.15744 0.70958
 H482 H 0.30976 -0.18961 0.63162
 C483 C 0.33437 0.35166 0.13087
 C484 C 0.36252 0.35566 0.13875
 C485 C 0.37318 0.34247 0.16367
 C486 C 0.35574 0.32542 0.18073
 C487 C 0.32738 0.32134 0.17305
 C488 C 0.31690 0.33462 0.14787
 C489 C 0.38034 0.37350 0.12138
 C490 C 0.39512 0.38857 0.10682
 C491 C 0.41222 0.40638 0.08974
 C492 C 0.42667 0.42171 0.07513
 H493 H 0.32587 0.36186 0.11167
 H494 H 0.39496 0.34537 0.16994
 H495 H 0.36453 0.31521 0.19976
 H496 H 0.29508 0.33220 0.14160
 C497 C 0.16441 0.13357 0.14433
 C498 C 0.13614 0.14099 0.14057
 C499 C 0.12551 0.16525 0.15407
 C500 C 0.14307 0.18203 0.17128
 C501 C 0.17153 0.17473 0.17523
 C502 C 0.18200 0.15030 0.16154
 C503 C 0.11810 0.12368 0.12287
 C504 C 0.10313 0.10905 0.10802
 C505 C 0.08579 0.09176 0.09062
 C506 C 0.07113 0.07686 0.07573
 H507 H 0.17288 0.11488 0.13391
 H508 H 0.10363 0.17115 0.15137
 H509 H 0.13430 0.20050 0.18182
 H510 H 0.20388 0.14431 0.16382
 C511 C 0.12651 0.66366 0.65693
 C512 C 0.13769 0.64205 0.63955
 C513 C 0.16675 0.63715 0.63928
 C514 C 0.18458 0.65373 0.65637
 C515 C 0.17357 0.67548 0.67398
 C516 C 0.14431 0.68029 0.67403
 C517 C 0.11938 0.62479 0.62209
 C518 C 0.10419 0.61018 0.60747
 C519 C 0.08657 0.59292 0.59035
 C520 C 0.07167 0.57803 0.57571
 H521 H 0.10404 0.66758 0.65737
 H522 H 0.17563 0.62051 0.62584
 H523 H 0.20703 0.64974 0.65555
 H524 H 0.13515 0.69663 0.68763
 C525 C 0.62682 0.16566 0.65500
 C526 C 0.63740 0.14154 0.64118
 C527 C 0.66573 0.13417 0.64462
 C528 C 0.68342 0.15081 0.66179
 C529 C 0.67301 0.17511 0.67579
 C530 C 0.64449 0.18236 0.67218
 C531 C 0.61925 0.12432 0.62351
 C532 C 0.60418 0.10977 0.60869
 C533 C 0.58671 0.09258 0.59131
 C534 C 0.57193 0.07777 0.57646
 H535 H 0.60491 0.17152 0.65255
 H536 H 0.67416 0.11558 0.63395
 H537 H 0.70534 0.14488 0.66381
 H538 H 0.63576 0.20072 0.68296
 C539 C 0.62646 0.66579 0.15455
 C540 C 0.63706 0.64148 0.14112
 C541 C 0.66537 0.63413 0.14473
 C542 C 0.68303 0.65099 0.16172
 C543 C 0.67260 0.67547 0.17534
 C544 C 0.64410 0.68270 0.17154
 C545 C 0.61893 0.62402 0.12367
 C546 C 0.60391 0.60926 0.10903
 C547 C 0.58650 0.59182 0.09187
 C548 C 0.57178 0.57680 0.07718
 H549 H 0.60456 0.67163 0.15196
 H550 H 0.67381 0.61540 0.13437
 H551 H 0.70494 0.64506 0.16389
 H552 H 0.63536 0.70121 0.18203
   
