data_POSCAR
  _audit_creation_date              2014-09-24
  _audit_creation_method            'ToBaCCo'
  _symmetry_space_group_name_H-M    'P1'
  _symmetry_Int_Tables_number       1
  _symmetry_cell_setting            triclinic
  loop_
  _symmetry_equiv_pos_as_xyz
 x,y,z
_cell_length_a 50.4469
_cell_length_b 37.3455
_cell_length_c 37.0424
_cell_angle_alpha 90.028100
_cell_angle_beta 89.965800
_cell_angle_gamma 89.754400
loop_
  _atom_site_label
  _atom_site_type_symbol
  _atom_site_fract_x
  _atom_site_fract_y
  _atom_site_fract_z
C1 C 1.24969 0.25236 0.24486
 C2 C 0.75049 -0.25304 0.25037
 C3 C 0.75037 0.24755 -0.25178
 C4 C 1.25100 -0.24564 -0.25249
 C5 C 0.25045 0.24744 0.75389
 C6 C 0.74918 0.75427 0.75015
 C7 C 0.75119 0.25319 0.24927
 C8 C 0.25027 0.74783 0.25291
 O9 O 1.03667 0.06144 0.06707
 O10 O 1.06633 0.02761 0.03444
 C11 C 1.06057 0.05176 0.05839
 O12 O 0.96328 -0.06798 0.06552
 O13 O 0.93368 -0.03375 0.03332
 C14 C 0.93940 -0.05895 0.05616
 O15 O 1.03698 -0.06238 0.07155
 O16 O 1.06663 -0.03242 0.03561
 C17 C 1.06091 -0.05406 0.06190
 O18 O 0.96275 0.06508 0.06254
 O19 O 0.93341 0.02884 0.03258
 C20 C 0.93892 0.05504 0.05424
 Zr21 Zr 0.99987 0.04324 0.04722
 O22 O 0.99828 0.04032 0.10415
 O23 O 1.00236 0.09977 0.04855
 Zr24 Zr 1.00013 -0.04677 0.04931
 O25 O 0.99676 -0.04483 0.10625
 O26 O 1.00378 -0.10323 0.05116
 O27 O 1.02373 -0.00157 0.05540
 O28 O 0.97669 -0.00158 0.05485
 O29 O 0.96318 0.06111 -0.06155
 O30 O 0.93353 0.02743 -0.02922
 C31 C 0.93925 0.05206 -0.05265
 O32 O 1.03750 -0.06523 -0.06272
 O33 O 1.06682 -0.03379 -0.02763
 C34 C 1.06132 -0.05645 -0.05301
 O35 O 0.96346 -0.06878 -0.05964
 O36 O 0.93388 -0.03494 -0.02696
 C37 C 0.93957 -0.05966 -0.05032
 O38 O 1.03724 0.05691 -0.06514
 O39 O 1.06675 0.02697 -0.02875
 C40 C 1.06113 0.04860 -0.05512
 Zr41 Zr 1.00022 0.04122 -0.04367
 O42 O 0.99712 0.04068 -0.10067
 O43 O 1.00344 0.09775 -0.04411
 Zr44 Zr 1.00040 -0.04908 -0.04150
 O45 O 0.99768 -0.05280 -0.09837
 O46 O 1.00365 -0.10553 -0.03777
 Zr47 Zr 1.03995 -0.00296 0.00297
 Zr48 Zr 0.96034 -0.00269 0.00263
 O49 O 0.97726 -0.00400 -0.04936
 O50 O 1.02399 -0.00413 -0.04967
 O51 O 0.97629 0.04942 0.00145
 O52 O 1.02351 -0.05463 0.00418
 O53 O 1.02318 0.04875 0.00172
 O54 O 0.97654 -0.05489 0.00390
 H55 H 0.96454 -0.00120 0.07587
 H56 H 1.03565 -0.07554 0.00479
 H57 H 0.96556 -0.00439 -0.07083
 H58 H 1.03501 0.06986 0.00122
 H59 H 0.99048 -0.11321 0.03440
 H60 H 0.98695 -0.11464 -0.02728
 H61 H 1.00999 -0.03495 -0.10861
 H62 H 1.01152 0.02522 -0.11007
 H63 H 0.98766 0.10768 -0.03173
 H64 H 0.99059 0.10902 0.02935
 H65 H 0.99801 0.06540 0.11288
 H66 H 1.00934 -0.02649 0.11493
 O67 O 1.03819 0.56203 0.56836
 O68 O 1.06765 0.53010 0.53353
 C69 C 1.06205 0.55300 0.55879
 O70 O 0.96336 0.43563 0.56596
 O71 O 0.93406 0.47108 0.53460
 C72 C 0.93953 0.44566 0.55730
 O73 O 1.03733 0.43944 0.57123
 O74 O 1.06717 0.46862 0.53492
 C75 C 1.06130 0.44718 0.56131
 O76 O 0.96432 0.56704 0.56473
 O77 O 0.93453 0.53333 0.53267
 C78 C 0.94036 0.55831 0.55565
 Zr79 Zr 1.00117 0.54592 0.54753
 O80 O 0.99868 0.54740 0.60454
 O81 O 1.00462 0.60240 0.54567
 Zr82 Zr 1.00057 0.45606 0.54956
 O83 O 0.99870 0.46101 0.60635
 O84 O 1.00335 0.39958 0.55279
 O85 O 1.02468 0.50069 0.55553
 O86 O 0.97760 0.50149 0.55514
 O87 O 0.96443 0.56605 0.44034
 O88 O 0.93461 0.53208 0.47213
 C89 C 0.94048 0.55723 0.44937
 O90 O 1.03742 0.43559 0.43863
 O91 O 1.06727 0.46811 0.47182
 C92 C 1.06138 0.44449 0.44745
 O93 O 0.96356 0.43342 0.44226
 O94 O 0.93412 0.46883 0.47344
 C95 C 0.93969 0.44312 0.45107
 O96 O 1.03827 0.55943 0.43509
 O97 O 1.06769 0.52882 0.47106
 C98 C 1.06214 0.55068 0.44485
 Zr99 Zr 1.00119 0.54405 0.45660
 O100 O 0.99755 0.54217 0.39968
 O101 O 1.00508 0.60043 0.45460
 Zr102 Zr 1.00059 0.45410 0.45847
 O103 O 0.99745 0.45413 0.40145
 O104 O 1.00328 0.39752 0.45874
 Zr105 Zr 1.04074 0.49926 0.50301
 Zr106 Zr 0.96104 0.50067 0.50301
 O107 O 0.97762 0.49937 0.45088
 O108 O 1.02469 0.49847 0.45041
 O109 O 0.97753 0.55251 0.50198
 O110 O 1.02364 0.44797 0.50418
 O111 O 1.02437 0.55121 0.50193
 O112 O 0.97688 0.44832 0.50415
 H113 H 0.96566 0.50205 0.57639
 H114 H 1.03533 0.42660 0.50476
 H115 H 0.96552 0.49923 0.42982
 H116 H 1.03642 0.57209 0.50146
 H117 H 0.99031 0.38963 0.53563
 H118 H 0.98914 0.38847 0.47478
 H119 H 1.01324 0.46639 0.39167
 H120 H 1.01240 0.52750 0.39029
 H121 H 0.99179 0.61070 0.47131
 H122 H 0.98907 0.61189 0.53249
 H123 H 1.01032 0.52812 0.61385
 H124 H 0.99843 0.43627 0.61599
 O125 O 0.53719 0.06694 0.55841
 O126 O 0.56649 0.03202 0.52642
 C127 C 0.56100 0.05662 0.55004
 O128 O 0.46300 -0.05966 0.56257
 O129 O 0.43352 -0.02800 0.52765
 C130 C 0.43915 -0.05121 0.55251
 O131 O 0.53707 -0.05664 0.56521
 O132 O 0.56653 -0.02788 0.52800
 C133 C 0.56094 -0.04893 0.55475
 O134 O 0.46327 0.07112 0.55483
 O135 O 0.43353 0.03474 0.52575
 C136 C 0.43932 0.06120 0.54704
 Zr137 Zr 0.50011 0.04905 0.53888
 O138 O 0.49748 0.05295 0.59580
 O139 O 0.50161 0.10528 0.53273
 Zr140 Zr 0.49999 -0.04130 0.54328
 O141 O 0.49730 -0.04026 0.60028
 O142 O 0.50297 -0.09790 0.54407
 O143 O 0.52371 0.00399 0.54814
 O144 O 0.47700 0.00445 0.54794
 O145 O 0.46308 0.06539 0.43130
 O146 O 0.43340 0.03190 0.46386
 C147 C 0.43916 0.05648 0.44042
 O148 O 0.53635 -0.06254 0.43114
 O149 O 0.56615 -0.03040 0.46479
 C150 C 0.56029 -0.05354 0.43996
 O151 O 0.46256 -0.06696 0.43739
 O152 O 0.43314 -0.03004 0.46683
 C153 C 0.43870 -0.05679 0.44568
 O154 O 0.53696 0.06095 0.42747
 O155 O 0.56654 0.02981 0.46272
 C156 C 0.56087 0.05219 0.43704
 Zr157 Zr 0.49994 0.04457 0.44834
 O158 O 0.49676 0.04079 0.39145
 O159 O 0.50251 0.10100 0.44495
 Zr160 Zr 0.49961 -0.04552 0.45264
 O161 O 0.49586 -0.04906 0.39585
 O162 O 0.50313 -0.10195 0.45602
 Zr163 Zr 0.53973 0.00121 0.49559
 Zr164 Zr 0.46008 0.00212 0.49607
 O165 O 0.47661 -0.00051 0.44393
 O166 O 0.52346 -0.00102 0.44318
 O167 O 0.47624 0.05399 0.49344
 O168 O 0.52304 -0.05028 0.49807
 O169 O 0.52331 0.05305 0.49325
 O170 O 0.47599 -0.05018 0.49849
 H171 H 0.46524 0.00572 0.56935
 H172 H 0.53510 -0.07128 0.49882
 H173 H 0.46460 -0.00140 0.42279
 H174 H 0.53525 0.07403 0.49232
 H175 H 0.48666 -0.10763 0.53306
 H176 H 0.48842 -0.11066 0.47129
 H177 H 0.50892 -0.03247 0.38519
 H178 H 0.51274 0.02821 0.38242
 H179 H 0.49143 0.11095 0.46462
 H180 H 0.50159 0.11543 0.55746
 H181 H 0.51184 0.03800 0.60608
 H182 H 0.51023 -0.02244 0.60902
 O183 O 0.53711 0.56450 0.06411
 O184 O 0.56673 0.53267 0.02942
 C185 C 0.56101 0.55538 0.05482
 O186 O 0.46289 0.43696 0.06132
 O187 O 0.43355 0.47215 0.02968
 C188 C 0.43906 0.44683 0.05245
 O189 O 0.53679 0.43996 0.06608
 O190 O 0.56649 0.47209 0.03215
 C191 C 0.56072 0.44907 0.05713
 O192 O 0.46335 0.57072 0.05813
 O193 O 0.43373 0.53515 0.02782
 C194 C 0.43943 0.56128 0.04960
 Zr195 Zr 0.50024 0.54797 0.04313
 O196 O 0.49826 0.54502 0.10005
 O197 O 0.50346 0.60443 0.04423
 Zr198 Zr 0.49997 0.45839 0.04594
 O199 O 0.49891 0.46718 0.10228
 O200 O 0.50023 0.40231 0.05389
 O201 O 0.52398 0.50307 0.05155
 O202 O 0.47658 0.50363 0.05096
 O203 O 0.46379 0.56527 -0.06632
 O204 O 0.43396 0.53298 -0.03289
 C205 C 0.43983 0.55681 -0.05703
 O206 O 0.53734 0.43672 -0.06445
 O207 O 0.56698 0.46983 -0.03147
 C208 C 0.56127 0.44577 -0.05553
 O209 O 0.46341 0.43366 -0.06073
 O210 O 0.43378 0.46986 -0.03076
 C211 C 0.43950 0.44346 -0.05227
 O212 O 0.53766 0.56087 -0.06912
 O213 O 0.56712 0.52997 -0.03347
 C214 C 0.56153 0.55204 -0.05946
 Zr215 Zr 0.50059 0.54533 -0.04790
 O216 O 0.49779 0.54411 -0.10491
 O217 O 0.50386 0.60185 -0.04886
 Zr218 Zr 0.50031 0.45534 -0.04518
 O219 O 0.49730 0.45491 -0.10222
 O220 O 0.50284 0.39876 -0.04431
 Zr221 Zr 0.54011 0.50127 -0.00096
 Zr222 Zr 0.46045 0.50224 -0.00134
 O223 O 0.47725 0.50034 -0.05332
 O224 O 0.52423 0.49981 -0.05361
 O225 O 0.47679 0.55411 -0.00280
 O226 O 0.52322 0.44990 0.00068
 O227 O 0.52357 0.55307 -0.00246
 O228 O 0.47658 0.45004 0.00045
 H229 H 0.46426 0.50438 0.07180
 H230 H 0.53508 0.42870 0.00126
 H231 H 0.46533 0.49960 -0.07455
 H232 H 0.53555 0.57402 -0.00296
 H233 H 0.50643 0.39130 0.03114
 H234 H 0.48982 0.39018 -0.02632
 H235 H 0.51332 0.46660 -0.11204
 H236 H 0.51176 0.52770 -0.11386
 H237 H 0.48819 0.61191 -0.03631
 H238 H 0.49204 0.61381 0.02470
 H239 H 0.49807 0.57010 0.10882
 H240 H 0.49766 0.44315 0.11344
 C241 C 1.20118 0.18687 0.17916
 N242 N 1.21943 0.17145 0.20125
 N243 N 1.23527 0.19169 0.22157
 C244 C 1.23340 0.22805 0.22048
 N245 N 1.21564 0.24320 0.19748
 N246 N 1.19976 0.22305 0.17745
 C247 C 1.18168 0.16549 0.15944
 N248 N 1.15933 0.18156 0.14703
 N249 N 1.14064 0.16260 0.13064
 C250 C 1.14369 0.12687 0.12567
 N251 N 1.16619 0.11068 0.13768
 N252 N 1.18483 0.12966 0.15453
 C253 C 1.12237 0.10648 0.10859
 N254 N 1.12693 0.07404 0.09314
 N255 N 1.10727 0.05639 0.07704
 C256 C 1.08237 0.07041 0.07631
 N257 N 1.07785 0.10264 0.09204
 N258 N 1.09751 0.12043 0.10769
 C259 C 1.19906 0.68623 0.68956
 N260 N 1.18999 0.70738 0.71660
 N261 N 1.20635 0.72873 0.73449
 C262 C 1.23253 0.73015 0.72604
 N263 N 1.24176 0.70839 0.69927
 N264 N 1.22529 0.68695 0.68121
 C265 C 1.18011 0.66375 0.66992
 N266 N 1.18750 0.64281 0.64158
 N267 N 1.16949 0.62354 0.62376
 C268 C 1.14354 0.62465 0.63373
 N269 N 1.13634 0.64543 0.66211
 N270 N 1.15425 0.66456 0.67983
 C271 C 1.12299 0.60489 0.61412
 N272 N 1.09729 0.60916 0.62399
 N273 N 1.07809 0.59237 0.60634
 C274 C 1.08380 0.57053 0.57814
 N275 N 1.10956 0.56597 0.56823
 N276 N 1.12886 0.58294 0.58591
 C277 C 0.70128 0.18488 0.68020
 N278 N 0.70037 0.22113 0.67954
 N279 N 0.71640 0.24032 0.70032
 C280 C 0.73384 0.22416 0.72308
 N281 N 0.73516 0.18773 0.72323
 N282 N 0.71917 0.16844 0.70214
 C283 C 0.68178 0.16454 0.65913
 N284 N 0.68448 0.12879 0.65314
 N285 N 0.66601 0.11093 0.63472
 C286 C 0.64410 0.12815 0.62206
 N287 N 0.64150 0.16379 0.62813
 N288 N 0.66003 0.18165 0.64611
 C289 C 0.62288 0.10893 0.60317
 N290 N 0.59839 0.12393 0.60096
 N291 N 0.57879 0.10708 0.58411
 C292 C 0.58298 0.07476 0.56837
 N293 N 0.60753 0.05972 0.57033
 N294 N 0.62712 0.07644 0.58763
 C295 C 0.69980 0.67668 0.19323
 N296 N 0.69636 0.68264 0.22906
 N297 N 0.71274 0.70403 0.24706
 C298 C 0.73308 0.72064 0.22987
 N299 N 0.73663 0.71428 0.19401
 N300 N 0.72035 0.69265 0.17606
 C301 C 0.68053 0.65526 0.17306
 N302 N 0.68527 0.64528 0.13838
 N303 N 0.66697 0.62759 0.11960
 C304 C 0.64322 0.61961 0.13478
 N305 N 0.63858 0.62945 0.16948
 N306 N 0.65693 0.64683 0.18832
 C307 C 0.62226 0.60222 0.11383
 N308 N 0.59694 0.60296 0.12612
 N309 N 0.57754 0.58814 0.10706
 C310 C 0.58272 0.57177 0.07512
 N311 N 0.60809 0.57075 0.06284
 N312 N 0.62752 0.58593 0.08179
 C313 C 0.80145 -0.19645 0.17970
 N314 N 0.78065 -0.17946 0.19552
 N315 N 0.76437 -0.19721 0.21738
 C316 C 0.76817 -0.23267 0.22417
 N317 N 0.78880 -0.24967 0.20777
 N318 N 0.80518 -0.23187 0.18613
 C319 C 0.82058 -0.17652 0.15782
 N320 N 0.84426 -0.19158 0.14924
 N321 N 0.86246 -0.17295 0.13136
 C322 C 0.85756 -0.13868 0.12113
 N323 N 0.83373 -0.12369 0.12926
 N324 N 0.81558 -0.14226 0.14745
 C325 C 0.87839 -0.11791 0.10331
 N326 N 0.87296 -0.08616 0.08693
 N327 N 0.89231 -0.06727 0.07154
 C328 C 0.91774 -0.07934 0.07245
 N329 N 0.92307 -0.11101 0.08887
 N330 N 0.90376 -0.12999 0.10389
 C331 C 0.79930 0.31173 0.68143
 N332 N 0.80050 0.27550 0.68023
 N333 N 0.78454 0.25579 0.70063
 C334 C 0.76688 0.27142 0.72353
 N335 N 0.76528 0.30782 0.72418
 N336 N 0.78119 0.32762 0.70348
 C337 C 0.81871 0.33271 0.66088
 N338 N 0.81578 0.36856 0.65579
 N339 N 0.83423 0.38712 0.63805
 C340 C 0.85634 0.37051 0.62520
 N341 N 0.85917 0.33476 0.63033
 N342 N 0.84066 0.31621 0.64764
 C343 C 0.87757 0.39055 0.60723
 N344 N 0.90221 0.37603 0.60500
 N345 N 0.92184 0.39376 0.58915
 C346 C 0.91753 0.42654 0.57451
 N347 N 0.89283 0.44109 0.57646
 N348 N 0.87320 0.42348 0.59276
 C349 C 0.29925 -0.17823 0.68347
 N350 N 0.30027 -0.17733 0.71998
 N351 N 0.28452 -0.19803 0.73960
 C352 C 0.26727 -0.22090 0.72359
 N353 N 0.26582 -0.22130 0.68689
 N354 N 0.28156 -0.20031 0.66717
 C355 C 0.31855 -0.15740 0.66276
 N356 N 0.31593 -0.15201 0.62666
 N357 N 0.33437 -0.13392 0.60843
 C358 C 0.35612 -0.12104 0.62567
 N359 N 0.35863 -0.12649 0.66167
 N360 N 0.34014 -0.14415 0.67987
 C361 C 0.37733 -0.10270 0.60610
 N362 N 0.40178 -0.10050 0.62113
 N363 N 0.42141 -0.08415 0.60387
 C364 C 0.41725 -0.06897 0.57113
 N365 N 0.39274 -0.07092 0.55607
 N366 N 0.37312 -0.08771 0.57319
 C367 C 0.29815 0.31512 0.17644
 N368 N 0.29932 0.27889 0.17590
 N369 N 0.28347 0.25961 0.19682
 C370 C 0.26596 0.27571 0.21956
 N371 N 0.26436 0.31211 0.21956
 N372 N 0.28018 0.33147 0.19835
 C373 C 0.31755 0.33560 0.15555
 N374 N 0.31486 0.37141 0.15020
 N375 N 0.33344 0.38958 0.13234
 C376 C 0.35543 0.37257 0.11966
 N377 N 0.35802 0.33684 0.12503
 N378 N 0.33938 0.31868 0.14247
 C379 C 0.37679 0.39222 0.10176
 N380 N 0.40137 0.37747 0.09981
 N381 N 0.42116 0.39501 0.08412
 C382 C 0.41702 0.42778 0.06939
 N383 N 0.39238 0.44252 0.07105
 N384 N 0.37261 0.42511 0.08718
 C385 C 0.80261 0.18726 -0.18508
 N386 N 0.77618 0.18029 -0.18490
 N387 N 0.75962 0.19921 -0.20571
 C388 C 0.76892 0.22558 -0.22770
 N389 N 0.79531 0.23268 -0.22713
 N390 N 0.81176 0.21392 -0.20643
 C391 C 0.82166 0.16645 -0.16339
 N392 N 0.84782 0.17435 -0.16573
 N393 N 0.86569 0.15572 -0.14717
 C394 C 0.85820 0.12838 -0.12543
 N395 N 0.83198 0.12038 -0.12286
 N396 N 0.81400 0.13910 -0.14156
 C397 C 0.87868 0.10801 -0.10583
 N398 N 0.87253 0.08105 -0.08265
 N399 N 0.89168 0.06304 -0.06546
 C400 C 0.91761 0.07135 -0.07096
 N401 N 0.92360 0.09825 -0.09410
 N402 N 0.90455 0.11620 -0.11113
 C403 C 0.80196 0.69174 0.32186
 N404 N 0.78159 0.67425 0.30586
 N405 N 0.76513 0.69155 0.28375
 C406 C 0.76831 0.72706 0.27690
 N407 N 0.78851 0.74457 0.29348
 N408 N 0.80507 0.72722 0.31536
 C409 C 0.82127 0.67234 0.34413
 N410 N 0.84467 0.68787 0.35284
 N411 N 0.86299 0.66976 0.37123
 C412 C 0.85851 0.63555 0.38186
 N413 N 0.83496 0.62010 0.37356
 N414 N 0.81670 0.63814 0.35487
 C415 C 0.87940 0.61531 0.40042
 N416 N 0.87415 0.58372 0.41708
 N417 N 0.89352 0.56522 0.43310
 C418 C 0.91882 0.57750 0.43260
 N419 N 0.92400 0.60903 0.41592
 N420 N 0.90464 0.62766 0.40025
 C421 C 0.30217 0.19392 0.31247
 N422 N 0.27580 0.18665 0.31276
 N423 N 0.25916 0.20513 0.29173
 C424 C 0.26833 0.23127 0.26940
 N425 N 0.29465 0.23877 0.26993
 N426 N 0.31119 0.22046 0.29087
 C427 C 0.32127 0.17326 0.33395
 N428 N 0.34738 0.18135 0.33155
 N429 N 0.36536 0.16243 0.34958
 C430 C 0.35799 0.13464 0.37078
 N431 N 0.33181 0.12651 0.37348
 N432 N 0.31373 0.14550 0.35530
 C433 C 0.37851 0.11380 0.38948
 N434 N 0.37244 0.08652 0.41227
 N435 N 0.39166 0.06800 0.42869
 C436 C 0.41754 0.07610 0.42270
 N437 N 0.42347 0.10331 0.39993
 N438 N 0.40435 0.12179 0.38367
 C439 C 0.30345 0.68812 -0.19255
 N440 N 0.27703 0.68779 -0.18540
 N441 N 0.26041 0.70848 -0.20427
 C442 C 0.26965 0.73046 -0.23073
 N443 N 0.29604 0.73004 -0.23806
 N444 N 0.31255 0.70945 -0.21934
 C445 C 0.32250 0.66675 -0.17169
 N446 N 0.34867 0.66939 -0.17952
 N447 N 0.36657 0.65112 -0.16069
 C448 C 0.35906 0.62942 -0.13325
 N449 N 0.33283 0.62654 -0.12535
 N450 N 0.31482 0.64496 -0.14425
 C451 C 0.37948 0.61014 -0.11275
 N452 N 0.37327 0.58676 -0.08596
 N453 N 0.39240 0.56962 -0.06791
 C454 C 0.41832 0.57542 -0.07602
 N455 N 0.42438 0.59882 -0.10271
 N456 N 0.40536 0.61581 -0.12070
 C457 C 1.20220 -0.17865 -0.18813
 N458 N 1.22044 -0.20021 -0.17202
 N459 N 1.23634 -0.22102 -0.19190
 C460 C 1.23451 -0.22096 -0.22856
 N461 N 1.21671 -0.19857 -0.24441
 N462 N 1.20079 -0.17804 -0.22463
 C463 C 1.18277 -0.15817 -0.16708
 N464 N 1.16075 -0.14537 -0.18371
 N465 N 1.14211 -0.12825 -0.16503
 C466 C 1.14489 -0.12294 -0.12904
 N467 N 1.16707 -0.13533 -0.11232
 N468 N 1.18567 -0.15287 -0.13101
 C469 C 1.12354 -0.10535 -0.10885
 N470 N 1.12781 -0.09080 -0.07577
 N471 N 1.10805 -0.07485 -0.05793
 C472 C 1.08333 -0.07336 -0.07241
 N473 N 1.07910 -0.08808 -0.10535
 N474 N 1.09888 -0.10359 -0.12332
 C475 C 1.19743 0.31226 0.31169
 N476 N 1.22386 0.31915 0.31204
 N477 N 1.24041 0.30039 0.29106
 C478 C 1.23109 0.27427 0.26880
 N479 N 1.20469 0.26727 0.26916
 N480 N 1.18825 0.28590 0.29000
 C481 C 1.17846 0.33277 0.33361
 N482 N 1.15229 0.32514 0.33094
 N483 N 1.13446 0.34347 0.34987
 C484 C 1.14203 0.37018 0.37233
 N485 N 1.16827 0.37791 0.37524
 N486 N 1.18621 0.35950 0.35614
 C487 C 1.12166 0.39009 0.39241
 N488 N 1.12791 0.41624 0.41645
 N489 N 1.10881 0.43379 0.43422
 C490 C 1.08289 0.42580 0.42843
 N491 N 1.07679 0.39974 0.40439
 N492 N 1.09578 0.38223 0.38678
 C493 C 0.69855 -0.18255 0.30600
 N494 N 0.69525 -0.18936 0.27032
 N495 N 0.71190 -0.21102 0.25287
 C496 C 0.73239 -0.22705 0.27048
 N497 N 0.73575 -0.21993 0.30621
 N498 N 0.71919 -0.19804 0.32361
 C499 C 0.67923 -0.16035 0.32546
 N500 N 0.68395 -0.14921 0.35976
 N501 N 0.66573 -0.13041 0.37780
 C502 C 0.64207 -0.12241 0.36224
 N503 N 0.63743 -0.13345 0.32792
 N504 N 0.65571 -0.15194 0.30982
 C505 C 0.62124 -0.10363 0.38242
 N506 N 0.59596 -0.10393 0.37001
 N507 N 0.57665 -0.08793 0.38850
 C508 C 0.58191 -0.07077 0.41995
 N509 N 0.60725 -0.07015 0.43231
 N510 N 0.62658 -0.08650 0.41394
 C511 C 0.69803 0.30782 -0.18507
 N512 N 0.68889 0.28119 -0.20648
 N513 N 0.70538 0.26228 -0.22704
 C514 C 0.73180 0.26921 -0.22739
 N515 N 0.74109 0.29547 -0.20525
 N516 N 0.72450 0.31453 -0.18458
 C517 C 0.67894 0.32908 -0.16387
 N518 N 0.68663 0.35641 -0.14203
 N519 N 0.66861 0.37567 -0.12389
 C520 C 0.64234 0.36827 -0.12710
 N521 N 0.63482 0.34094 -0.14886
 N522 N 0.65273 0.32176 -0.16683
 C523 C 0.62185 0.38918 -0.10810
 N524 N 0.59596 0.38170 -0.11418
 N525 N 0.57691 0.39997 -0.09747
 C526 C 0.58291 0.42651 -0.07390
 N527 N 0.60885 0.43416 -0.06767
 N528 N 0.62802 0.41583 -0.08455
 C529 C 1.19930 0.17691 -0.18956
 N530 N 1.19641 0.18250 -0.22554
 N531 N 1.21289 0.20402 -0.24327
 C532 C 1.23285 0.22111 -0.22571
 N533 N 1.23581 0.21521 -0.18967
 N534 N 1.21942 0.19347 -0.17198
 C535 C 1.18006 0.15479 -0.16984
 N536 N 1.18438 0.14504 -0.13498
 N537 N 1.16626 0.12627 -0.11688
 C538 C 1.14310 0.11685 -0.13291
 N539 N 1.13888 0.12652 -0.16776
 N540 N 1.15705 0.14500 -0.18592
 C541 C 1.12229 0.09797 -0.11274
 N542 N 1.09730 0.09666 -0.12617
 N543 N 1.07800 0.08075 -0.10776
 C544 C 1.08295 0.06521 -0.07533
 N545 N 1.10801 0.06616 -0.06195
 N546 N 1.12732 0.08243 -0.08026
 C547 C 1.20006 0.67849 0.30929
 N548 N 1.19725 0.68364 0.27325
 N549 N 1.21366 0.70513 0.25534
 C550 C 1.23352 0.72277 0.27273
 N551 N 1.23633 0.71718 0.30893
 N552 N 1.22002 0.69546 0.32677
 C553 C 1.18090 0.65637 0.32919
 N554 N 1.18524 0.64692 0.36414
 N555 N 1.16719 0.62816 0.38239
 C556 C 1.14407 0.61845 0.36643
 N557 N 1.13982 0.62783 0.33150
 N558 N 1.15792 0.64628 0.31319
 C559 C 1.12329 0.59963 0.38677
 N560 N 1.09827 0.59831 0.37345
 N561 N 1.07899 0.58251 0.39200
 C562 C 1.08398 0.56708 0.42447
 N563 N 1.10908 0.56803 0.43775
 N564 N 1.12837 0.58420 0.41930
 C565 C 0.69828 0.19075 0.31219
 N566 N 0.72481 0.18442 0.31369
 N567 N 0.74159 0.20423 0.29428
 C568 C 0.73242 0.23095 0.27251
 N569 N 0.70592 0.23752 0.27191
 N570 N 0.68925 0.21783 0.29117
 C571 C 0.67904 0.16859 0.33174
 N572 N 0.65279 0.17456 0.32652
 N573 N 0.63478 0.15471 0.34322
 C574 C 0.64223 0.12806 0.36592
 N575 N 0.66853 0.12197 0.37136
 N576 N 0.68666 0.14187 0.35446
 C577 C 0.62168 0.10685 0.38403
 N578 N 0.62769 0.08189 0.40948
 N579 N 0.60844 0.06388 0.42621
 C580 C 0.58257 0.07017 0.41792
 N581 N 0.57672 0.09490 0.39233
 N582 N 0.59587 0.11286 0.37575
 C583 C 0.69785 0.68395 -0.19332
 N584 N 0.72407 0.68504 -0.18496
 N585 N 0.74035 0.70701 -0.20271
 C586 C 0.73094 0.72900 -0.22914
 N587 N 0.70480 0.72715 -0.23769
 N588 N 0.68863 0.70524 -0.22014
 C589 C 0.67907 0.66113 -0.17367
 N590 N 0.65323 0.66125 -0.18370
 N591 N 0.63546 0.64209 -0.16572
 C592 C 0.64276 0.62196 -0.13693
 N593 N 0.66869 0.62152 -0.12686
 N594 N 0.68656 0.64080 -0.14495
 C595 C 0.62230 0.60238 -0.11682
 N596 N 0.62826 0.58145 -0.08789
 N597 N 0.60905 0.56490 -0.06960
 C598 C 0.58326 0.56885 -0.07961
 N599 N 0.57746 0.58965 -0.10855
 N600 N 0.59658 0.60602 -0.12680
 C601 C 0.79775 -0.18103 -0.18333
 N602 N 0.79826 -0.17812 -0.21976
 N603 N 0.78224 -0.19773 -0.24012
 C604 C 0.76522 -0.22151 -0.22500
 N605 N 0.76422 -0.22382 -0.18834
 N606 N 0.78019 -0.20389 -0.16786
 C607 C 0.81758 -0.16178 -0.16196
 N608 N 0.81495 -0.15707 -0.12575
 N609 N 0.83380 -0.14035 -0.10696
 C610 C 0.85602 -0.12829 -0.12371
 N611 N 0.85857 -0.13312 -0.15981
 N612 N 0.83966 -0.14935 -0.17858
 C613 C 0.87751 -0.11107 -0.10363
 N614 N 0.90226 -0.11047 -0.11794
 N615 N 0.92201 -0.09446 -0.10059
 C616 C 0.91769 -0.07802 -0.06847
 N617 N 0.89290 -0.07847 -0.05408
 N618 N 0.87316 -0.09494 -0.07127
 C619 C 0.80292 0.31001 0.31908
 N620 N 0.81204 0.28318 0.29778
 N621 N 0.79575 0.26551 0.27607
 C622 C 0.76955 0.27395 0.27441
 N623 N 0.76024 0.30041 0.29642
 N624 N 0.77665 0.31827 0.31821
 C625 C 0.82184 0.32976 0.34168
 N626 N 0.81437 0.35823 0.36228
 N627 N 0.83233 0.37632 0.38143
 C628 C 0.85833 0.36653 0.38056
 N629 N 0.86561 0.33801 0.36014
 N630 N 0.84775 0.32002 0.34112
 C631 C 0.87885 0.38654 0.40012
 N632 N 0.90461 0.37679 0.39612
 N633 N 0.92375 0.39482 0.41262
 C634 C 0.91795 0.42334 0.43391
 N635 N 0.89214 0.43314 0.43820
 N636 N 0.87290 0.41507 0.42152
 C637 C 0.30067 -0.19504 0.32157
 N638 N 0.30388 -0.23078 0.31648
 N639 N 0.28742 -0.24895 0.29523
 C640 C 0.26710 -0.23214 0.27778
 N641 N 0.26388 -0.19626 0.28333
 N642 N 0.28025 -0.17816 0.30480
 C643 C 0.31986 -0.17478 0.34329
 N644 N 0.31526 -0.14003 0.35237
 N645 N 0.33334 -0.12137 0.37063
 C646 C 0.35676 -0.13672 0.38020
 N647 N 0.36128 -0.17146 0.37121
 N648 N 0.34315 -0.19017 0.35325
 C649 C 0.37756 -0.11593 0.39838
 N650 N 0.40268 -0.12892 0.39970
 N651 N 0.42197 -0.10999 0.41492
 C652 C 0.41688 -0.07743 0.42973
 N653 N 0.39168 -0.06446 0.42877
 N654 N 0.37238 -0.08331 0.41319
 C655 C 0.30151 0.30497 -0.17606
 N656 N 0.28089 0.32184 -0.19241
 N657 N 0.26452 0.30380 -0.21393
 C658 C 0.26800 0.26810 -0.21983
 N659 N 0.28845 0.25123 -0.20291
 N660 N 0.30492 0.26932 -0.18160
 C661 C 0.32074 0.32520 -0.15438
 N662 N 0.34421 0.30997 -0.14499
 N663 N 0.36238 0.32870 -0.12713
 C664 C 0.35772 0.36330 -0.11770
 N665 N 0.33411 0.37846 -0.12670
 N666 N 0.31599 0.35979 -0.14486
 C667 C 0.37851 0.38414 -0.09961
 N668 N 0.37320 0.41649 -0.08433
 N669 N 0.39248 0.43540 -0.06878
 C670 C 0.41778 0.42277 -0.06834
 N671 N 0.42300 0.39047 -0.08364
 N672 N 0.40374 0.37147 -0.09883
 C673 C 1.19870 -0.18381 0.19695
 N674 N 1.21911 -0.19999 0.17942
 N675 N 1.23575 -0.22155 0.19710
 C676 C 1.23282 -0.22776 0.23317
 N677 N 1.21246 -0.21097 0.25061
 N678 N 1.19573 -0.18965 0.23286
 C679 C 1.17940 -0.16159 0.17723
 N680 N 1.15621 -0.15194 0.19315
 N681 N 1.13809 -0.13320 0.17499
 C682 C 1.14254 -0.12310 0.14032
 N683 N 1.16586 -0.13240 0.12446
 N684 N 1.18393 -0.15143 0.14255
 C685 C 1.12181 -0.10390 0.12009
 N686 N 1.12704 -0.08817 0.08778
 N687 N 1.10781 -0.07169 0.06933
 C688 C 1.08264 -0.07070 0.08241
 N689 N 1.07751 -0.08641 0.11468
 N690 N 1.09673 -0.10253 0.13323
 C691 C 1.19854 0.31725 0.69704
 N692 N 1.19527 0.31112 0.73287
 N693 N 1.21190 0.28971 0.75069
 C694 C 1.23237 0.27325 0.73335
 N695 N 1.23567 0.27965 0.69746
 N696 N 1.21914 0.30128 0.67968
 C697 C 1.17934 0.33945 0.67719
 N698 N 1.18403 0.34964 0.64256
 N699 N 1.16602 0.36858 0.62429
 C700 C 1.14259 0.37775 0.63993
 N701 N 1.13798 0.36763 0.67455
 N702 N 1.15605 0.34897 0.69288
 C703 C 1.12194 0.39688 0.61954
 N704 N 1.09683 0.39829 0.63256
 N705 N 1.07768 0.41447 0.61394
 C706 C 1.08292 0.43016 0.58169
 N707 N 1.10811 0.42908 0.56870
 N708 N 1.12726 0.41255 0.58723
 C709 C 0.70003 -0.17710 0.68797
 N710 N 0.71845 -0.19795 0.67121
 N711 N 0.73437 -0.21933 0.69040
 C712 C 0.73241 -0.22060 0.72703
 N713 N 0.71436 -0.19903 0.74358
 N714 N 0.69843 -0.17792 0.72447
 C715 C 0.68087 -0.15551 0.66751
 N716 N 0.65909 -0.14232 0.68452
 N717 N 0.64080 -0.12401 0.66635
 C718 C 0.64369 -0.11783 0.63051
 N719 N 0.66562 -0.13065 0.61343
 N720 N 0.68386 -0.14934 0.63159
 C721 C 0.62267 -0.09897 0.61073
 N722 N 0.62697 -0.08513 0.57734
 N723 N 0.60744 -0.06857 0.55961
 C724 C 0.58290 -0.06565 0.57452
 N725 N 0.57866 -0.07955 0.60782
 N726 N 0.59821 -0.09570 0.62567
 C727 C 0.70220 0.31842 0.18333
 N728 N 0.70168 0.28225 0.18097
 N729 N 0.71780 0.26229 0.20100
 C730 C 0.73492 0.27757 0.22468
 N731 N 0.73591 0.31396 0.22646
 N732 N 0.71984 0.33404 0.20609
 C733 C 0.68236 0.33941 0.16345
 N734 N 0.68502 0.37521 0.15802
 N735 N 0.66622 0.39363 0.14061
 C736 C 0.64402 0.37692 0.12855
 N737 N 0.64145 0.34124 0.13411
 N738 N 0.66031 0.32284 0.15103
 C739 C 0.62260 0.39663 0.11051
 N740 N 0.59789 0.38248 0.10965
 N741 N 0.57820 0.39952 0.09297
 C742 C 0.58255 0.43115 0.07607
 N743 N 0.60731 0.44535 0.07676
 N744 N 0.62699 0.42848 0.09390
 C745 C 0.79987 0.19038 0.18038
 N746 N 0.78146 0.17417 0.20152
 N747 N 0.76571 0.19358 0.22297
 C748 C 0.76782 0.22990 0.22403
 N749 N 0.78583 0.24590 0.20211
 N750 N 0.80162 0.22656 0.18093
 C751 C 0.81894 0.16960 0.15889
 N752 N 0.84083 0.18599 0.14565
 N753 N 0.85910 0.16746 0.12762
 C754 C 0.85608 0.13187 0.12181
 N755 N 0.83403 0.11541 0.13465
 N756 N 0.81581 0.13394 0.15306
 C757 C 0.87713 0.11170 0.10341
 N758 N 0.87274 0.07858 0.08952
 N759 N 0.89230 0.06056 0.07331
 C760 C 0.91695 0.07490 0.07085
 N761 N 0.92127 0.10792 0.08483
 N762 N 0.90170 0.12605 0.10061
 C763 C 0.80259 0.69109 0.68805
 N764 N 0.81145 0.71265 0.71481
 N765 N 0.79464 0.73225 0.73416
 C766 C 0.76816 0.73148 0.72755
 N767 N 0.75918 0.70938 0.70100
 N768 N 0.77609 0.68960 0.68154
 C769 C 0.82195 0.67045 0.66681
 N770 N 0.81448 0.64719 0.64049
 N771 N 0.83271 0.62898 0.62170
 C772 C 0.85897 0.63355 0.62857
 N773 N 0.86627 0.65680 0.65480
 N774 N 0.84815 0.67484 0.67353
 C775 C 0.87960 0.61395 0.60858
 N776 N 0.90545 0.62076 0.61575
 N777 N 0.92462 0.60313 0.59858
 C778 C 0.91873 0.57792 0.57352
 N779 N 0.89284 0.57105 0.56615
 N780 N 0.87358 0.58880 0.58337
 C781 C 0.30230 0.19239 0.68228
 N782 N 0.30513 0.22795 0.68866
 N783 N 0.28855 0.24516 0.71070
 C784 C 0.26855 0.22747 0.72756
 N785 N 0.26569 0.19184 0.72096
 N786 N 0.28219 0.17467 0.69870
 C787 C 0.32142 0.17330 0.65919
 N788 N 0.31709 0.13895 0.64868
 N789 N 0.33502 0.12145 0.62882
 C790 C 0.35799 0.13760 0.61898
 N791 N 0.36224 0.17195 0.62943
 N792 N 0.34426 0.18950 0.64902
 C793 C 0.37860 0.11802 0.59886
 N794 N 0.40347 0.13151 0.59674
 N795 N 0.42263 0.11346 0.57989
 C796 C 0.41762 0.08136 0.56418
 N797 N 0.39266 0.06794 0.56592
 N798 N 0.37350 0.08589 0.58311
 C799 C 0.30164 0.69330 0.18284
 N800 N 0.30421 0.72896 0.18874
 N801 N 0.28752 0.74624 0.21060
 C802 C 0.26762 0.72857 0.22788
 N803 N 0.26508 0.69275 0.22160
 N804 N 0.28167 0.67553 0.19951
 C805 C 0.32090 0.67412 0.15999
 N806 N 0.31667 0.63970 0.14963
 N807 N 0.33470 0.62212 0.13002
 C808 C 0.35772 0.63824 0.12031
 N809 N 0.36189 0.67264 0.13062
 N810 N 0.34379 0.69029 0.14994
 C811 C 0.37844 0.61853 0.10048
 N812 N 0.40340 0.63182 0.09881
 N813 N 0.42264 0.61365 0.08225
 C814 C 0.41764 0.58163 0.06636
 N815 N 0.39259 0.56842 0.06763
 N816 N 0.37336 0.58649 0.08454
   
