data_POSCAR
  _audit_creation_date              2014-09-24
  _audit_creation_method            'ToBaCCo'
  _symmetry_space_group_name_H-M    'P1'
  _symmetry_Int_Tables_number       1
  _symmetry_cell_setting            triclinic
  loop_
  _symmetry_equiv_pos_as_xyz
 x,y,z
_cell_length_a 28.9763
_cell_length_b 28.7951
_cell_length_c 28.6928
_cell_angle_alpha 90.196900
_cell_angle_beta 90.254800
_cell_angle_gamma 89.927300
loop_
  _atom_site_label
  _atom_site_type_symbol
  _atom_site_fract_x
  _atom_site_fract_y
  _atom_site_fract_z
C1 C 0.15864 0.15284 0.21556
 N2 N 0.13989 0.19348 0.20045
 C3 C 0.15643 0.21516 0.16219
 N4 N 0.19364 0.19714 0.14014
 C5 C 0.21343 0.15676 0.15426
 N6 N 0.19585 0.13524 0.19256
 C7 C -0.16091 0.84188 0.21382
 N8 N -0.14565 0.80123 0.19527
 C9 C -0.16747 0.78175 0.15823
 N10 N -0.20380 0.80388 0.13836
 C11 C -0.21954 0.84471 0.15605
 N12 N -0.19909 0.86245 0.19509
 C13 C -0.17471 0.17361 -0.23359
 N14 N -0.21036 0.15065 -0.21408
 C15 C -0.22555 0.16074 -0.17061
 N16 N -0.20449 0.19591 -0.14671
 C17 C -0.16797 0.21886 -0.16551
 N18 N -0.15319 0.20754 -0.20896
 C19 C 0.16596 0.83142 -0.22166
 N20 N 0.14425 0.79539 -0.20056
 C21 C 0.15790 0.78056 -0.15775
 N22 N 0.19376 0.80208 -0.13594
 C23 C 0.21400 0.84001 -0.15521
 N24 N 0.19999 0.85392 -0.19815
 C25 C 0.15766 1.16422 0.77870
 N26 N 0.19749 1.14528 0.79492
 C27 C 0.22466 1.16870 0.82546
 N28 N 0.21163 1.21140 0.84052
 C29 C 0.17268 1.23191 0.82395
 N30 N 0.14595 1.20781 0.79301
 C31 C 0.82348 0.82362 0.76700
 N32 N 0.78825 0.84575 0.78920
 C33 C 0.77337 0.83082 0.83144
 N34 N 0.79423 0.79394 0.85193
 C35 C 0.83093 0.77301 0.83151
 N36 N 0.84493 0.78763 0.78886
 C37 C 0.18429 0.81589 1.24291
 N38 N 0.15887 0.78488 1.21779
 C39 C 0.17191 0.77071 1.17454
 N40 N 0.21200 0.78737 1.15670
 C41 C 0.23745 0.81890 1.18091
 N42 N 0.22298 0.83355 1.22335
 C43 C 0.83410 1.16020 1.21973
 N44 N 0.79236 1.14578 1.20328
 C45 C 0.76896 1.17131 1.17115
 N46 N 0.78737 1.21176 1.15580
 C47 C 0.82750 1.22819 1.17407
 N48 N 0.85081 1.20170 1.20529
 N49 N 0.54600 1.05190 1.07805
 N50 N 0.58028 1.05917 1.10757
 N51 N 0.44951 1.08307 1.04381
 N52 N 0.41279 1.10993 1.04573
 N53 N 0.44862 1.05220 1.07734
 N54 N 0.41116 1.05785 1.10298
 N55 N 0.54648 1.08282 1.04454
 N56 N 0.58093 1.11223 1.05053
 C57 C 0.60152 1.09707 1.09013
 C58 C 0.38906 1.09456 1.08302
 N59 N 0.44926 1.04597 0.91279
 N60 N 0.41490 1.05146 0.88305
 N61 N 0.54662 1.07902 0.94377
 N62 N 0.58203 1.10687 0.93615
 N63 N 0.54608 1.04511 0.91317
 N64 N 0.58127 1.04861 0.88462
 N65 N 0.44957 1.07956 0.94379
 N66 N 0.41522 1.10873 0.93610
 Mn67 Mn 0.49816 1.08171 0.99404
 C68 C 0.39415 1.09094 0.89779
 C69 C 0.60327 1.08763 0.89857
 N70 N 0.44933 0.95154 1.08123
 N71 N 0.41725 0.94348 1.11278
 N72 N 0.54662 0.91872 1.04966
 N73 N 0.58543 0.89479 1.05169
 N74 N 0.54681 0.95219 1.08095
 N75 N 0.58602 0.95198 1.10467
 N76 N 0.44972 0.91834 1.04980
 N77 N 0.41797 0.88700 1.05889
 Mn78 Mn 0.49754 1.00197 1.08007
 C79 C 0.39815 0.90288 1.09840
 C80 C 0.60982 0.91595 1.08602
 N81 N 0.54565 0.94598 0.91615
 N82 N 0.58284 0.94215 0.89008
 N83 N 0.44806 0.91543 0.95001
 N84 N 0.40832 0.89298 0.95042
 N85 N 0.44843 0.94618 0.91633
 N86 N 0.40929 0.94494 0.89274
 N87 N 0.54576 0.91461 0.94917
 N88 N 0.58294 0.88819 0.94615
 Mn89 Mn 0.49732 0.99571 0.91411
 Mn90 Mn 0.49757 0.91618 0.99963
 Cl91 Cl 0.49764 0.99892 0.99703
 C92 C 0.60582 0.90604 0.90926
 C93 C 0.38439 0.91175 0.91440
 N94 N -0.05062 0.44646 -0.07901
 N95 N -0.05318 0.40801 -0.10414
 N96 N -0.08483 0.54471 -0.04922
 N97 N -0.11099 0.58208 -0.05297
 N98 N -0.05261 0.54462 -0.08123
 N99 N -0.05616 0.58185 -0.10777
 N100 N -0.08289 0.44689 -0.04700
 N101 N -0.10835 0.40901 -0.04963
 C102 C -0.08935 0.38498 -0.08532
 C103 C -0.09266 0.60491 -0.08962
 N104 N -0.05348 0.54927 0.08292
 N105 N -0.05930 0.58654 0.10920
 N106 N -0.08392 0.44994 0.05337
 N107 N -0.11336 0.41611 0.06197
 N108 N -0.05169 0.45137 0.08554
 N109 N -0.05789 0.41818 0.11632
 N110 N -0.08566 0.54707 0.05061
 N111 N -0.11442 0.58240 0.05420
 Mn112 Mn -0.08487 0.49706 0.00182
 C113 C -0.09772 0.60650 0.09105
 C114 C -0.09683 0.39670 0.10173
 N115 N 0.04690 0.54666 -0.07989
 N116 N 0.04924 0.58449 -0.10570
 N117 N 0.08040 0.44976 -0.04576
 N118 N 0.11195 0.41756 -0.05359
 N119 N 0.04887 0.44912 -0.07874
 N120 N 0.05836 0.41682 -0.10996
 N121 N 0.07868 0.54752 -0.04707
 N122 N 0.10324 0.58595 -0.04954
 Mn123 Mn -0.00194 0.49669 -0.08036
 C124 C 0.08453 0.60862 -0.08623
 C125 C 0.09799 0.39743 -0.09403
 N126 N 0.04711 0.45246 0.08696
 N127 N 0.04920 0.41481 0.11295
 N128 N 0.07809 0.54997 0.05295
 N129 N 0.10382 0.58767 0.05680
 N130 N 0.04603 0.54989 0.08501
 N131 N 0.04958 0.58694 0.11184
 N132 N 0.07927 0.45158 0.05485
 N133 N 0.10401 0.41315 0.05816
 Mn134 Mn -0.00299 0.50084 0.08566
 Mn135 Mn 0.07975 0.49962 0.00379
 Cl136 Cl -0.00245 0.49852 0.00271
 C137 C 0.08480 0.39056 0.09461
 C138 C 0.08538 0.61078 0.09363
 N139 N 0.94903 -0.08434 0.54830
 N140 N 0.94104 -0.11443 0.58183
 N141 N 0.91927 -0.05422 0.44899
 N142 N 0.89516 -0.05693 0.41002
 N143 N 0.95167 -0.08614 0.44988
 N144 N 0.95013 -0.11151 0.41141
 N145 N 0.91655 -0.05254 0.54702
 N146 N 0.88527 -0.06059 0.57941
 C147 C 0.90088 -0.09963 0.60072
 C148 C 0.91470 -0.09273 0.38673
 N149 N 0.95066 0.07755 0.44657
 N150 N 0.94856 0.10192 0.40774
 N151 N 0.91606 0.04813 0.54469
 N152 N 0.88563 0.05622 0.57784
 N153 N 0.94773 0.08069 0.54436
 N154 N 0.93986 0.11169 0.57731
 N155 N 0.91881 0.04516 0.44657
 N156 N 0.89455 0.04647 0.40755
 Mn157 Mn 0.91708 -0.00336 0.49700
 C158 C 0.91361 0.08191 0.38347
 C159 C 0.90083 0.09619 0.59766
 N160 N 1.05162 -0.08594 0.45406
 N161 N 1.06261 -0.11854 0.42360
 N162 N 1.07954 -0.05062 0.55230
 N163 N 1.10907 -0.05700 0.58670
 N164 N 1.04845 -0.08372 0.55159
 N165 N 1.05637 -0.11375 0.58541
 N166 N 1.08304 -0.05315 0.45462
 N167 N 1.11582 -0.06231 0.42423
 Mn168 Mn 1.00007 -0.08562 0.50091
 C169 C 1.10294 -0.10340 0.40530
 C170 C 1.09462 -0.09673 0.60688
 N171 N 1.04657 0.08092 0.54862
 N172 N 1.04630 0.10543 0.58764
 N173 N 1.08242 0.04635 0.45227
 N174 N 1.10867 0.04734 0.41484
 N175 N 1.05004 0.07813 0.44982
 N176 N 1.05336 0.10139 0.41039
 N177 N 1.07890 0.04901 0.55024
 N178 N 1.10167 0.05129 0.59007
 Mn179 Mn 0.99884 0.07997 0.49728
 Mn180 Mn 1.08143 -0.00197 0.50240
 Cl181 Cl 0.99932 -0.00281 0.49942
 C182 C 1.08090 0.08649 0.61325
 C183 C 1.09005 0.08167 0.38876
 C184 C 1.10135 0.14261 0.33021
 C185 C 1.11723 0.15968 0.28810
 C186 C 1.14038 0.13112 0.25580
 C187 C 1.14369 0.08246 0.26566
 C188 C 1.12675 0.06497 0.30893
 C189 C 1.10679 0.09594 0.34204
 C190 C 1.12809 0.01657 0.31632
 N191 N 1.14553 -0.01214 0.28337
 N192 N 1.16072 0.00389 0.24289
 C193 C 1.15977 0.04975 0.23262
 H194 H 1.08531 0.16669 0.35433
 H195 H 1.11296 0.19656 0.28201
 H196 H 1.11403 0.00059 0.34694
 H197 H 1.16967 0.05913 0.19784
 C198 C 0.85206 -0.10160 0.32897
 C199 C 0.83372 -0.11592 0.28644
 C200 C 0.86115 -0.13875 0.25328
 C201 C 0.90970 -0.14205 0.26164
 C202 C 0.92858 -0.12620 0.30485
 C203 C 0.89887 -0.10794 0.33971
 C204 C 0.97692 -0.12658 0.31033
 N205 N 1.00426 -0.14205 0.27541
 N206 N 0.98682 -0.15652 0.23502
 C207 C 0.94079 -0.15666 0.22674
 H208 H 0.82890 -0.08630 0.35430
 H209 H 0.79694 -0.11163 0.28088
 H210 H 0.99376 -0.11307 0.34100
 H211 H 0.92964 -0.16603 0.19208
 C212 C 0.90816 0.13571 0.67352
 C213 C 0.89009 0.15517 0.71396
 C214 C 0.84231 0.15918 0.72003
 C215 C 0.81224 0.14599 0.68302
 C216 C 0.83071 0.12562 0.64197
 C217 C 0.87908 0.11930 0.63801
 C218 C 0.80005 0.11379 0.60561
 N219 N 0.75418 0.12161 0.61036
 N220 N 0.73689 0.14100 0.64865
 C221 C 0.76426 0.15377 0.68490
 H222 H 0.94527 0.13185 0.67073
 H223 H 0.91366 0.16538 0.74157
 H224 H 0.81192 0.09946 0.57300
 H225 H 0.74821 0.17105 0.71407
 C226 C 1.08889 -0.14353 0.67838
 C227 C 1.10627 -0.16159 0.71973
 C228 C 1.15241 -0.15426 0.73325
 C229 C 1.18284 -0.13235 0.70093
 C230 C 1.16496 -0.11445 0.65822
 C231 C 1.11699 -0.11837 0.64809
 C232 C 1.19636 -0.09550 0.62601
 N233 N 1.24201 -0.09399 0.63602
 N234 N 1.25886 -0.11124 0.67545
 C235 C 1.23120 -0.13096 0.70770
 H236 H 1.05248 -0.14798 0.67085
 H237 H 1.08230 -0.17908 0.74262
 H238 H 1.18597 -0.08362 0.59203
 H239 H 1.24813 -0.14722 0.73685
 C240 C 0.32359 1.09244 1.13819
 C241 C 0.28043 1.10569 1.15476
 C242 C 0.25344 1.13909 1.13156
 C243 C 0.26996 1.15620 1.08795
 C244 C 0.31622 1.14672 1.07375
 C245 C 0.34298 1.11283 1.09846
 C246 C 0.33305 1.17160 1.03497
 N247 N 0.30422 1.19799 1.00887
 N248 N 0.25960 1.20147 1.01859
 C249 C 0.24142 1.18108 1.05669
 H250 H 0.34246 1.06639 1.15766
 H251 H 0.26899 1.09032 1.18711
 H252 H 0.36858 1.17191 1.02494
 H253 H 0.20453 1.18322 1.06082
 C254 C 0.32268 0.85265 0.91147
 C255 C 0.28064 0.83537 0.89558
 C256 C 0.25142 0.86229 0.86722
 C257 C 0.26238 0.91021 0.86075
 C258 C 0.30485 0.92817 0.87833
 C259 C 0.33659 0.89801 0.90118
 C260 C 0.31287 0.97630 0.87439
 N261 N 0.28137 1.00409 0.85340
 N262 N 0.24173 0.98743 0.83701
 C263 C 0.23087 0.94185 0.84051
 H264 H 0.34547 0.82945 0.93035
 H265 H 0.27288 0.79927 0.90260
 H266 H 0.34258 0.99284 0.88961
 H267 H 0.19675 0.93170 0.82940
 C268 C 0.66951 0.90800 1.14743
 C269 C 0.71150 0.89147 1.16443
 C270 C 0.74227 0.86725 1.13537
 C271 C 0.73273 0.86562 1.08649
 C272 C 0.69033 0.88379 1.06908
 C273 C 0.65726 0.90241 1.10049
 C274 C 0.68363 0.88501 1.02042
 N275 N 0.71641 0.86825 0.99138
 N276 N 0.75606 0.85132 1.00747
 C277 C 0.76562 0.85002 1.05370
 H278 H 0.64552 0.92365 1.17173
 H279 H 0.71823 0.89475 1.20148
 H280 H 0.65382 0.90104 1.00481
 H281 H 0.79977 0.83887 1.06369
 C282 C 0.67096 1.13998 0.90238
 C283 C 0.71346 1.15643 0.88721
 C284 C 0.73528 1.13751 0.84775
 C285 C 0.71399 1.09836 0.82549
 C286 C 0.66800 1.08579 0.83727
 C287 C 0.64714 1.10519 0.87788
 C288 C 0.64508 1.05402 0.80758
 N289 N 0.66873 1.03087 0.77418
 N290 N 0.71363 1.03756 0.76798
 C291 C 0.73711 1.07000 0.79271
 H292 H 0.65634 1.15534 0.93351
 H293 H 0.72865 1.18514 0.90632
 H294 H 0.60855 1.04796 0.80909
 H295 H 0.77390 1.07157 0.78761
 C296 C 0.14766 0.33618 0.11389
 C297 C 0.16483 0.29421 0.13045
 C298 C 0.13511 0.25871 0.14482
 C299 C 0.08658 0.26534 0.14064
 C300 C 0.06903 0.30836 0.12377
 C301 C 0.10012 0.34435 0.11118
 C302 C 0.02088 0.31292 0.11809
 N303 N -0.00749 0.27737 0.12939
 N304 N 0.00889 0.23720 0.14516
 C305 C 0.05477 0.22978 0.15071
 H306 H 0.17190 0.36294 0.10387
 H307 H 0.20191 0.28968 0.13267
 H308 H 0.00529 0.34366 0.10360
 H309 H 0.06555 0.19571 0.16179
 C310 C -0.15505 0.33415 -0.10532
 C311 C -0.17420 0.29383 -0.12407
 C312 C -0.14596 0.25783 -0.14028
 C313 C -0.09744 0.26126 -0.13452
 C314 C -0.07791 0.30220 -0.11498
 C315 C -0.10709 0.33968 -0.10207
 C316 C -0.02989 0.30335 -0.10752
 N317 N -0.00345 0.26642 -0.11972
 N318 N -0.02169 0.22832 -0.13860
 C319 C -0.06770 0.22440 -0.14628
 H320 H -0.17796 0.36200 -0.09476
 H321 H -0.21136 0.29158 -0.12777
 H322 H -0.01309 0.33261 -0.09108
 H323 H -0.08058 0.19205 -0.16040
 C324 C 0.10781 0.66040 -0.14996
 C325 C 0.12569 0.70175 -0.16704
 C326 C 0.13600 0.73896 -0.13708
 C327 C 0.12559 0.73497 -0.08889
 C328 C 0.10770 0.69252 -0.07142
 C329 C 0.09998 0.65467 -0.10230
 C330 C 0.09644 0.69010 -0.02379
 N331 N 0.10307 0.72746 0.00429
 N332 N 0.11959 0.76727 -0.01207
 C333 C 0.13070 0.77245 -0.05760
 H334 H 0.10149 0.63203 -0.17406
 H335 H 0.13277 0.70416 -0.20400
 H336 H 0.08134 0.65944 -0.00867
 H337 H 0.14218 0.80622 -0.06881
 C338 C -0.08948 0.68953 0.10981
 C339 C -0.10619 0.73182 0.12621
 C340 C -0.15213 0.73632 0.14034
 C341 C -0.18180 0.69721 0.13831
 C342 C -0.16455 0.65398 0.12202
 C343 C -0.11787 0.65034 0.10800
 C344 C -0.19441 0.61547 0.12173
 N345 N -0.23855 0.62025 0.13648
 N346 N -0.25472 0.66075 0.15188
 C347 C -0.22788 0.69926 0.15356
 H348 H -0.05431 0.68756 0.09753
 H349 H -0.08320 0.76147 0.12736
 H350 H -0.18307 0.58148 0.11052
 H351 H -0.24278 0.73080 0.16737
 C352 C 1.08809 0.14945 0.67144
 C353 C 1.10580 0.16836 0.71244
 C354 C 1.13156 0.14115 0.74385
 C355 C 1.13277 0.09201 0.73661
 C356 C 1.11401 0.07270 0.69487
 C357 C 1.09429 0.10244 0.66068
 C358 C 1.11385 0.02395 0.68985
 N359 N 1.13165 -0.00335 0.72381
 N360 N 1.14868 0.01454 0.76302
 C361 C 1.14927 0.06095 0.77089
 H362 H 1.07155 0.17251 0.64670
 H363 H 1.10243 0.20554 0.71733
 H364 H 1.09801 0.00685 0.66045
 H365 H 1.16059 0.07251 0.80484
 C366 C 0.85302 -0.09492 0.67182
 C367 C 0.83355 -0.11361 0.71189
 C368 C 0.83837 -0.16102 0.72269
 C369 C 0.85881 -0.19092 0.68864
 C370 C 0.87835 -0.17170 0.64745
 C371 C 0.87724 -0.12285 0.64024
 C372 C 0.89609 -0.20252 0.61364
 N373 N 0.89459 -0.24896 0.62062
 N374 N 0.87556 -0.26699 0.65850
 C375 C 0.85707 -0.23981 0.69220
 H376 H 0.85058 -0.05777 0.66642
 H377 H 0.81710 -0.08988 0.73608
 H378 H 0.90942 -0.19080 0.58076
 H379 H 0.83918 -0.25715 0.71994
 C380 C 1.10271 -0.15648 0.33799
 C381 C 1.12232 -0.17639 0.29871
 C382 C 1.16897 -0.16906 0.28741
 C383 C 1.19750 -0.14571 0.32104
 C384 C 1.17690 -0.12463 0.36100
 C385 C 1.12846 -0.12817 0.36791
 C386 C 1.20606 -0.10303 0.39403
 N387 N 1.25230 -0.10257 0.38770
 N388 N 1.27171 -0.12323 0.35124
 C389 C 1.24622 -0.14532 0.31834
 H390 H 1.06630 -0.16193 0.34400
 H391 H 1.09953 -0.19571 0.27581
 H392 H 1.19335 -0.08825 0.42599
 H393 H 1.26503 -0.16429 0.29223
 C394 C 0.85058 0.09012 0.32602
 C395 C 0.83125 0.10799 0.28544
 C396 C 0.85759 0.13482 0.25458
 C397 C 0.90633 0.13740 0.26193
 C398 C 0.92615 0.11823 0.30311
 C399 C 0.89725 0.09704 0.33680
 C400 C 0.97457 0.11895 0.30791
 N401 N 1.00109 0.13801 0.27429
 N402 N 0.98274 0.15559 0.23565
 C403 C 0.93659 0.15542 0.22802
 H404 H 0.82812 0.07251 0.35032
 H405 H 0.79440 0.10380 0.28040
 H406 H 0.99206 0.10286 0.33681
 H407 H 0.92465 0.16735 0.19449
 C408 C 0.09386 0.32815 -0.14428
 C409 C 0.11180 0.28840 -0.16485
 C410 C 0.15869 0.27649 -0.16009
 C411 C 0.18884 0.30948 -0.13806
 C412 C 0.16997 0.34991 -0.11620
 C413 C 0.12156 0.35805 -0.11781
 C414 C 0.20069 0.38212 -0.09583
 N415 N 0.24679 0.37474 -0.09741
 N416 N 0.26455 0.33796 -0.11892
 C417 C 0.23746 0.30570 -0.13984
 H418 H 0.05725 0.33475 -0.14798
 H419 H 0.08769 0.26565 -0.18265
 H420 H 0.18925 0.41412 -0.08023
 H421 H 0.25487 0.27918 -0.15958
 C422 C -0.14638 0.32740 0.09736
 C423 C -0.16531 0.28688 0.11491
 C424 C -0.15552 0.27196 0.16043
 C425 C -0.12946 0.30193 0.19045
 C426 C -0.11102 0.34420 0.17264
 C427 C -0.11802 0.35584 0.12485
 C428 C -0.08837 0.37439 0.20417
 N429 N -0.08369 0.36276 0.24959
 N430 N -0.10119 0.32366 0.26632
 C431 C -0.12446 0.29342 0.23875
 H432 H -0.15318 0.33588 0.06122
 H433 H -0.18581 0.26568 0.09139
 H434 H -0.07600 0.40811 0.19446
 H435 H -0.14045 0.26452 0.25595
 C436 C -0.11553 0.65455 -0.15546
 C437 C -0.13375 0.69504 -0.17444
 C438 C -0.14634 0.73261 -0.14596
 C439 C -0.13791 0.72988 -0.09713
 C440 C -0.11985 0.68820 -0.07771
 C441 C -0.10968 0.64995 -0.10729
 C442 C -0.11089 0.68701 -0.02942
 N443 N -0.11973 0.72478 -0.00260
 N444 N -0.13622 0.76390 -0.02076
 C445 C -0.14519 0.76792 -0.06698
 H446 H -0.10726 0.62593 -0.17859
 H447 H -0.13929 0.69639 -0.21174
 H448 H -0.09592 0.65702 -0.01272
 H449 H -0.15663 0.80128 -0.07954
 C450 C 0.14843 0.66816 0.10008
 C451 C 0.16941 0.70762 0.11849
 C452 C 0.14610 0.73671 0.15003
 C453 C 0.09817 0.72859 0.15774
 C454 C 0.07679 0.68776 0.13944
 C455 C 0.10306 0.65615 0.11170
 C456 C 0.02934 0.68143 0.14826
 N457 N 0.00520 0.71367 0.17249
 N458 N 0.02468 0.75261 0.18767
 C459 C 0.06988 0.76155 0.18044
 H460 H 0.16887 0.64572 0.07788
 H461 H 0.20541 0.71334 0.11024
 H462 H 0.01008 0.65250 0.13506
 H463 H 0.08232 0.79536 0.19065
 C464 C 0.31836 1.12849 0.90659
 C465 C 0.27748 1.14718 0.88934
 C466 C 0.26882 1.14856 0.84137
 C467 C 0.30285 1.13201 0.80994
 C468 C 0.34480 1.11325 0.82757
 C469 C 0.35212 1.11098 0.87649
 C470 C 0.37868 1.09926 0.79534
 N471 N 0.37055 1.10299 0.74896
 N472 N 0.33121 1.12038 0.73247
 C473 C 0.29732 1.13533 0.76125
 H474 H 0.32335 1.12690 0.94396
 H475 H 0.25201 1.16005 0.91375
 H476 H 0.41201 1.08648 0.80615
 H477 H 0.26697 1.15050 0.74555
 C478 C 0.32443 0.90653 1.14087
 C479 C 0.28539 0.88626 1.16016
 C480 C 0.28037 0.83791 1.16125
 C481 C 0.31668 0.80926 1.14483
 C482 C 0.35682 0.82988 1.12569
 C483 C 0.35983 0.87906 1.12233
 C484 C 0.39330 0.80038 1.11227
 N485 N 0.38908 0.75371 1.11657
 N486 N 0.35121 0.73444 1.13398
 C487 C 0.31507 0.76053 1.14853
 H488 H 0.32634 0.94407 1.13918
 H489 H 0.25825 0.90861 1.17333
 H490 H 0.42572 0.81362 1.09972
 H491 H 0.28600 0.74280 1.16371
 C492 C 0.67970 1.08924 1.12291
 C493 C 0.71987 1.10708 1.14270
 C494 C 0.72415 1.15462 1.15247
 C495 C 0.68597 1.18453 1.14365
 C496 C 0.64539 1.16640 1.12240
 C497 C 0.64272 1.11842 1.11156
 C498 C 0.60799 1.19669 1.11458
 N499 N 0.61104 1.24190 1.12746
 N500 N 0.64866 1.25875 1.14816
 C501 C 0.68594 1.23168 1.15706
 H502 H 0.67786 1.05236 1.11544
 H503 H 0.74826 1.08353 1.14964
 H504 H 0.57598 1.18490 1.09925
 H505 H 0.71438 1.24724 1.17573
 C506 C 0.65647 0.84102 0.88666
 C507 C 0.69679 0.82298 0.86759
 C508 C 0.73274 0.85231 0.85374
 C509 C 0.72899 0.90073 0.86189
 C510 C 0.68801 0.91913 0.88173
 C511 C 0.65089 0.88894 0.89258
 C512 C 0.68647 0.96698 0.89184
 N513 N 0.72322 0.99429 0.88207
 N514 N 0.76141 0.97711 0.86297
 C515 C 0.76560 0.93135 0.85260
 H516 H 0.62881 0.81742 0.89559
 H517 H 0.69943 0.78578 0.86236
 H518 H 0.65708 0.98287 0.90854
 H519 H 0.79791 0.91932 0.83829
   
