data_POSCAR
  _audit_creation_date              2014-09-24
  _audit_creation_method            'ToBaCCo'
  _symmetry_space_group_name_H-M    'P1'
  _symmetry_Int_Tables_number       1
  _symmetry_cell_setting            triclinic
  loop_
  _symmetry_equiv_pos_as_xyz
 x,y,z
_cell_length_a 24.8468
_cell_length_b 26.1763
_cell_length_c 24.9619
_cell_angle_alpha 90.009600
_cell_angle_beta 90.110100
_cell_angle_gamma 89.912500
loop_
  _atom_site_label
  _atom_site_type_symbol
  _atom_site_fract_x
  _atom_site_fract_y
  _atom_site_fract_z
Si1 Si 1.24878 0.25001 0.24890
 Si2 Si 0.75025 -0.24977 0.24856
 Si3 Si 0.75045 0.25054 -0.24945
 Si4 Si 1.24920 -0.24899 -0.24976
 Si5 Si 0.24974 0.24938 0.75113
 Si6 Si 0.75091 0.74993 0.75110
 Si7 Si 0.75123 0.24959 0.24983
 Si8 Si 0.24983 0.74944 0.24943
 N9 N 1.09598 0.05098 0.06011
 N10 N 1.13266 0.08577 0.07124
 N11 N 1.05860 -0.05748 0.09431
 N12 N 1.07026 -0.09167 0.13148
 N13 N 1.09635 -0.05626 0.05758
 N14 N 1.13489 -0.08936 0.06908
 N15 N 1.05891 0.04977 0.09752
 N16 N 1.06953 0.08352 0.13535
 C17 C 1.11527 0.10598 0.11798
 C18 C 1.11761 -0.11170 0.11484
 N19 N 0.90507 -0.05512 0.05674
 N20 N 0.86707 -0.08884 0.06707
 N21 N 0.94275 0.05037 0.09734
 N22 N 0.93172 0.08356 0.13563
 N23 N 0.90573 0.05198 0.05973
 N24 N 0.86877 0.08650 0.07119
 N25 N 0.94277 -0.05675 0.09364
 N26 N 0.93167 -0.09181 0.12987
 Mn27 Mn 1.00074 -0.00354 0.09620
 C28 C 0.88472 -0.11183 0.11233
 C29 C 0.88586 0.10618 0.11832
 N30 N 1.09550 -0.05317 -0.05805
 N31 N 1.13245 -0.08761 -0.06969
 N32 N 1.05846 0.05551 -0.09209
 N33 N 1.06950 0.09041 -0.12854
 N34 N 1.09630 0.05397 -0.05532
 N35 N 1.13436 0.08758 -0.06605
 N36 N 1.05836 -0.05156 -0.09556
 N37 N 1.06924 -0.08466 -0.13391
 Mn38 Mn 1.09654 -0.00113 0.00107
 C39 C 1.11514 -0.10722 -0.11678
 C40 C 1.11658 0.11046 -0.11140
 N41 N 0.90516 0.05497 -0.05568
 N42 N 0.86704 0.08859 -0.06667
 N43 N 0.94226 -0.05112 -0.09592
 N44 N 0.93116 -0.08435 -0.13414
 N45 N 0.90518 -0.05227 -0.05853
 N46 N 0.86803 -0.08652 -0.07009
 N47 N 0.94284 0.05611 -0.09246
 N48 N 0.93159 0.09074 -0.12923
 Mn49 Mn 0.90480 -0.00010 0.00059
 Mn50 Mn 1.00050 0.00223 -0.09447
 Cl51 Cl 1.00066 -0.00065 0.00085
 C52 C 0.88457 0.11108 -0.11221
 C53 C 0.88512 -0.10651 -0.11706
 N54 N 1.09588 0.55373 0.55828
 N55 N 1.13303 0.58792 0.57009
 N56 N 1.05923 0.44497 0.59272
 N57 N 1.07057 0.41037 0.62949
 N58 N 1.09709 0.44641 0.55607
 N59 N 1.13540 0.41296 0.56726
 N60 N 1.05891 0.55217 0.59581
 N61 N 1.07016 0.58503 0.63434
 C62 C 1.11608 0.60745 0.61732
 C63 C 1.11782 0.39031 0.61276
 N64 N 0.90542 0.44561 0.55612
 N65 N 0.86706 0.41245 0.56749
 N66 N 0.94254 0.55180 0.59597
 N67 N 0.93089 0.58440 0.63464
 N68 N 0.90538 0.55300 0.55848
 N69 N 0.86768 0.58670 0.57048
 N70 N 0.94321 0.44450 0.59297
 N71 N 0.93167 0.41042 0.63020
 Mn72 Mn 1.00100 0.49834 0.59478
 C73 C 0.88443 0.39029 0.61338
 C74 C 0.88449 0.60633 0.61779
 N75 N 1.09655 0.44886 0.44029
 N76 N 1.13400 0.41483 0.42862
 N77 N 1.05878 0.55683 0.40523
 N78 N 1.07071 0.59012 0.36733
 N79 N 1.09624 0.55647 0.44245
 N80 N 1.13450 0.58976 0.43083
 N81 N 1.05918 0.44969 0.40298
 N82 N 1.07044 0.41655 0.36474
 Mn83 Mn 1.09692 0.50139 0.49929
 C84 C 1.11681 0.39470 0.38169
 C85 C 1.11760 0.61094 0.38419
 N86 N 0.90503 0.55527 0.44281
 N87 N 0.86675 0.58873 0.43182
 N88 N 0.94272 0.44924 0.40301
 N89 N 0.93119 0.41634 0.36454
 N90 N 0.90572 0.44800 0.44053
 N91 N 0.86834 0.41397 0.42881
 N92 N 0.94264 0.55645 0.40590
 N93 N 0.93111 0.59091 0.36906
 Mn94 Mn 0.90495 0.50049 0.49946
 Mn95 Mn 1.00080 0.50304 0.40387
 Cl96 Cl 1.00094 0.50083 0.49935
 C97 C 0.88406 0.61110 0.38614
 C98 C 0.88510 0.39420 0.38161
 N99 N 0.44152 0.09144 0.44607
 N100 N 0.42951 0.12958 0.41365
 N101 N 0.40318 0.05324 0.55639
 N102 N 0.36403 0.06538 0.58991
 N103 N 0.44153 0.08769 0.55828
 N104 N 0.42989 0.12364 0.59341
 N105 N 0.40415 0.05597 0.44399
 N106 N 0.36594 0.06902 0.40976
 C107 C 0.38280 0.11469 0.39073
 C108 C 0.38188 0.10891 0.61332
 N109 N 0.44135 -0.09290 0.55153
 N110 N 0.42949 -0.13074 0.58431
 N111 N 0.40347 -0.05500 0.44060
 N112 N 0.36382 -0.06804 0.40786
 N113 N 0.44193 -0.08948 0.43919
 N114 N 0.42979 -0.12630 0.40514
 N115 N 0.40387 -0.05744 0.55308
 N116 N 0.36571 -0.07013 0.58731
 Mn117 Mn 0.40318 -0.00079 0.49849
 C118 C 0.38271 -0.11561 0.60688
 C119 C 0.38141 -0.11212 0.38530
 N120 N 0.55696 0.08797 0.55903
 N121 N 0.56884 0.12443 0.59352
 N122 N 0.59523 0.05625 0.44518
 N123 N 0.63382 0.06936 0.41156
 N124 N 0.55774 0.09169 0.44671
 N125 N 0.57004 0.12991 0.41455
 N126 N 0.59534 0.05343 0.55763
 N127 N 0.63470 0.06600 0.59083
 Mn128 Mn 0.49941 0.08992 0.50250
 C129 C 0.61700 0.10990 0.61361
 C130 C 0.61710 0.11507 0.39230
 N131 N 0.55745 -0.08892 0.44000
 N132 N 0.56916 -0.12473 0.40479
 N133 N 0.59489 -0.05732 0.55428
 N134 N 0.63314 -0.07026 0.58854
 N135 N 0.55760 -0.09284 0.55224
 N136 N 0.56973 -0.13095 0.58472
 N137 N 0.59569 -0.05436 0.44191
 N138 N 0.63482 -0.06624 0.40834
 Mn139 Mn 0.49961 -0.09128 0.49576
 Mn140 Mn 0.59575 -0.00053 0.49976
 Cl141 Cl 0.49947 -0.00067 0.49911
 C142 C 0.61707 -0.10973 0.38488
 C143 C 0.61644 -0.11596 0.60766
 N144 N 0.59431 0.55234 0.05973
 N145 N 0.63175 0.58626 0.07135
 N146 N 0.55681 0.44403 0.09411
 N147 N 0.56835 0.40955 0.13103
 N148 N 0.59444 0.44515 0.05724
 N149 N 0.63275 0.41176 0.06835
 N150 N 0.55735 0.55123 0.09730
 N151 N 0.56898 0.58407 0.13575
 C152 C 0.61509 0.60603 0.11854
 C153 C 0.61547 0.38935 0.11401
 N154 N 0.40322 0.44611 0.05699
 N155 N 0.36505 0.41264 0.06772
 N156 N 0.44063 0.55193 0.09747
 N157 N 0.42860 0.58418 0.13644
 N158 N 0.40367 0.55346 0.05976
 N159 N 0.36589 0.58708 0.07188
 N160 N 0.44096 0.44461 0.09386
 N161 N 0.42975 0.40980 0.13038
 Mn162 Mn 0.49895 0.49796 0.09614
 C163 C 0.38264 0.38982 0.11314
 C164 C 0.38227 0.60634 0.11952
 N165 N 0.59423 0.44768 -0.05840
 N166 N 0.63184 0.41390 -0.07037
 N167 N 0.55722 0.55654 -0.09266
 N168 N 0.56882 0.59093 -0.12952
 N169 N 0.59497 0.55499 -0.05580
 N170 N 0.63350 0.58801 -0.06691
 N171 N 0.55729 0.44924 -0.09610
 N172 N 0.56909 0.41685 -0.13495
 Mn173 Mn 0.59492 0.50003 0.00072
 C174 C 0.61528 0.39462 -0.11792
 C175 C 0.61615 0.61066 -0.11253
 N176 N 0.40370 0.55584 -0.05599
 N177 N 0.36557 0.58938 -0.06712
 N178 N 0.44078 0.44981 -0.09612
 N179 N 0.42935 0.41694 -0.13462
 N180 N 0.40371 0.44862 -0.05866
 N181 N 0.36635 0.41461 -0.07048
 N182 N 0.44149 0.55699 -0.09270
 N183 N 0.43032 0.59162 -0.12948
 Mn184 Mn 0.40312 0.50101 0.00051
 Mn185 Mn 0.49917 0.50314 -0.09482
 Cl186 Cl 0.49903 0.50054 0.00065
 C187 C 0.38323 0.61187 -0.11259
 C188 C 0.38321 0.39486 -0.11767
 N189 N 1.21928 0.19830 0.15644
 C190 C 1.20560 0.20892 0.20778
 N191 N 1.16139 0.18664 0.22919
 N192 N 1.13170 0.15464 0.20006
 C193 C 1.14556 0.14370 0.14877
 N194 N 1.18979 0.16610 0.12742
 N195 N 1.21976 0.70007 0.65694
 C196 C 1.20718 0.70874 0.70898
 N197 N 1.16393 0.68490 0.73054
 N198 N 1.13418 0.65332 0.70096
 C199 C 1.14694 0.64432 0.64895
 N200 N 1.19026 0.66821 0.62746
 N201 N 0.73204 0.16515 0.68635
 C202 C 0.70916 0.20636 0.71023
 N203 N 0.65573 0.21479 0.70363
 N204 N 0.62625 0.18341 0.67354
 C205 C 0.64905 0.14218 0.64955
 N206 N 0.70247 0.13350 0.65657
 N207 N 0.66502 0.68328 0.23100
 C208 C 0.70755 0.70748 0.20847
 N209 N 0.71902 0.69892 0.15617
 N210 N 0.68907 0.66695 0.12731
 C211 C 0.64637 0.64285 0.14971
 N212 N 0.63477 0.65161 0.20203
 N213 N 0.84472 -0.20191 0.21727
 C214 C 0.79273 -0.21131 0.20416
 N215 N 0.77143 -0.18905 0.15990
 N216 N 0.80132 -0.15840 0.12957
 C217 C 0.85331 -0.14876 0.14283
 N218 N 0.87453 -0.17106 0.18714
 N219 N 0.77178 0.31113 0.66097
 C220 C 0.79263 0.29033 0.70627
 N221 N 0.84402 0.30164 0.72028
 N222 N 0.87359 0.33275 0.69009
 C223 C 0.85284 0.35358 0.64473
 N224 N 0.80144 0.34210 0.63061
 N225 N 0.27800 -0.15806 0.70049
 C226 C 0.29079 -0.20805 0.70713
 N227 N 0.33427 -0.22737 0.68139
 N228 N 0.36411 -0.19757 0.65007
 C229 C 0.35122 -0.14758 0.64319
 N230 N 0.30756 -0.12834 0.66881
 N231 N 0.26891 0.31374 0.16223
 C232 C 0.29095 0.28970 0.20510
 N233 N 0.34360 0.29751 0.21678
 N234 N 0.37320 0.32873 0.18676
 C235 C 0.35118 0.35285 0.14385
 N236 N 0.29859 0.34465 0.13195
 N237 N 0.84482 0.20131 -0.21785
 C238 C 0.79290 0.21133 -0.20490
 N239 N 0.77154 0.18925 -0.16065
 N240 N 0.80123 0.15830 -0.13018
 C241 C 0.85315 0.14808 -0.14325
 N242 N 0.87443 0.17014 -0.18759
 N243 N 0.77134 0.69013 0.33831
 C244 C 0.79226 0.71087 0.29314
 N245 N 0.84371 0.69972 0.27946
 N246 N 0.87334 0.66872 0.30983
 C247 C 0.85253 0.64792 0.35503
 N248 N 0.80106 0.65926 0.36887
 N249 N 0.27769 0.15854 0.29773
 C250 C 0.29041 0.20858 0.29176
 N251 N 0.33398 0.22748 0.31774
 N252 N 0.36396 0.19722 0.34865
 C253 C 0.35113 0.14717 0.35485
 N254 N 0.30738 0.12835 0.32900
 N255 N 0.34412 0.70354 -0.21705
 C256 C 0.29136 0.71123 -0.20584
 N257 N 0.26929 0.68733 -0.16302
 N258 N 0.29903 0.65666 -0.13235
 C259 C 0.35172 0.64858 -0.14377
 N260 N 0.37378 0.67254 -0.18664
 N261 N 1.16194 -0.18544 -0.22950
 C262 C 1.20635 -0.20790 -0.20839
 N263 N 1.21996 -0.19818 -0.15680
 N264 N 1.19025 -0.16665 -0.12723
 C265 C 1.14581 -0.14409 -0.14826
 N266 N 1.13202 -0.15411 -0.19983
 N267 N 1.16306 0.31557 0.26917
 C268 C 1.20716 0.29255 0.29030
 N269 N 1.22097 0.30240 0.34185
 N270 N 1.19177 0.33456 0.37129
 C271 C 1.14758 0.35761 0.35022
 N272 N 1.13364 0.34745 0.29871
 N273 N 0.65559 -0.21356 0.29402
 C274 C 0.70908 -0.20545 0.28814
 N275 N 0.73205 -0.16460 0.31253
 N276 N 0.70245 -0.13300 0.34224
 C277 C 0.64897 -0.14141 0.34861
 N278 N 0.62609 -0.18223 0.32403
 N279 N 0.66492 0.31774 -0.23112
 C280 C 0.70767 0.29334 -0.20888
 N281 N 0.71944 0.30173 -0.15655
 N282 N 0.68961 0.33363 -0.12742
 C283 C 0.64669 0.35793 -0.14953
 N284 N 0.63480 0.34936 -0.20188
 N285 N 1.15533 0.20120 -0.21657
 C286 C 1.20752 0.21057 -0.20413
 N287 N 1.22936 0.18801 -0.16026
 N288 N 1.19991 0.15716 -0.12969
 C289 C 1.14775 0.14753 -0.14228
 N290 N 1.12596 0.17012 -0.18621
 N291 N 1.16366 0.68989 0.27110
 C292 C 1.20932 0.71121 0.29082
 N293 N 1.22457 0.69996 0.34176
 N294 N 1.19507 0.66859 0.37190
 C295 C 1.14919 0.64746 0.35221
 N296 N 1.13402 0.65881 0.30130
 N297 N 0.66614 0.22755 0.31895
 C298 C 0.70980 0.20845 0.29327
 N299 N 0.72257 0.15842 0.29971
 N300 N 0.69288 0.12847 0.33106
 C301 C 0.64903 0.14747 0.35657
 N302 N 0.63617 0.19751 0.34994
 N303 N 0.73048 0.68598 -0.16214
 C304 C 0.70857 0.71009 -0.20506
 N305 N 0.65585 0.70247 -0.21666
 N306 N 0.62609 0.67143 -0.18656
 C307 C 0.64797 0.64727 -0.14359
 N308 N 0.70063 0.65526 -0.13177
 N309 N 0.83828 -0.18632 -0.22893
 C310 C 0.79397 -0.20860 -0.20766
 N311 N 0.78038 -0.19813 -0.15624
 N312 N 0.81000 -0.16614 -0.12705
 C313 C 0.85435 -0.14378 -0.14825
 N314 N 0.86811 -0.15454 -0.19964
 N315 N 0.83679 0.31585 0.26901
 C316 C 0.79345 0.29230 0.29079
 N317 N 0.78092 0.30153 0.34275
 N318 N 0.81055 0.33359 0.37191
 C319 C 0.85397 0.35717 0.35020
 N320 N 0.86666 0.34763 0.29827
 N321 N 0.26620 -0.16809 0.31288
 C322 C 0.28917 -0.20904 0.28848
 N323 N 0.34273 -0.21715 0.29492
 N324 N 0.37212 -0.18577 0.32516
 C325 C 0.34921 -0.14477 0.34954
 N326 N 0.29568 -0.13644 0.34278
 N327 N 0.27997 0.30128 -0.15623
 C328 C 0.29227 0.29226 -0.20829
 N329 N 0.33507 0.31646 -0.23033
 N330 N 0.36475 0.34849 -0.20115
 C331 C 0.35231 0.35770 -0.14908
 N332 N 0.30935 0.33359 -0.12716
 N333 N 1.23127 -0.18916 0.16406
 C334 C 1.20964 -0.21234 0.20761
 N335 N 1.15740 -0.20296 0.22001
 N336 N 1.12781 -0.17154 0.18992
 C337 C 1.14936 -0.14852 0.14621
 N338 N 1.20159 -0.15800 0.13374
 N339 N 1.15626 0.29977 0.71874
 C340 C 1.20816 0.28921 0.70619
 N341 N 1.23002 0.31100 0.66198
 N342 N 1.20086 0.34227 0.63128
 C343 C 1.14897 0.35307 0.64401
 N344 N 1.12720 0.33121 0.68824
 N345 N 0.72151 -0.15888 0.70145
 C346 C 0.70905 -0.20896 0.70777
 N347 N 0.66567 -0.22821 0.68170
 N348 N 0.63564 -0.19828 0.65042
 C349 C 0.64821 -0.14820 0.64389
 N350 N 0.69177 -0.12904 0.66983
 N351 N 0.65594 0.29763 0.21829
 C352 C 0.70840 0.28936 0.20608
 N353 N 0.72983 0.31303 0.16279
 N354 N 0.69977 0.34392 0.13261
 C355 C 0.64737 0.35254 0.14500
 N356 N 0.62596 0.32884 0.18837
 N357 N 0.83840 0.18533 0.23036
 C358 C 0.79441 0.20815 0.20872
 N359 N 0.78131 0.19831 0.15701
 N360 N 0.81107 0.16638 0.12790
 C361 C 0.85509 0.14347 0.14947
 N362 N 0.86837 0.15362 0.20115
 N363 N 0.77988 0.69830 0.65782
 C364 C 0.79294 0.70742 0.70972
 N365 N 0.83671 0.68398 0.73107
 N366 N 0.86649 0.65243 0.70145
 C367 C 0.85328 0.64300 0.64957
 N368 N 0.80941 0.66646 0.62829
 N369 N 0.26750 0.16414 0.68676
 C370 C 0.29074 0.20489 0.71114
 N371 N 0.34421 0.21287 0.70477
 N372 N 0.37338 0.18152 0.67440
 C373 C 0.35021 0.14078 0.64986
 N374 N 0.29675 0.13252 0.65668
 N375 N 0.33257 0.68346 0.23287
 C376 C 0.29018 0.70847 0.21059
 N377 N 0.27847 0.70007 0.15819
 N378 N 0.30808 0.66788 0.12910
 C379 C 0.35074 0.64315 0.15125
 N380 N 0.36248 0.65157 0.20368
   
