data_POSCAR
  _audit_creation_date              2014-09-24
  _audit_creation_method            'ToBaCCo'
  _symmetry_space_group_name_H-M    'P1'
  _symmetry_Int_Tables_number       1
  _symmetry_cell_setting            triclinic
  loop_
  _symmetry_equiv_pos_as_xyz
 x,y,z
_cell_length_a 18.1287
_cell_length_b 18.1310
_cell_length_c 18.1288
_cell_angle_alpha 90.124200
_cell_angle_beta 89.959400
_cell_angle_gamma 89.974400
loop_
  _atom_site_label
  _atom_site_type_symbol
  _atom_site_fract_x
  _atom_site_fract_y
  _atom_site_fract_z
C1 C 0.50761 0.99912 -0.69611
 C2 C 0.43859 0.98945 -0.66121
 C3 C 0.43857 0.97784 -0.58445
 C4 C 0.50334 0.98532 -0.54186
 C5 C 0.57061 0.99780 -0.57890
 C6 C 0.57423 1.00245 -0.65599
 C7 C 0.49999 0.98473 -0.45895
 C8 C 0.56424 0.97414 -0.41614
 C9 C 0.56290 0.98198 -0.33917
 C10 C 0.49470 0.99240 -0.30374
 C11 C 0.42947 1.00035 -0.34459
 C12 C 0.43309 0.99913 -0.42159
 H13 H 0.51012 0.99858 -0.75565
 H14 H 0.38726 0.96658 -0.55716
 H15 H 0.62031 1.00875 -0.54819
 H16 H 0.61646 0.96234 -0.44203
 H17 H 0.49240 0.99440 -0.24406
 H18 H 0.38322 1.01237 -0.45117
 C19 C -0.69535 1.50378 -0.01206
 C20 C -0.65884 1.43501 -0.01552
 C21 C -0.58144 1.43525 -0.01200
 C22 C -0.54122 1.50022 0.00273
 C23 C -0.58041 1.56702 0.01069
 C24 C -0.65676 1.57069 -0.00184
 C25 C -0.45849 1.49830 0.00715
 C26 C -0.41595 1.56279 -0.00288
 C27 C -0.33887 1.56153 0.00317
 C28 C -0.30326 1.49334 0.01288
 C29 C -0.34400 1.42796 0.02094
 C30 C -0.42105 1.43153 0.02113
 H31 H -0.75490 1.50549 -0.01160
 H32 H -0.55257 1.38475 -0.02445
 H33 H -0.55119 1.61716 0.02284
 H34 H -0.44189 1.61494 -0.01439
 H35 H -0.24356 1.49102 0.01310
 H36 H -0.45092 1.38152 0.03342
 C37 C -0.01735 0.30336 0.50174
 C38 C -0.02140 0.34035 0.43334
 C39 C -0.01967 0.41792 0.43418
 C40 C -0.00693 0.45818 0.49969
 C41 C 0.00074 0.41870 0.56615
 C42 C -0.00811 0.34219 0.56818
 C43 C -0.00258 0.54088 0.49839
 C44 C -0.01296 0.58308 0.56324
 C45 C -0.00344 0.66021 0.56376
 C46 C 0.00728 0.69556 0.49513
 C47 C 0.01470 0.65519 0.42934
 C48 C 0.01324 0.57831 0.43221
 H49 H -0.01760 0.24377 0.50415
 H50 H -0.03191 0.44674 0.38369
 H51 H 0.01221 0.44657 0.61743
 H52 H -0.02530 0.55563 0.61416
 H53 H 0.00687 0.75512 0.49187
 H54 H 0.02578 0.54851 0.38212
 O55 O -0.10552 0.99614 -0.18668
 O56 O -0.09524 0.99990 0.19211
 O57 O -0.18564 0.89328 0.00134
 O58 O -0.19055 1.09615 0.01152
 O59 O -0.10132 1.18690 0.01153
 O60 O -0.09199 0.80708 -0.00064
 O61 O -0.18556 0.99857 0.10252
 O62 O -0.19172 0.99566 -0.09298
 Zr63 Zr -0.12839 0.99624 0.00315
 O64 O -0.06477 1.06315 0.06896
 O65 O -0.06627 0.93182 -0.06688
 C66 C -0.17295 0.99520 -0.16175
 C67 C -0.16379 1.00275 0.17018
 C68 C -0.16073 0.82581 0.00089
 C69 C -0.16879 1.16456 0.01625
 H70 H -0.09155 0.89841 0.10008
 O71 O -0.06192 0.93062 0.06757
 H72 H -0.10293 1.09720 -0.09291
 O73 O -0.06926 1.06596 -0.06357
 O74 O 0.10868 0.99840 0.18650
 O75 O 0.09726 1.00957 -0.19194
 O76 O 0.01260 0.80909 0.09780
 O77 O -0.00635 1.18751 0.10496
 O78 O -0.00517 1.19086 -0.09839
 O79 O 0.00059 0.81226 -0.10550
 O80 O 0.19303 0.90301 -0.00516
 O81 O 0.18773 1.10675 -0.00798
 O82 O 0.10329 0.81271 -0.00570
 O83 O 0.09392 1.19253 -0.00391
 O84 O 0.01348 0.89923 0.18784
 O85 O -0.00189 0.90541 -0.19194
 O86 O -0.00708 1.10062 -0.18842
 O87 O -0.00130 1.09463 0.19152
 O88 O 0.19416 1.00312 0.09241
 O89 O 0.18807 1.01108 -0.10278
 Zr90 Zr 0.00518 0.99797 0.12964
 Zr91 Zr -0.00268 1.00199 -0.12968
 Zr92 Zr 0.00415 0.87032 -0.00249
 Zr93 Zr -0.00214 1.12960 0.00218
 Zr94 Zr 0.13081 1.00361 -0.00345
 O95 O 0.06421 1.06951 -0.06756
 O96 O 0.07176 0.93370 0.06365
 C97 C 0.17611 1.00096 0.16131
 C98 C 0.16576 1.01389 -0.17036
 C99 C 0.01701 0.83139 0.16611
 C100 C -0.00814 1.16291 0.17251
 C101 C -0.00753 1.16854 -0.16678
 C102 C -0.00027 0.83678 -0.17316
 C103 C 0.17110 0.83442 -0.00686
 C104 C 0.16257 1.17415 -0.00955
 H105 H 0.09908 0.90703 -0.10265
 O106 O 0.06740 0.93658 -0.06946
 H107 H 0.09916 1.10054 0.09716
 O108 O 0.06815 1.06797 0.06623
 C109 C 0.36892 1.03395 0.23115
 C110 C 0.37140 0.99374 0.29772
 C111 C 0.30455 0.96098 0.32217
 C112 C 0.23951 0.96622 0.28038
 C113 C 0.23955 1.00325 0.21272
 C114 C 0.30459 1.03825 0.18961
 H115 H 0.41599 1.06460 0.21115
 H116 H 0.30211 0.92787 0.37155
 H117 H 0.19022 0.93880 0.29956
 H118 H 0.30603 1.06905 0.13846
 C119 C -0.35313 1.04855 0.23979
 C120 C -0.35696 1.01064 0.30728
 C121 C -0.29093 0.97920 0.33520
 C122 C -0.22556 0.97974 0.29329
 C123 C -0.22477 1.01275 0.22351
 C124 C -0.28821 1.05002 0.19915
 H125 H -0.40029 1.07788 0.21790
 H126 H -0.29070 0.94911 0.38668
 H127 H -0.17735 0.95079 0.31338
 H128 H -0.28855 1.07844 0.14660
 C129 C -0.36059 1.03670 -0.23836
 C130 C -0.36699 0.98562 -0.29636
 C131 C -0.30539 0.94131 -0.31411
 C132 C -0.23981 0.94681 -0.27324
 C133 C -0.23533 0.99606 -0.21368
 C134 C -0.29592 1.04141 -0.19733
 H135 H -0.40568 1.07342 -0.22457
 H136 H -0.30842 0.90113 -0.35825
 H137 H -0.19404 0.91052 -0.28596
 H138 H -0.29352 1.08008 -0.15173
 C139 C 0.35296 1.05886 -0.24569
 C140 C 0.35757 1.01170 -0.30686
 C141 C 0.29383 0.97339 -0.32973
 C142 C 0.22822 0.97831 -0.28889
 C143 C 0.22576 1.02151 -0.22473
 C144 C 0.28785 1.06371 -0.20517
 H145 H 0.40040 1.09055 -0.22796
 H146 H 0.29588 0.93671 -0.37692
 H147 H 0.18136 0.94481 -0.30460
 H148 H 0.28704 1.09808 -0.15618
 C149 C 0.32981 1.29990 0.00582
 C150 C 0.30102 1.36754 -0.02123
 C151 C 0.22940 1.36636 -0.05137
 C152 C 0.18675 1.30264 -0.04967
 C153 C 0.21387 1.23706 -0.01873
 C154 C 0.28670 1.23549 0.00692
 H155 H 0.38386 1.29701 0.03086
 H156 H 0.20555 1.41435 -0.07746
 H157 H 0.13133 1.30526 -0.07173
 H158 H 0.30900 1.18571 0.03117
 C159 C 0.32951 0.70350 0.03245
 C160 C 0.30576 0.63959 -0.00623
 C161 C 0.24327 0.64627 -0.05188
 C162 C 0.20392 0.71186 -0.05558
 C163 C 0.22461 0.77337 -0.01333
 C164 C 0.28894 0.76961 0.02922
 H165 H 0.37636 0.70181 0.06927
 H166 H 0.22480 0.60113 -0.08640
 H167 H 0.15519 0.71375 -0.09017
 H168 H 0.30540 0.81607 0.06306
 C169 C -0.23565 0.63950 0.05108
 C170 C -0.29585 0.63165 0.00304
 C171 C -0.31522 0.69180 -0.04242
 C172 C -0.27405 0.75741 -0.04084
 C173 C -0.21248 0.76336 0.00550
 C174 C -0.19433 0.70417 0.05186
 H175 H -0.22035 0.59553 0.08841
 H176 H -0.36091 0.68758 -0.08059
 H177 H -0.28825 0.80199 -0.07790
 H178 H -0.14715 0.70772 0.08833
 C179 C -0.24284 1.34955 0.07216
 C180 C -0.30603 1.35569 0.02814
 C181 C -0.33015 1.29344 -0.01200
 C182 C -0.28876 1.22800 -0.01201
 C183 C -0.22276 1.22428 0.02798
 C184 C -0.20177 1.28464 0.07209
 H185 H -0.22397 1.39575 0.10506
 H186 H -0.37881 1.29669 -0.04646
 H187 H -0.30567 1.18240 -0.04676
 H188 H -0.15142 1.28270 0.10423
 C189 C -0.05596 1.22918 0.36344
 C190 C -0.02577 1.30069 0.36562
 C191 C 0.00281 1.32994 0.29885
 C192 C 0.00585 1.28704 0.23431
 C193 C -0.01975 1.21423 0.23495
 C194 C -0.05302 1.18697 0.29939
 H195 H -0.08301 1.20525 0.41089
 H196 H 0.02780 1.38407 0.29699
 H197 H 0.03157 1.30943 0.18529
 H198 H -0.07585 1.13176 0.30085
 C199 C -0.06335 1.24736 -0.34904
 C200 C -0.01047 1.30272 -0.36003
 C201 C 0.03858 1.31988 -0.30210
 C202 C 0.03672 1.27987 -0.23591
 C203 C -0.01406 1.22229 -0.22705
 C204 C -0.06492 1.20752 -0.28353
 H205 H -0.10309 1.23414 -0.39165
 H206 H 0.08014 1.36216 -0.30902
 H207 H 0.07739 1.29104 -0.19371
 H208 H -0.10455 1.16314 -0.27780
 C209 C 0.03835 0.76745 -0.36473
 C210 C -0.00188 0.70103 -0.36884
 C211 C -0.03726 0.67639 -0.30336
 C212 C -0.03437 0.71805 -0.23788
 C213 C 0.00363 0.78521 -0.23628
 C214 C 0.04093 0.80844 -0.29995
 H215 H 0.07042 0.78760 -0.41080
 H216 H -0.07069 0.62709 -0.30270
 H217 H -0.06448 0.69949 -0.18976
 H218 H 0.07196 0.85949 -0.29996
 C219 C 0.06709 0.75709 0.35265
 C220 C 0.02332 0.69361 0.35738
 C221 C -0.01507 0.66965 0.29397
 C222 C -0.01332 0.71127 0.22873
 C223 C 0.02641 0.77754 0.22637
 C224 C 0.06834 0.79852 0.28812
 H225 H 0.09883 0.77596 0.39962
 H226 H -0.04938 0.62083 0.29597
 H227 H -0.04641 0.69415 0.18207
 H228 H 0.09996 0.84904 0.28741
   
