data_POSCAR
  _audit_creation_date              2014-09-24
  _audit_creation_method            'ToBaCCo'
  _symmetry_space_group_name_H-M    'P1'
  _symmetry_Int_Tables_number       1
  _symmetry_cell_setting            triclinic
  loop_
  _symmetry_equiv_pos_as_xyz
 x,y,z
_cell_length_a 38.7477
_cell_length_b 38.5244
_cell_length_c 38.8160
_cell_angle_alpha 94.465000
_cell_angle_beta 95.388600
_cell_angle_gamma 95.530700
loop_
  _atom_site_label
  _atom_site_type_symbol
  _atom_site_fract_x
  _atom_site_fract_y
  _atom_site_fract_z
C1 C 0.70556 0.70413 0.96133
 H2 H 0.73141 0.71022 0.95367
 C3 C 0.67819 0.72255 0.94877
 H4 H 0.68324 0.74298 0.93170
 C5 C 0.66666 0.66818 0.99032
 H6 H 0.66184 0.64624 1.00554
 C7 C 0.63862 0.68519 0.97769
 H8 H 0.61262 0.67651 0.98375
 N9 N 0.69938 0.67767 0.98199
 C10 C 0.79934 0.65017 1.02785
 H11 H 0.79062 0.62259 1.02738
 C12 C 0.83352 0.66230 1.04025
 H13 H 0.85092 0.64391 1.04959
 C14 C 0.78716 0.70728 1.01540
 H15 H 0.76893 0.72465 1.00581
 C16 C 0.82157 0.72057 1.02727
 H17 H 0.82932 0.74828 1.02704
 Zn18 Zn 0.73395 0.64826 0.99569
 N19 N 0.77711 0.67240 1.01516
 C20 C 0.77326 0.63010 0.94223
 N21 N 0.74282 0.62064 0.95551
 C22 C 0.71918 0.59499 0.93873
 C23 C 0.72658 0.57680 0.90800
 C24 C 0.78149 0.61299 0.91170
 C25 C 0.71457 0.64354 1.06029
 C26 C 0.70154 0.63018 1.08921
 C27 C 0.69673 0.57221 1.05948
 C28 C 0.71000 0.58695 1.03079
 N29 N 0.71777 0.62223 1.03155
 H30 H 0.79114 0.65150 0.95489
 H31 H 0.69454 0.58884 0.94903
 H32 H 0.70745 0.55654 0.89502
 H33 H 0.80606 0.62089 0.90188
 H34 H 0.72194 0.67138 1.06050
 H35 H 0.70075 0.64866 1.11140
 H36 H 0.68991 0.54414 1.05805
 H37 H 0.71358 0.57032 1.00794
 C38 C 0.84534 0.69764 1.03924
 C39 C 0.64416 0.71264 0.95666
 C40 C 0.69098 0.59398 1.08894
 C41 C 0.75838 0.58569 0.89436
 C42 C 0.72955 0.34815 0.51005
 H43 H 0.75617 0.35143 0.52198
 C44 C 0.70463 0.32586 0.52335
 H45 H 0.71286 0.31133 0.54485
 C46 C 0.68719 0.36335 0.46728
 H47 H 0.68042 0.37859 0.44590
 C48 C 0.66130 0.34150 0.47997
 H49 H 0.63471 0.33994 0.46806
 N50 N 0.72049 0.36644 0.48265
 C51 C 0.81699 0.39646 0.43915
 H52 H 0.81495 0.42417 0.43799
 C53 C 0.84507 0.38152 0.42631
 H54 H 0.86470 0.39784 0.41515
 C55 C 0.79346 0.34135 0.45451
 H56 H 0.77289 0.32561 0.46473
 C57 C 0.82133 0.32538 0.44230
 H58 H 0.82162 0.29740 0.44308
 Zn59 Zn 0.75531 0.39928 0.46999
 N60 N 0.79214 0.37640 0.45328
 C61 C 0.80604 0.43071 0.52310
 N62 N 0.77175 0.42828 0.51097
 C63 C 0.74787 0.44128 0.53062
 C64 C 0.75786 0.45538 0.56481
 C65 C 0.81716 0.44479 0.55694
 C66 C 0.72818 0.40643 0.40264
 C67 C 0.71520 0.42313 0.37432
 C68 C 0.72107 0.47728 0.41126
 C69 C 0.73412 0.45951 0.43891
 N70 N 0.73713 0.42466 0.43412
 H71 H 0.82464 0.42004 0.50733
 H72 H 0.72067 0.43858 0.52051
 H73 H 0.73828 0.46390 0.58080
 H74 H 0.84451 0.44583 0.56616
 H75 H 0.73096 0.37871 0.39965
 H76 H 0.70726 0.40762 0.34994
 H77 H 0.71837 0.50497 0.41548
 H78 H 0.74171 0.47350 0.46413
 C79 C 0.84774 0.34571 0.42829
 C80 C 0.66969 0.32312 0.50891
 C81 C 0.71164 0.45915 0.37840
 C82 C 0.79260 0.45569 0.57883
 C83 C 0.23191 -0.14416 0.02066
 H84 H 0.25751 -0.14136 0.03496
 C85 C 0.20463 -0.16487 0.03239
 H86 H 0.20954 -0.17832 0.05558
 C87 C 0.19406 -0.12850 -0.02583
 H88 H 0.18983 -0.11366 -0.04805
 C89 C 0.16596 -0.14884 -0.01491
 H90 H 0.14069 -0.15012 -0.02965
 N91 N 0.22618 -0.12627 -0.00781
 C92 C 0.32788 -0.09727 -0.04344
 H93 H 0.32629 -0.06962 -0.04554
 C94 C 0.35690 -0.11269 -0.05365
 H95 H 0.37705 -0.09651 -0.06409
 C96 C 0.30209 -0.15181 -0.02902
 H97 H 0.28048 -0.16711 -0.01996
 C98 C 0.33064 -0.16828 -0.03884
 H99 H 0.33071 -0.19620 -0.03706
 Zn100 Zn 0.26295 -0.09381 -0.01801
 N101 N 0.30140 -0.11681 -0.03108
 C102 C 0.31003 -0.05710 0.03637
 N103 N 0.27602 -0.06403 0.02329
 C104 C 0.24992 -0.05445 0.04196
 C105 C 0.25746 -0.03938 0.07608
 C106 C 0.31875 -0.04136 0.07009
 C107 C 0.24004 -0.08623 -0.08704
 C108 C 0.22694 -0.06941 -0.11526
 C109 C 0.23040 -0.01598 -0.07750
 C110 C 0.24341 -0.03396 -0.05003
 N111 N 0.24735 -0.06855 -0.05514
 H112 H 0.33041 -0.06527 0.02144
 H113 H 0.22308 -0.06050 0.03105
 H114 H 0.23631 -0.03337 0.09115
 H115 H 0.34585 -0.03736 0.08069
 H116 H 0.24380 -0.11371 -0.09038
 H117 H 0.22071 -0.08449 -0.14022
 H118 H 0.22751 0.01134 -0.07166
 H119 H 0.24988 -0.02037 -0.02446
 C120 C 0.35868 -0.14874 -0.05110
 C121 C 0.17097 -0.16668 0.01513
 C122 C 0.22121 -0.03384 -0.11089
 C123 C 0.29225 -0.03379 0.09081
 C124 C 0.20709 0.19957 0.46573
 H125 H 0.23409 0.20751 0.46292
 C126 C 0.18107 0.21771 0.45014
 H127 H 0.18855 0.23993 0.43605
 C128 C 0.16458 0.16095 0.48735
 H129 H 0.15819 0.13820 0.50108
 C130 C 0.13786 0.17848 0.47252
 H131 H 0.11104 0.16930 0.47536
 N132 N 0.19843 0.17154 0.48365
 C133 C 0.28856 0.17245 0.55025
 H134 H 0.27293 0.16238 0.56953
 C135 C 0.32271 0.18704 0.56049
 H136 H 0.33270 0.18848 0.58765
 C137 C 0.29564 0.18106 0.49147
 H138 H 0.28529 0.17760 0.46443
 C139 C 0.33005 0.19559 0.50056
 H140 H 0.34524 0.20443 0.48033
 Zn141 Zn 0.23234 0.14305 0.50085
 N142 N 0.27575 0.16948 0.51617
 C143 C 0.26738 0.09052 0.47042
 N144 N 0.24121 0.11100 0.46429
 C145 C 0.22525 0.11224 0.43171
 C146 C 0.23625 0.09301 0.40350
 C147 C 0.27896 0.07065 0.44304
 C148 C 0.20534 0.14106 0.56452
 C149 C 0.19335 0.12697 0.59371
 C150 C 0.20061 0.06927 0.56818
 C151 C 0.21266 0.08457 0.53935
 N152 N 0.21528 0.11997 0.53835
 H153 H 0.28029 0.09088 0.49642
 H154 H 0.20493 0.12920 0.42732
 H155 H 0.22400 0.09499 0.37756
 H156 H 0.30085 0.05577 0.44840
 H157 H 0.20692 0.16904 0.56270
 H158 H 0.18506 0.14448 0.61375
 H159 H 0.19878 0.04110 0.56881
 H160 H 0.21999 0.06817 0.51794
 C161 C 0.34424 0.19787 0.53546
 C162 C 0.14584 0.20673 0.45299
 C163 C 0.19149 0.09062 0.59616
 C164 C 0.26352 0.07205 0.40896
 C165 C 0.19579 0.46421 0.20914
 H166 H 0.19490 0.45214 0.23324
 C167 C 0.21543 0.45070 0.18384
 H168 H 0.22995 0.42882 0.18933
 C169 C 0.17812 0.50735 0.17298
 H170 H 0.16330 0.52922 0.16859
 C171 C 0.19749 0.49472 0.14700
 H172 H 0.19722 0.50696 0.12279
 N173 N 0.17641 0.49108 0.20276
 C174 C 0.13940 0.52361 0.30201
 H175 H 0.11185 0.51644 0.29470
 C176 C 0.15107 0.53703 0.33590
 H177 H 0.13228 0.53955 0.35465
 C178 C 0.19723 0.52762 0.28630
 H179 H 0.21498 0.52380 0.26677
 C180 C 0.21013 0.54077 0.32020
 H181 H 0.23795 0.54705 0.32672
 Zn182 Zn 0.14215 0.50139 0.23310
 N183 N 0.16234 0.51962 0.27792
 C184 C 0.13167 0.43837 0.26200
 N185 N 0.11590 0.45842 0.23918
 C186 C 0.08373 0.44765 0.22254
 C187 C 0.06649 0.41532 0.22838
 C188 C 0.11543 0.40609 0.26865
 C189 C 0.11491 0.56679 0.23222
 C190 C 0.09790 0.59349 0.21804
 C191 C 0.07860 0.55432 0.16684
 C192 C 0.09582 0.52817 0.18216
 N193 N 0.11399 0.53491 0.21415
 H194 H 0.15677 0.44783 0.27576
 H195 H 0.07124 0.46405 0.20495
 H196 H 0.04071 0.40729 0.21527
 H197 H 0.12837 0.39168 0.28794
 H198 H 0.12997 0.57226 0.25719
 H199 H 0.09985 0.61892 0.23253
 H200 H 0.06469 0.54838 0.14126
 H201 H 0.09590 0.50296 0.16785
 C202 C 0.18685 0.54614 0.34527
 C203 C 0.21509 0.46502 0.15160
 C204 C 0.08032 0.58784 0.18458
 C205 C 0.08239 0.39396 0.25156
 C206 C -0.14957 0.01508 0.22236
 H207 H -0.14523 0.02779 0.24849
 C208 C -0.17097 0.02895 0.19720
 H209 H -0.18310 0.05182 0.20537
 C210 C -0.13802 -0.03019 0.18160
 H211 H -0.12462 -0.05284 0.17548
 C212 C -0.15932 -0.01724 0.15551
 H213 H -0.16213 -0.03045 0.12956
 N214 N -0.13358 -0.01390 0.21429
 C215 C -0.11028 -0.06365 0.30944
 H216 H -0.08314 -0.06719 0.30756
 C217 C -0.12717 -0.07679 0.33667
 H218 H -0.11270 -0.09016 0.35586
 C219 C -0.16175 -0.04098 0.28717
 H220 H -0.17530 -0.02725 0.26778
 C221 C -0.17946 -0.05317 0.31429
 H222 H -0.20648 -0.04859 0.31558
 Zn223 Zn -0.10251 -0.02784 0.25004
 N224 N -0.12763 -0.04598 0.28548
 C225 C -0.07030 0.02275 0.30296
 N226 N -0.07345 0.01305 0.26830
 C227 C -0.06017 0.03466 0.24559
 C228 C -0.04495 0.06842 0.25730
 C229 C -0.05497 0.05606 0.31580
 C230 C -0.09321 -0.09474 0.22136
 C231 C -0.07510 -0.12158 0.20820
 C232 C -0.02185 -0.08253 0.21901
 C233 C -0.04105 -0.05637 0.23192
 N234 N -0.07611 -0.06280 0.23251
 H235 H -0.08097 0.00526 0.32062
 H236 H -0.06327 0.02640 0.21810
 H237 H -0.03613 0.08596 0.23869
 H238 H -0.05312 0.06313 0.34348
 H239 H -0.12106 -0.09924 0.22249
 H240 H -0.08927 -0.14671 0.19897
 H241 H 0.00577 -0.07621 0.21787
 H242 H -0.02797 -0.03084 0.24116
 C243 C -0.16226 -0.07151 0.33928
 C244 C -0.17580 0.01312 0.16281
 C245 C -0.03896 -0.11576 0.20688
 C246 C -0.04360 0.08001 0.29260
 C247 C 0.35019 0.51205 0.72331
 H248 H 0.35387 0.52557 0.74909
 C249 C 0.32959 0.52508 0.69695
 H250 H 0.31722 0.54861 0.70270
 C251 C 0.36311 0.46577 0.68428
 H252 H 0.37667 0.44298 0.67932
 C253 C 0.34267 0.47789 0.65710
 H254 H 0.34017 0.46351 0.63180
 N255 N 0.36656 0.48300 0.71656
 C256 C 0.39012 0.43552 0.81238
 H257 H 0.41713 0.43175 0.81004
 C258 C 0.37379 0.42297 0.84008
 H259 H 0.38836 0.40940 0.85906
 C260 C 0.33825 0.45763 0.79030
 H261 H 0.32436 0.47073 0.77060
 C262 C 0.32096 0.44580 0.81784
 H263 H 0.29375 0.44962 0.81865
 Zn264 Zn 0.39731 0.46983 0.75267
 N265 N 0.37238 0.45283 0.78844
 C266 C 0.43115 0.51974 0.80502
 N267 N 0.42691 0.51050 0.77025
 C268 C 0.43880 0.53269 0.74737
 C269 C 0.45342 0.56665 0.75910
 C270 C 0.44593 0.55319 0.81786
 C271 C 0.40424 0.40189 0.72717
 C272 C 0.42048 0.37416 0.71302
 C273 C 0.47405 0.41267 0.71694
 C274 C 0.45674 0.43970 0.73112
 N275 N 0.42235 0.43391 0.73547
 H276 H 0.42160 0.50184 0.82284
 H277 H 0.43482 0.52480 0.71980
 H278 H 0.46097 0.58471 0.74044
 H279 H 0.44853 0.55998 0.84562
 H280 H 0.37685 0.39817 0.73090
 H281 H 0.40492 0.34947 0.70537
 H282 H 0.50130 0.41778 0.71291
 H283 H 0.47057 0.46540 0.73804
 C284 C 0.33901 0.42857 0.84338
 C285 C 0.32615 0.50840 0.66320
 C286 C 0.45592 0.37941 0.70763
 C287 C 0.45557 0.57774 0.79459
 C288 C 0.69717 0.96808 0.70672
 H289 H 0.70206 0.95989 0.73258
 C290 C 0.71692 0.95659 0.68053
 H291 H 0.73699 0.93979 0.68678
 C292 C 0.66586 1.00080 0.66775
 H293 H 0.64601 1.01796 0.66254
 C294 C 0.68500 0.99006 0.64088
 H295 H 0.67928 0.99888 0.61533
 N296 N 0.67097 0.98836 0.69951
 C297 C 0.65369 0.98989 0.80455
 H298 H 0.63368 0.96807 0.79977
 C299 C 0.66852 0.99948 0.83849
 H300 H 0.65896 0.98465 0.85877
 C301 C 0.68789 1.03648 0.78373
 H302 H 0.69506 1.05091 0.76221
 C303 C 0.70289 1.04755 0.81752
 H304 H 0.72180 1.07049 0.82162
 Zn305 Zn 0.63888 0.99593 0.73310
 N306 N 0.66319 1.00852 0.77799
 C307 C 0.62498 0.92338 0.73788
 N308 N 0.60980 0.95360 0.73522
 C309 C 0.57519 0.95451 0.73823
 C310 C 0.55476 0.92452 0.74542
 C311 C 0.60560 0.89290 0.74510
 C312 C 0.61503 1.06345 0.73939
 C313 C 0.59896 1.09169 0.72729
 C314 C 0.57201 1.05394 0.67754
 C315 C 0.58870 1.02640 0.69056
 N316 N 0.61101 1.03197 0.72018
 H317 H 0.65254 0.92316 0.73620
 H318 H 0.56377 0.97895 0.73707
 H319 H 0.52787 0.92665 0.74976
 H320 H 0.61854 0.86953 0.74860
 H321 H 0.63168 1.06722 0.76353
 H322 H 0.60338 1.11676 0.74252
 H323 H 0.55586 1.04955 0.65295
 H324 H 0.58526 1.00093 0.67610
 C325 C 0.69332 1.02903 0.84560
 C326 C 0.70973 0.96636 0.64661
 C327 C 0.57838 1.08743 0.69516
 C328 C 0.57022 0.89330 0.74961
 C329 C 0.01087 0.22692 -0.15229
 H330 H 0.02227 0.25385 -0.15038
 C331 C 0.02441 0.20161 -0.17320
 H332 H 0.04545 0.20982 -0.18814
 C333 C -0.03048 0.18413 -0.13479
 H334 H -0.05125 0.17730 -0.11905
 C335 C -0.01748 0.15783 -0.15519
 H336 H -0.02862 0.13094 -0.15521
 N337 N -0.01591 0.21785 -0.13346
 C338 C -0.05791 0.31589 -0.10591
 H339 H -0.05776 0.31433 -0.07819
 C340 C -0.07173 0.34374 -0.12134
 H341 H -0.08189 0.36381 -0.10526
 C342 C -0.04468 0.29157 -0.16051
 H343 H -0.03477 0.27087 -0.17583
 C344 C -0.05760 0.31936 -0.17691
 H345 H -0.05730 0.32000 -0.20473
 Zn346 Zn -0.02814 0.25333 -0.10192
 N347 N -0.04482 0.29049 -0.12556
 C348 C 0.02920 0.30198 -0.07640
 N349 N 0.01346 0.26946 -0.07315
 C350 C 0.02993 0.24628 -0.05445
 C351 C 0.06412 0.25511 -0.03910
 C352 C 0.06349 0.31158 -0.06208
 C353 C -0.09530 0.22437 -0.09492
 C354 C -0.12323 0.21056 -0.07830
 C355 C -0.08680 0.22089 -0.02371
 C356 C -0.05959 0.23458 -0.04151
 N357 N -0.06410 0.23544 -0.07653
 H358 H 0.01607 0.31972 -0.09200
 H359 H 0.01719 0.22024 -0.05307
 H360 H 0.07750 0.23595 -0.02554
 H361 H 0.07625 0.33696 -0.06623
 H362 H -0.09833 0.22600 -0.12273
 H363 H -0.14759 0.20146 -0.09388
 H364 H -0.08160 0.22091 0.00408
 H365 H -0.03486 0.24452 -0.02726
 C366 C -0.07180 0.34552 -0.15734
 C367 C 0.01096 0.16628 -0.17392
 C368 C -0.11935 0.20796 -0.04218
 C369 C 0.08165 0.28755 -0.04413
 C370 C 0.46658 0.20765 0.19963
 H371 H 0.45791 0.23354 0.20105
 C372 C 0.45300 0.18255 0.22029
 H373 H 0.43405 0.18937 0.23779
 C374 C 0.50020 0.16662 0.17363
 H375 H 0.51743 0.15994 0.15441
 C376 C 0.48744 0.14083 0.19384
 H377 H 0.49521 0.11475 0.18959
 N378 N 0.48967 0.19930 0.17678
 C379 C 0.53760 0.29748 0.14565
 H380 H 0.53418 0.28988 0.11802
 C381 C 0.55224 0.33111 0.15783
 H382 H 0.55961 0.34917 0.13916
 C383 C 0.52959 0.28331 0.20290
 H384 H 0.52030 0.26465 0.22021
 C385 C 0.54396 0.31700 0.21627
 H386 H 0.54576 0.32411 0.24398
 Zn387 Zn 0.50338 0.23210 0.14535
 N388 N 0.52626 0.27453 0.16803
 C389 C 0.44988 0.27325 0.13366
 N390 N 0.46215 0.24372 0.12024
 C391 C 0.44409 0.22366 0.09271
 C392 C 0.41396 0.23486 0.07591
 C393 C 0.41992 0.28503 0.11813
 C394 C 0.56648 0.20883 0.13670
 C395 C 0.59417 0.19638 0.12088
 C396 C 0.56029 0.19493 0.06523
 C397 C 0.53300 0.20760 0.08227
 N398 N 0.53651 0.21388 0.11752
 H399 H 0.46322 0.28779 0.15679
 H400 H 0.45311 0.19923 0.08360
 H401 H 0.40049 0.21944 0.05323
 H402 H 0.41089 0.30855 0.12965
 H403 H 0.56869 0.21423 0.16464
 H404 H 0.61701 0.19143 0.13726
 H405 H 0.55717 0.18970 0.03723
 H406 H 0.50939 0.21261 0.06727
 C407 C 0.55547 0.34136 0.19360
 C408 C 0.46335 0.14860 0.21751
 C409 C 0.59154 0.18959 0.08457
 C410 C 0.40223 0.26653 0.08803
 C411 C 0.95407 0.71017 0.69119
 H412 H 0.94448 0.73557 0.69007
 C413 C 0.93873 0.68560 0.71139
 H414 H 0.91749 0.69235 0.72602
 C415 C 0.99204 0.66978 0.67201
 H416 H 1.01174 0.66301 0.65552
 C417 C 0.97761 0.64456 0.69192
 H418 H 0.98666 0.61885 0.69023
 N419 N 0.98030 0.70195 0.67206
 C420 C 1.03058 0.80096 0.64433
 H421 H 1.03012 0.79365 0.61679
 C422 C 1.04494 0.83427 0.65808
 H423 H 1.05490 0.85246 0.64062
 C424 C 1.01637 0.78610 0.69976
 H425 H 1.00522 0.76718 0.71583
 C426 C 1.03043 0.81935 0.71467
 H427 H 1.02992 0.82588 0.74225
 Zn428 Zn 0.99721 0.73433 0.64148
 N429 N 1.01646 0.77776 0.66507
 C430 C 0.94563 0.77353 0.61390
 N431 N 0.95888 0.74217 0.61016
 C432 C 0.94379 0.71633 0.58599
 C433 C 0.91515 0.72222 0.56326
 C434 C 0.91667 0.78021 0.59233
 C435 C 1.06183 0.71027 0.63950
 C436 C 1.08976 0.69590 0.62583
 C437 C 1.06045 0.69664 0.56819
 C438 C 1.03269 0.71068 0.58310
 N439 N 1.03359 0.71644 0.61827
 H440 H 0.95730 0.79339 0.63387
 H441 H 0.95421 0.69126 0.58418
 H442 H 0.90385 0.70182 0.54352
 H443 H 0.90711 0.80566 0.59528
 H444 H 1.06218 0.71576 0.66730
 H445 H 1.11157 0.69022 0.64333
 H446 H 1.05878 0.69116 0.54029
 H447 H 1.01048 0.71673 0.56654
 C448 C 1.04517 0.84383 0.69379
 C449 C 0.95053 0.65232 0.71202
 C450 C 1.08928 0.68869 0.58984
 C451 C 0.90113 0.75438 0.56656
 C452 C 0.49016 0.71557 0.33441
 H453 H 0.48685 0.74011 0.32357
 C454 C 0.50243 0.68867 0.31434
 H455 H 0.50821 0.69288 0.28815
 C456 C 0.48632 0.68002 0.38132
 H457 H 0.48006 0.67691 0.40755
 C458 C 0.49828 0.65231 0.36205
 H459 H 0.50156 0.62802 0.37368
 N460 N 0.48340 0.71121 0.36764
 C461 C 0.42024 0.78961 0.36833
 H462 H 0.40274 0.77428 0.38270
 C463 C 0.40752 0.81563 0.34915
 H464 H 0.38043 0.81971 0.35002
 C465 C 0.47699 0.80359 0.35218
 H466 H 0.50416 0.79893 0.35379
 C467 C 0.46550 0.83025 0.33301
 H468 H 0.48411 0.84579 0.31982
 Zn469 Zn 0.47086 0.74885 0.39667
 N470 N 0.45437 0.78389 0.36939
 C471 C 0.51822 0.80367 0.43168
 N472 N 0.51088 0.76830 0.42665
 C473 C 0.53372 0.74664 0.43947
 C474 C 0.56633 0.76030 0.45604
 C475 C 0.55052 0.81845 0.44802
 C476 C 0.40873 0.70904 0.40461
 C477 C 0.38107 0.69548 0.42170
 C478 C 0.40783 0.72798 0.47483
 C479 C 0.43517 0.74081 0.45667
 N480 N 0.43505 0.73118 0.42223
 H481 H 0.49956 0.82053 0.42184
 H482 H 0.52745 0.71863 0.43536
 H483 H 0.58465 0.74229 0.46402
 H484 H 0.55647 0.84664 0.45040
 H485 H 0.40925 0.70202 0.37714
 H486 H 0.36047 0.67772 0.40718
 H487 H 0.40851 0.73660 0.50205
 H488 H 0.45630 0.75875 0.46996
 C489 C 0.43025 0.83651 0.33096
 C490 C 0.50764 0.65693 0.32861
 C491 C 0.38033 0.70467 0.45729
 C492 C 0.57541 0.79673 0.45968
 C493 C 0.37876 -0.03828 0.27962
 C494 C 0.35347 -0.04263 0.24640
 C495 C 0.33821 -0.01320 0.23950
 C496 C 0.34949 0.01792 0.26666
 C497 C 0.40482 -0.00686 0.27465
 C498 C 0.38948 0.02272 0.26774
 C499 C 0.35775 -0.02502 0.30837
 C500 C 0.34192 0.00412 0.30164
 H501 H 0.35073 -0.06581 0.22826
 H502 H 0.33681 0.04183 0.26105
 H503 H 0.43240 -0.00902 0.27426
 H504 H 0.35727 -0.03704 0.33262
 C505 C 0.08966 1.05336 0.76418
 C506 C 0.10858 1.06454 0.73330
 C507 C 0.13068 1.04179 0.72194
 C508 C 0.13133 1.00909 0.74219
 C509 C 0.07124 1.01683 0.75184
 C510 C 0.09281 0.99354 0.74012
 C511 C 0.11664 1.04770 0.79096
 C512 C 0.14017 1.02375 0.78031
 H513 H 0.10416 1.08831 0.72112
 H514 H 0.14986 0.99093 0.73336
 H515 H 0.04355 1.00998 0.75254
 H516 H 0.11647 1.05828 0.81760
 C517 C 0.58549 0.55340 0.25201
 C518 C 0.60012 0.56585 0.22181
 C519 C 0.62518 0.54526 0.20835
 C520 C 0.62968 0.51279 0.22841
 C521 C 0.56947 0.51576 0.24061
 C522 C 0.59242 0.49431 0.22819
 C523 C 0.61651 0.54926 0.27834
 C524 C 0.63923 0.52757 0.26651
 H525 H 0.59041 0.58752 0.20910
 H526 H 0.64927 0.49664 0.21837
 H527 H 0.54252 0.50671 0.24298
 H528 H 0.61832 0.55988 0.30523
 C529 C 0.86883 0.46939 0.78598
 C530 C 0.85286 0.45686 0.74908
 C531 C 0.83720 0.48176 0.73202
 C532 C 0.83797 0.51670 0.75421
 C533 C 0.89311 0.50244 0.78189
 C534 C 0.87701 0.52731 0.76499
 C535 C 0.83901 0.48292 0.80444
 C536 C 0.82252 0.50741 0.78783
 H537 H 0.85480 0.43072 0.73755
 H538 H 0.82461 0.53682 0.74066
 H539 H 0.92060 0.50485 0.79068
 H540 H 0.83375 0.47603 0.83010
 C541 C 0.28141 0.38037 -0.03087
 C542 C 0.24710 0.35774 -0.04230
 C543 C 0.23279 0.34154 -0.01615
 C544 C 0.25509 0.34906 0.01922
 C545 C 0.27332 0.40564 -0.00092
 C546 C 0.25973 0.38945 0.02554
 C547 C 0.30495 0.35564 -0.01393
 C548 C 0.29174 0.33962 0.01265
 H549 H 0.23387 0.35800 -0.06804
 H550 H 0.24375 0.33505 0.04007
 H551 H 0.27792 0.43384 -0.00077
 H552 H 0.33083 0.35247 -0.02129
 C553 C 0.75388 0.08094 1.04983
 C554 C 0.72282 0.10077 1.05859
 C555 C 0.71218 0.12221 1.03432
 C556 C 0.73300 0.12127 1.00254
 C557 C 0.74252 0.06133 1.01643
 C558 C 0.73089 0.08232 0.98966
 C559 C 0.78117 0.10753 1.04338
 C560 C 0.77109 0.13029 1.01784
 H561 H 0.71015 0.09784 1.08208
 H562 H 0.72418 0.13851 0.98251
 H563 H 0.74477 0.03361 1.01196
 H564 H 0.80782 0.10761 1.05469
 C565 C 0.25121 0.57960 0.55401
 C566 C 0.22200 0.59939 0.56692
 C567 C 0.20993 0.62222 0.54500
 C568 C 0.22846 0.62342 0.51164
 C569 C 0.23670 0.56231 0.51806
 C570 C 0.22487 0.58507 0.49569
 C571 C 0.27914 0.60832 0.54700
 C572 C 0.26745 0.63122 0.52464
 H573 H 0.21217 0.59620 0.59185
 H574 H 0.21928 0.64267 0.49402
 H575 H 0.23714 0.53468 0.51059
 H576 H 0.30629 0.60833 0.55657
 C577 C 0.77755 0.87876 0.46535
 C578 C 0.74089 0.86072 0.45437
 C579 C 0.72494 0.84675 0.48060
 C580 C 0.74757 0.85204 0.51588
 C581 C 0.77290 0.90586 0.49528
 C582 C 0.75759 0.89193 0.52200
 C583 C 0.79751 0.85123 0.48273
 C584 C 0.78186 0.83713 0.50912
 H585 H 0.72816 0.86031 0.42824
 H586 H 0.73491 0.84039 0.53726
 H587 H 0.78132 0.93353 0.49546
 H588 H 0.82355 0.84644 0.47704
 C589 C -0.03080 0.28547 0.37333
 C590 C -0.04153 0.24806 0.35718
 C591 C -0.01578 0.23311 0.34165
 C592 C 0.01803 0.25784 0.34227
 C593 C 0.00251 0.28329 0.39732
 C594 C 0.02819 0.26881 0.38130
 C595 C -0.01896 0.30522 0.34329
 C596 C 0.00672 0.29137 0.32712
 H597 H -0.06720 0.23467 0.35834
 H598 H 0.03809 0.24549 0.32850
 H599 H 0.00477 0.29083 0.42499
 H600 H -0.02877 0.32953 0.33665
 C601 C 1.05548 0.76046 0.08110
 C602 C 1.06319 0.72584 0.09537
 C603 C 1.03990 0.71352 0.11676
 C604 C 1.01109 0.73751 0.12237
 C605 C 1.01782 0.75367 0.06384
 C606 C 0.99446 0.74191 0.08568
 C607 C 1.05355 0.78561 0.11334
 C608 C 1.02980 0.77394 0.13476
 H609 H 1.08569 0.71270 0.08950
 H610 H 0.99221 0.72758 0.14007
 H611 H 1.01079 0.75771 0.03693
 H612 H 1.06640 0.81201 0.11597
 C613 C 0.55558 0.25383 0.58219
 C614 C 0.56521 0.22298 0.60227
 C615 C 0.54085 0.21166 0.62306
 C616 C 0.50849 0.23183 0.62120
 C617 C 0.52012 0.24116 0.56194
 C618 C 0.49525 0.22973 0.58241
 C619 C 0.54766 0.28170 0.60982
 C620 C 0.52290 0.27051 0.63012
 H621 H 0.58916 0.21105 0.59985
 H622 H 0.48873 0.22186 0.63792
 H623 H 0.51544 0.24233 0.53419
 H624 H 0.55951 0.30854 0.61193
 C625 C 0.46799 0.78289 0.87844
 C626 C 0.45684 0.74490 0.86408
 C627 C 0.48039 0.73031 0.84502
 C628 C 0.51264 0.75559 0.84133
 C629 C 0.50402 0.78193 0.89850
 C630 C 0.52736 0.76744 0.87896
 C631 C 0.47509 0.80226 0.84658
 C632 C 0.49861 0.78823 0.82709
 H633 H 0.43246 0.73095 0.86905
 H634 H 0.53176 0.74396 0.82546
 H635 H 0.50930 0.78886 0.92620
 H636 H 0.46499 0.82696 0.84226
 C637 C 0.41944 -0.13587 0.31226
 C638 C 0.38445 -0.13029 0.30439
 C639 C 0.37298 -0.10022 0.29116
 C640 C 0.39412 -0.06939 0.28735
 H641 H 0.36404 -0.15029 0.30833
 H642 H 0.34500 -0.10028 0.28568
 H643 H 0.43949 -0.11852 0.30298
 H644 H 0.42197 -0.06753 0.29422
 C645 C 0.91359 0.37434 0.82514
 C646 C 0.88466 0.38735 0.83435
 C647 C 0.86837 0.41482 0.81632
 C648 C 0.88665 0.44160 0.80394
 H649 H 0.87068 0.37573 0.85420
 H650 H 0.84026 0.41390 0.81510
 H651 H 0.92539 0.38316 0.80270
 H652 H 0.91483 0.44306 0.80585
 C653 C 0.02684 1.13774 0.80743
 C654 C 0.06058 1.14086 0.80175
 C655 C 0.07930 1.11298 0.78622
 C656 C 0.06609 1.07976 0.77653
 H657 H 0.07675 1.16501 0.81028
 H658 H 0.10664 1.12030 0.78386
 H659 H 0.01087 1.11314 0.80059
 H660 H 0.03919 1.07094 0.77907
 C661 C 0.52437 0.62918 0.30999
 C662 C 0.54992 0.63712 0.29009
 C663 C 0.57126 0.61145 0.27497
 C664 C 0.56082 0.57731 0.26684
 H665 H 0.55832 0.66431 0.28734
 H666 H 0.59693 0.62176 0.26929
 H667 H 0.51836 0.60240 0.31592
 H668 H 0.53499 0.56646 0.27137
 C669 C 0.56840 0.37778 0.20728
 C670 C 0.59065 0.39818 0.19110
 C671 C 0.60192 0.43537 0.20236
 C672 C 0.58181 0.45660 0.21834
 H673 H 0.60235 0.38712 0.16909
 H674 H 0.62651 0.44572 0.19438
 H675 H 0.55958 0.38779 0.23143
 H676 H 0.55600 0.44632 0.22362
 C677 C 0.05912 0.87941 0.70941
 C678 C 0.08383 0.89936 0.69577
 C679 C 0.09750 0.93538 0.70971
 C680 C 0.07940 0.95690 0.72799
 H681 H 0.09606 0.88861 0.67398
 H682 H 0.12249 0.94494 0.70200
 H683 H 0.04941 0.88882 0.73331
 H684 H 0.05312 0.94806 0.73304
 C685 C 0.93239 0.62548 0.73136
 C686 C 0.94751 0.59789 0.74249
 C687 C 0.92936 0.56845 0.75831
 C688 C 0.89470 0.55996 0.75405
 H689 H 0.97494 0.59635 0.74020
 H690 H 0.94609 0.55157 0.77123
 H691 H 0.90593 0.62891 0.73658
 H692 H 0.87829 0.57610 0.73961
 C693 C 0.44629 0.12122 0.23697
 C694 C 0.46061 0.09186 0.24407
 C695 C 0.44256 0.06192 0.25921
 C696 C 0.40775 0.05536 0.25753
 H697 H 0.48712 0.08908 0.23862
 H698 H 0.45907 0.04334 0.26951
 H699 H 0.42114 0.12560 0.24548
 H700 H 0.39133 0.07369 0.24653
 C701 C 0.32248 0.41503 -0.12692
 C702 C 0.29568 0.42860 -0.11313
 C703 C 0.28008 0.41468 -0.08304
 C704 C 0.29790 0.39775 -0.05955
 H705 H 0.28387 0.44987 -0.12458
 H706 H 0.25312 0.41851 -0.08027
 H707 H 0.33367 0.39330 -0.11567
 H708 H 0.32564 0.39681 -0.06041
 C709 C 0.81892 0.91615 0.36819
 C710 C 0.82482 0.88637 0.38229
 C711 C 0.80602 0.87312 0.41070
 C712 C 0.79491 0.89387 0.43583
 H713 H 0.84268 0.86967 0.37134
 H714 H 0.80342 0.84504 0.41221
 H715 H 0.79836 0.93094 0.37662
 H716 H 0.79842 0.92205 0.43531
 C717 C 0.80454 0.02673 1.13545
 C718 C 0.79020 0.05883 1.13844
 C719 C 0.77343 0.07448 1.11112
 C720 C 0.76549 0.05984 1.07667
 H721 H 0.79347 0.07462 1.16291
 H722 H 0.76694 0.10083 1.11741
 H723 H 0.80204 0.01204 1.11031
 H724 H 0.77134 0.03355 1.06939
 C725 C 0.30583 0.52426 0.63544
 C726 C 0.30887 0.51795 0.60139
 C727 C 0.29208 0.53784 0.57462
 C728 C 0.26407 0.55483 0.57921
 H729 H 0.32700 0.50036 0.59268
 H730 H 0.30411 0.53950 0.55063
 H731 H 0.29005 0.54432 0.64395
 H732 H 0.25044 0.55167 0.60203
 C733 C 0.20033 0.55973 0.38124
 C734 C 0.18214 0.57930 0.40157
 C735 C 0.19437 0.59188 0.43797
 C736 C 0.21321 0.57328 0.45896
 H737 H 0.15789 0.58791 0.39091
 H738 H 0.18505 0.61578 0.44815
 H739 H 0.22630 0.55434 0.39074
 H740 H 0.21947 0.54773 0.44926
 C741 C 0.70739 0.04137 0.87967
 C742 C 0.70487 0.02166 0.90846
 C743 C 0.71469 0.03456 0.94306
 C744 C 0.72051 0.07015 0.95487
 H745 H 0.69659 -0.00608 0.90431
 H746 H 0.71522 0.01516 0.96171
 H747 H 0.72208 0.06698 0.88343
 H748 H 0.71543 0.08960 0.93691
 C749 C 0.72574 0.95123 0.61633
 C750 C 0.73754 0.91956 0.61533
 C751 C 0.74744 0.90039 0.58378
 C752 C 0.75095 0.91379 0.55326
 H753 H 0.73714 0.90487 0.63794
 H754 H 0.75175 0.87336 0.58637
 H755 H 0.72395 0.96502 0.59313
 H756 H 0.74954 0.94138 0.55080
 C757 C 0.23120 0.44894 0.12187
 C758 C 0.23453 0.41449 0.11769
 C759 C 0.24639 0.39606 0.08670
 C760 C 0.25002 0.40984 0.05640
 H761 H 0.22707 0.39786 0.13752
 H762 H 0.25124 0.36918 0.08924
 H763 H 0.23786 0.46570 0.10191
 H764 H 0.24595 0.43687 0.05360
 C765 C -0.12268 0.33033 0.41389
 C766 C -0.10921 0.30207 0.42553
 C767 C -0.08015 0.28611 0.41049
 C768 C -0.05855 0.30281 0.39075
 H769 H -0.12042 0.28910 0.44623
 H770 H -0.07667 0.25944 0.41589
 H771 H -0.11172 0.34339 0.39315
 H772 H -0.05962 0.33038 0.38787
 C773 C 0.38782 0.83261 0.93707
 C774 C 0.41874 0.84858 0.93087
 C775 C 0.44644 0.83025 0.91569
 C776 C 0.44097 0.79821 0.89878
 H777 H 0.42466 0.87648 0.93700
 H778 H 0.47176 0.84501 0.91611
 H779 H 0.38326 0.80437 0.93368
 H780 H 0.41525 0.78405 0.89586
 C781 C 1.14199 0.81348 0.02989
 C782 C 1.10859 0.82025 0.02484
 C783 C 1.08059 0.80402 0.04364
 C784 C 1.08203 0.77352 0.05784
 H785 H 1.10171 0.84103 0.00917
 H786 H 1.05813 0.81832 0.04650
 H787 H 1.14921 0.79506 0.04827
 H788 H 1.10345 0.75811 0.05384
 C789 C 0.64137 0.30256 0.52396
 C790 C 0.64377 0.29566 0.55742
 C791 C 0.61540 0.27863 0.57504
 C792 C 0.58322 0.26718 0.56026
 H793 H 0.66730 0.30459 0.57421
 H794 H 0.62128 0.27665 0.60263
 H795 H 0.61730 0.29534 0.50747
 H796 H 0.57597 0.26887 0.53293
 C797 C 0.38126 0.21042 0.54676
 C798 C 0.40683 0.20840 0.52585
 C799 C 0.44409 0.21893 0.53741
 C800 C 0.45814 0.21862 0.57033
 H801 H 0.40073 0.19901 0.49878
 H802 H 0.46032 0.22571 0.51730
 H803 H 0.38759 0.22014 0.57375
 H804 H 0.44191 0.20997 0.58986
 C805 C 0.88249 0.70887 0.05089
 C806 C 0.90076 0.73640 0.03970
 C807 C 0.93885 0.74488 0.04868
 C808 C 0.95647 0.73401 0.07659
 H809 H 0.88825 0.75192 0.02112
 H810 H 0.95230 0.76155 0.03196
 H811 H 0.89585 0.69153 0.06686
 H812 H 0.94258 0.71993 0.09495
 C813 C 0.61349 0.72762 0.94072
 C814 C 0.61292 0.76155 0.93563
 C815 C 0.58083 0.77483 0.92053
 C816 C 0.56118 0.75733 0.89327
 H817 H 0.63521 0.78014 0.94499
 H818 H 0.57387 0.79960 0.93149
 H819 H 0.58966 0.71013 0.93468
 H820 H 0.57031 0.73443 0.88049
 C821 C 0.11672 0.22340 0.43580
 C822 C 0.11894 0.23956 0.40654
 C823 C 0.08843 0.25166 0.38686
 C824 C 0.06025 0.26071 0.40150
 H825 H 0.14295 0.24085 0.39434
 H826 H 0.08988 0.25336 0.35937
 H827 H 0.09169 0.21909 0.44588
 H828 H 0.06033 0.26206 0.42947
 C829 C 0.56554 0.11763 0.67835
 C830 C 0.58426 0.14909 0.68196
 C831 C 0.57691 0.17798 0.66054
 C832 C 0.54534 0.18297 0.64568
 H833 H 0.60878 0.15285 0.69828
 H834 H 0.59904 0.19656 0.65764
 H835 H 0.54297 0.11270 0.65928
 H836 H 0.52236 0.16686 0.65111
 C837 C 1.06611 0.61803 0.16872
 C838 C 1.06321 0.62082 0.13437
 C839 C 1.05664 0.65344 0.11829
 C840 C 1.04222 0.68034 0.13332
 H841 H 1.07011 0.59982 0.11703
 H842 H 1.06441 0.65503 0.09234
 H843 H 1.06214 0.64029 0.18615
 H844 H 1.03122 0.67807 0.15774
 C845 C 0.97907 0.85581 0.19067
 C846 C 1.01378 0.85478 0.19389
 C847 C 1.03118 0.82880 0.17348
 C848 C 1.01593 0.79685 0.16145
 H849 H 1.03066 0.87519 0.20953
 H850 H 1.05732 0.83709 0.16774
 H851 H 0.96270 0.83543 0.17433
 H852 H 0.99109 0.78754 0.16982
 C853 C 0.47400 0.35198 0.69002
 C854 C 0.46314 0.31760 0.68789
 C855 C 0.47848 0.29064 0.66663
 C856 C 0.51024 0.29529 0.65573
 H857 H 0.44060 0.30844 0.70035
 H858 H 0.46191 0.26658 0.65883
 H859 H 0.49648 0.36113 0.67747
 H860 H 0.52707 0.31911 0.66384
 C861 C 0.46544 0.61528 0.80624
 C862 C 0.45252 0.63067 0.83377
 C863 C 0.45773 0.66834 0.84554
 C864 C 0.47697 0.69310 0.83116
 H865 H 0.43528 0.61520 0.84838
 H866 H 0.44466 0.67559 0.86804
 H867 H 0.48094 0.63070 0.79006
 H868 H 0.49194 0.68625 0.80999
 C869 C -0.03265 0.11751 0.30396
 C870 C -0.04523 0.13375 0.33122
 C871 C -0.03950 0.17161 0.34218
 C872 C -0.01877 0.19568 0.32842
 H873 H -0.06300 0.11905 0.34592
 H874 H -0.05360 0.17970 0.36369
 H875 H -0.01673 0.13236 0.28767
 H876 H -0.00245 0.18808 0.30863
 C877 C 0.06238 0.36146 0.26014
 C878 C 0.07670 0.33656 0.27748
 C879 C 0.05664 0.30921 0.29459
 C880 C 0.02348 0.31101 0.30095
 H881 H 0.10472 0.33710 0.28168
 H882 H 0.07144 0.29019 0.30668
 H883 H 0.03457 0.35913 0.25300
 H884 H 0.00921 0.33132 0.29072
 C885 C 0.55200 0.86254 0.76335
 C886 C 0.51722 0.85619 0.76176
 C887 C 0.49920 0.83116 0.78285
 C888 C 0.51435 0.80618 0.79914
 H889 H 0.50086 0.87246 0.74743
 H890 H 0.47251 0.83526 0.78653
 H891 H 0.56840 0.84609 0.77740
 H892 H 0.53979 0.79955 0.79342
 C893 C 0.67549 0.57998 0.11546
 C894 C 0.66263 0.60038 0.14207
 C895 C 0.64603 0.58817 0.16981
 C896 C 0.64417 0.55416 0.18056
 H897 H 0.66242 0.62821 0.14061
 H898 H 0.63529 0.60831 0.18520
 H899 H 0.67056 0.55175 0.11484
 H900 H 0.65947 0.53506 0.16917
 C901 C 0.17851 1.07467 0.62675
 C902 C 0.18249 1.09212 0.65839
 C903 C 0.16466 1.08122 0.68832
 C904 C 0.15182 1.04847 0.69286
 H905 H 0.19709 1.11775 0.66225
 H906 H 0.16195 1.10214 0.70789
 H907 H 0.16457 1.04872 0.62270
 H908 H 0.15698 1.02651 0.67569
 C909 C 0.20629 0.98098 0.86160
 C910 C 0.19731 1.01550 0.86242
 C911 C 0.17717 1.02904 0.83583
 C912 C 0.16643 1.01222 0.80265
 H913 H 0.20366 1.03311 0.88560
 H914 H 0.16935 1.05477 0.84226
 H915 H 0.19942 0.96439 0.83767
 H916 H 0.17879 0.98988 0.79321
 C917 C 0.69603 0.47797 0.34992
 C918 C 0.69533 0.46719 0.31604
 C919 C 0.67543 0.48301 0.28794
 C920 C 0.66594 0.51552 0.29109
 H921 H 0.70743 0.44409 0.30824
 H922 H 0.66673 0.46605 0.26458
 H923 H 0.68376 0.50097 0.35771
 H924 H 0.67482 0.53272 0.31423
 C925 C 0.80206 0.46501 0.61657
 C926 C 0.82691 0.44966 0.63435
 C927 C 0.83671 0.45475 0.67223
 C928 C 0.82424 0.47753 0.69463
 H929 H 0.84062 0.43054 0.62075
 H930 H 0.85656 0.43892 0.68162
 H931 H 0.78634 0.48228 0.62999
 H932 H 0.80609 0.49521 0.68549
 C933 C 0.30157 -0.02349 0.12825
 C934 C 0.28316 -0.03735 0.15235
 C935 C 0.29752 -0.03669 0.18895
 C936 C 0.31829 -0.00974 0.20587
 H937 H 0.25980 -0.05495 0.14426
 H938 H 0.29158 -0.06008 0.20199
 H939 H 0.32701 -0.00936 0.13611
 H940 H 0.32194 0.01491 0.19437
 C941 C 0.27704 0.05403 0.37872
 C942 C 0.29181 0.02418 0.38099
 C943 C 0.30811 0.00634 0.35269
 C944 C 0.32124 0.02219 0.32639
 H945 H 0.29154 0.01123 0.40475
 H946 H 0.31134 -0.02086 0.35557
 H947 H 0.27405 0.06534 0.35408
 H948 H 0.31784 0.04933 0.32323
 C949 C 0.76933 0.56731 0.86288
 C950 C 0.75772 0.53421 0.85121
 C951 C 0.77627 0.51344 0.82667
 C952 C 0.79653 0.52730 0.80389
 H953 H 0.73795 0.51991 0.86399
 H954 H 0.77491 0.48560 0.82943
 H955 H 0.79125 0.58016 0.85179
 H956 H 0.79573 0.55431 0.79832
 C957 C 0.11826 0.67093 0.57674
 C958 C 0.12885 0.67291 0.54487
 C959 C 0.15841 0.65473 0.53316
 C960 C 0.18332 0.64462 0.55537
 H961 H 0.11508 0.68742 0.52620
 H962 H 0.15908 0.64904 0.50549
 H963 H 0.13146 0.65563 0.59502
 H964 H 0.18340 0.65090 0.58300
 C965 C 0.62030 0.17508 1.06714
 C966 C 0.65364 0.18156 1.08084
 C967 C 0.68218 0.16151 1.07069
 C968 C 0.68399 0.14484 1.03939
 H969 H 0.66019 0.19979 1.10368
 H970 H 0.70321 0.16048 1.09096
 H971 H 0.61355 0.15735 1.04392
 H972 H 0.66538 0.14802 1.01758
 C973 C 0.85343 0.19272 0.97274
 C974 C 0.85411 0.18592 1.00784
 C975 C 0.82737 0.16654 1.02206
 C976 C 0.79393 0.15569 1.00535
 H977 H 0.87735 0.19320 1.02544
 H978 H 0.83372 0.15978 1.04827
 H979 H 0.82996 0.18361 0.95586
 H980 H 0.78468 0.16735 0.98225
 C981 C 0.35081 0.68870 0.47455
 C982 C 0.34940 0.69046 0.50905
 C983 C 0.32257 0.66961 0.52559
 C984 C 0.29087 0.65749 0.50989
 H985 H 0.37049 0.70428 0.52648
 H986 H 0.32996 0.66360 0.55187
 H987 H 0.33049 0.67257 0.45789
 H988 H 0.28192 0.66608 0.48502
 C989 C 0.61130 0.81281 0.47170
 C990 C 0.63555 0.79660 0.48938
 C991 C 0.67224 0.81198 0.49697
 C992 C 0.68821 0.83131 0.47469
 H993 H 0.62861 0.77175 0.49942
 H994 H 0.68672 0.80478 0.52003
 H995 H 0.61818 0.83921 0.46500
 H996 H 0.67398 0.83533 0.45017
 C997 C 0.11953 0.29490 -0.03382
 C998 C 0.14061 0.30574 -0.05715
 C999 C 0.17870 0.31443 -0.05083
 C1000 C 0.19641 0.32449 -0.01968
 H1001 H 0.12939 0.30796 -0.08345
 H1002 H 0.19191 0.31560 -0.07408
 H1003 H 0.13004 0.28901 -0.00836
 H1004 H 0.18343 0.32291 0.00372
 C1005 C 0.37272 0.28078 0.06852
 C1006 C 0.37181 0.31543 0.06784
 C1007 C 0.34703 0.33197 0.04506
 C1008 C 0.31346 0.32008 0.03610
 H1009 H 0.39307 0.33315 0.08124
 H1010 H 0.35709 0.35683 0.03670
 H1011 H 0.35370 0.26292 0.05195
 H1012 H 0.30167 0.29749 0.04723
 C1013 C 0.87217 0.76174 0.54155
 C1014 C 0.84770 0.78185 0.55073
 C1015 C 0.82410 0.79547 0.52435
 C1016 C 0.79967 0.81560 0.53361
 H1017 H 0.84679 0.79058 0.57784
 H1018 H 0.82871 0.79142 0.49729
 H1019 H 0.87183 0.75147 0.51469
 H1020 H 0.79399 0.81819 0.56044
   
