data_POSCAR
  _audit_creation_date              2014-09-24
  _audit_creation_method            'ToBaCCo'
  _symmetry_space_group_name_H-M    'P1'
  _symmetry_Int_Tables_number       1
  _symmetry_cell_setting            triclinic
  loop_
  _symmetry_equiv_pos_as_xyz
 x,y,z
_cell_length_a 31.6507
_cell_length_b 32.1954
_cell_length_c 30.5219
_cell_angle_alpha 87.476800
_cell_angle_beta 88.474200
_cell_angle_gamma 90.488700
loop_
  _atom_site_label
  _atom_site_type_symbol
  _atom_site_fract_x
  _atom_site_fract_y
  _atom_site_fract_z
N1 N 0.20000 1.27063 0.15222
 N2 N 0.16594 1.26429 0.17720
 C3 C 0.13822 1.29477 0.16872
 C4 C 0.15568 1.32214 0.13650
 C5 C 0.19535 1.30577 0.12727
 H6 H 0.10727 1.29600 0.18432
 H7 H 0.21859 1.31728 0.10302
 Cu8 Cu 0.15951 1.21538 0.21651
 Cu9 Cu 0.24639 1.23100 0.15255
 Cu10 Cu 0.21662 1.13226 0.19317
 N11 N 0.15600 1.16486 0.25382
 N12 N 0.17792 1.13201 0.24382
 C13 C 0.16695 1.10007 0.27173
 C14 C 0.13629 1.11345 0.30130
 C15 C 0.13045 1.15507 0.28879
 H16 H 0.18004 1.06931 0.26972
 H17 H 0.10823 1.17639 0.30281
 N18 N 0.26712 1.14317 0.15537
 N19 N 0.27936 1.18074 0.14109
 C20 C 0.31506 1.17765 0.11646
 C21 C 0.32595 1.13603 0.11533
 C22 C 0.29471 1.11522 0.14051
 H23 H 0.33139 1.20380 0.10008
 H24 H 0.29170 1.08207 0.14714
 H25 H 0.20104 1.18652 0.15680
 H26 H 0.23199 1.19110 0.20756
 N27 N 0.81248 0.73565 0.14872
 N28 N 0.84072 0.73205 0.17945
 C29 C 0.86735 0.70109 0.16981
 C30 C 0.85511 0.68443 0.13090
 C31 C 0.82009 0.70719 0.11862
 H32 H 0.89450 0.69235 0.18876
 H33 H 0.80176 0.70379 0.08960
 Cu34 Cu 0.84066 0.77073 0.22672
 Cu35 Cu 0.76938 0.77865 0.14810
 Cu36 Cu 0.77206 0.84889 0.23127
 N37 N 0.84413 0.81093 0.27234
 N38 N 0.81710 0.84164 0.27345
 C39 C 0.82751 0.86692 0.30542
 C40 C 0.86329 0.85149 0.32577
 C41 C 0.87267 0.81557 0.30382
 H42 H 0.81050 0.89489 0.31244
 H43 H 0.89929 0.79532 0.30890
 N44 N 0.72923 0.85073 0.18531
 N45 N 0.72865 0.82431 0.15343
 C46 C 0.69762 0.83500 0.12594
 C47 C 0.67758 0.86978 0.14115
 C48 C 0.69835 0.87877 0.17898
 H49 H 0.69038 0.81890 0.09670
 H50 H 0.69239 0.90477 0.19943
 H51 H 0.80426 0.82169 0.18050
 H52 H 0.76698 0.78782 0.21449
 N53 N 0.83277 1.27579 -0.14439
 N54 N 0.86175 1.27541 -0.17599
 C55 C 0.89280 1.30250 -0.16769
 C56 C 0.88264 1.32116 -0.12884
 C57 C 0.84420 1.30353 -0.11503
 H58 H 0.92084 1.30788 -0.18823
 H59 H 0.82672 1.30919 -0.08500
 Cu60 Cu 0.85704 1.23855 -0.22406
 Cu61 Cu 0.78443 1.23767 -0.14193
 Cu62 Cu 0.78252 1.16367 -0.22130
 N63 N 0.86043 1.19273 -0.26294
 N64 N 0.83049 1.16428 -0.26293
 C65 C 0.84069 1.13625 -0.29279
 C66 C 0.87958 1.14743 -0.31242
 C67 C 0.89099 1.18364 -0.29235
 H68 H 0.82177 1.10900 -0.29837
 H69 H 0.91931 1.20220 -0.29836
 N70 N 0.73747 1.16836 -0.17580
 N71 N 0.73852 1.19619 -0.14533
 C72 C 0.70597 1.18888 -0.11666
 C73 C 0.68328 1.15476 -0.12955
 C74 C 0.70408 1.14275 -0.16735
 H75 H 0.70013 1.20618 -0.08761
 H76 H 0.69696 1.11572 -0.18572
 H77 H 0.81672 1.19182 -0.17391
 H78 H 0.78189 1.22604 -0.20786
 N79 N 0.18060 0.73727 -0.13797
 N80 N 0.14878 0.73422 -0.16450
 C81 C 0.12404 0.70181 -0.15049
 C82 C 0.14116 0.68367 -0.11304
 C83 C 0.17709 0.70706 -0.10613
 H84 H 0.09486 0.69303 -0.16535
 H85 H 0.19872 0.70292 -0.07951
 Cu86 Cu 0.14143 0.77491 -0.21271
 Cu87 Cu 0.22291 0.78154 -0.14510
 Cu88 Cu 0.21084 0.85336 -0.23187
 N89 N 0.13458 0.81547 -0.26120
 N90 N 0.16262 0.84534 -0.26909
 C91 C 0.15042 0.86955 -0.30337
 C92 C 0.11209 0.85458 -0.31772
 C93 C 0.10318 0.82000 -0.28995
 H94 H 0.16742 0.89716 -0.31536
 H95 H 0.07573 0.79985 -0.29017
 N96 N 0.25744 0.85616 -0.19048
 N97 N 0.26230 0.82855 -0.15779
 C98 C 0.29564 0.83989 -0.13442
 C99 C 0.31241 0.87661 -0.15300
 C100 C 0.28737 0.88598 -0.18850
 H101 H 0.30578 0.82375 -0.10478
 H102 H 0.29025 0.91300 -0.21071
 H103 H 0.18427 0.82502 -0.17542
 H104 H 0.21652 0.79175 -0.21177
 Si105 Si 0.50185 0.99203 -0.01683
 Si106 Si -0.00088 0.49747 1.02094
 Si107 Si 0.98579 -0.00033 0.49879
 C108 C 0.15783 0.38189 1.08325
 C109 C 0.13615 0.35685 1.11583
 C110 C 0.09377 0.36649 1.12630
 C111 C 0.07306 0.39879 1.10364
 C112 C 0.09497 0.42309 1.07057
 C113 C 0.13752 0.41471 1.06107
 C114 C 0.07354 0.45448 1.04686
 C115 C 0.03042 0.46107 1.05555
 C116 C 0.00900 0.43675 1.08837
 C117 C 0.03022 0.40623 1.11266
 H118 H 0.07594 0.34830 1.15113
 H119 H 0.15491 0.43303 1.03587
 H120 H 0.08994 0.47253 1.02077
 H121 H 0.01285 0.38771 1.13771
 H122 H 0.19049 0.37621 1.07434
 H123 H -0.02448 0.44100 1.09482
 C124 C -0.13133 0.64742 1.06138
 C125 C -0.12369 0.65143 1.10621
 C126 C -0.09520 0.62416 1.12696
 C127 C -0.07433 0.59369 1.10320
 C128 C -0.08188 0.59047 1.05802
 C129 C -0.11059 0.61731 1.03752
 C130 C -0.06023 0.56079 1.03400
 C131 C -0.03148 0.53401 1.05461
 C132 C -0.02419 0.53718 1.09946
 C133 C -0.04559 0.56671 1.12365
 H134 H -0.08925 0.62650 1.16155
 H135 H -0.11676 0.61525 1.00292
 H136 H -0.06542 0.55874 0.99918
 H137 H -0.03925 0.56881 1.15820
 H138 H -0.15277 0.66807 1.04432
 H139 H -0.00136 0.51753 1.11575
 C140 C -0.04756 0.35382 0.88625
 C141 C -0.09149 0.35144 0.89415
 C142 C -0.11037 0.37783 0.92437
 C143 C -0.08567 0.40629 0.94638
 C144 C -0.04146 0.40800 0.93847
 C145 C -0.02275 0.38170 0.90835
 C146 C -0.01667 0.43586 0.96094
 C147 C -0.03550 0.46263 0.99053
 C148 C -0.07933 0.46099 0.99827
 C149 C -0.10431 0.43298 0.97631
 H150 H -0.14424 0.37657 0.93046
 H151 H 0.01110 0.38263 0.90194
 H152 H 0.01732 0.43678 0.95538
 H153 H -0.13812 0.43202 0.98292
 H154 H -0.03212 0.33358 0.86354
 H155 H -0.09427 0.48077 1.02174
 C156 C 0.13357 0.64453 0.95972
 C157 C 0.12290 0.64915 0.91534
 C158 C 0.09343 0.62147 0.89861
 C159 C 0.07393 0.59044 0.92603
 C160 C 0.08400 0.58685 0.97088
 C161 C 0.11425 0.61372 0.98726
 C162 C 0.06280 0.55725 0.99876
 C163 C 0.03179 0.53127 0.98230
 C164 C 0.02258 0.53443 0.93759
 C165 C 0.04366 0.56364 0.90959
 H166 H 0.08528 0.62426 0.86436
 H167 H 0.12240 0.61139 1.02153
 H168 H 0.06948 0.55522 1.03345
 H169 H 0.03548 0.56601 0.87533
 H170 H 0.15598 0.66549 0.97360
 H171 H -0.00191 0.51541 0.92438
 C172 C 1.12219 0.04654 0.34079
 C173 C 1.11449 0.08951 0.33477
 C174 C 1.08398 0.10763 0.36248
 C175 C 1.06142 0.08336 0.39473
 C176 C 1.06923 0.04032 0.39956
 C177 C 1.09975 0.02231 0.37264
 C178 C 1.04626 0.01589 0.43112
 C179 C 1.01608 0.03398 0.45854
 C180 C 1.00818 0.07667 0.45363
 C181 C 1.03080 0.10127 0.42200
 H182 H 1.07737 0.14051 0.35925
 H183 H 1.10618 -0.01067 0.37606
 H184 H 1.05194 -0.01726 0.43449
 H185 H 1.02413 0.13419 0.41864
 H186 H 1.14516 0.03097 0.32067
 H187 H 0.98414 0.09097 0.47362
 C188 C 1.04541 -0.14251 0.64273
 C189 C 1.08682 -0.12771 0.64900
 C190 C 1.10200 -0.09381 0.62199
 C191 C 1.07610 -0.07424 0.59092
 C192 C 1.03417 -0.08841 0.58636
 C193 C 1.01936 -0.12293 0.61198
 C194 C 1.00755 -0.06719 0.55704
 C195 C 1.02267 -0.03238 0.53196
 C196 C 1.06461 -0.01905 0.53601
 C197 C 1.09121 -0.03992 0.56510
 H198 H 1.13387 -0.08209 0.62498
 H199 H 0.98737 -0.13443 0.60872
 H200 H 0.97491 -0.07706 0.55449
 H201 H 1.12327 -0.02857 0.56821
 H202 H 1.03228 -0.16851 0.66233
 H203 H 1.07657 0.00838 0.51786
 C204 C 0.92102 -0.15066 0.37830
 C205 C 0.88631 -0.13024 0.35915
 C206 C 0.87581 -0.09041 0.37334
 C207 C 0.90011 -0.07089 0.40432
 C208 C 0.93496 -0.09161 0.42291
 C209 C 0.94483 -0.13168 0.40999
 C210 C 0.95990 -0.07139 0.45313
 C211 C 0.95060 -0.03053 0.46408
 C212 C 0.91625 -0.01013 0.44507
 C213 C 0.89078 -0.03031 0.41597
 H214 H 0.84962 -0.07351 0.35944
 H215 H 0.97141 -0.14811 0.42388
 H216 H 0.98718 -0.08679 0.46678
 H217 H 0.86441 -0.01379 0.40176
 H218 H 0.93008 -0.18144 0.36907
 H219 H 0.90931 0.02174 0.45246
 C220 C 0.94435 0.13880 0.64291
 C221 C 0.90276 0.12626 0.65543
 C222 C 0.88498 0.09189 0.63516
 C223 C 0.90800 0.07076 0.60330
 C224 C 0.94979 0.08344 0.59171
 C225 C 0.96763 0.11746 0.61170
 C226 C 0.97297 0.06189 0.56029
 C227 C 0.95435 0.02876 0.53930
 C228 C 0.91296 0.01613 0.55115
 C229 C 0.88990 0.03698 0.58289
 H230 H 0.85301 0.08159 0.64343
 H231 H 0.99963 0.12766 0.60313
 H232 H 1.00535 0.07101 0.55199
 H233 H 0.85800 0.02660 0.59158
 H234 H 0.95964 0.16473 0.65755
 H235 H 0.89856 -0.01028 0.53644
 C236 C 0.38565 1.14114 0.05921
 C237 C 0.36170 1.11732 0.09083
 C238 C 0.37133 1.07500 0.09797
 C239 C 0.40329 1.05646 0.07310
 C240 C 0.42662 1.08056 0.04091
 C241 C 0.41783 1.12295 0.03455
 C242 C 0.45757 1.06162 0.01496
 C243 C 0.46521 1.01890 0.02075
 C244 C 0.44207 0.99524 0.05285
 C245 C 0.41160 1.01391 0.07915
 H246 H 0.35375 1.05611 0.12248
 H247 H 0.43538 1.14191 0.01000
 H248 H 0.47455 1.07987 -0.01054
 H249 H 0.39391 0.99492 0.10356
 H250 H 0.37910 1.17371 0.05274
 H251 H 0.44720 0.96210 0.05715
 C252 C 0.64252 1.13721 -0.05963
 C253 C 0.64842 1.13230 -0.10493
 C254 C 0.62224 1.10422 -0.12595
 C255 C 0.59164 1.08033 -0.10177
 C256 C 0.58719 1.08456 -0.05599
 C257 C 0.61226 1.11352 -0.03538
 C258 C 0.55860 1.05894 -0.03134
 C259 C 0.53408 1.02943 -0.05182
 C260 C 0.53766 1.02600 -0.09738
 C261 C 0.56622 1.05139 -0.12226
 H262 H 0.62603 1.10047 -0.16093
 H263 H 0.60908 1.11724 -0.00034
 H264 H 0.55617 1.06122 0.00398
 H265 H 0.56916 1.04769 -0.15732
 H266 H 0.66223 1.15835 -0.04242
 H267 H 0.51952 1.00285 -0.11358
 C268 C 0.34909 0.94520 -0.14566
 C269 C 0.34690 0.90214 -0.13584
 C270 C 0.37687 0.88385 -0.10801
 C271 C 0.40782 0.90834 -0.08921
 C272 C 0.40893 0.95179 -0.09826
 C273 C 0.37976 0.96982 -0.12694
 C274 C 0.43852 0.97652 -0.07765
 C275 C 0.46718 0.95828 -0.04851
 C276 C 0.46637 0.91509 -0.04024
 C277 C 0.43703 0.89025 -0.06057
 H278 H 0.37594 0.85062 -0.10063
 H279 H 0.38020 1.00306 -0.13433
 H280 H 0.43867 1.00999 -0.08348
 H281 H 0.43654 0.85703 -0.05313
 H282 H 0.32632 0.96016 -0.16679
 H283 H 0.48743 0.90050 -0.01700
 C284 C 0.61720 0.91973 0.14424
 C285 C 0.64331 0.89361 0.11988
 C286 C 0.63692 0.89080 0.07471
 C287 C 0.60516 0.91384 0.05405
 C288 C 0.57882 0.93978 0.07886
 C289 C 0.58510 0.94246 0.12396
 C290 C 0.54705 0.96288 0.05799
 C291 C 0.54172 0.96041 0.01271
 C292 C 0.56847 0.93520 -0.01172
 C293 C 0.59971 0.91177 0.00879
 H294 H 0.65720 0.87139 0.05528
 H295 H 0.56531 0.96225 0.14350
 H296 H 0.52720 0.98317 0.07681
 H297 H 0.61983 0.89232 -0.01078
 H298 H 0.62131 0.92233 0.17910
 H299 H 0.56509 0.93358 -0.04684
   
