data_POSCAR
  _audit_creation_date              2014-09-24
  _audit_creation_method            'ToBaCCo'
  _symmetry_space_group_name_H-M    'P1'
  _symmetry_Int_Tables_number       1
  _symmetry_cell_setting            triclinic
  loop_
  _symmetry_equiv_pos_as_xyz
 x,y,z
_cell_length_a 29.1370
_cell_length_b 29.1475
_cell_length_c 29.0477
_cell_angle_alpha 89.884000
_cell_angle_beta 90.019600
_cell_angle_gamma 90.176400
loop_
  _atom_site_label
  _atom_site_type_symbol
  _atom_site_fract_x
  _atom_site_fract_y
  _atom_site_fract_z
C1 C 0.16978 0.16752 0.22868
 C2 C 0.20922 0.14846 0.20784
 C3 C 0.23340 0.17121 0.17235
 C4 C 0.21524 0.21272 0.15558
 C5 C 0.17452 0.23123 0.17330
 C6 C 0.15193 0.20809 0.20926
 H7 H 0.21997 0.11456 0.21769
 H8 H 0.23393 0.23224 0.13003
 H9 H 0.12108 0.22286 0.22267
 C10 C -0.16851 0.82846 0.23162
 C11 C -0.20791 0.84760 0.21073
 C12 C -0.23222 0.82441 0.17610
 C13 C -0.21525 0.78251 0.15998
 C14 C -0.17437 0.76400 0.17732
 C15 C -0.15118 0.78739 0.21275
 H16 H -0.21957 0.88132 0.22026
 H17 H -0.23461 0.76358 0.13447
 H18 H -0.12029 0.77252 0.22607
 C19 C -0.17706 0.17550 -0.23543
 C20 C -0.21076 0.15175 -0.20958
 C21 C -0.22726 0.16852 -0.16699
 C22 C -0.20788 0.20952 -0.14995
 C23 C -0.17562 0.23479 -0.17539
 C24 C -0.16069 0.21755 -0.21787
 H25 H -0.22425 0.12013 -0.22276
 H26 H -0.21691 0.22143 -0.11599
 H27 H -0.13736 0.23823 -0.23811
 C28 C 0.18538 0.81992 -0.23749
 C29 C 0.16453 0.78150 -0.21697
 C30 C 0.17904 0.76499 -0.17392
 C31 C 0.21325 0.78930 -0.15001
 C32 C 0.23573 0.82750 -0.16979
 C33 C 0.22199 0.84134 -0.21428
 H34 H 0.13701 0.76398 -0.23451
 H35 H 0.22133 0.77905 -0.11522
 H36 H 0.24064 0.86797 -0.23211
 C37 C 0.16881 1.17052 0.77609
 C38 C 0.21228 1.15572 0.79088
 C39 C 0.23230 1.17273 0.83152
 C40 C 0.20830 1.20601 0.85685
 C41 C 0.16655 1.22437 0.84090
 C42 C 0.14702 1.20586 0.80061
 H43 H 0.23095 1.13123 0.77030
 H44 H 0.22188 1.21754 0.88943
 H45 H 0.11466 1.21867 0.78807
 C46 C 0.82574 0.82095 0.76705
 C47 C 0.78431 0.83788 0.78542
 C48 C 0.76729 0.82297 0.82816
 C49 C 0.79225 0.79009 0.85300
 C50 C 0.83260 0.77019 0.83520
 C51 C 0.84911 0.78670 0.79240
 H52 H 0.76389 0.86161 0.76553
 H53 H 0.78069 0.78091 0.88711
 H54 H 0.88020 0.77274 0.77861
 C55 C 0.16501 0.83777 1.22771
 C56 C 0.14470 0.79981 1.20549
 C57 C 0.16724 0.77623 1.17000
 C58 C 0.20972 0.79285 1.15432
 C59 C 0.23077 0.83111 1.17499
 C60 C 0.20844 0.85257 1.21209
 H61 H 0.11052 0.78894 1.21502
 H62 H 0.22664 0.77538 1.12649
 H63 H 0.22646 0.87948 1.23012
 C64 C 0.84001 1.16057 1.22516
 C65 C 0.79685 1.14584 1.20857
 C66 C 0.77426 1.16930 1.17287
 C67 C 0.79560 1.20784 1.15311
 C68 C 0.83974 1.22237 1.16667
 C69 C 0.86117 1.19837 1.20303
 H70 H 0.77983 1.11686 1.22410
 H71 H 0.77641 1.22742 1.12815
 H72 H 0.89577 1.20757 1.21265
 N73 N 0.55088 1.08157 0.95286
 N74 N 0.58770 1.10780 0.94951
 N75 N 0.45428 1.04989 0.92062
 N76 N 0.42060 1.05671 0.89097
 N77 N 0.45447 1.08202 0.95221
 N78 N 0.42119 1.11177 0.94475
 N79 N 0.55134 1.04931 0.92137
 N80 N 0.58880 1.05257 0.89593
 C81 C 0.61091 1.08952 0.91368
 C82 C 0.40020 1.09541 0.90654
 N83 N 0.45321 0.91930 0.95387
 N84 N 0.41685 0.89254 0.94990
 N85 N 0.55018 0.95041 0.92177
 N86 N 0.58356 0.94280 0.89208
 N87 N 0.54957 0.91850 0.95371
 N88 N 0.58234 0.88815 0.94649
 N89 N 0.45335 0.95102 0.92169
 N90 N 0.41685 0.94680 0.89506
 Mn91 Mn 0.50230 1.00017 0.92074
 C92 C 0.39460 0.90995 0.91293
 C93 C 0.60345 0.90393 0.90804
 N94 N 0.45389 1.08210 1.05136
 N95 N 0.41936 1.11071 1.05715
 N96 N 0.55032 1.05046 1.08418
 N97 N 0.58392 1.05770 1.11385
 N98 N 0.55063 1.08187 1.05173
 N99 N 0.58478 1.11100 1.05806
 N100 N 0.45397 1.05064 1.08377
 N101 N 0.41961 1.05705 1.11259
 Mn102 Mn 0.50242 1.08242 1.00204
 C103 C 0.39825 1.09457 1.09547
 C104 C 0.60525 1.09547 1.09689
 N105 N 0.54965 0.91965 1.05258
 N106 N 0.58341 0.89036 1.05906
 N107 N 0.45323 0.95215 1.08435
 N108 N 0.41922 0.94605 1.11368
 N109 N 0.45331 0.91968 1.05311
 N110 N 0.41963 0.89018 1.06070
 N111 N 0.54973 0.95129 1.08470
 N112 N 0.58340 0.94407 1.11427
 Mn113 Mn 0.50142 0.91877 1.00332
 Mn114 Mn 0.50186 1.00113 1.08480
 Cl115 Cl 0.50201 1.00062 1.00269
 C116 C 0.60419 0.90606 1.09758
 C117 C 0.39855 0.90732 1.09847
 N118 N -0.04972 0.54602 0.08496
 N119 N -0.05742 0.57911 0.11491
 N120 N -0.07984 0.44937 0.05188
 N121 N -0.10461 0.41145 0.05442
 N122 N -0.04804 0.44970 0.08398
 N123 N -0.05047 0.41212 0.10926
 N124 N -0.08113 0.54606 0.05257
 N125 N -0.11081 0.57944 0.05927
 C126 C -0.09551 0.59978 0.09822
 C127 C -0.08616 0.38878 0.09066
 N128 N -0.04852 0.45098 -0.07882
 N129 N -0.05607 0.41840 -0.10942
 N130 N -0.08124 0.54704 -0.04644
 N131 N -0.10761 0.58366 -0.04957
 N132 N -0.04918 0.54790 -0.07823
 N133 N -0.05272 0.58540 -0.10359
 N134 N -0.08066 0.45070 -0.04720
 N135 N -0.11118 0.41818 -0.05559
 Mn136 Mn -0.08127 0.49829 0.00276
 C137 C -0.09516 0.39809 -0.09433
 C138 C -0.08963 0.60714 -0.08558
 N139 N 0.05084 0.45193 0.08459
 N140 N 0.05831 0.41804 0.11384
 N141 N 0.08060 0.54932 0.05240
 N142 N 0.10713 0.58581 0.05697
 N143 N 0.04920 0.54822 0.08482
 N144 N 0.05384 0.58367 0.11266
 N145 N 0.08234 0.45258 0.05233
 N146 N 0.11182 0.41886 0.05837
 Mn147 Mn 0.00053 0.49896 0.08517
 C148 C 0.09635 0.39761 0.09682
 C149 C 0.09013 0.60677 0.09480
 N150 N 0.04966 0.54874 -0.07843
 N151 N 0.05677 0.58223 -0.10829
 N152 N 0.08271 0.45290 -0.04639
 N153 N 0.10899 0.41623 -0.04883
 N154 N 0.05047 0.45159 -0.07800
 N155 N 0.05370 0.41352 -0.10243
 N156 N 0.08142 0.54906 -0.04642
 N157 N 0.11122 0.58244 -0.05373
 Mn158 Mn 0.00063 0.49977 -0.07901
 Mn159 Mn 0.08227 0.50103 0.00301
 Cl160 Cl 0.00052 0.49951 0.00292
 C161 C 0.09522 0.60304 -0.09226
 C162 C 0.09077 0.39214 -0.08413
 N163 N 1.04951 0.08169 0.55096
 N164 N 1.05329 0.10890 0.58706
 N165 N 1.08207 0.04987 0.45475
 N166 N 1.10965 0.05466 0.41908
 N167 N 1.04960 0.08094 0.45384
 N168 N 1.05405 0.10760 0.41725
 N169 N 1.08142 0.04998 0.55175
 N170 N 1.10759 0.05459 0.58858
 C171 C 1.08984 0.09173 0.61009
 C172 C 1.09182 0.09080 0.39601
 N173 N 1.05182 -0.08119 0.45477
 N174 N 1.05519 -0.10682 0.41758
 N175 N 1.08309 -0.04880 0.55157
 N176 N 1.11455 -0.05666 0.58322
 N177 N 1.05223 -0.08174 0.55131
 N178 N 1.06223 -0.11321 0.58250
 N179 N 1.08309 -0.04864 0.45453
 N180 N 1.10840 -0.05115 0.41691
 Mn181 Mn 1.08296 0.00064 0.50324
 C182 C 1.09083 -0.08790 0.39444
 C183 C 1.10095 -0.09675 0.60243
 N184 N 0.95093 0.07932 0.45390
 N185 N 0.94775 0.10471 0.41643
 N186 N 0.91927 0.04758 0.55087
 N187 N 0.88884 0.05499 0.58367
 N188 N 0.95072 0.07992 0.55067
 N189 N 0.94269 0.11011 0.58344
 N190 N 0.91963 0.04682 0.45379
 N191 N 0.89450 0.04910 0.41598
 Mn192 Mn 1.00019 0.08104 0.50235
 C193 C 0.91221 0.08571 0.39325
 C194 C 0.90411 0.09398 0.60389
 N195 N 0.95290 -0.08313 0.55151
 N196 N 0.94538 -0.11360 0.58439
 N197 N 0.92073 -0.05160 0.45498
 N198 N 0.89307 -0.05672 0.41945
 N199 N 0.95317 -0.08273 0.45449
 N200 N 0.94859 -0.10978 0.41832
 N201 N 0.92089 -0.05148 0.55167
 N202 N 0.89085 -0.05948 0.58473
 Mn203 Mn 1.00252 -0.08276 0.50308
 Mn204 Mn 0.91958 -0.00217 0.50293
 Cl205 Cl 1.00132 -0.00084 0.50305
 C206 C 0.90669 -0.09820 0.60502
 C207 C 0.91082 -0.09310 0.39691
 C208 C 1.10657 0.15927 0.28648
 C209 C 1.15006 0.14739 0.26902
 C210 C 1.17434 0.11481 0.29671
 C211 C 1.15530 0.09609 0.33755
 C212 C 1.11146 0.10927 0.35311
 C213 C 1.08860 0.14097 0.32590
 C214 C 1.04407 0.16505 0.32210
 C215 C 1.06356 0.18618 0.27775
 H216 H 1.20901 0.10457 0.28885
 H217 H 1.17547 0.07190 0.35733
 H218 H 1.03903 0.19028 0.35027
 H219 H 1.01508 0.14094 0.31606
 H220 H 1.06875 0.22386 0.28077
 H221 H 1.04529 0.17471 0.24617
 C222 C 0.89504 -0.16310 0.28889
 C223 C 0.85158 -0.15106 0.27144
 C224 C 0.82772 -0.11787 0.29858
 C225 C 0.84712 -0.09872 0.33893
 C226 C 0.89091 -0.11205 0.35449
 C227 C 0.91339 -0.14435 0.32784
 C228 C 0.95765 -0.16893 0.32434
 C229 C 0.93772 -0.19057 0.28050
 H230 H 0.79310 -0.10742 0.29074
 H231 H 0.82725 -0.07407 0.35832
 H232 H 0.96256 -0.19376 0.35299
 H233 H 0.98685 -0.14521 0.31769
 H234 H 0.93213 -0.22814 0.28428
 H235 H 0.95592 -0.17979 0.24862
 C236 C 0.88095 0.17493 0.70232
 C237 C 0.83974 0.15833 0.72179
 C238 C 0.81637 0.12403 0.69592
 C239 C 0.83657 0.10385 0.65682
 C240 C 0.88040 0.11754 0.64184
 C241 C 0.90054 0.15509 0.66365
 C242 C 0.94823 0.16086 0.68125
 C243 C 0.92718 0.18265 0.72364
 H244 H 0.78258 0.11196 0.70529
 H245 H 0.81841 0.07652 0.63928
 H246 H 0.96848 0.18540 0.66005
 H247 H 0.96541 0.12758 0.68846
 H248 H 0.93583 0.21965 0.72640
 H249 H 0.93233 0.16229 0.75564
 C250 C 1.17889 -0.11646 0.70378
 C251 C 1.16920 -0.16180 0.71713
 C252 C 1.14266 -0.18827 0.68594
 C253 C 1.12118 -0.16761 0.64765
 C254 C 1.12692 -0.12046 0.63876
 C255 C 1.15890 -0.09662 0.66537
 C256 C 1.15537 -0.05086 0.68789
 C257 C 1.17685 -0.07258 0.73029
 H258 H 1.13667 -0.22443 0.69161
 H259 H 1.09885 -0.18816 0.62608
 H260 H 1.11927 -0.03978 0.69318
 H261 H 1.17814 -0.02520 0.67107
 H262 H 1.15309 -0.07459 0.76018
 H263 H 1.21150 -0.05856 0.73810
 C264 C 0.29475 1.17012 1.11348
 C265 C 0.27578 1.15403 1.15516
 C266 C 0.30266 1.12168 1.17995
 C267 C 0.34297 1.10305 1.16105
 C268 C 0.35818 1.11637 1.11708
 C269 C 0.33471 1.15183 1.09509
 C270 C 0.31723 1.15441 1.04693
 C271 C 0.27343 1.17437 1.06674
 H272 H 0.29329 1.11033 1.21411
 H273 H 0.36154 1.07737 1.18050
 H274 H 0.31233 1.12002 1.03111
 H275 H 0.33698 1.17933 1.02568
 H276 H 0.24298 1.15169 1.06235
 H277 H 0.26815 1.21069 1.05642
 C278 C 0.29353 0.83118 0.89258
 C279 C 0.27118 0.85104 0.85440
 C280 C 0.28606 0.89587 0.84190
 C281 C 0.32533 0.91576 0.86195
 C282 C 0.35044 0.89217 0.89575
 C283 C 0.33192 0.85125 0.91263
 C284 C 0.35463 0.80626 0.92095
 C285 C 0.31292 0.78403 0.89890
 H286 H 0.26837 0.91592 0.81614
 H287 H 0.33708 0.94873 0.84955
 H288 H 0.35792 0.79846 0.95828
 H289 H 0.38660 0.80202 0.90052
 H290 H 0.29268 0.76304 0.92367
 H291 H 0.32062 0.76687 0.86564
 C292 C 0.70800 0.83118 1.11381
 C293 C 0.72369 0.84286 1.15791
 C294 C 0.69477 0.87106 1.18484
 C295 C 0.65529 0.89130 1.16563
 C296 C 0.64329 0.88297 1.11947
 C297 C 0.66875 0.85051 1.09520
 C298 C 0.68930 0.85339 1.04822
 C299 C 0.73238 0.83219 1.06859
 H300 H 0.70299 0.87859 1.22035
 H301 H 0.63494 0.91428 1.18652
 H302 H 0.69428 0.88936 1.03634
 H303 H 0.67151 0.83055 1.02329
 H304 H 0.76245 0.85578 1.06856
 H305 H 0.73922 0.79719 1.05524
 C306 C 0.71214 1.16801 0.89283
 C307 C 0.73719 1.14556 0.85795
 C308 C 0.72375 1.09951 0.84873
 C309 C 0.68349 1.08067 0.86796
 C310 C 0.65595 1.10647 0.89785
 C311 C 0.67288 1.14891 0.91224
 C312 C 0.64896 1.19391 0.91506
 C313 C 0.69160 1.21510 0.89380
 H314 H 0.74312 1.07760 0.82605
 H315 H 0.67294 1.04661 0.85789
 H316 H 0.64313 1.20481 0.95122
 H317 H 0.61829 1.19574 0.89234
 H318 H 0.70989 1.23846 0.91787
 H319 H 0.68571 1.22934 0.85875
 C320 C 0.16788 0.29115 0.11094
 C321 C 0.15733 0.27615 0.15566
 C322 C 0.13147 0.30644 0.18344
 C323 C 0.11213 0.34658 0.16468
 C324 C 0.11921 0.35804 0.11812
 C325 C 0.14967 0.33117 0.09281
 C326 C 0.14420 0.31063 0.04609
 C327 C 0.16406 0.26668 0.06595
 H328 H 0.12501 0.29890 0.21932
 H329 H 0.09074 0.36792 0.18626
 H330 H 0.16700 0.32726 0.02027
 H331 H 0.10765 0.30732 0.03550
 H332 H 0.19815 0.25809 0.05127
 H333 H 0.13906 0.23780 0.06704
 C334 C -0.11452 0.29601 -0.17151
 C335 C -0.15780 0.27965 -0.15812
 C336 C -0.18370 0.30801 -0.12839
 C337 C -0.16398 0.34750 -0.10840
 C338 C -0.11833 0.36007 -0.11841
 C339 C -0.09547 0.33526 -0.15240
 C340 C -0.04858 0.31504 -0.15149
 C341 C -0.06930 0.27205 -0.17239
 H342 H -0.21859 0.29912 -0.11922
 H343 H -0.18390 0.36716 -0.08397
 H344 H -0.03565 0.30983 -0.11584
 H345 H -0.02483 0.33333 -0.17523
 H346 H -0.06823 0.24177 -0.14906
 H347 H -0.05703 0.26576 -0.20796
 C348 C 0.11638 0.70519 -0.16936
 C349 C 0.15924 0.72169 -0.15473
 C350 C 0.18396 0.69368 -0.12357
 C351 C 0.16356 0.65448 -0.10375
 C352 C 0.11840 0.64161 -0.11542
 C353 C 0.09670 0.66605 -0.15055
 C354 C 0.04966 0.68591 -0.15221
 C355 C 0.07114 0.72897 -0.17253
 H356 H 0.21868 0.70227 -0.11353
 H357 H 0.18270 0.63503 -0.07844
 H358 H 0.03472 0.69119 -0.11740
 H359 H 0.02736 0.66731 -0.17702
 H360 H 0.06895 0.75927 -0.14944
 H361 H 0.06053 0.73528 -0.20875
 C362 C -0.16816 0.70498 0.11452
 C363 C -0.15729 0.71934 0.15931
 C364 C -0.13083 0.68895 0.18649
 C365 C -0.11130 0.64929 0.16704
 C366 C -0.11866 0.63859 0.12038
 C367 C -0.14964 0.66554 0.09569
 C368 C -0.14475 0.68701 0.04925
 C369 C -0.16507 0.73030 0.06986
 H370 H -0.12399 0.69612 0.22236
 H371 H -0.08945 0.62783 0.18814
 H372 H -0.16749 0.67056 0.02337
 H373 H -0.10832 0.69101 0.03851
 H374 H -0.19943 0.73863 0.05559
 H375 H -0.14048 0.75953 0.07116
 C376 C 1.11154 0.17124 0.71049
 C377 C 1.14564 0.14844 0.73584
 C378 C 1.15522 0.10266 0.72287
 C379 C 1.13623 0.08373 0.68252
 C380 C 1.10637 0.10952 0.65462
 C381 C 1.09225 0.15221 0.67114
 C382 C 1.09013 0.19748 0.64722
 C383 C 1.11129 0.21837 0.69023
 H384 H 1.17833 0.08162 0.74295
 H385 H 1.14612 0.04952 0.67239
 H386 H 1.05422 0.20871 0.64113
 H387 H 1.11299 0.19925 0.61661
 H388 H 1.08748 0.24171 0.70867
 H389 H 1.14645 0.23224 0.68464
 C390 C 0.82669 -0.12074 0.70487
 C391 C 0.84265 -0.16229 0.72398
 C392 C 0.87604 -0.18604 0.69742
 C393 C 0.89605 -0.16596 0.65796
 C394 C 0.88314 -0.12184 0.64331
 C395 C 0.84638 -0.10125 0.66589
 C396 C 0.84202 -0.05361 0.68375
 C397 C 0.82038 -0.07452 0.72644
 H398 H 0.88753 -0.22003 0.70651
 H399 H 0.92266 -0.18447 0.63986
 H400 H 0.81766 -0.03277 0.66304
 H401 H 0.87583 -0.03711 0.69045
 H402 H 0.78363 -0.06526 0.72980
 H403 H 0.84132 -0.06990 0.75812
 C404 C 1.10729 -0.16264 0.28995
 C405 C 1.14262 -0.14044 0.26529
 C406 C 1.15457 -0.09563 0.28053
 C407 C 1.13669 -0.07765 0.32178
 C408 C 1.10607 -0.10358 0.34880
 C409 C 1.08973 -0.14473 0.33051
 C410 C 1.08575 -0.19071 0.35271
 C411 C 1.10485 -0.21060 0.30849
 H412 H 1.17819 -0.07420 0.26144
 H413 H 1.14817 -0.04420 0.33328
 H414 H 1.04951 -0.20066 0.35922
 H415 H 1.10920 -0.19475 0.38266
 H416 H 1.07938 -0.23209 0.28980
 H417 H 1.13928 -0.22641 0.31276
 C418 C 0.89646 0.16076 0.28864
 C419 C 0.86177 0.13850 0.26318
 C420 C 0.84968 0.09360 0.27836
 C421 C 0.86703 0.07548 0.31993
 C422 C 0.89718 0.10137 0.34742
 C423 C 0.91339 0.14273 0.32951
 C424 C 0.91631 0.18845 0.35213
 C425 C 0.89801 0.20851 0.30763
 H426 H 0.82648 0.07210 0.25895
 H427 H 0.85555 0.04193 0.33125
 H428 H 0.95229 0.19872 0.35957
 H429 H 0.89213 0.19188 0.38153
 H430 H 0.92390 0.23024 0.29003
 H431 H 0.86338 0.22408 0.31112
 C432 C 0.16945 0.29159 -0.10411
 C433 C 0.14417 0.26315 -0.13389
 C434 C 0.09720 0.27429 -0.13976
 C435 C 0.07938 0.31584 -0.12273
 C436 C 0.10736 0.34653 -0.09809
 C437 C 0.15137 0.33181 -0.08628
 C438 C 0.19614 0.35651 -0.08970
 C439 C 0.21604 0.31260 -0.10937
 H440 H 0.07430 0.25233 -0.15905
 H441 H 0.04431 0.32477 -0.13031
 H442 H 0.21024 0.36536 -0.05527
 H443 H 0.19529 0.38530 -0.11487
 H444 H 0.24182 0.29651 -0.08624
 H445 H 0.22670 0.31582 -0.14600
 C446 C -0.10004 0.28268 0.16412
 C447 C -0.13798 0.25994 0.14432
 C448 C -0.15211 0.27650 0.10042
 C449 C -0.13411 0.31749 0.08190
 C450 C -0.10103 0.34295 0.10620
 C451 C -0.08241 0.32302 0.14565
 C452 C -0.07314 0.34355 0.19159
 C453 C -0.09210 0.29954 0.21217
 H454 H -0.17754 0.25871 0.08005
 H455 H -0.14751 0.33009 0.04949
 H456 H -0.09483 0.37406 0.19868
 H457 H -0.03580 0.34836 0.19793
 H458 H -0.12451 0.30436 0.23177
 H459 H -0.06511 0.27957 0.23013
 C460 C -0.16734 0.70895 -0.10542
 C461 C -0.14480 0.73414 -0.14036
 C462 C -0.09903 0.72038 -0.15013
 C463 C -0.08055 0.67989 -0.13124
 C464 C -0.10644 0.65229 -0.10118
 C465 C -0.14861 0.66937 -0.08639
 C466 C -0.19394 0.64575 -0.08349
 C467 C -0.21470 0.68875 -0.10426
 H468 H -0.07706 0.73976 -0.17295
 H469 H -0.04667 0.66922 -0.14167
 H470 H -0.20478 0.63958 -0.04734
 H471 H -0.19626 0.61537 -0.10647
 H472 H -0.23766 0.70698 -0.07988
 H473 H -0.22922 0.68333 -0.13925
 C474 C 0.15450 0.71846 0.10584
 C475 C 0.14710 0.73314 0.15104
 C476 C 0.11978 0.70328 0.17861
 C477 C 0.10072 0.66229 0.16040
 C478 C 0.10902 0.64931 0.11431
 C479 C 0.13656 0.67884 0.08869
 C480 C 0.15423 0.68696 0.04136
 C481 C 0.17474 0.73180 0.06047
 H482 H 0.11349 0.71095 0.21448
 H483 H 0.08007 0.64061 0.18258
 H484 H 0.12615 0.69255 0.01606
 H485 H 0.18046 0.66131 0.03117
 H486 H 0.15858 0.76315 0.04595
 H487 H 0.21288 0.73178 0.06065
 C488 C 0.29543 1.11342 0.83219
 C489 C 0.27824 1.15581 0.84705
 C490 C 0.30705 1.18181 0.87650
 C491 C 0.34753 1.16278 0.89504
 C492 C 0.36092 1.11779 0.88371
 C493 C 0.33577 1.09517 0.84964
 C494 C 0.31740 1.04740 0.84851
 C495 C 0.27300 1.06731 0.82975
 H496 H 0.29795 1.21628 0.88663
 H497 H 0.36737 1.18271 0.91943
 H498 H 0.31377 1.03203 0.88341
 H499 H 0.33590 1.02600 0.82297
 H500 H 0.24357 1.06390 0.85390
 H501 H 0.26581 1.05658 0.79376
 C502 C 0.29052 0.89360 1.16819
 C503 C 0.27654 0.84835 1.15915
 C504 C 0.30815 0.82030 1.13519
 C505 C 0.34850 0.83909 1.11598
 C506 C 0.35889 0.88596 1.12139
 C507 C 0.33076 0.91173 1.15028
 C508 C 0.30968 0.95771 1.14253
 C509 C 0.26546 0.93787 1.16205
 H510 H 0.30152 0.78420 1.12988
 H511 H 0.37084 0.81725 1.09591
 H512 H 0.30724 0.96687 1.10543
 H513 H 0.32525 0.98453 1.16482
 H514 H 0.23734 0.93538 1.13628
 H515 H 0.25560 0.95352 1.19547
 C516 C 0.71342 1.16503 1.11121
 C517 C 0.72807 1.15434 1.15602
 C518 C 0.69684 1.12942 1.18393
 C519 C 0.65613 1.11093 1.16516
 C520 C 0.64509 1.11793 1.11847
 C521 C 0.67292 1.14773 1.09311
 C522 C 0.69338 1.14189 1.04639
 C523 C 0.73785 1.16079 1.06621
 H524 H 0.70415 1.12279 1.21981
 H525 H 0.63411 1.09008 1.18680
 H526 H 0.67741 1.16506 1.02059
 H527 H 0.69570 1.10531 1.03584
 H528 H 0.74745 1.19475 1.05155
 H529 H 0.76604 1.13517 1.06731
 C530 C 0.70609 0.88395 0.83167
 C531 C 0.72281 0.84120 0.84609
 C532 C 0.69471 0.81589 0.87689
 C533 C 0.65513 0.83567 0.89652
 C534 C 0.64208 0.88079 0.88507
 C535 C 0.66670 0.90297 0.85032
 C536 C 0.68625 0.95024 0.84930
 C537 C 0.72954 0.92953 0.82916
 H538 H 0.70365 0.78131 0.88696
 H539 H 0.63566 0.81618 0.92162
 H540 H 0.69122 0.96485 0.88429
 H541 H 0.66761 0.97254 0.82454
 H542 H 0.75976 0.93190 0.85244
 H543 H 0.73572 0.94076 0.79320
   
