data_POSCAR
  _audit_creation_date              2014-09-24
  _audit_creation_method            'ToBaCCo'
  _symmetry_space_group_name_H-M    'P1'
  _symmetry_Int_Tables_number       1
  _symmetry_cell_setting            triclinic
  loop_
  _symmetry_equiv_pos_as_xyz
 x,y,z
_cell_length_a 27.3965
_cell_length_b 27.3839
_cell_length_c 27.4110
_cell_angle_alpha 90.060100
_cell_angle_beta 89.943900
_cell_angle_gamma 89.954100
loop_
  _atom_site_label
  _atom_site_type_symbol
  _atom_site_fract_x
  _atom_site_fract_y
  _atom_site_fract_z
C1 C -0.06560 0.51094 0.27044
 C2 C -0.01999 0.51992 0.24932
 C3 C -0.01021 0.56537 0.22827
 C4 C -0.04589 0.60248 0.22721
 C5 C -0.09155 0.59271 0.24925
 C6 C -0.10202 0.54737 0.27163
 C7 C 0.01819 0.48184 0.25025
 C8 C 0.00944 0.43607 0.22905
 C9 C 0.04598 0.40005 0.22858
 C10 C 0.09110 0.41005 0.25083
 C11 C 0.10019 0.45560 0.27269
 C12 C 0.06357 0.49149 0.27176
 H13 H -0.07094 0.47621 0.28843
 H14 H 0.02604 0.57161 0.21388
 H15 H -0.02532 0.42924 0.21151
 H16 H 0.07024 0.52705 0.28781
 H17 H -0.12059 0.61908 0.24542
 H18 H 0.11883 0.38186 0.25212
 C19 C -0.06486 0.49161 0.73099
 C20 C -0.01940 0.48143 0.75179
 C21 C -0.01075 0.43558 0.77280
 C22 C -0.04746 0.39935 0.77393
 C23 C -0.09280 0.41041 0.75186
 C24 C -0.10164 0.45610 0.73024
 C25 C 0.01924 0.51899 0.75178
 C26 C 0.01060 0.56486 0.77286
 C27 C 0.04734 0.60105 0.77403
 C28 C 0.09269 0.58994 0.75189
 C29 C 0.10152 0.54424 0.73020
 C30 C 0.06471 0.50876 0.73092
 H31 H -0.07137 0.52721 0.71501
 H32 H 0.02403 0.42987 0.79055
 H33 H -0.02420 0.57062 0.79065
 H34 H 0.07121 0.47314 0.71489
 H35 H -0.12077 0.38275 0.74878
 H36 H 0.12069 0.61758 0.74882
 C37 C 0.27181 -0.06464 0.50980
 C38 C 0.25070 -0.01879 0.51846
 C39 C 0.22994 -0.00853 0.56397
 C40 C 0.22934 -0.04398 0.60079
 C41 C 0.25103 -0.08968 0.59192
 C42 C 0.27309 -0.10081 0.54655
 C43 C 0.25079 0.01880 0.47987
 C44 C 0.22956 0.00894 0.43441
 C45 C 0.22902 0.04438 0.39696
 C46 C 0.25181 0.08974 0.40646
 C47 C 0.27375 0.09977 0.45172
 C48 C 0.27250 0.06422 0.48843
 H49 H 0.28956 -0.07040 0.47501
 H50 H 0.21395 0.02710 0.57049
 H51 H 0.21459 -0.02713 0.42849
 H52 H 0.28975 0.07119 0.52331
 H53 H 0.24805 -0.11730 0.61992
 H54 H 0.25047 0.11884 0.37986
 C55 C 0.72824 -0.06499 0.48986
 C56 C 0.74929 -0.01917 0.48121
 C57 C 0.77002 -0.00900 0.43570
 C58 C 0.77064 -0.04451 0.39887
 C59 C 0.74901 -0.09019 0.40773
 C60 C 0.72699 -0.10123 0.45311
 C61 C 0.74923 0.01847 0.51982
 C62 C 0.77035 0.00858 0.56531
 C63 C 0.77094 0.04407 0.60277
 C64 C 0.74831 0.08953 0.59327
 C65 C 0.72648 0.09959 0.54798
 C66 C 0.72767 0.06397 0.51125
 H67 H 0.71051 -0.07067 0.52466
 H68 H 0.78597 0.02661 0.42918
 H69 H 0.78520 -0.02755 0.57124
 H70 H 0.71050 0.07097 0.47635
 H71 H 0.75199 -0.11786 0.37971
 H72 H 0.74969 0.11865 0.61989
 C73 C 0.49101 0.26934 1.06435
 C74 C 0.48077 0.24853 1.01889
 C75 C 0.43488 0.22761 1.01029
 C76 C 0.39867 0.22657 1.04706
 C77 C 0.40980 0.24866 1.09239
 C78 C 0.45553 0.27018 1.10118
 C79 C 0.51836 0.24838 0.98022
 C80 C 0.56418 0.22729 0.98885
 C81 C 0.60044 0.22605 0.95214
 C82 C 0.58943 0.24810 0.90681
 C83 C 0.54377 0.26980 0.89796
 C84 C 0.50823 0.26916 0.93475
 H85 H 0.52665 0.28523 1.07081
 H86 H 0.42911 0.20984 0.97552
 H87 H 0.56987 0.20956 1.02363
 H88 H 0.47265 0.28521 0.92826
 H89 H 0.38217 0.25182 1.12041
 H90 H 0.61711 0.25110 0.87883
 C91 C 0.51091 0.72821 1.06430
 C92 C 0.51941 0.74980 1.01886
 C93 C 0.56492 0.77091 1.00884
 C94 C 0.60249 0.77145 1.04414
 C95 C 0.59303 0.74883 1.08956
 C96 C 0.54773 0.72698 1.09974
 C97 C 0.48074 0.74977 0.98137
 C98 C 0.43521 0.77096 0.99138
 C99 C 0.39766 0.77146 0.95606
 C100 C 0.40713 0.74871 0.91066
 C101 C 0.45244 0.72679 0.90049
 C102 C 0.48925 0.72806 0.93593
 H103 H 0.47601 0.71101 1.07138
 H104 H 0.57079 0.78574 0.97274
 H105 H 0.42933 0.78590 1.02746
 H106 H 0.52417 0.71081 0.92886
 H107 H 0.61972 0.75019 1.11855
 H108 H 0.38045 0.75004 0.88165
 B109 B 0.99951 1.05030 0.03063
 B110 B 0.99981 1.05025 -0.03086
 B111 B 1.04949 1.03139 0.00002
 B112 B 1.03037 1.00059 0.04969
 B113 B 0.96885 1.00048 0.04950
 B114 B 0.94997 1.03113 -0.00027
 B115 B 1.00011 0.95069 -0.03088
 B116 B 0.99988 0.95075 0.03059
 B117 B 0.95018 0.96959 -0.00032
 B118 B 0.96929 1.00035 -0.04996
 B119 B 1.03081 1.00056 -0.04977
 B120 B 1.04969 0.96985 0.00004
 B121 B 0.55001 0.50028 0.46915
 B122 B 0.54986 0.50031 0.53063
 B123 B 0.53086 0.55007 0.49995
 B124 B 0.50022 0.53106 0.45012
 B125 B 0.50036 0.46951 0.45004
 B126 B 0.53101 0.45051 0.49977
 B127 B 0.45036 0.50020 0.53048
 B128 B 0.45049 0.50027 0.46901
 B129 B 0.46950 0.45047 0.49972
 B130 B 0.50009 0.46948 0.54949
 B131 B 0.50004 0.53102 0.54959
 B132 B 0.46934 0.55004 0.49983
 C133 C 1.06639 1.28682 0.15140
 C134 C 1.02130 1.26323 0.15562
 C135 C 0.98429 1.28404 0.18410
 C136 C 0.99229 1.32841 0.20813
 C137 C 1.03748 1.35248 0.20396
 C138 C 1.07446 1.33111 0.17537
 C139 C 1.01328 1.21788 0.13033
 C140 C 1.00778 1.18001 0.10860
 C141 C 1.00291 1.13582 0.08261
 C142 C 1.00026 1.09819 0.06002
 H143 H 1.09524 1.27110 0.12931
 H144 H 0.94929 1.26601 0.18769
 H145 H 0.96331 1.34369 0.23029
 H146 H 1.10937 1.34907 0.17084
 C147 C 1.00598 0.69643 0.14204
 C148 C 0.98024 0.73812 0.15621
 C149 C 0.94663 0.73537 0.19443
 C150 C 0.93831 0.69099 0.21814
 C151 C 0.96349 0.64805 0.20404
 C152 C 0.99790 0.65194 0.16564
 C153 C 0.98715 0.78341 0.13056
 C154 C 0.99201 0.82121 0.10865
 C155 C 0.99646 0.86533 0.08256
 C156 C 0.99898 0.90290 0.05995
 H157 H 1.03178 0.69808 0.11210
 H158 H 0.92672 0.76759 0.20594
 H159 H 0.91313 0.69120 0.24855
 H160 H 1.01715 0.62039 0.15172
 C161 C 0.92961 1.28131 -0.16050
 C162 C 0.97696 1.26315 -0.15543
 C163 C 1.01629 1.28948 -0.17429
 C164 C 1.00842 1.33407 -0.19784
 C165 C 0.96075 1.35344 -0.20311
 C166 C 0.92147 1.32580 -0.18404
 C167 C 0.98496 1.21780 -0.13019
 C168 C 0.99059 1.17994 -0.10854
 C169 C 0.99575 1.13575 -0.08268
 C170 C 0.99870 1.09813 -0.06018
 H171 H 0.89887 1.26137 -0.14561
 H172 H 1.05314 1.27550 -0.17091
 H173 H 1.03993 1.35212 -0.21325
 H174 H 0.88434 1.33914 -0.18496
 C175 C 0.98372 0.71110 -0.17408
 C176 C 1.02307 0.73740 -0.15525
 C177 C 1.07039 0.71913 -0.16032
 C178 C 1.07848 0.67458 -0.18386
 C179 C 1.03917 0.64699 -0.20294
 C180 C 0.99153 0.66645 -0.19763
 C181 C 1.01514 0.78285 -0.13006
 C182 C 1.00954 0.82079 -0.10846
 C183 C 1.00440 0.86507 -0.08266
 C184 C 1.00141 0.90276 -0.06020
 H185 H 0.94689 0.72516 -0.17069
 H186 H 1.10115 0.73904 -0.14545
 H187 H 1.11559 0.66117 -0.18481
 H188 H 0.96001 0.64842 -0.21303
 C189 C 1.14286 0.99335 0.30346
 C190 C 1.15705 1.01893 0.26177
 C191 C 1.19573 1.05199 0.26432
 C192 C 1.21983 1.06001 0.30852
 C193 C 1.20568 1.03506 0.35149
 C194 C 1.16686 1.00113 0.34777
 C195 C 1.13096 1.01243 0.21669
 C196 C 1.10874 1.00792 0.17904
 C197 C 1.08238 1.00382 0.13507
 C198 C 1.05965 1.00149 0.09757
 H199 H 1.11259 0.96796 0.30197
 H200 H 1.20728 1.07174 0.23208
 H201 H 1.25053 1.08478 0.30811
 H202 H 1.15288 0.98208 0.37934
 C203 C 1.13591 0.99872 -0.30611
 C204 C 1.15685 0.98248 -0.26250
 C205 C 1.20199 0.95853 -0.26339
 C206 C 1.22590 0.95041 -0.30776
 C207 C 1.20489 0.96614 -0.35186
 C208 C 1.15975 0.99067 -0.35050
 C209 C 1.13123 0.98889 -0.21709
 C210 C 1.10929 0.99337 -0.17922
 C211 C 1.08311 0.99745 -0.13508
 C212 C 1.06038 0.99975 -0.09753
 H213 H 1.10084 1.01704 -0.30586
 H214 H 1.21852 0.94577 -0.22984
 H215 H 1.26086 0.93193 -0.30759
 H216 H 1.14233 1.00262 -0.38387
 C217 C 0.79789 0.95793 0.26305
 C218 C 0.84298 0.98190 0.26218
 C219 C 0.86395 0.99813 0.30580
 C220 C 0.84016 0.99005 0.35019
 C221 C 0.79506 0.96552 0.35153
 C222 C 0.77404 0.94979 0.30742
 C223 C 0.86853 0.98840 0.21676
 C224 C 0.89042 0.99298 0.17890
 C225 C 0.91657 0.99717 0.13478
 C226 C 0.93929 0.99957 0.09724
 H227 H 0.78136 0.94518 0.22948
 H228 H 0.89898 1.01646 0.30556
 H229 H 0.85759 1.00201 0.38357
 H230 H 0.73911 0.93131 0.30724
 C231 C 0.85683 0.99278 -0.30368
 C232 C 0.84266 1.01846 -0.26199
 C233 C 0.80407 1.05169 -0.26455
 C234 C 0.78005 1.05977 -0.30877
 C235 C 0.79419 1.03471 -0.35174
 C236 C 0.83292 1.00062 -0.34801
 C237 C 0.86870 1.01194 -0.21690
 C238 C 0.89091 1.00741 -0.17926
 C239 C 0.91727 1.00333 -0.13530
 C240 C 0.94000 1.00107 -0.09782
 H241 H 0.88705 0.96727 -0.30218
 H242 H 0.79254 1.07153 -0.23230
 H243 H 0.74942 1.08468 -0.30837
 H244 H 0.84690 0.98148 -0.37959
 C245 C 1.28869 1.17490 -0.01646
 C246 C 1.26233 1.15612 0.02289
 C247 C 1.28053 1.16120 0.07018
 C248 C 1.32506 1.18467 0.07823
 C249 C 1.35272 1.20367 0.03893
 C250 C 1.33332 1.19839 -0.00867
 C251 C 1.21695 1.13091 0.01497
 C252 C 1.17907 1.10928 0.00937
 C253 C 1.13489 1.08339 0.00422
 C254 C 1.09730 1.06085 0.00124
 H255 H 1.27469 1.17151 -0.05326
 H256 H 1.26058 1.14637 0.10093
 H257 H 1.33841 1.18560 0.11532
 H258 H 1.35139 1.21374 -0.04019
 C259 C 0.71028 1.17428 0.01586
 C260 C 0.73670 1.15537 -0.02344
 C261 C 0.71858 1.16035 -0.07076
 C262 C 0.67407 1.18389 -0.07889
 C263 C 0.64635 1.20304 -0.03965
 C264 C 0.66567 1.19783 0.00799
 C265 C 0.78211 1.13017 -0.01543
 C266 C 0.82002 1.10858 -0.00976
 C267 C 0.86428 1.08279 -0.00452
 C268 C 0.90198 1.06037 -0.00150
 H269 H 0.72423 1.17097 0.05269
 H270 H 0.73858 1.14542 -0.10147
 H271 H 0.66078 1.18476 -0.11600
 H272 H 0.64756 1.21330 0.03948
 C273 C 1.26481 0.80451 -0.05119
 C274 C 1.26217 0.84318 -0.01806
 C275 C 1.30388 0.85743 0.00746
 C276 C 1.34829 0.83351 -0.00045
 C277 C 1.35209 0.79471 -0.03447
 C278 C 1.30910 0.78049 -0.05934
 C279 C 1.21699 0.86923 -0.01149
 C280 C 1.17925 0.89142 -0.00696
 C281 C 1.13518 0.91775 -0.00290
 C282 C 1.09761 0.94049 -0.00066
 H283 H 1.23256 0.79291 -0.07091
 H284 H 1.30233 0.88770 0.03291
 H285 H 1.37986 0.84753 0.01856
 H286 H 1.30875 0.74979 -0.08417
 C287 C 0.69625 0.85709 -0.00742
 C288 C 0.73798 0.84286 0.01808
 C289 C 0.73535 0.80432 0.05127
 C290 C 0.69105 0.78041 0.05950
 C291 C 0.64805 0.79462 0.03464
 C292 C 0.65184 0.83329 0.00056
 C293 C 0.78316 0.86880 0.01142
 C294 C 0.82089 0.89093 0.00681
 C295 C 0.86492 0.91725 0.00268
 C296 C 0.90242 0.94004 0.00039
 H297 H 0.69779 0.88727 -0.03292
 H298 H 0.76761 0.79273 0.07098
 H299 H 0.69142 0.74980 0.08438
 H300 H 0.62026 0.84732 -0.01845
 C301 C 0.78042 0.56998 0.33832
 C302 C 0.76248 0.52258 0.34355
 C303 C 0.78883 0.48327 0.32448
 C304 C 0.83320 0.49124 0.30050
 C305 C 0.85229 0.53898 0.29501
 C306 C 0.82467 0.57821 0.31437
 C307 C 0.71732 0.51456 0.36915
 C308 C 0.67958 0.50903 0.39106
 C309 C 0.63549 0.50407 0.41718
 C310 C 0.59792 0.50130 0.43981
 H311 H 0.76048 0.60070 0.35338
 H312 H 0.77503 0.44637 0.32801
 H313 H 0.85131 0.45976 0.28497
 H314 H 0.83789 0.61540 0.31333
 C315 C 0.19364 0.49828 0.36550
 C316 C 0.23716 0.48163 0.34451
 C317 C 0.23609 0.45725 0.29963
 C318 C 0.19162 0.44917 0.27599
 C319 C 0.14760 0.46537 0.29701
 C320 C 0.14914 0.49027 0.34192
 C321 C 0.28270 0.48816 0.36978
 C322 C 0.32069 0.49276 0.39140
 C323 C 0.36498 0.49697 0.41721
 C324 C 0.40265 0.49937 0.43967
 H325 H 0.19403 0.51694 0.40037
 H326 H 0.26958 0.44419 0.28307
 H327 H 0.19167 0.43043 0.24118
 H328 H 0.11584 0.50261 0.35933
 C329 C 0.80581 0.49855 0.63644
 C330 C 0.76206 0.48229 0.65716
 C331 C 0.76266 0.45838 0.70226
 C332 C 0.80689 0.45034 0.72637
 C333 C 0.85114 0.46610 0.70559
 C334 C 0.85007 0.49057 0.66048
 C335 C 0.71681 0.48866 0.63134
 C336 C 0.67908 0.49312 0.60924
 C337 C 0.63507 0.49719 0.58292
 C338 C 0.59761 0.49949 0.56013
 H339 H 0.80579 0.51683 0.60140
 H340 H 0.72899 0.44562 0.71860
 H341 H 0.80651 0.43190 0.76129
 H342 H 0.88356 0.50253 0.64323
 C343 C 0.23724 0.54189 0.70214
 C344 C 0.23788 0.51801 0.65697
 C345 C 0.19415 0.50177 0.63625
 C346 C 0.14987 0.50974 0.66034
 C347 C 0.14876 0.53420 0.70551
 C348 C 0.19298 0.54993 0.72630
 C349 C 0.28315 0.51167 0.63110
 C350 C 0.32092 0.50724 0.60897
 C351 C 0.36497 0.50322 0.58264
 C352 C 0.40250 0.50097 0.55988
 H353 H 0.27090 0.55464 0.71849
 H354 H 0.19421 0.48351 0.60116
 H355 H 0.11640 0.49780 0.64309
 H356 H 0.19333 0.56836 0.76127
 C357 C 0.56771 0.64951 0.21266
 C358 C 0.52297 0.65473 0.23678
 C359 C 0.48631 0.68387 0.21638
 C360 C 0.49432 0.70760 0.17191
 C361 C 0.53917 0.70247 0.14732
 C362 C 0.57579 0.67319 0.16826
 C363 C 0.51492 0.62982 0.28229
 C364 C 0.50931 0.60842 0.32027
 C365 C 0.50422 0.58276 0.36457
 C366 C 0.50132 0.56037 0.40225
 H367 H 0.59628 0.62692 0.22805
 H368 H 0.45158 0.68824 0.23481
 H369 H 0.46563 0.73033 0.15698
 H370 H 0.61043 0.66796 0.14991
 C371 C 0.51386 0.68356 0.78378
 C372 C 0.47721 0.65444 0.76334
 C373 C 0.43250 0.64924 0.78749
 C374 C 0.42442 0.67292 0.83194
 C375 C 0.46102 0.70220 0.85290
 C376 C 0.50586 0.70730 0.82830
 C377 C 0.48524 0.62957 0.71775
 C378 C 0.49084 0.60822 0.67969
 C379 C 0.49594 0.58262 0.63530
 C380 C 0.49886 0.56029 0.59755
 H381 H 0.54857 0.68791 0.76532
 H382 H 0.40394 0.62666 0.77206
 H383 H 0.38980 0.66773 0.85030
 H384 H 0.53453 0.73002 0.84325
 C385 C 0.49836 0.36386 0.19385
 C386 C 0.48205 0.34315 0.23756
 C387 C 0.45796 0.29810 0.23689
 C388 C 0.44980 0.27404 0.19263
 C389 C 0.46562 0.29480 0.14842
 C390 C 0.49026 0.33987 0.14957
 C391 C 0.48855 0.36893 0.28285
 C392 C 0.49312 0.39100 0.32063
 C393 C 0.49728 0.41729 0.36468
 C394 C 0.49961 0.44006 0.40221
 H395 H 0.51678 0.39886 0.19393
 H396 H 0.44515 0.28177 0.27053
 H397 H 0.43123 0.23914 0.19296
 H398 H 0.50228 0.35711 0.11612
 C399 C 0.50147 0.36369 0.80539
 C400 C 0.51784 0.34291 0.76168
 C401 C 0.54175 0.29773 0.76231
 C402 C 0.54970 0.27361 0.80653
 C403 C 0.53384 0.29445 0.85075
 C404 C 0.50936 0.33964 0.84964
 C405 C 0.51155 0.36874 0.71643
 C406 C 0.50714 0.39085 0.67870
 C407 C 0.50313 0.41718 0.63471
 C408 C 0.50086 0.43998 0.59724
 H409 H 0.48318 0.39878 0.80534
 H410 H 0.55460 0.28133 0.72867
 H411 H 0.56815 0.23862 0.80618
 H412 H 0.49732 0.35694 0.88309
 C413 C 0.67494 0.78903 0.51678
 C414 C 0.65595 0.76275 0.47747
 C415 C 0.66104 0.78090 0.43017
 C416 C 0.68472 0.82531 0.42205
 C417 C 0.70392 0.85291 0.46130
 C418 C 0.69865 0.83355 0.50892
 C419 C 0.63054 0.71749 0.48545
 C420 C 0.60876 0.67969 0.49104
 C421 C 0.58276 0.63556 0.49612
 C422 C 0.56019 0.59797 0.49897
 H423 H 0.67155 0.77506 0.55360
 H424 H 0.64605 0.76100 0.39946
 H425 H 0.68565 0.83865 0.38495
 H426 H 0.71415 0.85156 0.54041
 C427 C 0.64916 0.21291 0.56760
 C428 C 0.65448 0.23684 0.52284
 C429 C 0.68366 0.21620 0.48630
 C430 C 0.70732 0.17165 0.49443
 C431 C 0.70207 0.14725 0.53931
 C432 C 0.67276 0.16843 0.57582
 C433 C 0.62966 0.28242 0.51465
 C434 C 0.60832 0.32047 0.50893
 C435 C 0.58272 0.36485 0.50375
 C436 C 0.56035 0.40259 0.50082
 H437 H 0.62654 0.22850 0.59609
 H438 H 0.68812 0.23450 0.45155
 H439 H 0.73007 0.15653 0.46584
 H440 H 0.66746 0.15022 0.61046
 C441 C 0.32527 0.78924 0.48294
 C442 C 0.34421 0.76301 0.52227
 C443 C 0.33909 0.78129 0.56956
 C444 C 0.31540 0.82576 0.57764
 C445 C 0.29622 0.85329 0.53837
 C446 C 0.30156 0.83382 0.49076
 C447 C 0.36960 0.71765 0.51434
 C448 C 0.39134 0.67977 0.50880
 C449 C 0.41732 0.63556 0.50376
 C450 C 0.43991 0.59793 0.50090
 H451 H 0.32869 0.77517 0.44613
 H452 H 0.35405 0.76144 0.60029
 H453 H 0.31445 0.83918 0.61474
 H454 H 0.28610 0.85179 0.45926
 C455 C 0.31701 0.21634 0.51332
 C456 C 0.34614 0.23681 0.47670
 C457 C 0.35131 0.21275 0.43194
 C458 C 0.32761 0.16834 0.42378
 C459 C 0.29833 0.14734 0.46036
 C460 C 0.29325 0.17185 0.50525
 C461 C 0.37102 0.28236 0.48481
 C462 C 0.39238 0.32039 0.49048
 C463 C 0.41796 0.36476 0.49563
 C464 C 0.44028 0.40251 0.49857
 H465 H 0.31267 0.23473 0.54807
 H466 H 0.37389 0.22821 0.40339
 H467 H 0.33278 0.15004 0.38912
 H468 H 0.27053 0.15688 0.53390
   
