data_POSCAR
  _audit_creation_date              2014-09-24
  _audit_creation_method            'ToBaCCo'
  _symmetry_space_group_name_H-M    'P1'
  _symmetry_Int_Tables_number       1
  _symmetry_cell_setting            triclinic
  loop_
  _symmetry_equiv_pos_as_xyz
 x,y,z
_cell_length_a 50.2755
_cell_length_b 50.2755
_cell_length_c 50.2757
_cell_angle_alpha 89.006600
_cell_angle_beta 89.007200
_cell_angle_gamma 89.007000
loop_
  _atom_site_label
  _atom_site_type_symbol
  _atom_site_fract_x
  _atom_site_fract_y
  _atom_site_fract_z
C1 C 0.75495 0.61858 0.99940
 C2 C 0.74953 0.37905 0.50276
 C3 C 0.24958 -0.12099 0.00275
 C4 C 0.25494 0.11856 0.49940
 C5 C 0.11854 0.49941 0.25496
 C6 C -0.12096 0.00277 0.24954
 C7 C 0.37898 0.50276 0.74955
 C8 C 0.61858 0.99940 0.75493
 C9 C 0.00275 0.24958 -0.12098
 C10 C 0.49940 0.25495 0.11854
 C11 C 0.99940 0.75499 0.61858
 C12 C 0.50275 0.74956 0.37901
 C13 C 0.41871 -0.02555 0.27771
 H14 H 0.41982 -0.00640 0.28708
 C15 C 0.43288 -0.04743 0.28812
 H16 H 0.44508 -0.04512 0.30545
 C17 C 0.40034 -0.05245 0.24461
 H18 H 0.38704 -0.05461 0.22820
 C19 C 0.41416 -0.07477 0.25435
 H20 H 0.41165 -0.09389 0.24519
 N21 N 0.40274 -0.02844 0.25640
 C22 C 0.38683 0.05024 0.22169
 H23 H 0.36541 0.04899 0.22071
 C24 C 0.39957 0.07291 0.21200
 H25 H 0.38795 0.08918 0.20348
 C26 C 0.42814 0.03051 0.23399
 H27 H 0.43913 0.01385 0.24245
 C28 C 0.44172 0.05292 0.22449
 H29 H 0.46319 0.05355 0.22570
 Zn30 Zn 0.38090 0.00070 0.24546
 N31 N 0.40113 0.02978 0.23270
 C32 C 0.36237 0.03644 0.28463
 N33 N 0.36018 0.01129 0.27541
 C34 C 0.34484 -0.00699 0.28845
 C35 C 0.33077 -0.00010 0.31166
 C36 C 0.34865 0.04412 0.30765
 C37 C 0.37218 -0.01488 0.19378
 C38 C 0.35806 -0.02293 0.17179
 C39 C 0.31737 -0.01914 0.19789
 C40 C 0.33230 -0.01111 0.21948
 N41 N 0.35926 -0.00954 0.21713
 H42 H 0.37520 0.05049 0.27454
 H43 H 0.34388 -0.02701 0.28102
 H44 H 0.31878 -0.01477 0.32208
 H45 H 0.35074 0.06412 0.31494
 H46 H 0.39358 -0.01316 0.19241
 H47 H 0.36860 -0.02753 0.15341
 H48 H 0.29598 -0.02075 0.19994
 H49 H 0.32237 -0.00631 0.23805
 C50 C 0.42722 0.07435 0.21353
 C51 C 0.43036 -0.07231 0.27645
 C52 C 0.33045 -0.02525 0.17390
 C53 C 0.33281 0.02569 0.32135
 C54 C 0.08498 1.02439 0.78216
 H55 H 0.08323 1.00521 0.79207
 C56 C 0.07122 1.04654 0.79222
 H57 H 0.05869 1.04443 0.80985
 C58 C 0.10453 1.05101 0.74792
 H59 H 0.11813 1.05293 0.73118
 C60 C 0.09114 1.07360 0.75730
 H61 H 0.09427 1.09271 0.74756
 N62 N 0.10133 1.02701 0.76044
 C63 C 0.11529 0.94793 0.72806
 H64 H 0.13680 0.94823 0.72710
 C65 C 0.10186 0.92610 0.71860
 H66 H 0.11303 0.90949 0.71032
 C67 C 0.07444 0.96946 0.73965
 H68 H 0.06390 0.98655 0.74758
 C69 C 0.06017 0.94793 0.73033
 H70 H 0.03863 0.94841 0.73121
 Zn71 Zn 0.12248 0.99736 0.74982
 N72 N 0.10153 0.96893 0.73852
 C73 C 0.14030 0.96125 0.78973
 N74 N 0.14290 0.98632 0.77946
 C75 C 0.15866 1.00434 0.79116
 C76 C 0.17282 0.99726 0.81400
 C77 C 0.15409 0.95338 0.81245
 C78 C 0.13174 1.01294 0.69742
 C79 C 0.14613 1.02070 0.67473
 C80 C 0.18668 1.01558 0.69961
 C81 C 0.17149 1.00786 0.72192
 N82 N 0.14449 1.00711 0.72050
 H83 H 0.12715 0.94743 0.78067
 H84 H 0.15995 1.02430 0.78291
 H85 H 0.18520 1.01173 0.82332
 H86 H 0.15173 0.93345 0.82058
 H87 H 0.11029 1.01185 0.69681
 H88 H 0.13575 1.02573 0.65657
 H89 H 0.20812 1.01656 0.70090
 H90 H 0.18126 1.00264 0.74029
 C91 C 0.07407 0.92607 0.71975
 C92 C 0.07454 1.07141 0.77979
 C93 C 0.17381 1.02222 0.67588
 C94 C 0.17043 0.97154 0.82474
 C95 C 0.58496 0.52436 0.28212
 H96 H 0.58321 0.50518 0.29203
 C97 C 0.57119 0.54651 0.29219
 H98 H 0.55867 0.54439 0.30982
 C99 C 0.60451 0.55098 0.24789
 H100 H 0.61811 0.55291 0.23115
 C101 C 0.59111 0.57358 0.25727
 H102 H 0.59424 0.59268 0.24753
 N103 N 0.60131 0.52698 0.26040
 C104 C 0.61528 0.44791 0.22803
 H105 H 0.63679 0.44820 0.22707
 C106 C 0.60186 0.42608 0.21856
 H107 H 0.61303 0.40947 0.21029
 C108 C 0.57443 0.46943 0.23961
 H109 H 0.56389 0.48652 0.24754
 C110 C 0.56017 0.44790 0.23029
 H111 H 0.53862 0.44838 0.23117
 Zn112 Zn 0.62247 0.49734 0.24979
 N113 N 0.60152 0.46890 0.23848
 C114 C 0.64028 0.46123 0.28970
 N115 N 0.64288 0.48630 0.27943
 C116 C 0.65864 0.50433 0.29114
 C117 C 0.67279 0.49725 0.31398
 C118 C 0.65407 0.45337 0.31243
 C119 C 0.63173 0.51292 0.19740
 C120 C 0.64612 0.52069 0.17471
 C121 C 0.68666 0.51558 0.19959
 C122 C 0.67147 0.50785 0.22190
 N123 N 0.64447 0.50709 0.22048
 H124 H 0.62714 0.44741 0.28064
 H125 H 0.65992 0.52429 0.28289
 H126 H 0.68516 0.51172 0.32330
 H127 H 0.65171 0.43343 0.32055
 H128 H 0.61028 0.51183 0.19678
 H129 H 0.63574 0.52572 0.15655
 H130 H 0.70811 0.51656 0.20089
 H131 H 0.68124 0.50263 0.24027
 C132 C 0.57407 0.42604 0.21971
 C133 C 0.57452 0.57138 0.27976
 C134 C 0.67380 0.52221 0.17586
 C135 C 0.67040 0.47153 0.32472
 C136 C 0.91871 0.47447 0.77770
 H137 H 0.91982 0.49362 0.78707
 C138 C 0.93288 0.45259 0.78811
 H139 H 0.94507 0.45490 0.80544
 C140 C 0.90033 0.44757 0.74460
 H141 H 0.88703 0.44541 0.72819
 C142 C 0.91416 0.42525 0.75434
 H143 H 0.91164 0.40613 0.74518
 N144 N 0.90274 0.47157 0.75639
 C145 C 0.88683 0.55027 0.72168
 H146 H 0.86541 0.54901 0.72070
 C147 C 0.89957 0.57293 0.71200
 H148 H 0.88796 0.58921 0.70348
 C149 C 0.92813 0.53053 0.73399
 H150 H 0.93913 0.51387 0.74245
 C151 C 0.94172 0.55294 0.72449
 H152 H 0.96319 0.55357 0.72570
 Zn153 Zn 0.88090 0.50072 0.74545
 N154 N 0.90112 0.52980 0.73270
 C155 C 0.86238 0.53646 0.78463
 N156 N 0.86018 0.51131 0.77541
 C157 C 0.84484 0.49303 0.78845
 C158 C 0.83077 0.49992 0.81165
 C159 C 0.84866 0.54414 0.80765
 C160 C 0.87217 0.48514 0.69377
 C161 C 0.85805 0.47710 0.67178
 C162 C 0.81736 0.48089 0.69789
 C163 C 0.83230 0.48892 0.71948
 N164 N 0.85925 0.49048 0.71712
 H165 H 0.87520 0.55051 0.77453
 H166 H 0.84388 0.47301 0.78102
 H167 H 0.81878 0.48524 0.82208
 H168 H 0.85075 0.56414 0.81494
 H169 H 0.89358 0.48686 0.69241
 H170 H 0.86858 0.47250 0.65341
 H171 H 0.79597 0.47928 0.69994
 H172 H 0.82237 0.49372 0.73805
 C173 C 0.92722 0.57437 0.71353
 C174 C 0.93035 0.42771 0.77644
 C175 C 0.83043 0.47478 0.67390
 C176 C 0.83282 0.52571 0.82135
 C177 C 0.27769 0.41874 -0.02555
 H178 H 0.28707 0.41984 -0.00640
 C179 C 0.28809 0.43290 -0.04743
 H180 H 0.30543 0.44510 -0.04512
 C181 C 0.24459 0.40036 -0.05244
 H182 H 0.22818 0.38706 -0.05460
 C183 C 0.25432 0.41419 -0.07476
 H184 H 0.24517 0.41167 -0.09389
 N185 N 0.25638 0.40277 -0.02844
 C186 C 0.22168 0.38685 0.05025
 H187 H 0.22070 0.36543 0.04900
 C188 C 0.21199 0.39959 0.07292
 H189 H 0.20347 0.38797 0.08919
 C190 C 0.23398 0.42816 0.03051
 H191 H 0.24244 0.43915 0.01386
 C192 C 0.22447 0.44174 0.05293
 H193 H 0.22569 0.46321 0.05356
 Zn194 Zn 0.24544 0.38092 0.00071
 N195 N 0.23269 0.40115 0.02978
 C196 C 0.28462 0.36240 0.03644
 N197 N 0.27540 0.36021 0.01129
 C198 C 0.28844 0.34487 -0.00699
 C199 C 0.31164 0.33079 -0.00010
 C200 C 0.30764 0.34868 0.04411
 C201 C 0.19376 0.37220 -0.01487
 C202 C 0.17177 0.35808 -0.02291
 C203 C 0.19788 0.31739 -0.01913
 C204 C 0.21946 0.33232 -0.01110
 N205 N 0.21711 0.35928 -0.00954
 H206 H 0.27453 0.37522 0.05049
 H207 H 0.28100 0.34391 -0.02701
 H208 H 0.32207 0.31880 -0.01478
 H209 H 0.31494 0.35077 0.06411
 H210 H 0.19240 0.39360 -0.01315
 H211 H 0.15339 0.36861 -0.02751
 H212 H 0.19992 0.29599 -0.02074
 H213 H 0.23804 0.32240 -0.00630
 C214 C 0.21352 0.42724 0.07436
 C215 C 0.27642 0.43038 -0.07231
 C216 C 0.17389 0.33046 -0.02524
 C217 C 0.32134 0.33283 0.02569
 C218 C 0.78214 0.08497 1.02434
 H219 H 0.79205 0.08322 1.00516
 C220 C 0.79221 0.07121 1.04650
 H221 H 0.80984 0.05869 1.04438
 C222 C 0.74791 0.10452 1.05097
 H223 H 0.73117 0.11811 1.05289
 C224 C 0.75729 0.09112 1.07356
 H225 H 0.74755 0.09425 1.09267
 N226 N 0.76042 0.10132 1.02697
 C227 C 0.72804 0.11528 0.94789
 H228 H 0.72708 0.13679 0.94819
 C229 C 0.71858 0.10185 0.92606
 H230 H 0.71030 0.11303 0.90945
 C231 C 0.73964 0.07443 0.96941
 H232 H 0.74757 0.06389 0.98651
 C233 C 0.73032 0.06017 0.94789
 H234 H 0.73120 0.03862 0.94836
 Zn235 Zn 0.74980 0.12247 0.99732
 N236 N 0.73850 0.10152 0.96889
 C237 C 0.78971 0.14030 0.96122
 N238 N 0.77944 0.14289 0.98629
 C239 C 0.79114 0.15865 1.00431
 C240 C 0.81398 0.17281 0.99723
 C241 C 0.81243 0.15409 0.95335
 C242 C 0.69740 0.13173 1.01290
 C243 C 0.67471 0.14611 1.02067
 C244 C 0.69959 0.18666 1.01555
 C245 C 0.72190 0.17147 1.00782
 N246 N 0.72048 0.14447 1.00707
 H247 H 0.78065 0.12715 0.94739
 H248 H 0.78289 0.15994 1.02427
 H249 H 0.82330 0.18518 1.01170
 H250 H 0.82056 0.15173 0.93341
 H251 H 0.69679 0.11027 1.01181
 H252 H 0.65655 0.13573 1.02570
 H253 H 0.70088 0.20811 1.01653
 H254 H 0.74027 0.18124 1.00261
 C255 C 0.71973 0.07407 0.92602
 C256 C 0.77978 0.07453 1.07137
 C257 C 0.67586 0.17379 1.02218
 C258 C 0.82472 0.17042 0.97151
 C259 C 0.28212 0.58500 0.52435
 H260 H 0.29203 0.58325 0.50518
 C261 C 0.29218 0.57123 0.54651
 H262 H 0.30981 0.55870 0.54439
 C263 C 0.24789 0.60455 0.55098
 H264 H 0.23115 0.61815 0.55290
 C265 C 0.25727 0.59115 0.57357
 H266 H 0.24752 0.59429 0.59268
 N267 N 0.26040 0.60135 0.52698
 C268 C 0.22803 0.61532 0.44790
 H269 H 0.22707 0.63683 0.44820
 C270 C 0.21856 0.60189 0.42608
 H271 H 0.21028 0.61306 0.40946
 C272 C 0.23961 0.57447 0.46943
 H273 H 0.24753 0.56393 0.48652
 C274 C 0.23029 0.56020 0.44790
 H275 H 0.23116 0.53866 0.44838
 Zn276 Zn 0.24979 0.62251 0.49733
 N277 N 0.23848 0.60156 0.46890
 C278 C 0.28969 0.64032 0.46123
 N279 N 0.27943 0.64292 0.48630
 C280 C 0.29114 0.65868 0.50432
 C281 C 0.31397 0.67283 0.49724
 C282 C 0.31242 0.65410 0.45336
 C283 C 0.19739 0.63177 0.51291
 C284 C 0.17471 0.64616 0.52068
 C285 C 0.19959 0.68671 0.51557
 C286 C 0.22189 0.67151 0.50784
 N287 N 0.22047 0.64451 0.50708
 H288 H 0.28063 0.62717 0.44740
 H289 H 0.28289 0.65997 0.52428
 H290 H 0.32330 0.68520 0.51171
 H291 H 0.32055 0.65175 0.43342
 H292 H 0.19678 0.61032 0.51182
 H293 H 0.15654 0.63579 0.52571
 H294 H 0.20089 0.70815 0.51655
 H295 H 0.24027 0.68128 0.50262
 C296 C 0.21970 0.57411 0.42604
 C297 C 0.27975 0.57456 0.57138
 C298 C 0.17585 0.67384 0.52220
 C299 C 0.32471 0.67044 0.47152
 C300 C 0.77771 0.91872 0.47441
 H301 H 0.78708 0.91983 0.49356
 C302 C 0.78812 0.93288 0.45253
 H303 H 0.80545 0.94508 0.45485
 C304 C 0.74461 0.90034 0.44752
 H305 H 0.72820 0.88703 0.44536
 C306 C 0.75435 0.91416 0.42520
 H307 H 0.74520 0.91164 0.40607
 N308 N 0.75640 0.90275 0.47152
 C309 C 0.72168 0.88685 0.55021
 H310 H 0.72070 0.86543 0.54895
 C311 C 0.71200 0.89959 0.57287
 H312 H 0.70347 0.88797 0.58914
 C313 C 0.73399 0.92815 0.53047
 H314 H 0.74245 0.93914 0.51381
 C315 C 0.72449 0.94173 0.55288
 H316 H 0.72571 0.96320 0.55351
 Zn317 Zn 0.74546 0.88091 0.50067
 N318 N 0.73270 0.90114 0.52974
 C319 C 0.78463 0.86239 0.53641
 N320 N 0.77541 0.86019 0.51126
 C321 C 0.78845 0.84485 0.49299
 C322 C 0.81166 0.83078 0.49988
 C323 C 0.80765 0.84867 0.54410
 C324 C 0.69378 0.87218 0.48508
 C325 C 0.67179 0.85806 0.47704
 C326 C 0.69790 0.81737 0.48083
 C327 C 0.71948 0.83231 0.48886
 N328 N 0.71713 0.85926 0.49042
 H329 H 0.77453 0.87522 0.55046
 H330 H 0.78103 0.84389 0.47297
 H331 H 0.82209 0.81879 0.48521
 H332 H 0.81494 0.85077 0.56410
 H333 H 0.69241 0.89359 0.48680
 H334 H 0.65341 0.86859 0.47243
 H335 H 0.69994 0.79597 0.47923
 H336 H 0.73805 0.82238 0.49367
 C337 C 0.71353 0.92724 0.57431
 C338 C 0.77645 0.93036 0.42765
 C339 C 0.67391 0.83044 0.47472
 C340 C 0.82135 0.83283 0.52567
 C341 C -0.02558 0.27772 0.41875
 H342 H -0.00643 0.28709 0.41986
 C343 C -0.04746 0.28812 0.43292
 H344 H -0.04515 0.30545 0.44512
 C345 C -0.05248 0.24462 0.40037
 H346 H -0.05464 0.22821 0.38707
 C347 C -0.07480 0.25436 0.41420
 H348 H -0.09393 0.24521 0.41167
 N349 N -0.02848 0.25641 0.40278
 C350 C 0.05021 0.22170 0.38687
 H351 H 0.04896 0.22072 0.36545
 C352 C 0.07288 0.21201 0.39960
 H353 H 0.08915 0.20349 0.38799
 C354 C 0.03048 0.23400 0.42817
 H355 H 0.01382 0.24246 0.43917
 C356 C 0.05289 0.22449 0.44175
 H357 H 0.05352 0.22571 0.46322
 Zn358 Zn 0.00067 0.24547 0.38094
 N359 N 0.02975 0.23271 0.40116
 C360 C 0.03641 0.28464 0.36241
 N361 N 0.01126 0.27543 0.36022
 C362 C -0.00701 0.28847 0.34488
 C363 C -0.00013 0.31167 0.33081
 C364 C 0.04409 0.30767 0.34870
 C365 C -0.01491 0.19379 0.37221
 C366 C -0.02295 0.17180 0.35808
 C367 C -0.01916 0.19791 0.31740
 C368 C -0.01113 0.21950 0.33233
 N369 N -0.00957 0.21714 0.35929
 H370 H 0.05046 0.27455 0.37524
 H371 H -0.02704 0.28104 0.34392
 H372 H -0.01480 0.32210 0.31882
 H373 H 0.06409 0.31496 0.35079
 H374 H -0.01319 0.19242 0.39361
 H375 H -0.02756 0.15343 0.36861
 H376 H -0.02076 0.19996 0.29600
 H377 H -0.00633 0.23807 0.32241
 C378 C 0.07432 0.21354 0.42726
 C379 C -0.07234 0.27646 0.43039
 C380 C -0.02527 0.17392 0.33047
 C381 C 0.02566 0.32136 0.33285
 C382 C 1.02437 0.78214 0.08496
 H383 H 1.00520 0.79206 0.08321
 C384 C 1.04653 0.79221 0.07120
 H385 H 1.04441 0.80984 0.05867
 C386 C 1.05099 0.74791 0.10451
 H387 H 1.05291 0.73117 0.11811
 C388 C 1.07358 0.75729 0.09111
 H389 H 1.09269 0.74754 0.09425
 N390 N 1.02699 0.76043 0.10131
 C391 C 0.94791 0.72807 0.11528
 H392 H 0.94821 0.72711 0.13678
 C393 C 0.92608 0.71860 0.10185
 H394 H 0.90947 0.71033 0.11302
 C395 C 0.96943 0.73965 0.07443
 H396 H 0.98653 0.74757 0.06388
 C397 C 0.94791 0.73033 0.06016
 H398 H 0.94839 0.73120 0.03862
 Zn399 Zn 0.99734 0.74982 0.12246
 N400 N 0.96891 0.73851 0.10151
 C401 C 0.96125 0.78973 0.14028
 N402 N 0.98631 0.77946 0.14288
 C403 C 1.00434 0.79116 0.15864
 C404 C 0.99726 0.81400 0.17280
 C405 C 0.95338 0.81246 0.15407
 C406 C 1.01292 0.69742 0.13173
 C407 C 1.02068 0.67473 0.14612
 C408 C 1.01556 0.69961 0.18666
 C409 C 1.00784 0.72192 0.17147
 N410 N 1.00709 0.72050 0.14447
 H411 H 0.94742 0.78068 0.12713
 H412 H 1.02430 0.78291 0.15993
 H413 H 1.01173 0.82332 0.18517
 H414 H 0.93344 0.82059 0.15171
 H415 H 1.01183 0.69681 0.11028
 H416 H 1.02570 0.65657 0.13574
 H417 H 1.01655 0.70090 0.20811
 H418 H 1.00263 0.74030 0.18124
 C419 C 0.92604 0.71975 0.07407
 C420 C 1.07140 0.77977 0.07452
 C421 C 1.02219 0.67588 0.17380
 C422 C 0.97155 0.82474 0.17040
 C423 C 0.52434 0.28215 0.58498
 H424 H 0.50516 0.29206 0.58323
 C425 C 0.54649 0.29222 0.57122
 H426 H 0.54437 0.30985 0.55869
 C427 C 0.55097 0.24792 0.60453
 H428 H 0.55289 0.23118 0.61813
 C429 C 0.57356 0.25731 0.59113
 H430 H 0.59267 0.24756 0.59427
 N431 N 0.52696 0.26043 0.60133
 C432 C 0.44789 0.22804 0.61529
 H433 H 0.44819 0.22708 0.63680
 C434 C 0.42607 0.21858 0.60186
 H435 H 0.40946 0.21029 0.61303
 C436 C 0.46941 0.23964 0.57444
 H437 H 0.48651 0.24757 0.56390
 C438 C 0.44789 0.23032 0.56017
 H439 H 0.44837 0.23120 0.53863
 Zn440 Zn 0.49732 0.24981 0.62248
 N441 N 0.46889 0.23850 0.60153
 C442 C 0.46121 0.28971 0.64030
 N443 N 0.48628 0.27944 0.64290
 C444 C 0.50430 0.29115 0.65866
 C445 C 0.49721 0.31399 0.67282
 C446 C 0.45333 0.31243 0.65409
 C447 C 0.51291 0.19741 0.63174
 C448 C 0.52068 0.17472 0.64613
 C449 C 0.51556 0.19960 0.68667
 C450 C 0.50783 0.22191 0.67148
 N451 N 0.50707 0.22049 0.64448
 H452 H 0.44738 0.28065 0.62715
 H453 H 0.52426 0.28291 0.65995
 H454 H 0.51168 0.32331 0.68519
 H455 H 0.43339 0.32055 0.65173
 H456 H 0.51182 0.19680 0.61029
 H457 H 0.52571 0.15656 0.63574
 H458 H 0.51654 0.20089 0.70812
 H459 H 0.50261 0.24028 0.68125
 C460 C 0.42603 0.21973 0.57408
 C461 C 0.57136 0.27979 0.57454
 C462 C 0.52219 0.17587 0.67380
 C463 C 0.47149 0.32472 0.67042
 C464 C 0.47445 0.77771 0.91867
 H465 H 0.49360 0.78708 0.91978
 C466 C 0.45257 0.78812 0.93284
 H467 H 0.45489 0.80545 0.94504
 C468 C 0.44755 0.74461 0.90030
 H469 H 0.44539 0.72820 0.88700
 C470 C 0.42523 0.75434 0.91413
 H471 H 0.40611 0.74519 0.91161
 N472 N 0.47155 0.75640 0.90270
 C473 C 0.55024 0.72168 0.88680
 H474 H 0.54899 0.72069 0.86538
 C475 C 0.57291 0.71200 0.89954
 H476 H 0.58918 0.70347 0.88793
 C477 C 0.53050 0.73399 0.92810
 H478 H 0.51385 0.74245 0.93909
 C479 C 0.55292 0.72449 0.94169
 H480 H 0.55355 0.72571 0.96316
 Zn481 Zn 0.50070 0.74545 0.88086
 N482 N 0.52977 0.73270 0.90109
 C483 C 0.53644 0.78462 0.86234
 N484 N 0.51129 0.77541 0.86014
 C485 C 0.49302 0.78845 0.84480
 C486 C 0.49991 0.81165 0.83073
 C487 C 0.54412 0.80764 0.84862
 C488 C 0.48512 0.69378 0.87215
 C489 C 0.47707 0.67179 0.85802
 C490 C 0.48086 0.69789 0.81734
 C491 C 0.48889 0.71947 0.83227
 N492 N 0.49045 0.71712 0.85922
 H493 H 0.55049 0.77453 0.87516
 H494 H 0.47300 0.78102 0.84384
 H495 H 0.48523 0.82208 0.81874
 H496 H 0.56412 0.81493 0.85071
 H497 H 0.48684 0.69241 0.89355
 H498 H 0.47246 0.65341 0.86856
 H499 H 0.47925 0.69993 0.79594
 H500 H 0.49369 0.73804 0.82234
 C501 C 0.57434 0.71353 0.92720
 C502 C 0.42769 0.77644 0.93032
 C503 C 0.47475 0.67390 0.83041
 C504 C 0.52570 0.82134 0.83277
 C505 C 0.48008 -0.18460 0.33498
 N506 N 0.49069 -0.16076 0.34062
 N507 N 0.48209 -0.13859 0.32838
 C508 C 0.46259 -0.13959 0.31014
 N509 N 0.45202 -0.16343 0.30446
 N510 N 0.46062 -0.18560 0.31670
 C511 C 0.48829 -0.20818 0.34934
 C512 C 0.49491 -0.22758 0.36222
 C513 C 0.45225 -0.11559 0.29800
 C514 C 0.44276 -0.09566 0.28808
 C515 C 0.98007 0.31542 0.83499
 N516 N 0.99070 0.33926 0.84060
 N517 N 0.98209 0.36143 0.82836
 C518 C 0.96258 0.36043 0.81014
 N519 N 0.95199 0.33659 0.80448
 N520 N 0.96060 0.31442 0.81672
 C521 C 0.98828 0.29185 0.84935
 C522 C 0.99491 0.27245 0.86223
 C523 C 0.95224 0.38442 0.79800
 C524 C 0.94276 0.40435 0.78807
 C525 C 0.02592 1.18417 0.83611
 N526 N 0.01337 1.16084 0.84083
 N527 N 0.02188 1.13866 0.82904
 C528 C 0.04322 1.13913 0.81217
 N529 N 0.05572 1.16247 0.80740
 N530 N 0.04721 1.18465 0.81919
 C531 C 0.01767 1.20767 0.85004
 C532 C 0.01090 1.22695 0.86260
 C533 C 0.05329 1.11503 0.80051
 C534 C 0.06250 1.09497 0.79098
 C535 C 0.52590 0.68414 0.33609
 N536 N 0.51338 0.66081 0.34084
 N537 N 0.52188 0.63862 0.32904
 C538 C 0.54319 0.63909 0.31214
 N539 N 0.55568 0.66244 0.30735
 N540 N 0.54718 0.68463 0.31914
 C541 C 0.51766 0.70764 0.35003
 C542 C 0.51090 0.72692 0.36258
 C543 C 0.55326 0.61500 0.30048
 C544 C 0.56247 0.59494 0.29095
 C545 C 0.52073 0.31842 0.16331
 N546 N 0.53873 0.31562 0.18298
 N547 N 0.54755 0.33691 0.19532
 C548 C 0.53861 0.36164 0.18839
 N549 N 0.52054 0.36443 0.16878
 N550 N 0.51172 0.34314 0.15644
 C551 C 0.51273 0.29575 0.14865
 C552 C 0.50650 0.27706 0.13552
 C553 C 0.54980 0.38464 0.20014
 C554 C 0.56024 0.40372 0.20939
 C555 C 0.02072 0.81845 0.66335
 N556 N 0.01173 0.84318 0.65647
 N557 N 0.02054 0.86447 0.66881
 C558 C 0.03860 0.86168 0.68843
 N559 N 0.04753 0.83694 0.69537
 N560 N 0.03871 0.81565 0.68303
 C561 C 0.01272 0.79578 0.64869
 C562 C 0.00650 0.77709 0.63556
 C563 C 0.04979 0.88467 0.70019
 C564 C 0.06024 0.90375 0.70943
 C565 C 0.97762 0.68809 0.66093
 N566 N 0.98896 0.66438 0.65431
 N567 N 0.98055 0.64187 0.66575
 C568 C 0.96054 0.64238 0.68418
 N569 N 0.94925 0.66610 0.69085
 N570 N 0.95766 0.68861 0.67941
 C571 C 0.98546 0.71204 0.64723
 C572 C 0.99180 0.73176 0.63483
 C573 C 0.95009 0.61806 0.69505
 C574 C 0.94030 0.59790 0.70370
 C575 C 0.47761 0.18806 0.16090
 N576 N 0.48896 0.16435 0.15429
 N577 N 0.48055 0.14184 0.16573
 C578 C 0.46054 0.14236 0.18416
 N579 N 0.44924 0.16608 0.19083
 N580 N 0.45765 0.18859 0.17939
 C581 C 0.48545 0.21201 0.14720
 C582 C 0.49180 0.23172 0.13480
 C583 C 0.45009 0.11804 0.19504
 C584 C 0.44030 0.09788 0.20370
 C585 C 0.33496 0.48010 -0.18460
 N586 N 0.34058 0.49072 -0.16076
 N587 N 0.32835 0.48211 -0.13859
 C588 C 0.31011 0.46261 -0.13959
 N589 N 0.30444 0.45203 -0.16344
 N590 N 0.31668 0.46063 -0.18560
 C591 C 0.34931 0.48830 -0.20818
 C592 C 0.36219 0.49492 -0.22759
 C593 C 0.29798 0.45227 -0.11560
 C594 C 0.28805 0.44279 -0.09566
 C595 C 0.83500 0.98009 0.31538
 N596 N 0.81675 0.96060 0.31437
 N597 N 0.80451 0.95199 0.33654
 C598 C 0.81015 0.96259 0.36038
 N599 N 0.82836 0.98212 0.36138
 N600 N 0.84060 0.99073 0.33921
 C601 C 0.84936 0.98830 0.29180
 C602 C 0.86225 0.99493 0.27240
 C603 C 0.79801 0.95224 0.38437
 C604 C 0.78809 0.94276 0.40430
 C605 C 0.83612 0.02593 1.18413
 N606 N 0.84086 0.01340 1.16080
 N607 N 0.82907 0.02190 1.13861
 C608 C 0.81218 0.04322 1.13908
 N609 N 0.80739 0.05571 1.16242
 N610 N 0.81919 0.04721 1.18461
 C611 C 0.85006 0.01769 1.20762
 C612 C 0.86262 0.01093 1.22690
 C613 C 0.80051 0.05328 1.11499
 C614 C 0.79098 0.06249 1.09493
 C615 C 0.33606 0.52592 0.68414
 N616 N 0.34081 0.51339 0.66081
 N617 N 0.32902 0.52190 0.63862
 C618 C 0.31213 0.54322 0.63909
 N619 N 0.30733 0.55571 0.66244
 N620 N 0.31913 0.54720 0.68463
 C621 C 0.35000 0.51768 0.70763
 C622 C 0.36256 0.51091 0.72691
 C623 C 0.30047 0.55329 0.61500
 C624 C 0.29094 0.56251 0.59494
 C625 C 0.16331 0.52074 0.31842
 N626 N 0.15644 0.51174 0.34315
 N627 N 0.16878 0.52056 0.36444
 C628 C 0.18839 0.53864 0.36165
 N629 N 0.19532 0.54757 0.33691
 N630 N 0.18297 0.53875 0.31562
 C631 C 0.14865 0.51274 0.29576
 C632 C 0.13552 0.50651 0.27707
 C633 C 0.20014 0.54983 0.38464
 C634 C 0.20938 0.56027 0.40372
 C635 C 0.66335 0.02072 0.81839
 N636 N 0.68302 0.03872 0.81560
 N637 N 0.69536 0.04753 0.83689
 C638 C 0.68843 0.03860 0.86162
 N639 N 0.66881 0.02053 0.86441
 N640 N 0.65648 0.01172 0.84312
 C641 C 0.64869 0.01272 0.79573
 C642 C 0.63556 0.00650 0.77703
 C643 C 0.70018 0.04979 0.88462
 C644 C 0.70942 0.06024 0.90370
 C645 C 0.66093 0.97763 0.68803
 N646 N 0.67942 0.95768 0.68855
 N647 N 0.69086 0.94927 0.66604
 C648 C 0.68417 0.96056 0.64232
 N649 N 0.66573 0.98056 0.64180
 N650 N 0.65430 0.98897 0.66432
 C651 C 0.64723 0.98547 0.71198
 C652 C 0.63483 0.99181 0.73170
 C653 C 0.69505 0.95011 0.61800
 C654 C 0.70370 0.94031 0.59784
 C655 C 0.16090 0.47762 0.18807
 N656 N 0.17938 0.45766 0.18860
 N657 N 0.19082 0.44926 0.16608
 C658 C 0.18415 0.46055 0.14237
 N659 N 0.16572 0.48056 0.14185
 N660 N 0.15428 0.48897 0.16436
 C661 C 0.14720 0.48547 0.21202
 C662 C 0.13479 0.49181 0.23173
 C663 C 0.19503 0.45011 0.11805
 C664 C 0.20369 0.44031 0.09789
 C665 C -0.18463 0.33501 0.48010
 N666 N -0.18563 0.31674 0.46064
 N667 N -0.16346 0.30449 0.45203
 C668 C -0.13962 0.31016 0.46261
 N669 N -0.13862 0.32839 0.48212
 N670 N -0.16079 0.34063 0.49072
 C671 C -0.20821 0.34937 0.48830
 C672 C -0.22761 0.36226 0.49493
 C673 C -0.11563 0.29802 0.45227
 C674 C -0.09570 0.28809 0.44279
 C675 C 0.31542 0.83499 0.98007
 N676 N 0.33926 0.84061 0.99068
 N677 N 0.36143 0.82837 0.98207
 C678 C 0.36042 0.81014 0.96256
 N679 N 0.33657 0.80447 0.95199
 N680 N 0.31441 0.81671 0.96060
 C681 C 0.29184 0.84934 0.98828
 C682 C 0.27244 0.86223 0.99491
 C683 C 0.38441 0.79800 0.95221
 C684 C 0.40434 0.78808 0.94273
 C685 C 1.18417 0.83609 0.02591
 N686 N 1.16084 0.84082 0.01336
 N687 N 1.13865 0.82902 0.02187
 C688 C 1.13912 0.81215 0.04320
 N689 N 1.16245 0.80738 0.05571
 N690 N 1.18464 0.81918 0.04721
 C691 C 1.20766 0.85003 0.01767
 C692 C 1.22694 0.86259 0.01091
 C693 C 1.11502 0.80049 0.05327
 C694 C 1.09496 0.79096 0.06248
 C695 C 0.68412 0.33613 0.52593
 N696 N 0.66079 0.34087 0.51340
 N697 N 0.63860 0.32908 0.52190
 C698 C 0.63907 0.31219 0.54322
 N699 N 0.66242 0.30740 0.55571
 N700 N 0.68461 0.31920 0.54721
 C701 C 0.70761 0.35007 0.51769
 C702 C 0.72689 0.36262 0.51092
 C703 C 0.61498 0.30052 0.55329
 C704 C 0.59492 0.29099 0.56250
 C705 C 0.31840 0.16334 0.52072
 N706 N 0.34313 0.15646 0.51173
 N707 N 0.36442 0.16880 0.52054
 C708 C 0.36163 0.18842 0.53861
 N709 N 0.33690 0.19535 0.54753
 N710 N 0.31561 0.18301 0.53872
 C711 C 0.29574 0.14868 0.51272
 C712 C 0.27705 0.13555 0.50650
 C713 C 0.38463 0.20017 0.54979
 C714 C 0.40371 0.20941 0.56024
 C715 C 0.81841 0.66336 0.02072
 N716 N 0.84314 0.65649 0.01171
 N717 N 0.86443 0.66883 0.02053
 C718 C 0.86164 0.68844 0.03860
 N719 N 0.83691 0.69537 0.04754
 N720 N 0.81562 0.68302 0.03873
 C721 C 0.79575 0.64870 0.01272
 C722 C 0.77706 0.63557 0.00650
 C723 C 0.88464 0.70019 0.04979
 C724 C 0.90372 0.70943 0.06023
 C725 C 0.68806 0.66093 0.97761
 N726 N 0.66435 0.65431 0.98895
 N727 N 0.64183 0.66575 0.98054
 C728 C 0.64235 0.68418 0.96052
 N729 N 0.66607 0.69085 0.94923
 N730 N 0.68858 0.67941 0.95764
 C731 C 0.71201 0.64724 0.98545
 C732 C 0.73172 0.63484 0.99180
 C733 C 0.61803 0.69505 0.95007
 C734 C 0.59787 0.70370 0.94027
 C735 C 0.18804 0.16092 0.47763
 N736 N 0.18856 0.17941 0.45768
 N737 N 0.16605 0.19086 0.44928
 C738 C 0.14233 0.18417 0.46057
 N739 N 0.14182 0.16573 0.48056
 N740 N 0.16433 0.15429 0.48897
 C741 C 0.21200 0.14722 0.48547
 C742 C 0.23171 0.13482 0.49181
 C743 C 0.11801 0.19505 0.45012
 C744 C 0.09785 0.20371 0.44033
 C745 C 0.57467 0.06517 0.73217
 N746 N 0.55536 0.06340 0.71381
 N747 N 0.54360 0.08532 0.70401
 C748 C 0.55078 0.10967 0.71227
 N749 N 0.57002 0.11144 0.73070
 N750 N 0.58178 0.08951 0.74051
 C751 C 0.58896 0.04180 0.74095
 C752 C 0.60185 0.02244 0.74762
 C753 C 0.53986 0.13325 0.69993
 C754 C 0.53143 0.15286 0.68857
 C755 C 1.07464 0.56517 0.23218
 N756 N 1.08173 0.58952 0.24053
 N757 N 1.06998 0.61144 0.23073
 C758 C 1.05076 0.60967 0.21228
 N759 N 1.04359 0.58533 0.20400
 N760 N 1.05535 0.56340 0.21381
 C761 C 1.08892 0.54181 0.24097
 C762 C 1.10181 0.52245 0.24764
 C763 C 1.03985 0.63326 0.19993
 C764 C 1.03142 0.65286 0.18856
 C765 C 0.92304 0.93770 0.22570
 N766 N 0.91985 0.91397 0.23849
 N767 N 0.93120 0.89193 0.22885
 C768 C 0.94610 0.89295 0.20612
 N769 N 0.94938 0.91670 0.19338
 N770 N 0.93802 0.93874 0.20303
 C771 C 0.90883 0.96092 0.23472
 C772 C 0.89591 0.98007 0.24172
 C773 C 0.95623 0.86893 0.19441
 C774 C 0.96374 0.84874 0.18386
 C775 C 0.42297 0.43768 0.72571
 N776 N 0.41975 0.41394 0.73850
 N777 N 0.43111 0.39190 0.72886
 C778 C 0.44603 0.39292 0.70614
 N779 N 0.44933 0.41668 0.69342
 N780 N 0.43797 0.43872 0.70305
 C781 C 0.40876 0.46090 0.73473
 C782 C 0.39584 0.48005 0.74173
 C783 C 0.45616 0.36890 0.69444
 C784 C 0.46368 0.34871 0.68388
 C785 C 0.42214 0.56657 0.77283
 N786 N 0.41495 0.59140 0.76439
 N787 N 0.42661 0.61266 0.77414
 C788 C 0.44582 0.60973 0.79262
 N789 N 0.45307 0.58490 0.80098
 N790 N 0.44141 0.56364 0.79124
 C791 C 0.40807 0.54389 0.76395
 C792 C 0.39541 0.52510 0.75713
 C793 C 0.45677 0.63261 0.80477
 C794 C 0.46530 0.65161 0.81593
 C795 C -0.07783 0.06659 0.27284
 N796 N -0.08502 0.09142 0.26441
 N797 N -0.07337 0.11268 0.27417
 C798 C -0.05417 0.10975 0.29265
 N799 N -0.04691 0.08492 0.30102
 N800 N -0.05856 0.06366 0.29126
 C801 C -0.09189 0.04391 0.26396
 C802 C -0.10454 0.02512 0.25713
 C803 C -0.04323 0.13263 0.30482
 C804 C -0.03470 0.15163 0.31598
 C805 C 0.07476 0.43499 0.27922
 N806 N 0.06052 0.43537 0.30237
 N807 N 0.04893 0.41338 0.31168
 C808 C 0.05120 0.39035 0.29810
 N809 N 0.06536 0.38999 0.27490
 N810 N 0.07695 0.41198 0.26560
 C811 C 0.08906 0.45802 0.27033
 C812 C 0.10193 0.47697 0.26324
 C813 C 0.04089 0.36616 0.30940
 C814 C 0.03332 0.34574 0.31965
 C815 C 0.57480 0.93498 0.77917
 N816 N 0.57700 0.91197 0.76554
 N817 N 0.56540 0.88998 0.77484
 C818 C 0.55123 0.89033 0.79804
 N819 N 0.54896 0.91336 0.81161
 N820 N 0.56055 0.93536 0.80231
 C821 C 0.58910 0.95801 0.77029
 C822 C 0.60197 0.97696 0.76320
 C823 C 0.54092 0.86614 0.80932
 C824 C 0.53336 0.84571 0.81957
 C825 C 0.73218 0.57468 0.06517
 N826 N 0.71382 0.55537 0.06339
 N827 N 0.70402 0.54361 0.08531
 C828 C 0.71228 0.55080 0.10966
 N829 N 0.73071 0.57004 0.11143
 N830 N 0.74051 0.58179 0.08951
 C831 C 0.74097 0.58897 0.04180
 C832 C 0.74764 0.60185 0.02244
 C833 C 0.69993 0.53988 0.13325
 C834 C 0.68857 0.53144 0.15285
 C835 C 0.23218 1.07466 0.56517
 N836 N 0.24053 1.08177 0.58951
 N837 N 0.23072 1.07001 0.61144
 C838 C 0.21228 1.05079 0.60967
 N839 N 0.20401 1.04361 0.58533
 N840 N 0.21381 1.05536 0.56340
 C841 C 0.24096 1.08895 0.54180
 C842 C 0.24763 1.10184 0.52244
 C843 C 0.19994 1.03987 0.63326
 C844 C 0.18857 1.03144 0.65287
 C845 C 0.22573 0.92302 0.93769
 N846 N 0.20306 0.93801 0.93873
 N847 N 0.19342 0.94937 0.91669
 C848 C 0.20615 0.94608 0.89294
 N849 N 0.22888 0.93117 0.89191
 N850 N 0.23852 0.91981 0.91395
 C851 C 0.23475 0.90880 0.96090
 C852 C 0.24175 0.89588 0.98005
 C853 C 0.19444 0.95622 0.86892
 C854 C 0.18389 0.96374 0.84873
 C855 C 0.72569 0.42303 0.43768
 N856 N 0.70303 0.43803 0.43872
 N857 N 0.69338 0.44938 0.41668
 C858 C 0.70612 0.44608 0.39293
 N859 N 0.72884 0.43117 0.39190
 N860 N 0.73848 0.41982 0.41395
 C861 C 0.73471 0.40882 0.46090
 C862 C 0.74171 0.39591 0.48005
 C863 C 0.69441 0.45621 0.36890
 C864 C 0.68386 0.46373 0.34871
 C865 C 0.77282 0.42220 0.56658
 N866 N 0.79124 0.44146 0.56364
 N867 N 0.80100 0.45312 0.58490
 C868 C 0.79262 0.44587 0.60973
 N869 N 0.77414 0.42667 0.61266
 N870 N 0.76438 0.41501 0.59140
 C871 C 0.76394 0.40814 0.54389
 C872 C 0.75712 0.39548 0.52510
 C873 C 0.80479 0.45681 0.63261
 C874 C 0.81595 0.46534 0.65161
 C875 C 0.27286 -0.07785 0.06657
 N876 N 0.26443 -0.08504 0.09140
 N877 N 0.27418 -0.07339 0.11266
 C878 C 0.29265 -0.05418 0.10974
 N879 N 0.30101 -0.04691 0.08490
 N880 N 0.29127 -0.05857 0.06364
 C881 C 0.26398 -0.09191 0.04389
 C882 C 0.25716 -0.10456 0.02510
 C883 C 0.30481 -0.04323 0.13261
 C884 C 0.31596 -0.03469 0.15162
 C885 C 0.27919 0.07479 0.43498
 N886 N 0.26556 0.07699 0.41197
 N887 N 0.27487 0.06539 0.38998
 C888 C 0.29806 0.05122 0.39033
 N889 N 0.31164 0.04895 0.41337
 N890 N 0.30233 0.06054 0.43536
 C891 C 0.27030 0.08909 0.45801
 C892 C 0.26321 0.10196 0.47696
 C893 C 0.30936 0.04091 0.36614
 C894 C 0.31960 0.03335 0.34572
 C895 C 0.77921 0.57481 0.93498
 N896 N 0.80236 0.56057 0.93536
 N897 N 0.81166 0.54898 0.91336
 C898 C 0.79808 0.55124 0.89034
 N899 N 0.77487 0.56539 0.88999
 N900 N 0.76557 0.57698 0.91198
 C901 C 0.77032 0.58910 0.95801
 C902 C 0.76323 0.60197 0.97696
 C903 C 0.80937 0.54093 0.86615
 C904 C 0.81961 0.53337 0.84572
 C905 C 0.06517 0.73222 0.57467
 N906 N 0.08951 0.74055 0.58179
 N907 N 0.11143 0.73075 0.57003
 C908 C 0.10966 0.71232 0.55079
 N909 N 0.08531 0.70407 0.54360
 N910 N 0.06339 0.71387 0.55536
 C911 C 0.04180 0.74101 0.58896
 C912 C 0.02244 0.74767 0.60185
 C913 C 0.13324 0.69998 0.53987
 C914 C 0.15285 0.68861 0.53143
 C915 C 0.56516 0.23217 1.07464
 N916 N 0.56339 0.21380 1.05535
 N917 N 0.58531 0.20399 1.04359
 C918 C 0.60966 0.21227 1.05076
 N919 N 0.61142 0.23072 1.06998
 N920 N 0.58950 0.24052 1.08174
 C921 C 0.54179 0.24096 1.08893
 C922 C 0.52243 0.24763 1.10181
 C923 C 0.63324 0.19992 1.03985
 C924 C 0.65285 0.18856 1.03141
 C925 C 0.93767 0.22574 0.92301
 N926 N 0.93871 0.20307 0.93801
 N927 N 0.91667 0.19343 0.94936
 C928 C 0.89292 0.20615 0.94606
 N929 N 0.89189 0.22887 0.93114
 N930 N 0.91393 0.23852 0.91979
 C931 C 0.96089 0.23476 0.90880
 C932 C 0.98004 0.24176 0.89588
 C933 C 0.86889 0.19444 0.95619
 C934 C 0.84871 0.18389 0.96371
 C935 C 0.43768 0.72572 0.42301
 N936 N 0.43872 0.70305 0.43800
 N937 N 0.41667 0.69341 0.44935
 C938 C 0.39292 0.70615 0.44606
 N939 N 0.39190 0.72887 0.43115
 N940 N 0.41394 0.73851 0.41980
 C941 C 0.46090 0.73474 0.40879
 C942 C 0.48004 0.74173 0.39587
 C943 C 0.36890 0.69444 0.45619
 C944 C 0.34871 0.68389 0.46371
 C945 C 0.56658 0.77284 0.42215
 N946 N 0.59140 0.76440 0.41495
 N947 N 0.61266 0.77416 0.42660
 C948 C 0.60974 0.79264 0.44581
 N949 N 0.58491 0.80100 0.45308
 N950 N 0.56365 0.79124 0.44143
 C951 C 0.54389 0.76396 0.40809
 C952 C 0.52510 0.75714 0.39543
 C953 C 0.63262 0.80480 0.45676
 C954 C 0.65162 0.81595 0.46529
 C955 C 0.06656 0.27287 -0.07783
 N956 N 0.09138 0.26442 -0.08501
 N957 N 0.11264 0.27418 -0.07335
 C958 C 0.10972 0.29267 -0.05415
 N959 N 0.08489 0.30104 -0.04691
 N960 N 0.06363 0.29129 -0.05856
 C961 C 0.04387 0.26399 -0.09189
 C962 C 0.02509 0.25717 -0.10455
 C963 C 0.13259 0.30482 -0.04321
 C964 C 0.15160 0.31598 -0.03467
 C965 C 0.43497 0.27921 0.07477
 N966 N 0.43535 0.30236 0.06053
 N967 N 0.41336 0.31166 0.04894
 C968 C 0.39033 0.29809 0.05121
 N969 N 0.38997 0.27488 0.06537
 N970 N 0.41197 0.26558 0.07696
 C971 C 0.45801 0.27032 0.08907
 C972 C 0.47695 0.26323 0.10194
 C973 C 0.36614 0.30938 0.04090
 C974 C 0.34571 0.31963 0.03334
 C975 C 0.93498 0.77923 0.57480
 N976 N 0.93536 0.80238 0.56055
 N977 N 0.91337 0.81168 0.54895
 C978 C 0.89034 0.79810 0.55122
 N979 N 0.88998 0.77490 0.56538
 N980 N 0.91198 0.76560 0.57698
 C981 C 0.95801 0.77035 0.58910
 C982 C 0.97696 0.76326 0.60197
 C983 C 0.86615 0.80938 0.54090
 C984 C 0.84572 0.81963 0.53334
   
