data_POSCAR
  _audit_creation_date              2014-09-24
  _audit_creation_method            'ToBaCCo'
  _symmetry_space_group_name_H-M    'P1'
  _symmetry_Int_Tables_number       1
  _symmetry_cell_setting            triclinic
  loop_
  _symmetry_equiv_pos_as_xyz
 x,y,z
_cell_length_a 41.0977
_cell_length_b 41.1052
_cell_length_c 16.8167
_cell_angle_alpha 90.001900
_cell_angle_beta 89.922100
_cell_angle_gamma 119.955000
loop_
  _atom_site_label
  _atom_site_type_symbol
  _atom_site_fract_x
  _atom_site_fract_y
  _atom_site_fract_z
C1 C 0.13171 0.44064 0.49693
 C2 C 0.15037 0.44404 0.42537
 C3 C 0.18485 0.44480 0.42630
 C4 C 0.20058 0.44102 0.49854
 C5 C 0.18114 0.43866 0.57023
 C6 C 0.14776 0.44006 0.56957
 C7 C 0.23720 0.44049 0.49926
 C8 C 0.25658 0.44379 0.57148
 C9 C 0.28980 0.44215 0.57214
 C10 C 0.30480 0.43835 0.50080
 C11 C 0.28828 0.43806 0.42842
 C12 C 0.25401 0.43764 0.42757
 H13 H 0.10548 0.44102 0.49642
 H14 H 0.19915 0.44916 0.37032
 H15 H 0.19144 0.43606 0.62728
 H16 H 0.24709 0.44852 0.62768
 H17 H 0.33114 0.43824 0.50127
 H18 H 0.24147 0.43549 0.37028
 C19 C 0.55790 -0.30990 0.49762
 C20 C 0.55448 -0.29463 0.42615
 C21 C 0.55362 -0.26097 0.42724
 C22 C 0.55734 -0.24151 0.49955
 C23 C 0.55970 -0.25859 0.57115
 C24 C 0.55841 -0.29332 0.57033
 C25 C 0.55785 -0.20438 0.50041
 C26 C 0.55455 -0.18830 0.57271
 C27 C 0.55624 -0.15342 0.57350
 C28 C 0.56008 -0.13461 0.50220
 C29 C 0.56037 -0.15083 0.42975
 C30 C 0.56073 -0.18470 0.42878
 H31 H 0.55763 -0.33645 0.49697
 H32 H 0.54925 -0.25103 0.37133
 H33 H 0.56226 -0.24573 0.62825
 H34 H 0.54982 -0.20250 0.62890
 H35 H 0.56024 -0.10814 0.50276
 H36 H 0.56289 -0.19509 0.37144
 C37 C 1.30812 0.86747 0.49859
 C38 C 1.29325 0.84882 0.42695
 C39 C 1.25971 0.81419 0.42766
 C40 C 1.24001 0.79833 0.49977
 C41 C 1.25672 0.81779 0.57152
 C42 C 1.29123 0.85131 0.57087
 C43 C 1.20306 0.76160 0.50029
 C44 C 1.18707 0.74193 0.57236
 C45 C 1.15228 0.70856 0.57300
 C46 C 1.13359 0.69384 0.50134
 C47 C 1.14984 0.71069 0.42910
 C48 C 1.18352 0.74504 0.42854
 H49 H 1.33460 0.89376 0.49860
 H50 H 1.25008 0.79986 0.37170
 H51 H 1.24387 0.80749 0.62869
 H52 H 1.20143 0.75145 0.62832
 H53 H 1.10719 0.66747 0.50127
 H54 H 1.19389 0.75789 0.37141
 C55 C 0.86654 0.56107 0.49805
 C56 C 0.84785 0.55747 0.42676
 C57 C 0.81310 0.55604 0.42757
 C58 C 0.79699 0.55932 0.49989
 C59 C 0.81649 0.56190 0.57153
 C60 C 0.85028 0.56134 0.57051
 C61 C 0.76001 0.55912 0.50067
 C62 C 0.74044 0.55548 0.57291
 C63 C 0.70682 0.55647 0.57371
 C64 C 0.69181 0.56010 0.50209
 C65 C 0.70861 0.56072 0.42976
 C66 C 0.74313 0.56168 0.42899
 H67 H 0.89294 0.56107 0.49744
 H68 H 0.79901 0.55153 0.37136
 H69 H 0.80603 0.56397 0.62889
 H70 H 0.75023 0.55103 0.62892
 H71 H 0.66529 0.55986 0.50217
 H72 H 0.75583 0.56403 0.37173
 C73 C 0.44049 0.30668 0.50076
 C74 C 0.44395 0.29137 0.42958
 C75 C 0.44533 0.25805 0.43065
 C76 C 0.44201 0.23877 0.50306
 C77 C 0.43955 0.25585 0.57465
 C78 C 0.44035 0.29037 0.57359
 C79 C 0.44201 0.20190 0.50394
 C80 C 0.44567 0.18600 0.57616
 C81 C 0.44449 0.15130 0.57697
 C82 C 0.44072 0.13258 0.50539
 C83 C 0.44010 0.14871 0.43307
 C84 C 0.43926 0.18232 0.43231
 H85 H 0.44048 0.33307 0.49961
 H86 H 0.44979 0.24833 0.37449
 H87 H 0.43731 0.24318 0.63186
 H88 H 0.45027 0.20033 0.63212
 H89 H 0.44083 0.10623 0.50546
 H90 H 0.43685 0.19259 0.37506
 C91 C 0.69446 0.13415 0.49991
 C92 C 0.70949 0.15281 0.42848
 C93 C 0.74276 0.18757 0.42901
 C94 C 0.76214 0.20371 0.50118
 C95 C 0.74527 0.18423 0.57298
 C96 C 0.71099 0.15044 0.57224
 C97 C 0.79888 0.24067 0.50165
 C98 C 0.81483 0.26025 0.57374
 C99 C 0.84943 0.29384 0.57425
 C100 C 0.86802 0.30880 0.50249
 C101 C 0.85182 0.29199 0.43030
 C102 C 0.81828 0.25752 0.42981
 H103 H 0.66812 0.10774 0.49952
 H104 H 0.75231 0.20164 0.37270
 H105 H 0.75779 0.19471 0.63024
 H106 H 0.80062 0.25048 0.62987
 H107 H 0.89431 0.33528 0.50235
 H108 H 0.80792 0.24481 0.37264
 N109 N 0.96118 0.42315 -0.08754
 N110 N 0.93838 0.38807 -0.11022
 N111 N 1.04003 0.48592 -0.14082
 N112 N 1.06224 0.48967 -0.20083
 N113 N 1.03977 0.46215 -0.08821
 N114 N 1.06134 0.44859 -0.11234
 N115 N 0.96090 0.44674 -0.13990
 N116 N 0.93756 0.42850 -0.19828
 C117 C 0.92326 0.39208 -0.17855
 C118 C 1.07585 0.46685 -0.18178
 N119 N 1.04012 0.57941 -0.08813
 N120 N 1.06300 0.61447 -0.11101
 N121 N 0.96114 0.51660 -0.14027
 N122 N 0.93856 0.51257 -0.19959
 N123 N 0.96151 0.54040 -0.08762
 N124 N 0.93959 0.55366 -0.11091
 N125 N 1.04027 0.55576 -0.14051
 N126 N 1.06359 0.57392 -0.19911
 Mn127 Mn 1.00058 0.50125 -0.14058
 C128 C 1.07802 0.61036 -0.17950
 C129 C 0.92482 0.53524 -0.17996
 N130 N 1.04012 0.46253 0.08485
 N131 N 1.06268 0.44998 0.10798
 N132 N 0.96130 0.44671 0.13794
 N133 N 0.93896 0.42829 0.19780
 N134 N 0.96154 0.42319 0.08534
 N135 N 0.93981 0.38809 0.10926
 N136 N 1.04041 0.48644 0.13713
 N137 N 1.06354 0.49133 0.19582
 Mn138 Mn 1.00066 0.44245 -0.00139
 C139 C 1.07769 0.46902 0.17644
 C140 C 0.92525 0.39188 0.17862
 N141 N 0.96141 0.54020 0.08511
 N142 N 0.93850 0.55241 0.10776
 N143 N 1.04031 0.55610 0.13740
 N144 N 1.06267 0.57457 0.19705
 N145 N 1.04001 0.57958 0.08477
 N146 N 1.06172 0.61470 0.10847
 N147 N 0.96118 0.51639 0.13754
 N148 N 0.93780 0.51128 0.19601
 Mn149 Mn 1.00077 0.56022 -0.00147
 Mn150 Mn 1.00080 0.50141 0.13770
 Cl151 Cl 1.00071 0.50133 -0.00144
 C152 C 0.92341 0.53333 0.17622
 C153 C 1.07634 0.61097 0.17771
 N154 N 0.46057 0.42086 0.08597
 N155 N 0.44850 0.38584 0.10902
 N156 N 0.44391 0.48340 0.13817
 N157 N 0.42526 0.48728 0.19764
 N158 N 0.42060 0.45953 0.08559
 N159 N 0.38540 0.44605 0.10910
 N160 N 0.48427 0.44460 0.13824
 N161 N 0.48947 0.42654 0.19694
 C162 C 0.46758 0.39007 0.17750
 C163 C 0.38892 0.46443 0.17821
 N164 N 0.53705 0.57713 0.08527
 N165 N 0.54933 0.61217 0.10839
 N166 N 0.55358 0.51465 0.13835
 N167 N 0.57212 0.51093 0.19812
 N168 N 0.57700 0.53845 0.08563
 N169 N 0.61214 0.55204 0.10938
 N170 N 0.51321 0.55344 0.13760
 N171 N 0.50812 0.57158 0.19632
 Mn172 Mn 0.49875 0.49902 0.13829
 C173 C 0.53021 0.60803 0.17690
 C174 C 0.60850 0.53379 0.17876
 N175 N 0.42080 0.45970 -0.08717
 N176 N 0.38567 0.44741 -0.10961
 N177 N 0.48413 0.44418 -0.13960
 N178 N 0.48830 0.42576 -0.19909
 N179 N 0.46041 0.42066 -0.08691
 N180 N 0.44732 0.38555 -0.11042
 N181 N 0.44432 0.48354 -0.13970
 N182 N 0.42599 0.48858 -0.19803
 Mn183 Mn 0.44028 0.43987 -0.00063
 C184 C 0.38959 0.46646 -0.17805
 C185 C 0.46581 0.38935 -0.17959
 N186 N 0.57708 0.53805 -0.08727
 N187 N 0.61222 0.55059 -0.11013
 N188 N 0.51381 0.55343 -0.14029
 N189 N 0.50984 0.57174 -0.20025
 N190 N 0.53745 0.57706 -0.08777
 N191 N 0.55070 0.61212 -0.11191
 N192 N 0.55361 0.51407 -0.13953
 N193 N 0.57201 0.50915 -0.19802
 Mn194 Mn 0.55745 0.55799 -0.00104
 Mn195 Mn 0.49897 0.49880 -0.13999
 Cl196 Cl 0.49887 0.49893 -0.00085
 C197 C 0.60839 0.53150 -0.17846
 C198 C 0.53238 0.60819 -0.18126
 N199 N 0.42259 -0.03958 0.08790
 N200 N 0.38750 -0.06234 0.11079
 N201 N 0.48545 0.03918 0.14088
 N202 N 0.48929 0.06146 0.20075
 N203 N 0.46172 0.03899 0.08833
 N204 N 0.44830 0.06070 0.11229
 N205 N 0.44618 -0.03991 0.14015
 N206 N 0.42792 -0.06325 0.19865
 C207 C 0.39149 -0.07748 0.17912
 C208 C 0.46658 0.07518 0.18162
 N209 N 0.57886 0.03912 0.08767
 N210 N 0.61394 0.06206 0.11013
 N211 N 0.51596 -0.03981 0.14018
 N212 N 0.51193 -0.06238 0.19960
 N213 N 0.53973 -0.03947 0.08741
 N214 N 0.55299 -0.06139 0.11074
 N215 N 0.55525 0.03930 0.14021
 N216 N 0.57347 0.06267 0.19857
 Mn217 Mn 0.50071 -0.00031 0.14057
 C218 C 0.60990 0.07710 0.17859
 C219 C 0.53458 -0.07613 0.17993
 N220 N 0.46209 0.03947 -0.08458
 N221 N 0.44980 0.06230 -0.10720
 N222 N 0.44611 -0.03935 -0.13778
 N223 N 0.42764 -0.06164 -0.19754
 N224 N 0.42262 -0.03911 -0.08500
 N225 N 0.38749 -0.06080 -0.10870
 N226 N 0.48596 0.03976 -0.13706
 N227 N 0.49105 0.06313 -0.19545
 Mn228 Mn 0.44194 -0.00006 0.00166
 C229 C 0.46892 0.07745 -0.17562
 C230 C 0.39123 -0.07533 -0.17810
 N231 N 0.53951 -0.03948 -0.08536
 N232 N 0.55157 -0.06250 -0.10794
 N233 N 0.55558 0.03951 -0.13768
 N234 N 0.57412 0.06212 -0.19708
 N235 N 0.57900 0.03913 -0.08510
 N236 N 0.61416 0.06106 -0.10854
 N237 N 0.51574 -0.03960 -0.13772
 N238 N 0.51053 -0.06302 -0.19608
 Mn239 Mn 0.55959 -0.00017 0.00115
 Mn240 Mn 0.50085 0.00008 -0.13779
 Cl241 Cl 0.50077 -0.00012 0.00140
 C242 C 0.53246 -0.07754 -0.17628
 C243 C 0.61050 0.07585 -0.17760
 C244 C 1.08542 0.45229 0.32100
 C245 C 1.09521 0.42067 0.32471
 C246 C 1.13472 0.44944 0.35433
 C247 C 1.12502 0.48106 0.35049
 C248 C 1.14959 0.45780 0.26816
 C249 C 1.10956 0.42912 0.23761
 C250 C 1.09993 0.46077 0.23480
 C251 C 1.13947 0.48950 0.26395
 H252 H 1.05883 0.44998 0.34284
 H253 H 1.07700 0.39229 0.35027
 H254 H 1.13135 0.50253 0.39716
 H255 H 1.17612 0.46011 0.24604
 H256 H 1.10302 0.40787 0.19038
 H257 H 1.15753 0.51787 0.23827
 C258 C 0.50933 0.64908 0.26461
 C259 C 0.51775 0.64306 0.35110
 C260 C 0.54923 0.68440 0.35502
 C261 C 0.54089 0.69090 0.26890
 C262 C 0.57818 0.67384 0.32528
 C263 C 0.54669 0.63241 0.32148
 C264 C 0.53824 0.63844 0.23533
 C265 C 0.56975 0.67974 0.23822
 H266 H 0.48096 0.63868 0.23895
 H267 H 0.49626 0.62785 0.39777
 H268 H 0.53845 0.71505 0.24690
 H269 H 0.60655 0.68409 0.35080
 H270 H 0.54913 0.60821 0.34322
 H271 H 0.59101 0.69452 0.19100
 C272 C 0.35035 -0.13955 0.26625
 C273 C 0.35592 -0.12529 0.35284
 C274 C 0.31450 -0.13532 0.35615
 C275 C 0.30844 -0.14999 0.26994
 C276 C 0.32499 -0.09583 0.32660
 C277 C 0.36651 -0.08572 0.32342
 C278 C 0.36092 -0.10002 0.23718
 C279 C 0.31954 -0.10998 0.23946
 H280 H 0.36101 -0.15737 0.24073
 H281 H 0.37101 -0.13157 0.39973
 H282 H 0.28447 -0.17657 0.24759
 H283 H 0.31449 -0.07785 0.35198
 H284 H 0.39054 -0.05908 0.34551
 H285 H 0.30489 -0.10350 0.19203
 C286 C 0.89013 0.57226 0.23535
 C287 C 0.85022 0.54312 0.26591
 C288 C 0.86475 0.55209 0.35211
 C289 C 0.90415 0.58127 0.32248
 C290 C 0.87531 0.52107 0.34959
 C291 C 0.86116 0.51201 0.26304
 C292 C 0.90060 0.54119 0.23390
 C293 C 0.91479 0.55025 0.32013
 H294 H 0.89642 0.59321 0.18755
 H295 H 0.82347 0.54020 0.24375
 H296 H 0.92178 0.60983 0.34758
 H297 H 0.86921 0.49994 0.39694
 H298 H 0.84364 0.48345 0.23792
 H299 H 0.94155 0.55322 0.34254
 C300 C 0.48910 0.34950 0.26483
 C301 C 0.48016 0.35493 0.35133
 C302 C 0.44918 0.31337 0.35462
 C303 C 0.45804 0.30749 0.26846
 C304 C 0.41990 0.32344 0.32495
 C305 C 0.45088 0.36507 0.32183
 C306 C 0.45983 0.35962 0.23563
 C307 C 0.42880 0.31811 0.23786
 H308 H 0.51764 0.36045 0.23943
 H309 H 0.50135 0.37013 0.39837
 H310 H 0.46098 0.28361 0.24663
 H311 H 0.39137 0.31261 0.35034
 H312 H 0.44789 0.38892 0.34390
 H313 H 0.40778 0.30326 0.19037
 C314 C 0.68208 0.11048 0.23734
 C315 C 0.69274 0.15038 0.26769
 C316 C 0.68724 0.13587 0.35398
 C317 C 0.67713 0.09649 0.32455
 C318 C 0.64564 0.12525 0.35164
 C319 C 0.65068 0.13937 0.26502
 C320 C 0.64053 0.09995 0.23608
 C321 C 0.63546 0.08579 0.32238
 H322 H 0.69678 0.10422 0.18952
 H323 H 0.71651 0.17714 0.24534
 H324 H 0.68813 0.07890 0.34969
 H325 H 0.63058 0.13133 0.39902
 H326 H 0.63957 0.15685 0.23986
 H327 H 0.61174 0.05902 0.34499
 C328 C 0.48988 0.13958 -0.26258
 C329 C 0.48119 0.12534 -0.34916
 C330 C 0.44984 0.13544 -0.35223
 C331 C 0.45846 0.15011 -0.26602
 C332 C 0.42084 0.09597 -0.32263
 C333 C 0.45220 0.08578 -0.31970
 C334 C 0.46092 0.10007 -0.23347
 C335 C 0.42954 0.11011 -0.23549
 H336 H 0.51834 0.15736 -0.23718
 H337 H 0.50254 0.13158 -0.39615
 H338 H 0.46107 0.17670 -0.24361
 H339 H 0.39237 0.07803 -0.34788
 H340 H 0.44957 0.05913 -0.34190
 H341 H 0.40842 0.10366 -0.18794
 C342 C 0.64988 0.51092 -0.26550
 C343 C 0.64422 0.51951 -0.35211
 C344 C 0.68557 0.55104 -0.35544
 C345 C 0.69171 0.54252 -0.26921
 C346 C 0.67481 0.57987 -0.32595
 C347 C 0.63338 0.54834 -0.32274
 C348 C 0.63905 0.53971 -0.23649
 C349 C 0.68034 0.57126 -0.23878
 H350 H 0.63940 0.48250 -0.23995
 H351 H 0.62924 0.49813 -0.39896
 H352 H 0.71580 0.54009 -0.24684
 H353 H 0.68513 0.60830 -0.35136
 H354 H 0.60923 0.55077 -0.34486
 H355 H 0.69490 0.59242 -0.19137
 C356 C 0.89078 0.32014 -0.23857
 C357 C 0.85071 0.30898 -0.26870
 C358 C 0.86532 0.31506 -0.35504
 C359 C 0.90485 0.32561 -0.32584
 C360 C 0.87529 0.35646 -0.35183
 C361 C 0.86110 0.35087 -0.26512
 C362 C 0.90068 0.36150 -0.23640
 C363 C 0.91491 0.36710 -0.32276
 H364 H 0.89733 0.30551 -0.19119
 H365 H 0.82417 0.28498 -0.24612
 H366 H 0.92284 0.31515 -0.35136
 H367 H 0.86894 0.37152 -0.39866
 H368 H 0.84327 0.36149 -0.23945
 H369 H 0.94151 0.39115 -0.34511
 C370 C 0.57107 -0.11120 -0.23522
 C371 C 0.54179 -0.15103 -0.26564
 C372 C 0.55091 -0.13649 -0.35190
 C373 C 0.58024 -0.09717 -0.32239
 C374 C 0.52005 -0.12568 -0.34946
 C375 C 0.51085 -0.13983 -0.26287
 C376 C 0.54018 -0.10048 -0.23385
 C377 C 0.54938 -0.08628 -0.32013
 H378 H 0.59195 -0.10505 -0.18742
 H379 H 0.53867 -0.17786 -0.24339
 H380 H 0.60884 -0.07967 -0.34752
 H381 H 0.49900 -0.13164 -0.39682
 H382 H 0.48224 -0.15722 -0.23772
 H383 H 0.55255 -0.05945 -0.34266
 C384 C 0.34866 0.48775 -0.26466
 C385 C 0.35368 0.47854 -0.35121
 C386 C 0.31209 0.44758 -0.35336
 C387 C 0.30662 0.45670 -0.26714
 C388 C 0.32229 0.41838 -0.32370
 C389 C 0.36395 0.44935 -0.32172
 C390 C 0.35890 0.45856 -0.23549
 C391 C 0.31737 0.42755 -0.23656
 H392 H 0.35975 0.51636 -0.23971
 H393 H 0.36867 0.49959 -0.39873
 H394 H 0.28283 0.45971 -0.24483
 H395 H 0.31132 0.38978 -0.34863
 H396 H 0.38768 0.44628 -0.34428
 H397 H 0.30273 0.40668 -0.18860
 C398 C 1.08644 0.63548 -0.32370
 C399 C 1.09686 0.67708 -0.32663
 C400 C 1.13629 0.68730 -0.35627
 C401 C 1.12595 0.64580 -0.35322
 C402 C 1.15094 0.69320 -0.27008
 C403 C 1.11099 0.68237 -0.23951
 C404 C 1.10072 0.64090 -0.23749
 C405 C 1.14018 0.65120 -0.26665
 H406 H 1.05972 0.61159 -0.34584
 H407 H 1.07905 0.68779 -0.35185
 H408 H 1.13209 0.63063 -0.40024
 H409 H 1.17760 0.71703 -0.24767
 H410 H 1.10465 0.69710 -0.19194
 H411 H 1.15783 0.64034 -0.24129
 C412 C 0.86252 0.51679 -0.26376
 C413 C 0.85446 0.54986 -0.26797
 C414 C 0.86789 0.55675 -0.35517
 C415 C 0.87558 0.52373 -0.35121
 C416 C 0.90835 0.58429 -0.32885
 C417 C 0.89542 0.57737 -0.24065
 C418 C 0.90300 0.54431 -0.23784
 C419 C 0.91612 0.55128 -0.32503
 H420 H 0.84383 0.48894 -0.23648
 H421 H 0.82895 0.54936 -0.24459
 H422 H 0.86743 0.50154 -0.39703
 H423 H 0.92712 0.61211 -0.35617
 H424 H 0.90376 0.59932 -0.19427
 H425 H 0.94162 0.55180 -0.34867
 C426 C 0.48433 0.34547 -0.26352
 C427 C 0.45110 0.30448 -0.26866
 C428 C 0.44478 0.31150 -0.35589
 C429 C 0.47797 0.35205 -0.35103
 C430 C 0.41725 0.32455 -0.32981
 C431 C 0.42364 0.31811 -0.24157
 C432 C 0.45686 0.35859 -0.23782
 C433 C 0.45043 0.36518 -0.32505
 H434 H 0.51200 0.35431 -0.23572
 H435 H 0.45136 0.27939 -0.24510
 H436 H 0.50048 0.36620 -0.39628
 H437 H 0.38960 0.31585 -0.35754
 H438 H 0.40141 0.30445 -0.19565
 H439 H 0.45020 0.39034 -0.34841
 C440 C 0.68201 0.10530 -0.23865
 C441 C 0.67601 0.09237 -0.32679
 C442 C 0.68884 0.13283 -0.35327
 C443 C 0.69537 0.14625 -0.26614
 C444 C 0.64811 0.12510 -0.34911
 C445 C 0.63522 0.08457 -0.32276
 C446 C 0.64137 0.09770 -0.23563
 C447 C 0.65423 0.13816 -0.26172
 H448 H 0.69566 0.09698 -0.19231
 H449 H 0.68510 0.07362 -0.35410
 H450 H 0.72034 0.17177 -0.24295
 H451 H 0.63404 0.13324 -0.39488
 H452 H 0.61029 0.05907 -0.34622
 H453 H 0.64503 0.15683 -0.23444
 C454 C 1.08391 0.45125 -0.32769
 C455 C 1.12461 0.47833 -0.35408
 C456 C 1.13136 0.44472 -0.35958
 C457 C 1.09075 0.41765 -0.33310
 C458 C 1.14490 0.45080 -0.27252
 C459 C 1.13775 0.48445 -0.26674
 C460 C 1.09713 0.45743 -0.24062
 C461 C 1.10379 0.42380 -0.24502
 H462 H 1.05869 0.45148 -0.35054
 H463 H 1.13314 0.50091 -0.39916
 H464 H 1.07145 0.39012 -0.36088
 H465 H 1.17008 0.45061 -0.24942
 H466 H 1.15692 0.51199 -0.23891
 H467 H 1.09506 0.40151 -0.19926
 C468 C 0.51431 0.65221 -0.26580
 C469 C 0.54780 0.69305 -0.27172
 C470 C 0.55388 0.68565 -0.35889
 C471 C 0.52044 0.64525 -0.35326
 C472 C 0.58116 0.67231 -0.33278
 C473 C 0.57501 0.67913 -0.24460
 C474 C 0.54153 0.63881 -0.24006
 C475 C 0.54772 0.63183 -0.32724
 H476 H 0.48674 0.64371 -0.23772
 H477 H 0.54784 0.71834 -0.24848
 H478 H 0.49784 0.63113 -0.39818
 H479 H 0.60871 0.68067 -0.36081
 H480 H 0.59732 0.69277 -0.19900
 H481 H 0.54764 0.60647 -0.35024
 C482 C 0.32001 -0.10388 -0.23980
 C483 C 0.32645 -0.09080 -0.32789
 C484 C 0.31324 -0.13131 -0.35448
 C485 C 0.30628 -0.14488 -0.26740
 C486 C 0.35377 -0.12410 -0.34997
 C487 C 0.36704 -0.08352 -0.32351
 C488 C 0.36047 -0.09679 -0.23643
 C489 C 0.34722 -0.13730 -0.26264
 H490 H 0.30642 -0.09539 -0.19358
 H491 H 0.31777 -0.07175 -0.35528
 H492 H 0.28106 -0.17026 -0.24441
 H493 H 0.36779 -0.13241 -0.39562
 H494 H 0.39223 -0.05814 -0.34677
 H495 H 0.35601 -0.15628 -0.23529
 C496 C 0.57662 -0.10565 0.24069
 C497 C 0.58355 -0.09271 0.32882
 C498 C 0.55591 -0.13314 0.35538
 C499 C 0.54901 -0.14658 0.26826
 C500 C 0.52297 -0.12532 0.35143
 C501 C 0.55061 -0.08482 0.32499
 C502 C 0.54363 -0.09797 0.23788
 C503 C 0.51602 -0.13840 0.26406
 H504 H 0.59857 -0.09738 0.19423
 H505 H 0.61138 -0.07399 0.35601
 H506 H 0.54843 -0.17213 0.24500
 H507 H 0.50077 -0.13341 0.39731
 H508 H 0.55121 -0.05928 0.34849
 H509 H 0.48815 -0.15704 0.23691
 C510 C 0.34497 0.48267 0.26254
 C511 C 0.30391 0.44957 0.26688
 C512 C 0.31048 0.44264 0.35396
 C513 C 0.35114 0.47569 0.34987
 C514 C 0.32348 0.41515 0.32732
 C515 C 0.31743 0.42211 0.23922
 C516 C 0.35801 0.45521 0.23628
 C517 C 0.36420 0.44819 0.32336
 H518 H 0.35406 0.51053 0.23539
 H519 H 0.27888 0.45005 0.24372
 H520 H 0.36513 0.49785 0.39573
 H521 H 0.31449 0.38732 0.35452
 H522 H 0.30386 0.40019 0.19280
 H523 H 0.38920 0.44769 0.34675
 C524 C 1.10512 0.68222 0.23965
 C525 C 1.09196 0.67578 0.32772
 C526 C 1.13241 0.68878 0.35437
 C527 C 1.14606 0.69574 0.26732
 C528 C 1.12500 0.64819 0.34967
 C529 C 1.08448 0.63513 0.32315
 C530 C 1.09783 0.64170 0.23609
 C531 C 1.13829 0.65474 0.26237
 H532 H 1.09678 0.69593 0.19348
 H533 H 1.07299 0.68457 0.35515
 H534 H 1.17154 0.72090 0.24444
 H535 H 1.13316 0.63405 0.39526
 H536 H 1.05901 0.61000 0.34629
 H537 H 1.15719 0.64585 0.23499
 C538 C 0.42407 0.10393 0.24371
 C539 C 0.41732 0.09079 0.33176
 C540 C 0.44470 0.13124 0.35844
 C541 C 0.45141 0.14487 0.27140
 C542 C 0.47790 0.12384 0.35377
 C543 C 0.45052 0.08331 0.32720
 C544 C 0.45732 0.09666 0.24016
 C545 C 0.48466 0.13711 0.26647
 H546 H 0.40204 0.09557 0.19752
 H547 H 0.38957 0.07182 0.35917
 H548 H 0.45170 0.17034 0.24851
 H549 H 0.50016 0.13202 0.39938
 H550 H 0.45021 0.05786 0.35030
 H551 H 0.51245 0.15601 0.23911
 C552 C 0.63270 0.54998 0.32414
 C553 C 0.64602 0.52272 0.35080
 C554 C 0.68653 0.55601 0.35518
 C555 C 0.67328 0.58326 0.32840
 C556 C 0.69349 0.54930 0.26816
 C557 C 0.65256 0.51596 0.26352
 C558 C 0.63928 0.54319 0.23711
 C559 C 0.67971 0.57652 0.24036
 H560 H 0.60750 0.55021 0.34732
 H561 H 0.63203 0.50047 0.39657
 H562 H 0.68194 0.61101 0.35564
 H563 H 0.71871 0.54910 0.24519
 H564 H 0.64380 0.48819 0.23632
 H565 H 0.69328 0.59853 0.19403
 C566 C 0.91709 0.36773 0.32416
 C567 C 0.87654 0.35457 0.35090
 C568 C 0.86921 0.31401 0.35556
 C569 C 0.90969 0.32710 0.32870
 C570 C 0.85560 0.30706 0.26858
 C571 C 0.86328 0.34804 0.26366
 C572 C 0.90377 0.36116 0.23717
 C573 C 0.89657 0.32068 0.24070
 H574 H 0.94252 0.39288 0.34719
 H575 H 0.86831 0.36864 0.39657
 H576 H 0.92870 0.31836 0.35601
 H577 H 0.83016 0.28189 0.24579
 H578 H 0.84435 0.35689 0.23639
 H579 H 0.90497 0.30703 0.19447
   
