data_POSCAR
  _audit_creation_date              2014-09-24
  _audit_creation_method            'ToBaCCo'
  _symmetry_space_group_name_H-M    'P1'
  _symmetry_Int_Tables_number       1
  _symmetry_cell_setting            triclinic
  loop_
  _symmetry_equiv_pos_as_xyz
 x,y,z
_cell_length_a 55.0663
_cell_length_b 55.0657
_cell_length_c 19.4688
_cell_angle_alpha 90.000000
_cell_angle_beta 90.000000
_cell_angle_gamma 120.000000
loop_
  _atom_site_label
  _atom_site_type_symbol
  _atom_site_fract_x
  _atom_site_fract_y
  _atom_site_fract_z
O1 O 0.21375 0.47667 0.42999
 O2 O 0.26291 0.47671 0.56978
 O3 O 0.21378 0.47666 0.56981
 O4 O 0.26288 0.47663 0.43041
 O5 O 0.28611 0.52322 0.43048
 O6 O 0.23716 0.52321 0.56968
 O7 O 0.28621 0.52329 0.56969
 O8 O 0.23710 0.52318 0.43028
 Cu9 Cu 0.23610 0.47220 0.50000
 Cu10 Cu 0.26390 0.52780 0.50000
 C11 C 0.21611 0.49983 0.40855
 C12 C 0.28340 0.50001 0.59123
 C13 C 0.21654 0.49983 0.59123
 C14 C 0.28336 0.49966 0.40997
 O15 O 0.52341 -0.21374 0.56957
 O16 O 0.52334 -0.26296 0.43048
 O17 O 0.52337 -0.21375 0.43039
 O18 O 0.52328 -0.26292 0.56969
 O19 O 0.47670 -0.28620 0.56982
 O20 O 0.47679 -0.23712 0.43053
 O21 O 0.47678 -0.28616 0.43023
 O22 O 0.47687 -0.23726 0.56800
 Cu23 Cu 0.52780 -0.23610 0.50000
 Cu24 Cu 0.47220 -0.26391 0.49999
 C25 C 0.50119 -0.21602 0.58768
 C26 C 0.50036 -0.28378 0.40982
 C27 C 0.50035 -0.21631 0.40989
 C28 C 0.50000 -0.28339 0.59128
 O29 O 1.26295 0.78630 0.43038
 O30 O 1.21375 0.73712 0.56963
 O31 O 1.26288 0.78625 0.56964
 O32 O 1.21377 0.73712 0.43021
 O33 O 1.23719 0.71404 0.43040
 O34 O 1.28603 0.76286 0.56936
 O35 O 1.23713 0.71395 0.56938
 O36 O 1.28605 0.76290 0.43042
 Cu37 Cu 1.23610 0.76390 0.50000
 Cu38 Cu 1.26390 0.73610 0.49998
 C39 C 1.28369 0.78410 0.40936
 C40 C 1.21633 0.71669 0.59030
 C41 C 1.28330 0.78366 0.59036
 C42 C 1.21649 0.71673 0.40889
 O43 O 0.73707 0.52336 0.56979
 O44 O 0.78621 0.52329 0.43031
 O45 O 0.73712 0.52337 0.43028
 O46 O 0.78621 0.52329 0.56969
 O47 O 0.76292 0.47671 0.56978
 O48 O 0.71409 0.47690 0.43067
 O49 O 0.76292 0.47671 0.43022
 O50 O 0.71407 0.47692 0.56951
 Cu51 Cu 0.76390 0.52780 0.50000
 Cu52 Cu 0.73613 0.47221 0.50001
 C53 C 0.71633 0.50036 0.59099
 C54 C 0.78341 0.50002 0.40878
 C55 C 0.71675 0.50033 0.40921
 C56 C 0.78341 0.50002 0.59123
 O57 O 0.47670 0.26290 0.43018
 O58 O 0.47668 0.21376 0.57004
 O59 O 0.47670 0.26290 0.56983
 O60 O 0.47667 0.21378 0.43017
 O61 O 0.52324 0.23713 0.43029
 O62 O 0.52327 0.28618 0.56968
 O63 O 0.52321 0.23706 0.56970
 O64 O 0.52327 0.28618 0.43031
 Cu65 Cu 0.47220 0.23610 0.50001
 Cu66 Cu 0.52779 0.26390 0.50000
 C67 C 0.49997 0.28337 0.40869
 C68 C 0.49989 0.21614 0.59155
 C69 C 0.49997 0.28337 0.59131
 C70 C 0.49988 0.21656 0.40870
 O71 O 0.73712 0.21375 0.43027
 O72 O 0.78605 0.26290 0.56958
 O73 O 0.73712 0.21376 0.56973
 O74 O 0.78604 0.26286 0.43064
 O75 O 0.76288 0.28626 0.43036
 O76 O 0.71409 0.23720 0.56936
 O77 O 0.76295 0.28630 0.56962
 O78 O 0.71409 0.23719 0.43064
 Cu79 Cu 0.76389 0.23609 0.50001
 Cu80 Cu 0.73612 0.26392 0.50000
 C81 C 0.71675 0.21642 0.40917
 C82 C 0.78369 0.28410 0.59064
 C83 C 0.71675 0.21642 0.59083
 C84 C 0.78330 0.28366 0.40964
 O85 O 0.97065 0.50214 -0.13325
 O86 O 1.01745 0.52378 0.15677
 O87 O 0.93656 0.48547 0.06931
 O88 O 1.05016 0.53957 -0.04553
 O89 O 0.96840 0.49978 0.15466
 O90 O 1.02018 0.52645 -0.13289
 O91 O 1.05067 0.53998 0.07165
 O92 O 0.93604 0.48458 -0.04950
 C93 C 0.94904 0.50698 -0.11734
 C94 C 1.04952 0.55701 0.12055
 C95 C 0.94944 0.50758 0.11896
 C96 C 1.04971 0.55663 -0.11806
 O97 O 1.02146 0.48428 -0.13459
 O98 O 0.97003 0.45904 0.15014
 O99 O 0.92714 0.43895 -0.05831
 O100 O 1.05321 0.50026 0.07030
 O101 O 1.01874 0.48244 0.15558
 O102 O 0.97087 0.46035 -0.14164
 O103 O 1.05096 0.49812 -0.04748
 O104 O 0.93950 0.44443 0.06904
 Co105 Co 0.91239 0.37523 0.03378
 Co106 Co 0.89424 0.35522 0.33076
 Co107 Co 0.84653 0.34509 0.15891
 Co108 Co 0.94896 0.38193 0.19013
 O109 O 0.97629 0.47164 0.04671
 C110 C 1.05037 0.49231 -0.12004
 C111 C 0.94924 0.44192 0.12161
 C112 C 0.94762 0.44097 -0.11691
 C113 C 1.04973 0.49128 0.12209
 O114 O 0.47891 0.45825 -0.13279
 O115 O 0.45260 0.48199 0.15512
 O116 O 0.49791 0.44297 0.06886
 O117 O 0.43480 0.49775 -0.04597
 O118 O 0.47580 0.45640 0.15562
 O119 O 0.45584 0.48453 -0.13548
 O120 O 0.43642 0.49886 0.07032
 O121 O 0.49565 0.44185 -0.04928
 C122 C 0.49218 0.44158 -0.12027
 C123 C 0.44150 0.49248 0.12152
 C124 C 0.49145 0.44131 0.12147
 C125 C 0.44083 0.49192 -0.11889
 O126 O 0.49515 0.52427 -0.13093
 O127 O 0.51631 0.49762 0.15699
 O128 O 0.53611 0.48297 -0.04716
 O129 O 0.47510 0.53847 0.07280
 O130 O 0.49186 0.52213 0.15690
 O131 O 0.51958 0.49984 -0.13106
 O132 O 0.47493 0.53862 -0.04433
 O133 O 0.53621 0.48298 0.07015
 Co134 Co 0.31221 0.37776 0.02470
 Co135 Co 0.28260 0.35814 0.32126
 Co136 Co 0.34161 0.34866 0.15990
 Co137 Co 0.25457 0.38670 0.18399
 O138 O 0.45184 0.47253 0.05114
 C139 C 0.50605 0.55670 -0.11587
 C140 C 0.55619 0.50700 0.12039
 C141 C 0.55612 0.50664 -0.11772
 C142 C 0.50675 0.55680 0.11975
 O143 O 0.52522 0.01401 -0.13707
 O144 O 0.50026 -0.03742 0.15841
 O145 O 0.53033 0.04108 0.06160
 O146 O 0.47704 -0.07354 -0.05775
 O147 O 0.52361 0.01012 0.15949
 O148 O 0.50464 -0.03223 -0.12821
 O149 O 0.47724 -0.07345 0.05921
 O150 O 0.53034 0.04085 -0.05372
 C151 C 0.55663 0.04948 -0.11843
 C152 C 0.50719 -0.05131 0.11854
 C153 C 0.55640 0.04855 0.12096
 C154 C 0.50671 -0.05173 -0.11834
 O155 O 0.45773 -0.03345 -0.13660
 O156 O 0.48151 0.01024 0.15897
 O157 O 0.48991 0.04180 -0.05330
 O158 O 0.45394 -0.07711 0.07794
 O159 O 0.45846 -0.03642 0.16111
 O160 O 0.48257 0.01452 -0.13736
 O161 O 0.41173 -0.11111 -0.06154
 O162 O 0.49046 0.04229 0.06082
 Co163 Co 0.33899 -0.15970 0.07368
 Co164 Co 0.32946 -0.20915 0.37301
 Co165 Co 0.33273 -0.15522 0.12924
 Co166 Co 0.28338 -0.27670 0.12910
 O167 O 0.45667 -0.05075 0.02764
 C168 C 0.43380 -0.06084 -0.09989
 C169 C 0.49139 0.04895 0.12257
 C170 C 0.49205 0.04964 -0.12003
 C171 C 0.45166 -0.05430 0.16208
 C172 C 1.14632 0.48371 0.29491
 C173 C 1.15034 0.51259 0.29900
 C174 C 1.17368 0.53534 0.34272
 C175 C 1.19327 0.52896 0.38279
 C176 C 1.19111 0.50058 0.37972
 C177 C 1.16693 0.47732 0.33703
 O178 O 1.12258 0.46670 0.24961
 C179 C 1.11094 0.48370 0.22398
 C180 C 1.12749 0.51247 0.25302
 C181 C 1.12006 0.53418 0.23576
 C182 C 1.09366 0.52601 0.19622
 C183 C 1.07826 0.49933 0.15889
 C184 C 1.08591 0.47730 0.17462
 H185 H 1.17640 0.55744 0.34514
 H186 H 1.21099 0.54634 0.41578
 H187 H 1.16454 0.45545 0.33493
 H188 H 1.13148 0.55158 0.26714
 H189 H 1.07436 0.52976 0.21556
 H190 H 1.07262 0.45544 0.15124
 C191 C 0.50867 0.64918 0.33346
 C192 C 0.49329 0.64813 0.26919
 C193 C 0.48117 0.66750 0.25901
 C194 C 0.48445 0.68805 0.31385
 C195 C 0.49945 0.69088 0.37816
 C196 C 0.51217 0.67111 0.39058
 O197 O 0.51773 0.62839 0.32840
 C198 C 0.50865 0.61376 0.26257
 C199 C 0.49329 0.62526 0.22343
 C200 C 0.48116 0.61409 0.15217
 C201 C 0.48458 0.59103 0.11984
 C202 C 0.50052 0.57886 0.15787
 C203 C 0.51205 0.58984 0.22851
 H204 H 0.46942 0.66637 0.20921
 H205 H 0.47527 0.70287 0.30582
 H206 H 0.52374 0.67219 0.43962
 H207 H 0.46942 0.62326 0.12298
 H208 H 0.47534 0.58271 0.06572
 H209 H 0.52373 0.58043 0.25663
 C210 C 0.34612 -0.14027 0.32455
 C211 C 0.35541 -0.15504 0.27591
 C212 C 0.33974 -0.18860 0.27029
 C213 C 0.31940 -0.20188 0.31975
 C214 C 0.30921 -0.19132 0.37854
 C215 C 0.32237 -0.15862 0.37816
 O216 O 0.36202 -0.11017 0.31024
 C217 C 0.38159 -0.10481 0.25416
 C218 C 0.37837 -0.13217 0.23034
 C219 C 0.39607 -0.13363 0.17144
 C220 C 0.41562 -0.10658 0.13803
 C221 C 0.39905 -0.08513 0.13582
 C222 C 0.40146 -0.07863 0.20921
 H223 H 0.35019 -0.19782 0.24063
 H224 H 0.31009 -0.22865 0.33025
 H225 H 0.31481 -0.14793 0.41600
 H226 H 0.39335 -0.15469 0.15449
 H227 H 0.44441 -0.10928 0.13831
 H228 H 0.40672 -0.05607 0.23230
 C229 C 0.83711 0.49448 0.27218
 C230 C 0.86249 0.50424 0.31651
 C231 C 0.86227 0.51189 0.39156
 C232 C 0.83592 0.50912 0.41802
 C233 C 0.80971 0.49999 0.37916
 C234 C 0.81011 0.49230 0.30516
 O235 O 0.84356 0.48874 0.20327
 C236 C 0.87251 0.49446 0.20130
 C237 C 0.88535 0.50426 0.27076
 C238 C 0.91564 0.51193 0.28509
 C239 C 0.93317 0.50976 0.22937
 C240 C 0.92237 0.50089 0.16019
 C241 C 0.89127 0.49237 0.14289
 H242 H 0.88201 0.51944 0.42507
 H243 H 0.83615 0.51649 0.45647
 H244 H 0.79019 0.48495 0.27298
 H245 H 0.92512 0.51942 0.33882
 H246 H 0.95625 0.51573 0.24061
 H247 H 0.88209 0.48497 0.08917
 C248 C 0.48848 0.33590 0.27938
 C249 C 0.50890 0.36341 0.31097
 C250 C 0.52496 0.36487 0.37633
 C251 C 0.52035 0.33821 0.40983
 C252 C 0.50025 0.30982 0.37967
 C253 C 0.48397 0.30843 0.31525
 O254 O 0.47648 0.34109 0.21793
 C255 C 0.48851 0.37131 0.20847
 C256 C 0.50890 0.38628 0.26522
 C257 C 0.52500 0.41829 0.26944
 C258 C 0.52039 0.43544 0.21615
 C259 C 0.49970 0.42166 0.15956
 C260 C 0.48401 0.38948 0.15313
 H261 H 0.54058 0.38627 0.39977
 H262 H 0.53284 0.33949 0.45431
 H263 H 0.46854 0.28688 0.29258
 H264 H 0.54058 0.42938 0.31354
 H265 H 0.53259 0.45972 0.21956
 H266 H 0.46850 0.37877 0.10888
 C267 C 0.65838 0.14189 0.31228
 C268 C 0.64102 0.15376 0.28559
 C269 C 0.64752 0.18330 0.30502
 C270 C 0.67167 0.20105 0.35174
 C271 C 0.69018 0.19087 0.37877
 C272 C 0.68375 0.16080 0.36106
 O273 O 0.64720 0.11351 0.28509
 C274 C 0.62298 0.10650 0.24135
 C275 C 0.61817 0.13092 0.23991
 C276 C 0.59454 0.13018 0.19817
 C277 C 0.57803 0.10587 0.15186
 C278 C 0.57907 0.07847 0.15822
 C279 C 0.60268 0.07971 0.19910
 H280 H 0.63392 0.19205 0.28393
 H281 H 0.67660 0.22357 0.36614
 H282 H 0.69750 0.15241 0.38241
 H283 H 0.59082 0.14894 0.19767
 H284 H 0.55817 0.10448 0.12172
 H285 H 0.60557 0.06050 0.19874
 C286 C 0.48476 0.14821 -0.28944
 C287 C 0.51178 0.14888 -0.30321
 C288 C 0.53306 0.16958 -0.35457
 C289 C 0.52709 0.18997 -0.39251
 C290 C 0.50049 0.19103 -0.37990
 C291 C 0.47877 0.16952 -0.32942
 O292 O 0.46885 0.12644 -0.23844
 C293 C 0.48477 0.11283 -0.21852
 C294 C 0.51179 0.12602 -0.25746
 C295 C 0.53301 0.11622 -0.24778
 C296 C 0.52583 0.09226 -0.20017
 C297 C 0.49972 0.07820 -0.15903
 C298 C 0.47881 0.08850 -0.16711
 H299 H 0.55373 0.16974 -0.36439
 H300 H 0.54333 0.20564 -0.43133
 H301 H 0.45833 0.16971 -0.32000
 H302 H 0.55370 0.12660 -0.27825
 H303 H 0.53883 0.08213 -0.19812
 H304 H 0.45832 0.07779 -0.13633
 C305 C 0.65792 0.51629 -0.31374
 C306 C 0.64138 0.48741 -0.28444
 C307 C 0.64852 0.46465 -0.30186
 C308 C 0.67249 0.47095 -0.34922
 C309 C 0.69062 0.49929 -0.37903
 C310 C 0.68317 0.52268 -0.36314
 O311 O 0.64626 0.53330 -0.28807
 C312 C 0.62251 0.51628 -0.24283
 C313 C 0.61850 0.48740 -0.23869
 C314 C 0.59513 0.46464 -0.19495
 C315 C 0.57559 0.47115 -0.15452
 C316 C 0.57870 0.50049 -0.15845
 C317 C 0.60203 0.52266 -0.20108
 H318 H 0.63555 0.44256 -0.27878
 H319 H 0.67790 0.45357 -0.36196
 H320 H 0.69624 0.54457 -0.38641
 H321 H 0.59244 0.44256 -0.19255
 H322 H 0.55786 0.45373 -0.12171
 H323 H 0.60432 0.54455 -0.20271
 C324 C 0.84612 0.35973 -0.32455
 C325 C 0.85550 0.34497 -0.27608
 C326 C 0.84271 0.31316 -0.27838
 C327 C 0.82035 0.29602 -0.32986
 C328 C 0.80928 0.30859 -0.37862
 C329 C 0.82238 0.34138 -0.37815
 O330 O 0.86200 0.38983 -0.31016
 C331 C 0.88153 0.39517 -0.25359
 C332 C 0.87837 0.36785 -0.23033
 C333 C 0.89606 0.36653 -0.17152
 C334 C 0.91712 0.39290 -0.13578
 C335 C 0.92191 0.42066 -0.15770
 C336 C 0.90382 0.42274 -0.21587
 H337 H 0.85020 0.30220 -0.24066
 H338 H 0.81054 0.27176 -0.33118
 H339 H 0.81481 0.35207 -0.41600
 H340 H 0.89331 0.34531 -0.15443
 H341 H 0.93068 0.39193 -0.09113
 H342 H 0.90678 0.44399 -0.23228
 C343 C 0.51599 -0.11511 -0.32939
 C344 C 0.49046 -0.15561 -0.26815
 C345 C 0.49083 -0.18672 -0.25397
 C346 C 0.53875 -0.15510 -0.29379
 C347 C 0.49816 -0.19483 -0.38236
 C348 C 0.52238 -0.15733 -0.44726
 O349 O 0.52391 -0.10934 -0.31838
 C350 C 0.51151 -0.10473 -0.25829
 C351 C 0.49107 -0.13225 -0.22660
 C352 C 0.47704 -0.13365 -0.15680
 C353 C 0.52424 -0.10311 -0.10690
 C354 C 0.50305 -0.07800 -0.15810
 C355 C 0.51590 -0.07727 -0.22300
 H356 H 0.45891 -0.19626 -0.22274
 H357 H 0.47789 -0.22747 -0.34613
 H358 H 0.53324 -0.14851 -0.43347
 H359 H 0.46040 -0.15415 -0.13639
 H360 H 0.46883 -0.10848 -0.07182
 H361 H 0.53148 -0.05572 -0.24506
 C362 C 0.33711 0.49449 -0.27219
 C363 C 0.36247 0.50426 -0.31651
 C364 C 0.36223 0.51195 -0.39192
 C365 C 0.33602 0.50980 -0.42323
 C366 C 0.30976 0.50009 -0.37969
 C367 C 0.31014 0.49232 -0.30519
 O368 O 0.34356 0.48874 -0.20327
 C369 C 0.37253 0.49452 -0.20130
 C370 C 0.38535 0.50426 -0.27076
 C371 C 0.41567 0.51198 -0.28503
 C372 C 0.43331 0.50989 -0.22896
 C373 C 0.42171 0.49960 -0.16000
 C374 C 0.39120 0.49234 -0.14306
 H375 H 0.38201 0.51942 -0.42505
 H376 H 0.33604 0.51566 -0.48025
 H377 H 0.29019 0.48495 -0.27299
 H378 H 0.42512 0.51942 -0.33882
 H379 H 0.45632 0.51566 -0.23987
 H380 H 0.38207 0.48490 -0.08923
 C381 C 1.14020 0.65335 -0.32572
 C382 C 1.15508 0.64490 -0.27518
 C383 C 1.18699 0.65842 -0.27582
 C384 C 1.20409 0.68059 -0.32766
 C385 C 1.19097 0.69033 -0.37814
 C386 C 1.15846 0.67682 -0.37981
 O387 O 1.11004 0.63693 -0.31256
 C388 C 1.10480 0.61794 -0.25482
 C389 C 1.13220 0.62203 -0.22943
 C390 C 1.13365 0.60511 -0.16897
 C391 C 1.10737 0.58481 -0.13188
 C392 C 1.07825 0.57906 -0.15803
 C393 C 1.07737 0.59568 -0.21781
 H394 H 1.19803 0.65164 -0.23652
 H395 H 1.22843 0.69096 -0.32787
 H396 H 1.14776 0.68376 -0.41921
 H397 H 1.15492 0.60852 -0.15030
 H398 H 1.10824 0.57089 -0.08760
 H399 H 1.05587 0.59185 -0.23546
 C400 C 0.83711 0.49448 -0.27218
 C401 C 0.86249 0.50424 -0.31651
 C402 C 0.86227 0.51189 -0.39156
 C403 C 0.83592 0.50912 -0.41802
 C404 C 0.80971 0.49999 -0.37916
 C405 C 0.81011 0.49230 -0.30516
 O406 O 0.84356 0.48874 -0.20327
 C407 C 0.87251 0.49446 -0.20130
 C408 C 0.88535 0.50426 -0.27076
 C409 C 0.91564 0.51193 -0.28509
 C410 C 0.93318 0.50976 -0.22935
 C411 C 0.92244 0.50099 -0.16032
 C412 C 0.89127 0.49237 -0.14290
 H413 H 0.88201 0.51944 -0.42507
 H414 H 0.83615 0.51649 -0.45647
 H415 H 0.79019 0.48495 -0.27298
 H416 H 0.92512 0.51942 -0.33882
 H417 H 0.95627 0.51572 -0.24048
 H418 H 0.88209 0.48497 -0.08917
 C419 C 0.48848 0.33590 -0.27938
 C420 C 0.50890 0.36341 -0.31097
 C421 C 0.52496 0.36487 -0.37633
 C422 C 0.52035 0.33821 -0.40983
 C423 C 0.50025 0.30982 -0.37967
 C424 C 0.48397 0.30843 -0.31525
 O425 O 0.47648 0.34109 -0.21793
 C426 C 0.48851 0.37131 -0.20847
 C427 C 0.50890 0.38628 -0.26522
 C428 C 0.52500 0.41829 -0.26944
 C429 C 0.52040 0.43544 -0.21616
 C430 C 0.49980 0.42175 -0.15961
 C431 C 0.48401 0.38948 -0.15312
 H432 H 0.54058 0.38627 -0.39977
 H433 H 0.53284 0.33949 -0.45431
 H434 H 0.46854 0.28688 -0.29258
 H435 H 0.54058 0.42938 -0.31354
 H436 H 0.53259 0.45972 -0.21956
 H437 H 0.46850 0.37877 -0.10888
 C438 C 0.65838 0.14189 -0.31228
 C439 C 0.64102 0.15376 -0.28559
 C440 C 0.64752 0.18330 -0.30502
 C441 C 0.67167 0.20105 -0.35174
 C442 C 0.69018 0.19087 -0.37877
 C443 C 0.68375 0.16080 -0.36106
 O444 O 0.64720 0.11351 -0.28509
 C445 C 0.62298 0.10650 -0.24135
 C446 C 0.61817 0.13092 -0.23991
 C447 C 0.59454 0.13018 -0.19817
 C448 C 0.57803 0.10587 -0.15186
 C449 C 0.57909 0.07846 -0.15823
 C450 C 0.60267 0.07970 -0.19910
 H451 H 0.63392 0.19205 -0.28393
 H452 H 0.67660 0.22357 -0.36614
 H453 H 0.69750 0.15241 -0.38241
 H454 H 0.59082 0.14894 -0.19767
 H455 H 0.55817 0.10448 -0.12172
 H456 H 0.60557 0.06050 -0.19874
 C457 C 1.14632 0.48370 -0.29490
 C458 C 1.15034 0.51260 -0.29899
 C459 C 1.17368 0.53535 -0.34272
 C460 C 1.19324 0.52897 -0.38280
 C461 C 1.19066 0.50054 -0.37940
 C462 C 1.16690 0.47733 -0.33688
 O463 O 1.12258 0.46670 -0.24960
 C464 C 1.11094 0.48372 -0.22399
 C465 C 1.12746 0.51260 -0.25324
 C466 C 1.12029 0.53536 -0.23579
 C467 C 1.09604 0.52878 -0.18839
 C468 C 1.07821 0.49979 -0.15903
 C469 C 1.08589 0.47736 -0.17479
 H470 H 1.17640 0.55744 -0.34513
 H471 H 1.21100 0.54633 -0.41578
 H472 H 1.16454 0.45545 -0.33493
 H473 H 1.13329 0.55744 -0.25890
 H474 H 1.09016 0.54477 -0.17713
 H475 H 1.07262 0.45545 -0.15127
 C476 C 0.49099 0.65479 -0.27553
 C477 C 0.50696 0.64378 -0.31394
 C478 C 0.51952 0.65531 -0.38468
 C479 C 0.51599 0.67834 -0.41719
 C480 C 0.50018 0.69038 -0.37970
 C481 C 0.48746 0.67860 -0.30987
 O482 O 0.48160 0.63990 -0.21009
 C483 C 0.49097 0.61937 -0.20464
 C484 C 0.50696 0.62091 -0.26818
 C485 C 0.51952 0.60190 -0.27785
 C486 C 0.51603 0.58119 -0.22341
 C487 C 0.50115 0.57868 -0.16007
 C488 C 0.48751 0.59750 -0.14750
 H489 H 0.53174 0.64651 -0.41330
 H490 H 0.52562 0.68710 -0.46997
 H491 H 0.47540 0.68771 -0.28210
 H492 H 0.53174 0.60340 -0.32707
 H493 H 0.52571 0.56680 -0.23094
 H494 H 0.47540 0.59581 -0.09828
 C495 C 0.34612 -0.14026 -0.32455
 C496 C 0.35550 -0.15503 -0.27608
 C497 C 0.34271 -0.18685 -0.27837
 C498 C 0.32034 -0.20397 -0.32976
 C499 C 0.30969 -0.19097 -0.37821
 C500 C 0.32246 -0.15855 -0.37817
 O501 O 0.36200 -0.11017 -0.31017
 C502 C 0.38153 -0.10486 -0.25369
 C503 C 0.37836 -0.13214 -0.23034
 C504 C 0.39658 -0.13298 -0.17412
 C505 C 0.40676 -0.12173 -0.16350
 C506 C 0.41897 -0.07846 -0.16762
 C507 C 0.40359 -0.07738 -0.21632
 H508 H 0.35020 -0.19780 -0.24066
 H509 H 0.31053 -0.22824 -0.33119
 H510 H 0.31481 -0.14793 -0.41600
 H511 H 0.40160 -0.15050 -0.18743
 H512 H 0.42082 -0.15586 -0.13549
 H513 H 0.40672 -0.05604 -0.23223
 C514 C 0.51150 -0.14015 0.32923
 C515 C 0.49110 -0.15512 0.27246
 C516 C 0.47501 -0.18710 0.26824
 C517 C 0.47943 -0.20420 0.32137
 C518 C 0.49942 -0.19098 0.37796
 C519 C 0.51607 -0.15839 0.38473
 O520 O 0.52352 -0.10993 0.31974
 C521 C 0.51149 -0.10475 0.25833
 C522 C 0.49110 -0.13224 0.22670
 C523 C 0.47501 -0.13372 0.16136
 C524 C 0.47978 -0.10714 0.12734
 C525 C 0.50044 -0.07837 0.15822
 C526 C 0.51599 -0.07731 0.22265
 H527 H 0.45940 -0.19820 0.22428
 H528 H 0.46722 -0.22860 0.31791
 H529 H 0.53150 -0.14760 0.42882
 H530 H 0.45943 -0.15513 0.13784
 H531 H 0.46729 -0.10882 0.07793
 H532 H 0.53148 -0.05572 0.24505
 C533 C 0.34910 0.48931 0.33064
 C534 C 0.35319 0.50827 0.27137
 C535 C 0.33623 0.52323 0.26514
 C536 C 0.31501 0.51912 0.31885
 C537 C 0.30957 0.50055 0.37787
 C538 C 0.32659 0.48505 0.38670
 O539 O 0.36810 0.47814 0.32262
 C540 C 0.38452 0.48932 0.25974
 C541 C 0.37607 0.50827 0.22561
 C542 C 0.38964 0.52323 0.15831
 C543 C 0.41201 0.51903 0.12492
 C544 C 0.42113 0.49945 0.15824
 C545 C 0.40775 0.48514 0.22464
 H546 H 0.33969 0.53772 0.21918
 H547 H 0.30202 0.53048 0.31390
 H548 H 0.32297 0.47072 0.43269
 H549 H 0.38280 0.53772 0.13295
 H550 H 0.42219 0.53042 0.07377
 H551 H 0.41487 0.47079 0.24901
 C552 C 1.14422 0.66115 0.30205
 C553 C 1.15197 0.63889 0.29353
 C554 C 1.17824 0.64152 0.32721
 C555 C 1.19693 0.66682 0.37003
 C556 C 1.19076 0.69013 0.37917
 C557 C 1.16401 0.68755 0.34684
 O558 O 1.11829 0.65290 0.26425
 C559 C 1.10883 0.62587 0.23130
 C560 C 1.12911 0.61617 0.24843
 C561 C 1.12517 0.58990 0.22124
 C562 C 1.10604 0.57849 0.16107
 C563 C 1.07862 0.57980 0.15933
 C564 C 1.08276 0.60658 0.18501
 H565 H 1.18381 0.62415 0.31994
 H566 H 1.21694 0.66878 0.39539
 H567 H 1.15880 0.70507 0.35447
 H568 H 1.14321 0.58739 0.22642
 H569 H 1.10787 0.55727 0.11780
 H570 H 1.06685 0.61314 0.17085
 C571 C 0.48475 0.14821 0.28943
 C572 C 0.51178 0.14888 0.30321
 C573 C 0.53307 0.16958 0.35458
 C574 C 0.52709 0.18992 0.39254
 C575 C 0.50045 0.19059 0.37954
 C576 C 0.47879 0.16950 0.32927
 O577 O 0.46885 0.12644 0.23844
 C578 C 0.48478 0.11283 0.21852
 C579 C 0.51179 0.12602 0.25746
 C580 C 0.53301 0.11622 0.24778
 C581 C 0.52583 0.09226 0.20017
 C582 C 0.49967 0.07818 0.15904
 C583 C 0.47882 0.08850 0.16712
 H584 H 0.55374 0.16974 0.36439
 H585 H 0.54333 0.20564 0.43133
 H586 H 0.45833 0.16971 0.32000
 H587 H 0.55370 0.12660 0.27825
 H588 H 0.53883 0.08213 0.19812
 H589 H 0.45832 0.07779 0.13633
 C590 C 0.65792 0.51629 0.31373
 C591 C 0.64138 0.48741 0.28444
 C592 C 0.64852 0.46464 0.30185
 C593 C 0.67248 0.47096 0.34912
 C594 C 0.69019 0.49931 0.37871
 C595 C 0.68312 0.52269 0.36309
 O596 O 0.64626 0.53330 0.28807
 C597 C 0.62251 0.51628 0.24283
 C598 C 0.61850 0.48740 0.23869
 C599 C 0.59513 0.46464 0.19495
 C600 C 0.57559 0.47114 0.15452
 C601 C 0.57871 0.50045 0.15834
 C602 C 0.60203 0.52266 0.20108
 H603 H 0.63555 0.44256 0.27878
 H604 H 0.67791 0.45358 0.36197
 H605 H 0.69624 0.54457 0.38641
 H606 H 0.59244 0.44256 0.19255
 H607 H 0.55786 0.45372 0.12172
 H608 H 0.60432 0.54455 0.20271
 C609 C 0.84612 0.35974 0.32455
 C610 C 0.85549 0.34497 0.27608
 C611 C 0.84271 0.31315 0.27837
 C612 C 0.82034 0.29603 0.32976
 C613 C 0.80969 0.30904 0.37821
 C614 C 0.82246 0.34145 0.37817
 O615 O 0.86200 0.38983 0.31016
 C616 C 0.88153 0.39517 0.25359
 C617 C 0.87838 0.36786 0.23036
 C618 C 0.89608 0.36653 0.17155
 C619 C 0.91731 0.39271 0.13637
 C620 C 0.92203 0.42088 0.15806
 C621 C 0.90370 0.42273 0.21585
 H622 H 0.85020 0.30220 0.24066
 H623 H 0.81053 0.27176 0.33119
 H624 H 0.81481 0.35207 0.41600
 H625 H 0.89331 0.34531 0.15443
 H626 H 0.93077 0.39202 0.09142
 H627 H 0.90678 0.44399 0.23228
   
