data_POSCAR
  _audit_creation_date              2014-09-24
  _audit_creation_method            'ToBaCCo'
  _symmetry_space_group_name_H-M    'P1'
  _symmetry_Int_Tables_number       1
  _symmetry_cell_setting            triclinic
  loop_
  _symmetry_equiv_pos_as_xyz
 x,y,z
_cell_length_a 61.5794
_cell_length_b 61.5341
_cell_length_c 21.4423
_cell_angle_alpha 89.970900
_cell_angle_beta 89.927500
_cell_angle_gamma 119.845200
loop_
  _atom_site_label
  _atom_site_type_symbol
  _atom_site_fract_x
  _atom_site_fract_y
  _atom_site_fract_z
O1 O 0.21701 0.47599 0.43818
 O2 O 0.25735 0.47209 0.55870
 O3 O 0.21700 0.47600 0.55927
 O4 O 0.25718 0.47206 0.43830
 O5 O 0.28049 0.51326 0.43784
 O6 O 0.24018 0.51720 0.55944
 O7 O 0.28053 0.51326 0.55912
 O8 O 0.24025 0.51719 0.43778
 Cu9 Cu 0.23476 0.46993 0.49874
 Cu10 Cu 0.26268 0.51938 0.49861
 C11 C 0.22168 0.49721 0.41728
 C12 C 0.27610 0.49196 0.57908
 C13 C 0.22155 0.49721 0.57983
 C14 C 0.27584 0.49195 0.41770
 O15 O 0.51978 -0.26032 0.44571
 O16 O 0.51323 -0.22070 0.56268
 O17 O 0.51525 -0.26200 0.56568
 O18 O 0.51479 -0.22058 0.44176
 O19 O 0.47371 -0.24390 0.43533
 O20 O 0.47413 -0.28453 0.56023
 O21 O 0.47208 -0.24322 0.55691
 O22 O 0.47875 -0.28365 0.43924
 Cu23 Cu 0.51983 -0.23858 0.50450
 Cu24 Cu 0.47056 -0.26612 0.49724
 C25 C 0.50055 -0.27899 0.42286
 C26 C 0.49175 -0.22492 0.57978
 C27 C 0.49468 -0.28052 0.58404
 C28 C 0.49409 -0.22512 0.41760
 O29 O 1.26600 0.78131 0.44147
 O30 O 1.22103 0.74121 0.56088
 O31 O 1.26573 0.78065 0.56239
 O32 O 1.22170 0.74145 0.44040
 O33 O 1.23889 0.71742 0.44002
 O34 O 1.28294 0.75665 0.56271
 O35 O 1.23813 0.71715 0.56150
 O36 O 1.28334 0.75742 0.44105
 Cu37 Cu 1.24196 0.76359 0.50132
 Cu38 Cu 1.26255 0.73475 0.50133
 C39 C 1.28245 0.77641 0.42099
 C40 C 1.22158 0.72211 0.58129
 C41 C 1.28198 0.77553 0.58317
 C42 C 1.22257 0.72255 0.41975
 O43 O 0.78478 0.52192 0.44128
 O44 O 0.74517 0.52637 0.56281
 O45 O 0.78506 0.52184 0.56226
 O46 O 0.74464 0.52627 0.44269
 O47 O 0.72100 0.48510 0.44245
 O48 O 0.76151 0.48068 0.56278
 O49 O 0.72159 0.48524 0.56353
 O50 O 0.76122 0.48076 0.44111
 Cu51 Cu 0.76734 0.52820 0.50213
 Cu52 Cu 0.73899 0.47880 0.50239
 C53 C 0.77999 0.50064 0.42074
 C54 C 0.72635 0.50662 0.58353
 C55 C 0.78030 0.50056 0.58294
 C56 C 0.72564 0.50650 0.42290
 O57 O 0.46709 0.21146 0.55328
 O58 O 0.46780 0.25515 0.43694
 O59 O 0.47186 0.21501 0.43277
 O60 O 0.46639 0.25363 0.55698
 O61 O 0.50757 0.27534 0.56392
 O62 O 0.51300 0.23735 0.43926
 O63 O 0.50896 0.27767 0.44300
 O64 O 0.50821 0.23316 0.56025
 Cu65 Cu 0.46421 0.23154 0.49446
 Cu66 Cu 0.51356 0.25804 0.50229
 C67 C 0.48735 0.21448 0.57649
 C68 C 0.48829 0.27409 0.42069
 C69 C 0.49345 0.21960 0.41484
 C70 C 0.48616 0.27141 0.58094
 O71 O 0.74024 0.21887 0.44660
 O72 O 0.78337 0.26321 0.56000
 O73 O 0.74041 0.22176 0.56709
 O74 O 0.78040 0.26304 0.43961
 O75 O 0.75835 0.28236 0.43969
 O76 O 0.71952 0.24227 0.56755
 O77 O 0.76262 0.28380 0.56093
 O78 O 0.71808 0.23807 0.44635
 Cu79 Cu 0.76321 0.23977 0.50324
 Cu80 Cu 0.73751 0.26359 0.50360
 C81 C 0.72161 0.22042 0.42753
 C82 C 0.78087 0.28125 0.57971
 C83 C 0.72298 0.22501 0.58889
 C84 C 0.77624 0.27996 0.41826
 O85 O 0.96878 0.52415 -0.10756
 O86 O 0.94012 0.49111 -0.04869
 C87 C 0.94596 0.50810 -0.09149
 O88 O 1.03322 0.47519 -0.11142
 O89 O 1.06268 0.50890 -0.05623
 C90 C 1.05624 0.49113 -0.09690
 O91 O 0.96349 0.44643 -0.11395
 O92 O 0.93773 0.45378 -0.05101
 C93 C 0.94149 0.44212 -0.09633
 O94 O 1.03898 0.55744 -0.10560
 O95 O 1.06541 0.54779 -0.05267
 C96 C 1.06120 0.56133 -0.09179
 Zr97 Zr 1.00324 0.52906 -0.07429
 O98 O 1.00529 0.53159 -0.17279
 O99 O 1.00275 0.56318 -0.06892
 Zr100 Zr 0.99944 0.47240 -0.07932
 O101 O 1.00172 0.47483 -0.17785
 O102 O 0.99415 0.43570 -0.08266
 O103 O 0.97893 0.49084 -0.08773
 O104 O 1.02296 0.51050 -0.08958
 O105 O 1.04058 0.55611 0.11036
 O106 O 1.06636 0.54712 0.05186
 C107 C 1.06261 0.56030 0.09324
 O108 O 0.96563 0.44443 0.11342
 O109 O 0.93845 0.45260 0.05887
 C110 C 0.94326 0.43991 0.09970
 O111 O 1.03518 0.47414 0.10443
 O112 O 1.06375 0.50846 0.04906
 C113 C 1.05796 0.49036 0.08845
 O114 O 0.97048 0.52271 0.12079
 O115 O 0.94103 0.49043 0.06176
 C116 C 0.94746 0.50692 0.10585
 Zr117 Zr 1.00440 0.52779 0.08255
 O118 O 1.00798 0.52812 0.18078
 O119 O 1.00387 0.56191 0.08608
 Zr120 Zr 1.00078 0.47128 0.07764
 O121 O 1.00419 0.47184 0.17597
 O122 O 0.99585 0.43469 0.07437
 Zr123 Zr 0.96445 0.48328 0.00394
 Zr124 Zr 1.03924 0.51681 -0.00046
 O125 O 1.02438 0.50919 0.09047
 O126 O 0.98031 0.48939 0.09381
 O127 O 1.02649 0.54287 0.00321
 O128 O 0.97802 0.45795 0.00008
 O129 O 0.98218 0.52267 0.00569
 O130 O 1.02219 0.47743 -0.00251
 H131 H 1.03394 0.51575 -0.12686
 H132 H 0.96590 0.43972 -0.00064
 H133 H 1.03591 0.51399 0.12652
 H134 H 0.97171 0.53073 0.00734
 H135 H 1.00733 0.43553 -0.05673
 H136 H 1.00968 0.43546 0.04913
 H137 H 0.99068 0.47419 0.19381
 H138 H 0.99347 0.51265 0.19705
 H139 H 1.01759 0.57407 0.05911
 H140 H 1.01826 0.57557 -0.04763
 H141 H 0.99132 0.51585 -0.18949
 H142 H 0.98796 0.47738 -0.19272
 O143 O 0.55629 0.52098 0.11378
 O144 O 0.55032 0.48759 0.05388
 C145 C 0.56163 0.50377 0.09796
 O146 O 0.44437 0.48090 0.10318
 O147 O 0.45245 0.51581 0.04691
 C148 C 0.43942 0.49831 0.08703
 O149 O 0.48095 0.44692 0.11122
 O150 O 0.51451 0.45239 0.05271
 C151 C 0.49792 0.44116 0.09602
 O152 O 0.52363 0.55902 0.10738
 O153 O 0.48987 0.55260 0.04869
 C154 C 0.50668 0.56463 0.09081
 Zr155 Zr 0.52932 0.52936 0.07661
 O156 O 0.52827 0.53131 0.17501
 O157 O 0.56516 0.56192 0.07482
 Zr158 Zr 0.47389 0.47487 0.07454
 O159 O 0.47108 0.47541 0.17286
 O160 O 0.44083 0.43943 0.07123
 O161 O 0.51232 0.49065 0.08869
 O162 O 0.49096 0.51320 0.08629
 O163 O 0.52611 0.56007 -0.11003
 O164 O 0.49100 0.55337 -0.05646
 C165 C 0.50915 0.56592 -0.09551
 O166 O 0.48198 0.44688 -0.11662
 O167 O 0.51482 0.45215 -0.05570
 C168 C 0.49847 0.44078 -0.09943
 O169 O 0.44586 0.48120 -0.11415
 O170 O 0.45340 0.51612 -0.05888
 C171 C 0.44080 0.49866 -0.09925
 O172 O 0.55809 0.52148 -0.11438
 O173 O 0.55096 0.48761 -0.05467
 C174 C 0.56299 0.50404 -0.09784
 Zr175 Zr 0.53054 0.52964 -0.08057
 O176 O 0.53012 0.53154 -0.17910
 O177 O 0.56650 0.56200 -0.07872
 Zr178 Zr 0.47516 0.47529 -0.08277
 O179 O 0.47487 0.47713 -0.18136
 O180 O 0.44195 0.43997 -0.08389
 Zr181 Zr 0.52027 0.48312 -0.00181
 Zr182 Zr 0.48406 0.52154 -0.00436
 O183 O 0.49240 0.51372 -0.09394
 O184 O 0.51376 0.49099 -0.09331
 O185 O 0.52326 0.54526 -0.00254
 O186 O 0.48114 0.45992 -0.00347
 O187 O 0.54452 0.52212 -0.00110
 O188 O 0.45936 0.48249 -0.00500
 H189 H 0.48517 0.51873 0.12296
 H190 H 0.47395 0.44150 -0.00328
 H191 H 0.48725 0.51968 -0.13096
 H192 H 0.56283 0.52869 -0.00030
 H193 H 0.42805 0.44152 0.04834
 H194 H 0.42935 0.44144 -0.05839
 H195 H 0.49054 0.47822 -0.19671
 H196 H 0.52760 0.51542 -0.19543
 H197 H 0.56529 0.57471 -0.05308
 H198 H 0.56343 0.57537 0.05423
 H199 H 0.52422 0.51470 0.19152
 H200 H 0.48713 0.47820 0.19029
 O201 O 0.51975 -0.03321 0.11921
 O202 O 0.48714 -0.06146 0.05875
 C203 C 0.50337 -0.05593 0.10325
 O204 O 0.47656 0.03627 0.10136
 O205 O 0.51232 0.06411 0.04941
 C206 C 0.49374 0.05887 0.08683
 O207 O 0.44410 -0.03346 0.11007
 O208 O 0.45078 -0.06147 0.05474
 C209 C 0.43879 -0.05610 0.09616
 O210 O 0.55591 0.03701 0.11381
 O211 O 0.54956 0.06417 0.05376
 C212 C 0.56131 0.05947 0.09698
 Zr213 Zr 0.52713 0.00158 0.08189
 O214 O 0.52744 0.00434 0.18030
 O215 O 0.56023 -0.00086 0.08398
 Zr216 Zr 0.47219 0.00130 0.07455
 O217 O 0.47204 0.00452 0.17285
 O218 O 0.43640 -0.00183 0.06941
 O219 O 0.48841 -0.02090 0.09120
 O220 O 0.51018 0.02319 0.08935
 O221 O 0.55952 0.03582 -0.10343
 O222 O 0.55147 0.06383 -0.05252
 C223 C 0.56479 0.05848 -0.08984
 O224 O 0.44702 -0.03424 -0.11691
 O225 O 0.45204 -0.06198 -0.05551
 C226 C 0.44101 -0.05682 -0.10002
 O227 O 0.48007 0.03588 -0.11431
 O228 O 0.51388 0.06362 -0.05652
 C229 C 0.49693 0.05849 -0.09859
 O230 O 0.52258 -0.03399 -0.10938
 O231 O 0.48845 -0.06170 -0.05211
 C232 C 0.50546 -0.05656 -0.09435
 Zr233 Zr 0.52937 0.00097 -0.07453
 O234 O 0.53299 0.00358 -0.17279
 O235 O 0.56210 -0.00201 -0.06763
 Zr236 Zr 0.47454 0.00087 -0.08200
 O237 O 0.47767 0.00317 -0.18046
 O238 O 0.43893 -0.00184 -0.08675
 Zr239 Zr 0.48213 -0.03646 0.00091
 Zr240 Zr 0.51937 0.03868 -0.00092
 O241 O 0.51293 0.02265 -0.09041
 O242 O 0.49101 -0.02150 -0.09013
 O243 O 0.54368 0.02384 0.00370
 O244 O 0.45854 -0.02085 -0.00365
 O245 O 0.52127 -0.02073 0.00465
 O246 O 0.48023 0.02357 -0.00478
 H247 H 0.51502 0.03444 0.12601
 H248 H 0.44016 -0.03217 -0.00471
 H249 H 0.51907 0.03373 -0.12749
 H250 H 0.52834 -0.03209 0.00617
 H251 H 0.43802 0.01230 0.04390
 H252 H 0.43977 0.01213 -0.06208
 H253 H 0.47847 -0.01163 -0.19533
 H254 H 0.51668 -0.00893 -0.19051
 H255 H 0.57460 0.01255 -0.04349
 H256 H 0.57367 0.01433 0.06358
 H257 H 0.51107 -0.00906 0.19573
 H258 H 0.47416 -0.00910 0.19090
 C259 C 1.21050 0.52169 0.34307
 C260 C 1.19421 0.52293 0.29961
 C261 C 1.17227 0.50122 0.28198
 C262 C 1.16704 0.47804 0.30732
 C263 C 1.18333 0.47674 0.35047
 C264 C 1.20511 0.49858 0.36936
 N265 N 1.15513 0.50324 0.24044
 N266 N 1.13396 0.48435 0.22755
 C267 C 1.11604 0.48588 0.18806
 C268 C 1.09212 0.46492 0.18331
 C269 C 1.07343 0.46618 0.14953
 C270 C 1.07845 0.48846 0.11913
 C271 C 1.10281 0.50924 0.12183
 C272 C 1.12145 0.50804 0.15641
 H273 H 1.22715 0.53884 0.35653
 H274 H 1.19846 0.54092 0.28048
 H275 H 1.15023 0.46095 0.29440
 H276 H 1.17863 0.45864 0.36975
 H277 H 1.08777 0.44774 0.20738
 H278 H 1.05491 0.44980 0.14806
 H279 H 1.10722 0.52668 0.09903
 H280 H 1.13987 0.52447 0.15926
 C281 C 0.52781 0.70951 0.36618
 C282 C 0.53102 0.69327 0.32679
 C283 C 0.51036 0.67279 0.29982
 C284 C 0.48619 0.66872 0.31241
 C285 C 0.48285 0.68475 0.35257
 C286 C 0.50364 0.70533 0.38039
 N287 N 0.51438 0.65604 0.26155
 N288 N 0.49702 0.63912 0.22871
 C289 C 0.50073 0.62175 0.19222
 C290 C 0.48200 0.60612 0.15064
 C291 C 0.48438 0.58816 0.11631
 C292 C 0.50548 0.58518 0.12371
 C293 C 0.52449 0.60116 0.16499
 C294 C 0.52221 0.61940 0.19876
 H295 H 0.54434 0.72506 0.38643
 H296 H 0.54972 0.69658 0.31749
 H297 H 0.46989 0.65290 0.29220
 H298 H 0.46398 0.68088 0.36211
 H299 H 0.46536 0.60772 0.14525
 H300 H 0.46935 0.57620 0.08505
 H301 H 0.54096 0.59938 0.17173
 H302 H 0.53692 0.63126 0.23089
 C303 C 0.31884 -0.21190 0.34853
 C304 C 0.33693 -0.19510 0.30673
 C305 C 0.33755 -0.17275 0.29044
 C306 C 0.31944 -0.16765 0.31542
 C307 C 0.30133 -0.18443 0.35679
 C308 C 0.30095 -0.20663 0.37440
 N309 N 0.35704 -0.15517 0.25022
 N310 N 0.35958 -0.13367 0.23964
 C311 C 0.37894 -0.11517 0.20101
 C312 C 0.38152 -0.09131 0.19841
 C313 C 0.40076 -0.07229 0.16370
 C314 C 0.41773 -0.07685 0.13020
 C315 C 0.41474 -0.10107 0.13151
 C316 C 0.39556 -0.12008 0.16703
 H317 H 0.31903 -0.22885 0.36107
 H318 H 0.35076 -0.19927 0.28784
 H319 H 0.31941 -0.15057 0.30351
 H320 H 0.28785 -0.17978 0.37575
 H321 H 0.36879 -0.08734 0.22430
 H322 H 0.40239 -0.05393 0.16339
 H323 H 0.42750 -0.10516 0.10618
 H324 H 0.39385 -0.13846 0.16827
 C325 C 0.79118 0.47608 0.34677
 C326 C 0.80813 0.47459 0.30589
 C327 C 0.83108 0.49593 0.29228
 C328 C 0.83660 0.51905 0.31841
 C329 C 0.81964 0.52062 0.35874
 C330 C 0.79691 0.49910 0.37415
 N331 N 0.84886 0.49364 0.25375
 N332 N 0.87114 0.51175 0.24762
 C333 C 0.88960 0.51016 0.21048
 C334 C 0.91426 0.52999 0.21260
 C335 C 0.93305 0.52893 0.17861
 C336 C 0.92739 0.50803 0.14116
 C337 C 0.90248 0.48825 0.13828
 C338 C 0.88372 0.48923 0.17298
 H339 H 0.77380 0.45918 0.35760
 H340 H 0.80364 0.45666 0.28594
 H341 H 0.85415 0.53587 0.30833
 H342 H 0.82463 0.53863 0.37898
 H343 H 0.91896 0.54622 0.24129
 H344 H 0.95199 0.54456 0.18154
 H345 H 0.89753 0.47190 0.10987
 H346 H 0.86473 0.47369 0.17056
 C347 C 0.46470 0.29088 0.36274
 C348 C 0.46389 0.30885 0.32478
 C349 C 0.48589 0.32842 0.29972
 C350 C 0.50894 0.32982 0.31267
 C351 C 0.50983 0.31195 0.35137
 C352 C 0.48769 0.29236 0.37702
 N353 N 0.48428 0.34698 0.26309
 N354 N 0.50282 0.36375 0.23274
 C355 C 0.50092 0.38259 0.19798
 C356 C 0.52034 0.39799 0.15745
 C357 C 0.51915 0.41673 0.12349
 C358 C 0.49864 0.42069 0.13042
 C359 C 0.47915 0.40517 0.17127
 C360 C 0.48020 0.38619 0.20452
 H361 H 0.44731 0.27611 0.38201
 H362 H 0.44606 0.30766 0.31522
 H363 H 0.52622 0.34492 0.29392
 H364 H 0.52779 0.31358 0.36162
 H365 H 0.53640 0.39540 0.15207
 H366 H 0.53444 0.42827 0.09229
 H367 H 0.46308 0.40768 0.17758
 H368 H 0.46499 0.37456 0.23587
 C369 C 0.70559 0.17929 0.37403
 C370 C 0.68851 0.16020 0.33555
 C371 C 0.66950 0.16239 0.30603
 C372 C 0.66772 0.18409 0.31530
 C373 C 0.68473 0.20320 0.35454
 C374 C 0.70382 0.20094 0.38439
 N375 N 0.65198 0.14197 0.26849
 N376 N 0.63571 0.14325 0.23466
 C377 C 0.61797 0.12224 0.19890
 C378 C 0.60249 0.12551 0.15693
 C379 C 0.58452 0.10523 0.12267
 C380 C 0.58149 0.08115 0.13046
 C381 C 0.59722 0.07795 0.17235
 C382 C 0.61539 0.09834 0.20608
 H383 H 0.71998 0.17686 0.39650
 H384 H 0.69000 0.14355 0.32888
 H385 H 0.65305 0.18609 0.29304
 H386 H 0.68291 0.21965 0.36164
 H387 H 0.60428 0.14381 0.15102
 H388 H 0.57270 0.10837 0.09091
 H389 H 0.59539 0.05968 0.17941
 H390 H 0.62712 0.09532 0.23841
 C391 C 0.46338 0.17540 -0.36569
 C392 C 0.46241 0.15692 -0.32625
 C393 C 0.48429 0.15934 -0.30043
 C394 C 0.50739 0.18076 -0.31384
 C395 C 0.50848 0.19927 -0.35383
 C396 C 0.48647 0.19672 -0.38083
 N397 N 0.48254 0.13931 -0.26286
 N398 N 0.50118 0.14085 -0.23345
 C399 C 0.49925 0.12022 -0.19808
 C400 C 0.51946 0.12386 -0.16111
 C401 C 0.51850 0.10389 -0.12777
 C402 C 0.49734 0.07979 -0.13158
 C403 C 0.47697 0.07623 -0.16844
 C404 C 0.47786 0.09629 -0.20121
 H405 H 0.44597 0.17265 -0.38522
 H406 H 0.44453 0.14047 -0.31625
 H407 H 0.52459 0.18297 -0.29442
 H408 H 0.52660 0.21537 -0.36410
 H409 H 0.53606 0.14219 -0.15845
 H410 H 0.53455 0.10727 -0.09994
 H411 H 0.46038 0.05793 -0.17214
 H412 H 0.46200 0.09300 -0.22968
 C413 C 0.71435 0.53220 -0.35412
 C414 C 0.69733 0.53415 -0.31471
 C415 C 0.67633 0.51263 -0.29227
 C416 C 0.67267 0.48895 -0.30867
 C417 C 0.68949 0.48691 -0.34866
 C418 C 0.71041 0.50853 -0.37270
 N419 N 0.65841 0.51533 -0.25552
 N420 N 0.64024 0.49680 -0.22847
 C421 C 0.62168 0.49940 -0.19438
 C422 C 0.60456 0.47944 -0.15753
 C423 C 0.58574 0.48111 -0.12524
 C424 C 0.58348 0.50270 -0.13029
 C425 C 0.60074 0.52275 -0.16736
 C426 C 0.61979 0.52119 -0.19887
 H427 H 0.73020 0.54932 -0.37132
 H428 H 0.70031 0.55249 -0.30234
 H429 H 0.65649 0.47203 -0.29192
 H430 H 0.68582 0.46836 -0.36150
 H431 H 0.60579 0.46253 -0.15394
 H432 H 0.57276 0.46535 -0.09709
 H433 H 0.59956 0.53965 -0.17202
 H434 H 0.63274 0.53681 -0.22749
 C435 C 0.81951 0.29586 -0.36164
 C436 C 0.83819 0.31337 -0.32312
 C437 C 0.83659 0.33366 -0.29974
 C438 C 0.81581 0.33628 -0.31494
 C439 C 0.79707 0.31884 -0.35437
 C440 C 0.79878 0.29845 -0.37863
 N441 N 0.85690 0.35164 -0.26277
 N442 N 0.85619 0.36904 -0.23247
 C443 C 0.87754 0.38691 -0.19786
 C444 C 0.87495 0.40278 -0.15559
 C445 C 0.89561 0.42040 -0.12156
 C446 C 0.91936 0.42278 -0.13029
 C447 C 0.92187 0.40680 -0.17284
 C448 C 0.90116 0.38896 -0.20602
 H449 H 0.82169 0.28052 -0.37901
 H450 H 0.85416 0.31124 -0.31174
 H451 H 0.81431 0.35198 -0.29744
 H452 H 0.78145 0.32150 -0.36623
 H453 H 0.85687 0.40138 -0.14877
 H454 H 0.89300 0.43231 -0.08888
 H455 H 0.93984 0.40804 -0.18055
 H456 H 0.90369 0.37696 -0.23860
 C457 C 0.46676 -0.21236 -0.35088
 C458 C 0.46556 -0.19549 -0.30900
 C459 C 0.48746 -0.17392 -0.29014
 C460 C 0.51069 -0.16971 -0.31254
 C461 C 0.51193 -0.18654 -0.35385
 C462 C 0.49000 -0.20793 -0.37409
 N463 N 0.48583 -0.15615 -0.24993
 N464 N 0.50510 -0.13505 -0.23857
 C465 C 0.50476 -0.11630 -0.19978
 C466 C 0.52623 -0.09266 -0.19774
 C467 C 0.52653 -0.07339 -0.16281
 C468 C 0.50536 -0.07754 -0.12839
 C469 C 0.48397 -0.10157 -0.12904
 C470 C 0.48359 -0.12079 -0.16491
 H471 H 0.44955 -0.22869 -0.36546
 H472 H 0.44752 -0.19899 -0.29208
 H473 H 0.52793 -0.15329 -0.29856
 H474 H 0.53015 -0.18255 -0.37064
 H475 H 0.54267 -0.08903 -0.22429
 H476 H 0.54336 -0.05519 -0.16305
 H477 H 0.46740 -0.10535 -0.10295
 H478 H 0.46681 -0.13901 -0.16563
 C479 C 0.28869 0.46677 -0.35856
 C480 C 0.30578 0.46512 -0.31880
 C481 C 0.32652 0.48680 -0.29619
 C482 C 0.32988 0.51034 -0.31308
 C483 C 0.31299 0.51209 -0.35342
 C484 C 0.29227 0.49031 -0.37736
 N485 N 0.34443 0.48444 -0.25855
 N486 N 0.36229 0.50315 -0.23128
 C487 C 0.38092 0.50106 -0.19611
 C488 C 0.39807 0.52157 -0.16091
 C489 C 0.41719 0.52059 -0.12833
 C490 C 0.41973 0.49911 -0.13123
 C491 C 0.40232 0.47842 -0.16623
 C492 C 0.38300 0.47933 -0.19817
 H493 H 0.27301 0.44954 -0.37569
 H494 H 0.30301 0.44687 -0.30615
 H495 H 0.34586 0.52740 -0.29630
 H496 H 0.31642 0.53055 -0.36641
 H497 H 0.39671 0.53844 -0.15910
 H498 H 0.43028 0.53686 -0.10188
 H499 H 0.40369 0.46158 -0.16919
 H500 H 0.37000 0.46325 -0.22532
 C501 C 1.18402 0.71060 -0.35656
 C502 C 1.16510 0.69397 -0.31651
 C503 C 1.16531 0.67284 -0.29340
 C504 C 1.18495 0.66860 -0.31029
 C505 C 1.20379 0.68505 -0.35097
 C506 C 1.20348 0.70620 -0.37522
 N507 N 1.14490 0.65555 -0.25501
 N508 N 1.14509 0.63738 -0.22710
 C509 C 1.12422 0.61946 -0.19095
 C510 C 1.12686 0.60184 -0.15550
 C511 C 1.10656 0.58336 -0.12200
 C512 C 1.08305 0.58196 -0.12410
 C513 C 1.08052 0.59987 -0.15926
 C514 C 1.10094 0.61854 -0.19216
 H515 H 1.18302 0.72662 -0.37393
 H516 H 1.15006 0.69744 -0.30389
 H517 H 1.18547 0.65232 -0.29313
 H518 H 1.21841 0.68099 -0.36389
 H519 H 1.14466 0.60229 -0.15433
 H520 H 1.10918 0.56984 -0.09559
 H521 H 1.06270 0.59935 -0.16178
 H522 H 1.09839 0.63190 -0.21951
 C523 C 0.79133 0.47603 -0.34230
 C524 C 0.80789 0.47465 -0.29990
 C525 C 0.83055 0.49609 -0.28493
 C526 C 0.83621 0.51917 -0.31182
 C527 C 0.81964 0.52063 -0.35374
 C528 C 0.79713 0.49904 -0.37005
 N529 N 0.84785 0.49397 -0.24410
 N530 N 0.86976 0.51239 -0.23523
 C531 C 0.88791 0.51110 -0.19609
 C532 C 0.91238 0.53131 -0.19649
 C533 C 0.93107 0.53044 -0.16173
 C534 C 0.92557 0.50935 -0.12501
 C535 C 0.90074 0.48933 -0.12305
 C536 C 0.88206 0.49009 -0.15873
 H537 H 0.77412 0.45908 -0.35374
 H538 H 0.80327 0.45674 -0.27954
 H539 H 0.85355 0.53607 -0.30093
 H540 H 0.82469 0.53863 -0.37420
 H541 H 0.91709 0.54762 -0.22494
 H542 H 0.94991 0.54628 -0.16406
 H543 H 0.89587 0.47290 -0.09504
 H544 H 0.86319 0.47428 -0.15746
 C545 C 0.46166 0.28810 -0.36344
 C546 C 0.46064 0.30584 -0.32466
 C547 C 0.48216 0.32395 -0.29414
 C548 C 0.50474 0.32378 -0.30170
 C549 C 0.50585 0.30619 -0.34087
 C550 C 0.48439 0.28836 -0.37285
 N551 N 0.48088 0.34300 -0.25858
 N552 N 0.49924 0.35907 -0.22641
 C553 C 0.49826 0.37883 -0.19345
 C554 C 0.51777 0.39397 -0.15284
 C555 C 0.51775 0.41392 -0.12162
 C556 C 0.49834 0.41933 -0.13133
 C557 C 0.47871 0.40399 -0.17204
 C558 C 0.47861 0.38388 -0.20258
 H559 H 0.44484 0.27470 -0.38760
 H560 H 0.44313 0.30581 -0.31932
 H561 H 0.52165 0.33761 -0.27871
 H562 H 0.52364 0.30688 -0.34706
 H563 H 0.53305 0.39031 -0.14547
 H564 H 0.53305 0.42522 -0.09034
 H565 H 0.46338 0.40749 -0.18036
 H566 H 0.46336 0.37251 -0.23396
 C567 C 0.68892 0.21382 -0.33239
 C568 C 0.67153 0.19718 -0.28933
 C569 C 0.67074 0.17464 -0.27500
 C570 C 0.68823 0.16925 -0.30287
 C571 C 0.70579 0.18599 -0.34570
 C572 C 0.70604 0.20827 -0.36173
 N573 N 0.65129 0.15709 -0.23468
 N574 N 0.64828 0.13542 -0.22398
 C575 C 0.62827 0.11723 -0.18611
 C576 C 0.62514 0.09319 -0.18178
 C577 C 0.60481 0.07432 -0.14944
 C578 C 0.58719 0.07919 -0.12021
 C579 C 0.59081 0.10363 -0.12275
 C580 C 0.61114 0.12250 -0.15575
 H581 H 0.68867 0.23087 -0.34346
 H582 H 0.65818 0.20157 -0.26822
 H583 H 0.68804 0.15194 -0.29250
 H584 H 0.71869 0.18115 -0.36753
 H585 H 0.63822 0.08891 -0.20486
 H586 H 0.60275 0.05579 -0.14798
 H587 H 0.57761 0.10798 -0.10072
 H588 H 0.61321 0.14100 -0.15837
 C589 C 1.21009 0.52149 -0.34593
 C590 C 1.19333 0.52269 -0.30386
 C591 C 1.17083 0.50108 -0.28864
 C592 C 1.16549 0.47803 -0.31491
 C593 C 1.18228 0.47676 -0.35652
 C594 C 1.20463 0.49851 -0.37313
 N595 N 1.15336 0.50308 -0.24826
 N596 N 1.13161 0.48452 -0.23835
 C597 C 1.11356 0.48618 -0.19956
 C598 C 1.08911 0.46591 -0.19803
 C599 C 1.07055 0.46738 -0.16392
 C600 C 1.07626 0.48914 -0.13003
 C601 C 1.10104 0.50921 -0.13009
 C602 C 1.11954 0.50781 -0.16488
 H603 H 1.22716 0.53856 -0.35769
 H604 H 1.19764 0.54057 -0.28399
 H605 H 1.14823 0.46104 -0.30387
 H606 H 1.17749 0.45878 -0.37664
 H607 H 1.08430 0.44914 -0.22457
 H608 H 1.05170 0.45152 -0.16446
 H609 H 1.10603 0.52621 -0.10447
 H610 H 1.13836 0.52370 -0.16526
 C611 C 0.47186 0.68298 -0.34816
 C612 C 0.47177 0.66582 -0.30538
 C613 C 0.49427 0.66811 -0.28426
 C614 C 0.51706 0.68840 -0.30467
 C615 C 0.51723 0.70582 -0.34686
 C616 C 0.49461 0.70309 -0.37019
 N617 N 0.49343 0.64902 -0.24443
 N618 N 0.51296 0.64784 -0.23131
 C619 C 0.51203 0.62825 -0.19333
 C620 C 0.53328 0.62563 -0.18970
 C621 C 0.53248 0.60559 -0.15708
 C622 C 0.51041 0.58796 -0.12670
 C623 C 0.48933 0.59114 -0.12853
 C624 C 0.49006 0.61102 -0.16195
 H625 H 0.45402 0.68025 -0.36447
 H626 H 0.45410 0.65027 -0.28988
 H627 H 0.53472 0.69063 -0.28867
 H628 H 0.53513 0.72104 -0.36233
 H629 H 0.55032 0.63881 -0.21361
 H630 H 0.54910 0.60379 -0.15614
 H631 H 0.47206 0.57791 -0.10558
 H632 H 0.47340 0.61273 -0.16389
 C633 C 0.31738 -0.21390 -0.34224
 C634 C 0.33551 -0.19736 -0.30032
 C635 C 0.33700 -0.17450 -0.28555
 C636 C 0.31960 -0.16868 -0.31186
 C637 C 0.30141 -0.18522 -0.35326
 C638 C 0.30028 -0.20788 -0.36963
 N639 N 0.35679 -0.15702 -0.24603
 N640 N 0.36055 -0.13488 -0.23876
 C641 C 0.38028 -0.11627 -0.20142
 C642 C 0.38448 -0.09181 -0.20405
 C643 C 0.40411 -0.07267 -0.17090
 C644 C 0.41989 -0.07767 -0.13355
 C645 C 0.41526 -0.10245 -0.12950
 C646 C 0.39569 -0.12164 -0.16366
 H647 H 0.31697 -0.23123 -0.35380
 H648 H 0.34878 -0.20209 -0.28042
 H649 H 0.32023 -0.15119 -0.30110
 H650 H 0.28856 -0.17998 -0.37347
 H651 H 0.37266 -0.08750 -0.23280
 H652 H 0.40689 -0.05390 -0.17463
 H653 H 0.42692 -0.10694 -0.10072
 H654 H 0.39264 -0.14052 -0.16070
 C655 C 0.47121 -0.21421 0.33801
 C656 C 0.47023 -0.19725 0.29628
 C657 C 0.49139 -0.17380 0.28596
 C658 C 0.51393 -0.16783 0.31624
 C659 C 0.51501 -0.18484 0.35755
 C660 C 0.49355 -0.20804 0.36975
 N661 N 0.48932 -0.15601 0.24689
 N662 N 0.50711 -0.13349 0.24262
 C663 C 0.50568 -0.11488 0.20565
 C664 C 0.52542 -0.09024 0.20910
 C665 C 0.52456 -0.07122 0.17585
 C666 C 0.50391 -0.07652 0.13776
 C667 C 0.48419 -0.10143 0.13342
 C668 C 0.48498 -0.12049 0.16746
 H669 H 0.45438 -0.23199 0.34615
 H670 H 0.45276 -0.20211 0.27318
 H671 H 0.53062 -0.14987 0.30881
 H672 H 0.53248 -0.17953 0.38118
 H673 H 0.54145 -0.08571 0.23832
 H674 H 0.54019 -0.05232 0.17993
 H675 H 0.46809 -0.10613 0.10435
 H676 H 0.46949 -0.13948 0.16409
 C677 C 0.29022 0.46676 0.35677
 C678 C 0.30698 0.46512 0.31577
 C679 C 0.32618 0.48668 0.28781
 C680 C 0.32830 0.51006 0.30064
 C681 C 0.31167 0.51178 0.34211
 C682 C 0.29258 0.49015 0.37103
 N683 N 0.34394 0.48444 0.24923
 N684 N 0.36078 0.50283 0.21852
 C685 C 0.37925 0.50065 0.18271
 C686 C 0.39587 0.52080 0.14550
 C687 C 0.41502 0.51980 0.11290
 C688 C 0.41805 0.49866 0.11773
 C689 C 0.40103 0.47826 0.15434
 C690 C 0.38175 0.47920 0.18636
 H691 H 0.27578 0.44976 0.37840
 H692 H 0.30523 0.44702 0.30639
 H693 H 0.34309 0.52702 0.27973
 H694 H 0.31395 0.53004 0.35209
 H695 H 0.39416 0.53746 0.14244
 H696 H 0.42778 0.53583 0.08512
 H697 H 0.40277 0.46166 0.15886
 H698 H 0.36916 0.46338 0.21499
 C699 C 1.18337 0.70907 0.35829
 C700 C 1.16476 0.69240 0.31781
 C701 C 1.16646 0.67261 0.29089
 C702 C 1.18732 0.66985 0.30410
 C703 C 1.20587 0.68640 0.34503
 C704 C 1.20395 0.70604 0.37308
 N705 N 1.14620 0.65495 0.25302
 N706 N 1.14707 0.63750 0.22328
 C707 C 1.12611 0.61924 0.18819
 C708 C 1.12890 0.60201 0.15139
 C709 C 1.10844 0.58320 0.11914
 C710 C 1.08469 0.58112 0.12398
 C711 C 1.08205 0.59870 0.16030
 C712 C 1.10257 0.61763 0.19191
 H713 H 1.18129 0.72396 0.37917
 H714 H 1.14875 0.69467 0.30814
 H715 H 1.18899 0.65461 0.28398
 H716 H 1.22151 0.68360 0.35539
 H717 H 1.14694 0.60302 0.14821
 H718 H 1.11112 0.56999 0.09153
 H719 H 1.06407 0.59773 0.16473
 H720 H 1.09989 0.63069 0.22017
 C721 C 0.51966 0.20949 0.34386
 C722 C 0.52209 0.19382 0.30061
 C723 C 0.50093 0.17223 0.27902
 C724 C 0.47710 0.16681 0.30007
 C725 C 0.47462 0.18251 0.34309
 C726 C 0.49590 0.20386 0.36614
 N727 N 0.50412 0.15555 0.23825
 N728 N 0.48559 0.13477 0.22128
 C729 C 0.48808 0.11710 0.18288
 C730 C 0.46688 0.09373 0.17294
 C731 C 0.46870 0.07510 0.14033
 C732 C 0.49184 0.07960 0.11630
 C733 C 0.51301 0.10346 0.12406
 C734 C 0.51120 0.12207 0.15755
 H735 H 0.53643 0.22583 0.36053
 H736 H 0.54055 0.19821 0.28488
 H737 H 0.46041 0.15024 0.28406
 H738 H 0.45607 0.17764 0.35923
 H739 H 0.44898 0.08971 0.19211
 H740 H 0.45199 0.05700 0.13468
 H741 H 0.53107 0.10744 0.10613
 H742 H 0.52786 0.14007 0.16457
 C743 C 0.71029 0.53198 0.36691
 C744 C 0.69289 0.53384 0.32880
 C745 C 0.67344 0.51248 0.30090
 C746 C 0.67172 0.48909 0.31095
 C747 C 0.68898 0.48715 0.34965
 C748 C 0.70835 0.50857 0.37843
 N749 N 0.65525 0.51498 0.26468
 N750 N 0.63855 0.49700 0.23277
 C751 C 0.61989 0.49943 0.19849
 C752 C 0.60452 0.48046 0.15693
 C753 C 0.58585 0.48203 0.12364
 C754 C 0.58189 0.50248 0.13220
 C755 C 0.59738 0.52152 0.17406
 C756 C 0.61629 0.52009 0.20666
 H757 H 0.72489 0.54882 0.38860
 H758 H 0.69438 0.55195 0.32154
 H759 H 0.65678 0.47229 0.29002
 H760 H 0.68697 0.46886 0.35764
 H761 H 0.60707 0.46443 0.15023
 H762 H 0.57440 0.46711 0.09157
 H763 H 0.59492 0.53757 0.18162
 H764 H 0.62787 0.53495 0.23877
 C765 C 0.78670 0.31463 0.34163
 C766 C 0.80320 0.33271 0.29955
 C767 C 0.82606 0.33427 0.28488
 C768 C 0.83188 0.31684 0.31131
 C769 C 0.81532 0.29862 0.35308
 C770 C 0.79273 0.29759 0.36956
 N771 N 0.84349 0.35428 0.24557
 N772 N 0.86544 0.35787 0.23621
 C773 C 0.88387 0.37803 0.19924
 C774 C 0.90790 0.38117 0.19689
 C775 C 0.92693 0.40114 0.16420
 C776 C 0.92232 0.41847 0.13249
 C777 C 0.89795 0.41504 0.13358
 C778 C 0.87884 0.39500 0.16711
 H779 H 0.76941 0.31429 0.35313
 H780 H 0.79845 0.34598 0.27956
 H781 H 0.84941 0.31756 0.30061
 H782 H 0.82053 0.28582 0.37378
 H783 H 0.91199 0.36823 0.22141
 H784 H 0.94536 0.40298 0.16397
 H785 H 0.89380 0.42801 0.10954
 H786 H 0.86031 0.39290 0.16831
   
