data_POSCAR
  _audit_creation_date              2014-09-24
  _audit_creation_method            'ToBaCCo'
  _symmetry_space_group_name_H-M    'P1'
  _symmetry_Int_Tables_number       1
  _symmetry_cell_setting            triclinic
  loop_
  _symmetry_equiv_pos_as_xyz
 x,y,z
_cell_length_a 27.0789
_cell_length_b 26.8847
_cell_length_c 27.1663
_cell_angle_alpha 89.879400
_cell_angle_beta 90.090500
_cell_angle_gamma 90.000200
loop_
  _atom_site_label
  _atom_site_type_symbol
  _atom_site_fract_x
  _atom_site_fract_y
  _atom_site_fract_z
C1 C 0.52255 1.00194 -0.50124
 C2 C 0.47233 1.00241 -0.50068
 C3 C 0.44200 1.00490 -0.54634
 C4 C 0.44361 1.00019 -0.45416
 C5 C 0.55253 1.00355 -0.45543
 C6 C 0.55163 0.99942 -0.54749
 C7 C 0.40542 1.04146 -0.55001
 C8 C 0.37173 1.04136 -0.58884
 C9 C 0.37324 1.00441 -0.62595
 C10 C 0.41202 0.96886 -0.62279
 C11 C 0.44532 0.96880 -0.58325
 C12 C 0.44632 1.03815 -0.41882
 C13 C 0.41378 1.03834 -0.37872
 C14 C 0.37774 1.00092 -0.37377
 C15 C 0.37636 0.96225 -0.40841
 C16 C 0.40884 0.96198 -0.44817
 C17 C 0.55036 0.96536 -0.42017
 C18 C 0.58374 0.96467 -0.38069
 C19 C 0.62012 1.00182 -0.37627
 C20 C 0.62117 1.04060 -0.41096
 C21 C 0.58783 1.04137 -0.45011
 C22 C 0.58620 0.96094 -0.55287
 C23 C 0.61893 0.96072 -0.59240
 C24 C 0.61797 0.99910 -0.62749
 C25 C 0.58218 1.03683 -0.62316
 C26 C 0.54943 1.03718 -0.58322
 H27 H 0.40246 1.07006 -0.52212
 H28 H 0.34577 1.07186 -0.58998
 H29 H 0.41506 0.93831 -0.64836
 H30 H 0.47244 0.93931 -0.58049
 H31 H 0.47225 1.06847 -0.42329
 H32 H 0.41545 1.06878 -0.35274
 H33 H 0.40607 0.93247 -0.47513
 H34 H 0.52410 0.93526 -0.42418
 H35 H 0.58233 0.93412 -0.35470
 H36 H 0.64821 1.07014 -0.40808
 H37 H 0.59023 1.07102 -0.47706
 H38 H 0.58858 0.93154 -0.52563
 H39 H 0.64551 0.93076 -0.59521
 H40 H 0.58086 1.06705 -0.64955
 H41 H 0.52366 1.06770 -0.57926
 H42 H 0.34960 0.93250 -0.40512
 C43 C -0.50198 1.52319 -0.00624
 C44 C -0.50398 1.47297 -0.00680
 C45 C -0.55078 1.44574 -0.00119
 C46 C -0.45916 1.44211 -0.00953
 C47 C -0.45479 1.55052 -0.01021
 C48 C -0.54672 1.55418 -0.00057
 C49 C -0.56830 1.43388 0.04589
 C50 C -0.60907 1.40252 0.05128
 C51 C -0.63301 1.38319 0.00960
 C52 C -0.61635 1.39663 -0.03751
 C53 C -0.57510 1.42725 -0.04284
 C54 C -0.43530 1.42764 0.03397
 C55 C -0.39538 1.39497 0.03230
 C56 C -0.37964 1.37524 -0.01282
 C57 C -0.40380 1.38952 -0.05642
 C58 C -0.44325 1.42303 -0.05478
 C59 C -0.44646 1.58109 -0.05120
 C60 C -0.40593 1.61314 -0.05224
 C61 C -0.37319 1.61525 -0.01213
 C62 C -0.38079 1.58344 0.02828
 C63 C -0.42155 1.55162 0.02940
 C64 C -0.58400 1.55433 -0.03635
 C65 C -0.62326 1.58791 -0.03313
 C66 C -0.62549 1.62306 0.00547
 C67 C -0.58836 1.62120 0.04204
 C68 C -0.54959 1.58734 0.03890
 H69 H -0.54940 1.44756 0.07831
 H70 H -0.62139 1.39259 0.08792
 H71 H -0.63390 1.38162 -0.07011
 H72 H -0.56140 1.43561 -0.07937
 H73 H -0.44818 1.44100 0.06928
 H74 H -0.37773 1.38386 0.06640
 H75 H -0.46201 1.43331 -0.08854
 H76 H -0.47225 1.58118 -0.08173
 H77 H -0.40068 1.63700 -0.08397
 H78 H -0.35659 1.58496 0.06002
 H79 H -0.42844 1.52973 0.06214
 H80 H -0.58162 1.52996 -0.06792
 H81 H -0.64970 1.58829 -0.06301
 H82 H -0.58927 1.64531 0.07384
 H83 H -0.52122 1.58749 0.06707
 H84 H -0.39217 1.37465 -0.09156
 C85 C 0.00573 0.47371 0.50164
 C86 C 0.00644 0.52406 0.49889
 C87 C 0.01015 0.55596 0.54328
 C88 C 0.00639 0.55049 0.45107
 C89 C 0.00601 0.44170 0.45716
 C90 C 0.00485 0.44734 0.54945
 C91 C -0.02768 0.55761 0.57838
 C92 C -0.02531 0.59120 0.61766
 C93 C 0.01449 0.62503 0.62210
 C94 C 0.05275 0.62203 0.58691
 C95 C 0.05053 0.58806 0.54826
 C96 C -0.03659 0.57492 0.43534
 C97 C -0.03565 0.60542 0.39365
 C98 C 0.00865 0.61299 0.36797
 C99 C 0.05143 0.58758 0.38308
 C100 C 0.05017 0.55605 0.42411
 C101 C 0.04347 0.40630 0.45128
 C102 C 0.04209 0.37258 0.41239
 C103 C 0.00311 0.37320 0.37779
 C104 C -0.03372 0.41015 0.38321
 C105 C -0.03250 0.44353 0.42269
 C106 C 0.04885 0.43321 0.57265
 C107 C 0.04783 0.40100 0.61313
 C108 C 0.00255 0.38338 0.63224
 C109 C -0.04159 0.40052 0.61019
 C110 C -0.04029 0.43119 0.56867
 H111 H -0.05996 0.53422 0.57443
 H112 H -0.05648 0.59250 0.64247
 H113 H 0.08540 0.64506 0.58948
 H114 H 0.08040 0.58715 0.52183
 H115 H -0.07050 0.57132 0.45614
 H116 H -0.06888 0.62508 0.38287
 H117 H 0.08372 0.53776 0.43615
 H118 H 0.07400 0.40455 0.47695
 H119 H 0.07272 0.34699 0.40904
 H120 H -0.06533 0.41178 0.35889
 H121 H -0.06250 0.46974 0.42719
 H122 H 0.08405 0.44564 0.55829
 H123 H 0.08269 0.39056 0.62975
 H124 H -0.07731 0.38737 0.62236
 H125 H -0.07456 0.44123 0.55058
 H126 H 0.08597 0.59307 0.36377
 O127 O -0.12805 0.99863 -0.06785
 O128 O 0.12594 1.00103 -0.06494
 O129 O -0.00210 1.06803 -0.12662
 O130 O 0.00342 0.93321 -0.12741
 O131 O 0.00240 0.87185 -0.06789
 O132 O -0.00600 1.12751 -0.06556
 O133 O 0.06689 1.00010 -0.12615
 O134 O -0.06791 1.00080 -0.12780
 Zr135 Zr -0.00082 1.00013 -0.08721
 O136 O 0.04417 0.95529 -0.04486
 O137 O -0.04684 1.04386 -0.04525
 C138 C -0.11373 1.00001 -0.11336
 C139 C 0.11241 1.00046 -0.11079
 C140 C -0.00490 1.11364 -0.11124
 C141 C 0.00445 0.88705 -0.11328
 H142 H 0.06357 1.06727 -0.06422
 O143 O 0.04253 1.04527 -0.04394
 H144 H -0.06542 0.93249 -0.06710
 O145 O -0.04500 0.95399 -0.04572
 O146 O 0.12456 1.00104 0.06739
 O147 O -0.12944 0.99551 0.06452
 O148 O 0.06250 1.12807 0.00308
 O149 O 0.06705 0.87238 -0.00237
 O150 O -0.06609 0.87013 -0.00010
 O151 O -0.07011 1.12563 -0.00133
 O152 O -0.00195 1.06557 0.12707
 O153 O -0.00213 0.93048 0.12611
 O154 O -0.00347 1.12632 0.06700
 O155 O -0.00213 0.87048 0.06540
 O156 O 0.12364 1.06843 0.00517
 O157 O -0.12971 1.06447 -0.00389
 O158 O -0.12745 0.92951 -0.00073
 O159 O 0.12601 0.93420 -0.00070
 O160 O 0.06433 1.00087 0.12735
 O161 O -0.07036 0.99548 0.12575
 Zr162 Zr 0.08474 1.00061 0.00081
 Zr163 Zr -0.08842 0.99762 -0.00126
 Zr164 Zr -0.00322 1.08622 0.00044
 Zr165 Zr -0.00033 0.91175 -0.00094
 Zr166 Zr -0.00261 0.99831 0.08679
 O167 O -0.04624 0.95278 0.04379
 O168 O 0.04178 1.04450 0.04552
 C169 C 0.11010 1.00134 0.11288
 C170 C -0.11590 0.99487 0.11036
 C171 C 0.10828 1.11413 0.00569
 C172 C 0.11241 0.88795 -0.00200
 C173 C -0.11200 0.88376 0.00005
 C174 C -0.11553 1.11064 -0.00345
 C175 C -0.00245 1.11166 0.11252
 C176 C -0.00219 0.88465 0.11108
 H177 H -0.06912 1.06351 0.06490
 O178 O -0.04747 1.04269 0.04415
 H179 H 0.06422 0.93346 0.06532
 O180 O 0.04291 0.95462 0.04442
 C181 C 0.26521 0.99988 0.26111
 C182 C 0.25490 1.02318 0.30642
 C183 C 0.29110 1.02506 0.34348
 C184 C 0.33824 1.00285 0.33738
 C185 C 0.34712 0.97838 0.29219
 C186 C 0.31158 0.97719 0.25487
 C187 C 0.22588 0.99975 0.22208
 C188 C 0.23376 0.98070 0.17449
 C189 C 0.19611 0.98153 0.13942
 C190 C 0.14938 1.00090 0.15080
 C191 C 0.14105 1.02011 0.19804
 C192 C 0.17910 1.02038 0.23337
 C193 C 0.20809 1.04375 0.31501
 C194 C 0.17086 1.04184 0.27953
 H195 H 0.19992 1.06129 0.34995
 H196 H 0.13524 1.05798 0.28818
 H197 H 0.28051 1.04140 0.37825
 H198 H 0.38252 0.96199 0.28369
 H199 H 0.20355 0.96644 0.10324
 H200 H 0.10530 1.03584 0.20696
 H201 H 0.32134 0.95821 0.22134
 H202 H 0.26880 0.96543 0.16334
 C203 C -0.27248 0.99969 0.25708
 C204 C -0.25879 0.99004 0.30647
 C205 C -0.29469 0.99019 0.34369
 C206 C -0.34441 1.00032 0.33280
 C207 C -0.35777 1.01110 0.28408
 C208 C -0.32240 1.01068 0.24662
 C209 C -0.23304 0.99804 0.21830
 C210 C -0.24305 1.00499 0.16788
 C211 C -0.20509 1.00338 0.13324
 C212 C -0.15594 0.99494 0.14768
 C213 C -0.14562 0.98748 0.19784
 C214 C -0.18368 0.98863 0.23301
 C215 C -0.20937 0.98049 0.31855
 C216 C -0.17260 0.98016 0.28269
 H217 H -0.19888 0.97333 0.35642
 H218 H -0.13490 0.97280 0.29403
 H219 H -0.28381 0.98287 0.38145
 H220 H -0.39588 1.01898 0.27478
 H221 H -0.21443 1.00932 0.09489
 H222 H -0.10797 0.98054 0.20960
 H223 H -0.33497 1.01905 0.20986
 H224 H -0.27990 1.01162 0.15431
 C225 C -0.26985 0.99770 -0.26102
 C226 C -0.25629 1.00892 -0.31007
 C227 C -0.29231 1.00995 -0.34730
 C228 C -0.34204 0.99965 -0.33669
 C229 C -0.35527 0.98761 -0.28827
 C230 C -0.31979 0.98670 -0.25086
 C231 C -0.23033 0.99797 -0.22219
 C232 C -0.24026 0.98894 -0.17213
 C233 C -0.20238 0.98979 -0.13733
 C234 C -0.15334 0.99954 -0.15122
 C235 C -0.14299 1.00863 -0.20107
 C236 C -0.18104 1.00822 -0.23644
 C237 C -0.20689 1.01894 -0.32176
 C238 C -0.17007 1.01836 -0.28581
 H239 H -0.19649 1.02734 -0.35938
 H240 H -0.13243 1.02629 -0.29682
 H241 H -0.28152 1.01833 -0.38483
 H242 H -0.39339 0.97969 -0.27911
 H243 H -0.21175 0.98245 -0.09926
 H244 H -0.10541 1.01651 -0.21237
 H245 H -0.33235 0.97739 -0.21435
 H246 H -0.27699 0.98130 -0.15890
 C247 C 0.26848 1.00416 -0.25806
 C248 C 0.25469 0.99330 -0.30714
 C249 C 0.29049 0.99258 -0.34444
 C250 C 0.34026 1.00286 -0.33395
 C251 C 0.35374 1.01467 -0.28554
 C252 C 0.31845 1.01523 -0.24800
 C253 C 0.22912 1.00348 -0.21916
 C254 C 0.23915 1.01201 -0.16900
 C255 C 0.20131 1.01079 -0.13419
 C256 C 0.15227 1.00123 -0.14825
 C257 C 0.14189 0.99258 -0.19816
 C258 C 0.17980 0.99331 -0.23347
 C259 C 0.20528 0.98329 -0.31882
 C260 C 0.16863 0.98356 -0.28285
 H261 H 0.19471 0.97517 -0.35646
 H262 H 0.13095 0.97566 -0.29386
 H263 H 0.27949 0.98445 -0.38197
 H264 H 0.39190 1.02264 -0.27651
 H265 H 0.21063 1.01771 -0.09603
 H266 H 0.10431 0.98477 -0.20961
 H267 H 0.33113 1.02433 -0.21148
 H268 H 0.27595 1.01949 -0.15575
 C269 C 0.25599 1.26949 0.01789
 C270 C 0.24720 1.31329 -0.00981
 C271 C 0.28316 1.35082 -0.01166
 C272 C 0.32730 1.34598 0.01489
 C273 C 0.33476 1.30392 0.04448
 C274 C 0.29965 1.26602 0.04598
 C275 C 0.21841 1.22870 0.01596
 C276 C 0.22627 1.18160 0.03748
 C277 C 0.19055 1.14443 0.03378
 C278 C 0.14594 1.15347 0.00917
 C279 C 0.13771 1.20014 -0.01247
 C280 C 0.17394 1.23735 -0.01015
 C281 C 0.20272 1.31928 -0.03550
 C282 C 0.16647 1.28248 -0.03491
 H283 H 0.19572 1.35306 -0.05621
 H284 H 0.13255 1.28898 -0.05516
 H285 H 0.27698 1.38380 -0.03389
 H286 H 0.36865 1.29962 0.06531
 H287 H 0.19764 1.10859 0.05070
 H288 H 0.10362 1.20700 -0.03238
 H289 H 0.30755 1.23436 0.06911
 H290 H 0.25998 1.17238 0.05660
 C291 C 0.26573 0.73761 0.00523
 C292 C 0.25484 0.69061 -0.01531
 C293 C 0.29071 0.65285 -0.01518
 C294 C 0.33753 0.66044 0.00645
 C295 C 0.34706 0.70700 0.02832
 C296 C 0.31198 0.74483 0.02764
 C297 C 0.22723 0.77749 0.00287
 C298 C 0.23607 0.82656 0.01871
 C299 C 0.19891 0.86229 0.01637
 C300 C 0.15187 0.85010 -0.00153
 C301 C 0.14284 0.80156 -0.01823
 C302 C 0.18030 0.76548 -0.01678
 C303 C 0.20798 0.68134 -0.03526
 C304 C 0.17128 0.71776 -0.03534
 H305 H 0.19935 0.64520 -0.05065
 H306 H 0.13547 0.70859 -0.05073
 H307 H 0.28105 0.61691 -0.03034
 H308 H 0.38269 0.71575 0.04411
 H309 H 0.20691 0.89949 0.02939
 H310 H 0.10682 0.79201 -0.03292
 H311 H 0.32206 0.77948 0.04483
 H312 H 0.27142 0.83835 0.03276
 C313 C -0.25802 0.72565 -0.00536
 C314 C -0.30596 0.73855 -0.02184
 C315 C -0.34292 0.70213 -0.02478
 C316 C -0.33319 0.65278 -0.01099
 C317 C -0.28582 0.64003 0.00554
 C318 C -0.24860 0.67585 0.00821
 C319 C -0.21961 0.76573 -0.00280
 C320 C -0.17056 0.75657 0.01197
 C321 C -0.13603 0.79501 0.01321
 C322 C -0.14942 0.84370 0.00010
 C323 C -0.19828 0.85336 -0.01424
 C324 C -0.23322 0.81483 -0.01614
 C325 C -0.31696 0.78778 -0.03478
 C326 C -0.28144 0.82513 -0.03180
 H327 H -0.35373 0.79765 -0.04726
 H328 H -0.29183 0.86266 -0.04216
 H329 H -0.37976 0.71247 -0.03671
 H330 H -0.27748 0.60211 0.01623
 H331 H -0.09861 0.78647 0.02458
 H332 H -0.20898 0.89073 -0.02491
 H333 H -0.21295 0.66376 0.02125
 H334 H -0.15787 0.72003 0.02238
 C335 C -0.26315 1.26671 -0.00965
 C336 C -0.30797 1.25631 -0.03449
 C337 C -0.34520 1.29261 -0.03701
 C338 C -0.33899 1.33870 -0.01375
 C339 C -0.29484 1.34880 0.01112
 C340 C -0.25724 1.31349 0.01300
 C341 C -0.22441 1.22704 -0.00759
 C342 C -0.17778 1.23474 0.01406
 C343 C -0.14296 1.19672 0.01537
 C344 C -0.15361 1.14984 -0.00452
 C345 C -0.19988 1.14159 -0.02629
 C346 C -0.23503 1.18002 -0.02857
 C347 C -0.31580 1.20943 -0.05556
 C348 C -0.28034 1.17193 -0.05219
 H349 H -0.35020 1.20137 -0.07437
 H350 H -0.28839 1.13613 -0.06861
 H351 H -0.37975 1.28442 -0.05554
 H352 H -0.28952 1.38422 0.02934
 H353 H -0.10749 1.20405 0.03238
 H354 H -0.20809 1.10567 -0.04245
 H355 H -0.22434 1.32338 0.03308
 H356 H -0.16713 1.26988 0.02986
 C357 C -0.00286 1.26555 0.26244
 C358 C 0.01990 1.25396 0.30787
 C359 C 0.02205 1.28968 0.34544
 C360 C 0.00084 1.33734 0.33943
 C361 C -0.02301 1.34783 0.29443
 C362 C -0.02462 1.31276 0.25658
 C363 C -0.00330 1.22667 0.22288
 C364 C -0.02210 1.23557 0.17528
 C365 C -0.02155 1.19822 0.13971
 C366 C -0.00271 1.15085 0.15064
 C367 C 0.01628 1.14157 0.19785
 C368 C 0.01676 1.17920 0.23367
 C369 C 0.03981 1.20650 0.31595
 C370 C 0.03780 1.16978 0.27986
 H371 H 0.05697 1.19745 0.35091
 H372 H 0.05346 1.13359 0.28808
 H373 H 0.03842 1.27899 0.38027
 H374 H -0.03891 1.38400 0.28711
 H375 H -0.03643 1.20639 0.10355
 H376 H 0.03164 1.10531 0.20643
 H377 H -0.04315 1.32350 0.22305
 H378 H -0.03700 1.27117 0.16456
 C379 C -0.00394 1.27272 -0.25537
 C380 C 0.03522 1.27305 -0.28972
 C381 C 0.03843 1.31109 -0.32511
 C382 C 0.00131 1.34769 -0.32927
 C383 C -0.03832 1.34601 -0.29574
 C384 C -0.04065 1.30958 -0.25913
 C385 C -0.00544 1.23206 -0.21755
 C386 C -0.03939 1.23161 -0.17825
 C387 C -0.03914 1.19294 -0.14388
 C388 C -0.00587 1.15336 -0.14848
 C389 C 0.02822 1.15338 -0.18719
 C390 C 0.02956 1.19306 -0.22089
 C391 C 0.06993 1.23437 -0.28981
 C392 C 0.06648 1.19465 -0.25688
 H393 H 0.09964 1.23421 -0.31650
 H394 H 0.09370 1.16518 -0.25908
 H395 H 0.06825 1.30980 -0.35162
 H396 H -0.06720 1.37384 -0.29660
 H397 H -0.06526 1.19373 -0.11370
 H398 H 0.05490 1.12341 -0.18990
 H399 H -0.07203 1.31041 -0.23474
 H400 H -0.06571 1.26120 -0.17284
 C401 C 0.01547 0.73773 -0.26723
 C402 C -0.00794 0.69160 -0.25823
 C403 C -0.00847 0.65460 -0.29481
 C404 C 0.01541 0.66193 -0.34044
 C405 C 0.03992 0.70761 -0.34807
 C406 C 0.03983 0.74477 -0.31236
 C407 C 0.01361 0.77697 -0.22807
 C408 C 0.03227 0.82541 -0.23511
 C409 C 0.02916 0.86082 -0.19779
 C410 C 0.00786 0.84889 -0.15226
 C411 C -0.01079 0.80074 -0.14474
 C412 C -0.00881 0.76508 -0.18250
 C413 C -0.03017 0.68242 -0.21253
 C414 C -0.03000 0.71809 -0.17528
 H415 H -0.04772 0.64692 -0.20530
 H416 H -0.04744 0.70900 -0.14053
 H417 H -0.02590 0.61932 -0.28651
 H418 H 0.05754 0.71627 -0.38275
 H419 H 0.04387 0.89769 -0.20452
 H420 H -0.02801 0.79138 -0.10992
 H421 H 0.05904 0.77878 -0.32105
 H422 H 0.04886 0.83703 -0.26930
 C423 C 0.01038 0.72858 0.25832
 C424 C -0.02069 0.68667 0.25225
 C425 C -0.02095 0.64869 0.28792
 C426 C 0.01098 0.65087 0.32855
 C427 C 0.04374 0.69092 0.33296
 C428 C 0.04338 0.72947 0.29849
 C429 C 0.00721 0.76989 0.22131
 C430 C 0.03162 0.81575 0.22753
 C431 C 0.02757 0.85312 0.19205
 C432 C -0.00022 0.84552 0.14917
 C433 C -0.02532 0.80033 0.14284
 C434 C -0.02282 0.76305 0.17914
 C435 C -0.05084 0.68280 0.21045
 C436 C -0.05099 0.71962 0.17412
 H437 H -0.07419 0.65046 0.20540
 H438 H -0.07441 0.71452 0.14213
 H439 H -0.04576 0.61726 0.28407
 H440 H 0.06876 0.69305 0.36405
 H441 H 0.04709 0.88783 0.19771
 H442 H -0.04771 0.79471 0.11018
 H443 H 0.06925 0.75947 0.30388
 H444 H 0.05348 0.82374 0.25978
   
