data_POSCAR
  _audit_creation_date              2014-09-24
  _audit_creation_method            'ToBaCCo'
  _symmetry_space_group_name_H-M    'P1'
  _symmetry_Int_Tables_number       1
  _symmetry_cell_setting            triclinic
  loop_
  _symmetry_equiv_pos_as_xyz
 x,y,z
_cell_length_a 33.5241
_cell_length_b 33.5234
_cell_length_c 33.5237
_cell_angle_alpha 89.397600
_cell_angle_beta 90.094400
_cell_angle_gamma 89.536300
loop_
  _atom_site_label
  _atom_site_type_symbol
  _atom_site_fract_x
  _atom_site_fract_y
  _atom_site_fract_z
O1 O 0.55422 0.49955 0.03283
 O2 O 0.44424 0.49932 0.03273
 O3 O 0.49978 0.44454 0.03257
 O4 O 0.49868 0.55432 0.03298
 O5 O 0.49862 0.55525 -0.03300
 O6 O 0.49972 0.44548 -0.03341
 O7 O 0.44418 0.50026 -0.03323
 O8 O 0.55415 0.50048 -0.03314
 Cu9 Cu 0.49924 0.49934 0.03943
 Cu10 Cu 0.49916 0.50046 -0.03985
 C11 C 0.57275 0.50006 -0.00014
 C12 C 0.42563 0.49975 -0.00027
 C13 C 0.49993 0.42649 -0.00049
 C14 C 0.49848 0.57331 0.00005
 O15 O -0.03274 0.55611 0.49969
 O16 O -0.03286 0.44613 0.50008
 O17 O -0.03273 0.50073 0.55478
 O18 O -0.03286 0.50150 0.44499
 O19 O 0.03311 0.50090 0.44503
 O20 O 0.03325 0.50013 0.55481
 O21 O 0.03310 0.44552 0.50012
 O22 O 0.03322 0.55551 0.49973
 Cu23 Cu -0.03945 0.50118 0.49988
 Cu24 Cu 0.03983 0.50046 0.49992
 C25 C 0.00026 0.57439 0.49965
 C26 C 0.00010 0.42726 0.50017
 C27 C 0.00029 0.50029 0.57331
 C28 C 0.00010 0.50133 0.42649
 O29 O 0.49986 0.03287 0.55539
 O30 O 0.49966 0.03264 0.44541
 O31 O 0.44488 0.03262 0.50042
 O32 O 0.55465 0.03288 0.50038
 O33 O 0.55534 -0.03310 0.50121
 O34 O 0.44557 -0.03336 0.50126
 O35 O 0.50035 -0.03333 0.44624
 O36 O 0.50054 -0.03310 0.55622
 Cu37 Cu 0.49970 0.03941 0.50032
 Cu38 Cu 0.50052 -0.03988 0.50132
 C39 C 0.50021 -0.00007 0.57438
 C40 C 0.49999 -0.00038 0.42726
 C41 C 0.42670 -0.00041 0.50086
 C42 C 0.57352 -0.00007 0.50076
 C43 C 0.50159 0.10338 -0.07533
 C44 C 0.49965 0.07470 -0.10411
 C45 C 0.49886 0.03817 -0.08432
 N46 N 0.50019 0.04375 -0.04448
 C47 C 0.50182 0.08352 -0.03880
 C48 C 0.49819 0.00075 -0.10335
 C49 C 0.49886 -0.03666 -0.08326
 C50 C 0.50415 -0.07297 -0.10213
 C51 C 0.50384 -0.10199 -0.07294
 C52 C 0.49836 -0.08283 -0.03683
 N53 N 0.49467 -0.04305 -0.04350
 C54 C 0.49703 -0.10271 0.00066
 C55 C 0.49746 -0.08373 0.03813
 C56 C 0.49769 -0.10358 0.07466
 C57 C 0.49971 -0.07491 0.10344
 C58 C 0.50053 -0.03838 0.08365
 N59 N 0.49915 -0.04395 0.04381
 C60 C 0.50126 -0.00096 0.10268
 C61 C 0.50055 0.03645 0.08260
 C62 C 0.49526 0.07275 0.10147
 C63 C 0.49549 0.10177 0.07229
 C64 C 0.50094 0.08262 0.03616
 N65 N 0.50468 0.04284 0.04283
 C66 C 0.50220 0.10251 -0.00133
 H67 H 0.50245 0.13525 -0.08074
 H68 H 0.49912 0.08018 -0.13598
 H69 H 0.51255 0.02175 0.02188
 H70 H 0.50836 -0.07808 -0.13367
 H71 H 0.50776 -0.13364 -0.07782
 H72 H 0.49679 -0.13545 0.08007
 H73 H 0.50026 -0.08039 0.13531
 H74 H 0.49154 0.13342 0.07718
 H75 H 0.48678 -0.02195 -0.02256
 H76 H 0.49109 0.07786 0.13302
 C77 C -0.07408 0.49874 0.89669
 C78 C -0.10302 0.50071 0.92546
 C79 C -0.08344 0.50139 0.96192
 N80 N -0.04356 0.49997 0.95622
 C81 C -0.03766 0.49839 0.91642
 C82 C -0.10268 0.50205 0.99940
 C83 C -0.08279 0.50129 1.03675
 C84 C -0.10183 0.49599 1.07312
 C85 C -0.07281 0.49618 1.10204
 C86 C -0.03661 0.50160 1.08276
 N87 N -0.04308 0.50537 1.04300
 C88 C 0.00077 0.50282 1.10250
 C89 C 0.03834 0.50233 1.08339
 C90 C 0.07476 0.50199 1.10312
 C91 C 0.10370 0.49995 1.07435
 C92 C 0.08412 0.49922 1.03790
 N93 N 0.04424 0.50068 1.04360
 C94 C 0.10336 0.49849 1.00041
 C95 C 0.08348 0.49930 0.96306
 C96 C 0.10253 0.50460 0.92670
 C97 C 0.07350 0.50448 0.89778
 C98 C 0.03730 0.49909 0.91706
 N99 N 0.04376 0.49528 0.95681
 C100 C -0.00009 0.49794 0.89731
 H101 H -0.07932 0.49793 0.86484
 H102 H -0.13487 0.50132 0.92009
 H103 H 0.02274 0.48742 0.97799
 H104 H -0.13339 0.49184 1.07835
 H105 H -0.07784 0.49222 1.13372
 H106 H 0.08000 0.50284 1.13497
 H107 H 0.13555 0.49932 1.07972
 H108 H 0.07854 0.50846 0.86611
 H109 H -0.02207 0.51324 1.02182
 H110 H 0.13409 0.50871 0.92148
 C111 C 0.10356 -0.07517 0.50142
 C112 C 0.07483 -0.10397 0.49948
 C113 C 0.03831 -0.08423 0.49893
 N114 N 0.04393 -0.04440 0.50040
 C115 C 0.08373 -0.03868 0.50189
 C116 C 0.00086 -0.10332 0.49835
 C117 C -0.03652 -0.08331 0.49934
 C118 C -0.07275 -0.10233 0.50477
 C119 C -0.10175 -0.07320 0.50481
 C120 C -0.08266 -0.03696 0.49940
 N121 N -0.04295 -0.04349 0.49541
 C122 C -0.10253 0.00053 0.49838
 C123 C -0.08352 0.03802 0.49879
 C124 C -0.10334 0.07451 0.49926
 C125 C -0.07461 0.10331 0.50113
 C126 C -0.03809 0.08357 0.50163
 N127 N -0.04371 0.04375 0.50021
 C128 C -0.00064 0.10266 0.50213
 C129 C 0.03675 0.08265 0.50119
 C130 C 0.07298 0.10166 0.49575
 C131 C 0.10198 0.07252 0.49579
 C132 C 0.08288 0.03629 0.50125
 N133 N 0.04317 0.04283 0.50519
 C134 C 0.10275 -0.00119 0.50234
 H135 H 0.13543 -0.08054 0.50213
 H136 H 0.08028 -0.13582 0.49879
 H137 H 0.02217 0.02174 0.51313
 H138 H -0.07782 -0.13396 0.50884
 H139 H -0.13335 -0.07820 0.50891
 H140 H -0.13522 0.07988 0.49860
 H141 H -0.08005 0.13516 0.50179
 H142 H 0.13358 0.07752 0.49171
 H143 H -0.02196 -0.02238 0.48750
 H144 H 0.07805 0.13328 0.49163
 C145 C -0.30558 0.50066 0.99994
 N146 N -0.28458 0.46590 1.00008
 N147 N -0.24482 0.46615 1.00005
 C148 C -0.22483 0.50117 0.99989
 N149 N -0.24583 0.53593 0.99975
 N150 N -0.28559 0.53568 0.99977
 C151 C -0.34843 0.50040 0.99992
 C152 C -0.38441 0.50022 0.99990
 C153 C -0.18200 0.50145 0.99978
 C154 C -0.14601 0.50171 0.99964
 C155 C 0.30627 0.49938 0.99973
 N156 N 0.28619 0.46441 1.00040
 N157 N 0.24643 0.46425 1.00048
 C158 C 0.22552 0.49907 0.99987
 N159 N 0.24559 0.53404 0.99919
 N160 N 0.28536 0.53419 0.99912
 C161 C 0.34912 0.49953 0.99970
 C162 C 0.38511 0.49965 0.99971
 C163 C 0.18268 0.49890 1.00002
 C164 C 0.14669 0.49873 1.00017
 C165 C 0.00043 -0.30624 0.49923
 N166 N -0.03442 -0.28540 0.49985
 N167 N -0.03435 -0.24563 0.49969
 C168 C 0.00058 -0.22548 0.49892
 N169 N 0.03542 -0.24632 0.49831
 N170 N 0.03535 -0.28609 0.49846
 C171 C 0.00034 -0.34909 0.49939
 C172 C 0.00029 -0.38509 0.49951
 C173 C 0.00066 -0.18265 0.49874
 C174 C 0.00074 -0.14665 0.49857
 C175 C -0.00012 0.30558 0.50074
 N176 N 0.03471 0.28472 0.50016
 N177 N 0.03462 0.24495 0.50040
 C178 C -0.00032 0.22482 0.50123
 N179 N -0.03515 0.24568 0.50181
 N180 N -0.03506 0.28545 0.50157
 C181 C -0.00002 0.34843 0.50052
 C182 C 0.00004 0.38442 0.50035
 C183 C -0.00042 0.18199 0.50153
 C184 C -0.00052 0.14599 0.50179
 C185 C 0.49989 0.00022 -0.30625
 N186 N 0.49904 0.03516 -0.28622
 N187 N 0.49877 0.03527 -0.24646
 C188 C 0.49934 0.00043 -0.22550
 N189 N 0.50019 -0.03451 -0.24553
 N190 N 0.50046 -0.03462 -0.28529
 C191 C 0.50007 0.00010 -0.34910
 C192 C 0.50017 0.00001 -0.38509
 C193 C 0.49897 0.00055 -0.18267
 C194 C 0.49864 0.00064 -0.14668
 C195 C 0.50011 -0.00060 0.30559
 N196 N 0.49948 0.03426 0.28467
 N197 N 0.49964 0.03420 0.24490
 C198 C 0.50044 -0.00073 0.22484
 N199 N 0.50107 -0.03558 0.24575
 N200 N 0.50091 -0.03552 0.28552
 C201 C 0.50002 -0.00053 0.34844
 C202 C 0.49998 -0.00046 0.38443
 C203 C 0.50069 -0.00080 0.18200
 C204 C 0.50093 -0.00086 0.14601
 C205 C 0.49771 -0.30528 0.00042
 N206 N 0.46273 -0.28471 0.00150
 N207 N 0.46256 -0.24496 0.00157
 C208 C 0.49735 -0.22462 0.00057
 N209 N 0.53232 -0.24519 -0.00051
 N210 N 0.53250 -0.28494 -0.00058
 C211 C 0.49791 -0.34803 0.00031
 C212 C 0.49814 -0.38396 0.00020
 C213 C 0.49718 -0.18189 0.00062
 C214 C 0.49709 -0.14595 0.00065
 C215 C 0.50094 0.30508 -0.00093
 N216 N 0.53597 0.28461 -0.00204
 N217 N 0.53626 0.24486 -0.00215
 C218 C 0.50153 0.22442 -0.00118
 N219 N 0.46650 0.24489 -0.00008
 N220 N 0.46621 0.28464 0.00004
 C221 C 0.50062 0.34783 -0.00078
 C222 C 0.50032 0.38376 -0.00065
 C223 C 0.50183 0.18168 -0.00126
 C224 C 0.50202 0.14574 -0.00131
 C225 C -0.30508 0.00017 0.50018
 N226 N -0.28428 -0.03470 0.50064
 N227 N -0.24454 -0.03464 0.50030
 C228 C -0.22443 0.00029 0.49948
 N229 N -0.24522 0.03516 0.49903
 N230 N -0.28496 0.03510 0.49937
 C231 C -0.34783 0.00010 0.50046
 C232 C -0.38375 0.00003 0.50063
 C233 C -0.18169 0.00036 0.49908
 C234 C -0.14576 0.00043 0.49875
 C235 C 0.30530 -0.00071 0.50124
 N236 N 0.28521 -0.03566 0.50214
 N237 N 0.24547 -0.03576 0.50234
 C238 C 0.22465 -0.00091 0.50165
 N239 N 0.24472 0.03404 0.50074
 N240 N 0.28447 0.03414 0.50055
 C241 C 0.34805 -0.00060 0.50107
 C242 C 0.38397 -0.00051 0.50095
 C243 C 0.18191 -0.00102 0.50186
 C244 C 0.14598 -0.00110 0.50207
 C245 C 0.00006 0.50201 1.30507
 N246 N 0.00076 0.53699 1.28442
 N247 N 0.00083 0.53718 1.24467
 C248 C 0.00021 0.50239 1.22441
 N249 N -0.00048 0.46741 1.24507
 N250 N -0.00056 0.46722 1.28482
 C251 C 0.00005 0.50180 1.34783
 C252 C 0.00006 0.50160 1.38376
 C253 C 0.00036 0.50258 1.18168
 C254 C 0.00053 0.50270 1.14574
 C255 C 0.00044 0.49934 0.69473
 N256 N 0.00101 0.53407 0.71509
 N257 N 0.00099 0.53376 0.75484
 C258 C 0.00040 0.49872 0.77539
 N259 N -0.00017 0.46399 0.75503
 N260 N -0.00015 0.46429 0.71528
 C261 C 0.00039 0.49968 0.65198
 C262 C 0.00034 0.49997 0.61605
 C263 C 0.00029 0.49840 0.81813
 C264 C 0.00015 0.49817 0.85407
   
