data_POSCAR
  _audit_creation_date              2014-09-24
  _audit_creation_method            'ToBaCCo'
  _symmetry_space_group_name_H-M    'P1'
  _symmetry_Int_Tables_number       1
  _symmetry_cell_setting            triclinic
  loop_
  _symmetry_equiv_pos_as_xyz
 x,y,z
_cell_length_a 15.9073
_cell_length_b 12.1111
_cell_length_c 7.3415
_cell_angle_alpha 89.779300
_cell_angle_beta 90.137700
_cell_angle_gamma 90.230300
loop_
  _atom_site_label
  _atom_site_type_symbol
  _atom_site_fract_x
  _atom_site_fract_y
  _atom_site_fract_z
C1 C 0.17907 0.18796 0.18068
 C2 C 0.18045 0.30519 0.18061
 C3 C 0.24913 0.36052 0.25879
 C4 C 0.31781 0.30354 0.33286
 C5 C 0.31861 0.18664 0.32643
 C6 C 0.24871 0.13110 0.25244
 H7 H 0.24870 0.04140 0.24999
 H8 H 0.24951 0.45016 0.26062
 C9 C 0.82265 0.31188 0.18804
 C10 C 0.81808 0.19538 0.16685
 C11 C 0.74668 0.13828 0.22878
 C12 C 0.67915 0.19331 0.30968
 C13 C 0.68313 0.30903 0.33020
 C14 C 0.75531 0.36612 0.27324
 H15 H 0.75696 0.45528 0.28804
 H16 H 0.74430 0.04902 0.21657
 C17 C 0.68092 0.69364 0.68186
 C18 C 0.68415 0.80963 0.66392
 C19 C 0.75606 0.86687 0.72218
 C20 C 0.82353 0.81250 0.80798
 C21 C 0.81942 0.69584 0.82782
 C22 C 0.74871 0.63865 0.76300
 H23 H 0.74676 0.54928 0.77474
 H24 H 0.75726 0.95617 0.70853
 C25 C 0.32010 0.80679 0.68675
 C26 C 0.31688 0.69062 0.67276
 C27 C 0.24511 0.63381 0.73258
 C28 C 0.17752 0.68880 0.81526
 C29 C 0.18144 0.80562 0.83081
 C30 C 0.25228 0.86238 0.76539
 H31 H 0.25408 0.95184 0.77374
 H32 H 0.24390 0.54442 0.72175
 O33 O 1.08157 -0.14102 0.05334
 O34 O 0.91654 0.05013 0.20272
 O35 O 0.92599 -0.14568 0.02327
 O36 O 1.08912 0.03856 0.20413
 O37 O 1.07495 0.14877 -0.03267
 O38 O 0.91209 -0.03625 -0.21453
 O39 O 0.91800 0.14248 -0.05681
 O40 O 1.08366 -0.04840 -0.20606
 Cu41 Cu 0.99928 -0.05417 0.15079
 Cu42 Cu 1.00092 0.05684 -0.15704
 C43 C 1.11101 -0.12609 -0.10478
 C44 C 0.88871 0.12745 0.10156
 C45 C 0.89040 -0.12239 -0.12682
 C46 C 1.11121 0.12446 0.11616
 O47 O 0.58045 0.63896 0.45872
 O48 O 0.41822 0.44637 0.29257
 O49 O 0.41675 0.63660 0.45019
 O50 O 0.58331 0.45109 0.29145
 O51 O 0.58228 0.36105 0.55358
 O52 O 0.41709 0.54915 0.71474
 O53 O 0.41772 0.35908 0.55708
 O54 O 0.58188 0.54911 0.72090
 Cu55 Cu 0.49980 0.55148 0.34613
 Cu56 Cu 0.49983 0.44617 0.66355
 C57 C 0.60957 0.62564 0.61831
 C58 C 0.38936 0.37127 0.39679
 C59 C 0.38818 0.62371 0.60988
 C60 C 0.61168 0.37549 0.39465
 O61 O -0.08170 0.64288 0.05481
 O62 O 0.08304 0.45216 0.21235
 O63 O 0.07450 0.64767 0.02937
 O64 O -0.08868 0.46310 0.21145
 O65 O -0.07403 0.35360 -0.02447
 O66 O 0.08885 0.53788 -0.20630
 O67 O 0.08194 0.35970 -0.04583
 O68 O -0.08266 0.55007 -0.20321
 Cu69 Cu 0.00057 0.55657 0.15664
 Cu70 Cu -0.00023 0.44526 -0.14958
 C71 C -0.11042 0.62781 -0.10407
 C72 C 0.11064 0.37433 0.11317
 C73 C 0.11043 0.62407 -0.11957
 C74 C -0.11015 0.37696 0.12422
 O75 O 0.57685 1.05131 0.27589
 O76 O 0.42002 0.85663 0.46050
 O77 O 0.40977 1.04096 0.29035
 O78 O 0.58270 0.86202 0.44188
 O79 O 0.58376 0.95066 0.70421
 O80 O 0.42225 1.14292 0.53688
 O81 O 0.41792 0.95420 0.71368
 O82 O 0.58359 1.13807 0.53960
 Cu83 Cu 0.49716 0.94465 0.33960
 Cu84 Cu 0.50161 1.05446 0.65105
 C85 C 0.60841 1.12584 0.37718
 C86 C 0.39081 0.87425 0.61821
 C87 C 0.38666 1.12268 0.38584
 C88 C 0.61233 0.87590 0.60055
   
