data_POSCAR
  _audit_creation_date              2014-09-24
  _audit_creation_method            'ToBaCCo'
  _symmetry_space_group_name_H-M    'P1'
  _symmetry_Int_Tables_number       1
  _symmetry_cell_setting            triclinic
  loop_
  _symmetry_equiv_pos_as_xyz
 x,y,z
_cell_length_a 24.6520
_cell_length_b 25.0051
_cell_length_c 24.8816
_cell_angle_alpha 90.740500
_cell_angle_beta 90.761100
_cell_angle_gamma 89.821200
loop_
  _atom_site_label
  _atom_site_type_symbol
  _atom_site_fract_x
  _atom_site_fract_y
  _atom_site_fract_z
C1 C -0.00001 0.45018 0.20742
 C2 C 0.05025 0.45374 0.24375
 C3 C 0.05157 0.49802 0.27611
 C4 C 0.00170 0.53514 0.26952
 C5 C -0.04805 0.45394 0.24535
 C6 C -0.04762 0.49824 0.27768
 C7 C -0.00105 0.50277 0.17622
 C8 C -0.00016 0.54731 0.20882
 H9 H 0.08343 0.42503 0.24203
 H10 H 0.00245 0.57110 0.29621
 H11 H -0.08145 0.42562 0.24436
 H12 H -0.00258 0.50463 0.13263
 C13 C 0.00635 0.44548 0.78705
 C14 C -0.03895 0.44714 0.74915
 C15 C -0.03842 0.49310 0.71558
 C16 C 0.00762 0.52872 0.72604
 C17 C 0.05485 0.44851 0.75476
 C18 C 0.05558 0.49442 0.72113
 C19 C 0.00399 0.49564 0.81756
 C20 C 0.00475 0.54167 0.78349
 H21 H -0.07340 0.42003 0.75031
 H22 H 0.00827 0.56420 0.69945
 H23 H 0.08905 0.42106 0.75830
 H24 H 0.00178 0.49829 0.86113
 C25 C 0.21854 -0.00094 0.44172
 C26 C 0.25568 0.04766 0.44635
 C27 C 0.28734 0.04859 0.49157
 C28 C 0.27940 -0.00006 0.52834
 C29 C 0.25617 -0.04933 0.44597
 C30 C 0.28780 -0.04936 0.49122
 C31 C 0.18597 -0.00056 0.49392
 C32 C 0.21795 -0.00012 0.53931
 H33 H 0.25415 0.08057 0.41822
 H34 H 0.30562 0.00033 0.56501
 H35 H 0.25470 -0.08291 0.41778
 H36 H 0.14193 -0.00101 0.49492
 C37 C 0.77097 -0.00631 0.43557
 C38 C 0.73330 -0.05041 0.43759
 C39 C 0.70078 -0.04980 0.48457
 C40 C 0.71143 -0.00481 0.52096
 C41 C 0.73645 0.04425 0.44097
 C42 C 0.70537 0.04517 0.48579
 C43 C 0.80443 -0.00868 0.48802
 C44 C 0.77284 -0.00780 0.53279
 H45 H 0.73470 -0.08457 0.41008
 H46 H 0.68562 -0.00399 0.55729
 H47 H 0.73939 0.07802 0.41407
 H48 H 0.84847 -0.01003 0.48964
 C49 C 0.44142 0.22265 1.00245
 C50 C 0.44511 0.25622 1.05044
 C51 C 0.49256 0.28907 1.05243
 C52 C 0.52758 0.28223 1.00539
 C53 C 0.44436 0.25896 0.95745
 C54 C 0.49188 0.29175 0.95863
 C55 C 0.49173 0.19163 1.00136
 C56 C 0.53947 0.22470 1.00300
 H57 H 0.41724 0.25363 1.08388
 H58 H 0.56420 0.30818 1.00673
 H59 H 0.41664 0.25746 0.92303
 H60 H 0.49332 0.14821 0.99873
 C61 C 0.44508 0.77789 1.00909
 C62 C 0.44848 0.73917 0.96122
 C63 C 0.49377 0.70784 0.96209
 C64 C 0.53138 0.71790 1.01116
 C65 C 0.44876 0.74254 1.05861
 C66 C 0.49401 0.71116 1.05982
 C67 C 0.49512 0.80831 1.00885
 C68 C 0.54251 0.77507 1.01002
 H69 H 0.42028 0.73992 0.92725
 H70 H 0.56805 0.69188 1.01217
 H71 H 0.42009 0.74464 1.09141
 H72 H 0.49668 0.85165 1.00636
 B73 B 0.99108 1.05142 0.02234
 B74 B 0.99095 1.05075 -0.04518
 B75 B 1.04629 1.03029 -0.01084
 B76 B 1.02531 0.99720 0.04343
 B77 B 0.95720 0.99720 0.04250
 B78 B 0.93567 1.03043 -0.01212
 B79 B 0.99132 0.94196 -0.04575
 B80 B 0.99143 0.94248 0.02196
 B81 B 0.93609 0.96300 -0.01242
 B82 B 0.95686 0.99624 -0.06677
 B83 B 1.02528 0.99626 -0.06609
 B84 B 1.04635 0.96314 -0.01114
 B85 B 0.56007 0.49917 0.47455
 B86 B 0.56052 0.49952 0.54206
 B87 B 0.53886 0.55355 0.50875
 B88 B 0.50450 0.53261 0.45374
 B89 B 0.50474 0.46520 0.45290
 B90 B 0.53941 0.44488 0.50791
 B91 B 0.45014 0.49951 0.54174
 B92 B 0.44932 0.49914 0.47391
 B93 B 0.47095 0.44462 0.50762
 B94 B 0.50574 0.46593 0.56275
 B95 B 0.50552 0.53308 0.56298
 B96 B 0.47078 0.55379 0.50845
 C97 C 0.96123 1.25146 0.06768
 C98 C 0.94479 1.26936 0.12508
 C99 C 0.99622 1.30387 0.12891
 C100 C 1.01270 1.28686 0.07187
 C101 C 0.99351 1.20485 0.09216
 C102 C 1.04494 1.23929 0.09588
 C103 C 0.97706 1.22190 0.14911
 C104 C 1.02850 1.25714 0.15323
 C105 C 0.99773 1.35798 0.15217
 C106 C 0.99887 1.40085 0.17485
 C107 C 0.99219 1.14992 0.07144
 C108 C 0.99141 1.10554 0.05226
 H109 H 0.93353 1.24824 0.03224
 H110 H 0.90357 1.28238 0.13715
 H111 H 1.02730 1.31411 0.04034
 H112 H 1.08609 1.22613 0.08368
 H113 H 0.96246 1.19457 0.18058
 H114 H 1.05630 1.26008 0.18860
 C115 C 1.01723 0.74372 0.07410
 C116 C 1.04653 0.72989 0.12764
 C117 C 0.99603 0.69888 0.14496
 C118 C 0.96678 0.71200 0.09173
 C119 C 0.99370 0.79423 0.10099
 C120 C 0.94320 0.76328 0.11823
 C121 C 1.02298 0.78122 0.15416
 C122 C 0.97247 0.74941 0.17184
 C123 C 0.99741 0.64530 0.16882
 C124 C 0.99855 0.60092 0.18755
 C125 C 0.99261 0.84688 0.07549
 C126 C 0.99193 0.88943 0.05316
 H127 H 1.03557 0.74193 0.03359
 H128 H 1.08908 0.71570 0.13168
 H129 H 0.94369 0.68310 0.06614
 H130 H 0.90069 0.77760 0.11408
 H131 H 1.04605 0.81028 0.17957
 H132 H 0.95405 0.75130 0.21229
 C133 C 1.01676 1.22104 -0.16339
 C134 C 0.96775 1.25947 -0.16863
 C135 C 1.00097 1.30325 -0.13953
 C136 C 1.05001 1.26556 -0.13456
 C137 C 0.99545 1.20361 -0.10879
 C138 C 1.02866 1.24724 -0.07951
 C139 C 0.94639 1.24121 -0.11364
 C140 C 0.97963 1.28589 -0.08483
 C141 C 1.00367 1.35725 -0.16040
 C142 C 1.00530 1.39966 -0.18238
 C143 C 0.99284 1.14854 -0.09128
 C144 C 0.99141 1.10413 -0.07397
 H145 H 1.03181 1.19364 -0.19538
 H146 H 0.94265 1.26531 -0.20548
 H147 H 1.09264 1.27640 -0.14315
 H148 H 1.05363 1.24111 -0.04262
 H149 H 0.90383 1.23022 -0.10494
 H150 H 0.96458 1.31324 -0.05281
 C151 C 0.96736 0.77258 -0.17305
 C152 C 1.01992 0.74185 -0.18781
 C153 C 0.99840 0.69267 -0.15857
 C154 C 0.94589 0.72250 -0.14415
 C155 C 0.99466 0.79094 -0.12021
 C156 C 0.97317 0.74178 -0.09095
 C157 C 1.04716 0.76114 -0.13456
 C158 C 1.02567 0.71114 -0.10568
 C159 C 1.00062 0.63786 -0.17965
 C160 C 1.00254 0.59272 -0.19690
 C161 C 0.99290 0.84497 -0.09746
 C162 C 0.99188 0.88849 -0.07652
 H163 H 0.94342 0.79858 -0.20040
 H164 H 1.03921 0.74119 -0.22788
 H165 H 0.90429 0.70594 -0.14827
 H166 H 0.95397 0.74253 -0.05082
 H167 H 1.08872 0.77780 -0.13034
 H168 H 1.04960 0.68531 -0.07816
 C169 C 1.15385 1.02132 0.21275
 C170 C 1.12711 1.04846 0.26208
 C171 C 1.13859 0.99793 0.29488
 C172 C 1.16566 0.97079 0.24630
 C173 C 1.09861 0.99766 0.19642
 C174 C 1.11000 0.94711 0.22916
 C175 C 1.07141 1.02478 0.24490
 C176 C 1.08327 0.97423 0.27858
 C177 C 1.16315 0.99822 0.34880
 C178 C 1.18628 0.99857 0.39177
 C179 C 1.07608 0.99761 0.14184
 C180 C 1.05574 0.99754 0.09766
 H181 H 1.18257 1.04057 0.18503
 H182 H 1.13425 1.09015 0.27627
 H183 H 1.20466 0.94849 0.24748
 H184 H 1.10276 0.90548 0.21482
 H185 H 1.03232 1.04694 0.24349
 H186 H 1.05442 0.95499 0.30617
 C187 C 1.08366 1.02786 -0.26274
 C188 C 1.14168 1.04811 -0.27410
 C189 C 1.15141 0.99825 -0.30952
 C190 C 1.09373 0.97804 -0.29889
 C191 C 1.10609 0.99697 -0.21424
 C192 C 1.11577 0.94712 -0.24962
 C193 C 1.16373 1.01720 -0.22476
 C194 C 1.17384 0.96733 -0.26100
 C195 C 1.17605 0.99893 -0.36301
 C196 C 1.19554 0.99942 -0.40730
 C197 C 1.07985 0.99639 -0.16167
 C198 C 1.05698 0.99613 -0.11915
 H199 H 1.04626 1.05271 -0.26287
 H200 H 1.15253 1.08969 -0.28465
 H201 H 1.06507 0.96196 -0.32981
 H202 H 1.10482 0.90558 -0.23896
 H203 H 1.19220 1.03328 -0.19366
 H204 H 1.21118 0.94241 -0.26078
 C205 C 0.83261 0.96979 0.20845
 C206 C 0.86171 0.94392 0.25718
 C207 C 0.84877 0.99399 0.29101
 C208 C 0.81933 1.01984 0.24310
 C209 C 0.88628 0.99592 0.19314
 C210 C 0.87343 1.04598 0.22692
 C211 C 0.91587 0.97007 0.24093
 C212 C 0.90253 1.02013 0.27571
 C213 C 0.82530 0.99329 0.34425
 C214 C 0.80266 0.99318 0.38658
 C215 C 0.90751 0.99688 0.13913
 C216 C 0.92719 0.99735 0.09548
 H217 H 0.80428 0.94927 0.17998
 H218 H 0.85677 0.90203 0.27047
 H219 H 0.77937 1.04034 0.24481
 H220 H 0.87847 1.08783 0.21351
 H221 H 0.95590 0.94969 0.23896
 H222 H 0.93101 1.04061 0.30406
 C223 C 0.91187 0.98671 -0.26851
 C224 C 0.86889 0.94628 -0.28958
 C225 C 0.83695 0.99282 -0.31448
 C226 C 0.87959 1.03322 -0.29423
 C227 C 0.87891 0.99425 -0.21701
 C228 C 0.84702 1.04079 -0.24186
 C229 C 0.83633 0.95382 -0.23718
 C230 C 0.80398 1.00037 -0.26296
 C231 C 0.81396 0.99226 -0.36883
 C232 C 0.79522 0.99207 -0.41367
 C233 C 0.90346 0.99507 -0.16345
 C234 C 0.92552 0.99569 -0.12019
 H235 H 0.95654 0.98111 -0.26996
 H236 H 0.87764 0.90747 -0.30987
 H237 H 0.89713 1.06579 -0.31835
 H238 H 0.83836 1.07957 -0.22144
 H239 H 0.81891 0.92127 -0.21292
 H240 H 0.75934 1.00597 -0.26142
 C241 C 1.24743 1.07900 0.02450
 C242 C 1.28391 1.08793 -0.02486
 C243 C 1.29762 1.14405 -0.00288
 C244 C 1.26200 1.13550 0.04649
 C245 C 1.19933 1.10345 -0.00662
 C246 C 1.21306 1.15949 0.01534
 C247 C 1.23488 1.11191 -0.05600
 C248 C 1.24941 1.16837 -0.03400
 C249 C 1.35140 1.16891 -0.00082
 C250 C 1.39417 1.19223 0.00078
 C251 C 1.14477 1.08068 -0.00848
 C252 C 1.10060 1.06035 -0.00974
 H253 H 1.24582 1.04191 0.04849
 H254 H 1.31355 1.05867 -0.04125
 H255 H 1.27378 1.14530 0.08868
 H256 H 1.18330 1.18863 0.03173
 H257 H 1.22295 1.10201 -0.09814
 H258 H 1.25081 1.20537 -0.05813
 C259 C 0.75016 1.12560 -0.05795
 C260 C 0.70017 1.10314 -0.02875
 C261 C 0.68971 1.15890 -0.00411
 C262 C 0.73895 1.18176 -0.03329
 C263 C 0.78565 1.11223 -0.00865
 C264 C 0.77530 1.16795 0.01600
 C265 C 0.73642 1.08938 0.02049
 C266 C 0.72525 1.14547 0.04518
 C267 C 0.63567 1.18407 -0.00148
 C268 C 0.59082 1.20370 0.00067
 C269 C 0.83867 1.08527 -0.01075
 C270 C 0.88165 1.06204 -0.01187
 H271 H 0.76096 1.11714 -0.10040
 H272 H 0.66884 1.07659 -0.04713
 H273 H 0.73954 1.22002 -0.05540
 H274 H 0.80680 1.19433 0.03436
 H275 H 0.73591 1.05107 0.04255
 H276 H 0.71457 1.15384 0.08767
 C277 C 1.21792 0.83972 -0.02921
 C278 C 1.26881 0.86790 -0.05097
 C279 C 1.29875 0.85596 0.00204
 C280 C 1.24867 0.82745 0.02384
 C281 C 1.19951 0.89312 -0.00457
 C282 C 1.22940 0.88127 0.04845
 C283 C 1.24946 0.92178 -0.02637
 C284 C 1.28036 0.90944 0.02671
 C285 C 1.35273 0.83257 0.00536
 C286 C 1.39559 0.80986 0.00748
 C287 C 1.14468 0.91408 -0.00789
 C288 C 1.10032 0.93349 -0.00994
 H289 H 1.19144 0.81146 -0.05211
 H290 H 1.28587 0.86227 -0.09173
 H291 H 1.24916 0.78843 0.04464
 H292 H 1.21220 0.88699 0.08915
 H293 H 1.24870 0.96087 -0.04705
 H294 H 1.30672 0.93782 0.04958
 C295 C 0.73355 0.91283 -0.01413
 C296 C 0.71251 0.86648 -0.05054
 C297 C 0.69178 0.83825 -0.00038
 C298 C 0.71203 0.88424 0.03607
 C299 C 0.78761 0.88285 -0.00735
 C300 C 0.76693 0.85467 0.04282
 C301 C 0.76747 0.83690 -0.04383
 C302 C 0.74585 0.80824 0.00642
 C303 C 0.63805 0.81432 0.00356
 C304 C 0.59340 0.79552 0.00670
 C305 C 0.84025 0.90882 -0.01057
 C306 C 0.88292 0.93164 -0.01221
 H307 H 0.72928 0.95614 -0.02262
 H308 H 0.68946 0.87105 -0.08885
 H309 H 0.68863 0.90342 0.06894
 H310 H 0.79009 0.85020 0.08108
 H311 H 0.79104 0.81786 -0.07666
 H312 H 0.75020 0.76497 0.01496
 C313 C 0.76344 0.48131 0.42440
 C314 C 0.77844 0.46260 0.36694
 C315 C 0.81004 0.51494 0.35957
 C316 C 0.79581 0.53368 0.41676
 C317 C 0.71255 0.50863 0.40112
 C318 C 0.74394 0.56105 0.39394
 C319 C 0.72686 0.48991 0.34405
 C320 C 0.75907 0.54228 0.33637
 C321 C 0.86347 0.51492 0.33400
 C322 C 0.90557 0.51031 0.31006
 C323 C 0.65835 0.50424 0.42423
 C324 C 0.61441 0.50100 0.44461
 H325 H 0.76457 0.45614 0.46084
 H326 H 0.79314 0.42201 0.35573
 H327 H 0.82454 0.55172 0.44650
 H328 H 0.72896 0.60151 0.40530
 H329 H 0.69801 0.47183 0.31443
 H330 H 0.75775 0.56757 0.30003
 C331 C 0.24708 0.53612 0.42629
 C332 C 0.23215 0.56226 0.37177
 C333 C 0.19661 0.51357 0.35755
 C334 C 0.21067 0.48747 0.41161
 C335 C 0.29522 0.50768 0.39935
 C336 C 0.25964 0.45909 0.38514
 C337 C 0.28122 0.53378 0.34534
 C338 C 0.24493 0.48517 0.33080
 C339 C 0.14249 0.51364 0.33191
 C340 C 0.09964 0.50938 0.30811
 C341 C 0.35003 0.50368 0.42273
 C342 C 0.39445 0.50077 0.44342
 H343 H 0.24868 0.55693 0.46597
 H344 H 0.22031 0.60471 0.36622
 H345 H 0.18122 0.46862 0.43886
 H346 H 0.27151 0.41664 0.39073
 H347 H 0.31084 0.55261 0.31825
 H348 H 0.24362 0.46419 0.29120
 C349 C 0.76156 0.53799 0.58099
 C350 C 0.78035 0.56342 0.63534
 C351 C 0.81687 0.51452 0.64485
 C352 C 0.79903 0.48912 0.59096
 C353 C 0.71588 0.50917 0.61040
 C354 C 0.75245 0.46040 0.61991
 C355 C 0.73359 0.53457 0.66423
 C356 C 0.77095 0.48575 0.67405
 C357 C 0.87210 0.51315 0.66672
 C358 C 0.91563 0.50657 0.68802
 C359 C 0.66016 0.50493 0.59059
 C360 C 0.61523 0.50159 0.57178
 H361 H 0.75670 0.55928 0.54232
 H362 H 0.79257 0.60574 0.64169
 H363 H 0.82650 0.47073 0.56089
 H364 H 0.74023 0.41807 0.61353
 H365 H 0.70589 0.55294 0.69412
 H366 H 0.77545 0.46425 0.71263
 C367 C 0.27994 0.48501 0.66570
 C368 C 0.24853 0.53727 0.67843
 C369 C 0.19836 0.51395 0.64943
 C370 C 0.22909 0.46173 0.63701
 C371 C 0.29743 0.50887 0.61223
 C372 C 0.24732 0.48558 0.58316
 C373 C 0.26692 0.56120 0.62446
 C374 C 0.21575 0.53784 0.59583
 C375 C 0.14413 0.51273 0.67233
 C376 C 0.10125 0.50674 0.69389
 C377 C 0.35215 0.50479 0.59108
 C378 C 0.39630 0.50155 0.57156
 H379 H 0.30694 0.46325 0.69407
 H380 H 0.24833 0.55874 0.71776
 H381 H 0.21286 0.42078 0.64226
 H382 H 0.24767 0.46421 0.54375
 H383 H 0.28345 0.60200 0.61904
 H384 H 0.18882 0.55955 0.56738
 C385 C 0.49280 0.65734 0.28535
 C386 C 0.54495 0.66281 0.25189
 C387 C 0.51513 0.63721 0.20349
 C388 C 0.46301 0.63204 0.23628
 C389 C 0.51140 0.60136 0.30202
 C390 C 0.48162 0.57567 0.25369
 C391 C 0.56361 0.60631 0.26946
 C392 C 0.53374 0.58108 0.22007
 C393 C 0.51338 0.65978 0.14969
 C394 C 0.50726 0.68150 0.10723
 C395 C 0.50817 0.58106 0.35645
 C396 C 0.50566 0.56211 0.40036
 H397 H 0.47590 0.68832 0.31283
 H398 H 0.57117 0.69875 0.25043
 H399 H 0.42158 0.64272 0.22194
 H400 H 0.45550 0.53964 0.25532
 H401 H 0.60489 0.59546 0.28411
 H402 H 0.55056 0.54998 0.19270
 C403 C 0.53420 0.65594 0.73499
 C404 C 0.48445 0.66144 0.77190
 C405 C 0.51709 0.63457 0.81730
 C406 C 0.56690 0.62938 0.78120
 C407 C 0.51359 0.60065 0.71707
 C408 C 0.54628 0.57356 0.76223
 C409 C 0.46389 0.60584 0.75322
 C410 C 0.49647 0.57921 0.79930
 C411 C 0.51493 0.65640 0.87191
 C412 C 0.50814 0.67789 0.91477
 C413 C 0.51028 0.58124 0.66173
 C414 C 0.50746 0.56269 0.61710
 H415 H 0.54941 0.68720 0.70777
 H416 H 0.45896 0.69785 0.77653
 H417 H 0.60923 0.63906 0.79347
 H418 H 0.57156 0.53705 0.75721
 H419 H 0.42157 0.59610 0.74092
 H420 H 0.48124 0.54779 0.82631
 C421 C 0.54581 0.41978 0.25333
 C422 C 0.56344 0.36246 0.23612
 C423 C 0.51405 0.35947 0.19783
 C424 C 0.49641 0.41638 0.21417
 C425 C 0.51094 0.39576 0.29779
 C426 C 0.46165 0.39279 0.25947
 C427 C 0.52858 0.33891 0.28151
 C428 C 0.47923 0.33565 0.24249
 C429 C 0.51215 0.33698 0.14280
 C430 C 0.50580 0.31591 0.09913
 C431 C 0.50818 0.41643 0.35328
 C432 C 0.50597 0.43549 0.39804
 H433 H 0.57311 0.45477 0.25849
 H434 H 0.60538 0.35000 0.22602
 H435 H 0.48339 0.44827 0.18613
 H436 H 0.41972 0.40531 0.26960
 H437 H 0.54159 0.30719 0.30974
 H438 H 0.45174 0.30079 0.23763
 C439 C 0.48018 0.42186 0.76335
 C440 C 0.46393 0.36474 0.77990
 C441 C 0.51513 0.36175 0.81587
 C442 C 0.53137 0.41867 0.80006
 C443 C 0.51273 0.39765 0.71666
 C444 C 0.56401 0.39486 0.75242
 C445 C 0.49647 0.34084 0.73254
 C446 C 0.54769 0.33758 0.76913
 C447 C 0.51268 0.33953 0.87031
 C448 C 0.50578 0.31858 0.91321
 C449 C 0.51009 0.41805 0.66158
 C450 C 0.50769 0.43680 0.61716
 H451 H 0.45232 0.45670 0.76035
 H452 H 0.42261 0.35228 0.79166
 H453 H 0.54576 0.45057 0.82818
 H454 H 0.60520 0.40747 0.74038
 H455 H 0.48203 0.30906 0.70430
 H456 H 0.57566 0.30282 0.77200
 C457 C 0.57552 0.75131 0.48247
 C458 C 0.58107 0.78842 0.53256
 C459 C 0.63637 0.80688 0.51227
 C460 C 0.63102 0.77058 0.46215
 C461 C 0.60495 0.70678 0.51332
 C462 C 0.66011 0.72531 0.49302
 C463 C 0.61009 0.74283 0.56357
 C464 C 0.66575 0.76231 0.54317
 C465 C 0.65616 0.86149 0.50767
 C466 C 0.67552 0.90452 0.49915
 C467 C 0.58649 0.65159 0.51209
 C468 C 0.56834 0.60719 0.51037
 H469 H 0.53826 0.74586 0.45745
 H470 H 0.54885 0.81497 0.54876
 H471 H 0.63966 0.78270 0.42036
 H472 H 0.69223 0.69867 0.47675
 H473 H 0.60127 0.73037 0.60521
 H474 H 0.70296 0.76763 0.56827
 C475 C 0.57682 0.24607 0.48242
 C476 C 0.63241 0.22581 0.46244
 C477 C 0.63781 0.19146 0.51304
 C478 C 0.58241 0.21089 0.53300
 C479 C 0.60609 0.29169 0.51270
 C480 C 0.61126 0.25758 0.56342
 C481 C 0.66133 0.27218 0.49274
 C482 C 0.66701 0.23712 0.54337
 C483 C 0.65798 0.13669 0.50919
 C484 C 0.67779 0.09343 0.50120
 C485 C 0.58756 0.34693 0.51091
 C486 C 0.56930 0.39135 0.50906
 H487 H 0.53957 0.25067 0.45729
 H488 H 0.64114 0.21205 0.42084
 H489 H 0.55024 0.18510 0.54952
 H490 H 0.60235 0.27167 0.60488
 H491 H 0.69342 0.29803 0.47616
 H492 H 0.70418 0.23266 0.56859
 C493 C 0.39629 0.74299 0.46365
 C494 C 0.33845 0.75970 0.48055
 C495 C 0.36280 0.80597 0.51431
 C496 C 0.42039 0.78991 0.49734
 C497 C 0.40014 0.70713 0.51320
 C498 C 0.42468 0.75320 0.54700
 C499 C 0.34261 0.72312 0.53016
 C500 C 0.36665 0.77014 0.56395
 C501 C 0.33964 0.86014 0.51159
 C502 C 0.31777 0.90289 0.50506
 C503 C 0.42133 0.65228 0.51145
 C504 C 0.44078 0.60801 0.50976
 H505 H 0.40858 0.73121 0.42238
 H506 H 0.30273 0.76283 0.45312
 H507 H 0.45232 0.81781 0.48401
 H508 H 0.46051 0.74974 0.57425
 H509 H 0.31083 0.69505 0.54347
 H510 H 0.35445 0.78187 0.60524
 C511 C 0.42453 0.24671 0.54704
 C512 C 0.36614 0.23085 0.56309
 C513 C 0.36321 0.19306 0.51393
 C514 C 0.42117 0.20804 0.49786
 C515 C 0.40070 0.29160 0.51213
 C516 C 0.39780 0.25379 0.46305
 C517 C 0.34282 0.27666 0.52819
 C518 C 0.33960 0.23815 0.47907
 C519 C 0.33981 0.13904 0.51157
 C520 C 0.31765 0.09635 0.50528
 C521 C 0.42182 0.34633 0.51012
 C522 C 0.44113 0.39051 0.50844
 H523 H 0.45983 0.25100 0.57493
 H524 H 0.35312 0.22087 0.60429
 H525 H 0.45334 0.17941 0.48556
 H526 H 0.41090 0.26381 0.42188
 H527 H 0.31077 0.30544 0.54046
 H528 H 0.30442 0.23418 0.45100
   
