data_POSCAR
  _audit_creation_date              2014-09-24
  _audit_creation_method            'ToBaCCo'
  _symmetry_space_group_name_H-M    'P1'
  _symmetry_Int_Tables_number       1
  _symmetry_cell_setting            triclinic
  loop_
  _symmetry_equiv_pos_as_xyz
 x,y,z
_cell_length_a 38.3427
_cell_length_b 38.7381
_cell_length_c 38.7363
_cell_angle_alpha 90.010400
_cell_angle_beta 89.869000
_cell_angle_gamma 90.230600
loop_
  _atom_site_label
  _atom_site_type_symbol
  _atom_site_fract_x
  _atom_site_fract_y
  _atom_site_fract_z
N1 N 0.20968 0.21184 0.20902
 N2 N 0.70955 0.71027 0.71255
 N3 N 0.28973 0.78995 0.70894
 N4 N 0.78992 0.29067 0.20801
 N5 N 0.79138 0.70926 0.29180
 N6 N 0.28998 0.21029 -0.20986
 N7 N 0.71292 0.28894 -0.21145
 N8 N 0.21546 0.78638 0.28860
 N9 N 0.46132 0.45838 0.46042
 N10 N -0.03926 -0.04077 0.96099
 N11 N 1.03578 0.53931 0.96253
 N12 N 0.54019 0.03905 0.46069
 N13 N -0.04080 0.04021 0.54088
 N14 N 0.45766 0.54197 0.04129
 N15 N 0.53770 -0.03735 0.03919
 N16 N 1.03890 0.45974 0.53706
 C17 C 0.43116 0.01536 0.20761
 H18 H 0.43680 0.03499 0.22669
 C19 C 0.45342 0.01095 0.17939
 H20 H 0.47602 0.02759 0.17676
 C21 C 0.39433 -0.02966 0.18766
 H22 H 0.37111 -0.04525 0.19092
 C23 C 0.41589 -0.03497 0.15906
 H24 H 0.40934 -0.05517 0.14086
 N25 N 0.40243 -0.00498 0.21133
 C26 C 0.32308 0.05156 0.26884
 H27 H 0.32174 0.03730 0.29283
 C28 C 0.30128 0.07986 0.26378
 H29 H 0.28293 0.08675 0.28387
 C30 C 0.34780 0.05887 0.21323
 H31 H 0.36583 0.05053 0.19348
 C32 C 0.32672 0.08756 0.20721
 H33 H 0.32930 0.10128 0.18299
 Zn34 Zn 0.37391 0.00178 0.25061
 N35 N 0.34557 0.04140 0.24362
 C36 C 0.40148 0.03821 0.30835
 N37 N 0.40360 0.00871 0.28937
 C38 C 0.42781 -0.01575 0.29682
 C39 C 0.45047 -0.01143 0.32470
 C40 C 0.42345 0.04347 0.33656
 C41 C 0.31002 -0.03488 0.26054
 C42 C 0.28906 -0.06382 0.26639
 C43 C 0.34050 -0.09947 0.26401
 C44 C 0.36064 -0.06971 0.25909
 N45 N 0.34528 -0.03809 0.25764
 H46 H 0.38300 0.05797 0.30163
 H47 H 0.43008 -0.03837 0.28074
 H48 H 0.46986 -0.03101 0.32977
 H49 H 0.42070 0.06683 0.35164
 H50 H 0.29783 -0.01001 0.25819
 H51 H 0.26110 -0.06083 0.26893
 H52 H 0.35300 -0.12447 0.26496
 H53 H 0.38847 -0.07202 0.25568
 C54 C 0.30283 0.09827 0.23256
 C55 C 0.44600 -0.01462 0.15471
 C56 C 0.30435 -0.09650 0.26813
 C57 C 0.44838 0.01846 0.34512
 C58 C 0.07007 -0.01561 0.70479
 H59 H 0.06700 -0.03793 0.72132
 C60 C 0.04751 -0.01076 0.67699
 H61 H 0.02691 -0.02941 0.67248
 C62 C 0.10001 0.03636 0.69152
 H63 H 0.12031 0.05482 0.69740
 C64 C 0.07810 0.04217 0.66339
 H65 H 0.08227 0.06485 0.64756
 N66 N 0.09586 0.00765 0.71134
 C67 C 0.17981 -0.04548 0.76485
 H68 H 0.18290 -0.02896 0.78717
 C69 C 0.20225 -0.07337 0.75994
 H70 H 0.22276 -0.07795 0.77851
 C71 C 0.14997 -0.05868 0.71298
 H72 H 0.12978 -0.05274 0.69457
 C73 C 0.17176 -0.08688 0.70709
 H74 H 0.16759 -0.10270 0.68442
 Zn75 Zn 0.12499 -0.00033 0.74989
 N76 N 0.15408 -0.03889 0.74171
 C77 C 0.10045 -0.03666 0.80901
 N78 N 0.09588 -0.00844 0.78864
 C79 C 0.06969 0.01433 0.79483
 C80 C 0.04713 0.00946 0.82277
 C81 C 0.07868 -0.04237 0.83740
 C82 C 0.18037 0.04458 0.73494
 C83 C 0.20300 0.07249 0.73975
 C84 C 0.17132 0.08720 0.79166
 C85 C 0.14948 0.05883 0.78602
 N86 N 0.15412 0.03842 0.75782
 H87 H 0.12090 -0.05487 0.80331
 H88 H 0.06640 0.03636 0.77800
 H89 H 0.02669 0.02807 0.82756
 H90 H 0.08261 -0.06501 0.85329
 H91 H 0.18367 0.02774 0.71290
 H92 H 0.22353 0.07724 0.72108
 H93 H 0.16736 0.10311 0.81431
 H94 H 0.12892 0.05317 0.80427
 C95 C 0.19830 -0.09460 0.73078
 C96 C 0.05142 0.01841 0.65576
 C97 C 0.19849 0.09430 0.76835
 C98 C 0.05163 -0.01912 0.84457
 C99 C 0.56995 0.48468 0.20395
 H100 H 0.56728 0.46211 0.22021
 C101 C 0.54710 0.48963 0.17639
 H102 H 0.52669 0.47081 0.17179
 C103 C 0.59912 0.53719 0.19118
 H104 H 0.61919 0.55585 0.19720
 C105 C 0.57691 0.54312 0.16330
 H106 H 0.58067 0.56607 0.14777
 N107 N 0.59550 0.50817 0.21064
 C108 C 0.67975 0.45514 0.26388
 H109 H 0.68267 0.47159 0.28627
 C110 C 0.70230 0.42735 0.25897
 H111 H 0.72275 0.42277 0.27763
 C112 C 0.65018 0.44202 0.21184
 H113 H 0.63004 0.44796 0.19337
 C114 C 0.67210 0.41392 0.20595
 H115 H 0.66809 0.39816 0.18321
 Zn116 Zn 0.62485 0.50011 0.24903
 N117 N 0.65409 0.46171 0.24066
 C118 C 0.60037 0.46324 0.30786
 N119 N 0.59588 0.49171 0.28783
 C120 C 0.56988 0.51458 0.29439
 C121 C 0.54742 0.50955 0.32238
 C122 C 0.57870 0.45736 0.33630
 C123 C 0.67954 0.54581 0.23380
 C124 C 0.70224 0.57362 0.23887
 C125 C 0.67213 0.58646 0.29216
 C126 C 0.65008 0.55833 0.28613
 N127 N 0.65394 0.53886 0.25716
 H128 H 0.62066 0.44496 0.30186
 H129 H 0.56666 0.53682 0.27782
 H130 H 0.52712 0.52823 0.32747
 H131 H 0.58255 0.43452 0.35192
 H132 H 0.68239 0.52956 0.21126
 H133 H 0.72272 0.57841 0.22017
 H134 H 0.66819 0.60198 0.31507
 H135 H 0.62995 0.55213 0.30467
 C136 C 0.69855 0.40620 0.22974
 C137 C 0.55045 0.51916 0.15556
 C138 C 0.69868 0.59444 0.26837
 C139 C 0.55183 0.48070 0.34384
 C140 C 0.92787 0.51913 0.69974
 H141 H 0.92990 0.54265 0.71469
 C142 C 0.94976 0.51417 0.67137
 H143 H 0.96844 0.53405 0.66443
 C144 C 0.90126 0.46456 0.69071
 H145 H 0.88265 0.44507 0.69855
 C146 C 0.92230 0.45876 0.66182
 H147 H 0.91977 0.43476 0.64768
 N148 N 0.90442 0.49435 0.70911
 C149 C 0.82088 0.54566 0.76630
 H150 H 0.81753 0.52828 0.78784
 C151 C 0.79814 0.57348 0.76241
 H152 H 0.77799 0.57776 0.78155
 C153 C 0.85024 0.56062 0.71455
 H154 H 0.86986 0.55521 0.69536
 C155 C 0.82832 0.58889 0.70984
 H156 H 0.83155 0.60494 0.68716
 Zn157 Zn 0.87621 0.50110 0.74906
 N158 N 0.84660 0.53992 0.74274
 C159 C 0.88963 0.51140 0.82020
 N160 N 0.90502 0.50786 0.78866
 C161 C 0.94040 0.50856 0.78536
 C162 C 0.96154 0.51435 0.81406
 C163 C 0.90989 0.51637 0.84974
 C164 C 0.81925 0.45765 0.73543
 C165 C 0.79704 0.42936 0.74002
 C166 C 0.83388 0.40994 0.78662
 C167 C 0.85539 0.43861 0.78113
 N168 N 0.84765 0.46181 0.75597
 H169 H 0.86163 0.50979 0.82260
 H170 H 0.95253 0.50443 0.76060
 H171 H 0.98962 0.51519 0.81102
 H172 H 0.89739 0.51906 0.87470
 H173 H 0.81384 0.47642 0.71549
 H174 H 0.77471 0.42635 0.72322
 H175 H 0.84016 0.39206 0.80714
 H176 H 0.87828 0.44228 0.79696
 C177 C 0.80190 0.59564 0.73398
 C178 C 0.94714 0.48362 0.65210
 C179 C 0.80417 0.40509 0.76600
 C180 C 0.94622 0.51831 0.84661
 C181 C 0.20240 0.42957 0.01437
 H182 H 0.21986 0.43299 0.03602
 C183 C 0.17401 0.45162 0.01024
 H184 H 0.17006 0.47223 0.02869
 C185 C 0.18733 0.39920 -0.03658
 H186 H 0.19273 0.37890 -0.05491
 C187 C 0.15851 0.42053 -0.04161
 H188 H 0.14170 0.41592 -0.06356
 N189 N 0.20839 0.40385 -0.00875
 C190 C 0.26372 0.32095 0.04315
 H191 H 0.28606 0.31817 0.02629
 C192 C 0.25920 0.29850 0.07100
 H193 H 0.27811 0.27826 0.07522
 C194 C 0.21138 0.35010 0.05727
 H195 H 0.19264 0.37006 0.05170
 C196 C 0.20590 0.32830 0.08546
 H197 H 0.18322 0.33221 0.10167
 Zn198 Zn 0.24773 0.37542 -0.00152
 N199 N 0.24013 0.34632 0.03701
 C200 C 0.30664 0.40068 0.03507
 N201 N 0.28666 0.40461 0.00639
 C202 C 0.29316 0.43032 -0.01666
 C203 C 0.32104 0.45305 -0.01158
 C204 C 0.33485 0.42274 0.04111
 C205 C 0.23263 0.32063 -0.04622
 C206 C 0.23761 0.29805 -0.07387
 C207 C 0.28988 0.32966 -0.08907
 C208 C 0.28406 0.35147 -0.06095
 N209 N 0.25561 0.34681 -0.04039
 H210 H 0.30078 0.38049 0.05341
 H211 H 0.27647 0.43326 -0.03895
 H212 H 0.32547 0.47361 -0.03002
 H213 H 0.35078 0.41875 0.06378
 H214 H 0.21045 0.31727 -0.02923
 H215 H 0.21889 0.27753 -0.07830
 H216 H 0.31278 0.33358 -0.10503
 H217 H 0.30243 0.37194 -0.05552
 C218 C 0.23002 0.30209 0.09270
 C219 C 0.15151 0.44720 -0.01802
 C220 C 0.26652 0.30249 -0.09576
 C221 C 0.34238 0.44940 0.01763
 C222 C 0.70536 0.07103 -0.01643
 H223 H 0.72250 0.06771 -0.03840
 C224 C 0.67707 0.04870 -0.01167
 H225 H 0.67231 0.02843 -0.03034
 C226 C 0.69084 0.10155 0.03461
 H227 H 0.69658 0.12179 0.05291
 C228 C 0.66214 0.07997 0.04024
 H229 H 0.64605 0.08385 0.06291
 N230 N 0.71155 0.09697 0.00644
 C231 C 0.76771 0.17964 -0.04628
 H232 H 0.78978 0.18276 -0.02919
 C233 C 0.76355 0.20192 -0.07429
 H234 H 0.78276 0.22198 -0.07886
 C235 C 0.71584 0.14964 -0.06098
 H236 H 0.69700 0.12960 -0.05543
 C237 C 0.71080 0.17119 -0.08942
 H238 H 0.68800 0.16751 -0.10548
 Zn239 Zn 0.75105 0.12552 -0.00118
 N240 N 0.74413 0.15400 -0.04028
 C241 C 0.81101 0.10027 -0.03612
 N242 N 0.78994 0.09635 -0.00809
 C243 C 0.79541 0.07070 0.01523
 C244 C 0.82326 0.04795 0.01105
 C245 C 0.83933 0.07827 -0.04115
 C246 C 0.73532 0.18045 0.04316
 C247 C 0.73990 0.20307 0.07087
 C248 C 0.79266 0.17269 0.08576
 C249 C 0.78712 0.15072 0.05772
 N250 N 0.75862 0.15473 0.03730
 H251 H 0.80588 0.12034 -0.05474
 H252 H 0.77802 0.06794 0.03710
 H253 H 0.82743 0.02789 0.03005
 H254 H 0.85572 0.08163 -0.06372
 H255 H 0.71318 0.18341 0.02617
 H256 H 0.72124 0.22360 0.07484
 H257 H 0.81516 0.16863 0.10208
 H258 H 0.80564 0.13047 0.05237
 C259 C 0.73482 0.19776 -0.09634
 C260 C 0.65497 0.05313 0.01692
 C261 C 0.76885 0.19931 0.09269
 C262 C 0.84571 0.05169 -0.01739
 C263 C 0.20697 0.56904 0.48418
 H264 H 0.22479 0.56577 0.46274
 C265 C 0.17871 0.54654 0.48816
 H266 H 0.17469 0.52613 0.46948
 C267 C 0.19061 0.59973 0.53458
 H268 H 0.19559 0.62016 0.55290
 C269 C 0.16186 0.57801 0.53938
 H270 H 0.14497 0.58193 0.56147
 N271 N 0.21225 0.59514 0.50710
 C272 C 0.26783 0.67867 0.45548
 H273 H 0.28972 0.68205 0.47275
 C274 C 0.26356 0.70098 0.42751
 H275 H 0.28219 0.72169 0.42362
 C276 C 0.21632 0.64823 0.44052
 H277 H 0.19779 0.62785 0.44580
 C278 C 0.21113 0.66982 0.41216
 H279 H 0.18891 0.66528 0.39556
 Zn280 Zn 0.25154 0.62408 0.50017
 N281 N 0.24451 0.65278 0.46129
 C282 C 0.31180 0.59960 0.46519
 N283 N 0.29072 0.59531 0.49317
 C284 C 0.29627 0.56945 0.51623
 C285 C 0.32418 0.54682 0.51181
 C286 C 0.34017 0.57773 0.45993
 C287 C 0.23517 0.67862 0.54482
 C288 C 0.23961 0.70125 0.57254
 C289 C 0.29250 0.67111 0.58748
 C290 C 0.28709 0.64911 0.55942
 N291 N 0.25862 0.65303 0.53894
 H292 H 0.30659 0.61983 0.44677
 H293 H 0.27887 0.56640 0.53805
 H294 H 0.32838 0.52655 0.53058
 H295 H 0.35653 0.58135 0.43738
 H296 H 0.21308 0.68153 0.52776
 H297 H 0.22088 0.72172 0.57647
 H298 H 0.31502 0.66716 0.60380
 H299 H 0.30573 0.62898 0.55406
 C300 C 0.23493 0.69665 0.40530
 C301 C 0.15565 0.55101 0.51598
 C302 C 0.26860 0.69765 0.59435
 C303 C 0.34659 0.55088 0.48338
 C304 C 0.70395 0.92709 0.51706
 H305 H 0.72078 0.93002 0.53926
 C306 C 0.67609 0.94967 0.51227
 H307 H 0.67183 0.97012 0.53085
 C308 C 0.69012 0.89763 0.46523
 H309 H 0.69587 0.87757 0.44675
 C310 C 0.66191 0.91956 0.45949
 H311 H 0.64585 0.91562 0.43687
 N312 N 0.71028 0.90155 0.49382
 C313 C 0.76495 0.81852 0.54655
 H314 H 0.78722 0.81549 0.52964
 C315 C 0.76031 0.79621 0.57451
 H316 H 0.77934 0.77620 0.57924
 C317 C 0.71307 0.84840 0.56089
 H318 H 0.69443 0.86841 0.55523
 C319 C 0.70760 0.82687 0.58931
 H320 H 0.68469 0.83054 0.60528
 Zn321 Zn 0.74935 0.87287 0.50158
 N322 N 0.74160 0.84413 0.54041
 C323 C 0.80846 0.89849 0.53778
 N324 N 0.78828 0.90206 0.50919
 C325 C 0.79455 0.92750 0.48578
 C326 C 0.82241 0.95034 0.49039
 C327 C 0.83666 0.92070 0.54335
 C328 C 0.73384 0.81854 0.45627
 C329 C 0.73883 0.79615 0.42844
 C330 C 0.79249 0.82623 0.41508
 C331 C 0.78653 0.84795 0.44322
 N332 N 0.75739 0.84399 0.46294
 H333 H 0.80277 0.87846 0.55635
 H334 H 0.77772 0.93011 0.46357
 H335 H 0.82666 0.97068 0.47167
 H336 H 0.85278 0.91703 0.56596
 H337 H 0.71119 0.81558 0.47273
 H338 H 0.71995 0.77582 0.42384
 H339 H 0.81552 0.83027 0.39934
 H340 H 0.80526 0.86794 0.44922
 C341 C 0.73140 0.80038 0.59640
 C342 C 0.65458 0.94606 0.48317
 C343 C 0.76846 0.79988 0.40733
 C344 C 0.84396 0.94708 0.51948
 C345 C 0.01464 0.20400 0.42920
 H346 H 0.03708 0.22081 0.43184
 C347 C 0.01004 0.17633 0.45188
 H348 H 0.02900 0.17220 0.47211
 C349 C -0.03794 0.18997 0.40032
 H350 H -0.05677 0.19555 0.38043
 C351 C -0.04351 0.16196 0.42235
 H352 H -0.06635 0.14587 0.41866
 N353 N -0.00905 0.21013 0.40389
 C354 C 0.04334 0.26451 0.31999
 H355 H 0.02608 0.28634 0.31701
 C356 C 0.07137 0.26021 0.29736
 H357 H 0.07530 0.27875 0.27679
 C358 C 0.05819 0.21324 0.34977
 H359 H 0.05282 0.19482 0.37002
 C360 C 0.08662 0.20801 0.32782
 H361 H 0.10320 0.18584 0.33192
 Zn362 Zn -0.00149 0.24878 0.37486
 N363 N 0.03746 0.24134 0.34573
 C364 C 0.03483 0.30817 0.39886
 N365 N 0.00637 0.28760 0.40351
 C366 C -0.01676 0.29362 0.42947
 C367 C -0.01197 0.32157 0.45176
 C368 C 0.04046 0.33657 0.42035
 C369 C -0.04723 0.23295 0.32081
 C370 C -0.07502 0.23786 0.29813
 C371 C -0.08870 0.29089 0.32797
 C372 C -0.06058 0.28502 0.35000
 N373 N -0.04066 0.25629 0.34622
 H374 H 0.05331 0.30260 0.37856
 H375 H -0.03898 0.27663 0.43281
 H376 H -0.03084 0.32621 0.47206
 H377 H 0.06331 0.35261 0.41637
 H378 H -0.03059 0.21063 0.31801
 H379 H -0.07944 0.21924 0.27775
 H380 H -0.10454 0.31366 0.33177
 H381 H -0.05466 0.30355 0.36999
 C382 C 0.09356 0.23170 0.30117
 C383 C -0.01934 0.15480 0.44859
 C384 C -0.09621 0.26719 0.30153
 C385 C 0.01687 0.34354 0.44720
 C386 C -0.01469 0.70642 0.07108
 H387 H -0.03661 0.72367 0.06821
 C388 C -0.01071 0.67857 0.04855
 H389 H -0.02960 0.67478 0.02816
 C390 C 0.03713 0.69131 0.10056
 H391 H 0.05587 0.69647 0.12067
 C392 C 0.04201 0.66305 0.07873
 H393 H 0.06423 0.64641 0.08283
 N394 N 0.00891 0.71209 0.09663
 C395 C -0.04288 0.76606 0.18094
 H396 H -0.02587 0.78820 0.18388
 C397 C -0.07078 0.76117 0.20369
 H398 H -0.07490 0.77961 0.22428
 C399 C -0.05724 0.71450 0.15119
 H400 H -0.05173 0.69618 0.13092
 C401 C -0.08546 0.70865 0.17328
 H402 H -0.10174 0.68613 0.16925
 Zn403 Zn 0.00203 0.75068 0.12580
 N404 N -0.03681 0.74301 0.15516
 C405 C -0.03380 0.81028 0.10208
 N406 N -0.00561 0.78960 0.09725
 C407 C 0.01724 0.79535 0.07094
 C408 C 0.01239 0.82304 0.04841
 C409 C -0.03948 0.83843 0.08031
 C410 C 0.04763 0.73459 0.17973
 C411 C 0.07622 0.73866 0.20163
 C412 C 0.09194 0.79047 0.17047
 C413 C 0.06294 0.78550 0.14928
 N414 N 0.04167 0.75772 0.15403
 H415 H -0.05207 0.80493 0.12264
 H416 H 0.03922 0.77826 0.06744
 H417 H 0.03101 0.82739 0.02778
 H418 H -0.06218 0.85449 0.08437
 H419 H 0.03000 0.71299 0.18325
 H420 H 0.08017 0.72021 0.22222
 H421 H 0.10889 0.81240 0.16580
 H422 H 0.05756 0.80384 0.12902
 C423 C -0.09257 0.73215 0.20000
 C424 C 0.01789 0.65631 0.05230
 C425 C 0.09892 0.76688 0.19712
 C426 C -0.01625 0.84504 0.05302
 C427 C 0.48527 0.20402 0.57031
 H428 H 0.46306 0.22088 0.56723
 C429 C 0.48985 0.17614 0.54793
 H430 H 0.47113 0.17190 0.52747
 C431 C 0.53727 0.19005 0.60001
 H432 H 0.55588 0.19570 0.62013
 C433 C 0.54281 0.16181 0.57830
 H434 H 0.56539 0.14567 0.58247
 N435 N 0.50868 0.21029 0.59589
 C436 C 0.45656 0.26481 0.67963
 H437 H 0.47396 0.28665 0.68266
 C438 C 0.42852 0.26039 0.70229
 H439 H 0.42423 0.27918 0.72254
 C440 C 0.44108 0.21380 0.64944
 H441 H 0.44633 0.19541 0.62917
 C442 C 0.41259 0.20853 0.67136
 H443 H 0.39618 0.18601 0.66772
 Zn444 Zn 0.50128 0.24914 0.62465
 N445 N 0.46216 0.24180 0.65370
 C446 C 0.46565 0.30856 0.60045
 N447 N 0.49383 0.28785 0.59578
 C448 C 0.51687 0.29359 0.56963
 C449 C 0.51224 0.32134 0.54713
 C450 C 0.46019 0.33678 0.57873
 C451 C 0.54631 0.23374 0.67925
 C452 C 0.57437 0.23840 0.70171
 C453 C 0.58986 0.29032 0.67060
 C454 C 0.56137 0.28479 0.64888
 N455 N 0.54048 0.25668 0.65334
 H456 H 0.44725 0.30323 0.62092
 H457 H 0.53887 0.27650 0.56629
 H458 H 0.53102 0.32573 0.52666
 H459 H 0.43752 0.35290 0.58271
 H460 H 0.52906 0.21180 0.68244
 H461 H 0.57884 0.21968 0.72196
 H462 H 0.60610 0.31295 0.66681
 H463 H 0.55594 0.30309 0.62859
 C464 C 0.40604 0.23200 0.69819
 C465 C 0.51893 0.15452 0.55180
 C466 C 0.59664 0.26695 0.69744
 C467 C 0.48365 0.34343 0.55165
 C468 C 0.51355 0.70706 0.93169
 H469 H 0.53594 0.72390 0.93459
 C470 C 0.50876 0.67934 0.95426
 H471 H 0.52750 0.67519 0.97469
 C472 C 0.46136 0.69293 0.90217
 H473 H 0.44277 0.69845 0.88205
 C474 C 0.45559 0.66488 0.92410
 H475 H 0.43285 0.64873 0.92011
 N476 N 0.49018 0.71312 0.90607
 C477 C 0.54360 0.76655 0.82222
 H478 H 0.52648 0.78842 0.81885
 C479 C 0.57167 0.76172 0.79974
 H480 H 0.57629 0.78022 0.77927
 C481 C 0.55824 0.71578 0.85301
 H482 H 0.55261 0.69760 0.87341
 C483 C 0.58678 0.71013 0.83131
 H484 H 0.60287 0.68757 0.83525
 Zn485 Zn 0.49815 0.75154 0.87684
 N486 N 0.53753 0.74382 0.84833
 C487 C 0.53397 0.81122 0.90092
 N488 N 0.50546 0.79065 0.90526
 C489 C 0.48185 0.79686 0.93075
 C490 C 0.48621 0.82499 0.95289
 C491 C 0.53920 0.83977 0.92233
 C492 C 0.45325 0.73503 0.82231
 C493 C 0.42560 0.73947 0.79937
 C494 C 0.41126 0.79270 0.82854
 C495 C 0.43924 0.78729 0.85085
 N496 N 0.45939 0.75866 0.84756
 H497 H 0.55279 0.80551 0.88098
 H498 H 0.45959 0.77988 0.93382
 H499 H 0.46697 0.82975 0.97282
 H500 H 0.56215 0.85575 0.91867
 H501 H 0.47006 0.71279 0.81991
 H502 H 0.42146 0.72059 0.77917
 H503 H 0.39519 0.81537 0.83198
 H504 H 0.44483 0.80606 0.87071
 C505 C 0.59373 0.73324 0.80423
 C506 C 0.47949 0.65772 0.95057
 C507 C 0.40413 0.76864 0.80232
 C508 C 0.51515 0.84693 0.94873
 C509 C 0.16098 0.18849 0.24387
 C510 C 0.18060 0.21686 0.23219
 C511 C 0.17155 0.25012 0.24332
 C512 C 0.14340 0.25495 0.26575
 C513 C 0.12360 0.22659 0.27741
 C514 C 0.13272 0.19329 0.26616
 H515 H 0.16730 0.16264 0.23533
 H516 H 0.18658 0.27231 0.23490
 H517 H 0.13744 0.28087 0.27435
 H518 H 0.11770 0.17096 0.27416
 C519 C 0.64781 0.72591 0.72253
 C520 C 0.68047 0.71614 0.73561
 C521 C 0.68441 0.71212 0.77144
 C522 C 0.65624 0.71759 0.79370
 C523 C 0.62363 0.72748 0.78062
 C524 C 0.61972 0.73168 0.74481
 H525 H 0.64401 0.72880 0.69500
 H526 H 0.70940 0.70497 0.78217
 H527 H 0.66007 0.71455 0.82122
 H528 H 0.59477 0.73886 0.73400
 C529 C 0.33907 0.81251 0.74322
 C530 C 0.31854 0.78454 0.73221
 C531 C 0.32635 0.75127 0.74422
 C532 C 0.35408 0.74608 0.76695
 C533 C 0.37467 0.77408 0.77807
 C534 C 0.36687 0.80735 0.76585
 H535 H 0.33373 0.83833 0.73397
 H536 H 0.31063 0.72940 0.73629
 H537 H 0.35906 0.72022 0.77626
 H538 H 0.38256 0.82937 0.77341
 C539 C -0.16081 0.31241 0.24294
 C540 C -0.18153 0.28476 0.23149
 C541 C -0.17411 0.25128 0.24317
 C542 C -0.14651 0.24557 0.26593
 C543 C -0.12567 0.27322 0.27742
 C544 C -0.13314 0.30672 0.26560
 H545 H -0.16586 0.33838 0.23396
 H546 H -0.18998 0.22964 0.23491
 H547 H -0.14179 0.21954 0.27493
 H548 H -0.11726 0.32850 0.27345
 C549 C -0.17098 0.74854 0.25774
 C550 C -0.17941 0.71505 0.26890
 C551 C -0.15905 0.68724 0.25747
 C552 C -0.13083 0.69280 0.23526
 C553 C -0.12241 0.72630 0.22390
 C554 C -0.14281 0.75413 0.23544
 H555 H -0.18653 0.77032 0.26599
 H556 H -0.16485 0.66125 0.26607
 H557 H -0.11530 0.67088 0.22736
 H558 H -0.13737 0.78017 0.22678
 C559 C 0.31514 0.21148 0.73125
 C560 C 0.31906 0.21612 0.76701
 C561 C 0.35173 0.22627 0.77996
 C562 C 0.37990 0.23167 0.75762
 C563 C 0.37604 0.22675 0.72188
 C564 C 0.34337 0.21661 0.70894
 H565 H 0.29013 0.20403 0.72063
 H566 H 0.35549 0.22966 0.80745
 H567 H 0.40489 0.23907 0.76835
 H568 H 0.33953 0.21306 0.68147
 C569 C 0.68745 0.28816 0.72992
 C570 C 0.68372 0.28320 0.76567
 C571 C 0.65115 0.27282 0.77883
 C572 C 0.62294 0.26736 0.75668
 C573 C 0.62664 0.27245 0.72094
 C574 C 0.65918 0.28295 0.70780
 H575 H 0.71236 0.29586 0.71913
 H576 H 0.64750 0.26926 0.80632
 H577 H 0.59805 0.25973 0.76758
 H578 H 0.66290 0.28666 0.68032
 C579 C 0.17699 0.74822 0.25433
 C580 C 0.18667 0.78149 0.26514
 C581 C 0.16768 0.80995 0.25306
 C582 C 0.13930 0.80522 0.23100
 C583 C 0.12940 0.77191 0.22029
 C584 C 0.14871 0.74346 0.23210
 H585 H 0.19152 0.72594 0.26299
 H586 H 0.17443 0.83584 0.26128
 H587 H 0.12470 0.82764 0.22288
 H588 H 0.14219 0.71752 0.22389
 C589 C 0.24731 0.17791 0.24776
 C590 C 0.23348 0.18373 0.21480
 C591 C 0.24283 0.16173 0.18758
 C592 C 0.26536 0.13408 0.19330
 C593 C 0.27930 0.12807 0.22633
 C594 C 0.27014 0.15049 0.25345
 H595 H 0.24062 0.19484 0.26898
 H596 H 0.23213 0.16567 0.16205
 H597 H 0.27129 0.11702 0.17196
 H598 H 0.28085 0.14706 0.27905
 C599 C 0.76893 0.68547 0.71366
 C600 C 0.73280 0.68158 0.71847
 C601 C 0.71959 0.64932 0.72891
 C602 C 0.74204 0.62152 0.73434
 C603 C 0.77813 0.62533 0.72914
 C604 C 0.79134 0.65760 0.71878
 H605 H 0.77977 0.71016 0.70602
 H606 H 0.69182 0.64558 0.73245
 H607 H 0.73111 0.59683 0.74191
 H608 H 0.81909 0.66136 0.71499
 C609 C 0.77217 0.31417 0.78508
 C610 C 0.73585 0.31807 0.78287
 C611 C 0.72212 0.35067 0.77502
 C612 C 0.74427 0.37887 0.76948
 C613 C 0.78065 0.37505 0.77169
 C614 C 0.79435 0.34236 0.77955
 H615 H 0.78330 0.28917 0.79078
 H616 H 0.69418 0.35432 0.77353
 H617 H 0.73288 0.40380 0.76402
 H618 H 0.82225 0.33846 0.78096
 C619 C 0.24025 -0.15861 0.30887
 C620 C 0.23861 -0.18473 0.28388
 C621 C 0.25918 -0.18220 0.25402
 C622 C 0.28133 -0.15383 0.24924
 C623 C 0.28243 -0.12731 0.27390
 C624 C 0.26171 -0.12984 0.30372
 H625 H 0.22435 -0.16029 0.33195
 H626 H 0.25807 -0.20228 0.23460
 H627 H 0.29702 -0.15217 0.22601
 H628 H 0.26228 -0.10959 0.32300
 C629 C 0.25467 -0.17313 0.74767
 C630 C 0.26648 -0.18130 0.71433
 C631 C 0.25567 -0.16094 0.68640
 C632 C 0.23358 -0.13282 0.69170
 C633 C 0.22175 -0.12454 0.72508
 C634 C 0.23250 -0.14509 0.75299
 H635 H 0.26243 -0.18870 0.76953
 H636 H 0.26478 -0.16656 0.66053
 H637 H 0.22624 -0.11722 0.66972
 H638 H 0.22342 -0.13977 0.77893
 C639 C 0.75488 0.32765 0.24671
 C640 C 0.76686 0.31956 0.21342
 C641 C 0.75626 0.34006 0.18549
 C642 C 0.73414 0.36817 0.19076
 C643 C 0.72210 0.37633 0.22409
 C644 C 0.73270 0.35569 0.25200
 H645 H 0.76246 0.31198 0.26857
 H646 H 0.76549 0.33451 0.15965
 H647 H 0.72692 0.38384 0.16879
 H648 H 0.72346 0.36092 0.27790
 C649 C 0.75688 0.65978 0.31357
 C650 C 0.76807 0.68050 0.28592
 C651 C 0.75635 0.67281 0.25247
 C652 C 0.73381 0.64497 0.24676
 C653 C 0.72260 0.62412 0.27441
 C654 C 0.73445 0.63185 0.30788
 H655 H 0.76590 0.66504 0.33951
 H656 H 0.76441 0.68866 0.23083
 H657 H 0.72476 0.64007 0.22076
 H658 H 0.72682 0.61600 0.32966
 C659 C 0.28048 0.14893 0.77479
 C660 C 0.26698 0.18113 0.78468
 C661 C 0.23078 0.18456 0.78913
 C662 C 0.20857 0.15635 0.78397
 C663 C 0.22207 0.12420 0.77393
 C664 C 0.25825 0.12080 0.76932
 H665 H 0.30831 0.14553 0.77156
 H666 H 0.21971 0.20920 0.79637
 H667 H 0.18075 0.15980 0.78731
 H668 H 0.26940 0.09621 0.76201
 C669 C 0.18623 0.24507 0.15986
 C670 C 0.21475 0.23448 0.17984
 C671 C 0.24832 0.24609 0.17095
 C672 C 0.25328 0.26800 0.14272
 C673 C 0.22476 0.27867 0.12266
 C674 C 0.19117 0.26689 0.13154
 H675 H 0.16017 0.23609 0.16600
 H676 H 0.27065 0.23847 0.18618
 H677 H 0.27941 0.27703 0.13692
 H678 H 0.16873 0.27413 0.11630
 C679 C 0.72531 0.71948 0.65119
 C680 C 0.71523 0.73293 0.68339
 C681 C 0.71066 0.76875 0.68678
 C682 C 0.71582 0.79062 0.65853
 C683 C 0.72598 0.77716 0.62637
 C684 C 0.73079 0.74138 0.62302
 H685 H 0.72863 0.69195 0.64782
 H686 H 0.70327 0.77977 0.71140
 H687 H 0.71233 0.81814 0.66194
 H688 H 0.73822 0.73029 0.59843
 C689 C 0.81369 0.74294 0.34130
 C690 C 0.78563 0.73201 0.32077
 C691 C 0.75188 0.74342 0.32885
 C692 C 0.74629 0.76543 0.35689
 C693 C 0.77436 0.77641 0.37753
 C694 C 0.80813 0.76485 0.36942
 H695 H 0.83988 0.73414 0.33576
 H696 H 0.72991 0.73556 0.31316
 H697 H 0.72005 0.77427 0.36209
 H698 H 0.83024 0.77232 0.38511
 C699 C 0.28841 0.26927 -0.18529
 C700 C 0.28402 0.23348 -0.18120
 C701 C 0.27379 0.22055 -0.14881
 C702 C 0.26792 0.24296 -0.12115
 C703 C 0.27245 0.27874 -0.12521
 C704 C 0.28282 0.29166 -0.15755
 H705 H 0.29592 0.27989 -0.21008
 H706 H 0.27063 0.19305 -0.14490
 H707 H 0.26038 0.23225 -0.09640
 H708 H 0.28612 0.31916 -0.16151
 C709 C 0.72965 0.27908 -0.15056
 C710 C 0.71893 0.26596 -0.18267
 C711 C 0.71392 0.23019 -0.18629
 C712 C 0.71910 0.20806 -0.15830
 C713 C 0.72971 0.22120 -0.12616
 C714 C 0.73509 0.25693 -0.12263
 H715 H 0.73337 0.30657 -0.14700
 H716 H 0.70609 0.21940 -0.21088
 H717 H 0.71520 0.18059 -0.16188
 H718 H 0.74286 0.26782 -0.09806
 C719 C 0.25389 0.75349 0.32758
 C720 C 0.22027 0.76384 0.31784
 C721 C 0.19151 0.75225 0.33717
 C722 C 0.19625 0.73059 0.36559
 C723 C 0.22989 0.71995 0.37525
 C724 C 0.25866 0.73168 0.35588
 H725 H 0.27643 0.76196 0.31292
 H726 H 0.16539 0.76035 0.33048
 H727 H 0.17359 0.72258 0.38031
 H728 H 0.28485 0.72358 0.36226
 C729 C 0.25072 0.75538 0.67162
 C730 C 0.28439 0.76685 0.68015
 C731 C 0.31282 0.75553 0.66032
 C732 C 0.30770 0.73317 0.63247
 C733 C 0.27402 0.72154 0.62392
 C734 C 0.24557 0.73293 0.64383
 H735 H 0.22846 0.76352 0.68677
 H736 H 0.33897 0.76435 0.66621
 H737 H 0.33010 0.72539 0.61733
 H738 H 0.21937 0.72406 0.63826
 C739 C 0.81307 0.25658 0.15919
 C740 C 0.78461 0.26783 0.17902
 C741 C 0.75093 0.25655 0.17029
 C742 C 0.74580 0.23434 0.14231
 C743 C 0.77427 0.22302 0.12239
 C744 C 0.80797 0.23446 0.13115
 H745 H 0.83922 0.26527 0.16525
 H746 H 0.72865 0.26465 0.18544
 H747 H 0.71958 0.22560 0.13660
 H748 H 0.83038 0.22672 0.11602
 C749 C 0.47687 0.39717 0.47015
 C750 C 0.46713 0.42953 0.48336
 C751 C 0.46304 0.43339 0.51921
 C752 C 0.46835 0.40544 0.54135
 C753 C 0.47815 0.37311 0.52814
 C754 C 0.48248 0.36929 0.49231
 H755 H 0.47981 0.39343 0.44260
 H756 H 0.45593 0.45815 0.53005
 H757 H 0.46524 0.40921 0.56889
 H758 H 0.48960 0.34456 0.48140
 C759 C -0.02359 0.89813 -0.02885
 C760 C -0.03344 0.93054 -0.01587
 C761 C -0.03753 0.93464 0.01996
 C762 C -0.03205 0.90688 0.04231
 C763 C -0.02206 0.87451 0.02932
 C764 C -0.01782 0.87045 -0.00649
 H765 H -0.02065 0.89421 -0.05638
 H766 H -0.04474 0.95945 0.03062
 H767 H -0.03512 0.91085 0.06982
 H768 H -0.01059 0.84568 -0.01725
 C769 C 0.06033 0.58794 -0.00396
 C770 C 0.03134 0.56873 -0.01507
 C771 C -0.00212 0.57867 -0.00427
 C772 C -0.00649 0.60703 0.01757
 C773 C 0.02251 0.62627 0.02886
 C774 C 0.05598 0.61644 0.01771
 H775 H 0.08633 0.58107 -0.01240
 H776 H -0.02483 0.56409 -0.01236
 H777 H -0.03257 0.61354 0.02606
 H778 H 0.07881 0.63105 0.02537
 C779 C 0.50117 0.07664 0.49478
 C780 C 0.53487 0.06795 0.48362
 C781 C 0.56331 0.08786 0.49494
 C782 C 0.55814 0.11596 0.51696
 C783 C 0.52442 0.12468 0.52827
 C784 C 0.49599 0.10465 0.51692
 H785 H 0.47891 0.06145 0.48660
 H786 H 0.58947 0.08186 0.48633
 H787 H 0.58054 0.13117 0.52471
 H788 H 0.46975 0.11031 0.52554
 C789 C -0.00175 0.07735 0.50601
 C790 C -0.03539 0.06899 0.51779
 C791 C -0.06371 0.08899 0.50677
 C792 C -0.05852 0.11685 0.48442
 C793 C -0.02486 0.12523 0.47248
 C794 C 0.00347 0.10514 0.48355
 H795 H 0.02041 0.06206 0.51392
 H796 H -0.08983 0.08321 0.51584
 H797 H -0.08082 0.13213 0.47689
 H798 H 0.02964 0.11055 0.47444
 C799 C 0.49687 0.57969 1.00722
 C800 C 0.46317 0.57109 1.01864
 C801 C 0.43488 0.59119 1.00772
 C802 C 0.44017 0.61934 0.98576
 C803 C 0.47389 0.62794 0.97416
 C804 C 0.50219 0.60778 0.98518
 H805 H 0.51901 0.56434 1.01508
 H806 H 0.40871 0.58524 1.01652
 H807 H 0.41789 0.63466 0.97825
 H808 H 0.52841 0.61337 0.97631
 C809 C 0.52050 0.90173 1.02968
 C810 C 0.53151 0.93372 1.01638
 C811 C 0.53663 0.93708 0.98061
 C812 C 0.53131 0.90894 0.95865
 C813 C 0.52043 0.87691 0.97198
 C814 C 0.51491 0.87365 1.00771
 H815 H 0.51668 0.89838 1.05718
 H816 H 0.54467 0.96158 0.96968
 H817 H 0.53531 0.91231 0.93118
 H818 H 0.50693 0.84917 1.01874
 C819 C 0.02343 0.39828 0.52806
 C820 C 0.03327 0.43053 0.51449
 C821 C 0.03769 0.43395 0.47864
 C822 C 0.03246 0.40569 0.45681
 C823 C 0.02244 0.37350 0.47037
 C824 C 0.01789 0.37010 0.50621
 H825 H 0.02029 0.39490 0.55564
 H826 H 0.04495 0.45860 0.46755
 H827 H 0.03577 0.40912 0.42925
 H828 H 0.01061 0.34547 0.51738
 C829 C 0.43695 0.51742 0.46226
 C830 C 0.43260 0.48166 0.46666
 C831 C 0.39986 0.46885 0.47696
 C832 C 0.37202 0.49133 0.48269
 C833 C 0.37630 0.52707 0.47797
 C834 C 0.40905 0.53988 0.46771
 H835 H 0.46203 0.52793 0.45470
 H836 H 0.39577 0.44137 0.48017
 H837 H 0.34696 0.48071 0.49017
 H838 H 0.41319 0.56734 0.46430
 C839 C 0.93621 0.01822 -0.03783
 C840 C 0.93195 -0.01750 -0.03304
 C841 C 0.89921 -0.03028 -0.02267
 C842 C 0.87130 -0.00781 -0.01729
 C843 C 0.87548 0.02788 -0.02244
 C844 C 0.90824 0.04066 -0.03273
 H845 H 0.96128 0.02872 -0.04544
 H846 H 0.89519 -0.05773 -0.01916
 H847 H 0.84624 -0.01841 -0.00976
 H848 H 0.91232 0.06809 -0.03645
 C849 C 0.56387 0.02114 0.03838
 C850 C 0.56717 -0.01464 0.03350
 C851 C 0.59958 -0.02798 0.02316
 C852 C 0.62802 -0.00599 0.01759
 C853 C 0.62472 0.02979 0.02255
 C854 C 0.59236 0.04311 0.03306
 H855 H 0.53909 0.03208 0.04605
 H856 H 0.60292 -0.05550 0.01968
 H857 H 0.65277 -0.01702 0.00996
 H858 H 0.58896 0.07062 0.03669
 C859 C 0.10089 0.46952 0.52187
 C860 C 0.06807 0.48273 0.53102
 C861 C 0.06414 0.51859 0.53464
 C862 C 0.09255 0.54075 0.52973
 C863 C 0.12541 0.52752 0.52075
 C864 C 0.12925 0.49170 0.51666
 H865 H 0.10464 0.44195 0.51925
 H866 H 0.03900 0.52940 0.54127
 H867 H 0.08876 0.56829 0.53261
 H868 H 0.15437 0.48078 0.51011
 C869 C 0.07377 0.50486 0.00067
 C870 C 0.06433 0.51565 -0.03260
 C871 C 0.08333 0.50340 -0.06108
 C872 C 0.11152 0.48119 -0.05637
 C873 C 0.12120 0.47050 -0.02305
 C874 C 0.10184 0.48247 0.00541
 H875 H 0.05921 0.51367 0.02296
 H876 H 0.07675 0.51161 -0.08697
 H877 H 0.12617 0.47295 -0.07881
 H878 H 0.10817 0.47427 0.03136
 C879 C 0.57670 1.00408 0.49976
 C880 C 0.56881 1.01564 0.46634
 C881 C 0.58917 1.00415 0.43848
 C882 C 0.61697 0.98162 0.44393
 C883 C 0.62494 0.96997 0.47737
 C884 C 0.60443 0.98145 0.50523
 H885 H 0.56112 1.01236 0.52156
 H886 H 0.58377 1.01302 0.41254
 H887 H 0.63259 0.97376 0.42199
 H888 H 0.60952 0.97256 0.53122
 C889 C 0.90983 1.00573 0.56349
 C890 C 0.93024 1.01690 0.53549
 C891 C 0.92216 1.00508 0.50219
 C892 C 0.89423 0.98240 0.49698
 C893 C 0.87371 0.97116 0.52499
 C894 C 0.88183 0.98314 0.55831
 H895 H 0.91539 1.01482 0.58934
 H896 H 0.93778 1.01312 0.48028
 H897 H 0.88902 0.97326 0.47108
 H898 H 0.86621 0.97547 0.58035
 C899 C 0.42088 0.50745 0.00180
 C900 C 0.42878 0.51870 0.03535
 C901 C 0.40815 0.50712 0.06303
 C902 C 0.38010 0.48474 0.05728
 C903 C 0.37215 0.47334 0.02371
 C904 C 0.39290 0.48496 -0.00397
 H905 H 0.43666 0.51582 -0.01987
 H906 H 0.41356 0.51578 0.08905
 H907 H 0.36431 0.47677 0.07910
 H908 H 0.38783 0.47628 -0.03005
 C909 C 0.47034 0.47411 0.39909
 C910 C 0.48407 0.46390 0.43109
 C911 C 0.52025 0.45923 0.43417
 C912 C 0.54222 0.46453 0.40582
 C913 C 0.52849 0.47491 0.37388
 C914 C 0.49233 0.47971 0.37082
 H915 H 0.44252 0.47751 0.39597
 H916 H 0.53149 0.45174 0.45865
 H917 H 0.57004 0.46103 0.40900
 H918 H 0.48102 0.48729 0.34640
 C919 C -0.03007 -0.02558 0.89955
 C920 C -0.01642 -0.03542 0.93170
 C921 C 0.01977 -0.03988 0.93497
 C922 C 0.04183 -0.03474 0.90666
 C923 C 0.02819 -0.02473 0.87457
 C924 C -0.00798 -0.02014 0.87132
 H925 H -0.05790 -0.02234 0.89628
 H926 H 0.03094 -0.04708 0.95957
 H927 H 0.06965 -0.03806 0.90999
 H928 H -0.01924 -0.01285 0.84677
 C929 C -0.00570 0.00148 0.57759
 C930 C -0.01741 0.03480 0.56952
 C931 C -0.00628 0.06274 0.58984
 C932 C 0.01602 0.05746 0.61780
 C933 C 0.02776 0.02409 0.62597
 C934 C 0.01668 -0.00383 0.60547
 H935 H -0.01370 -0.02038 0.56204
 H936 H -0.01529 0.08860 0.58429
 H937 H 0.02360 0.07944 0.63337
 H938 H 0.02568 -0.02976 0.61071
 C939 C 0.49189 0.56394 0.09069
 C940 C 0.48090 0.53623 0.06999
 C941 C 0.49280 0.50287 0.07758
 C942 C 0.51536 0.49731 0.10529
 C943 C 0.52642 0.52503 0.12609
 C944 C 0.51435 0.55841 0.11847
 H945 H 0.48272 0.58983 0.08551
 H946 H 0.48490 0.48118 0.06174
 H947 H 0.52458 0.47138 0.11010
 H948 H 0.52187 0.58023 0.13430
 C949 C 0.52828 -0.02375 0.10085
 C950 C 0.51466 -0.03142 0.06812
 C951 C 0.47835 -0.03336 0.06391
 C952 C 0.45605 -0.02779 0.09194
 C953 C 0.46963 -0.02020 0.12479
 C954 C 0.50602 -0.01822 0.12890
 H955 H 0.55621 -0.02248 0.10472
 H956 H 0.46731 -0.03892 0.03880
 H957 H 0.42816 -0.02900 0.08779
 H958 H 0.51734 -0.01297 0.15395
 C959 C 0.97967 0.45985 0.56284
 C960 C 1.01575 0.46569 0.56599
 C961 C 1.02898 0.47745 0.59771
 C962 C 1.00664 0.48353 0.62555
 C963 C 0.97066 0.47749 0.62241
 C964 C 0.95738 0.46544 0.59087
 H965 H 0.96876 0.45115 0.53859
 H966 H 1.05670 0.48173 0.60099
 H967 H 1.01754 0.49244 0.64976
 H968 H 0.92968 0.46087 0.58776
 C969 C 0.99223 0.50430 0.93150
 C970 C 1.01244 0.53445 0.93395
 C971 C 1.01024 0.55959 0.90802
 C972 C 0.98859 0.55431 0.87953
 C973 C 0.96827 0.52421 0.87712
 C974 C 0.96992 0.49939 0.90342
 H975 H 0.99376 0.48477 0.95142
 H976 H 1.02586 0.58288 0.90962
 H977 H 0.98761 0.57367 0.85939
 H978 H 0.95450 0.47595 0.90179
 C979 C 0.50760 0.06178 0.41075
 C980 C 0.51716 0.03387 0.43172
 C981 C 0.50417 0.00083 0.42406
 C982 C 0.48185 -0.00419 0.39602
 C983 C 0.47222 0.02373 0.37491
 C984 C 0.48547 0.05677 0.38258
 H985 H 0.51767 0.08740 0.41600
 H986 H 0.51103 -0.02099 0.44011
 H987 H 0.47171 -0.02986 0.39120
 H988 H 0.47915 0.07873 0.36652
   
