data_POSCAR
  _audit_creation_date              2014-09-24
  _audit_creation_method            'ToBaCCo'
  _symmetry_space_group_name_H-M    'P1'
  _symmetry_Int_Tables_number       1
  _symmetry_cell_setting            triclinic
  loop_
  _symmetry_equiv_pos_as_xyz
 x,y,z
_cell_length_a 39.8675
_cell_length_b 23.1022
_cell_length_c 13.9609
_cell_angle_alpha 89.652900
_cell_angle_beta 88.862100
_cell_angle_gamma 89.548800
loop_
  _atom_site_label
  _atom_site_type_symbol
  _atom_site_fract_x
  _atom_site_fract_y
  _atom_site_fract_z
C1 C 0.74133 0.21671 0.54747
 C2 C 0.73659 0.21452 0.45127
 C3 C 0.76219 0.19228 0.38067
 C4 C 0.70402 0.23224 0.41095
 C5 C 0.71349 0.23323 0.61401
 C6 C 0.77370 0.20141 0.59005
 C7 C 0.79574 0.21071 0.37862
 C8 C 0.81858 0.18938 0.30954
 C9 C 0.80801 0.15114 0.23781
 C10 C 0.77405 0.13471 0.23842
 C11 C 0.75178 0.15416 0.30944
 C12 C 0.70240 0.28110 0.35138
 C13 C 0.67220 0.29700 0.30932
 C14 C 0.64315 0.26406 0.32625
 C15 C 0.64501 0.21484 0.38564
 C16 C 0.67527 0.19877 0.42702
 C17 C 0.69425 0.18981 0.65849
 C18 C 0.66444 0.20394 0.70764
 C19 C 0.65400 0.26191 0.71582
 C20 C 0.67441 0.30568 0.67622
 C21 C 0.70379 0.29137 0.62466
 C22 C 0.78465 0.14367 0.59428
 C23 C 0.81687 0.13047 0.62617
 C24 C 0.83858 0.17503 0.65217
 C25 C 0.82717 0.23261 0.64982
 C26 C 0.79471 0.24563 0.62068
 H27 H 0.80430 0.24243 0.42892
 H28 H 0.84417 0.20455 0.31122
 H29 H 0.76452 0.10554 0.18511
 H30 H 0.72609 0.13938 0.30827
 H31 H 0.72459 0.30684 0.33757
 H32 H 0.67171 0.33519 0.26424
 H33 H 0.67638 0.15989 0.47058
 H34 H 0.70140 0.14472 0.65064
 H35 H 0.64920 0.16949 0.73778
 H36 H 0.66681 0.35069 0.68094
 H37 H 0.71832 0.32535 0.59033
 H38 H 0.76854 0.10918 0.57095
 H39 H 0.82526 0.08582 0.62694
 H40 H 0.84348 0.26758 0.66991
 H41 H 0.78654 0.29041 0.61759
 H42 H 0.62312 0.18846 0.39960
 C43 C 0.25645 0.77695 0.45102
 C44 C 0.26219 0.77623 0.54679
 C45 C 0.23780 0.79984 0.61824
 C46 C 0.29481 0.75660 0.58506
 C47 C 0.28324 0.75927 0.38210
 C48 C 0.22412 0.79742 0.41249
 C49 C 0.24827 0.84352 0.68002
 C50 C 0.22646 0.86563 0.75005
 C51 C 0.19356 0.84502 0.75898
 C52 C 0.18300 0.80098 0.69774
 C53 C 0.20517 0.77789 0.62877
 C54 C 0.32393 0.78884 0.56749
 C55 C 0.35436 0.77121 0.60624
 C56 C 0.35611 0.72162 0.66484
 C57 C 0.32674 0.68988 0.68368
 C58 C 0.29630 0.70740 0.64417
 C59 C 0.29245 0.70079 0.37290
 C60 C 0.32212 0.68533 0.32383
 C61 C 0.34331 0.72833 0.28544
 C62 C 0.33323 0.78659 0.29112
 C63 C 0.30314 0.80186 0.33780
 C64 C 0.19942 0.75700 0.39096
 C65 C 0.16728 0.77558 0.36647
 C66 C 0.15966 0.83490 0.35948
 C67 C 0.18493 0.87547 0.37604
 C68 C 0.21689 0.85681 0.40374
 H69 H 0.27342 0.86073 0.67381
 H70 H 0.23522 0.89957 0.79633
 H71 H 0.15790 0.78368 0.70431
 H72 H 0.19700 0.74250 0.58482
 H73 H 0.32299 0.82804 0.52474
 H74 H 0.37647 0.79686 0.59112
 H75 H 0.27387 0.68256 0.65947
 H76 H 0.27753 0.66750 0.40781
 H77 H 0.32945 0.64013 0.32098
 H78 H 0.34911 0.82044 0.26179
 H79 H 0.29657 0.84721 0.34534
 H80 H 0.20464 0.71106 0.39741
 H81 H 0.14824 0.74354 0.35340
 H82 H 0.17956 0.92143 0.37129
 H83 H 0.23575 0.88851 0.42030
 H84 H 0.32721 0.65138 0.72819
 C85 C 0.24034 0.28414 -0.46064
 C86 C 0.23596 0.28211 -0.55787
 C87 C 0.26258 0.30475 -0.62489
 C88 C 0.20391 0.26217 -0.59830
 C89 C 0.21761 0.25522 -0.38835
 C90 C 0.26755 0.31983 -0.42069
 C91 C 0.25525 0.34685 -0.69503
 C92 C 0.28118 0.38000 -0.73703
 C93 C 0.31413 0.37330 -0.70445
 C94 C 0.32155 0.32724 -0.64224
 C95 C 0.29630 0.29113 -0.60777
 C96 C 0.17336 0.28511 -0.56378
 C97 C 0.14305 0.26096 -0.59053
 C98 C 0.14241 0.21391 -0.65414
 C99 C 0.17310 0.19346 -0.69361
 C100 C 0.20357 0.21755 -0.66598
 C101 C 0.20311 0.20089 -0.40499
 C102 C 0.18194 0.17525 -0.33605
 C103 C 0.17681 0.20123 -0.24592
 C104 C 0.19276 0.25380 -0.22736
 C105 C 0.21203 0.28111 -0.29830
 C106 C 0.29266 0.29411 -0.36532
 C107 C 0.31732 0.32823 -0.32440
 C108 C 0.31667 0.38867 -0.33642
 C109 C 0.29153 0.41418 -0.39208
 C110 C 0.26726 0.38002 -0.43426
 H111 H 0.22947 0.35724 -0.71146
 H112 H 0.27490 0.41498 -0.78569
 H113 H 0.34693 0.32006 -0.61813
 H114 H 0.30277 0.25669 -0.55835
 H115 H 0.17307 0.32037 -0.51297
 H116 H 0.12009 0.27881 -0.55976
 H117 H 0.22692 0.19967 -0.69414
 H118 H 0.20825 0.17781 -0.47085
 H119 H 0.17084 0.13389 -0.35214
 H120 H 0.18939 0.27516 -0.15891
 H121 H 0.22274 0.32274 -0.28197
 H122 H 0.29303 0.24770 -0.35378
 H123 H 0.33616 0.30749 -0.28091
 H124 H 0.29046 0.46066 -0.40225
 H125 H 0.24783 0.40052 -0.47604
 H126 H 0.17387 0.15793 -0.74372
 C127 C -0.23726 0.72058 -0.45159
 C128 C -0.24200 0.72433 -0.54758
 C129 C -0.21966 0.75748 -0.61379
 C130 C -0.26749 0.68813 -0.59377
 C131 C -0.26000 0.68464 -0.39146
 C132 C -0.20769 0.74631 -0.40552
 C133 C -0.23402 0.79513 -0.68080
 C134 C -0.21405 0.82318 -0.74948
 C135 C -0.17902 0.81503 -0.75190
 C136 C -0.16459 0.77741 -0.68416
 C137 C -0.18480 0.74800 -0.61726
 C138 C -0.30117 0.70562 -0.59881
 C139 C -0.32441 0.67091 -0.64542
 C140 C -0.31422 0.61804 -0.68729
 C141 C -0.28036 0.60080 -0.68023
 C142 C -0.25732 0.63560 -0.63454
 C143 C -0.25313 0.62569 -0.37764
 C144 C -0.27598 0.59072 -0.32781
 C145 C -0.30675 0.61358 -0.29340
 C146 C -0.31356 0.67293 -0.30797
 C147 C -0.29023 0.70814 -0.35595
 C148 C -0.18208 0.70966 -0.37305
 C149 C -0.15207 0.73248 -0.34123
 C150 C -0.14727 0.79252 -0.33873
 C151 C -0.17351 0.82962 -0.36641
 C152 C -0.20344 0.80658 -0.40075
 H153 H -0.26088 0.80246 -0.68056
 H154 H -0.22617 0.85177 -0.80016
 H155 H -0.13787 0.76898 -0.68434
 H156 H -0.17321 0.71687 -0.56989
 H157 H -0.30930 0.74625 -0.56745
 H158 H -0.35015 0.68579 -0.64873
 H159 H -0.23138 0.62158 -0.63095
 H160 H -0.23052 0.60626 -0.40774
 H161 H -0.26991 0.54524 -0.31903
 H162 H -0.33674 0.69256 -0.28230
 H163 H -0.29611 0.75347 -0.36754
 H164 H -0.18445 0.66317 -0.37710
 H165 H -0.13231 0.70296 -0.31981
 H166 H -0.17032 0.87613 -0.36541
 H167 H -0.22290 0.83552 -0.42592
 H168 H -0.27134 0.56054 -0.71110
 O169 O 0.06872 0.90782 -0.12153
 O170 O 0.09059 0.96368 -0.00310
 C171 C 0.09358 0.92631 -0.07158
 O172 O -0.02860 1.10820 -0.19948
 O173 O -0.07102 1.04713 -0.15336
 C174 C -0.05937 1.09073 -0.20246
 O175 O 0.06171 1.10621 -0.13171
 O176 O 0.08733 1.06059 -0.00611
 C177 C 0.08747 1.09570 -0.07872
 O178 O -0.02140 0.89000 -0.19080
 O179 O -0.06820 0.94301 -0.14814
 C180 C -0.05333 0.90138 -0.19490
 Zr181 Zr 0.01702 0.93002 -0.11267
 O182 O 0.03015 0.93094 -0.26042
 O183 O 0.02486 0.83939 -0.10826
 Zr184 Zr 0.01189 1.07501 -0.12092
 O185 O 0.02493 1.06826 -0.26840
 O186 O 0.01367 1.16613 -0.13291
 O187 O 0.04494 1.00567 -0.10711
 O188 O -0.01137 0.99941 -0.16007
 O189 O -0.06031 0.89597 0.12295
 O190 O -0.08643 0.94636 0.00315
 C191 C -0.08645 0.90886 0.07242
 O192 O 0.02045 1.11139 0.19900
 O193 O 0.06792 1.06274 0.14899
 C194 C 0.05245 1.10099 0.20170
 O195 O -0.06786 1.10261 0.11337
 O196 O -0.08970 1.04425 -0.00174
 C197 C -0.09271 1.08321 0.06425
 O198 O 0.02805 0.90726 0.21045
 O199 O 0.07153 0.96336 0.15507
 C200 C 0.05904 0.92402 0.21184
 Zr201 Zr -0.01105 0.93100 0.11726
 O202 O -0.03148 0.93039 0.25838
 O203 O -0.00482 0.83990 0.12169
 Zr204 Zr -0.01651 1.07697 0.10938
 O205 O -0.03670 1.07759 0.25080
 O206 O -0.01716 1.16864 0.10458
 Zr207 Zr 0.04745 1.00886 0.04379
 Zr208 Zr -0.04669 0.99805 -0.04643
 O209 O -0.04298 1.00095 0.10381
 O210 O 0.01230 1.00734 0.15850
 O211 O -0.02475 0.91588 -0.02349
 O212 O 0.02460 1.08994 0.01938
 O213 O 0.03085 0.92308 0.02879
 O214 O -0.03076 1.08431 -0.03269
 H215 H -0.01997 0.99773 -0.22613
 H216 H 0.03748 1.12575 0.02986
 H217 H -0.06338 0.99961 0.14532
 H218 H 0.04628 0.89048 0.04325
 H219 H -0.00098 1.18169 -0.08117
 H220 H -0.03342 1.18067 0.05550
 H221 H -0.02089 1.05609 0.29187
 H222 H -0.01807 0.95717 0.29686
 H223 H -0.01991 0.82318 0.07388
 H224 H 0.00508 0.82229 -0.07540
 H225 H 0.05075 0.95419 -0.26844
 H226 H 0.04831 1.05372 -0.27343
 O227 O 0.43485 0.43708 0.18199
 O228 O 0.41037 0.50364 0.08240
 C229 C 0.40952 0.46798 0.15477
 O230 O 0.56322 0.57052 0.16893
 O231 O 0.58724 0.49390 0.08884
 C232 C 0.58858 0.53692 0.14758
 O233 O 0.47312 0.62314 0.16701
 O234 O 0.42915 0.59300 0.07666
 C235 C 0.44194 0.62565 0.14135
 O236 O 0.52036 0.37212 0.17728
 O237 O 0.56750 0.40007 0.09318
 C238 C 0.55208 0.36792 0.15626
 Zr239 Zr 0.48372 0.42991 0.12458
 O240 O 0.48393 0.42441 0.27578
 O241 O 0.46110 0.34732 0.11951
 Zr242 Zr 0.51292 0.56732 0.12068
 O243 O 0.51371 0.56665 0.27231
 O244 O 0.52763 0.65517 0.11752
 O245 O 0.47019 0.51695 0.13899
 O246 O 0.52528 0.48125 0.14338
 O247 O 0.52566 0.36612 -0.15517
 O248 O 0.57024 0.39817 -0.06901
 C249 C 0.55691 0.36360 -0.13002
 O250 O 0.47952 0.61609 -0.18187
 O251 O 0.43268 0.59110 -0.09362
 C252 C 0.44776 0.62032 -0.16136
 O253 O 0.56837 0.56555 -0.16108
 O254 O 0.58979 0.49051 -0.07280
 C255 C 0.59292 0.53226 -0.13441
 O256 O 0.43790 0.42911 -0.17312
 O257 O 0.41306 0.50310 -0.08780
 C258 C 0.41267 0.46325 -0.15258
 Zr259 Zr 0.48702 0.42609 -0.11583
 O260 O 0.49259 0.42089 -0.26666
 O261 O 0.46508 0.34294 -0.11125
 Zr262 Zr 0.51678 0.56314 -0.12053
 O263 O 0.52297 0.55820 -0.27117
 O264 O 0.53104 0.65122 -0.12383
 Zr265 Zr 0.45316 0.52710 -0.00227
 Zr266 Zr 0.54694 0.46615 0.00701
 O267 O 0.52936 0.47668 -0.13325
 O268 O 0.47429 0.51259 -0.13982
 O269 O 0.51136 0.39906 0.00759
 O270 O 0.48941 0.59289 -0.00335
 O271 O 0.45562 0.43618 0.00246
 O272 O 0.54524 0.55742 0.00256
 H273 H 0.53851 0.47312 0.20138
 H274 H 0.48182 0.63382 -0.00665
 H275 H 0.54442 0.46685 -0.18816
 H276 H 0.43429 0.41446 0.00286
 H277 H 0.54870 0.65760 0.07920
 H278 H 0.55096 0.65501 -0.08333
 H279 H 0.50145 0.54535 -0.29755
 H280 H 0.48016 0.45397 -0.29446
 H281 H 0.47935 0.31792 -0.07090
 H282 H 0.47808 0.31955 0.09450
 H283 H 0.48011 0.46406 0.30000
 H284 H 0.49043 0.56082 0.29612
 N285 N 0.38276 0.46364 0.30800
 N286 N 0.35803 0.43471 0.34962
 C287 C 0.33842 0.41555 0.27932
 C288 C 0.35204 0.43405 0.19228
 N289 N 0.37999 0.46368 0.21371
 H290 H 0.34561 0.41923 0.12156
 N291 N -0.14658 0.89902 0.05894
 N292 N -0.17220 0.87565 0.10629
 C293 C -0.15937 0.84404 0.17874
 C294 C -0.12473 0.84851 0.17344
 N295 N -0.11793 0.88332 0.09808
 H296 H -0.10636 0.83141 0.22239
 N297 N 0.64621 0.51146 0.17928
 N298 N 0.67274 0.53200 0.22252
 C299 C 0.66348 0.58269 0.26317
 C300 C 0.62985 0.59238 0.24343
 N301 N 0.62026 0.54691 0.19078
 H302 H 0.61416 0.62912 0.26275
 N303 N 0.05826 1.17386 0.32439
 N304 N 0.08181 1.20578 0.36287
 C305 C 0.11153 1.18847 0.32421
 C306 C 0.10525 1.14389 0.26096
 N307 N 0.07177 1.13637 0.26340
 H308 H 0.12280 1.12087 0.21465
 N309 N 0.56826 0.27001 -0.20445
 N310 N 0.59378 0.24136 -0.24458
 C311 C 0.62088 0.27589 -0.24024
 C312 C 0.61117 0.32662 -0.19546
 N313 N 0.57828 0.32108 -0.17425
 H314 H 0.62626 0.36434 -0.18168
 N315 N 0.15369 0.92131 -0.04845
 N316 N 0.18097 0.90058 -0.09194
 C317 C 0.17068 0.87038 -0.16823
 C318 C 0.13610 0.87311 -0.17003
 N319 N 0.12657 0.90538 -0.09431
 H320 H 0.11968 0.85636 -0.22393
 N321 N 0.44204 0.69832 -0.27711
 N322 N 0.41841 0.72598 -0.32484
 C323 C 0.38874 0.70360 -0.29565
 C324 C 0.39500 0.66132 -0.22742
 N325 N 0.42851 0.65956 -0.21817
 H326 H 0.37726 0.63370 -0.18981
 N327 N -0.07403 1.17429 -0.29932
 N328 N -0.10080 1.19876 -0.33746
 C329 C -0.12661 1.16240 -0.32108
 C330 C -0.11483 1.11469 -0.27170
 N331 N -0.08193 1.12390 -0.25960
 H332 H -0.12899 1.07842 -0.24341
 N333 N 0.64943 0.50125 -0.17819
 N334 N 0.67678 0.52174 -0.22119
 C335 C 0.67008 0.57712 -0.24645
 C336 C 0.63733 0.58969 -0.21789
 N337 N 0.62552 0.54125 -0.17597
 H338 H 0.62328 0.62956 -0.22645
 N339 N 0.13278 1.15954 -0.03757
 N340 N 0.15646 1.19032 -0.08138
 C341 C 0.15625 1.17588 -0.17503
 C342 C 0.13148 1.13522 -0.18715
 N343 N 0.11754 1.12648 -0.09996
 H344 H 0.12298 1.11639 -0.25311
 N345 N 0.35996 0.49951 -0.21358
 N346 N 0.33419 0.48150 -0.26341
 C347 C 0.34058 0.42582 -0.28659
 C348 C 0.37135 0.41032 -0.24982
 N349 N 0.38246 0.45750 -0.20484
 H350 H 0.38411 0.36884 -0.25351
 N351 N -0.06087 0.81592 -0.29144
 N352 N -0.08519 0.78537 -0.32906
 C353 C -0.11407 0.81474 -0.31254
 C354 C -0.10662 0.86479 -0.26346
 N355 N -0.07313 0.86363 -0.25158
 H356 H -0.12389 0.89712 -0.23523
 N357 N 0.43018 0.71799 0.21906
 N358 N 0.40425 0.74711 0.25584
 C359 C 0.37700 0.71339 0.24677
 C360 C 0.38706 0.66259 0.20282
 N361 N 0.42031 0.66730 0.18677
 H362 H 0.37189 0.62559 0.18533
 N363 N -0.15295 1.08032 0.04871
 N364 N -0.18039 1.09657 0.09634
 C365 C -0.17066 1.12982 0.16998
 C366 C -0.13592 1.13390 0.16462
 N367 N -0.12603 1.10213 0.08845
 H368 H -0.11920 1.15384 0.21461
 N369 N 0.55759 0.28492 0.26233
 N370 N 0.58116 0.25641 0.30903
 C371 C 0.61073 0.28094 0.28440
 C372 C 0.60450 0.32529 0.22002
 N373 N 0.57113 0.32621 0.20846
 H374 H 0.62211 0.35530 0.18741
 N375 N 0.07136 0.84964 0.32956
 N376 N 0.09759 0.82396 0.36863
 C377 C 0.12499 0.85331 0.33871
 C378 C 0.11465 0.89826 0.28007
 N379 N 0.08099 0.89423 0.27604
 H380 H 0.13016 0.92814 0.23924
   
