data_POSCAR
  _audit_creation_date              2014-09-24
  _audit_creation_method            'ToBaCCo'
  _symmetry_space_group_name_H-M    'P1'
  _symmetry_Int_Tables_number       1
  _symmetry_cell_setting            triclinic
  loop_
  _symmetry_equiv_pos_as_xyz
 x,y,z
_cell_length_a 26.3868
_cell_length_b 26.1294
_cell_length_c 32.1868
_cell_angle_alpha 90.350600
_cell_angle_beta 91.682200
_cell_angle_gamma 89.631500
loop_
  _atom_site_label
  _atom_site_type_symbol
  _atom_site_fract_x
  _atom_site_fract_y
  _atom_site_fract_z
C1 C -0.00795 0.50481 0.98111
 C2 C -0.00040 0.50882 1.02309
 C3 C 0.00568 0.55895 1.04445
 C4 C 0.00131 0.46327 1.05050
 C5 C -0.01503 0.45425 0.96044
 C6 C -0.00941 0.55057 0.95384
 C7 C 0.04933 0.56795 1.06908
 C8 C 0.05498 0.61374 1.09113
 C9 C 0.01679 0.65171 1.08960
 C10 C -0.02715 0.64239 1.06442
 C11 C -0.03254 0.59640 1.04228
 C12 C 0.03612 0.42322 1.04449
 C13 C 0.03666 0.38060 1.07060
 C14 C 0.00268 0.37771 1.10344
 C15 C -0.03085 0.41861 1.11007
 C16 C -0.03166 0.46088 1.08381
 C17 C -0.05403 0.42123 0.97169
 C18 C -0.05757 0.37219 0.95424
 C19 C -0.02288 0.35558 0.92467
 C20 C 0.01540 0.38936 0.91271
 C21 C 0.01897 0.43829 0.93025
 C22 C -0.05127 0.55853 0.92673
 C23 C -0.05427 0.60214 0.90188
 C24 C -0.01565 0.63884 0.90375
 C25 C 0.02718 0.63002 0.92993
 C26 C 0.03034 0.58610 0.95455
 H27 H 0.07913 0.53929 1.07129
 H28 H 0.08938 0.61904 1.10989
 H29 H -0.05797 0.66958 1.06154
 H30 H -0.06689 0.58969 1.02384
 H31 H 0.06291 0.42506 1.01970
 H32 H 0.06426 0.35063 1.06541
 H33 H -0.05842 0.49163 1.08925
 H34 H -0.08103 0.43309 0.99460
 H35 H -0.08731 0.34700 0.96408
 H36 H 0.04378 0.37779 0.89094
 H37 H 0.04941 0.46318 0.92131
 H38 H -0.08211 0.53135 0.92535
 H39 H -0.08731 0.60764 0.88158
 H40 H 0.05861 0.65640 0.93105
 H41 H 0.06375 0.57990 0.97427
 H42 H -0.05700 0.41756 1.13538
 C43 C 0.50232 -0.02245 0.47736
 C44 C 0.50072 -0.01595 0.51938
 C45 C 0.45213 -0.00903 0.54089
 C46 C 0.54748 -0.01469 0.54625
 C47 C 0.55105 -0.03011 0.45614
 C48 C 0.45565 -0.02157 0.45031
 C49 C 0.44446 0.03526 0.56474
 C50 C 0.39883 0.04308 0.58471
 C51 C 0.36022 0.00644 0.58187
 C52 C 0.36807 -0.03828 0.55814
 C53 C 0.41381 -0.04601 0.53802
 C54 C 0.58668 0.01992 0.53888
 C55 C 0.63051 0.02017 0.56439
 C56 C 0.63554 -0.01382 0.59806
 C57 C 0.59554 -0.04709 0.60611
 C58 C 0.55202 -0.04766 0.58040
 C59 C 0.58394 -0.07070 0.46683
 C60 C 0.63065 -0.07582 0.44770
 C61 C 0.64529 -0.04045 0.41771
 C62 C 0.61130 -0.00102 0.40594
 C63 C 0.56466 0.00400 0.42499
 C64 C 0.44597 -0.06231 0.42268
 C65 C 0.40204 -0.06259 0.39741
 C66 C 0.36671 -0.02238 0.39949
 C67 C 0.37707 0.01923 0.42633
 C68 C 0.42137 0.01977 0.45126
 H69 H 0.47364 0.06418 0.56736
 H70 H 0.39373 0.07790 0.60261
 H71 H 0.33887 -0.06690 0.55435
 H72 H 0.41924 -0.08063 0.51997
 H73 H 0.58322 0.04685 0.51351
 H74 H 0.65974 0.04767 0.55814
 H75 H 0.52195 -0.07420 0.58694
 H76 H 0.57363 -0.09804 0.49023
 H77 H 0.65575 -0.10700 0.45681
 H78 H 0.62026 0.02577 0.38178
 H79 H 0.53942 0.03509 0.41589
 H80 H 0.47221 -0.09427 0.42106
 H81 H 0.39526 -0.09470 0.37658
 H82 H 0.35162 0.05179 0.42758
 H83 H 0.42894 0.05246 0.47128
 H84 H 0.59823 -0.07317 0.63214
 C85 C 0.09776 0.00560 0.26994
 H86 H 0.09930 0.00429 0.23640
 C87 C 0.14261 0.00650 0.29401
 H88 H 0.17836 0.00639 0.27843
 C89 C 0.04870 0.01071 0.33033
 H90 H 0.01206 0.01344 0.34430
 C91 C 0.09266 0.01194 0.35561
 H92 H 0.08943 0.01501 0.38901
 N93 N 0.05204 0.00717 0.28831
 C94 C -0.05454 -0.05602 0.19570
 H95 H -0.08260 -0.02563 0.19477
 C96 C -0.06139 -0.09949 0.17084
 H97 H -0.09502 -0.10204 0.15080
 C98 C 0.02298 -0.08909 0.22335
 H99 H 0.05544 -0.08521 0.24432
 C100 C 0.01779 -0.13324 0.19896
 H101 H 0.04707 -0.16206 0.20216
 Zn102 Zn -0.00636 0.00941 0.25279
 N103 N -0.01253 -0.05127 0.22082
 C104 C 0.00184 0.06029 0.17545
 N105 N 0.00118 0.06623 0.21745
 C106 C 0.00872 0.11276 0.23562
 C107 C 0.01572 0.15604 0.21130
 C108 C 0.00879 0.10253 0.14994
 C109 C -0.07829 -0.02309 0.30910
 C110 C -0.12328 -0.02151 0.33093
 C111 C -0.14240 0.06059 0.29993
 C112 C -0.09713 0.05739 0.27867
 N113 N -0.06604 0.01605 0.28368
 H114 H -0.00258 0.02279 0.16159
 H115 H 0.00946 0.11612 0.26915
 H116 H 0.02241 0.19237 0.22669
 H117 H 0.00892 0.09723 0.11654
 H118 H -0.05308 -0.05575 0.31221
 H119 H -0.13148 -0.05281 0.35142
 H120 H -0.16681 0.09370 0.29539
 H121 H -0.08739 0.08761 0.25768
 C122 C -0.02482 -0.13886 0.17177
 C123 C 0.14036 0.00938 0.33757
 C124 C -0.15635 0.02064 0.32608
 C125 C 0.01511 0.15127 0.16772
 C126 C 0.00945 0.10779 0.74724
 H127 H 0.01028 0.10174 0.71398
 C128 C 0.00947 0.15743 0.76337
 H129 H 0.01058 0.18957 0.74232
 C130 C 0.00682 0.07301 0.81495
 H131 H 0.00550 0.03994 0.83487
 C132 C 0.00631 0.12219 0.83246
 H133 H 0.00587 0.12616 0.86591
 N134 N 0.00880 0.06682 0.77303
 C135 C 0.07287 -0.05405 0.69622
 H136 H 0.04305 -0.08220 0.69722
 C137 C 0.11646 -0.06440 0.67399
 H138 H 0.11990 -0.10060 0.65770
 C139 C 0.10498 0.02688 0.71702
 H140 H 0.10102 0.06182 0.73475
 C141 C 0.14922 0.01811 0.69525
 H142 H 0.17865 0.04669 0.69698
 Zn143 Zn 0.00800 0.00162 0.74702
 N144 N 0.06760 -0.00871 0.71664
 C145 C -0.04589 -0.00485 0.66920
 N146 N -0.04998 0.00042 0.71104
 C147 C -0.09572 0.00849 0.72840
 C148 C -0.13994 0.01029 0.70356
 C149 C -0.08915 -0.00313 0.64316
 C150 C 0.04560 -0.05683 0.81383
 C151 C 0.04858 -0.09849 0.84080
 C152 C -0.03053 -0.12936 0.81081
 C153 C -0.03206 -0.08703 0.78449
 N154 N 0.00581 -0.05194 0.78631
 H155 H -0.00909 -0.00955 0.65582
 H156 H -0.09768 0.01401 0.76166
 H157 H -0.17560 0.01781 0.71820
 H158 H -0.08529 -0.00729 0.60990
 H159 H 0.07563 -0.02881 0.81418
 H160 H 0.08087 -0.10212 0.86217
 H161 H -0.06141 -0.15635 0.80889
 H162 H -0.06293 -0.08303 0.76195
 C163 C 0.15511 -0.02789 0.67286
 C164 C 0.00757 0.16521 0.80640
 C165 C 0.01080 -0.13601 0.83893
 C166 C -0.13697 0.00397 0.66026
 C167 C 0.02397 -0.30533 0.11271
 C168 C -0.01024 -0.26433 0.11585
 C169 C 0.00113 -0.22294 0.14202
 C170 C -0.03269 -0.18183 0.14577
 H171 H -0.04602 -0.26392 0.09868
 H172 H 0.03685 -0.22350 0.15925
 H173 H 0.05909 -0.30226 0.13103
 H174 H -0.06745 -0.18305 0.12690
 C175 C 0.00156 0.33359 0.13201
 C176 C 0.01649 0.28631 0.12168
 C177 C 0.01138 0.24386 0.15110
 C178 C 0.02186 0.19562 0.13999
 H179 H 0.03069 0.27826 0.09109
 H180 H -0.00293 0.25229 0.18158
 H181 H -0.01490 0.33978 0.16213
 H182 H 0.03358 0.18800 0.10852
 C183 C 0.31227 0.01726 0.60320
 C184 C 0.27933 -0.01867 0.61402
 C185 C 0.23350 -0.00440 0.63657
 C186 C 0.20133 -0.03997 0.64942
 H187 H 0.28662 -0.05870 0.60759
 H188 H 0.22617 0.03578 0.64226
 H189 H 0.30476 0.05669 0.61194
 H190 H 0.20856 -0.07975 0.64166
 C191 C -0.31907 -0.01466 0.62622
 C192 C -0.27293 -0.00062 0.61466
 C193 C -0.22926 -0.00352 0.64413
 C194 C -0.18230 0.00652 0.63201
 H195 H -0.26686 0.01191 0.58320
 H196 H -0.23578 -0.01511 0.67575
 H197 H -0.32346 -0.02964 0.65726
 H198 H -0.17653 0.01537 0.59962
 C199 C -0.02097 -0.31521 0.87715
 C200 C 0.00194 -0.27062 0.88563
 C201 C -0.00608 -0.22628 0.85803
 C202 C 0.01600 -0.18124 0.86645
 H203 H 0.02584 -0.26619 0.91332
 H204 H -0.02929 -0.23131 0.83004
 H205 H -0.04663 -0.31760 0.85027
 H206 H 0.04100 -0.17804 0.89369
 C207 C -0.02627 0.30223 0.90869
 C208 C -0.00619 0.28664 0.87302
 C209 C -0.00913 0.23273 0.85937
 C210 C 0.00880 0.21844 0.82258
 H211 H 0.01228 0.31368 0.85322
 H212 H -0.02651 0.20509 0.87933
 H213 H -0.04681 0.27481 0.92683
 H214 H 0.02376 0.24757 0.80252
 C215 C -0.30448 -0.04640 0.39870
 C216 C -0.27925 -0.00720 0.38271
 C217 C -0.22962 -0.01479 0.36366
 C218 C -0.20519 0.02490 0.34757
 H219 H -0.29484 0.03119 0.38396
 H220 H -0.21422 -0.05317 0.36182
 H221 H -0.28692 -0.08404 0.39914
 H222 H -0.22299 0.06241 0.34863
 C223 C 0.32049 -0.02446 0.37233
 C224 C 0.27662 -0.00200 0.38196
 C225 C 0.23177 -0.00622 0.35381
 C226 C 0.18659 0.01212 0.36481
 H227 H 0.27326 0.01871 0.41101
 H228 H 0.23588 -0.02539 0.32419
 H229 H 0.32204 -0.04736 0.34417
 H230 H 0.18292 0.02862 0.39558
   
