data_POSCAR
  _audit_creation_date              2014-09-24
  _audit_creation_method            'ToBaCCo'
  _symmetry_space_group_name_H-M    'P1'
  _symmetry_Int_Tables_number       1
  _symmetry_cell_setting            triclinic
  loop_
  _symmetry_equiv_pos_as_xyz
 x,y,z
_cell_length_a 29.5465
_cell_length_b 29.5027
_cell_length_c 29.8243
_cell_angle_alpha 93.026400
_cell_angle_beta 88.312200
_cell_angle_gamma 89.416200
loop_
  _atom_site_label
  _atom_site_type_symbol
  _atom_site_fract_x
  _atom_site_fract_y
  _atom_site_fract_z
Si1 Si 0.01156 0.50937 0.25017
 Si2 Si -0.00389 0.48247 0.74611
 Si3 Si 0.24739 0.00725 0.49670
 Si4 Si 0.75520 0.00258 0.50778
 Si5 Si 0.49418 0.25780 0.98695
 Si6 Si 0.49888 0.74540 1.00770
 B7 B 0.99684 1.04470 0.03127
 B8 B 0.99400 1.04230 -0.02708
 B9 B 1.04323 1.02673 -0.00203
 B10 B 1.02803 0.99814 0.04636
 B11 B 0.97018 0.99784 0.05070
 B12 B 0.94833 1.02500 0.00533
 B13 B 0.99664 0.94680 -0.02764
 B14 B 1.00007 0.94976 0.02933
 B15 B 0.95005 0.96648 0.00541
 B16 B 0.96497 0.99330 -0.04299
 B17 B 1.02334 0.99500 -0.04791
 B18 B 1.04536 0.96866 -0.00294
 B19 B 0.55356 0.50508 0.47278
 B20 B 0.54694 0.50982 0.53035
 B21 B 0.52896 0.55374 0.49834
 B22 B 0.50656 0.52937 0.44983
 B23 B 0.51005 0.47141 0.45212
 B24 B 0.53527 0.45926 0.50150
 B25 B 0.45300 0.50404 0.52305
 B26 B 0.45947 0.49932 0.46547
 B27 B 0.47744 0.45541 0.49734
 B28 B 0.49994 0.47956 0.54585
 B29 B 0.49635 0.53763 0.54352
 B30 B 0.47118 0.54984 0.49415
 C31 C 1.01626 1.36832 0.17147
 C32 C 1.05476 1.38443 0.19360
 C33 C 1.05456 1.42764 0.21506
 C34 C 1.01588 1.45548 0.21487
 C35 C 0.97892 1.44122 0.18961
 C36 C 0.97879 1.39777 0.16858
 C37 C 1.01436 1.32042 0.15355
 C38 C 0.99145 1.30903 0.11395
 C39 C 0.98781 1.26373 0.09853
 C40 C 1.00733 1.22890 0.12213
 C41 C 1.03087 1.24013 0.16123
 C42 C 1.03410 1.28539 0.17696
 C43 C 1.00350 1.18108 0.10535
 C44 C 1.04150 1.15245 0.10163
 C45 C 1.03852 1.10911 0.08085
 C46 C 0.99775 1.09255 0.06267
 C47 C 0.95915 1.12071 0.07099
 C48 C 0.96200 1.16427 0.09119
 H49 H 1.08482 1.36332 0.19501
 H50 H 1.08443 1.43860 0.23243
 H51 H 0.94909 1.46270 0.18833
 H52 H 0.94853 1.38660 0.15187
 H53 H 0.97654 1.33512 0.09467
 H54 H 0.97018 1.25590 0.06778
 H55 H 1.04595 1.21380 0.18012
 H56 H 1.05120 1.29281 0.20805
 H57 H 1.07404 1.16420 0.11300
 H58 H 1.06914 1.08878 0.07825
 H59 H 0.92661 1.11151 0.06011
 H60 H 0.93170 1.18530 0.09486
 C61 C 1.00689 0.63247 0.15794
 C62 C 1.04301 0.60096 0.15401
 C63 C 1.04311 0.56305 0.18022
 C64 C 1.00750 0.55634 0.21118
 C65 C 0.97024 0.58618 0.21330
 C66 C 0.97005 0.62405 0.18716
 C67 C 1.00853 0.67526 0.13385
 C68 C 0.96898 0.69356 0.11657
 C69 C 0.96941 0.73624 0.09848
 C70 C 1.00943 0.76150 0.09709
 C71 C 1.04948 0.74242 0.11237
 C72 C 1.04901 0.69976 0.13072
 C73 C 1.00865 0.80847 0.08186
 C74 C 1.04224 0.82384 0.05271
 C75 C 1.04009 0.86790 0.03767
 C76 C 1.00522 0.89942 0.05212
 C77 C 0.97194 0.88219 0.08133
 C78 C 0.97361 0.83825 0.09618
 H79 H 1.07145 0.60598 0.13115
 H80 H 1.07178 0.53979 0.17748
 H81 H 0.94161 0.58106 0.23573
 H82 H 0.94174 0.64766 0.19114
 H83 H 0.93749 0.67514 0.11762
 H84 H 0.93826 0.74980 0.08603
 H85 H 1.08071 0.76131 0.11188
 H86 H 1.07994 0.68687 0.14420
 H87 H 1.06922 0.80114 0.03994
 H88 H 1.06474 0.87494 0.01237
 H89 H 0.94392 0.90170 0.09377
 H90 H 0.94716 0.82757 0.11911
 C91 C 0.99668 1.34122 -0.18993
 C92 C 1.00019 1.34477 -0.23667
 C93 C 1.00087 1.38728 -0.25503
 C94 C 0.99771 1.42703 -0.22716
 C95 C 0.99537 1.42393 -0.18051
 C96 C 0.99480 1.38131 -0.16200
 C97 C 0.99409 1.29594 -0.17047
 C98 C 0.96483 1.28929 -0.13351
 C99 C 0.96320 1.24733 -0.11413
 C100 C 0.99071 1.21094 -0.13128
 C101 C 1.01880 1.21685 -0.16922
 C102 C 1.02059 1.25904 -0.18858
 C103 C 0.99252 1.16852 -0.10697
 C104 C 0.99018 1.12558 -0.12900
 C105 C 0.99052 1.08634 -0.10437
 C106 C 0.99388 1.08832 -0.05692
 C107 C 0.99702 1.13235 -0.03641
 C108 C 0.99636 1.17130 -0.06051
 H109 H 1.00126 1.31470 -0.25913
 H110 H 1.00291 1.38913 -0.29121
 H111 H 0.99363 1.45422 -0.15842
 H112 H 0.99302 1.37971 -0.12581
 H113 H 0.94312 1.31658 -0.11950
 H114 H 0.94074 1.24340 -0.08526
 H115 H 1.04061 1.18941 -0.18275
 H116 H 1.04369 1.26314 -0.21689
 H117 H 0.98728 1.12233 -0.16514
 H118 H 0.98841 1.05447 -0.12340
 H119 H 0.99766 1.13861 -0.00128
 H120 H 0.99862 1.20400 -0.04242
 C121 C 0.99495 0.61505 -0.16007
 C122 C 1.03079 0.60535 -0.19130
 C123 C 1.03194 0.56495 -0.21781
 C124 C 0.99734 0.53316 -0.21385
 C125 C 0.96172 0.54217 -0.18243
 C126 C 0.96056 0.58273 -0.15564
 C127 C 0.99288 0.65978 -0.13432
 C128 C 0.95155 0.68358 -0.12692
 C129 C 0.95065 0.72790 -0.10748
 C130 C 0.99107 0.74940 -0.09551
 C131 C 1.03203 0.72495 -0.10097
 C132 C 1.03291 0.68062 -0.11985
 C133 C 0.99122 0.79796 -0.07992
 C134 C 1.02197 0.82744 -0.09880
 C135 C 1.02316 0.87310 -0.08409
 C136 C 0.99412 0.89253 -0.04941
 C137 C 0.96337 0.86092 -0.03098
 C138 C 0.96143 0.81527 -0.04611
 H139 H 1.05726 0.62977 -0.19656
 H140 H 1.05936 0.55957 -0.24237
 H141 H 0.93436 0.51829 -0.17930
 H142 H 0.93260 0.58895 -0.13175
 H143 H 0.92014 0.66879 -0.13798
 H144 H 0.91864 0.74612 -0.10370
 H145 H 1.06356 0.74049 -0.09119
 H146 H 1.06518 0.66293 -0.12391
 H147 H 1.04515 0.81519 -0.12568
 H148 H 1.04722 0.89110 -0.10219
 H149 H 0.94220 0.86919 -0.00215
 H150 H 0.93780 0.79304 -0.02992
 C151 C 1.17780 0.99688 0.35662
 C152 C 1.16603 0.96665 0.38996
 C153 C 1.18635 0.96975 0.43192
 C154 C 1.21795 1.00374 0.44182
 C155 C 1.23032 1.03324 0.40828
 C156 C 1.21070 1.02979 0.36631
 C157 C 1.15610 0.99470 0.31199
 C158 C 1.14801 1.03479 0.28988
 C159 C 1.12873 1.03338 0.24773
 C160 C 1.11587 0.99194 0.22662
 C161 C 1.12374 0.95170 0.24865
 C162 C 1.14376 0.95305 0.29077
 C163 C 1.09338 0.99168 0.18245
 C164 C 1.09928 0.95602 0.14979
 C165 C 1.07824 0.95759 0.10830
 C166 C 1.05372 0.99641 0.09573
 C167 C 1.04370 1.02842 0.13185
 C168 C 1.06383 1.02703 0.17335
 H169 H 1.14092 0.94079 0.38382
 H170 H 1.17770 0.94512 0.45616
 H171 H 1.25601 1.05855 0.41369
 H172 H 1.22202 1.05260 0.34115
 H173 H 1.15617 1.06761 0.30529
 H174 H 1.12397 1.06505 0.23163
 H175 H 1.11383 0.91919 0.23376
 H176 H 1.14993 0.92141 0.30646
 H177 H 1.12013 0.92679 0.15605
 H178 H 1.08214 0.92797 0.08609
 H179 H 1.01602 1.05197 0.13115
 H180 H 1.05418 1.05272 0.19924
 C181 C 1.16133 1.01553 -0.36856
 C182 C 1.19505 1.04745 -0.37656
 C183 C 1.21885 1.04646 -0.41770
 C184 C 1.20891 1.01410 -0.45220
 C185 C 1.17405 0.98320 -0.44480
 C186 C 1.15049 0.98385 -0.40336
 C187 C 1.14041 1.01315 -0.32295
 C188 C 1.13608 0.97110 -0.30340
 C189 C 1.11910 0.96877 -0.25941
 C190 C 1.10572 1.00842 -0.23399
 C191 C 1.10977 1.05051 -0.25368
 C192 C 1.12710 1.05285 -0.29765
 C193 C 1.08659 1.00539 -0.18760
 C194 C 1.09548 1.03817 -0.15349
 C195 C 1.07600 1.03509 -0.11041
 C196 C 1.04848 0.99812 -0.09847
 C197 C 1.03840 0.96764 -0.13447
 C198 C 1.05726 0.97037 -0.17756
 H199 H 1.20478 1.07167 -0.35012
 H200 H 1.24658 1.06968 -0.42117
 H201 H 1.16643 0.95701 -0.46996
 H202 H 1.12455 0.95884 -0.39810
 H203 H 1.14697 0.94005 -0.32174
 H204 H 1.11710 0.93588 -0.24504
 H205 H 1.09897 1.08160 -0.23537
 H206 H 1.12985 1.08570 -0.31203
 H207 H 1.11666 1.06692 -0.16021
 H208 H 1.07988 1.06452 -0.08834
 H209 H 1.01447 0.94200 -0.13109
 H210 H 1.04739 0.94568 -0.20353
 C211 C 0.83951 0.99640 0.37330
 C212 C 0.85159 1.02663 0.40875
 C213 C 0.82912 1.02566 0.45061
 C214 C 0.79424 0.99464 0.45752
 C215 C 0.78565 0.96146 0.42350
 C216 C 0.80761 0.96272 0.38154
 C217 C 0.85826 1.00116 0.32731
 C218 C 0.82913 1.00122 0.29089
 C219 C 0.84648 1.00489 0.24719
 C220 C 0.89331 1.00790 0.23914
 C221 C 0.92242 1.00868 0.27561
 C222 C 0.90499 1.00573 0.31942
 C223 C 0.91204 1.00666 0.19263
 C224 C 0.94636 0.97566 0.17964
 C225 C 0.96360 0.97309 0.13573
 C226 C 0.94780 1.00125 0.10238
 C227 C 0.91384 1.03320 0.11686
 C228 C 0.89567 1.03543 0.16086
 H229 H 0.87673 1.05242 0.40343
 H230 H 0.83800 1.05028 0.47686
 H231 H 0.76087 0.93547 0.42827
 H232 H 0.79889 0.93803 0.35511
 H233 H 0.79288 0.99836 0.29630
 H234 H 0.82350 1.00387 0.21953
 H235 H 0.95870 1.01114 0.27009
 H236 H 0.92805 1.00583 0.34698
 H237 H 0.95992 0.95304 0.20351
 H238 H 0.99120 0.94970 0.12931
 H239 H 0.90059 1.05698 0.09508
 H240 H 0.86930 1.06019 0.17026
 C241 C 0.82721 0.99997 -0.35511
 C242 C 0.83963 0.96836 -0.39035
 C243 C 0.81982 0.97051 -0.43229
 C244 C 0.78692 1.00380 -0.43917
 C245 C 0.77462 1.03532 -0.40396
 C246 C 0.79502 1.03380 -0.36252
 C247 C 0.84596 0.99689 -0.30997
 C248 C 0.86332 1.03557 -0.28748
 C249 C 0.87868 1.03345 -0.24381
 C250 C 0.87623 0.99275 -0.22130
 C251 C 0.85886 0.95399 -0.24407
 C252 C 0.84421 0.95598 -0.28809
 C253 C 0.89294 0.99070 -0.17483
 C254 C 0.91501 0.95190 -0.16113
 C255 C 0.93447 0.95180 -0.11908
 C256 C 0.93451 0.99061 -0.08910
 C257 C 0.90892 1.02785 -0.10244
 C258 C 0.88865 1.02816 -0.14415
 H259 H 0.86437 0.94193 -0.38528
 H260 H 0.82912 0.94543 -0.45888
 H261 H 0.74820 1.06033 -0.40774
 H262 H 0.78438 1.05803 -0.33562
 H263 H 0.86521 1.06742 -0.30388
 H264 H 0.89295 1.06366 -0.22791
 H265 H 0.85582 0.92225 -0.22768
 H266 H 0.83028 0.92590 -0.30461
 H267 H 0.91864 0.92177 -0.18331
 H268 H 0.94919 0.92021 -0.11067
 H269 H 0.90791 1.05909 -0.08351
 H270 H 0.87084 1.05859 -0.15282
 C271 C 1.35401 1.18512 -0.01885
 C272 C 1.39438 1.15896 -0.02176
 C273 C 1.43675 1.17992 -0.02025
 C274 C 1.43939 1.22729 -0.01608
 C275 C 1.39947 1.25342 -0.01456
 C276 C 1.35731 1.23268 -0.01531
 C277 C 1.30863 1.16331 -0.01867
 C278 C 1.27129 1.18434 -0.03783
 C279 C 1.22835 1.16486 -0.03603
 C280 C 1.22190 1.12349 -0.01583
 C281 C 1.25907 1.10206 0.00278
 C282 C 1.30184 1.12188 0.00172
 C283 C 1.17701 1.10160 -0.01535
 C284 C 1.17327 1.05644 -0.03038
 C285 C 1.13139 1.03528 -0.02927
 C286 C 1.09180 1.05583 -0.00865
 C287 C 1.09567 1.10337 -0.00068
 C288 C 1.13737 1.12567 -0.00245
 H289 H 1.39331 1.12231 -0.02553
 H290 H 1.46722 1.15918 -0.02247
 H291 H 1.40089 1.29014 -0.01168
 H292 H 1.32732 1.25409 -0.01213
 H293 H 1.27523 1.21567 -0.05476
 H294 H 1.20036 1.18161 -0.05131
 H295 H 1.25482 1.07016 0.01873
 H296 H 1.32935 1.10506 0.01761
 H297 H 1.20246 1.03796 -0.04499
 H298 H 1.13045 1.00396 -0.04864
 H299 H 1.06725 1.12470 0.00715
 H300 H 1.13854 1.16168 0.00656
 C301 C 0.63068 1.17614 -0.01148
 C302 C 0.59420 1.16504 0.01711
 C303 C 0.55250 1.18798 0.01543
 C304 C 0.54637 1.22146 -0.01560
 C305 C 0.58236 1.23143 -0.04510
 C306 C 0.62411 1.20915 -0.04294
 C307 C 0.67613 1.15507 -0.00743
 C308 C 0.71467 1.18243 -0.00449
 C309 C 0.75771 1.16301 -0.00094
 C310 C 0.76348 1.11557 -0.00100
 C311 C 0.72467 1.08825 -0.00408
 C312 C 0.68149 1.10781 -0.00681
 C313 C 0.80957 1.09468 0.00222
 C314 C 0.81563 1.05455 0.02428
 C315 C 0.85853 1.03459 0.02650
 C316 C 0.89791 1.05232 0.00640
 C317 C 0.89115 1.09498 -0.01229
 C318 C 0.84829 1.11509 -0.01543
 H319 H 0.59853 1.13995 0.04192
 H320 H 0.52548 1.18049 0.03913
 H321 H 0.57903 1.25769 -0.06879
 H322 H 0.65158 1.21816 -0.06549
 H323 H 0.71136 1.21904 -0.00427
 H324 H 0.78632 1.18538 0.00249
 H325 H 0.72760 1.05161 -0.00507
 H326 H 0.65234 1.08597 -0.00940
 H327 H 0.78741 1.03911 0.04147
 H328 H 0.86031 1.00785 0.04828
 H329 H 0.91824 1.11334 -0.02610
 H330 H 0.84575 1.14644 -0.03250
 C331 C 1.36148 0.82123 -0.00916
 C332 C 1.36394 0.78323 0.01700
 C333 C 1.40533 0.76169 0.02284
 C334 C 1.44518 0.77792 0.00300
 C335 C 1.44272 0.81503 -0.02434
 C336 C 1.40123 0.83715 -0.02972
 C337 C 1.31730 0.84394 -0.01446
 C338 C 1.31264 0.89108 -0.00647
 C339 C 1.26994 0.91180 -0.00688
 C340 C 1.23135 0.88576 -0.01586
 C341 C 1.23631 0.83895 -0.02576
 C342 C 1.27889 0.81815 -0.02476
 C343 C 1.18577 0.90693 -0.01315
 C344 C 1.15560 0.89982 -0.04795
 C345 C 1.11302 0.92100 -0.04534
 C346 C 1.09677 0.94575 -0.00649
 C347 C 1.13042 0.95747 0.02480
 C348 C 1.17330 0.93724 0.02268
 H349 H 1.33376 0.77026 0.03311
 H350 H 1.40576 0.73168 0.04214
 H351 H 1.47263 0.82654 -0.04201
 H352 H 1.39994 0.86597 -0.05071
 H353 H 1.34177 0.91158 0.00168
 H354 H 1.26696 0.94811 0.00024
 H355 H 1.20701 0.81827 -0.03278
 H356 H 1.28180 0.78177 -0.03141
 H357 H 1.16628 0.88080 -0.07857
 H358 H 1.09718 0.92495 -0.07611
 H359 H 1.12595 0.98601 0.04843
 H360 H 1.19717 0.94650 0.04838
 C361 C 0.63432 0.82326 0.02519
 C362 C 0.59376 0.84821 0.02229
 C363 C 0.55235 0.82579 0.01850
 C364 C 0.55135 0.77826 0.01656
 C365 C 0.59162 0.75356 0.02075
 C366 C 0.63267 0.77577 0.02501
 C367 C 0.67874 0.84590 0.02620
 C368 C 0.71210 0.83178 0.05523
 C369 C 0.75562 0.84962 0.05295
 C370 C 0.76668 0.88169 0.02140
 C371 C 0.73301 0.89671 -0.00683
 C372 C 0.68935 0.87910 -0.00434
 C373 C 0.81325 0.89935 0.01779
 C374 C 0.83437 0.90417 -0.02409
 C375 C 0.87739 0.92298 -0.02733
 C376 C 0.90113 0.93910 0.01051
 C377 C 0.87953 0.93144 0.05253
 C378 C 0.83678 0.91209 0.05617
 H379 H 0.59417 0.88494 0.02294
 H380 H 0.52157 0.84560 0.01673
 H381 H 0.59155 0.71681 0.01952
 H382 H 0.66340 0.75566 0.02667
 H383 H 0.70464 0.80643 0.07927
 H384 H 0.78097 0.83743 0.07504
 H385 H 0.74054 0.92196 -0.03097
 H386 H 0.66435 0.89025 -0.02733
 H387 H 0.81783 0.89278 -0.05454
 H388 H 0.89185 0.92250 -0.05984
 H389 H 0.89164 0.94531 0.08345
 H390 H 0.82106 0.90956 0.08921
 C391 C 0.88045 0.50936 0.34209
 C392 C 0.90852 0.54760 0.34229
 C393 C 0.94888 0.54676 0.31647
 C394 C 0.96129 0.50811 0.28936
 C395 C 0.93482 0.46908 0.29131
 C396 C 0.89466 0.46977 0.31713
 C397 C 0.83543 0.51110 0.36567
 C398 C 0.81917 0.47326 0.38762
 C399 C 0.77511 0.47318 0.40589
 C400 C 0.74628 0.51101 0.40279
 C401 C 0.76298 0.54940 0.38205
 C402 C 0.80707 0.54945 0.36371
 C403 C 0.69860 0.50982 0.41990
 C404 C 0.66350 0.52783 0.39561
 C405 C 0.61853 0.52544 0.41107
 C406 C 0.60629 0.50545 0.45173
 C407 C 0.64252 0.48615 0.47461
 C408 C 0.68749 0.48871 0.45953
 H409 H 0.89897 0.57828 0.36196
 H410 H 0.96958 0.57684 0.31640
 H411 H 0.94445 0.43806 0.27245
 H412 H 0.87392 0.43970 0.31621
 H413 H 0.84036 0.44339 0.39013
 H414 H 0.76321 0.44290 0.42126
 H415 H 0.74179 0.57929 0.37967
 H416 H 0.81842 0.57896 0.34663
 H417 H 0.67060 0.54273 0.36377
 H418 H 0.59390 0.53732 0.38922
 H419 H 0.63700 0.46732 0.50396
 H420 H 0.71361 0.47392 0.47909
 C421 C 0.14591 0.51775 0.32826
 C422 C 0.11517 0.48248 0.33503
 C423 C 0.07363 0.48183 0.31383
 C424 C 0.06254 0.51587 0.28490
 C425 C 0.09159 0.55271 0.28055
 C426 C 0.13299 0.55361 0.30197
 C427 C 0.19216 0.51579 0.34633
 C428 C 0.22973 0.52905 0.32026
 C429 C 0.27354 0.52526 0.33609
 C430 C 0.28076 0.50780 0.37818
 C431 C 0.24329 0.49491 0.40449
 C432 C 0.19944 0.49895 0.38877
 C433 C 0.32715 0.50330 0.39491
 C434 C 0.34049 0.46419 0.41559
 C435 C 0.38304 0.46133 0.43436
 C436 C 0.41407 0.49737 0.43408
 C437 C 0.40047 0.53541 0.41058
 C438 C 0.35814 0.53841 0.39132
 H439 H 0.12403 0.45427 0.35498
 H440 H 0.05123 0.45344 0.31809
 H441 H 0.08308 0.58034 0.25984
 H442 H 0.15528 0.58198 0.29726
 H443 H 0.22540 0.54130 0.28705
 H444 H 0.30188 0.53505 0.31502
 H445 H 0.24794 0.48214 0.43745
 H446 H 0.17121 0.48909 0.40995
 H447 H 0.31770 0.43580 0.41777
 H448 H 0.38997 0.43063 0.44947
 H449 H 0.42179 0.56388 0.40717
 H450 H 0.34907 0.56909 0.37514
 C451 C 0.85788 0.49454 0.67481
 C452 C 0.86841 0.45599 0.69827
 C453 C 0.91010 0.45199 0.71843
 C454 C 0.94245 0.48621 0.71526
 C455 C 0.93227 0.52479 0.69181
 C456 C 0.89030 0.52895 0.67165
 C457 C 0.81260 0.49896 0.65511
 C458 C 0.78851 0.54035 0.65927
 C459 C 0.74480 0.54363 0.64288
 C460 C 0.72431 0.50558 0.62197
 C461 C 0.74865 0.46438 0.61733
 C462 C 0.79228 0.46112 0.63368
 C463 C 0.67825 0.50898 0.60384
 C464 C 0.64721 0.47389 0.60801
 C465 C 0.60530 0.47579 0.58763
 C466 C 0.59220 0.51252 0.56211
 C467 C 0.62365 0.54812 0.56030
 C468 C 0.66551 0.54666 0.58062
 H469 H 0.84383 0.42941 0.70221
 H470 H 0.91614 0.42246 0.73741
 H471 H 0.95647 0.55198 0.68972
 H472 H 0.88317 0.55902 0.65367
 H473 H 0.80301 0.56990 0.67620
 H474 H 0.72672 0.57574 0.64724
 H475 H 0.73417 0.43478 0.60046
 H476 H 0.81028 0.42895 0.62935
 H477 H 0.65550 0.44453 0.62661
 H478 H 0.58402 0.44750 0.59188
 H479 H 0.61748 0.57746 0.54279
 H480 H 0.68866 0.57447 0.57651
 C481 C 0.13029 0.48143 0.65924
 C482 C 0.08921 0.49242 0.63948
 C483 C 0.04836 0.49203 0.66462
 C484 C 0.04841 0.48158 0.70992
 C485 C 0.08934 0.47064 0.72952
 C486 C 0.12983 0.47030 0.70441
 C487 C 0.17404 0.48272 0.63385
 C488 C 0.20577 0.44728 0.63644
 C489 C 0.24904 0.45052 0.61691
 C490 C 0.26179 0.48953 0.59476
 C491 C 0.22938 0.52428 0.59074
 C492 C 0.18585 0.52079 0.60994
 C493 C 0.30919 0.49447 0.57764
 C494 C 0.31885 0.51617 0.53797
 C495 C 0.36355 0.52095 0.52257
 C496 C 0.40080 0.50316 0.54507
 C497 C 0.39004 0.48318 0.58611
 C498 C 0.34548 0.47885 0.60197
 H499 H 0.08877 0.50098 0.60463
 H500 H 0.01709 0.50034 0.64881
 H501 H 0.09006 0.46267 0.76454
 H502 H 0.16105 0.46233 0.72062
 H503 H 0.19723 0.41729 0.65421
 H504 H 0.27274 0.42263 0.61963
 H505 H 0.23815 0.55500 0.57433
 H506 H 0.16208 0.54874 0.60786
 H507 H 0.29184 0.52942 0.51848
 H508 H 0.36810 0.54011 0.49331
 H509 H 0.41538 0.47271 0.60798
 H510 H 0.33958 0.46398 0.63403
 C511 C 0.50041 0.66632 0.13866
 C512 C 0.47953 0.70933 0.13778
 C513 C 0.47815 0.73191 0.09809
 C514 C 0.49520 0.71111 0.05781
 C515 C 0.51428 0.66749 0.05764
 C516 C 0.51725 0.64533 0.09787
 C517 C 0.50580 0.64475 0.18228
 C518 C 0.50568 0.59731 0.18505
 C519 C 0.50973 0.57776 0.22651
 C520 C 0.51286 0.60518 0.26640
 C521 C 0.51335 0.65256 0.26337
 C522 C 0.51079 0.67193 0.22197
 C523 C 0.51392 0.58496 0.31114
 C524 C 0.49150 0.54446 0.31898
 C525 C 0.48997 0.52733 0.36168
 C526 C 0.50964 0.55010 0.39917
 C527 C 0.53191 0.59092 0.39022
 C528 C 0.53497 0.60742 0.34732
 H529 H 0.46474 0.72616 0.16791
 H530 H 0.46410 0.76601 0.09903
 H531 H 0.52865 0.65143 0.02690
 H532 H 0.53417 0.61260 0.09712
 H533 H 0.50168 0.57515 0.15540
 H534 H 0.51017 0.54113 0.22714
 H535 H 0.51475 0.67516 0.29303
 H536 H 0.51260 0.70850 0.22137
 H537 H 0.47353 0.52645 0.29257
 H538 H 0.47063 0.49709 0.36482
 H539 H 0.54586 0.61187 0.41603
 H540 H 0.55349 0.63840 0.34300
 C541 C 0.50521 0.67130 0.86620
 C542 C 0.47018 0.66208 0.89727
 C543 C 0.47007 0.68188 0.94090
 C544 C 0.50482 0.71119 0.95397
 C545 C 0.54077 0.71886 0.92374
 C546 C 0.54117 0.69878 0.88039
 C547 C 0.50299 0.65481 0.81849
 C548 C 0.51631 0.68315 0.78407
 C549 C 0.51354 0.66832 0.73907
 C550 C 0.49695 0.62505 0.72754
 C551 C 0.48354 0.59666 0.76177
 C552 C 0.48661 0.61136 0.80684
 C553 C 0.49422 0.60912 0.67994
 C554 C 0.45568 0.58708 0.66461
 C555 C 0.45470 0.56831 0.62080
 C556 C 0.49220 0.56982 0.59054
 C557 C 0.52953 0.59512 0.60620
 C558 C 0.53062 0.61446 0.64985
 H559 H 0.44178 0.64138 0.88728
 H560 H 0.44180 0.67600 0.96373
 H561 H 0.56772 0.74182 0.93261
 H562 H 0.56909 0.70580 0.85755
 H563 H 0.52812 0.71719 0.79189
 H564 H 0.52366 0.69093 0.71323
 H565 H 0.47132 0.56281 0.75361
 H566 H 0.47663 0.58857 0.83255
 H567 H 0.42637 0.58366 0.68682
 H568 H 0.42427 0.55210 0.61229
 H569 H 0.55899 0.59949 0.58563
 H570 H 0.56086 0.63183 0.66060
 C571 C 0.50098 0.33224 0.12924
 C572 C 0.46377 0.30529 0.11776
 C573 C 0.46105 0.28462 0.07483
 C574 C 0.49508 0.29093 0.04200
 C575 C 0.53206 0.31834 0.05298
 C576 C 0.53506 0.33882 0.09631
 C577 C 0.50465 0.35141 0.17608
 C578 C 0.54575 0.34905 0.19840
 C579 C 0.54824 0.36417 0.24353
 C580 C 0.50972 0.38218 0.26730
 C581 C 0.46882 0.38518 0.24467
 C582 C 0.46630 0.36992 0.19966
 C583 C 0.51231 0.39908 0.31506
 C584 C 0.47650 0.39298 0.34587
 C585 C 0.47754 0.41262 0.38956
 C586 C 0.51408 0.43935 0.40468
 C587 C 0.55068 0.44252 0.37357
 C588 C 0.55000 0.42307 0.32992
 H589 H 0.43750 0.29871 0.14259
 H590 H 0.43290 0.26243 0.06825
 H591 H 0.55914 0.32292 0.02843
 H592 H 0.56413 0.35950 0.10418
 H593 H 0.57568 0.33431 0.18133
 H594 H 0.58017 0.36098 0.26006
 H595 H 0.43880 0.39987 0.26162
 H596 H 0.43429 0.37272 0.18319
 H597 H 0.44716 0.37357 0.33605
 H598 H 0.44858 0.40732 0.41054
 H599 H 0.58016 0.46062 0.38147
 H600 H 0.57845 0.42862 0.30722
 C601 C 0.49445 0.33719 0.85494
 C602 C 0.48666 0.29024 0.85495
 C603 C 0.48702 0.26761 0.89473
 C604 C 0.49419 0.29128 0.93577
 C605 C 0.50094 0.33825 0.93662
 C606 C 0.50134 0.36106 0.89642
 C607 C 0.49544 0.36035 0.81158
 C608 C 0.47863 0.40495 0.80884
 C609 C 0.47784 0.42531 0.76741
 C610 C 0.49315 0.40122 0.72786
 C611 C 0.51061 0.35713 0.73063
 C612 C 0.51218 0.33715 0.77194
 C613 C 0.49179 0.42181 0.68366
 C614 C 0.47455 0.39764 0.64649
 C615 C 0.47656 0.41541 0.60397
 C616 C 0.49664 0.45784 0.59624
 C617 C 0.51359 0.48143 0.63478
 C618 C 0.51071 0.46424 0.67752
 H619 H 0.47985 0.27077 0.82416
 H620 H 0.48143 0.23133 0.89340
 H621 H 0.50639 0.35713 0.96805
 H622 H 0.50778 0.39714 0.89776
 H623 H 0.46510 0.42377 0.83846
 H624 H 0.46433 0.45946 0.76605
 H625 H 0.52360 0.33828 0.70076
 H626 H 0.52676 0.30341 0.77271
 H627 H 0.46006 0.36441 0.65019
 H628 H 0.46496 0.39366 0.57735
 H629 H 0.53209 0.51224 0.63247
 H630 H 0.52535 0.48326 0.70547
 C631 C 0.66085 0.87614 0.50716
 C632 C 0.68677 0.88777 0.54467
 C633 C 0.71277 0.92698 0.54588
 C634 C 0.71348 0.95538 0.50961
 C635 C 0.68519 0.94554 0.47348
 C636 C 0.65945 0.90596 0.47198
 C637 C 0.63793 0.83165 0.50387
 C638 C 0.64143 0.80406 0.46399
 C639 C 0.62366 0.76026 0.46222
 C640 C 0.60175 0.74335 0.50019
 C641 C 0.59729 0.77139 0.53970
 C642 C 0.61525 0.81502 0.54153
 C643 C 0.58411 0.69642 0.49902
 C644 C 0.54236 0.68739 0.51953
 C645 C 0.52640 0.64317 0.52000
 C646 C 0.55067 0.60559 0.49936
 C647 C 0.59341 0.61570 0.47978
 C648 C 0.60964 0.66006 0.47926
 H649 H 0.68864 0.86543 0.57224
 H650 H 0.73340 0.93390 0.57471
 H651 H 0.68478 0.96723 0.44531
 H652 H 0.63919 0.89817 0.44296
 H653 H 0.65920 0.81581 0.43460
 H654 H 0.62717 0.73954 0.43122
 H655 H 0.58094 0.75916 0.56963
 H656 H 0.61185 0.83562 0.57262
 H657 H 0.52184 0.71462 0.53553
 H658 H 0.49526 0.63924 0.53860
 H659 H 0.61576 0.58975 0.46610
 H660 H 0.64284 0.66571 0.46437
 C661 C 0.69033 0.14680 0.49743
 C662 C 0.66349 0.10814 0.49052
 C663 C 0.68221 0.06468 0.49390
 C664 C 0.72813 0.05944 0.50336
 C665 C 0.75482 0.09814 0.50978
 C666 C 0.73614 0.14134 0.50701
 C667 C 0.67064 0.19295 0.49665
 C668 C 0.67890 0.22500 0.53187
 C669 C 0.66051 0.26866 0.53171
 C670 C 0.63400 0.28128 0.49608
 C671 C 0.62625 0.24958 0.46042
 C672 C 0.64415 0.20552 0.46089
 C673 C 0.61213 0.32651 0.49789
 C674 C 0.61575 0.35480 0.46193
 C675 C 0.59389 0.39718 0.46434
 C676 C 0.56696 0.41275 0.50224
 C677 C 0.56446 0.38314 0.53778
 C678 C 0.58682 0.34137 0.53606
 H679 H 0.62788 0.11165 0.48362
 H680 H 0.66067 0.03553 0.48939
 H681 H 0.78995 0.09527 0.51839
 H682 H 0.75750 0.17061 0.51251
 H683 H 0.69899 0.21596 0.55992
 H684 H 0.66682 0.29263 0.55954
 H685 H 0.60545 0.25861 0.43287
 H686 H 0.63764 0.18137 0.43328
 H687 H 0.63562 0.34424 0.43202
 H688 H 0.59849 0.41720 0.43594
 H689 H 0.54538 0.39082 0.56756
 H690 H 0.58320 0.31996 0.56435
 C691 C 0.32270 0.86762 0.50242
 C692 C 0.32784 0.89367 0.46444
 C693 C 0.30673 0.93629 0.46345
 C694 C 0.28042 0.95357 0.50043
 C695 C 0.27673 0.92842 0.53897
 C696 C 0.29748 0.88577 0.53989
 C697 C 0.34254 0.82122 0.50262
 C698 C 0.31713 0.78535 0.51925
 C699 C 0.33525 0.74130 0.51820
 C700 C 0.37925 0.73222 0.50065
 C701 C 0.40495 0.76838 0.48494
 C702 C 0.38672 0.81229 0.48569
 C703 C 0.39822 0.68523 0.49767
 C704 C 0.42508 0.67027 0.46044
 C705 C 0.44555 0.62750 0.45850
 C706 C 0.43993 0.59680 0.49286
 C707 C 0.41112 0.61208 0.52942
 C708 C 0.39062 0.65522 0.53187
 H709 H 0.34693 0.88043 0.43499
 H710 H 0.30994 0.95520 0.43339
 H711 H 0.25737 0.94117 0.56835
 H712 H 0.29369 0.86686 0.56990
 H713 H 0.28277 0.79118 0.53207
 H714 H 0.31442 0.71418 0.53010
 H715 H 0.43937 0.76278 0.47221
 H716 H 0.40731 0.83940 0.47336
 H717 H 0.43085 0.69190 0.43265
 H718 H 0.46605 0.61985 0.42961
 H719 H 0.40469 0.59167 0.55722
 H720 H 0.37008 0.66555 0.56138
 C721 C 0.33495 0.13837 0.49981
 C722 C 0.28758 0.14070 0.49942
 C723 C 0.26228 0.10114 0.49738
 C724 C 0.28376 0.05850 0.49680
 C725 C 0.33118 0.05585 0.49683
 C726 C 0.35674 0.09570 0.49784
 C727 C 0.36082 0.18091 0.50229
 C728 C 0.39130 0.19122 0.46751
 C729 C 0.41124 0.23404 0.46725
 C730 C 0.40163 0.26708 0.50222
 C731 C 0.37261 0.25558 0.53803
 C732 C 0.35205 0.21317 0.53778
 C733 C 0.42022 0.31380 0.50068
 C734 C 0.39456 0.35153 0.51739
 C735 C 0.41160 0.39539 0.51562
 C736 C 0.45497 0.40408 0.49682
 C737 C 0.47920 0.36551 0.47831
 C738 C 0.46277 0.32149 0.48087
 H739 H 0.27020 0.17327 0.50043
 H740 H 0.22570 0.10381 0.49702
 H741 H 0.34836 0.02326 0.49621
 H742 H 0.39334 0.09335 0.49797
 H743 H 0.39806 0.16688 0.43959
 H744 H 0.43280 0.24171 0.43875
 H745 H 0.36528 0.27953 0.56612
 H746 H 0.32875 0.20566 0.56505
 H747 H 0.36053 0.34747 0.53093
 H748 H 0.38880 0.42199 0.52676
 H749 H 0.51051 0.36852 0.45978
 H750 H 0.48366 0.29351 0.46704
   
