data_POSCAR
  _audit_creation_date              2014-09-24
  _audit_creation_method            'ToBaCCo'
  _symmetry_space_group_name_H-M    'P1'
  _symmetry_Int_Tables_number       1
  _symmetry_cell_setting            triclinic
  loop_
  _symmetry_equiv_pos_as_xyz
 x,y,z
_cell_length_a 27.8010
_cell_length_b 30.7271
_cell_length_c 29.7298
_cell_angle_alpha 89.709100
_cell_angle_beta 90.589100
_cell_angle_gamma 87.593400
loop_
  _atom_site_label
  _atom_site_type_symbol
  _atom_site_fract_x
  _atom_site_fract_y
  _atom_site_fract_z
N1 N 0.18941 1.24972 0.14330
 N2 N 0.15057 1.25533 0.16780
 C3 C 0.12266 1.28808 0.15008
 C4 C 0.14537 1.30364 0.11223
 C5 C 0.18765 1.27861 0.10911
 H6 H 0.08826 1.29912 0.16339
 H7 H 0.21498 1.28100 0.08366
 Cu8 Cu 0.14023 1.21860 0.22000
 Cu9 Cu 0.23951 1.20558 0.15782
 Cu10 Cu 0.20576 1.12543 0.23220
 N11 N 0.13605 1.18319 0.27413
 N12 N 0.16294 1.14722 0.27920
 C13 C 0.15145 1.12753 0.31788
 C14 C 0.11485 1.15236 0.33796
 C15 C 0.10610 1.18745 0.30930
 H16 H 0.16671 1.09627 0.32886
 H17 H 0.07879 1.21326 0.31309
 N18 N 0.26087 1.11770 0.19162
 N19 N 0.27458 1.14884 0.16455
 C20 C 0.31207 1.13363 0.14016
 C21 C 0.32245 1.09070 0.15251
 C22 C 0.28935 1.08171 0.18527
 H23 H 0.32880 1.15194 0.11390
 H24 H 0.28551 1.05089 0.20231
 H25 H 0.18714 1.16513 0.17643
 H26 H 0.22259 1.18778 0.22387
 N27 N 0.85871 0.73985 0.14516
 N28 N 0.89077 0.73680 0.17796
 C29 C 0.91632 0.69897 0.17464
 C30 C 0.90009 0.67724 0.13742
 C31 C 0.86345 0.70405 0.11915
 H32 H 0.94517 0.68823 0.19730
 H33 H 0.84159 0.69790 0.08974
 Cu34 Cu 0.89871 0.78326 0.22071
 Cu35 Cu 0.81369 0.79046 0.14064
 Cu36 Cu 0.79861 0.84206 0.24409
 N37 N 0.89676 0.82363 0.27030
 N38 N 0.85702 0.84578 0.28079
 C39 C 0.86566 0.87055 0.31710
 C40 C 0.91384 0.86390 0.32912
 C41 C 0.93226 0.83395 0.29875
 H42 H 0.83947 0.89295 0.33207
 H43 H 0.96902 0.82106 0.29718
 N44 N 0.75213 0.84899 0.19352
 N45 N 0.75872 0.83093 0.15371
 C46 C 0.72318 0.84531 0.12552
 C47 C 0.69292 0.87394 0.14886
 C48 C 0.71222 0.87531 0.19176
 H49 H 0.72013 0.83610 0.09060
 H50 H 0.69918 0.89544 0.21915
 H51 H 0.83973 0.83535 0.18767
 H52 H 0.81188 0.78473 0.20778
 N53 N 0.77070 1.30653 -0.16957
 N54 N 0.80779 1.30849 -0.19642
 C55 C 0.83883 1.33687 -0.17946
 C56 C 0.81998 1.35326 -0.13970
 C57 C 0.77675 1.33340 -0.13461
 H58 H 0.87397 1.34247 -0.19312
 H59 H 0.75294 1.33614 -0.10610
 Cu60 Cu 0.81458 1.26927 -0.24741
 Cu61 Cu 0.72034 1.26554 -0.17937
 Cu62 Cu 0.75709 1.17462 -0.24060
 N63 N 0.83186 1.22003 -0.28526
 N64 N 0.81062 1.18274 -0.28162
 C65 C 0.83089 1.15407 -0.31067
 C66 C 0.86682 1.17471 -0.33362
 C67 C 0.86632 1.21648 -0.31661
 H68 H 0.82017 1.12088 -0.31460
 H69 H 0.88980 1.24218 -0.32589
 N70 N 0.70248 1.17499 -0.19821
 N71 N 0.68676 1.21085 -0.17787
 C72 C 0.64836 1.20206 -0.15289
 C73 C 0.63962 1.15848 -0.15707
 C74 C 0.67452 1.14204 -0.18611
 H75 H 0.62939 1.22530 -0.13157
 H76 H 0.67906 1.10881 -0.19759
 H77 H 0.77548 1.22176 -0.19512
 H78 H 0.73471 1.23801 -0.24308
 N79 N 0.15502 0.71995 -0.14343
 N80 N 0.12887 0.72412 -0.18044
 C81 C 0.09748 0.69194 -0.18196
 C82 C 0.10448 0.66622 -0.14399
 C83 C 0.14126 0.68502 -0.12017
 H84 H 0.07078 0.68800 -0.20818
 H85 H 0.15593 0.67512 -0.08769
 Cu86 Cu 0.13662 0.77306 -0.22119
 Cu87 Cu 0.20199 0.76249 -0.12652
 Cu88 Cu 0.24384 0.81888 -0.21830
 N89 N 0.15194 0.81886 -0.26350
 N90 N 0.19460 0.83576 -0.26287
 C91 C 0.19625 0.86641 -0.29518
 C92 C 0.15196 0.86955 -0.31667
 C93 C 0.12456 0.83866 -0.29590
 H94 H 0.22692 0.88603 -0.30149
 H95 H 0.08756 0.83151 -0.30318
 N96 N 0.27840 0.81506 -0.16002
 N97 N 0.26115 0.79536 -0.12447
 C98 C 0.28807 0.80462 -0.08818
 C99 C 0.32399 0.83145 -0.10145
 C100 C 0.31697 0.83731 -0.14730
 H101 H 0.28044 0.79474 -0.05411
 H102 H 0.33564 0.85922 -0.16897
 H103 H 0.18990 0.81368 -0.17298
 H104 H 0.21854 0.76090 -0.19176
 C105 C 0.47856 1.02166 0.01634
 C106 C 0.51676 0.99404 0.04222
 C107 C 0.54406 0.96677 0.01556
 C108 C 0.53037 0.97015 -0.03475
 C109 C 0.50677 1.04540 -0.01952
 C110 C 0.53390 1.01868 -0.04660
 C111 C 0.44925 0.98900 -0.00979
 C112 C 0.47627 0.96178 -0.03639
 H113 H 0.52143 0.99682 0.07819
 H114 H 0.55234 0.94807 -0.05664
 H115 H 0.50725 1.08055 -0.02084
 H116 H 0.41037 0.98858 -0.00827
 C117 C 0.01817 0.45498 1.02834
 C118 C 0.05662 0.48099 1.00478
 C119 C 0.03868 0.51031 0.97379
 C120 C -0.01671 0.51101 0.96932
 C121 C -0.01638 0.48972 1.04814
 C122 C -0.03420 0.51966 1.01750
 C123 C -0.01054 0.43449 0.99059
 C124 C -0.02909 0.46363 0.95977
 H125 H 0.09445 0.47835 1.01399
 H126 H -0.03269 0.53457 0.94447
 H127 H -0.02501 0.49043 1.08352
 H128 H -0.01542 0.39977 0.98842
 C129 C 1.04021 0.03661 0.48985
 C130 C 1.00549 0.06485 0.51825
 C131 C 0.97201 0.04165 0.54036
 C132 C 0.97658 -0.00769 0.53173
 C133 C 1.06210 0.00267 0.52283
 C134 C 1.02887 -0.02058 0.54511
 C135 C 1.00813 0.01086 0.45871
 C136 C 0.97492 -0.01250 0.48038
 H137 H 1.00829 0.09973 0.52070
 H138 H 0.94937 -0.02679 0.54940
 H139 H 1.10058 -0.00237 0.52706
 H140 H 1.01131 0.01155 0.42242
 C141 C 0.12983 0.33652 1.08218
 C142 C 0.08937 0.36090 1.08780
 C143 C 0.07392 0.39427 1.05442
 C144 C 0.03711 0.42230 1.06280
 H145 H 0.06730 0.35664 1.11718
 H146 H 0.09253 0.39586 1.02262
 H147 H 0.15197 0.34240 1.05312
 H148 H 0.01817 0.41983 1.09437
 C149 C -0.08028 0.63457 1.12272
 C150 C -0.08860 0.61725 1.08240
 C151 C -0.06368 0.57558 1.07092
 C152 C -0.06377 0.55915 1.02932
 H153 H -0.11168 0.63422 1.05788
 H154 H -0.04224 0.55942 1.09712
 H155 H -0.05573 0.61746 1.14598
 H156 H -0.08290 0.57684 1.00256
 C157 C -0.15586 0.37818 0.89536
 C158 C -0.11775 0.40210 0.88764
 C159 C -0.09115 0.41991 0.92591
 C160 C -0.05878 0.45051 0.92112
 H161 H -0.10506 0.40689 0.85370
 H162 H -0.09758 0.40678 0.95915
 H163 H -0.16929 0.37553 0.92935
 H164 H -0.05437 0.46638 0.88890
 C165 C 0.07546 0.62930 0.86934
 C166 C 0.08791 0.60314 0.90395
 C167 C 0.05629 0.56884 0.91918
 C168 C 0.07018 0.54217 0.95296
 H169 H 0.12127 0.60767 0.92215
 H170 H 0.02137 0.56636 0.90328
 H171 H 0.04268 0.62393 0.85048
 H172 H 0.10615 0.54454 0.96697
 C173 C 1.08805 0.14250 0.37590
 C174 C 1.09911 0.10831 0.40263
 C175 C 1.06542 0.09411 0.43704
 C176 C 1.07741 0.06042 0.46408
 H177 H 1.13197 0.08881 0.39761
 H178 H 1.02914 0.10847 0.43746
 H179 H 1.05617 0.16280 0.38288
 H180 H 1.11336 0.04545 0.46208
 C181 C 1.13911 -0.10046 0.64945
 C182 C 1.09503 -0.09617 0.63099
 C183 C 1.08472 -0.06226 0.59662
 C184 C 1.04061 -0.05514 0.57892
 H185 H 1.06647 -0.11676 0.64148
 H186 H 1.11395 -0.04228 0.58674
 H187 H 1.16661 -0.07892 0.63834
 H188 H 1.01152 -0.07464 0.59039
 C189 C 0.94100 -0.11547 0.36175
 C190 C 0.92267 -0.08743 0.39197
 C191 C 0.95572 -0.06297 0.42025
 C192 C 0.94128 -0.04035 0.45631
 H193 H 0.88417 -0.08122 0.39476
 H194 H 0.99325 -0.06286 0.41059
 H195 H 0.97962 -0.12231 0.36170
 H196 H 0.90489 -0.04258 0.46853
 C197 C 0.89831 0.15826 0.63366
 C198 C 0.89825 0.11725 0.61867
 C199 C 0.93380 0.10169 0.58532
 C200 C 0.93555 0.06020 0.57170
 H201 H 0.87270 0.09468 0.63140
 H202 H 0.95931 0.12440 0.57300
 H203 H 0.92441 0.18007 0.62031
 H204 H 0.90996 0.03810 0.58530
 C205 C 0.35751 1.05931 0.13233
 C206 C 0.38836 1.07127 0.10088
 C207 C 0.42015 1.03935 0.07761
 C208 C 0.44851 1.05262 0.04469
 H209 H 0.38937 1.10514 0.09085
 H210 H 0.41913 1.00501 0.08594
 H211 H 0.35691 1.02547 0.14266
 H212 H 0.44852 1.08709 0.03661
 C213 C 0.60156 1.13629 -0.13308
 C214 C 0.60120 1.09320 -0.12655
 C215 C 0.56436 1.07549 -0.09703
 C216 C 0.56707 1.03449 -0.08134
 H217 H 0.62930 1.07184 -0.14027
 H218 H 0.53541 1.09762 -0.08648
 H219 H 0.57421 1.15708 -0.11728
 H220 H 0.59524 1.01213 -0.09322
 C221 C 0.35531 0.85545 -0.07095
 C222 C 0.39144 0.87908 -0.08537
 C223 C 0.41595 0.90805 -0.05411
 C224 C 0.45533 0.92876 -0.06580
 H225 H 0.40144 0.87871 -0.12050
 H226 H 0.40054 0.91349 -0.02116
 H227 H 0.34689 0.85506 -0.03542
 H228 H 0.47274 0.92137 -0.09746
 C229 C 0.65070 0.90025 0.13254
 C230 C 0.63719 0.90258 0.08928
 C231 C 0.59615 0.93160 0.07519
 C232 C 0.58390 0.93689 0.03176
 H233 H 0.65699 0.88409 0.06410
 H234 H 0.57648 0.94909 0.10105
 H235 H 0.63094 0.91961 0.15714
 H236 H 0.60416 0.91870 0.00663
   
