data_POSCAR
  _audit_creation_date              2014-09-24
  _audit_creation_method            'ToBaCCo'
  _symmetry_space_group_name_H-M    'P1'
  _symmetry_Int_Tables_number       1
  _symmetry_cell_setting            triclinic
  loop_
  _symmetry_equiv_pos_as_xyz
 x,y,z
_cell_length_a 22.2076
_cell_length_b 22.2595
_cell_length_c 22.2753
_cell_angle_alpha 89.932000
_cell_angle_beta 90.033200
_cell_angle_gamma 90.079900
loop_
  _atom_site_label
  _atom_site_type_symbol
  _atom_site_fract_x
  _atom_site_fract_y
  _atom_site_fract_z
C1 C 0.29256 0.25076 0.20728
 N2 N 0.29225 0.20734 0.25006
 C3 C 0.24899 0.20721 0.29304
 N4 N 0.20605 0.25051 0.29327
 C5 C 0.20639 0.29394 0.25046
 N6 N 0.24964 0.29406 0.20747
 C7 C 0.70623 -0.25085 0.20552
 N8 N 0.70615 -0.20790 0.24872
 C9 C 0.74948 -0.20779 0.29171
 N10 N 0.79290 -0.25062 0.29149
 C11 C 0.79301 -0.29356 0.24831
 N12 N 0.74967 -0.29368 0.20533
 C13 C 0.70792 0.25031 0.79224
 N14 N 0.70826 0.20696 0.74950
 C15 C 0.75139 0.20718 0.70638
 N16 N 0.79417 0.25078 0.70600
 C17 C 0.79379 0.29414 0.74877
 N18 N 0.75067 0.29389 0.79188
 C19 C 0.29472 -0.25049 0.79518
 N20 N 0.25100 -0.29316 0.79554
 C21 C 0.20777 -0.29302 0.75246
 N22 N 0.20827 -0.25027 0.70903
 C23 C 0.25195 -0.20762 0.70863
 N24 N 0.29519 -0.20770 0.75171
 C25 C 0.70584 -0.25094 0.79497
 N26 N 0.74905 -0.29402 0.79507
 C27 C 0.79212 -0.29421 0.75185
 N28 N 0.79196 -0.25129 0.70853
 C29 C 0.74878 -0.20820 0.70837
 N30 N 0.70572 -0.20803 0.75161
 C31 C 0.29220 0.24998 0.79262
 N32 N 0.24902 0.29305 0.79249
 C33 C 0.20583 0.29300 0.74937
 N34 N 0.20581 0.24984 0.70638
 C35 C 0.24900 0.20676 0.70651
 N36 N 0.29219 0.20685 0.74963
 C37 C 0.29393 -0.25131 0.20513
 N38 N 0.25020 -0.29400 0.20480
 C39 C 0.20686 -0.29384 0.24776
 N40 N 0.20730 -0.25099 0.29106
 C41 C 0.25100 -0.20832 0.29144
 N42 N 0.29430 -0.20848 0.24846
 C43 C 0.70889 0.25148 0.20752
 N44 N 0.70930 0.20806 0.25031
 C45 C 0.75247 0.20819 0.29345
 N46 N 0.79527 0.25180 0.29380
 C47 C 0.79486 0.29527 0.25099
 N48 N 0.75167 0.29507 0.20786
 O49 O 0.29953 0.05772 0.44112
 O50 O 0.30110 -0.05916 0.55818
 O51 O 0.30065 -0.05930 0.44110
 O52 O 0.29966 0.05778 0.55790
 O53 O 0.20007 0.05663 0.55804
 O54 O 0.20107 -0.06041 0.44128
 O55 O 0.20152 -0.06029 0.55834
 O56 O 0.19993 0.05660 0.44128
 Cu57 Cu 0.31029 -0.00068 0.49954
 Cu58 Cu 0.19059 -0.00206 0.49974
 C59 C 0.24949 0.07698 0.42155
 C60 C 0.25156 -0.07934 0.57813
 C61 C 0.25100 -0.07955 0.42141
 C62 C 0.24970 0.07701 0.57763
 O63 O 0.80096 0.05696 0.55843
 O64 O 0.79997 -0.05983 0.44147
 O65 O 0.80143 0.05723 0.44166
 O66 O 0.79970 -0.06004 0.55855
 O67 O 0.70013 -0.05913 0.55820
 O68 O 0.70185 0.05814 0.44131
 O69 O 0.70039 -0.05890 0.44113
 O70 O 0.70137 0.05785 0.55807
 Cu71 Cu 0.81056 -0.00159 0.50005
 Cu72 Cu 0.69088 -0.00047 0.49963
 C73 C 0.75131 0.07718 0.57791
 C74 C 0.75002 -0.07902 0.42150
 C75 C 0.75191 0.07758 0.42186
 C76 C 0.74965 -0.07929 0.57820
 O77 O 0.44206 0.30037 0.05830
 O78 O 0.55904 0.30000 -0.05868
 O79 O 0.44185 0.30007 -0.05855
 O80 O 0.55931 0.30053 0.05822
 O81 O 0.55924 0.20118 0.05868
 O82 O 0.44176 0.20071 -0.05811
 O83 O 0.55896 0.20064 -0.05822
 O84 O 0.44199 0.20101 0.05874
 Cu85 Cu 0.50059 0.31029 -0.00021
 Cu86 Cu 0.50049 0.19084 0.00033
 C87 C 0.42226 0.25074 0.07822
 C88 C 0.57871 0.25026 -0.07822
 C89 C 0.42199 0.25032 -0.07805
 C90 C 0.57910 0.25094 0.07816
 O91 O 0.55897 0.79871 0.05902
 O92 O 0.44177 0.79885 -0.05802
 O93 O 0.44160 0.79846 0.05892
 O94 O 0.55905 0.79878 -0.05797
 O95 O 0.55896 0.69944 -0.05801
 O96 O 0.44154 0.69912 0.05885
 O97 O 0.44168 0.69949 -0.05809
 O98 O 0.55891 0.69935 0.05898
 Cu99 Cu 0.50037 0.80872 0.00051
 Cu100 Cu 0.50028 0.68933 0.00044
 C101 C 0.57874 0.74902 0.07874
 C102 C 0.42195 0.74920 -0.07781
 C103 C 0.42170 0.74874 0.07857
 C104 C 0.57880 0.74915 -0.07776
 O105 O 0.05798 0.44414 0.29954
 O106 O -0.05916 0.56104 0.29848
 O107 O -0.05913 0.44398 0.29981
 O108 O 0.05831 0.56110 0.29819
 O109 O 0.05804 0.56018 0.19891
 O110 O -0.05940 0.44306 0.20053
 O111 O -0.05944 0.56012 0.19920
 O112 O 0.05771 0.44323 0.20025
 Cu113 Cu -0.00049 0.50275 0.30902
 Cu114 Cu -0.00083 0.50162 0.18970
 C115 C 0.07753 0.42389 0.25006
 C116 C -0.07914 0.58024 0.24868
 C117 C -0.07896 0.42363 0.25042
 C118 C 0.07812 0.58029 0.24830
 O119 O 0.05670 0.55859 0.80118
 O120 O -0.06061 0.44159 0.79935
 O121 O 0.05650 0.44168 0.79970
 O122 O -0.06072 0.55865 0.80082
 O123 O -0.06051 0.55991 0.70155
 O124 O 0.05671 0.44295 0.70042
 O125 O -0.06040 0.44285 0.70007
 O126 O 0.05690 0.55985 0.70190
 Cu127 Cu -0.00210 0.50005 0.81029
 Cu128 Cu -0.00183 0.50159 0.69096
 C129 C 0.07672 0.57884 0.75182
 C130 C -0.08017 0.42235 0.74943
 C131 C 0.07635 0.42254 0.74988
 C132 C -0.08045 0.57899 0.75136
 C133 C 0.33824 0.25084 0.16185
 C134 C 0.37663 0.25084 0.12367
 C135 C 0.66290 0.74906 0.16249
 C136 C 0.62445 0.74901 0.12426
 C137 C 0.66238 0.25014 -0.16218
 C138 C 0.62416 0.25014 -0.12384
 C139 C 0.33796 0.74939 -0.16170
 C140 C 0.37632 0.74929 -0.12340
 C141 C 0.16101 0.33970 0.25055
 C142 C 0.12290 0.37817 0.25041
 C143 C 0.16162 0.66186 0.75264
 C144 C 0.12281 0.62398 0.75242
 C145 C -0.16356 0.66357 0.24822
 C146 C -0.12499 0.62553 0.24834
 C147 C -0.16340 0.33769 0.74862
 C148 C -0.12542 0.37640 0.74883
 C149 C 0.24883 0.16135 0.33829
 C150 C 0.24900 0.12279 0.37629
 C151 C 0.75163 0.16139 0.66116
 C152 C 0.75159 0.12290 0.62317
 C153 C 0.25223 -0.16241 0.66271
 C154 C 0.25207 -0.12449 0.62406
 C155 C 0.74948 -0.16241 0.33738
 C156 C 0.74967 -0.12433 0.37580
 C157 C 0.66270 0.74919 -0.16178
 C158 C 0.62441 0.74922 -0.12340
 C159 C 0.33788 0.25007 -0.16181
 C160 C 0.37628 0.25016 -0.12355
 C161 C 0.33731 0.74859 0.16212
 C162 C 0.37585 0.74862 0.12398
 C163 C 0.66322 0.25131 0.16193
 C164 C 0.62482 0.25114 0.12367
 C165 C -0.16464 0.66268 0.75189
 C166 C -0.12620 0.62445 0.75173
 C167 C -0.16228 0.33887 0.25113
 C168 C -0.12427 0.37761 0.25095
 C169 C 0.16018 0.33857 0.74933
 C170 C 0.12189 0.37690 0.74950
 C171 C 0.16312 0.66341 0.24761
 C172 C 0.12427 0.62549 0.24778
 C173 C 0.74880 -0.16279 0.66254
 C174 C 0.74907 -0.12469 0.62401
 C175 C 0.25128 -0.16298 0.33722
 C176 C 0.25128 -0.12491 0.37569
 C177 C 0.75269 0.16224 0.33872
 C178 C 0.75248 0.12357 0.37667
 C179 C 0.24909 0.16112 0.66107
 C180 C 0.24932 0.12271 0.62296
   
