data_POSCAR
  _audit_creation_date              2014-09-24
  _audit_creation_method            'ToBaCCo'
  _symmetry_space_group_name_H-M    'P1'
  _symmetry_Int_Tables_number       1
  _symmetry_cell_setting            triclinic
  loop_
  _symmetry_equiv_pos_as_xyz
 x,y,z
_cell_length_a 45.2210
_cell_length_b 45.8628
_cell_length_c 43.7501
_cell_angle_alpha 90.355400
_cell_angle_beta 89.658800
_cell_angle_gamma 90.105200
loop_
  _atom_site_label
  _atom_site_type_symbol
  _atom_site_fract_x
  _atom_site_fract_y
  _atom_site_fract_z
C1 C 0.33790 0.35014 1.38591
 C2 C 0.31294 0.36290 1.39974
 C3 C 0.30209 0.39020 1.39007
 C4 C 0.31740 0.40461 1.36626
 C5 C 0.34215 0.39190 1.35202
 C6 C 0.35251 0.36460 1.36195
 C7 C 0.34817 0.32292 1.39564
 C8 C 0.37278 0.30921 1.38149
 C9 C 0.38731 0.32426 1.35754
 C10 C 0.37721 0.35158 1.34760
 C11 C 0.39093 0.36571 1.32287
 C12 C 0.38022 0.39260 1.31223
 C13 C 0.35608 0.40570 1.32728
 H14 H 0.30256 0.35170 1.41871
 H15 H 0.30922 0.42503 1.35737
 H16 H 0.33721 0.31297 1.41501
 H17 H 0.40554 0.31425 1.34529
 H18 H 0.40981 0.35564 1.31170
 H19 H 0.34741 0.42620 1.31903
 C20 C 1.16913 0.65535 0.89367
 C21 C 1.19372 0.64327 0.90833
 C22 C 1.20871 0.61891 0.89584
 C23 C 1.19743 0.60626 0.86871
 C24 C 1.17274 0.61802 0.85402
 C25 C 1.15853 0.64270 0.86652
 C26 C 1.15572 0.68061 0.90532
 C27 C 1.13200 0.69415 0.89000
 C28 C 1.12086 0.68041 0.86342
 C29 C 1.13405 0.65502 0.85158
 C30 C 1.12381 0.64237 0.82432
 C31 C 1.13804 0.61790 0.81161
 C32 C 1.16241 0.60577 0.82664
 H33 H 1.20217 0.65432 0.92839
 H34 H 1.20728 0.58673 0.85910
 H35 H 1.16378 0.68936 0.92675
 H36 H 1.10321 0.69029 0.85052
 H37 H 1.10525 0.65200 0.81252
 H38 H 1.17333 0.58681 0.81692
 C39 C 0.64426 -0.15312 0.10292
 C40 C 0.67059 -0.14396 0.08868
 C41 C 0.68490 -0.11823 0.09817
 C42 C 0.67205 -0.10118 0.12153
 C43 C 0.64578 -0.11002 0.13593
 C44 C 0.63180 -0.13611 0.12660
 C45 C 0.63082 -0.17953 0.09449
 C46 C 0.60500 -0.18972 0.10948
 C47 C 0.59241 -0.17192 0.13264
 C48 C 0.60582 -0.14556 0.14150
 C49 C 0.59438 -0.12916 0.16605
 C50 C 0.60867 -0.10355 0.17605
 C51 C 0.63401 -0.09381 0.16041
 H52 H 0.68059 -0.15746 0.07103
 H53 H 0.68275 -0.08116 0.12881
 H54 H 0.64042 -0.19176 0.07566
 H55 H 0.57324 -0.17928 0.14539
 H56 H 0.57467 -0.13664 0.17787
 H57 H 0.64538 -0.07435 0.16824
 C58 C -0.15964 1.15474 -0.38906
 C59 C -0.18424 1.14277 -0.40390
 C60 C -0.20044 1.11946 -0.39095
 C61 C -0.19049 1.10785 -0.36289
 C62 C -0.16577 1.11955 -0.34785
 C63 C -0.15041 1.14320 -0.36092
 C64 C -0.14478 1.17889 -0.40144
 C65 C -0.12100 1.19181 -0.38587
 C66 C -0.11156 1.17985 -0.35814
 C67 C -0.12613 1.15571 -0.34557
 C68 C -0.11719 1.14439 -0.31749
 C69 C -0.13243 1.12094 -0.30407
 C70 C -0.15654 1.10840 -0.31957
 H71 H -0.19164 1.15310 -0.42466
 H72 H -0.20141 1.08919 -0.35280
 H73 H -0.15236 1.18828 -0.42268
 H74 H -0.09304 1.18960 -0.34618
 H75 H -0.09833 1.15395 -0.30595
 H76 H -0.16864 1.09056 -0.30919
 C77 C 0.65972 0.68372 0.61997
 C78 C 0.68500 0.67284 0.60484
 C79 C 0.69859 0.64699 0.61474
 C80 C 0.68599 0.63155 0.63927
 C81 C 0.66102 0.64218 0.65466
 C82 C 0.64795 0.66848 0.64520
 C83 C 0.64646 0.70992 0.61078
 C84 C 0.62209 0.72176 0.62706
 C85 C 0.61079 0.70614 0.65229
 C86 C 0.62327 0.67963 0.66118
 C87 C 0.61148 0.66416 0.68602
 C88 C 0.62438 0.63789 0.69543
 C89 C 0.64919 0.62707 0.67968
 H90 H 0.69461 0.68492 0.58602
 H91 H 0.69582 0.61122 0.64658
 H92 H 0.65624 0.72174 0.59188
 H93 H 0.59140 0.71389 0.66449
 H94 H 0.59257 0.67279 0.69844
 H95 H 0.65918 0.60677 0.68684
 C96 C 0.84338 0.32162 0.12574
 C97 C 0.81678 0.33192 0.11369
 C98 C 0.80110 0.35487 0.12799
 C99 C 0.81303 0.36750 0.15478
 C100 C 0.83930 0.35688 0.16748
 C101 C 0.85449 0.33380 0.15292
 C102 C 0.85874 0.29896 0.11109
 C103 C 0.88488 0.28738 0.12362
 C104 C 0.89551 0.29956 0.15120
 C105 C 0.88063 0.32268 0.16571
 C106 C 0.89141 0.33469 0.19300
 C107 C 0.87621 0.35744 0.20798
 C108 C 0.85025 0.36856 0.19491
 H109 H 0.80898 0.32261 0.09239
 H110 H 0.80118 0.38459 0.16685
 H111 H 0.84919 0.28936 0.09072
 H112 H 0.91595 0.29183 0.16103
 H113 H 0.91169 0.32628 0.20263
 H114 H 0.83814 0.38579 0.20649
 C115 C 0.33195 0.17362 0.87986
 C116 C 0.30462 0.16379 0.89133
 C117 C 0.29046 0.13900 0.87868
 C118 C 0.30428 0.12468 0.85372
 C119 C 0.33127 0.13455 0.84174
 C120 C 0.34528 0.15898 0.85493
 C121 C 0.34624 0.19783 0.89300
 C122 C 0.37346 0.20777 0.88126
 C123 C 0.38644 0.19314 0.85628
 C124 C 0.37260 0.16883 0.84308
 C125 C 0.38557 0.15431 0.81809
 C126 C 0.37147 0.13021 0.80454
 C127 C 0.34435 0.12043 0.81654
 H128 H 0.29522 0.17486 0.91103
 H129 H 0.29353 0.10645 0.84248
 H130 H 0.33601 0.20924 0.91208
 H131 H 0.40755 0.20054 0.84732
 H132 H 0.40636 0.16213 0.80874
 H133 H 0.33356 0.10164 0.80636
 C134 C 0.16563 0.82148 0.37302
 C135 C 0.19198 0.83346 0.38427
 C136 C 0.20366 0.85919 0.37182
 C137 C 0.18853 0.87316 0.34812
 C138 C 0.16221 0.86133 0.33659
 C139 C 0.15063 0.83541 0.34914
 C140 C 0.15435 0.79558 0.38518
 C141 C 0.12824 0.78266 0.37367
 C142 C 0.11319 0.79720 0.34993
 C143 C 0.12426 0.82328 0.33758
 C144 C 0.10983 0.83702 0.31325
 C145 C 0.12161 0.86254 0.30026
 C146 C 0.14763 0.87469 0.31229
 H147 H 0.20349 0.82276 0.40274
 H148 H 0.19767 0.89284 0.33817
 H149 H 0.16577 0.78612 0.40439
 H150 H 0.09366 0.78768 0.33972
 H151 H 0.08991 0.82744 0.30384
 H152 H 0.15659 0.89456 0.30258
 Zn153 Zn -0.01550 0.99594 0.03458
 Zn154 Zn 0.03523 0.97454 -0.00179
 Zn155 Zn -0.02603 0.96791 -0.02656
 Zn156 Zn 0.00300 1.02701 -0.02211
 O157 O -0.00096 0.99134 -0.00408
 O158 O 0.00785 0.98115 0.06347
 O159 O 0.03637 0.94066 -0.02108
 O160 O -0.05882 0.95763 -0.00532
 O161 O 0.04644 0.96662 0.03634
 O162 O -0.05039 0.97859 0.03947
 O163 O -0.00870 0.93432 -0.03926
 O164 O -0.01854 1.02962 -0.05608
 O165 O 0.06399 0.99590 -0.01837
 O166 O -0.03909 0.98591 -0.06037
 O167 O 0.04049 1.03551 -0.03319
 O168 O -0.00869 1.05632 0.00229
 O169 O -0.02111 1.03329 0.04476
 C170 C 0.03325 0.96957 0.06182
 C171 C 0.01766 0.92542 -0.03558
 C172 C -0.06669 0.96341 0.02201
 C173 C -0.03495 1.01162 -0.07026
 C174 C 0.06412 1.02081 -0.03077
 C175 C -0.01796 1.05667 0.02973
 Zn176 Zn 0.48668 -0.02631 0.47472
 Zn177 Zn 0.51842 0.03115 0.47040
 Zn178 Zn 0.45678 0.02709 0.49643
 Zn179 Zn 0.50666 0.00234 0.53145
 O180 O 0.49231 0.00874 0.49317
 O181 O 0.50689 -0.02924 0.44035
 O182 O 0.50196 0.06519 0.45805
 O183 O 0.42683 0.00673 0.48038
 O184 O 0.53129 0.01243 0.43590
 O185 O 0.44905 -0.03369 0.46520
 O186 O 0.45685 0.06125 0.47750
 O187 O 0.48296 0.01573 0.56139
 O188 O 0.55111 0.04092 0.49221
 O189 O 0.44614 0.03457 0.53511
 O190 O 0.54089 0.02033 0.53674
 O191 O 0.51424 -0.03542 0.53938
 O192 O 0.49943 -0.05629 0.49654
 C193 C 0.52488 -0.01300 0.42610
 C194 C 0.47607 0.07537 0.46236
 C195 C 0.42586 -0.01841 0.46819
 C196 C 0.45841 0.02905 0.56042
 C197 C 0.55783 0.03537 0.51982
 C198 C 0.51109 -0.05796 0.52272
 Zn199 Zn 1.00005 0.46180 0.49303
 Zn200 Zn 1.03090 0.51489 0.51559
 Zn201 Zn 0.97084 0.52012 0.48663
 Zn202 Zn 0.97753 0.49263 0.54796
 O203 O 0.99482 0.49746 0.51072
 O204 O 1.03801 0.45347 0.48514
 O205 O 1.03337 0.54832 0.49516
 O206 O 0.95875 0.50117 0.45268
 O207 O 1.06104 0.49303 0.50164
 O208 O 0.98112 0.45861 0.45769
 O209 O 0.98945 0.55243 0.47354
 O210 O 0.94357 0.51176 0.55135
 O211 O 1.03912 0.52356 0.55484
 O212 O 0.93789 0.53263 0.50637
 O213 O 0.99947 0.50642 0.57843
 O214 O 0.96950 0.45539 0.55689
 O215 O 0.98631 0.43253 0.51579
 C216 C 1.06164 0.46786 0.48942
 C217 C 1.01540 0.56204 0.47834
 C218 C 0.96448 0.47563 0.44287
 C219 C 0.92900 0.52795 0.53353
 C220 C 1.02436 0.51915 0.57917
 C221 C 0.97390 0.43205 0.54185
 Zn222 Zn 0.51908 0.46153 1.01639
 Zn223 Zn 0.49956 0.49387 0.96201
 Zn224 Zn 0.49007 0.52051 1.02458
 Zn225 Zn 0.55084 0.51485 0.99696
 O226 O 0.51472 0.49778 1.00017
 O227 O 0.50595 0.43267 0.99213
 O228 O 0.46559 0.51237 0.95869
 O229 O 0.47737 0.50096 1.05830
 O230 O 0.49177 0.45696 0.95136
 O231 O 0.49853 0.45795 1.05070
 O232 O 0.45711 0.53185 1.00432
 O233 O 0.55235 0.54827 1.01710
 O234 O 0.52270 0.50841 0.93260
 O235 O 0.50800 0.55387 1.03790
 O236 O 0.56163 0.52332 0.95856
 O237 O 0.57969 0.49349 1.01264
 O238 O 0.55659 0.45307 1.02628
 C239 C 0.49471 0.43317 0.96563
 C240 C 0.44949 0.52723 0.97673
 C241 C 0.48212 0.47476 1.06645
 C242 C 0.53427 0.56293 1.03318
 C243 C 0.54803 0.52024 0.93348
 C244 C 0.57998 0.46833 1.02441
 C245 C 1.24616 0.44493 0.41725
 C246 C 1.22315 0.42709 0.42874
 C247 C 1.22707 0.39650 0.42686
 C248 C 1.25333 0.38457 0.41491
 C249 C 1.27611 0.40247 0.40335
 C250 C 1.27188 0.43286 0.40469
 C251 C 1.20454 0.37781 0.43647
 C252 C 1.17779 0.38874 0.44715
 C253 C 1.17264 0.41904 0.44933
 C254 C 1.19619 0.43851 0.44133
 C255 C 1.19210 0.46866 0.44650
 C256 C 1.16564 0.47955 0.45807
 C257 C 1.14190 0.46102 0.46425
 C258 C 1.14485 0.43053 0.45961
 C259 C 1.11958 0.41290 0.46479
 C260 C 1.09282 0.42508 0.47447
 C261 C 1.09028 0.45512 0.47969
 C262 C 1.11503 0.47295 0.47471
 H263 H 1.24479 0.46837 0.41699
 H264 H 1.25503 0.36107 0.41306
 H265 H 1.28888 0.44777 0.39697
 H266 H 1.20746 0.35437 0.43532
 H267 H 1.16172 0.37275 0.45421
 H268 H 1.20927 0.48451 0.44246
 H269 H 1.16361 0.50286 0.46178
 H270 H 1.11945 0.38971 0.46078
 H271 H 1.07399 0.41082 0.47793
 H272 H 1.11319 0.49630 0.47822
 C273 C 0.26713 0.60236 0.95383
 C274 C 0.28941 0.58889 0.93586
 C275 C 0.28369 0.58513 0.90428
 C276 C 0.25700 0.59450 0.89152
 C277 C 0.23507 0.60825 0.90941
 C278 C 0.24069 0.61186 0.94086
 C279 C 0.30477 0.57228 0.88523
 C280 C 0.33171 0.56330 0.89662
 C281 C 0.33885 0.56682 0.92781
 C282 C 0.31716 0.57930 0.94794
 C283 C 0.32395 0.58163 0.97936
 C284 C 0.35092 0.57220 0.99075
 C285 C 0.37244 0.56042 0.97137
 C286 C 0.36685 0.55791 0.93956
 C287 C 0.38969 0.54666 0.92074
 C288 C 0.41624 0.53730 0.93307
 C289 C 0.42142 0.53893 0.96458
 C290 C 0.39952 0.55095 0.98363
 H291 H 0.26939 0.60606 0.97803
 H292 H 0.25434 0.59239 0.86703
 H293 H 0.22429 0.62125 0.95608
 H294 H 0.30043 0.56915 0.86108
 H295 H 0.34634 0.55332 0.88017
 H296 H 0.30870 0.59042 0.99599
 H297 H 0.35499 0.57423 1.01506
 H298 H 0.38802 0.54484 0.89628
 H299 H 0.43287 0.52862 0.91759
 H300 H 0.40334 0.55253 1.00803
 C301 C -0.25270 0.89528 0.04135
 C302 C -0.22959 0.90565 0.06034
 C303 C -0.23560 0.90801 0.09212
 C304 C -0.26335 0.90021 0.10406
 C305 C -0.28593 0.89008 0.08496
 C306 C -0.28030 0.88761 0.05354
 C307 C -0.21393 0.91811 0.11202
 C308 C -0.18635 0.92643 0.10121
 C309 C -0.17914 0.92492 0.06978
 C310 C -0.20092 0.91388 0.04904
 C311 C -0.19323 0.91137 0.01778
 C312 C -0.16553 0.91977 0.00702
 C313 C -0.14435 0.93125 0.02679
 C314 C -0.15083 0.93407 0.05845
 C315 C -0.12873 0.94632 0.07740
 C316 C -0.10167 0.95538 0.06542
 C317 C -0.09533 0.95258 0.03416
 C318 C -0.11677 0.94023 0.01497
 H319 H -0.25035 0.89302 0.01695
 H320 H -0.26725 0.90169 0.12850
 H321 H -0.29745 0.88006 0.03822
 H322 H -0.21838 0.91975 0.13636
 H323 H -0.17109 0.93381 0.11838
 H324 H -0.20816 0.90282 0.00086
 H325 H -0.16072 0.91746 -0.01718
 H326 H -0.13163 0.94969 0.10159
 H327 H -0.08560 0.96480 0.08089
 H328 H -0.11222 0.93808 -0.00930
 C329 C 0.74280 0.10251 0.54921
 C330 C 0.71912 0.09097 0.56662
 C331 C 0.72353 0.08796 0.59849
 C332 C 0.75020 0.09663 0.61212
 C333 C 0.77336 0.10891 0.59478
 C334 C 0.76916 0.11130 0.56300
 C335 C 0.70112 0.07667 0.61691
 C336 C 0.67419 0.06847 0.60460
 C337 C 0.66837 0.07130 0.57306
 C338 C 0.69128 0.08251 0.55367
 C339 C 0.68549 0.08500 0.52207
 C340 C 0.65843 0.07677 0.50978
 C341 C 0.63588 0.06587 0.52835
 C342 C 0.64044 0.06314 0.56029
 C343 C 0.61672 0.05230 0.57815
 C344 C 0.59018 0.04391 0.56480
 C345 C 0.58591 0.04607 0.53320
 C346 C 0.60880 0.05746 0.51509
 H347 H 0.74179 0.10511 0.52480
 H348 H 0.75191 0.09524 0.63673
 H349 H 0.78660 0.11922 0.54817
 H350 H 0.70438 0.07421 0.64130
 H351 H 0.65840 0.05990 0.62069
 H352 H 0.70151 0.09323 0.50599
 H353 H 0.65513 0.07897 0.48538
 H354 H 0.61776 0.04989 0.60256
 H355 H 0.57284 0.03552 0.57953
 H356 H 0.60577 0.05929 0.49061
 C357 C 0.37052 0.23374 0.41380
 C358 C 0.40012 0.22424 0.41085
 C359 C 0.42056 0.24353 0.39692
 C360 C 0.41157 0.27135 0.38708
 C361 C 0.38208 0.28093 0.39084
 C362 C 0.36184 0.26129 0.40411
 C363 C 0.44999 0.23508 0.39306
 C364 C 0.45970 0.20790 0.40271
 C365 C 0.44031 0.18792 0.41697
 C366 C 0.41003 0.19633 0.42123
 C367 C 0.39068 0.17670 0.43604
 C368 C 0.40034 0.14986 0.44626
 C369 C 0.42961 0.14127 0.44221
 C370 C 0.45013 0.15993 0.42741
 C371 C 0.47957 0.14962 0.42388
 C372 C 0.48803 0.12224 0.43492
 C373 C 0.46757 0.10421 0.44983
 C374 C 0.43836 0.11398 0.45317
 H375 H 0.35317 0.22037 0.42317
 H376 H 0.42816 0.28586 0.37772
 H377 H 0.33857 0.26644 0.40605
 H378 H 0.46580 0.24969 0.38241
 H379 H 0.48276 0.20329 0.39885
 H380 H 0.36777 0.18141 0.44051
 H381 H 0.38461 0.13564 0.45762
 H382 H 0.49662 0.16212 0.41271
 H383 H 0.51074 0.11527 0.43191
 H384 H 0.42214 0.10027 0.46450
 C385 C 0.91302 0.24686 0.56007
 C386 C 0.91828 0.27114 0.57953
 C387 C 0.91023 0.26846 0.61077
 C388 C 0.89807 0.24241 0.62186
 C389 C 0.89302 0.21870 0.60227
 C390 C 0.90052 0.22118 0.57133
 C391 C 0.91401 0.29188 0.63081
 C392 C 0.92493 0.31834 0.62050
 C393 C 0.93298 0.32238 0.58958
 C394 C 0.93064 0.29807 0.56901
 C395 C 0.94092 0.30144 0.53870
 C396 C 0.95214 0.32783 0.52848
 C397 C 0.95319 0.35208 0.54779
 C398 C 0.94349 0.34987 0.57857
 C399 C 0.94419 0.37550 0.59681
 C400 C 0.95422 0.40194 0.58494
 C401 C 0.96405 0.40382 0.55463
 C402 C 0.96364 0.37869 0.53625
 H403 H 0.91771 0.24710 0.53592
 H404 H 0.89175 0.24083 0.64575
 H405 H 0.89676 0.20311 0.55577
 H406 H 0.90811 0.28984 0.65476
 H407 H 0.92721 0.33516 0.63760
 H408 H 0.94103 0.28388 0.52225
 H409 H 0.95976 0.32935 0.50499
 H410 H 0.93653 0.37613 0.62016
 H411 H 0.95414 0.42105 0.59962
 H412 H 0.97091 0.37991 0.51263
 C413 C 0.12878 0.76831 -0.07420
 C414 C 0.09973 0.77761 -0.08071
 C415 C 0.08100 0.75786 -0.09637
 C416 C 0.09150 0.73033 -0.10582
 C417 C 0.12073 0.72146 -0.09967
 C418 C 0.13894 0.74105 -0.08351
 C419 C 0.05180 0.76561 -0.10250
 C420 C 0.04069 0.79257 -0.09340
 C421 C 0.05854 0.81319 -0.07803
 C422 C 0.08871 0.80570 -0.07203
 C423 C 0.10702 0.82666 -0.05780
 C424 C 0.09625 0.85363 -0.04901
 C425 C 0.06683 0.86097 -0.05389
 C426 C 0.04739 0.84110 -0.06849
 C427 C 0.01765 0.85011 -0.07260
 C428 C 0.00790 0.87751 -0.06235
 C429 C 0.02740 0.89677 -0.04778
 C430 C 0.05687 0.88828 -0.04394
 H431 H 0.14451 0.78149 -0.06197
 H432 H 0.07628 0.71555 -0.11704
 H433 H 0.16191 0.73622 -0.07907
 H434 H 0.03728 0.75060 -0.11443
 H435 H 0.01795 0.79670 -0.09906
 H436 H 0.13009 0.82316 -0.05329
 H437 H 0.11120 0.86893 -0.03807
 H438 H 0.00127 0.83645 -0.08329
 H439 H -0.01502 0.88347 -0.06558
 H440 H 0.07233 0.90292 -0.03278
 C441 C 0.55073 0.74878 1.09939
 C442 C 0.56888 0.72591 1.08825
 C443 C 0.59945 0.73193 1.08473
 C444 C 0.61094 0.75968 1.09135
 C445 C 0.59278 0.78244 1.10223
 C446 C 0.56247 0.77629 1.10635
 C447 C 0.61871 0.71019 1.07473
 C448 C 0.60847 0.68240 1.06818
 C449 C 0.57824 0.67510 1.07112
 C450 C 0.55795 0.69735 1.08065
 C451 C 0.52749 0.69038 1.08169
 C452 C 0.51717 0.66281 1.07346
 C453 C 0.53671 0.64080 1.06450
 C454 C 0.56758 0.64646 1.06397
 C455 C 0.58661 0.62313 1.05617
 C456 C 0.57543 0.59618 1.04723
 C457 C 0.54491 0.59104 1.04604
 C458 C 0.52558 0.61325 1.05555
 H459 H 0.52732 0.74614 1.10319
 H460 H 0.63461 0.76285 1.08936
 H461 H 0.54722 0.79302 1.11394
 H462 H 0.64211 0.71469 1.07188
 H463 H 0.62496 0.66729 1.06008
 H464 H 0.51084 0.70606 1.08810
 H465 H 0.49356 0.65871 1.07406
 H466 H 0.61034 0.62481 1.05673
 H467 H 0.59100 0.57923 1.04086
 H468 H 0.50192 0.60944 1.05508
 C469 C 0.40774 0.44941 1.25580
 C470 C 0.41478 0.43237 1.22963
 C471 C 0.41124 0.40171 1.23193
 C472 C 0.40045 0.38904 1.25892
 C473 C 0.39310 0.40625 1.28438
 C474 C 0.39706 0.43651 1.28259
 C475 C 0.41821 0.38370 1.20722
 C476 C 0.42903 0.39524 1.18019
 C477 C 0.43319 0.42557 1.17657
 C478 C 0.42526 0.44454 1.20140
 C479 C 0.42773 0.47495 1.19700
 C480 C 0.43810 0.48647 1.16960
 C481 C 0.44691 0.46827 1.14558
 C482 C 0.44480 0.43754 1.14881
 C483 C 0.45490 0.42000 1.12419
 C484 C 0.46647 0.43240 1.09776
 C485 C 0.46839 0.46271 1.09452
 C486 C 0.45823 0.48061 1.11844
 H487 H 0.41042 0.47274 1.25649
 H488 H 0.39710 0.36564 1.25982
 H489 H 0.39201 0.45033 1.30209
 H490 H 0.41532 0.36028 1.20879
 H491 H 0.43347 0.37960 1.16233
 H492 H 0.42144 0.49062 1.21426
 H493 H 0.43954 0.50995 1.16733
 H494 H 0.45485 0.39655 1.12469
 H495 H 0.47408 0.41796 1.07968
 H496 H 0.45988 0.50410 1.11630
 C497 C 0.58942 -0.04394 0.23357
 C498 C 0.58233 -0.06012 0.26017
 C499 C 0.58363 -0.09097 0.25789
 C500 C 0.59160 -0.10471 0.23035
 C501 C 0.59868 -0.08843 0.20439
 C502 C 0.59755 -0.05794 0.20626
 C503 C 0.57718 -0.10817 0.28313
 C504 C 0.56934 -0.09562 0.31083
 C505 C 0.56755 -0.06504 0.31458
 C506 C 0.57407 -0.04693 0.28883
 C507 C 0.57189 -0.01638 0.29263
 C508 C 0.56319 -0.00392 0.32035
 C509 C 0.55645 -0.02126 0.34554
 C510 C 0.55895 -0.05206 0.34311
 C511 C 0.55234 -0.06870 0.36939
 C512 C 0.54222 -0.05551 0.39611
 C513 C 0.53867 -0.02526 0.39813
 C514 C 0.54660 -0.00805 0.37302
 H515 H 0.58909 -0.02048 0.23306
 H516 H 0.59302 -0.12830 0.22934
 H517 H 0.60289 -0.04485 0.18646
 H518 H 0.57815 -0.13175 0.28146
 H519 H 0.56455 -0.11080 0.32883
 H520 H 0.57649 -0.00132 0.27442
 H521 H 0.56147 0.01961 0.32199
 H522 H 0.55436 -0.09204 0.37022
 H523 H 0.53682 -0.06929 0.41541
 H524 H 0.54401 0.01542 0.37445
 C525 C -0.10488 1.12124 -0.22256
 C526 C -0.10159 1.09122 -0.21609
 C527 C -0.11105 1.07091 -0.23860
 C528 C -0.12167 1.08055 -0.26699
 C529 C -0.12331 1.11041 -0.27347
 C530 C -0.11545 1.13052 -0.25071
 C531 C -0.10949 1.04108 -0.23285
 C532 C -0.09855 1.03082 -0.20531
 C533 C -0.08807 1.05007 -0.18246
 C534 C -0.08919 1.08077 -0.18819
 C535 C -0.07706 1.10001 -0.16625
 C536 C -0.06444 1.08979 -0.13961
 C537 C -0.06366 1.06007 -0.13340
 C538 C -0.07585 1.03970 -0.15436
 C539 C -0.07518 1.00983 -0.14618
 C540 C -0.06227 1.00078 -0.11885
 C541 C -0.04947 1.02105 -0.09882
 C542 C -0.05048 1.05070 -0.10625
 H543 H -0.09972 1.13823 -0.20637
 H544 H -0.12788 1.06477 -0.28437
 H545 H -0.11750 1.15372 -0.25468
 H546 H -0.11676 1.02542 -0.24989
 H547 H -0.09791 1.00747 -0.20297
 H548 H -0.07621 1.12326 -0.16926
 H549 H -0.05510 1.10544 -0.12367
 H550 H -0.08463 0.99289 -0.16022
 H551 H -0.06203 0.97774 -0.11357
 H552 H -0.04105 1.06668 -0.09072
 C553 C 1.13854 0.58826 0.73067
 C554 C 1.10820 0.58254 0.72529
 C555 C 1.08803 0.58782 0.74967
 C556 C 1.09786 0.59950 0.77756
 C557 C 1.12785 0.60541 0.78221
 C558 C 1.14809 0.59942 0.75869
 C559 C 1.05812 0.58145 0.74617
 C560 C 1.04763 0.56953 0.71911
 C561 C 1.06666 0.56400 0.69403
 C562 C 1.09725 0.57157 0.69679
 C563 C 1.11569 0.56853 0.67079
 C564 C 1.10478 0.55813 0.64317
 C565 C 1.07530 0.54963 0.64045
 C566 C 1.05594 0.55183 0.66600
 C567 C 1.02666 0.54148 0.66244
 C568 C 1.01686 0.53058 0.63448
 C569 C 1.03572 0.52958 0.60898
 C570 C 1.06504 0.53898 0.61221
 H571 H 1.15554 0.58396 0.71391
 H572 H 1.08217 0.60362 0.79593
 H573 H 1.17143 0.60377 0.76187
 H574 H 1.04259 0.58558 0.76467
 H575 H 1.02416 0.56565 0.71834
 H576 H 1.13865 0.57480 0.67074
 H577 H 1.11970 0.55657 0.62374
 H578 H 1.01081 0.54105 0.68090
 H579 H 0.99415 0.52320 0.63279
 H580 H 1.07998 0.53790 0.59275
 C581 C 0.75663 0.62445 0.55583
 C582 C 0.77903 0.61219 0.57433
 C583 C 0.77451 0.61278 0.60643
 C584 C 0.74885 0.62503 0.61913
 C585 C 0.72654 0.63627 0.60056
 C586 C 0.73085 0.63624 0.56883
 C587 C 0.79543 0.60089 0.62591
 C588 C 0.82043 0.58730 0.61434
 C589 C 0.82573 0.58523 0.58257
 C590 C 0.80540 0.59895 0.56225
 C591 C 0.81228 0.59909 0.53070
 C592 C 0.83782 0.58588 0.51934
 C593 C 0.85712 0.57127 0.53873
 C594 C 0.85101 0.57026 0.57055
 C595 C 0.87025 0.55382 0.58905
 C596 C 0.89500 0.54005 0.57671
 C597 C 0.90170 0.54197 0.54547
 C598 C 0.88249 0.55755 0.52651
 H599 H 0.75797 0.62460 0.53125
 H600 H 0.74610 0.62555 0.64378
 H601 H 0.71388 0.64463 0.55392
 H602 H 0.79227 0.60175 0.65049
 H603 H 0.83554 0.57908 0.63113
 H604 H 0.79857 0.60976 0.51414
 H605 H 0.84230 0.58681 0.49500
 H606 H 0.86660 0.55060 0.61314
 H607 H 0.90913 0.52795 0.59197
 H608 H 0.88718 0.55888 0.50222
 C609 C 0.72817 0.35514 1.08818
 C610 C 0.71943 0.38460 1.09082
 C611 C 0.73905 0.40421 1.10554
 C612 C 0.76548 0.39420 1.11845
 C613 C 0.77399 0.36479 1.11576
 C614 C 0.75493 0.34557 1.10016
 C615 C 0.73245 0.43387 1.10698
 C616 C 0.70715 0.44470 1.09337
 C617 C 0.68684 0.42605 1.07854
 C618 C 0.69227 0.39536 1.07873
 C619 C 0.67012 0.37645 1.06747
 C620 C 0.64390 0.38719 1.05563
 C621 C 0.63913 0.41713 1.05353
 C622 C 0.66086 0.43701 1.06420
 C623 C 0.65592 0.46710 1.05958
 C624 C 0.62997 0.47693 1.04611
 C625 C 0.60795 0.45726 1.03704
 C626 C 0.61269 0.42733 1.04072
 H627 H 0.71515 0.33899 1.07633
 H628 H 0.78017 0.40989 1.12910
 H629 H 0.75999 0.32258 1.09805
 H630 H 0.74725 0.44899 1.11838
 H631 H 0.70360 0.46783 1.09575
 H632 H 0.67196 0.35306 1.06844
 H633 H 0.62734 0.37186 1.04766
 H634 H 0.67194 0.48359 1.06548
 H635 H 0.62695 0.50018 1.04325
 H636 H 0.59595 0.41195 1.03323
 C637 C 0.21498 1.13749 -0.08526
 C638 C 0.20723 1.10765 -0.08742
 C639 C 0.22861 1.08831 -0.09979
 C640 C 0.25575 1.09879 -0.11095
 C641 C 0.26307 1.12864 -0.10944
 C642 C 0.24236 1.14766 -0.09582
 C643 C 0.22294 1.05844 -0.10094
 C644 C 0.19663 1.04714 -0.08967
 C645 C 0.17444 1.06542 -0.07732
 C646 C 0.17930 1.09627 -0.07736
 C647 C 0.15586 1.11466 -0.06803
 C648 C 0.12884 1.10334 -0.05841
 C649 C 0.12431 1.07329 -0.05676
 C650 C 0.14727 1.05388 -0.06555
 C651 C 0.14224 1.02366 -0.06167
 C652 C 0.11537 1.01328 -0.05035
 C653 C 0.09240 1.03247 -0.04274
 C654 C 0.09699 1.06252 -0.04609
 H655 H 0.20053 1.15357 -0.07515
 H656 H 0.27171 1.08316 -0.11961
 H657 H 0.24650 1.17087 -0.09442
 H658 H 0.23916 1.04353 -0.11052
 H659 H 0.19400 1.02388 -0.09186
 H660 H 0.15741 1.13809 -0.06873
 H661 H 0.11138 1.11833 -0.05182
 H662 H 0.15885 1.00742 -0.06641
 H663 H 0.11251 0.98997 -0.04771
 H664 H 0.07951 1.07757 -0.03972
 C665 C 0.28316 -0.13662 0.39782
 C666 C 0.28688 -0.10656 0.40445
 C667 C 0.26208 -0.08806 0.40062
 C668 C 0.23517 -0.09925 0.38975
 C669 C 0.23208 -0.12899 0.38310
 C670 C 0.25622 -0.14751 0.38737
 C671 C 0.26416 -0.05849 0.40774
 C672 C 0.29023 -0.04672 0.41901
 C673 C 0.31562 -0.06410 0.42321
 C674 C 0.31416 -0.09435 0.41500
 C675 C 0.34010 -0.11127 0.41719
 C676 C 0.36641 -0.09933 0.42755
 C677 C 0.36796 -0.07021 0.43658
 C678 C 0.34259 -0.05216 0.43493
 C679 C 0.34532 -0.02297 0.44535
 C680 C 0.37220 -0.01222 0.45624
 C681 C 0.39728 -0.03003 0.45712
 C682 C 0.39492 -0.05906 0.44731
 H683 H 0.30042 -0.15246 0.40080
 H684 H 0.21638 -0.08488 0.38693
 H685 H 0.25435 -0.17059 0.38229
 H686 H 0.24531 -0.04423 0.40473
 H687 H 0.28985 -0.02366 0.42369
 H688 H 0.34108 -0.13387 0.41049
 H689 H 0.38579 -0.11318 0.42864
 H690 H 0.32710 -0.00791 0.44581
 H691 H 0.37331 0.01027 0.46388
 H692 H 0.41411 -0.07318 0.44817
 C693 C 0.58332 -0.20632 0.63220
 C694 C 0.58218 -0.19755 0.60133
 C695 C 0.59427 -0.21669 0.57901
 C696 C 0.60825 -0.24271 0.58764
 C697 C 0.60917 -0.25134 0.61845
 C698 C 0.59626 -0.23270 0.64046
 C699 C 0.59200 -0.21003 0.54807
 C700 C 0.57733 -0.18511 0.53866
 C701 C 0.56512 -0.16522 0.56000
 C702 C 0.56893 -0.17078 0.59185
 C703 C 0.56003 -0.14911 0.61306
 C704 C 0.54739 -0.12312 0.60353
 C705 C 0.54208 -0.11808 0.57265
 C706 C 0.55003 -0.13946 0.55052
 C707 C 0.54224 -0.13427 0.51978
 C708 C 0.52871 -0.10830 0.51127
 C709 C 0.52260 -0.08646 0.53293
 C710 C 0.52905 -0.09164 0.56371
 H711 H 0.57375 -0.19363 0.65054
 H712 H 0.61686 -0.25703 0.56993
 H713 H 0.59699 -0.23782 0.66456
 H714 H 0.60131 -0.22448 0.53083
 H715 H 0.57682 -0.18151 0.51435
 H716 H 0.56356 -0.15112 0.63729
 H717 H 0.54146 -0.10689 0.62060
 H718 H 0.54589 -0.15003 0.50179
 H719 H 0.52370 -0.10504 0.48735
 H720 H 0.52395 -0.07509 0.58073
 C721 C 1.12782 0.70960 0.41128
 C722 C 1.09750 0.70216 0.41174
 C723 C 1.07755 0.72155 0.39758
 C724 C 1.08766 0.74789 0.38484
 C725 C 1.11784 0.75569 0.38560
 C726 C 1.13764 0.73567 0.39860
 C727 C 1.04751 0.71472 0.39639
 C728 C 1.03675 0.68895 0.40879
 C729 C 1.05565 0.66903 0.42350
 C730 C 1.08644 0.67608 0.42555
 C731 C 1.10510 0.65716 0.44189
 C732 C 1.09434 0.63193 0.45520
 C733 C 1.06464 0.62431 0.45268
 C734 C 1.04479 0.64251 0.43666
 C735 C 1.01496 0.63317 0.43446
 C736 C 1.00545 0.60717 0.44790
 C737 C 1.02521 0.58963 0.46404
 C738 C 1.05480 0.59843 0.46625
 H739 H 1.14480 0.69554 0.41995
 H740 H 1.07148 0.76276 0.37562
 H741 H 1.16127 0.73931 0.39808
 H742 H 1.03207 0.72945 0.38563
 H743 H 1.01327 0.68555 0.40692
 H744 H 1.12823 0.66143 0.44546
 H745 H 1.10954 0.61817 0.46761
 H746 H 0.99843 0.64522 0.42225
 H747 H 0.98248 0.60084 0.44566
 H748 H 1.07042 0.58495 0.47844
 C749 C -0.08858 1.23560 0.06314
 C750 C -0.07421 1.21390 0.08036
 C751 C -0.07325 1.21764 0.11250
 C752 C -0.08556 1.24249 0.12648
 C753 C -0.10053 1.26359 0.10922
 C754 C -0.10160 1.25971 0.07731
 C755 C -0.06071 1.19616 0.13073
 C756 C -0.05034 1.17035 0.11792
 C757 C -0.05138 1.16531 0.08608
 C758 C -0.06180 1.18818 0.06687
 C759 C -0.05939 1.18458 0.03488
 C760 C -0.04873 1.15890 0.02204
 C761 C -0.04080 1.13553 0.04045
 C762 C -0.04222 1.13824 0.07274
 C763 C -0.03537 1.11334 0.09031
 C764 C -0.02740 1.08708 0.07629
 C765 C -0.02558 1.08477 0.04442
 C766 C -0.03197 1.10922 0.02664
 H767 H -0.09102 1.23419 0.03870
 H768 H -0.08519 1.24412 0.15119
 H769 H -0.11193 1.27573 0.06280
 H770 H -0.05955 1.19901 0.15531
 H771 H -0.04105 1.15490 0.13361
 H772 H -0.06505 1.20153 0.01903
 H773 H -0.04734 1.15710 -0.00265
 H774 H -0.03694 1.11310 0.11488
 H775 H -0.02270 1.06843 0.09053
 H776 H -0.03102 1.10752 0.00192
 C777 C 0.40614 0.26005 0.93949
 C778 C 0.41871 0.28209 0.92086
 C779 C 0.41499 0.27946 0.88879
 C780 C 0.40031 0.25526 0.87616
 C781 C 0.38846 0.23349 0.89493
 C782 C 0.39125 0.23627 0.92665
 C783 C 0.42588 0.30099 0.86940
 C784 C 0.43990 0.32556 0.88105
 C785 C 0.44411 0.32939 0.91278
 C786 C 0.43436 0.30677 0.93291
 C787 C 0.44091 0.30941 0.96433
 C788 C 0.45546 0.33373 0.97591
 C789 C 0.46360 0.35669 0.95687
 C790 C 0.45792 0.35501 0.92506
 C791 C 0.46563 0.37946 0.90702
 C792 C 0.47812 0.40439 0.92014
 C793 C 0.48375 0.40581 0.95154
 C794 C 0.47684 0.38164 0.96969
 H795 H 0.40700 0.26071 0.96407
 H796 H 0.39773 0.25355 0.85159
 H797 H 0.38224 0.21971 0.94162
 H798 H 0.42329 0.29898 0.84485
 H799 H 0.44773 0.34096 0.86438
 H800 H 0.43550 0.29273 0.98066
 H801 H 0.45995 0.33478 1.00021
 H802 H 0.46148 0.38050 0.88284
 H803 H 0.48309 0.42283 0.90561
 H804 H 0.48071 0.38266 0.99412
 C805 C 0.57017 0.60197 0.74968
 C806 C 0.58875 0.59169 0.77324
 C807 C 0.61948 0.59753 0.77070
 C808 C 0.63094 0.61213 0.74511
 C809 C 0.61219 0.62196 0.72201
 C810 C 0.58178 0.61691 0.72462
 C811 C 0.63864 0.58905 0.79383
 C812 C 0.62796 0.57558 0.82000
 C813 C 0.59756 0.56945 0.82383
 C814 C 0.57785 0.57646 0.79946
 C815 C 0.54798 0.56775 0.80198
 C816 C 0.53738 0.55382 0.82789
 C817 C 0.55587 0.54849 0.85259
 C818 C 0.58619 0.55634 0.85111
 C819 C 0.60364 0.55140 0.87738
 C820 C 0.59136 0.53932 0.90380
 C821 C 0.56145 0.53144 0.90493
 C822 C 0.54395 0.53577 0.87904
 H823 H 0.54649 0.59944 0.75018
 H824 H 0.65448 0.61648 0.74347
 H825 H 0.56689 0.62440 0.70703
 H826 H 0.66217 0.59325 0.79189
 H827 H 0.64432 0.56972 0.83665
 H828 H 0.53219 0.57090 0.78398
 H829 H 0.51425 0.54759 0.82878
 H830 H 0.62663 0.55742 0.87866
 H831 H 0.60534 0.53638 0.92356
 H832 H 0.52067 0.53010 0.87977
 C833 C 0.42760 0.09547 0.75103
 C834 C 0.41045 0.08866 0.72492
 C835 C 0.38000 0.09606 0.72576
 C836 C 0.36743 0.10903 0.75192
 C837 C 0.38477 0.11560 0.77746
 C838 C 0.41491 0.10879 0.77673
 C839 C 0.36225 0.09079 0.70041
 C840 C 0.37410 0.07907 0.67373
 C841 C 0.40433 0.07165 0.67145
 C842 C 0.42253 0.07540 0.69787
 C843 C 0.45208 0.06558 0.69643
 C844 C 0.46384 0.05355 0.66983
 C845 C 0.44690 0.05126 0.64341
 C846 C 0.41695 0.06042 0.64369
 C847 C 0.40114 0.05858 0.61589
 C848 C 0.41454 0.04812 0.58919
 C849 C 0.44403 0.03888 0.58918
 C850 C 0.45998 0.04023 0.61652
 H851 H 0.45101 0.09140 0.75218
 H852 H 0.34416 0.11473 0.75212
 H853 H 0.42875 0.11367 0.79623
 H854 H 0.33891 0.09616 0.70103
 H855 H 0.35873 0.07565 0.65535
 H856 H 0.46674 0.06646 0.71572
 H857 H 0.48667 0.04635 0.66983
 H858 H 0.37860 0.06577 0.61368
 H859 H 0.40172 0.04745 0.56837
 H860 H 0.48295 0.03346 0.61671
 C861 C 0.06373 0.89361 0.24732
 C862 C 0.08093 0.90282 0.22192
 C863 C 0.11181 0.89761 0.22278
 C864 C 0.12475 0.88465 0.24837
 C865 C 0.10746 0.87608 0.27341
 C866 C 0.07687 0.88042 0.27253
 C867 C 0.12974 0.90526 0.19810
 C868 C 0.11773 0.91754 0.17211
 C869 C 0.08713 0.92311 0.16989
 C870 C 0.06857 0.91659 0.19562
 C871 C 0.03841 0.92437 0.19432
 C872 C 0.02654 0.93726 0.16854
 C873 C 0.04400 0.94244 0.14277
 C874 C 0.07449 0.93526 0.14289
 C875 C 0.09089 0.94000 0.11567
 C876 C 0.07754 0.95142 0.08971
 C877 C 0.04751 0.95875 0.08990
 C878 C 0.03093 0.95444 0.11666
 H879 H 0.04005 0.89585 0.24830
 H880 H 0.14840 0.88077 0.24862
 H881 H 0.06306 0.87388 0.29162
 H882 H 0.15339 0.90150 0.19877
 H883 H 0.13328 0.92293 0.15430
 H884 H 0.02334 0.92125 0.21317
 H885 H 0.00326 0.94288 0.16865
 H886 H 0.11392 0.93447 0.11331
 H887 H 0.09084 0.95436 0.06928
 H888 H 0.00756 0.95968 0.11695
 C889 C 0.90885 0.36015 0.28747
 C890 C 0.90882 0.39034 0.29452
 C891 C 0.89674 0.40955 0.27262
 C892 C 0.88625 0.39883 0.24451
 C893 C 0.88711 0.36892 0.23771
 C894 C 0.89821 0.34978 0.25962
 C895 C 0.89524 0.43937 0.27881
 C896 C 0.90529 0.45070 0.30639
 C897 C 0.91782 0.43261 0.32886
 C898 C 0.92017 0.40200 0.32253
 C899 C 0.93428 0.38411 0.34415
 C900 C 0.94535 0.39549 0.37115
 C901 C 0.94263 0.42505 0.37800
 C902 C 0.92858 0.44411 0.35726
 C903 C 0.92588 0.47383 0.36603
 C904 C 0.93724 0.48403 0.39381
 C905 C 0.95170 0.46508 0.41372
 C906 C 0.95412 0.43558 0.40562
 H907 H 0.91650 0.34380 0.30307
 H908 H 0.87775 0.41390 0.22772
 H909 H 0.89831 0.32648 0.25540
 H910 H 0.88605 0.45417 0.26215
 H911 H 0.90338 0.47396 0.30913
 H912 H 0.93774 0.36112 0.34071
 H913 H 0.95620 0.38088 0.38692
 H914 H 0.91493 0.48976 0.35213
 H915 H 0.93487 0.50691 0.39958
 H916 H 0.96494 0.42056 0.42098
   
