data_POSCAR
  _audit_creation_date              2014-09-24
  _audit_creation_method            'ToBaCCo'
  _symmetry_space_group_name_H-M    'P1'
  _symmetry_Int_Tables_number       1
  _symmetry_cell_setting            triclinic
  loop_
  _symmetry_equiv_pos_as_xyz
 x,y,z
_cell_length_a 31.6267
_cell_length_b 31.6263
_cell_length_c 27.4146
_cell_angle_alpha 88.957900
_cell_angle_beta 90.980600
_cell_angle_gamma 90.429200
loop_
  _atom_site_label
  _atom_site_type_symbol
  _atom_site_fract_x
  _atom_site_fract_y
  _atom_site_fract_z
C1 C 0.38000 0.02645 0.31063
 C2 C 0.35309 0.06154 0.28839
 C3 C 0.32895 0.04948 0.24955
 C4 C 0.33389 0.00255 0.23618
 C5 C 0.34911 -0.00957 0.32244
 C6 C 0.32523 -0.02263 0.28380
 C7 C 0.40575 0.00982 0.26826
 C8 C 0.38198 -0.00292 0.22929
 H9 H 0.35430 0.09373 0.30117
 H10 H 0.31408 -0.00722 0.20445
 H11 H 0.34979 -0.02656 0.35715
 H12 H 0.43997 0.00905 0.26864
 C13 C 0.11461 -0.02151 0.78995
 C14 C 0.14062 -0.05691 0.76948
 C15 C 0.16616 -0.04425 0.73259
 C16 C 0.16251 0.00294 0.71850
 C17 C 0.14686 0.01256 0.80413
 C18 C 0.17193 0.02559 0.76692
 C19 C 0.09133 -0.00330 0.74875
 C20 C 0.11732 0.01025 0.70923
 H21 H 0.14164 -0.08844 0.78569
 H22 H 0.18339 0.01289 0.68813
 H23 H 0.14708 0.02765 0.83933
 H24 H 0.05715 -0.00152 0.74704
 C25 C 0.61690 0.47658 0.29115
 C26 C 0.64149 0.44074 0.26981
 C27 C 0.66740 0.45304 0.23321
 C28 C 0.66587 0.50054 0.22035
 C29 C 0.65007 0.50944 0.30592
 C30 C 0.67550 0.52236 0.26909
 C31 C 0.59314 0.49719 0.24783
 C32 C 0.61855 0.51006 0.21072
 H33 H 0.64110 0.40884 0.28503
 H34 H 0.68699 0.51024 0.19012
 H35 H 0.65010 0.52460 0.34108
 H36 H 0.55906 0.50015 0.24603
 C37 C 0.88079 0.52830 0.80888
 C38 C 0.85366 0.56315 0.78651
 C39 C 0.82966 0.55087 0.74765
 C40 C 0.83499 0.50392 0.73437
 C41 C 0.85014 0.49209 0.82069
 C42 C 0.82641 0.47878 0.78206
 C43 C 0.90675 0.51179 0.76662
 C44 C 0.88316 0.49873 0.72763
 H45 H 0.85448 0.59533 0.79938
 H46 H 0.81530 0.49392 0.70264
 H47 H 0.85079 0.47526 0.85550
 H48 H 0.94097 0.51112 0.76718
 C49 C 0.29294 0.43547 1.00320
 C50 C 0.27676 0.40832 1.04626
 C51 C 0.24509 0.38088 1.03376
 C52 C 0.23300 0.38282 0.97958
 C53 C 0.30528 0.40408 0.96438
 C54 C 0.27448 0.37640 0.95214
 C55 C 0.25324 0.45743 0.98261
 C56 C 0.22106 0.42984 0.97176
 H57 H 0.28743 0.41247 1.08364
 H58 H 0.20750 0.36022 0.96912
 H59 H 0.33639 0.40355 0.94837
 H60 H 0.24813 0.49100 0.98669
 C61 C 0.77977 0.05783 0.98285
 C62 C 0.76510 0.08905 0.94258
 C63 C 0.73422 0.11559 0.95700
 C64 C 0.72091 0.10845 1.01010
 C65 C 0.79255 0.08536 1.02603
 C66 C 0.76231 0.11191 1.04004
 C67 C 0.74168 0.03564 0.99767
 C68 C 0.70876 0.06357 1.01227
 H69 H 0.77823 0.09043 0.90632
 H70 H 0.69626 0.13087 1.02160
 H71 H 0.82384 0.08500 1.04292
 H72 H 0.73709 0.00195 0.99316
 C73 C 0.28423 0.55824 0.48675
 C74 C 0.26932 0.58696 0.44411
 C75 C 0.23885 0.61467 0.45648
 C76 C 0.22588 0.61109 0.50979
 C77 C 0.29720 0.58817 0.52752
 C78 C 0.26719 0.61571 0.53942
 C79 C 0.24390 0.53620 0.50463
 C80 C 0.21283 0.56408 0.51577
 H81 H 0.28223 0.58604 0.40779
 H82 H 0.20119 0.63404 0.51978
 H83 H 0.32816 0.58786 0.54521
 H84 H 0.23841 0.50251 0.50153
 C85 C 0.79358 0.93569 0.50017
 C86 C 0.77815 0.90870 0.54379
 C87 C 0.74631 0.88116 0.53210
 C88 C 0.73338 0.88283 0.47816
 C89 C 0.80531 0.90417 0.46134
 C90 C 0.77440 0.87648 0.44989
 C91 C 0.75352 0.95751 0.48031
 C92 C 0.72124 0.92977 0.47032
 H93 H 0.78921 0.91321 0.58095
 H94 H 0.70780 0.86011 0.46827
 H95 H 0.83615 0.90357 0.44467
 H96 H 0.74839 0.99108 0.48439
 C97 C -0.01451 0.29662 0.40564
 C98 C 0.02499 0.30107 0.37417
 C99 C 0.03214 0.26760 0.34442
 C100 C -0.00194 0.23209 0.34947
 C101 C -0.04855 0.28888 0.37077
 C102 C -0.04248 0.25345 0.34027
 C103 C -0.00821 0.25479 0.43376
 C104 C -0.00069 0.22101 0.40497
 H105 H 0.04584 0.32834 0.37619
 H106 H 0.00325 0.20470 0.32556
 H107 H -0.07702 0.30771 0.36834
 H108 H -0.00710 0.25282 0.47325
 C109 C 0.01194 0.78554 0.09791
 C110 C -0.02564 0.78944 0.13187
 C111 C -0.03134 0.75586 0.16292
 C112 C 0.00185 0.72073 0.15701
 C113 C 0.04967 0.77745 0.13230
 C114 C 0.04460 0.74405 0.16340
 C115 C 0.00475 0.74385 0.07158
 C116 C -0.00053 0.70968 0.10201
 H117 H -0.04671 0.81631 0.13025
 H118 H -0.00212 0.69328 0.18239
 H119 H 0.07827 0.79653 0.13235
 H120 H 0.00483 0.74165 0.03221
 C121 C 0.51566 0.28501 0.59690
 C122 C 0.47660 0.28956 0.62821
 C123 C 0.46899 0.25654 0.65956
 C124 C 0.50241 0.22118 0.65667
 C125 C 0.55169 0.27723 0.63363
 C126 C 0.54510 0.24437 0.66505
 C127 C 0.50941 0.24303 0.57105
 C128 C 0.50239 0.20936 0.60179
 H129 H 0.45611 0.31679 0.62469
 H130 H 0.49710 0.19411 0.68224
 H131 H 0.58071 0.29567 0.63436
 H132 H 0.51092 0.24033 0.53180
 C133 C 0.48698 0.79474 0.90926
 C134 C 0.52525 0.80120 0.87597
 C135 C 0.53324 0.76806 0.84610
 C136 C 0.50130 0.73108 0.85259
 C137 C 0.45027 0.78481 0.87376
 C138 C 0.45727 0.75165 0.84403
 C139 C 0.49503 0.75541 0.93556
 C140 C 0.50360 0.72035 0.90508
 H141 H 0.54496 0.82933 0.87723
 H142 H 0.50700 0.70415 0.82817
 H143 H 0.42089 0.80222 0.87243
 H144 H 0.49556 0.75311 0.97505
 C145 C -0.22314 0.63013 0.94044
 C146 C -0.18836 0.60265 0.96234
 C147 C -0.20065 0.57828 1.00094
 C148 C -0.24756 0.58357 1.01439
 C149 C -0.25947 0.59975 0.92829
 C150 C -0.27281 0.57564 0.96663
 C151 C -0.23951 0.65565 0.98312
 C152 C -0.25253 0.63166 1.02185
 H153 H -0.15612 0.60378 0.94966
 H154 H -0.25760 0.56356 1.04589
 H155 H -0.27643 0.60095 0.89360
 H156 H -0.23987 0.68988 0.98314
 C157 C -0.27007 0.36386 0.45899
 C158 C -0.30602 0.38938 0.47909
 C159 C -0.29403 0.41513 0.51601
 C160 C -0.24689 0.41215 0.53053
 C161 C -0.23638 0.39660 0.44503
 C162 C -0.22400 0.42189 0.48229
 C163 C -0.25185 0.34086 0.50041
 C164 C -0.23902 0.36706 0.54001
 H165 H -0.33743 0.38999 0.46256
 H166 H -0.23750 0.43319 0.56092
 H167 H -0.22109 0.39706 0.40993
 H168 H -0.24966 0.30671 0.50222
 C169 C 0.22609 -0.13357 -0.04133
 C170 C 0.19032 -0.10802 -0.02102
 C171 C 0.20248 -0.08257 0.01612
 C172 C 0.24969 -0.08582 0.03052
 C173 C 0.25993 -0.10097 -0.05511
 C174 C 0.27270 -0.07608 -0.01769
 C175 C 0.24425 -0.15689 -0.00011
 C176 C 0.25738 -0.13098 0.03962
 H177 H 0.15881 -0.10744 -0.03726
 H178 H 0.25928 -0.06498 0.06103
 H179 H 0.27551 -0.10080 -0.09004
 H180 H 0.24634 -0.19105 0.00144
 C181 C 0.27874 1.13081 0.44162
 C182 C 0.31341 1.10354 0.46415
 C183 C 0.30091 1.07960 0.50302
 C184 C 0.25394 1.08516 0.51615
 C185 C 0.24243 1.10031 0.42979
 C186 C 0.22891 1.07667 0.46842
 C187 C 0.26221 1.15687 0.48379
 C188 C 0.24892 1.13336 0.52277
 H189 H 0.34563 1.10421 0.45138
 H190 H 0.24375 1.06553 0.54789
 H191 H 0.22566 1.10103 0.39497
 H192 H 0.26162 1.19109 0.48312
 C193 C 0.18552 0.54288 0.24702
 C194 C 0.15827 0.52679 0.20404
 C195 C 0.13080 0.49514 0.21664
 C196 C 0.13279 0.48298 0.27081
 C197 C 0.15422 0.55522 0.28593
 C198 C 0.12651 0.52448 0.29826
 C199 C 0.20744 0.50310 0.26753
 C200 C 0.17980 0.47094 0.27845
 H201 H 0.16244 0.53744 0.16664
 H202 H 0.11013 0.45754 0.28136
 H203 H 0.15373 0.58634 0.30188
 H204 H 0.24100 0.49797 0.26340
 C205 C -0.19041 1.03010 0.26692
 C206 C -0.15852 1.01554 0.30641
 C207 C -0.13276 0.98416 0.29172
 C208 C -0.14117 0.97034 0.23904
 C209 C -0.16381 1.04203 0.22265
 C210 C -0.13798 1.01134 0.20833
 C211 C -0.21342 0.99206 0.25347
 C212 C -0.18619 0.95867 0.23837
 H213 H -0.15641 1.02883 0.34254
 H214 H -0.11925 0.94534 0.22731
 H215 H -0.16412 1.07316 0.20529
 H216 H -0.24705 0.98794 0.25890
 C217 C 0.30868 0.53436 -0.23608
 C218 C 0.33713 0.51922 -0.19334
 C219 C 0.36461 0.48848 -0.20555
 C220 C 0.36109 0.47553 -0.25886
 C221 C 0.33883 0.54704 -0.27679
 C222 C 0.36613 0.51676 -0.28858
 C223 C 0.28634 0.49420 -0.25393
 C224 C 0.31399 0.46288 -0.26495
 H225 H 0.33615 0.53212 -0.15703
 H226 H 0.38386 0.45064 -0.26873
 H227 H 0.33872 0.57794 -0.29467
 H228 H 0.25260 0.48899 -0.25097
 C229 C 0.68561 0.04373 -0.24959
 C230 C 0.65861 0.02811 -0.29306
 C231 C 0.63112 -0.00372 -0.28114
 C232 C 0.63285 -0.01648 -0.22713
 C233 C 0.65409 0.05555 -0.21075
 C234 C 0.62643 0.02462 -0.19908
 C235 C 0.70749 0.00377 -0.22955
 C236 C 0.67982 -0.02852 -0.21932
 H237 H 0.66304 0.03910 -0.33029
 H238 H 0.61019 -0.04207 -0.21707
 H239 H 0.65345 0.08645 -0.19426
 H240 H 0.74106 -0.00132 -0.23366
 C241 C 0.04382 0.23698 0.84087
 C242 C 0.05032 0.27507 0.87434
 C243 C 0.01707 0.28317 0.90399
 C244 C -0.02007 0.25152 0.89713
 C245 C 0.03340 0.20019 0.87609
 C246 C 0.00009 0.20729 0.90558
 C247 C 0.00468 0.24539 0.81429
 C248 C -0.03050 0.25414 0.84461
 H249 H 0.07853 0.29467 0.87326
 H250 H -0.04709 0.25730 0.92143
 H251 H 0.05034 0.17053 0.87707
 H252 H 0.00260 0.24613 0.77478
 C253 C 0.53614 0.26078 0.15267
 C254 C 0.53978 0.22385 0.11775
 C255 C 0.50608 0.21882 0.08679
 C256 C 0.47119 0.25212 0.09354
 C257 C 0.52820 0.29920 0.11916
 C258 C 0.49471 0.29488 0.08807
 C259 C 0.49444 0.25331 0.17897
 C260 C 0.46018 0.24886 0.14852
 H261 H 0.56640 0.20245 0.11895
 H262 H 0.44368 0.24874 0.06816
 H263 H 0.54735 0.32774 0.11980
 H264 H 0.49227 0.25279 0.21836
 C265 C 0.03565 0.76638 0.65341
 C266 C 0.03998 0.72718 0.62233
 C267 C 0.00686 0.71960 0.59117
 C268 C -0.02839 0.75308 0.59404
 C269 C 0.02786 0.80228 0.61647
 C270 C -0.00508 0.79563 0.58523
 C271 C -0.00628 0.76036 0.67952
 C272 C -0.04005 0.75329 0.64898
 H273 H 0.06720 0.70666 0.62574
 H274 H -0.05553 0.74775 0.56863
 H275 H 0.04653 0.83115 0.61528
 H276 H -0.00885 0.76194 0.71879
 C277 C 0.54572 0.73633 0.34295
 C278 C 0.55178 0.77447 0.37630
 C279 C 0.51839 0.78248 0.40577
 C280 C 0.48142 0.75067 0.39901
 C281 C 0.53503 0.69955 0.37792
 C282 C 0.50166 0.70656 0.40728
 C283 C 0.50457 0.74526 0.31481
 C284 C 0.47092 0.75337 0.34346
 H285 H 0.57992 0.79419 0.37533
 H286 H 0.45404 0.75646 0.42274
 H287 H 0.55227 0.67007 0.37928
 H288 H 0.50270 0.74620 0.27531
 B289 B -0.02822 0.01805 1.04832
 B290 B -0.05130 0.00774 0.99408
 B291 B -0.01541 0.04730 0.99862
 B292 B 0.02266 0.03193 1.03933
 B293 B 0.00975 -0.01800 1.05919
 B294 B -0.03667 -0.03234 1.03154
 B295 B 0.02182 -0.02127 0.96159
 B296 B 0.04533 -0.01059 1.01560
 B297 B 0.00911 -0.04984 1.01065
 B298 B -0.02889 -0.03463 0.97045
 B299 B -0.01567 0.01503 0.95022
 B300 B 0.03080 0.02940 0.97790
 B301 B 0.47686 0.51787 0.55178
 B302 B 0.45282 0.50754 0.49818
 B303 B 0.48858 0.54727 0.50186
 B304 B 0.52749 0.53200 0.54155
 B305 B 0.51512 0.48197 0.56159
 B306 B 0.46829 0.46742 0.53504
 B307 B 0.52529 0.47904 0.46355
 B308 B 0.54981 0.48962 0.51702
 B309 B 0.51372 0.45028 0.51283
 B310 B 0.47488 0.46541 0.47372
 B311 B 0.48749 0.51517 0.45338
 B312 B 0.53445 0.52966 0.47986
 B313 B 0.52847 0.96308 0.56158
 B314 B 0.54963 0.97763 0.50786
 B315 B 0.51061 0.94098 0.50914
 B316 B 0.47580 0.95439 0.55269
 B317 B 0.49390 1.00045 0.57758
 B318 B 0.54019 1.01441 0.54991
 B319 B 0.47770 1.01628 0.48122
 B320 B 0.45580 1.00161 0.53434
 B321 B 0.49509 1.03783 0.53308
 B322 B 0.52981 1.02454 0.48987
 B323 B 0.51153 0.97871 0.46478
 B324 B 0.46531 0.96487 0.49217
 B325 B 0.02751 0.46323 1.06015
 B326 B 0.04911 0.47818 1.00678
 B327 B 0.00998 0.44164 1.00731
 B328 B -0.02509 0.45474 1.05066
 B329 B -0.00709 0.50054 1.07625
 B330 B 0.03945 0.51463 1.04920
 B331 B -0.02255 0.51722 0.97991
 B332 B -0.04486 0.50211 1.03264
 B333 B -0.00553 0.53830 1.03217
 B334 B 0.02952 0.52531 0.98917
 B335 B 0.01133 0.47973 0.96336
 B336 B -0.03511 0.46574 0.99016
 B337 B 0.01147 0.52662 0.45543
 B338 B 0.03635 0.51882 0.50942
 B339 B -0.00176 0.55594 0.50384
 B340 B -0.03985 0.53778 0.46552
 B341 B -0.02510 0.48843 0.44858
 B342 B 0.02256 0.47724 0.47556
 B343 B -0.03497 0.48614 0.54728
 B344 B -0.05991 0.49443 0.49312
 B345 B -0.02199 0.45719 0.49899
 B346 B 0.01634 0.47540 0.53711
 B347 B 0.00154 0.52464 0.55433
 B348 B -0.04626 0.53583 0.52744
 B349 B 0.51037 0.02485 -0.04340
 B350 B 0.53479 0.01840 0.01105
 B351 B 0.49614 0.05500 0.00366
 B352 B 0.45879 0.03540 -0.03454
 B353 B 0.47436 -0.01397 -0.05007
 B354 B 0.52175 -0.02406 -0.02205
 B355 B 0.46347 -0.01454 0.04852
 B356 B 0.43898 -0.00764 -0.00611
 B357 B 0.47724 -0.04425 0.00113
 B358 B 0.51494 -0.02476 0.03938
 B359 B 0.49936 0.02477 0.05518
 B360 B 0.45170 0.03452 0.02727
 B361 B 0.48203 0.48257 -0.05324
 B362 B 0.46040 0.49646 -0.00009
 B363 B 0.49558 0.45673 -0.00174
 B364 B 0.53314 0.46945 -0.04302
 B365 B 0.52015 0.51779 -0.06700
 B366 B 0.47464 0.53398 -0.04066
 B367 B 0.53534 0.52694 0.03074
 B368 B 0.55697 0.51367 -0.02233
 B369 B 0.52134 0.55291 -0.02125
 B370 B 0.48434 0.54014 0.02032
 B371 B 0.49721 0.49148 0.04430
 B372 B 0.54268 0.47537 0.01791
 B373 B -0.01479 0.98214 0.44272
 B374 B -0.03799 0.99465 0.49538
 B375 B -0.00235 0.95539 0.49386
 B376 B 0.03620 0.96941 0.45434
 B377 B 0.02322 1.01810 0.43128
 B378 B -0.02317 1.03314 0.45646
 B379 B 0.03573 1.02523 0.52978
 B380 B 0.05892 1.01342 0.47712
 B381 B 0.02273 1.05215 0.47809
 B382 B -0.01514 1.03798 0.51793
 B383 B -0.00233 0.98902 0.54089
 B384 B 0.04408 0.97408 0.51574
 B385 B 0.76976 0.22293 0.19873
 B386 B 0.76137 0.19963 0.25337
 B387 B 0.79964 0.23687 0.24754
 B388 B 0.78199 0.27426 0.20719
 B389 B 0.73222 0.25967 0.18875
 B390 B 0.72003 0.21287 0.21698
 B391 B 0.73048 0.27173 0.28649
 B392 B 0.73929 0.29550 0.23210
 B393 B 0.70139 0.25807 0.23822
 B394 B 0.71868 0.22065 0.27811
 B395 B 0.76834 0.23550 0.29692
 B396 B 0.78028 0.28238 0.26871
 B397 B 0.71365 0.77881 0.68986
 B398 B 0.72820 0.80001 0.74351
 B399 B 0.69164 0.76093 0.74239
 B400 B 0.70508 0.72614 0.69886
 B401 B 0.75108 0.74433 0.67381
 B402 B 0.76497 0.79066 0.70138
 B403 B 0.76703 0.72818 0.77016
 B404 B 0.75235 0.70625 0.71711
 B405 B 0.78850 0.74560 0.71823
 B406 B 0.77518 0.78030 0.76141
 B407 B 0.72941 0.76193 0.78665
 B408 B 0.71563 0.71569 0.75936
 B409 B 0.27537 0.26162 0.79471
 B410 B 0.26783 0.28661 0.74074
 B411 B 0.30484 0.24837 0.74639
 B412 B 0.28641 0.21029 0.78461
 B413 B 0.23701 0.22515 0.80142
 B414 B 0.22606 0.27288 0.77443
 B415 B 0.23510 0.21544 0.70268
 B416 B 0.24309 0.19041 0.75685
 B417 B 0.20597 0.22841 0.75087
 B418 B 0.22445 0.26677 0.71286
 B419 B 0.27372 0.25186 0.69581
 B420 B 0.28467 0.20399 0.72269
 B421 B 0.23258 0.73254 0.30384
 B422 B 0.24534 0.71076 0.25041
 B423 B 0.20549 0.74574 0.25314
 B424 B 0.21897 0.78356 0.29372
 B425 B 0.26788 0.77091 0.31619
 B426 B 0.28370 0.72540 0.28964
 B427 B 0.27463 0.78576 0.21799
 B428 B 0.26251 0.80756 0.27139
 B429 B 0.30185 0.77214 0.26926
 B430 B 0.28830 0.73488 0.22839
 B431 B 0.23905 0.74734 0.20598
 B432 B 0.22340 0.79291 0.23250
 B433 B 0.26936 0.72706 0.69804
 B434 B 0.25868 0.70328 0.75173
 B435 B 0.29843 0.73904 0.74810
 B436 B 0.28341 0.77775 0.70799
 B437 B 0.23349 0.76528 0.68765
 B438 B 0.21879 0.71857 0.71444
 B439 B 0.22990 0.77593 0.78553
 B440 B 0.24085 0.80019 0.73198
 B441 B 0.20149 0.76411 0.73617
 B442 B 0.21638 0.72546 0.77567
 B443 B 0.26599 0.73819 0.79633
 B444 B 0.28064 0.78502 0.76959
 B445 B 0.21338 0.27737 0.19023
 B446 B 0.22815 0.29888 0.24365
 B447 B 0.19176 0.25959 0.24297
 B448 B 0.20509 0.22471 0.19956
 B449 B 0.25086 0.24297 0.17406
 B450 B 0.26472 0.28949 0.20124
 B451 B 0.26744 0.22731 0.27038
 B452 B 0.25251 0.20510 0.21759
 B453 B 0.28855 0.24456 0.21818
 B454 B 0.27534 0.27943 0.26125
 B455 B 0.22978 0.26098 0.28697
 B456 B 0.21602 0.21457 0.26006
 B457 B 0.77510 0.76044 0.29444
 B458 B 0.76832 0.78475 0.23995
 B459 B 0.80526 0.74643 0.24731
 B460 B 0.78610 0.70895 0.28570
 B461 B 0.73664 0.72411 0.30138
 B462 B 0.72606 0.77137 0.27325
 B463 B 0.73597 0.71306 0.20283
 B464 B 0.74319 0.68873 0.25754
 B465 B 0.70624 0.72665 0.25030
 B466 B 0.72529 0.76447 0.21184
 B467 B 0.77492 0.74931 0.19590
 B468 B 0.78517 0.70177 0.22392
 B469 B 0.73201 0.23482 0.80657
 B470 B 0.74523 0.21193 0.75398
 B471 B 0.70561 0.24722 0.75517
 B472 B 0.71890 0.28575 0.79494
 B473 B 0.76745 0.27314 0.81850
 B474 B 0.78322 0.22697 0.79338
 B475 B 0.77548 0.28605 0.72012
 B476 B 0.76294 0.30896 0.77272
 B477 B 0.80204 0.27315 0.77213
 B478 B 0.78865 0.23525 0.73202
 B479 B 0.73973 0.24768 0.70853
 B480 B 0.72410 0.29388 0.73362
 N481 N 0.38710 1.04190 0.39844
 C482 C 0.40580 1.03935 0.35446
 N483 N 0.44862 1.04062 0.35274
 N484 N 0.47178 1.04026 0.39365
 C485 C 0.45304 1.03858 0.43781
 N486 N 0.41033 1.04124 0.43934
 N487 N -0.11259 0.54372 0.89672
 C488 C -0.09365 0.54133 0.85284
 N489 N -0.05082 0.54249 0.85146
 N490 N -0.02789 0.54184 0.89253
 C491 C -0.04688 0.53994 0.93654
 N492 N -0.08958 0.54274 0.93779
 N493 N 0.10830 -0.04426 0.87595
 C494 C 0.08873 -0.03521 0.83257
 N495 N 0.04610 -0.03164 0.83102
 N496 N 0.02433 -0.03307 0.87192
 C497 C 0.04434 -0.03803 0.91578
 N498 N 0.08644 -0.04540 0.91695
 N499 N 0.54840 0.47026 0.33229
 C500 C 0.59057 0.46341 0.33340
 N501 N 0.60971 0.45223 0.37641
 N502 N 0.58812 0.45193 0.41760
 C503 C 0.54671 0.46244 0.41694
 N504 N 0.52688 0.46970 0.37336
 N505 N 0.55942 0.53973 0.16229
 C506 C 0.60068 0.52810 0.16486
 N507 N 0.62291 0.52749 0.12311
 N508 N 0.60350 0.53434 0.08020
 C509 C 0.56139 0.54240 0.07714
 N510 N 0.54016 0.54667 0.11937
 N511 N 0.12219 1.02990 0.62422
 C512 C 0.09932 1.02597 0.66549
 N513 N 0.05708 1.03330 0.66247
 N514 N 0.03787 1.04026 0.61958
 C515 C 0.06003 1.04022 0.57765
 N516 N 0.10277 1.03647 0.58119
 N517 N -0.05387 0.48052 0.68114
 C518 C -0.09664 0.48384 0.68288
 N519 N -0.11954 0.47793 0.64134
 N520 N -0.10012 0.47234 0.59920
 C521 C -0.05729 0.47216 0.59663
 N522 N -0.03462 0.47498 0.63895
 N523 N 0.37885 -0.02212 0.14259
 C524 C 0.40189 -0.01741 0.18424
 N525 N 0.44459 -0.02135 0.18238
 N526 N 0.46371 -0.02648 0.14004
 C527 C 0.44093 -0.02825 0.09771
 N528 N 0.39813 -0.02727 0.10028
 N529 N 0.35972 0.44834 0.04746
 C530 C 0.33032 0.46309 0.01489
 N531 N 0.34198 0.49368 -0.01768
 N532 N 0.38196 0.50709 -0.01935
 C533 C 0.41194 0.48957 0.01060
 N534 N 0.39964 0.46166 0.04564
 N535 N -0.15618 0.99128 0.47527
 C536 C -0.16875 0.96327 0.51034
 N537 N -0.13985 0.94995 0.54433
 N538 N -0.09963 0.96223 0.54182
 C539 C -0.08655 0.98746 0.50453
 N540 N -0.11592 1.00355 0.47278
 N541 N -0.16966 0.00228 1.00410
 C542 C -0.18258 0.03209 0.97093
 N543 N -0.15316 0.05052 0.94174
 N544 N -0.11240 0.04145 0.94730
 C545 C -0.09942 0.01422 0.98300
 N546 N -0.12886 -0.00682 1.00966
 N547 N 0.33488 0.50416 0.51215
 C548 C 0.32155 0.53163 0.47660
 N549 N 0.35044 0.54772 0.44508
 N550 N 0.39119 0.53870 0.45046
 C551 C 0.40467 0.51397 0.48826
 N552 N 0.37570 0.49514 0.51756
 N553 N 0.15554 0.51104 0.52705
 C554 C 0.16808 0.55178 0.51903
 N555 N 0.13836 0.58133 0.50912
 N556 N 0.09774 0.57081 0.50711
 C557 C 0.08480 0.53054 0.51554
 N558 N 0.11454 0.50063 0.52553
 N559 N 0.63745 0.07759 0.03397
 C560 C 0.66692 0.05019 0.01853
 N561 N 0.65410 0.01091 0.00509
 N562 N 0.61318 0.00045 0.00465
 C563 C 0.58357 0.02862 0.01829
 N564 N 0.59675 0.06677 0.03429
 N565 N 0.66380 0.98286 0.46627
 C566 C 0.67675 0.94241 0.47460
 N567 N 0.64894 0.91403 0.49342
 N568 N 0.60979 0.92534 0.50344
 C569 C 0.59642 0.96536 0.49465
 N570 N 0.62418 0.99406 0.47576
 N571 N 0.16409 0.48345 0.96802
 C572 C 0.17650 0.44265 0.97499
 N573 N 0.14802 0.41399 0.99177
 N574 N 0.10877 0.42537 1.00121
 C575 C 0.09596 0.46578 0.99386
 N576 N 0.12438 0.49475 0.97695
 N577 N 0.00980 0.34612 0.47088
 C578 C -0.02099 0.33428 0.43860
 N579 N -0.05600 0.35878 0.43408
 N580 N -0.05883 0.39482 0.45821
 C581 C -0.02722 0.40792 0.48857
 N582 N 0.00685 0.38224 0.49505
 N583 N 0.51059 -0.15510 -0.02582
 C584 C 0.47984 -0.16778 -0.05772
 N585 N 0.44441 -0.14391 -0.06235
 N586 N 0.44109 -0.10769 -0.03861
 C587 C 0.47262 -0.09378 -0.00857
 N588 N 0.50714 -0.11885 -0.00202
 N589 N 0.04982 -0.14919 1.07076
 C590 C 0.01660 -0.17613 1.06489
 N591 N -0.01552 -0.16449 1.03415
 N592 N -0.01544 -0.12643 1.01247
 C593 C 0.01680 -0.09859 1.02045
 N594 N 0.04975 -0.11120 1.04918
 N595 N 0.55394 0.35076 0.57273
 C596 C 0.52178 0.32316 0.56395
 N597 N 0.49090 0.33467 0.53144
 N598 N 0.49103 0.37315 0.51082
 C599 C 0.52208 0.40158 0.52173
 N600 N 0.55394 0.38916 0.55220
 N601 N 0.48993 1.13290 0.61462
 C602 C 0.49665 1.16583 0.58334
 N603 N 0.49961 1.15780 0.53486
 N604 N 0.49696 1.11837 0.51843
 C605 C 0.49077 1.08538 0.54988
 N606 N 0.48723 1.09355 0.59821
 N607 N -0.00349 0.65844 1.03463
 C608 C -0.00569 0.66616 1.08327
 N609 N -0.01086 0.63289 1.11450
 N610 N -0.01289 0.59358 1.09791
 C611 C -0.01010 0.58573 1.04943
 N612 N -0.00544 0.61903 1.01802
 N613 N 0.51153 0.67186 -0.02647
 C614 C 0.51396 0.68018 -0.07533
 N615 N 0.52547 0.64840 -0.10473
 N616 N 0.53232 0.60971 -0.08642
 C617 C 0.52831 0.60087 -0.03791
 N618 N 0.51796 0.63294 -0.00821
 N619 N 0.00459 1.16957 0.47392
 C620 C 0.01122 1.17913 0.42603
 N621 N 0.02854 1.14931 0.39783
 N622 N 0.03693 1.11091 0.41618
 C623 C 0.02891 1.10066 0.46362
 N624 N 0.01272 1.13101 0.49217
 N625 N 0.79288 0.63753 0.85279
 C626 C 0.79000 0.65610 0.89681
 N627 N 0.79106 0.69891 0.89862
 N628 N 0.79079 0.72218 0.85776
 C629 C 0.78940 0.70354 0.81355
 N630 N 0.79229 0.66086 0.81194
 N631 N 0.29309 0.19913 0.39883
 C632 C 0.29190 0.15629 0.39757
 N633 N 0.29410 0.13731 0.35372
 N634 N 0.29298 0.16026 0.31259
 C635 C 0.29022 0.20297 0.31374
 N636 N 0.29230 0.22202 0.35769
 N637 N 0.70715 0.35747 0.37302
 C638 C 0.71688 0.33788 0.41622
 N639 N 0.72134 0.29533 0.41750
 N640 N 0.71991 0.27372 0.37650
 C641 C 0.71404 0.29381 0.33279
 N642 N 0.70602 0.33579 0.33192
 N643 N 0.21824 0.79827 0.91655
 C644 C 0.21313 0.84073 0.91569
 N645 N 0.20384 0.86060 0.87253
 N646 N 0.20387 0.83934 0.83114
 C647 C 0.21276 0.79755 0.83171
 N648 N 0.21800 0.77709 0.87527
 N649 N 0.27683 0.87347 0.12473
 C650 C 0.27351 0.85098 0.08315
 N651 N 0.28206 0.80896 0.08558
 N652 N 0.28964 0.78948 0.12819
 C653 C 0.28898 0.81111 0.17045
 N654 N 0.28397 0.85375 0.16749
 N655 N 0.78448 0.30725 0.58736
 C656 C 0.77649 0.34937 0.58404
 N657 N 0.77962 0.37238 0.62525
 N658 N 0.78607 0.35316 0.66845
 C659 C 0.79054 0.31051 0.67226
 N660 N 0.79134 0.28827 0.63043
 N661 N 0.23044 0.19641 0.56891
 C662 C 0.23372 0.15364 0.56734
 N663 N 0.22737 0.13079 0.60886
 N664 N 0.22144 0.15028 0.65088
 C665 C 0.22132 0.19312 0.65332
 N666 N 0.22456 0.21574 0.61097
 N667 N 0.72911 0.62826 0.10888
 C668 C 0.73311 0.65136 0.06711
 N669 N 0.72861 0.69400 0.06898
 N670 N 0.72354 0.71305 0.11137
 C671 C 0.72241 0.69025 0.15376
 N672 N 0.72404 0.64746 0.15124
 N673 N 0.19853 0.60958 0.20253
 C674 C 0.21311 0.58032 0.23540
 N675 N 0.24312 0.59230 0.26847
 N676 N 0.25607 0.63241 0.27032
 C677 C 0.23863 0.66222 0.24007
 N678 N 0.21140 0.64963 0.20450
 N679 N 0.74175 0.09378 0.77439
 C680 C 0.71325 0.08132 0.73984
 N681 N 0.69986 0.11019 0.70583
 N682 N 0.71252 0.15031 0.70791
 C683 C 0.73827 0.16333 0.74471
 N684 N 0.75443 0.13395 0.77641
 N685 N 0.80544 0.09833 0.30586
 C686 C 0.78505 0.06847 0.27902
 N687 N 0.75432 0.08115 0.24696
 N688 N 0.74598 0.12201 0.24031
 C689 C 0.76876 0.15173 0.26458
 N690 N 0.79716 0.13917 0.29919
 N691 N 0.29877 0.60088 0.80515
 C692 C 0.28237 0.57193 0.77396
 N693 N 0.25479 0.58525 0.73855
 N694 N 0.24589 0.62609 0.73299
 C695 C 0.26498 0.65511 0.76197
 N696 N 0.28989 0.64167 0.79962
 N697 N 0.33081 0.38830 0.74130
 C698 C 0.30139 0.41822 0.73166
 N699 N 0.26058 0.40593 0.72372
 N700 N 0.24997 0.36496 0.72506
 C701 C 0.27975 0.33503 0.73477
 N702 N 0.32008 0.34773 0.74313
 N703 N 0.82660 0.88759 0.21506
 C704 C 0.79996 0.91696 0.23233
 N705 N 0.76121 0.90409 0.24762
 N706 N 0.75067 0.86317 0.24813
 C707 C 0.77819 0.83364 0.23267
 N708 N 0.81566 0.84693 0.21476
 N709 N 0.73307 0.91422 0.78483
 C710 C 0.69256 0.92702 0.77658
 N711 N 0.66426 0.89909 0.75793
 N712 N 0.67569 0.85997 0.74797
 C713 C 0.71578 0.84676 0.75666
 N714 N 0.74440 0.87463 0.77540
 N715 N 0.16379 0.39769 0.25924
 C716 C 0.19257 0.42632 0.27536
 N717 N 0.23345 0.41400 0.28180
 N718 N 0.24473 0.37428 0.27294
 C719 C 0.21565 0.34571 0.25666
 N720 N 0.17514 0.35841 0.24989
 N721 N 0.10619 0.19503 0.81431
 C722 C 0.08163 0.22986 0.80835
 N723 N 0.09424 0.26042 0.77611
 N724 N 0.13089 0.25730 0.75304
 C725 C 0.15651 0.22335 0.76076
 N726 N 0.14284 0.19205 0.79132
 N727 N 0.59548 0.75960 0.27759
 C728 C 0.58323 0.72916 0.31014
 N729 N 0.60727 0.69389 0.31511
 N730 N 0.64333 0.69048 0.29103
 C731 C 0.65683 0.72173 0.26029
 N732 N 0.63154 0.75605 0.25343
 N733 N 0.60022 0.29907 0.18278
 C734 C 0.57452 0.26461 0.18578
 N735 N 0.58741 0.23103 0.21364
 N736 N 0.62561 0.23098 0.23494
 C737 C 0.65230 0.26459 0.22957
 N738 N 0.63831 0.29892 0.20408
 N739 N 0.10182 0.80435 0.67645
 C740 C 0.07402 0.77250 0.68596
 N741 N 0.08559 0.74173 0.71861
 N742 N 0.12424 0.74170 0.73874
 C743 C 0.15280 0.77247 0.72716
 N744 N 0.14038 0.80419 0.69649
 N745 N 0.88352 0.74045 0.63650
 C746 C 0.91646 0.74751 0.66762
 N747 N 0.90846 0.75067 0.71609
 N748 N 0.86906 0.74790 0.73264
 C749 C 0.83606 0.74137 0.70134
 N750 N 0.84421 0.73763 0.65302
 N751 N 0.40879 0.24568 0.21588
 C752 C 0.41658 0.24399 0.16720
 N753 N 0.38330 0.23964 0.13586
 N754 N 0.34394 0.23786 0.15238
 C755 C 0.33603 0.24012 0.20090
 N756 N 0.36933 0.24398 0.23243
 N757 N 0.39840 0.78070 0.35019
 C758 C 0.42897 0.76458 0.32210
 N759 N 0.41986 0.75769 0.27416
 N760 N 0.38112 0.76446 0.25570
 C761 C 0.35009 0.77947 0.28414
 N762 N 0.35982 0.78774 0.33163
 N763 N 0.89807 0.27744 0.85439
 C764 C 0.92949 0.26499 0.82498
 N765 N 0.92089 0.26211 0.77624
 N766 N 0.88197 0.26889 0.75818
 C767 C 0.85022 0.28014 0.78794
 N768 N 0.85941 0.28471 0.83627
 N769 N 0.56545 0.96233 0.68904
 C770 C 0.60660 0.97284 0.68193
 N771 N 0.62373 0.96519 0.63809
 N772 N 0.59953 0.95199 0.60119
 C773 C 0.55715 0.94648 0.60610
 N774 N 0.54115 0.94962 0.65172
 N775 N 0.12282 0.46328 1.13640
 C776 C 0.10592 0.47157 1.18020
 N777 N 0.06458 0.46200 1.18743
 N778 N 0.03997 0.44961 1.15023
 C779 C 0.05583 0.44595 1.10460
 N780 N 0.09831 0.45042 1.09962
 N781 N -0.06798 0.00514 1.17417
 C782 C -0.10808 0.01899 1.16922
 N783 N -0.11980 0.04067 1.12793
 N784 N -0.09312 0.04532 1.09108
 C785 C -0.05340 0.02965 1.09504
 N786 N -0.04122 0.01045 1.13777
 N787 N 0.38785 0.54739 0.63271
 C788 C 0.39723 0.52357 0.67325
 N789 N 0.43535 0.50484 0.67718
 N790 N 0.46230 0.50791 0.64070
 C791 C 0.45226 0.52961 0.59885
 N792 N 0.41469 0.54993 0.59579
 N793 N 0.38488 0.45854 -0.12598
 C794 C 0.39649 0.47225 -0.17096
 N795 N 0.43803 0.47912 -0.17969
 N796 N 0.46648 0.47598 -0.14347
 C797 C 0.45453 0.46542 -0.09740
 N798 N 0.41350 0.45479 -0.09003
 N799 N -0.10910 0.95108 0.36806
 C800 C -0.09909 0.96795 0.32385
 N801 N -0.05872 0.98048 0.31596
 N802 N -0.03017 0.97915 0.35218
 C803 C -0.04088 0.96513 0.39751
 N804 N -0.08037 0.94932 0.40408
 N805 N 0.05709 0.50883 0.33269
 C806 C 0.09365 0.53117 0.33469
 N807 N 0.09994 0.55866 0.37182
 N808 N 0.07197 0.56143 0.40750
 C809 C 0.03614 0.53757 0.40678
 N810 N 0.02901 0.51206 0.36794
 N811 N 0.55653 0.00934 -0.16600
 C812 C 0.59359 0.03073 -0.16263
 N813 N 0.60034 0.05673 -0.12420
 N814 N 0.57215 0.05906 -0.08872
 C815 C 0.53563 0.03633 -0.09111
 N816 N 0.52821 0.01216 -0.13096
 N817 N 0.67580 0.52152 -0.00551
 C818 C 0.68542 0.55472 -0.03541
 N819 N 0.65457 0.57106 -0.06507
 N820 N 0.61514 0.55632 -0.06323
 C821 C 0.60503 0.52422 -0.03211
 N822 N 0.63636 0.50629 -0.00431
 N823 N 0.17732 1.02317 0.49728
 C824 C 0.18725 1.05559 0.46639
 N825 N 0.15679 1.07098 0.43553
 N826 N 0.11743 1.05603 0.43697
 C827 C 0.10702 1.02468 0.46894
 N828 N 0.13796 1.00771 0.49812
 N829 N 0.16248 -0.01984 0.99866
 C830 C 0.17285 -0.05072 1.03169
 N831 N 0.14395 -0.06252 1.06530
 N832 N 0.10514 -0.04654 1.06340
 C833 C 0.09352 -0.01923 1.02699
 N834 N 0.12359 -0.00409 0.99657
 N835 N 0.66608 0.47763 0.49667
 C836 C 0.67667 0.44759 0.53064
 N837 N 0.64846 0.43737 0.56561
 N838 N 0.60999 0.45413 0.56432
 C839 C 0.59803 0.48067 0.52728
 N840 N 0.62753 0.49417 0.49522
 N841 N -0.15719 0.44030 0.44410
 C842 C -0.18595 0.44823 0.47887
 N843 N -0.17607 0.47644 0.51390
 N844 N -0.13767 0.49386 0.51584
 C845 C -0.10763 0.48270 0.48389
 N846 N -0.11873 0.45731 0.44653
 N847 N 0.32222 -0.02280 0.01365
 C848 C 0.31196 -0.05157 -0.02061
 N849 N 0.34112 -0.06165 -0.05417
 N850 N 0.38009 -0.04585 -0.05150
 C851 C 0.39130 -0.01954 -0.01507
 N852 N 0.36112 -0.00658 0.01580
 N853 N 0.33848 1.01313 0.51522
 C854 C 0.33232 1.05351 0.52940
 N855 N 0.36419 1.07355 0.55360
 N856 N 0.40142 1.05493 0.56098
 C857 C 0.40857 1.01561 0.54408
 N858 N 0.37581 0.99446 0.52264
 N859 N -0.16222 0.51237 1.01315
 C860 C -0.16890 0.55265 1.02731
 N861 N -0.13729 0.57314 1.05145
 N862 N -0.09981 0.55502 1.05885
 C863 C -0.09219 0.51577 1.04205
 N864 N -0.12467 0.49420 1.02061
 N865 N -0.02697 0.67033 0.53136
 C866 C 0.00615 0.68090 0.56117
 N867 N 0.03853 0.65330 0.56635
 N868 N 0.03742 0.61622 0.54452
 C869 C 0.00458 0.60499 0.51514
 N870 N -0.02781 0.63297 0.50902
 N871 N 0.46571 0.16525 0.04015
 C872 C 0.50352 0.18216 0.05385
 N873 N 0.53927 0.16109 0.04270
 N874 N 0.53731 0.12351 0.02160
 C875 C 0.49968 0.10512 0.01063
 N876 N 0.46390 0.12748 0.01917
 N877 N -0.04499 0.14605 0.92655
 C878 C -0.01396 0.17357 0.94019
 N879 N 0.01171 0.16238 0.97846
 N880 N 0.00741 0.12490 1.00112
 C881 C -0.02254 0.09657 0.98637
 N882 N -0.04912 0.10844 0.94908
 N883 N 0.45698 0.64550 0.43018
 C884 C 0.48828 0.67314 0.44263
 N885 N 0.51475 0.66227 0.48029
 N886 N 0.51102 0.62494 0.50340
 C887 C 0.48085 0.59645 0.48975
 N888 N 0.45341 0.60804 0.45318
 N889 N 0.54726 0.85147 0.43031
 C890 C 0.51764 0.82078 0.43687
 N891 N 0.48701 0.82729 0.47025
 N892 N 0.48614 0.86318 0.49554
 C893 C 0.51606 0.89391 0.48883
 N894 N 0.54608 0.88718 0.45509
 N895 N 0.04580 0.35240 0.92767
 C896 C 0.01651 0.32152 0.93496
 N897 N -0.01363 0.32786 0.96896
 N898 N -0.01433 0.36378 0.99420
 C899 C 0.01529 0.39468 0.98679
 N900 N 0.04478 0.38814 0.95239
 N901 N 0.51117 0.33928 0.01714
 C902 C 0.48426 0.32985 0.05398
 N903 N 0.45742 0.36020 0.06842
 N904 N 0.45817 0.39862 0.04765
 C905 C 0.48565 0.40849 0.01158
 N906 N 0.51169 0.37768 -0.00382
 N907 N 0.01485 0.83876 0.51494
 C908 C -0.01503 0.82854 0.54830
 N909 N -0.04460 0.85779 0.55837
 N910 N -0.04334 0.89610 0.53729
 C911 C -0.01251 0.90693 0.50540
 N912 N 0.01597 0.87702 0.49374
 N913 N 0.21328 0.37280 0.11407
 C914 C 0.22154 0.35596 0.07024
 N915 N 0.21199 0.31463 0.06300
 N916 N 0.19965 0.28996 0.10021
 C917 C 0.19602 0.30574 0.14586
 N918 N 0.20047 0.34822 0.15087
 N919 N 0.71246 0.81556 0.56231
 C920 C 0.72298 0.85672 0.56922
 N921 N 0.71546 0.87393 0.61304
 N922 N 0.70239 0.84980 0.65010
 C923 C 0.69688 0.80740 0.64537
 N924 N 0.69986 0.79132 0.59978
 N925 N 0.29781 0.63718 0.61811
 C926 C 0.27448 0.64688 0.57732
 N927 N 0.25680 0.68548 0.57282
 N928 N 0.26029 0.71259 0.60905
 C929 C 0.28136 0.70226 0.65121
 N930 N 0.30074 0.66421 0.65479
 N931 N 0.75599 0.18231 0.07338
 C932 C 0.77049 0.14242 0.07845
 N933 N 0.79282 0.13130 0.11948
 N934 N 0.79756 0.15832 0.15596
 C935 C 0.78130 0.19781 0.15190
 N936 N 0.76138 0.20941 0.10941
 N937 N 0.70176 0.13956 0.88027
 C938 C 0.71847 0.14934 0.92458
 N939 N 0.73047 0.18979 0.93294
 N940 N 0.72888 0.21866 0.89702
 C941 C 0.71502 0.20823 0.85155
 N942 N 0.69968 0.16862 0.84457
 N943 N 0.20821 0.63567 0.37749
 C944 C 0.22307 0.64695 0.42210
 N945 N 0.23138 0.68828 0.43051
 N946 N 0.22833 0.71679 0.39431
 C947 C 0.21642 0.70511 0.34859
 N948 N 0.20455 0.66436 0.34157
 N949 N 0.80653 0.85056 0.37499
 C950 C 0.78053 0.84370 0.41345
 N951 N 0.75931 0.80656 0.41692
 N952 N 0.76227 0.77825 0.38194
 C953 C 0.78643 0.78577 0.34205
 N954 N 0.80900 0.82237 0.33956
 N955 N 0.25795 0.30732 0.91749
 C956 C 0.28090 0.34351 0.91569
 N957 N 0.30850 0.34952 0.87859
 N958 N 0.31086 0.32163 0.84279
 C959 C 0.28643 0.28618 0.84336
 N960 N 0.26075 0.27932 0.88213
 N961 N 0.81983 0.40679 0.81532
 C962 C 0.80501 0.43725 0.78405
 N963 N 0.77300 0.42736 0.75263
 N964 N 0.75745 0.38804 0.75164
 C965 C 0.77390 0.35709 0.78121
 N966 N 0.80479 0.36748 0.81374
 N967 N 0.27190 0.92624 0.25370
 C968 C 0.30375 0.93588 0.28543
 N969 N 0.31857 0.90513 0.31629
 N970 N 0.30373 0.86577 0.31393
 C971 C 0.27309 0.85562 0.28097
 N972 N 0.25655 0.88687 0.25193
 N973 N 0.22920 0.91661 0.75121
 C974 C 0.19889 0.92696 0.71749
 N975 N 0.18855 0.89857 0.68280
 N976 N 0.20534 0.86012 0.68427
 C977 C 0.23202 0.84836 0.72123
 N978 N 0.24575 0.87807 0.75286
 N979 N 0.68554 0.39386 0.18412
 C980 C 0.69847 0.42297 0.21694
 N981 N 0.73009 0.41267 0.24897
 N982 N 0.74568 0.37372 0.25081
 C983 C 0.72963 0.34352 0.22120
 N984 N 0.70138 0.35500 0.18574
 N985 N 0.72906 0.57184 0.23843
 C986 C 0.70022 0.56144 0.27262
 N987 N 0.68984 0.59058 0.30605
 N988 N 0.70539 0.62965 0.30325
 C989 C 0.73171 0.64098 0.26682
 N990 N 0.74502 0.61084 0.23614
 N991 N 0.22638 0.07409 0.73616
 C992 C 0.19756 0.06406 0.77052
 N993 N 0.18847 0.09292 0.80475
 N994 N 0.20510 0.13155 0.80248
 C995 C 0.23128 0.14271 0.76583
 N996 N 0.24343 0.11266 0.73440
 N997 N 0.26302 0.08776 0.23682
 C998 C 0.30348 0.08132 0.22314
 N999 N 0.32408 0.11308 0.19933
 N1000 N 0.30585 0.15048 0.19178
 C1001 C 0.26639 0.15787 0.20812
 N1002 N 0.24475 0.12525 0.22925
 N1003 N 0.82395 0.61442 0.69745
 C1004 C 0.80373 0.58251 0.72145
 N1005 N 0.76341 0.58881 0.73576
 N1006 N 0.74495 0.62627 0.72861
 C1007 C 0.76626 0.65904 0.70733
 N1008 N 0.80554 0.65179 0.69034
 N1009 N 0.91578 0.71633 0.21171
 C1010 C 0.93190 0.75387 0.19579
 N1011 N 0.91029 0.78968 0.20521
 N1012 N 0.87289 0.78791 0.22674
 C1013 C 0.85528 0.75044 0.24003
 N1014 N 0.87819 0.71471 0.23318
 N1015 N 0.41934 0.22279 0.71922
 C1016 C 0.43016 0.25592 0.68949
 N1017 N 0.40267 0.28839 0.68421
 N1018 N 0.36549 0.28737 0.70588
 C1019 C 0.35401 0.25454 0.73520
 N1020 N 0.38188 0.22204 0.74140
 N1021 N 0.39630 0.70716 0.82038
 C1022 C 0.42395 0.73861 0.80842
 N1023 N 0.41325 0.76538 0.77096
 N1024 N 0.37607 0.76176 0.74754
 C1025 C 0.34756 0.73140 0.76068
 N1026 N 0.35897 0.70370 0.79708
 N1027 N 0.90559 0.20537 0.30587
 C1028 C 0.92629 0.24335 0.30499
 N1029 N 0.90889 0.27539 0.27813
 N1030 N 0.87214 0.27048 0.25457
 C1031 C 0.84981 0.23372 0.25785
 N1032 N 0.86779 0.20087 0.28341
 N1033 N 0.10245 0.29467 0.32280
 C1034 C 0.07108 0.26614 0.31438
 N1035 N 0.07722 0.23656 0.27970
 N1036 N 0.11342 0.23575 0.25489
 C1037 C 0.14474 0.26474 0.26338
 N1038 N 0.13840 0.29357 0.29849
 N1039 N 0.60215 0.79716 0.82153
 C1040 C 0.57150 0.76753 0.81490
 N1041 N 0.57801 0.73706 0.78135
 N1042 N 0.61389 0.73634 0.75599
 C1043 C 0.64459 0.76626 0.76279
 N1044 N 0.63785 0.79613 0.79667
 N1045 N 0.58841 0.26293 0.73573
 C1046 C 0.57852 0.23398 0.70121
 N1047 N 0.60837 0.20556 0.68936
 N1048 N 0.64682 0.20695 0.71001
 C1049 C 0.65723 0.23677 0.74326
 N1050 N 0.62682 0.26416 0.75652
 N1051 N 0.08865 0.76259 0.23357
 C1052 C 0.07862 0.73394 0.19880
 N1053 N 0.10815 0.70525 0.18687
 N1054 N 0.14651 0.70610 0.20776
 C1055 C 0.15710 0.73555 0.24136
 N1056 N 0.12696 0.76325 0.25461
   
