data_POSCAR
  _audit_creation_date              2014-09-24
  _audit_creation_method            'ToBaCCo'
  _symmetry_space_group_name_H-M    'P1'
  _symmetry_Int_Tables_number       1
  _symmetry_cell_setting            triclinic
  loop_
  _symmetry_equiv_pos_as_xyz
 x,y,z
_cell_length_a 36.4969
_cell_length_b 36.9971
_cell_length_c 53.0505
_cell_angle_alpha 89.987800
_cell_angle_beta 90.031100
_cell_angle_gamma 119.759400
loop_
  _atom_site_label
  _atom_site_type_symbol
  _atom_site_fract_x
  _atom_site_fract_y
  _atom_site_fract_z
C1 C -0.02318 0.48280 1.22778
 C2 C 0.02019 0.51369 1.22803
 C3 C 0.04103 0.52861 1.25110
 C4 C 0.02081 0.51297 1.27441
 C5 C -0.02302 0.48227 1.27439
 C6 C -0.04350 0.46689 1.25104
 H7 H -0.07722 0.44550 1.25096
 H8 H 0.07472 0.55024 1.25064
 C9 C 0.51366 0.49031 1.22592
 C10 C 0.49732 0.51782 1.22599
 C11 C 0.49033 0.53184 1.24904
 C12 C 0.49850 0.51866 1.27211
 C13 C 0.51515 0.49103 1.27227
 C14 C 0.52177 0.47692 1.24892
 H15 H 0.53595 0.45721 1.24841
 H16 H 0.47640 0.55181 1.24903
 C17 C 0.48496 0.97977 1.27332
 C18 C 0.50648 1.02404 1.27339
 C19 C 0.51756 1.04495 1.24999
 C20 C 0.50835 1.02363 1.22675
 C21 C 0.48690 0.97938 1.22714
 C22 C 0.47561 0.95841 1.25030
 H23 H 0.45922 0.92464 1.25042
 H24 H 0.53389 1.07867 1.24986
 C25 C 1.02295 0.51312 0.77187
 C26 C 0.97892 0.48563 0.77170
 C27 C 0.95800 0.47149 0.74861
 C28 C 0.97963 0.48438 0.72557
 C29 C 1.02409 0.51202 0.72551
 C30 C 1.04471 0.52641 0.74892
 H31 H 1.07872 0.54609 0.74956
 H32 H 0.92399 0.45146 0.74854
 C33 C 0.51014 0.48853 0.72838
 C34 C 0.48889 0.51176 0.72832
 C35 C 0.47832 0.52285 0.75136
 C36 C 0.48839 0.51143 0.77446
 C37 C 0.50955 0.48810 0.77452
 C38 C 0.52012 0.47700 0.75148
 H39 H 0.53642 0.45921 0.75152
 H40 H 0.46205 0.54068 0.75130
 C41 C 0.50519 0.02019 0.72641
 C42 C 0.48837 -0.02377 0.72632
 C43 C 0.48203 -0.04423 0.74971
 C44 C 0.49051 -0.02274 0.77266
 C45 C 0.50727 0.02083 0.77253
 C46 C 0.51405 0.04157 0.74945
 H47 H 0.52813 0.07519 0.74940
 H48 H 0.46759 -0.07785 0.75030
 O49 O 0.39432 0.67157 0.97159
 O50 O 0.39586 0.74190 0.97927
 C51 C 0.36938 0.74668 0.96615
 O52 O 0.33018 0.72752 0.97086
 O53 O 0.25920 0.65937 0.97921
 C54 C 0.25427 0.62803 0.96657
 O55 O 0.27370 0.60854 0.97171
 O56 O 0.34322 0.60694 0.98000
 C57 C 0.37471 0.63284 0.96701
 O58 O 0.39648 0.66024 1.02175
 O59 O 0.39386 0.72847 1.02947
 C60 C 0.37379 0.74754 1.03405
 O61 O 0.34235 0.74239 1.02094
 O62 O 0.27340 0.67231 1.02931
 C63 C 0.25442 0.63380 1.03450
 O64 O 0.25967 0.60748 1.02185
 O65 O 0.33109 0.60965 1.03010
 C66 C 0.37030 0.62923 1.03478
 Cr67 Cr 0.39289 0.69945 1.00052
 Cr68 Cr 0.30241 0.69929 1.00009
 Cr69 Cr 0.30301 0.61036 1.00090
 O70 O 0.33276 0.66968 1.00050
 O71 O 0.60452 0.34079 0.97898
 O72 O 0.60595 0.27213 0.97066
 C73 C 0.62557 0.25280 0.96559
 O74 O 0.65729 0.25756 0.97827
 O75 O 0.72668 0.32750 0.97047
 C76 C 0.74616 0.36615 0.96575
 O77 O 0.74125 0.39231 0.97880
 O78 O 0.67021 0.39118 0.97097
 C79 C 0.63101 0.37208 0.96622
 O80 O 0.60658 0.32825 1.02906
 O81 O 0.60414 0.25771 1.02075
 C82 C 0.63054 0.25208 1.03340
 O83 O 0.66964 0.27085 1.02846
 O84 O 0.74094 0.33885 1.02070
 C85 C 0.74608 0.36987 1.03379
 O86 O 0.72708 0.38991 1.02898
 O87 O 0.65816 0.39280 1.02112
 C88 C 0.62645 0.36686 1.03393
 Cr89 Cr 0.60755 0.30081 0.99986
 Cr90 Cr 0.69753 0.29983 0.99948
 Cr91 Cr 0.69806 0.38932 0.99996
 O92 O 0.66770 0.32998 0.99976
 O93 O 0.66555 0.39205 0.52943
 O94 O 0.73633 0.39305 0.52099
 C95 C 0.74143 0.36672 0.53373
 O96 O 0.72179 0.32810 0.52885
 O97 O 0.65205 0.25840 0.52106
 C98 C 0.62075 0.25378 0.53412
 O99 O 0.60115 0.27329 0.52945
 O100 O 0.59970 0.34205 0.52146
 C101 C 0.62641 0.37300 0.53434
 O102 O 0.65285 0.39420 0.47936
 O103 O 0.72163 0.39134 0.47093
 C104 C 0.74055 0.37132 0.46586
 O105 O 0.73524 0.33995 0.47864
 O106 O 0.66360 0.27219 0.47087
 C107 C 0.62436 0.25345 0.46628
 O108 O 0.59833 0.25900 0.47934
 O109 O 0.60107 0.32975 0.47131
 C110 C 0.62121 0.36836 0.46645
 Cr111 Cr 0.69295 0.39045 0.50018
 Cr112 Cr 0.69207 0.30079 0.49987
 Cr113 Cr 0.60231 0.30211 0.50038
 O114 O 0.66246 0.33112 0.50015
 O115 O 0.33567 0.60834 0.52859
 O116 O 0.26409 0.60579 0.52041
 C117 C 0.25838 0.63168 0.53321
 O118 O 0.27724 0.67030 0.52833
 O119 O 0.34603 0.74084 0.52057
 C120 C 0.37766 0.74614 0.53357
 O121 O 0.39796 0.72739 0.52880
 O122 O 0.40106 0.65950 0.52084
 C123 C 0.37476 0.62813 0.53359
 O124 O 0.34828 0.60672 0.47845
 O125 O 0.27859 0.60797 0.47028
 C126 C 0.25890 0.62728 0.46533
 O127 O 0.26366 0.65842 0.47813
 O128 O 0.33449 0.72706 0.47038
 C129 C 0.37369 0.74645 0.46569
 O130 O 0.40026 0.74154 0.47865
 O131 O 0.39929 0.67164 0.47068
 C132 C 0.37981 0.63306 0.46568
 Cr133 Cr 0.30777 0.60943 0.49944
 Cr134 Cr 0.30651 0.69805 0.49936
 Cr135 Cr 0.39739 0.69888 0.49974
 O136 O 0.33721 0.66879 0.49951
 C137 C 0.45820 0.55400 0.33913
 C138 C 0.44295 0.51184 0.33383
 C139 C 0.45594 0.50023 0.31199
 C140 C 0.48459 0.53075 0.29534
 C141 C 0.49941 0.57297 0.30066
 C142 C 0.48638 0.58451 0.32249
 C143 C 0.44477 0.56611 0.36151
 C144 C 0.43375 0.57689 0.38009
 C145 C 0.42087 0.59055 0.40204
 C146 C 0.38627 0.56212 0.41634
 C147 C 0.37315 0.57578 0.43726
 C148 C 0.39451 0.61814 0.44412
 C149 C 0.42951 0.64636 0.42971
 C150 C 0.44254 0.63262 0.40884
 H151 H 0.42098 0.48798 0.34653
 H152 H 0.44369 0.46750 0.30804
 H153 H 0.52139 0.59693 0.28803
 H154 H 0.49827 0.61722 0.32639
 H155 H 0.36923 0.52948 0.41121
 H156 H 0.34605 0.55324 0.44788
 H157 H 0.44666 0.67917 0.43441
 H158 H 0.46933 0.65489 0.39787
 C159 C 0.45352 0.90522 0.34038
 C160 C 0.42209 0.89909 0.32299
 C161 C 0.43246 0.92340 0.30120
 C162 C 0.47439 0.95433 0.29662
 C163 C 0.50594 0.96013 0.31401
 C164 C 0.49549 0.93576 0.33585
 C165 C 0.44235 0.87982 0.36270
 C166 C 0.43175 0.85788 0.38114
 C167 C 0.41771 0.83093 0.40282
 C168 C 0.37490 0.81001 0.40926
 C169 C 0.36067 0.78287 0.42983
 C170 C 0.38912 0.77622 0.44432
 C171 C 0.43221 0.79766 0.43780
 C172 C 0.44637 0.82482 0.41717
 H173 H 0.38954 0.87550 0.32627
 H174 H 0.40774 0.91838 0.28798
 H175 H 0.53853 0.98347 0.31065
 H176 H 0.52008 0.94065 0.34914
 H177 H 0.35243 0.81445 0.39825
 H178 H 0.32731 0.76690 0.43426
 H179 H 0.45495 0.79321 0.44850
 H180 H 0.47958 0.84079 0.41232
 C181 C 0.09753 0.54999 0.34008
 C182 C 0.10407 0.57907 0.32129
 C183 C 0.07884 0.56690 0.29969
 C184 C 0.04611 0.52533 0.29655
 C185 C 0.04037 0.49626 0.31558
 C186 C 0.06571 0.50857 0.33716
 C187 C 0.12398 0.56260 0.36215
 C188 C 0.14649 0.57335 0.38048
 C189 C 0.17382 0.58630 0.40216
 C190 C 0.17962 0.62052 0.41649
 C191 C 0.20699 0.63368 0.43719
 C192 C 0.22897 0.61275 0.44383
 C193 C 0.22265 0.57820 0.42936
 C194 C 0.19527 0.56512 0.40870
 H195 H 0.12867 0.61124 0.32336
 H196 H 0.08416 0.59049 0.28581
 H197 H 0.01705 0.46365 0.31353
 H198 H 0.06074 0.48565 0.35146
 H199 H 0.16322 0.63719 0.41156
 H200 H 0.21115 0.66042 0.44786
 H201 H 0.23905 0.56139 0.43389
 H202 H 0.19106 0.53863 0.39771
 C203 C 0.54960 0.45246 0.33923
 C204 C 0.55756 0.49336 0.33697
 C205 C 0.54638 0.50626 0.31494
 C206 C 0.52655 0.47827 0.29477
 C207 C 0.51949 0.43728 0.29726
 C208 C 0.53069 0.42452 0.31932
 C209 C 0.56129 0.43915 0.36182
 C210 C 0.57106 0.42752 0.38055
 C211 C 0.58275 0.41307 0.40266
 C212 C 0.61716 0.44087 0.41732
 C213 C 0.62937 0.42649 0.43831
 C214 C 0.60727 0.38402 0.44487
 C215 C 0.57241 0.35642 0.43013
 C216 C 0.56029 0.37090 0.40917
 H217 H 0.57283 0.51546 0.35215
 H218 H 0.55477 0.53863 0.31343
 H219 H 0.50390 0.41445 0.28250
 H220 H 0.52444 0.39275 0.32087
 H221 H 0.63481 0.47358 0.41240
 H222 H 0.65638 0.44856 0.44919
 H223 H 0.55472 0.32355 0.43460
 H224 H 0.53364 0.34911 0.39791
 C225 C 0.53972 0.09644 0.34030
 C226 C 0.56776 0.10864 0.32002
 C227 C 0.55663 0.08489 0.29800
 C228 C 0.51721 0.04802 0.29586
 C229 C 0.48892 0.03655 0.31637
 C230 C 0.50021 0.06047 0.33841
 C231 C 0.55183 0.12118 0.36291
 C232 C 0.56319 0.14270 0.38153
 C233 C 0.57802 0.16927 0.40335
 C234 C 0.62092 0.18939 0.40958
 C235 C 0.63592 0.21640 0.43021
 C236 C 0.60816 0.22372 0.44491
 C237 C 0.56497 0.20301 0.43862
 C238 C 0.55005 0.17599 0.41795
 H239 H 0.59847 0.13645 0.32129
 H240 H 0.57973 0.09471 0.28300
 H241 H 0.45747 0.00991 0.31516
 H242 H 0.47799 0.05105 0.35389
 H243 H 0.64287 0.18448 0.39836
 H244 H 0.66933 0.23181 0.43447
 H245 H 0.54274 0.20797 0.44949
 H246 H 0.51679 0.16066 0.41324
 C247 C 0.90054 0.44551 0.34012
 C248 C 0.93236 0.48690 0.33713
 C249 C 0.95763 0.49909 0.31555
 C250 C 0.95182 0.46992 0.29657
 C251 C 0.91911 0.42836 0.29977
 C252 C 0.89393 0.41631 0.32139
 C253 C 0.87416 0.43312 0.36220
 C254 C 0.85179 0.42274 0.38057
 C255 C 0.82471 0.41036 0.40233
 C256 C 0.80412 0.43235 0.40896
 C257 C 0.77707 0.41991 0.42975
 C258 C 0.77020 0.38521 0.44425
 C259 C 0.79131 0.36347 0.43752
 C260 C 0.81835 0.37599 0.41669
 H261 H 0.93737 0.50990 0.35137
 H262 H 0.98092 0.53169 0.31343
 H263 H 0.91373 0.40473 0.28591
 H264 H 0.86932 0.38416 0.32351
 H265 H 0.80878 0.45898 0.39795
 H266 H 0.76133 0.43733 0.43435
 H267 H 0.78670 0.33659 0.44821
 H268 H 0.83410 0.35871 0.41171
 C269 C 0.54802 0.45067 1.15830
 C270 C 0.52078 0.42120 1.17576
 C271 C 0.50925 0.43412 1.19764
 C272 C 0.52473 0.47666 1.20223
 C273 C 0.55198 0.50608 1.18459
 C274 C 0.56347 0.49312 1.16270
 C275 C 0.56093 0.43729 1.13623
 C276 C 0.57188 0.42568 1.11798
 C277 C 0.58500 0.41126 1.09648
 C278 C 0.56336 0.36898 1.09014
 C279 C 0.57663 0.35459 1.06969
 C280 C 0.61185 0.38235 1.05526
 C281 C 0.63325 0.42488 1.06171
 C282 C 0.61989 0.43919 1.08219
 H283 H 0.50874 0.38828 1.17257
 H284 H 0.48827 0.41095 1.21102
 H285 H 0.56481 0.53906 1.18795
 H286 H 0.58475 0.51618 1.14937
 H287 H 0.53637 0.34708 1.10112
 H288 H 0.55944 0.32167 1.06530
 H289 H 0.66049 0.44708 1.05105
 H290 H 0.63693 0.47198 1.08698
 C291 C 0.90321 0.44279 1.16089
 C292 C 0.89633 0.41433 1.18016
 C293 C 0.92063 0.42743 1.20216
 C294 C 0.95270 0.46932 1.20521
 C295 C 0.95878 0.49766 1.18563
 C296 C 0.93443 0.48444 1.16369
 C297 C 0.87739 0.42967 1.13856
 C298 C 0.85551 0.41920 1.11995
 C299 C 0.82900 0.40728 1.09793
 C300 C 0.82272 0.37307 1.08341
 C301 C 0.79617 0.36113 1.06233
 C302 C 0.77552 0.38329 1.05552
 C303 C 0.78239 0.41785 1.07016
 C304 C 0.80893 0.42971 1.09118
 H305 H 0.87211 0.38199 1.17821
 H306 H 0.91502 0.40436 1.21646
 H307 H 0.98114 0.53053 1.18760
 H308 H 0.93952 0.50692 1.14907
 H309 H 0.83809 0.35547 1.08848
 H310 H 0.79151 0.33433 1.05154
 H311 H 0.76700 0.43560 1.06551
 H312 H 0.81356 0.45623 1.10229
 C313 C 0.54731 0.09510 1.15946
 C314 C 0.55201 0.05998 1.16188
 C315 C 0.53933 0.03634 1.18402
 C316 C 0.52128 0.04720 1.20412
 C317 C 0.51745 0.08317 1.20144
 C318 C 0.53013 0.10667 1.17930
 C319 C 0.56084 0.11991 1.13689
 C320 C 0.57236 0.14138 1.11825
 C321 C 0.58651 0.16780 1.09635
 C322 C 0.62916 0.18794 1.08959
 C323 C 0.64338 0.21495 1.06894
 C324 C 0.61507 0.22225 1.05474
 C325 C 0.57213 0.20148 1.06154
 C326 C 0.55799 0.17447 1.08223
 H327 H 0.56595 0.05113 1.14678
 H328 H 0.54518 0.01050 1.18567
 H329 H 0.50325 0.09250 1.21613
 H330 H 0.52641 0.13387 1.17765
 H331 H 0.65152 0.18310 1.10043
 H332 H 0.67664 0.23040 1.06428
 H333 H 0.54951 0.20642 1.05107
 H334 H 0.52491 0.15913 1.08736
 C335 C 0.45875 0.55462 1.15884
 C336 C 0.44373 0.51238 1.16375
 C337 C 0.45659 0.50036 1.18548
 C338 C 0.48481 0.53052 1.20246
 C339 C 0.49984 0.57285 1.19737
 C340 C 0.48693 0.58483 1.17564
 C341 C 0.44433 0.56691 1.13695
 C342 C 0.43188 0.57727 1.11881
 C343 C 0.41663 0.58973 1.09737
 C344 C 0.37361 0.56830 1.09143
 C345 C 0.35853 0.58092 1.07097
 C346 C 0.38637 0.61524 1.05614
 C347 C 0.42965 0.63643 1.06221
 C348 C 0.44462 0.62374 1.08270
 H349 H 0.42171 0.48875 1.15094
 H350 H 0.44406 0.46753 1.18924
 H351 H 0.52154 0.59656 1.21025
 H352 H 0.49864 0.61759 1.17206
 H353 H 0.35166 0.54198 1.10271
 H354 H 0.32505 0.56394 1.06686
 H355 H 0.45194 0.66300 1.05125
 H356 H 0.47799 0.64059 1.08717
 C357 C 0.09658 0.55289 1.16115
 C358 C 0.07178 0.51044 1.16664
 C359 C 0.04695 0.49764 1.18841
 C360 C 0.04644 0.52721 1.20483
 C361 C 0.07171 0.56978 1.19932
 C362 C 0.09654 0.58252 1.17755
 C363 C 0.12244 0.56610 1.13887
 C364 C 0.14437 0.57739 1.12031
 C365 C 0.17096 0.59122 1.09834
 C366 C 0.17701 0.56286 1.08401
 C367 C 0.20375 0.57655 1.06304
 C368 C 0.22484 0.61889 1.05615
 C369 C 0.21821 0.64707 1.07059
 C370 C 0.19147 0.63329 1.09153
 H371 H 0.07175 0.48726 1.15414
 H372 H 0.02820 0.46470 1.19250
 H373 H 0.07185 0.59305 1.21177
 H374 H 0.11572 0.61546 1.17352
 H375 H 0.16132 0.53023 1.08915
 H376 H 0.20818 0.55404 1.05240
 H377 H 0.23397 0.67986 1.06587
 H378 H 0.18705 0.65551 1.10252
 C379 C 0.44710 0.90430 1.16020
 C380 C 0.47272 0.89940 1.17793
 C381 C 0.48542 0.92374 1.19974
 C382 C 0.47285 0.95347 1.20399
 C383 C 0.44667 0.95792 1.18630
 C384 C 0.43400 0.93353 1.16444
 C385 C 0.43431 0.87909 1.13778
 C386 C 0.42403 0.85744 1.11922
 C387 C 0.41214 0.83098 1.09735
 C388 C 0.43451 0.81058 1.09116
 C389 C 0.42240 0.78384 1.07039
 C390 C 0.38762 0.77711 1.05550
 C391 C 0.36556 0.79811 1.06176
 C392 C 0.37776 0.82485 1.08256
 H393 H 0.48295 0.87681 1.17486
 H394 H 0.50551 0.91979 1.21318
 H395 H 0.43624 0.98033 1.18940
 H396 H 0.41403 0.93744 1.15089
 H397 H 0.46114 0.81507 1.10251
 H398 H 0.44006 0.76818 1.06616
 H399 H 0.33860 0.79360 1.05076
 H400 H 0.36017 0.84044 1.08722
 C401 C 0.54544 0.45045 0.66050
 C402 C 0.57592 0.47382 0.67868
 C403 C 0.56431 0.48621 0.70073
 C404 C 0.52209 0.47550 0.70480
 C405 C 0.49157 0.45188 0.68654
 C406 C 0.50323 0.43951 0.66446
 C407 C 0.55765 0.43733 0.63803
 C408 C 0.56869 0.42652 0.61947
 C409 C 0.58278 0.41378 0.59762
 C410 C 0.62558 0.43483 0.59116
 C411 C 0.63972 0.42186 0.57043
 C412 C 0.61118 0.38754 0.55585
 C413 C 0.56810 0.36678 0.56239
 C414 C 0.55405 0.37984 0.58316
 H415 H 0.60864 0.48239 0.67583
 H416 H 0.58830 0.50439 0.71457
 H417 H 0.45875 0.44282 0.68948
 H418 H 0.47937 0.42127 0.65056
 H419 H 0.64810 0.46110 0.60227
 H420 H 0.67307 0.43853 0.56597
 H421 H 0.54529 0.34022 0.55162
 H422 H 0.52085 0.36326 0.58804
 C423 C 0.54381 0.09528 0.65947
 C424 C 0.51599 0.09804 0.67647
 C425 C 0.50341 0.07353 0.69822
 C426 C 0.51834 0.04579 0.70312
 C427 C 0.54653 0.04337 0.68607
 C428 C 0.55907 0.06791 0.66430
 C429 C 0.55699 0.12100 0.63728
 C430 C 0.56781 0.14302 0.61888
 C431 C 0.58050 0.16987 0.59719
 C432 C 0.55891 0.19106 0.59099
 C433 C 0.57173 0.21804 0.57033
 C434 C 0.60642 0.22421 0.55557
 C435 C 0.62773 0.20249 0.56186
 C436 C 0.61483 0.17551 0.58255
 H437 H 0.50409 0.11921 0.67294
 H438 H 0.48177 0.07593 0.71116
 H439 H 0.55885 0.02259 0.68969
 H440 H 0.58078 0.06569 0.65132
 H441 H 0.53233 0.18696 0.60223
 H442 H 0.55463 0.23426 0.56606
 H443 H 0.65459 0.20656 0.55095
 H444 H 0.63181 0.15930 0.58724
 C445 C 0.90332 0.44758 0.65864
 C446 C 0.93080 0.48985 0.66352
 C447 C 0.95577 0.50193 0.68527
 C448 C 0.95368 0.47180 0.70226
 C449 C 0.92585 0.42947 0.69730
 C450 C 0.90091 0.41745 0.67558
 C451 C 0.87707 0.43498 0.63651
 C452 C 0.85460 0.42383 0.61816
 C453 C 0.82721 0.40985 0.59652
 C454 C 0.82112 0.43818 0.58217
 C455 C 0.79357 0.42428 0.56157
 C456 C 0.77169 0.38178 0.55506
 C457 C 0.77834 0.35362 0.56952
 C458 C 0.80589 0.36760 0.59009
 H459 H 0.93275 0.51342 0.65060
 H460 H 0.97658 0.53475 0.68893
 H461 H 0.92369 0.40579 0.71020
 H462 H 0.87966 0.38467 0.67202
 H463 H 0.83742 0.47094 0.58702
 H464 H 0.78915 0.44678 0.55089
 H465 H 0.76201 0.32071 0.56509
 H466 H 0.81033 0.34540 0.60111
 C467 C 0.45562 0.55131 0.66020
 C468 C 0.42463 0.52762 0.67803
 C469 C 0.43558 0.51477 0.70016
 C470 C 0.47765 0.52533 0.70466
 C471 C 0.50871 0.54930 0.68675
 C472 C 0.49770 0.56212 0.66458
 C473 C 0.44400 0.56475 0.63761
 C474 C 0.43323 0.57565 0.61895
 C475 C 0.41912 0.58821 0.59701
 C476 C 0.37651 0.56625 0.59015
 C477 C 0.36219 0.57896 0.56937
 C478 C 0.39036 0.61394 0.55512
 C479 C 0.43327 0.63562 0.56205
 C480 C 0.44751 0.62282 0.58287
 H481 H 0.39200 0.51914 0.67485
 H482 H 0.41119 0.49634 0.71372
 H483 H 0.54142 0.55825 0.69002
 H484 H 0.52196 0.58059 0.65096
 H485 H 0.35425 0.53947 0.60099
 H486 H 0.32897 0.56155 0.56463
 H487 H 0.45578 0.66270 0.55154
 H488 H 0.48056 0.64011 0.58807
 C489 C 0.45162 0.90287 0.65974
 C490 C 0.44412 0.93628 0.66200
 C491 C 0.45615 0.96054 0.68389
 C492 C 0.47637 0.95209 0.70389
 C493 C 0.48305 0.91778 0.70138
 C494 C 0.47100 0.89364 0.67948
 C495 C 0.43905 0.87761 0.63734
 C496 C 0.42868 0.85594 0.61880
 C497 C 0.41652 0.82945 0.59694
 C498 C 0.38181 0.82312 0.58240
 C499 C 0.36937 0.79638 0.56160
 C500 C 0.39152 0.77558 0.55509
 C501 C 0.42660 0.78248 0.56975
 C502 C 0.43895 0.80921 0.59051
 H503 H 0.42852 0.94330 0.64697
 H504 H 0.44803 0.98488 0.68543
 H505 H 0.49891 0.91029 0.71601
 H506 H 0.47695 0.86779 0.67793
 H507 H 0.36417 0.83858 0.58726
 H508 H 0.34220 0.79172 0.55077
 H509 H 0.44435 0.76698 0.56532
 H510 H 0.46582 0.81384 0.60167
 C511 C 0.09868 0.54908 0.65902
 C512 C 0.06509 0.50837 0.66131
 C513 C 0.04041 0.49601 0.68315
 C514 C 0.04860 0.52434 0.70310
 C515 C 0.08308 0.56517 0.70055
 C516 C 0.10764 0.57738 0.67869
 C517 C 0.12443 0.56184 0.63668
 C518 C 0.14651 0.57313 0.61818
 C519 C 0.17348 0.58739 0.59637
 C520 C 0.18022 0.55947 0.58203
 C521 C 0.20745 0.57371 0.56129
 C522 C 0.22836 0.61616 0.55464
 C523 C 0.22103 0.64387 0.56909
 C524 C 0.19380 0.62955 0.58979
 H525 H 0.05827 0.48599 0.64634
 H526 H 0.01599 0.46374 0.68472
 H527 H 0.09037 0.58826 0.71512
 H528 H 0.13362 0.60902 0.67712
 H529 H 0.16469 0.52677 0.58700
 H530 H 0.21241 0.55155 0.55063
 H531 H 0.23660 0.67673 0.56455
 H532 H 0.18887 0.65145 0.60079
 C533 C 0.45168 0.54863 0.84216
 C534 C 0.43850 0.50652 0.83804
 C535 C 0.45050 0.49425 0.81605
 C536 C 0.47599 0.52404 0.79804
 C537 C 0.48903 0.56619 0.80231
 C538 C 0.47701 0.57840 0.82426
 C539 C 0.43874 0.56146 0.86445
 C540 C 0.42803 0.57300 0.88284
 C541 C 0.41538 0.58764 0.90447
 C542 C 0.38089 0.55985 0.91907
 C543 C 0.36787 0.57442 0.93960
 C544 C 0.38922 0.61708 0.94576
 C545 C 0.42409 0.64468 0.93104
 C546 C 0.43702 0.63002 0.91056
 H547 H 0.41872 0.48320 0.85171
 H548 H 0.43964 0.46153 0.81296
 H549 H 0.50868 0.58963 0.78866
 H550 H 0.48731 0.61105 0.82723
 H551 H 0.36384 0.52699 0.91448
 H552 H 0.34088 0.55233 0.95047
 H553 H 0.44122 0.67768 0.93521
 H554 H 0.46370 0.65182 0.89933
 C555 C 0.09592 0.55182 0.84005
 C556 C 0.09866 0.58157 0.82268
 C557 C 0.07468 0.56899 0.80056
 C558 C 0.04757 0.52650 0.79565
 C559 C 0.04503 0.49681 0.81315
 C560 C 0.06898 0.50944 0.83526
 C561 C 0.12160 0.56467 0.86243
 C562 C 0.14353 0.57529 0.88100
 C563 C 0.17024 0.58784 0.90294
 C564 C 0.17617 0.62217 0.91718
 C565 C 0.20310 0.63500 0.93808
 C566 C 0.22450 0.61361 0.94500
 C567 C 0.21798 0.57889 0.93065
 C568 C 0.19104 0.56614 0.90979
 H569 H 0.11954 0.61445 0.82616
 H570 H 0.07717 0.59234 0.78728
 H571 H 0.02486 0.46388 0.80954
 H572 H 0.06683 0.48615 0.84850
 H573 H 0.16026 0.63922 0.91202
 H574 H 0.20745 0.66188 0.94866
 H575 H 0.23395 0.56174 0.93539
 H576 H 0.18671 0.53955 0.89886
 C577 C 0.45461 0.90451 0.84052
 C578 C 0.48177 0.90109 0.82328
 C579 C 0.49381 0.92509 0.80130
 C580 C 0.47892 0.95288 0.79640
 C581 C 0.45171 0.95617 0.81381
 C582 C 0.43973 0.93219 0.83579
 C583 C 0.44102 0.87874 0.86269
 C584 C 0.42912 0.85675 0.88109
 C585 C 0.41439 0.83002 0.90283
 C586 C 0.44277 0.82418 0.91762
 C587 C 0.42824 0.79738 0.93838
 C588 C 0.38503 0.77603 0.94460
 C589 C 0.35682 0.78238 0.92967
 C590 C 0.37144 0.80919 0.90894
 H591 H 0.49334 0.87965 0.82673
 H592 H 0.51472 0.92202 0.78809
 H593 H 0.43930 0.97688 0.81021
 H594 H 0.41849 0.93488 0.84893
 H595 H 0.47608 0.84011 0.91302
 H596 H 0.45081 0.79317 0.94942
 H597 H 0.32338 0.76642 0.93387
 H598 H 0.34920 0.81345 0.89757
 C599 C 0.54660 0.45110 0.84222
 C600 C 0.55952 0.49315 0.83812
 C601 C 0.54728 0.50533 0.81617
 C602 C 0.52182 0.47548 0.79817
 C603 C 0.50895 0.43336 0.80244
 C604 C 0.52122 0.42125 0.82436
 C605 C 0.56029 0.43857 0.86435
 C606 C 0.57204 0.42771 0.88261
 C607 C 0.58650 0.41447 0.90408
 C608 C 0.62937 0.43542 0.91040
 C609 C 0.64379 0.42186 0.93073
 C610 C 0.61547 0.38706 0.94507
 C611 C 0.57234 0.36640 0.93867
 C612 C 0.55800 0.38003 0.91830
 H613 H 0.57938 0.51654 0.85174
 H614 H 0.55805 0.53802 0.81307
 H615 H 0.48936 0.40989 0.78878
 H616 H 0.51115 0.38865 0.82730
 H617 H 0.65172 0.46204 0.89948
 H618 H 0.67719 0.43849 0.93509
 H619 H 0.54969 0.33950 0.94925
 H620 H 0.52475 0.36352 0.91352
 C621 C 0.90460 0.44774 0.83937
 C622 C 0.93141 0.49009 0.83441
 C623 C 0.95570 0.50250 0.81242
 C624 C 0.95359 0.47262 0.79522
 C625 C 0.92651 0.43018 0.80028
 C626 C 0.90222 0.41783 0.82226
 C627 C 0.87897 0.43488 0.86175
 C628 C 0.85706 0.42367 0.88032
 C629 C 0.83032 0.40963 0.90223
 C630 C 0.82445 0.43787 0.91682
 C631 C 0.79746 0.42390 0.93768
 C632 C 0.77595 0.38140 0.94420
 C633 C 0.78241 0.35335 0.92951
 C634 C 0.80939 0.36741 0.90869
 H635 H 0.93332 0.51350 0.84745
 H636 H 0.97588 0.53540 0.80870
 H637 H 0.92439 0.40667 0.78726
 H638 H 0.88150 0.38497 0.82588
 H639 H 0.84045 0.47063 0.91195
 H640 H 0.79316 0.44630 0.94852
 H641 H 0.76635 0.32044 0.93394
 H642 H 0.81366 0.34528 0.89750
 C643 C 0.54523 0.09464 0.84000
 C644 C 0.51758 0.09777 0.82301
 C645 C 0.50505 0.07357 0.80111
 C646 C 0.51993 0.04583 0.79605
 C647 C 0.54776 0.04290 0.81317
 C648 C 0.56024 0.06711 0.83507
 C649 C 0.55876 0.12029 0.86224
 C650 C 0.57007 0.14225 0.88066
 C651 C 0.58344 0.16904 0.90240
 C652 C 0.56192 0.19003 0.90918
 C653 C 0.57538 0.21696 0.92986
 C654 C 0.61067 0.22331 0.94409
 C655 C 0.63194 0.20179 0.93722
 C656 C 0.61838 0.17485 0.91650
 H657 H 0.50586 0.11905 0.82662
 H658 H 0.48363 0.07632 0.78815
 H659 H 0.56012 0.02220 0.80944
 H660 H 0.58182 0.06461 0.84804
 H661 H 0.53487 0.18581 0.89836
 H662 H 0.55828 0.23301 0.93457
 H663 H 0.65924 0.20600 0.94772
 H664 H 0.63533 0.15880 0.91137
   
