data_POSCAR
  _audit_creation_date              2014-09-24
  _audit_creation_method            'ToBaCCo'
  _symmetry_space_group_name_H-M    'P1'
  _symmetry_Int_Tables_number       1
  _symmetry_cell_setting            triclinic
  loop_
  _symmetry_equiv_pos_as_xyz
 x,y,z
_cell_length_a 51.9557
_cell_length_b 51.8943
_cell_length_c 22.9026
_cell_angle_alpha 90.416600
_cell_angle_beta 89.956900
_cell_angle_gamma 119.999200
loop_
  _atom_site_label
  _atom_site_type_symbol
  _atom_site_fract_x
  _atom_site_fract_y
  _atom_site_fract_z
C1 C 0.13622 0.43451 0.52373
 C2 C 0.13082 0.42867 0.46511
 C3 C 0.15665 0.43165 0.44088
 N4 N 0.17761 0.43921 0.48276
 C5 C 0.16517 0.44087 0.53348
 C6 C 0.16143 0.43006 0.38051
 C7 C 0.18728 0.43130 0.35734
 C8 C 0.19545 0.43599 0.29893
 C9 C 0.22133 0.43508 0.29400
 C10 C 0.22833 0.42980 0.34943
 N11 N 0.20726 0.42713 0.38764
 C12 C 0.25317 0.42665 0.36267
 C13 C 0.26338 0.42685 0.41981
 C14 C 0.28627 0.42150 0.43364
 C15 C 0.29146 0.42687 0.49240
 C16 C 0.27162 0.43543 0.51258
 N17 N 0.25456 0.43544 0.46805
 C18 C 0.27130 0.44554 0.56989
 C19 C 0.24971 0.45251 0.59019
 C20 C 0.25183 0.46758 0.64194
 C21 C 0.22619 0.46898 0.64678
 C22 C 0.20901 0.45475 0.59792
 N23 N 0.22337 0.44451 0.56400
 C24 C 0.18029 0.45043 0.58746
 H25 H 0.12078 0.43460 0.55536
 H26 H 0.11042 0.42342 0.44267
 H27 H 0.21438 0.43028 0.52834
 H28 H 0.18400 0.43978 0.26349
 H29 H 0.23358 0.43799 0.25401
 H30 H 0.29837 0.41499 0.40423
 H31 H 0.30836 0.42533 0.51720
 H32 H 0.22078 0.47925 0.68241
 H33 H 0.20517 0.42013 0.43063
 H34 H 0.26996 0.47658 0.67312
 C35 C 0.55902 -0.30180 0.49352
 C36 C 0.56036 -0.29742 0.55279
 C37 C 0.56892 -0.26771 0.56203
 N38 N 0.57331 -0.25378 0.51028
 C39 C 0.56696 -0.27460 0.46830
 C40 C 0.57341 -0.25388 0.61750
 C41 C 0.57768 -0.22499 0.62658
 C42 C 0.58540 -0.20972 0.67957
 C43 C 0.58412 -0.18411 0.67171
 C44 C 0.57589 -0.18429 0.61408
 N45 N 0.57193 -0.20927 0.58704
 C46 C 0.57002 -0.16291 0.58924
 C47 C 0.56815 -0.15958 0.52858
 C48 C 0.56107 -0.13975 0.50313
 C49 C 0.56279 -0.14262 0.44389
 C50 C 0.57068 -0.16425 0.43508
 N51 N 0.57434 -0.17425 0.48694
 C52 C 0.57526 -0.17362 0.37992
 C53 C 0.57897 -0.19853 0.37093
 C54 C 0.58681 -0.20601 0.31820
 C55 C 0.58492 -0.23319 0.32581
 C56 C 0.57614 -0.24152 0.38311
 N57 N 0.57252 -0.22029 0.41012
 C58 C 0.56942 -0.26913 0.40759
 H59 H 0.55305 -0.32258 0.47151
 H60 H 0.55548 -0.31425 0.58538
 H61 H 0.56232 -0.22251 0.45015
 H62 H 0.59066 -0.21669 0.72010
 H63 H 0.58837 -0.16746 0.70486
 H64 H 0.55544 -0.12465 0.52492
 H65 H 0.55857 -0.13026 0.41108
 H66 H 0.58907 -0.24564 0.29268
 H67 H 0.56198 -0.21701 0.54659
 H68 H 0.59256 -0.19353 0.27799
 C69 C 1.30157 0.85309 0.57181
 C70 C 1.30653 0.85286 0.51307
 C71 C 1.27990 0.83143 0.48833
 N72 N 1.25880 0.81890 0.52996
 C73 C 1.27202 0.83184 0.58118
 C74 C 1.27513 0.82474 0.42801
 C75 C 1.24877 0.80063 0.40464
 C76 C 1.24125 0.79642 0.34579
 C77 C 1.21545 0.76943 0.34067
 C78 C 1.20786 0.75783 0.39648
 N79 N 1.22833 0.77693 0.43509
 C80 C 1.18382 0.72932 0.40970
 C81 C 1.17299 0.71983 0.46673
 C82 C 1.15126 0.69118 0.48125
 C83 C 1.14621 0.69153 0.54000
 C84 C 1.16498 0.72041 0.55953
 N85 N 1.18107 0.73768 0.51448
 C86 C 1.16611 0.73065 0.61743
 C87 C 1.18719 0.75957 0.63711
 C88 C 1.18589 0.77195 0.69021
 C89 C 1.21177 0.79884 0.69544
 C90 C 1.22822 0.80223 0.64538
 N91 N 1.21305 0.77823 0.61014
 C92 C 1.25755 0.82566 0.63590
 H93 H 1.31784 0.86739 0.60391
 H94 H 1.32735 0.86690 0.49105
 H95 H 1.22168 0.77304 0.57400
 H96 H 1.25336 0.81107 0.31011
 H97 H 1.20386 0.75929 0.30029
 H98 H 1.14011 0.67205 0.45249
 H99 H 1.13039 0.67271 0.56538
 H100 H 1.21807 0.81390 0.73247
 H101 H 1.23026 0.77231 0.47833
 H102 H 1.16839 0.76229 0.72245
 C103 C 0.85432 0.55036 0.49271
 C104 C 0.85476 0.55674 0.43457
 C105 C 0.83252 0.56373 0.42598
 N106 N 0.81879 0.56216 0.47705
 C107 C 0.83180 0.55363 0.51781
 C108 C 0.82603 0.57235 0.37206
 C109 C 0.80154 0.57647 0.36210
 C110 C 0.79743 0.58909 0.31230
 C111 C 0.76957 0.58592 0.31625
 C112 C 0.75743 0.57148 0.36837
 N113 N 0.77709 0.56583 0.39597
 C114 C 0.72807 0.56183 0.38679
 C115 C 0.71796 0.55218 0.44412
 C116 C 0.68892 0.54088 0.46274
 C117 C 0.68875 0.53545 0.52136
 C118 C 0.71771 0.54352 0.53668
 N119 N 0.73551 0.55402 0.48947
 C120 C 0.72748 0.54266 0.59394
 C121 C 0.75627 0.54788 0.60792
 C122 C 0.76773 0.55181 0.66416
 C123 C 0.79504 0.55373 0.65967
 C124 C 0.79967 0.55104 0.60080
 N125 N 0.77586 0.54734 0.56970
 C126 C 0.82448 0.55008 0.57778
 H127 H 0.86894 0.54411 0.51408
 H128 H 0.86981 0.55633 0.40237
 H129 H 0.77157 0.54108 0.52608
 H130 H 0.81265 0.59892 0.27618
 H131 H 0.75921 0.59293 0.28388
 H132 H 0.66991 0.53717 0.43694
 H133 H 0.66952 0.52668 0.54957
 H134 H 0.80968 0.55648 0.69571
 H135 H 0.77255 0.55190 0.43140
 H136 H 0.75728 0.55271 0.70443
 C137 C 0.45444 0.14818 0.53740
 C138 C 0.45253 0.14567 0.47767
 C139 C 0.44450 0.16593 0.45845
 N140 N 0.44087 0.18028 0.50448
 C141 C 0.44725 0.16975 0.55284
 C142 C 0.43987 0.17028 0.39944
 C143 C 0.43627 0.19412 0.38020
 C144 C 0.42854 0.19719 0.32376
 C145 C 0.43032 0.22453 0.32130
 C146 C 0.43886 0.23731 0.37642
 N147 N 0.44253 0.21871 0.41188
 C148 C 0.44534 0.26640 0.39129
 C149 C 0.44738 0.27692 0.44913
 C150 C 0.45469 0.30572 0.46434
 C151 C 0.45288 0.30646 0.52405
 C152 C 0.44474 0.27814 0.54348
 N153 N 0.44101 0.26007 0.49750
 C154 C 0.44003 0.26916 0.60253
 C155 C 0.43625 0.24158 0.62168
 C156 C 0.42817 0.23055 0.67785
 C157 C 0.42988 0.20497 0.68033
 C158 C 0.43873 0.20087 0.62549
 N159 N 0.44263 0.22329 0.59019
 C160 C 0.44528 0.17826 0.61077
 H161 H 0.46021 0.13539 0.56621
 H162 H 0.45676 0.13076 0.45142
 H163 H 0.45291 0.22781 0.54976
 H164 H 0.42290 0.18168 0.28769
 H165 H 0.42619 0.23409 0.28307
 H166 H 0.46049 0.32423 0.43544
 H167 H 0.45719 0.32568 0.55019
 H168 H 0.42550 0.19116 0.71841
 H169 H 0.45257 0.22436 0.45266
 H170 H 0.42235 0.24032 0.71376
 C171 C 0.68997 0.14982 0.54150
 C172 C 0.68997 0.15511 0.48285
 C173 C 0.71892 0.17611 0.46836
 N174 N 0.73659 0.18346 0.51601
 C175 C 0.71895 0.16767 0.56097
 C176 C 0.72875 0.18683 0.41140
 C177 C 0.75742 0.21052 0.39784
 C178 C 0.76874 0.21824 0.34174
 C179 C 0.79602 0.24370 0.34665
 C180 C 0.80073 0.25081 0.40561
 N181 N 0.77701 0.23057 0.43640
 C182 C 0.82555 0.27650 0.42899
 C183 C 0.83293 0.28023 0.48893
 C184 C 0.85555 0.30599 0.51411
 C185 C 0.85599 0.30010 0.57231
 C186 C 0.83362 0.27090 0.58077
 N187 N 0.81984 0.25873 0.52959
 C188 C 0.82706 0.25582 0.63465
 C189 C 0.80252 0.22718 0.64432
 C190 C 0.79846 0.21046 0.69404
 C191 C 0.77061 0.18572 0.68978
 C192 C 0.75838 0.18799 0.63753
 N193 N 0.77803 0.21334 0.61021
 C194 C 0.72897 0.16817 0.61864
 H195 H 0.67087 0.13442 0.56679
 H196 H 0.67084 0.14460 0.45413
 H197 H 0.77348 0.22274 0.57475
 H198 H 0.75822 0.20697 0.30131
 H199 H 0.81061 0.25575 0.31081
 H200 H 0.87023 0.32683 0.49280
 H201 H 0.87111 0.31556 0.60464
 H202 H 0.76031 0.16834 0.72201
 H203 H 0.77277 0.23238 0.48004
 H204 H 0.81372 0.21586 0.73028
 O205 O 0.96724 0.48990 -0.11873
 O206 O 1.02932 0.55073 0.07133
 O207 O 0.93795 0.49551 0.05630
 O208 O 1.04263 0.55179 -0.03482
 O209 O 0.97943 0.53341 0.08017
 O210 O 1.02009 0.52719 -0.11187
 O211 O 1.06286 0.54099 0.05704
 O212 O 0.94182 0.49784 -0.05250
 C213 C 0.94926 0.49864 -0.10459
 C214 C 1.05532 0.55748 0.08132
 C215 C 0.95215 0.52131 0.07615
 C216 C 1.03596 0.55174 -0.08697
 O217 O 1.03173 0.48420 -0.07387
 O218 O 0.96883 0.47981 0.12228
 O219 O 0.93866 0.44583 -0.05346
 O220 O 1.03853 0.48647 0.03172
 O221 O 1.02209 0.49678 0.11105
 O222 O 0.98041 0.44916 -0.07436
 O223 O 1.07099 0.52395 -0.04461
 O224 O 0.94037 0.44702 0.05637
 Co225 Co 0.99944 0.48872 -0.08658
 Co226 Co 0.99969 0.51391 0.08906
 Co227 Co 0.94488 0.47416 0.00149
 Co228 Co 1.03881 0.51810 -0.00326
 O229 O 0.99376 0.49868 0.00256
 C230 C 1.05905 0.50237 -0.08222
 C231 C 0.94901 0.45351 0.10828
 C232 C 0.95304 0.43387 -0.07076
 C233 C 1.03388 0.48339 0.08575
 O234 O 0.49480 0.47288 -0.12144
 O235 O 0.44710 0.46810 0.06256
 O236 O 0.52163 0.45171 0.03527
 O237 O 0.44468 0.50533 -0.06506
 O238 O 0.48158 0.45115 0.06260
 O239 O 0.47668 0.50856 -0.13177
 O240 O 0.44467 0.50713 0.04503
 O241 O 0.48472 0.44652 -0.04239
 C242 C 0.48202 0.44774 -0.09663
 C243 C 0.43238 0.48082 0.06184
 C244 C 0.49947 0.44166 0.07110
 C245 C 0.45062 0.50253 -0.11713
 O246 O 0.53051 0.55251 -0.09101
 O247 O 0.52490 0.50536 0.10275
 O248 O 0.53917 0.47712 -0.06572
 O249 O 0.49694 0.55528 0.04254
 O250 O 0.48871 0.52202 0.10855
 O251 O 0.54841 0.52022 -0.08135
 O252 O 0.49280 0.55598 -0.06609
 O253 O 0.54979 0.50814 0.02632
 Co254 Co 0.51134 0.51251 -0.09917
 Co255 Co 0.48662 0.48817 0.07609
 Co256 Co 0.51614 0.47812 -0.00616
 Co257 Co 0.47236 0.52830 -0.01068
 O258 O 0.49665 0.50367 -0.01249
 C259 C 0.51812 0.56746 -0.08742
 C260 C 0.54956 0.51425 0.07883
 C261 C 0.55545 0.50102 -0.08995
 C262 C 0.49872 0.54888 0.09426
 O263 O 0.52629 0.02053 -0.10445
 O264 O 0.53253 -0.02104 0.08872
 O265 O 0.54021 0.06267 0.06461
 O266 O 0.49899 -0.05741 -0.04510
 O267 O 0.54992 0.02910 0.07979
 O268 O 0.49044 -0.03250 -0.11101
 O269 O 0.49497 -0.06239 0.06343
 O270 O 0.55106 0.04272 -0.02761
 C271 C 0.55090 0.03650 -0.08016
 C272 C 0.52036 -0.04837 0.08470
 C273 C 0.55668 0.05525 0.08883
 C274 C 0.50061 -0.04924 -0.09677
 O275 O 0.44848 -0.02081 -0.06524
 O276 O 0.49611 0.02209 0.11960
 O277 O 0.52243 0.07048 -0.03635
 O278 O 0.44658 -0.06043 0.06212
 O279 O 0.47854 -0.03161 0.12925
 O280 O 0.48261 0.03076 -0.06448
 O281 O 0.44653 -0.06207 -0.04793
 O282 O 0.48571 0.03832 0.04072
 Co283 Co 0.48803 -0.00096 -0.07826
 Co284 Co 0.51301 -0.00060 0.09712
 Co285 Co 0.51729 0.03861 0.00465
 Co286 Co 0.47431 -0.05536 0.00798
 O287 O 0.49822 -0.00642 0.01035
 C288 C 0.43394 -0.04827 -0.06431
 C289 C 0.48308 0.03426 0.09490
 C290 C 0.50028 0.05824 -0.07249
 C291 C 0.45252 -0.05176 0.11429
 C292 C 1.07897 0.44844 0.13472
 C293 C 1.07220 0.44455 0.19436
 C294 C 1.05056 0.45038 0.21680
 C295 C 1.03680 0.46144 0.18048
 C296 C 1.14117 0.43002 0.34199
 C297 C 1.06514 0.45943 0.09817
 C298 C 1.08961 0.43782 0.23372
 C299 C 1.10505 0.43389 0.26759
 C300 C 1.12409 0.43108 0.30775
 C301 C 1.04458 0.46690 0.12115
 H302 H 1.09583 0.44416 0.11695
 H303 H 1.04521 0.44756 0.26289
 H304 H 1.02094 0.46683 0.19937
 H305 H 1.07164 0.46350 0.05273
 C306 C 0.53230 0.62546 0.16343
 C307 C 0.53321 0.61921 0.22240
 C308 C 0.52341 0.58990 0.23971
 C309 C 0.51241 0.56686 0.19810
 C310 C 0.56417 0.70792 0.37031
 C311 C 0.52134 0.60257 0.12193
 C312 C 0.54300 0.64292 0.26480
 C313 C 0.55055 0.66330 0.29885
 C314 C 0.55844 0.68741 0.33758
 C315 C 0.51100 0.57296 0.13878
 H316 H 0.53974 0.64802 0.14955
 H317 H 0.52395 0.58481 0.28532
 H318 H 0.50477 0.54433 0.21236
 H319 H 0.52073 0.60810 0.07663
 C320 C 0.37759 -0.10244 0.18271
 C321 C 0.38334 -0.09464 0.24176
 C322 C 0.41165 -0.07215 0.25930
 C323 C 0.43421 -0.05777 0.21789
 C324 C 0.29741 -0.15754 0.39010
 C325 C 0.40002 -0.08818 0.14139
 C326 C 0.36026 -0.11058 0.28398
 C327 C 0.34053 -0.12480 0.31806
 C328 C 0.31724 -0.14222 0.35702
 C329 C 0.42869 -0.06585 0.15849
 H330 H 0.35580 -0.11982 0.16863
 H331 H 0.41636 -0.06596 0.30496
 H332 H 0.45600 -0.04062 0.23240
 H333 H 0.39493 -0.09492 0.09605
 C334 C 0.89012 0.53403 0.12579
 C335 C 0.90579 0.55982 0.15979
 C336 C 0.93685 0.57476 0.16132
 C337 C 0.95217 0.56309 0.13125
 C338 C 0.84447 0.57493 0.32271
 C339 C 0.90536 0.52228 0.09583
 C340 C 0.88987 0.56792 0.20009
 C341 C 0.87603 0.57243 0.23681
 C342 C 0.85929 0.57499 0.28232
 C343 C 0.93648 0.53617 0.09988
 H344 H 0.86604 0.52215 0.12487
 H345 H 0.94914 0.59455 0.18809
 H346 H 0.97616 0.57432 0.13502
 H347 H 0.89272 0.50162 0.07172
 C348 C 0.45733 0.37962 0.17814
 C349 C 0.47694 0.36886 0.18611
 C350 C 0.50391 0.38165 0.15580
 C351 C 0.51133 0.40532 0.11778
 C352 C 0.45078 0.28692 0.34429
 C353 C 0.46469 0.40321 0.14033
 C354 C 0.46966 0.34548 0.22720
 C355 C 0.46339 0.32638 0.26292
 C356 C 0.45626 0.30474 0.30615
 C357 C 0.49180 0.41637 0.10999
 H358 H 0.43647 0.36994 0.20159
 H359 H 0.51929 0.37354 0.16199
 H360 H 0.53237 0.41513 0.09501
 H361 H 0.44918 0.41123 0.13507
 C362 C 0.62384 0.08403 0.18714
 C363 C 0.62914 0.11260 0.20065
 C364 C 0.61158 0.12303 0.17533
 C365 C 0.58836 0.10465 0.13745
 C366 C 0.70816 0.17223 0.36366
 C367 C 0.60067 0.06565 0.14945
 C368 C 0.65151 0.13035 0.24309
 C369 C 0.66980 0.14429 0.28004
 C370 C 0.69070 0.15968 0.32463
 C371 C 0.58249 0.07566 0.12484
 H372 H 0.63724 0.07572 0.20670
 H373 H 0.61545 0.14508 0.18577
 H374 H 0.57460 0.11283 0.11914
 H375 H 0.59660 0.04339 0.14050
 C376 C 0.50395 0.12265 -0.15600
 C377 C 0.47700 0.10830 -0.18671
 C378 C 0.45765 0.07783 -0.17941
 C379 C 0.46525 0.06164 -0.14186
 C380 C 0.45048 0.16401 -0.34469
 C381 C 0.51161 0.10646 -0.11825
 C382 C 0.46953 0.12436 -0.22762
 C383 C 0.46315 0.13717 -0.26326
 C384 C 0.45597 0.15168 -0.30647
 C385 C 0.49234 0.07577 -0.11112
 H386 H 0.51914 0.14623 -0.16168
 H387 H 0.43681 0.06651 -0.20319
 H388 H 0.44994 0.03803 -0.13711
 H389 H 0.53263 0.11782 -0.09516
 C390 C 0.62270 0.53987 -0.18707
 C391 C 0.62839 0.51681 -0.19998
 C392 C 0.61104 0.48882 -0.17467
 C393 C 0.58765 0.48375 -0.13740
 C394 C 0.70791 0.53686 -0.36122
 C395 C 0.59936 0.53486 -0.14999
 C396 C 0.65093 0.52163 -0.24183
 C397 C 0.66936 0.52614 -0.27835
 C398 C 0.69037 0.53182 -0.32249
 C399 C 0.58140 0.50666 -0.12538
 H400 H 0.63593 0.56157 -0.20664
 H401 H 0.61521 0.47080 -0.18464
 H402 H 0.57407 0.46182 -0.11908
 H403 H 0.59499 0.55288 -0.14150
 C404 C 0.93794 0.36444 -0.15333
 C405 C 0.90688 0.34825 -0.15218
 C406 C 0.89119 0.35848 -0.11882
 C407 C 0.90640 0.38571 -0.08935
 C408 C 0.84553 0.27169 -0.31577
 C409 C 0.95323 0.39166 -0.12372
 C410 C 0.89098 0.32413 -0.19255
 C411 C 0.87713 0.30574 -0.22942
 C412 C 0.86037 0.28643 -0.27517
 C413 C 0.93749 0.40304 -0.09324
 H414 H 0.95025 0.35685 -0.17960
 H415 H 0.86711 0.34622 -0.11819
 H416 H 0.89373 0.39383 -0.06589
 H417 H 0.97721 0.40450 -0.12736
 C418 C 0.52446 -0.06613 -0.24229
 C419 C 0.53473 -0.08524 -0.22479
 C420 C 0.53451 -0.09184 -0.16569
 C421 C 0.52371 -0.07981 -0.12425
 C422 C 0.56480 -0.14390 -0.37168
 C423 C 0.51364 -0.05397 -0.20073
 C424 C 0.54426 -0.09938 -0.26706
 C425 C 0.55160 -0.11242 -0.30089
 C426 C 0.55926 -0.12891 -0.33928
 C427 C 0.51286 -0.06098 -0.14127
 H428 H 0.52447 -0.06093 -0.28802
 H429 H 0.54232 -0.10665 -0.15165
 H430 H 0.52360 -0.08556 -0.07884
 H431 H 0.50558 -0.03943 -0.21513
 C432 C 0.40960 0.48133 -0.26258
 C433 C 0.38123 0.47528 -0.24542
 C434 C 0.37550 0.47743 -0.18647
 C435 C 0.39800 0.48592 -0.14490
 C436 C 0.29423 0.45063 -0.39319
 C437 C 0.43224 0.48983 -0.22091
 C438 C 0.35803 0.46775 -0.28787
 C439 C 0.33812 0.46189 -0.32196
 C440 C 0.31448 0.45556 -0.36067
 C441 C 0.42672 0.49247 -0.16161
 H442 H 0.41430 0.47976 -0.30815
 H443 H 0.35366 0.47283 -0.17266
 H444 H 0.39291 0.48763 -0.09965
 H445 H 0.45407 0.49464 -0.23514
 C446 C 1.05265 0.60387 -0.21365
 C447 C 1.07718 0.62988 -0.19229
 C448 C 1.08611 0.63133 -0.13407
 C449 C 1.07144 0.60638 -0.09819
 C450 C 1.14629 0.71122 -0.34271
 C451 C 1.03804 0.57892 -0.17801
 C452 C 1.09500 0.65364 -0.23192
 C453 C 1.11055 0.67256 -0.26632
 C454 C 1.12948 0.69374 -0.30742
 C455 C 1.04785 0.57963 -0.12045
 H456 H 1.04560 0.60245 -0.25865
 H457 H 1.10518 0.65130 -0.11716
 H458 H 1.07954 0.60754 -0.05414
 H459 H 1.01986 0.55867 -0.19632
 C460 C 0.92661 0.51510 -0.25158
 C461 C 0.90594 0.52355 -0.23443
 C462 C 0.90030 0.52472 -0.17504
 C463 C 0.91478 0.51709 -0.13305
 C464 C 0.84236 0.54553 -0.38436
 C465 C 0.94121 0.50745 -0.20949
 C466 C 0.88970 0.53018 -0.27724
 C467 C 0.87532 0.53539 -0.31172
 C468 C 0.85777 0.54108 -0.35111
 C469 C 0.93521 0.50807 -0.14970
 H470 H 0.93118 0.51410 -0.29744
 H471 H 0.88438 0.53120 -0.16114
 H472 H 0.90966 0.51792 -0.08746
 H473 H 0.95685 0.50069 -0.22375
 C474 C 0.45251 0.36804 -0.14642
 C475 C 0.44953 0.37049 -0.20662
 C476 C 0.45391 0.39735 -0.22937
 C477 C 0.46267 0.42204 -0.19274
 C478 C 0.43993 0.28858 -0.35641
 C479 C 0.46119 0.39273 -0.10957
 C480 C 0.44480 0.34662 -0.24590
 C481 C 0.44222 0.32756 -0.27991
 C482 C 0.44051 0.30617 -0.32081
 C483 C 0.46724 0.42025 -0.13270
 H484 H 0.44929 0.34741 -0.12829
 H485 H 0.45172 0.39957 -0.27584
 H486 H 0.46708 0.44289 -0.21187
 H487 H 0.46469 0.39070 -0.06361
 C488 C 0.60215 0.05495 -0.20971
 C489 C 0.62795 0.07998 -0.18907
 C490 C 0.62962 0.08877 -0.13051
 C491 C 0.60512 0.07342 -0.09355
 C492 C 0.70910 0.14878 -0.34130
 C493 C 0.57766 0.03966 -0.17299
 C494 C 0.65141 0.09804 -0.22940
 C495 C 0.67018 0.11358 -0.26425
 C496 C 0.69141 0.13230 -0.30577
 C497 C 0.57857 0.04923 -0.11497
 H498 H 0.60053 0.04793 -0.25488
 H499 H 0.64942 0.10817 -0.11403
 H500 H 0.60643 0.08140 -0.04921
 H501 H 0.55757 0.02108 -0.19076
 C502 C 1.07966 0.46286 -0.19636
 C503 C 1.10984 0.48317 -0.20467
 C504 C 1.12364 0.50973 -0.17222
 C505 C 1.10722 0.51599 -0.13181
 C506 C 1.16604 0.45773 -0.36593
 C507 C 1.06325 0.46907 -0.15613
 C508 C 1.12627 0.47682 -0.24746
 C509 C 1.13932 0.47102 -0.28409
 C510 C 1.15394 0.46389 -0.32785
 C511 C 1.07683 0.49574 -0.12360
 H512 H 1.06874 0.44227 -0.22126
 H513 H 1.14699 0.52564 -0.17842
 H514 H 1.11819 0.53673 -0.10745
 H515 H 1.03989 0.45301 -0.15064
 C516 C 0.56877 0.63513 -0.17684
 C517 C 0.55346 0.65094 -0.17473
 C518 C 0.52822 0.64083 -0.13968
 C519 C 0.51751 0.61431 -0.10887
 C520 C 0.57230 0.72989 -0.33470
 C521 C 0.55813 0.60860 -0.14596
 C522 C 0.56123 0.67515 -0.21409
 C523 C 0.56616 0.69398 -0.24977
 C524 C 0.57021 0.71420 -0.29436
 C525 C 0.53189 0.59749 -0.11301
 H526 H 0.58818 0.64264 -0.20429
 H527 H 0.51608 0.65278 -0.13813
 H528 H 0.49733 0.60639 -0.08366
 H529 H 0.56968 0.59614 -0.14997
 C530 C 0.36582 -0.06481 -0.15252
 C531 C 0.35057 -0.09595 -0.15337
 C532 C 0.36097 -0.11133 -0.11993
 C533 C 0.38736 -0.09570 -0.08812
 C534 C 0.27346 -0.15741 -0.31708
 C535 C 0.39220 -0.04909 -0.12055
 C536 C 0.32682 -0.11210 -0.19440
 C537 C 0.30844 -0.12606 -0.23125
 C538 C 0.28876 -0.14280 -0.27669
 C539 C 0.40372 -0.06444 -0.08960
 H540 H 0.35808 -0.05270 -0.17870
 H541 H 0.34945 -0.13544 -0.12065
 H542 H 0.39561 -0.10811 -0.06448
 H543 H 0.40432 -0.02502 -0.12252
 C544 C 0.53140 -0.11139 0.13468
 C545 C 0.55646 -0.09627 0.17054
 C546 C 0.57140 -0.06516 0.17390
 C547 C 0.56055 -0.04930 0.14346
 C548 C 0.57470 -0.15730 0.32943
 C549 C 0.52048 -0.09561 0.10434
 C550 C 0.56427 -0.11283 0.20959
 C551 C 0.56911 -0.12691 0.24501
 C552 C 0.57291 -0.14340 0.28932
 C553 C 0.53445 -0.06447 0.10976
 H554 H 0.51954 -0.13548 0.13217
 H555 H 0.59066 -0.05327 0.20201
 H556 H 0.57179 -0.02532 0.14845
 H557 H 0.50043 -0.10790 0.07851
 C558 C 0.35992 0.47064 0.12015
 C559 C 0.34987 0.44478 0.15314
 C560 C 0.36518 0.42899 0.15123
 C561 C 0.39127 0.43979 0.11858
 C562 C 0.27127 0.42654 0.31465
 C563 C 0.38601 0.48153 0.08765
 C564 C 0.32617 0.43676 0.19421
 C565 C 0.30763 0.43182 0.23075
 C566 C 0.28740 0.42807 0.27539
 C567 C 0.40242 0.46669 0.08795
 H568 H 0.34832 0.48312 0.12162
 H569 H 0.35770 0.40907 0.17697
 H570 H 0.40344 0.42789 0.11968
 H571 H 0.39399 0.50222 0.06433
 C572 C 1.08263 0.62412 0.18197
 C573 C 1.11091 0.62929 0.19712
 C574 C 1.12165 0.61176 0.17219
 C575 C 1.10390 0.58877 0.13307
 C576 C 1.16915 0.70862 0.36180
 C577 C 1.06489 0.60119 0.14306
 C578 C 1.12810 0.65164 0.24038
 C579 C 1.14163 0.66999 0.27776
 C580 C 1.15672 0.69103 0.32265
 C581 C 1.07521 0.58307 0.11874
 H582 H 1.07406 0.63747 0.20111
 H583 H 1.14348 0.61551 0.18379
 H584 H 1.11232 0.57507 0.11509
 H585 H 1.04285 0.59726 0.13287
 C586 C 0.45466 0.05572 0.22787
 C587 C 0.44999 0.07808 0.20544
 C588 C 0.45286 0.08366 0.14532
 C589 C 0.46174 0.06793 0.10826
 C590 C 0.43981 0.14970 0.35596
 C591 C 0.46361 0.04008 0.19103
 C592 C 0.44508 0.09698 0.24498
 C593 C 0.44236 0.11328 0.27920
 C594 C 0.44050 0.13279 0.32028
 C595 C 0.46809 0.04661 0.13109
 H596 H 0.45256 0.05121 0.27427
 H597 H 0.44942 0.10098 0.12744
 H598 H 0.46516 0.07359 0.06240
 H599 H 0.46825 0.02374 0.20993
 C600 C 0.62822 0.54120 0.13103
 C601 C 0.62642 0.54854 0.18935
 C602 C 0.60057 0.54780 0.20913
 C603 C 0.57615 0.53839 0.17182
 C604 C 0.70712 0.56129 0.34403
 C605 C 0.60379 0.53185 0.09346
 C606 C 0.64975 0.55407 0.23039
 C607 C 0.66841 0.55739 0.26584
 C608 C 0.68951 0.56000 0.30802
 C609 C 0.57719 0.52950 0.11406
 H610 H 0.64806 0.54157 0.11522
 H611 H 0.59884 0.55336 0.25411
 H612 H 0.55601 0.53688 0.18896
 H613 H 0.60519 0.52499 0.04935
 C614 C 0.89870 0.37911 0.17953
 C615 C 0.90655 0.38551 0.23845
 C616 C 0.92898 0.41411 0.25492
 C617 C 0.94320 0.43627 0.21268
 C618 C 0.84439 0.30026 0.38919
 C619 C 0.91281 0.40114 0.13739
 C620 C 0.89082 0.36276 0.28157
 C621 C 0.87681 0.34326 0.31632
 C622 C 0.85960 0.32009 0.35593
 C623 C 0.93508 0.43008 0.15341
 H624 H 0.88140 0.35711 0.16616
 H625 H 0.93526 0.41937 0.30040
 H626 H 0.96029 0.45827 0.22645
 H627 H 0.90602 0.39551 0.09222
   
