data_POSCAR
  _audit_creation_date              2014-09-24
  _audit_creation_method            'ToBaCCo'
  _symmetry_space_group_name_H-M    'P1'
  _symmetry_Int_Tables_number       1
  _symmetry_cell_setting            triclinic
  loop_
  _symmetry_equiv_pos_as_xyz
 x,y,z
_cell_length_a 50.4780
_cell_length_b 50.4694
_cell_length_c 41.1254
_cell_angle_alpha 90.064900
_cell_angle_beta 89.998600
_cell_angle_gamma 120.026000
loop_
  _atom_site_label
  _atom_site_type_symbol
  _atom_site_fract_x
  _atom_site_fract_y
  _atom_site_fract_z
C1 C 0.06516 0.54658 0.07431
 C2 C 0.06403 0.51891 0.07525
 C3 C 0.04339 0.50073 0.05147
 N4 N 0.03190 0.51648 0.03617
 C5 C 0.04512 0.54452 0.05005
 C6 C 0.03645 0.47057 0.04388
 C7 C 0.01628 0.45219 0.01888
 C8 C 0.01304 0.42449 0.00873
 C9 C -0.00793 0.41401 -0.01616
 C10 C -0.01706 0.43554 -0.02070
 N11 N -0.00254 0.45847 0.00118
 C12 C -0.03825 0.43331 -0.04474
 C13 C -0.04446 0.45699 -0.05278
 C14 C -0.06440 0.45502 -0.07716
 C15 C -0.06326 0.48267 -0.07810
 C16 C -0.04273 0.50084 -0.05419
 N17 N -0.03131 0.48503 -0.03884
 C18 C -0.03585 0.53103 -0.04652
 C19 C -0.01572 0.54935 -0.02138
 C20 C -0.01249 0.57701 -0.01096
 C21 C 0.00849 0.58740 0.01391
 C22 C 0.01764 0.56589 0.01818
 N23 N 0.00315 0.54305 -0.00381
 C24 C 0.03884 0.56809 0.04210
 H25 H 0.07907 0.56594 0.08992
 H26 H 0.07711 0.51297 0.09152
 H27 H 0.00756 0.52542 -0.00815
 H28 H 0.02485 0.41314 0.01798
 H29 H -0.01530 0.39305 -0.02969
 H30 H -0.07825 0.43570 -0.09284
 H31 H -0.07628 0.48863 -0.09444
 H32 H 0.01585 0.60828 0.02759
 H33 H -0.00686 0.47618 0.00535
 H34 H -0.02434 0.58840 -0.02005
 C35 C 0.51921 0.45503 -0.07663
 C36 C 0.54679 0.48167 -0.07551
 C37 C 0.54465 0.49940 -0.05097
 N38 N 0.51665 0.48430 -0.03709
 C39 C 0.50096 0.45714 -0.05266
 C40 C 0.56820 0.52924 -0.04272
 C41 C 0.56594 0.54810 -0.01865
 C42 C 0.58755 0.57870 -0.01389
 C43 C 0.57694 0.58920 0.01087
 C44 C 0.54908 0.56479 0.02070
 N45 N 0.54284 0.53970 0.00295
 C46 C 0.53045 0.56660 0.04536
 C47 C 0.50022 0.54337 0.05262
 C48 C 0.48178 0.54589 0.07600
 C49 C 0.45417 0.51927 0.07490
 C50 C 0.45653 0.50117 0.05095
 N51 N 0.48469 0.51601 0.03742
 C52 C 0.43314 0.47118 0.04303
 C53 C 0.43563 0.45214 0.01936
 C54 C 0.41439 0.42135 0.01525
 C55 C 0.42496 0.41078 -0.00947
 C56 C 0.45246 0.43536 -0.01997
 N57 N 0.45849 0.46059 -0.00258
 C58 C 0.47085 0.43367 -0.04506
 H59 H 0.51336 0.43616 -0.09313
 H60 H 0.56614 0.48736 -0.09118
 H61 H 0.47588 0.48272 -0.00709
 H62 H 0.60862 0.59225 -0.02720
 H63 H 0.58829 0.61236 0.02022
 H64 H 0.48751 0.56500 0.09210
 H65 H 0.43465 0.51382 0.09021
 H66 H 0.41379 0.38749 -0.01843
 H67 H 0.52499 0.51770 0.00683
 H68 H 0.39356 0.40773 0.02893
 C69 C 0.44956 0.92700 0.06436
 C70 C 0.47670 0.92694 0.06434
 C71 C 0.49704 0.95181 0.04580
 N72 N 0.48327 0.96713 0.03472
 C73 C 0.45418 0.95191 0.04583
 C74 C 0.52824 0.96110 0.04136
 C75 C 0.54803 0.98493 0.02028
 C76 C 0.57961 0.99796 0.01965
 C77 C 0.59018 1.01906 -0.00517
 C78 C 0.56476 1.01835 -0.01902
 N79 N 0.53919 0.99729 -0.00356
 C80 C 0.56557 1.03564 -0.04637
 C81 C 0.54064 1.03885 -0.05673
 C82 C 0.54018 1.05354 -0.08503
 C83 C 0.51306 1.05360 -0.08508
 C84 C 0.49776 1.03895 -0.05677
 N85 N 0.51480 1.03016 -0.03943
 C86 C 0.46963 1.03587 -0.04640
 C87 C 0.45316 1.01862 -0.01893
 C88 C 0.42858 1.01945 -0.00487
 C89 C 0.41806 0.99836 0.01995
 C90 C 0.43648 0.98521 0.02042
 N91 N 0.45761 0.99749 -0.00352
 C92 C 0.43238 0.96133 0.04145
 H93 H 0.42890 0.91076 0.07692
 H94 H 0.48104 0.91064 0.07688
 H95 H 0.47192 0.98949 -0.01120
 H96 H 0.59358 0.99266 0.03529
 H97 H 0.61386 1.03316 -0.01234
 H98 H 0.55772 1.06349 -0.10354
 H99 H 0.50562 1.06364 -0.10364
 H100 H 0.39888 0.99316 0.03571
 H101 H 0.51687 0.98942 -0.01114
 H102 H 0.41905 1.03363 -0.01192
 C103 C 1.06551 0.54631 0.42298
 C104 C 1.06437 0.51866 0.42199
 C105 C 1.04377 0.50047 0.44579
 N106 N 1.03232 0.51627 0.46113
 C107 C 1.04549 0.54432 0.44730
 C108 C 1.03686 0.47027 0.45337
 C109 C 1.01667 0.45193 0.47841
 C110 C 1.01339 0.42424 0.48874
 C111 C 0.99235 0.41385 0.51353
 C112 C 0.98322 0.43537 0.51784
 N113 N 0.99777 0.45824 0.49595
 C114 C 0.96198 0.43317 0.54171
 C115 C 0.95571 0.45675 0.54971
 C116 C 0.93564 0.45469 0.57394
 C117 C 0.93678 0.48236 0.57495
 C118 C 0.95745 0.50054 0.55124
 N119 N 0.96895 0.48479 0.53592
 C120 C 0.96441 0.53070 0.54373
 C121 C 0.98460 0.54908 0.51880
 C122 C 0.98785 0.57678 0.50870
 C123 C 1.00886 0.58726 0.48387
 C124 C 1.01801 0.56574 0.47933
 N125 N 1.00346 0.54281 0.50114
 C126 C 1.03926 0.56798 0.45536
 H127 H 1.07939 0.56564 0.40738
 H128 H 1.07743 0.51272 0.40568
 H129 H 1.00779 0.52511 0.50530
 H130 H 1.02524 0.41285 0.47965
 H131 H 0.98495 0.39295 0.52714
 H132 H 0.92172 0.43533 0.58949
 H133 H 0.92369 0.48831 0.59121
 H134 H 1.01624 0.60822 0.47040
 H135 H 0.99339 0.47588 0.49165
 H136 H 0.97601 0.58812 0.51794
 C137 C 0.54546 0.48200 0.57677
 C138 C 0.51892 0.45430 0.57576
 C139 C 0.50091 0.45634 0.55150
 N140 N 0.51573 0.48439 0.53772
 C141 C 0.54298 0.50017 0.55305
 C142 C 0.47106 0.43272 0.54345
 C143 C 0.45206 0.43491 0.51952
 C144 C 0.42142 0.41335 0.51507
 C145 C 0.41082 0.42380 0.49027
 C146 C 0.43523 0.45152 0.48011
 N147 N 0.46041 0.45782 0.49771
 C148 C 0.43338 0.46992 0.45524
 C149 C 0.45657 0.50011 0.44776
 C150 C 0.45407 0.51830 0.42408
 C151 C 0.48060 0.54601 0.42513
 C152 C 0.49861 0.54395 0.44936
 N153 N 0.48382 0.51589 0.46310
 C154 C 0.52847 0.56757 0.45741
 C155 C 0.54749 0.56536 0.48129
 C156 C 0.57815 0.58689 0.48568
 C157 C 0.58876 0.57642 0.51045
 C158 C 0.56434 0.54872 0.52065
 N159 N 0.53914 0.54245 0.50311
 C160 C 0.56619 0.53033 0.54553
 H161 H 0.56449 0.48795 0.59305
 H162 H 0.51347 0.43494 0.59130
 H163 H 0.51711 0.52478 0.50737
 H164 H 0.40790 0.39240 0.52859
 H165 H 0.38761 0.41243 0.48109
 H166 H 0.43504 0.51235 0.40782
 H167 H 0.48602 0.56539 0.40962
 H168 H 0.61199 0.58776 0.51959
 H169 H 0.48243 0.47552 0.49350
 H170 H 0.59167 0.60782 0.47214
 C171 C 0.44835 -0.07529 0.43639
 C172 C 0.47551 -0.07526 0.43632
 C173 C 0.49600 -0.05013 0.45458
 N174 N 0.48221 -0.03477 0.46559
 C175 C 0.45302 -0.05018 0.45470
 C176 C 0.52733 -0.04062 0.45881
 C177 C 0.54715 -0.01664 0.47987
 C178 C 0.57879 -0.00330 0.48037
 C179 C 0.58930 0.01773 0.50530
 C180 C 0.56382 0.01670 0.51936
 N181 N 0.53826 -0.00447 0.50389
 C182 C 0.56460 0.03385 0.54688
 C183 C 0.53961 0.03688 0.55737
 C184 C 0.53912 0.05154 0.58572
 C185 C 0.51193 0.05148 0.58582
 C186 C 0.49667 0.03679 0.55752
 N187 N 0.51373 0.02808 0.54010
 C188 C 0.46856 0.03366 0.54721
 C189 C 0.45209 0.01650 0.51972
 C190 C 0.42755 0.01745 0.50582
 C191 C 0.41697 -0.00355 0.48087
 C192 C 0.43534 -0.01681 0.48020
 N193 N 0.45650 -0.00461 0.50415
 C194 C 0.43116 -0.04075 0.45907
 H195 H 0.42762 -0.09171 0.42402
 H196 H 0.47981 -0.09165 0.42388
 H197 H 0.47081 -0.01264 0.51173
 H198 H 0.59284 -0.00839 0.46458
 H199 H 0.61299 0.03198 0.51241
 H200 H 0.55669 0.06159 0.60423
 H201 H 0.50444 0.06148 0.60441
 H202 H 0.39777 -0.00867 0.46518
 H203 H 0.51593 -0.01255 0.51159
 H204 H 0.41809 0.03165 0.51305
 O205 O 0.17177 0.39598 0.21778
 O206 O 0.22344 0.39583 0.28127
 O207 O 0.17164 0.39589 0.28117
 O208 O 0.22357 0.39596 0.21786
 O209 O 0.24878 0.44657 0.21819
 O210 O 0.19715 0.44651 0.28117
 O211 O 0.24865 0.44644 0.28127
 O212 O 0.19727 0.44659 0.21811
 Cu213 Cu 0.19504 0.39078 0.24951
 Cu214 Cu 0.22551 0.45160 0.24971
 C215 C 0.17579 0.42139 0.20735
 C216 C 0.24486 0.42119 0.29186
 C217 C 0.17561 0.42127 0.29173
 C218 C 0.24503 0.42136 0.20746
 O219 O 0.60352 0.77682 0.21893
 O220 O 0.60305 0.82850 0.28229
 O221 O 0.60325 0.77679 0.28231
 O222 O 0.60330 0.82855 0.21886
 O223 O 0.55270 0.80292 0.21876
 O224 O 0.55265 0.75145 0.28188
 O225 O 0.55245 0.80287 0.28186
 O226 O 0.55292 0.75149 0.21882
 Cu227 Cu 0.60842 0.80526 0.25062
 Cu228 Cu 0.54760 0.77464 0.25029
 C229 C 0.57822 0.75533 0.20831
 C230 C 0.57759 0.82439 0.29268
 C231 C 0.57786 0.75529 0.29268
 C232 C 0.57793 0.82446 0.20820
 O233 O 0.22468 0.82852 0.21893
 O234 O 0.17283 0.77641 0.28209
 O235 O 0.22466 0.82825 0.28236
 O236 O 0.17287 0.77667 0.21869
 O237 O 0.19832 0.75153 0.21861
 O238 O 0.24981 0.80282 0.28195
 O239 O 0.19827 0.75127 0.28168
 O240 O 0.24984 0.80309 0.21885
 Cu241 Cu 0.19620 0.80504 0.25054
 Cu242 Cu 0.22660 0.77465 0.25025
 C243 C 0.24608 0.82459 0.20833
 C244 C 0.17679 0.75496 0.29242
 C245 C 0.24605 0.82423 0.29280
 C246 C 0.17685 0.75531 0.20802
 O247 O 0.77729 0.60489 0.78169
 O248 O 0.82895 0.60505 0.71798
 O249 O 0.77706 0.60493 0.71829
 O250 O 0.82919 0.60505 0.78138
 O251 O 0.80383 0.55444 0.78112
 O252 O 0.75199 0.55432 0.71836
 O253 O 0.80358 0.55444 0.71805
 O254 O 0.75222 0.55428 0.78143
 Cu255 Cu 0.80568 0.61012 0.74984
 Cu256 Cu 0.77538 0.54929 0.74973
 C257 C 0.75595 0.57947 0.79219
 C258 C 0.82500 0.57969 0.70740
 C259 C 0.75563 0.57952 0.70781
 C260 C 0.82531 0.57968 0.79178
 O261 O 0.39671 0.17251 0.78287
 O262 O 0.39663 0.22413 0.71932
 O263 O 0.39648 0.17223 0.71950
 O264 O 0.39683 0.22441 0.78273
 O265 O 0.44743 0.24949 0.78242
 O266 O 0.44708 0.19760 0.71950
 O267 O 0.44723 0.24921 0.71933
 O268 O 0.44731 0.19788 0.78255
 Cu269 Cu 0.39153 0.19577 0.75113
 Cu270 Cu 0.45234 0.22608 0.75094
 C271 C 0.42210 0.17645 0.79328
 C272 C 0.42200 0.24547 0.70872
 C273 C 0.42180 0.17608 0.70896
 C274 C 0.42227 0.24585 0.79313
 O275 O 0.82809 0.22505 0.78126
 O276 O 0.77612 0.17287 0.71808
 O277 O 0.82793 0.22475 0.71783
 O278 O 0.77630 0.17316 0.78144
 O279 O 0.75109 0.19854 0.78121
 O280 O 0.80243 0.24984 0.71792
 O281 O 0.75091 0.19825 0.71816
 O282 O 0.80260 0.25014 0.78102
 Cu283 Cu 0.80470 0.19641 0.74966
 Cu284 Cu 0.77423 0.22674 0.74957
 C285 C 0.82412 0.24648 0.79169
 C286 C 0.75463 0.17672 0.70761
 C287 C 0.82390 0.24609 0.70725
 C288 C 0.75487 0.17711 0.79191
 C289 C 0.05233 0.45826 0.06233
 C290 C 0.06612 0.44914 0.07840
 C291 C 0.08328 0.43971 0.09843
 C292 C 0.07144 0.42558 0.12843
 C293 C 0.08938 0.41929 0.14946
 C294 C 0.11922 0.42711 0.14057
 C295 C 0.13077 0.44055 0.11023
 C296 C 0.11284 0.44684 0.08920
 C297 C 0.13876 0.42363 0.16356
 C298 C 0.15549 0.42194 0.18331
 H299 H 0.04871 0.42020 0.13593
 H300 H 0.08030 0.40912 0.17297
 H301 H 0.15390 0.44693 0.10322
 H302 H 0.12231 0.45801 0.06619
 C303 C 0.54260 0.59484 0.06378
 C304 C 0.55158 0.61778 0.07981
 C305 C 0.56084 0.64442 0.09979
 C306 C 0.55367 0.66676 0.09036
 C307 C 0.55979 0.69103 0.11131
 C308 C 0.57311 0.69304 0.14178
 C309 C 0.58098 0.67111 0.15086
 C310 C 0.57486 0.64685 0.12991
 C311 C 0.57639 0.71608 0.16468
 C312 C 0.57790 0.73451 0.18436
 H313 H 0.54259 0.66496 0.06724
 H314 H 0.55337 0.70771 0.10415
 H315 H 0.59105 0.67230 0.17447
 H316 H 0.58027 0.62956 0.13756
 C317 C 0.40467 0.94617 0.06073
 C318 C 0.38211 0.93288 0.07741
 C319 C 0.35589 0.91621 0.09807
 C320 C 0.33239 0.88717 0.08868
 C321 C 0.30845 0.86957 0.11015
 C322 C 0.30792 0.88093 0.14110
 C323 C 0.33102 0.91028 0.15018
 C324 C 0.35496 0.92789 0.12871
 C325 C 0.28512 0.86159 0.16437
 C326 C 0.26683 0.84492 0.18426
 H327 H 0.33302 0.87781 0.06516
 H328 H 0.29085 0.84681 0.10297
 H329 H 0.33097 0.91920 0.17415
 H330 H 0.37314 0.95021 0.13632
 C331 C 0.94852 0.54303 0.56219
 C332 C 0.93473 0.55215 0.57826
 C333 C 0.91756 0.56159 0.59831
 C334 C 0.88797 0.55438 0.58909
 C335 C 0.87003 0.56067 0.61014
 C336 C 0.88161 0.57418 0.64048
 C337 C 0.91148 0.58208 0.64935
 C338 C 0.92942 0.57580 0.62831
 C339 C 0.86206 0.57761 0.66351
 C340 C 0.84531 0.57924 0.68330
 H341 H 0.87848 0.54315 0.56607
 H342 H 0.84688 0.55422 0.60314
 H343 H 0.92057 0.59230 0.67287
 H344 H 0.95217 0.58123 0.63580
 C345 C 0.45869 0.40473 0.56228
 C346 C 0.44955 0.38199 0.57863
 C347 C 0.44011 0.35560 0.59899
 C348 C 0.44646 0.33264 0.58967
 C349 C 0.44020 0.30859 0.61093
 C350 C 0.42755 0.30740 0.64160
 C351 C 0.42049 0.32994 0.65059
 C352 C 0.42676 0.35399 0.62933
 C353 C 0.42411 0.28452 0.66475
 C354 C 0.42248 0.26620 0.68460
 H355 H 0.45703 0.33380 0.56638
 H356 H 0.44598 0.29142 0.60383
 H357 H 0.41094 0.32938 0.67434
 H358 H 0.42199 0.37176 0.63689
 C359 C 0.59300 0.05037 0.56489
 C360 C 0.61607 0.06464 0.58062
 C361 C 0.64285 0.08230 0.60030
 C362 C 0.64558 0.07099 0.63046
 C363 C 0.67001 0.08937 0.65112
 C364 C 0.69181 0.11912 0.64170
 C365 C 0.68949 0.13015 0.61120
 C366 C 0.66506 0.11177 0.59054
 C367 C 0.71505 0.13909 0.66431
 C368 C 0.73364 0.15613 0.68380
 H369 H 0.62841 0.04833 0.63836
 H370 H 0.67144 0.08070 0.67475
 H371 H 0.70608 0.15321 0.60379
 H372 H 0.66303 0.12083 0.56739
 C373 C 0.45833 0.05139 0.93650
 C374 C 0.44938 0.06552 0.92077
 C375 C 0.44009 0.08299 0.90107
 C376 C 0.42573 0.07138 0.87108
 C377 C 0.41953 0.08956 0.85036
 C378 C 0.42767 0.11944 0.85953
 C379 C 0.44135 0.13078 0.88987
 C380 C 0.44755 0.11259 0.91059
 C381 C 0.42427 0.13920 0.83681
 C382 C 0.42262 0.15607 0.81722
 H383 H 0.42010 0.04861 0.86336
 H384 H 0.40918 0.08065 0.82685
 H385 H 0.44798 0.15394 0.89709
 H386 H 0.45889 0.12189 0.93361
 C387 C 0.59626 0.54176 0.93853
 C388 C 0.61905 0.55104 0.92223
 C389 C 0.64552 0.56066 0.90193
 C390 C 0.66847 0.55428 0.91116
 C391 C 0.69260 0.56072 0.88993
 C392 C 0.69388 0.57357 0.85937
 C393 C 0.67134 0.58065 0.85047
 C394 C 0.64721 0.57421 0.87171
 C395 C 0.71682 0.57715 0.83622
 C396 C 0.73518 0.57890 0.81635
 H397 H 0.66725 0.54357 0.93436
 H398 H 0.70976 0.55492 0.89695
 H399 H 0.67196 0.59035 0.82680
 H400 H 0.62945 0.57900 0.86421
 C401 C 0.94693 0.40677 0.93746
 C402 C 0.93335 0.38393 0.92118
 C403 C 0.91642 0.35741 0.90091
 C404 C 0.92800 0.35581 0.87047
 C405 C 0.91019 0.33162 0.84929
 C406 C 0.88072 0.30893 0.85848
 C407 C 0.86943 0.31012 0.88925
 C408 C 0.88724 0.33432 0.91042
 C409 C 0.86122 0.28589 0.83544
 C410 C 0.84447 0.26742 0.81568
 H411 H 0.95042 0.37369 0.86276
 H412 H 0.91905 0.33106 0.82546
 H413 H 0.84658 0.29284 0.89650
 H414 H 0.87796 0.33547 0.93379
 C415 C 0.53920 0.94503 0.44053
 C416 C 0.54859 0.93181 0.42387
 C417 C 0.55829 0.91524 0.40323
 C418 C 0.57149 0.92723 0.37291
 C419 C 0.57801 0.90976 0.35141
 C420 C 0.57137 0.88023 0.36015
 C421 C 0.55887 0.86854 0.39079
 C422 C 0.55234 0.88601 0.41229
 C423 C 0.57506 0.86107 0.33680
 C424 C 0.57690 0.84455 0.31684
 H425 H 0.57594 0.94970 0.36556
 H426 H 0.58744 0.91893 0.32768
 H427 H 0.55341 0.84564 0.39770
 H428 H 0.54190 0.87641 0.43556
 C429 C 0.40514 0.45759 0.43682
 C430 C 0.38221 0.44848 0.42077
 C431 C 0.35559 0.43908 0.40075
 C432 C 0.33320 0.44624 0.41005
 C433 C 0.30898 0.44002 0.38903
 C434 C 0.30705 0.42661 0.35862
 C435 C 0.32902 0.41875 0.34966
 C436 C 0.35325 0.42497 0.37069
 C437 C 0.28406 0.42323 0.33563
 C438 C 0.26566 0.42163 0.31589
 H439 H 0.33494 0.45739 0.43312
 H440 H 0.29226 0.44643 0.39609
 H441 H 0.32790 0.40861 0.32610
 H442 H 0.37058 0.41958 0.36313
 C443 C 0.05409 0.59453 0.43764
 C444 C 0.06767 0.61738 0.42144
 C445 C 0.08460 0.64392 0.40127
 C446 C 0.11378 0.66700 0.41084
 C447 C 0.13157 0.69123 0.38976
 C448 C 0.12025 0.69247 0.35903
 C449 C 0.09077 0.66980 0.34979
 C450 C 0.07298 0.64557 0.37087
 C451 C 0.13973 0.71554 0.33607
 C452 C 0.15646 0.73402 0.31637
 H453 H 0.12309 0.66581 0.43417
 H454 H 0.15443 0.70850 0.39705
 H455 H 0.08188 0.67039 0.32599
 H456 H 0.05055 0.62771 0.36312
 C457 C 0.94917 0.54274 0.93604
 C458 C 0.93545 0.55200 0.92005
 C459 C 0.91833 0.56154 0.90011
 C460 C 0.92986 0.57512 0.86982
 C461 C 0.91188 0.58143 0.84889
 C462 C 0.88229 0.57419 0.85817
 C463 C 0.87106 0.56132 0.88880
 C464 C 0.88905 0.55501 0.90973
 C465 C 0.86263 0.57761 0.83531
 C466 C 0.84577 0.57924 0.81567
 H467 H 0.95237 0.58002 0.86202
 H468 H 0.92069 0.59115 0.82515
 H469 H 0.84813 0.55539 0.89612
 H470 H 0.87981 0.54427 0.93298
 C471 C 0.45930 0.40695 0.93748
 C472 C 0.45018 0.38396 0.92148
 C473 C 0.44074 0.35728 0.90153
 C474 C 0.44777 0.33483 0.91096
 C475 C 0.44147 0.31050 0.89003
 C476 C 0.42812 0.30853 0.85959
 C477 C 0.42041 0.33057 0.85050
 C478 C 0.42671 0.35490 0.87143
 C479 C 0.42461 0.28538 0.83672
 C480 C 0.42288 0.26684 0.81706
 H481 H 0.45886 0.33660 0.93405
 H482 H 0.44776 0.29373 0.89719
 H483 H 0.41031 0.32941 0.82692
 H484 H 0.42142 0.37227 0.86378
 C485 C 0.59392 0.05202 0.93556
 C486 C 0.61695 0.06617 0.91976
 C487 C 0.64366 0.08367 0.89998
 C488 C 0.66575 0.11333 0.90941
 C489 C 0.69009 0.13153 0.88861
 C490 C 0.69242 0.12014 0.85831
 C491 C 0.67074 0.09021 0.84924
 C492 C 0.64641 0.07201 0.87003
 C493 C 0.71554 0.13989 0.83553
 C494 C 0.73401 0.15674 0.81589
 H495 H 0.66371 0.12267 0.93240
 H496 H 0.70658 0.15473 0.89576
 H497 H 0.67218 0.08125 0.82576
 H498 H 0.62931 0.04920 0.86239
 C499 C 0.05188 0.45856 0.43594
 C500 C 0.06561 0.44929 0.41997
 C501 C 0.08274 0.43972 0.40006
 C502 C 0.11210 0.44643 0.40962
 C503 C 0.13007 0.44005 0.38872
 C504 C 0.11874 0.42694 0.35817
 C505 C 0.08909 0.41951 0.34894
 C506 C 0.07112 0.42589 0.36985
 C507 C 0.13837 0.42343 0.33531
 C508 C 0.15520 0.42176 0.31566
 H509 H 0.12141 0.45737 0.43281
 H510 H 0.15306 0.44613 0.39599
 H511 H 0.08020 0.40960 0.32527
 H512 H 0.04855 0.42084 0.36209
 C513 C 0.54082 0.59559 0.43863
 C514 C 0.54998 0.61836 0.42234
 C515 C 0.55946 0.64481 0.40205
 C516 C 0.55309 0.66774 0.41143
 C517 C 0.55942 0.69187 0.39025
 C518 C 0.57215 0.69315 0.35961
 C519 C 0.57921 0.67062 0.35056
 C520 C 0.57288 0.64650 0.37174
 C521 C 0.57565 0.71611 0.33653
 C522 C 0.57734 0.73449 0.31674
 H523 H 0.54248 0.66652 0.43471
 H524 H 0.55364 0.70902 0.39739
 H525 H 0.58882 0.67125 0.32682
 H526 H 0.57766 0.62875 0.36413
 C527 C 0.40489 0.94488 0.44086
 C528 C 0.38225 0.93164 0.42424
 C529 C 0.35594 0.91505 0.40363
 C530 C 0.33282 0.88568 0.41253
 C531 C 0.30883 0.86821 0.39101
 C532 C 0.30788 0.88003 0.36050
 C533 C 0.33059 0.90970 0.35193
 C534 C 0.35457 0.92717 0.37345
 C535 C 0.28507 0.86088 0.33708
 C536 C 0.26678 0.84437 0.31706
 H537 H 0.33379 0.87598 0.43568
 H538 H 0.29154 0.84521 0.39778
 H539 H 0.33021 0.91897 0.32830
 H540 H 0.37247 0.94975 0.36621
 C541 C 0.54073 0.94586 0.06058
 C542 C 0.54996 0.93253 0.07722
 C543 C 0.55949 0.91582 0.09784
 C544 C 0.55349 0.88658 0.08864
 C545 C 0.55985 0.86900 0.11010
 C546 C 0.57224 0.88057 0.14084
 C547 C 0.57894 0.91011 0.14972
 C548 C 0.57258 0.92769 0.12826
 C549 C 0.57575 0.86130 0.16414
 C550 C 0.57744 0.84470 0.18406
 H551 H 0.54313 0.87707 0.06529
 H552 H 0.55434 0.84610 0.10308
 H553 H 0.58829 0.91919 0.17353
 H554 H 0.57708 0.95017 0.13572
 C555 C 0.40507 0.45871 0.06175
 C556 C 0.38225 0.44947 0.07801
 C557 C 0.35576 0.43991 0.09824
 C558 C 0.35407 0.42655 0.12858
 C559 C 0.32990 0.42017 0.14973
 C560 C 0.30731 0.42712 0.14063
 C561 C 0.30859 0.43978 0.10996
 C562 C 0.33277 0.44616 0.08881
 C563 C 0.28431 0.42359 0.16367
 C564 C 0.26589 0.42189 0.18344
 H565 H 0.37186 0.42187 0.13624
 H566 H 0.32927 0.41062 0.17349
 H567 H 0.29140 0.44548 0.10278
 H568 H 0.33399 0.45673 0.06552
 C569 C 0.05442 0.59607 0.06105
 C570 C 0.06798 0.61880 0.07749
 C571 C 0.08487 0.64518 0.09795
 C572 C 0.11413 0.66826 0.08866
 C573 C 0.13188 0.69232 0.11001
 C574 C 0.12044 0.69339 0.14073
 C575 C 0.09088 0.67071 0.14969
 C576 C 0.07314 0.64666 0.12834
 C577 C 0.13986 0.71626 0.16395
 C578 C 0.15655 0.73458 0.18386
 H579 H 0.12353 0.66720 0.06533
 H580 H 0.15479 0.70959 0.10293
 H581 H 0.08191 0.67117 0.17349
 H582 H 0.05065 0.62879 0.13588
 C583 C 0.45667 0.05008 0.56537
 C584 C 0.44789 0.06429 0.58123
 C585 C 0.43880 0.08187 0.60108
 C586 C 0.42500 0.07055 0.63134
 C587 C 0.41902 0.08887 0.65214
 C588 C 0.42682 0.11859 0.64278
 C589 C 0.43993 0.12964 0.61219
 C590 C 0.44592 0.11131 0.59138
 C591 C 0.42363 0.13851 0.66551
 C592 C 0.42215 0.15552 0.68509
 H593 H 0.41965 0.04792 0.63919
 H594 H 0.40910 0.08019 0.67584
 H595 H 0.44629 0.15267 0.60482
 H596 H 0.45683 0.12038 0.56816
 C597 C 0.59447 0.54264 0.56388
 C598 C 0.61745 0.55175 0.57984
 C599 C 0.64415 0.56119 0.59974
 C600 C 0.66662 0.55422 0.59019
 C601 C 0.69097 0.56052 0.61105
 C602 C 0.69294 0.57380 0.64155
 C603 C 0.67088 0.58147 0.65075
 C604 C 0.64653 0.57517 0.62989
 C605 C 0.71610 0.57729 0.66435
 C606 C 0.73465 0.57898 0.68395
 H607 H 0.66486 0.54317 0.56705
 H608 H 0.70776 0.55427 0.60380
 H609 H 0.67204 0.59151 0.67438
 H610 H 0.62915 0.58041 0.63763
 C611 C 0.94636 0.40518 0.56056
 C612 C 0.93277 0.38246 0.57694
 C613 C 0.91583 0.35609 0.59733
 C614 C 0.92764 0.35449 0.62763
 C615 C 0.90987 0.33047 0.64893
 C616 C 0.88021 0.30795 0.64002
 C617 C 0.86869 0.30913 0.60940
 C618 C 0.88646 0.33316 0.58809
 C619 C 0.86080 0.28510 0.66322
 C620 C 0.84414 0.26681 0.68310
 H621 H 0.95021 0.37224 0.63513
 H622 H 0.91891 0.32992 0.67266
 H623 H 0.84570 0.29198 0.60236
 H624 H 0.87700 0.33431 0.56484
   
