data_POSCAR
  _audit_creation_date              2014-09-24
  _audit_creation_method            'ToBaCCo'
  _symmetry_space_group_name_H-M    'P1'
  _symmetry_Int_Tables_number       1
  _symmetry_cell_setting            triclinic
  loop_
  _symmetry_equiv_pos_as_xyz
 x,y,z
_cell_length_a 42.7166
_cell_length_b 43.0120
_cell_length_c 19.6654
_cell_angle_alpha 89.979100
_cell_angle_beta 89.951700
_cell_angle_gamma 121.806000
loop_
  _atom_site_label
  _atom_site_type_symbol
  _atom_site_fract_x
  _atom_site_fract_y
  _atom_site_fract_z
C1 C 0.51201 1.00028 0.46582
 C2 C 0.51017 1.00037 0.53501
 C3 C 0.49505 0.96630 0.57558
 C4 C 0.52325 1.03445 0.57472
 C5 C 0.52904 1.03456 0.42514
 C6 C 0.49724 0.96584 0.42640
 C7 C 0.45846 0.93744 0.56889
 C8 C 0.44471 0.90603 0.60916
 C9 C 0.46725 0.90249 0.65782
 C10 C 0.50423 0.93229 0.66338
 C11 C 0.51764 0.96353 0.62329
 C12 C 0.49899 1.03620 0.62038
 C13 C 0.51041 1.06763 0.65886
 C14 C 0.54642 1.09818 0.65248
 C15 C 0.57085 1.09627 0.60702
 C16 C 0.55948 1.06455 0.56902
 C17 C 0.55742 1.04212 0.37942
 C18 C 0.57406 1.07404 0.34052
 C19 C 0.56278 1.09929 0.34655
 C20 C 0.53397 1.09144 0.39192
 C21 C 0.51700 1.05919 0.43030
 C22 C 0.50958 0.94177 0.43747
 C23 C 0.49555 0.90987 0.39866
 C24 C 0.46935 0.90177 0.34737
 C25 C 0.45758 0.92631 0.33594
 C26 C 0.47135 0.95793 0.37504
 H27 H 0.44051 0.93922 0.53232
 H28 H 0.41676 0.88420 0.59901
 H29 H 0.52292 0.93319 0.70139
 H30 H 0.54588 0.98588 0.62991
 H31 H 0.47105 1.01311 0.62615
 H32 H 0.49114 1.06773 0.69451
 H33 H 0.57889 1.06353 0.53509
 H34 H 0.56682 1.02326 0.37404
 H35 H 0.59546 1.07865 0.30494
 H36 H 0.52471 1.11034 0.39821
 H37 H 0.49462 1.05354 0.46426
 H38 H 0.53017 0.94775 0.47586
 H39 H 0.50510 0.89150 0.40897
 H40 H 0.43817 0.92147 0.29584
 H41 H 0.46183 0.97638 0.36510
 H42 H 0.59869 1.11934 0.60047
 C43 C -0.00327 0.49934 0.46514
 C44 C -0.00257 0.49897 0.53445
 C45 C 0.03251 0.51841 0.57332
 C46 C -0.03688 0.47946 0.57575
 C47 C -0.03834 0.47923 0.42642
 C48 C 0.03093 0.51990 0.42389
 C49 C 0.06073 0.51142 0.56221
 C50 C 0.09327 0.52981 0.60019
 C51 C 0.09794 0.55513 0.65062
 C52 C 0.06933 0.56157 0.66208
 C53 C 0.03703 0.54343 0.62388
 C54 C -0.04038 0.45463 0.62591
 C55 C -0.07179 0.43679 0.66676
 C56 C -0.10054 0.44332 0.65827
 C57 C -0.09694 0.46831 0.60797
 C58 C -0.06525 0.48650 0.56764
 C59 C -0.04691 0.49821 0.37979
 C60 C -0.07959 0.48005 0.34263
 C61 C -0.10482 0.44202 0.35058
 C62 C -0.09556 0.42313 0.39746
 C63 C -0.06273 0.44149 0.43454
 C64 C 0.05598 0.55749 0.43372
 C65 C 0.08799 0.57617 0.39422
 C66 C 0.09524 0.55772 0.34348
 C67 C 0.06964 0.52026 0.33299
 C68 C 0.03788 0.50160 0.37275
 H69 H 0.05752 0.49169 0.52430
 H70 H 0.11482 0.52434 0.58986
 H71 H 0.07161 0.58021 0.70151
 H72 H 0.01544 0.54892 0.63378
 H73 H -0.01862 0.44914 0.63360
 H74 H -0.07319 0.41841 0.70593
 H75 H -0.06279 0.50618 0.53031
 H76 H -0.02815 0.52731 0.37207
 H77 H -0.08386 0.49600 0.30552
 H78 H -0.11400 0.39433 0.40783
 H79 H -0.05642 0.42623 0.46990
 H80 H 0.05077 0.57232 0.47199
 H81 H 0.10718 0.60497 0.40378
 H82 H 0.07387 0.50539 0.29332
 H83 H 0.01869 0.47271 0.36377
 H84 H -0.11863 0.47378 0.59961
 C85 C 0.49583 0.49895 0.46564
 C86 C 0.49645 0.49911 0.53495
 C87 C 0.47731 0.51324 0.57580
 C88 C 0.51638 0.48533 0.57434
 C89 C 0.51545 0.48537 0.42450
 C90 C 0.47567 0.51262 0.42658
 C91 C 0.48575 0.54928 0.56870
 C92 C 0.46791 0.56218 0.60888
 C93 C 0.44124 0.53938 0.65782
 C94 C 0.43334 0.50318 0.66440
 C95 C 0.45120 0.49047 0.62422
 C96 C 0.54262 0.50816 0.62242
 C97 C 0.56130 0.49585 0.66118
 C98 C 0.55423 0.46000 0.65339
 C99 C 0.52748 0.43715 0.60470
 C100 C 0.50872 0.44961 0.56613
 C101 C 0.49618 0.45918 0.37376
 C102 C 0.51409 0.44673 0.33299
 C103 C 0.55176 0.46008 0.34220
 C104 C 0.57110 0.48646 0.39302
 C105 C 0.55321 0.49927 0.43325
 C106 C 0.43793 0.49838 0.43685
 C107 C 0.41953 0.51128 0.39838
 C108 C 0.43840 0.53825 0.34820
 C109 C 0.47607 0.55200 0.33760
 C110 C 0.49445 0.53935 0.37637
 H111 H 0.50617 0.56744 0.53197
 H112 H 0.47447 0.58974 0.59945
 H113 H 0.41460 0.48470 0.70272
 H114 H 0.44474 0.46270 0.63117
 H115 H 0.54856 0.53570 0.63025
 H116 H 0.58002 0.51434 0.69940
 H117 H 0.48822 0.43136 0.52970
 H118 H 0.46715 0.44844 0.36552
 H119 H 0.49851 0.42713 0.29335
 H120 H 0.60004 0.49717 0.40187
 H121 H 0.56887 0.52013 0.47101
 H122 H 0.42271 0.47717 0.47436
 H123 H 0.39057 0.50022 0.40807
 H124 H 0.49127 0.57209 0.29834
 H125 H 0.52345 0.55039 0.36706
 H126 H 0.52150 0.40989 0.59421
 O127 O 0.39081 0.67231 -0.07836
 O128 O 0.38782 0.73074 -0.05896
 C129 C 0.36399 0.73359 -0.09239
 O130 O 0.32978 0.71400 -0.08013
 O131 O 0.26987 0.65056 -0.05972
 C132 C 0.26592 0.62304 -0.09174
 O133 O 0.28455 0.60864 -0.07831
 O134 O 0.34763 0.61414 -0.05728
 C135 C 0.37549 0.63840 -0.09040
 O136 O 0.39282 0.66371 0.05710
 O137 O 0.38687 0.72040 0.07627
 C138 C 0.36770 0.73435 0.08841
 O139 O 0.33868 0.72582 0.05527
 O140 O 0.28012 0.66119 0.07546
 C141 C 0.26509 0.62741 0.08864
 O142 O 0.27296 0.60668 0.05677
 O143 O 0.33718 0.61481 0.07774
 C144 C 0.37131 0.63471 0.09029
 Cr145 Cr 0.38747 0.69556 -0.00101
 Cr146 Cr 0.30579 0.68703 -0.00223
 Cr147 Cr 0.31152 0.61316 -0.00031
 O148 O 0.33491 0.66524 -0.00113
 O149 O 0.60705 0.32807 -0.08608
 O150 O 0.60947 0.26972 -0.06185
 C151 C 0.63481 0.26683 -0.08934
 O152 O 0.66833 0.28656 -0.07236
 O153 O 0.72702 0.35035 -0.04858
 C154 C 0.73133 0.37733 -0.08344
 O155 O 0.71190 0.39132 -0.07475
 O156 O 0.64840 0.38614 -0.06134
 C157 C 0.62190 0.36199 -0.09706
 O158 O 0.60007 0.33647 0.04834
 O159 O 0.60500 0.27960 0.07232
 C160 C 0.62347 0.26554 0.08929
 O161 O 0.65416 0.27462 0.06185
 O162 O 0.71157 0.33953 0.08583
 C163 C 0.72711 0.37354 0.09644
 O164 O 0.72032 0.39402 0.06095
 O165 O 0.65513 0.38506 0.07446
 C166 C 0.62059 0.36518 0.08320
 Cr167 Cr 0.60748 0.30469 -0.00659
 Cr168 Cr 0.68912 0.31363 0.00647
 Cr169 Cr 0.68301 0.38707 -0.00015
 O170 O 0.65984 0.33505 -0.00007
 C171 C 0.47814 0.86363 -0.26841
 C172 C 0.45396 0.87215 -0.30124
 C173 C 0.41565 0.84834 -0.28860
 C174 C 0.40254 0.81884 -0.24301
 C175 C 0.42755 0.81205 -0.20972
 C176 C 0.46514 0.83422 -0.22359
 C177 C 0.41472 0.78359 -0.16212
 C178 C 0.37698 0.76182 -0.14645
 C179 C 0.35211 0.76831 -0.18094
 C180 C 0.36477 0.79652 -0.22876
 H181 H 0.39560 0.85368 -0.30981
 H182 H 0.48468 0.82892 -0.19947
 H183 H 0.43431 0.77892 -0.13630
 H184 H 0.34503 0.80121 -0.25383
 H185 H 0.50737 0.87853 -0.27866
 H186 H 0.32288 0.75199 -0.17015
 C187 C 0.14683 0.61084 -0.28789
 C188 C 0.13194 0.57419 -0.30738
 C189 C 0.14875 0.55551 -0.28398
 C190 C 0.17910 0.57275 -0.23986
 C191 C 0.19289 0.60914 -0.21881
 C192 C 0.17693 0.62811 -0.24395
 C193 C 0.22187 0.62572 -0.17184
 C194 C 0.23744 0.60647 -0.14546
 C195 C 0.22436 0.57071 -0.16850
 C196 C 0.19538 0.55396 -0.21511
 H197 H 0.13745 0.52718 -0.29803
 H198 H 0.18741 0.65615 -0.22890
 H199 H 0.23191 0.65344 -0.15507
 H200 H 0.18529 0.52610 -0.23091
 H201 H 0.13500 0.62616 -0.30631
 H202 H 0.23586 0.55526 -0.14906
 C203 C 0.38862 0.52786 -0.27053
 C204 C 0.42344 0.55239 -0.29990
 C205 C 0.44025 0.59004 -0.28441
 C206 C 0.42357 0.60239 -0.23928
 C207 C 0.38937 0.57710 -0.20923
 C208 C 0.37194 0.54005 -0.22593
 C209 C 0.37339 0.58914 -0.16205
 C210 C 0.39128 0.62629 -0.14384
 C211 C 0.42498 0.65142 -0.17522
 C212 C 0.44099 0.63957 -0.22243
 H213 H 0.46731 0.60987 -0.30389
 H214 H 0.34537 0.52034 -0.20416
 H215 H 0.34730 0.56941 -0.13869
 H216 H 0.46723 0.65945 -0.24504
 H217 H 0.37333 0.49906 -0.28302
 H218 H 0.43940 0.68020 -0.16235
 C219 C 0.53391 0.14281 -0.29006
 C220 C 0.55849 0.13132 -0.30523
 C221 C 0.59420 0.15085 -0.27759
 C222 C 0.60483 0.18066 -0.23410
 C223 C 0.57947 0.19114 -0.21749
 C224 C 0.54424 0.17232 -0.24646
 C225 C 0.58954 0.21982 -0.17132
 C226 C 0.62480 0.23833 -0.14172
 C227 C 0.65014 0.22833 -0.16032
 C228 C 0.64021 0.19971 -0.20584
 H229 H 0.61339 0.14219 -0.28802
 H230 H 0.52453 0.18018 -0.23491
 H231 H 0.56981 0.22738 -0.15787
 H232 H 0.66007 0.19216 -0.21822
 H233 H 0.50652 0.12886 -0.31174
 H234 H 0.67747 0.24205 -0.13837
 C235 C 0.85200 0.38856 -0.27529
 C236 C 0.86645 0.42485 -0.29686
 C237 C 0.84985 0.44376 -0.27363
 C238 C 0.81981 0.42698 -0.22873
 C239 C 0.80624 0.39087 -0.20604
 C240 C 0.82231 0.37179 -0.23014
 C241 C 0.77709 0.37459 -0.15912
 C242 C 0.76104 0.39383 -0.13500
 C243 C 0.77420 0.42942 -0.15925
 C244 C 0.80343 0.44590 -0.20540
 H245 H 0.86085 0.47187 -0.28895
 H246 H 0.81203 0.34396 -0.21382
 H247 H 0.76700 0.34702 -0.14131
 H248 H 0.81339 0.47356 -0.22244
 H249 H 0.86367 0.37302 -0.29337
 H250 H 0.76239 0.44488 -0.14145
 C251 C 0.60730 0.47219 -0.27562
 C252 C 0.57277 0.44733 -0.30552
 C253 C 0.55692 0.40962 -0.29154
 C254 C 0.57408 0.39753 -0.24710
 C255 C 0.60780 0.42312 -0.21605
 C256 C 0.62443 0.46026 -0.23154
 C257 C 0.62397 0.41127 -0.16886
 C258 C 0.60671 0.37401 -0.15175
 C259 C 0.57366 0.34861 -0.18457
 C260 C 0.55749 0.36025 -0.23171
 H261 H 0.53014 0.38945 -0.31147
 H262 H 0.65066 0.48023 -0.20911
 H263 H 0.64956 0.43122 -0.14437
 H264 H 0.53165 0.34014 -0.25518
 H265 H 0.62199 0.50111 -0.28708
 H266 H 0.55972 0.31973 -0.17257
 C267 C 0.84489 0.38575 0.29660
 C268 C 0.86219 0.42348 0.31147
 C269 C 0.84613 0.44244 0.28454
 C270 C 0.81522 0.42490 0.24187
 C271 C 0.79921 0.38754 0.22621
 C272 C 0.81390 0.36812 0.25466
 C273 C 0.76938 0.37044 0.18095
 C274 C 0.75565 0.39044 0.15014
 C275 C 0.77117 0.42741 0.16774
 C276 C 0.80053 0.44442 0.21345
 H277 H 0.85700 0.47081 0.29731
 H278 H 0.80199 0.33940 0.24302
 H279 H 0.75777 0.34192 0.16796
 H280 H 0.81233 0.47310 0.22522
 H281 H 0.85618 0.36980 0.31391
 H282 H 0.76107 0.44346 0.14520
 C283 C 0.61838 0.15153 0.28926
 C284 C 0.58048 0.13308 0.30425
 C285 C 0.55940 0.14640 0.27660
 C286 C 0.57564 0.17696 0.23336
 C287 C 0.61347 0.19449 0.21697
 C288 C 0.63467 0.18182 0.24589
 C289 C 0.62928 0.22395 0.17107
 C290 C 0.60776 0.23629 0.14152
 C291 C 0.57040 0.21930 0.15992
 C292 C 0.55448 0.18986 0.20516
 H293 H 0.53011 0.13236 0.28689
 H294 H 0.66380 0.19512 0.23450
 H295 H 0.65816 0.23693 0.15778
 H296 H 0.52548 0.17687 0.21737
 H297 H 0.63553 0.14247 0.31098
 H298 H 0.55312 0.22815 0.13798
 C299 C 0.60710 0.47161 0.27526
 C300 C 0.57082 0.44718 0.29756
 C301 C 0.55240 0.41063 0.27500
 C302 C 0.56945 0.39897 0.22946
 C303 C 0.60579 0.42388 0.20718
 C304 C 0.62447 0.46003 0.23085
 C305 C 0.62261 0.41244 0.16064
 C306 C 0.60334 0.37652 0.13492
 C307 C 0.56725 0.35192 0.15772
 C308 C 0.55055 0.36297 0.20492
 H309 H 0.52468 0.39124 0.29255
 H310 H 0.65230 0.47954 0.21403
 H311 H 0.65038 0.43179 0.14326
 H312 H 0.52266 0.34349 0.22148
 H313 H 0.62182 0.50001 0.29075
 H314 H 0.55187 0.32407 0.13901
 C315 C 0.14176 0.61302 0.27704
 C316 C 0.12890 0.57736 0.30052
 C317 C 0.14759 0.55995 0.28066
 C318 C 0.17775 0.57727 0.23615
 C319 C 0.19004 0.61285 0.21200
 C320 C 0.17213 0.63066 0.23342
 C321 C 0.21941 0.62965 0.16559
 C322 C 0.23625 0.61103 0.14192
 C323 C 0.22411 0.57585 0.16723
 C324 C 0.19530 0.55923 0.21421
 H325 H 0.13846 0.53274 0.29930
 H326 H 0.18113 0.65792 0.21532
 H327 H 0.22835 0.65672 0.14635
 H328 H 0.18628 0.53196 0.23236
 H329 H 0.12772 0.62696 0.29085
 H330 H 0.23670 0.56098 0.15024
 C331 C 0.47841 0.85683 0.28199
 C332 C 0.45496 0.86851 0.30439
 C333 C 0.41799 0.84919 0.28292
 C334 C 0.40501 0.81970 0.23773
 C335 C 0.42901 0.80865 0.21463
 C336 C 0.46551 0.82708 0.23780
 C337 C 0.41636 0.77997 0.16752
 C338 C 0.38017 0.76261 0.14208
 C339 C 0.35642 0.77353 0.16630
 C340 C 0.36865 0.80164 0.21398
 H341 H 0.39935 0.85738 0.30070
 H342 H 0.48433 0.81904 0.22054
 H343 H 0.43504 0.77196 0.14917
 H344 H 0.34986 0.80971 0.23129
 H345 H 0.50709 0.87138 0.29698
 H346 H 0.32837 0.76050 0.14797
 C347 C 0.38300 0.52691 0.28189
 C348 C 0.41896 0.55141 0.30546
 C349 C 0.43695 0.58832 0.28534
 C350 C 0.42003 0.60027 0.24022
 C351 C 0.38419 0.57526 0.21590
 C352 C 0.36572 0.53877 0.23781
 C353 C 0.36783 0.58694 0.16873
 C354 C 0.38719 0.62317 0.14438
 C355 C 0.42261 0.64792 0.16988
 C356 C 0.43877 0.63664 0.21769
 H357 H 0.46439 0.60772 0.30404
 H358 H 0.33824 0.51918 0.21959
 H359 H 0.34056 0.56751 0.14933
 H360 H 0.46625 0.65620 0.23595
 H361 H 0.36860 0.49827 0.29585
 H362 H 0.43802 0.67602 0.15240
   
