data_POSCAR
  _audit_creation_date              2014-09-24
  _audit_creation_method            'ToBaCCo'
  _symmetry_space_group_name_H-M    'P1'
  _symmetry_Int_Tables_number       1
  _symmetry_cell_setting            triclinic
  loop_
  _symmetry_equiv_pos_as_xyz
 x,y,z
_cell_length_a 46.4144
_cell_length_b 46.1950
_cell_length_c 46.1890
_cell_angle_alpha 89.921400
_cell_angle_beta 89.978000
_cell_angle_gamma 90.024700
loop_
  _atom_site_label
  _atom_site_type_symbol
  _atom_site_fract_x
  _atom_site_fract_y
  _atom_site_fract_z
N1 N 0.14581 0.16220 0.22233
 N2 N 0.16712 0.14353 0.22300
 C3 C 0.16377 0.12604 0.24613
 C4 C 0.13867 0.13389 0.26058
 C5 C 0.12787 0.15693 0.24460
 H6 H 0.17827 0.10862 0.25168
 H7 H 0.10887 0.16961 0.24920
 Cu8 Cu 0.19678 0.14361 0.19310
 Cu9 Cu 0.14367 0.19308 0.19373
 Cu10 Cu 0.19771 0.19566 0.14199
 N11 N 0.22691 0.14529 0.16375
 N12 N 0.22771 0.16627 0.14454
 C13 C 0.25106 0.16290 0.12761
 C14 C 0.26566 0.13813 0.13631
 C15 C 0.24951 0.12754 0.15935
 H16 H 0.25644 0.17707 0.10977
 H17 H 0.25406 0.10862 0.17234
 N18 N 0.16544 0.22342 0.14302
 N19 N 0.14522 0.22274 0.16311
 C20 C 0.12696 0.24495 0.15874
 C21 C 0.13589 0.26016 0.13457
 C22 C 0.16028 0.24585 0.12506
 H23 H 0.10834 0.24965 0.17199
 H24 H 0.17358 0.25178 0.10677
 H25 H 0.16546 0.17155 0.16114
 H26 H 0.18747 0.19500 0.18552
 N27 N -0.14708 0.83589 0.22620
 N28 N -0.16325 0.85859 0.22068
 C29 C -0.15870 0.87876 0.24121
 C30 C -0.13877 0.86798 0.26080
 C31 C -0.13193 0.84069 0.25056
 H32 H -0.16923 0.89962 0.24194
 H33 H -0.11647 0.82577 0.25972
 Cu34 Cu -0.18898 0.85976 0.18738
 Cu35 Cu -0.14555 0.80269 0.20043
 Cu36 Cu -0.19937 0.79821 0.14927
 N37 N -0.22201 0.85464 0.16190
 N38 N -0.22678 0.83013 0.14835
 C39 C -0.25128 0.83239 0.13295
 C40 C -0.26250 0.86003 0.13669
 C41 C -0.24315 0.87350 0.15531
 H42 H -0.25962 0.81540 0.11926
 H43 H -0.24440 0.89523 0.16385
 N44 N -0.16909 0.76857 0.15336
 N45 N -0.14790 0.77089 0.17225
 C46 C -0.12877 0.74949 0.16761
 C47 C -0.13849 0.73274 0.14481
 C48 C -0.16419 0.74536 0.13642
 H49 H -0.10889 0.74669 0.17946
 H50 H -0.17740 0.73909 0.11820
 H51 H -0.16345 0.82074 0.16312
 H52 H -0.18915 0.80754 0.19172
 N53 N -0.15017 0.16466 -0.22542
 N54 N -0.16602 0.14169 -0.22008
 C55 C -0.16162 0.12198 -0.24109
 C56 C -0.14204 0.13329 -0.26077
 C57 C -0.13528 0.16045 -0.25007
 H58 H -0.17204 0.10107 -0.24204
 H59 H -0.12015 0.17576 -0.25917
 Cu60 Cu -0.19099 0.13953 -0.18626
 Cu61 Cu -0.14913 0.19768 -0.19934
 Cu62 Cu -0.20167 0.19988 -0.14647
 N63 N -0.22327 0.14309 -0.15960
 N64 N -0.22812 0.16707 -0.14514
 C65 C -0.25209 0.16375 -0.12906
 C66 C -0.26287 0.13598 -0.13338
 C67 C -0.24381 0.12357 -0.15300
 H68 H -0.26047 0.18016 -0.11471
 H69 H -0.24490 0.10214 -0.16227
 N70 N -0.17242 0.23059 -0.15118
 N71 N -0.15183 0.22919 -0.17084
 C72 C -0.13346 0.25138 -0.16686
 C73 C -0.14298 0.26769 -0.14366
 C74 C -0.16784 0.25397 -0.13434
 H75 H -0.11419 0.25505 -0.17949
 H76 H -0.18068 0.25970 -0.11567
 H77 H -0.16563 0.17867 -0.16188
 H78 H -0.19235 0.19187 -0.18939
 N79 N 0.14985 0.83369 -0.22838
 N80 N 0.16532 0.85679 -0.22260
 C81 C 0.16022 0.87709 -0.24289
 C82 C 0.14056 0.86607 -0.26258
 C83 C 0.13450 0.83842 -0.25265
 H84 H 0.17021 0.89824 -0.24334
 H85 H 0.11948 0.82315 -0.26195
 Cu86 Cu 0.19065 0.85839 -0.18914
 Cu87 Cu 0.14975 0.80001 -0.20307
 Cu88 Cu 0.20336 0.79708 -0.15124
 N89 N 0.22358 0.85455 -0.16351
 N90 N 0.22930 0.83036 -0.14969
 C91 C 0.25336 0.83402 -0.13379
 C92 C 0.26317 0.86225 -0.13760
 C93 C 0.24357 0.87449 -0.15675
 H94 H 0.26231 0.81763 -0.11973
 H95 H 0.24372 0.89622 -0.16542
 N96 N 0.17436 0.76613 -0.15618
 N97 N 0.15337 0.76787 -0.17537
 C98 C 0.13490 0.74582 -0.17114
 C99 C 0.14477 0.72923 -0.14830
 C100 C 0.16996 0.74259 -0.13944
 H101 H 0.11516 0.74259 -0.18312
 H102 H 0.18296 0.73671 -0.12092
 H103 H 0.16673 0.81808 -0.16521
 H104 H 0.19316 0.80624 -0.19361
 N105 N 0.17081 1.14516 0.77502
 N106 N 0.14939 1.16374 0.77613
 C107 C 0.13036 1.15736 0.75504
 C108 C 0.14060 1.13366 0.73985
 C109 C 0.16631 1.12653 0.75316
 H110 H 0.11096 1.16949 0.75048
 H111 H 0.18067 1.10904 0.74740
 Cu112 Cu 0.14999 1.19525 0.80403
 Cu113 Cu 0.20305 1.14636 0.80186
 Cu114 Cu 0.20505 1.20354 0.85052
 N115 N 0.15058 1.22678 0.83186
 N116 N 0.17282 1.23064 0.84907
 C117 C 0.16804 1.25395 0.86586
 C118 C 0.14125 1.26513 0.85903
 C119 C 0.13077 1.24735 0.83735
 H120 H 0.18245 1.26148 0.88263
 H121 H 0.11023 1.24925 0.82651
 N122 N 0.23520 1.17345 0.84864
 N123 N 0.23383 1.15129 0.83066
 C124 C 0.25546 1.13288 0.83661
 C125 C 0.27133 1.14393 0.85933
 C126 C 0.25803 1.16979 0.86633
 H127 H 0.25902 1.11249 0.82574
 H128 H 0.26359 1.18392 0.88411
 H129 H 0.18256 1.16824 0.83527
 H130 H 0.20214 1.19067 0.80799
 N131 N 0.82922 0.85368 0.77091
 N132 N 0.85197 0.83692 0.77330
 C133 C 0.87061 0.84331 0.75185
 C134 C 0.85873 0.86512 0.73509
 C135 C 0.83245 0.87112 0.74782
 H136 H 0.89101 0.83260 0.74832
 H137 H 0.81703 0.88732 0.74109
 Cu138 Cu 0.85354 0.80777 0.80362
 Cu139 Cu 0.79746 0.85257 0.79843
 Cu140 Cu 0.80083 0.80024 0.85254
 N141 N 0.85506 0.77731 0.83258
 N142 N 0.83386 0.77396 0.85120
 C143 C 0.83927 0.75063 0.86784
 C144 C 0.86536 0.73888 0.85931
 C145 C 0.87478 0.75640 0.83692
 H146 H 0.82543 0.74298 0.88506
 H147 H 0.89425 0.75368 0.82436
 N148 N 0.76939 0.82900 0.84971
 N149 N 0.76774 0.84813 0.82849
 C150 C 0.74412 0.86453 0.83232
 C151 C 0.73034 0.85559 0.85726
 C152 C 0.74696 0.83306 0.86782
 H153 H 0.73793 0.88245 0.81861
 H154 H 0.74301 0.82064 0.88728
 H155 H 0.82009 0.83551 0.83312
 H156 H 0.80143 0.80920 0.80896
 N157 N 0.16484 0.85199 1.22718
 N158 N 0.14665 0.83023 1.22834
 C159 C 0.12791 0.83469 1.25010
 C160 C 0.13464 0.86071 1.26322
 C161 C 0.15815 0.87119 1.24803
 H162 H 0.11063 0.82013 1.25599
 H163 H 0.17007 0.89081 1.25244
 Cu164 Cu 0.14907 0.79817 1.20141
 Cu165 Cu 0.19694 0.85264 1.20013
 Cu166 Cu 0.20355 0.79426 1.15330
 N167 N 0.15134 0.76743 1.17300
 N168 N 0.17325 0.76510 1.15512
 C169 C 0.16880 0.74230 1.13750
 C170 C 0.14249 0.73007 1.14452
 C171 C 0.13204 0.74656 1.16710
 H172 H 0.18278 0.73612 1.11982
 H173 H 0.11158 0.74387 1.17798
 N174 N 0.23147 0.82643 1.15459
 N175 N 0.22812 0.84921 1.17150
 C176 C 0.24907 0.86850 1.16571
 C177 C 0.26654 0.85736 1.14421
 C178 C 0.25483 0.83060 1.13774
 H179 H 0.25142 0.88923 1.17627
 H180 H 0.26211 0.81585 1.12113
 H181 H 0.17775 0.82742 1.16824
 H182 H 0.20035 0.80823 1.19567
 N183 N 0.82939 1.15158 1.22961
 N184 N 0.84860 1.17250 1.22943
 C185 C 0.86684 1.16867 1.25182
 C186 C 0.85876 1.14383 1.26650
 C187 C 0.83494 1.13356 1.25179
 H188 H 0.88529 1.18218 1.25645
 H189 H 0.82271 1.11424 1.25671
 Cu190 Cu 0.84900 1.20139 1.19872
 Cu191 Cu 0.79913 1.14850 1.20067
 Cu192 Cu 0.79890 1.20008 1.14620
 N193 N 0.84877 1.22995 1.16769
 N194 N 0.82858 1.22969 1.14775
 C195 C 0.83288 1.25185 1.12935
 C196 C 0.85726 1.26666 1.13799
 C197 C 0.86690 1.25213 1.16237
 H198 H 0.81961 1.25648 1.11068
 H199 H 0.88550 1.25755 1.17536
 N200 N 0.77066 1.16840 1.14833
 N201 N 0.77030 1.14911 1.16942
 C202 C 0.74861 1.13031 1.16469
 C203 C 0.73493 1.13799 1.13923
 C204 C 0.74948 1.16220 1.12946
 H205 H 0.74369 1.11183 1.17819
 H206 H 0.74495 1.17434 1.10996
 H207 H 0.82197 1.16837 1.16781
 H208 H 0.79804 1.19192 1.19021
 O209 O 0.45671 0.94648 0.95121
 O210 O 0.42671 0.97485 0.97860
 C211 C 0.43127 0.95490 0.95942
 O212 O 0.54041 0.94391 1.05164
 O213 O 0.57207 0.97069 1.02437
 C214 C 0.56633 0.95135 1.04392
 O215 O 0.45907 0.94362 1.05109
 O216 O 0.42799 0.97383 1.02708
 C217 C 0.43332 0.95269 1.04474
 O218 O 0.53756 0.94744 0.94603
 O219 O 0.57059 0.97124 0.97423
 C220 C 0.56382 0.95352 0.95358
 Zr221 Zr 0.49799 0.96175 0.96380
 O222 O 0.50002 0.91603 0.96182
 O223 O 0.49344 0.96393 0.91824
 Zr224 Zr 0.49982 0.95929 1.03703
 O225 O 0.50172 0.91352 1.03576
 O226 O 0.49774 0.95824 1.08281
 O227 O 0.47311 0.95556 1.00092
 O228 O 0.52372 0.95451 0.99962
 O229 O 0.54074 1.04864 0.94988
 O230 O 0.57218 1.01977 0.97513
 C231 C 0.56657 1.03994 0.95638
 O232 O 0.46230 1.05032 1.05358
 O233 O 0.42936 1.02337 1.02818
 C234 C 0.43606 1.04326 1.04677
 O235 O 0.54331 1.04446 1.05482
 O236 O 0.57327 1.01870 1.02492
 C237 C 0.56872 1.03683 1.04580
 O238 O 0.45986 1.05302 0.95423
 O239 O 0.42827 1.02492 0.98013
 C240 C 0.43397 1.04560 0.96201
 Zr241 Zr 0.50021 1.03489 0.96607
 O242 O 0.50454 1.08051 0.96666
 O243 O 0.49603 1.03549 0.92042
 Zr244 Zr 0.50197 1.03241 1.03931
 O245 O 0.50682 1.07790 1.04169
 O246 O 0.49948 1.03002 1.08503
 Zr247 Zr 0.45730 0.99829 1.00262
 Zr248 Zr 0.54276 0.99586 1.00041
 O249 O 0.52615 1.03823 1.00222
 O250 O 0.47566 1.04004 1.00351
 O251 O 0.52469 0.99778 0.95859
 O252 O 0.47601 0.99643 1.04408
 O253 O 0.47396 0.99920 0.96027
 O254 O 0.52673 0.99494 1.04314
 H255 H 0.53625 0.93717 0.99884
 H256 H 0.46331 0.99639 1.06132
 H257 H 0.53954 1.05493 1.00244
 H258 H 0.46038 1.00007 0.94375
 H259 H 0.51459 0.96903 1.09024
 H260 H 0.51629 1.01877 1.09185
 H261 H 0.49218 1.08656 1.02878
 H262 H 0.48958 1.08819 0.97981
 H263 H 0.51275 1.02503 0.91226
 H264 H 0.50990 0.97523 0.91063
 H265 H 0.48493 0.90836 0.97486
 H266 H 0.48516 0.90673 1.02414
 O267 O -0.05446 0.46102 0.04774
 O268 O -0.02608 0.42854 0.02333
 C269 C -0.04674 0.43483 0.04115
 O270 O -0.04841 0.54138 -0.05564
 O271 O -0.02181 0.57266 -0.02786
 C272 C -0.04033 0.56727 -0.04814
 O273 O -0.05242 0.45983 -0.05226
 O274 O -0.02545 0.42804 -0.02538
 C275 C -0.04511 0.43378 -0.04447
 O276 O -0.05044 0.54225 0.04967
 O277 O -0.02281 0.57326 0.02252
 C278 C -0.04212 0.56806 0.04218
 Zr279 Zr -0.03699 0.50120 0.03426
 O280 O -0.08242 0.50526 0.03353
 O281 O -0.03759 0.49837 0.08001
 Zr282 Zr -0.03545 0.50045 -0.03901
 O283 O -0.08085 0.50438 -0.04055
 O284 O -0.03372 0.49682 -0.08466
 O285 O -0.04231 0.47511 -0.00220
 O286 O -0.04105 0.52601 -0.00273
 O287 O 0.05037 0.54051 0.05158
 O288 O 0.02534 0.57227 0.02286
 C289 C 0.04356 0.56653 0.04334
 O290 O 0.05347 0.45807 -0.05003
 O291 O 0.02433 0.42723 -0.02435
 C292 C 0.04497 0.43229 -0.04257
 O293 O 0.05243 0.53959 -0.05350
 O294 O 0.02586 0.57190 -0.02691
 C295 C 0.04505 0.56579 -0.04639
 O296 O 0.05080 0.45904 0.05044
 O297 O 0.02370 0.42750 0.02340
 C298 C 0.04321 0.43309 0.04270
 Zr299 Zr 0.03584 0.49991 0.03586
 O300 O 0.08139 0.50205 0.03697
 O301 O 0.03435 0.49739 0.08161
 Zr302 Zr 0.03743 0.49922 -0.03739
 O303 O 0.08298 0.50157 -0.03687
 O304 O 0.03773 0.49563 -0.08308
 Zr305 Zr -0.00053 0.45723 -0.00110
 Zr306 Zr 0.00094 0.54313 -0.00196
 O307 O 0.04232 0.52453 -0.00093
 O308 O 0.04183 0.47370 -0.00037
 O309 O -0.00023 0.52644 0.04050
 O310 O 0.00067 0.47465 -0.04321
 O311 O -0.00113 0.47548 0.04061
 O312 O 0.00157 0.52561 -0.04409
 H313 H -0.05770 0.53942 -0.00317
 H314 H 0.00080 0.46129 -0.05998
 H315 H 0.05952 0.53723 -0.00078
 H316 H -0.00170 0.46252 0.05771
 H317 H -0.02253 0.51349 -0.09205
 H318 H 0.02710 0.51245 -0.09094
 H319 H 0.08998 0.48607 -0.02387
 H320 H 0.08884 0.48561 0.02550
 H321 H 0.02342 0.51437 0.08863
 H322 H -0.02610 0.51473 0.08759
 H323 H -0.09004 0.48946 0.02131
 H324 H -0.08899 0.48912 -0.02793
 O325 O 1.05062 -0.04952 0.54127
 O326 O 1.02365 -0.02208 0.57250
 C327 C 1.04326 -0.04128 0.56717
 O328 O 1.05393 0.05349 0.46047
 O329 O 1.02617 0.02810 0.42818
 C330 C 1.04604 0.04681 0.43432
 O331 O 1.05477 0.04994 0.54189
 O332 O 1.02459 0.02565 0.57286
 C333 C 1.04597 0.04297 0.56768
 O334 O 1.04860 -0.05182 0.45963
 O335 O 1.02510 -0.02189 0.42777
 C336 C 1.04231 -0.04321 0.43360
 Zr337 Zr 1.03535 -0.03521 0.50023
 O338 O 1.08085 -0.03706 0.49745
 O339 O 1.03342 -0.08090 0.50331
 Zr340 Zr 1.03824 0.03804 0.50086
 O341 O 1.08377 0.03750 0.49858
 O342 O 1.03865 0.08373 0.50451
 O343 O 1.04201 0.00093 0.52633
 O344 O 1.04249 0.00146 0.47556
 O345 O 0.94885 -0.04749 0.45762
 O346 O 0.97675 -0.02034 0.42694
 C347 C 0.95706 -0.03961 0.43188
 O348 O 0.94860 0.05413 0.54069
 O349 O 0.97465 0.02600 0.57216
 C350 C 0.95512 0.04523 0.56663
 O351 O 0.95317 0.05834 0.45898
 O352 O 0.97860 0.02961 0.42758
 C353 C 0.96061 0.05035 0.43304
 O354 O 0.94499 -0.04559 0.53903
 O355 O 0.97378 -0.02162 0.57145
 C356 C 0.95285 -0.03912 0.56523
 Zr357 Zr 0.96256 -0.03228 0.49880
 O358 O 0.91716 -0.03067 0.49477
 O359 O 0.96117 -0.07801 0.50159
 Zr360 Zr 0.96550 0.04108 0.49982
 O361 O 0.92016 0.04367 0.49574
 O362 O 0.96805 0.08666 0.50384
 Zr363 Zr 0.99967 0.00236 0.54279
 Zr364 Zr 1.00114 0.00340 0.45697
 O365 O 0.95918 0.00493 0.47418
 O366 O 0.95793 0.00424 0.52489
 O367 O 0.99920 -0.03908 0.47361
 O368 O 1.00164 0.04451 0.52560
 O369 O 0.99832 -0.03934 0.52459
 O370 O 1.00253 0.04549 0.47455
 H371 H 1.05964 0.00088 0.46279
 H372 H 1.00192 0.06113 0.53914
 H373 H 0.94250 0.00575 0.46083
 H374 H 0.99761 -0.05636 0.53765
 H375 H 1.02956 0.09173 0.48687
 H376 H 0.97977 0.09391 0.48747
 H377 H 0.91173 0.03072 0.51056
 H378 H 0.90976 -0.01855 0.51076
 H379 H 0.97220 -0.08580 0.48501
 H380 H 1.02143 -0.08789 0.48706
 H381 H 1.08871 -0.02590 0.51391
 H382 H 1.09063 0.02327 0.51303
 C383 C 1.10273 0.09764 0.33620
 C384 C 1.13073 0.08989 0.32796
 C385 C 1.14258 0.10156 0.30271
 C386 C 1.12687 0.12152 0.28589
 C387 C 1.09886 0.12873 0.29523
 N388 N 1.08760 0.11652 0.31951
 C389 C 1.08886 0.08502 0.36203
 N390 N 1.06046 0.07781 0.36080
 C391 C 1.04639 0.06576 0.38364
 C392 C 1.06091 0.06087 0.40984
 C393 C 1.09001 0.06879 0.41184
 C394 C 1.10415 0.08061 0.38787
 H395 H 1.16422 0.09520 0.29683
 H396 H 1.08548 0.14351 0.28307
 H397 H 1.02384 0.06017 0.38137
 H398 H 1.10193 0.06527 0.43169
 H399 H 1.14311 0.07453 0.34056
 H400 H 1.12665 0.08656 0.38962
 C401 C 0.89973 -0.09008 0.33361
 C402 C 0.88814 -0.07329 0.31108
 C403 C 0.87501 -0.08693 0.28758
 C404 C 0.87368 -0.11723 0.28631
 C405 C 0.88507 -0.13320 0.30953
 N406 N 0.89750 -0.11942 0.33234
 C407 C 0.91451 -0.07660 0.35854
 N408 N 0.91252 -0.08912 0.38519
 C409 C 0.92580 -0.07781 0.40891
 C410 C 0.94271 -0.05270 0.40641
 C411 C 0.94548 -0.03988 0.37896
 C412 C 0.93132 -0.05161 0.35510
 H413 H 0.86648 -0.07379 0.27016
 H414 H 0.88407 -0.15660 0.30961
 H415 H 0.92329 -0.08855 0.42959
 H416 H 0.95846 -0.02065 0.37589
 H417 H 0.88903 -0.04988 0.31167
 H418 H 0.93400 -0.04151 0.33411
 C419 C 0.89524 0.09277 0.66484
 C420 C 0.88218 0.07565 0.68630
 C421 C 0.86959 0.08886 0.71033
 C422 C 0.87004 0.11909 0.71316
 C423 C 0.88274 0.13546 0.69088
 N424 N 0.89477 0.12210 0.66760
 C425 C 0.90997 0.07970 0.63961
 N426 N 0.91076 0.09430 0.61395
 C427 C 0.92459 0.08368 0.59021
 C428 C 0.93926 0.05715 0.59173
 C429 C 0.93885 0.04193 0.61807
 C430 C 0.92423 0.05303 0.64192
 H431 H 0.86004 0.07535 0.72691
 H432 H 0.88314 0.15885 0.69192
 H433 H 0.92452 0.09618 0.57037
 H434 H 0.94980 0.02134 0.62026
 H435 H 0.88155 0.05230 0.68455
 H436 H 0.92475 0.04114 0.66212
 C437 C 1.10180 -0.09156 0.66483
 C438 C 1.11445 -0.07493 0.68686
 C439 C 1.12748 -0.08874 0.71033
 C440 C 1.12784 -0.11906 0.71204
 C441 C 1.11545 -0.13489 0.68928
 N442 N 1.10302 -0.12096 0.66653
 C443 C 1.08701 -0.07793 0.63996
 N444 N 1.08701 -0.09152 0.61380
 C445 C 1.07345 -0.08027 0.59020
 C446 C 1.05830 -0.05406 0.59236
 C447 C 1.05777 -0.03991 0.61924
 C448 C 1.07210 -0.05168 0.64298
 H449 H 1.13677 -0.07563 0.72734
 H450 H 1.11567 -0.15830 0.68947
 H451 H 1.07424 -0.09195 0.56992
 H452 H 1.04639 -0.01962 0.62192
 H453 H 1.11450 -0.05152 0.68592
 H454 H 1.07098 -0.04062 0.66359
 C455 C 0.34057 1.10162 1.09989
 C456 C 0.33227 1.12963 1.09184
 C457 C 0.30739 1.14172 1.10374
 C458 C 0.29094 1.12623 1.12420
 C459 C 0.30045 1.09830 1.13191
 N460 N 0.32437 1.08677 1.11943
 C461 C 0.36576 1.08736 1.08666
 N462 N 0.36399 1.05880 1.07968
 C463 C 0.38615 1.04441 1.06696
 C464 C 0.41218 1.05870 1.06107
 C465 C 0.41474 1.08797 1.06868
 C466 C 0.39145 1.10247 1.08119
 H467 H 0.30143 1.16333 1.09702
 H468 H 0.28864 1.08513 1.14720
 H469 H 0.38350 1.02175 1.06168
 H470 H 0.43451 1.09970 1.06445
 H471 H 0.34447 1.14179 1.07596
 H472 H 0.39360 1.12510 1.08687
 C473 C 0.33365 0.90276 0.90334
 C474 C 0.31464 0.91929 0.88658
 C475 C 0.29161 0.90585 0.87269
 C476 C 0.28700 0.87585 0.87568
 C477 C 0.30686 0.86008 0.89257
 N478 N 0.32943 0.87370 0.90555
 C479 C 0.35827 0.91634 0.91837
 N480 N 0.38394 0.90215 0.91977
 C481 C 0.40751 0.91393 0.93277
 C482 C 0.40583 0.94138 0.94572
 C483 C 0.37934 0.95599 0.94510
 C484 C 0.35563 0.94367 0.93131
 H485 H 0.27729 0.91932 0.86007
 H486 H 0.30480 0.83695 0.89536
 H487 H 0.42745 0.90180 0.93310
 H488 H 0.37706 0.97712 0.95491
 H489 H 0.31774 0.94238 0.88393
 H490 H 0.33536 0.95526 0.93106
 C491 C 0.66319 0.89596 1.09830
 C492 C 0.66850 0.86623 1.09570
 C493 C 0.69314 0.85433 1.10827
 C494 C 0.71248 0.87184 1.12394
 C495 C 0.70607 0.90159 1.12611
 N496 N 0.68219 0.91272 1.11317
 C497 C 0.63783 0.90959 1.08460
 N498 N 0.64040 0.93655 1.07294
 C499 C 0.61798 0.95017 1.05974
 C500 C 0.59086 0.93677 1.05820
 C501 C 0.58761 0.90921 1.07058
 C502 C 0.61106 0.89547 1.08358
 H503 H 0.69664 0.83133 1.10584
 H504 H 0.72019 0.91628 1.13751
 H505 H 0.62130 0.97157 1.05075
 H506 H 0.56703 0.89816 1.06992
 H507 H 0.65408 0.85237 1.08357
 H508 H 0.60817 0.87424 1.09312
 C509 C 0.66372 1.09740 0.90439
 C510 C 0.66888 1.12701 0.90846
 C511 C 0.69329 1.13975 0.89621
 C512 C 0.71255 1.12324 0.87943
 C513 C 0.70643 1.09353 0.87601
 N514 N 0.68274 1.08155 0.88859
 C515 C 0.63829 1.08301 0.91725
 N516 N 0.64074 1.05548 0.92757
 C517 C 0.61821 1.04125 0.94001
 C518 C 0.59113 1.05464 0.94215
 C519 C 0.58802 1.08277 0.93106
 C520 C 0.61154 1.09706 0.91880
 H521 H 0.69662 1.16264 0.89971
 H522 H 0.72055 1.07954 0.86377
 H523 H 0.62145 1.01948 0.94808
 H524 H 0.56754 1.09391 0.93230
 H525 H 0.65446 1.14013 0.92137
 H526 H 0.60873 1.11873 0.91031
 C527 C 0.09708 0.33555 0.09782
 C528 C 0.09451 0.33033 0.12765
 C529 C 0.10704 0.30561 0.13961
 C530 C 0.12245 0.28633 0.12203
 C531 C 0.12461 0.29239 0.09232
 N532 N 0.11179 0.31636 0.08105
 C533 C 0.08359 0.36108 0.08417
 N534 N 0.07211 0.35861 0.05716
 C535 C 0.05906 0.38121 0.04357
 C536 C 0.05747 0.40838 0.05708
 C537 C 0.06969 0.41152 0.08467
 C538 C 0.08258 0.38791 0.09836
 H539 H 0.10492 0.30177 0.16264
 H540 H 0.13604 0.27786 0.07800
 H541 H 0.05018 0.37800 0.02214
 H542 H 0.06897 0.43212 0.09582
 H543 H 0.08251 0.34487 0.14149
 H544 H 0.09200 0.39073 0.11960
 C545 C -0.10008 0.33833 -0.10227
 C546 C -0.08400 0.31805 -0.11807
 C547 C -0.09807 0.29532 -0.13199
 C548 C -0.12809 0.29249 -0.12996
 C549 C -0.14345 0.31339 -0.11418
 N550 N -0.12928 0.33562 -0.10108
 C551 C -0.08582 0.36244 -0.08693
 N552 N -0.09854 0.38900 -0.08625
 C553 C -0.08608 0.41208 -0.07284
 C554 C -0.05948 0.40895 -0.05867
 C555 C -0.04642 0.38155 -0.05858
 C556 C -0.05938 0.35837 -0.07281
 H557 H -0.08536 0.27966 -0.14382
 H558 H -0.16666 0.31215 -0.11239
 H559 H -0.09701 0.43276 -0.07315
 H560 H -0.02600 0.37808 -0.04783
 H561 H -0.06081 0.31987 -0.11986
 H562 H -0.04900 0.33739 -0.07243
 C563 C 0.10101 0.65998 -0.10556
 C564 C 0.08503 0.68171 -0.11943
 C565 C 0.09936 0.70400 -0.13381
 C566 C 0.12956 0.70497 -0.13405
 C567 C 0.14478 0.68277 -0.12003
 N568 N 0.13032 0.66094 -0.10652
 C569 C 0.08648 0.63620 -0.08996
 N570 N 0.09701 0.60878 -0.09192
 C571 C 0.08417 0.58599 -0.07835
 C572 C 0.05948 0.59028 -0.06125
 C573 C 0.04882 0.61857 -0.05841
 C574 C 0.06205 0.64147 -0.07291
 H575 H 0.08680 0.72079 -0.14422
 H576 H 0.16810 0.68265 -0.12000
 H577 H 0.09337 0.56461 -0.08083
 H578 H 0.03023 0.62305 -0.04504
 H579 H 0.06170 0.68130 -0.11938
 H580 H 0.05355 0.66315 -0.07043
 C581 C -0.09503 0.66366 0.10161
 C582 C -0.07888 0.68493 0.11597
 C583 C -0.09307 0.70720 0.13056
 C584 C -0.12327 0.70855 0.13051
 C585 C -0.13862 0.68676 0.11603
 N586 N -0.12432 0.66501 0.10235
 C587 C -0.08092 0.63962 0.08605
 N588 N -0.09322 0.61288 0.08653
 C589 C -0.08124 0.58981 0.07280
 C590 C -0.05556 0.59307 0.05698
 C591 C -0.04293 0.62065 0.05568
 C592 C -0.05538 0.64388 0.07035
 H593 H -0.08041 0.72363 0.14137
 H594 H -0.16193 0.68687 0.11577
 H595 H -0.09191 0.56901 0.07410
 H596 H -0.02335 0.62425 0.04349
 H597 H -0.05557 0.68418 0.11625
 H598 H -0.04541 0.66503 0.06899
 C599 C 1.10295 0.09376 0.66560
 C600 C 1.13278 0.09181 0.67003
 C601 C 1.14502 0.10466 0.69438
 C602 C 1.12767 0.11965 0.71420
 C603 C 1.09790 0.12097 0.70908
 N604 N 1.08640 0.10797 0.68534
 C605 C 1.08909 0.08048 0.64013
 N606 N 1.06205 0.06934 0.64274
 C607 C 1.04804 0.05696 0.62007
 C608 C 1.06112 0.05580 0.59267
 C609 C 1.08885 0.06747 0.58946
 C610 C 1.10294 0.07968 0.61313
 H611 H 1.16809 0.10317 0.69744
 H612 H 1.08375 0.13201 0.72404
 H613 H 1.02657 0.04843 0.62340
 H614 H 1.09970 0.06706 0.56870
 H615 H 1.14648 0.08016 0.65508
 H616 H 1.12417 0.08891 0.61015
 C617 C 0.89540 -0.09407 0.66075
 C618 C 0.86537 -0.09448 0.66417
 C619 C 0.85339 -0.10778 0.68847
 C620 C 0.87122 -0.12089 0.70920
 C621 C 0.90113 -0.12005 0.70495
 N622 N 0.91233 -0.10661 0.68129
 C623 C 0.90918 -0.07973 0.63578
 N624 N 0.93547 -0.06721 0.63937
 C625 C 0.94956 -0.05381 0.61732
 C626 C 0.93736 -0.05295 0.58951
 C627 C 0.91040 -0.06601 0.58526
 C628 C 0.89619 -0.07929 0.60834
 H629 H 0.83020 -0.10799 0.69088
 H630 H 0.91565 -0.12958 0.72061
 H631 H 0.97045 -0.04425 0.62148
 H632 H 0.90028 -0.06592 0.56414
 H633 H 0.85128 -0.08417 0.64860
 H634 H 0.87560 -0.08962 0.60456
 C635 C 1.09462 -0.10122 0.33714
 C636 C 1.09277 -0.13124 0.33293
 C637 C 1.10563 -0.14363 0.30866
 C638 C 1.12053 -0.12626 0.28873
 C639 C 1.12177 -0.09632 0.29365
 N640 N 1.10877 -0.08468 0.31729
 C641 C 1.08114 -0.08709 0.36234
 N642 N 1.07051 -0.05979 0.35940
 C643 C 1.05785 -0.04549 0.38172
 C644 C 1.05579 -0.05857 0.40910
 C645 C 1.06702 -0.08652 0.41271
 C646 C 1.07957 -0.10090 0.38938
 H647 H 1.10420 -0.16683 0.30573
 H648 H 1.13274 -0.08213 0.27859
 H649 H 1.04973 -0.02382 0.37811
 H650 H 1.06594 -0.09735 0.43349
 H651 H 1.08114 -0.14496 0.34793
 H652 H 1.08841 -0.12233 0.39266
 C653 C 0.90292 0.10379 0.33691
 C654 C 0.88756 0.08663 0.31720
 C655 C 0.87279 0.09978 0.29449
 C656 C 0.87362 0.12992 0.29111
 C657 C 0.88910 0.14636 0.31136
 N658 N 0.90300 0.13309 0.33366
 C659 C 0.91886 0.09047 0.36108
 N660 N 0.91831 0.10301 0.38773
 C661 C 0.93178 0.09094 0.41098
 C662 C 0.94711 0.06490 0.40793
 C663 C 0.94864 0.05225 0.38036
 C664 C 0.93442 0.06481 0.35700
 H665 H 0.86118 0.08630 0.27928
 H666 H 0.88995 0.16971 0.30963
 H667 H 0.93034 0.10159 0.43179
 H668 H 0.96042 0.03235 0.37687
 H669 H 0.88674 0.06332 0.31952
 H670 H 0.93571 0.05465 0.33593
 C671 C 0.09857 0.33532 -0.09886
 C672 C 0.08219 0.31349 -0.11209
 C673 C 0.09612 0.29080 -0.12621
 C674 C 0.12630 0.28962 -0.12691
 C675 C 0.14189 0.31199 -0.11362
 N676 N 0.12784 0.33411 -0.10030
 C677 C 0.08467 0.35972 -0.08372
 N678 N 0.09695 0.38648 -0.08489
 C679 C 0.08488 0.40990 -0.07180
 C680 C 0.05909 0.40699 -0.05613
 C681 C 0.04658 0.37939 -0.05404
 C682 C 0.05917 0.35581 -0.06790
 H683 H 0.08326 0.27396 -0.13612
 H684 H 0.16520 0.31207 -0.11401
 H685 H 0.09544 0.43070 -0.07368
 H686 H 0.02689 0.37602 -0.04194
 H687 H 0.05888 0.31411 -0.11188
 H688 H 0.04923 0.33469 -0.06593
 C689 C -0.10480 0.34008 0.09674
 C690 C -0.13459 0.33550 0.09448
 C691 C -0.14697 0.31148 0.10792
 C692 C -0.12981 0.29226 0.12389
 C693 C -0.10012 0.29766 0.12572
 N694 N -0.08846 0.32096 0.11204
 C695 C -0.09066 0.36480 0.08232
 N696 N -0.06362 0.36142 0.07144
 C697 C -0.04937 0.38330 0.05790
 C698 C -0.06221 0.41068 0.05520
 C699 C -0.08993 0.41473 0.06662
 C700 C -0.10428 0.39182 0.08003
 H701 H -0.16997 0.30810 0.10600
 H702 H -0.08611 0.28312 0.13753
 H703 H -0.02788 0.37939 0.04968
 H704 H -0.10055 0.43554 0.06507
 H705 H -0.14811 0.34995 0.08199
 H706 H -0.12553 0.39540 0.08900
 C707 C -0.09203 0.66541 -0.10438
 C708 C -0.07576 0.68717 -0.11792
 C709 C -0.08971 0.71097 -0.13006
 C710 C -0.11979 0.71334 -0.12847
 C711 C -0.13532 0.69098 -0.11499
 N712 N -0.12126 0.66777 -0.10360
 C713 C -0.07799 0.64031 -0.09054
 N714 N -0.09067 0.61375 -0.09187
 C715 C -0.07885 0.58999 -0.07907
 C716 C -0.05312 0.59243 -0.06325
 C717 C -0.04002 0.61975 -0.06136
 C718 C -0.05220 0.64361 -0.07512
 H719 H -0.07692 0.72775 -0.14022
 H720 H -0.15858 0.69180 -0.11370
 H721 H -0.08984 0.56940 -0.08080
 H722 H -0.02041 0.62276 -0.04911
 H723 H -0.05252 0.68570 -0.11928
 H724 H -0.04194 0.66456 -0.07306
 C725 C 0.09877 0.66180 0.10071
 C726 C 0.08284 0.68440 0.11310
 C727 C 0.09715 0.70655 0.12760
 C728 C 0.12730 0.70645 0.12944
 C729 C 0.14249 0.68353 0.11671
 N730 N 0.12802 0.66186 0.10308
 C731 C 0.08433 0.63779 0.08557
 N732 N 0.09490 0.61044 0.08826
 C733 C 0.08220 0.58736 0.07519
 C734 C 0.05763 0.59127 0.05787
 C735 C 0.04685 0.61944 0.05434
 C736 C 0.05996 0.64266 0.06831
 H737 H 0.08466 0.72395 0.13701
 H738 H 0.16576 0.68262 0.11796
 H739 H 0.09146 0.56607 0.07817
 H740 H 0.02825 0.62355 0.04085
 H741 H 0.05954 0.68472 0.11201
 H742 H 0.05140 0.66425 0.06523
 C743 C 0.33950 1.10210 0.90504
 C744 C 0.31871 1.08541 0.89069
 C745 C 0.29671 1.09912 0.87549
 C746 C 0.29513 1.12942 0.87481
 C747 C 0.31639 1.14539 0.88936
 N748 N 0.33796 1.13151 0.90372
 C749 C 0.36317 1.08813 0.92108
 N750 N 0.39020 1.09952 0.91976
 C751 C 0.41306 1.08668 0.93301
 C752 C 0.40926 1.06096 0.94885
 C753 C 0.38134 1.04952 0.95123
 C754 C 0.35834 1.06291 0.93728
 H755 H 0.28068 1.08597 0.86469
 H756 H 0.31603 1.16881 0.88907
 H757 H 0.43416 1.09644 0.93094
 H758 H 0.37729 1.02993 0.96345
 H759 H 0.31966 1.06199 0.89087
 H760 H 0.33699 1.05367 0.93923
 C761 C 0.33703 0.89918 1.10193
 C762 C 0.31572 0.91590 1.11549
 C763 C 0.29291 0.90222 1.12953
 C764 C 0.29111 0.87192 1.12995
 C765 C 0.31298 0.85595 1.11635
 N766 N 0.33523 0.86978 1.10302
 C767 C 0.36134 0.91297 1.08665
 N768 N 0.38793 0.90055 1.08764
 C769 C 0.41122 0.91267 1.07441
 C770 C 0.40831 0.93864 1.05882
 C771 C 0.38088 0.95130 1.05698
 C772 C 0.35746 0.93865 1.07094
 H773 H 0.27649 0.91541 1.13964
 H774 H 0.31254 0.83253 1.11649
 H775 H 0.43190 0.90200 1.07609
 H776 H 0.37747 0.97111 1.04492
 H777 H 0.31683 0.93931 1.11553
 H778 H 0.33646 0.94869 1.06911
 C779 C 0.66580 1.09347 1.09777
 C780 C 0.68524 1.10968 1.08105
 C781 C 0.70766 1.12442 1.09463
 C782 C 0.71095 1.12280 1.12476
 C783 C 0.69103 1.10641 1.14072
 N784 N 0.66907 1.09255 1.12704
 C785 C 0.64149 1.07802 1.08428
 N786 N 0.61582 1.07654 1.09848
 C787 C 0.59237 1.06330 1.08682
 C788 C 0.59416 1.05028 1.05944
 C789 C 0.62066 1.05092 1.04481
 C790 C 0.64429 1.06485 1.05708
 H791 H 0.72260 1.13675 1.08150
 H792 H 0.69265 1.10492 1.16405
 H793 H 0.57240 1.06300 1.09892
 H794 H 0.62301 1.04111 1.02365
 H795 H 0.68287 1.11138 1.05779
 H796 H 0.66457 1.06511 1.04550
 C797 C 0.65664 0.89550 0.89541
 C798 C 0.66035 0.89650 0.86528
 C799 C 0.68427 0.88320 0.85284
 C800 C 0.70434 0.86865 0.87026
 C801 C 0.69968 0.86782 0.90026
 N802 N 0.67644 0.88138 0.91197
 C803 C 0.63232 0.91033 0.90963
 N804 N 0.63628 0.92211 0.93633
 C805 C 0.61490 0.93630 0.95055
 C806 C 0.58745 0.93886 0.93803
 C807 C 0.58281 0.92653 0.91069
 C808 C 0.60519 0.91239 0.89637
 H809 H 0.68704 0.88431 0.82959
 H810 H 0.71485 0.85711 0.91447
 H811 H 0.61928 0.94519 0.97177
 H812 H 0.56193 0.92791 0.90032
 H813 H 0.64539 0.90807 0.85152
 H814 H 0.60112 0.90275 0.87543
   
