data_POSCAR
  _audit_creation_date              2014-09-24
  _audit_creation_method            'ToBaCCo'
  _symmetry_space_group_name_H-M    'P1'
  _symmetry_Int_Tables_number       1
  _symmetry_cell_setting            triclinic
  loop_
  _symmetry_equiv_pos_as_xyz
 x,y,z
_cell_length_a 51.8329
_cell_length_b 51.8485
_cell_length_c 51.8678
_cell_angle_alpha 90.517800
_cell_angle_beta 89.710000
_cell_angle_gamma 90.400800
loop_
  _atom_site_label
  _atom_site_type_symbol
  _atom_site_fract_x
  _atom_site_fract_y
  _atom_site_fract_z
C1 C 0.72431 0.66523 0.97150
 H2 H 0.74286 0.66517 0.96183
 C3 C 0.70354 0.67825 0.96062
 H4 H 0.70632 0.68818 0.94254
 C5 C 0.69774 0.65060 1.00575
 H6 H 0.69525 0.63922 1.02291
 C7 C 0.67655 0.66339 0.99563
 H8 H 0.65816 0.66217 1.00557
 N9 N 0.72098 0.65145 0.99347
 C10 C 0.79560 0.63464 1.02745
 H11 H 0.79292 0.61403 1.02940
 C12 C 0.81804 0.64636 1.03658
 H13 H 0.83269 0.63456 1.04534
 C14 C 0.77977 0.67479 1.01310
 H15 H 0.76468 0.68573 1.00406
 C16 C 0.80210 0.68736 1.02192
 H17 H 0.80398 0.70804 1.01973
 Zn18 Zn 0.74797 0.62984 1.00454
 N19 N 0.77711 0.64884 1.01585
 C20 C 0.78195 0.61062 0.96663
 N21 N 0.75747 0.60883 0.97602
 C22 C 0.73920 0.59439 0.96370
 C23 C 0.74526 0.58130 0.94076
 C24 C 0.78878 0.59796 0.94383
 C25 C 0.73319 0.62357 1.05524
 C26 C 0.72458 0.61126 1.07746
 C27 C 0.72343 0.57111 1.05355
 C28 C 0.73228 0.58433 1.03179
 N29 N 0.73656 0.61016 1.03295
 H30 H 0.79610 0.62257 0.97627
 H31 H 0.71972 0.59374 0.97125
 H32 H 0.73035 0.57048 0.93077
 H33 H 0.80833 0.59986 0.93660
 H34 H 0.73675 0.64416 1.05560
 H35 H 0.72087 0.62353 1.09397
 H36 H 0.72122 0.55046 1.05164
 H37 H 0.73575 0.57388 1.01400
 C38 C 0.82155 0.67306 1.03390
 C39 C 0.67911 0.67694 0.97244
 C40 C 0.71916 0.58441 1.07724
 C41 C 0.77023 0.58345 0.93033
 C42 C 0.73264 0.33461 0.51948
 H43 H 0.75142 0.33401 0.52844
 C44 C 0.71223 0.32000 0.52954
 H45 H 0.71560 0.30783 0.54601
 C46 C 0.70528 0.35187 0.48761
 H47 H 0.70234 0.36493 0.47182
 C48 C 0.68439 0.33761 0.49701
 H49 H 0.66566 0.33992 0.48822
 N50 N 0.72881 0.35025 0.49896
 C51 C 0.80423 0.36860 0.46581
 H52 H 0.80238 0.38935 0.46518
 C53 C 0.82648 0.35690 0.45627
 H54 H 0.84160 0.36882 0.44804
 C55 C 0.78628 0.32795 0.47672
 H56 H 0.77047 0.31678 0.48457
 C57 C 0.80824 0.31540 0.46728
 H58 H 0.80928 0.29458 0.46827
 Zn59 Zn 0.75591 0.37258 0.48851
 N60 N 0.78485 0.35413 0.47609
 C61 C 0.78998 0.39236 0.52645
 N62 N 0.76532 0.39277 0.51764
 C63 C 0.74666 0.40622 0.53034
 C64 C 0.75259 0.42023 0.55272
 C65 C 0.79676 0.40616 0.54862
 C66 C 0.73965 0.38137 0.43847
 C67 C 0.73059 0.39515 0.41747
 C68 C 0.73251 0.43407 0.44340
 C69 C 0.74162 0.41950 0.46395
 N70 N 0.74457 0.39357 0.46124
 H71 H 0.80440 0.38096 0.51663
 H72 H 0.72709 0.40585 0.52318
 H73 H 0.73754 0.43093 0.56254
 H74 H 0.81641 0.40520 0.55554
 H75 H 0.74238 0.36075 0.43683
 H76 H 0.72606 0.38490 0.39977
 H77 H 0.73011 0.45467 0.44587
 H78 H 0.74615 0.42892 0.48204
 C79 C 0.82880 0.32996 0.45706
 C80 C 0.68761 0.32167 0.51847
 C81 C 0.72668 0.42184 0.41983
 C82 C 0.77796 0.42030 0.56211
 C83 C 0.23027 -0.16264 0.01743
 H84 H 0.24847 -0.16325 0.02751
 C85 C 0.20889 -0.17615 0.02703
 H86 H 0.21083 -0.18709 0.04458
 C87 C 0.20523 -0.14611 -0.01667
 H88 H 0.20359 -0.13388 -0.03329
 C89 C 0.18346 -0.15933 -0.00781
 H90 H 0.16549 -0.15754 -0.01818
 N91 N 0.22801 -0.14778 -0.00390
 C92 C 0.30468 -0.13196 -0.03530
 H93 H 0.30337 -0.11118 -0.03638
 C94 C 0.32677 -0.14439 -0.04423
 H95 H 0.34231 -0.13302 -0.05245
 C96 C 0.28552 -0.17193 -0.02389
 H97 H 0.26931 -0.18253 -0.01605
 C98 C 0.30730 -0.18521 -0.03273
 H99 H 0.30780 -0.20602 -0.03134
 Zn100 Zn 0.25608 -0.12634 -0.01367
 N101 N 0.28477 -0.14575 -0.02509
 C102 C 0.28979 -0.10713 0.02481
 N103 N 0.26530 -0.10621 0.01557
 C104 C 0.24671 -0.09238 0.02797
 C105 C 0.25254 -0.07856 0.05051
 C106 C 0.29646 -0.09353 0.04713
 C107 C 0.24255 -0.11745 -0.06441
 C108 C 0.23406 -0.10387 -0.08577
 C109 C 0.23382 -0.06509 -0.05968
 C110 C 0.24249 -0.07953 -0.03885
 N111 N 0.24610 -0.10532 -0.04143
 H112 H 0.30414 -0.11881 0.01523
 H113 H 0.22726 -0.09236 0.02050
 H114 H 0.23754 -0.06761 0.06011
 H115 H 0.31595 -0.09493 0.05438
 H116 H 0.24565 -0.13803 -0.06592
 H117 H 0.23006 -0.11518 -0.10288
 H118 H 0.23205 -0.04456 -0.05660
 H119 H 0.24618 -0.07007 -0.02058
 C120 C 0.32837 -0.17136 -0.04290
 C121 C 0.18495 -0.17419 0.01461
 C122 C 0.22891 -0.07708 -0.08390
 C123 C 0.27772 -0.07906 0.06034
 C124 C 0.22483 0.16426 0.46648
 H125 H 0.24316 0.16300 0.45649
 C126 C 0.20437 0.17757 0.45536
 H127 H 0.20716 0.18653 0.43677
 C128 C 0.19840 0.15238 0.50189
 H129 H 0.19580 0.14197 0.51964
 C130 C 0.17754 0.16551 0.49156
 H131 H 0.15934 0.16553 0.50190
 N132 N 0.22141 0.15172 0.48918
 C133 C 0.29602 0.13412 0.52310
 H134 H 0.29263 0.11384 0.52658
 C135 C 0.31922 0.14553 0.53062
 H136 H 0.33350 0.13393 0.54021
 C137 C 0.28112 0.17385 0.50675
 H138 H 0.26617 0.18473 0.49742
 C139 C 0.30413 0.18613 0.51408
 H140 H 0.30681 0.20644 0.51013
 Zn141 Zn 0.24777 0.12970 0.50103
 N142 N 0.27772 0.14820 0.51105
 C143 C 0.28086 0.10526 0.46510
 N144 N 0.25606 0.10674 0.47364
 C145 C 0.23674 0.09354 0.46157
 C146 C 0.24208 0.07815 0.43992
 C147 C 0.28707 0.08996 0.44378
 C148 C 0.23282 0.12593 0.55226
 C149 C 0.22321 0.11458 0.57461
 C150 C 0.22093 0.07377 0.55183
 C151 C 0.23063 0.08595 0.52983
 N152 N 0.23589 0.11169 0.53035
 H153 H 0.29588 0.11641 0.47436
 H154 H 0.21710 0.09542 0.46845
 H155 H 0.22650 0.06791 0.43037
 H156 H 0.30685 0.08954 0.43698
 H157 H 0.23751 0.14630 0.55219
 H158 H 0.22081 0.12632 0.59181
 H159 H 0.21612 0.05343 0.55091
 H160 H 0.23355 0.07492 0.51230
 C161 C 0.32365 0.17181 0.52591
 C162 C 0.18016 0.17784 0.46769
 C163 C 0.21677 0.08823 0.57450
 C164 C 0.26755 0.07630 0.43077
 C165 C 0.17223 0.47421 0.22533
 H166 H 0.17270 0.46466 0.24378
 C167 C 0.18495 0.46335 0.20406
 H168 H 0.19520 0.44540 0.20635
 C169 C 0.15646 0.50806 0.19952
 H170 H 0.14471 0.52501 0.19753
 C171 C 0.16894 0.49795 0.17785
 H172 H 0.16713 0.50772 0.15959
 N173 N 0.15799 0.49595 0.22262
 C174 C 0.14136 0.52999 0.29796
 H175 H 0.12069 0.53158 0.29575
 C176 C 0.15313 0.53942 0.32023
 H177 H 0.14130 0.54805 0.33520
 C178 C 0.18164 0.51621 0.28115
 H179 H 0.19260 0.50726 0.26575
 C180 C 0.19426 0.52533 0.30329
 H181 H 0.21499 0.52346 0.30472
 Zn182 Zn 0.13652 0.50670 0.25029
 N183 N 0.15560 0.51853 0.27907
 C184 C 0.11816 0.46860 0.28431
 N185 N 0.11625 0.47780 0.25993
 C186 C 0.10198 0.46519 0.24176
 C187 C 0.08904 0.44225 0.24783
 C188 C 0.10565 0.44579 0.29116
 C189 C 0.12854 0.55721 0.23565
 C190 C 0.11524 0.57880 0.22725
 C191 C 0.07581 0.55365 0.22788
 C192 C 0.08991 0.53248 0.23639
 N193 N 0.11587 0.53455 0.23967
 H194 H 0.12999 0.47850 0.29838
 H195 H 0.10125 0.47261 0.22235
 H196 H 0.07828 0.43211 0.23301
 H197 H 0.10753 0.43877 0.31066
 H198 H 0.14917 0.55833 0.23860
 H199 H 0.12588 0.59641 0.22345
 H200 H 0.05519 0.55171 0.22519
 H201 H 0.08013 0.51443 0.24017
 C202 C 0.17992 0.53717 0.32314
 C203 C 0.18287 0.47493 0.17977
 C204 C 0.08855 0.57716 0.22305
 C205 C 0.09116 0.43210 0.27274
 C206 C -0.16157 0.02448 0.23185
 H207 H -0.16184 0.03369 0.25065
 C208 C -0.17602 0.03472 0.21172
 H209 H -0.18801 0.05119 0.21603
 C210 C -0.14564 -0.00838 0.20432
 H211 H -0.13305 -0.02460 0.20113
 C212 C -0.15980 0.00107 0.18372
 H213 H -0.15714 -0.00825 0.16518
 N214 N -0.14662 0.00342 0.22778
 C215 C -0.12800 -0.03044 0.30204
 H216 H -0.10729 -0.03143 0.29962
 C217 C -0.13958 -0.04053 0.32409
 H218 H -0.12754 -0.04896 0.33874
 C219 C -0.16867 -0.01800 0.28577
 H220 H -0.17990 -0.00952 0.27058
 C221 C -0.18109 -0.02786 0.30762
 H222 H -0.20191 -0.02694 0.30904
 Zn223 Zn -0.12421 -0.00746 0.25426
 N224 N -0.14255 -0.01935 0.28351
 C225 C -0.10287 0.02985 0.28824
 N226 N -0.10312 0.02109 0.26345
 C227 C -0.08978 0.03355 0.24458
 C228 C -0.07532 0.05570 0.25040
 C229 C -0.08859 0.05178 0.29492
 C230 C -0.11732 -0.05786 0.23781
 C231 C -0.10462 -0.07936 0.22785
 C232 C -0.06486 -0.05473 0.22781
 C233 C -0.07838 -0.03361 0.23781
 N234 N -0.10424 -0.03543 0.24210
 H235 H -0.11415 0.02021 0.30285
 H236 H -0.09067 0.02644 0.22493
 H237 H -0.06480 0.06538 0.23517
 H238 H -0.08908 0.05869 0.31467
 H239 H -0.13781 -0.05884 0.24177
 H240 H -0.11545 -0.09698 0.22445
 H241 H -0.04443 -0.05277 0.22376
 H242 H -0.06828 -0.01573 0.24175
 C243 C -0.16648 -0.03943 0.32708
 C244 C -0.17509 0.02334 0.18685
 C245 C -0.07811 -0.07787 0.22234
 C246 C -0.07466 0.06508 0.27588
 C247 C 0.34069 0.51952 0.73105
 H248 H 0.34013 0.52835 0.75002
 C249 C 0.32656 0.53015 0.71092
 H250 H 0.31476 0.54693 0.71469
 C251 C 0.35744 0.48740 0.70295
 H252 H 0.37013 0.47128 0.69964
 C253 C 0.34364 0.49737 0.68233
 H254 H 0.34592 0.48868 0.66340
 N255 N 0.35586 0.49861 0.72672
 C256 C 0.37283 0.46397 0.80100
 H257 H 0.39359 0.46304 0.79907
 C258 C 0.36075 0.45384 0.82277
 H259 H 0.37244 0.44541 0.83769
 C260 C 0.33255 0.47641 0.78382
 H261 H 0.32166 0.48492 0.76840
 C262 C 0.31963 0.46652 0.80537
 H263 H 0.29879 0.46745 0.80632
 Zn264 Zn 0.37770 0.48738 0.75349
 N265 N 0.35871 0.47513 0.78217
 C266 C 0.39802 0.52452 0.78833
 N267 N 0.39846 0.51592 0.76349
 C268 C 0.41225 0.52854 0.74506
 C269 C 0.42645 0.55071 0.75138
 C270 C 0.41200 0.54649 0.79551
 C271 C 0.38531 0.43721 0.73638
 C272 C 0.39863 0.41569 0.72729
 C273 C 0.43825 0.44044 0.72947
 C274 C 0.42414 0.46154 0.73862
 N275 N 0.39810 0.45963 0.74153
 H276 H 0.38638 0.51475 0.80258
 H277 H 0.41192 0.52153 0.72535
 H278 H 0.43734 0.56051 0.73649
 H279 H 0.41095 0.55329 0.81528
 H280 H 0.36462 0.43621 0.73908
 H281 H 0.38795 0.39824 0.72269
 H282 H 0.45896 0.44224 0.72720
 H283 H 0.43399 0.47938 0.74332
 C284 C 0.33379 0.45497 0.82516
 C285 C 0.32821 0.51925 0.68606
 C286 C 0.42545 0.41716 0.72358
 C287 C 0.42638 0.55996 0.77692
 C288 C 0.67258 0.97061 0.72998
 H289 H 0.67297 0.96207 0.74893
 C290 C 0.68673 0.95953 0.70976
 H291 H 0.69840 0.94274 0.71343
 C292 C 0.65597 1.00219 0.70194
 H293 H 0.64324 1.01821 0.69866
 C294 C 0.66980 0.99179 0.68123
 H295 H 0.66752 1.00007 0.66230
 N296 N 0.65736 0.99138 0.72569
 C297 C 0.63717 1.02629 0.79978
 H298 H 0.61653 1.02703 0.79692
 C299 C 0.64784 1.03613 0.82243
 H300 H 0.63464 1.04352 0.83685
 C301 C 0.67833 1.01387 0.78442
 H302 H 0.69011 1.00543 0.76936
 C303 C 0.68991 1.02343 0.80693
 H304 H 0.71070 1.02257 0.80819
 Zn305 Zn 0.63462 1.00245 0.75218
 N306 N 0.65235 1.01524 0.78145
 C307 C 0.61586 0.96453 0.78620
 N308 N 0.61442 0.97343 0.76167
 C309 C 0.60076 0.96043 0.74330
 C310 C 0.58796 0.93739 0.74933
 C311 C 0.60347 0.94164 0.79302
 C312 C 0.62675 1.05229 0.73560
 C313 C 0.61353 1.07362 0.72646
 C314 C 0.57415 1.04840 0.72713
 C315 C 0.58817 1.02749 0.73640
 N316 N 0.61405 1.02974 0.74008
 H317 H 0.62725 0.97471 0.80043
 H318 H 0.60040 0.96761 0.72379
 H319 H 0.57769 0.92694 0.73437
 H320 H 0.60498 0.93486 0.81263
 H321 H 0.64732 1.05355 0.73888
 H322 H 0.62418 1.09118 0.72242
 H323 H 0.55356 1.04635 0.72422
 H324 H 0.57837 1.00953 0.74054
 C325 C 0.67471 1.03489 0.82661
 C326 C 0.68507 0.96987 0.68486
 C327 C 0.58689 1.07183 0.72198
 C328 C 0.58961 0.92755 0.77440
 C329 C 0.01943 0.23317 -0.16112
 H330 H 0.02860 0.25193 -0.16245
 C331 C 0.02959 0.21218 -0.17477
 H332 H 0.04636 0.21506 -0.18697
 C333 C -0.01309 0.20653 -0.14293
 H334 H -0.02920 0.20415 -0.12987
 C335 C -0.00359 0.18507 -0.15622
 H336 H -0.01261 0.16644 -0.15319
 N337 N -0.00145 0.22998 -0.14546
 C338 C -0.03360 0.30615 -0.13018
 H339 H -0.03436 0.30522 -0.10936
 C340 C -0.04274 0.32788 -0.14271
 H341 H -0.05079 0.34353 -0.13137
 C342 C -0.02281 0.28636 -0.17013
 H343 H -0.01517 0.27004 -0.18069
 C344 C -0.03186 0.30777 -0.18351
 H345 H -0.03081 0.30787 -0.20436
 Zn346 Zn -0.01190 0.25797 -0.12427
 N347 N -0.02359 0.28611 -0.14391
 C348 C 0.02692 0.29246 -0.10716
 N349 N 0.01714 0.26821 -0.10456
 C350 C 0.02917 0.25043 -0.08979
 C351 C 0.05202 0.25681 -0.07691
 C352 C 0.04966 0.29962 -0.09470
 C353 C -0.06233 0.24276 -0.11549
 C354 C -0.08404 0.23441 -0.10192
 C355 C -0.05921 0.23666 -0.06272
 C356 C -0.03799 0.24516 -0.07717
 N357 N -0.03982 0.24757 -0.10312
 H358 H 0.01753 0.30618 -0.11944
 H359 H 0.02132 0.23109 -0.08852
 H360 H 0.06166 0.24227 -0.06570
 H361 H 0.05711 0.31903 -0.09707
 H362 H -0.06322 0.24489 -0.13620
 H363 H -0.10073 0.22944 -0.11334
 H364 H -0.05678 0.23594 -0.04207
 H365 H -0.02009 0.24983 -0.06757
 C366 C -0.04183 0.32898 -0.16973
 C367 C 0.01827 0.18763 -0.17211
 C368 C -0.08304 0.23074 -0.07488
 C369 C 0.06271 0.28162 -0.07959
 C370 C 0.46196 0.22610 0.17127
 H371 H 0.45300 0.24488 0.17123
 C372 C 0.45038 0.20579 0.18470
 H373 H 0.43273 0.20923 0.19539
 C374 C 0.49536 0.19859 0.15656
 H375 H 0.51237 0.19555 0.14488
 C376 C 0.48448 0.17780 0.16972
 H377 H 0.49338 0.15904 0.16797
 N378 N 0.48393 0.22213 0.15739
 C379 C 0.51925 0.29683 0.14101
 H380 H 0.52221 0.29397 0.12052
 C381 C 0.52728 0.31973 0.15276
 H382 H 0.53676 0.33432 0.14121
 C383 C 0.50363 0.28089 0.18088
 H384 H 0.49441 0.26565 0.19169
 C385 C 0.51150 0.30358 0.19350
 H386 H 0.50805 0.30573 0.21401
 Zn387 Zn 0.49637 0.24885 0.13590
 N388 N 0.50727 0.27817 0.15500
 C389 C 0.46068 0.28293 0.11370
 N390 N 0.46904 0.25813 0.11379
 C391 C 0.45695 0.23946 0.09964
 C392 C 0.43557 0.24552 0.08453
 C393 C 0.43961 0.28985 0.09877
 C394 C 0.54707 0.23281 0.13068
 C395 C 0.56947 0.22439 0.11834
 C396 C 0.54697 0.22576 0.07769
 C397 C 0.52495 0.23423 0.09084
 N398 N 0.52534 0.23728 0.11691
 H399 H 0.46991 0.29739 0.12564
 H400 H 0.46369 0.21979 0.10041
 H401 H 0.42609 0.23046 0.07343
 H402 H 0.43300 0.30961 0.09938
 H403 H 0.54687 0.23561 0.15137
 H404 H 0.58638 0.22039 0.12977
 H405 H 0.54639 0.22347 0.05693
 H406 H 0.50762 0.23838 0.08021
 C407 C 0.52319 0.32349 0.17929
 C408 C 0.46146 0.18113 0.18370
 C409 C 0.56961 0.22068 0.09150
 C410 C 0.42669 0.27103 0.08401
 C411 C 0.96570 0.72658 0.66832
 H412 H 0.95682 0.74540 0.66814
 C413 C 0.95390 0.70635 0.68169
 H414 H 0.93616 0.70991 0.69220
 C415 C 0.99912 0.69889 0.65402
 H416 H 1.01624 0.69576 0.64252
 C417 C 0.98802 0.67819 0.66712
 H418 H 0.99686 0.65938 0.66552
 N419 N 0.98779 0.72248 0.65468
 C420 C 1.02388 0.79697 0.63883
 H421 H 1.02718 0.79411 0.61840
 C422 C 1.03179 0.81985 0.65073
 H423 H 1.04152 0.83441 0.63935
 C424 C 1.00746 0.78110 0.67841
 H425 H 0.99795 0.76592 0.68906
 C426 C 1.01518 0.80377 0.69117
 H427 H 1.01132 0.80595 0.71161
 Zn428 Zn 1.00063 0.74915 0.63333
 N429 N 1.01154 0.77837 0.65260
 C430 C 0.96542 0.78357 0.61086
 N431 N 0.97354 0.75868 0.61101
 C432 C 0.96125 0.74010 0.59690
 C433 C 0.93988 0.74632 0.58186
 C434 C 0.94437 0.79064 0.59597
 C435 C 1.05127 0.73280 0.62854
 C436 C 1.07368 0.72412 0.61641
 C437 C 1.05148 0.72537 0.57559
 C438 C 1.02943 0.73412 0.58854
 N439 N 1.02967 0.73735 0.61459
 H440 H 0.97480 0.79796 0.62275
 H441 H 0.96780 0.72036 0.59772
 H442 H 0.93020 0.73132 0.57084
 H443 H 0.93793 0.81046 0.59659
 H444 H 1.05095 0.73574 0.64921
 H445 H 1.09047 0.72006 0.62799
 H446 H 1.05102 0.72292 0.55485
 H447 H 1.01220 0.73831 0.57776
 C448 C 1.02719 0.82364 0.67718
 C449 C 0.96488 0.68165 0.68088
 C450 C 1.07398 0.72020 0.58959
 C451 C 0.93120 0.77191 0.58134
 C452 C 0.52238 0.73372 0.33770
 H453 H 0.53139 0.75252 0.33597
 C454 C 0.53215 0.71273 0.32376
 H455 H 0.54843 0.71563 0.31093
 C456 C 0.49072 0.70699 0.35720
 H457 H 0.47514 0.70457 0.37087
 C458 C 0.49983 0.68553 0.34363
 H459 H 0.49103 0.66687 0.34707
 N460 N 0.50212 0.73049 0.35414
 C461 C 0.47038 0.80666 0.37030
 H462 H 0.47033 0.80573 0.39113
 C463 C 0.46063 0.82832 0.35810
 H464 H 0.45250 0.84329 0.37021
 C465 C 0.47956 0.78678 0.33011
 H466 H 0.48692 0.77047 0.31932
 C467 C 0.46983 0.80806 0.31701
 H468 H 0.47083 0.80776 0.29619
 Zn469 Zn 0.49221 0.75851 0.37559
 N470 N 0.47987 0.78661 0.35629
 C471 C 0.53143 0.79308 0.39182
 N472 N 0.52175 0.76881 0.39454
 C473 C 0.53403 0.75105 0.40914
 C474 C 0.55692 0.75753 0.42187
 C475 C 0.55424 0.80034 0.40413
 C476 C 0.44211 0.74281 0.38584
 C477 C 0.42091 0.73442 0.40018
 C478 C 0.44678 0.73774 0.43872
 C479 C 0.46754 0.74620 0.42358
 N480 N 0.46494 0.74812 0.39759
 H481 H 0.52184 0.80677 0.37967
 H482 H 0.52624 0.73170 0.41050
 H483 H 0.56668 0.74304 0.43304
 H484 H 0.56154 0.81980 0.40177
 H485 H 0.44056 0.74470 0.36515
 H486 H 0.40316 0.72957 0.39030
 H487 H 0.44916 0.73613 0.45936
 H488 H 0.48569 0.75103 0.43262
 C489 C 0.46021 0.82958 0.33091
 C490 C 0.52105 0.68814 0.32691
 C491 C 0.42313 0.73158 0.42697
 C492 C 0.56743 0.78242 0.41921
 Si493 Si 0.35608 0.00003 0.24802
 Si494 Si 0.11819 1.00783 0.75255
 Si495 Si 0.61808 0.50645 0.25244
 Si496 Si 0.85740 0.50268 0.74791
 Si497 Si 0.24832 0.36136 0.00334
 Si498 Si 0.74873 0.12454 1.01128
 Si499 Si 0.25328 0.62315 0.51045
 Si500 Si 0.75154 0.86326 0.50471
 Si501 Si 0.00690 0.25054 0.35745
 Si502 Si 1.00796 0.74948 0.11907
 Si503 Si 0.50782 0.24466 0.61753
 Si504 Si 0.50601 0.74599 0.85970
 C505 C 0.43830 -0.10279 0.31883
 C506 C 0.42772 -0.10518 0.29424
 C507 C 0.42876 -0.12887 0.28124
 C508 C 0.43992 -0.15026 0.29298
 C509 C 0.45010 -0.14846 0.31822
 C510 C 0.44939 -0.12406 0.33069
 C511 C 0.41472 -0.08357 0.28304
 C512 C 0.40328 -0.06541 0.27447
 C513 C 0.38919 -0.04423 0.26525
 C514 C 0.37651 -0.02633 0.25798
 H515 H 0.43781 -0.08445 0.32901
 H516 H 0.42042 -0.13100 0.26222
 H517 H 0.43915 -0.16840 0.28256
 H518 H 0.45795 -0.12089 0.34942
 C519 C 0.92248 0.37105 0.78288
 C520 C 0.92688 0.39566 0.79338
 C521 C 0.94246 0.39855 0.81518
 C522 C 0.95314 0.37691 0.82678
 C523 C 0.94833 0.35202 0.81677
 C524 C 0.93319 0.34935 0.79445
 C525 C 0.91431 0.41781 0.78276
 C526 C 0.90323 0.43634 0.77453
 C527 C 0.88957 0.45790 0.76552
 C528 C 0.87726 0.47605 0.75825
 H529 H 0.91033 0.36859 0.76610
 H530 H 0.94600 0.41749 0.82347
 H531 H 0.96503 0.37962 0.84371
 H532 H 0.92894 0.33044 0.78645
 C533 C 0.02551 1.12213 0.79528
 C534 C 0.05233 1.11923 0.79535
 C535 C 0.06802 1.13909 0.80506
 C536 C 0.05697 1.16158 0.81506
 C537 C 0.03000 1.16453 0.81552
 C538 C 0.01439 1.14463 0.80529
 C539 C 0.06388 1.09570 0.78613
 C540 C 0.07416 1.07617 0.77875
 C541 C 0.08701 1.05366 0.77038
 C542 C 0.09878 1.03491 0.76331
 H543 H 0.01318 1.10691 0.78776
 H544 H 0.08880 1.13702 0.80528
 H545 H 0.06950 1.17632 0.82315
 H546 H -0.00640 1.14643 0.80512
 C547 C 0.57012 0.63960 0.30257
 C548 C 0.55415 0.61960 0.29366
 C549 C 0.52733 0.62244 0.29451
 C550 C 0.51651 0.64501 0.30469
 C551 C 0.53241 0.66503 0.31419
 C552 C 0.55936 0.66217 0.31275
 C553 C 0.56541 0.59589 0.28449
 C554 C 0.57540 0.57617 0.27725
 C555 C 0.58787 0.55334 0.26916
 C556 C 0.59928 0.53424 0.26243
 H557 H 0.59091 0.63757 0.30209
 H558 H 0.51478 0.60709 0.28762
 H559 H 0.49571 0.64674 0.30528
 H560 H 0.57214 0.67701 0.32025
 C561 C 0.55332 0.37132 0.22634
 C562 C 0.55002 0.39457 0.21325
 C563 C 0.53678 0.39471 0.18983
 C564 C 0.52744 0.37166 0.17918
 C565 C 0.53130 0.34809 0.19178
 C566 C 0.54393 0.34819 0.21572
 C567 C 0.56171 0.41802 0.22280
 C568 C 0.57224 0.43757 0.22999
 C569 C 0.58553 0.46019 0.23768
 C570 C 0.59777 0.47910 0.24379
 H571 H 0.56370 0.37097 0.24441
 H572 H 0.53413 0.41258 0.17952
 H573 H 0.51743 0.37224 0.16092
 H574 H 0.54736 0.33033 0.22575
 C575 C 0.05594 0.87166 0.72493
 C576 C 0.05284 0.89489 0.71176
 C577 C 0.04028 0.89493 0.68797
 C578 C 0.03138 0.87183 0.67707
 C579 C 0.03500 0.84828 0.68980
 C580 C 0.04699 0.84847 0.71407
 C581 C 0.06399 0.91845 0.72168
 C582 C 0.07405 0.93814 0.72919
 C583 C 0.08677 0.96096 0.73723
 C584 C 0.09855 0.98008 0.74361
 H585 H 0.06579 0.87138 0.74330
 H586 H 0.03779 0.91278 0.67758
 H587 H 0.02185 0.87234 0.65855
 H588 H 0.05022 0.83063 0.72422
 C589 C 0.91226 0.63424 0.70008
 C590 C 0.92659 0.61474 0.71163
 C591 C 0.95331 0.61764 0.71427
 C592 C 0.96573 0.63973 0.70493
 C593 C 0.95156 0.65920 0.69278
 C594 C 0.92463 0.65632 0.69073
 C595 C 0.91388 0.59143 0.71991
 C596 C 0.90282 0.57197 0.72635
 C597 C 0.88928 0.54939 0.73347
 C598 C 0.87710 0.53042 0.73932
 H599 H 0.89158 0.63215 0.69785
 H600 H 0.96459 0.60270 0.72323
 H601 H 0.98644 0.64150 0.70704
 H602 H 0.91321 0.67073 0.68114
 C603 C 0.45039 0.11683 0.21666
 C604 C 0.42367 0.11379 0.21411
 C605 C 0.40918 0.13334 0.20285
 C606 C 0.42137 0.15559 0.19366
 C607 C 0.44830 0.15858 0.19557
 C608 C 0.46264 0.13907 0.20748
 C609 C 0.41116 0.09027 0.22206
 C610 C 0.40032 0.07058 0.22816
 C611 C 0.38707 0.04768 0.23481
 C612 C 0.37520 0.02839 0.24021
 H613 H 0.46180 0.10184 0.22538
 H614 H 0.38849 0.13115 0.20068
 H615 H 0.40983 0.17002 0.18425
 H616 H 0.48336 0.14093 0.20948
 C617 C 0.28853 0.44668 -0.11756
 C618 C 0.29743 0.42353 -0.10725
 C619 C 0.31771 0.41043 -0.11936
 C620 C 0.32927 0.42051 -0.14149
 C621 C 0.32073 0.44392 -0.15186
 C622 C 0.30008 0.45681 -0.13978
 C623 C 0.28607 0.41306 -0.08419
 C624 C 0.27720 0.40349 -0.06496
 C625 C 0.26745 0.39133 -0.04267
 C626 C 0.25955 0.38007 -0.02396
 H627 H 0.27283 0.45698 -0.10833
 H628 H 0.32466 0.39244 -0.11163
 H629 H 0.34483 0.40991 -0.15057
 H630 H 0.29324 0.47497 -0.14718
 C631 C 0.78943 0.95168 0.38519
 C632 C 0.79862 0.92847 0.39511
 C633 C 0.81872 0.91557 0.38251
 C634 C 0.82982 0.92588 0.36026
 C635 C 0.82098 0.94933 0.35025
 C636 C 0.80051 0.96205 0.36285
 C637 C 0.78766 0.91764 0.41821
 C638 C 0.77915 0.90767 0.43739
 C639 C 0.76983 0.89492 0.45952
 C640 C 0.76229 0.88305 0.47799
 H641 H 0.77385 0.96182 0.39479
 H642 H 0.82588 0.89752 0.38992
 H643 H 0.84523 0.91540 0.35078
 H644 H 0.79345 0.98024 0.35573
 C645 C 0.79545 0.07229 1.14319
 C646 C 0.79018 0.05731 1.12131
 C647 C 0.79500 0.03087 1.12155
 C648 C 0.80572 0.01951 1.14333
 C649 C 0.81205 0.03444 1.16546
 C650 C 0.80614 0.06105 1.16505
 C651 C 0.78083 0.06933 1.09828
 C652 C 0.77351 0.07988 1.07905
 C653 C 0.76538 0.09293 1.05679
 C654 C 0.75866 0.10486 1.03818
 H655 H 0.79190 0.09286 1.14316
 H656 H 0.79071 0.01901 1.10479
 H657 H 0.80847 -0.00113 1.14272
 H658 H 0.81107 0.07382 1.18088
 C659 C 0.30496 0.56996 0.63949
 C660 C 0.29447 0.55468 0.61974
 C661 C 0.29391 0.52782 0.62216
 C662 C 0.30426 0.51627 0.64404
 C663 C 0.31534 0.53146 0.66378
 C664 C 0.31531 0.55847 0.66136
 C665 C 0.28512 0.56667 0.59670
 C666 C 0.27779 0.57734 0.57755
 C667 C 0.26966 0.59068 0.55545
 C668 C 0.26300 0.60292 0.53703
 H669 H 0.30557 0.59077 0.63777
 H670 H 0.28579 0.51580 0.60701
 H671 H 0.30374 0.49545 0.64546
 H672 H 0.32404 0.57069 0.67598
 C673 C 0.22200 0.54161 0.38285
 C674 C 0.21356 0.56488 0.39380
 C675 C 0.19504 0.57950 0.38110
 C676 C 0.18459 0.57074 0.35785
 C677 C 0.19249 0.54714 0.34692
 C678 C 0.21157 0.53280 0.35948
 C679 C 0.22334 0.57387 0.41824
 C680 C 0.23068 0.58242 0.43863
 C681 C 0.23847 0.59371 0.46223
 C682 C 0.24464 0.60452 0.48195
 H683 H 0.23635 0.53014 0.39251
 H684 H 0.18847 0.59761 0.38932
 H685 H 0.17024 0.58240 0.34845
 H686 H 0.21786 0.51446 0.35162
 C687 C 0.68351 0.07306 0.88777
 C688 C 0.70677 0.06337 0.89683
 C689 C 0.71989 0.04464 0.88244
 C690 C 0.70961 0.03542 0.85916
 C691 C 0.68580 0.04469 0.84982
 C692 C 0.67314 0.06394 0.86462
 C693 C 0.71704 0.07312 0.92079
 C694 C 0.72479 0.08222 0.94079
 C695 C 0.73306 0.09408 0.96395
 C696 C 0.73961 0.10532 0.98331
 H697 H 0.67338 0.08788 0.89856
 H698 H 0.73795 0.03696 0.88932
 H699 H 0.71998 0.02023 0.84928
 H700 H 0.65560 0.07289 0.85812
 C701 C 0.71779 0.95906 0.61998
 C702 C 0.71651 0.93217 0.61768
 C703 C 0.70630 0.91756 0.63792
 C704 C 0.69686 0.92979 0.66013
 C705 C 0.69744 0.95686 0.66239
 C706 C 0.70834 0.97134 0.64219
 C707 C 0.72460 0.91952 0.59419
 C708 C 0.73082 0.90848 0.57459
 C709 C 0.73765 0.89497 0.55183
 C710 C 0.74325 0.88283 0.53271
 H711 H 0.72569 0.97056 0.60445
 H712 H 0.70512 0.89674 0.63630
 H713 H 0.68823 0.91809 0.67510
 H714 H 0.70932 0.99218 0.64347
 C715 C 0.22662 0.43664 0.13469
 C716 C 0.21208 0.43632 0.11200
 C717 C 0.18843 0.44910 0.11132
 C718 C 0.17919 0.46193 0.13324
 C719 C 0.19350 0.46221 0.15625
 C720 C 0.21740 0.44950 0.15670
 C721 C 0.22075 0.42212 0.08965
 C722 C 0.22732 0.40992 0.07086
 C723 C 0.23439 0.39518 0.04896
 C724 C 0.24008 0.38212 0.03048
 H725 H 0.24494 0.42676 0.13545
 H726 H 0.17692 0.44882 0.09394
 H727 H 0.16050 0.47106 0.13234
 H728 H 0.22894 0.44953 0.17404
 C729 C -0.12693 0.28368 0.42125
 C730 C -0.10279 0.29523 0.42544
 C731 C -0.10093 0.31749 0.44078
 C732 C -0.12312 0.32846 0.45148
 C733 C -0.14754 0.31733 0.44695
 C734 C -0.14918 0.29461 0.43199
 C735 C -0.08008 0.28504 0.41305
 C736 C -0.06109 0.27705 0.40218
 C737 C -0.03902 0.26822 0.38882
 C738 C -0.02042 0.26100 0.37681
 H739 H -0.12861 0.26651 0.40930
 H740 H -0.08235 0.32658 0.44416
 H741 H -0.12119 0.34572 0.46324
 H742 H -0.16772 0.28575 0.42794
 C743 C 0.37192 0.78093 0.92233
 C744 C 0.39626 0.79198 0.92666
 C745 C 0.39848 0.81429 0.94187
 C746 C 0.37645 0.82585 0.95226
 C747 C 0.35183 0.81526 0.94754
 C748 C 0.34982 0.79245 0.93276
 C749 C 0.41884 0.78132 0.91444
 C750 C 0.43777 0.77304 0.90370
 C751 C 0.45984 0.76395 0.89052
 C752 C 0.47849 0.75658 0.87869
 H753 H 0.36997 0.76373 0.91047
 H754 H 0.41722 0.82301 0.94535
 H755 H 0.37865 0.84317 0.96388
 H756 H 0.33113 0.78400 0.92859
 C757 C 1.11575 0.81652 0.03700
 C758 C 1.11677 0.79225 0.04847
 C759 C 1.13998 0.77857 0.04841
 C760 C 1.16214 0.78925 0.03711
 C761 C 1.16134 0.81378 0.02574
 C762 C 1.13783 0.82722 0.02573
 C763 C 1.09424 0.78207 0.06126
 C764 C 1.07535 0.77424 0.07244
 C765 C 1.05337 0.76577 0.08622
 C766 C 1.03490 0.75900 0.09870
 H767 H 1.09796 0.82738 0.03714
 H768 H 1.14100 0.75978 0.05731
 H769 H 1.17987 0.77834 0.03724
 H770 H 1.13664 0.84633 0.01759
 C771 C 0.62339 0.28657 0.52545
 C772 C 0.62030 0.28646 0.55227
 C773 C 0.63973 0.29670 0.56802
 C774 C 0.66195 0.30750 0.55705
 C775 C 0.66502 0.30824 0.53010
 C776 C 0.64561 0.29737 0.51442
 C777 C 0.59683 0.27680 0.56372
 C778 C 0.57725 0.26927 0.57390
 C779 C 0.55456 0.26099 0.58661
 C780 C 0.53553 0.25427 0.59827
 H781 H 0.60848 0.27866 0.51306
 H782 H 0.63749 0.29681 0.58881
 H783 H 0.67630 0.31605 0.56965
 H784 H 0.64753 0.29739 0.49362
 C785 C 0.37247 0.21874 0.55459
 C786 C 0.39542 0.20492 0.55149
 C787 C 0.39506 0.18098 0.53885
 C788 C 0.37180 0.17058 0.52992
 C789 C 0.34851 0.18395 0.53357
 C790 C 0.34914 0.20837 0.54561
 C791 C 0.41904 0.21435 0.56274
 C792 C 0.43870 0.22153 0.57293
 C793 C 0.46143 0.22930 0.58581
 C794 C 0.48039 0.23558 0.59772
 H795 H 0.37250 0.23722 0.56450
 H796 H 0.41268 0.17011 0.53636
 H797 H 0.37199 0.15192 0.52036
 H798 H 0.33151 0.21900 0.54888
 C799 C 0.88195 0.71490 0.03764
 C800 C 0.89248 0.70679 0.06100
 C801 C 0.87933 0.68852 0.07587
 C802 C 0.85602 0.67801 0.06727
 C803 C 0.84548 0.68560 0.04361
 C804 C 0.85852 0.70440 0.02899
 C805 C 0.91686 0.71679 0.06991
 C806 C 0.93715 0.72443 0.07842
 C807 C 0.96053 0.73276 0.08968
 C808 C 0.97999 0.73955 0.10047
 H809 H 0.89196 0.72907 0.02599
 H810 H 0.88721 0.68222 0.09405
 H811 H 0.84623 0.66388 0.07915
 H812 H 0.85098 0.71046 0.01060
 C813 C 0.63594 0.72147 0.93419
 C814 C 0.61267 0.70757 0.93422
 C815 C 0.61099 0.68410 0.94720
 C816 C 0.63249 0.67440 0.95990
 C817 C 0.65606 0.68805 0.95983
 C818 C 0.65753 0.71178 0.94692
 C819 C 0.59073 0.71672 0.92015
 C820 C 0.57229 0.72369 0.90804
 C821 C 0.55078 0.73122 0.89340
 C822 C 0.53264 0.73729 0.88040
 H823 H 0.63747 0.73965 0.92415
 H824 H 0.59315 0.67308 0.94718
 H825 H 0.63081 0.65585 0.96921
 H826 H 0.67533 0.72283 0.94668
 C827 C 0.13798 0.22265 0.42868
 C828 C 0.11412 0.20986 0.42993
 C829 C 0.11179 0.18700 0.44386
 C830 C 0.13319 0.17681 0.45633
 C831 C 0.15733 0.18938 0.45509
 C832 C 0.15948 0.21248 0.44117
 C833 C 0.09217 0.21953 0.41624
 C834 C 0.07365 0.22693 0.40451
 C835 C 0.05200 0.23495 0.39033
 C836 C 0.03373 0.24138 0.37770
 H837 H 0.14002 0.24035 0.41789
 H838 H 0.09347 0.17683 0.44479
 H839 H 0.13096 0.15875 0.46643
 H840 H 0.17773 0.22269 0.44002
 C841 C 0.54303 0.11189 0.68010
 C842 C 0.54949 0.13693 0.68821
 C843 C 0.56707 0.14061 0.70831
 C844 C 0.57865 0.11939 0.71982
 C845 C 0.57285 0.09417 0.71133
 C846 C 0.55458 0.09061 0.69162
 C847 C 0.53936 0.15889 0.67495
 C848 C 0.53164 0.17736 0.66343
 C849 C 0.52337 0.19898 0.64945
 C850 C 0.51684 0.21735 0.63707
 H851 H 0.52955 0.10883 0.66445
 H852 H 0.57221 0.15990 0.71475
 H853 H 0.59237 0.12272 0.73520
 H854 H 0.54993 0.07146 0.68449
 C855 C 1.06888 0.64616 0.21022
 C856 C 1.05114 0.64271 0.19022
 C857 C 1.04449 0.61777 0.18198
 C858 C 1.05602 0.59635 0.19323
 C859 C 1.07446 0.59966 0.21281
 C860 C 1.08045 0.62479 0.22147
 C861 C 1.04102 0.66477 0.17713
 C862 C 1.03322 0.68322 0.16564
 C863 C 1.02470 0.70467 0.15156
 C864 C 1.01782 0.72278 0.13901
 H865 H 1.07417 0.66538 0.21675
 H866 H 1.03088 0.61490 0.16640
 H867 H 1.05124 0.57728 0.18595
 H868 H 1.09431 0.62793 0.23675
 C869 C 0.97251 0.87158 0.20659
 C870 C 0.95998 0.85721 0.18733
 C871 C 0.93526 0.86419 0.17944
 C872 C 0.92300 0.88534 0.19078
 C873 C 0.93528 0.89985 0.21026
 C874 C 0.96025 0.89283 0.21799
 C875 C 0.97219 0.83529 0.17540
 C876 C 0.98140 0.81681 0.16465
 C877 C 0.99107 0.79517 0.15117
 C878 C 0.99844 0.77679 0.13891
 H879 H 0.99166 0.86632 0.21284
 H880 H 0.92545 0.85329 0.16445
 H881 H 0.90399 0.89051 0.18408
 H882 H 0.97010 0.90351 0.23308
 C883 C 0.47077 0.37672 0.68250
 C884 C 0.46379 0.35174 0.68996
 C885 C 0.44526 0.34819 0.70933
 C886 C 0.43329 0.36949 0.72078
 C887 C 0.43967 0.39467 0.71295
 C888 C 0.45885 0.39808 0.69397
 C889 C 0.47440 0.32974 0.67666
 C890 C 0.48256 0.31130 0.66498
 C891 C 0.49136 0.28981 0.65067
 C892 C 0.49831 0.27161 0.63789
 H893 H 0.48498 0.37967 0.66741
 H894 H 0.43969 0.32893 0.71523
 H895 H 0.41887 0.36628 0.73560
 H896 H 0.46396 0.41719 0.68733
 C897 C 0.46502 0.60899 0.81555
 C898 C 0.46342 0.63080 0.79997
 C899 C 0.45088 0.62913 0.77616
 C900 C 0.43947 0.60585 0.76824
 C901 C 0.44035 0.58402 0.78415
 C902 C 0.45359 0.58576 0.80771
 C903 C 0.47332 0.65513 0.80930
 C904 C 0.48109 0.67527 0.81819
 C905 C 0.48962 0.69847 0.82987
 C906 C 0.49647 0.71784 0.84094
 H907 H 0.47466 0.61007 0.83402
 H908 H 0.44940 0.64594 0.76402
 H909 H 0.42917 0.60518 0.75014
 H910 H 0.45488 0.56920 0.82021
 C911 C -0.03475 0.11401 0.31329
 C912 C -0.03678 0.13582 0.29776
 C913 C -0.04999 0.13416 0.27432
 C914 C -0.06166 0.11089 0.26674
 C915 C -0.06036 0.08908 0.28263
 C916 C -0.04643 0.09080 0.30579
 C917 C -0.02669 0.16015 0.30688
 C918 C -0.01875 0.18026 0.31568
 C919 C -0.01000 0.20337 0.32736
 C920 C -0.00295 0.22264 0.33849
 H921 H -0.02459 0.11508 0.33147
 H922 H -0.05182 0.15097 0.26224
 H923 H -0.07248 0.11023 0.24894
 H924 H -0.04482 0.07424 0.31825
 C925 C 0.04255 0.37728 0.27914
 C926 C 0.05628 0.36005 0.29445
 C927 C 0.08156 0.36598 0.30180
 C928 C 0.09296 0.38922 0.29436
 C929 C 0.07921 0.40694 0.27945
 C930 C 0.05400 0.40059 0.27157
 C931 C 0.04430 0.33687 0.30397
 C932 C 0.03510 0.31766 0.31326
 C933 C 0.02521 0.29555 0.32562
 C934 C 0.01744 0.27713 0.33742
 H935 H 0.02291 0.37292 0.27346
 H936 H 0.09236 0.35280 0.31364
 H937 H 0.11256 0.39336 0.30032
 H938 H 0.04293 0.41394 0.26020
 C939 C 0.54163 0.87213 0.78035
 C940 C 0.55523 0.85527 0.79618
 C941 C 0.58026 0.86165 0.80402
 C942 C 0.59152 0.88494 0.79655
 C943 C 0.57786 0.90230 0.78112
 C944 C 0.55292 0.89550 0.77275
 C945 C 0.54336 0.83207 0.80575
 C946 C 0.53421 0.81285 0.81511
 C947 C 0.52437 0.79078 0.82758
 C948 C 0.51661 0.77243 0.83948
 H949 H 0.52217 0.86743 0.77429
 H950 H 0.59097 0.84876 0.81627
 H951 H 0.61092 0.88943 0.80290
 H952 H 0.54193 0.90856 0.76097
 C953 C 0.68551 0.53673 0.11896
 C954 C 0.68758 0.54872 0.14306
 C955 C 0.70129 0.57182 0.14544
 C956 C 0.71230 0.58336 0.12377
 C957 C 0.70978 0.57218 0.09878
 C958 C 0.69655 0.54812 0.09713
 C959 C 0.67462 0.53818 0.16523
 C960 C 0.66333 0.53026 0.18395
 C961 C 0.64959 0.52190 0.20592
 C962 C 0.63739 0.51537 0.22461
 H963 H 0.67474 0.51885 0.11688
 H964 H 0.70333 0.58111 0.16412
 H965 H 0.72349 0.60066 0.12730
 H966 H 0.69292 0.53851 0.07894
 C967 C 0.17572 1.07873 0.63439
 C968 C 0.18300 1.05404 0.64202
 C969 C 0.20128 1.04033 0.62753
 C970 C 0.21229 1.05135 0.60549
 C971 C 0.20516 1.07624 0.59775
 C972 C 0.18668 1.08976 0.61243
 C973 C 0.17140 1.04296 0.66466
 C974 C 0.16107 1.03443 0.68365
 C975 C 0.14827 1.02521 0.70582
 C976 C 0.13672 1.01791 0.72462
 H977 H 0.16148 1.08945 0.64538
 H978 H 0.20704 1.02119 0.63329
 H979 H 0.22662 1.04057 0.59471
 H980 H 0.18044 1.10876 0.60675
 C981 C 0.19406 0.97251 0.87873
 C982 C 0.19507 0.96185 0.85397
 C983 C 0.20864 0.93911 0.84962
 C984 C 0.22051 0.92654 0.87003
 C985 C 0.21899 0.93629 0.89569
 C986 C 0.20594 0.96010 0.89930
 C987 C 0.18090 0.97326 0.83325
 C988 C 0.16841 0.98195 0.81587
 C989 C 0.15314 0.99117 0.79555
 C990 C 0.13956 0.99832 0.77829
 H991 H 0.18339 0.99009 0.88234
 H992 H 0.20984 0.93084 0.83038
 H993 H 0.23147 0.90957 0.86504
 H994 H 0.20301 0.96866 0.91813
 C995 C 0.71160 0.44334 0.35187
 C996 C 0.69209 0.46134 0.35645
 C997 C 0.68483 0.46744 0.38179
 C998 C 0.69662 0.45516 0.40248
 C999 C 0.71576 0.43650 0.39804
 C1000 C 0.72339 0.43102 0.37251
 C1001 C 0.67842 0.47227 0.33513
 C1002 C 0.66642 0.48068 0.31727
 C1003 C 0.65176 0.48974 0.29643
 C1004 C 0.63871 0.49685 0.27875
 H1005 H 0.71735 0.43845 0.33232
 H1006 H 0.66962 0.48123 0.38554
 H1007 H 0.69011 0.45957 0.42188
 H1008 H 0.73831 0.41700 0.36850
 C1009 C 0.77602 0.44492 0.63125
 C1010 C 0.79982 0.45773 0.63300
 C1011 C 0.81583 0.45938 0.61127
 C1012 C 0.80840 0.44778 0.58805
 C1013 C 0.78483 0.43430 0.58622
 C1014 C 0.76851 0.43332 0.60797
 C1015 C 0.80868 0.46795 0.65730
 C1016 C 0.81721 0.47605 0.67740
 C1017 C 0.82847 0.48506 0.70052
 C1018 C 0.83919 0.49236 0.71984
 H1019 H 0.76355 0.44340 0.64800
 H1020 H 0.83430 0.46924 0.61241
 H1021 H 0.82121 0.44915 0.57154
 H1022 H 0.75038 0.42286 0.60723
 C1023 C 0.31561 -0.04125 0.11043
 C1024 C 0.29929 -0.04287 0.13193
 C1025 C 0.27525 -0.05514 0.12969
 C1026 C 0.26782 -0.06627 0.10617
 C1027 C 0.28446 -0.06537 0.08466
 C1028 C 0.30827 -0.05239 0.08696
 C1029 C 0.30805 -0.03318 0.15648
 C1030 C 0.31649 -0.02551 0.17677
 C1031 C 0.32763 -0.01698 0.20013
 C1032 C 0.33819 -0.01000 0.21964
 H1033 H 0.33426 -0.03179 0.11194
 H1034 H 0.26252 -0.05662 0.14625
 H1035 H 0.24949 -0.07636 0.10505
 H1036 H 0.32133 -0.05109 0.07065
 C1037 C 0.26655 0.05202 0.36160
 C1038 C 0.28956 0.03806 0.36046
 C1039 C 0.30421 0.03493 0.38279
 C1040 C 0.29645 0.04649 0.40594
 C1041 C 0.27390 0.06138 0.40708
 C1042 C 0.25868 0.06354 0.38483
 C1043 C 0.29954 0.02882 0.33617
 C1044 C 0.30935 0.02176 0.31624
 C1045 C 0.32244 0.01418 0.29352
 C1046 C 0.33492 0.00821 0.27478
 H1047 H 0.25516 0.05471 0.34439
 H1048 H 0.32208 0.02422 0.38212
 H1049 H 0.30838 0.04427 0.42285
 H1050 H 0.24136 0.07511 0.38510
 C1051 C 0.79932 0.57456 0.86381
 C1052 C 0.79208 0.54919 0.85782
 C1053 C 0.77674 0.53517 0.87513
 C1054 C 0.76906 0.54642 0.89859
 C1055 C 0.77689 0.57170 0.90500
 C1056 C 0.79178 0.58575 0.88718
 C1057 C 0.80186 0.53746 0.83453
 C1058 C 0.81148 0.52862 0.81521
 C1059 C 0.82432 0.51931 0.79300
 C1060 C 0.83659 0.51215 0.77452
 H1061 H 0.81118 0.58558 0.85057
 H1062 H 0.77114 0.51545 0.87073
 H1063 H 0.75768 0.53514 0.91201
 H1064 H 0.79770 0.60541 0.89137
 C1065 C 0.14435 0.70842 0.57316
 C1066 C 0.14232 0.68910 0.55425
 C1067 C 0.11794 0.68073 0.54608
 C1068 C 0.09566 0.69127 0.55711
 C1069 C 0.09752 0.71028 0.57656
 C1070 C 0.12212 0.71896 0.58422
 C1071 C 0.16522 0.67701 0.54422
 C1072 C 0.18437 0.66641 0.53636
 C1073 C 0.20665 0.65342 0.52767
 C1074 C 0.22548 0.64178 0.52060
 H1075 H 0.16312 0.71505 0.57963
 H1076 H 0.11615 0.66568 0.53155
 H1077 H 0.07702 0.68398 0.55101
 H1078 H 0.12417 0.73382 0.59889
 C1079 C 0.63997 0.20963 1.07449
 C1080 C 0.63796 0.19043 1.05547
 C1081 C 0.61360 0.18191 1.04739
 C1082 C 0.59131 0.19219 1.05864
 C1083 C 0.59314 0.21107 1.07822
 C1084 C 0.61772 0.21992 1.08578
 C1085 C 0.66088 0.17852 1.04528
 C1086 C 0.68002 0.16801 1.03730
 C1087 C 0.70228 0.15505 1.02852
 C1088 C 0.72106 0.14337 1.02140
 H1089 H 0.65873 0.21636 1.08089
 H1090 H 0.61184 0.16694 1.03278
 H1091 H 0.57269 0.18479 1.05262
 H1092 H 0.61975 0.23469 1.10053
 C1093 C 0.87770 0.19848 0.97581
 C1094 C 0.85327 0.19878 0.96466
 C1095 C 0.84979 0.21098 0.94112
 C1096 C 0.87073 0.22219 0.92830
 C1097 C 0.89606 0.22137 0.93860
 C1098 C 0.89880 0.20973 0.96314
 C1099 C 0.83199 0.18527 0.97643
 C1100 C 0.81407 0.17333 0.98532
 C1101 C 0.79307 0.15864 0.99469
 C1102 C 0.77524 0.14549 1.00187
 H1103 H 0.88065 0.18886 0.99401
 H1104 H 0.83083 0.21163 0.93245
 H1105 H 0.86636 0.23214 0.91067
 H1106 H 0.91734 0.20742 0.97219
 C1107 C 0.35475 0.71742 0.44927
 C1108 C 0.35886 0.69826 0.46759
 C1109 C 0.38406 0.69115 0.47383
 C1110 C 0.40507 0.70265 0.46127
 C1111 C 0.40109 0.72132 0.44220
 C1112 C 0.37571 0.72891 0.43668
 C1113 C 0.33722 0.68457 0.47846
 C1114 C 0.31905 0.67249 0.48666
 C1115 C 0.29786 0.65763 0.49527
 C1116 C 0.27990 0.64433 0.50186
 H1117 H 0.33533 0.72303 0.44427
 H1118 H 0.38745 0.67620 0.48785
 H1119 H 0.42435 0.69620 0.46573
 H1120 H 0.37205 0.74347 0.42234
 C1121 C 0.63360 0.81217 0.42953
 C1122 C 0.63888 0.80497 0.45487
 C1123 C 0.62110 0.78977 0.46846
 C1124 C 0.59795 0.78205 0.45680
 C1125 C 0.59231 0.78962 0.43146
 C1126 C 0.61052 0.80455 0.41789
 C1127 C 0.66216 0.81419 0.46696
 C1128 C 0.68161 0.82294 0.47632
 C1129 C 0.70424 0.83437 0.48639
 C1130 C 0.72335 0.84514 0.49425
 H1131 H 0.64723 0.82391 0.41882
 H1132 H 0.62495 0.78418 0.48813
 H1133 H 0.58422 0.77071 0.46777
 H1134 H 0.60694 0.81030 0.39822
 C1135 C 0.11682 0.28861 -0.03077
 C1136 C 0.13467 0.30352 -0.04460
 C1137 C 0.12927 0.31063 -0.06994
 C1138 C 0.10602 0.30322 -0.08134
 C1139 C 0.08774 0.28860 -0.06754
 C1140 C 0.09349 0.28110 -0.04221
 C1141 C 0.15815 0.31256 -0.03278
 C1142 C 0.17780 0.32121 -0.02373
 C1143 C 0.20064 0.33256 -0.01408
 C1144 C 0.21992 0.34329 -0.00659
 H1145 H 0.12077 0.28310 -0.01109
 H1146 H 0.14296 0.32214 -0.08083
 H1147 H 0.10236 0.30889 -0.10102
 H1148 H 0.07970 0.26998 -0.03107
 C1149 C 0.38043 0.30959 0.04367
 C1150 C 0.35790 0.29468 0.04544
 C1151 C 0.35832 0.27105 0.05828
 C1152 C 0.38104 0.26274 0.06999
 C1153 C 0.40349 0.27813 0.06913
 C1154 C 0.40307 0.30139 0.05541
 C1155 C 0.33412 0.30482 0.03570
 C1156 C 0.31466 0.31472 0.02810
 C1157 C 0.29252 0.32785 0.01976
 C1158 C 0.27429 0.34033 0.01299
 H1159 H 0.38031 0.32791 0.03380
 H1160 H 0.34094 0.25944 0.05989
 H1161 H 0.38076 0.24487 0.08064
 H1162 H 0.42016 0.31346 0.05417
 C1163 C 0.88466 0.81081 0.54163
 C1164 C 0.86205 0.79607 0.54371
 C1165 C 0.86250 0.77240 0.55650
 C1166 C 0.88534 0.76392 0.56785
 C1167 C 0.90788 0.77915 0.56670
 C1168 C 0.90742 0.80243 0.55301
 C1169 C 0.83817 0.80642 0.53445
 C1170 C 0.81858 0.81645 0.52731
 C1171 C 0.79627 0.82969 0.51957
 C1172 C 0.77786 0.84221 0.51338
 H1173 H 0.88452 0.82917 0.53181
 H1174 H 0.84507 0.76092 0.55836
 H1175 H 0.88508 0.74604 0.57848
 H1176 H 0.92456 0.81440 0.55156
   
