data_POSCAR
  _audit_creation_date              2014-09-24
  _audit_creation_method            'ToBaCCo'
  _symmetry_space_group_name_H-M    'P1'
  _symmetry_Int_Tables_number       1
  _symmetry_cell_setting            triclinic
  loop_
  _symmetry_equiv_pos_as_xyz
 x,y,z
_cell_length_a 23.2717
_cell_length_b 23.2880
_cell_length_c 23.2490
_cell_angle_alpha 84.200000
_cell_angle_beta 85.325500
_cell_angle_gamma 89.704000
loop_
  _atom_site_label
  _atom_site_type_symbol
  _atom_site_fract_x
  _atom_site_fract_y
  _atom_site_fract_z
C1 C 0.60056 0.35120 0.01892
 C2 C 0.64343 0.39128 0.01841
 C3 C 0.61765 0.44523 0.01169
 N4 N 0.56065 0.43901 0.00674
 C5 C 0.55010 0.38170 0.01087
 C6 C 0.64725 0.49869 0.00926
 C7 C 0.62019 0.55378 0.00427
 C8 C 0.64799 0.60500 0.01108
 C9 C 0.60781 0.64801 0.00698
 C10 C 0.55599 0.62248 -0.00218
 N11 N 0.56414 0.56501 -0.00449
 C12 C 0.50299 0.65305 -0.00532
 C13 C 0.44804 0.62633 -0.00353
 C14 C 0.39571 0.65541 -0.00226
 C15 C 0.35340 0.61462 -0.00102
 C16 C 0.38102 0.56199 -0.00330
 N17 N 0.43869 0.56926 -0.00456
 C18 C 0.35295 0.50938 -0.00876
 C19 C 0.38172 0.45612 -0.01260
 C20 C 0.35676 0.40746 -0.03002
 C21 C 0.39712 0.36444 -0.02653
 C22 C 0.44579 0.38787 -0.00713
 N23 N 0.43598 0.44377 0.00166
 C24 C 0.49647 0.35626 0.00382
 H25 H 0.60636 0.30488 0.02337
 H26 H 0.68851 0.38150 0.02237
 H27 H 0.46225 0.46989 0.02207
 H28 H 0.69238 0.61073 0.02010
 H29 H 0.61565 0.69290 0.01214
 H30 H 0.38836 0.70134 -0.00276
 H31 H 0.30762 0.62316 -0.00037
 H32 H 0.39124 0.32078 -0.03718
 H33 H 0.53405 0.53579 -0.01438
 H34 H 0.31386 0.40335 -0.04399
 C35 C -0.02162 0.59388 0.64341
 C36 C -0.01995 0.63850 0.60017
 C37 C -0.00662 0.61463 0.54842
 N38 N -0.00107 0.55672 0.55868
 C39 C -0.01058 0.54392 0.61673
 C40 C 0.00362 0.64667 0.49331
 C41 C 0.00667 0.62012 0.44080
 C42 C 0.02848 0.64632 0.38721
 C43 C 0.02246 0.60736 0.34749
 C44 C -0.00232 0.55815 0.37784
 N45 N -0.01218 0.56634 0.43460
 C46 C -0.01767 0.50856 0.35212
 C47 C -0.03032 0.45456 0.38377
 C48 C -0.05024 0.40668 0.36041
 C49 C -0.05156 0.36185 0.40359
 C50 C -0.03247 0.38391 0.45186
 N51 N -0.01937 0.44053 0.43959
 C52 C -0.02330 0.35085 0.50463
 C53 C -0.01016 0.37550 0.55518
 C54 C 0.00799 0.34458 0.60454
 C55 C 0.01279 0.38333 0.64477
 C56 C -0.00199 0.43702 0.61871
 N57 N -0.01661 0.43170 0.56441
 C58 C -0.00520 0.48839 0.64644
 H59 H -0.02973 0.59803 0.68929
 H60 H -0.02692 0.68354 0.60628
 H61 H -0.03584 0.46341 0.53779
 H62 H 0.04702 0.68908 0.37769
 H63 H 0.03503 0.61443 0.30146
 H64 H -0.06170 0.40409 0.31654
 H65 H -0.06437 0.31789 0.39970
 H66 H 0.02531 0.37292 0.68841
 H67 H -0.03575 0.53911 0.46599
 H68 H 0.01616 0.29869 0.61122
 C69 C 0.35091 0.03839 0.60169
 C70 C 0.39039 0.03963 0.64221
 C71 C 0.44108 0.01654 0.61871
 N72 N 0.43382 0.00151 0.56509
 C73 C 0.37884 0.01516 0.55452
 C74 C 0.49262 0.00896 0.64717
 C75 C 0.54544 -0.00818 0.61885
 C76 C 0.59270 -0.02886 0.64724
 C77 C 0.63655 -0.03555 0.60533
 C78 C 0.61486 -0.01997 0.55205
 N79 N 0.55929 -0.00304 0.56085
 C80 C 0.64792 -0.01668 0.49765
 C81 C 0.62309 -0.01041 0.44367
 C82 C 0.65400 -0.00424 0.38975
 C83 C 0.61449 -0.00331 0.34908
 C84 C 0.56063 -0.00911 0.37927
 N85 N 0.56610 -0.01431 0.43703
 C86 C 0.50799 -0.01199 0.35317
 C87 C 0.45333 -0.01683 0.38481
 C88 C 0.40255 -0.03123 0.36219
 C89 C 0.35893 -0.02745 0.40514
 C90 C 0.38394 -0.00987 0.45259
 N91 N 0.44146 -0.00355 0.43984
 C92 C 0.35271 0.00519 0.50368
 H93 H 0.30685 0.05345 0.60620
 H94 H 0.38270 0.05611 0.68403
 H95 H 0.46958 0.01604 0.46426
 H96 H 0.59573 -0.03705 0.69356
 H97 H 0.67981 -0.04934 0.61358
 H98 H 0.70029 -0.00170 0.38050
 H99 H 0.62449 0.00036 0.30258
 H100 H 0.31365 -0.03506 0.40116
 H101 H 0.53475 0.01795 0.52988
 H102 H 0.39697 -0.04244 0.31898
 O103 O 0.45017 0.00787 -0.07433
 O104 O 0.46023 -0.00673 0.08399
 O105 O 0.44801 0.07871 0.00555
 O106 O 0.45704 -0.07850 0.00512
 O107 O 0.55201 -0.07264 -0.00903
 O108 O 0.54291 0.08508 -0.00852
 O109 O 0.55520 -0.00004 0.07009
 O110 O 0.54507 0.01387 -0.08755
 Cu111 Cu 0.44433 -0.00052 0.00647
 Cu112 Cu 0.55838 0.00695 -0.01006
 C113 C 0.49612 0.01400 -0.10792
 C114 C 0.50940 -0.00464 0.10377
 C115 C 0.49391 0.10858 -0.00045
 C116 C 0.50579 -0.10220 -0.00290
 O117 O -0.08214 0.54559 0.99296
 O118 O 0.07573 0.55270 0.98422
 O119 O -0.00119 0.53893 0.91109
 O120 O -0.00688 0.55342 1.06771
 O121 O -0.00170 0.45852 1.08517
 O122 O 0.00230 0.44393 0.92909
 O123 O 0.07958 0.45780 1.00187
 O124 O -0.07894 0.45073 1.01241
 Cu125 Cu -0.00364 0.55725 0.98715
 Cu126 Cu 0.00085 0.44316 1.00879
 C127 C -0.10738 0.49723 1.00480
 C128 C 0.10457 0.50652 0.99106
 C129 C 0.00098 0.48895 0.89368
 C130 C -0.00616 0.50814 1.10308
 O131 O 0.00817 -0.07456 0.44783
 O132 O -0.00308 0.08258 0.45398
 O133 O 0.08157 0.00918 0.45336
 O134 O -0.07617 -0.00063 0.45096
 O135 O -0.08458 -0.01723 0.54662
 O136 O 0.07267 -0.00247 0.54911
 O137 O -0.01453 0.06904 0.54966
 O138 O 0.00206 -0.08779 0.54358
 Cu139 Cu 0.00365 0.00537 0.44192
 Cu140 Cu -0.00686 -0.01089 0.55686
 C141 C 0.00757 -0.10787 0.49463
 C142 C -0.01185 0.10247 0.50279
 C143 C 0.10393 0.00595 0.50165
 C144 C -0.10703 -0.01110 0.49844
 C145 C -0.26526 0.47622 1.06234
 C146 C -0.29225 0.49750 1.01170
 C147 C -0.25799 0.51918 0.96187
 C148 C -0.19826 0.51840 0.96073
 C149 C -0.17071 0.49552 1.00911
 C150 C -0.20391 0.47459 1.06072
 C151 C -0.29782 0.45872 1.11513
 C152 C -0.27065 0.43882 1.16459
 C153 C -0.21077 0.43644 1.16271
 C154 C -0.17754 0.45420 1.11145
 H155 H -0.34441 0.46085 1.11878
 H156 H -0.29619 0.42552 1.20469
 H157 H -0.18992 0.42134 1.20136
 H158 H -0.13119 0.45267 1.11237
 H159 H -0.27780 0.53630 0.92314
 H160 H -0.17319 0.53528 0.92137
 C161 C 0.26298 0.53618 0.93873
 C162 C 0.28933 0.50995 0.98764
 C163 C 0.25501 0.48288 1.03474
 C164 C 0.19536 0.48182 1.03443
 C165 C 0.16802 0.50919 0.98773
 C166 C 0.20169 0.53708 0.93930
 C167 C 0.29632 0.56094 0.88905
 C168 C 0.26992 0.58732 0.84157
 C169 C 0.21010 0.58929 0.84251
 C170 C 0.17615 0.56439 0.89070
 H171 H 0.34294 0.55990 0.88636
 H172 H 0.29602 0.60622 0.80380
 H173 H 0.18984 0.60964 0.80542
 H174 H 0.12995 0.56612 0.88882
 H175 H 0.27476 0.46222 1.07207
 H176 H 0.17013 0.46028 1.07157
 C177 C 0.05304 -0.26619 0.52059
 C178 C 0.01082 -0.29252 0.49057
 C179 C -0.02681 -0.25696 0.45871
 C180 C -0.02599 -0.19728 0.45941
 C181 C 0.01221 -0.17090 0.49215
 C182 C 0.05311 -0.20509 0.52201
 C183 C 0.09682 -0.29902 0.54709
 C184 C 0.13787 -0.27278 0.57629
 C185 C 0.13705 -0.21336 0.57874
 C186 C 0.09550 -0.17967 0.55156
 H187 H 0.10030 -0.34508 0.54476
 H188 H 0.17087 -0.29862 0.59660
 H189 H 0.16937 -0.19313 0.60101
 H190 H 0.09772 -0.13355 0.55299
 H191 H -0.05901 -0.27576 0.43505
 H192 H -0.05706 -0.17156 0.43587
 C193 C -0.06852 0.25176 0.53533
 C194 C -0.02356 0.28672 0.50572
 C195 C 0.02248 0.26080 0.47559
 C196 C 0.02496 0.20120 0.47480
 C197 C -0.01811 0.16544 0.50474
 C198 C -0.06589 0.19057 0.53479
 C199 C -0.11661 0.27645 0.56448
 C200 C -0.16122 0.24174 0.59236
 C201 C -0.15907 0.18210 0.59129
 C202 C -0.11212 0.15658 0.56265
 H203 H -0.12038 0.32266 0.56555
 H204 H -0.19791 0.26125 0.61448
 H205 H -0.19419 0.15548 0.61243
 H206 H -0.11302 0.11026 0.56191
 H207 H 0.05692 0.28712 0.45251
 H208 H 0.06137 0.18277 0.45117
 C209 C 0.52684 0.05727 -0.27107
 C210 C 0.49108 0.01649 -0.29296
 C211 C 0.45452 -0.01919 -0.25379
 C212 C 0.45552 -0.01780 -0.19421
 C213 C 0.49282 0.01946 -0.17152
 C214 C 0.52747 0.05893 -0.20995
 C215 C 0.56009 0.09817 -0.30874
 C216 C 0.59391 0.13875 -0.28688
 C217 C 0.59442 0.14043 -0.22733
 C218 C 0.56124 0.10144 -0.18913
 H219 H 0.55952 0.09986 -0.35535
 H220 H 0.61917 0.16966 -0.31634
 H221 H 0.62000 0.17271 -0.21062
 H222 H 0.56138 0.10615 -0.14341
 H223 H 0.42677 -0.05043 -0.26943
 H224 H 0.42846 -0.04785 -0.16548
 C225 C 0.52153 0.04462 0.25380
 C226 C 0.51015 -0.00829 0.28865
 C227 C 0.50129 -0.05858 0.26208
 C228 C 0.50138 -0.05674 0.20196
 C229 C 0.51298 -0.00514 0.16672
 C230 C 0.52473 0.04581 0.19231
 C231 C 0.52958 0.09650 0.27883
 C232 C 0.54221 0.14793 0.24403
 C233 C 0.54715 0.14870 0.18391
 C234 C 0.53857 0.09825 0.15814
 H235 H 0.52616 0.09782 0.32537
 H236 H 0.54838 0.18734 0.26380
 H237 H 0.55715 0.18870 0.15706
 H238 H 0.54257 0.10086 0.11134
 H239 H 0.49294 -0.09928 0.28829
 H240 H 0.49251 -0.09591 0.18273
 C241 C 0.53065 -0.25097 -0.05622
 C242 C 0.50512 -0.28610 -0.00723
 C243 C 0.48190 -0.25994 0.04125
 C244 C 0.48304 -0.20036 0.04179
 C245 C 0.50824 -0.16498 -0.00563
 C246 C 0.53214 -0.18988 -0.05536
 C247 C 0.55248 -0.27503 -0.10702
 C248 C 0.57590 -0.23992 -0.15527
 C249 C 0.57733 -0.18031 -0.15437
 C250 C 0.55543 -0.15531 -0.10519
 H251 H 0.55105 -0.32101 -0.11021
 H252 H 0.59248 -0.25903 -0.19379
 H253 H 0.59498 -0.15323 -0.19222
 H254 H 0.55631 -0.10876 -0.10709
 H255 H 0.46278 -0.28604 0.07917
 H256 H 0.46431 -0.18163 0.07981
 C257 C 0.46368 0.25752 0.05126
 C258 C 0.49359 0.29231 0.00492
 C259 C 0.52104 0.26649 -0.04168
 C260 C 0.52044 0.20692 -0.04244
 C261 C 0.49080 0.17146 0.00241
 C262 C 0.46147 0.19658 0.04969
 C263 C 0.43679 0.28205 0.09964
 C264 C 0.40773 0.24746 0.14513
 C265 C 0.40510 0.18802 0.14351
 C266 C 0.43167 0.16263 0.09649
 H267 H 0.43832 0.32801 0.10299
 H268 H 0.38740 0.26686 0.18198
 H269 H 0.38289 0.16131 0.17921
 H270 H 0.42948 0.11619 0.09821
 H271 H 0.54378 0.29280 -0.07740
 H272 H 0.54302 0.18829 -0.07869
 C273 C -0.26081 -0.07059 0.51110
 C274 C -0.29135 -0.01867 0.49718
 C275 C -0.26048 0.03302 0.48218
 C276 C -0.20072 0.03433 0.48218
 C277 C -0.16997 -0.01582 0.49764
 C278 C -0.19964 -0.06895 0.51188
 C279 C -0.28956 -0.12427 0.52309
 C280 C -0.25890 -0.17481 0.53654
 C281 C -0.19923 -0.17305 0.53786
 C282 C -0.16967 -0.12076 0.52554
 H283 H -0.33582 -0.12757 0.52195
 H284 H -0.28153 -0.21560 0.54577
 H285 H -0.17566 -0.21247 0.54808
 H286 H -0.12325 -0.12142 0.52628
 H287 H -0.28303 0.07294 0.47099
 H288 H -0.17828 0.07510 0.47095
 C289 C 0.26163 0.05477 0.46999
 C290 C 0.28874 0.01011 0.50396
 C291 C 0.25487 -0.03179 0.53827
 C292 C 0.19509 -0.03116 0.53813
 C293 C 0.16723 0.01067 0.50276
 C294 C 0.20041 0.05498 0.46915
 C295 C 0.29414 0.09966 0.43742
 C296 C 0.26708 0.14362 0.40455
 C297 C 0.20734 0.14411 0.40396
 C298 C 0.17416 0.10054 0.43606
 H299 H 0.34058 0.10151 0.43751
 H300 H 0.29255 0.17778 0.37980
 H301 H 0.18652 0.17873 0.37886
 H302 H 0.12793 0.10361 0.43530
 H303 H 0.27506 -0.06579 0.56484
 H304 H 0.17048 -0.06467 0.56484
 C305 C -0.06083 0.53885 1.25665
 C306 C -0.01635 0.51215 1.28779
 C307 C 0.02996 0.48642 1.25793
 C308 C 0.03263 0.48631 1.19800
 C309 C -0.01052 0.51259 1.16603
 C310 C -0.05793 0.53917 1.19514
 C311 C -0.10886 0.56391 1.28555
 C312 C -0.15318 0.58858 1.25457
 C313 C -0.15065 0.58855 1.19455
 C314 C -0.10364 0.56413 1.16493
 H315 H -0.11279 0.56422 1.33222
 H316 H -0.18988 0.60748 1.27728
 H317 H -0.18547 0.60727 1.17081
 H318 H -0.10408 0.56436 1.11847
 H319 H 0.06401 0.46566 1.28145
 H320 H 0.06877 0.46544 1.17628
 C321 C 0.05237 0.47830 0.73527
 C322 C -0.00117 0.48422 0.71023
 C323 C -0.05214 0.48832 0.74598
 C324 C -0.05061 0.48891 0.80562
 C325 C 0.00170 0.48348 0.83127
 C326 C 0.05358 0.47643 0.79654
 C327 C 0.10476 0.47460 0.70071
 C328 C 0.15691 0.46756 0.72620
 C329 C 0.15785 0.46402 0.78626
 C330 C 0.10675 0.46838 0.82128
 H331 H 0.10582 0.47692 0.65391
 H332 H 0.19676 0.46456 0.69923
 H333 H 0.19840 0.45819 0.80583
 H334 H 0.10917 0.46522 0.86776
 H335 H -0.09323 0.49292 0.72720
 H336 H -0.09052 0.49419 0.83199
   
