data_POSCAR
  _audit_creation_date              2014-09-24
  _audit_creation_method            'ToBaCCo'
  _symmetry_space_group_name_H-M    'P1'
  _symmetry_Int_Tables_number       1
  _symmetry_cell_setting            triclinic
  loop_
  _symmetry_equiv_pos_as_xyz
 x,y,z
_cell_length_a 45.5937
_cell_length_b 45.6779
_cell_length_c 43.4233
_cell_angle_alpha 89.877900
_cell_angle_beta 90.364900
_cell_angle_gamma 90.233800
loop_
  _atom_site_label
  _atom_site_type_symbol
  _atom_site_fract_x
  _atom_site_fract_y
  _atom_site_fract_z
Si1 Si 0.25123 0.24939 0.25229
 Si2 Si 0.75129 0.74894 0.24612
 Si3 Si 0.75047 0.25122 0.75041
 Si4 Si 0.25059 0.75290 0.74882
 C5 C 0.04138 0.04572 0.01185
 H6 H 0.04122 0.04834 -0.01292
 C7 C 0.05851 0.06430 0.03012
 H8 H 0.07177 0.08106 0.01925
 C9 C 0.02436 0.02054 0.05608
 H10 H 0.01067 0.00383 0.06622
 C11 C 0.04137 0.03845 0.07519
 H12 H 0.04064 0.03526 0.09989
 N13 N 0.02504 0.02413 0.02498
 C14 C 0.01506 -0.04461 -0.04396
 H15 H -0.00856 -0.04686 -0.04485
 C16 C 0.03260 -0.06279 -0.06188
 H17 H 0.02222 -0.07865 -0.07694
 C18 C 0.05712 -0.02100 -0.02330
 H19 H 0.06666 -0.00505 -0.00786
 C20 C 0.07548 -0.03878 -0.04072
 H21 H 0.09901 -0.03628 -0.03836
 Zn22 Zn 0.00249 -0.00016 -0.00152
 N23 N 0.02748 -0.02391 -0.02551
 C24 C -0.02200 0.02098 -0.05796
 N25 N -0.02055 0.02461 -0.02692
 C26 C -0.03517 0.04669 -0.01286
 C27 C -0.05223 0.06612 -0.03010
 C28 C -0.03923 0.03958 -0.07604
 C29 C -0.00917 -0.04584 0.03992
 C30 C -0.02634 -0.06484 0.05752
 C31 C -0.06972 -0.04221 0.03602
 C32 C -0.05172 -0.02341 0.01910
 N33 N -0.02203 -0.02534 0.02159
 H34 H -0.00998 0.00357 -0.06884
 H35 H -0.03336 0.04931 0.01184
 H36 H -0.06309 0.08388 -0.01837
 H37 H -0.04069 0.03563 -0.10056
 H38 H 0.01450 -0.04726 0.04099
 H39 H -0.01577 -0.08096 0.07211
 H40 H -0.09331 -0.04017 0.03410
 H41 H -0.06151 -0.00731 0.00401
 C42 C 0.06328 -0.05993 -0.06049
 C43 C 0.05882 0.06058 0.06221
 C44 C -0.05702 -0.06309 0.05571
 C45 C -0.05465 0.06264 -0.06219
 C46 C 0.04535 0.54167 0.51256
 H47 H 0.04823 0.54039 0.48788
 C48 C 0.06337 0.56004 0.53008
 H49 H 0.08040 0.57247 0.51868
 C50 C 0.01986 0.52643 0.55722
 H51 H 0.00250 0.51373 0.56762
 C52 C 0.03723 0.54471 0.57561
 H53 H 0.03294 0.54583 0.60006
 N54 N 0.02442 0.52499 0.52633
 C55 C 0.01245 0.45834 0.45545
 H56 H -0.01082 0.46011 0.45079
 C57 C 0.02960 0.43964 0.43773
 H58 H 0.01924 0.42800 0.41890
 C59 C 0.05381 0.47218 0.48528
 H60 H 0.06307 0.48448 0.50423
 C61 C 0.07159 0.45303 0.46884
 H62 H 0.09431 0.45088 0.47574
 Zn63 Zn 0.00094 0.50092 0.50060
 N64 N 0.02492 0.47496 0.47796
 C65 C -0.01909 0.52487 0.44309
 N66 N -0.02065 0.52627 0.47432
 C67 C -0.03759 0.54662 0.48837
 C68 C -0.05458 0.56598 0.47096
 C69 C -0.03610 0.54346 0.42477
 C70 C -0.01264 0.45922 0.54545
 C71 C -0.03039 0.44120 0.56351
 C72 C -0.07290 0.46056 0.53704
 C73 C -0.05433 0.47847 0.51971
 N74 N -0.02481 0.47766 0.52438
 H75 H -0.00477 0.50935 0.43217
 H76 H -0.03796 0.54771 0.51326
 H77 H -0.06759 0.58216 0.48278
 H78 H -0.03525 0.54110 0.40000
 H79 H 0.01095 0.45863 0.54826
 H80 H -0.02033 0.42665 0.58019
 H81 H -0.09637 0.46160 0.53324
 H82 H -0.06354 0.49279 0.50237
 C83 C 0.05977 0.43680 0.44414
 C84 C 0.05947 0.56174 0.56211
 C85 C -0.06094 0.44174 0.55939
 C86 C -0.05435 0.56433 0.43863
 C87 C 0.54229 0.04415 0.51064
 H88 H 0.54001 0.04808 0.48616
 C89 C 0.55973 0.06273 0.52858
 H90 H 0.57109 0.08081 0.51770
 C91 C 0.53038 0.01556 0.55447
 H92 H 0.51881 -0.00284 0.56441
 C93 C 0.54775 0.03347 0.57324
 H94 H 0.54919 0.02887 0.59768
 N95 N 0.52802 0.02116 0.52379
 C96 C 0.51488 -0.04849 0.45639
 H97 H 0.49136 -0.05153 0.45723
 C98 C 0.53179 -0.06679 0.43797
 H99 H 0.52104 -0.08351 0.42426
 C100 C 0.55742 -0.02318 0.47341
 H101 H 0.56741 -0.00639 0.48750
 C102 C 0.57514 -0.04088 0.45517
 H103 H 0.59867 -0.03756 0.45554
 Zn104 Zn 0.50398 -0.00283 0.49860
 N105 N 0.52781 -0.02707 0.47354
 C106 C 0.47363 0.01494 0.44403
 N107 N 0.48016 0.02190 0.47374
 C108 C 0.47030 0.04717 0.48647
 C109 C 0.45320 0.06656 0.46922
 C110 C 0.45628 0.03352 0.42607
 C111 C 0.48521 -0.05550 0.52710
 C112 C 0.46696 -0.07311 0.54506
 C113 C 0.43811 -0.03044 0.55704
 C114 C 0.45686 -0.01365 0.53874
 N115 N 0.47967 -0.02640 0.52391
 H116 H 0.48170 -0.00504 0.43409
 H117 H 0.47603 0.05246 0.51002
 H118 H 0.44620 0.08682 0.47972
 H119 H 0.45085 0.02712 0.40273
 H120 H 0.50394 -0.06511 0.51592
 H121 H 0.47179 -0.09620 0.54740
 H122 H 0.41974 -0.01999 0.56817
 H123 H 0.45305 0.00956 0.53617
 C124 C 0.56234 -0.06302 0.43712
 C125 C 0.56262 0.05748 0.56033
 C126 C 0.44292 -0.06065 0.56015
 C127 C 0.44586 0.05984 0.43855
 C128 C 0.53763 0.54343 0.01109
 H129 H 0.53843 0.54468 -0.01377
 C130 C 0.55523 0.56198 0.02889
 H131 H 0.56976 0.57737 0.01759
 C132 C 0.51773 0.52172 0.05601
 H133 H 0.50264 0.50649 0.06654
 C134 C 0.53525 0.53959 0.07469
 H135 H 0.53364 0.53780 0.09950
 N136 N 0.51955 0.52365 0.02480
 C137 C 0.50955 0.46123 -0.05015
 H138 H 0.48640 0.46331 -0.05529
 C139 C 0.52710 0.44339 -0.06842
 H140 H 0.51716 0.43265 -0.08807
 C141 C 0.55026 0.47360 -0.01863
 H142 H 0.55907 0.48505 0.00116
 C143 C 0.56842 0.45527 -0.03566
 H144 H 0.59100 0.45278 -0.02835
 Zn145 Zn 0.49666 0.49993 -0.00188
 N146 N 0.52146 0.47644 -0.02627
 C147 C 0.47883 0.52852 -0.05740
 N148 N 0.47399 0.52568 -0.02664
 C149 C 0.45347 0.54218 -0.01223
 C150 C 0.43576 0.56134 -0.02908
 C151 C 0.46183 0.54766 -0.07509
 C152 C 0.48540 0.45548 0.04089
 C153 C 0.46861 0.43635 0.05873
 C154 C 0.42505 0.45450 0.03328
 C155 C 0.44264 0.47354 0.01618
 N156 N 0.47220 0.47412 0.02070
 H157 H 0.49602 0.51618 -0.06829
 H158 H 0.45064 0.54015 0.01240
 H159 H 0.41932 0.57408 -0.01728
 H160 H 0.46562 0.54927 -0.09963
 H161 H 0.50902 0.45579 0.04341
 H162 H 0.47944 0.42191 0.07498
 H163 H 0.40151 0.45468 0.02981
 H164 H 0.43260 0.48771 -0.00076
 C165 C 0.55707 0.44001 -0.06127
 C166 C 0.55430 0.56001 0.06111
 C167 C 0.43801 0.43587 0.05516
 C168 C 0.43973 0.56409 -0.06098
 C169 C 0.19345 -0.18873 -0.18993
 C170 C 0.18521 -0.21780 -0.19605
 C171 C 0.20260 -0.23554 -0.21463
 C172 C 0.22853 -0.22454 -0.22765
 C173 C 0.23717 -0.19568 -0.22087
 C174 C 0.21970 -0.17790 -0.20242
 C175 C 0.17468 -0.16975 -0.17067
 C176 C 0.16942 -0.14056 -0.17922
 C177 C 0.15139 -0.12279 -0.16135
 C178 C 0.13832 -0.13377 -0.13443
 C179 C 0.14373 -0.16295 -0.12581
 C180 C 0.16166 -0.18076 -0.14376
 C181 C 0.11909 -0.11488 -0.11546
 C182 C 0.09356 -0.12633 -0.10191
 C183 C 0.07548 -0.10855 -0.08410
 C184 C 0.08246 -0.07888 -0.07945
 C185 C 0.10796 -0.06742 -0.09305
 C186 C 0.12607 -0.08521 -0.11079
 H187 H 0.16504 -0.22673 -0.18684
 H188 H 0.19546 -0.25776 -0.21872
 H189 H 0.25754 -0.18675 -0.22952
 H190 H 0.22693 -0.15577 -0.19755
 H191 H 0.17881 -0.13161 -0.20008
 H192 H 0.14729 -0.10057 -0.16892
 H193 H 0.13443 -0.17194 -0.10493
 H194 H 0.16567 -0.20305 -0.13637
 H195 H 0.08736 -0.14900 -0.10535
 H196 H 0.05619 -0.11816 -0.07368
 H197 H 0.11380 -0.04458 -0.09024
 H198 H 0.14574 -0.07578 -0.12060
 C199 C 0.18942 0.30800 0.31171
 C200 C 0.20526 0.32006 0.28692
 C201 C 0.22407 0.30273 0.26949
 C202 C 0.22702 0.27286 0.27599
 C203 C 0.21042 0.26037 0.29965
 C204 C 0.19234 0.27782 0.31779
 C205 C 0.17011 0.32677 0.33109
 C206 C 0.14521 0.31502 0.34569
 C207 C 0.12762 0.33245 0.36442
 C208 C 0.13383 0.36243 0.36840
 C209 C 0.15841 0.37428 0.35331
 C210 C 0.17650 0.35666 0.33538
 C211 C 0.11487 0.38121 0.38814
 C212 C 0.12662 0.40565 0.40365
 C213 C 0.10880 0.42369 0.42141
 C214 C 0.07879 0.41738 0.42514
 C215 C 0.06715 0.39255 0.41020
 C216 C 0.08479 0.37503 0.39163
 H217 H 0.20295 0.34286 0.28060
 H218 H 0.23587 0.31269 0.25061
 H219 H 0.21186 0.23715 0.30450
 H220 H 0.18102 0.26757 0.33681
 H221 H 0.13900 0.29234 0.34262
 H222 H 0.10931 0.32218 0.37596
 H223 H 0.16375 0.39731 0.35505
 H224 H 0.19570 0.36661 0.32518
 H225 H 0.14972 0.41095 0.40230
 H226 H 0.11871 0.44281 0.43188
 H227 H 0.04438 0.38640 0.41283
 H228 H 0.07459 0.35681 0.37976
 C229 C 0.68982 -0.19204 0.30529
 C230 C 0.71201 -0.17935 0.28721
 C231 C 0.73038 -0.19685 0.26945
 C232 C 0.72713 -0.22736 0.26966
 C233 C 0.70485 -0.24013 0.28732
 C234 C 0.68639 -0.22266 0.30504
 C235 C 0.67046 -0.17340 0.32437
 C236 C 0.66198 -0.18248 0.35398
 C237 C 0.64413 -0.16474 0.37210
 C238 C 0.63446 -0.13748 0.36107
 C239 C 0.64281 -0.12844 0.33144
 C240 C 0.66054 -0.14622 0.31327
 C241 C 0.61591 -0.11842 0.38049
 C242 C 0.62129 -0.08814 0.38201
 C243 C 0.60396 -0.07020 0.40044
 C244 C 0.58076 -0.08211 0.41761
 C245 C 0.57531 -0.11238 0.41600
 C246 C 0.59275 -0.13035 0.39772
 H247 H 0.71545 -0.15589 0.28711
 H248 H 0.74710 -0.18637 0.25571
 H249 H 0.70173 -0.26365 0.28739
 H250 H 0.66920 -0.23310 0.31824
 H251 H 0.66962 -0.20306 0.36342
 H252 H 0.63837 -0.17210 0.39501
 H253 H 0.63530 -0.10774 0.32215
 H254 H 0.66622 -0.13881 0.29036
 H255 H 0.63916 -0.07838 0.36922
 H256 H 0.60852 -0.04692 0.40100
 H257 H 0.55775 -0.12221 0.42920
 H258 H 0.58794 -0.15357 0.39679
 C259 C 0.68776 0.31003 -0.19131
 C260 C 0.70433 0.32206 -0.21556
 C261 C 0.72329 0.30461 -0.23268
 C262 C 0.72569 0.27464 -0.22642
 C263 C 0.70828 0.26217 -0.20339
 C264 C 0.69001 0.27973 -0.18554
 C265 C 0.66840 0.32899 -0.17220
 C266 C 0.64289 0.31764 -0.15841
 C267 C 0.62516 0.33531 -0.14008
 C268 C 0.63186 0.36513 -0.13567
 C269 C 0.65711 0.37657 -0.14987
 C270 C 0.67531 0.35870 -0.16740
 C271 C 0.61269 0.38419 -0.11645
 C272 C 0.62446 0.40826 -0.10030
 C273 C 0.60647 0.42646 -0.08289
 C274 C 0.57624 0.42069 -0.08021
 C275 C 0.56457 0.39630 -0.09590
 C276 C 0.58240 0.37862 -0.11408
 H277 H 0.70253 0.34495 -0.22170
 H278 H 0.73566 0.31462 -0.25111
 H279 H 0.70923 0.23888 -0.19879
 H280 H 0.67804 0.26947 -0.16697
 H281 H 0.63632 0.29511 -0.16187
 H282 H 0.60632 0.32534 -0.12919
 H283 H 0.66289 0.39946 -0.14774
 H284 H 0.69498 0.36832 -0.17693
 H285 H 0.64769 0.41310 -0.10082
 H286 H 0.61642 0.44524 -0.07179
 H287 H 0.54161 0.39055 -0.09407
 H288 H 0.57221 0.36073 -0.12649
 C289 C -0.18420 0.19539 -0.19020
 C290 C -0.20531 0.21303 -0.17578
 C291 C -0.22450 0.23025 -0.19323
 C292 C -0.22353 0.22962 -0.22545
 C293 C -0.20226 0.21256 -0.23997
 C294 C -0.18270 0.19572 -0.22258
 C295 C -0.16417 0.17650 -0.17162
 C296 C -0.15510 0.14911 -0.18284
 C297 C -0.13665 0.13120 -0.16527
 C298 C -0.12729 0.14001 -0.13588
 C299 C -0.13627 0.16724 -0.12452
 C300 C -0.15427 0.18542 -0.14230
 C301 C -0.10851 0.12063 -0.11696
 C302 C -0.11628 0.11381 -0.08657
 C303 C -0.09896 0.09491 -0.06890
 C304 C -0.07313 0.08282 -0.08105
 C305 C -0.06525 0.09010 -0.11144
 C306 C -0.08291 0.10856 -0.12928
 H307 H -0.20741 0.21322 -0.15097
 H308 H -0.24008 0.24381 -0.18133
 H309 H -0.20084 0.21219 -0.26486
 H310 H -0.16631 0.18310 -0.23456
 H311 H -0.16270 0.14114 -0.20495
 H312 H -0.13022 0.11012 -0.17434
 H313 H -0.12904 0.17459 -0.10201
 H314 H -0.16020 0.20657 -0.13311
 H315 H -0.13614 0.12264 -0.07674
 H316 H -0.10615 0.08941 -0.04590
 H317 H -0.04526 0.08181 -0.12143
 H318 H -0.07636 0.11377 -0.15259
 C319 C -0.18628 0.69193 0.30752
 C320 C -0.18208 0.69430 0.27551
 C321 C -0.20104 0.71114 0.25739
 C322 C -0.22425 0.72631 0.27089
 C323 C -0.22838 0.72442 0.30276
 C324 C -0.20978 0.70716 0.32086
 C325 C -0.16632 0.67364 0.32684
 C326 C -0.15946 0.68177 0.35733
 C327 C -0.14115 0.66434 0.37558
 C328 C -0.12883 0.63873 0.36360
 C329 C -0.13525 0.63069 0.33314
 C330 C -0.15400 0.64779 0.31504
 C331 C -0.10955 0.62022 0.38295
 C332 C -0.08209 0.61131 0.37213
 C333 C -0.06398 0.59363 0.39033
 C334 C -0.07320 0.58397 0.41955
 C335 C -0.10086 0.59294 0.43021
 C336 C -0.11869 0.61108 0.41222
 H337 H -0.16393 0.68347 0.26442
 H338 H -0.19740 0.71252 0.23280
 H339 H -0.24604 0.73600 0.31379
 H340 H -0.21410 0.70551 0.34528
 H341 H -0.16794 0.70179 0.36706
 H342 H -0.13623 0.67108 0.39896
 H343 H -0.12623 0.61082 0.32355
 H344 H -0.15920 0.64043 0.29196
 H345 H -0.07449 0.61838 0.34971
 H346 H -0.04263 0.58778 0.38156
 H347 H -0.10906 0.58552 0.45222
 H348 H -0.13996 0.61745 0.42087
 C349 C 0.31680 0.19321 0.31086
 C350 C 0.29725 0.21239 0.32550
 C351 C 0.27797 0.22966 0.30822
 C352 C 0.27739 0.22764 0.27604
 C353 C 0.29725 0.20913 0.26128
 C354 C 0.31679 0.19210 0.27848
 C355 C 0.33676 0.17419 0.32929
 C356 C 0.34323 0.14562 0.31943
 C357 C 0.36155 0.12755 0.33695
 C358 C 0.37350 0.13748 0.36491
 C359 C 0.36714 0.16596 0.37485
 C360 C 0.34913 0.18420 0.35714
 C361 C 0.39230 0.11802 0.38381
 C362 C 0.38746 0.11507 0.41556
 C363 C 0.40475 0.09617 0.43329
 C364 C 0.42752 0.08008 0.41972
 C365 C 0.43251 0.08341 0.38794
 C366 C 0.41496 0.10201 0.37017
 H367 H 0.29645 0.21373 0.35036
 H368 H 0.26358 0.24442 0.32022
 H369 H 0.29751 0.20772 0.23638
 H370 H 0.33199 0.17817 0.26636
 H371 H 0.33366 0.13694 0.29846
 H372 H 0.36585 0.10554 0.32898
 H373 H 0.37640 0.17423 0.39617
 H374 H 0.34513 0.20623 0.36518
 H375 H 0.36987 0.12692 0.42654
 H376 H 0.39988 0.09380 0.45753
 H377 H 0.45020 0.07189 0.37679
 H378 H 0.41934 0.10420 0.34578
 C379 C 0.30911 0.69451 -0.19055
 C380 C 0.29644 0.72000 -0.17840
 C381 C 0.27835 0.73766 -0.19665
 C382 C 0.27263 0.73026 -0.22747
 C383 C 0.28537 0.70494 -0.23972
 C384 C 0.30324 0.68716 -0.22142
 C385 C 0.32851 0.67578 -0.17119
 C386 C 0.35331 0.66232 -0.18391
 C387 C 0.37140 0.64453 -0.16583
 C388 C 0.36531 0.63992 -0.13449
 C389 C 0.34063 0.65356 -0.12171
 C390 C 0.32240 0.67118 -0.13985
 C391 C 0.38449 0.62080 -0.11531
 C392 C 0.37238 0.60241 -0.09264
 C393 C 0.39036 0.58425 -0.07483
 C394 C 0.42081 0.58386 -0.07945
 C395 C 0.43298 0.60221 -0.10203
 C396 C 0.41505 0.62058 -0.11966
 H397 H 0.30092 0.72662 -0.15492
 H398 H 0.26928 0.75727 -0.18659
 H399 H 0.28157 0.69885 -0.26352
 H400 H 0.31228 0.66750 -0.23143
 H401 H 0.35893 0.66571 -0.20785
 H402 H 0.38999 0.63408 -0.17656
 H403 H 0.33548 0.65082 -0.09757
 H404 H 0.30331 0.68092 -0.12937
 H405 H 0.34892 0.60161 -0.08903
 H406 H 0.38037 0.57002 -0.05785
 H407 H 0.45644 0.60261 -0.10578
 H408 H 0.42518 0.63484 -0.13649
 C409 C -0.18681 -0.19386 0.18482
 C410 C -0.20895 -0.21099 0.17111
 C411 C -0.22734 -0.22838 0.18921
 C412 C -0.22426 -0.22849 0.22135
 C413 C -0.20196 -0.21171 0.23508
 C414 C -0.18333 -0.19457 0.21699
 C415 C -0.16755 -0.17516 0.16563
 C416 C -0.13711 -0.17463 0.17069
 C417 C -0.11899 -0.15693 0.15259
 C418 C -0.13095 -0.13911 0.12925
 C419 C -0.16149 -0.13964 0.12434
 C420 C -0.17954 -0.15758 0.14222
 C421 C -0.11175 -0.11991 0.11026
 C422 C -0.11792 -0.11525 0.07884
 C423 C -0.10020 -0.09679 0.06115
 C424 C -0.07570 -0.08284 0.07438
 C425 C -0.06928 -0.08767 0.10564
 C426 C -0.08718 -0.10587 0.12342
 H427 H -0.21178 -0.21119 0.14633
 H428 H -0.24387 -0.24161 0.17793
 H429 H -0.19907 -0.21175 0.25986
 H430 H -0.16652 -0.18147 0.22815
 H431 H -0.12728 -0.18826 0.18836
 H432 H -0.09555 -0.15751 0.15666
 H433 H -0.17155 -0.12581 0.10701
 H434 H -0.20300 -0.15731 0.13813
 H435 H -0.13629 -0.12613 0.06777
 H436 H -0.10540 -0.09373 0.03699
 H437 H -0.05073 -0.07687 0.11649
 H438 H -0.08206 -0.10849 0.14765
 C439 C -0.19001 0.31029 0.68858
 C440 C -0.21031 0.29100 0.67489
 C441 C -0.22808 0.27306 0.69313
 C442 C -0.22615 0.27451 0.72532
 C443 C -0.20584 0.29361 0.73904
 C444 C -0.18785 0.31132 0.72085
 C445 C -0.17114 0.32931 0.66930
 C446 C -0.14108 0.33218 0.67590
 C447 C -0.12330 0.35026 0.65788
 C448 C -0.13523 0.36614 0.63302
 C449 C -0.16536 0.36322 0.62647
 C450 C -0.18308 0.34489 0.64432
 C451 C -0.11633 0.38572 0.61410
 C452 C -0.12093 0.38835 0.58214
 C453 C -0.10313 0.40673 0.56443
 C454 C -0.08015 0.42264 0.57821
 C455 C -0.07548 0.42005 0.61008
 C456 C -0.09345 0.40192 0.62786
 H457 H -0.21212 0.28950 0.65006
 H458 H -0.24314 0.25810 0.68195
 H459 H -0.20396 0.29489 0.76388
 H460 H -0.17253 0.32613 0.73199
 H461 H -0.13126 0.32009 0.69478
 H462 H -0.10010 0.35149 0.66322
 H463 H -0.17540 0.37548 0.60787
 H464 H -0.20627 0.34332 0.63898
 H465 H -0.13798 0.37584 0.57068
 H466 H -0.10695 0.40806 0.53983
 H467 H -0.05816 0.43239 0.62134
 H468 H -0.08963 0.40092 0.65247
 C469 C 0.30968 -0.18848 0.68892
 C470 C 0.27926 -0.18383 0.69008
 C471 C 0.26140 -0.20175 0.70822
 C472 C 0.27351 -0.22487 0.72543
 C473 C 0.30396 -0.22934 0.72451
 C474 C 0.32180 -0.21139 0.70643
 C475 C 0.32878 -0.16953 0.66963
 C476 C 0.35222 -0.18163 0.65316
 C477 C 0.37044 -0.16383 0.63531
 C478 C 0.36562 -0.13350 0.63342
 C479 C 0.34211 -0.12140 0.64980
 C480 C 0.32390 -0.13921 0.66770
 C481 C 0.38514 -0.11462 0.61451
 C482 C 0.39379 -0.08676 0.62498
 C483 C 0.41243 -0.06918 0.60732
 C484 C 0.42292 -0.07912 0.57886
 C485 C 0.41419 -0.10691 0.56833
 C486 C 0.39548 -0.12443 0.58592
 H487 H 0.26918 -0.16651 0.67669
 H488 H 0.23806 -0.19744 0.70882
 H489 H 0.31432 -0.24653 0.73774
 H490 H 0.34523 -0.21520 0.70653
 H491 H 0.35637 -0.20494 0.65385
 H492 H 0.38856 -0.17381 0.62329
 H493 H 0.33760 -0.09818 0.64856
 H494 H 0.30623 -0.12916 0.68037
 H495 H 0.38658 -0.07874 0.64711
 H496 H 0.41908 -0.04803 0.61621
 H497 H 0.42152 -0.11495 0.54625
 H498 H 0.38882 -0.14554 0.57693
 C499 C 0.31051 0.30696 0.18871
 C500 C 0.31274 0.30886 0.22093
 C501 C 0.29474 0.29169 0.23968
 C502 C 0.27438 0.27226 0.22656
 C503 C 0.27240 0.26995 0.19443
 C504 C 0.29015 0.28735 0.17564
 C505 C 0.32941 0.32532 0.16879
 C506 C 0.31743 0.34026 0.14341
 C507 C 0.33517 0.35790 0.12485
 C508 C 0.36538 0.36075 0.13107
 C509 C 0.37734 0.34551 0.15636
 C510 C 0.35953 0.32813 0.17510
 C511 C 0.38424 0.37972 0.11146
 C512 C 0.40724 0.39621 0.12459
 C513 C 0.42485 0.41417 0.10624
 C514 C 0.41969 0.41630 0.07441
 C515 C 0.39674 0.39992 0.06122
 C516 C 0.37931 0.38170 0.07950
 H517 H 0.32813 0.32391 0.23159
 H518 H 0.29670 0.29359 0.26447
 H519 H 0.25739 0.25465 0.18371
 H520 H 0.28833 0.28516 0.15087
 H521 H 0.29420 0.33874 0.13828
 H522 H 0.32509 0.36972 0.10595
 H523 H 0.40058 0.34671 0.16150
 H524 H 0.36937 0.31651 0.19430
 H525 H 0.41133 0.39569 0.14917
 H526 H 0.44215 0.42689 0.11705
 H527 H 0.39254 0.40091 0.03666
 H528 H 0.36217 0.36892 0.06851
 C529 C 0.18827 0.18905 0.19509
 C530 C 0.20837 0.17675 0.21611
 C531 C 0.22720 0.19462 0.23335
 C532 C 0.22628 0.22510 0.22989
 C533 C 0.20575 0.23754 0.20968
 C534 C 0.18709 0.21972 0.19221
 C535 C 0.16883 0.17001 0.17605
 C536 C 0.13986 0.17842 0.16920
 C537 C 0.12183 0.16073 0.15084
 C538 C 0.13227 0.13412 0.13915
 C539 C 0.16110 0.12557 0.14613
 C540 C 0.17922 0.14336 0.16426
 C541 C 0.11320 0.11536 0.11963
 C542 C 0.11199 0.08498 0.12456
 C543 C 0.09416 0.06725 0.10606
 C544 C 0.07740 0.07951 0.08206
 C545 C 0.07866 0.10989 0.07708
 C546 C 0.09627 0.12767 0.09580
 H547 H 0.20938 0.15328 0.21946
 H548 H 0.24227 0.18451 0.24944
 H549 H 0.20448 0.26109 0.20703
 H550 H 0.17212 0.22996 0.17606
 H551 H 0.13097 0.19853 0.17834
 H552 H 0.09955 0.16765 0.14613
 H553 H 0.16982 0.10534 0.13707
 H554 H 0.20157 0.13646 0.16856
 H555 H 0.12466 0.07498 0.14293
 H556 H 0.09377 0.04387 0.11023
 H557 H 0.06579 0.11991 0.05889
 H558 H 0.09698 0.15100 0.09136
 C559 C 0.19094 0.69302 0.69044
 C560 C 0.19730 0.68622 0.72129
 C561 C 0.21539 0.70455 0.73885
 C562 C 0.22767 0.73002 0.72592
 C563 C 0.22165 0.73652 0.69488
 C564 C 0.20331 0.71833 0.67741
 C565 C 0.17146 0.67379 0.67188
 C566 C 0.14947 0.68588 0.65304
 C567 C 0.13106 0.66778 0.63556
 C568 C 0.13439 0.63718 0.63632
 C569 C 0.15648 0.62515 0.65518
 C570 C 0.17472 0.64325 0.67286
 C571 C 0.11500 0.61793 0.61742
 C572 C 0.10542 0.59071 0.62882
 C573 C 0.08745 0.57253 0.61093
 C574 C 0.07844 0.58118 0.58125
 C575 C 0.08786 0.60849 0.56995
 C576 C 0.10600 0.62658 0.58775
 H577 H 0.18793 0.66692 0.73198
 H578 H 0.21974 0.69869 0.76262
 H579 H 0.23089 0.75552 0.68374
 H580 H 0.19910 0.72385 0.65352
 H581 H 0.14623 0.70934 0.65219
 H582 H 0.11394 0.67778 0.62177
 H583 H 0.16003 0.60174 0.65591
 H584 H 0.19175 0.63339 0.68691
 H585 H 0.11160 0.58352 0.65172
 H586 H 0.08093 0.55150 0.62024
 H587 H 0.08104 0.61606 0.54739
 H588 H 0.11324 0.64721 0.57806
 C589 C 0.68936 0.19003 0.69206
 C590 C 0.70992 0.17795 0.71269
 C591 C 0.72823 0.19610 0.73023
 C592 C 0.72632 0.22661 0.72740
 C593 C 0.70542 0.23875 0.70739
 C594 C 0.68723 0.22064 0.68968
 C595 C 0.67036 0.17076 0.67295
 C596 C 0.66552 0.17712 0.64167
 C597 C 0.64795 0.15879 0.62353
 C598 C 0.63467 0.13375 0.63630
 C599 C 0.63942 0.12750 0.66766
 C600 C 0.65713 0.14576 0.68576
 C601 C 0.61607 0.11418 0.61694
 C602 C 0.61703 0.08363 0.62085
 C603 C 0.59962 0.06525 0.60258
 C604 C 0.58097 0.07698 0.57987
 C605 C 0.57999 0.10750 0.57592
 C606 C 0.59727 0.12589 0.59430
 H607 H 0.71214 0.15445 0.71490
 H608 H 0.74379 0.18617 0.74591
 H609 H 0.70332 0.26229 0.70530
 H610 H 0.67128 0.23057 0.67435
 H611 H 0.67579 0.19601 0.63108
 H612 H 0.64519 0.16397 0.59935
 H613 H 0.62912 0.10869 0.67836
 H614 H 0.66015 0.14055 0.70991
 H615 H 0.63162 0.07385 0.63770
 H616 H 0.60113 0.04179 0.60584
 H617 H 0.56549 0.11718 0.55891
 H618 H 0.59560 0.14933 0.59105
 C619 C 0.68825 0.68915 0.18824
 C620 C 0.70888 0.67672 0.20861
 C621 C 0.72796 0.69448 0.22566
 C622 C 0.72670 0.72500 0.22282
 C623 C 0.70585 0.73757 0.20308
 C624 C 0.68699 0.71985 0.18570
 C625 C 0.66815 0.67017 0.16982
 C626 C 0.63914 0.67889 0.16355
 C627 C 0.62038 0.66112 0.14609
 C628 C 0.63007 0.63407 0.13484
 C629 C 0.65892 0.62519 0.14120
 C630 C 0.67780 0.64311 0.15831
 C631 C 0.61023 0.61521 0.11634
 C632 C 0.60794 0.58512 0.12269
 C633 C 0.58944 0.56727 0.10502
 C634 C 0.57322 0.57910 0.08040
 C635 C 0.57551 0.60919 0.07405
 C636 C 0.59368 0.62712 0.09200
 H637 H 0.71004 0.65324 0.21176
 H638 H 0.74342 0.68423 0.24125
 H639 H 0.70431 0.76115 0.20092
 H640 H 0.67167 0.73023 0.17002
 H641 H 0.63074 0.69928 0.17251
 H642 H 0.59812 0.66830 0.14177
 H643 H 0.66702 0.60460 0.13242
 H644 H 0.70013 0.63592 0.16211
 H645 H 0.62033 0.57547 0.14147
 H646 H 0.58820 0.54410 0.11024
 H647 H 0.56307 0.61886 0.05532
 H648 H 0.59522 0.65022 0.08653
   
