data_POSCAR
  _audit_creation_date              2014-09-24
  _audit_creation_method            'ToBaCCo'
  _symmetry_space_group_name_H-M    'P1'
  _symmetry_Int_Tables_number       1
  _symmetry_cell_setting            triclinic
  loop_
  _symmetry_equiv_pos_as_xyz
 x,y,z
_cell_length_a 17.0339
_cell_length_b 17.6061
_cell_length_c 17.6464
_cell_angle_alpha 89.611000
_cell_angle_beta 90.400500
_cell_angle_gamma 91.139400
loop_
  _atom_site_label
  _atom_site_type_symbol
  _atom_site_fract_x
  _atom_site_fract_y
  _atom_site_fract_z
Si1 Si 1.25916 0.24074 0.25126
 Si2 Si 0.75079 -0.23316 0.26509
 Si3 Si 0.73744 0.25953 -0.24955
 Si4 Si 1.22954 -0.25253 -0.24237
 Si5 Si 0.25167 0.26349 0.75122
 Si6 Si 0.76678 0.73875 0.75354
 Si7 Si 0.73806 0.23875 0.24135
 Si8 Si 0.25734 0.76523 0.25165
 O9 O 1.17092 0.06776 0.02581
 O10 O 0.84333 -0.08239 0.03343
 O11 O 0.93322 0.12597 0.09441
 O12 O 1.07501 -0.09147 0.11682
 O13 O 0.84157 0.05715 0.03737
 O14 O 1.16578 -0.06975 0.03629
 O15 O 0.93359 -0.09700 0.11543
 O16 O 1.08056 0.10848 0.09927
 C17 C 1.15114 0.10032 0.08601
 C18 C 0.86312 -0.09947 0.09907
 C19 C 0.86284 0.10393 0.08773
 C20 C 1.14579 -0.09331 0.10056
 O21 O 1.09398 -0.07653 -0.10289
 O22 O 0.87831 0.06351 -0.10678
 O23 O 1.08872 0.15214 -0.04782
 O24 O 0.93542 -0.16273 -0.02524
 O25 O 0.89922 -0.07777 -0.10664
 O26 O 1.10597 0.05489 -0.11605
 O27 O 1.07711 -0.16061 -0.01804
 O28 O 0.94252 0.15568 -0.05007
 Co29 Co 1.12355 -0.00574 -0.03538
 Co30 Co 0.87973 -0.00962 -0.03218
 Co31 Co 1.01171 0.12208 0.02222
 Co32 Co 1.00503 -0.11705 0.04317
 O33 O 1.00481 -0.00148 0.00089
 C34 C 1.09431 -0.14392 -0.08430
 C35 C 0.89542 0.13248 -0.10031
 C36 C 1.10692 0.12429 -0.11062
 C37 C 0.90879 -0.14553 -0.09004
 O38 O 1.15968 0.56204 0.53951
 O39 O 0.85651 0.46920 0.56636
 O40 O 0.92610 0.60292 0.58559
 O41 O 1.02994 0.37460 0.58992
 O42 O 0.83668 0.59312 0.50778
 O43 O 1.14250 0.42433 0.55068
 O44 O 0.89696 0.36156 0.53758
 O45 O 1.06211 0.61880 0.59055
 C46 C 1.13267 0.60284 0.59018
 C47 C 0.86506 0.40294 0.58458
 C48 C 0.85807 0.61700 0.57016
 C49 C 1.10156 0.38855 0.60110
 O50 O 1.11731 0.42848 0.38829
 O51 O 0.87930 0.53945 0.37626
 O52 O 1.07008 0.65458 0.44520
 O53 O 0.96168 0.36718 0.39710
 O54 O 0.85003 0.41062 0.42257
 O55 O 1.13592 0.56606 0.39201
 O56 O 1.08665 0.34111 0.46155
 O57 O 0.93140 0.64200 0.42643
 Co58 Co 1.12577 0.49401 0.46891
 Co59 Co 0.87160 0.50151 0.47047
 Co60 Co 0.99608 0.61785 0.50942
 Co61 Co 0.99308 0.37533 0.49439
 O62 O 0.99888 0.49845 0.48490
 C63 C 1.11830 0.36011 0.40224
 C64 C 0.89555 0.60876 0.37186
 C65 C 1.11821 0.63472 0.39666
 C66 C 0.89171 0.37162 0.38062
 O67 O 0.65369 0.07309 0.55560
 O68 O 0.35089 -0.07842 0.58565
 O69 O 0.41947 0.14690 0.53585
 O70 O 0.58741 -0.15367 0.58107
 O71 O 0.36683 0.05440 0.59464
 O72 O 0.62948 -0.04495 0.61012
 O73 O 0.45964 -0.12158 0.62950
 O74 O 0.55086 0.13013 0.58972
 C75 C 0.62005 0.11356 0.60237
 C76 C 0.38885 -0.11026 0.63827
 C77 C 0.37990 0.12356 0.59034
 C78 C 0.62743 -0.11288 0.62444
 O79 O 0.63710 -0.10964 0.46753
 O80 O 0.35957 0.07029 0.43887
 O81 O 0.60451 0.12266 0.44532
 O82 O 0.39660 -0.15952 0.49481
 O83 O 0.36222 -0.06666 0.42758
 O84 O 0.63393 0.01159 0.41363
 O85 O 0.52449 -0.15472 0.43926
 O86 O 0.47311 0.10878 0.40020
 Co87 Co 0.62603 -0.01703 0.51196
 Co88 Co 0.37283 -0.00579 0.51144
 Co89 Co 0.51109 0.11316 0.49526
 Co90 Co 0.49336 -0.13330 0.53382
 O91 O 0.50059 -0.01044 0.51297
 C92 C 0.59371 -0.14489 0.42211
 C93 C 0.40178 0.10216 0.38904
 C94 C 0.63352 0.07958 0.39785
 C95 C 0.36550 -0.13642 0.43544
 O96 O 0.66464 0.58104 0.04538
 O97 O 0.33514 0.43368 0.04721
 O98 O 0.43156 0.65884 0.07186
 O99 O 0.56778 0.35918 0.06292
 O100 O 0.36739 0.55589 0.09865
 O101 O 0.62751 0.46070 0.09748
 O102 O 0.43601 0.38407 0.09572
 O103 O 0.56842 0.62900 0.10106
 C104 C 0.63988 0.61789 0.09954
 C105 C 0.36444 0.39297 0.09735
 C106 C 0.38199 0.62331 0.11277
 C107 C 0.61121 0.39363 0.10965
 O108 O 0.63589 0.40167 -0.04372
 O109 O 0.36041 0.61715 -0.03960
 O110 O 0.60310 0.64033 -0.05390
 O111 O 0.39407 0.37929 -0.05614
 O112 O 0.35909 0.48960 -0.09316
 O113 O 0.63143 0.52903 -0.09373
 O114 O 0.52397 0.38079 -0.08894
 O115 O 0.47162 0.64967 -0.08099
 Co116 Co 0.62478 0.49456 0.00185
 Co117 Co 0.37002 0.52251 0.00328
 Co118 Co 0.51676 0.63199 0.00994
 Co119 Co 0.48251 0.38808 0.00386
 O120 O 0.49812 0.50943 0.00518
 C121 C 0.59474 0.37524 -0.09589
 C122 C 0.40040 0.64900 -0.08966
 C123 C 0.62999 0.59821 -0.10478
 C124 C 0.36324 0.42079 -0.10563
 C125 C 1.18816 0.19105 0.18491
 C126 C 1.20979 0.13710 0.13639
 H127 H 1.12744 0.20759 0.18869
 H128 H 1.27102 0.12249 0.13172
 C129 C 1.15785 0.68254 0.69793
 C130 C 1.18581 0.63622 0.64637
 H131 H 1.19388 0.71518 0.72801
 H132 H 1.24868 0.63052 0.63931
 C133 C 0.65035 0.20927 0.70002
 C134 C 0.66710 0.14567 0.66407
 H135 H 0.59693 0.23941 0.68770
 H136 H 0.72405 0.12061 0.67306
 C137 C 0.67686 0.70413 0.20321
 C138 C 0.69684 0.65331 0.15203
 H139 H 0.72388 0.72603 0.23111
 H140 H 0.75845 0.64119 0.14397
 C141 C 0.82695 -0.18201 0.20415
 C142 C 0.80537 -0.13279 0.15096
 H143 H 0.88804 -0.19596 0.21264
 H144 H 0.74365 -0.12234 0.14113
 C145 C 0.80587 0.30208 0.66952
 C146 C 0.82839 0.37397 0.65389
 H147 H 0.74898 0.30107 0.69993
 H148 H 0.84386 0.31415 0.65065
 C149 C 0.28805 -0.19545 0.68452
 C150 C 0.34779 -0.14846 0.70090
 H151 H 0.26775 -0.20082 0.62639
 H152 H 0.37095 -0.14488 0.75808
 C153 C 0.33511 0.29266 0.19241
 C154 C 0.31247 0.35091 0.14933
 H155 H 0.39508 0.27346 0.19203
 H156 H 0.25121 0.36642 0.14879
 C157 C 0.79300 0.17688 -0.19604
 C158 C 0.85707 0.18790 -0.15027
 H159 H 0.76435 0.22438 -0.22429
 H160 H 0.81670 0.14861 -0.17755
 C161 C 0.81316 0.71069 0.33310
 C162 C 0.85786 0.65341 0.31232
 H163 H 0.81066 0.72714 0.39212
 H164 H 0.85692 0.63349 0.25441
 C165 C 0.29827 0.17224 0.32717
 C166 C 0.36859 0.14175 0.32333
 H167 H 0.27917 0.20744 0.28412
 H168 H 0.40668 0.15541 0.27599
 C169 C 0.28874 0.69457 -0.16166
 C170 C 0.36585 0.69216 -0.15249
 H171 H 0.27166 0.73601 -0.19803
 H172 H 0.40437 0.72515 -0.18934
 C173 C 1.16725 -0.17972 -0.19463
 C174 C 1.12545 -0.20070 -0.13457
 H175 H 1.17343 -0.12085 -0.21220
 H176 H 1.12292 -0.25977 -0.11684
 C177 C 1.20450 0.31928 0.29914
 C178 C 1.15581 0.30262 0.35552
 H179 H 1.21575 0.37776 0.28251
 H180 H 1.14676 0.24365 0.37187
 C181 C 0.69918 -0.16520 0.33602
 C182 C 0.62560 -0.18061 0.35528
 H183 H 0.72456 -0.18554 0.28994
 H184 H 0.58993 -0.22139 0.32389
 C185 C 0.70159 0.32977 -0.17558
 C186 C 0.62566 0.33202 -0.15926
 H187 H 0.74463 0.36233 -0.14329
 H188 H 0.58377 0.29900 -0.19227
 C189 C 1.17526 0.23509 -0.17226
 C190 C 1.14025 0.16693 -0.17576
 H191 H 1.17193 0.26893 -0.12144
 H192 H 1.14749 0.13453 -0.22718
 C193 C 1.21589 0.68609 0.30374
 C194 C 1.14988 0.69262 0.34950
 H195 H 1.24868 0.63434 0.30831
 H196 H 1.12397 0.74825 0.35310
 C197 C 0.66179 0.17920 0.29892
 C198 C 0.67340 0.10997 0.33066
 H199 H 0.71004 0.20915 0.26895
 H200 H 0.63139 0.15322 0.31614
 C201 C 0.71465 0.69014 -0.16344
 C202 C 0.66841 0.62974 -0.17150
 H203 H 0.74127 0.71406 -0.21000
 H204 H 0.66251 0.60125 -0.22558
 C205 C 0.83548 -0.18754 -0.20323
 C206 C 0.87648 -0.20481 -0.14048
 H207 H 0.83361 -0.12976 -0.22422
 H208 H 0.87723 -0.26309 -0.12037
 C209 C 0.78196 0.31571 0.30613
 C210 C 0.85883 0.32252 0.32043
 H211 H 0.74097 0.35005 0.33679
 H212 H 0.89945 0.28684 0.29134
 C213 C 0.30079 -0.16781 0.31409
 C214 C 0.33330 -0.18854 0.38369
 H215 H 0.30227 -0.10879 0.29637
 H216 H 0.33502 -0.24835 0.39855
 C217 C 0.33006 0.31437 -0.18842
 C218 C 0.32192 0.38729 -0.17074
 H219 H 0.37172 0.27936 -0.15832
 H220 H 0.27889 0.42117 -0.20035
 C221 C 1.18303 -0.18388 0.20262
 C222 C 1.20164 -0.13012 0.14611
 H223 H 1.12241 -0.19414 0.21832
 H224 H 1.26264 -0.12377 0.12970
 C225 C 1.20995 0.33270 0.67262
 C226 C 1.13635 0.35584 0.67007
 H227 H 1.22681 0.30823 0.72196
 H228 H 1.09718 0.34076 0.71624
 C229 C 0.68960 -0.21823 0.68952
 C230 C 0.68063 -0.14388 0.68188
 H231 H 0.65240 -0.25748 0.65794
 H232 H 0.71662 -0.10468 0.71459
 C233 C 0.67940 0.28538 0.16365
 C234 C 0.65216 0.35506 0.17151
 H235 H 0.66688 0.25307 0.11283
 H236 H 0.66730 0.38774 0.22141
 C237 C 0.81863 0.18669 0.19046
 C238 C 0.80222 0.13392 0.13841
 H239 H 0.87855 0.20634 0.19818
 H240 H 0.74173 0.11584 0.12927
 C241 C 0.82790 0.67584 0.69221
 C242 C 0.80691 0.65917 0.62083
 H243 H 0.88280 0.65607 0.71569
 H244 H 0.75139 0.67753 0.59799
 C245 C 0.29299 0.17003 0.70128
 C246 C 0.34512 0.17859 0.64289
 H247 H 0.27685 0.21423 0.74101
 H248 H 0.30763 0.14094 0.67536
 C249 C 0.32967 0.73341 0.18621
 C250 C 0.33564 0.65629 0.16875
 H251 H 0.36646 0.77514 0.15745
 H252 H 0.29522 0.61702 0.19607
   
