data_POSCAR
  _audit_creation_date              2014-09-24
  _audit_creation_method            'ToBaCCo'
  _symmetry_space_group_name_H-M    'P1'
  _symmetry_Int_Tables_number       1
  _symmetry_cell_setting            triclinic
  loop_
  _symmetry_equiv_pos_as_xyz
 x,y,z
_cell_length_a 35.0073
_cell_length_b 35.4115
_cell_length_c 36.2945
_cell_angle_alpha 89.959300
_cell_angle_beta 89.608700
_cell_angle_gamma 89.778700
loop_
  _atom_site_label
  _atom_site_type_symbol
  _atom_site_fract_x
  _atom_site_fract_y
  _atom_site_fract_z
N1 N 0.36681 0.34551 0.33099
 N2 N 0.32620 0.84680 -0.15473
 N3 N 0.86223 0.35885 -0.15504
 N4 N 0.84676 0.84099 0.35925
 N5 N 0.65272 0.66214 0.36249
 N6 N 0.64715 0.16152 -0.14667
 N7 N 0.15616 0.65142 -0.15016
 N8 N 0.15027 0.15938 0.34558
 N9 N 0.65773 0.35136 0.66229
 N10 N 0.65800 0.85119 1.15428
 N11 N 0.14613 0.33593 1.14855
 N12 N 0.15675 0.84890 0.63687
 N13 N 0.33621 0.65559 0.63908
 N14 N 0.35660 0.15110 1.16035
 N15 N 0.82872 0.64373 1.15135
 N16 N 0.84374 0.15181 0.67556
 N17 N 0.35483 0.35951 0.63901
 N18 N 0.34584 0.84722 0.15395
 N19 N 0.83791 0.35398 0.15765
 N20 N 0.84848 0.85755 0.66126
 N21 N 0.64488 0.65355 0.65955
 N22 N 0.67594 0.14470 0.13970
 N23 N 0.14530 0.64495 0.14972
 N24 N 0.16324 0.16153 0.63727
 N25 N 0.34730 0.64670 0.33345
 N26 N 0.34712 0.14548 0.84395
 N27 N 0.85101 0.66319 0.84637
 N28 N 0.84645 0.14955 0.36195
 N29 N 0.66292 0.33252 0.35938
 N30 N 0.63702 0.84401 0.85137
 N31 N 0.17194 0.34094 0.84480
 N32 N 0.13891 0.84614 0.33851
 O33 O 0.24867 1.02897 0.31284
 O34 O 0.30178 0.96118 0.25806
 O35 O 0.30255 1.03227 0.26370
 O36 O 0.23541 0.95709 0.29410
 O37 O 0.19789 0.97152 0.24756
 O38 O 0.26501 1.04352 0.21624
 O39 O 0.26348 0.96993 0.21066
 O40 O 0.21112 1.04266 0.26605
 Cu41 Cu 0.27469 0.99314 0.28706
 Cu42 Cu 0.23054 1.00781 0.23078
 C43 C 0.22187 1.04829 0.29916
 C44 C 0.29273 0.95426 0.22516
 C45 C 0.29515 1.05029 0.23408
 C46 C 0.20494 0.95171 0.27570
 O47 O 0.23568 0.54039 0.78045
 O48 O 0.29095 0.47423 0.72145
 O49 O 0.28144 0.54820 0.72571
 O50 O 0.25873 0.47106 0.78810
 O51 O 0.20919 0.45567 0.75396
 O52 O 0.23059 0.53640 0.69194
 O53 O 0.23918 0.46426 0.68843
 O54 O 0.18417 0.52555 0.74894
 Cu55 Cu 0.27171 0.50899 0.75663
 Cu56 Cu 0.21061 0.49448 0.71795
 C57 C 0.20006 0.54414 0.77424
 C58 C 0.27429 0.45886 0.69415
 C59 C 0.26061 0.55561 0.69826
 C60 C 0.23056 0.44986 0.78185
 O61 O 0.76419 -0.03299 0.29355
 O62 O 0.73283 0.03786 0.22704
 O63 O 0.72607 -0.03561 0.23167
 O64 O 0.77449 0.03860 0.28600
 O65 O 0.82745 0.02715 0.25447
 O66 O 0.77820 -0.04265 0.19773
 O67 O 0.78582 0.03009 0.19456
 O68 O 0.81569 -0.04521 0.26008
 Cu69 Cu 0.74401 0.00275 0.26266
 Cu70 Cu 0.80706 -0.00859 0.22347
 C71 C 0.79517 -0.05093 0.28864
 C72 C 0.75382 0.04653 0.19975
 C73 C 0.74386 -0.05119 0.20495
 C74 C 0.80970 0.04482 0.27974
 O75 O 0.78194 0.47204 0.78029
 O76 O 0.72324 0.54244 0.73112
 O77 O 0.72752 0.46866 0.73188
 O78 O 0.77781 0.54579 0.78005
 O79 O 0.82103 0.54686 0.73543
 O80 O 0.77093 0.47091 0.68748
 O81 O 0.76630 0.54338 0.68635
 O82 O 0.82521 0.47470 0.73576
 Cu83 Cu 0.74824 0.50716 0.76039
 Cu84 Cu 0.80011 0.50933 0.70673
 C85 C 0.81373 0.46170 0.76643
 C86 C 0.73463 0.55426 0.69990
 C87 C 0.74078 0.45684 0.70128
 C88 C 0.80849 0.55879 0.76617
 O89 O 0.23445 0.45414 0.19389
 O90 O 0.29851 0.52858 0.22911
 O91 O 0.30131 0.45544 0.22587
 O92 O 0.23305 0.52848 0.19555
 O93 O 0.20257 0.52561 0.24896
 O94 O 0.27134 0.45278 0.27953
 O95 O 0.26778 0.52708 0.28243
 O96 O 0.20436 0.45303 0.24755
 Cu97 Cu 0.26966 0.49180 0.20564
 Cu98 Cu 0.23383 0.48919 0.27015
 C99 C 0.20818 0.44128 0.21474
 C100 C 0.29368 0.54073 0.26175
 C101 C 0.29807 0.44181 0.25806
 C102 C 0.20635 0.53956 0.21691
 O103 O 0.76322 1.04138 0.73257
 O104 O 0.69582 0.97000 0.76217
 O105 O 0.70790 1.04118 0.78025
 O106 O 0.76244 0.96883 0.72728
 O107 O 0.80097 0.96348 0.77496
 O108 O 0.74222 1.02724 0.82929
 O109 O 0.73288 0.95548 0.80905
 O110 O 0.79687 1.03483 0.78352
 Cu111 Cu 0.72860 1.00601 0.74605
 Cu112 Cu 0.77091 0.99301 0.80412
 C113 C 0.79071 1.05121 0.75279
 C114 C 0.70280 0.95000 0.79011
 C115 C 0.71651 1.04670 0.81397
 C116 C 0.79251 0.95538 0.74213
 O117 O 0.77003 0.45859 0.24882
 O118 O 0.72291 0.53475 0.30441
 O119 O 0.72485 0.46063 0.30835
 O120 O 0.78210 0.53007 0.26038
 O121 O 0.73750 0.53789 0.21825
 O122 O 0.68050 0.46284 0.26541
 O123 O 0.67761 0.53695 0.26246
 O124 O 0.72570 0.46694 0.20660
 Cu125 Cu 0.75381 0.49514 0.28430
 Cu126 Cu 0.70100 0.50144 0.23455
 C127 C 0.75605 0.45111 0.21721
 C128 C 0.69152 0.54846 0.29238
 C129 C 0.69332 0.44959 0.29568
 C130 C 0.77039 0.54578 0.23130
 O131 O 0.22394 -0.03155 0.79096
 O132 O 0.20330 0.04857 0.72821
 O133 O 0.18078 -0.02314 0.73438
 O134 O 0.23427 0.03859 0.79463
 O135 O 0.28611 0.03106 0.76023
 O136 O 0.23281 -0.03608 0.70188
 O137 O 0.25441 0.03450 0.69499
 O138 O 0.27677 -0.04208 0.75891
 Cu139 Cu 0.20536 0.01013 0.76410
 Cu140 Cu 0.26763 -0.00422 0.72573
 C141 C 0.25472 -0.05014 0.78559
 C142 C 0.22523 0.05486 0.70068
 C143 C 0.19738 -0.04093 0.70861
 C144 C 0.26909 0.04533 0.78816
 O145 O 0.25290 0.28401 0.96457
 O146 O 0.30005 0.23243 1.04268
 O147 O 0.31297 0.23876 0.97167
 O148 O 0.25561 0.29230 1.03596
 O149 O 0.21103 0.24840 1.03759
 O150 O 0.26708 0.19681 0.96505
 O151 O 0.25616 0.18832 1.03702
 O152 O 0.20710 0.24136 0.96713
 Cu153 Cu 0.28455 0.26579 1.00385
 Cu154 Cu 0.23165 0.21437 1.00160
 C155 C 0.22074 0.27126 0.95358
 C156 C 0.28570 0.20074 1.05248
 C157 C 0.30009 0.20958 0.95634
 C158 C 0.22384 0.28051 1.04775
 O159 O 0.25161 0.80490 0.44586
 O160 O 0.30981 0.75147 0.51003
 O161 O 0.29262 0.74057 0.43896
 O162 O 0.26027 0.80385 0.51443
 O163 O 0.21091 0.76618 0.52362
 O164 O 0.24498 0.70201 0.45163
 O165 O 0.26145 0.71321 0.52157
 O166 O 0.20387 0.76472 0.45238
 Cu167 Cu 0.28363 0.77780 0.47508
 Cu168 Cu 0.22567 0.73246 0.48799
 C169 C 0.21786 0.79484 0.43865
 C170 C 0.29536 0.72436 0.52798
 C171 C 0.27448 0.71007 0.43298
 C172 C 0.22965 0.79552 0.53179
 O173 O 0.30778 0.75178 -0.02536
 O174 O 0.25689 0.69143 0.03976
 O175 O 0.26265 0.69354 -0.03101
 O176 O 0.29537 0.75457 0.04540
 O177 O 0.24509 0.79132 0.03684
 O178 O 0.21080 0.72896 -0.03562
 O179 O 0.20597 0.72827 0.03611
 O180 O 0.25584 0.78614 -0.03423
 Cu181 Cu 0.28586 0.71939 0.00793
 Cu182 Cu 0.22429 0.76232 0.00044
 C183 C 0.29059 0.77845 -0.04164
 C184 C 0.22287 0.69924 0.04898
 C185 C 0.23081 0.70106 -0.04615
 C186 C 0.27589 0.78391 0.05348
 O187 O 0.29970 0.27023 0.44589
 O188 O 0.24525 0.21977 0.51940
 O189 O 0.24307 0.22201 0.44723
 O190 O 0.30786 0.26037 0.51703
 O191 O 0.26886 0.30867 0.52613
 O192 O 0.20567 0.27201 0.45323
 O193 O 0.20680 0.26923 0.52365
 O194 O 0.26291 0.32012 0.45531
 Cu195 Cu 0.27780 0.23823 0.48169
 Cu196 Cu 0.23260 0.29754 0.49001
 C197 C 0.29050 0.30429 0.43866
 C198 C 0.21604 0.23616 0.53337
 C199 C 0.21316 0.24015 0.43855
 C200 C 0.29930 0.29061 0.53387
 O201 O 0.73694 0.79091 0.96983
 O202 O 0.77602 0.72464 1.03742
 O203 O 0.78321 0.73262 0.96555
 O204 O 0.73077 0.78205 1.04030
 O205 O 0.68077 0.74568 1.03032
 O206 O 0.73475 0.69339 0.95967
 O207 O 0.72621 0.68728 1.03033
 O208 O 0.68912 0.75194 0.95931
 Cu209 Cu 0.76190 0.76122 1.00386
 Cu210 Cu 0.70277 0.71579 0.99395
 C211 C 0.70633 0.78284 0.95316
 C212 C 0.75746 0.69517 1.04606
 C213 C 0.76796 0.70412 0.95033
 C214 C 0.69664 0.77241 1.04771
 O215 O 0.68560 0.23489 0.55137
 O216 O 0.73649 0.17964 0.48136
 O217 O 0.73573 0.18095 0.55381
 O218 O 0.68883 0.23755 0.48187
 O219 O 0.73712 0.27757 0.48168
 O220 O 0.78362 0.22129 0.55474
 O221 O 0.78408 0.22035 0.48146
 O222 O 0.73317 0.27573 0.55306
 Cu223 Cu 0.70731 0.20374 0.51672
 Cu224 Cu 0.76461 0.25249 0.51787
 C225 C 0.70017 0.26505 0.56356
 C226 C 0.76848 0.19067 0.46895
 C227 C 0.76719 0.19200 0.56727
 C228 C 0.70440 0.26774 0.47036
 O229 O 0.70010 0.27278 -0.03739
 O230 O 0.76079 0.30880 0.03709
 O231 O 0.75531 0.32273 -0.03399
 O232 O 0.70450 0.26229 0.03174
 O233 O 0.74755 0.21711 0.02397
 O234 O 0.79548 0.27624 -0.04662
 O235 O 0.80395 0.26495 0.02452
 O236 O 0.74081 0.22592 -0.04686
 Cu237 Cu 0.72637 0.29663 0.00020
 Cu238 Cu 0.77635 0.24164 -0.01242
 C239 C 0.70936 0.24237 -0.05378
 C240 C 0.79254 0.29276 0.04376
 C241 C 0.78354 0.30973 -0.05208
 C242 C 0.71713 0.22957 0.03908
 O243 O 0.70726 0.74786 0.47180
 O244 O 0.74289 0.81202 0.54336
 O245 O 0.75782 0.80089 0.47416
 O246 O 0.68996 0.75969 0.54122
 O247 O 0.73358 0.71760 0.55706
 O248 O 0.80104 0.75851 0.49039
 O249 O 0.78563 0.76903 0.55923
 O250 O 0.74999 0.70499 0.48790
 Cu251 Cu 0.71993 0.78432 0.50618
 Cu252 Cu 0.77179 0.73315 0.52517
 C253 C 0.72273 0.71564 0.46747
 C254 C 0.77074 0.80150 0.56318
 C255 C 0.79106 0.78671 0.47102
 C256 C 0.70037 0.73171 0.56069
 O257 O 1.03412 0.28888 0.23901
 O258 O 0.96364 0.25607 0.30782
 O259 O 1.03485 0.24150 0.29241
 O260 O 0.96334 0.30627 0.25472
 O261 O 0.94475 0.26221 0.21579
 O262 O 1.01634 0.19668 0.25424
 O263 O 0.94500 0.21238 0.26852
 O264 O 1.01544 0.24477 0.20014
 Cu265 Cu 1.00063 0.27775 0.27738
 Cu266 Cu 0.97835 0.22458 0.23081
 C267 C 1.03718 0.27210 0.20817
 C268 C 0.94243 0.22827 0.29979
 C269 C 1.03817 0.20832 0.27961
 C270 C 0.94199 0.29546 0.22872
 O271 O 0.53338 0.20810 0.74491
 O272 O 0.46440 0.27173 0.70120
 O273 O 0.53860 0.27230 0.71153
 O274 O 0.46056 0.20962 0.74054
 O275 O 0.45469 0.24222 0.79212
 O276 O 0.53239 0.30589 0.76251
 O277 O 0.45974 0.30493 0.75254
 O278 O 0.52957 0.24171 0.79612
 Cu279 Cu 0.49949 0.23749 0.71915
 Cu280 Cu 0.49306 0.27675 0.78116
 C281 C 0.54340 0.21421 0.77783
 C282 C 0.45079 0.29944 0.71913
 C283 C 0.54908 0.29947 0.73203
 C284 C 0.44503 0.21465 0.77186
 O285 O -0.02696 0.29319 0.75985
 O286 O 0.04692 0.24402 0.70285
 O287 O -0.02667 0.25190 0.69961
 O288 O 0.04619 0.30252 0.74821
 O289 O 0.05255 0.25684 0.78911
 O290 O -0.02794 0.20754 0.74235
 O291 O 0.04586 0.19794 0.74387
 O292 O -0.02048 0.24860 0.80196
 Cu293 Cu 0.00977 0.27717 0.72396
 Cu294 Cu 0.01307 0.22370 0.77293
 C295 C -0.03568 0.27899 0.79123
 C296 C 0.05767 0.21133 0.71369
 C297 C -0.04042 0.22168 0.71227
 C298 C 0.06184 0.28935 0.77666
 O299 O 0.56095 0.22734 0.29171
 O300 O 0.47849 0.19725 0.23708
 O301 O 0.54845 0.17609 0.24115
 O302 O 0.48544 0.23462 0.29762
 O303 O 0.49091 0.28206 0.25843
 O304 O 0.56265 0.22528 0.20620
 O305 O 0.49164 0.24199 0.19653
 O306 O 0.56752 0.27731 0.25584
 Cu307 Cu 0.51791 0.20490 0.27085
 Cu308 Cu 0.52852 0.26165 0.22623
 C309 C 0.57829 0.25760 0.28299
 C310 C 0.47166 0.21415 0.20682
 C311 C 0.56722 0.19056 0.21480
 C312 C 0.47620 0.26758 0.28742
 O313 O 1.04713 0.79936 0.73135
 O314 O 0.97193 0.76858 0.79713
 O315 O 1.04564 0.76376 0.79521
 O316 O 0.97207 0.80429 0.73481
 O317 O 0.96955 0.75086 0.70355
 O318 O 1.04238 0.70971 0.76513
 O319 O 0.96744 0.71526 0.76594
 O320 O 1.04300 0.74512 0.70172
 Cu321 Cu 1.00992 0.78955 0.76742
 Cu322 Cu 1.00535 0.72470 0.73131
 C323 C 1.05754 0.77764 0.70517
 C324 C 0.95654 0.73658 0.79217
 C325 C 1.05614 0.72971 0.79088
 C326 C 0.95812 0.78448 0.70906
 O327 O 0.47624 0.75540 0.20499
 O328 O 0.54778 0.72089 0.27047
 O329 O 0.47202 0.71284 0.26601
 O330 O 0.54593 0.77073 0.21971
 O331 O 0.53204 0.81771 0.25757
 O332 O 0.46296 0.75876 0.30632
 O333 O 0.53389 0.76765 0.30863
 O334 O 0.45882 0.79979 0.24438
 Cu335 Cu 0.51083 0.73499 0.23721
 Cu336 Cu 0.49473 0.79099 0.28180
 C337 C 0.45507 0.78320 0.21348
 C338 C 0.55323 0.73820 0.30059
 C339 C 0.45582 0.72580 0.29490
 C340 C 0.55145 0.80431 0.23101
 O341 O -0.05279 0.79068 0.25330
 O342 O 0.02353 0.75101 0.19422
 O343 O -0.05022 0.74957 0.19355
 O344 O 0.02251 0.79152 0.25447
 O345 O 0.02032 0.74040 0.28926
 O346 O -0.04898 0.69705 0.22646
 O347 O 0.02561 0.69993 0.22914
 O348 O -0.05395 0.73713 0.28454
 Cu349 Cu -0.01415 0.77609 0.22068
 Cu350 Cu -0.01386 0.71346 0.26082
 C351 C -0.06725 0.76984 0.27820
 C352 C 0.03750 0.71877 0.20162
 C353 C -0.06196 0.71620 0.19971
 C354 C 0.03355 0.77302 0.28249
 O355 O 0.44495 0.69268 0.75294
 O356 O 0.51002 0.74548 0.81116
 O357 O 0.43820 0.75305 0.79456
 O358 O 0.51817 0.69179 0.76225
 O359 O 0.52775 0.73132 0.71605
 O360 O 0.45152 0.79298 0.74958
 O361 O 0.52394 0.78429 0.76540
 O362 O 0.45370 0.73284 0.70711
 Cu363 Cu 0.47663 0.71693 0.78472
 Cu364 Cu 0.49016 0.76432 0.73006
 C365 C 0.43819 0.70317 0.72031
 C366 C 0.52860 0.77326 0.79854
 C367 C 0.43190 0.78399 0.77762
 C368 C 0.53642 0.70140 0.73325
 N369 N 0.44342 0.28176 0.34470
 N370 N 0.41432 0.30201 0.35726
 C371 C 0.40046 0.32178 0.32847
 C372 C 0.42247 0.31318 0.29758
 N373 N 0.44892 0.28815 0.30914
 H374 H 0.41867 0.32219 0.26937
 N375 N 0.39931 0.84457 0.77751
 N376 N 0.37132 0.86254 0.79495
 C377 C 0.35660 0.83798 0.81955
 C378 C 0.37678 0.80433 0.81698
 N379 N 0.40306 0.80973 0.79031
 H380 H 0.37287 0.77868 0.83277
 N381 N -0.06607 0.28870 0.85067
 N382 N -0.09325 0.30946 0.86622
 C383 C -0.10746 0.33172 0.83946
 C384 C -0.08802 0.32414 0.80691
 N385 N -0.06244 0.29720 0.81528
 H386 H -0.09243 0.33608 0.77982
 N387 N -0.12443 0.75858 0.31387
 N388 N -0.14909 0.77700 0.33496
 C389 C -0.13975 0.81385 0.33292
 C390 C -0.10821 0.81760 0.31014
 N391 N -0.09969 0.78229 0.29890
 H392 H -0.09118 0.84256 0.30514
 N393 N 0.58352 0.73553 0.36077
 N394 N 0.60970 0.71547 0.37843
 C395 C 0.62407 0.69036 0.35401
 C396 C 0.60570 0.69553 0.32076
 N397 N 0.58072 0.72399 0.32621
 H398 H 0.60983 0.68017 0.29526
 N399 N 0.57481 0.15354 0.78617
 N400 N 0.60228 0.13838 0.80631
 C401 C 0.61596 0.16619 0.82791
 C402 C 0.59585 0.19892 0.82053
 N403 N 0.57054 0.18966 0.79453
 H404 H 0.59973 0.22698 0.83159
 N405 N 1.08979 0.72737 0.84921
 N406 N 1.11610 0.70686 0.86614
 C407 C 1.12684 0.67935 0.84254
 C408 C 1.10587 0.68345 0.81051
 N409 N 1.08325 0.71378 0.81590
 H410 H 1.10749 0.66690 0.78549
 N411 N 1.06917 0.14713 0.28902
 N412 N 1.09915 0.13307 0.30658
 C413 C 1.11666 0.16249 0.32296
 C414 C 1.09663 0.19496 0.31488
 N415 N 1.06721 0.18412 0.29393
 H416 H 1.10286 0.22375 0.32267
 N417 N 0.58667 0.35770 0.73217
 N418 N 0.61590 0.37268 0.71385
 C419 C 0.62816 0.34615 0.68978
 C420 C 0.60561 0.31453 0.69397
 N421 N 0.58003 0.32297 0.72034
 H422 H 0.60723 0.28796 0.67934
 N423 N 0.58431 0.86386 0.22034
 N424 N 0.61275 0.87757 0.20017
 C425 C 0.62678 0.84846 0.18025
 C426 C 0.60600 0.81648 0.18862
 N427 N 0.57983 0.82737 0.21372
 H428 H 0.60973 0.78813 0.17802
 N429 N 1.06746 0.27343 0.14735
 N430 N 1.09668 0.28999 0.13051
 C431 C 1.11393 0.31170 0.15598
 C432 C 1.09449 0.30786 0.18897
 N433 N 1.06563 0.28405 0.18230
 H434 H 1.10064 0.32046 0.21540
 N435 N 1.09175 0.77288 0.64672
 N436 N 1.11798 0.79128 0.62736
 C437 C 1.12873 0.82105 0.64789
 C438 C 1.10801 0.82039 0.68059
 N439 N 1.08534 0.78993 0.67864
 H440 H 1.10937 0.83974 0.70360
 N441 N 0.40944 0.64349 0.70443
 N442 N 0.38243 0.62947 0.68320
 C443 C 0.36862 0.65851 0.66326
 C444 C 0.38848 0.69094 0.67253
 N445 N 0.41359 0.68015 0.69848
 H446 H 0.38364 0.71958 0.66317
 N447 N 0.43751 0.20961 0.14879
 N448 N 0.40680 0.19293 0.13534
 C449 C 0.39044 0.17392 0.16354
 C450 C 0.41204 0.17940 0.19470
 N451 N 0.44110 0.20158 0.18421
 H452 H 0.40714 0.16906 0.22237
 N453 N -0.09517 0.70902 0.14132
 N454 N -0.12403 0.68972 0.12737
 C455 C -0.13824 0.66801 0.15480
 C456 C -0.11683 0.67444 0.18608
 N457 N -0.09037 0.70009 0.17639
 H458 H -0.12075 0.66300 0.21348
 N459 N -0.07907 0.21361 0.65790
 N460 N -0.11018 0.19582 0.64713
 C461 C -0.12212 0.17468 0.67583
 C462 C -0.09644 0.17934 0.70449
 N463 N -0.07041 0.20412 0.69212
 H464 H -0.09672 0.16725 0.73182
 N465 N 0.35861 0.40735 0.25439
 N466 N 0.37809 0.38172 0.27334
 C467 C 0.35602 0.37192 0.30239
 C468 C 0.32230 0.39242 0.30061
 N469 N 0.32518 0.41420 0.27043
 H470 H 0.29798 0.39173 0.31914
 N471 N 0.25263 -0.08397 0.84434
 N472 N 0.27176 -0.11125 0.86134
 C473 C 0.29763 -0.12487 0.83690
 C474 C 0.29354 -0.10517 0.80431
 N475 N 0.26544 -0.07991 0.81018
 H476 H 0.30954 -0.10800 0.77888
 N477 N 0.87439 0.43118 0.77897
 N478 N 0.88861 0.40406 0.79995
 C479 C 0.85932 0.39068 0.82040
 C480 C 0.82663 0.41056 0.81157
 N481 N 0.83740 0.43544 0.78556
 H482 H 0.79778 0.40642 0.82163
 N483 N 0.79690 -0.07278 0.35167
 N484 N 0.81058 -0.10090 0.37168
 C485 C 0.83013 -0.12355 0.34838
 C486 C 0.82840 -0.10827 0.31325
 N487 N 0.80722 -0.07661 0.31672
 H488 H 0.83997 -0.11952 0.28779
 N489 N 0.26170 0.58791 0.63877
 N490 N 0.28220 0.61419 0.62174
 C491 C 0.30656 0.62831 0.64689
 C492 C 0.30019 0.60999 0.67988
 N493 N 0.27218 0.58503 0.67363
 H494 H 0.31503 0.61345 0.70570
 N495 N 0.35765 1.08032 0.22980
 N496 N 0.37516 1.10667 0.21004
 C497 C 0.34892 1.12152 0.18702
 C498 C 0.31465 1.10324 0.19326
 N499 N 0.32138 1.07786 0.22013
 H500 H 0.28750 1.10779 0.17985
 N501 N 0.83254 0.57326 0.22018
 N502 N 0.84942 0.59887 0.19918
 C503 C 0.82201 0.61402 0.17784
 C504 C 0.78756 0.59664 0.18625
 N505 N 0.79558 0.57147 0.21289
 H506 H 0.75954 0.60214 0.17498
 N507 N 0.82764 1.10851 0.76240
 N508 N 0.84110 1.13679 0.74221
 C509 C 0.83563 1.12742 0.70657
 C510 C 0.81851 1.09253 0.70553
 N511 N 0.81405 1.08177 0.74076
 H512 H 0.80934 1.07650 0.68186
 N513 N 0.63358 0.58218 0.30790
 N514 N 0.62194 0.61253 0.32601
 C515 C 0.65302 0.62707 0.34234
 C516 C 0.68430 0.60438 0.33402
 N517 N 0.67070 0.57670 0.31238
 H518 H 0.71398 0.60874 0.34091
 N519 N 0.70285 1.08025 0.87091
 N520 N 0.68522 1.11124 0.88254
 C521 C 0.66918 1.12709 0.85261
 C522 C 0.67730 1.10483 0.82222
 N523 N 0.69820 1.07583 0.83497
 H524 H 0.67016 1.10980 0.79366
 N525 N 0.13969 0.57168 0.79399
 N526 N 0.12670 0.60042 0.81382
 C527 C 0.15762 0.61764 0.82787
 C528 C 0.19002 0.59857 0.81631
 N529 N 0.17747 0.57008 0.79528
 H530 H 0.21963 0.60560 0.82116
 N531 N 0.21220 1.08138 0.35699
 N532 N 0.19393 1.11114 0.37053
 C533 C 0.17399 1.12617 0.34246
 C534 C 0.18034 1.10455 0.31120
 N535 N 0.20439 1.07688 0.32159
 H536 H 0.16962 1.10903 0.28363
 N537 N 0.72901 0.41994 0.64643
 N538 N 0.70705 0.39211 0.63492
 C539 C 0.68477 0.38197 0.66372
 C540 C 0.69369 0.40468 0.69348
 N541 N 0.72146 0.42790 0.68134
 H542 H 0.68222 0.40399 0.72121
 N543 N 0.73614 -0.08589 0.14785
 N544 N 0.71360 -0.11169 0.13317
 C545 C 0.68743 -0.12074 0.15911
 C546 C 0.69452 -0.09936 0.19031
 N547 N 0.72511 -0.07808 0.18197
 H548 H 0.67995 -0.09977 0.21667
 N549 N 0.14651 0.41027 0.21390
 N550 N 0.12877 0.38259 0.19658
 C551 C 0.15396 0.36788 0.17218
 C552 C 0.18783 0.38784 0.17481
 N553 N 0.18183 0.41391 0.20120
 H554 H 0.21446 0.38328 0.16014
 N555 N 0.13795 -0.06809 0.68744
 N556 N 0.12581 -0.09743 0.66828
 C557 C 0.15732 -0.11560 0.65604
 C558 C 0.18922 -0.09656 0.66798
 N559 N 0.17576 -0.06710 0.68748
 H560 H 0.21897 -0.10443 0.66477
 N561 N 0.30914 0.36295 0.40935
 N562 N 0.32934 0.37527 0.38087
 C563 C 0.34456 0.34448 0.36454
 C564 C 0.33342 0.31275 0.38407
 N565 N 0.31123 0.32567 0.41177
 H566 H 0.33939 0.28340 0.37795
 N567 N 0.34850 0.79898 -0.07240
 N568 N 0.35922 0.81708 -0.10262
 C569 C 0.32696 0.82916 -0.11902
 C570 C 0.29598 0.81816 -0.09788
 N571 N 0.31083 0.79941 -0.06906
 H572 H 0.26589 0.82111 -0.10396
 N573 N 0.79494 0.36990 -0.08261
 N574 N 0.81558 0.38412 -0.10999
 C575 C 0.83625 0.35530 -0.12418
 C576 C 0.82771 0.32286 -0.10455
 N577 N 0.80189 0.33331 -0.07888
 H578 H 0.83825 0.29444 -0.10891
 N579 N 0.85400 0.79203 0.44296
 N580 N 0.87034 0.80717 0.41347
 C581 C 0.84327 0.82802 0.39662
 C582 C 0.80958 0.82478 0.41630
 N583 N 0.81760 0.80213 0.44502
 H584 H 0.78144 0.83480 0.40870
 N585 N 0.64051 0.28695 0.59018
 N586 N 0.62786 0.31035 0.61593
 C587 C 0.65897 0.32618 0.63114
 C588 C 0.69121 0.31211 0.61371
 N589 N 0.67827 0.28762 0.58850
 H590 H 0.72090 0.31783 0.61960
 N591 N 0.63814 0.78916 1.08046
 N592 N 0.62673 0.81014 1.10868
 C593 C 0.65823 0.82668 1.12245
 C594 C 0.68946 0.81518 1.10169
 N595 N 0.67556 0.79189 1.07581
 H596 H 0.71930 0.82188 1.10547
 N597 N 0.20736 0.34206 1.07137
 N598 N 0.18708 0.35820 1.09790
 C599 C 0.16875 0.33020 1.11572
 C600 C 0.17804 0.29610 1.09900
 N601 N 0.20238 0.30500 1.07149
 H602 H 0.16987 0.26785 1.10720
 N603 N 0.22734 0.85449 0.56647
 N604 N 0.20799 0.86960 0.59433
 C605 C 0.18347 0.84301 0.60677
 C606 C 0.18845 0.81098 0.58548
 N607 N 0.21590 0.81944 0.56075
 H608 H 0.17418 0.78406 0.58736
 N609 N 0.35436 0.71257 0.56105
 N610 N 0.36632 0.69480 0.59097
 C611 C 0.33547 0.67764 0.60575
 C612 C 0.30419 0.68529 0.58396
 N613 N 0.31734 0.70697 0.55634
 H614 H 0.27467 0.67742 0.58827
 N615 N 0.29321 0.14196 1.08562
 N616 N 0.31121 0.12753 1.11432
 C617 C 0.33252 0.15550 1.12846
 C618 C 0.32729 0.18775 1.10717
 N619 N 0.30249 0.17787 1.08073
 H620 H 0.33919 0.21561 1.11102
 N621 N 0.76148 0.63538 1.07935
 N622 N 0.78035 0.62061 1.10748
 C623 C 0.80333 0.64804 1.12047
 C624 C 0.79802 0.68004 1.09946
 N625 N 0.77192 0.67087 1.07412
 H626 H 0.81081 0.70760 1.10261
 N627 N 0.77032 0.13878 0.60957
 N628 N 0.79009 0.12724 0.63847
 C629 C 0.81738 0.15323 0.64475
 C630 C 0.81322 0.18166 0.61861
 N631 N 0.78381 0.17126 0.59716
 H632 H 0.82839 0.20806 0.61615
 N633 N 0.71725 0.65459 0.43685
 N634 N 0.69879 0.63927 0.40883
 C635 C 0.67832 0.66726 0.39307
 C636 C 0.68486 0.70024 0.41223
 N637 N 0.70904 0.69102 0.43935
 H638 H 0.67358 0.72823 0.40720
 N639 N 0.64729 0.23705 -0.08280
 N640 N 0.62938 0.21557 -0.10696
 C641 C 0.65506 0.18997 -0.11928
 C642 C 0.68940 0.19626 -0.10172
 N643 N 0.68326 0.22601 -0.07936
 H644 H 0.71611 0.18109 -0.10497
 N645 N 0.22723 0.64248 -0.08139
 N646 N 0.20716 0.62825 -0.10890
 C647 C 0.18337 0.65585 -0.12064
 C648 C 0.18959 0.68753 -0.09940
 N649 N 0.21693 0.67792 -0.07532
 H650 H 0.17632 0.71506 -0.10101
 N651 N 0.15110 0.23549 0.40912
 N652 N 0.13313 0.21402 0.38496
 C653 C 0.15857 0.18805 0.37281
 C654 C 0.19289 0.19421 0.39055
 N655 N 0.18692 0.22412 0.41283
 H656 H 0.21954 0.17893 0.38750
 N657 N 0.28887 0.43497 0.63310
 N658 N 0.31012 0.40856 0.61715
 C659 C 0.33011 0.39173 0.64426
 C660 C 0.32077 0.40886 0.67737
 N661 N 0.29513 0.43566 0.66902
 H662 H 0.32967 0.40134 0.70492
 N663 N 0.35464 0.92901 0.20868
 N664 N 0.37007 0.90045 0.19036
 C665 C 0.34106 0.88195 0.17427
 C666 C 0.30712 0.90039 0.18298
 N667 N 0.31711 0.92966 0.20441
 H668 H 0.27818 0.89207 0.17670
 N669 N 0.76738 0.42552 0.15644
 N670 N 0.78891 0.40023 0.13927
 C671 C 0.81082 0.38386 0.16517
 C672 C 0.80227 0.40020 0.19900
 N673 N 0.77491 0.42597 0.19213
 H674 H 0.81391 0.39365 0.22581
 N675 N 0.85507 0.92949 0.72824
 N676 N 0.87133 0.90371 0.70686
 C677 C 0.84325 0.88870 0.68638
 C678 C 0.80915 0.90642 0.69552
 N679 N 0.81796 0.93157 0.72177
 H680 H 0.78069 0.90046 0.68570
 N681 N 0.71427 0.58303 0.64274
 N682 N 0.68992 0.60882 0.63074
 C683 C 0.67089 0.62192 0.66057
 C684 C 0.68417 0.60322 0.69141
 N685 N 0.71130 0.57935 0.67893
 H686 H 0.67652 0.60774 0.72002
 N687 N 0.75475 0.08129 0.14123
 N688 N 0.73411 0.10745 0.12411
 C689 C 0.70597 0.11782 0.14769
 C690 C 0.71006 0.09732 0.17975
 N691 N 0.74062 0.07485 0.17458
 H692 H 0.69259 0.09827 0.20444
 N693 N 0.14526 0.57311 0.21804
 N694 N 0.12785 0.60106 0.20039
 C695 C 0.15288 0.61426 0.17507
 C696 C 0.18623 0.59334 0.17771
 N697 N 0.18018 0.56801 0.20466
 H698 H 0.21263 0.59646 0.16237
 N699 N 0.23276 0.08885 0.64255
 N700 N 0.21680 0.11737 0.62450
 C701 C 0.18969 0.13184 0.64704
 C702 C 0.18957 0.11133 0.67948
 N703 N 0.21662 0.08474 0.67544
 H704 H 0.17141 0.11483 0.70349
 N705 N 0.35173 0.57863 0.26183
 N706 N 0.36700 0.60678 0.28068
 C707 C 0.34146 0.61665 0.30705
 C708 C 0.30996 0.59339 0.30381
 N709 N 0.31766 0.57015 0.27542
 H710 H 0.28372 0.59334 0.31964
 N711 N 0.28251 0.06926 0.84913
 N712 N 0.30300 0.09586 0.86510
 C713 C 0.32301 0.11313 0.83807
 C714 C 0.31439 0.09602 0.80488
 N715 N 0.28921 0.06880 0.81322
 H716 H 0.32335 0.10366 0.77731
 N717 N 0.86773 0.58970 0.78221
 N718 N 0.88039 0.61689 0.80388
 C719 C 0.84965 0.63123 0.82166
 C720 C 0.81759 0.61166 0.81050
 N721 N 0.83027 0.58617 0.78577
 H722 H 0.78807 0.61619 0.81840
 N723 N 0.86774 0.07522 0.30034
 N724 N 0.87881 0.10266 0.32252
 C725 C 0.84688 0.11681 0.33837
 C726 C 0.81571 0.09723 0.32524
 N727 N 0.83012 0.07159 0.30150
 H728 H 0.78573 0.10203 0.33109
 N729 N 0.65842 0.43136 0.35015
 N730 N 0.65129 0.40024 0.36924
 C731 C 0.66111 0.37111 0.34728
 C732 C 0.67448 0.38521 0.31413
 N733 N 0.67180 0.42307 0.31688
 H734 H 0.68835 0.36981 0.29199
 N735 N 0.64096 0.91910 0.78726
 N736 N 0.62229 0.89082 0.80302
 C737 C 0.64676 0.87461 0.82686
 C738 C 0.68110 0.89379 0.82520
 N739 N 0.67609 0.92140 0.80041
 H740 H 0.70717 0.88848 0.84019
 N741 N 0.23831 0.41587 0.83978
 N742 N 0.22349 0.38660 0.85758
 C743 C 0.19767 0.37108 0.83478
 C744 C 0.19720 0.39174 0.80238
 N745 N 0.22265 0.41952 0.80683
 H746 H 0.17978 0.38764 0.77821
 N747 N 0.14302 0.92055 0.27327
 N748 N 0.12429 0.89243 0.28931
 C749 C 0.14848 0.87673 0.31372
 C750 C 0.18271 0.89627 0.31220
 N751 N 0.17798 0.92340 0.28675
 H752 H 0.20851 0.89135 0.32777
 N753 N 0.42268 0.36150 0.71067
 N754 N 0.39788 0.37879 0.68901
 C755 C 0.38491 0.35263 0.66518
 C756 C 0.40274 0.31865 0.67271
 N757 N 0.42587 0.32553 0.70133
 H758 H 0.39842 0.29140 0.65997
 N759 N 0.42485 0.78438 0.15322
 N760 N 0.39583 0.80092 0.13626
 C761 C 0.37870 0.82361 0.16128
 C762 C 0.39831 0.82068 0.19414
 N763 N 0.42685 0.79593 0.18785
 H764 H 0.39223 0.83457 0.22009
 N765 N 0.91169 0.35717 0.22351
 N766 N 0.88397 0.37392 0.20488
 C767 C 0.86894 0.34737 0.18270
 C768 C 0.88822 0.31381 0.18819
 N769 N 0.91463 0.32122 0.21384
 H770 H 0.88335 0.28669 0.17536
 N771 N 0.92227 0.78922 0.65190
 N772 N 0.89323 0.80860 0.63807
 C773 C 0.88105 0.83249 0.66469
 C774 C 0.90380 0.82727 0.69532
 N775 N 0.92906 0.80015 0.68608
 H776 H 0.90154 0.84044 0.72212
 N777 N 0.63053 0.24610 0.32506
 N778 N 0.65496 0.26549 0.34518
 C779 C 0.65014 0.30224 0.33633
 C780 C 0.62184 0.30485 0.31016
 N781 N 0.61035 0.26921 0.30411
 H782 H 0.60814 0.33009 0.29968
 N783 N 0.55561 0.78588 0.85847
 N784 N 0.58429 0.80425 0.87370
 C785 C 0.60262 0.82241 0.84619
 C786 C 0.58412 0.81478 0.81338
 N787 N 0.55493 0.79183 0.82245
 H788 H 0.59194 0.82341 0.78574
 N789 N 0.08906 0.34990 0.79086
 N790 N 0.11806 0.36505 0.80855
 C791 C 0.13728 0.33625 0.82414
 C792 C 0.11875 0.30273 0.81608
 N793 N 0.08889 0.31275 0.79499
 H794 H 0.12691 0.27419 0.82340
 N795 N 0.06639 0.77671 0.34108
 N796 N 0.09422 0.79581 0.35697
 C797 C 0.10725 0.82093 0.33193
 C798 C 0.08619 0.81675 0.29997
 N799 N 0.06106 0.78888 0.30702
 H800 H 0.08936 0.83124 0.27391
 N801 N 0.57455 0.64335 0.72963
 N802 N 0.60348 0.62952 0.70994
 C803 C 0.61445 0.65706 0.68640
 C804 C 0.59148 0.68818 0.69233
 N805 N 0.56699 0.67845 0.71934
 H806 H 0.59233 0.71535 0.67872
 N807 N 0.59699 0.13041 0.19932
 N808 N 0.62617 0.11694 0.17986
 C809 C 0.64270 0.14686 0.16334
 C810 C 0.62260 0.17912 0.17291
 N811 N 0.59431 0.16752 0.19537
 H812 H 0.62858 0.20809 0.16533
 N813 N 0.07169 0.71346 0.14344
 N814 N 0.09997 0.69371 0.12849
 C815 C 0.11322 0.67027 0.15488
 C816 C 0.09196 0.67619 0.18663
 N817 N 0.06648 0.70331 0.17817
 H818 H 0.09504 0.66326 0.21345
 N819 N 0.08110 0.15086 0.69278
 N820 N 0.10893 0.13616 0.67253
 C821 C 0.12847 0.16549 0.65831
 C822 C 0.11154 0.19883 0.66998
 N823 N 0.08214 0.18821 0.69156
 H824 H 0.12089 0.22752 0.66519
 N825 N 0.42668 0.70455 0.35182
 N826 N 0.39806 0.68320 0.36330
 C827 C 0.38239 0.66786 0.33296
 C828 C 0.40253 0.68020 0.30234
 N829 N 0.42984 0.70302 0.31551
 H830 H 0.39643 0.67549 0.27352
 N831 N 0.41246 0.15432 0.76953
 N832 N 0.38693 0.13462 0.78843
 C833 C 0.37520 0.15662 0.81667
 C834 C 0.39457 0.19061 0.81457
 N835 N 0.41742 0.18791 0.78471
 H836 H 0.39232 0.21487 0.83257
 N837 N 0.92054 0.73583 0.85038
 N838 N 0.89227 0.71645 0.86592
 C839 C 0.87991 0.69171 0.84038
 C840 C 0.90145 0.69664 0.80873
 N841 N 0.92651 0.72407 0.81618
 H842 H 0.89944 0.68189 0.78273
 N843 N 0.91411 0.22373 0.36153
 N844 N 0.88839 0.20294 0.37928
 C845 C 0.87319 0.17946 0.35409
 C846 C 0.89030 0.18643 0.32048
 N847 N 0.91565 0.21407 0.32629
 H848 H 0.88555 0.17226 0.29450
 N849 N 0.36000 0.29282 0.56638
 N850 N 0.37595 0.31085 0.59431
 C851 C 0.34922 0.33470 0.60792
 C852 C 0.31633 0.33077 0.58736
 N853 N 0.32436 0.30449 0.56175
 H854 H 0.28900 0.34470 0.59100
 N855 N 0.27521 0.84438 0.08480
 N856 N 0.29348 0.86239 0.11127
 C857 C 0.31968 0.83810 0.12471
 C858 C 0.31695 0.80442 0.10552
 N859 N 0.28892 0.80971 0.08090
 H860 H 0.33308 0.77858 0.10904
 N861 N 0.85194 0.29713 0.07828
 N862 N 0.86506 0.31310 0.10870
 C863 C 0.83563 0.33249 0.12386
 C864 C 0.80401 0.32797 0.10168
 N865 N 0.81551 0.30592 0.07356
 H866 H 0.77527 0.33853 0.10584
 N867 N 0.77825 0.86328 0.59180
 N868 N 0.79919 0.87941 0.61766
 C869 C 0.82113 0.85186 0.63231
 C870 C 0.81294 0.81836 0.61485
 N871 N 0.78619 0.82676 0.58978
 H872 H 0.82485 0.79059 0.61976
 N873 N 0.27532 0.64882 0.40256
 N874 N 0.29425 0.63070 0.37617
 C875 C 0.31942 0.65547 0.36179
 C876 C 0.31544 0.68942 0.38038
 N877 N 0.28770 0.68397 0.40555
 H878 H 0.33114 0.71537 0.37629
 N879 N 0.36049 0.19803 0.92541
 N880 N 0.37429 0.18190 0.89521
 C881 C 0.34451 0.16521 0.87861
 C882 C 0.31193 0.17120 0.89977
 N883 N 0.32333 0.19178 0.92876
 H884 H 0.28279 0.16329 0.89381
 N885 N 0.78084 0.64733 0.91519
 N886 N 0.80273 0.63530 0.88774
 C887 C 0.82476 0.66464 0.87728
 C888 C 0.81584 0.69527 0.89961
 N889 N 0.78828 0.68308 0.92278
 H890 H 0.82675 0.72378 0.89834
 N891 N 0.77772 0.13403 0.43216
 N892 N 0.79810 0.12204 0.40358
 C893 C 0.82076 0.15095 0.39321
 C894 C 0.81378 0.18115 0.41655
 N895 N 0.78681 0.16925 0.44043
 H896 H 0.82574 0.20925 0.41573
 N897 N 0.64679 0.29798 0.44799
 N898 N 0.63491 0.31763 0.41918
 C899 C 0.66588 0.32425 0.39789
 C900 C 0.69714 0.30726 0.41415
 N901 N 0.68394 0.29144 0.44540
 H902 H 0.72549 0.30344 0.40263
 N903 N 0.70001 0.84562 0.92704
 N904 N 0.68151 0.86320 0.90033
 C905 C 0.66017 0.83689 0.88334
 C906 C 0.66577 0.80260 0.90064
 N907 N 0.69094 0.80938 0.92761
 H908 H 0.65383 0.77537 0.89374
 N909 N 0.16094 0.28462 0.92412
 N910 N 0.14670 0.30235 0.89528
 C911 C 0.17610 0.31999 0.87860
 C912 C 0.20920 0.31278 0.89843
 N913 N 0.19816 0.29047 0.92666
 H914 H 0.23824 0.32103 0.89213
 N915 N 0.19810 0.85603 0.41609
 N916 N 0.17702 0.87101 0.38971
 C917 C 0.16065 0.84197 0.37185
 C918 C 0.17197 0.80853 0.38832
 N919 N 0.19534 0.81877 0.41575
 H920 H 0.16611 0.77986 0.37981
 N921 N 0.63738 0.72241 0.58892
 N922 N 0.62142 0.70170 0.61533
 C923 C 0.64980 0.68129 0.63070
 C924 C 0.68356 0.69001 0.61290
 N925 N 0.67457 0.71560 0.58706
 H926 H 0.71187 0.67891 0.61808
 N927 N 0.65831 0.20953 0.06797
 N928 N 0.64612 0.18681 0.09441
 C929 C 0.67715 0.16887 0.10775
 C930 C 0.70901 0.18110 0.08838
 N931 N 0.69576 0.20649 0.06392
 H932 H 0.73877 0.17429 0.09288
 N933 N 0.20973 0.63743 0.07465
 N934 N 0.18919 0.62169 0.10124
 C935 C 0.16955 0.64986 0.11777
 C936 C 0.17832 0.68346 0.10021
 N937 N 0.20344 0.67429 0.07356
 H938 H 0.16907 0.71181 0.10707
 N939 N 0.15568 0.22677 0.56424
 N940 N 0.14050 0.20745 0.59178
 C941 C 0.16841 0.18522 0.60532
 C942 C 0.20149 0.19128 0.58488
 N943 N 0.19203 0.21747 0.55956
 H944 H 0.22977 0.17964 0.58890
   
