data_POSCAR
  _audit_creation_date              2014-09-24
  _audit_creation_method            'ToBaCCo'
  _symmetry_space_group_name_H-M    'P1'
  _symmetry_Int_Tables_number       1
  _symmetry_cell_setting            triclinic
  loop_
  _symmetry_equiv_pos_as_xyz
 x,y,z
_cell_length_a 8.4474
_cell_length_b 8.7691
_cell_length_c 16.9183
_cell_angle_alpha 95.609000
_cell_angle_beta 95.240500
_cell_angle_gamma 85.434300
loop_
  _atom_site_label
  _atom_site_type_symbol
  _atom_site_fract_x
  _atom_site_fract_y
  _atom_site_fract_z
O1 O 0.06606 0.68624 1.08863
 O2 O 0.17411 0.35807 0.94458
 O3 O 0.18024 0.65572 0.95077
 O4 O 0.14257 0.39398 1.09697
 O5 O -0.11452 0.37796 1.06225
 O6 O -0.07111 0.63949 0.90360
 O7 O -0.08162 0.33968 0.90749
 O8 O -0.18698 0.67220 1.04433
 Cu9 Cu 0.16372 0.52503 1.02425
 Cu10 Cu -0.13780 0.50607 0.97554
 C11 C -0.07994 0.73596 1.08981
 C12 C 0.06264 0.29222 0.90164
 C13 C 0.06556 0.69166 0.90167
 C14 C 0.01202 0.34059 1.10577
 O15 O 0.35418 -0.14577 0.40493
 O16 O 0.68449 -0.16550 0.55522
 O17 O 0.37747 -0.17301 0.55083
 O18 O 0.64473 -0.06452 0.40797
 O19 O 0.61148 0.17754 0.45649
 O20 O 0.32283 0.07318 0.58704
 O21 O 0.63272 0.07568 0.60170
 O22 O 0.31096 0.10437 0.43544
 Cu23 Cu 0.52552 -0.15881 0.47547
 Cu24 Cu 0.46646 0.13247 0.52325
 C25 C 0.27544 -0.02030 0.39432
 C26 C 0.71063 -0.05455 0.60689
 C27 C 0.30025 -0.06672 0.59139
 C28 C 0.67135 0.07634 0.40738
 C29 C -0.06029 0.06146 0.24606
 C30 C 0.03298 -0.04960 0.75415
 N31 N -0.12440 -0.13365 0.14210
 N32 N -0.02169 -0.07543 0.19325
 N33 N 0.01724 0.22794 0.16128
 N34 N -0.09721 0.19127 0.19775
 N35 N 0.19563 -0.10681 0.64640
 N36 N 0.11401 -0.00537 0.68782
 N37 N -0.19229 -0.08248 0.66953
 N38 N -0.10999 -0.12841 0.72688
 N39 N 0.09541 -0.22386 0.84627
 N40 N 0.14590 -0.15246 0.79668
 N41 N 0.10099 0.16209 0.84724
 N42 N -0.00754 0.08671 0.80746
 N43 N -0.22381 0.12034 0.35357
 N44 N -0.19216 0.03348 0.29149
 N45 N 0.14256 -0.02538 0.33691
 N46 N 0.07874 0.08876 0.30215
   
