data_POSCAR
  _audit_creation_date              2014-09-24
  _audit_creation_method            'ToBaCCo'
  _symmetry_space_group_name_H-M    'P1'
  _symmetry_Int_Tables_number       1
  _symmetry_cell_setting            triclinic
  loop_
  _symmetry_equiv_pos_as_xyz
 x,y,z
_cell_length_a 28.4309
_cell_length_b 28.4309
_cell_length_c 28.4309
_cell_angle_alpha 90.017600
_cell_angle_beta 89.982700
_cell_angle_gamma 89.973200
loop_
  _atom_site_label
  _atom_site_type_symbol
  _atom_site_fract_x
  _atom_site_fract_y
  _atom_site_fract_z
O1 O 0.56411 0.50008 0.03866
 O2 O 0.43440 0.50013 0.03861
 O3 O 0.49926 0.43539 0.03861
 O4 O 0.49925 0.56480 0.03862
 O5 O 0.49930 0.56478 -0.03917
 O6 O 0.49931 0.43538 -0.03918
 O7 O 0.43444 0.50011 -0.03916
 O8 O 0.56416 0.50006 -0.03912
 Cu9 Cu 0.49925 0.50010 0.04647
 Cu10 Cu 0.49931 0.50008 -0.04701
 C11 C 0.58604 0.50007 -0.00022
 C12 C 0.41250 0.50014 -0.00028
 C13 C 0.49930 0.41355 -0.00029
 C14 C 0.49927 0.58662 -0.00028
 O15 O -0.03868 0.56564 0.50009
 O16 O -0.03869 0.43593 0.50006
 O17 O -0.03866 0.50078 0.56478
 O18 O -0.03866 0.50078 0.43537
 O19 O 0.03914 0.50074 0.43535
 O20 O 0.03913 0.50074 0.56475
 O21 O 0.03909 0.43589 0.50004
 O22 O 0.03909 0.56561 0.50007
 Cu23 Cu -0.04652 0.50079 0.50007
 Cu24 Cu 0.04696 0.50074 0.50005
 C25 C 0.00021 0.58754 0.50009
 C26 C 0.00020 0.41401 0.50005
 C27 C 0.00024 0.50075 0.58659
 C28 C 0.00024 0.50075 0.41353
 O29 O 0.49988 0.03865 0.56561
 O30 O 0.49991 0.03867 0.43589
 O31 O 0.43520 0.03862 0.50075
 O32 O 0.56461 0.03865 0.50073
 O33 O 0.56466 -0.03914 0.50070
 O34 O 0.43526 -0.03917 0.50071
 O35 O 0.49996 -0.03911 0.43585
 O36 O 0.49994 -0.03913 0.56557
 Cu37 Cu 0.49990 0.04650 0.50075
 Cu38 Cu 0.49996 -0.04698 0.50071
 C39 C 0.49990 -0.00024 0.58750
 C40 C 0.49992 -0.00021 0.41397
 C41 C 0.41340 -0.00028 0.50072
 C42 C 0.58646 -0.00024 0.50070
 O43 O 0.46069 0.00009 -0.06547
 O44 O 0.46069 0.00012 0.06425
 O45 O 0.46067 0.06481 -0.00059
 O46 O 0.46064 -0.06458 -0.00060
 O47 O 0.53843 -0.06465 -0.00063
 O48 O 0.53846 0.06476 -0.00062
 O49 O 0.53847 0.00006 0.06422
 O50 O 0.53847 0.00004 -0.06549
 Cu51 Cu 0.45282 0.00012 -0.00060
 Cu52 Cu 0.54631 0.00005 -0.00064
 C53 C 0.49957 0.00005 -0.08738
 C54 C 0.49959 0.00008 0.08614
 C55 C 0.49957 0.08662 -0.00060
 C56 C 0.49952 -0.08645 -0.00061
 O57 O -0.06427 0.53923 1.00008
 O58 O 0.06546 0.53927 1.00004
 O59 O 0.00059 0.53929 0.93537
 O60 O 0.00059 0.53928 1.06477
 O61 O 0.00065 0.46148 1.06474
 O62 O 0.00065 0.46150 0.93533
 O63 O 0.06551 0.46149 1.00001
 O64 O -0.06420 0.46144 1.00005
 Cu65 Cu 0.00059 0.54711 1.00007
 Cu66 Cu 0.00067 0.45363 1.00004
 C67 C -0.08613 0.50032 1.00006
 C68 C 0.08739 0.50038 1.00001
 C69 C 0.00061 0.50040 0.91352
 C70 C 0.00061 0.50038 1.08659
 O71 O -0.00004 -0.06546 0.46146
 O72 O -0.00005 0.06425 0.46142
 O73 O 0.06466 -0.00062 0.46147
 O74 O -0.06476 -0.00057 0.46146
 O75 O -0.06478 -0.00053 0.53925
 O76 O 0.06462 -0.00058 0.53927
 O77 O -0.00008 0.06430 0.53920
 O78 O -0.00007 -0.06543 0.53924
 Cu79 Cu -0.00005 -0.00061 0.45361
 Cu80 Cu -0.00008 -0.00056 0.54709
 C81 C -0.00004 -0.08735 0.50035
 C82 C -0.00006 0.08618 0.50031
 C83 C 0.08647 -0.00060 0.50038
 C84 C -0.08660 -0.00054 0.50036
 C85 C -0.36343 0.50008 0.99981
 C86 C -0.32099 0.50010 0.99985
 C87 C -0.27127 0.50015 0.99988
 C88 C -0.22883 0.50021 0.99994
 C89 C -0.17911 0.50025 1.00001
 C90 C -0.13667 0.50030 1.00004
 C91 C 0.36470 0.50017 0.99971
 C92 C 0.32225 0.50022 0.99973
 C93 C 0.27253 0.50027 0.99977
 C94 C 0.23009 0.50032 0.99982
 C95 C 0.18037 0.50037 0.99991
 C96 C 0.13792 0.50039 0.99996
 C97 C 0.00020 -0.36465 0.50013
 C98 C 0.00017 -0.32221 0.50017
 C99 C 0.00013 -0.27248 0.50022
 C100 C 0.00008 -0.23005 0.50025
 C101 C 0.00002 -0.18032 0.50032
 C102 C -0.00001 -0.13788 0.50035
 C103 C 0.00018 0.36347 0.50007
 C104 C 0.00015 0.32103 0.50009
 C105 C 0.00010 0.27131 0.50013
 C106 C 0.00004 0.22887 0.50020
 C107 C -0.00000 0.17915 0.50025
 C108 C -0.00005 0.13671 0.50029
 C109 C 0.49986 -0.00024 -0.36469
 C110 C 0.49981 -0.00022 -0.32224
 C111 C 0.49973 -0.00017 -0.27252
 C112 C 0.49967 -0.00010 -0.23008
 C113 C 0.49961 -0.00004 -0.18036
 C114 C 0.49958 0.00001 -0.13792
 C115 C 0.49989 -0.00020 0.36344
 C116 C 0.49984 -0.00018 0.32100
 C117 C 0.49977 -0.00012 0.27127
 C118 C 0.49971 -0.00005 0.22884
 C119 C 0.49964 -0.00001 0.17911
 C120 C 0.49961 0.00005 0.13667
 C121 C 0.49928 -0.36300 -0.00029
 C122 C 0.49931 -0.32066 -0.00032
 C123 C 0.49935 -0.27108 -0.00038
 C124 C 0.49939 -0.22874 -0.00045
 C125 C 0.49946 -0.17917 -0.00052
 C126 C 0.49950 -0.13682 -0.00057
 C127 C 0.49933 0.36318 -0.00031
 C128 C 0.49937 0.32083 -0.00035
 C129 C 0.49945 0.27126 -0.00041
 C130 C 0.49950 0.22892 -0.00046
 C131 C 0.49954 0.17934 -0.00052
 C132 C 0.49956 0.13699 -0.00056
 C133 C -0.36316 -0.00025 0.50066
 C134 C -0.32081 -0.00028 0.50061
 C135 C -0.27124 -0.00033 0.50052
 C136 C -0.22890 -0.00040 0.50046
 C137 C -0.17932 -0.00044 0.50039
 C138 C -0.13698 -0.00050 0.50036
 C139 C 0.36302 -0.00031 0.50069
 C140 C 0.32068 -0.00035 0.50064
 C141 C 0.27110 -0.00042 0.50055
 C142 C 0.22876 -0.00048 0.50049
 C143 C 0.17919 -0.00054 0.50042
 C144 C 0.13684 -0.00058 0.50039
 C145 C 0.00025 0.50070 1.36315
 C146 C 0.00028 0.50064 1.32080
 C147 C 0.00034 0.50055 1.27123
 C148 C 0.00041 0.50048 1.22889
 C149 C 0.00050 0.50042 1.17931
 C150 C 0.00056 0.50039 1.13697
 C151 C 0.00025 0.50072 0.63697
 C152 C 0.00028 0.50066 0.67931
 C153 C 0.00034 0.50059 0.72889
 C154 C 0.00041 0.50051 0.77123
 C155 C 0.00050 0.50045 0.82080
 C156 C 0.00056 0.50042 0.86315
   
