data_POSCAR
  _audit_creation_date              2014-09-24
  _audit_creation_method            'ToBaCCo'
  _symmetry_space_group_name_H-M    'P1'
  _symmetry_Int_Tables_number       1
  _symmetry_cell_setting            triclinic
  loop_
  _symmetry_equiv_pos_as_xyz
 x,y,z
_cell_length_a 36.9427
_cell_length_b 36.9402
_cell_length_c 36.9257
_cell_angle_alpha 90.232600
_cell_angle_beta 90.230500
_cell_angle_gamma 90.225600
loop_
  _atom_site_label
  _atom_site_type_symbol
  _atom_site_fract_x
  _atom_site_fract_y
  _atom_site_fract_z
N1 N 0.27371 0.27359 0.27370
 N2 N 0.77838 -0.22420 0.21066
 N3 N 0.77585 0.21090 0.77813
 N4 N 0.21077 -0.22183 0.77599
 N5 N 0.77365 -0.22633 0.77359
 N6 N 0.27581 0.27828 0.71077
 N7 N 0.27833 -0.28926 0.27595
 N8 N 0.71098 0.27594 0.27814
 O9 O 0.22258 0.02861 0.45508
 O10 O 0.21581 -0.03774 0.52883
 O11 O 0.21913 0.03253 0.52509
 O12 O 0.22005 -0.04215 0.45838
 O13 O 0.27976 -0.04405 0.46218
 O14 O 0.27886 0.03022 0.52868
 O15 O 0.27553 -0.03991 0.53257
 O16 O 0.28231 0.02662 0.45876
 Cu17 Cu 0.21335 -0.00462 0.49137
 Cu18 Cu 0.28513 -0.00713 0.49579
 C19 C 0.25357 0.03929 0.44489
 C20 C 0.24447 -0.04980 0.54336
 C21 C 0.24894 0.04407 0.53798
 C22 C 0.25013 -0.05577 0.44915
 O23 O 0.77903 0.02862 0.53015
 O24 O 0.77993 -0.03788 0.45587
 O25 O 0.77572 0.03249 0.45999
 O26 O 0.78246 -0.04127 0.52657
 O27 O 0.72273 -0.04493 0.52854
 O28 O 0.71600 0.02878 0.46214
 O29 O 0.72022 -0.04165 0.45774
 O30 O 0.71929 0.02506 0.53244
 Cu31 Cu 0.78530 -0.00427 0.49279
 Cu32 Cu 0.71352 -0.00866 0.49528
 C33 C 0.74910 0.03794 0.54399
 C34 C 0.75030 -0.05089 0.44414
 C35 C 0.74467 0.04329 0.45008
 C36 C 0.75371 -0.05512 0.53924
 O37 O 0.45510 0.22274 0.02865
 O38 O 0.52879 0.21600 -0.03777
 O39 O 0.52508 0.21932 0.03252
 O40 O 0.45837 0.22020 -0.04215
 O41 O 0.46212 0.27991 -0.04405
 O42 O 0.52863 0.27906 0.03022
 O43 O 0.53249 0.27572 -0.03994
 O44 O 0.45875 0.28247 0.02666
 Cu45 Cu 0.49136 0.21353 -0.00462
 Cu46 Cu 0.49574 0.28531 -0.00713
 C47 C 0.44491 0.25372 0.03934
 C48 C 0.54329 0.24467 -0.04984
 C49 C 0.53796 0.24914 0.04406
 C50 C 0.44911 0.25028 -0.05576
 O51 O 0.53033 0.77880 0.02858
 O52 O 0.45604 0.77966 -0.03790
 O53 O 0.46020 0.77543 0.03249
 O54 O 0.52671 0.78223 -0.04134
 O55 O 0.52872 0.72250 -0.04502
 O56 O 0.46239 0.71572 0.02876
 O57 O 0.45796 0.71995 -0.04169
 O58 O 0.53265 0.71906 0.02500
 Cu59 Cu 0.49296 0.78505 -0.00430
 Cu60 Cu 0.49550 0.71327 -0.00872
 C61 C 0.54419 0.74888 0.03788
 C62 C 0.44433 0.75003 -0.05093
 C63 C 0.45032 0.74438 0.04328
 C64 C 0.53938 0.75349 -0.05521
 O65 O 0.02883 0.45501 0.22253
 O66 O -0.03752 0.52874 0.21574
 O67 O 0.03274 0.52500 0.21909
 O68 O -0.04193 0.45832 0.21995
 O69 O -0.04386 0.46209 0.27968
 O70 O 0.03041 0.52857 0.27885
 O71 O -0.03972 0.53246 0.27549
 O72 O 0.02681 0.45868 0.28229
 Cu73 Cu -0.00440 0.49129 0.21329
 Cu74 Cu -0.00695 0.49569 0.28510
 C75 C 0.03949 0.44482 0.25353
 C76 C -0.04960 0.54325 0.24442
 C77 C 0.04427 0.53788 0.24893
 C78 C -0.05556 0.44908 0.25004
 O79 O 0.02855 0.53028 0.77891
 O80 O -0.03794 0.45603 0.77973
 O81 O 0.03243 0.46015 0.77554
 O82 O -0.04134 0.52671 0.78230
 O83 O -0.04498 0.52871 0.72255
 O84 O 0.02874 0.46234 0.71580
 O85 O -0.04169 0.45795 0.71999
 O86 O 0.02501 0.53260 0.71915
 Cu87 Cu -0.00433 0.49293 0.78514
 Cu88 Cu -0.00870 0.49547 0.71333
 C89 C 0.03787 0.54413 0.74899
 C90 C -0.05094 0.44433 0.75008
 C91 C 0.04323 0.45026 0.74448
 C92 C -0.05518 0.53938 0.75354
 C93 C 0.33436 0.24522 0.12566
 C94 C 0.34361 0.22908 0.16326
 C95 C 0.33178 0.26472 0.18114
 C96 C 0.32213 0.28093 0.14409
 C97 C 0.37303 0.26047 0.12339
 C98 C 0.36120 0.29610 0.14128
 C99 C 0.38261 0.24428 0.16047
 C100 C 0.37046 0.27993 0.17878
 C101 C 0.30982 0.26743 0.21397
 C102 C 0.29269 0.27009 0.24156
 C103 C 0.39720 0.25816 0.09212
 C104 C 0.41832 0.25622 0.06741
 H105 H 0.31979 0.23094 0.10343
 H106 H 0.33614 0.20155 0.17267
 H107 H 0.29698 0.29603 0.13775
 H108 H 0.36867 0.32363 0.13190
 H109 H 0.40775 0.22918 0.16688
 H110 H 0.38510 0.29420 0.20096
 C111 C 0.65974 0.78309 0.10354
 C112 C 0.65869 0.78930 0.14499
 C113 C 0.68810 0.76038 0.14959
 C114 C 0.68958 0.75422 0.10845
 C115 C 0.63089 0.75330 0.10748
 C116 C 0.66028 0.72435 0.11205
 C117 C 0.62936 0.75946 0.14862
 C118 C 0.65930 0.73055 0.15361
 C119 C 0.72032 0.76516 0.17236
 C120 C 0.74720 0.76985 0.19044
 C121 C 0.59942 0.75039 0.08337
 C122 C 0.57396 0.74909 0.06291
 H123 H 0.65960 0.80466 0.08269
 H124 H 0.65838 0.81606 0.15878
 H125 H 0.71468 0.75213 0.09217
 H126 H 0.66057 0.69761 0.09824
 H127 H 0.60423 0.76156 0.16487
 H128 H 0.65951 0.70901 0.17448
 C129 C 0.66660 0.22215 -0.10595
 C130 C 0.66860 0.19611 -0.13882
 C131 C 0.68601 0.22655 -0.16109
 C132 C 0.68447 0.25253 -0.12854
 C133 C 0.62926 0.23482 -0.11912
 C134 C 0.64664 0.26529 -0.14138
 C135 C 0.63079 0.20884 -0.15167
 C136 C 0.64870 0.23923 -0.17433
 C137 C 0.71803 0.22144 -0.18378
 C138 C 0.74477 0.21674 -0.20177
 C139 C 0.59807 0.23893 -0.09510
 C140 C 0.57283 0.24181 -0.07474
 H141 H 0.67364 0.21517 -0.07757
 H142 H 0.67797 0.16761 -0.13801
 H143 H 0.70689 0.27044 -0.11928
 H144 H 0.63724 0.29379 -0.14216
 H145 H 0.60837 0.19092 -0.16092
 H146 H 0.64172 0.24619 -0.20273
 C147 C 0.33345 0.78905 -0.12141
 C148 C 0.33406 0.78821 -0.16332
 C149 C 0.30096 0.76291 -0.16302
 C150 C 0.29991 0.76382 -0.12144
 C151 C 0.35799 0.75557 -0.12085
 C152 C 0.32489 0.73027 -0.12054
 C153 C 0.35910 0.75465 -0.16243
 C154 C 0.32545 0.72939 -0.16253
 C155 C 0.26880 0.76774 -0.18580
 C156 C 0.24195 0.77237 -0.20385
 C157 C 0.38934 0.75240 -0.09666
 C158 C 0.41469 0.75077 -0.07611
 H159 H 0.33705 0.81356 -0.10425
 H160 H 0.33748 0.81209 -0.18116
 H161 H 0.27524 0.76766 -0.10482
 H162 H 0.32147 0.70640 -0.10270
 H163 H 0.38380 0.75082 -0.17901
 H164 H 0.32178 0.70492 -0.17971
 C165 C 0.13389 0.34418 0.23212
 C166 C 0.17350 0.35808 0.23367
 C167 C 0.18118 0.33164 0.26473
 C168 C 0.14209 0.31732 0.26326
 C169 C 0.12347 0.37290 0.26038
 C170 C 0.13112 0.34647 0.29147
 C171 C 0.16260 0.38712 0.26186
 C172 C 0.17071 0.36038 0.29296
 C173 C 0.21399 0.30968 0.26749
 C174 C 0.24158 0.29255 0.27018
 C175 C 0.09222 0.39709 0.25803
 C176 C 0.06754 0.41822 0.25606
 H177 H 0.11837 0.33777 0.20708
 H178 H 0.19127 0.36263 0.20993
 H179 H 0.13405 0.28834 0.26385
 H180 H 0.11335 0.34195 0.31520
 H181 H 0.17072 0.41608 0.26128
 H182 H 0.18621 0.36683 0.31800
 C183 C 0.09698 0.66928 0.74205
 C184 C 0.11238 0.68381 0.77836
 C185 C 0.14967 0.68793 0.76053
 C186 C 0.13462 0.67387 0.72424
 C187 C 0.10752 0.63077 0.75344
 C188 C 0.14480 0.63481 0.73558
 C189 C 0.12260 0.64488 0.78970
 C190 C 0.16024 0.64943 0.77194
 C191 C 0.17246 0.72014 0.76533
 C192 C 0.19054 0.74700 0.77003
 C193 C 0.08339 0.59933 0.75052
 C194 C 0.06292 0.57388 0.74921
 H195 H 0.07071 0.67710 0.72971
 H196 H 0.09929 0.70429 0.79601
 H197 H 0.13985 0.68617 0.69737
 H198 H 0.15784 0.61428 0.71794
 H199 H 0.11740 0.63263 0.81660
 H200 H 0.18651 0.64164 0.78428
 C201 C -0.13426 0.64192 0.19805
 C202 C -0.17169 0.64705 0.21611
 C203 C -0.16081 0.68598 0.22627
 C204 C -0.12376 0.68131 0.20814
 C205 C -0.11885 0.62923 0.23454
 C206 C -0.10801 0.66818 0.24468
 C207 C -0.15590 0.63384 0.25270
 C208 C -0.14541 0.67332 0.26277
 C209 C -0.18351 0.71799 0.22117
 C210 C -0.20151 0.74473 0.21648
 C211 C -0.09484 0.59804 0.23865
 C212 C -0.07448 0.57280 0.24154
 H213 H -0.12942 0.62867 0.17148
 H214 H -0.19814 0.63873 0.20431
 H215 H -0.11078 0.70116 0.18975
 H216 H -0.08157 0.67654 0.25647
 H217 H -0.16884 0.61396 0.27107
 H218 H -0.15027 0.68659 0.28932
 C219 C -0.11485 0.32780 0.78338
 C220 C -0.15558 0.32903 0.79291
 C221 C -0.16312 0.30105 0.76290
 C222 C -0.12270 0.29939 0.75343
 C223 C -0.12091 0.35804 0.75558
 C224 C -0.12842 0.33008 0.72554
 C225 C -0.16133 0.35975 0.76505
 C226 C -0.16926 0.33124 0.73507
 C227 C -0.18592 0.26891 0.76772
 C228 C -0.20397 0.24207 0.77234
 C229 C -0.09670 0.38937 0.75242
 C230 C -0.07613 0.41470 0.75081
 H231 H -0.09222 0.32670 0.80321
 H232 H -0.16699 0.32826 0.82067
 H233 H -0.10705 0.27422 0.74871
 H234 H -0.11699 0.33087 0.69780
 H235 H -0.17694 0.38493 0.76978
 H236 H -0.19191 0.33227 0.71527
 C237 C 0.24870 0.16147 0.38455
 C238 C 0.28409 0.17685 0.36837
 C239 C 0.26476 0.18102 0.33172
 C240 C 0.22937 0.16608 0.34759
 C241 C 0.26041 0.12328 0.37297
 C242 C 0.24103 0.12738 0.33633
 C243 C 0.29579 0.13823 0.35710
 C244 C 0.27649 0.14287 0.32005
 C245 C 0.26751 0.21385 0.30978
 C246 C 0.27019 0.24144 0.29266
 C247 C 0.25806 0.09203 0.39714
 C248 C 0.25608 0.06733 0.41827
 H249 H 0.23725 0.16881 0.41134
 H250 H 0.30181 0.19753 0.38135
 H251 H 0.20209 0.17791 0.34345
 H252 H 0.22331 0.10666 0.32341
 H253 H 0.32307 0.12643 0.36125
 H254 H 0.28794 0.13562 0.29325
 C255 C 0.75022 0.09464 0.67002
 C256 C 0.78452 0.11684 0.67981
 C257 C 0.76051 0.14974 0.68787
 C258 C 0.72622 0.12788 0.67854
 C259 C 0.75348 0.10759 0.63068
 C260 C 0.72941 0.14048 0.63865
 C261 C 0.78774 0.12946 0.64004
 C262 C 0.76377 0.16273 0.64854
 C263 C 0.76526 0.17254 0.72009
 C264 C 0.76993 0.19065 0.74695
 C265 C 0.75058 0.08346 0.59922
 C266 C 0.74930 0.06298 0.57376
 H267 H 0.74460 0.06639 0.67852
 H268 H 0.80723 0.10736 0.69706
 H269 H 0.70098 0.12751 0.69475
 H270 H 0.70672 0.14990 0.62136
 H271 H 0.81300 0.12986 0.62388
 H272 H 0.76941 0.19100 0.64009
 C273 C 0.24094 -0.10690 0.66874
 C274 C 0.20520 -0.12590 0.67959
 C275 C 0.22636 -0.16100 0.68615
 C276 C 0.26205 -0.14234 0.67577
 C277 C 0.23461 -0.11905 0.62938
 C278 C 0.25580 -0.15415 0.63588
 C279 C 0.19892 -0.13771 0.63978
 C280 C 0.22001 -0.17319 0.64680
 C281 C 0.22126 -0.18370 0.71817
 C282 C 0.21658 -0.20171 0.74492
 C283 C 0.23871 -0.09504 0.59817
 C284 C 0.24160 -0.07468 0.57292
 H285 H 0.24959 -0.07938 0.67743
 H286 H 0.18433 -0.11451 0.69790
 H287 H 0.28796 -0.14451 0.69093
 H288 H 0.27666 -0.16549 0.61754
 H289 H 0.17300 -0.13555 0.62464
 H290 H 0.21135 -0.20072 0.63816
 C291 C 0.78761 -0.14699 0.35194
 C292 C 0.76034 -0.17674 0.33997
 C293 C 0.76320 -0.16312 0.30083
 C294 C 0.79052 -0.13375 0.31234
 C295 C 0.75587 -0.12088 0.35783
 C296 C 0.75874 -0.10733 0.31866
 C297 C 0.72851 -0.15024 0.34638
 C298 C 0.73146 -0.13703 0.30669
 C299 C 0.76802 -0.18594 0.26868
 C300 C 0.77262 -0.20401 0.24184
 C301 C 0.75270 -0.09666 0.38916
 C302 C 0.75106 -0.07609 0.41450
 H303 H 0.81066 -0.15083 0.37090
 H304 H 0.76106 -0.20555 0.34836
 H305 H 0.81607 -0.12721 0.29802
 H306 H 0.75804 -0.07853 0.31021
 H307 H 0.70297 -0.15673 0.36074
 H308 H 0.70842 -0.13319 0.28771
 C309 C 0.66200 0.75135 -0.11466
 C310 C 0.66779 0.72983 -0.15021
 C311 C 0.68108 0.76473 -0.16840
 C312 C 0.67573 0.78627 -0.13316
 C313 C 0.62336 0.76036 -0.12715
 C314 C 0.63665 0.79527 -0.14534
 C315 C 0.62863 0.73878 -0.16239
 C316 C 0.64247 0.77376 -0.18099
 C317 C 0.71391 0.76749 -0.19035
 C318 C 0.74151 0.77017 -0.20746
 C319 C 0.59211 0.75799 -0.10297
 C320 C 0.56742 0.75601 -0.08183
 H321 H 0.66972 0.74211 -0.08713
 H322 H 0.68096 0.70296 -0.15245
 H323 H 0.69544 0.80581 -0.12135
 H324 H 0.62349 0.82214 -0.14309
 H325 H 0.60888 0.71924 -0.17414
 H326 H 0.63484 0.78300 -0.20854
 C327 C 0.35858 0.29057 -0.15168
 C328 C 0.37079 0.28618 -0.19150
 C329 C 0.33689 0.26311 -0.19907
 C330 C 0.32431 0.26755 -0.15971
 C331 C 0.37912 0.25580 -0.14207
 C332 C 0.34523 0.23268 -0.14957
 C333 C 0.39165 0.25136 -0.18145
 C334 C 0.35740 0.22831 -0.18950
 C335 C 0.31408 0.26792 -0.23122
 C336 C 0.29600 0.27252 -0.25806
 C337 C 0.40334 0.25264 -0.11073
 C338 C 0.42391 0.25102 -0.08539
 H339 H 0.35932 0.31614 -0.13579
 H340 H 0.38108 0.30823 -0.20906
 H341 H 0.29635 0.27427 -0.15114
 H342 H 0.33500 0.21064 -0.13197
 H343 H 0.41960 0.24465 -0.19007
 H344 H 0.35665 0.20276 -0.20542
 C345 C 0.34043 0.74318 0.12986
 C346 C 0.33341 0.70688 0.14961
 C347 C 0.33911 0.72630 0.18607
 C348 C 0.34575 0.76252 0.16687
 C349 C 0.38107 0.73452 0.12929
 C350 C 0.38676 0.75393 0.16577
 C351 C 0.37440 0.69832 0.14853
 C352 C 0.37975 0.71766 0.18544
 C353 C 0.31643 0.72122 0.21810
 C354 C 0.29843 0.71654 0.24486
 C355 C 0.40508 0.73862 0.09809
 C356 C 0.42544 0.74150 0.07284
 H357 H 0.32454 0.75373 0.10664
 H358 H 0.31121 0.68749 0.14333
 H359 H 0.33370 0.78886 0.17478
 H360 H 0.40896 0.77332 0.17207
 H361 H 0.38643 0.67196 0.14067
 H362 H 0.39569 0.70711 0.20863
 C363 C 0.63140 0.28687 0.13879
 C364 C 0.61841 0.28609 0.17857
 C365 C 0.64982 0.26059 0.18788
 C366 C 0.66319 0.26142 0.14855
 C367 C 0.60765 0.25354 0.13071
 C368 C 0.63905 0.22800 0.13995
 C369 C 0.59434 0.25272 0.17006
 C370 C 0.62609 0.22725 0.17984
 C371 C 0.67263 0.26536 0.22010
 C372 C 0.69073 0.27002 0.24696
 C373 C 0.58351 0.25064 0.09926
 C374 C 0.56302 0.24935 0.07382
 H375 H 0.63334 0.31135 0.12156
 H376 H 0.61015 0.31003 0.19477
 H377 H 0.69177 0.26506 0.14008
 H378 H 0.64725 0.20407 0.12370
 H379 H 0.56577 0.24910 0.17857
 H380 H 0.62417 0.20278 0.19710
 C381 C -0.16028 0.63028 0.73618
 C382 C -0.18179 0.64213 0.77021
 C383 C -0.16832 0.68112 0.76467
 C384 C -0.14722 0.66980 0.73072
 C385 C -0.12708 0.62339 0.76034
 C386 C -0.11370 0.66241 0.75482
 C387 C -0.14817 0.63470 0.79430
 C388 C -0.13510 0.67416 0.78879
 C389 C -0.19026 0.71394 0.76741
 C390 C -0.20739 0.74154 0.77008
 C391 C -0.10291 0.59213 0.75801
 C392 C -0.08178 0.56743 0.75605
 H393 H -0.17037 0.61185 0.71454
 H394 H -0.21006 0.63419 0.77655
 H395 H -0.14706 0.68460 0.70462
 H396 H -0.08544 0.67044 0.74848
 H397 H -0.14831 0.61991 0.82041
 H398 H -0.12495 0.69256 0.81043
 C399 C -0.14812 0.35360 0.28770
 C400 C -0.18776 0.36682 0.28985
 C401 C -0.19887 0.33695 0.26291
 C402 C -0.15968 0.32335 0.26080
 C403 C -0.14187 0.37914 0.25557
 C404 C -0.15291 0.34929 0.22857
 C405 C -0.18107 0.39268 0.25768
 C406 C -0.19264 0.36248 0.23077
 C407 C -0.23101 0.31416 0.26774
 C408 C -0.25785 0.29611 0.27236
 C409 C -0.11053 0.40334 0.25239
 C410 C -0.08519 0.42390 0.25077
 H411 H -0.12947 0.35020 0.31107
 H412 H -0.20241 0.37380 0.31511
 H413 H -0.15126 0.29457 0.26214
 H414 H -0.13821 0.34236 0.20333
 H415 H -0.18955 0.42145 0.25636
 H416 H -0.21132 0.36587 0.20741
 C417 C 0.14298 0.36706 0.69796
 C418 C 0.18208 0.37688 0.70974
 C419 C 0.18596 0.33904 0.72639
 C420 C 0.14732 0.32886 0.71454
 C421 C 0.12920 0.38099 0.73464
 C422 C 0.13302 0.34315 0.75133
 C423 C 0.16786 0.39114 0.74648
 C424 C 0.17221 0.35295 0.76309
 C425 C 0.21798 0.31636 0.72130
 C426 C 0.24473 0.29838 0.71660
 C427 C 0.09801 0.40500 0.73874
 C428 C 0.07277 0.42536 0.74161
 H429 H 0.13063 0.37312 0.67122
 H430 H 0.20258 0.39051 0.69258
 H431 H 0.13925 0.30298 0.70136
 H432 H 0.11248 0.32957 0.76847
 H433 H 0.17597 0.41701 0.75965
 H434 H 0.18459 0.34688 0.78981
 C435 C 0.13615 0.64353 0.23342
 C436 C 0.14921 0.66114 0.26939
 C437 C 0.18810 0.64962 0.26052
 C438 C 0.17560 0.63240 0.22462
 C439 C 0.13093 0.60749 0.25339
 C440 C 0.16983 0.59600 0.24453
 C441 C 0.14347 0.62474 0.28926
 C442 C 0.18279 0.61357 0.28045
 C443 C 0.22031 0.67240 0.26531
 C444 C 0.24716 0.69049 0.27001
 C445 C 0.09948 0.58338 0.25046
 C446 C 0.07402 0.56291 0.24915
 H447 H 0.11660 0.65556 0.21404
 H448 H 0.14111 0.68819 0.27967
 H449 H 0.18920 0.63583 0.19809
 H450 H 0.17797 0.56895 0.23426
 H451 H 0.12992 0.62134 0.31582
 H452 H 0.20230 0.60149 0.29984
 C453 C 0.75358 -0.11396 0.66219
 C454 C 0.73044 -0.14828 0.66892
 C455 C 0.76477 -0.16828 0.68101
 C456 C 0.78793 -0.13426 0.67471
 C457 C 0.76048 -0.12702 0.62327
 C458 C 0.79482 -0.14701 0.63535
 C459 C 0.73728 -0.16102 0.62949
 C460 C 0.77169 -0.18143 0.64212
 C461 C 0.76750 -0.19023 0.71384
 C462 C 0.77016 -0.20736 0.74144
 C463 C 0.75816 -0.10284 0.59200
 C464 C 0.75621 -0.08172 0.56730
 H465 H 0.74612 -0.08595 0.67013
 H466 H 0.70400 -0.14903 0.68308
 H467 H 0.80878 -0.12347 0.69366
 H468 H 0.82127 -0.14624 0.62120
 H469 H 0.71644 -0.17176 0.61051
 H470 H 0.77916 -0.20945 0.63427
 C471 C 0.27910 -0.17514 0.38828
 C472 C 0.24782 -0.20020 0.37559
 C473 C 0.26306 -0.19909 0.33696
 C474 C 0.29440 -0.17447 0.34934
 C475 C 0.25571 -0.14208 0.37917
 C476 C 0.27095 -0.14094 0.34054
 C477 C 0.22433 -0.16667 0.36682
 C478 C 0.23965 -0.16607 0.32777
 C479 C 0.26790 -0.23123 0.31416
 C480 C 0.27253 -0.25808 0.29611
 C481 C 0.25253 -0.11075 0.40338
 C482 C 0.25089 -0.08540 0.42395
 H483 H 0.29529 -0.17856 0.41342
 H484 H 0.23836 -0.22491 0.38976
 H485 H 0.32326 -0.17801 0.34191
 H486 H 0.28041 -0.11621 0.32639
 H487 H 0.19549 -0.16310 0.37428
 H488 H 0.22348 -0.16272 0.30261
 C489 C 0.70128 0.15370 0.38065
 C490 C 0.72640 0.18733 0.38047
 C491 C 0.72660 0.18606 0.33887
 C492 C 0.70140 0.15288 0.33872
 C493 C 0.73485 0.12928 0.38082
 C494 C 0.73506 0.12795 0.33923
 C495 C 0.76005 0.16247 0.38097
 C496 C 0.76020 0.16167 0.33900
 C497 C 0.72151 0.21809 0.31620
 C498 C 0.71681 0.24485 0.29822
 C499 C 0.73894 0.09808 0.40483
 C500 C 0.74181 0.07284 0.42519
 H501 H 0.67709 0.15010 0.39803
 H502 H 0.72279 0.21208 0.39719
 H503 H 0.67724 0.14929 0.32108
 H504 H 0.73867 0.10317 0.32255
 H505 H 0.78421 0.16607 0.39861
 H506 H 0.78436 0.16533 0.32160
 C507 C 0.24910 0.13028 0.64897
 C508 C 0.28378 0.15380 0.65251
 C509 C 0.26040 0.18799 0.64970
 C510 C 0.22576 0.16501 0.64654
 C511 C 0.25332 0.13077 0.60760
 C512 C 0.22994 0.16495 0.60477
 C513 C 0.28792 0.15380 0.61082
 C514 C 0.26461 0.18841 0.60833
 C515 C 0.26518 0.22022 0.67247
 C516 C 0.26987 0.24709 0.69054
 C517 C 0.25042 0.09930 0.58349
 C518 C 0.24913 0.07384 0.56302
 H519 H 0.24267 0.10601 0.66540
 H520 H 0.30597 0.14958 0.67239
 H521 H 0.20026 0.17001 0.66151
 H522 H 0.20776 0.16917 0.58488
 H523 H 0.31346 0.14886 0.59587
 H524 H 0.27105 0.21264 0.59185
   
