data_POSCAR
  _audit_creation_date              2014-09-24
  _audit_creation_method            'ToBaCCo'
  _symmetry_space_group_name_H-M    'P1'
  _symmetry_Int_Tables_number       1
  _symmetry_cell_setting            triclinic
  loop_
  _symmetry_equiv_pos_as_xyz
 x,y,z
_cell_length_a 50.7926
_cell_length_b 50.8524
_cell_length_c 50.8196
_cell_angle_alpha 89.994000
_cell_angle_beta 90.006300
_cell_angle_gamma 89.991100
loop_
  _atom_site_label
  _atom_site_type_symbol
  _atom_site_fract_x
  _atom_site_fract_y
  _atom_site_fract_z
C1 C 0.25058 0.94544 -0.02418
 C2 C 0.25039 0.93184 -0.00028
 C3 C 0.25007 0.94522 0.02371
 C4 C 0.25003 0.97300 0.02411
 C5 C 0.25012 0.98710 0.00001
 C6 C 0.25034 0.97329 -0.02428
 C7 C 0.25031 0.98769 -0.04792
 C8 C 0.25003 1.01506 -0.04774
 C9 C 0.24988 1.02917 -0.02391
 C10 C 0.24997 1.01506 0.00020
 C11 C 0.24992 0.98704 0.04794
 C12 C 0.24991 1.01442 0.04814
 C13 C 0.24993 1.02885 0.02450
 C14 C 0.24988 1.05670 0.02444
 C15 C 0.24968 1.07034 0.00056
 C16 C 0.24962 1.05700 -0.02348
 H17 H 0.25045 0.97786 -0.06682
 H18 H 0.24999 1.02511 -0.06652
 H19 H 0.24987 0.97694 0.06670
 H20 H 0.24985 1.02422 0.06706
 H21 H 0.25048 0.91047 -0.00029
 H22 H 0.24956 1.09172 0.00069
 C23 C 0.75063 0.44476 0.52410
 C24 C 0.75083 0.43116 0.50023
 C25 C 0.75105 0.44457 0.47625
 C26 C 0.75096 0.47234 0.47586
 C27 C 0.75088 0.48638 0.49997
 C28 C 0.75077 0.47255 0.52423
 C29 C 0.75079 0.48686 0.54790
 C30 C 0.75096 0.51425 0.54776
 C31 C 0.75100 0.52834 0.52394
 C32 C 0.75091 0.51429 0.49983
 C33 C 0.75096 0.48642 0.45204
 C34 C 0.75085 0.51380 0.45190
 C35 C 0.75083 0.52812 0.47557
 C36 C 0.75075 0.55590 0.47568
 C37 C 0.75096 0.56951 0.49954
 C38 C 0.75114 0.55612 0.52353
 H39 H 0.75073 0.47698 0.56677
 H40 H 0.75100 0.52431 0.56653
 H41 H 0.75100 0.47637 0.43326
 H42 H 0.75081 0.52368 0.43302
 H43 H 0.75081 0.40982 0.50031
 H44 H 0.75098 0.59086 0.49944
 C45 C 0.74873 1.02376 0.94496
 C46 C 0.74878 0.99989 0.93140
 C47 C 0.74889 0.97595 0.94486
 C48 C 0.74883 0.97562 0.97265
 C49 C 0.74888 0.99974 0.98666
 C50 C 0.74888 1.02395 0.97276
 C51 C 0.74905 1.04764 0.98702
 C52 C 0.74925 1.04757 1.01442
 C53 C 0.74920 1.02381 1.02858
 C54 C 0.74895 0.99967 1.01460
 C55 C 0.74873 0.95185 0.98679
 C56 C 0.74867 0.95176 1.01418
 C57 C 0.74879 0.97545 1.02851
 C58 C 0.74878 0.97567 1.05636
 C59 C 0.74913 0.99960 1.06988
 C60 C 0.74940 1.02351 1.05637
 H61 H 0.74907 1.06648 0.97708
 H62 H 0.74941 1.06637 1.02442
 H63 H 0.74866 0.93307 0.97676
 H64 H 0.74856 0.93290 1.02407
 H65 H 0.74877 0.99993 0.91004
 H66 H 0.74922 0.99967 1.09126
 C67 C 0.24794 0.52388 0.44484
 C68 C 0.24787 0.49985 0.43154
 C69 C 0.24803 0.47604 0.44524
 C70 C 0.24815 0.47603 0.47306
 C71 C 0.24832 0.50033 0.48680
 C72 C 0.24826 0.52438 0.47264
 C73 C 0.24853 0.54824 0.48665
 C74 C 0.24889 0.54848 0.51406
 C75 C 0.24889 0.52488 0.52849
 C76 C 0.24855 0.50058 0.51474
 C77 C 0.24812 0.45244 0.48748
 C78 C 0.24822 0.45268 0.51489
 C79 C 0.24845 0.47653 0.52890
 C80 C 0.24859 0.47702 0.55670
 C81 C 0.24902 0.50106 0.57001
 C82 C 0.24922 0.52487 0.55631
 H83 H 0.24852 0.56696 0.47650
 H84 H 0.24912 0.56738 0.52387
 H85 H 0.24797 0.43354 0.47767
 H86 H 0.24816 0.43396 0.52502
 H87 H 0.24771 0.49967 0.41018
 H88 H 0.24920 0.50123 0.59137
 C89 C 1.05627 0.25110 0.02374
 C90 C 1.06983 0.25088 -0.00019
 C91 C 1.05635 0.25070 -0.02416
 C92 C 1.02849 0.25085 -0.02448
 C93 C 1.01448 0.25098 -0.00031
 C94 C 1.02840 0.25106 0.02393
 C95 C 1.01408 0.25107 0.04764
 C96 C 0.98668 0.25098 0.04757
 C97 C 0.97251 0.25096 0.02380
 C98 C 0.98650 0.25102 -0.00037
 C99 C 1.01425 0.25088 -0.04824
 C100 C 0.98685 0.25104 -0.04829
 C101 C 0.97255 0.25110 -0.02458
 C102 C 0.94468 0.25122 -0.02434
 C103 C 0.93118 0.25106 -0.00038
 C104 C 0.94470 0.25088 0.02353
 H105 H 1.02398 0.25111 0.06651
 H106 H 0.97667 0.25096 0.06637
 H107 H 1.02423 0.25081 -0.06707
 H108 H 0.97692 0.25108 -0.06715
 H109 H 1.09123 0.25083 -0.00014
 H110 H 0.90979 0.25106 -0.00028
 C111 C 0.44466 0.75106 0.47640
 C112 C 0.43138 0.75105 0.50046
 C113 C 0.44513 0.75093 0.52426
 C114 C 0.47295 0.75092 0.52423
 C115 C 0.48667 0.75084 0.49990
 C116 C 0.47247 0.75085 0.47585
 C117 C 0.48645 0.75066 0.45196
 C118 C 0.51387 0.75043 0.45168
 C119 C 0.52834 0.75047 0.47527
 C120 C 0.51462 0.75073 0.49960
 C121 C 0.48741 0.75100 0.54782
 C122 C 0.51483 0.75102 0.54754
 C123 C 0.52881 0.75087 0.52365
 C124 C 0.55662 0.75085 0.52311
 C125 C 0.56991 0.75051 0.49906
 C126 C 0.55617 0.75027 0.47525
 H127 H 0.47628 0.75065 0.43324
 H128 H 0.52366 0.75026 0.43276
 H129 H 0.47762 0.75109 0.56674
 H130 H 0.52500 0.75111 0.56626
 H131 H 0.41001 0.75113 0.50067
 H132 H 0.59128 0.75042 0.49886
 C133 C 0.02442 0.74886 -0.05649
 C134 C 0.00055 0.74893 -0.07017
 C135 C -0.02351 0.74890 -0.05683
 C136 C -0.02397 0.74870 -0.02898
 C137 C 0.00015 0.74870 -0.01485
 C138 C 0.02447 0.74883 -0.02863
 C139 C 0.04811 0.74893 -0.01419
 C140 C 0.04790 0.74894 0.01320
 C141 C 0.02404 0.74877 0.02723
 C142 C -0.00006 0.74861 0.01311
 C143 C -0.04782 0.74849 -0.01488
 C144 C -0.04801 0.74829 0.01250
 C145 C -0.02436 0.74836 0.02692
 C146 C -0.02427 0.74821 0.05478
 C147 C -0.00037 0.74845 0.06841
 C148 C 0.02362 0.74878 0.05502
 H149 H 0.06704 0.74904 -0.02398
 H150 H 0.06666 0.74905 0.02331
 H151 H -0.06661 0.74846 -0.02495
 H152 H -0.06693 0.74812 0.02232
 H153 H 0.00069 0.74903 -0.09156
 H154 H -0.00040 0.74841 0.08979
 C155 C 0.52409 0.24857 0.55572
 C156 C 0.50019 0.24837 0.56932
 C157 C 0.47619 0.24818 0.55590
 C158 C 0.47581 0.24827 0.52810
 C159 C 0.49995 0.24839 0.51406
 C160 C 0.52422 0.24851 0.52791
 C161 C 0.54790 0.24855 0.51359
 C162 C 0.54777 0.24847 0.48619
 C163 C 0.52395 0.24842 0.47207
 C164 C 0.49981 0.24842 0.48612
 C165 C 0.45199 0.24825 0.51399
 C166 C 0.45186 0.24838 0.48659
 C167 C 0.47555 0.24846 0.47227
 C168 C 0.47567 0.24857 0.44446
 C169 C 0.49956 0.24849 0.43085
 C170 C 0.52357 0.24837 0.44427
 H171 H 0.56678 0.24862 0.52349
 H172 H 0.56656 0.24849 0.47613
 H173 H 0.43320 0.24817 0.52405
 H174 H 0.43298 0.24838 0.47669
 H175 H 0.50027 0.24837 0.59068
 H176 H 0.49948 0.24853 0.40949
 C177 C 0.94438 -0.02444 0.25206
 C178 C 0.93066 -0.00065 0.25196
 C179 C 0.94397 0.02337 0.25194
 C180 C 0.97178 0.02387 0.25214
 C181 C 0.98595 -0.00017 0.25214
 C182 C 0.97220 -0.02446 0.25206
 C183 C 0.98661 -0.04807 0.25195
 C184 C 1.01402 -0.04784 0.25189
 C185 C 1.02804 -0.02399 0.25201
 C186 C 1.01390 0.00007 0.25220
 C187 C 0.98578 0.04772 0.25231
 C188 C 1.01319 0.04797 0.25249
 C189 C 1.02767 0.02437 0.25242
 C190 C 1.05553 0.02431 0.25254
 C191 C 1.06920 0.00046 0.25225
 C192 C 1.05584 -0.02353 0.25194
 H193 H 0.97679 -0.06696 0.25187
 H194 H 1.02415 -0.06657 0.25177
 H195 H 0.97563 0.06644 0.25234
 H196 H 1.02298 0.06689 0.25264
 H197 H 0.90928 -0.00082 0.25186
 H198 H 1.09059 0.00051 0.25224
 C199 C 0.44411 0.47625 0.75270
 C200 C 0.43066 0.50021 0.75259
 C201 C 0.44423 0.52410 0.75244
 C202 C 0.47206 0.52426 0.75250
 C203 C 0.48596 0.50004 0.75252
 C204 C 0.47194 0.47591 0.75257
 C205 C 0.48609 0.45213 0.75247
 C206 C 0.51352 0.45204 0.75230
 C207 C 0.52781 0.47572 0.75230
 C208 C 0.51392 0.49994 0.75246
 C209 C 0.48636 0.54794 0.75254
 C210 C 0.51379 0.54784 0.75261
 C211 C 0.52794 0.52407 0.75256
 C212 C 0.55576 0.52373 0.75259
 C213 C 0.56921 0.49977 0.75233
 C214 C 0.55564 0.47588 0.75213
 H215 H 0.47606 0.43335 0.75249
 H216 H 0.52345 0.43320 0.75220
 H217 H 0.47643 0.56678 0.75255
 H218 H 0.52383 0.56662 0.75267
 H219 H 0.40929 0.50026 0.75260
 H220 H 0.59058 0.49972 0.75226
 C221 C 1.02460 0.94473 0.74801
 C222 C 1.00062 0.93125 0.74822
 C223 C 0.97668 0.94476 0.74833
 C224 C 0.97642 0.97255 0.74810
 C225 C 1.00061 0.98652 0.74799
 C226 C 1.02484 0.97258 0.74800
 C227 C 1.04857 0.98685 0.74801
 C228 C 1.04853 1.01422 0.74806
 C229 C 1.02476 1.02845 0.74800
 C230 C 1.00056 1.01448 0.74790
 C231 C 0.95265 0.98672 0.74800
 C232 C 0.95259 1.01410 0.74777
 C233 C 0.97631 1.02840 0.74774
 C234 C 0.97652 1.05625 0.74757
 C235 C 1.00048 1.06976 0.74777
 C236 C 1.02447 1.05629 0.74805
 H237 H 1.06743 0.97693 0.74803
 H238 H 1.06737 1.02417 0.74811
 H239 H 0.93383 0.97672 0.74805
 H240 H 0.93372 1.02401 0.74767
 H241 H 1.00053 0.90989 0.74833
 H242 H 1.00046 1.09114 0.74775
 C243 C 0.52291 0.44349 0.24706
 C244 C 0.49886 0.43020 0.24742
 C245 C 0.47504 0.44391 0.24757
 C246 C 0.47503 0.47170 0.24722
 C247 C 0.49936 0.48542 0.24695
 C248 C 0.52342 0.47127 0.24693
 C249 C 0.54732 0.48524 0.24679
 C250 C 0.54757 0.51262 0.24672
 C251 C 0.52395 0.52704 0.24669
 C252 C 0.49962 0.51332 0.24674
 C253 C 0.45141 0.48612 0.24714
 C254 C 0.45166 0.51350 0.24680
 C255 C 0.47556 0.52748 0.24661
 C256 C 0.47608 0.55525 0.24632
 C257 C 0.50014 0.56854 0.24637
 C258 C 0.52395 0.55482 0.24661
 H259 H 0.56606 0.47510 0.24678
 H260 H 0.56650 0.52242 0.24665
 H261 H 0.43248 0.47632 0.24731
 H262 H 0.43292 0.52365 0.24672
 H263 H 0.49869 0.40885 0.24762
 H264 H 0.50033 0.58989 0.24626
 O265 O 0.24891 0.18178 0.21362
 O266 O 0.28057 0.17677 0.25013
 O267 O 0.18076 0.21306 0.25165
 O268 O 0.17068 0.24730 0.27741
 O269 O 0.21228 0.25065 0.18201
 O270 O 0.24898 0.27948 0.17483
 O271 O 0.24931 0.28611 0.31875
 O272 O 0.21840 0.25137 0.32545
 O273 O 0.31650 0.25014 0.28693
 O274 O 0.32218 0.21878 0.24694
 O275 O 0.28502 0.31770 0.25144
 O276 O 0.24742 0.32597 0.22171
 O277 O 0.24942 0.31768 0.28700
 O278 O 0.21944 0.32575 0.24950
 O279 O 0.31666 0.28600 0.25143
 O280 O 0.32657 0.25079 0.22350
 O281 O 0.28497 0.25101 0.31873
 O282 O 0.24898 0.22090 0.32697
 O283 O 0.24916 0.21357 0.18203
 O284 O 0.27814 0.25018 0.17476
 O285 O 0.18046 0.24997 0.21358
 O286 O 0.17430 0.28055 0.25023
 O287 O 0.21252 0.18132 0.25047
 O288 O 0.24700 0.17449 0.28005
 Zr289 Zr 0.24787 0.20277 0.24944
 O290 O 0.27226 0.22530 0.27427
 Zr291 Zr 0.20145 0.24894 0.24939
 O292 O 0.22395 0.27339 0.27430
 Zr293 Zr 0.24780 0.24912 0.20322
 O294 O 0.27230 0.27353 0.22594
 Zr295 Zr 0.24933 0.25056 0.29759
 O296 O 0.22459 0.22586 0.27491
 Zr297 Zr 0.29550 0.25050 0.25123
 O298 O 0.27321 0.22585 0.22612
 Zr299 Zr 0.24927 0.29672 0.25130
 O300 O 0.22448 0.27443 0.22622
 O301 O 0.22340 0.22467 0.22500
 O302 O 0.27399 0.27518 0.27598
 C303 C 0.24962 0.18948 0.18955
 C304 C 0.18845 0.18896 0.25174
 C305 C 0.18817 0.25092 0.18953
 C306 C 0.24939 0.31016 0.31110
 C307 C 0.30902 0.25058 0.31103
 C308 C 0.30910 0.31007 0.25147
 H309 H 0.28321 0.21336 0.28501
 H310 H 0.28324 0.28436 0.21406
 H311 H 0.21213 0.21342 0.21379
 H312 H 0.21209 0.28412 0.28537
 H313 H 0.20527 0.23816 0.31971
 H314 H 0.17625 0.25779 0.29282
 H315 H 0.32038 0.26078 0.20800
 H316 H 0.29181 0.23765 0.18073
 H317 H 0.26222 0.20746 0.32225
 H318 H 0.23545 0.18162 0.29402
 H319 H 0.26139 0.32216 0.20870
 H320 H 0.23678 0.29334 0.18104
 H321 H 0.27451 0.15891 0.24512
 H322 H 0.32158 0.20822 0.26328
 H323 H 0.17985 0.29317 0.23647
 H324 H 0.20654 0.32194 0.26358
 O325 O 0.74957 0.81729 0.21199
 O326 O 0.72117 0.82497 0.24825
 O327 O 0.81860 0.78523 0.24967
 O328 O 0.82832 0.75087 0.27499
 O329 O 0.78650 0.74869 0.17983
 O330 O 0.74848 0.72053 0.17195
 O331 O 0.74969 0.71279 0.31644
 O332 O 0.78045 0.74770 0.32314
 O333 O 0.68219 0.74807 0.28483
 O334 O 0.67369 0.77752 0.24766
 O335 O 0.71449 0.68039 0.24923
 O336 O 0.74697 0.67419 0.21828
 O337 O 0.74842 0.68106 0.28484
 O338 O 0.78221 0.67594 0.25075
 O339 O 0.68279 0.71214 0.24923
 O340 O 0.67437 0.75006 0.21914
 O341 O 0.71390 0.74752 0.31648
 O342 O 0.74577 0.77775 0.32453
 O343 O 0.74953 0.78581 0.18012
 O344 O 0.72031 0.74932 0.17293
 O345 O 0.81819 0.74879 0.21152
 O346 O 0.82406 0.71794 0.24877
 O347 O 0.78698 0.81696 0.24852
 O348 O 0.74860 0.82492 0.27751
 Zr349 Zr 0.75114 0.79613 0.24752
 O350 O 0.72659 0.77353 0.27202
 Zr351 Zr 0.79728 0.74984 0.24728
 O352 O 0.77470 0.72550 0.27211
 Zr353 Zr 0.75093 0.75011 0.20111
 O354 O 0.72672 0.72543 0.22390
 Zr355 Zr 0.74942 0.74831 0.29535
 O356 O 0.77447 0.77321 0.27310
 Zr357 Zr 0.70326 0.74821 0.24912
 O358 O 0.72554 0.77325 0.22431
 Zr359 Zr 0.74965 0.70207 0.24912
 O360 O 0.77431 0.72441 0.22383
 O361 O 0.77550 0.77440 0.22291
 O362 O 0.72492 0.72365 0.27370
 C363 C 0.74891 0.80983 0.18788
 C364 C 0.81102 0.80931 0.24979
 C365 C 0.81059 0.74813 0.18744
 C366 C 0.74897 0.68872 0.30890
 C367 C 0.68981 0.74771 0.30891
 C368 C 0.69041 0.68805 0.24924
 H369 H 0.71590 0.78541 0.28312
 H370 H 0.71608 0.71433 0.21198
 H371 H 0.78677 0.78568 0.21173
 H372 H 0.78654 0.71460 0.28307
 H373 H 0.79240 0.76240 0.31860
 H374 H 0.82166 0.74265 0.29132
 H375 H 0.67792 0.73565 0.20656
 H376 H 0.70662 0.76167 0.17921
 H377 H 0.75722 0.79245 0.31905
 H378 H 0.76426 0.82294 0.28892
 H379 H 0.76274 0.67659 0.20710
 H380 H 0.76244 0.70755 0.17584
 H381 H 0.70687 0.81841 0.23675
 H382 H 0.67810 0.79098 0.26099
 H383 H 0.81930 0.70582 0.23429
 H384 H 0.77529 0.65788 0.25332
 O385 O 0.75050 0.18157 0.78627
 O386 O 0.72227 0.17386 0.74978
 O387 O 0.81933 0.21393 0.74881
 O388 O 0.82931 0.24828 0.72379
 O389 O 0.78706 0.25041 0.81859
 O390 O 0.74922 0.27807 0.82676
 O391 O 0.74985 0.28595 0.68183
 O392 O 0.78045 0.25181 0.67460
 O393 O 0.68283 0.25073 0.71379
 O394 O 0.67412 0.22173 0.75108
 O395 O 0.71517 0.31851 0.74905
 O396 O 0.74772 0.32492 0.77981
 O397 O 0.74891 0.31773 0.71338
 O398 O 0.78288 0.32293 0.74734
 O399 O 0.68338 0.28686 0.74920
 O400 O 0.67533 0.24886 0.77966
 O401 O 0.71435 0.25083 0.68195
 O402 O 0.75083 0.22019 0.67426
 O403 O 0.75026 0.21307 0.81814
 O404 O 0.72077 0.24973 0.82522
 O405 O 0.81894 0.25030 0.78711
 O406 O 0.82448 0.28155 0.74999
 O407 O 0.78787 0.18199 0.74938
 O408 O 0.75103 0.17471 0.72024
 Zr409 Zr 0.75205 0.20287 0.75082
 O410 O 0.72714 0.22534 0.72650
 Zr411 Zr 0.79805 0.24934 0.75127
 O412 O 0.77537 0.27337 0.72620
 Zr413 Zr 0.75159 0.24884 0.79726
 O414 O 0.72743 0.27359 0.77449
 Zr415 Zr 0.75005 0.25045 0.70300
 O416 O 0.77528 0.22603 0.72547
 Zr417 Zr 0.70393 0.25076 0.74941
 O418 O 0.72631 0.22564 0.77405
 Zr419 Zr 0.75031 0.29684 0.74914
 O420 O 0.77491 0.27465 0.77462
 O421 O 0.77631 0.22464 0.77551
 O422 O 0.72555 0.27517 0.72465
 C423 C 0.74974 0.18905 0.81038
 C424 C 0.81190 0.18980 0.74838
 C425 C 0.81119 0.25096 0.81114
 C426 C 0.74921 0.31003 0.68933
 C427 C 0.69030 0.25080 0.68968
 C428 C 0.69106 0.31095 0.74911
 H429 H 0.71614 0.21337 0.71586
 H430 H 0.71684 0.28474 0.78642
 H431 H 0.78760 0.21334 0.78667
 H432 H 0.78714 0.28427 0.71517
 H433 H 0.79408 0.23911 0.68032
 H434 H 0.82317 0.25741 0.70774
 H435 H 0.67860 0.26363 0.79190
 H436 H 0.70735 0.23697 0.81917
 H437 H 0.73661 0.20754 0.67826
 H438 H 0.76359 0.18079 0.70664
 H439 H 0.76344 0.32249 0.79104
 H440 H 0.76250 0.29159 0.82238
 H441 H 0.70787 0.18031 0.76121
 H442 H 0.67857 0.20795 0.73809
 H443 H 0.81984 0.29336 0.76476
 H444 H 0.77597 0.34098 0.74465
 O445 O 0.25076 0.81982 0.78703
 O446 O 0.28079 0.82635 0.75034
 O447 O 0.18250 0.78790 0.74922
 O448 O 0.17229 0.75354 0.72405
 O449 O 0.21418 0.75102 0.81910
 O450 O 0.25205 0.72318 0.82721
 O451 O 0.25141 0.71523 0.68235
 O452 O 0.22088 0.74993 0.67530
 O453 O 0.31882 0.75015 0.71452
 O454 O 0.32686 0.77979 0.74827
 O455 O 0.28609 0.68280 0.74976
 O456 O 0.25345 0.67643 0.78044
 O457 O 0.25232 0.68358 0.71403
 O458 O 0.21833 0.67847 0.74796
 O459 O 0.31801 0.71433 0.74999
 O460 O 0.32563 0.75250 0.78070
 O461 O 0.28724 0.75015 0.68273
 O462 O 0.25138 0.78072 0.67445
 O463 O 0.25101 0.78818 0.81875
 O464 O 0.28051 0.75155 0.82581
 O465 O 0.18248 0.75123 0.78742
 O466 O 0.17666 0.72028 0.75028
 O467 O 0.21396 0.81990 0.75044
 O468 O 0.24890 0.82558 0.71950
 Zr469 Zr 0.24954 0.79865 0.75134
 O470 O 0.27433 0.77589 0.72713
 Zr471 Zr 0.20341 0.75221 0.75167
 O472 O 0.22601 0.72800 0.72670
 Zr473 Zr 0.24974 0.75251 0.79779
 O474 O 0.27386 0.72771 0.77507
 Zr475 Zr 0.25146 0.75079 0.70355
 O476 O 0.22638 0.77533 0.72603
 Zr477 Zr 0.29748 0.75044 0.75000
 O478 O 0.27515 0.77570 0.77464
 Zr479 Zr 0.25095 0.70450 0.74974
 O480 O 0.22636 0.72679 0.77512
 O481 O 0.22522 0.77677 0.77592
 O482 O 0.27581 0.72603 0.72526
 C483 C 0.25147 0.81224 0.81112
 C484 C 0.18994 0.81207 0.74916
 C485 C 0.19008 0.75051 0.81149
 C486 C 0.25198 0.69116 0.68995
 C487 C 0.31130 0.75005 0.69041
 C488 C 0.31023 0.69026 0.74989
 H489 H 0.28567 0.78774 0.71666
 H490 H 0.28440 0.71654 0.78703
 H491 H 0.21391 0.78801 0.78710
 H492 H 0.21420 0.71712 0.71568
 H493 H 0.20765 0.76311 0.68089
 H494 H 0.17843 0.74437 0.70803
 H495 H 0.32269 0.73737 0.79258
 H496 H 0.29388 0.76442 0.81989
 H497 H 0.26502 0.79378 0.67909
 H498 H 0.23571 0.81912 0.70670
 H499 H 0.23773 0.67892 0.79166
 H500 H 0.23856 0.70983 0.82295
 H501 H 0.27372 0.84402 0.75473
 H502 H 0.31906 0.79575 0.75622
 H503 H 0.18137 0.70823 0.76485
 H504 H 0.22519 0.66041 0.74527
 O505 O 0.24930 0.31799 0.71413
 O506 O 0.21944 0.32468 0.75085
 O507 O 0.31774 0.28616 0.75170
 O508 O 0.32790 0.25174 0.77694
 O509 O 0.28583 0.24926 0.68193
 O510 O 0.24798 0.22145 0.67389
 O511 O 0.24880 0.21367 0.81872
 O512 O 0.27939 0.24821 0.82576
 O513 O 0.18142 0.24859 0.78669
 O514 O 0.17336 0.27825 0.75293
 O515 O 0.21388 0.18109 0.75146
 O516 O 0.24655 0.17468 0.72075
 O517 O 0.24775 0.18185 0.78722
 O518 O 0.28170 0.17668 0.75321
 O519 O 0.18216 0.21282 0.75126
 O520 O 0.17444 0.25089 0.72057
 O521 O 0.21308 0.24857 0.81842
 O522 O 0.24904 0.27911 0.82657
 O523 O 0.24902 0.28649 0.68229
 O524 O 0.21946 0.24981 0.67538
 O525 O 0.31759 0.24943 0.71355
 O526 O 0.32348 0.21848 0.75064
 O527 O 0.28616 0.31805 0.75056
 O528 O 0.25137 0.32386 0.78157
 Zr529 Zr 0.25062 0.29688 0.74977
 O530 O 0.22586 0.27424 0.77403
 Zr531 Zr 0.29675 0.25044 0.74933
 O532 O 0.27416 0.22626 0.77436
 Zr533 Zr 0.25032 0.25079 0.70330
 O534 O 0.22622 0.22602 0.72610
 Zr535 Zr 0.24880 0.24914 0.79753
 O536 O 0.27387 0.27360 0.77501
 Zr537 Zr 0.20270 0.24884 0.75119
 O538 O 0.22498 0.27403 0.72648
 Zr539 Zr 0.24910 0.20275 0.75143
 O540 O 0.27368 0.22504 0.72599
 O541 O 0.27489 0.27501 0.72513
 O542 O 0.22435 0.22441 0.77591
 C543 C 0.24855 0.31052 0.69003
 C544 C 0.31020 0.31030 0.75178
 C545 C 0.30993 0.24872 0.68950
 C546 C 0.24814 0.18958 0.81126
 C547 C 0.18901 0.24850 0.81078
 C548 C 0.18978 0.18873 0.75134
 H549 H 0.21457 0.28612 0.78451
 H550 H 0.21564 0.21487 0.71417
 H551 H 0.28617 0.28625 0.71392
 H552 H 0.28597 0.21538 0.78538
 H553 H 0.29269 0.26129 0.82011
 H554 H 0.32181 0.24246 0.79292
 H555 H 0.17740 0.23581 0.70865
 H556 H 0.20615 0.26276 0.68126
 H557 H 0.23530 0.29212 0.82205
 H558 H 0.26459 0.31740 0.79434
 H559 H 0.26227 0.17714 0.70952
 H560 H 0.26141 0.20805 0.67820
 H561 H 0.22652 0.34233 0.74640
 H562 H 0.18115 0.29417 0.74489
 H563 H 0.31865 0.20640 0.73615
 H564 H 0.27482 0.15863 0.75593
 O565 O 0.75089 0.68198 0.71360
 O566 O 0.78251 0.67691 0.75007
 O567 O 0.68272 0.71318 0.75161
 O568 O 0.67267 0.74743 0.77745
 O569 O 0.71418 0.75081 0.68199
 O570 O 0.75085 0.77967 0.67478
 O571 O 0.75129 0.78621 0.81864
 O572 O 0.72045 0.75151 0.82541
 O573 O 0.81849 0.75032 0.78676
 O574 O 0.82417 0.71897 0.74678
 O575 O 0.78699 0.81786 0.75135
 O576 O 0.74930 0.82606 0.72157
 O577 O 0.75139 0.81779 0.78690
 O578 O 0.72147 0.82597 0.74949
 O579 O 0.81864 0.78617 0.75130
 O580 O 0.82848 0.75092 0.72330
 O581 O 0.78697 0.75118 0.81859
 O582 O 0.75101 0.72102 0.82685
 O583 O 0.75110 0.71378 0.68201
 O584 O 0.78000 0.75038 0.67465
 O585 O 0.68239 0.75011 0.71359
 O586 O 0.67622 0.78067 0.75023
 O587 O 0.71449 0.68146 0.75041
 O588 O 0.74898 0.67469 0.78004
 Zr589 Zr 0.74982 0.70293 0.74940
 O590 O 0.77426 0.72546 0.77416
 Zr591 Zr 0.70339 0.74908 0.74937
 O592 O 0.72593 0.77354 0.77423
 Zr593 Zr 0.74971 0.74930 0.70317
 O594 O 0.77425 0.77371 0.72583
 Zr595 Zr 0.75133 0.75069 0.79750
 O596 O 0.72655 0.72600 0.77487
 Zr597 Zr 0.79747 0.75067 0.75109
 O598 O 0.77514 0.72602 0.72604
 Zr599 Zr 0.75123 0.79687 0.75121
 O600 O 0.72640 0.77459 0.72619
 O601 O 0.72535 0.72483 0.72496
 O602 O 0.77596 0.77533 0.77586
 C603 C 0.75159 0.68969 0.68955
 C604 C 0.69041 0.68908 0.75168
 C605 C 0.69008 0.75108 0.68954
 C606 C 0.75136 0.81024 0.81097
 C607 C 0.81102 0.75076 0.81087
 C608 C 0.81108 0.81024 0.75137
 H609 H 0.78522 0.71352 0.78489
 H610 H 0.78518 0.78455 0.71394
 H611 H 0.71407 0.71358 0.71376
 H612 H 0.71408 0.78426 0.78531
 H613 H 0.70730 0.73831 0.81969
 H614 H 0.67826 0.75795 0.79283
 H615 H 0.82234 0.76105 0.70787
 H616 H 0.79373 0.73792 0.68065
 H617 H 0.76428 0.70761 0.82215
 H618 H 0.73737 0.68179 0.79397
 H619 H 0.76338 0.82237 0.70864
 H620 H 0.73865 0.79352 0.68100
 H621 H 0.77642 0.65904 0.74510
 H622 H 0.82355 0.70838 0.76311
 H623 H 0.68178 0.79331 0.73650
 H624 H 0.70848 0.82206 0.76346
 O625 O 0.24936 0.68163 0.28580
 O626 O 0.22104 0.67408 0.24931
 O627 O 0.31823 0.71384 0.24834
 O628 O 0.32850 0.74820 0.22357
 O629 O 0.28602 0.75038 0.31822
 O630 O 0.24828 0.77805 0.32641
 O631 O 0.24916 0.78606 0.18138
 O632 O 0.27966 0.75181 0.17420
 O633 O 0.18201 0.75106 0.21329
 O634 O 0.17314 0.72207 0.25055
 O635 O 0.21454 0.81868 0.24857
 O636 O 0.24706 0.82505 0.27934
 O637 O 0.24830 0.81784 0.21293
 O638 O 0.28227 0.82289 0.24697
 O639 O 0.18265 0.78715 0.24869
 O640 O 0.17437 0.74923 0.27910
 O641 O 0.21356 0.75109 0.18148
 O642 O 0.24996 0.72029 0.17383
 O643 O 0.24917 0.71309 0.31769
 O644 O 0.21968 0.74989 0.32469
 O645 O 0.31795 0.75013 0.28678
 O646 O 0.32362 0.78144 0.24968
 O647 O 0.28667 0.68200 0.24888
 O648 O 0.24983 0.67479 0.21981
 Zr649 Zr 0.25095 0.70297 0.25037
 O650 O 0.22619 0.72552 0.22602
 Zr651 Zr 0.29712 0.74929 0.25091
 O652 O 0.27459 0.77339 0.22578
 Zr653 Zr 0.25059 0.74889 0.29684
 O654 O 0.22659 0.77375 0.27403
 Zr655 Zr 0.24922 0.75056 0.20256
 O656 O 0.27431 0.72606 0.22507
 Zr657 Zr 0.20305 0.75100 0.24892
 O658 O 0.22527 0.72578 0.27360
 Zr659 Zr 0.24959 0.79693 0.24870
 O660 O 0.27403 0.77465 0.27425
 O661 O 0.27526 0.72463 0.27510
 O662 O 0.22478 0.77535 0.22419
 C663 C 0.24861 0.68907 0.30992
 C664 C 0.31070 0.68975 0.24786
 C665 C 0.31016 0.75084 0.31079
 C666 C 0.24860 0.81014 0.18888
 C667 C 0.18951 0.75112 0.18919
 C668 C 0.19042 0.81119 0.24861
 H669 H 0.21515 0.71360 0.21535
 H670 H 0.21603 0.78494 0.28594
 H671 H 0.28651 0.71330 0.28625
 H672 H 0.28642 0.78426 0.21477
 H673 H 0.29325 0.73908 0.17995
 H674 H 0.32238 0.75719 0.20744
 H675 H 0.17773 0.76393 0.29140
 H676 H 0.20631 0.73706 0.31868
 H677 H 0.23561 0.70775 0.17774
 H678 H 0.26236 0.68086 0.20618
 H679 H 0.26272 0.82253 0.29063
 H680 H 0.26146 0.79164 0.32197
 H681 H 0.20670 0.68055 0.26081
 H682 H 0.17756 0.70828 0.23756
 H683 H 0.31907 0.79320 0.26451
 H684 H 0.27545 0.84096 0.24421
 O685 O 0.75053 0.31862 0.28619
 O686 O 0.78046 0.32522 0.24948
 O687 O 0.68229 0.28654 0.24842
 O688 O 0.67201 0.25209 0.22346
 O689 O 0.71405 0.24987 0.31839
 O690 O 0.75196 0.22201 0.32647
 O691 O 0.75126 0.21404 0.18168
 O692 O 0.72065 0.24863 0.17458
 O693 O 0.81859 0.24909 0.21377
 O694 O 0.82659 0.27880 0.24749
 O695 O 0.78599 0.18173 0.24907
 O696 O 0.75341 0.17528 0.27978
 O697 O 0.75225 0.18243 0.21340
 O698 O 0.71827 0.17724 0.24732
 O699 O 0.81786 0.21332 0.24922
 O700 O 0.82547 0.25148 0.27991
 O701 O 0.78697 0.24899 0.18200
 O702 O 0.75103 0.27952 0.17373
 O703 O 0.75087 0.28701 0.31794
 O704 O 0.78033 0.25043 0.32510
 O705 O 0.68233 0.24998 0.28674
 O706 O 0.67656 0.21890 0.24962
 O707 O 0.71369 0.31860 0.24966
 O708 O 0.74855 0.32435 0.21869
 Zr709 Zr 0.74928 0.29744 0.25055
 O710 O 0.77409 0.27475 0.22635
 Zr711 Zr 0.70323 0.25091 0.25098
 O712 O 0.72584 0.22675 0.22601
 Zr713 Zr 0.74958 0.25134 0.29705
 O714 O 0.77374 0.22660 0.27435
 Zr715 Zr 0.75122 0.24959 0.20283
 O716 O 0.72611 0.27407 0.22530
 Zr717 Zr 0.79728 0.24937 0.24924
 O718 O 0.77492 0.27458 0.27388
 Zr719 Zr 0.75083 0.20334 0.24908
 O720 O 0.72621 0.22557 0.27445
 O721 O 0.72501 0.27554 0.27518
 O722 O 0.77563 0.22491 0.22456
 C723 C 0.75131 0.31104 0.31027
 C724 C 0.68970 0.31071 0.24835
 C725 C 0.68995 0.24932 0.31080
 C726 C 0.75190 0.19000 0.18933
 C727 C 0.81103 0.24896 0.18967
 C728 C 0.81010 0.18926 0.24916
 H729 H 0.78540 0.28661 0.21586
 H730 H 0.78430 0.21546 0.28631
 H731 H 0.71370 0.28678 0.28635
 H732 H 0.71404 0.21585 0.21500
 H733 H 0.70736 0.26175 0.18018
 H734 H 0.67819 0.24306 0.20737
 H735 H 0.82257 0.23636 0.29179
 H736 H 0.79373 0.26324 0.31914
 H737 H 0.76473 0.29256 0.17828
 H738 H 0.73536 0.31785 0.20591
 H739 H 0.73770 0.17775 0.29102
 H740 H 0.73841 0.20869 0.32229
 H741 H 0.77336 0.34288 0.25387
 H742 H 0.81877 0.29472 0.25550
 H743 H 0.68124 0.20694 0.26427
 H744 H 0.72517 0.15919 0.24463
 C745 C 0.25056 0.10121 0.08958
 N746 N 0.27340 0.11217 0.09802
 N747 N 0.27347 0.12867 0.11840
 C748 C 0.25070 0.13473 0.13095
 N749 N 0.22787 0.12373 0.12254
 N750 N 0.22780 0.10723 0.10216
 C751 C 0.25031 0.08457 0.06675
 C752 C 0.25009 0.07118 0.04715
 C753 C 0.25057 0.15350 0.15207
 C754 C 0.25027 0.16970 0.16940
 C755 C 0.75229 0.60175 0.58957
 N756 N 0.72975 0.60694 0.60290
 N757 N 0.72992 0.62338 0.62331
 C758 C 0.75263 0.63510 0.63102
 N759 N 0.77518 0.62986 0.61773
 N760 N 0.77501 0.61342 0.59731
 C761 C 0.75188 0.58511 0.56681
 C762 C 0.75153 0.57164 0.54732
 C763 C 0.75254 0.65379 0.65212
 C764 C 0.75225 0.66996 0.66944
 C765 C 0.74771 0.91050 0.10064
 N766 N 0.77017 0.89682 0.10523
 N767 N 0.77007 0.87623 0.12147
 C768 C 0.74751 0.86871 0.13359
 N769 N 0.72504 0.88235 0.12896
 N770 N 0.72514 0.90294 0.11273
 C771 C 0.74808 0.93343 0.08422
 C772 C 0.74842 0.95305 0.07091
 C773 C 0.74771 0.84743 0.15213
 C774 C 0.74811 0.83001 0.16819
 C775 C 0.24760 0.41099 0.60248
 N776 N 0.22495 0.40331 0.61435
 N777 N 0.22483 0.38281 0.63069
 C778 C 0.24736 0.36936 0.63564
 N779 N 0.26999 0.37701 0.62373
 N780 N 0.27011 0.39752 0.60739
 C781 C 0.24794 0.43379 0.58585
 C782 C 0.24825 0.45328 0.57233
 C783 C 0.24750 0.34812 0.65423
 C784 C 0.24784 0.33070 0.67032
 C785 C 0.74812 0.08972 0.89918
 N786 N 0.77079 0.10275 0.89382
 N787 N 0.77082 0.12297 0.87713
 C788 C 0.74819 0.13075 0.86529
 N789 N 0.72551 0.11776 0.87069
 N790 N 0.72548 0.09755 0.88738
 C791 C 0.74832 0.06708 0.91600
 C792 C 0.74851 0.04762 0.92953
 C793 C 0.74848 0.15170 0.84639
 C794 C 0.74892 0.16893 0.83012
 C795 C 0.24713 0.58956 0.39858
 N796 N 0.26964 0.60306 0.39372
 N797 N 0.26962 0.62329 0.37705
 C798 C 0.24710 0.63063 0.36472
 N799 N 0.22459 0.61716 0.36961
 N800 N 0.22460 0.59693 0.38629
 C801 C 0.24741 0.56697 0.41549
 C802 C 0.24766 0.54760 0.42916
 C803 C 0.24736 0.65163 0.34587
 C804 C 0.24779 0.66892 0.32964
 C805 C 0.25191 0.90082 0.91078
 N806 N 0.22937 0.89539 0.89755
 N807 N 0.22959 0.87883 0.87721
 C808 C 0.25235 0.86721 0.86949
 N809 N 0.27490 0.87269 0.88269
 N810 N 0.27468 0.88924 0.90303
 C811 C 0.25144 0.91751 0.93357
 C812 C 0.25102 0.93092 0.95314
 C813 C 0.25233 0.84837 0.84844
 C814 C 0.25209 0.83210 0.83118
 C815 C 0.75215 0.39905 0.41014
 N816 N 0.77485 0.38735 0.40240
 N817 N 0.77500 0.37095 0.38195
 C818 C 0.75244 0.36578 0.36864
 N819 N 0.72975 0.37753 0.37635
 N820 N 0.72960 0.39393 0.39680
 C821 C 0.75176 0.41563 0.43294
 C822 C 0.75142 0.42906 0.45246
 C823 C 0.75232 0.34708 0.34755
 C824 C 0.75200 0.33087 0.33027
 C825 C 0.10062 0.25197 0.08897
 N826 N 0.10590 0.22936 0.10211
 N827 N 0.12219 0.22945 0.12268
 C828 C 0.13369 0.25214 0.13072
 N829 N 0.12837 0.27475 0.11760
 N830 N 0.11208 0.27467 0.09704
 C831 C 0.08415 0.25167 0.06603
 C832 C 0.07082 0.25139 0.04639
 C833 C 0.15229 0.25197 0.15197
 C834 C 0.16841 0.25163 0.16938
 C835 C 0.60240 0.75194 0.58915
 N836 N 0.60731 0.72947 0.60267
 N837 N 0.62365 0.72961 0.62318
 C838 C 0.63557 0.75222 0.63081
 N839 N 0.63062 0.77471 0.61733
 N840 N 0.61428 0.77457 0.59681
 C841 C 0.58579 0.75157 0.56634
 C842 C 0.57228 0.75123 0.54685
 C843 C 0.65419 0.75209 0.65203
 C844 C 0.67032 0.75177 0.66941
 C845 C 0.08978 0.74872 0.89933
 N846 N 0.09853 0.72598 0.88845
 N847 N 0.11905 0.72611 0.87211
 C848 C 0.13144 0.74897 0.86615
 N849 N 0.12273 0.77169 0.87707
 N850 N 0.10220 0.77157 0.89341
 C851 C 0.06683 0.74876 0.91579
 C852 C 0.04715 0.74881 0.92907
 C853 C 0.15264 0.74930 0.84748
 C854 C 0.16999 0.74974 0.83130
 C855 C 0.58977 0.24787 0.39871
 N856 N 0.60264 0.27059 0.39320
 N857 N 0.62313 0.27061 0.37683
 C858 C 0.63138 0.24793 0.36547
 N859 N 0.61855 0.22521 0.37102
 N860 N 0.59806 0.22518 0.38740
 C861 C 0.56694 0.24804 0.41530
 C862 C 0.54739 0.24820 0.42875
 C863 C 0.65255 0.24819 0.34680
 C864 C 0.66989 0.24859 0.33062
 C865 C 0.91055 0.74714 0.09920
 N866 N 0.90273 0.72447 0.11089
 N867 N 0.88231 0.72437 0.12735
 C868 C 0.86909 0.74694 0.13262
 N869 N 0.87687 0.76959 0.12089
 N870 N 0.89730 0.76969 0.10443
 C871 C 0.93341 0.74749 0.08262
 C872 C 0.95303 0.74783 0.06927
 C873 C 0.84798 0.74709 0.15139
 C874 C 0.83067 0.74743 0.16762
 C875 C 0.41000 0.24739 0.60148
 N876 N 0.39676 0.26998 0.60660
 N877 N 0.37629 0.26995 0.62299
 C878 C 0.36843 0.24733 0.63475
 N879 N 0.38164 0.22473 0.62960
 N880 N 0.40211 0.22476 0.61320
 C881 C 0.43283 0.24764 0.58488
 C882 C 0.45237 0.24789 0.57143
 C883 C 0.34729 0.24757 0.65345
 C884 C 0.32997 0.24797 0.66966
 C885 C 0.89977 0.25207 0.91084
 N886 N 0.89433 0.22946 0.89776
 N887 N 0.87772 0.22952 0.87747
 C888 C 0.86602 0.25219 0.86964
 N889 N 0.87149 0.27481 0.88267
 N890 N 0.88811 0.27475 0.90297
 C891 C 0.91654 0.25177 0.93355
 C892 C 0.93004 0.25150 0.95307
 C893 C 0.84717 0.25202 0.84860
 C894 C 0.83093 0.25168 0.83130
 C895 C 0.39850 0.75185 0.41063
 N896 N 0.39308 0.72924 0.39755
 N897 N 0.37650 0.72931 0.37723
 C898 C 0.36483 0.75199 0.36938
 N899 N 0.37029 0.77460 0.38243
 N900 N 0.38687 0.77453 0.40275
 C901 C 0.41533 0.75156 0.43328
 C902 C 0.42897 0.75132 0.45269
 C903 C 0.34605 0.75183 0.34831
 C904 C 0.32986 0.75151 0.33097
 C905 C 0.09997 0.08936 0.25349
 N906 N 0.10461 0.10297 0.23102
 N907 N 0.12114 0.12332 0.23101
 C908 C 0.13354 0.13066 0.25348
 N909 N 0.12884 0.11709 0.27597
 N910 N 0.11231 0.09674 0.27598
 C911 C 0.08335 0.06657 0.25319
 C912 C 0.07000 0.04698 0.25289
 C913 C 0.15236 0.15167 0.25317
 C914 C 0.16863 0.16891 0.25267
 C915 C 0.60170 0.58963 0.75340
 N916 N 0.61403 0.59700 0.77589
 N917 N 0.63066 0.61727 0.77588
 C918 C 0.63545 0.63078 0.75337
 N919 N 0.62307 0.62344 0.73089
 N920 N 0.60645 0.60317 0.73091
 C921 C 0.58488 0.56697 0.75314
 C922 C 0.57130 0.54752 0.75289
 C923 C 0.65432 0.65177 0.75307
 C924 C 0.67059 0.66902 0.75259
 C925 C 0.91167 0.10121 0.74658
 N926 N 0.89772 0.10553 0.76892
 N927 N 0.87744 0.12218 0.76891
 C928 C 0.87050 0.13503 0.74657
 N929 N 0.88442 0.13067 0.72421
 N930 N 0.90470 0.11402 0.72422
 C931 C 0.93437 0.08439 0.74690
 C932 C 0.95389 0.07086 0.74721
 C933 C 0.84944 0.15388 0.74687
 C934 C 0.83211 0.17009 0.74739
 C935 C 0.41030 0.60131 0.24548
 N936 N 0.40369 0.61467 0.22334
 N937 N 0.38339 0.63126 0.22343
 C938 C 0.36910 0.63500 0.24565
 N939 N 0.37567 0.62160 0.26777
 N940 N 0.39598 0.60500 0.26769
 C941 C 0.43295 0.58450 0.24573
 C942 C 0.45236 0.57090 0.24599
 C943 C 0.34809 0.65381 0.24610
 C944 C 0.33081 0.67002 0.24674
 C945 C 0.08961 0.89998 0.74741
 N946 N 0.09735 0.88800 0.72485
 N947 N 0.11778 0.87154 0.72489
 C948 C 0.13109 0.86656 0.74749
 N949 N 0.12338 0.87858 0.77004
 N950 N 0.10295 0.89504 0.77000
 C951 C 0.06679 0.91665 0.74761
 C952 C 0.04723 0.93011 0.74780
 C953 C 0.15229 0.84787 0.74780
 C954 C 0.16970 0.83174 0.74827
 C955 C 0.58901 0.39788 0.24638
 N956 N 0.59637 0.38537 0.22400
 N957 N 0.61692 0.36908 0.22404
 C958 C 0.63073 0.36484 0.24648
 N959 N 0.62341 0.37739 0.26886
 N960 N 0.60286 0.39368 0.26881
 C961 C 0.56617 0.41443 0.24660
 C962 C 0.54666 0.42789 0.24681
 C963 C 0.65200 0.34632 0.24685
 C964 C 0.66946 0.33029 0.24739
 C965 C 0.89924 0.90913 0.25224
 N966 N 0.88750 0.90102 0.27480
 N967 N 0.87106 0.88060 0.27461
 C968 C 0.86587 0.86766 0.25186
 N969 N 0.87766 0.87573 0.22931
 N970 N 0.89409 0.89616 0.22950
 C971 C 0.91578 0.93198 0.25220
 C972 C 0.92912 0.95158 0.25214
 C973 C 0.84711 0.84659 0.25139
 C974 C 0.83087 0.82932 0.25079
 C975 C 0.39847 0.41012 0.75343
 N976 N 0.38649 0.40242 0.77600
 N977 N 0.37004 0.38199 0.77599
 C978 C 0.36510 0.36865 0.75342
 N979 N 0.37713 0.37632 0.73087
 N980 N 0.39358 0.39674 0.73087
 C981 C 0.41512 0.43291 0.75319
 C982 C 0.42860 0.45242 0.75296
 C983 C 0.34635 0.34755 0.75313
 C984 C 0.33010 0.33028 0.75266
 C985 C 0.10095 0.24938 0.91083
 N986 N 0.11122 0.22634 0.90213
 N987 N 0.12762 0.22600 0.88166
 C988 C 0.13424 0.24868 0.86928
 N989 N 0.12392 0.27171 0.87795
 N990 N 0.10752 0.27205 0.89842
 C991 C 0.08438 0.24988 0.93368
 C992 C 0.07098 0.25029 0.95325
 C993 C 0.15295 0.24848 0.84814
 C994 C 0.16916 0.24842 0.83083
 C995 C 0.60142 0.74871 0.40880
 N996 N 0.61188 0.72568 0.40030
 N997 N 0.62838 0.72530 0.37991
 C998 C 0.63494 0.74794 0.36741
 N999 N 0.62444 0.77096 0.37588
 N1000 N 0.60794 0.77134 0.39627
 C1001 C 0.58480 0.74928 0.43164
 C1002 C 0.57142 0.74975 0.45124
 C1003 C 0.65373 0.74770 0.34631
 C1004 C 0.66997 0.74763 0.32900
 C1005 C 0.91154 0.74980 0.89843
 N1006 N 0.89985 0.72700 0.89103
 N1007 N 0.87933 0.72728 0.87470
 C1008 C 0.86987 0.75038 0.86528
 N1009 N 0.88152 0.77319 0.87272
 N1010 N 0.90205 0.77291 0.88905
 C1011 C 0.93440 0.74943 0.91500
 C1012 C 0.95396 0.74915 0.92844
 C1013 C 0.84862 0.75059 0.84668
 C1014 C 0.83120 0.75071 0.83058
 C1015 C 0.40928 0.24955 0.39905
 N1016 N 0.39769 0.22674 0.39149
 N1017 N 0.37724 0.22703 0.37505
 C1018 C 0.36777 0.25014 0.36566
 N1019 N 0.37933 0.27296 0.37326
 N1020 N 0.39977 0.27266 0.38970
 C1021 C 0.43213 0.24916 0.41567
 C1022 C 0.45171 0.24887 0.42908
 C1023 C 0.34658 0.25038 0.34696
 C1024 C 0.32920 0.25051 0.33079
 C1025 C 0.08961 0.75009 0.10090
 N1026 N 0.10173 0.72737 0.10789
 N1027 N 0.12209 0.72772 0.12443
 C1028 C 0.13094 0.75079 0.13447
 N1029 N 0.11886 0.77351 0.12744
 N1030 N 0.09849 0.77317 0.11090
 C1031 C 0.06689 0.74960 0.08416
 C1032 C 0.04741 0.74920 0.07061
 C1033 C 0.15204 0.75104 0.15323
 C1034 C 0.16936 0.75114 0.16943
 C1035 C 0.59035 0.24972 0.60130
 N1036 N 0.60208 0.22694 0.60876
 N1037 N 0.62243 0.22727 0.62532
 C1038 C 0.63167 0.25038 0.63493
 N1039 N 0.61998 0.27316 0.62742
 N1040 N 0.59962 0.27283 0.61087
 C1041 C 0.56758 0.24928 0.58458
 C1042 C 0.54803 0.24894 0.57111
 C1043 C 0.65278 0.25063 0.65371
 C1044 C 0.67012 0.25076 0.66992
 C1045 C 0.89924 0.24971 0.08977
 N1046 N 0.88921 0.22666 0.09870
 N1047 N 0.87278 0.22635 0.11914
 C1048 C 0.86589 0.24909 0.13127
 N1049 N 0.87596 0.27213 0.12238
 N1050 N 0.89239 0.27244 0.10193
 C1051 C 0.91583 0.25016 0.06695
 C1052 C 0.92926 0.25052 0.04740
 C1053 C 0.84715 0.24890 0.15237
 C1054 C 0.83091 0.24885 0.16965
 C1055 C 0.39988 0.75027 0.59072
 N1056 N 0.39020 0.72724 0.60008
 N1057 N 0.37368 0.72708 0.62046
 C1058 C 0.36634 0.74994 0.63209
 N1059 N 0.37607 0.77296 0.62276
 N1060 N 0.39258 0.77313 0.60238
 C1061 C 0.41650 0.75054 0.56788
 C1062 C 0.42987 0.75075 0.54828
 C1063 C 0.34750 0.74986 0.65315
 C1064 C 0.33121 0.74989 0.67040
 C1065 C 0.24844 0.10185 0.91165
 N1066 N 0.27108 0.10778 0.89881
 N1067 N 0.27082 0.12417 0.87834
 C1068 C 0.24791 0.13513 0.87009
 N1069 N 0.22526 0.12915 0.88290
 N1070 N 0.22552 0.11276 0.90336
 C1071 C 0.24888 0.08521 0.93446
 C1072 C 0.24925 0.07173 0.95398
 C1073 C 0.24783 0.15376 0.84887
 C1074 C 0.24789 0.16987 0.83146
 C1075 C 0.74956 0.60104 0.40923
 N1076 N 0.77229 0.60752 0.39681
 N1077 N 0.77200 0.62385 0.37630
 C1078 C 0.74898 0.63419 0.36759
 N1079 N 0.72624 0.62767 0.37997
 N1080 N 0.72653 0.61133 0.40048
 C1081 C 0.75002 0.58455 0.43212
 C1082 C 0.75038 0.57122 0.45173
 C1083 C 0.74883 0.65282 0.34640
 C1084 C 0.74882 0.66896 0.32903
 C1085 C 0.75112 0.08976 0.10168
 N1086 N 0.77404 0.09774 0.11278
 N1087 N 0.77444 0.11825 0.12909
 C1088 C 0.75192 0.13140 0.13478
 N1089 N 0.72900 0.12346 0.12364
 N1090 N 0.72860 0.10295 0.10732
 C1091 C 0.75049 0.06691 0.08518
 C1092 C 0.74997 0.04735 0.07181
 C1093 C 0.75211 0.15258 0.15340
 C1094 C 0.75211 0.16992 0.16955
 C1095 C 0.25101 0.59125 0.60163
 N1096 N 0.27399 0.59936 0.61253
 N1097 N 0.27441 0.61974 0.62901
 C1098 C 0.25185 0.63265 0.63511
 N1099 N 0.22887 0.62458 0.62417
 N1100 N 0.22845 0.60419 0.60768
 C1101 C 0.25037 0.56844 0.58499
 C1102 C 0.24983 0.54886 0.57159
 C1103 C 0.25209 0.65376 0.65388
 C1104 C 0.25214 0.67107 0.67011
 C1105 C 0.75000 0.90994 0.89923
 N1106 N 0.77319 0.90045 0.89002
 N1107 N 0.77357 0.88010 0.87351
 C1108 C 0.75076 0.86862 0.86573
 N1109 N 0.72757 0.87807 0.87500
 N1110 N 0.72720 0.89842 0.89150
 C1111 C 0.74954 0.93267 0.91589
 C1112 C 0.74920 0.95215 0.92937
 C1113 C 0.75108 0.84758 0.84697
 C1114 C 0.75126 0.83031 0.83076
 C1115 C 0.24861 0.40977 0.39975
 N1116 N 0.22571 0.39875 0.39159
 N1117 N 0.22593 0.37846 0.37499
 C1118 C 0.24905 0.36858 0.36602
 N1119 N 0.27196 0.37957 0.37422
 N1120 N 0.27174 0.39986 0.39082
 C1121 C 0.24835 0.43252 0.41649
 C1122 C 0.24817 0.45206 0.42994
 C1123 C 0.24924 0.34754 0.34717
 C1124 C 0.24935 0.33027 0.33091
 C1125 C 0.24892 0.89904 0.08949
 N1126 N 0.22595 0.88832 0.09788
 N1127 N 0.22570 0.87161 0.11808
 C1128 C 0.24842 0.86509 0.13050
 N1129 N 0.27138 0.87584 0.12215
 N1130 N 0.27163 0.89256 0.10195
 C1131 C 0.24934 0.91596 0.06689
 C1132 C 0.24969 0.92961 0.04749
 C1133 C 0.24832 0.84619 0.15148
 C1134 C 0.24836 0.82992 0.16874
 C1135 C 0.74941 0.39902 0.59012
 N1136 N 0.72647 0.38815 0.59837
 N1137 N 0.72622 0.37142 0.61856
 C1138 C 0.74892 0.36504 0.63108
 N1139 N 0.77186 0.37595 0.62287
 N1140 N 0.77210 0.39268 0.60268
 C1141 C 0.74986 0.41586 0.56748
 C1142 C 0.75023 0.42938 0.54800
 C1143 C 0.74884 0.34610 0.65200
 C1144 C 0.74892 0.32980 0.66922
 C1145 C 0.08954 0.10086 0.74955
 N1146 N 0.10143 0.10829 0.72684
 N1147 N 0.12191 0.12466 0.72732
 C1148 C 0.13113 0.13410 0.75053
 N1149 N 0.11927 0.12662 0.77324
 N1150 N 0.09879 0.11025 0.77276
 C1151 C 0.06667 0.08430 0.74895
 C1152 C 0.04708 0.07090 0.74849
 C1153 C 0.15232 0.15276 0.75094
 C1154 C 0.16967 0.16893 0.75119
 C1155 C 0.59044 0.59992 0.24779
 N1156 N 0.59996 0.60909 0.27098
 N1157 N 0.62038 0.62553 0.27138
 C1158 C 0.63190 0.63331 0.24860
 N1159 N 0.62242 0.62410 0.22541
 N1160 N 0.60200 0.60765 0.22501
 C1161 C 0.56758 0.58338 0.24731
 C1162 C 0.54796 0.57006 0.24695
 C1163 C 0.65301 0.65204 0.24894
 C1164 C 0.67031 0.66825 0.24914
 C1165 C 0.10187 0.91071 0.25025
 N1166 N 0.10888 0.89846 0.27290
 N1167 N 0.12550 0.87819 0.27241
 C1168 C 0.13561 0.86958 0.24927
 N1169 N 0.12856 0.88178 0.22662
 N1170 N 0.11193 0.90205 0.22710
 C1171 C 0.08506 0.93334 0.25089
 C1172 C 0.07146 0.95275 0.25140
 C1173 C 0.15444 0.84858 0.24889
 C1174 C 0.17068 0.83131 0.24868
 C1175 C 0.60168 0.40999 0.75063
 N1176 N 0.61150 0.40107 0.72747
 N1177 N 0.62831 0.38094 0.72703
 C1178 C 0.63583 0.36913 0.74975
 N1179 N 0.62597 0.37801 0.77291
 N1180 N 0.60917 0.39814 0.77335
 C1181 C 0.58472 0.43257 0.75120
 C1182 C 0.57111 0.45201 0.75166
 C1183 C 0.65485 0.34823 0.74939
 C1184 C 0.67120 0.33103 0.74920
 C1185 C 0.89812 0.08928 0.25067
 N1186 N 0.88864 0.09851 0.22750
 N1187 N 0.87218 0.11892 0.22709
 C1188 C 0.86473 0.13070 0.24984
 N1189 N 0.87426 0.12150 0.27301
 N1190 N 0.89071 0.10109 0.27342
 C1191 C 0.91481 0.06655 0.25119
 C1192 C 0.92834 0.04709 0.25158
 C1193 C 0.84603 0.15181 0.24950
 C1194 C 0.82986 0.16914 0.24929
 C1195 C 0.39855 0.59028 0.75129
 N1196 N 0.39085 0.60184 0.77408
 N1197 N 0.37431 0.62219 0.77371
 C1198 C 0.36495 0.63160 0.75055
 N1199 N 0.37269 0.62007 0.72776
 N1200 N 0.38924 0.59972 0.72813
 C1201 C 0.41530 0.56752 0.75175
 C1202 C 0.42880 0.54801 0.75210
 C1203 C 0.34618 0.65272 0.75023
 C1204 C 0.32999 0.67008 0.75003
 C1205 C 0.91063 0.89895 0.74985
 N1206 N 0.90175 0.88908 0.77300
 N1207 N 0.88147 0.87246 0.77345
 C1208 C 0.86946 0.86518 0.75075
 N1209 N 0.87831 0.87509 0.72760
 N1210 N 0.89859 0.89171 0.72715
 C1211 C 0.93332 0.91575 0.74926
 C1212 C 0.95281 0.92929 0.74880
 C1213 C 0.84844 0.84632 0.75111
 C1214 C 0.83117 0.83006 0.75130
 C1215 C 0.40870 0.39861 0.24952
 N1216 N 0.40010 0.38857 0.27270
 N1217 N 0.37978 0.37200 0.27326
 C1218 C 0.36746 0.36497 0.25066
 N1219 N 0.37602 0.37506 0.22748
 N1220 N 0.39634 0.39163 0.22692
 C1221 C 0.43148 0.41527 0.24879
 C1222 C 0.45105 0.42866 0.24820
 C1223 C 0.34644 0.34613 0.25111
 C1224 C 0.32918 0.32987 0.25135
   
