data_POSCAR
  _audit_creation_date              2014-09-24
  _audit_creation_method            'ToBaCCo'
  _symmetry_space_group_name_H-M    'P1'
  _symmetry_Int_Tables_number       1
  _symmetry_cell_setting            triclinic
  loop_
  _symmetry_equiv_pos_as_xyz
 x,y,z
_cell_length_a 37.2447
_cell_length_b 36.4333
_cell_length_c 36.0955
_cell_angle_alpha 88.827400
_cell_angle_beta 89.662000
_cell_angle_gamma 87.483300
loop_
  _atom_site_label
  _atom_site_type_symbol
  _atom_site_fract_x
  _atom_site_fract_y
  _atom_site_fract_z
N1 N 0.58179 0.67671 0.60053
 N2 N 0.56712 0.66122 0.62978
 C3 C 0.53732 0.68121 0.63938
 C4 C 0.53301 0.71074 0.61471
 C5 C 0.56184 0.70688 0.59047
 H6 H 0.52000 0.67469 0.66249
 H7 H 0.56828 0.72499 0.56753
 Cu8 Cu 0.58856 0.61653 0.65251
 Cu9 Cu 0.62600 0.65731 0.57778
 Cu10 Cu 0.66598 0.57941 0.61891
 N11 N 0.61213 0.57313 0.67574
 N12 N 0.64249 0.55915 0.66242
 C13 C 0.65310 0.52953 0.68294
 C14 C 0.62801 0.52420 0.71093
 C15 C 0.60230 0.55267 0.70537
 H16 H 0.67720 0.51300 0.67732
 H17 H 0.57819 0.55813 0.72146
 N18 N 0.68587 0.60367 0.57469
 N19 N 0.67084 0.63345 0.55895
 C20 C 0.69096 0.64331 0.52951
 C21 C 0.71998 0.61839 0.52651
 C22 C 0.71578 0.59371 0.55569
 H23 H 0.68479 0.66669 0.51139
 H24 H 0.73349 0.57042 0.56289
 H25 H 0.62030 0.60352 0.59457
 H26 H 0.64610 0.63292 0.62578
 N27 N 0.91877 0.32609 0.10507
 N28 N 0.93749 0.34938 0.12335
 C29 C 0.96905 0.33301 0.13345
 C30 C 0.97051 0.29720 0.12077
 C31 C 0.93788 0.29397 0.10275
 H32 H 0.98910 0.34644 0.14915
 H33 H 0.92849 0.27017 0.08901
 Cu34 Cu 0.91889 0.39868 0.13328
 Cu35 Cu 0.87126 0.33979 0.08544
 Cu36 Cu 0.83225 0.42216 0.11516
 N37 N 0.89434 0.44011 0.15664
 N38 N 0.86029 0.44889 0.15043
 C39 C 0.84986 0.47693 0.17239
 C40 C 0.87909 0.48620 0.19341
 C41 C 0.90681 0.46219 0.18253
 H42 H 0.82291 0.48916 0.17343
 H43 H 0.93363 0.45967 0.19385
 N44 N 0.80891 0.39056 0.07949
 N45 N 0.82363 0.35891 0.06871
 C46 C 0.80232 0.34454 0.04332
 C47 C 0.77277 0.36831 0.03756
 C48 C 0.77787 0.39723 0.06105
 H49 H 0.80876 0.31948 0.02873
 H50 H 0.76071 0.42172 0.06389
 H51 H 0.87363 0.39671 0.08521
 H52 H 0.85988 0.37376 0.12973
 N53 N 0.41525 0.18114 -0.11030
 N54 N 0.42941 0.16467 -0.13929
 C55 C 0.45827 0.18277 -0.15083
 C56 C 0.46256 0.21222 -0.12783
 C57 C 0.43470 0.21025 -0.10233
 H58 H 0.47531 0.17471 -0.17386
 H59 H 0.42888 0.22863 -0.07974
 Cu60 Cu 0.40908 0.12086 -0.15879
 Cu61 Cu 0.37289 0.16326 -0.08506
 Cu62 Cu 0.33634 0.08465 -0.11922
 N63 N 0.38893 0.07658 -0.17734
 N64 N 0.36025 0.06264 -0.16221
 C65 C 0.35168 0.03276 -0.18114
 C66 C 0.37650 0.02761 -0.20956
 C67 C 0.39968 0.05600 -0.20620
 H68 H 0.32911 0.01604 -0.17465
 H69 H 0.42222 0.06176 -0.22404
 N70 N 0.31625 0.11108 -0.07599
 N71 N 0.33013 0.14106 -0.06331
 C72 C 0.31072 0.15267 -0.03392
 C73 C 0.28325 0.12892 -0.02759
 C74 C 0.28766 0.10280 -0.05481
 H75 H 0.31656 0.17637 -0.01787
 H76 H 0.27112 0.07961 -0.05900
 H77 H 0.38119 0.10853 -0.09885
 H78 H 0.35142 0.13758 -0.13008
 N79 N 0.08401 0.81076 0.39321
 N80 N 0.06671 0.82868 0.36637
 C81 C 0.03746 0.81031 0.35752
 C82 C 0.03633 0.77889 0.38006
 C83 C 0.06660 0.78030 0.40229
 H84 H 0.01867 0.81927 0.33616
 H85 H 0.07567 0.76087 0.42360
 Cu86 Cu 0.08512 0.87368 0.34495
 Cu87 Cu 0.12816 0.82810 0.41421
 Cu88 Cu 0.13521 0.92187 0.40141
 N89 N 0.10209 0.92155 0.32974
 N90 N 0.12153 0.94027 0.35231
 C91 C 0.13006 0.97201 0.33561
 C92 C 0.11557 0.97330 0.30031
 C93 C 0.09776 0.94076 0.29764
 H94 H 0.14596 0.99237 0.34835
 H95 H 0.08337 0.93139 0.27395
 N96 N 0.16116 0.89322 0.44040
 N97 N 0.15998 0.85721 0.44412
 C98 C 0.18343 0.84539 0.47048
 C99 C 0.20030 0.87552 0.48400
 C100 C 0.18534 0.90535 0.46425
 H101 H 0.18811 0.81692 0.47880
 H102 H 0.19288 0.93361 0.46558
 H103 H 0.10226 0.87737 0.40995
 H104 H 0.14198 0.87169 0.37849
 N105 N 0.14073 0.14650 0.15001
 N106 N 0.38373 0.88753 0.61172
 N107 N 0.89450 0.61078 0.38165
 N108 N 0.63527 0.34899 -0.14018
 C109 C 0.05557 0.21704 0.13461
 C110 C 0.02462 0.20843 0.11548
 C111 C -0.00358 0.23480 0.11086
 C112 C -0.00124 0.27035 0.12535
 C113 C 0.03024 0.27842 0.14462
 C114 C 0.05826 0.25203 0.14914
 C115 C 0.08497 0.19044 0.13934
 C116 C 0.11055 0.16945 0.14403
 H117 H 0.02229 0.18137 0.10407
 H118 H -0.02701 0.22703 0.09587
 H119 H 0.03371 0.30507 0.15635
 H120 H 0.08215 0.25901 0.16398
 C121 C 0.45199 0.79860 0.61456
 C122 C 0.47368 0.79266 0.58332
 C123 C 0.49969 0.76386 0.58325
 C124 C 0.50447 0.74050 0.61452
 C125 C 0.48214 0.74634 0.64567
 C126 C 0.45612 0.77529 0.64569
 C127 C 0.42653 0.82948 0.61474
 C128 C 0.40619 0.85617 0.61377
 H129 H 0.47072 0.81054 0.55906
 H130 H 0.51596 0.76003 0.55861
 H131 H 0.48514 0.72909 0.67030
 H132 H 0.43956 0.77973 0.67010
 C133 C 0.96002 0.69590 0.38024
 C134 C 0.98856 0.69383 0.40522
 C135 C 1.01358 0.72125 0.40532
 C136 C 1.01062 0.75149 0.38026
 C137 C 0.98141 0.75336 0.35537
 C138 C 0.95641 0.72575 0.35537
 C139 C 0.93526 0.66668 0.37984
 C140 C 0.91575 0.64110 0.38037
 H141 H 0.99166 0.67079 0.42457
 H142 H 1.03520 0.71828 0.42512
 H143 H 0.97772 0.77586 0.33559
 H144 H 0.93442 0.72757 0.33581
 C145 C 0.54786 0.28793 -0.13286
 C146 C 0.54057 0.26655 -0.16343
 C147 C 0.51253 0.24236 -0.16194
 C148 C 0.49130 0.23913 -0.12976
 C149 C 0.49841 0.26126 -0.09935
 C150 C 0.52661 0.28544 -0.10089
 C151 C 0.57818 0.31108 -0.13420
 C152 C 0.60443 0.32925 -0.13651
 H153 H 0.55685 0.26826 -0.18833
 H154 H 0.50761 0.22622 -0.18607
 H155 H 0.48278 0.25937 -0.07408
 H156 H 0.53213 0.30176 -0.07699
 C157 C 0.12715 0.05931 0.21823
 C158 C 0.10137 0.03299 0.21343
 C159 C 0.09763 0.00476 0.23996
 C160 C 0.11956 0.00267 0.27166
 C161 C 0.14553 0.02917 0.27590
 C162 C 0.14924 0.05719 0.24943
 C163 C 0.13080 0.08928 0.19207
 C164 C 0.13503 0.11550 0.17182
 H165 H 0.08403 0.03445 0.18941
 H166 H 0.07728 -0.01504 0.23584
 H167 H 0.16326 0.02832 0.29954
 H168 H 0.16931 0.07739 0.25342
 C169 C 0.62928 0.43759 -0.20880
 C170 C 0.65756 0.44052 -0.23407
 C171 C 0.65727 0.46920 -0.26027
 C172 C 0.62851 0.49576 -0.26184
 C173 C 0.60028 0.49271 -0.23577
 C174 C 0.60069 0.46380 -0.20954
 C175 C 0.62977 0.40695 -0.18297
 C176 C 0.63177 0.38031 -0.16257
 H177 H 0.67986 0.42038 -0.23374
 H178 H 0.67979 0.47006 -0.27920
 H179 H 0.57760 0.51226 -0.23561
 H180 H 0.57858 0.46174 -0.19007
 C181 C 0.37920 0.94881 0.70341
 C182 C 0.34776 0.95468 0.72433
 C183 C 0.34699 0.97965 0.75336
 C184 C 0.37763 0.99921 0.76156
 C185 C 0.40928 0.99236 0.74089
 C186 C 0.41001 0.96739 0.71207
 C187 C 0.37970 0.92550 0.67168
 C188 C 0.38121 0.90730 0.64413
 H189 H 0.32368 0.94055 0.71774
 H190 H 0.32216 0.98437 0.76859
 H191 H 0.43353 1.00642 0.74674
 H192 H 0.43450 0.96306 0.69608
 C193 C 0.88364 0.55916 0.28501
 C194 C 0.91512 0.54773 0.26648
 C195 C 0.91347 0.52497 0.23595
 C196 C 0.88023 0.51320 0.22350
 C197 C 0.84855 0.52592 0.24143
 C198 C 0.85029 0.54865 0.27214
 C199 C 0.88616 0.57917 0.31878
 C200 C 0.88959 0.59446 0.34779
 H201 H 0.94108 0.55566 0.27621
 H202 H 0.93833 0.51621 0.22249
 H203 H 0.82256 0.51728 0.23268
 H204 H 0.82575 0.55719 0.28641
 C205 C 0.20573 0.13491 0.06107
 C206 C 0.21103 0.10227 0.04158
 C207 C 0.23586 0.10033 0.01230
 C208 C 0.25580 0.13102 0.00234
 C209 C 0.24978 0.16379 0.02183
 C210 C 0.22498 0.16566 0.05092
 C211 C 0.18148 0.13712 0.09221
 C212 C 0.16212 0.14079 0.11891
 H213 H 0.19632 0.07824 0.04927
 H214 H 0.23992 0.07463 -0.00195
 H215 H 0.26416 0.18812 0.01469
 H216 H 0.22104 0.19110 0.06576
 C217 C 0.80701 0.61733 0.44769
 C218 C 0.80017 0.58587 0.46892
 C219 C 0.77166 0.58615 0.49417
 C220 C 0.74945 0.61801 0.49865
 C221 C 0.75616 0.64944 0.47676
 C222 C 0.78486 0.64910 0.45149
 C223 C 0.83748 0.61678 0.42298
 C224 C 0.86375 0.61463 0.40331
 H225 H 0.81711 0.56110 0.46616
 H226 H 0.76710 0.56129 0.51006
 H227 H 0.73976 0.67448 0.47961
 H228 H 0.78999 0.67367 0.43525
 C229 C 0.69422 0.35911 -0.04804
 C230 C 0.71392 0.32793 -0.03510
 C231 C 0.73868 0.33076 -0.00651
 C232 C 0.74420 0.36492 0.00955
 C233 C 0.72340 0.39593 -0.00281
 C234 C 0.69866 0.39304 -0.03155
 C235 C 0.67157 0.35645 -0.07995
 C236 C 0.65408 0.35333 -0.10763
 H237 H 0.71074 0.30153 -0.04769
 H238 H 0.75379 0.30623 0.00262
 H239 H 0.72704 0.42267 0.00875
 H240 H 0.68370 0.41740 -0.04151
 C241 C 0.29057 0.87793 0.55735
 C242 C 0.26964 0.90999 0.54981
 C243 C 0.23969 0.90898 0.52679
 C244 C 0.23026 0.87583 0.51087
 C245 C 0.25083 0.84348 0.51956
 C246 C 0.28087 0.84458 0.54255
 C247 C 0.32328 0.88003 0.57807
 C248 C 0.35122 0.88304 0.59422
 H249 H 0.27692 0.93597 0.56106
 H250 H 0.22426 0.93430 0.52118
 H251 H 0.24451 0.81753 0.50768
 H252 H 0.29702 0.81962 0.54804
   
