data_POSCAR
  _audit_creation_date              2014-09-24
  _audit_creation_method            'ToBaCCo'
  _symmetry_space_group_name_H-M    'P1'
  _symmetry_Int_Tables_number       1
  _symmetry_cell_setting            triclinic
  loop_
  _symmetry_equiv_pos_as_xyz
 x,y,z
_cell_length_a 33.0550
_cell_length_b 33.0412
_cell_length_c 18.0962
_cell_angle_alpha 90.028800
_cell_angle_beta 90.158300
_cell_angle_gamma 119.965000
loop_
  _atom_site_label
  _atom_site_type_symbol
  _atom_site_fract_x
  _atom_site_fract_y
  _atom_site_fract_z
C1 C 0.42676 0.85290 0.46261
 C2 C 0.42880 0.85273 0.53827
 C3 C 0.45090 0.89909 0.56092
 N4 N 0.46239 0.92734 0.50139
 C5 C 0.44779 0.89933 0.44119
 C6 C 0.45819 0.91416 0.63549
 C7 C 0.47968 0.96154 0.65852
 C8 C 0.47965 0.97567 0.73081
 C9 C 0.50359 1.02358 0.73115
 C10 C 0.51784 1.03790 0.65905
 N11 N 0.50364 0.99978 0.61533
 C12 C 0.54378 1.08534 0.63668
 C13 C 0.55174 1.10062 0.56233
 C14 C 0.57612 1.14704 0.54033
 C15 C 0.57410 1.14709 0.46466
 C16 C 0.54870 1.10073 0.44258
 N17 N 0.53510 1.07255 0.50240
 C18 C 0.53958 1.08562 0.36817
 C19 C 0.51579 1.03832 0.34475
 C20 C 0.51225 1.02423 0.27160
 C21 C 0.48820 0.97630 0.27127
 C22 C 0.47752 0.96203 0.34422
 N23 N 0.49378 1.00012 0.38847
 C24 C 0.45386 0.91467 0.36699
 H25 H 0.41168 0.82227 0.42744
 H26 H 0.41517 0.82191 0.57269
 H27 H 0.48779 1.00005 0.44450
 H28 H 0.46364 0.95371 0.77853
 H29 H 0.50948 1.04541 0.77916
 H30 H 0.59326 1.17776 0.57519
 H31 H 0.58977 1.17782 0.42992
 H32 H 0.48021 0.95447 0.22265
 H33 H 0.51328 0.99984 0.56088
 H34 H 0.52619 1.04617 0.22329
 C35 C 0.14726 0.57261 0.53657
 C36 C 0.14699 0.57362 0.46086
 C37 C 0.10051 0.55044 0.43903
 N38 N 0.07256 0.53549 0.49900
 C39 C 0.10091 0.54895 0.55884
 C40 C 0.08512 0.54232 0.36473
 C41 C 0.03778 0.51704 0.34181
 C42 C 0.02359 0.50341 0.26939
 C43 C -0.02431 0.47936 0.26921
 C44 C -0.03851 0.47875 0.34160
 N45 N -0.00032 0.50250 0.38527
 C46 C -0.08588 0.45652 0.36438
 C47 C -0.10090 0.44934 0.43885
 C48 C -0.14726 0.42606 0.46111
 C49 C -0.14699 0.42503 0.53682
 C50 C -0.10052 0.44783 0.55867
 N51 N -0.07256 0.46255 0.49869
 C52 C -0.08513 0.45577 0.63299
 C53 C -0.03778 0.48079 0.65597
 C54 C -0.02359 0.49407 0.72850
 C55 C 0.02431 0.51812 0.72867
 C56 C 0.03852 0.51909 0.65618
 N57 N 0.00032 0.49554 0.61245
 C58 C 0.08590 0.54159 0.63333
 H59 H 0.17813 0.58784 0.57126
 H60 H 0.17759 0.58937 0.42593
 H61 H 0.00024 0.48703 0.55739
 H62 H 0.04545 0.50961 0.22148
 H63 H -0.04620 0.46359 0.22113
 H64 H -0.17812 0.41107 0.42641
 H65 H -0.17760 0.40951 0.57174
 H66 H 0.04621 0.53368 0.77682
 H67 H -0.00024 0.51138 0.44015
 H68 H -0.04545 0.48766 0.77647
 C69 C 0.57329 0.42614 0.46354
 C70 C 0.57118 0.42387 0.53917
 C71 C 0.54904 0.44812 0.56154
 N72 N 0.53759 0.46492 0.50187
 C73 C 0.55227 0.45154 0.44185
 C74 C 0.54166 0.45584 0.63601
 C75 C 0.52015 0.48173 0.65877
 C76 C 0.52009 0.49583 0.73108
 C77 C 0.49615 0.51981 0.73111
 C78 C 0.48199 0.51995 0.65882
 N79 N 0.49623 0.49605 0.61527
 C80 C 0.45609 0.54151 0.63611
 C81 C 0.44822 0.54889 0.56166
 C82 C 0.42389 0.57100 0.53934
 C83 C 0.42599 0.57311 0.46371
 C84 C 0.45139 0.55213 0.44196
 N85 N 0.46491 0.53748 0.50194
 C86 C 0.46057 0.54616 0.36766
 C87 C 0.48436 0.52264 0.34455
 C88 C 0.48795 0.51210 0.27145
 C89 C 0.51198 0.48819 0.27142
 C90 C 0.52262 0.48457 0.34451
 N91 N 0.50634 0.50641 0.38855
 C92 C 0.54626 0.46085 0.36758
 H93 H 0.58842 0.41061 0.42857
 H94 H 0.58478 0.40666 0.57377
 H95 H 0.51230 0.51233 0.44466
 H96 H 0.53604 0.48982 0.77901
 H97 H 0.49021 0.53572 0.77906
 H98 H 0.40672 0.58457 0.57398
 H99 H 0.41036 0.58822 0.42877
 H100 H 0.52001 0.47437 0.22291
 H101 H 0.48667 0.48654 0.56068
 H102 H 0.47403 0.52012 0.22295
 O103 O 0.40405 0.65645 -0.06348
 O104 O 0.40163 0.73317 -0.08625
 C105 C 0.37925 0.75409 -0.10029
 O106 O 0.34330 0.74733 -0.06484
 O107 O 0.26667 0.66808 -0.08746
 C108 C 0.24578 0.62470 -0.10093
 O109 O 0.25252 0.59570 -0.06462
 O110 O 0.33169 0.59803 -0.08588
 C111 C 0.37500 0.62045 -0.09933
 O112 O 0.40188 0.66932 0.08353
 O113 O 0.40328 0.74790 0.06082
 C114 C 0.37382 0.75421 0.09642
 O115 O 0.33055 0.73297 0.08219
 O116 O 0.25196 0.65575 0.05954
 C117 C 0.24570 0.62022 0.09588
 O118 O 0.26701 0.59815 0.08266
 O119 O 0.34420 0.59657 0.06138
 C120 C 0.37985 0.62604 0.09746
 Cr121 Cr 0.40009 0.70038 -0.00138
 Cr122 Cr 0.29945 0.69973 -0.00263
 Cr123 Cr 0.30015 0.59974 -0.00164
 O124 O 0.33323 0.66662 -0.00192
 O125 O 0.59826 0.33142 -0.08501
 O126 O 0.59588 0.25230 -0.06225
 C127 C 0.62489 0.24531 -0.09786
 O128 O 0.66822 0.26620 -0.08405
 O129 O 0.74739 0.34301 -0.06223
 C130 C 0.75405 0.37870 -0.09852
 O131 O 0.73319 0.40121 -0.08517
 O132 O 0.65658 0.40388 -0.06309
 C133 C 0.62062 0.37470 -0.09886
 O134 O 0.59679 0.34460 0.06205
 O135 O 0.59822 0.26742 0.08477
 C136 C 0.62029 0.24619 0.09889
 O137 O 0.65592 0.25235 0.06313
 O138 O 0.73313 0.33109 0.08496
 C139 C 0.75447 0.37447 0.09830
 O140 O 0.74812 0.40370 0.06194
 O141 O 0.66954 0.40236 0.08402
 C142 C 0.62628 0.38036 0.09790
 Cr143 Cr 0.59991 0.30023 -0.00012
 Cr144 Cr 0.69987 0.29949 0.00042
 Cr145 Cr 0.70053 0.40017 -0.00057
 O146 O 0.66676 0.33329 -0.00012
 C147 C 0.44153 0.88046 -0.31062
 C148 C 0.42702 0.85105 -0.26299
 C149 C 0.41019 0.81693 -0.20684
 C150 C 0.39596 0.78806 -0.15845
 C151 C 0.11963 0.55917 -0.31256
 C152 C 0.14902 0.57446 -0.26469
 C153 C 0.18308 0.59218 -0.20818
 C154 C 0.21188 0.60714 -0.15946
 C155 C 0.43915 0.55815 -0.30975
 C156 C 0.42432 0.57266 -0.26197
 C157 C 0.40706 0.58949 -0.20571
 C158 C 0.39238 0.60372 -0.15733
 C159 C 0.56069 0.11889 -0.30896
 C160 C 0.57550 0.14821 -0.26100
 C161 C 0.59276 0.18229 -0.20455
 C162 C 0.60746 0.21120 -0.15602
 C163 C 0.87945 0.43883 -0.30986
 C164 C 0.85027 0.42487 -0.26201
 C165 C 0.81642 0.40866 -0.20554
 C166 C 0.78779 0.39492 -0.15690
 C167 C 0.55828 0.43878 -0.30988
 C168 C 0.57278 0.42386 -0.26208
 C169 C 0.58961 0.40656 -0.20573
 C170 C 0.60385 0.39193 -0.15718
 C171 C 0.88042 0.43909 0.31023
 C172 C 0.85109 0.42396 0.26226
 C173 C 0.81712 0.40649 0.20561
 C174 C 0.78838 0.39176 0.15682
 C175 C 0.55759 0.12121 0.31119
 C176 C 0.57233 0.15040 0.26327
 C177 C 0.58930 0.18413 0.20654
 C178 C 0.60357 0.21262 0.15760
 C179 C 0.56393 0.44305 0.31034
 C180 C 0.57845 0.42845 0.26226
 C181 C 0.59526 0.41155 0.20543
 C182 C 0.60949 0.39725 0.15650
 C183 C 0.12050 0.55937 0.30752
 C184 C 0.14962 0.57344 0.25957
 C185 C 0.18337 0.58980 0.20297
 C186 C 0.21195 0.60371 0.15425
 C187 C 0.43623 0.87923 0.30953
 C188 C 0.42172 0.85012 0.26127
 C189 C 0.40492 0.81644 0.20425
 C190 C 0.39067 0.78791 0.15517
 C191 C 0.44259 0.56377 0.31045
 C192 C 0.42788 0.57824 0.26235
 C193 C 0.41091 0.59500 0.20542
 C194 C 0.39662 0.60922 0.15634
   
