data_POSCAR
  _audit_creation_date              2014-09-24
  _audit_creation_method            'ToBaCCo'
  _symmetry_space_group_name_H-M    'P1'
  _symmetry_Int_Tables_number       1
  _symmetry_cell_setting            triclinic
  loop_
  _symmetry_equiv_pos_as_xyz
 x,y,z
_cell_length_a 50.8845
_cell_length_b 50.8757
_cell_length_c 50.9211
_cell_angle_alpha 90.018800
_cell_angle_beta 90.027300
_cell_angle_gamma 90.027700
loop_
  _atom_site_label
  _atom_site_type_symbol
  _atom_site_fract_x
  _atom_site_fract_y
  _atom_site_fract_z
O1 O 0.38810 0.35239 -0.02650
 O2 O 0.35160 0.38816 0.02471
 O3 O 0.38812 0.35223 0.02465
 O4 O 0.35149 0.38828 -0.02644
 O5 O 0.32107 0.35722 -0.02647
 O6 O 0.35763 0.32123 0.02453
 O7 O 0.32116 0.35711 0.02461
 O8 O 0.35762 0.32139 -0.02654
 Cu9 Cu 0.37290 0.37340 -0.00089
 Cu10 Cu 0.33630 0.33612 -0.00098
 C11 C 0.37904 0.33082 -0.03511
 C12 C 0.33019 0.37868 0.03327
 C13 C 0.37906 0.33061 0.03318
 C14 C 0.33006 0.37884 -0.03504
 O15 O 0.64838 0.61211 0.02560
 O16 O 0.61240 0.64797 -0.02594
 O17 O 0.64876 0.61185 -0.02555
 O18 O 0.61206 0.64826 0.02520
 O19 O 0.64274 0.67907 0.02524
 O20 O 0.67938 0.64271 -0.02545
 O21 O 0.64308 0.67878 -0.02583
 O22 O 0.67900 0.64297 0.02564
 Cu23 Cu 0.62730 0.62693 -0.00018
 Cu24 Cu 0.66414 0.66399 -0.00009
 C25 C 0.66979 0.62149 0.03428
 C26 C 0.62166 0.66947 -0.03453
 C27 C 0.67030 0.62112 -0.03403
 C28 C 0.62120 0.66984 0.03375
 O29 O 0.64859 0.38846 0.97478
 O30 O 0.61246 0.35227 1.02599
 O31 O 0.64856 0.38868 1.02593
 O32 O 0.61252 0.35205 0.97483
 O33 O 0.64340 0.32148 0.97503
 O34 O 0.67939 0.35807 1.02607
 O35 O 0.64335 0.32171 1.02611
 O36 O 0.67942 0.35783 0.97500
 Cu37 Cu 0.62741 0.37346 1.00037
 Cu38 Cu 0.66450 0.33669 1.00057
 C39 C 0.67013 0.37925 0.96628
 C40 C 0.62181 0.33085 1.03465
 C41 C 0.67009 0.37957 1.03459
 C42 C 0.62188 0.33056 0.96633
 O43 O 0.38722 0.64803 1.02655
 O44 O 0.35142 0.61166 0.97519
 O45 O 0.38755 0.64803 0.97541
 O46 O 0.35106 0.61166 1.02633
 O47 O 0.32027 0.64231 1.02609
 O48 O 0.35672 0.67864 0.97522
 O49 O 0.32062 0.64233 0.97501
 O50 O 0.35638 0.67864 1.02631
 Cu51 Cu 0.37243 0.62675 1.00090
 Cu52 Cu 0.33539 0.66357 1.00064
 C53 C 0.37785 0.66951 1.03505
 C54 C 0.32995 0.62085 0.96648
 C55 C 0.37830 0.66950 0.96675
 C56 C 0.32946 0.62082 1.03476
 O57 O 0.02510 0.35175 0.38809
 O58 O -0.02618 0.38749 0.35164
 O59 O -0.02607 0.35150 0.38809
 O60 O 0.02502 0.38764 0.35152
 O61 O 0.02503 0.35661 0.32110
 O62 O -0.02597 0.32054 0.35761
 O63 O -0.02610 0.35646 0.32120
 O64 O 0.02513 0.32076 0.35761
 Cu65 Cu -0.00053 0.37273 0.37291
 Cu66 Cu -0.00047 0.33548 0.33631
 C67 C 0.03371 0.33018 0.37902
 C68 C -0.03477 0.37801 0.33025
 C69 C -0.03460 0.32988 0.37903
 C70 C 0.03361 0.37823 0.33010
 O71 O 0.02547 0.64786 0.61153
 O72 O -0.02585 0.61246 0.64827
 O73 O -0.02571 0.64850 0.61187
 O74 O 0.02533 0.61190 0.64805
 O75 O 0.02586 0.64288 0.67852
 O76 O -0.02511 0.67941 0.64241
 O77 O -0.02525 0.64343 0.67876
 O78 O 0.02600 0.67878 0.64206
 Cu79 Cu -0.00024 0.62705 0.62685
 Cu80 Cu 0.00044 0.66424 0.66351
 C81 C 0.03435 0.66933 0.62058
 C82 C -0.03417 0.62197 0.66974
 C83 C -0.03400 0.67016 0.62104
 C84 C 0.03416 0.62120 0.66943
 O85 O 0.97521 0.64816 0.38816
 O86 O 1.02614 0.61185 0.35180
 O87 O 1.02639 0.64832 0.38779
 O88 O 0.97497 0.61174 0.35210
 O89 O 0.97473 0.64234 0.32126
 O90 O 1.02608 0.67886 0.35691
 O91 O 1.02584 0.64244 0.32096
 O92 O 0.97496 0.67871 0.35728
 Cu93 Cu 1.00070 0.62693 0.37308
 Cu94 Cu 1.00037 0.66367 0.33599
 C95 C 0.96654 0.66960 0.37887
 C96 C 1.03454 0.62101 0.33021
 C97 C 1.03488 0.66979 0.37838
 C98 C 0.96622 0.62086 0.33061
 O99 O 0.97392 0.35176 0.61197
 O100 O 1.02538 0.38773 0.64808
 O101 O 1.02512 0.35131 0.61204
 O102 O 0.97420 0.38817 0.64808
 O103 O 0.97395 0.35754 0.67888
 O104 O 1.02479 0.32074 0.64290
 O105 O 1.02506 0.35710 0.67889
 O106 O 0.97368 0.32119 0.64284
 Cu107 Cu 0.99968 0.37283 0.62692
 Cu108 Cu 0.99933 0.33606 0.66398
 C109 C 0.96517 0.33036 0.62130
 C110 C 1.03387 0.37849 0.66960
 C111 C 1.03353 0.32978 0.62139
 C112 C 0.96553 0.37909 0.66961
 O113 O 0.38773 0.02660 0.35214
 O114 O 0.35200 -0.02492 0.38832
 O115 O 0.38812 -0.02459 0.35201
 O116 O 0.35160 0.02626 0.38846
 O117 O 0.32079 0.02605 0.35782
 O118 O 0.35727 -0.02475 0.32141
 O119 O 0.32120 -0.02507 0.35767
 O120 O 0.35686 0.02637 0.32154
 Cu121 Cu 0.37298 0.00086 0.37333
 Cu122 Cu 0.33592 0.00063 0.33652
 C123 C 0.37833 0.03513 0.33069
 C124 C 0.33054 -0.03365 0.37911
 C125 C 0.37887 -0.03322 0.33052
 C126 C 0.32999 0.03470 0.37931
 O127 O 0.61182 0.02542 0.64751
 O128 O 0.64778 -0.02617 0.61165
 O129 O 0.61155 -0.02578 0.64787
 O130 O 0.64800 0.02502 0.61125
 O131 O 0.67875 0.02509 0.64196
 O132 O 0.64234 -0.02565 0.67854
 O133 O 0.67851 -0.02602 0.64238
 O134 O 0.64263 0.02547 0.67817
 Cu135 Cu 0.62668 -0.00039 0.62647
 Cu136 Cu 0.66365 -0.00027 0.66335
 C137 C 0.62116 0.03411 0.66893
 C138 C 0.66925 -0.03476 0.62096
 C139 C 0.62078 -0.03426 0.66941
 C140 C 0.66956 0.03359 0.62042
 O141 O 0.38746 0.97409 0.64843
 O142 O 0.35136 1.02548 0.61242
 O143 O 0.38774 1.02528 0.64850
 O144 O 0.35112 0.97428 0.61230
 O145 O 0.32052 0.97441 0.64312
 O146 O 0.35710 1.02535 0.67929
 O147 O 0.32077 1.02553 0.64326
 O148 O 0.35679 0.97423 0.67920
 Cu149 Cu 0.37252 0.99977 0.62730
 Cu150 Cu 0.33571 0.99989 0.66432
 C151 C 0.37821 0.96553 0.66992
 C152 C 0.32994 1.03414 0.62177
 C153 C 0.37861 1.03389 0.67003
 C154 C 0.32961 0.96576 0.62160
 O155 O 0.61307 0.97454 0.35172
 O156 O 0.64922 1.02604 0.38762
 O157 O 0.61280 1.02573 0.35156
 O158 O 0.64943 0.97485 0.38785
 O159 O 0.68003 0.97490 0.35702
 O160 O 0.64342 1.02574 0.32077
 O161 O 0.67979 1.02603 0.35678
 O162 O 0.64371 0.97462 0.32094
 Cu163 Cu 0.62804 1.00029 0.37281
 Cu164 Cu 0.66482 1.00032 0.33577
 C165 C 0.62228 0.96594 0.33023
 C166 C 0.67064 1.03470 0.37826
 C167 C 0.62191 1.03428 0.33001
 C168 C 0.67094 0.96632 0.37858
 C169 C 0.82296 0.78825 0.48665
 C170 C 0.82280 0.78809 0.51431
 C171 C 0.80566 0.80477 0.52793
 C172 C 0.78890 0.82176 0.51422
 C173 C 0.78914 0.82200 0.48656
 C174 C 0.80609 0.80514 0.47294
 H175 H 0.80642 0.80542 0.45164
 H176 H 0.80564 0.80479 0.54924
 C177 C 0.17723 0.21202 0.48742
 C178 C 0.17714 0.21197 0.51509
 C179 C 0.19414 0.19519 0.52874
 C180 C 0.21103 0.17830 0.51507
 C181 C 0.21107 0.17829 0.48741
 C182 C 0.19424 0.19525 0.47375
 H183 H 0.19412 0.19513 0.45244
 H184 H 0.19396 0.19500 0.55005
 C185 C 0.17827 0.78739 0.51262
 C186 C 0.17842 0.78756 0.48496
 C187 C 0.19544 0.80450 0.47153
 C188 C 0.21213 0.82144 0.48543
 C189 C 0.21193 0.82131 0.51309
 C190 C 0.19509 0.80419 0.52652
 H191 H 0.19478 0.80423 0.54783
 H192 H 0.19543 0.80479 0.45022
 C193 C 0.82179 0.21168 0.51300
 C194 C 0.82202 0.21179 0.48534
 C195 C 0.80517 0.19499 0.47148
 C196 C 0.78829 0.17792 0.48496
 C197 C 0.78811 0.17776 0.51263
 C198 C 0.80479 0.19474 0.52648
 H199 H 0.80481 0.19449 0.54778
 H200 H 0.80546 0.19492 0.45018
 C201 C 0.48556 0.82151 0.78841
 C202 C 0.51324 0.82162 0.78823
 C203 C 0.52706 0.80468 0.80493
 C204 C 0.51353 0.78782 0.82197
 C205 C 0.48585 0.78777 0.82222
 C206 C 0.47203 0.80453 0.80533
 H207 H 0.45071 0.80465 0.80563
 H208 H 0.54838 0.80488 0.80494
 C209 C 0.48596 0.17862 0.21177
 C210 C 0.51365 0.17841 0.21187
 C211 C 0.52747 0.19531 0.19513
 C212 C 0.51395 0.21220 0.17812
 C213 C 0.48627 0.21234 0.17794
 C214 C 0.47244 0.19563 0.19487
 H215 H 0.45112 0.19558 0.19463
 H216 H 0.54879 0.19504 0.19506
 C217 C 0.51461 0.17857 0.78758
 C218 C 0.48693 0.17852 0.78764
 C219 C 0.47330 0.19552 0.80445
 C220 C 0.48703 0.21235 0.82138
 C221 C 0.51472 0.21233 0.82139
 C222 C 0.52834 0.19553 0.80439
 H223 H 0.54966 0.19536 0.80451
 H224 H 0.45198 0.19535 0.80465
 C225 C 0.51407 0.82239 0.21166
 C226 C 0.48638 0.82258 0.21182
 C227 C 0.47251 0.80565 0.19511
 C228 C 0.48599 0.78873 0.17809
 C229 C 0.51367 0.78860 0.17787
 C230 C 0.52754 0.80535 0.19475
 H231 H 0.54886 0.80539 0.19447
 H232 H 0.45119 0.80591 0.19509
 C233 C 0.78842 0.48700 0.82246
 C234 C 0.78838 0.51468 0.82272
 C235 C 0.80512 0.52851 0.80581
 C236 C 0.82203 0.51498 0.78883
 C237 C 0.82211 0.48729 0.78861
 C238 C 0.80521 0.47346 0.80535
 H239 H 0.80539 0.45214 0.80535
 H240 H 0.80524 0.54983 0.80613
 C241 C 0.21146 0.48565 0.17732
 C242 C 0.21148 0.51334 0.17731
 C243 C 0.19471 0.52699 0.19432
 C244 C 0.17777 0.51329 0.21114
 C245 C 0.17772 0.48560 0.21111
 C246 C 0.19466 0.47195 0.19428
 H247 H 0.19450 0.45062 0.19410
 H248 H 0.19456 0.54831 0.19419
 C249 C 0.78759 0.51391 0.17865
 C250 C 0.78744 0.48622 0.17838
 C251 C 0.80416 0.47233 0.19525
 C252 C 0.82118 0.48580 0.21219
 C253 C 0.82137 0.51349 0.21243
 C254 C 0.80447 0.52738 0.19573
 H255 H 0.80475 0.54870 0.19575
 H256 H 0.80421 0.45101 0.19490
 C257 C 0.21182 0.51331 0.82209
 C258 C 0.21186 0.48562 0.82204
 C259 C 0.19510 0.47197 0.80501
 C260 C 0.17814 0.48566 0.78820
 C261 C 0.17806 0.51335 0.78827
 C262 C 0.19500 0.52701 0.80514
 H263 H 0.19481 0.54833 0.80535
 H264 H 0.19497 0.45064 0.80511
 C265 C 0.31579 0.39264 0.05301
 C266 C 0.30338 0.40428 0.06946
 C267 C 0.28823 0.41803 0.08892
 C268 C 0.26781 0.40507 0.10207
 C269 C 0.25261 0.41855 0.12054
 C270 C 0.25779 0.44505 0.12594
 C271 C 0.27831 0.45799 0.11292
 C272 C 0.29350 0.44450 0.09443
 C273 C 0.24167 0.45910 0.14438
 C274 C 0.22799 0.47103 0.15955
 H275 H 0.26354 0.38462 0.09791
 H276 H 0.23675 0.40839 0.13046
 H277 H 0.28244 0.47849 0.11695
 H278 H 0.30921 0.45472 0.08434
 C279 C 0.68400 0.60749 0.05414
 C280 C 0.69626 0.59583 0.07069
 C281 C 0.71126 0.58204 0.09026
 C282 C 0.70601 0.55554 0.09557
 C283 C 0.72109 0.54200 0.11412
 C284 C 0.74148 0.55493 0.12739
 C285 C 0.74661 0.58147 0.12220
 C286 C 0.73152 0.59501 0.10367
 C287 C 0.75752 0.54079 0.14583
 C288 C 0.77114 0.52874 0.16097
 H289 H 0.69042 0.54532 0.08527
 H290 H 0.71700 0.52146 0.11798
 H291 H 0.76237 0.59162 0.13231
 H292 H 0.73577 0.61549 0.09967
 C293 C 0.68440 0.39336 0.94655
 C294 C 0.69672 0.40508 0.93009
 C295 C 0.71181 0.41891 0.91062
 C296 C 0.70665 0.44544 0.90537
 C297 C 0.72180 0.45899 0.88689
 C298 C 0.74217 0.44606 0.87364
 C299 C 0.74722 0.41950 0.87878
 C300 C 0.73206 0.40594 0.89724
 C301 C 0.75827 0.46019 0.85525
 C302 C 0.77193 0.47222 0.84013
 H303 H 0.69106 0.45566 0.91565
 H304 H 0.71777 0.47955 0.88307
 H305 H 0.76296 0.40934 0.86868
 H306 H 0.73624 0.38544 0.90120
 C307 C 0.31577 0.60660 0.94674
 C308 C 0.30356 0.59469 0.93031
 C309 C 0.28862 0.58054 0.91092
 C310 C 0.28143 0.55435 0.91546
 C311 C 0.26624 0.54083 0.89698
 C312 C 0.25819 0.55345 0.87389
 C313 C 0.26554 0.57958 0.86925
 C314 C 0.28072 0.59311 0.88775
 C315 C 0.24203 0.53968 0.85524
 C316 C 0.22833 0.52789 0.83994
 H317 H 0.28739 0.54447 0.93335
 H318 H 0.26060 0.52065 0.90078
 H319 H 0.25937 0.58952 0.85147
 H320 H 0.28613 0.61338 0.88408
 C321 C 0.05337 0.31601 0.39335
 C322 C 0.06970 0.30380 0.40537
 C323 C 0.08897 0.28888 0.41967
 C324 C 0.11221 0.28088 0.40728
 C325 C 0.13058 0.26570 0.42096
 C326 C 0.12575 0.25847 0.44706
 C327 C 0.10259 0.26662 0.45950
 C328 C 0.08424 0.28180 0.44583
 C329 C 0.14426 0.24229 0.46096
 C330 C 0.15946 0.22857 0.47282
 H331 H 0.11602 0.28620 0.38704
 H332 H 0.14841 0.25945 0.41116
 H333 H 0.09864 0.26105 0.47965
 H334 H 0.06629 0.28783 0.45556
 C335 C 0.05404 0.68337 0.60617
 C336 C 0.07043 0.69548 0.59412
 C337 C 0.08977 0.71031 0.57983
 C338 C 0.08500 0.71757 0.55372
 C339 C 0.10341 0.73274 0.54010
 C340 C 0.12666 0.74069 0.55254
 C341 C 0.13154 0.73326 0.57858
 C342 C 0.11311 0.71810 0.59220
 C343 C 0.14520 0.75691 0.53874
 C344 C 0.16044 0.77071 0.52701
 H345 H 0.06698 0.71172 0.54400
 H346 H 0.09943 0.73846 0.52000
 H347 H 0.14943 0.73935 0.58838
 H348 H 0.11695 0.71264 0.61241
 C349 C 0.94697 0.68396 0.39312
 C350 C 0.93069 0.69630 0.40506
 C351 C 0.91145 0.71135 0.41925
 C352 C 0.88825 0.71937 0.40677
 C353 C 0.86988 0.73462 0.42035
 C354 C 0.87465 0.74190 0.44646
 C355 C 0.89777 0.73375 0.45899
 C356 C 0.91613 0.71850 0.44541
 C357 C 0.85610 0.75808 0.46029
 C358 C 0.84083 0.77177 0.47210
 H359 H 0.88447 0.71400 0.38652
 H360 H 0.85208 0.74086 0.41048
 H361 H 0.90167 0.73935 0.47915
 H362 H 0.93403 0.71245 0.45522
 C363 C 0.94540 0.31610 0.60717
 C364 C 0.92896 0.30376 0.59540
 C365 C 0.90954 0.28864 0.58148
 C366 C 0.89608 0.26838 0.59437
 C367 C 0.87772 0.25316 0.58071
 C368 C 0.87273 0.25815 0.55413
 C369 C 0.88605 0.27854 0.54127
 C370 C 0.90444 0.29376 0.55493
 C371 C 0.85444 0.24198 0.53990
 C372 C 0.83940 0.22826 0.52782
 H373 H 0.89993 0.26422 0.61488
 H374 H 0.86757 0.23740 0.59081
 H375 H 0.88235 0.28254 0.52070
 H376 H 0.91478 0.30935 0.54476
 C377 C 0.39233 0.05492 0.31635
 C378 C 0.40400 0.07137 0.30397
 C379 C 0.41782 0.09080 0.28881
 C380 C 0.44440 0.09598 0.29384
 C381 C 0.45796 0.11437 0.27859
 C382 C 0.44500 0.12762 0.25825
 C383 C 0.41839 0.12257 0.25332
 C384 C 0.40482 0.10420 0.26858
 C385 C 0.45914 0.14593 0.24205
 C386 C 0.47118 0.16099 0.22832
 H387 H 0.45464 0.08568 0.30940
 H388 H 0.47855 0.11812 0.28253
 H389 H 0.40821 0.13267 0.23760
 H390 H 0.38429 0.10029 0.26449
 C391 C 0.60715 0.05397 0.68313
 C392 C 0.59553 0.07052 0.69544
 C393 C 0.58186 0.09009 0.71056
 C394 C 0.59500 0.10346 0.73073
 C395 C 0.58160 0.12198 0.74595
 C396 C 0.55502 0.12720 0.74106
 C397 C 0.54192 0.11397 0.72077
 C398 C 0.55532 0.09543 0.70555
 C399 C 0.54106 0.14565 0.75724
 C400 C 0.52919 0.16082 0.77099
 H401 H 0.61550 0.09944 0.73480
 H402 H 0.59188 0.13206 0.76164
 H403 H 0.52136 0.11785 0.71685
 H404 H 0.54497 0.08515 0.69003
 C405 C 0.39228 0.94574 0.68417
 C406 C 0.40395 0.92924 0.69650
 C407 C 0.41771 0.90975 0.71163
 C408 C 0.40475 0.89657 0.73202
 C409 C 0.41824 0.87811 0.74723
 C410 C 0.44474 0.87273 0.74208
 C411 C 0.45766 0.88577 0.72158
 C412 C 0.44417 0.90425 0.70637
 C413 C 0.45881 0.85433 0.75823
 C414 C 0.47080 0.83920 0.77191
 H415 H 0.38431 0.90072 0.73628
 H416 H 0.40810 0.86818 0.76308
 H417 H 0.47817 0.88176 0.71747
 H418 H 0.45439 0.91437 0.69068
 C419 C 0.60814 0.94616 0.31599
 C420 C 0.59638 0.92971 0.30366
 C421 C 0.58248 0.91028 0.28853
 C422 C 0.55589 0.90518 0.29358
 C423 C 0.54226 0.88678 0.27836
 C424 C 0.55517 0.87344 0.25804
 C425 C 0.58179 0.87842 0.25311
 C426 C 0.59542 0.89680 0.26833
 C427 C 0.54097 0.85511 0.24188
 C428 C 0.52889 0.84004 0.22818
 H429 H 0.54569 0.91554 0.30912
 H430 H 0.52167 0.88309 0.28231
 H431 H 0.59193 0.86825 0.23740
 H432 H 0.61596 0.90064 0.26423
 C433 C 0.39336 0.31664 0.94525
 C434 C 0.40535 0.30441 0.92892
 C435 C 0.41959 0.28944 0.90965
 C436 C 0.44570 0.28212 0.91445
 C437 C 0.45929 0.26688 0.89609
 C438 C 0.44684 0.25892 0.87287
 C439 C 0.42081 0.26639 0.86797
 C440 C 0.40720 0.28163 0.88634
 C441 C 0.46067 0.24269 0.85436
 C442 C 0.47248 0.22893 0.83915
 H443 H 0.45544 0.28801 0.93244
 H444 H 0.47940 0.26113 0.90009
 H445 H 0.41100 0.26029 0.85009
 H446 H 0.38700 0.28714 0.88248
 C447 C 0.60757 0.68368 0.94568
 C448 C 0.59582 0.69597 0.92922
 C449 C 0.58192 0.71104 0.90978
 C450 C 0.55532 0.70599 0.90476
 C451 C 0.54168 0.72116 0.88636
 C452 C 0.55459 0.74144 0.87295
 C453 C 0.58123 0.74638 0.87785
 C454 C 0.59487 0.73120 0.89623
 C455 C 0.54039 0.75758 0.85465
 C456 C 0.52832 0.77128 0.83960
 H457 H 0.54511 0.69048 0.91517
 H458 H 0.52107 0.71721 0.88272
 H459 H 0.59137 0.76206 0.86763
 H460 H 0.61542 0.73530 0.90002
 C461 C 0.39189 0.68393 0.05476
 C462 C 0.40362 0.69637 0.07115
 C463 C 0.41752 0.71158 0.09051
 C464 C 0.44408 0.70647 0.09569
 C465 C 0.45772 0.72176 0.11402
 C466 C 0.44485 0.74221 0.12720
 C467 C 0.41826 0.74722 0.12214
 C468 C 0.40462 0.73193 0.10383
 C469 C 0.45906 0.75843 0.14547
 C470 C 0.47115 0.77217 0.16049
 H471 H 0.45425 0.69082 0.08545
 H472 H 0.47829 0.71775 0.11778
 H473 H 0.40815 0.76303 0.13219
 H474 H 0.38411 0.73608 0.09992
 C475 C 0.60770 0.31653 0.05436
 C476 C 0.59597 0.30417 0.07077
 C477 C 0.58212 0.28902 0.09018
 C478 C 0.55561 0.29421 0.09546
 C479 C 0.54203 0.27900 0.11387
 C480 C 0.55492 0.25854 0.12704
 C481 C 0.58147 0.25347 0.12187
 C482 C 0.59505 0.26868 0.10348
 C483 C 0.54077 0.24240 0.14538
 C484 C 0.52873 0.22871 0.16046
 H485 H 0.54542 0.30986 0.08524
 H486 H 0.52148 0.28306 0.11771
 H487 H 0.59159 0.23765 0.13190
 H488 H 0.61553 0.26448 0.09950
 C489 C 0.31566 0.05394 0.60775
 C490 C 0.30330 0.07044 0.59612
 C491 C 0.28814 0.08996 0.58243
 C492 C 0.26791 0.10327 0.59551
 C493 C 0.25265 0.12175 0.58209
 C494 C 0.25759 0.12701 0.55555
 C495 C 0.27794 0.11384 0.54251
 C496 C 0.29319 0.09533 0.55592
 C497 C 0.24139 0.14543 0.54157
 C498 C 0.22763 0.16057 0.52967
 H499 H 0.26381 0.09921 0.61599
 H500 H 0.23692 0.13178 0.59233
 H501 H 0.28189 0.11775 0.52197
 H502 H 0.30876 0.08511 0.54562
 C503 C 0.68418 0.05345 0.39153
 C504 C 0.69651 0.06997 0.40320
 C505 C 0.71162 0.08950 0.41698
 C506 C 0.70647 0.09483 0.44348
 C507 C 0.72165 0.11335 0.45699
 C508 C 0.74204 0.12657 0.44406
 C509 C 0.74708 0.12136 0.41752
 C510 C 0.73190 0.10286 0.40401
 C511 C 0.75816 0.14502 0.45815
 C512 C 0.77182 0.16018 0.47017
 H513 H 0.69087 0.08457 0.45371
 H514 H 0.71762 0.11722 0.47752
 H515 H 0.76284 0.13144 0.40736
 H516 H 0.73608 0.09884 0.38354
 C517 C 0.68352 0.94543 0.60694
 C518 C 0.69590 0.92894 0.59532
 C519 C 0.71113 0.90948 0.58162
 C520 C 0.70640 0.90443 0.55498
 C521 C 0.72176 0.88604 0.54154
 C522 C 0.74191 0.87266 0.55470
 C523 C 0.74651 0.87758 0.58137
 C524 C 0.73115 0.89595 0.59480
 C525 C 0.75825 0.85438 0.54070
 C526 C 0.77214 0.83935 0.52881
 H527 H 0.69101 0.91484 0.54458
 H528 H 0.71807 0.88238 0.52090
 H529 H 0.76208 0.86738 0.59170
 H530 H 0.73500 0.89976 0.61538
 C531 C 0.31639 0.94654 0.39327
 C532 C 0.30419 0.93006 0.40509
 C533 C 0.28925 0.91059 0.41909
 C534 C 0.28194 0.91505 0.44524
 C535 C 0.26671 0.89651 0.45861
 C536 C 0.25873 0.87342 0.44588
 C537 C 0.26619 0.86886 0.41979
 C538 C 0.28142 0.88742 0.40642
 C539 C 0.24250 0.85473 0.45946
 C540 C 0.22874 0.83937 0.47108
 H541 H 0.28783 0.93294 0.45520
 H542 H 0.26098 0.90025 0.47875
 H543 H 0.26008 0.85109 0.40977
 H544 H 0.28691 0.88381 0.38618
 C545 C 0.05369 0.39253 0.68387
 C546 C 0.07021 0.40420 0.69620
 C547 C 0.08973 0.41797 0.71131
 C548 C 0.10310 0.40495 0.73154
 C549 C 0.12160 0.41845 0.74673
 C550 C 0.12681 0.44502 0.74174
 C551 C 0.11358 0.45801 0.72139
 C552 C 0.09506 0.44451 0.70621
 C553 C 0.14524 0.45909 0.75788
 C554 C 0.16040 0.47103 0.77161
 H555 H 0.09908 0.38445 0.73568
 H556 H 0.13168 0.40825 0.76246
 H557 H 0.11745 0.47856 0.71740
 H558 H 0.08479 0.45477 0.69064
 C559 C 0.05412 0.60677 0.31584
 C560 C 0.07040 0.59485 0.30348
 C561 C 0.08962 0.58067 0.28841
 C562 C 0.11283 0.59316 0.28043
 C563 C 0.13118 0.57958 0.26513
 C564 C 0.12636 0.55349 0.25777
 C565 C 0.10323 0.54096 0.26589
 C566 C 0.08490 0.55452 0.28119
 C567 C 0.14486 0.53968 0.24151
 C568 C 0.16004 0.52787 0.22774
 H569 H 0.11664 0.61339 0.28586
 H570 H 0.14899 0.58946 0.25891
 H571 H 0.09929 0.52080 0.26023
 H572 H 0.06698 0.54471 0.28720
 C573 C 0.94546 0.39198 0.31588
 C574 C 0.92898 0.40365 0.30353
 C575 C 0.90949 0.41749 0.28847
 C576 C 0.89630 0.40465 0.26799
 C577 C 0.87782 0.41824 0.25289
 C578 C 0.87244 0.44471 0.25823
 C579 C 0.88550 0.45751 0.27882
 C580 C 0.90400 0.44392 0.29392
 C581 C 0.85402 0.45888 0.24220
 C582 C 0.83888 0.47096 0.22860
 H583 H 0.90045 0.38423 0.26359
 H584 H 0.86787 0.40819 0.23697
 H585 H 0.88150 0.47798 0.28307
 H586 H 0.91413 0.45404 0.30968
 C587 C 0.94607 0.60812 0.68425
 C588 C 0.92961 0.59654 0.69671
 C589 C 0.91016 0.58282 0.71193
 C590 C 0.89729 0.59571 0.73256
 C591 C 0.87885 0.58223 0.74781
 C592 C 0.87320 0.55582 0.74247
 C593 C 0.88594 0.54296 0.72174
 C594 C 0.90440 0.55644 0.70649
 C595 C 0.85482 0.54175 0.75863
 C596 C 0.83971 0.52974 0.77233
 H597 H 0.90165 0.61609 0.73695
 H598 H 0.86916 0.59232 0.76384
 H599 H 0.88172 0.52252 0.71748
 H600 H 0.91428 0.54628 0.69062
 C601 C 0.68400 0.60765 0.94747
 C602 C 0.69641 0.59576 0.93115
 C603 C 0.71151 0.58165 0.91183
 C604 C 0.71912 0.59410 0.88849
 C605 C 0.73435 0.58061 0.87002
 C606 C 0.74205 0.55460 0.87481
 C607 C 0.73431 0.54210 0.89807
 C608 C 0.71908 0.55559 0.91654
 C609 C 0.75820 0.54086 0.85610
 C610 C 0.77187 0.52913 0.84072
 H611 H 0.71343 0.61426 0.88467
 H612 H 0.74026 0.59047 0.85211
 H613 H 0.74021 0.52203 0.90201
 H614 H 0.71335 0.54578 0.93454
 C615 C 0.31635 0.39218 0.94636
 C616 C 0.30390 0.40391 0.92996
 C617 C 0.28867 0.41775 0.91055
 C618 C 0.29412 0.44416 0.90489
 C619 C 0.27891 0.45770 0.88642
 C620 C 0.25817 0.44491 0.87355
 C621 C 0.25282 0.41847 0.87912
 C622 C 0.26803 0.40493 0.89756
 C623 C 0.24207 0.45901 0.85508
 C624 C 0.22840 0.47098 0.83987
 H625 H 0.30999 0.45428 0.91484
 H626 H 0.28320 0.47814 0.88229
 H627 H 0.23680 0.40841 0.86933
 H628 H 0.26361 0.38454 0.90182
 C629 C 0.31580 0.60731 0.05326
 C630 C 0.30342 0.59533 0.06953
 C631 C 0.28834 0.58109 0.08877
 C632 C 0.28047 0.59347 0.11206
 C633 C 0.26525 0.57982 0.13044
 C634 C 0.25783 0.55374 0.12560
 C635 C 0.26583 0.54131 0.10238
 C636 C 0.28106 0.55495 0.08401
 C637 C 0.24168 0.53983 0.14419
 C638 C 0.22800 0.52796 0.15946
 H639 H 0.28594 0.61369 0.11592
 H640 H 0.25914 0.58963 0.14831
 H641 H 0.26015 0.52117 0.09840
 H642 H 0.28698 0.54519 0.06605
 C643 C 0.68357 0.39314 0.05320
 C644 C 0.69580 0.40510 0.06961
 C645 C 0.71073 0.41927 0.08904
 C646 C 0.71826 0.44535 0.08437
 C647 C 0.73340 0.45887 0.10291
 C648 C 0.74107 0.44638 0.12621
 C649 C 0.73339 0.42036 0.13096
 C650 C 0.71826 0.40683 0.11241
 C651 C 0.75719 0.46013 0.14495
 C652 C 0.77088 0.47183 0.16036
 H653 H 0.71260 0.45514 0.06634
 H654 H 0.73929 0.47896 0.09900
 H655 H 0.73925 0.41050 0.14889
 H656 H 0.71260 0.38665 0.11620
 C657 C 0.94737 0.68383 0.60769
 C658 C 0.93094 0.69624 0.59596
 C659 C 0.91147 0.71142 0.58213
 C660 C 0.89838 0.73196 0.59498
 C661 C 0.87987 0.74712 0.58145
 C662 C 0.87435 0.74182 0.55502
 C663 C 0.88732 0.72118 0.54220
 C664 C 0.90585 0.70602 0.55573
 C665 C 0.85583 0.75789 0.54093
 C666 C 0.84061 0.77155 0.52897
 H667 H 0.90260 0.73635 0.61537
 H668 H 0.87001 0.76307 0.59154
 H669 H 0.88322 0.71692 0.52176
 H670 H 0.91587 0.69022 0.54558
 C671 C 0.94681 0.31635 0.39256
 C672 C 0.93042 0.30405 0.40448
 C673 C 0.91104 0.28901 0.41859
 C674 C 0.88769 0.28138 0.40613
 C675 C 0.86920 0.26613 0.41959
 C676 C 0.87398 0.25844 0.44558
 C677 C 0.89726 0.26621 0.45810
 C678 C 0.91574 0.28147 0.44464
 C679 C 0.85530 0.24220 0.45927
 C680 C 0.83996 0.22843 0.47094
 H681 H 0.88388 0.28704 0.38598
 H682 H 0.85129 0.26019 0.40971
 H683 H 0.90119 0.26031 0.47816
 H684 H 0.93375 0.28720 0.45446
 C685 C 0.05214 0.31604 0.60810
 C686 C 0.06858 0.30358 0.59642
 C687 C 0.08806 0.28838 0.58264
 C688 C 0.09396 0.29398 0.55635
 C689 C 0.11254 0.27884 0.54288
 C690 C 0.12528 0.25803 0.55564
 C691 C 0.11948 0.25253 0.58197
 C692 C 0.10092 0.26767 0.59543
 C693 C 0.14389 0.24201 0.54161
 C694 C 0.15920 0.22842 0.52970
 H695 H 0.08411 0.30992 0.54625
 H696 H 0.11685 0.28325 0.52252
 H697 H 0.12917 0.23645 0.59201
 H698 H 0.09649 0.26314 0.61574
 C699 C 0.05363 0.68346 0.39158
 C700 C 0.07015 0.69586 0.40321
 C701 C 0.08971 0.71101 0.41698
 C702 C 0.10276 0.73157 0.40413
 C703 C 0.12132 0.74672 0.41762
 C704 C 0.12692 0.74138 0.44402
 C705 C 0.11399 0.72071 0.45684
 C706 C 0.09542 0.70556 0.44334
 C707 C 0.14545 0.75746 0.45812
 C708 C 0.16066 0.77109 0.47014
 H709 H 0.09846 0.73599 0.38376
 H710 H 0.13114 0.76270 0.40754
 H711 H 0.11815 0.71643 0.47726
 H712 H 0.08541 0.68974 0.45349
 C713 C 0.60652 0.94617 0.68386
 C714 C 0.59459 0.92986 0.69624
 C715 C 0.58042 0.91055 0.71131
 C716 C 0.59284 0.88721 0.71902
 C717 C 0.57929 0.86875 0.73422
 C718 C 0.55326 0.87355 0.74178
 C719 C 0.54079 0.89682 0.73395
 C720 C 0.55434 0.91527 0.71874
 C721 C 0.53946 0.85489 0.75794
 C722 C 0.52771 0.83955 0.77165
 H723 H 0.61302 0.88338 0.71343
 H724 H 0.58913 0.85084 0.74020
 H725 H 0.52069 0.90077 0.73975
 H726 H 0.54455 0.93327 0.71294
 C727 C 0.39316 0.94720 0.31613
 C728 C 0.40511 0.93088 0.30378
 C729 C 0.41928 0.91156 0.28873
 C730 C 0.40688 0.88818 0.28108
 C731 C 0.42044 0.86971 0.26589
 C732 C 0.44645 0.87456 0.25827
 C733 C 0.45890 0.89787 0.26605
 C734 C 0.44535 0.91633 0.28125
 C735 C 0.46024 0.85589 0.24211
 C736 C 0.47197 0.84054 0.22840
 H737 H 0.38672 0.88431 0.28671
 H738 H 0.41061 0.85177 0.25994
 H739 H 0.47898 0.90186 0.26021
 H740 H 0.45512 0.93436 0.28700
 C741 C 0.60755 0.05387 0.31567
 C742 C 0.59553 0.07018 0.30339
 C743 C 0.58124 0.08949 0.28844
 C744 C 0.55507 0.08478 0.28124
 C745 C 0.54140 0.10322 0.26614
 C746 C 0.55383 0.12647 0.25816
 C747 C 0.57994 0.13127 0.26550
 C748 C 0.59361 0.11282 0.28060
 C749 C 0.53992 0.14512 0.24208
 C750 C 0.52811 0.16046 0.22842
 H751 H 0.54532 0.06679 0.28715
 H752 H 0.52124 0.09927 0.26051
 H753 H 0.58975 0.14916 0.25940
 H754 H 0.61385 0.11664 0.28600
 C755 C 0.39294 0.05355 0.68432
 C756 C 0.40493 0.06993 0.69656
 C757 C 0.41918 0.08932 0.71146
 C758 C 0.40683 0.11273 0.71907
 C759 C 0.42047 0.13127 0.73412
 C760 C 0.44652 0.12647 0.74163
 C761 C 0.45893 0.10313 0.73390
 C762 C 0.44529 0.08460 0.71884
 C763 C 0.46042 0.14521 0.75764
 C764 C 0.47229 0.16058 0.77122
 H765 H 0.38663 0.11655 0.71351
 H766 H 0.41068 0.14923 0.74003
 H767 H 0.47904 0.09919 0.73966
 H768 H 0.45502 0.06655 0.71312
 C769 C 0.60686 0.68422 0.05331
 C770 C 0.59490 0.69656 0.06962
 C771 C 0.58073 0.71160 0.08894
 C772 C 0.59320 0.71942 0.11222
 C773 C 0.57965 0.73462 0.13067
 C774 C 0.55358 0.74209 0.12593
 C775 C 0.54106 0.73415 0.10273
 C776 C 0.55460 0.71893 0.08428
 C777 C 0.53980 0.75827 0.14458
 C778 C 0.52808 0.77200 0.15992
 H779 H 0.61341 0.71391 0.11600
 H780 H 0.58954 0.74069 0.14852
 H781 H 0.52093 0.73987 0.09882
 H782 H 0.54477 0.71305 0.06633
 C783 C 0.39337 0.31637 0.05286
 C784 C 0.40528 0.30411 0.06926
 C785 C 0.41940 0.28914 0.08869
 C786 C 0.44548 0.28162 0.08406
 C787 C 0.45895 0.26645 0.10260
 C788 C 0.44641 0.25873 0.12585
 C789 C 0.42039 0.26639 0.13056
 C790 C 0.40691 0.28155 0.11201
 C791 C 0.46013 0.24259 0.14459
 C792 C 0.47183 0.22889 0.15997
 H793 H 0.45532 0.28732 0.06608
 H794 H 0.47905 0.26058 0.09872
 H795 H 0.41049 0.26049 0.14845
 H796 H 0.38673 0.28720 0.11577
 C797 C 0.60785 0.31613 0.94658
 C798 C 0.59618 0.30373 0.93008
 C799 C 0.58240 0.28861 0.91053
 C800 C 0.55606 0.29416 0.90471
 C801 C 0.54258 0.27907 0.88608
 C802 C 0.55539 0.25837 0.87320
 C803 C 0.58176 0.25291 0.87893
 C804 C 0.59523 0.26800 0.89754
 C805 C 0.54133 0.24237 0.85459
 C806 C 0.52938 0.22878 0.83928
 H807 H 0.54593 0.31002 0.91466
 H808 H 0.52218 0.28344 0.88182
 H809 H 0.59183 0.23691 0.86914
 H810 H 0.61558 0.26351 0.90191
 C811 C 0.39258 0.68386 0.94713
 C812 C 0.40451 0.69617 0.93078
 C813 C 0.41868 0.71117 0.91142
 C814 C 0.44480 0.71856 0.91607
 C815 C 0.45835 0.73371 0.89757
 C816 C 0.44585 0.74151 0.87432
 C817 C 0.41978 0.73398 0.86958
 C818 C 0.40622 0.71884 0.88809
 C819 C 0.45964 0.75760 0.85560
 C820 C 0.47139 0.77126 0.84022
 H821 H 0.45461 0.71279 0.93405
 H822 H 0.47847 0.73948 0.90147
 H823 H 0.40991 0.73994 0.85169
 H824 H 0.38602 0.71328 0.88431
 C825 C 0.68539 0.94673 0.39280
 C826 C 0.69776 0.93040 0.40472
 C827 C 0.71279 0.91109 0.41892
 C828 C 0.72056 0.88775 0.40652
 C829 C 0.73569 0.86927 0.42013
 C830 C 0.74311 0.87404 0.44620
 C831 C 0.73522 0.89730 0.45865
 C832 C 0.72009 0.91578 0.44504
 C833 C 0.75914 0.85533 0.46009
 C834 C 0.77273 0.83996 0.47194
 H835 H 0.71507 0.88394 0.38631
 H836 H 0.74171 0.85136 0.41031
 H837 H 0.74092 0.90123 0.47878
 H838 H 0.71424 0.93376 0.45482
 C839 C 0.31518 0.94608 0.60746
 C840 C 0.30281 0.92965 0.59567
 C841 C 0.28775 0.91017 0.58170
 C842 C 0.26694 0.89725 0.59426
 C843 C 0.25192 0.87871 0.58060
 C844 C 0.25766 0.87300 0.55430
 C845 C 0.27856 0.88581 0.54176
 C846 C 0.29358 0.90437 0.55543
 C847 C 0.24176 0.85444 0.54005
 C848 C 0.22826 0.83918 0.52794
 H849 H 0.26223 0.90162 0.61455
 H850 H 0.23576 0.86897 0.59046
 H851 H 0.28315 0.88156 0.52143
 H852 H 0.30960 0.91427 0.54551
 C853 C 0.31555 0.05425 0.39360
 C854 C 0.30316 0.07052 0.40557
 C855 C 0.28806 0.08976 0.41980
 C856 C 0.28055 0.08487 0.44581
 C857 C 0.26531 0.10325 0.45943
 C858 C 0.25752 0.12660 0.44709
 C859 C 0.26517 0.13157 0.42113
 C860 C 0.28040 0.11318 0.40751
 C861 C 0.24134 0.14519 0.46097
 C862 C 0.22763 0.16046 0.47281
 H863 H 0.28631 0.06681 0.45549
 H864 H 0.25944 0.09917 0.47947
 H865 H 0.25922 0.14954 0.41140
 H866 H 0.28605 0.11714 0.38739
 C867 C 0.68395 0.05315 0.60608
 C868 C 0.69629 0.06945 0.59410
 C869 C 0.71131 0.08876 0.57988
 C870 C 0.71897 0.11217 0.59222
 C871 C 0.73414 0.13063 0.57862
 C872 C 0.74173 0.12575 0.55263
 C873 C 0.73394 0.10241 0.54023
 C874 C 0.71876 0.08396 0.55383
 C875 C 0.75786 0.14442 0.53880
 C876 C 0.77155 0.15978 0.52705
 H877 H 0.71337 0.11606 0.61238
 H878 H 0.74009 0.14859 0.58841
 H879 H 0.73976 0.09841 0.52017
 H880 H 0.71300 0.06591 0.54410
 C881 C 0.94646 0.60653 0.31646
 C882 C 0.93002 0.59458 0.30426
 C883 C 0.91058 0.58041 0.28935
 C884 C 0.91517 0.55428 0.28197
 C885 C 0.89664 0.54076 0.26681
 C886 C 0.87342 0.55331 0.25896
 C887 C 0.86873 0.57939 0.26649
 C888 C 0.88727 0.59291 0.28164
 C889 C 0.85471 0.53958 0.24278
 C890 C 0.83934 0.52788 0.22905
 H891 H 0.93314 0.54444 0.28776
 H892 H 0.90050 0.52063 0.26103
 H893 H 0.85087 0.58929 0.26049
 H894 H 0.88355 0.61313 0.28718
 C895 C 0.94598 0.39354 0.68390
 C896 C 0.92971 0.40559 0.69621
 C897 C 0.91046 0.41986 0.71125
 C898 C 0.91521 0.44603 0.71846
 C899 C 0.89686 0.45965 0.73374
 C900 C 0.87369 0.44719 0.74186
 C901 C 0.86885 0.42109 0.73450
 C902 C 0.88720 0.40745 0.71923
 C903 C 0.85516 0.46104 0.75812
 C904 C 0.83993 0.47282 0.77193
 H905 H 0.93314 0.45580 0.71246
 H906 H 0.90084 0.47980 0.73938
 H907 H 0.85103 0.41124 0.74071
 H908 H 0.88336 0.38722 0.71383
 C909 C 0.05377 0.60687 0.68378
 C910 C 0.07008 0.59492 0.69613
 C911 C 0.08937 0.58073 0.71121
 C912 C 0.08454 0.55469 0.71877
 C913 C 0.10295 0.54115 0.73405
 C914 C 0.12628 0.55357 0.74181
 C915 C 0.13120 0.57955 0.73411
 C916 C 0.11278 0.59310 0.71885
 C917 C 0.14490 0.53976 0.75802
 C918 C 0.16019 0.52795 0.77173
 H919 H 0.06649 0.54495 0.71304
 H920 H 0.09891 0.52109 0.73995
 H921 H 0.14915 0.58935 0.74004
 H922 H 0.11670 0.61324 0.71316
 C923 C 0.05328 0.39233 0.31564
 C924 C 0.06969 0.40404 0.30317
 C925 C 0.08912 0.41785 0.28793
 C926 C 0.09495 0.44421 0.29343
 C927 C 0.11344 0.45772 0.27822
 C928 C 0.12617 0.44493 0.25742
 C929 C 0.12044 0.41854 0.25201
 C930 C 0.10197 0.40503 0.26723
 C931 C 0.14467 0.45901 0.24131
 C932 C 0.15989 0.47095 0.22764
 H933 H 0.08511 0.45433 0.30936
 H934 H 0.11770 0.47813 0.28256
 H935 H 0.13011 0.40848 0.23595
 H936 H 0.09759 0.38467 0.26277
   
