data_POSCAR
  _audit_creation_date              2014-09-24
  _audit_creation_method            'ToBaCCo'
  _symmetry_space_group_name_H-M    'P1'
  _symmetry_Int_Tables_number       1
  _symmetry_cell_setting            triclinic
  loop_
  _symmetry_equiv_pos_as_xyz
 x,y,z
_cell_length_a 43.1493
_cell_length_b 43.2233
_cell_length_c 42.7101
_cell_angle_alpha 90.372900
_cell_angle_beta 89.941400
_cell_angle_gamma 90.288900
loop_
  _atom_site_label
  _atom_site_type_symbol
  _atom_site_fract_x
  _atom_site_fract_y
  _atom_site_fract_z
C1 C 0.19927 0.52021 1.03469
 H2 H 0.19783 0.53553 1.01482
 C3 C 0.17622 0.52082 1.05759
 H4 H 0.15788 0.53755 1.05514
 C5 C 0.22580 0.48055 1.06147
 H6 H 0.24479 0.46443 1.06256
 C7 C 0.20357 0.48081 1.08532
 H8 H 0.20593 0.46486 1.10464
 N9 N 0.22315 0.49999 1.03672
 C10 C 0.29828 0.53604 0.97923
 H11 H 0.30069 0.51733 0.96246
 C12 C 0.31845 0.56135 0.97814
 H13 H 0.33658 0.56153 0.96064
 C14 C 0.27263 0.55719 1.02347
 H15 H 0.25501 0.55524 1.04135
 C16 C 0.29238 0.58291 1.02331
 H17 H 0.28969 0.60072 1.04105
 Zn18 Zn 0.25040 0.49878 1.00203
 N19 N 0.27579 0.53453 1.00148
 C20 C 0.22706 0.51934 0.94347
 N21 N 0.22526 0.49700 0.96570
 C22 C 0.20367 0.47404 0.96389
 C23 C 0.18259 0.47307 0.93912
 C24 C 0.20642 0.51926 0.91829
 C25 C 0.29809 0.46344 1.02751
 C26 C 0.31909 0.43908 1.02960
 C27 C 0.29636 0.41661 0.98301
 C28 C 0.27576 0.44140 0.98184
 N29 N 0.27681 0.46403 1.00408
 H30 H 0.24408 0.53764 0.94550
 H31 H 0.20245 0.45681 0.98212
 H32 H 0.16528 0.45485 0.93829
 H33 H 0.20862 0.53713 0.90082
 H34 H 0.29898 0.48220 1.04438
 H35 H 0.33623 0.43968 1.04805
 H36 H 0.29532 0.39883 0.96504
 H37 H 0.25927 0.44269 0.96289
 C38 C 0.31546 0.58538 1.00030
 C39 C 0.17774 0.50037 1.08314
 C40 C 0.31822 0.41506 1.00722
 C41 C 0.18337 0.49620 0.91625
 C42 C 0.79620 0.52644 -0.04717
 H43 H 0.79781 0.54354 -0.02862
 C44 C 0.81735 0.52700 -0.07192
 H45 H 0.83530 0.54455 -0.07182
 C46 C 0.77194 0.48159 -0.06814
 H47 H 0.75458 0.46361 -0.06624
 C48 C 0.79265 0.48126 -0.09331
 H49 H 0.79087 0.46306 -0.11079
 N50 N 0.77405 0.50402 -0.04575
 C51 C 0.69924 0.53826 0.01344
 H52 H 0.69739 0.51932 0.02978
 C53 C 0.67848 0.56285 0.01526
 H54 H 0.66050 0.56225 0.03291
 C55 C 0.72400 0.56068 -0.03052
 H56 H 0.74145 0.55951 -0.04862
 C57 C 0.70364 0.58571 -0.02960
 H58 H 0.70577 0.60378 -0.04694
 Zn59 Zn 0.74824 0.50308 -0.00995
 N60 N 0.72169 0.53780 -0.00892
 C61 C 0.76965 0.52308 0.04995
 N62 N 0.77430 0.50307 0.02567
 C63 C 0.79875 0.48335 0.02543
 C64 C 0.81993 0.48347 0.05011
 C65 C 0.78999 0.52361 0.07535
 C66 C 0.69860 0.46707 -0.03087
 C67 C 0.67752 0.44250 -0.03097
 C68 C 0.70727 0.41833 0.00998
 C69 C 0.72756 0.44364 0.00964
 N70 N 0.72289 0.46731 -0.01063
 H71 H 0.75040 0.53890 0.04959
 H72 H 0.80199 0.46777 0.00578
 H73 H 0.83920 0.46753 0.04952
 H74 H 0.78610 0.53974 0.09445
 H75 H 0.69526 0.48639 -0.04646
 H76 H 0.65794 0.44291 -0.04682
 H77 H 0.71093 0.40009 0.02679
 H78 H 0.74668 0.44455 0.02593
 C79 C 0.68079 0.58723 -0.00628
 C80 C 0.81567 0.50418 -0.09552
 C81 C 0.68177 0.41771 -0.01047
 C82 C 0.81578 0.50409 0.07532
 C83 C -0.02731 0.29556 0.45697
 H84 H -0.04286 0.29582 0.47686
 C85 C -0.03069 0.31737 0.43330
 H86 H -0.04910 0.33395 0.43597
 C87 C 0.01607 0.27367 0.43131
 H88 H 0.03453 0.25687 0.43090
 C89 C 0.01364 0.29511 0.40709
 H90 H 0.03032 0.29428 0.38813
 N91 N -0.00435 0.27423 0.45554
 C92 C -0.03301 0.19600 0.51248
 H93 H -0.01316 0.19428 0.52781
 C94 C -0.05634 0.17354 0.51352
 H95 H -0.05454 0.15491 0.53021
 C96 C -0.05928 0.22251 0.47208
 H97 H -0.06007 0.24124 0.45551
 C98 C -0.08335 0.20078 0.47264
 H99 H -0.10264 0.20312 0.45663
 Zn100 Zn -0.00045 0.24718 0.48990
 N101 N -0.03475 0.21976 0.49185
 C102 C -0.01844 0.26805 0.55061
 N103 N 0.00174 0.27202 0.52647
 C104 C 0.02305 0.29528 0.52683
 C105 C 0.02498 0.31549 0.55236
 C106 C -0.01734 0.28778 0.57665
 C107 C 0.03497 0.19973 0.46380
 C108 C 0.05944 0.17884 0.46148
 C109 C 0.08518 0.20600 0.50377
 C110 C 0.05998 0.22609 0.50563
 N111 N 0.03554 0.22263 0.48578
 H112 H -0.03569 0.24988 0.54956
 H113 H 0.03827 0.29839 0.50693
 H114 H 0.04158 0.33429 0.55148
 H115 H -0.03369 0.28446 0.59561
 H116 H 0.01503 0.19722 0.44865
 H117 H 0.05833 0.16028 0.44435
 H118 H 0.10397 0.20860 0.52037
 H119 H 0.05969 0.24391 0.52345
 C120 C -0.08173 0.17560 0.49307
 C121 C -0.00993 0.31752 0.40771
 C122 C 0.08494 0.18186 0.48157
 C123 C 0.00470 0.31173 0.57789
 C124 C 0.97820 0.70115 0.53442
 H125 H 0.96053 0.70077 0.51647
 C126 C 0.97738 0.67944 0.55845
 H127 H 0.95878 0.66252 0.55895
 C128 C 1.02442 0.72308 0.55483
 H129 H 1.04315 0.73962 0.55288
 C130 C 1.02461 0.70166 0.57920
 H131 H 1.04377 0.70226 0.59544
 N132 N 1.00131 0.72258 0.53319
 C133 C 0.96632 0.79906 0.47768
 H134 H 0.98533 0.80148 0.46133
 C135 C 0.94200 0.82021 0.47735
 H136 H 0.94232 0.83892 0.46059
 C137 C 0.94333 0.77230 0.52011
 H138 H 0.94432 0.75414 0.53730
 C139 C 0.91828 0.79269 0.52028
 H140 H 0.90032 0.78996 0.53776
 Zn141 Zn 1.00181 0.74972 0.49858
 N142 N 0.96658 0.77568 0.49882
 C143 C 0.97965 0.72685 0.44010
 N144 N 1.00233 0.72478 0.46206
 C145 C 1.02535 0.70356 0.45941
 C146 C 1.02625 0.68337 0.43380
 C147 C 0.97957 0.70698 0.41415
 C148 C 1.03919 0.79650 0.52399
 C149 C 1.06386 0.81749 0.52553
 C150 C 1.08378 0.79580 0.47733
 C151 C 1.05872 0.77523 0.47671
 N152 N 1.03717 0.77580 0.49997
 H153 H 0.96141 0.74368 0.44279
 H154 H 1.04289 0.70219 0.47742
 H155 H 1.04467 0.66650 0.43215
 H156 H 0.96153 0.70943 0.39680
 H157 H 1.02129 0.79697 0.54174
 H158 H 1.06430 0.83421 0.54446
 H159 H 1.10063 0.79517 0.45852
 H160 H 1.05629 0.75923 0.45734
 C161 C 0.91748 0.81703 0.49864
 C162 C 1.00069 0.67947 0.58134
 C163 C 1.08673 0.81718 0.50201
 C164 C 1.00293 0.68456 0.41102
 C165 C 0.46648 -0.02488 0.30161
 H166 H 0.48457 -0.04200 0.30370
 C167 C 0.44103 -0.02568 0.32179
 H168 H 0.44012 -0.04334 0.33959
 C169 C 0.44712 0.01996 0.27690
 H170 H 0.44984 0.03803 0.25976
 C171 C 0.42130 0.02007 0.29663
 H172 H 0.40419 0.03817 0.29431
 N173 N 0.46893 -0.00248 0.27953
 C174 C 0.52827 -0.03964 0.20580
 H175 H 0.54585 -0.02174 0.20456
 C176 C 0.52882 -0.06438 0.18464
 H177 H 0.54719 -0.06531 0.16734
 C178 C 0.48265 -0.05929 0.22935
 H179 H 0.46428 -0.05690 0.24636
 C180 C 0.48226 -0.08446 0.20868
 H181 H 0.46338 -0.10074 0.21087
 Zn182 Zn 0.50488 -0.00222 0.25409
 N183 N 0.50551 -0.03761 0.22770
 C184 C 0.56309 -0.02214 0.27827
 N185 N 0.53958 -0.00145 0.28119
 C186 C 0.53918 0.01969 0.30490
 C187 C 0.56307 0.02062 0.32688
 C188 C 0.58772 -0.02173 0.29952
 C189 C 0.48353 0.03378 0.20475
 C190 C 0.48286 0.05855 0.18399
 C191 C 0.52645 0.08126 0.21134
 C192 C 0.52634 0.05595 0.23155
 N193 N 0.50501 0.03293 0.22797
 H194 H 0.56264 -0.03928 0.25978
 H195 H 0.51997 0.03556 0.30695
 H196 H 0.56223 0.03737 0.34584
 H197 H 0.60588 -0.03876 0.29714
 H198 H 0.46698 0.01504 0.20231
 H199 H 0.46562 0.05872 0.16557
 H200 H 0.54329 0.09946 0.21525
 H201 H 0.54334 0.05474 0.25004
 C202 C 0.50559 -0.08733 0.18566
 C203 C 0.41784 -0.00307 0.31925
 C204 C 0.50464 0.08260 0.18687
 C205 C 0.58784 -0.00008 0.32422
 C206 C 0.53262 -0.01880 0.70457
 H207 H 0.51480 -0.03649 0.70386
 C208 C 0.55697 -0.01958 0.68303
 H209 H 0.55783 -0.03805 0.66579
 C210 C 0.55277 0.02708 0.72758
 H211 H 0.55088 0.04543 0.74474
 C212 C 0.57748 0.02725 0.70642
 H213 H 0.59472 0.04541 0.70830
 N214 N 0.53103 0.00420 0.72636
 C215 C 0.47321 -0.03299 0.80104
 H216 H 0.45610 -0.01483 0.80267
 C217 C 0.47211 -0.05778 0.82178
 H218 H 0.45423 -0.05804 0.83953
 C219 C 0.51843 -0.05305 0.77703
 H220 H 0.53684 -0.05077 0.76004
 C221 C 0.51824 -0.07826 0.79735
 H222 H 0.53641 -0.09539 0.79557
 Zn223 Zn 0.49635 0.00440 0.75353
 N224 N 0.49595 -0.03119 0.77908
 C225 C 0.43881 -0.01740 0.72930
 N226 N 0.46045 0.00556 0.72817
 C227 C 0.45799 0.02918 0.70748
 C228 C 0.43275 0.03064 0.68711
 C229 C 0.41320 -0.01687 0.70935
 C230 C 0.52161 0.04022 0.80170
 C231 C 0.52339 0.06413 0.82374
 C232 C 0.47589 0.08491 0.80284
 C233 C 0.47507 0.06061 0.78113
 N234 N 0.49787 0.03900 0.78083
 H235 H 0.44157 -0.03645 0.74527
 H236 H 0.47595 0.04671 0.70655
 H237 H 0.43191 0.04926 0.67037
 H238 H 0.39630 -0.03545 0.71039
 H239 H 0.53897 0.02223 0.80147
 H240 H 0.54208 0.06393 0.84058
 H241 H 0.45744 0.10182 0.80296
 H242 H 0.45590 0.05876 0.76497
 C243 C 0.49477 -0.08101 0.81993
 C244 C 0.57958 0.00383 0.68349
 C245 C 0.50035 0.08704 0.82437
 C246 C 0.40979 0.00742 0.68803
 C247 C 0.29809 0.02498 0.46397
 H248 H 0.29871 0.04291 0.48175
 C249 C 0.32027 0.02472 0.44017
 H250 H 0.33782 0.04272 0.43962
 C251 C 0.27501 -0.02081 0.44375
 H252 H 0.25761 -0.03877 0.44549
 C253 C 0.29680 -0.02199 0.41954
 H254 H 0.29517 -0.04051 0.40247
 N255 N 0.27606 0.00243 0.46535
 C256 C 0.19937 0.03863 0.52051
 H257 H 0.19693 0.02007 0.53722
 C258 C 0.17783 0.06258 0.52014
 H259 H 0.15883 0.06247 0.53675
 C260 C 0.22646 0.06071 0.47777
 H261 H 0.24493 0.05946 0.46074
 C262 C 0.20570 0.08541 0.47689
 H263 H 0.20843 0.10288 0.45905
 Zn264 Zn 0.24905 0.00296 0.50025
 N265 N 0.22304 0.03805 0.49949
 C266 C 0.27215 0.02654 0.55816
 N267 N 0.27433 0.00359 0.53634
 C268 C 0.29622 -0.01879 0.53854
 C269 C 0.31717 -0.01861 0.56338
 C270 C 0.29271 0.02763 0.58342
 C271 C 0.20164 -0.03486 0.47679
 C272 C 0.18029 -0.05922 0.47654
 C273 C 0.20312 -0.07813 0.52432
 C274 C 0.22404 -0.05337 0.52365
 N275 N 0.22292 -0.03235 0.50013
 H276 H 0.25475 0.04425 0.55580
 H277 H 0.29763 -0.03656 0.52065
 H278 H 0.33464 -0.03648 0.56457
 H279 H 0.29022 0.04591 0.60063
 H280 H 0.20101 -0.01759 0.45858
 H281 H 0.16332 -0.06069 0.45791
 H282 H 0.20488 -0.09471 0.54306
 H283 H 0.24084 -0.05078 0.54222
 C284 C 0.18095 0.08643 0.49828
 C285 C 0.32017 0.00077 0.41788
 C286 C 0.18049 -0.08098 0.50076
 C287 C 0.31596 0.00506 0.58595
 C288 C 0.70312 0.02009 0.54188
 H289 H 0.70153 0.03545 0.52204
 C290 C 0.68187 0.02259 0.56641
 H291 H 0.66385 0.03981 0.56490
 C292 C 0.72749 -0.02233 0.56643
 H293 H 0.74496 -0.04015 0.56605
 C294 C 0.70664 -0.02072 0.59143
 H295 H 0.70838 -0.03726 0.61029
 N296 N 0.72544 -0.00198 0.54238
 C297 C 0.80192 0.02797 0.48323
 H298 H 0.80413 0.00788 0.46817
 C299 C 0.82391 0.05172 0.48172
 H300 H 0.84263 0.04999 0.46494
 C301 C 0.77482 0.05438 0.52353
 H302 H 0.75607 0.05506 0.54026
 C303 C 0.79605 0.07885 0.52251
 H304 H 0.79331 0.09834 0.53833
 Zn305 Zn 0.75165 -0.00540 0.50701
 N306 N 0.77812 0.02956 0.50406
 C307 C 0.73009 0.00970 0.44597
 N308 N 0.72588 -0.00873 0.47134
 C309 C 0.70161 -0.02884 0.47298
 C310 C 0.68018 -0.03080 0.44860
 C311 C 0.70941 0.00818 0.42083
 C312 C 0.80107 -0.03884 0.53124
 C313 C 0.82268 -0.06266 0.53302
 C314 C 0.79452 -0.09014 0.49253
 C315 C 0.77366 -0.06554 0.49121
 N316 N 0.77731 -0.04056 0.51041
 H317 H 0.74913 0.02600 0.44541
 H318 H 0.69857 -0.04290 0.49364
 H319 H 0.66067 -0.04655 0.45051
 H320 H 0.71274 0.02359 0.40123
 H321 H 0.80365 -0.01850 0.54592
 H322 H 0.84186 -0.06065 0.54926
 H323 H 0.79171 -0.10940 0.47645
 H324 H 0.75498 -0.06617 0.47439
 C325 C 0.82132 0.07738 0.50193
 C326 C 0.68356 0.00202 0.59174
 C327 C 0.81955 -0.08871 0.51355
 C328 C 0.68398 -0.01223 0.42208
 C329 C 0.47865 0.20646 1.04792
 H330 H 0.46077 0.20557 1.03019
 C331 C 0.47790 0.18573 1.07282
 H332 H 0.45924 0.16894 1.07424
 C333 C 0.52512 0.22902 1.06714
 H334 H 0.54362 0.24576 1.06464
 C335 C 0.52539 0.20856 1.09234
 H336 H 0.54383 0.21045 1.10938
 N337 N 0.50199 0.22756 1.04555
 C338 C 0.46627 0.30060 0.98586
 H339 H 0.48407 0.30099 0.96800
 C340 C 0.44221 0.32203 0.98506
 H341 H 0.44151 0.33883 0.96636
 C342 C 0.44608 0.27866 1.03235
 H343 H 0.44789 0.26200 1.05098
 C344 C 0.42161 0.29971 1.03248
 H345 H 0.40445 0.29822 1.05088
 Zn346 Zn 0.50259 0.25300 1.00973
 N347 N 0.46776 0.27944 1.00922
 C348 C 0.48009 0.22815 0.95211
 N349 N 0.50257 0.22646 0.97432
 C350 C 0.52486 0.20439 0.97289
 C351 C 0.52554 0.18323 0.94808
 C352 C 0.47988 0.20745 0.92687
 C353 C 0.53878 0.30209 1.03135
 C354 C 0.56304 0.32355 1.03147
 C355 C 0.58611 0.29619 0.98786
 C356 C 0.56114 0.27548 0.98826
 N357 N 0.53818 0.27873 1.00989
 H358 H 0.46203 0.24526 0.95409
 H359 H 0.54195 0.20303 0.99135
 H360 H 0.54309 0.16547 0.94810
 H361 H 0.46176 0.20904 0.90943
 H362 H 0.51998 0.30438 1.04797
 H363 H 0.56290 0.34236 1.04836
 H364 H 0.60374 0.29367 0.97000
 H365 H 0.55987 0.25728 0.97088
 C366 C 0.41973 0.32210 1.00879
 C367 C 0.50172 0.18623 1.09512
 C368 C 0.58712 0.32068 1.00964
 C369 C 0.50292 0.18478 0.92444
 C370 C 0.47383 0.79853 -0.03512
 H371 H 0.45661 0.79897 -0.01669
 C372 C 0.47245 0.81996 -0.05937
 H373 H 0.45421 0.83701 -0.05897
 C374 C 0.51968 0.77686 -0.05631
 H375 H 0.53843 0.76050 -0.05465
 C376 C 0.51923 0.79793 -0.08097
 H377 H 0.53756 0.79737 -0.09832
 N378 N 0.49705 0.77742 -0.03413
 C379 C 0.46143 0.70323 0.02468
 H380 H 0.47938 0.70258 0.04232
 C381 C 0.43726 0.68166 0.02534
 H382 H 0.43665 0.66450 0.04371
 C383 C 0.44101 0.72583 -0.02124
 H384 H 0.44281 0.74277 -0.03964
 C385 C 0.41645 0.70463 -0.02152
 H386 H 0.39920 0.70626 -0.03977
 Zn387 Zn 0.49816 0.75090 0.00089
 N388 N 0.46289 0.72472 0.00162
 C389 C 0.47748 0.77499 0.05952
 N390 N 0.49968 0.77648 0.03698
 C391 C 0.52296 0.79768 0.03860
 C392 C 0.52481 0.81828 0.06381
 C393 C 0.47839 0.79515 0.08523
 C394 C 0.53438 0.70395 -0.02488
 C395 C 0.55844 0.68255 -0.02655
 C396 C 0.57962 0.70440 0.02109
 C397 C 0.55515 0.72543 0.02182
 N398 N 0.53315 0.72481 -0.00096
 H399 H 0.45871 0.75849 0.05742
 H400 H 0.54004 0.79869 0.02006
 H401 H 0.54362 0.83498 0.06441
 H402 H 0.46004 0.79315 0.10227
 H403 H 0.51634 0.70372 -0.04246
 H404 H 0.55889 0.66591 -0.04562
 H405 H 0.59700 0.70568 0.03928
 H406 H 0.55355 0.74188 0.04089
 C407 C 0.41469 0.68179 0.00175
 C408 C 0.49533 0.81970 -0.08287
 C409 C 0.58115 0.68221 -0.00311
 C410 C 0.50235 0.81741 0.08770
 C411 C 1.02436 0.49170 0.18742
 H412 H 1.00126 0.48680 0.17904
 C413 C 1.04865 0.49276 0.16597
 H414 H 1.04335 0.48837 0.14161
 C415 C 1.05890 0.50062 0.22951
 H416 H 1.06283 0.50376 0.25427
 C417 C 1.08413 0.50113 0.20886
 H418 H 1.10723 0.50483 0.21813
 N419 N 1.02955 0.49684 0.21842
 C420 C 0.97046 0.46507 0.29472
 H421 H 0.95510 0.48469 0.29682
 C422 C 0.96802 0.44065 0.31578
 H423 H 0.95066 0.44258 0.33385
 C424 C 1.01221 0.44064 0.26861
 H425 H 1.02944 0.44089 0.25022
 C426 C 1.01070 0.41570 0.28924
 H427 H 1.02699 0.39689 0.28636
 Zn428 Zn 0.99432 0.49944 0.24536
 N429 N 0.99219 0.46462 0.27172
 C430 C 0.93580 0.47909 0.22183
 N431 N 0.95815 0.50135 0.22001
 C432 C 0.95657 0.52417 0.19826
 C433 C 0.93264 0.52440 0.17635
 C434 C 0.91113 0.47877 0.20065
 C435 C 1.01831 0.53469 0.29511
 C436 C 1.02019 0.55921 0.31646
 C437 C 0.97823 0.58414 0.28928
 C438 C 0.97708 0.55906 0.26851
 N439 N 0.99706 0.53501 0.27162
 H440 H 0.93754 0.46097 0.23902
 H441 H 0.97473 0.54148 0.19712
 H442 H 0.93214 0.54242 0.15887
 H443 H 0.89387 0.46053 0.20188
 H444 H 1.03321 0.51488 0.29791
 H445 H 1.03703 0.55831 0.33522
 H446 H 0.96240 0.60310 0.28576
 H447 H 0.95988 0.55880 0.25022
 C448 C 0.98837 0.41526 0.31331
 C449 C 1.07908 0.49851 0.17644
 C450 C 0.99973 0.58419 0.31402
 C451 C 0.90995 0.50103 0.17700
 C452 C -0.03413 0.47343 0.79273
 H453 H -0.01705 0.45526 0.79421
 C454 C -0.05903 0.47402 0.81364
 H455 H -0.06108 0.45610 0.83114
 C456 C -0.05170 0.51932 0.76862
 H457 H -0.04856 0.53717 0.75132
 C458 C -0.07694 0.52082 0.78907
 H459 H -0.09332 0.53948 0.78646
 N460 N -0.03090 0.49589 0.77082
 C461 C 0.02881 0.45722 0.69822
 H462 H 0.04664 0.47490 0.69774
 C463 C 0.02974 0.43271 0.67683
 H464 H 0.04827 0.43216 0.65978
 C465 C -0.01813 0.43825 0.71981
 H466 H -0.03710 0.44090 0.73611
 C467 C -0.01818 0.41337 0.69873
 H468 H -0.03712 0.39684 0.69921
 Zn469 Zn 0.00490 0.49510 0.74519
 N470 N 0.00525 0.45947 0.71924
 C471 C 0.06094 0.47241 0.77143
 N472 N 0.03976 0.49562 0.77210
 C473 C 0.04190 0.51909 0.79335
 C474 C 0.06642 0.52021 0.81465
 C475 C 0.08582 0.47261 0.79233
 C476 C -0.01668 0.53034 0.69560
 C477 C -0.01714 0.55425 0.67383
 C478 C 0.02808 0.57641 0.69882
 C479 C 0.02778 0.55192 0.72004
 N480 N 0.00544 0.52966 0.71822
 H481 H 0.05839 0.45347 0.75502
 H482 H 0.02428 0.53680 0.79393
 H483 H 0.06703 0.53878 0.83173
 H484 H 0.10242 0.45390 0.79154
 H485 H -0.03384 0.51204 0.69434
 H486 H -0.03485 0.55432 0.65588
 H487 H 0.04653 0.59338 0.70032
 H488 H 0.04572 0.55049 0.73758
 C489 C 0.00603 0.41025 0.67699
 C490 C -0.08054 0.49820 0.81235
 C491 C 0.00525 0.57782 0.67539
 C492 C 0.08899 0.49683 0.81412
 C493 C 0.10958 0.15822 0.48049
 C494 C 0.13912 0.16415 0.48827
 C495 C 0.16313 0.13994 0.48825
 C496 C 0.15713 0.11088 0.49730
 H497 H 0.14644 0.18763 0.49340
 H498 H 0.18665 0.14694 0.48287
 H499 H 0.10326 0.13530 0.47218
 H500 H 0.13420 0.10507 0.50589
 C501 C 0.65900 0.61364 -0.00599
 C502 C 0.64376 0.62287 0.01981
 C503 C 0.62119 0.64848 0.02055
 C504 C 0.60571 0.65838 -0.00469
 H505 H 0.64858 0.61208 0.04204
 H506 H 0.61558 0.65762 0.04347
 H507 H 0.65645 0.62641 -0.02753
 H508 H 0.60931 0.64710 -0.02709
 C509 C 0.89250 -0.15966 0.49879
 C510 C 0.86327 -0.16602 0.50739
 C511 C 0.83855 -0.14251 0.50699
 C512 C 0.84385 -0.11273 0.51423
 H513 H 0.85659 -0.18952 0.51294
 H514 H 0.81517 -0.15048 0.50233
 H515 H 0.89813 -0.13683 0.49004
 H516 H 0.86672 -0.10573 0.52209
 C517 C 0.34060 0.38913 1.00735
 C518 C 0.35595 0.38015 1.03303
 C519 C 0.37907 0.35500 1.03329
 C520 C 0.39495 0.34573 1.00788
 H521 H 0.35081 0.39070 1.05545
 H522 H 0.38462 0.34564 1.05600
 H523 H 0.34363 0.37649 0.98561
 H524 H 0.39133 0.35729 0.98580
 C525 C 0.89331 0.15199 0.49254
 C526 C 0.89872 0.12204 0.49827
 C527 C 0.87468 0.09767 0.49644
 C528 C 0.84455 0.10269 0.50214
 H529 H 0.92219 0.11439 0.50249
 H530 H 0.88273 0.07431 0.49235
 H531 H 0.87049 0.15917 0.48505
 H532 H 0.83696 0.12545 0.50951
 C533 C 0.33688 0.61231 0.00110
 C534 C 0.35249 0.62225 -0.02413
 C535 C 0.37492 0.64824 -0.02364
 C536 C 0.39010 0.65770 0.00215
 H537 H 0.34817 0.61174 -0.04677
 H538 H 0.38077 0.65799 -0.04614
 H539 H 0.33894 0.62480 0.02305
 H540 H 0.38627 0.64582 0.02405
 C541 C 0.11281 -0.16033 0.50140
 C542 C 0.12283 -0.14477 0.52677
 C543 C 0.14804 -0.12145 0.52627
 C544 C 0.15681 -0.10600 0.50053
 H545 H 0.11309 -0.14980 0.54952
 H546 H 0.15792 -0.11542 0.54875
 H547 H 0.12462 -0.15730 0.47926
 H548 H 0.14480 -0.11016 0.47867
 C549 C 0.65822 0.39277 0.99043
 C550 C 0.66468 0.36355 0.99833
 C551 C 0.64068 0.33911 0.99922
 C552 C 0.61165 0.34467 1.00885
 H553 H 0.68843 0.35673 1.00245
 H554 H 0.64775 0.31574 0.99356
 H555 H 0.63491 0.39851 0.98308
 H556 H 0.60580 0.36748 1.01766
 C557 C 0.50346 0.10838 1.16406
 C558 C 0.52679 0.12851 1.15928
 C559 C 0.52652 0.15304 1.13520
 C560 C 0.50096 0.16317 1.12066
 H561 H 0.54827 0.12612 1.17198
 H562 H 0.54889 0.16272 1.12919
 H563 H 0.48300 0.10942 1.14955
 H564 H 0.47854 0.15349 1.12642
 C565 C -0.00027 0.65516 0.60578
 C566 C 0.01746 0.65530 0.63164
 C567 C 0.01714 0.63064 0.65561
 C568 C 0.00483 0.60234 0.65129
 H569 H 0.03256 0.67471 0.63657
 H570 H 0.02822 0.63637 0.67761
 H571 H -0.01700 0.63679 0.60226
 H572 H -0.00646 0.59648 0.62946
 C573 C 0.49574 0.89278 -0.15784
 C574 C 0.47070 0.88253 -0.14223
 C575 C 0.47082 0.85782 -0.11835
 C576 C 0.49611 0.84282 -0.10837
 H577 H 0.44833 0.89271 -0.14678
 H578 H 0.44844 0.85224 -0.10840
 H579 H 0.51789 0.88167 -0.15487
 H580 H 0.51838 0.84707 -0.11910
 C581 C 0.98886 0.33937 0.38331
 C582 C 0.96613 0.36237 0.38050
 C583 C 0.96577 0.38580 0.35795
 C584 C 0.98786 0.39000 0.33411
 H585 H 0.94707 0.36314 0.39683
 H586 H 0.94652 0.40149 0.35998
 H587 H 1.00699 0.33807 0.36591
 H588 H 1.00580 0.37292 0.33104
 C589 C 0.50640 0.88855 0.16323
 C590 C 0.48498 0.86396 0.16145
 C591 C 0.48418 0.84112 0.13795
 C592 C 0.50461 0.83921 0.11235
 H593 H 0.46710 0.86180 0.17896
 H594 H 0.46582 0.82429 0.14040
 H595 H 0.52490 0.88966 0.14626
 H596 H 0.52349 0.85560 0.11084
 C597 C 0.00464 0.33331 0.60506
 C598 C 0.02943 0.35036 0.61340
 C599 C 0.02992 0.37370 0.63893
 C600 C 0.00470 0.38474 0.65361
 H601 H 0.05115 0.34720 0.60119
 H602 H 0.05255 0.38283 0.64487
 H603 H -0.01643 0.33444 0.61871
 H604 H -0.01795 0.37527 0.64845
 C605 C 0.50001 0.11218 0.84817
 C606 C 0.52563 0.12242 0.86286
 C607 C 0.52622 0.14613 0.88807
 C608 C 0.50158 0.16233 0.89803
 H609 H 0.54791 0.11280 0.85667
 H610 H 0.54863 0.15025 0.89864
 H611 H 0.47776 0.12238 0.85323
 H612 H 0.47952 0.15988 0.88634
 C613 C 1.00388 0.66215 0.38461
 C614 C 0.97849 0.65277 0.36899
 C615 C 0.97818 0.62896 0.34387
 C616 C 1.00155 0.60939 0.33776
 H617 H 0.95618 0.66246 0.37493
 H618 H 0.95653 0.62655 0.33137
 H619 H 1.02622 0.65231 0.37910
 H620 H 1.02230 0.61023 0.35188
 C621 C 1.15435 0.49858 0.10610
 C622 C 1.12438 0.51021 0.10181
 C623 C 1.10043 0.50829 0.12375
 C624 C 1.10422 0.50151 0.15561
 H625 H 1.11778 0.51913 0.07921
 H626 H 1.07777 0.51464 0.11522
 H627 H 1.15904 0.48511 0.12684
 H628 H 1.12742 0.50114 0.16524
 C629 C 0.60485 0.00286 0.65995
 C630 C 0.62070 0.02803 0.65079
 C631 C 0.64437 0.02760 0.62573
 C632 C 0.66074 0.00244 0.61771
 H633 H 0.61467 0.05055 0.66004
 H634 H 0.64907 0.04946 0.61446
 H635 H 0.60894 -0.01908 0.64834
 H636 H 0.65813 -0.01856 0.63117
 C637 C -0.16156 0.50243 0.87848
 C638 C -0.14465 0.52672 0.86884
 C639 C -0.12091 0.52508 0.84388
 C640 C -0.10610 0.49902 0.83560
 H641 H -0.14881 0.54942 0.87871
 H642 H -0.11391 0.54695 0.83390
 H643 H -0.15940 0.48042 0.86645
 H644 H -0.11118 0.47773 0.84783
 C645 C 0.39079 -0.00186 0.34067
 C646 C 0.38007 -0.02653 0.35633
 C647 C 0.35383 -0.02544 0.37862
 C648 C 0.34477 0.00037 0.39362
 H649 H 0.39003 -0.04908 0.35212
 H650 H 0.34341 -0.04746 0.38445
 H651 H 0.37883 0.02001 0.34267
 H652 H 0.35727 0.02179 0.38985
 C653 C 0.15970 0.49556 0.89105
 C654 C 0.15107 0.52082 0.87521
 C655 C 0.12572 0.52121 0.85190
 C656 C 0.11506 0.49604 0.83674
 H657 H 0.16120 0.54307 0.88096
 H658 H 0.11643 0.54373 0.84649
 H659 H 0.14751 0.47392 0.88727
 H660 H 0.12636 0.47401 0.84004
 C661 C 0.61234 0.00042 0.34844
 C662 C 0.64170 -0.00798 0.34280
 C663 C 0.66596 -0.00699 0.36717
 C664 C 0.66005 -0.01331 0.39729
 H665 H 0.64888 -0.01386 0.31922
 H666 H 0.68952 -0.00271 0.35958
 H667 H 0.60621 0.00945 0.37134
 H668 H 0.63699 -0.02078 0.40400
 C669 C 0.83796 0.50580 0.10164
 C670 C 0.86847 0.50194 0.09745
 C671 C 0.89145 0.50549 0.12275
 C672 C 0.88554 0.49897 0.15282
 H673 H 0.87751 0.49826 0.07407
 H674 H 0.91478 0.51170 0.11574
 H675 H 0.82922 0.51280 0.12438
 H676 H 0.86322 0.48947 0.15944
 C677 C 0.38321 0.00665 0.66603
 C678 C 0.37279 0.03164 0.65089
 C679 C 0.34743 0.03077 0.62760
 C680 C 0.33936 0.00528 0.61136
 H681 H 0.38244 0.05422 0.65612
 H682 H 0.33700 0.05276 0.62209
 H683 H 0.37147 -0.01534 0.66293
 H684 H 0.35196 -0.01598 0.61501
   
