data_POSCAR
  _audit_creation_date              2014-09-24
  _audit_creation_method            'ToBaCCo'
  _symmetry_space_group_name_H-M    'P1'
  _symmetry_Int_Tables_number       1
  _symmetry_cell_setting            triclinic
  loop_
  _symmetry_equiv_pos_as_xyz
 x,y,z
_cell_length_a 35.0844
_cell_length_b 35.9924
_cell_length_c 34.6909
_cell_angle_alpha 91.156800
_cell_angle_beta 89.184400
_cell_angle_gamma 91.175400
loop_
  _atom_site_label
  _atom_site_type_symbol
  _atom_site_fract_x
  _atom_site_fract_y
  _atom_site_fract_z
C1 C 0.19004 0.19151 0.21686
 N2 N 0.22569 0.18233 0.20456
 C3 C 0.24207 0.19850 0.17309
 N4 N 0.22297 0.22545 0.15492
 C5 C 0.18786 0.23576 0.16753
 N6 N 0.17124 0.21809 0.19786
 C7 C -0.19927 0.81131 0.22943
 N8 N -0.23030 0.82462 0.21162
 C9 C -0.24271 0.80970 0.17762
 N10 N -0.22368 0.78067 0.16143
 C11 C -0.19336 0.76615 0.17931
 N12 N -0.18114 0.78162 0.21319
 C13 C -0.21036 0.20062 -0.25784
 N14 N -0.24392 0.18750 -0.24267
 C15 C -0.25966 0.20334 -0.21049
 N16 N -0.24166 0.23295 -0.19375
 C17 C -0.20878 0.24718 -0.20867
 N18 N -0.19297 0.23086 -0.24071
 C19 C 0.18445 0.80729 -0.23684
 N20 N 0.16603 0.77798 -0.22005
 C21 C 0.18154 0.76147 -0.18910
 N22 N 0.21488 0.77501 -0.17473
 C23 C 0.23371 0.80395 -0.19129
 N24 N 0.21844 0.81967 -0.22268
 C25 C 0.19624 1.19505 0.76181
 N26 N 0.17649 1.22103 0.78190
 C27 C 0.18432 1.22985 0.81917
 N28 N 0.21266 1.21170 0.83698
 C29 C 0.23364 1.18619 0.81683
 N30 N 0.22530 1.17811 0.77937
 C31 C 0.83051 0.81679 0.76416
 N32 N 0.84814 0.78911 0.78235
 C33 C 0.83465 0.77554 0.81616
 N34 N 0.80302 0.79068 0.83249
 C35 C 0.78482 0.81854 0.81482
 N36 N 0.79847 0.83134 0.78050
 C37 C 0.21023 0.78123 1.26702
 N38 N 0.19344 0.75236 1.24773
 C39 C 0.20774 0.73959 1.21357
 N40 N 0.23900 0.75692 1.19782
 C41 C 0.25636 0.78601 1.21688
 N42 N 0.24191 0.79763 1.25152
 C43 C 0.81095 1.19236 1.24868
 N44 N 0.77822 1.17664 1.23474
 C45 C 0.75963 1.19216 1.20513
 N46 N 0.77403 1.22406 1.18960
 C47 C 0.80666 1.24032 1.20331
 N48 N 0.82483 1.22402 1.23263
 O49 O 0.53647 0.95750 0.92721
 O50 O 0.46904 0.97884 1.09497
 O51 O 0.57151 0.97792 1.03120
 O52 O 0.44792 0.93546 0.97637
 O53 O 0.52022 0.94979 1.05313
 O54 O 0.46448 0.95957 0.92294
 O55 O 0.45065 0.94941 1.04329
 O56 O 0.57868 0.98794 0.96246
 C57 C 0.57007 0.96205 0.93860
 C58 C 0.44532 0.95516 1.07910
 C59 C 0.55552 0.95019 1.04716
 C60 C 0.44833 0.93397 0.94074
 O61 O 0.46753 1.03093 0.92556
 O62 O 0.53650 1.01306 1.08327
 O63 O 0.54980 1.05827 0.97293
 O64 O 0.42580 1.01982 1.03025
 O65 O 0.47587 1.03972 1.05900
 O66 O 0.53894 1.02809 0.92109
 O67 O 0.42251 1.00512 0.96144
 O68 O 0.54377 1.04986 1.03846
 Co69 Co 0.50168 0.99436 0.93108
 Co70 Co 0.49682 0.99441 1.05353
 Co71 Co 0.55648 1.01687 1.00099
 Co72 Co 0.44207 0.97929 1.00235
 O73 O 0.50069 0.99741 0.99461
 C74 C 0.43328 1.02853 0.93641
 C75 C 0.55126 1.04261 1.07217
 C76 C 0.54988 1.05718 0.93735
 C77 C 0.44202 1.04389 1.05097
 O78 O 0.04047 0.47087 0.05203
 O79 O 0.03111 0.52822 -0.07784
 O80 O -0.00698 0.41944 -0.03714
 O81 O 0.04825 0.53796 0.04198
 O82 O 0.02567 0.45812 -0.07422
 O83 O 0.01831 0.52462 0.09487
 O84 O 0.06028 0.53902 -0.02547
 O85 O 0.00413 0.42510 0.03150
 C86 C 0.03489 0.43659 0.04666
 C87 C 0.05956 0.54118 -0.06094
 C88 C 0.01927 0.42599 -0.06182
 C89 C 0.04396 0.54512 0.07761
 O90 O -0.04562 0.52541 0.06100
 O91 O -0.04609 0.46283 -0.07817
 O92 O -0.06517 0.45978 0.04019
 O93 O -0.00747 0.57267 -0.03731
 O94 O -0.04199 0.53275 -0.07160
 O95 O -0.02526 0.46354 0.08385
 O96 O -0.02009 0.57131 0.03160
 O97 O -0.07585 0.45409 -0.02565
 Co98 Co -0.00223 0.49950 0.05392
 Co99 Co -0.00792 0.49563 -0.06847
 Co100 Co -0.03391 0.44383 0.00187
 Co101 Co 0.01780 0.55042 0.00230
 O102 O -0.00824 0.49601 -0.00482
 C103 C -0.04590 0.55883 0.05311
 C104 C -0.07511 0.45163 -0.06114
 C105 C -0.05700 0.45167 0.07354
 C106 C -0.03394 0.56545 -0.06094
 O107 O 1.07897 0.04071 0.45766
 O108 O 0.92522 0.01664 0.53323
 O109 O 0.97664 0.02291 0.42023
 O110 O 1.03512 0.06358 0.54710
 O111 O 0.95048 0.04411 0.47198
 O112 O 1.08648 0.03761 0.52969
 O113 O 0.97016 0.05415 0.54242
 O114 O 1.04437 0.01058 0.41467
 C115 C 1.06787 0.03643 0.42367
 C116 C 0.93629 0.04600 0.54902
 C117 C 0.95687 0.04699 0.43701
 C118 C 1.07024 0.06393 0.54587
 O119 O 1.08132 -0.03288 0.52720
 O120 O 0.91327 -0.01734 0.46567
 O121 O 1.02963 -0.05912 0.44432
 O122 O 0.97590 -0.01818 0.56804
 O123 O 0.95383 -0.04587 0.51634
 O124 O 1.08228 -0.03070 0.45435
 O125 O 1.04518 -0.00749 0.57275
 O126 O 0.96343 -0.04692 0.44700
 Co127 Co 1.07547 0.00369 0.49234
 Co128 Co 0.95461 -0.00109 0.49276
 Co129 Co 1.00434 -0.01623 0.43682
 Co130 Co 1.00681 0.02136 0.55282
 O131 O 1.01262 0.00343 0.49529
 C132 C 1.07022 -0.03075 0.56184
 C133 C 0.92843 -0.04101 0.44158
 C134 C 1.06483 -0.05985 0.44545
 C135 C 0.95914 -0.04569 0.55192
 C136 C 1.13499 0.12996 0.30560
 C137 C 1.17511 0.12961 0.30128
 C138 C 1.19318 0.14962 0.27156
 C139 C 1.17213 0.17236 0.24744
 C140 C 1.13257 0.17495 0.25415
 C141 C 1.11418 0.15364 0.28235
 C142 C 1.11656 0.10583 0.33557
 C143 C 1.07690 0.09874 0.33750
 C144 C 1.06121 0.07557 0.36572
 C145 C 1.08448 0.06014 0.39341
 C146 C 1.12400 0.06653 0.39144
 C147 C 1.14027 0.08804 0.36189
 C148 C 1.19700 0.10996 0.32718
 C149 C 1.18000 0.09068 0.35763
 H150 H 1.22781 0.11019 0.32439
 H151 H 1.19821 0.07660 0.37739
 H152 H 1.22387 0.14812 0.26794
 H153 H 1.11533 0.19249 0.23668
 H154 H 1.03076 0.07002 0.36623
 H155 H 1.14217 0.05349 0.41205
 H156 H 1.08373 0.15636 0.28589
 H157 H 1.05778 0.11009 0.31687
 C158 C 0.84674 -0.12891 0.32579
 C159 C 0.86574 -0.16013 0.30986
 C160 C 0.84960 -0.18084 0.27914
 C161 C 0.81500 -0.17040 0.26281
 C162 C 0.79595 -0.13976 0.27937
 C163 C 0.81141 -0.11948 0.31037
 C164 C 0.86580 -0.10660 0.35748
 C165 C 0.84935 -0.07511 0.37553
 C166 C 0.86922 -0.05431 0.40359
 C167 C 0.90593 -0.06429 0.41422
 C168 C 0.92210 -0.09609 0.39717
 C169 C 0.90238 -0.11729 0.36921
 C170 C 0.90135 -0.16987 0.32385
 C171 C 0.91938 -0.14878 0.35265
 H172 H 0.91593 -0.19376 0.31176
 H173 H 0.94727 -0.15711 0.36188
 H174 H 0.86493 -0.20431 0.26709
 H175 H 0.76909 -0.13082 0.26805
 H176 H 0.85619 -0.02987 0.41635
 H177 H 0.95040 -0.10422 0.40540
 H178 H 0.79559 -0.09604 0.32125
 H179 H 0.82138 -0.06586 0.36818
 C180 C 0.84468 0.13752 0.65318
 C181 C 0.86257 0.16997 0.66885
 C182 C 0.84370 0.19168 0.69715
 C183 C 0.80715 0.18129 0.71097
 C184 C 0.78916 0.14964 0.69425
 C185 C 0.80749 0.12820 0.66586
 C186 C 0.86659 0.11403 0.62454
 C187 C 0.85184 0.08064 0.60799
 C188 C 0.87413 0.05895 0.58285
 C189 C 0.91160 0.06997 0.57347
 C190 C 0.92624 0.10354 0.58909
 C191 C 0.90420 0.12547 0.61448
 C192 C 0.89957 0.18010 0.65688
 C193 C 0.91992 0.15835 0.63034
 H194 H 0.91330 0.20499 0.66868
 H195 H 0.94867 0.16718 0.62251
 H196 H 0.85821 0.21603 0.70924
 H197 H 0.76087 0.14073 0.70352
 H198 H 0.86222 0.03314 0.57123
 H199 H 0.95521 0.11235 0.58206
 H200 H 0.79221 0.10410 0.65474
 H201 H 0.82338 0.07050 0.61444
 C202 C 1.13737 -0.12858 0.67244
 C203 C 1.11347 -0.14221 0.70245
 C204 C 1.12845 -0.16515 0.73075
 C205 C 1.16747 -0.17307 0.73075
 C206 C 1.19113 -0.15898 0.70139
 C207 C 1.17633 -0.13739 0.67239
 C208 C 1.12048 -0.10396 0.64299
 C209 C 1.14098 -0.09174 0.61024
 C210 C 1.12437 -0.06821 0.58407
 C211 C 1.08712 -0.05571 0.59005
 C212 C 1.06617 -0.06807 0.62229
 C213 C 1.08225 -0.09279 0.64820
 C214 C 1.07527 -0.13157 0.70491
 C215 C 1.06022 -0.10684 0.67884
 H216 H 1.05696 -0.14174 0.72797
 H217 H 1.03075 -0.09886 0.68254
 H218 H 1.11020 -0.17516 0.75396
 H219 H 1.22139 -0.16443 0.70109
 H220 H 1.14096 -0.05936 0.55920
 H221 H 1.03708 -0.05913 0.62668
 H222 H 1.19611 -0.12698 0.65093
 H223 H 1.16972 -0.10035 0.60403
 C224 C 0.33861 1.14837 1.12128
 C225 C 0.32967 1.14230 1.16055
 C226 C 0.29836 1.15989 1.17806
 C227 C 0.27648 1.18494 1.15748
 C228 C 0.28839 1.19404 1.11983
 C229 C 0.31871 1.17569 1.10178
 C230 C 0.36834 1.12479 1.10206
 C231 C 0.37371 1.12293 1.06167
 C232 C 0.39895 1.09755 1.04488
 C233 C 0.42027 1.07458 1.06802
 C234 C 0.41633 1.07716 1.10818
 C235 C 0.38950 1.10095 1.12525
 C236 C 0.35169 1.11832 1.18193
 C237 C 0.38173 1.09893 1.16488
 H238 H 0.34550 1.11433 1.21228
 H239 H 0.39777 1.08052 1.18260
 H240 H 0.29080 1.15354 1.20766
 H241 H 0.27300 1.21389 1.10325
 H242 H 0.40134 1.09531 1.01377
 H243 H 0.43192 1.05835 1.12592
 H244 H 0.32587 1.18287 1.07246
 H245 H 0.35727 1.13944 1.04258
 C246 C 0.33504 0.84869 0.85792
 C247 C 0.31210 0.82294 0.87847
 C248 C 0.27970 0.80672 0.86116
 C249 C 0.26792 0.81793 0.82454
 C250 C 0.29032 0.84442 0.80485
 C251 C 0.32360 0.85924 0.82102
 C252 C 0.36881 0.86601 0.87758
 C253 C 0.39533 0.88903 0.85829
 C254 C 0.42318 0.90872 0.87880
 C255 C 0.42530 0.90603 0.91904
 C256 C 0.40156 0.88013 0.93799
 C257 C 0.37360 0.85978 0.91736
 C258 C 0.32039 0.81518 0.91689
 C259 C 0.34981 0.83405 0.93628
 H260 H 0.30270 0.79560 0.93280
 H261 H 0.35385 0.82856 0.96654
 H262 H 0.26253 0.78691 0.87736
 H263 H 0.28227 0.85386 0.77670
 H264 H 0.44182 0.92770 0.86320
 H265 H 0.40354 0.87713 0.96893
 H266 H 0.33920 0.87992 0.80475
 H267 H 0.39449 0.89286 0.82755
 C268 C 0.66521 0.85875 1.12039
 C269 C 0.67344 0.86862 1.15912
 C270 C 0.70384 0.85223 1.17781
 C271 C 0.72589 0.82489 1.15907
 C272 C 0.71609 0.81358 1.12134
 C273 C 0.68642 0.83044 1.10216
 C274 C 0.63447 0.87924 1.10056
 C275 C 0.62718 0.87513 1.06072
 C276 C 0.60010 0.89706 1.04322
 C277 C 0.57924 0.92269 1.06524
 C278 C 0.58530 0.92621 1.10489
 C279 C 0.61329 0.90547 1.12250
 C280 C 0.65136 0.89484 1.17910
 C281 C 0.62149 0.91238 1.16138
 H282 H 0.65731 0.90199 1.20895
 H283 H 0.60537 0.93261 1.17805
 H284 H 0.71006 0.86083 1.20723
 H285 H 0.73196 0.79228 1.10601
 H286 H 0.59592 0.89454 1.01241
 H287 H 0.56978 0.94693 1.12158
 H288 H 0.68055 0.82094 1.07311
 H289 H 0.64303 0.85623 1.04241
 C290 C 0.64528 1.15242 0.84514
 C291 C 0.66624 1.18119 0.86396
 C292 C 0.69598 1.19966 0.84431
 C293 C 0.70741 1.18796 0.80693
 C294 C 0.68659 1.15913 0.78855
 C295 C 0.65572 1.14190 0.80716
 C296 C 0.61520 1.13206 0.86767
 C297 C 0.59097 1.10505 0.85071
 C298 C 0.56760 1.08270 0.87361
 C299 C 0.56774 1.08673 0.91395
 C300 C 0.58854 1.11633 0.93088
 C301 C 0.61206 1.13923 0.90787
 C302 C 0.65913 1.18963 0.90303
 C303 C 0.63335 1.16841 0.92480
 H304 H 0.67526 1.21166 0.91751
 H305 H 0.63039 1.17461 0.95538
 H306 H 0.71182 1.22153 0.85940
 H307 H 0.69436 1.14939 0.75980
 H308 H 0.55077 1.06089 0.85964
 H309 H 0.58803 1.12030 0.96195
 H310 H 0.64152 1.11931 0.79190
 H311 H 0.59037 1.10009 0.81995
 C312 C 0.12806 0.32351 0.11299
 C313 C 0.10785 0.29362 0.13045
 C314 C 0.12761 0.26543 0.14839
 C315 C 0.16752 0.26550 0.14808
 C316 C 0.18765 0.29422 0.12942
 C317 C 0.16823 0.32306 0.11232
 C318 C 0.10560 0.35382 0.09546
 C319 C 0.12236 0.38680 0.08077
 C320 C 0.09972 0.41424 0.06502
 C321 C 0.06017 0.40886 0.06286
 C322 C 0.04339 0.37638 0.07769
 C323 C 0.06547 0.34942 0.09456
 C324 C 0.06802 0.29165 0.12947
 C325 C 0.04733 0.31859 0.11128
 H326 H 0.05259 0.26862 0.14253
 H327 H 0.01652 0.31556 0.11088
 H328 H 0.11182 0.24294 0.16207
 H329 H 0.21853 0.29473 0.12867
 H330 H 0.11308 0.43939 0.05414
 H331 H 0.01263 0.37254 0.07713
 H332 H 0.18507 0.34454 0.09850
 H333 H 0.15271 0.39208 0.08172
 C334 C -0.15899 0.34259 -0.15007
 C335 C -0.18240 0.31695 -0.12987
 C336 C -0.19845 0.28613 -0.14941
 C337 C -0.19048 0.27940 -0.18874
 C338 C -0.16608 0.30399 -0.20843
 C339 C -0.15066 0.33537 -0.18945
 C340 C -0.14242 0.37514 -0.12803
 C341 C -0.12106 0.40357 -0.14590
 C342 C -0.10210 0.43065 -0.12378
 C343 C -0.10400 0.43019 -0.08332
 C344 C -0.12849 0.40437 -0.06534
 C345 C -0.14776 0.37690 -0.08745
 C346 C -0.18880 0.32159 -0.09009
 C347 C -0.17120 0.35049 -0.06919
 H348 H -0.20669 0.30183 -0.07463
 H349 H -0.17582 0.35203 -0.03825
 H350 H -0.21666 0.26684 -0.13365
 H351 H -0.15941 0.29929 -0.23869
 H352 H -0.08405 0.45082 -0.13845
 H353 H -0.13057 0.40406 -0.03413
 H354 H -0.13188 0.35328 -0.20593
 H355 H -0.11772 0.40477 -0.17681
 C356 C 0.13501 0.66122 -0.13965
 C357 C 0.15866 0.68557 -0.11769
 C358 C 0.17321 0.71837 -0.13395
 C359 C 0.16366 0.72813 -0.17159
 C360 C 0.13886 0.70481 -0.19270
 C361 C 0.12478 0.67167 -0.17706
 C362 C 0.12049 0.62622 -0.12136
 C363 C 0.09909 0.59894 -0.14159
 C364 C 0.08234 0.56909 -0.12225
 C365 C 0.08653 0.56558 -0.08229
 C366 C 0.11104 0.59049 -0.06262
 C367 C 0.12804 0.62072 -0.08189
 C368 C 0.16704 0.67744 -0.07942
 C369 C 0.15145 0.64609 -0.06167
 H370 H 0.18508 0.69619 -0.06256
 H371 H 0.15768 0.64174 -0.03160
 H372 H 0.19184 0.73653 -0.11705
 H373 H 0.13100 0.71173 -0.22173
 H374 H 0.06412 0.54990 -0.13834
 H375 H 0.11491 0.58782 -0.03186
 H376 H 0.10575 0.65483 -0.19459
 H377 H 0.09403 0.60070 -0.17209
 C378 C -0.13718 0.67195 0.12736
 C379 C -0.14949 0.70132 0.10435
 C380 C -0.16863 0.73148 0.12146
 C381 C -0.17367 0.73405 0.16160
 C382 C -0.15988 0.70585 0.18457
 C383 C -0.14224 0.67492 0.16770
 C384 C -0.11736 0.64000 0.10788
 C385 C -0.10783 0.60745 0.12724
 C386 C -0.08674 0.57975 0.10846
 C387 C -0.07422 0.58418 0.07026
 C388 C -0.08539 0.61545 0.05011
 C389 C -0.10766 0.64281 0.06829
 C390 C -0.14137 0.70112 0.06467
 C391 C -0.11995 0.67303 0.04724
 H392 H -0.15052 0.72373 0.04706
 H393 H -0.11313 0.67486 0.01676
 H394 H -0.17848 0.75367 0.10365
 H395 H -0.16331 0.70746 0.21563
 H396 H -0.07848 0.55573 0.12446
 H397 H -0.07611 0.61878 0.02042
 H398 H -0.13205 0.65404 0.18670
 H399 H -0.11608 0.60313 0.15692
 C400 C 1.15432 0.15347 0.65532
 C401 C 1.13418 0.18084 0.67654
 C402 C 1.14996 0.19680 0.71001
 C403 C 1.18442 0.18386 0.72472
 C404 C 1.20470 0.15726 0.70303
 C405 C 1.19010 0.14254 0.66863
 C406 C 1.13501 0.13474 0.62180
 C407 C 1.15318 0.10827 0.59796
 C408 C 1.13237 0.08723 0.57120
 C409 C 1.09299 0.09207 0.56750
 C410 C 1.07545 0.12105 0.58821
 C411 C 1.09628 0.14256 0.61514
 C412 C 1.09721 0.19014 0.66595
 C413 C 1.07831 0.17079 0.63645
 H414 H 1.08181 0.21122 0.68216
 H415 H 1.04896 0.17747 0.63081
 H416 H 1.13365 0.21732 0.72610
 H417 H 1.23149 0.14688 0.71309
 H418 H 1.14689 0.06568 0.55484
 H419 H 1.04523 0.12561 0.58487
 H420 H 1.20641 0.12132 0.65400
 H421 H 1.18312 0.10261 0.60030
 C422 C 0.88385 -0.13641 0.66548
 C423 C 0.84680 -0.12536 0.67694
 C424 C 0.82882 -0.14118 0.70934
 C425 C 0.84680 -0.16889 0.73008
 C426 C 0.88243 -0.18157 0.71659
 C427 C 0.90073 -0.16550 0.68499
 C428 C 0.90369 -0.11628 0.63335
 C429 C 0.94258 -0.12121 0.62376
 C430 C 0.96056 -0.09947 0.59567
 C431 C 0.93990 -0.07326 0.57601
 C432 C 0.90111 -0.06883 0.58437
 C433 C 0.88312 -0.08935 0.61355
 C434 C 0.82804 -0.09847 0.65609
 C435 C 0.84554 -0.08141 0.62456
 H436 H 0.79943 -0.09040 0.66435
 H437 H 0.82992 -0.06060 0.60950
 H438 H 0.80092 -0.13164 0.71843
 H439 H 0.89707 -0.20340 0.73105
 H440 H 0.99079 -0.10241 0.58997
 H441 H 0.88562 -0.04748 0.56990
 H442 H 0.92814 -0.17620 0.67643
 H443 H 0.95999 -0.14044 0.63874
 C444 C 1.15449 -0.16570 0.36114
 C445 C 1.13530 -0.19372 0.33938
 C446 C 1.15507 -0.21371 0.31056
 C447 C 1.19296 -0.20379 0.30048
 C448 C 1.21188 -0.17613 0.32251
 C449 C 1.19315 -0.15773 0.35273
 C450 C 1.13185 -0.14289 0.38927
 C451 C 1.14885 -0.11604 0.41381
 C452 C 1.12647 -0.09088 0.43430
 C453 C 1.08663 -0.09197 0.43102
 C454 C 1.06917 -0.12146 0.41039
 C455 C 1.09164 -0.14711 0.38963
 C456 C 1.09587 -0.19947 0.34429
 C457 C 1.07432 -0.17596 0.36809
 H458 H 1.08109 -0.22096 0.32764
 H459 H 1.04362 -0.17995 0.36906
 H460 H 1.13968 -0.23472 0.29379
 H461 H 1.24112 -0.16796 0.31596
 H462 H 1.14063 -0.06927 0.45130
 H463 H 1.03835 -0.12317 0.40860
 H464 H 1.20891 -0.13595 0.36767
 H465 H 1.17936 -0.11328 0.41667
 C466 C 0.87384 0.13943 0.33490
 C467 C 0.83654 0.12668 0.32573
 C468 C 0.81580 0.14431 0.29728
 C469 C 0.83107 0.17553 0.27830
 C470 C 0.86731 0.18929 0.28920
 C471 C 0.88846 0.17143 0.31684
 C472 C 0.89610 0.11811 0.36336
 C473 C 0.93500 0.12560 0.37106
 C474 C 0.95495 0.10332 0.39617
 C475 C 0.93626 0.07385 0.41460
 C476 C 0.89756 0.06669 0.40796
 C477 C 0.87762 0.08790 0.38189
 C478 C 0.82008 0.09643 0.34502
 C479 C 0.83994 0.07788 0.37300
 H480 H 0.79134 0.08695 0.33841
 H481 H 0.82596 0.05457 0.38707
 H482 H 0.78760 0.13361 0.29013
 H483 H 0.88001 0.21357 0.27577
 H484 H 0.98499 0.10882 0.40089
 H485 H 0.88349 0.04316 0.42161
 H486 H 0.91616 0.18313 0.32366
 H487 H 0.95079 0.14769 0.35710
 C488 C 0.11609 0.31130 -0.12501
 C489 C 0.11646 0.30689 -0.16556
 C490 C 0.13868 0.27957 -0.18331
 C491 C 0.16267 0.25725 -0.16174
 C492 C 0.16408 0.26319 -0.12160
 C493 C 0.14070 0.28955 -0.10336
 C494 C 0.09024 0.33976 -0.10729
 C495 C 0.08363 0.34334 -0.06720
 C496 C 0.05947 0.37073 -0.05234
 C497 C 0.04226 0.39544 -0.07711
 C498 C 0.04797 0.39171 -0.11689
 C499 C 0.07087 0.36352 -0.13218
 C500 C 0.09532 0.33027 -0.18849
 C501 C 0.07380 0.35864 -0.17217
 H502 H 0.09606 0.32709 -0.21963
 H503 H 0.05857 0.37654 -0.19115
 H504 H 0.13784 0.27652 -0.21446
 H505 H 0.18250 0.24688 -0.10408
 H506 H 0.05503 0.37329 -0.02144
 H507 H 0.03393 0.41045 -0.13598
 H508 H 0.14259 0.29285 -0.07245
 H509 H 0.09655 0.32509 -0.04705
 C510 C -0.14392 0.33665 0.15197
 C511 C -0.12626 0.31991 0.18343
 C512 C -0.14324 0.28864 0.20069
 C513 C -0.17767 0.27288 0.18688
 C514 C -0.19538 0.29001 0.15595
 C515 C -0.17885 0.32140 0.13881
 C516 C -0.12390 0.36910 0.13337
 C517 C -0.13867 0.38737 0.10147
 C518 C -0.11757 0.41547 0.08333
 C519 C -0.08138 0.42635 0.09664
 C520 C -0.06718 0.40972 0.12952
 C521 C -0.08800 0.38111 0.14777
 C522 C -0.09129 0.33392 0.19706
 C523 C -0.07252 0.36374 0.17954
 H524 H -0.07783 0.32116 0.22127
 H525 H -0.04515 0.37299 0.19070
 H526 H -0.12891 0.27623 0.22460
 H527 H -0.22196 0.27899 0.14452
 H528 H -0.12916 0.42795 0.05799
 H529 H -0.03914 0.41783 0.13987
 H530 H -0.19369 0.33293 0.11496
 H531 H -0.16600 0.37986 0.08948
 C532 C -0.10696 0.68763 -0.13262
 C533 C -0.14164 0.70011 -0.11614
 C534 C -0.16069 0.72978 -0.13262
 C535 C -0.14624 0.74653 -0.16629
 C536 C -0.11216 0.73323 -0.18280
 C537 C -0.09281 0.70442 -0.16627
 C538 C -0.08720 0.65634 -0.11416
 C539 C -0.05113 0.64403 -0.12681
 C540 C -0.03414 0.61433 -0.10920
 C541 C -0.05275 0.59617 -0.07896
 C542 C -0.08824 0.60827 -0.06549
 C543 C -0.10533 0.63872 -0.08249
 C544 C -0.15746 0.68238 -0.08386
 C545 C -0.14000 0.65195 -0.06777
 H546 H -0.18411 0.69176 -0.07125
 H547 H -0.15365 0.63881 -0.04320
 H548 H -0.18715 0.73917 -0.11958
 H549 H -0.10000 0.74507 -0.20879
 H550 H -0.00634 0.60538 -0.11927
 H551 H -0.10218 0.59428 -0.04158
 H552 H -0.06713 0.69546 -0.18077
 H553 H -0.03531 0.65709 -0.14987
 C554 C 0.14520 0.65165 0.15423
 C555 C 0.13587 0.66179 0.19273
 C556 C 0.15708 0.68972 0.21191
 C557 C 0.18760 0.70837 0.19337
 C558 C 0.19741 0.69772 0.15549
 C559 C 0.17656 0.66974 0.13612
 C560 C 0.12067 0.62272 0.13432
 C561 C 0.12691 0.61131 0.09576
 C562 C 0.10232 0.58558 0.07798
 C563 C 0.07091 0.57035 0.09808
 C564 C 0.06487 0.58069 0.13678
 C565 C 0.08937 0.60683 0.15494
 C566 C 0.10502 0.64450 0.21179
 C567 C 0.08228 0.61762 0.19331
 H568 H 0.09803 0.65221 0.24138
 H569 H 0.05848 0.60543 0.20918
 H570 H 0.14924 0.69730 0.24132
 H571 H 0.22085 0.71147 0.14050
 H572 H 0.10778 0.57789 0.04809
 H573 H 0.04061 0.56911 0.15246
 H574 H 0.18522 0.66307 0.10690
 H575 H 0.15027 0.62220 0.07860
 C576 C 0.32292 1.12370 0.86697
 C577 C 0.29072 1.13389 0.88958
 C578 C 0.26242 1.15597 0.87380
 C579 C 0.26492 1.16651 0.83510
 C580 C 0.29655 1.15589 0.81271
 C581 C 0.32532 1.13507 0.82839
 C582 C 0.35234 1.09995 0.88459
 C583 C 0.38670 1.09087 0.86547
 C584 C 0.41280 1.06789 0.88258
 C585 C 0.40525 1.05295 0.91895
 C586 C 0.37140 1.06224 0.93861
 C587 C 0.34534 1.08624 0.92205
 C588 C 0.28633 1.12082 0.92721
 C589 C 0.31269 1.09698 0.94284
 H590 H 0.26162 1.12839 0.94452
 H591 H 0.30758 1.08701 0.97176
 H592 H 0.23761 1.16347 0.89102
 H593 H 0.29896 1.16360 0.78273
 H594 H 0.43890 1.06141 0.86700
 H595 H 0.36570 1.05138 0.96709
 H596 H 0.34861 1.12738 0.80946
 H597 H 0.39422 1.10148 0.83748
 C598 C 0.34325 0.85550 1.16365
 C599 C 0.32390 0.82754 1.14167
 C600 C 0.29690 0.80374 1.15941
 C601 C 0.28827 0.80761 1.19891
 C602 C 0.30839 0.83461 1.22077
 C603 C 0.33553 0.85811 1.20353
 C604 C 0.37048 0.88153 1.14324
 C605 C 0.39053 0.91092 1.16215
 C606 C 0.41489 0.93486 1.14150
 C607 C 0.41986 0.93011 1.10159
 C608 C 0.40018 0.90086 1.08261
 C609 C 0.37569 0.87672 1.10295
 C610 C 0.33091 0.82404 1.10194
 C611 C 0.35624 0.84806 1.08303
 H612 H 0.31625 0.80263 1.08508
 H613 H 0.36037 0.84435 1.05217
 H614 H 0.28160 0.78310 1.14210
 H615 H 0.30268 0.83815 1.25137
 H616 H 0.42973 0.95722 1.15678
 H617 H 0.40381 0.89680 1.05173
 H618 H 0.34962 0.87850 1.22187
 H619 H 0.38768 0.91604 1.19277
 C620 C 0.66296 1.13514 1.15290
 C621 C 0.68171 1.11932 1.18426
 C622 C 0.71243 1.13848 1.20189
 C623 C 0.72527 1.17329 1.18851
 C624 C 0.70595 1.18920 1.15799
 C625 C 0.67525 1.17055 1.14049
 C626 C 0.63164 1.11294 1.13355
 C627 C 0.61228 1.12571 1.10127
 C628 C 0.58531 1.10311 1.08256
 C629 C 0.57642 1.06729 1.09562
 C630 C 0.59429 1.05472 1.12872
 C631 C 0.62206 1.07714 1.14752
 C632 C 0.67022 1.08416 1.19733
 C633 C 0.64108 1.06356 1.17939
 H634 H 0.68441 1.07208 1.22149
 H635 H 0.63377 1.03626 1.19025
 H636 H 0.72689 1.12576 1.22551
 H637 H 0.71489 1.21604 1.14711
 H638 H 0.57185 1.11352 1.05713
 H639 H 0.58780 1.02696 1.13883
 H640 H 0.66197 1.18422 1.11697
 H641 H 0.61805 1.15271 1.08938
 C642 C 0.69213 0.87447 0.87197
 C643 C 0.69130 0.86770 0.83164
 C644 C 0.72176 0.84965 0.81295
 C645 C 0.75218 0.83650 0.83424
 C646 C 0.75172 0.84115 0.87445
 C647 C 0.72227 0.86013 0.89314
 C648 C 0.66062 0.89629 0.89042
 C649 C 0.66184 0.90945 0.92894
 C650 C 0.63235 0.93074 0.94445
 C651 C 0.60046 0.93851 0.92238
 C652 C 0.59886 0.92552 0.88404
 C653 C 0.62920 0.90554 0.86759
 C654 C 0.65986 0.87851 0.81041
 C655 C 0.62902 0.89614 0.82819
 H656 H 0.65886 0.87282 0.77963
 H657 H 0.60518 0.90356 0.81058
 H658 H 0.72156 0.84531 0.78193
 H659 H 0.77478 0.83089 0.89146
 H660 H 0.63445 0.94117 0.97387
 H661 H 0.57478 0.93246 0.86649
 H662 H 0.72348 0.86306 0.92411
 H663 H 0.68579 0.90453 0.94718
   
