data_POSCAR
  _audit_creation_date              2014-09-24
  _audit_creation_method            'ToBaCCo'
  _symmetry_space_group_name_H-M    'P1'
  _symmetry_Int_Tables_number       1
  _symmetry_cell_setting            triclinic
  loop_
  _symmetry_equiv_pos_as_xyz
 x,y,z
_cell_length_a 23.4602
_cell_length_b 23.5530
_cell_length_c 54.3023
_cell_angle_alpha 95.893000
_cell_angle_beta 86.954400
_cell_angle_gamma 120.147300
loop_
  _atom_site_label
  _atom_site_type_symbol
  _atom_site_fract_x
  _atom_site_fract_y
  _atom_site_fract_z
C1 C 0.02204 -0.02866 0.49913
 C2 C 0.94209 -0.02925 0.16622
 C3 C 0.02881 1.05519 0.83464
 O4 O 0.57212 0.07336 -0.01900
 O5 O 0.44381 0.05692 0.02732
 O6 O 0.55865 0.06468 0.02842
 O7 O 0.46502 0.08175 -0.01908
 O8 O 0.40995 -0.02614 -0.02802
 O9 O 0.50730 -0.04320 0.01937
 O10 O 0.39214 -0.05098 0.01838
 O11 O 0.51674 -0.03452 -0.02806
 Cu12 Cu 0.51503 0.07984 0.00527
 Cu13 Cu 0.45109 -0.04937 -0.00544
 C14 C 0.56609 0.02151 -0.03125
 C15 C 0.39603 -0.00047 0.03065
 C16 C 0.55014 0.00853 0.03179
 C17 C 0.42142 0.03133 -0.03154
 O18 O -0.01389 0.54399 0.64392
 O19 O -0.01274 0.44195 0.69126
 O20 O -0.02097 0.54858 0.69195
 O21 O -0.02214 0.42910 0.64327
 O22 O 0.08672 0.48141 0.64285
 O23 O 0.08789 0.60497 0.69147
 O24 O 0.09613 0.49803 0.69093
 O25 O 0.09498 0.59659 0.64335
 Cu26 Cu -0.02815 0.48555 0.66764
 Cu27 Cu 0.10220 0.55062 0.66711
 C28 C 0.04092 0.58801 0.63570
 C29 C 0.04244 0.45286 0.69904
 C30 C 0.03296 0.59742 0.69985
 C31 C 0.03139 0.43392 0.63492
 O32 O 0.50547 0.54970 0.31316
 O33 O 0.40736 0.43517 0.36056
 O34 O 0.51412 0.55042 0.36062
 O35 O 0.39030 0.44227 0.31411
 O36 O 0.44212 0.38612 0.30532
 O37 O 0.56966 0.49801 0.35172
 O38 O 0.46259 0.38244 0.35176
 O39 O 0.55700 0.49327 0.30426
 Cu40 Cu 0.44887 0.49961 0.33795
 Cu41 Cu 0.51299 0.43443 0.32742
 C42 C 0.54852 0.54088 0.30081
 C43 C 0.41878 0.38920 0.36415
 C44 C 0.56341 0.54377 0.36391
 C45 C 0.39440 0.39568 0.30190
 N46 N -0.00650 0.11224 0.51724
 C47 C 0.00520 0.12264 0.54195
 N48 N 0.01742 0.08091 0.55302
 N49 N 0.01921 0.03107 0.53977
 C50 C 0.00834 0.02060 0.51492
 N51 N -0.00479 0.06224 0.50396
 C52 C 0.00896 0.17934 0.55609
 C53 C 0.01355 0.22678 0.56861
 C54 C 0.01896 0.28219 0.58427
 N55 N -0.03611 0.28316 0.59243
 N56 N -0.03164 0.33242 0.60818
 C57 C 0.02801 0.38240 0.61636
 N58 N 0.08325 0.38159 0.60805
 N59 N 0.07875 0.33220 0.59227
 N60 N 0.81137 0.87550 0.21123
 C61 C 0.80900 0.81662 0.20906
 N62 N 0.85106 0.80753 0.19322
 N63 N 0.89404 0.85598 0.17986
 C64 C 0.89658 0.91528 0.18202
 N65 N 0.85418 0.92378 0.19793
 C66 C 0.76214 0.76503 0.22345
 C67 C 0.72230 0.72337 0.23605
 C68 C 0.67535 0.67509 0.25159
 N69 N 0.67861 0.62048 0.25469
 N70 N 0.63710 0.57717 0.27003
 C71 C 0.59089 0.58693 0.28278
 N72 N 0.58744 0.64152 0.27954
 N73 N 0.62903 0.68489 0.26418
 N74 N 0.12675 0.07001 -0.11226
 C75 C 0.18360 0.07961 -0.12333
 N76 N 0.19156 0.08708 -0.14792
 N77 N 0.14337 0.08355 -0.16114
 C78 C 0.08536 0.07250 -0.15025
 N79 N 0.07862 0.06633 -0.12544
 C80 C 0.23131 0.07494 -0.10949
 C81 C 0.26849 0.06826 -0.09718
 C82 C 0.31022 0.05878 -0.08169
 N83 N 0.35997 0.11110 -0.06882
 N84 N 0.39596 0.10207 -0.05318
 C85 C 0.38337 0.04045 -0.04980
 N86 N 0.33368 -0.01193 -0.06280
 N87 N 0.29764 -0.00287 -0.07846
 N88 N -0.00976 0.85129 0.54473
 C89 C 0.04536 0.84640 0.54325
 N90 N 0.09480 0.88377 0.52782
 N91 N 0.08891 0.92457 0.51417
 C92 C 0.03343 0.92950 0.51560
 N93 N -0.01567 0.89186 0.53113
 C94 C 0.04970 0.80100 0.55769
 C95 C 0.04978 0.76189 0.57034
 C96 C 0.04736 0.71522 0.58601
 N97 N 0.10372 0.72020 0.59381
 N98 N 0.10135 0.67877 0.60932
 C99 C 0.04260 0.63100 0.61758
 N100 N -0.01382 0.62592 0.60964
 N101 N -0.01143 0.66739 0.59412
 N102 N 0.08020 0.13843 0.18601
 C103 C 0.08504 0.13433 0.21047
 N104 N 0.03988 0.07936 0.22095
 N105 N -0.00779 0.02935 0.20733
 C106 C -0.01249 0.03243 0.18269
 N107 N 0.03237 0.08837 0.17237
 C108 C 0.14051 0.18441 0.22469
 C109 C 0.18722 0.22422 0.23715
 C110 C 0.24216 0.26985 0.25263
 N111 N 0.29275 0.25889 0.25579
 N112 N 0.34203 0.29941 0.27121
 C113 C 0.34217 0.35213 0.28401
 N114 N 0.29155 0.36301 0.28070
 N115 N 0.24237 0.32256 0.26530
 N116 N 0.85967 -0.01637 -0.13704
 C117 C 0.86563 0.03551 -0.12164
 N118 N 0.92425 0.09230 -0.12008
 N119 N 0.97534 0.09736 -0.13356
 C120 C 0.97002 0.04571 -0.14906
 N121 N 0.91093 -0.01134 -0.15058
 C122 C 0.81083 0.03130 -0.10721
 C123 C 0.76615 0.02977 -0.09470
 C124 C 0.71389 0.02858 -0.07938
 N125 N 0.72105 0.08472 -0.06687
 N126 N 0.67349 0.08305 -0.05183
 C127 C 0.61722 0.02512 -0.04886
 N128 N 0.61018 -0.03085 -0.06153
 N129 N 0.65766 -0.02917 -0.07654
 N130 N 0.04035 -0.03987 0.11148
 C131 C 0.08537 -0.04976 0.12197
 N132 N 0.08027 -0.05884 0.14642
 N133 N 0.03232 -0.05666 0.16007
 C134 C -0.01239 -0.04549 0.14975
 N135 N -0.00743 -0.03758 0.12510
 C136 C 0.14101 -0.04424 0.10775
 C137 C 0.18788 -0.03719 0.09531
 C138 C 0.24304 -0.02765 0.07985
 N139 N 0.24342 -0.07999 0.06711
 N140 N 0.29283 -0.07102 0.05173
 C141 C 0.34352 -0.00944 0.04851
 N142 N 0.34321 0.04297 0.06138
 N143 N 0.29370 0.03397 0.07678
 N144 N 0.91928 0.83063 0.45358
 C145 C 0.86061 0.82872 0.45494
 N146 N 0.85414 0.87438 0.47031
 N147 N 0.90492 0.92043 0.48402
 C148 C 0.96402 0.92251 0.48271
 N149 N 0.96990 0.87650 0.46725
 C150 C 0.80629 0.77826 0.44034
 C151 C 0.76199 0.73524 0.42771
 C152 C 0.71014 0.68430 0.41227
 N153 N 0.65399 0.68580 0.40929
 N154 N 0.60687 0.64009 0.39419
 C155 C 0.61419 0.59126 0.38158
 N156 N 0.67037 0.58962 0.38469
 N157 N 0.71758 0.63542 0.39980
 N158 N 0.09959 0.21393 0.80733
 C159 C 0.05103 0.20094 0.79137
 N160 N -0.00284 0.14008 0.78930
 N161 N -0.00843 0.09361 0.80283
 C162 C 0.03983 0.10580 0.81891
 N163 N 0.09406 0.16728 0.82093
 C164 C 0.05482 0.25063 0.77704
 C165 C 0.05437 0.28965 0.76444
 C166 C 0.05123 0.33356 0.74880
 N167 N 0.10721 0.38456 0.74050
 N168 N 0.10412 0.42317 0.72496
 C169 C 0.04499 0.41209 0.71718
 N170 N -0.01104 0.36113 0.72562
 N171 N -0.00793 0.32250 0.74117
 N172 N 0.81185 -0.06434 0.12121
 C173 C 0.80954 -0.00781 0.12340
 N174 N 0.85149 0.04325 0.13924
 N175 N 0.89431 0.03766 0.15259
 C176 C 0.89679 -0.01913 0.15042
 N177 N 0.85450 -0.06994 0.13450
 C178 C 0.76284 -0.00294 0.10903
 C179 C 0.72314 -0.00098 0.09646
 C180 C 0.67636 0.00052 0.08094
 N181 N 0.67961 0.05845 0.07795
 N182 N 0.63828 0.06043 0.06263
 C183 C 0.59227 0.00461 0.04980
 N184 N 0.58882 -0.05349 0.05294
 N185 N 0.63024 -0.05546 0.06828
 N186 N 0.12365 0.05540 0.44518
 C187 C 0.18011 0.10327 0.45624
 N188 N 0.18759 0.10449 0.48092
 N189 N 0.13931 0.05995 0.49421
 C190 C 0.08182 0.01251 0.48329
 N191 N 0.07543 0.01105 0.45844
 C192 C 0.22783 0.15555 0.44229
 C193 C 0.26505 0.19934 0.42991
 C194 C 0.30690 0.25049 0.41436
 N195 N 0.35684 0.24797 0.40155
 N196 N 0.39302 0.29299 0.38589
 C197 C 0.38046 0.34199 0.38242
 N198 N 0.33059 0.34463 0.39536
 N199 N 0.29435 0.29952 0.41105
 N200 N -0.00264 0.88432 0.81680
 C201 C 0.01120 0.88586 0.79223
 N202 N 0.02596 0.94048 0.78108
 N203 N 0.02807 0.99248 0.79414
 C204 C 0.01492 0.99184 0.81887
 N205 N -0.00061 0.93640 0.82989
 C206 C 0.01427 0.83229 0.77831
 C207 C 0.01827 0.78890 0.76592
 C208 C 0.02295 0.73832 0.75038
 N209 N -0.03249 0.68202 0.74276
 N210 N -0.02876 0.63672 0.72706
 C211 C 0.03048 0.64608 0.71840
 N212 N 0.08609 0.70237 0.72617
 N213 N 0.08234 0.74779 0.74190
   
