data_POSCAR
  _audit_creation_date              2014-09-24
  _audit_creation_method            'ToBaCCo'
  _symmetry_space_group_name_H-M    'P1'
  _symmetry_Int_Tables_number       1
  _symmetry_cell_setting            triclinic
  loop_
  _symmetry_equiv_pos_as_xyz
 x,y,z
_cell_length_a 25.3734
_cell_length_b 25.4867
_cell_length_c 25.3647
_cell_angle_alpha 89.911300
_cell_angle_beta 90.130200
_cell_angle_gamma 89.813100
loop_
  _atom_site_label
  _atom_site_type_symbol
  _atom_site_fract_x
  _atom_site_fract_y
  _atom_site_fract_z
C1 C 0.31562 0.38090 1.38922
 C2 C 0.33458 0.40612 1.34349
 C3 C 0.37997 0.38835 1.31726
 C4 C 0.40517 0.34267 1.33584
 C5 C 0.38774 0.31633 1.38142
 C6 C 0.34169 0.33500 1.40637
 H7 H 0.31197 0.43809 1.32686
 H8 H 0.43688 0.32644 1.31261
 H9 H 0.32487 0.31173 1.43769
 C10 C 1.18387 0.61798 0.88928
 C11 C 1.16457 0.59278 0.84368
 C12 C 1.11896 0.61057 0.81756
 C13 C 1.09401 0.65632 0.83602
 C14 C 1.11237 0.68278 0.88098
 C15 C 1.15813 0.66400 0.90620
 H16 H 1.18707 0.56082 0.82707
 H17 H 1.06188 0.67260 0.81326
 H18 H 1.17486 0.68733 0.93753
 C19 C 0.68714 -0.11998 0.11122
 C20 C 0.66107 -0.16562 0.09383
 C21 C 0.61508 -0.18393 0.11873
 C22 C 0.59694 -0.15741 0.16375
 C23 C 0.62205 -0.11195 0.18245
 C24 C 0.66783 -0.09471 0.15674
 H25 H 0.67758 -0.18894 0.06240
 H26 H 0.56471 -0.17339 0.18630
 H27 H 0.69036 -0.06293 0.17352
 C28 C -0.18476 1.11828 -0.38907
 C29 C -0.15877 1.16394 -0.40643
 C30 C -0.11306 1.18250 -0.38118
 C31 C -0.09516 1.15637 -0.33573
 C32 C -0.12028 1.11101 -0.31685
 C33 C -0.16574 1.09331 -0.34306
 H34 H -0.17524 1.18714 -0.43813
 H35 H -0.06314 1.17261 -0.31296
 H36 H -0.18831 1.06157 -0.32629
 C37 C 0.69196 0.63173 0.61968
 C38 C 0.66505 0.67661 0.60159
 C39 C 0.62084 0.69692 0.62852
 C40 C 0.60207 0.66895 0.67264
 C41 C 0.62846 0.62422 0.69197
 C42 C 0.67231 0.60528 0.66410
 H43 H 0.67813 0.69680 0.56665
 H44 H 0.56696 0.68120 0.69306
 H45 H 0.69228 0.56997 0.67647
 C46 C 0.80704 0.36737 0.12052
 C47 C 0.83422 0.32271 0.10264
 C48 C 0.87876 0.30291 0.12964
 C49 C 0.89768 0.33127 0.17340
 C50 C 0.87099 0.37578 0.19251
 C51 C 0.82674 0.39417 0.16470
 H52 H 0.82113 0.30234 0.06782
 H53 H 0.93312 0.31947 0.19373
 H54 H 0.80652 0.42933 0.17690
 C55 C 0.30450 0.13101 0.87778
 C56 C 0.32441 0.10446 0.83324
 C57 C 0.36839 0.12316 0.80544
 C58 C 0.39473 0.16762 0.82477
 C59 C 0.37640 0.19490 0.86922
 C60 C 0.33226 0.17520 0.89619
 H61 H 0.30463 0.06926 0.82063
 H62 H 0.42949 0.18040 0.80417
 H63 H 0.32036 0.19534 0.93154
 C64 C 0.19470 0.87194 0.37863
 C65 C 0.17052 0.89642 0.33482
 C66 C 0.12392 0.87653 0.31236
 C67 C 0.10160 0.83114 0.33453
 C68 C 0.12177 0.80880 0.38100
 C69 C 0.16813 0.82977 0.40269
 H70 H 0.18887 0.93033 0.31693
 H71 H 0.06944 0.81152 0.31495
 H72 H 0.18428 0.81215 0.43770
 Zn73 Zn 0.01004 1.06196 -0.03179
 Zn74 Zn -0.04145 0.95680 -0.04215
 Zn75 Zn 0.06469 0.96701 0.00939
 Zn76 Zn -0.03050 1.00822 0.06362
 O77 O 0.00058 0.99834 -0.00035
 O78 O -0.02188 1.06609 -0.09415
 O79 O -0.00955 0.89630 -0.06044
 O80 O 0.11864 1.00501 -0.01558
 O81 O -0.06003 0.98858 -0.10298
 O82 O 0.07755 1.07597 -0.04504
 O83 O 0.06878 0.90523 -0.02287
 O84 O 0.00778 0.98323 0.11750
 O85 O -0.10201 0.93862 -0.01007
 O86 O 0.07859 0.95258 0.07708
 O87 O -0.09276 0.97640 0.06797
 O88 O -0.04413 1.07553 0.07756
 O89 O -0.01527 1.11568 0.00593
 C90 C -0.04955 1.03410 -0.12050
 C91 C 0.03636 0.87897 -0.05020
 C92 C 0.11946 1.04961 -0.03792
 C93 C 0.05202 0.95990 0.11877
 C94 C -0.11925 0.94898 0.03577
 C95 C -0.03739 1.11697 0.05070
 Zn96 Zn 0.49172 -0.06058 0.46548
 Zn97 Zn 0.53250 -0.00739 0.56121
 Zn98 Zn 0.54322 0.04474 0.45548
 Zn99 Zn 0.43725 0.03389 0.50693
 O100 O 0.50134 0.00283 0.49713
 O101 O 0.51632 -0.11476 0.50356
 O102 O 0.59485 0.02392 0.56559
 O103 O 0.56162 0.01320 0.39441
 O104 O 0.54568 -0.07491 0.57519
 O105 O 0.52413 -0.06460 0.40376
 O106 O 0.60413 0.06231 0.48777
 O107 O 0.43307 0.09612 0.47548
 O108 O 0.49461 0.01769 0.61514
 O109 O 0.51111 0.10565 0.43771
 O110 O 0.42300 0.04679 0.57460
 O111 O 0.38338 -0.00354 0.48136
 O112 O 0.42428 -0.07387 0.45072
 C113 C 0.53849 -0.11630 0.54844
 C114 C 0.62145 0.05134 0.53357
 C115 C 0.55149 -0.03254 0.37726
 C116 C 0.46522 0.12281 0.44831
 C117 C 0.44975 0.03976 0.61634
 C118 C 0.38242 -0.04761 0.45823
 Zn119 Zn 0.93697 0.46641 0.49084
 Zn120 Zn 1.04275 0.45541 0.54329
 Zn121 Zn 1.03273 0.50741 0.43764
 Zn122 Zn 0.99030 0.56074 0.53247
 O123 O 1.00085 0.49730 0.50121
 O124 O 0.93284 0.40434 0.52247
 O125 O 1.10409 0.43740 0.51182
 O126 O 0.99519 0.48288 0.38323
 O127 O 1.01075 0.39476 0.56100
 O128 O 0.92366 0.45334 0.42307
 O129 O 1.09486 0.47542 0.43379
 O130 O 1.01552 0.61443 0.49512
 O131 O 1.06030 0.48711 0.60441
 O132 O 1.04696 0.57473 0.42437
 O133 O 1.02163 0.56465 0.59503
 O134 O 0.92266 0.57503 0.54497
 O135 O 0.88249 0.50406 0.51545
 C136 C 0.96496 0.37772 0.55008
 C137 C 1.12147 0.44801 0.46605
 C138 C 0.95060 0.46055 0.38163
 C139 C 1.03925 0.61598 0.45122
 C140 C 1.04929 0.53265 0.62169
 C141 C 0.88103 0.54867 0.53753
 Zn142 Zn 0.46706 0.49208 0.93700
 Zn143 Zn 0.56264 0.53253 0.99062
 Zn144 Zn 0.45728 0.54388 1.04295
 Zn145 Zn 0.50835 0.43805 1.03218
 O146 O 0.49867 0.50180 1.00086
 O147 O 0.50430 0.51744 0.88283
 O148 O 0.56742 0.59442 1.02249
 O149 O 0.39607 0.56193 1.01125
 O150 O 0.57613 0.54611 0.92288
 O151 O 0.40477 0.52369 0.93336
 O152 O 0.48963 0.60449 1.06067
 O153 O 0.47705 0.43419 1.09472
 O154 O 0.61655 0.49424 1.01531
 O155 O 0.43945 0.51217 1.10410
 O156 O 0.57601 0.42340 1.04491
 O157 O 0.48263 0.38451 0.99457
 O158 O 0.45363 0.42476 0.92283
 C159 C 0.54901 0.53952 0.88135
 C160 C 0.53555 0.62125 1.04995
 C161 C 0.37840 0.55111 0.96561
 C162 C 0.44984 0.46641 1.12137
 C163 C 0.61775 0.44961 1.03748
 C164 C 0.46044 0.38328 0.94973
 C165 C 1.26631 0.39793 0.41247
 C166 C 1.25463 0.38023 0.46980
 C167 C 1.20659 0.39602 0.48819
 C168 C 1.17471 0.42876 0.44832
 C169 C 1.21165 0.47399 0.43332
 C170 C 1.25945 0.45809 0.41508
 C171 C 1.21889 0.37844 0.38019
 C172 C 1.17136 0.39441 0.39884
 H173 H 1.28273 0.36085 0.49561
 H174 H 1.19406 0.38847 0.52837
 H175 H 1.20179 0.51514 0.43862
 H176 H 1.29029 0.48597 0.40558
 H177 H 1.22242 0.35360 0.34562
 H178 H 1.13452 0.38318 0.38022
 C179 C 0.23327 0.60097 0.91240
 C180 C 0.28039 0.62052 0.87990
 C181 C 0.32806 0.60460 0.89844
 C182 C 0.32508 0.57025 0.94801
 C183 C 0.29350 0.60294 0.98791
 C184 C 0.24533 0.61867 0.96964
 C185 C 0.24016 0.54080 0.91516
 C186 C 0.28811 0.52495 0.93328
 H187 H 0.27656 0.64537 0.84527
 H188 H 0.36476 0.61587 0.87967
 H189 H 0.30632 0.61048 1.02803
 H190 H 0.21739 0.63802 0.99546
 H191 H 0.20927 0.51291 0.90585
 H192 H 0.29806 0.48382 0.93868
 C193 C -0.26359 0.89728 0.08832
 C194 C -0.25064 0.87891 0.03156
 C195 C -0.20275 0.89531 0.01363
 C196 C -0.17221 0.92921 0.05337
 C197 C -0.21038 0.97400 0.06699
 C198 C -0.25809 0.95753 0.08472
 C199 C -0.21621 0.87908 0.12167
 C200 C -0.16877 0.89563 0.10348
 H201 H -0.27780 0.85861 0.00567
 H202 H -0.18944 0.88733 -0.02620
 H203 H -0.20135 1.01523 0.06124
 H204 H -0.28970 0.98500 0.09337
 H205 H -0.21969 0.85465 0.15660
 H206 H -0.13196 0.88532 0.12286
 C207 C 0.76602 0.10126 0.58760
 C208 C 0.75950 0.04108 0.58513
 C209 C 0.71175 0.02518 0.56679
 C210 C 0.67457 0.07043 0.55158
 C211 C 0.67108 0.10489 0.60095
 C212 C 0.71854 0.12087 0.61970
 C213 C 0.75418 0.11883 0.53021
 C214 C 0.70623 0.10305 0.51172
 H215 H 0.79049 0.01321 0.59486
 H216 H 0.70209 -0.01597 0.56161
 H217 H 0.63420 0.11618 0.61944
 H218 H 0.72199 0.14579 0.65423
 H219 H 0.78214 0.13809 0.50442
 H220 H 0.69364 0.11050 0.47147
 C221 C 0.41112 0.26716 0.39840
 C222 C 0.46855 0.25556 0.38102
 C223 C 0.48708 0.20768 0.39678
 C224 C 0.44723 0.17586 0.42919
 C225 C 0.43189 0.21246 0.47472
 C226 C 0.41350 0.26013 0.45884
 C227 C 0.37915 0.22006 0.37831
 C228 C 0.39794 0.17267 0.39426
 H229 H 0.49433 0.28358 0.36193
 H230 H 0.52735 0.19522 0.38947
 H231 H 0.43700 0.20247 0.51606
 H232 H 0.40367 0.29072 0.48693
 H233 H 0.34468 0.22370 0.35308
 H234 H 0.37955 0.13605 0.38265
 C235 C 0.91134 0.23409 0.60076
 C236 C 0.91406 0.24035 0.54038
 C237 C 0.93238 0.28778 0.52415
 C238 C 0.94709 0.32491 0.56947
 C239 C 0.89741 0.32852 0.60364
 C240 C 0.87879 0.28129 0.61983
 C241 C 0.96834 0.24584 0.61901
 C242 C 0.98679 0.29347 0.60289
 H243 H 0.90416 0.20949 0.51266
 H244 H 0.93755 0.29738 0.48276
 H245 H 0.87862 0.36526 0.61454
 H246 H 0.84408 0.27777 0.64454
 H247 H 0.99372 0.21819 0.63944
 H248 H 1.02678 0.30616 0.61100
 C249 C 0.08842 0.73474 -0.10121
 C250 C 0.03177 0.74779 -0.11989
 C251 C 0.01389 0.79566 -0.10367
 C252 C 0.05378 0.82605 -0.06979
 C253 C 0.06760 0.78831 -0.02454
 C254 C 0.08531 0.74063 -0.04083
 C255 C 0.12180 0.78140 -0.11984
 C256 C 0.10375 0.82891 -0.10357
 H257 H 0.00617 0.72088 -0.14073
 H258 H -0.02582 0.80926 -0.11212
 H259 H 0.06230 0.79773 0.01685
 H260 H 0.09460 0.70937 -0.01317
 H261 H 0.15661 0.77736 -0.14433
 H262 H 0.12311 0.86534 -0.11418
 C263 C 0.59035 0.76457 1.10064
 C264 C 0.62242 0.71708 1.12011
 C265 C 0.60343 0.66998 1.10392
 C266 C 0.55388 0.67397 1.06935
 C267 C 0.51437 0.70578 1.10235
 C268 C 0.53318 0.75326 1.11845
 C269 C 0.58779 0.75828 1.04027
 C270 C 0.56909 0.71099 1.02405
 H271 H 0.65708 0.72031 1.14507
 H272 H 0.62188 0.63309 1.11508
 H273 H 0.47424 0.69344 1.11018
 H274 H 0.50793 0.78112 1.13858
 H275 H 0.59812 0.78903 1.01252
 H276 H 0.56402 0.70143 0.98264
 C277 C 0.39821 0.41288 1.26548
 C278 C 0.37960 0.38049 1.21796
 C279 C 0.39609 0.39909 1.17061
 C280 C 0.43011 0.44860 1.17437
 C281 C 0.39634 0.48804 1.20546
 C282 C 0.37988 0.46959 1.25321
 C283 C 0.45862 0.41573 1.25982
 C284 C 0.47515 0.43400 1.21225
 H285 H 0.35493 0.34592 1.22134
 H286 H 0.38549 0.38040 1.13365
 H287 H 0.38815 0.52782 1.19241
 H288 H 0.35906 0.49476 1.28062
 H289 H 0.48613 0.40590 1.29118
 H290 H 0.51658 0.43921 1.20305
 C291 C 0.60352 -0.08709 0.23387
 C292 C 0.62142 -0.03024 0.24545
 C293 C 0.60488 -0.01139 0.29300
 C294 C 0.57144 -0.05060 0.32451
 C295 C 0.52647 -0.06554 0.28681
 C296 C 0.54311 -0.08424 0.23947
 C297 C 0.62239 -0.11906 0.28173
 C298 C 0.60580 -0.10006 0.32886
 H299 H 0.64199 -0.00528 0.21770
 H300 H 0.61274 0.02851 0.30558
 H301 H 0.48501 -0.06019 0.29592
 H302 H 0.51565 -0.09425 0.20821
 H303 H 0.64729 -0.15366 0.27874
 H304 H 0.61657 -0.11842 0.36603
 C305 C -0.10186 1.08681 -0.26491
 C306 C -0.12036 1.03043 -0.25206
 C307 C -0.10368 1.01231 -0.20416
 C308 C -0.06955 1.05171 -0.17354
 C309 C -0.02468 1.06543 -0.21163
 C310 C -0.04144 1.08339 -0.25934
 C311 C -0.12005 1.11989 -0.21769
 C312 C -0.10332 1.10161 -0.17018
 H313 H -0.14141 1.00518 -0.27917
 H314 H -0.11194 0.97274 -0.19071
 H315 H 0.01679 1.05990 -0.20243
 H316 H -0.01409 1.09263 -0.29085
 H317 H -0.14459 1.15468 -0.22139
 H318 H -0.11359 1.12077 -0.13339
 C319 C 1.10060 0.58614 0.76585
 C320 C 1.11865 0.52930 0.75402
 C321 C 1.10229 0.51088 0.70624
 C322 C 1.06885 0.55045 0.67472
 C323 C 1.02374 0.56533 0.71217
 C324 C 1.04021 0.58363 0.75977
 C325 C 1.11955 0.61836 0.71833
 C326 C 1.10311 0.59978 0.67095
 H327 H 1.13913 0.50403 0.78177
 H328 H 1.11024 0.47101 0.69349
 H329 H 0.98231 0.56029 0.70267
 H330 H 1.01265 0.59363 0.79088
 H331 H 1.14435 0.65283 0.72175
 H332 H 1.11389 0.61837 0.63398
 C333 C 0.74271 0.61133 0.59455
 C334 C 0.73613 0.55609 0.57099
 C335 C 0.78142 0.53483 0.55163
 C336 C 0.82971 0.57070 0.55736
 C337 C 0.81350 0.62223 0.53043
 C338 C 0.76822 0.64370 0.54970
 C339 C 0.78726 0.60545 0.63554
 C340 C 0.83226 0.58393 0.61630
 H341 H 0.69871 0.53562 0.56926
 H342 H 0.78243 0.49624 0.53362
 H343 H 0.83622 0.64078 0.49938
 H344 H 0.75401 0.68090 0.53471
 H345 H 0.78385 0.61778 0.67635
 H346 H 0.86688 0.57759 0.64077
 C347 C 0.75615 0.38736 1.09523
 C348 C 0.71177 0.39349 1.13614
 C349 C 0.66668 0.41481 1.11663
 C350 C 0.66902 0.42757 1.05756
 C351 C 0.71727 0.46343 1.05146
 C352 C 0.76262 0.44238 1.07106
 C353 C 0.73051 0.35457 1.05074
 C354 C 0.68513 0.37584 1.03120
 H355 H 0.71534 0.38143 1.17707
 H356 H 0.63212 0.42126 1.14099
 H357 H 0.71620 0.50187 1.03301
 H358 H 0.80001 0.46287 1.06911
 H359 H 0.74461 0.31718 1.03633
 H360 H 0.66223 0.35698 1.00042
 C361 C 0.25650 1.11197 -0.09787
 C362 C 0.26416 1.05771 -0.07202
 C363 C 0.21934 1.03660 -0.05170
 C364 C 0.17033 1.07155 -0.05872
 C365 C 0.18547 1.12424 -0.03398
 C366 C 0.23014 1.14573 -0.05434
 C367 C 0.21179 1.10409 -0.13842
 C368 C 0.16733 1.08260 -0.11813
 H369 H 0.30194 1.03772 -0.06947
 H370 H 0.21916 0.99873 -0.03208
 H371 H 0.16185 1.14410 -0.00441
 H372 H 0.24218 1.18454 -0.04216
 H373 H 0.21449 1.11533 -0.17965
 H374 H 0.13265 1.07516 -0.14212
 C375 C 0.24414 -0.10847 0.39944
 C376 C 0.27691 -0.14710 0.43376
 C377 C 0.32171 -0.12613 0.45415
 C378 C 0.33127 -0.06911 0.43762
 C379 C 0.32918 -0.07000 0.37712
 C380 C 0.28405 -0.09083 0.35710
 C381 C 0.23597 -0.05993 0.43452
 C382 C 0.28127 -0.03938 0.45441
 H383 H 0.26934 -0.18875 0.43773
 H384 H 0.34973 -0.14935 0.47677
 H385 H 0.36125 -0.05693 0.35210
 H386 H 0.27850 -0.09620 0.31501
 H387 H 0.19755 -0.04319 0.44319
 H388 H 0.28122 -0.00529 0.47999
 C389 C 0.59710 -0.25455 0.60992
 C390 C 0.63813 -0.21061 0.60234
 C391 C 0.61831 -0.16568 0.58122
 C392 C 0.55887 -0.16751 0.57015
 C393 C 0.55123 -0.21572 0.53462
 C394 C 0.57106 -0.26096 0.55538
 C395 C 0.55395 -0.22802 0.64414
 C396 C 0.53407 -0.18291 0.62299
 H397 H 0.67933 -0.21417 0.61356
 H398 H 0.64265 -0.13145 0.57405
 H399 H 0.53154 -0.21471 0.49660
 H400 H 0.56803 -0.29825 0.53494
 H401 H 0.54177 -0.24031 0.68307
 H402 H 0.50486 -0.15915 0.64322
 C403 C 1.09845 0.75779 0.40180
 C404 C 1.11111 0.74368 0.45971
 C405 C 1.09196 0.69639 0.47518
 C406 C 1.06062 0.66759 0.43225
 C407 C 1.01811 0.70700 0.41483
 C408 C 1.03777 0.75424 0.39909
 C409 C 1.11826 0.71069 0.36959
 C410 C 1.09861 0.66374 0.38530
 H411 H 1.12936 0.76986 0.48794
 H412 H 1.09599 0.68229 0.51541
 H413 H 0.97615 0.69888 0.41585
 H414 H 1.01231 0.78654 0.38739
 H415 H 1.14576 0.71409 0.33703
 H416 H 1.10953 0.62729 0.36605
 C417 C -0.09717 1.25459 0.11136
 C418 C -0.05391 1.22840 0.14597
 C419 C -0.03361 1.18348 0.12509
 C420 C -0.05821 1.16793 0.07214
 C421 C -0.11764 1.16558 0.08282
 C422 C -0.13786 1.21034 0.10369
 C423 C -0.07110 1.26125 0.05698
 C424 C -0.05088 1.21619 0.03650
 H425 H -0.04210 1.24066 0.18505
 H426 H -0.00436 1.15987 0.14564
 H427 H -0.14168 1.13114 0.07564
 H428 H -0.17908 1.21354 0.11470
 H429 H -0.06835 1.29856 0.03646
 H430 H -0.03112 1.21535 -0.00140
 C431 C 0.40163 0.24562 0.88888
 C432 C 0.42672 0.23912 0.94380
 C433 C 0.44663 0.28421 0.96440
 C434 C 0.43986 0.33230 0.92824
 C435 C 0.46532 0.31614 0.87593
 C436 C 0.44546 0.27109 0.85509
 C437 C 0.36076 0.28996 0.89553
 C438 C 0.38058 0.33484 0.91636
 H439 H 0.42901 0.20190 0.96457
 H440 H 0.46570 0.28521 1.00272
 H441 H 0.49550 0.33896 0.85620
 H442 H 0.45889 0.25735 0.81709
 H443 H 0.31963 0.28653 0.88416
 H444 H 0.35631 0.36936 0.92307
 C445 C 0.60896 0.59891 0.74295
 C446 C 0.60223 0.63933 0.78757
 C447 C 0.58164 0.61930 0.83268
 C448 C 0.57011 0.56029 0.83007
 C449 C 0.53385 0.55384 0.78183
 C450 C 0.55418 0.57398 0.73650
 C451 C 0.64310 0.55517 0.76844
 C452 C 0.62250 0.53508 0.81369
 H453 H 0.61341 0.68028 0.78420
 H454 H 0.57494 0.64324 0.86742
 H455 H 0.49564 0.53487 0.78292
 H456 H 0.53330 0.57200 0.69916
 H457 H 0.68134 0.54224 0.75480
 H458 H 0.64260 0.50508 0.83666
 C459 C 0.38825 0.09802 0.75454
 C460 C 0.39435 0.13861 0.70990
 C461 C 0.41543 0.11895 0.66488
 C462 C 0.42802 0.06008 0.66755
 C463 C 0.46426 0.05391 0.71587
 C464 C 0.44345 0.07367 0.76113
 C465 C 0.35497 0.05393 0.72906
 C466 C 0.37603 0.03422 0.68382
 H467 H 0.38239 0.17941 0.71320
 H468 H 0.42179 0.14307 0.63015
 H469 H 0.50281 0.03535 0.71491
 H470 H 0.46426 0.07176 0.79854
 H471 H 0.31713 0.04028 0.74289
 H472 H 0.35665 0.00390 0.66093
 C473 C 0.10293 0.89984 0.26096
 C474 C 0.10288 0.96035 0.25846
 C475 C 0.08673 0.98037 0.21114
 C476 C 0.07167 0.93832 0.17055
 C477 C 0.12041 0.90252 0.16665
 C478 C 0.13654 0.88254 0.21371
 C479 C 0.04584 0.88520 0.24575
 C480 C 0.03000 0.90476 0.19842
 H481 H 0.11335 0.98536 0.29143
 H482 H 0.08402 1.02224 0.20366
 H483 H 0.14060 0.89337 0.13011
 H484 H 0.17035 0.85651 0.21708
 H485 H 0.01823 0.86515 0.27127
 H486 H -0.00983 0.89939 0.18366
 C487 C 0.89052 0.40124 0.24333
 C488 C 0.94518 0.42639 0.23687
 C489 C 0.96558 0.44657 0.28217
 C490 C 0.92948 0.43993 0.33034
 C491 C 0.87695 0.46497 0.31387
 C492 C 0.85629 0.44485 0.26864
 C493 C 0.89754 0.36082 0.28804
 C494 C 0.91820 0.38087 0.33309
 H495 H 0.96591 0.42851 0.19953
 H496 H 1.00371 0.46571 0.28327
 H497 H 0.85686 0.49494 0.33670
 H498 H 0.81802 0.45776 0.25483
 H499 H 0.88650 0.31982 0.28476
 H500 H 0.92513 0.35691 0.36788
   
