data_POSCAR
  _audit_creation_date              2014-09-24
  _audit_creation_method            'ToBaCCo'
  _symmetry_space_group_name_H-M    'P1'
  _symmetry_Int_Tables_number       1
  _symmetry_cell_setting            triclinic
  loop_
  _symmetry_equiv_pos_as_xyz
 x,y,z
_cell_length_a 41.8279
_cell_length_b 41.7763
_cell_length_c 42.3839
_cell_angle_alpha 89.463700
_cell_angle_beta 89.448800
_cell_angle_gamma 88.987700
loop_
  _atom_site_label
  _atom_site_type_symbol
  _atom_site_fract_x
  _atom_site_fract_y
  _atom_site_fract_z
N1 N 0.14135 0.14222 0.22850
 N2 N 0.16180 0.11858 0.22342
 C3 C 0.15930 0.09683 0.24694
 C4 C 0.13590 0.10760 0.26791
 C5 C 0.12502 0.13640 0.25532
 H6 H 0.17378 0.07521 0.24872
 H7 H 0.10696 0.15227 0.26530
 Cu8 Cu 0.19021 0.11912 0.18705
 Cu9 Cu 0.13836 0.17948 0.20096
 Cu10 Cu 0.19595 0.18579 0.14203
 N11 N 0.22579 0.12546 0.15826
 N12 N 0.22789 0.15112 0.14022
 C13 C 0.25503 0.14906 0.12290
 C14 C 0.27091 0.12071 0.13080
 C15 C 0.25150 0.10637 0.15335
 H16 H 0.26298 0.16713 0.10630
 H17 H 0.25563 0.08390 0.16558
 N18 N 0.16131 0.21801 0.14836
 N19 N 0.13937 0.21533 0.17078
 C20 C 0.11955 0.24099 0.16972
 C21 C 0.12946 0.26094 0.14552
 C22 C 0.15597 0.24563 0.13243
 H23 H 0.09968 0.24503 0.18573
 H24 H 0.17047 0.25425 0.11298
 H25 H 0.15828 0.16015 0.16000
 H26 H 0.18668 0.17708 0.18903
 N27 N -0.14146 0.83491 0.22569
 N28 N -0.16203 0.85894 0.22784
 C29 C -0.15519 0.87602 0.25372
 C30 C -0.12895 0.86181 0.26836
 C31 C -0.12094 0.83581 0.24984
 H32 H -0.16840 0.89701 0.26156
 H33 H -0.10191 0.81847 0.25377
 Cu34 Cu -0.19585 0.86479 0.19664
 Cu35 Cu -0.14314 0.80330 0.19271
 Cu36 Cu -0.20414 0.81066 0.13857
 N37 N -0.23062 0.86815 0.16623
 N38 N -0.23365 0.84686 0.14384
 C39 C -0.25941 0.85453 0.12640
 C40 C -0.27344 0.88218 0.13834
 C41 C -0.25447 0.89018 0.16372
 H42 H -0.26740 0.84099 0.10642
 H43 H -0.25774 0.91036 0.17925
 N44 N -0.17175 0.77576 0.13728
 N45 N -0.14840 0.77341 0.15791
 C46 C -0.13038 0.74731 0.15150
 C47 C -0.14288 0.73234 0.12567
 C48 C -0.16916 0.75100 0.11711
 H49 H -0.10981 0.73936 0.16489
 H50 H -0.18531 0.74672 0.09791
 H51 H -0.16574 0.83197 0.15899
 H52 H -0.19215 0.80773 0.18546
 N53 N -0.12461 0.16188 -0.22041
 N54 N -0.14870 0.14225 -0.22225
 C55 C -0.14430 0.12377 -0.24799
 C56 C -0.11594 0.13250 -0.26281
 C57 C -0.10423 0.15669 -0.24451
 H58 H -0.16064 0.10572 -0.25571
 H59 H -0.08282 0.17021 -0.24870
 Cu60 Cu -0.18334 0.14407 -0.19076
 Cu61 Cu -0.12174 0.19455 -0.18869
 Cu62 Cu -0.18351 0.20103 -0.13446
 N63 N -0.21841 0.14819 -0.16000
 N64 N -0.21811 0.17052 -0.13832
 C65 C -0.24457 0.16832 -0.12022
 C66 C -0.26270 0.14317 -0.13093
 C67 C -0.24526 0.13096 -0.15629
 H68 H -0.24994 0.18393 -0.10064
 H69 H -0.25170 0.11101 -0.17087
 N70 N -0.14615 0.22951 -0.13460
 N71 N -0.12251 0.22640 -0.15521
 C72 C -0.10094 0.24924 -0.15028
 C73 C -0.11135 0.26786 -0.12538
 C74 C -0.14011 0.25464 -0.11588
 H75 H -0.07953 0.25244 -0.16428
 H76 H -0.15567 0.26313 -0.09712
 H77 H -0.14908 0.17188 -0.15404
 H78 H -0.17086 0.19995 -0.18129
 N79 N 0.14000 0.82502 -0.22869
 N80 N 0.15998 0.84865 -0.23296
 C81 C 0.15209 0.86455 -0.25968
 C82 C 0.12577 0.85013 -0.27274
 C83 C 0.11877 0.82509 -0.25239
 H84 H 0.16450 0.88508 -0.26907
 H85 H 0.09983 0.80804 -0.25467
 Cu86 Cu 0.19428 0.85612 -0.20298
 Cu87 Cu 0.14323 0.79550 -0.19306
 Cu88 Cu 0.20437 0.80735 -0.14003
 N89 N 0.22909 0.86228 -0.17327
 N90 N 0.23253 0.84326 -0.14860
 C91 C 0.25789 0.85254 -0.13188
 C92 C 0.27132 0.87879 -0.14680
 C93 C 0.25234 0.88432 -0.17311
 H94 H 0.26615 0.84091 -0.11049
 H95 H 0.25517 0.90290 -0.19078
 N96 N 0.17345 0.77233 -0.13544
 N97 N 0.15017 0.76801 -0.15570
 C98 C 0.13349 0.74218 -0.14671
 C99 C 0.14681 0.72950 -0.11956
 C100 C 0.17214 0.74924 -0.11301
 H101 H 0.11325 0.73290 -0.15915
 H102 H 0.18856 0.74680 -0.09358
 H103 H 0.16489 0.82659 -0.16244
 H104 H 0.19195 0.80015 -0.18638
 N105 N 0.14680 1.13662 0.76998
 N106 N 0.12329 1.15752 0.77388
 C107 C 0.10222 1.15440 0.75030
 C108 C 0.11325 1.13015 0.73066
 C109 C 0.14153 1.11945 0.74395
 H110 H 0.08074 1.16887 0.74758
 H111 H 0.15735 1.10082 0.73499
 Cu112 Cu 0.12274 1.18695 0.80921
 Cu113 Cu 0.18300 1.13388 0.79814
 Cu114 Cu 0.18775 1.19199 0.85548
 N115 N 0.12807 1.22213 0.83830
 N116 N 0.15325 1.22407 0.85645
 C117 C 0.15044 1.25069 0.87408
 C118 C 0.12203 1.26630 0.86647
 C119 C 0.10848 1.24743 0.84364
 H120 H 0.16784 1.25827 0.89105
 H121 H 0.08609 1.25168 0.83168
 N122 N 0.22002 1.15724 0.85043
 N123 N 0.21784 1.13498 0.82870
 C124 C 0.24323 1.11491 0.83073
 C125 C 0.26249 1.12498 0.85485
 C126 C 0.24707 1.15188 0.86686
 H127 H 0.24760 1.09477 0.81540
 H128 H 0.25517 1.16657 0.88597
 H129 H 0.16217 1.15464 0.83798
 H130 H 0.18072 1.18249 0.80851
 N131 N 0.83962 0.83965 0.76569
 N132 N 0.86062 0.81630 0.77007
 C133 C 0.88262 0.81722 0.74652
 C134 C 0.87473 0.84259 0.72655
 C135 C 0.84740 0.85615 0.73953
 H136 H 0.90272 0.80077 0.74411
 H137 H 0.83406 0.87657 0.73041
 Cu138 Cu 0.85648 0.78741 0.80629
 Cu139 Cu 0.80333 0.84729 0.79352
 Cu140 Cu 0.79508 0.79642 0.85780
 N141 N 0.85142 0.75910 0.84281
 N142 N 0.82741 0.76279 0.86277
 C143 C 0.82945 0.74016 0.88552
 C144 C 0.85621 0.72120 0.87951
 C145 C 0.86957 0.73391 0.85224
 H146 H 0.81262 0.73767 0.90485
 H147 H 0.89087 0.72526 0.84018
 N148 N 0.76489 0.83192 0.84866
 N149 N 0.76810 0.85135 0.82417
 C150 C 0.74385 0.87298 0.82426
 C151 C 0.72443 0.86682 0.85007
 C152 C 0.73846 0.84067 0.86500
 H153 H 0.74055 0.89172 0.80681
 H154 H 0.72991 0.82892 0.88622
 H155 H 0.82413 0.82776 0.83363
 H156 H 0.79952 0.80047 0.80944
 N157 N 0.16494 0.87444 1.21633
 N158 N 0.14413 0.85122 1.21805
 C159 C 0.12739 0.85405 1.24534
 C160 C 0.13841 0.88040 1.26146
 C161 C 0.16224 0.89264 1.24223
 H162 H 0.10852 0.83829 1.25294
 H163 H 0.17645 0.91347 1.24647
 Cu164 Cu 0.14114 0.82000 1.18391
 Cu165 Cu 0.19391 0.88042 1.18064
 Cu166 Cu 0.18853 0.82661 1.11976
 N167 N 0.14071 0.78818 1.15006
 N168 N 0.15869 0.79215 1.12479
 C169 C 0.15529 0.76734 1.10534
 C170 C 0.13409 0.74624 1.11890
 C171 C 0.12511 0.76026 1.14736
 H172 H 0.16827 0.76447 1.08339
 H173 H 0.10909 0.75046 1.16499
 N174 N 0.21776 0.86260 1.11870
 N175 N 0.22097 0.88254 1.14234
 C176 C 0.24591 0.90170 1.13601
 C177 C 0.25892 0.89322 1.10704
 C178 C 0.24033 0.86850 1.09676
 H179 H 0.25492 0.91948 1.15186
 H180 H 0.24416 0.85443 1.07579
 H181 H 0.16480 0.85961 1.14853
 H182 H 0.19550 0.83305 1.16780
 N183 N 0.81751 1.15292 1.24492
 N184 N 0.84316 1.17064 1.24380
 C185 C 0.86239 1.16187 1.26787
 C186 C 0.84794 1.13723 1.28463
 C187 C 0.81949 1.13231 1.26932
 H188 H 0.88535 1.17224 1.27258
 H189 H 0.80157 1.11483 1.27509
 Cu190 Cu 0.84937 1.20285 1.21034
 Cu191 Cu 0.78415 1.15665 1.21406
 Cu192 Cu 0.79602 1.19963 1.14830
 N193 N 0.85059 1.23278 1.17366
 N194 N 0.83023 1.23109 1.15014
 C195 C 0.83601 1.25474 1.12930
 C196 C 0.86123 1.27241 1.14002
 C197 C 0.87001 1.25777 1.16822
 H198 H 0.82239 1.25902 1.10812
 H199 H 0.88873 1.26519 1.18384
 N200 N 0.76368 1.16687 1.15099
 N201 N 0.75905 1.15002 1.17688
 C202 C 0.73521 1.12947 1.17240
 C203 C 0.72420 1.13380 1.14198
 C204 C 0.74274 1.15777 1.12908
 H205 H 0.72641 1.11303 1.19016
 H206 H 0.74092 1.16794 1.10559
 H207 H 0.82631 1.17453 1.17894
 H208 H 0.80270 1.20869 1.19624
 N209 N 0.53714 1.06185 0.94855
 N210 N 0.56300 1.07870 0.94309
 N211 N 0.46765 1.04380 0.93164
 N212 N 0.44130 1.04749 0.91494
 N213 N 0.47018 1.06724 0.95186
 N214 N 0.44581 1.08751 0.94941
 N215 N 0.53520 1.03832 0.92834
 N216 N 0.55988 1.03862 0.90852
 C217 C 0.57693 1.06412 0.91801
 C218 C 0.42811 1.07502 0.92619
 N219 N 0.46289 0.95477 0.96094
 N220 N 0.43810 0.93584 0.95955
 N221 N 0.53059 0.96934 0.93396
 N222 N 0.55487 0.96232 0.91489
 N223 N 0.52963 0.94895 0.95771
 N224 N 0.55299 0.92757 0.95548
 N225 N 0.46312 0.97489 0.93695
 N226 N 0.43823 0.97010 0.91856
 Mn227 Mn 0.49915 1.00659 0.93219
 C228 C 0.42279 0.94564 0.93312
 C229 C 0.56846 0.93605 0.92866
 N230 N 0.47307 1.07174 1.01957
 N231 N 0.44816 1.09155 1.02190
 N232 N 0.54006 1.04563 1.03946
 N233 N 0.56478 1.04967 1.05794
 N234 N 0.54026 1.06639 1.01603
 N235 N 0.56524 1.08513 1.01786
 N236 N 0.47318 1.05106 1.04309
 N237 N 0.44839 1.05611 1.06192
 Mn238 Mn 0.50516 1.06719 0.98394
 C239 C 0.43317 1.08156 1.04863
 C240 C 0.58031 1.07427 1.04408
 N241 N 0.53325 0.95360 1.02504
 N242 N 0.55655 0.93224 1.02885
 N243 N 0.46896 0.98288 1.04879
 N244 N 0.44416 0.98390 1.06828
 N245 N 0.46607 0.95968 1.02842
 N246 N 0.43916 0.94437 1.03336
 N247 N 0.53605 0.97713 1.04507
 N248 N 0.56131 0.97238 1.06314
 Mn249 Mn 0.49790 0.95394 0.99306
 Mn250 Mn 0.50465 1.01422 1.04445
 Cl251 Cl 0.50172 1.01048 0.98835
 C252 C 0.57383 0.94423 1.05272
 C253 C 0.42592 0.95958 1.05844
 N254 N 0.04787 0.46769 0.07026
 N255 N 0.05240 0.44184 0.08799
 N256 N 0.06534 0.53674 0.04652
 N257 N 0.08203 0.56323 0.04906
 N258 N 0.04409 0.53494 0.06944
 N259 N 0.04569 0.55985 0.08810
 N260 N 0.06992 0.46930 0.04806
 N261 N 0.08994 0.44468 0.05002
 C262 C 0.07892 0.42790 0.07513
 C263 C 0.06947 0.57726 0.07530
 N264 N 0.04174 0.53213 -0.04335
 N265 N 0.04338 0.55590 -0.06396
 N266 N 0.06835 0.46708 -0.01949
 N267 N 0.08880 0.44278 -0.02273
 N268 N 0.04509 0.46492 -0.03990
 N269 N 0.04910 0.43939 -0.05764
 N270 N 0.06404 0.53464 -0.02196
 N271 N 0.08157 0.56013 -0.02756
 Mn272 Mn 0.06737 0.50215 0.01328
 C273 C 0.06835 0.57313 -0.05389
 C274 C 0.07646 0.42582 -0.04675
 N275 N -0.02417 0.53315 0.07148
 N276 N -0.02779 0.55827 0.08987
 N277 N -0.04440 0.46567 0.05214
 N278 N -0.06310 0.44100 0.05738
 N279 N -0.02123 0.46590 0.07280
 N280 N -0.02366 0.44166 0.09282
 N281 N -0.04648 0.53310 0.04990
 N282 N -0.06599 0.55807 0.05311
 Mn283 Mn 0.01168 0.50024 0.07137
 C284 C -0.05403 0.57348 0.07822
 C285 C -0.04989 0.42632 0.08287
 N286 N -0.02406 0.46270 -0.03750
 N287 N -0.02814 0.43739 -0.05543
 N288 N -0.04805 0.53148 -0.01849
 N289 N -0.06776 0.55619 -0.02336
 N290 N -0.02641 0.52988 -0.04108
 N291 N -0.03056 0.55325 -0.06168
 N292 N -0.04614 0.46408 -0.01531
 N293 N -0.06569 0.43981 -0.01737
 Mn294 Mn 0.00911 0.49721 -0.04078
 Mn295 Mn -0.04671 0.49875 0.01709
 Cl296 Cl 0.01037 0.49959 0.01523
 C297 C -0.05423 0.42337 -0.04247
 C298 C -0.05639 0.56947 -0.05053
 N299 N 0.93954 -0.03785 0.46676
 N300 N 0.91992 -0.03873 0.44271
 N301 N 0.96209 -0.06437 0.53229
 N302 N 0.95814 -0.08417 0.55649
 N303 N 0.94017 -0.04147 0.53272
 N304 N 0.92085 -0.04497 0.55716
 N305 N 0.96058 -0.06154 0.46559
 N306 N 0.95585 -0.07911 0.44028
 C307 C 0.93025 -0.06458 0.42639
 C308 C 0.93221 -0.07169 0.57173
 N309 N 1.05441 -0.04577 0.52875
 N310 N 1.07446 -0.04957 0.55220
 N311 N 1.02937 -0.06458 0.46355
 N312 N 1.03161 -0.08331 0.43870
 N313 N 1.05166 -0.04282 0.46261
 N314 N 1.06979 -0.04633 0.43709
 N315 N 1.03168 -0.06704 0.53034
 N316 N 1.03589 -0.08601 0.55532
 Mn317 Mn 0.99593 -0.06493 0.49808
 C318 C 1.06294 -0.07473 0.56857
 C319 C 1.05697 -0.07175 0.42243
 N320 N 0.94158 0.02675 0.53574
 N321 N 0.92211 0.02926 0.56024
 N322 N 0.96377 0.05254 0.47098
 N323 N 0.96095 0.07388 0.44809
 N324 N 0.94121 0.03120 0.46943
 N325 N 0.92219 0.03765 0.44534
 N326 N 0.96450 0.04770 0.53724
 N327 N 0.96118 0.06516 0.56297
 Mn328 Mn 0.94029 -0.00536 0.50102
 C329 C 0.93454 0.05332 0.57700
 C330 C 0.93493 0.06442 0.43232
 N331 N 1.05310 0.02634 0.46582
 N332 N 1.07073 0.03020 0.44012
 N333 N 1.03349 0.04507 0.53468
 N334 N 1.03770 0.06231 0.56013
 N335 N 1.05569 0.02260 0.53220
 N336 N 1.07563 0.02391 0.55615
 N337 N 1.03193 0.04973 0.46860
 N338 N 1.03449 0.07012 0.44481
 Mn339 Mn 1.05410 -0.00993 0.49716
 Mn340 Mn 0.99845 0.04910 0.50305
 Cl341 Cl 0.99720 -0.00784 0.49983
 C342 C 1.05890 0.05770 0.42737
 C343 C 1.06409 0.04891 0.57325
 C344 C 1.09129 0.09687 0.34106
 C345 C 1.10432 0.06799 0.35268
 N346 N 1.12749 0.05245 0.33584
 C347 C 1.13833 0.06454 0.30789
 C348 C 1.12544 0.09367 0.29620
 N349 N 1.10213 0.10896 0.31329
 N350 N 1.06805 0.11242 0.35774
 C351 C 1.05719 0.10038 0.38565
 C352 C 1.07026 0.07150 0.39745
 N353 N 1.09357 0.05596 0.38060
 H354 H 1.15684 0.05150 0.29519
 H355 H 1.03857 0.11323 0.39844
 C356 C 0.88787 -0.09304 0.34124
 C357 C 0.91452 -0.10984 0.35332
 N358 N 0.92665 -0.13538 0.33739
 C359 C 0.91333 -0.14496 0.30999
 C360 C 0.88651 -0.12827 0.29783
 N361 N 0.87452 -0.10260 0.31390
 N362 N 0.87571 -0.06748 0.35708
 C363 C 0.88895 -0.05794 0.38450
 C364 C 0.91560 -0.07473 0.39677
 N365 N 0.92779 -0.10037 0.38077
 H366 H 0.92369 -0.16542 0.29800
 H367 H 0.87871 -0.03742 0.39659
 C368 C 0.89532 0.08594 0.66341
 C369 C 0.92398 0.09841 0.65136
 N370 N 0.93926 0.12120 0.66765
 C371 C 0.92716 0.13230 0.69538
 C372 C 0.89823 0.12017 0.70750
 N373 N 0.88307 0.09711 0.69110
 N374 N 0.88016 0.06299 0.64711
 C375 C 0.89231 0.05201 0.61929
 C376 C 0.92090 0.06465 0.60707
 N377 N 0.93606 0.08758 0.62354
 H378 H 0.94012 0.15050 0.70756
 H379 H 0.87971 0.03367 0.60682
 C380 C 1.10717 -0.10580 0.65314
 C381 C 1.07982 -0.12127 0.64243
 N382 N 1.06785 -0.14598 0.65966
 C383 C 1.08197 -0.15586 0.68701
 C384 C 1.10939 -0.14030 0.69777
 N385 N 1.12118 -0.11559 0.68037
 N386 N 1.11935 -0.08117 0.63622
 C387 C 1.10548 -0.07117 0.60900
 C388 C 1.07800 -0.08641 0.59800
 N389 N 1.06573 -0.11125 0.61508
 H390 H 1.07179 -0.17557 0.70014
 H391 H 1.11586 -0.05132 0.59616
 C392 C 0.34441 1.11617 1.08381
 C393 C 0.35868 1.08803 1.09576
 N394 N 0.34364 1.07112 1.11874
 C395 C 0.31489 1.08104 1.13050
 C396 C 0.30040 1.10951 1.11892
 N397 N 0.31574 1.12635 1.09573
 N398 N 0.35943 1.13273 1.06039
 C399 C 0.38810 1.12235 1.04843
 C400 C 0.40250 1.09429 1.06066
 N401 N 0.38730 1.07787 1.08407
 H402 H 0.30385 1.06680 1.14886
 H403 H 0.39953 1.13588 1.02971
 C404 C 0.33944 0.90040 0.90105
 C405 C 0.35225 0.92615 0.88393
 N406 N 0.33777 0.93605 0.85689
 C407 C 0.31117 0.92135 0.84616
 C408 C 0.29838 0.89527 0.86319
 N409 N 0.31308 0.88567 0.89032
 N410 N 0.35360 0.89038 0.92810
 C411 C 0.38016 0.90481 0.93884
 C412 C 0.39342 0.93048 0.92173
 N413 N 0.37901 0.94063 0.89456
 H414 H 0.30041 0.92992 0.82451
 H415 H 0.39088 0.89614 0.96050
 C416 C 0.65718 0.89937 1.08930
 C417 C 0.64483 0.92757 1.10277
 N418 N 0.65980 0.94036 1.12787
 C419 C 0.68657 0.92622 1.14016
 C420 C 0.69911 0.89785 1.12670
 N421 N 0.68386 0.88529 1.10148
 N422 N 0.64226 0.88643 1.06429
 C423 C 0.61545 0.90040 1.05210
 C424 C 0.60291 0.92868 1.06549
 N425 N 0.61803 0.94163 1.09059
 H426 H 0.69776 0.93717 1.16015
 H427 H 0.60409 0.88952 1.03212
 C428 C 0.66496 1.09580 0.87956
 C429 C 0.65036 1.11109 0.90538
 N430 N 0.66459 1.13649 0.91860
 C431 C 0.69287 1.14747 0.90726
 C432 C 0.70792 1.13236 0.88127
 N433 N 0.69333 1.10674 0.86808
 N434 N 0.65050 1.07025 0.86651
 C435 C 0.62212 1.05935 0.87816
 C436 C 0.60748 1.07474 0.90406
 N437 N 0.62215 1.10028 0.91694
 H438 H 0.70321 1.16780 0.91865
 H439 H 0.61117 1.03894 0.86737
 C440 C 0.11791 0.33839 0.10335
 C441 C 0.09059 0.35118 0.11846
 N442 N 0.07635 0.33430 0.14202
 C443 C 0.08818 0.30520 0.15122
 C444 C 0.11561 0.29229 0.13615
 N445 N 0.12974 0.30937 0.11250
 N446 N 0.13212 0.35517 0.07971
 C447 C 0.12021 0.38418 0.07041
 C448 C 0.09281 0.39705 0.08545
 N449 N 0.07864 0.38016 0.10920
 H450 H 0.07619 0.29245 0.17006
 H451 H 0.13196 0.39695 0.05136
 C452 C -0.09619 0.33923 -0.07635
 C453 C -0.06804 0.35101 -0.09015
 N454 N -0.05431 0.33529 -0.11475
 C455 C -0.06748 0.30838 -0.12634
 C456 C -0.09590 0.29657 -0.11281
 N457 N -0.10949 0.31241 -0.08800
 N458 N -0.10987 0.35491 -0.05166
 C459 C -0.09672 0.38192 -0.04019
 C460 C -0.06867 0.39394 -0.05414
 N461 N -0.05496 0.37806 -0.07883
 H462 H -0.05583 0.29664 -0.14604
 H463 H -0.10819 0.39394 -0.02049
 C464 C 0.09989 0.65754 -0.09929
 C465 C 0.11538 0.64577 -0.07224
 N466 N 0.14079 0.66168 -0.06082
 C467 C 0.15147 0.68877 -0.07527
 C468 C 0.13606 0.70054 -0.10251
 N469 N 0.11056 0.68448 -0.11372
 N470 N 0.07452 0.64179 -0.11083
 C471 C 0.06390 0.61466 -0.09659
 C472 C 0.07938 0.60262 -0.06955
 N473 N 0.10483 0.61859 -0.05797
 H474 H 0.17179 0.70081 -0.06561
 H475 H 0.04358 0.60263 -0.10635
 C476 C -0.09166 0.66031 0.11397
 C477 C -0.10593 0.64567 0.08814
 N478 N -0.13205 0.65970 0.07465
 C479 C -0.14460 0.68771 0.08591
 C480 C -0.13036 0.70233 0.11190
 N481 N -0.10417 0.68811 0.12516
 N482 N -0.06559 0.64648 0.12757
 C483 C -0.05305 0.61852 0.11651
 C484 C -0.06725 0.60366 0.09069
 N485 N -0.09343 0.61768 0.07705
 H486 H -0.16543 0.69827 0.07473
 H487 H -0.03219 0.60806 0.12780
 C488 C 1.10219 0.08205 0.65859
 C489 C 1.07433 0.09591 0.64590
 N490 N 1.05937 0.12044 0.66117
 C491 C 1.07108 0.13188 0.68860
 C492 C 1.09916 0.11823 0.70134
 N493 N 1.11396 0.09353 0.68589
 N494 N 1.11710 0.05745 0.64334
 C495 C 1.10541 0.04609 0.61584
 C496 C 1.07761 0.06009 0.60296
 N497 N 1.06274 0.08468 0.61844
 H498 H 1.05864 0.15151 0.70011
 H499 H 1.11774 0.02646 0.60416
 C500 C 0.89112 -0.10796 0.65574
 C501 C 0.91824 -0.12307 0.64254
 N502 N 0.93106 -0.14937 0.65715
 C503 C 0.91790 -0.16121 0.68433
 C504 C 0.89063 -0.14605 0.69745
 N505 N 0.87808 -0.11976 0.68264
 N506 N 0.87814 -0.08172 0.64151
 C507 C 0.89102 -0.06975 0.61450
 C508 C 0.91815 -0.08473 0.60098
 N509 N 0.93122 -0.11116 0.61538
 H510 H 0.92856 -0.18218 0.69541
 H511 H 0.88010 -0.04872 0.60372
 C512 C 1.09049 -0.10913 0.33538
 C513 C 1.10522 -0.08280 0.34912
 N514 N 1.13041 -0.06911 0.33423
 C515 C 1.14159 -0.08046 0.30619
 C516 C 1.12694 -0.10686 0.29218
 N517 N 1.10164 -0.12056 0.30732
 N518 N 1.06521 -0.12276 0.35029
 C519 C 1.05400 -0.11126 0.37831
 C520 C 1.06871 -0.08487 0.39217
 N521 N 1.09405 -0.07129 0.37710
 H522 H 1.16175 -0.06888 0.29515
 H523 H 1.03377 -0.12260 0.38960
 C524 C 0.89985 0.11331 0.35174
 C525 C 0.88348 0.08707 0.36458
 N526 N 0.85601 0.07761 0.35108
 C527 C 0.84406 0.09320 0.32538
 C528 C 0.86033 0.11959 0.31243
 N529 N 0.88797 0.12889 0.32603
 N530 N 0.92727 0.12287 0.36529
 C531 C 0.93905 0.10745 0.39117
 C532 C 0.92268 0.08121 0.40415
 N533 N 0.89523 0.07160 0.39042
 H534 H 0.82213 0.08488 0.31529
 H535 H 0.96099 0.11564 0.40146
 C536 C 0.11399 0.33925 -0.08402
 C537 C 0.08551 0.35308 -0.09540
 N538 N 0.06950 0.33852 -0.11877
 C539 C 0.08063 0.31066 -0.13139
 C540 C 0.10923 0.29659 -0.12020
 N541 N 0.12522 0.31138 -0.09666
 N542 N 0.12986 0.35393 -0.06051
 C543 C 0.11852 0.38186 -0.04790
 C544 C 0.09002 0.39577 -0.05940
 N545 N 0.07427 0.38088 -0.08291
 H546 H 0.06720 0.29984 -0.15001
 H547 H 0.13158 0.39303 -0.02917
 C548 C -0.08680 0.34246 0.12503
 C549 C -0.10053 0.35586 0.09773
 N550 N -0.12608 0.34180 0.08465
 C551 C -0.13868 0.31493 0.09760
 C552 C -0.12520 0.30138 0.12511
 N553 N -0.09944 0.31562 0.13814
 N554 N -0.06111 0.35658 0.13798
 C555 C -0.04859 0.38354 0.12490
 C556 C -0.06247 0.39709 0.09766
 N557 N -0.08815 0.38278 0.08476
 H558 H -0.15913 0.30457 0.08648
 H559 H -0.02811 0.39430 0.13572
 C560 C -0.09282 0.65158 -0.09775
 C561 C -0.10828 0.64000 -0.07049
 N562 N -0.13511 0.65533 -0.05978
 C563 C -0.14718 0.68161 -0.07513
 C564 C -0.13173 0.69312 -0.10255
 N565 N -0.10485 0.67767 -0.11302
 N566 N -0.06610 0.63650 -0.10869
 C567 C -0.05406 0.61021 -0.09369
 C568 C -0.06943 0.59828 -0.06643
 N569 N -0.09628 0.61358 -0.05537
 H570 H -0.16860 0.69321 -0.06601
 H571 H -0.03265 0.59873 -0.10307
 C572 C 0.09539 0.66712 0.11140
 C573 C 0.10873 0.65582 0.08296
 N574 N 0.12972 0.67419 0.06675
 C575 C 0.13809 0.70332 0.07763
 C576 C 0.12494 0.71480 0.10624
 N577 N 0.10381 0.69623 0.12242
 N578 N 0.07419 0.64883 0.12749
 C579 C 0.06568 0.61978 0.11643
 C580 C 0.07904 0.60834 0.08797
 N581 N 0.10033 0.62675 0.07191
 H582 H 0.15494 0.71711 0.06394
 H583 H 0.04859 0.60580 0.12974
 C584 C 0.33914 1.11388 0.89726
 C585 C 0.35158 1.08569 0.88372
 N586 N 0.33469 1.07069 0.86125
 C587 C 0.30593 1.08261 0.85158
 C588 C 0.29338 1.11094 0.86500
 N589 N 0.31043 1.12581 0.88763
 N590 N 0.35600 1.12889 0.91976
 C591 C 0.38478 1.11698 0.92938
 C592 C 0.39732 1.08875 0.91586
 N593 N 0.38031 1.07376 0.89330
 H594 H 0.29316 1.06998 0.83365
 H595 H 0.39765 1.12940 0.94745
 C596 C 0.33568 0.93544 1.09603
 C597 C 0.34696 0.92238 1.06755
 N598 N 0.32882 0.90140 1.05181
 C599 C 0.29999 0.89241 1.06345
 C600 C 0.28884 0.90466 1.09247
 N601 N 0.30699 0.92617 1.10795
 N602 N 0.35388 0.95669 1.11155
 C603 C 0.38298 0.96529 1.09993
 C604 C 0.39452 0.95167 1.07173
 N605 N 0.37606 0.93063 1.05620
 H606 H 0.28632 0.87552 1.05023
 H607 H 0.39706 0.98224 1.11274
 C608 C 0.66162 1.11522 1.08407
 C609 C 0.64611 1.08958 1.09891
 N610 N 0.65673 1.07832 1.12710
 C611 C 0.68207 1.09175 1.14136
 C612 C 0.69749 1.11773 1.12678
 N613 N 0.68691 1.12868 1.09831
 N614 N 0.65075 1.12663 1.05598
 C615 C 0.62484 1.11365 1.04216
 C616 C 0.60911 1.08820 1.05720
 N617 N 0.62030 1.07671 1.08519
 H618 H 0.68989 1.08222 1.16385
 H619 H 0.61649 1.12329 1.01986
 C620 C 0.65214 0.88830 0.89671
 C621 C 0.63991 0.91500 0.88013
 N622 N 0.65545 0.92556 0.85387
 C623 C 0.68269 0.91063 0.84345
 C624 C 0.69500 0.88389 0.86010
 N625 N 0.67925 0.87347 0.88636
 N626 N 0.63681 0.87767 0.92298
 C627 C 0.60973 0.89256 0.93353
 C628 C 0.59737 0.91936 0.91708
 N629 N 0.61281 0.92998 0.89066
 H630 H 0.69450 0.91966 0.82248
 H631 H 0.59807 0.88358 0.95465
   
