data_POSCAR
  _audit_creation_date              2014-09-24
  _audit_creation_method            'ToBaCCo'
  _symmetry_space_group_name_H-M    'P1'
  _symmetry_Int_Tables_number       1
  _symmetry_cell_setting            triclinic
  loop_
  _symmetry_equiv_pos_as_xyz
 x,y,z
_cell_length_a 24.4894
_cell_length_b 24.6665
_cell_length_c 24.5225
_cell_angle_alpha 90.125900
_cell_angle_beta 90.206300
_cell_angle_gamma 90.123500
loop_
  _atom_site_label
  _atom_site_type_symbol
  _atom_site_fract_x
  _atom_site_fract_y
  _atom_site_fract_z
C1 C 0.52590 1.00007 -0.50167
 C2 C 0.47061 0.99982 -0.50166
 C3 C 0.43817 0.99945 -0.55266
 C4 C 0.43863 1.00000 -0.45060
 C5 C 0.55832 0.99975 -0.45066
 C6 C 0.55798 1.00055 -0.55266
 C7 C 0.44083 1.04273 -0.58968
 C8 C 0.40476 1.04476 -0.63401
 C9 C 0.36583 1.00356 -0.64143
 C10 C 0.36412 0.95971 -0.60531
 C11 C 0.39998 0.95778 -0.56113
 C12 C 0.40051 1.04151 -0.44200
 C13 C 0.36532 1.03950 -0.39754
 C14 C 0.36764 0.99584 -0.36137
 C15 C 0.40636 0.95479 -0.36891
 C16 C 0.44180 0.95681 -0.41349
 C17 C 0.59644 0.95816 -0.44239
 C18 C 0.63221 0.96017 -0.39813
 C19 C 0.63046 1.00391 -0.36184
 C20 C 0.59170 1.04501 -0.36902
 C21 C 0.55568 1.04298 -0.41340
 C22 C 0.55531 0.95719 -0.58980
 C23 C 0.59135 0.95514 -0.63390
 C24 C 0.63014 0.99636 -0.64093
 C25 C 0.63183 1.04028 -0.60484
 C26 C 0.59605 1.04231 -0.56086
 H27 H 0.46941 1.07569 -0.58314
 H28 H 0.40642 1.07909 -0.66150
 H29 H 0.33420 0.92758 -0.61038
 H30 H 0.39717 0.92435 -0.53268
 H31 H 0.39729 1.07487 -0.47048
 H32 H 0.33538 1.07133 -0.39213
 H33 H 0.47030 0.92397 -0.42011
 H34 H 0.59925 0.92477 -0.47101
 H35 H 0.66216 0.92830 -0.39299
 H36 H 0.59030 1.07917 -0.34123
 H37 H 0.52717 1.07588 -0.41978
 H38 H 0.52685 0.92416 -0.58346
 H39 H 0.58999 0.92084 -0.66154
 H40 H 0.66180 1.07226 -0.60988
 H41 H 0.59890 1.07579 -0.53232
 H42 H 0.40818 0.92067 -0.34123
 C43 C -0.47109 1.50105 -0.00008
 C44 C -0.52651 1.50100 0.00017
 C45 C -0.55891 1.45015 -0.00014
 C46 C -0.55881 1.55178 0.00069
 C47 C -0.43867 1.55190 -0.00067
 C48 C -0.43883 1.45024 0.00028
 C49 C -0.59772 1.44194 -0.04162
 C50 C -0.63329 1.39777 -0.03968
 C51 C -0.63073 1.36139 0.00391
 C52 C -0.59135 1.36857 0.04495
 C53 C -0.55554 1.41288 0.04299
 C54 C -0.55603 1.58901 -0.04251
 C55 C -0.59194 1.63311 -0.04434
 C56 C -0.63080 1.64012 -0.00310
 C57 C -0.63273 1.60382 0.04058
 C58 C -0.59707 1.55986 0.04239
 C59 C -0.44150 1.58945 0.04239
 C60 C -0.40564 1.63376 0.04410
 C61 C -0.36672 1.64068 0.00284
 C62 C -0.36474 1.60398 -0.04071
 C63 C -0.40037 1.55982 -0.04236
 C64 C -0.39998 1.44232 0.04171
 C65 C -0.36467 1.39808 0.03988
 C66 C -0.36754 1.36133 -0.00355
 C67 C -0.40693 1.36824 -0.04456
 C68 C -0.44248 1.41262 -0.04271
 H69 H -0.60120 1.47051 -0.07494
 H70 H -0.66367 1.39272 -0.07152
 H71 H -0.58925 1.34078 0.07903
 H72 H -0.52656 1.41912 0.07587
 H73 H -0.52749 1.58286 -0.07556
 H74 H -0.59033 1.66084 -0.07848
 H75 H -0.60009 1.53131 0.07577
 H76 H -0.47008 1.58343 0.07543
 H77 H -0.40744 1.66171 0.07820
 H78 H -0.33479 1.60869 -0.07281
 H79 H -0.39734 1.53103 -0.07563
 H80 H -0.39629 1.47115 0.07492
 H81 H -0.33427 1.39324 0.07169
 H82 H -0.40926 1.34017 -0.07852
 H83 H -0.47149 1.41862 -0.07557
 H84 H -0.66271 1.60876 0.07259
 C85 C 0.00011 0.49902 0.52893
 C86 C 0.00001 0.49896 0.47344
 C87 C -0.00082 0.44804 0.44088
 C88 C 0.00075 0.54982 0.44102
 C89 C -0.00067 0.54999 0.56143
 C90 C 0.00097 0.44817 0.56137
 C91 C 0.04209 0.41039 0.44375
 C92 C 0.04383 0.36645 0.40739
 C93 C 0.00274 0.35989 0.36783
 C94 C -0.04071 0.39664 0.36585
 C95 C -0.04238 0.44042 0.40197
 C96 C 0.04222 0.55741 0.40234
 C97 C 0.04054 0.60126 0.36649
 C98 C -0.00279 0.63808 0.36854
 C99 C -0.04380 0.63154 0.40779
 C100 C -0.04210 0.58754 0.44389
 C101 C -0.04211 0.55747 0.60014
 C102 C -0.04056 0.60154 0.63594
 C103 C 0.00266 0.63872 0.63381
 C104 C 0.04368 0.63222 0.59450
 C105 C 0.04207 0.58799 0.55848
 C106 C -0.04181 0.41019 0.55822
 C107 C -0.04346 0.36619 0.59434
 C108 C -0.00242 0.35991 0.63394
 C109 C 0.04087 0.39702 0.63623
 C110 C 0.04245 0.44086 0.60035
 H111 H 0.07509 0.41612 0.47273
 H112 H 0.07786 0.33850 0.40931
 H113 H -0.07273 0.39227 0.33551
 H114 H -0.07555 0.46924 0.39878
 H115 H 0.07534 0.52854 0.39914
 H116 H 0.07241 0.60574 0.33629
 H117 H -0.07504 0.58185 0.47268
 H118 H -0.07514 0.52838 0.60338
 H119 H -0.07252 0.60583 0.66611
 H120 H 0.07754 0.66050 0.59249
 H121 H 0.07498 0.58239 0.52965
 H122 H -0.07476 0.41566 0.52920
 H123 H -0.07737 0.33796 0.59218
 H124 H 0.07285 0.39289 0.66661
 H125 H 0.07551 0.46993 0.60375
 H126 H -0.07769 0.65962 0.40961
 O127 O -0.14003 1.00215 -0.07338
 O128 O 0.14014 0.99780 -0.07267
 O129 O -0.00189 1.07304 -0.14026
 O130 O 0.00188 0.92671 -0.14044
 O131 O 0.00196 0.86030 -0.07438
 O132 O -0.00181 1.13960 -0.07407
 O133 O 0.07409 0.99758 -0.13975
 O134 O -0.07416 1.00220 -0.14016
 Zr135 Zr 0.00002 0.99993 -0.09585
 O136 O 0.04928 0.95073 -0.04927
 O137 O -0.04912 1.04925 -0.04941
 C138 C -0.12456 1.00349 -0.12384
 C139 C 0.12453 0.99635 -0.12321
 C140 C -0.00297 1.12335 -0.12459
 C141 C 0.00301 0.87644 -0.12486
 H142 H 0.07279 1.07225 -0.07224
 O143 O 0.04931 1.04925 -0.04907
 H144 H -0.07269 0.92765 -0.07282
 O145 O -0.04916 0.95069 -0.04946
 O146 O 0.14028 1.00255 0.07358
 O147 O -0.13992 0.99762 0.07274
 O148 O 0.07457 1.13968 0.00268
 O149 O 0.07428 0.86054 -0.00209
 O150 O -0.07430 0.86038 0.00194
 O151 O -0.07397 1.13952 -0.00212
 O152 O 0.00226 1.07327 0.14065
 O153 O -0.00183 0.92700 0.14044
 O154 O 0.00236 1.13973 0.07466
 O155 O -0.00199 0.86044 0.07425
 O156 O 0.14036 1.07305 0.00272
 O157 O -0.13994 1.07277 -0.00237
 O158 O -0.14011 0.92701 0.00178
 O159 O 0.14020 0.92734 -0.00181
 O160 O 0.07438 1.00257 0.14034
 O161 O -0.07397 0.99769 0.13992
 Zr162 Zr 0.09548 1.00014 0.00035
 Zr163 Zr -0.09524 0.99993 -0.00019
 Zr164 Zr 0.00024 1.09588 0.00023
 Zr165 Zr 0.00003 0.90418 -0.00002
 Zr166 Zr 0.00018 1.00010 0.09603
 O167 O -0.04916 0.95071 0.04932
 O168 O 0.04948 1.04943 0.04974
 C169 C 0.12479 1.00389 0.12404
 C170 C -0.12440 0.99631 0.12328
 C171 C 0.12498 1.12332 0.00398
 C172 C 0.12472 0.87703 -0.00317
 C173 C -0.12471 0.87673 0.00303
 C174 C -0.12443 1.12308 -0.00349
 C175 C 0.00345 1.12355 0.12514
 C176 C -0.00304 0.87670 0.12476
 H177 H -0.07240 1.07223 0.07260
 O178 O -0.04897 1.04924 0.04937
 H179 H 0.07276 0.92795 0.07281
 O180 O 0.04929 0.95091 0.04952
 C181 C 0.25181 1.00958 0.24493
 C182 C 0.26500 1.01083 0.18958
 C183 C 0.22363 1.00937 0.15031
 C184 C 0.32933 1.00683 0.31985
 C185 C 0.15554 1.00588 0.22183
 C186 C 0.19708 1.00733 0.26103
 C187 C 0.29440 1.00874 0.28525
 C188 C 0.16837 1.00652 0.16595
 H189 H 0.30726 1.01244 0.17675
 H190 H 0.23508 1.01015 0.10771
 H191 H 0.11353 1.00381 0.23531
 H192 H 0.18654 1.00620 0.30389
 C193 C -0.25162 0.99034 0.24298
 C194 C -0.19696 0.99316 0.25963
 C195 C -0.15532 0.99472 0.22082
 C196 C -0.32956 0.99274 0.31690
 C197 C -0.22321 0.99022 0.14866
 C198 C -0.26465 0.98865 0.18751
 C199 C -0.29439 0.99100 0.28282
 C200 C -0.16801 0.99363 0.16483
 H201 H -0.18654 0.99463 0.30259
 H202 H -0.11336 0.99723 0.23469
 H203 H -0.23456 0.98906 0.10595
 H204 H -0.30687 0.98657 0.17427
 C205 C -0.25166 1.00961 -0.24453
 C206 C -0.26478 1.01073 -0.18916
 C207 C -0.22338 1.00907 -0.14996
 C208 C -0.32940 1.00743 -0.31923
 C209 C -0.15540 1.00560 -0.22159
 C210 C -0.19697 1.00725 -0.26073
 C211 C -0.29434 1.00907 -0.28477
 C212 C -0.16816 1.00615 -0.16569
 H213 H -0.30701 1.01243 -0.17626
 H214 H -0.23478 1.00979 -0.10734
 H215 H -0.11342 1.00349 -0.23513
 H216 H -0.18650 1.00622 -0.30361
 C217 C 0.25101 0.99016 -0.24368
 C218 C 0.19621 0.99203 -0.25994
 C219 C 0.15487 0.99371 -0.22086
 C220 C 0.32806 0.99232 -0.31852
 C221 C 0.22328 0.99123 -0.14913
 C222 C 0.26447 0.98955 -0.18828
 C223 C 0.29338 0.99068 -0.28394
 C224 C 0.16796 0.99367 -0.16494
 H225 H 0.18547 0.99267 -0.30283
 H226 H 0.11280 0.99543 -0.23448
 H227 H 0.23492 0.99093 -0.10648
 H228 H 0.30680 0.98823 -0.17533
 C229 C 0.25207 1.24375 0.00946
 C230 C 0.26532 1.18867 0.01040
 C231 C 0.22398 1.14956 0.00897
 C232 C 0.32944 1.31861 0.00731
 C233 C 0.15578 1.22061 0.00604
 C234 C 0.19726 1.25965 0.00747
 C235 C 0.29463 1.28404 0.00889
 C236 C 0.16865 1.16503 0.00646
 H237 H 0.30762 1.17593 0.01183
 H238 H 0.23550 1.10720 0.00954
 H239 H 0.11374 1.23402 0.00422
 H240 H 0.18658 1.30224 0.00658
 C241 C 0.25174 0.75708 -0.00844
 C242 C 0.26500 0.81222 -0.00927
 C243 C 0.22368 0.85116 -0.00787
 C244 C 0.32921 0.68263 -0.00639
 C245 C 0.15546 0.77984 -0.00518
 C246 C 0.19693 0.74096 -0.00657
 C247 C 0.29432 0.71699 -0.00791
 C248 C 0.16835 0.83547 -0.00552
 H249 H 0.30729 0.82513 -0.01060
 H250 H 0.23522 0.89356 -0.00838
 H251 H 0.11342 0.76627 -0.00348
 H252 H 0.18625 0.69832 -0.00578
 C253 C -0.25171 0.75622 0.00803
 C254 C -0.26501 0.81130 0.00885
 C255 C -0.22370 0.85045 0.00753
 C256 C -0.32897 0.68120 0.00588
 C257 C -0.15545 0.77944 0.00494
 C258 C -0.19689 0.74037 0.00626
 C259 C -0.29422 0.71587 0.00744
 C260 C -0.16836 0.83501 0.00527
 H261 H -0.30731 0.82401 0.01011
 H262 H -0.23526 0.89280 0.00803
 H263 H -0.11340 0.76605 0.00332
 H264 H -0.18618 0.69778 0.00548
 C265 C -0.25104 1.24345 -0.00886
 C266 C -0.19616 1.25935 -0.00694
 C267 C -0.15485 1.22033 -0.00553
 C268 C -0.32799 1.31842 -0.00683
 C269 C -0.22335 1.14925 -0.00831
 C270 C -0.26453 1.18836 -0.00972
 C271 C -0.29340 1.28378 -0.00834
 C272 C -0.16795 1.16474 -0.00589
 H273 H -0.18530 1.30196 -0.00613
 H274 H -0.11275 1.23376 -0.00379
 H275 H -0.23505 1.10689 -0.00883
 H276 H -0.30688 1.17562 -0.01109
 C277 C 0.00790 1.24458 0.25215
 C278 C 0.00661 1.26027 0.19729
 C279 C 0.00548 1.22109 0.15587
 C280 C 0.00574 1.31960 0.32969
 C281 C 0.00726 1.15023 0.22413
 C282 C 0.00839 1.18947 0.26539
 C283 C 0.00727 1.28504 0.29474
 C284 C 0.00553 1.16549 0.16877
 H285 H 0.00609 1.30284 0.18650
 H286 H 0.00425 1.23441 0.11384
 H287 H 0.00748 1.10790 0.23575
 H288 H 0.00927 1.17678 0.30766
 C289 C -0.00736 1.24438 -0.25107
 C290 C -0.00777 1.18926 -0.26457
 C291 C -0.00665 1.15001 -0.22349
 C292 C -0.00532 1.31951 -0.32818
 C293 C -0.00500 1.22087 -0.15491
 C294 C -0.00613 1.26005 -0.19613
 C295 C -0.00679 1.28488 -0.29344
 C296 C -0.00499 1.16527 -0.16805
 H297 H -0.00861 1.17658 -0.30690
 H298 H -0.00681 1.10768 -0.23530
 H299 H -0.00383 1.23419 -0.11282
 H300 H -0.00567 1.30262 -0.18514
 C301 C 0.00746 0.75495 -0.25137
 C302 C 0.00764 0.81002 -0.26487
 C303 C 0.00647 0.84944 -0.22378
 C304 C 0.00551 0.67938 -0.32840
 C305 C 0.00526 0.77884 -0.15523
 C306 C 0.00642 0.73950 -0.19646
 C307 C 0.00694 0.71424 -0.29373
 C308 C 0.00502 0.83439 -0.16836
 H309 H 0.00832 0.82252 -0.30719
 H310 H 0.00646 0.89172 -0.23557
 H311 H 0.00426 0.76568 -0.11315
 H312 H 0.00615 0.69697 -0.18548
 C313 C -0.00768 0.75574 0.25126
 C314 C -0.00658 0.74003 0.19635
 C315 C -0.00537 0.77919 0.15511
 C316 C -0.00585 0.68074 0.32849
 C317 C -0.00664 0.85009 0.22365
 C318 C -0.00786 0.81087 0.26474
 C319 C -0.00722 0.71529 0.29368
 C320 C -0.00513 0.83480 0.16823
 H321 H -0.00631 0.69745 0.18539
 H322 H -0.00431 0.76585 0.11303
 H323 H -0.00663 0.89242 0.23543
 H324 H -0.00859 0.82357 0.30705
   
