data_POSCAR
  _audit_creation_date              2014-09-24
  _audit_creation_method            'ToBaCCo'
  _symmetry_space_group_name_H-M    'P1'
  _symmetry_Int_Tables_number       1
  _symmetry_cell_setting            triclinic
  loop_
  _symmetry_equiv_pos_as_xyz
 x,y,z
_cell_length_a 23.9334
_cell_length_b 23.9826
_cell_length_c 23.9990
_cell_angle_alpha 90.184600
_cell_angle_beta 90.188400
_cell_angle_gamma 90.029400
loop_
  _atom_site_label
  _atom_site_type_symbol
  _atom_site_fract_x
  _atom_site_fract_y
  _atom_site_fract_z
C1 C 0.53069 0.98040 -0.50286
 C2 C 0.47481 0.98935 -0.50184
 C3 C 0.44081 0.99934 -0.55279
 C4 C 0.44334 0.98829 -0.44868
 C5 C 0.56380 0.97514 -0.45112
 C6 C 0.56415 0.98033 -0.55443
 C7 C 0.40372 1.04438 -0.55330
 C8 C 0.36383 1.04980 -0.59535
 C9 C 0.35913 1.01000 -0.63893
 C10 C 0.39962 0.96664 -0.63984
 C11 C 0.43927 0.96111 -0.59702
 C12 C 0.44871 1.03147 -0.40941
 C13 C 0.41423 1.03294 -0.36246
 C14 C 0.37316 0.99178 -0.35463
 C15 C 0.36858 0.94817 -0.39364
 C16 C 0.40329 0.94653 -0.44025
 C17 C 0.57742 0.92250 -0.42978
 C18 C 0.61635 0.91771 -0.38641
 C19 C 0.64139 0.96562 -0.36350
 C20 C 0.62614 1.01830 -0.38381
 C21 C 0.58824 1.02294 -0.42778
 C22 C 0.58938 0.93054 -0.57191
 C23 C 0.63242 0.93139 -0.61099
 C24 C 0.65148 0.98219 -0.63296
 C25 C 0.62399 1.03180 -0.61758
 C26 C 0.58070 1.03084 -0.57849
 H27 H 0.40469 1.07500 -0.52001
 H28 H 0.33778 1.08654 -0.59358
 H29 H 0.39845 0.93360 -0.67051
 H30 H 0.46659 0.92515 -0.59689
 H31 H 0.47805 1.06510 -0.41614
 H32 H 0.41808 1.06744 -0.33348
 H33 H 0.39817 0.91327 -0.47049
 H34 H 0.55948 0.88518 -0.44802
 H35 H 0.62756 0.87670 -0.37129
 H36 H 0.64549 1.05573 -0.36731
 H37 H 0.57917 1.06373 -0.44482
 H38 H 0.57749 0.89123 -0.55329
 H39 H 0.65188 0.89239 -0.62287
 H40 H 0.63791 1.07165 -0.63342
 H41 H 0.56255 1.06977 -0.56443
 H42 H 0.33765 0.91564 -0.38838
 C43 C -0.49757 1.47219 0.00182
 C44 C -0.49498 1.52845 0.00671
 C45 C -0.44094 1.55839 0.00600
 C46 C -0.54480 1.56467 0.01020
 C47 C -0.55102 1.44079 -0.00117
 C48 C -0.44568 1.43860 0.00083
 C49 C -0.40216 1.55311 0.04967
 C50 C -0.35358 1.58558 0.05005
 C51 C -0.34375 1.62396 0.00705
 C52 C -0.38182 1.62752 -0.03744
 C53 C -0.43008 1.59520 -0.03780
 C54 C -0.54859 1.60257 0.05465
 C55 C -0.58884 1.64445 0.05425
 C56 C -0.62602 1.64937 0.00923
 C57 C -0.62393 1.60981 -0.03417
 C58 C -0.58334 1.56784 -0.03383
 C59 C -0.55837 1.40128 -0.04361
 C60 C -0.60569 1.36740 -0.04507
 C61 C -0.64740 1.37163 -0.00372
 C62 C -0.64044 1.41301 0.03794
 C63 C -0.59260 1.44668 0.03946
 C64 C -0.40706 1.44333 -0.04285
 C65 C -0.35775 1.41205 -0.04209
 C66 C -0.34677 1.37533 0.00212
 C67 C -0.38543 1.37131 0.04593
 C68 C -0.43454 1.40241 0.04509
 H69 H -0.41034 1.52516 0.08404
 H70 H -0.32498 1.58248 0.08496
 H71 H -0.37475 1.65623 -0.07144
 H72 H -0.45956 1.59952 -0.07186
 H73 H -0.51893 1.60088 0.08881
 H74 H -0.59021 1.67372 0.08867
 H75 H -0.58026 1.53965 -0.06903
 H76 H -0.52705 1.39638 -0.07574
 H77 H -0.60968 1.33881 -0.07979
 H78 H -0.66994 1.41749 0.07168
 H79 H -0.58721 1.47599 0.07348
 H80 H -0.41532 1.47099 -0.07749
 H81 H -0.32901 1.41537 -0.07667
 H82 H -0.37771 1.34385 0.08085
 H83 H -0.46375 1.39869 0.07927
 H84 H -0.65197 1.61293 -0.06953
 C85 C -0.01890 0.47351 0.49698
 C86 C -0.02588 0.52969 0.49887
 C87 C -0.02977 0.56055 0.55210
 C88 C -0.02602 0.56553 0.44870
 C89 C -0.01432 0.44242 0.44335
 C90 C -0.01654 0.43973 0.54892
 C91 C -0.08142 0.56866 0.57804
 C92 C -0.08648 0.60704 0.62181
 C93 C -0.03956 0.63732 0.64127
 C94 C 0.01269 0.62643 0.61621
 C95 C 0.01717 0.58933 0.57168
 C96 C -0.07168 0.60091 0.43913
 C97 C -0.06842 0.64318 0.39952
 C98 C -0.01926 0.65116 0.36878
 C99 C 0.02553 0.61387 0.37637
 C100 C 0.02224 0.57146 0.41622
 C101 C -0.05483 0.44733 0.40127
 C102 C -0.05182 0.41441 0.35300
 C103 C -0.00859 0.37476 0.34583
 C104 C 0.03264 0.37154 0.38809
 C105 C 0.02956 0.40457 0.43598
 C106 C 0.02554 0.44798 0.58892
 C107 C 0.02859 0.41410 0.63626
 C108 C -0.00966 0.36988 0.64430
 C109 C -0.05202 0.36244 0.60363
 C110 C -0.05519 0.39671 0.55677
 H111 H -0.11821 0.54706 0.56283
 H112 H -0.12718 0.61229 0.64058
 H113 H 0.04980 0.64958 0.62770
 H114 H 0.05707 0.58450 0.55101
 H115 H -0.10927 0.59707 0.46382
 H116 H -0.10401 0.67045 0.39376
 H117 H 0.05828 0.54523 0.42376
 H118 H -0.08990 0.47534 0.40654
 H119 H -0.08559 0.41811 0.32322
 H120 H 0.06853 0.34448 0.38418
 H121 H 0.06166 0.40044 0.46764
 H122 H 0.05711 0.47967 0.58276
 H123 H 0.06313 0.42100 0.66462
 H124 H -0.08423 0.33120 0.60829
 H125 H -0.08810 0.38968 0.52645
 H126 H 0.06405 0.61918 0.35344
 O127 O -0.08349 0.99588 -0.14070
 O128 O -0.06446 1.00600 0.14541
 O129 O -0.14269 0.92902 0.00484
 O130 O -0.13865 1.07785 0.00712
 O131 O -0.07096 1.14591 0.00202
 O132 O -0.07721 0.85885 0.00142
 O133 O -0.13564 1.00858 0.08041
 O134 O -0.14616 1.00135 -0.06811
 Zr135 Zr -0.09497 1.00252 0.00334
 O136 O -0.04345 1.05272 0.05033
 O137 O -0.05323 0.94984 -0.04968
 C138 C -0.13374 0.99765 -0.12051
 C139 C -0.11676 1.00990 0.13102
 C140 C -0.12826 0.87699 0.00299
 C141 C -0.12254 1.12933 0.00658
 H142 H -0.06929 0.92874 0.07710
 O143 O -0.04625 0.95154 0.05171
 H144 H -0.07547 1.07475 -0.07291
 O145 O -0.05018 1.05112 -0.05050
 O146 O 0.08746 0.99825 0.13555
 O147 O 0.06779 0.99800 -0.15053
 O148 O 0.00636 0.85773 0.07317
 O149 O 0.00799 1.14507 0.07180
 O150 O 0.00128 1.14290 -0.08098
 O151 O -0.00630 0.85556 -0.07546
 O152 O 0.14321 0.92058 -0.00929
 O153 O 0.14666 1.07201 -0.01496
 O154 O 0.07292 0.85506 -0.00437
 O155 O 0.08095 1.14230 -0.01058
 O156 O 0.01140 0.92559 0.14129
 O157 O -0.01058 0.92199 -0.14479
 O158 O -0.00572 1.07280 -0.14682
 O159 O 0.01236 1.07706 0.13963
 O160 O 0.15047 0.99469 0.06304
 O161 O 0.14035 0.99758 -0.08712
 Zr162 Zr 0.00858 1.00116 0.09551
 Zr163 Zr -0.00468 0.99846 -0.10065
 Zr164 Zr -0.00059 0.90246 -0.00153
 Zr165 Zr 0.00422 1.09906 -0.00400
 Zr166 Zr 0.09986 0.99773 -0.00901
 O167 O 0.05013 1.04893 -0.05706
 O168 O 0.05468 0.94903 0.04518
 C169 C 0.13779 0.99510 0.11558
 C170 C 0.12053 0.99786 -0.13758
 C171 C 0.01090 0.87394 0.12450
 C172 C 0.01124 1.12862 0.12337
 C173 C -0.00329 1.12486 -0.13208
 C174 C -0.00955 0.87089 -0.12705
 C175 C 0.12495 0.86952 -0.00725
 C176 C 0.13188 1.12411 -0.01504
 H177 H 0.06954 0.92353 -0.08034
 O178 O 0.04765 0.94803 -0.05546
 H179 H 0.08279 1.07326 0.06554
 O180 O 0.05661 1.04994 0.04363
 C181 C 0.26588 1.04137 0.33528
 C182 C 0.31624 1.01258 0.32289
 C183 C 0.31946 0.98577 0.27013
 C184 C 0.27479 0.98791 0.23191
 C185 C 0.22510 1.01607 0.24619
 C186 C 0.22122 1.04268 0.29781
 C187 C 0.18012 1.01751 0.20850
 C188 C 0.18469 0.99239 0.15577
 C189 C 0.23471 0.96530 0.14140
 C190 C 0.27918 0.96268 0.17925
 H191 H 0.35746 0.96542 0.25677
 H192 H 0.18325 1.06426 0.30959
 H193 H 0.14201 1.03916 0.21976
 H194 H 0.31704 0.94106 0.16725
 H195 H 0.25847 1.06044 0.37542
 H196 H 0.23920 0.94550 0.10103
 C197 C -0.25221 0.94925 0.34145
 C198 C -0.29867 0.98349 0.33022
 C199 C -0.29705 1.01910 0.28393
 C200 C -0.25042 1.01966 0.24866
 C201 C -0.20421 0.98454 0.25985
 C202 C -0.20542 0.94983 0.30668
 C203 C -0.15850 0.98359 0.22308
 C204 C -0.15947 1.01625 0.17465
 C205 C -0.20498 1.05191 0.16482
 C206 C -0.24985 1.05392 0.20160
 H207 H -0.33269 1.04533 0.27446
 H208 H -0.17046 0.92272 0.31613
 H209 H -0.12373 0.95560 0.23058
 H210 H -0.28470 1.08129 0.19249
 H211 H -0.25184 0.92223 0.37750
 H212 H -0.20613 1.07774 0.12797
 C213 C -0.26768 0.92669 -0.33002
 C214 C -0.31417 0.96119 -0.32087
 C215 C -0.31621 0.99449 -0.27272
 C216 C -0.27172 0.99435 -0.23461
 C217 C -0.22409 0.96106 -0.24513
 C218 C -0.22280 0.92683 -0.29259
 C219 C -0.17857 0.96283 -0.20812
 C220 C -0.18086 0.99625 -0.16003
 C221 C -0.22897 1.02792 -0.14919
 C222 C -0.27383 1.02742 -0.18644
 H223 H -0.35225 1.02084 -0.26531
 H224 H -0.18685 0.90073 -0.30110
 H225 H -0.14180 0.93771 -0.21622
 H226 H -0.31012 1.05293 -0.17762
 H227 H -0.26528 0.90105 -0.36718
 H228 H -0.23144 1.05389 -0.11225
 C229 C 0.35189 1.00878 -0.25352
 C230 C 0.33328 0.99565 -0.30760
 C231 C 0.27597 0.98668 -0.31698
 C232 C 0.23772 0.99034 -0.27302
 C233 C 0.25684 1.00280 -0.21861
 C234 C 0.31402 1.01211 -0.20934
 C235 C 0.21848 1.00562 -0.17449
 C236 C 0.16110 0.99646 -0.18414
 C237 C 0.14271 0.98485 -0.23871
 C238 C 0.18063 0.98170 -0.28264
 H239 H 0.26105 0.97753 -0.35873
 H240 H 0.32946 1.02184 -0.16794
 H241 H 0.23336 1.01497 -0.13278
 H242 H 0.16528 0.97224 -0.32414
 H243 H 0.39587 1.01569 -0.24533
 H244 H 0.09892 0.97743 -0.24750
 C245 C 0.25484 1.34925 0.02130
 C246 C 0.30633 1.33431 -0.00333
 C247 C 0.31092 1.28029 -0.02675
 C248 C 0.26622 1.24256 -0.02524
 C249 C 0.21513 1.25846 -0.00071
 C250 C 0.20984 1.31198 0.02220
 C251 C 0.17064 1.22020 0.00132
 C252 C 0.17723 1.16576 -0.01974
 C253 C 0.22838 1.15055 -0.04405
 C254 C 0.27231 1.18864 -0.04706
 H255 H 0.35019 1.26581 -0.04372
 H256 H 0.17088 1.32504 0.04104
 H257 H 0.13156 1.23228 0.02063
 H258 H 0.31127 1.17570 -0.06600
 H259 H 0.24813 1.39049 0.03836
 H260 H 0.23445 1.10906 -0.06094
 C261 C 0.35296 0.75096 0.02097
 C262 C 0.33469 0.69694 0.00689
 C263 C 0.27886 0.68863 -0.00899
 C264 C 0.24141 0.73352 -0.00992
 C265 C 0.26005 0.78769 0.00457
 C266 C 0.31602 0.79597 0.01969
 C267 C 0.22228 0.83245 0.00435
 C268 C 0.16587 0.82349 -0.00929
 C269 C 0.14800 0.76944 -0.02396
 C270 C 0.18542 0.72497 -0.02447
 H271 H 0.26431 0.64705 -0.01942
 H272 H 0.33113 0.83714 0.03083
 H273 H 0.23652 0.87382 0.01592
 H274 H 0.17044 0.68380 -0.03579
 H275 H 0.39609 0.75844 0.03258
 H276 H 0.10487 0.76139 -0.03519
 C277 C -0.24233 0.64567 0.02376
 C278 C -0.29654 0.66352 0.01013
 C279 C -0.30621 0.72010 -0.00090
 C280 C -0.26235 0.75847 0.00059
 C281 C -0.20761 0.74032 0.01334
 C282 C -0.19806 0.68381 0.02514
 C283 C -0.16361 0.77905 0.01404
 C284 C -0.17397 0.83564 0.00263
 C285 C -0.22880 0.85295 -0.00955
 C286 C -0.27252 0.81473 -0.01065
 H287 H -0.34819 0.73437 -0.01030
 H288 H -0.15643 0.66914 0.03519
 H289 H -0.12160 0.76521 0.02378
 H290 H -0.31430 0.82917 -0.02048
 H291 H -0.23414 0.60213 0.03238
 H292 H -0.23798 0.89615 -0.01887
 C293 C -0.24421 1.35774 -0.01423
 C294 C -0.29737 1.33821 0.00117
 C295 C -0.30399 1.28201 0.01539
 C296 C -0.25853 1.24561 0.01462
 C297 C -0.20495 1.26516 -0.00053
 C298 C -0.19823 1.32151 -0.01483
 C299 C -0.15960 1.22774 -0.00188
 C300 C -0.16793 1.17106 0.01085
 C301 C -0.22175 1.15283 0.02599
 C302 C -0.26635 1.18966 0.02815
 H303 H -0.34503 1.26621 0.02611
 H304 H -0.15763 1.33745 -0.02668
 H305 H -0.11855 1.24234 -0.01401
 H306 H -0.30721 1.17412 0.03977
 H307 H -0.23817 1.40108 -0.02520
 H308 H -0.22991 1.10957 0.03579
 C309 C -0.03333 1.35220 0.24773
 C310 C -0.00742 1.33809 0.29888
 C311 C 0.01879 1.28535 0.30247
 C312 C 0.01857 1.24804 0.25734
 C313 C -0.00753 1.26292 0.20671
 C314 C -0.03306 1.31529 0.20232
 C315 C -0.00856 1.22468 0.16194
 C316 C 0.01511 1.17128 0.16804
 C317 C 0.04125 1.15740 0.21870
 C318 C 0.04322 1.19539 0.26271
 H319 H 0.03693 1.27126 0.34129
 H320 H -0.05312 1.32771 0.16376
 H321 H -0.02919 1.23575 0.12325
 H322 H 0.06349 1.18325 0.30125
 H323 H -0.05250 1.39254 0.24159
 H324 H 0.06027 1.11684 0.22444
 C325 C 0.02022 1.35029 -0.25855
 C326 C -0.00501 1.33319 -0.30924
 C327 C -0.02486 1.27777 -0.31275
 C328 C -0.01973 1.24092 -0.26778
 C329 C 0.00503 1.25890 -0.21735
 C330 C 0.02478 1.31379 -0.21324
 C331 C 0.01002 1.22147 -0.17235
 C332 C -0.00854 1.16596 -0.17795
 C333 C -0.03287 1.14892 -0.22873
 C334 C -0.03856 1.18593 -0.27295
 H335 H -0.04202 1.26170 -0.35137
 H336 H 0.04378 1.32859 -0.17491
 H337 H 0.02906 1.23517 -0.13361
 H338 H -0.05763 1.17138 -0.31136
 H339 H 0.03478 1.39258 -0.25260
 H340 H -0.04816 1.10675 -0.23430
 C341 C -0.09417 0.71095 -0.31174
 C342 C -0.04464 0.67933 -0.31728
 C343 C 0.00081 0.69241 -0.28195
 C344 C -0.00224 0.73657 -0.24381
 C345 C -0.05121 0.76932 -0.24061
 C346 C -0.09712 0.75574 -0.27435
 C347 C -0.05337 0.81466 -0.20338
 C348 C -0.00767 0.82604 -0.16843
 C349 C 0.04017 0.79248 -0.17091
 C350 C 0.04316 0.74841 -0.20870
 H351 H 0.03845 0.66735 -0.28271
 H352 H -0.13516 0.78016 -0.27228
 H353 H -0.09068 0.84014 -0.20061
 H354 H 0.08086 0.72345 -0.21030
 H355 H -0.12991 0.70354 -0.33848
 H356 H 0.07547 0.80076 -0.14369
 C357 C -0.03467 0.75221 0.34687
 C358 C -0.01431 0.69956 0.33067
 C359 C 0.01030 0.69346 0.27798
 C360 C 0.01329 0.73891 0.24140
 C361 C -0.00788 0.79153 0.25785
 C362 C -0.03137 0.79778 0.31089
 C363 C -0.00644 0.83655 0.22049
 C364 C 0.01468 0.82912 0.16644
 C365 C 0.03643 0.77683 0.15097
 C366 C 0.03606 0.73229 0.18816
 H367 H 0.02571 0.65302 0.26485
 H368 H -0.04771 0.83773 0.32434
 H369 H -0.02373 0.87654 0.23266
 H370 H 0.05261 0.69237 0.17488
 H371 H -0.05294 0.75823 0.38767
 H372 H 0.05337 0.77020 0.10966
   
