data_POSCAR
  _audit_creation_date              2014-09-24
  _audit_creation_method            'ToBaCCo'
  _symmetry_space_group_name_H-M    'P1'
  _symmetry_Int_Tables_number       1
  _symmetry_cell_setting            triclinic
  loop_
  _symmetry_equiv_pos_as_xyz
 x,y,z
_cell_length_a 27.9115
_cell_length_b 26.8462
_cell_length_c 27.5144
_cell_angle_alpha 84.544700
_cell_angle_beta 93.880000
_cell_angle_gamma 94.425800
loop_
  _atom_site_label
  _atom_site_type_symbol
  _atom_site_fract_x
  _atom_site_fract_y
  _atom_site_fract_z
C1 C 0.32306 0.32235 0.23946
 H2 H 0.32873 0.31710 0.27885
 C3 C 0.35682 0.35170 0.21186
 H4 H 0.38846 0.36922 0.23006
 C5 C 0.27589 0.30448 0.16748
 H6 H 0.24540 0.28482 0.14990
 C7 C 0.30810 0.33440 0.13863
 H8 H 0.30176 0.33776 0.09922
 N9 N 0.28356 0.29935 0.21704
 C10 C 0.17518 0.27028 0.32561
 H11 H 0.16957 0.22987 0.32678
 C12 C 0.14853 0.29686 0.35422
 H13 H 0.12291 0.27647 0.37794
 C14 C 0.21581 0.34572 0.29334
 H15 H 0.24156 0.36466 0.26902
 C16 C 0.18989 0.37378 0.32125
 H17 H 0.19593 0.41425 0.31789
 Zn18 Zn 0.24205 0.25675 0.25747
 N19 N 0.20831 0.29490 0.29628
 C20 C 0.28232 0.20865 0.34674
 N21 N 0.28162 0.21287 0.29703
 C22 C 0.31083 0.18661 0.27304
 C23 C 0.34172 0.15381 0.29902
 C24 C 0.31267 0.17609 0.37425
 C25 C 0.16566 0.24341 0.18607
 C26 C 0.13492 0.21660 0.15406
 C27 C 0.16325 0.13962 0.19467
 C28 C 0.19434 0.16791 0.22500
 N29 N 0.19612 0.21893 0.21920
 H30 H 0.25947 0.23050 0.36518
 H31 H 0.31010 0.19133 0.23351
 H32 H 0.36505 0.13380 0.27909
 H33 H 0.31219 0.17259 0.41374
 H34 H 0.16669 0.28395 0.18320
 H35 H 0.11255 0.23650 0.12617
 H36 H 0.16336 0.09909 0.19851
 H37 H 0.21761 0.14899 0.25256
 C38 C 0.15576 0.34936 0.35230
 C39 C 0.34930 0.35799 0.16083
 C40 C 0.13415 0.16412 0.15789
 C41 C 0.34280 0.14797 0.35036
 C42 C 0.83828 0.80060 0.22893
 H43 H 0.85088 0.77901 0.26183
 C44 C 0.87142 0.82935 0.20029
 H45 H 0.90893 0.82995 0.21305
 C46 C 0.77363 0.82733 0.17520
 H47 H 0.73540 0.82549 0.16530
 C48 C 0.80545 0.85693 0.14554
 H49 H 0.79045 0.87642 0.11248
 N50 N 0.79051 0.79943 0.21558
 C51 C 0.67788 0.76937 0.31955
 H52 H 0.67275 0.72887 0.32187
 C53 C 0.65092 0.79640 0.34744
 H54 H 0.62526 0.77635 0.37135
 C55 C 0.71856 0.84444 0.28657
 H56 H 0.74501 0.86307 0.26287
 C57 C 0.69247 0.87292 0.31391
 H58 H 0.69875 0.91337 0.31042
 Zn59 Zn 0.74671 0.75586 0.25180
 N60 N 0.71074 0.79361 0.28961
 C61 C 0.78226 0.70753 0.34302
 N62 N 0.78238 0.70908 0.29340
 C63 C 0.80993 0.67882 0.27191
 C64 C 0.83859 0.64548 0.30019
 C65 C 0.81038 0.67446 0.37282
 C66 C 0.65649 0.71709 0.20892
 C67 C 0.62730 0.68966 0.17608
 C68 C 0.69854 0.67249 0.13739
 C69 C 0.72622 0.70050 0.17062
 N70 N 0.70522 0.72100 0.20644
 H71 H 0.76111 0.73249 0.35972
 H72 H 0.81105 0.68153 0.23270
 H73 H 0.86119 0.62297 0.28201
 H74 H 0.80962 0.67366 0.41218
 H75 H 0.63998 0.73497 0.23633
 H76 H 0.58866 0.68699 0.17880
 H77 H 0.71659 0.65509 0.11051
 H78 H 0.76463 0.70607 0.16750
 C79 C 0.65801 0.84893 0.34478
 C80 C 0.85563 0.85774 0.15709
 C81 C 0.64833 0.66625 0.14007
 C82 C 0.83918 0.64292 0.35140
 C83 C 0.82031 0.31521 0.73566
 H84 H 0.82566 0.31074 0.77510
 C85 C 0.85432 0.34390 0.70791
 H86 H 0.88578 0.36183 0.72606
 C87 C 0.77357 0.29610 0.66377
 H88 H 0.74312 0.27621 0.64635
 C89 C 0.80610 0.32532 0.63473
 H90 H 0.80001 0.32807 0.59529
 N91 N 0.78080 0.29207 0.71337
 C92 C 0.67286 0.26601 0.82222
 H93 H 0.66620 0.22573 0.82275
 C94 C 0.64677 0.29293 0.85099
 H95 H 0.61960 0.27302 0.87318
 C96 C 0.71531 0.34081 0.79102
 H97 H 0.74179 0.35933 0.76730
 C98 C 0.69024 0.36919 0.81942
 H99 H 0.69842 0.40937 0.81779
 Zn100 Zn 0.73906 0.25088 0.75455
 N101 N 0.70641 0.29016 0.79313
 C102 C 0.78371 0.20922 0.84399
 N103 N 0.77859 0.20775 0.79473
 C104 C 0.80410 0.17709 0.77167
 C105 C 0.83521 0.14505 0.79828
 C106 C 0.81527 0.17853 0.87218
 C107 C 0.66278 0.23658 0.68299
 C108 C 0.63196 0.20914 0.65154
 C109 C 0.65831 0.13277 0.69525
 C110 C 0.68933 0.16162 0.72511
 N111 N 0.69236 0.21257 0.71738
 H112 H 0.76358 0.23451 0.86156
 H113 H 0.80043 0.17786 0.73220
 H114 H 0.85582 0.12313 0.77742
 H115 H 0.81650 0.18001 0.91135
 H116 H 0.66460 0.27715 0.67868
 H117 H 0.61026 0.22866 0.62278
 H118 H 0.65776 0.09224 0.70065
 H119 H 0.71155 0.14309 0.75387
 C120 C 0.65529 0.34530 0.84987
 C121 C 0.84716 0.34930 0.65683
 C122 C 0.63026 0.15656 0.65704
 C123 C 0.84191 0.14501 0.84982
 C124 C 0.31969 0.82201 0.73312
 H125 H 0.32358 0.82385 0.77231
 C126 C 0.35277 0.84927 0.70308
 H127 H 0.38217 0.87191 0.71951
 C128 C 0.27804 0.78820 0.66447
 H129 H 0.24989 0.76331 0.64944
 C130 C 0.31016 0.81480 0.63317
 H131 H 0.30514 0.81112 0.59428
 N132 N 0.28291 0.79260 0.71344
 C133 C 0.17640 0.77185 0.82441
 H134 H 0.17081 0.73137 0.82736
 C135 C 0.15050 0.79981 0.85236
 H136 H 0.12538 0.78049 0.87730
 C137 C 0.21620 0.84600 0.78829
 H138 H 0.24111 0.86391 0.76257
 C139 C 0.19113 0.87545 0.81566
 H140 H 0.19710 0.91589 0.81072
 Zn141 Zn 0.24107 0.75388 0.75645
 N142 N 0.20879 0.79515 0.79350
 C143 C 0.28258 0.71047 0.84724
 N144 N 0.27972 0.71059 0.79766
 C145 C 0.30609 0.68034 0.77486
 C146 C 0.33608 0.64747 0.80204
 C147 C 0.31228 0.67813 0.87594
 C148 C 0.16509 0.74025 0.68541
 C149 C 0.13359 0.71328 0.65424
 C150 C 0.15720 0.63646 0.69935
 C151 C 0.18911 0.66483 0.72887
 N152 N 0.19362 0.71569 0.72040
 H153 H 0.26207 0.73552 0.86464
 H154 H 0.30373 0.68186 0.73534
 H155 H 0.35711 0.62411 0.78303
 H156 H 0.31372 0.67803 0.91537
 H157 H 0.16862 0.78079 0.68018
 H158 H 0.11291 0.73308 0.62482
 H159 H 0.15532 0.59590 0.70519
 H160 H 0.21098 0.64605 0.75782
 C161 C 0.15777 0.85234 0.84823
 C162 C 0.34831 0.84569 0.65234
 C163 C 0.13014 0.66073 0.66064
 C164 C 0.33935 0.64589 0.85331
 C165 C 0.04779 -0.03016 -0.03654
 C166 C 0.07409 0.01020 -0.00636
 C167 C 0.04425 0.03535 0.01808
 C168 C -0.00923 0.01833 0.01038
 C169 C 0.01829 -0.06350 0.00083
 C170 C -0.01187 -0.03838 0.02497
 C171 C 0.01046 -0.00201 -0.06957
 C172 C -0.01959 0.02336 -0.04543
 H173 H 0.11270 0.01575 -0.00051
 H174 H -0.03296 0.03881 0.03103
 H175 H 0.02028 -0.10377 0.00655
 H176 H 0.00966 -0.00078 -0.10906
 C177 C 0.04373 0.46403 0.46861
 C178 C 0.06973 0.50502 0.49832
 C179 C 0.03979 0.53010 0.52268
 C180 C -0.01353 0.51246 0.51540
 C181 C 0.01479 0.43071 0.50649
 C182 C -0.01553 0.45586 0.53039
 C183 C 0.00574 0.49140 0.43555
 C184 C -0.02411 0.51683 0.45977
 H185 H 0.10831 0.51098 0.50415
 H186 H -0.03770 0.53292 0.53566
 H187 H 0.01671 0.39043 0.51234
 H188 H 0.00414 0.49215 0.39604
 C189 C 0.54522 -0.03727 0.46114
 C190 C 0.57120 0.00169 0.49324
 C191 C 0.54110 0.02577 0.51835
 C192 C 0.48768 0.00919 0.50950
 C193 C 0.51519 -0.07190 0.49701
 C194 C 0.48448 -0.04807 0.52188
 C195 C 0.50821 -0.00799 0.42871
 C196 C 0.47824 0.01650 0.45369
 H197 H 0.60978 0.00774 0.49906
 H198 H 0.46337 0.02940 0.52970
 H199 H 0.51886 -0.11192 0.50259
 H200 H 0.50749 -0.00515 0.38914
 C201 C 0.53974 0.45889 -0.03641
 C202 C 0.57014 0.49988 -0.01099
 C203 C 0.54456 0.52833 0.01476
 C204 C 0.49023 0.51369 0.01234
 C205 C 0.51171 0.42899 0.00445
 C206 C 0.48589 0.45760 0.02981
 C207 C 0.50070 0.48669 -0.06774
 C208 C 0.47519 0.51584 -0.04256
 H209 H 0.60904 0.50412 -0.01134
 H210 H 0.46919 0.53679 0.03331
 H211 H 0.50799 0.38845 0.00956
 H212 H 0.49437 0.48408 -0.10669
 C213 C 0.08122 -0.12962 -0.11637
 C214 C 0.13032 -0.11723 -0.12261
 C215 C 0.15286 -0.07550 -0.10100
 C216 C 0.12705 -0.04711 -0.07319
 C217 C 0.07796 -0.06007 -0.06594
 C218 C 0.05538 -0.10123 -0.08876
 H219 H 0.06254 -0.16089 -0.13350
 H220 H 0.19070 -0.06501 -0.10524
 H221 H 0.14597 -0.01489 -0.05834
 H222 H 0.01738 -0.11141 -0.08524
 C223 C 0.14972 0.42015 0.40448
 C224 C 0.12775 0.37852 0.38228
 C225 C 0.07873 0.36536 0.38847
 C226 C 0.05241 0.39308 0.41638
 C227 C 0.07438 0.43443 0.43936
 C228 C 0.12342 0.44795 0.43235
 H229 H 0.18749 0.43119 0.40055
 H230 H 0.06041 0.33415 0.37099
 H231 H 0.01450 0.38236 0.41985
 H232 H 0.14203 0.48024 0.44735
 C233 C 0.58043 -0.13413 0.37908
 C234 C 0.62971 -0.12155 0.37409
 C235 C 0.65166 -0.08038 0.39705
 C236 C 0.62516 -0.05279 0.42495
 C237 C 0.57591 -0.06599 0.43105
 C238 C 0.55388 -0.10651 0.40682
 H239 H 0.56219 -0.16496 0.36093
 H240 H 0.68962 -0.06973 0.39385
 H241 H 0.64376 -0.02099 0.44088
 H242 H 0.51580 -0.11689 0.40949
 C243 C 0.61468 0.35562 -0.07328
 C244 C 0.62725 0.37475 -0.12039
 C245 C 0.61263 0.42213 -0.13892
 C246 C 0.58516 0.44912 -0.11149
 C247 C 0.57027 0.42893 -0.06536
 C248 C 0.58692 0.38248 -0.04596
 H249 H 0.62685 0.32007 -0.05717
 H250 H 0.62174 0.43814 -0.17501
 H251 H 0.57525 0.48584 -0.12670
 H252 H 0.57934 0.36684 -0.00941
 C253 C -0.10618 0.12571 -0.07697
 C254 C -0.12666 0.11456 -0.12364
 C255 C -0.11258 0.07075 -0.14212
 C256 C -0.07904 0.04088 -0.11625
 C257 C -0.05753 0.05365 -0.07118
 C258 C -0.07191 0.09605 -0.05157
 H259 H -0.11347 0.15926 -0.06081
 H260 H -0.12879 0.05740 -0.17569
 H261 H -0.07038 0.00727 -0.13164
 H262 H -0.05546 0.10768 -0.01734
 C263 C -0.10339 0.62437 0.42426
 C264 C -0.12879 0.60887 0.38174
 C265 C -0.12139 0.56149 0.36690
 C266 C -0.08807 0.53122 0.39277
 C267 C -0.06167 0.54743 0.43431
 C268 C -0.07026 0.59385 0.45037
 H269 H -0.10775 0.66088 0.43635
 H270 H -0.14113 0.54791 0.33498
 H271 H -0.08285 0.49513 0.38017
 H272 H -0.05003 0.60748 0.48200
 C273 C 0.40039 0.12604 0.42226
 C274 C 0.37564 0.11314 0.37846
 C275 C 0.38351 0.06714 0.36088
 C276 C 0.41625 0.03547 0.38571
 C277 C 0.44170 0.04889 0.42886
 C278 C 0.43302 0.09417 0.44725
 H279 H 0.39563 0.16147 0.43646
 H280 H 0.36429 0.05554 0.32786
 H281 H 0.42157 0.00034 0.37117
 H282 H 0.45262 0.10582 0.48005
 C283 C 0.37530 0.56270 -0.13115
 C284 C 0.37154 0.61129 -0.11744
 C285 C 0.40010 0.62704 -0.07687
 C286 C 0.43286 0.59546 -0.05165
 C287 C 0.43775 0.54761 -0.06657
 C288 C 0.40803 0.53125 -0.10604
 H289 H 0.35303 0.54904 -0.16154
 H290 H 0.39838 0.66442 -0.06570
 H291 H 0.45566 0.60929 -0.02171
 H292 H 0.41022 0.49413 -0.11770
 C293 C -0.06346 -0.12974 0.12476
 C294 C -0.11097 -0.11510 0.12581
 C295 C -0.12429 -0.07337 0.09383
 C296 C -0.09184 -0.04806 0.06188
 C297 C -0.04528 -0.06380 0.06050
 C298 C -0.03132 -0.10461 0.09247
 H299 H -0.05120 -0.16225 0.14695
 H300 H -0.15937 -0.05894 0.09398
 H301 H -0.10365 -0.01673 0.03747
 H302 H 0.00456 -0.11735 0.09242
 C303 C -0.13160 0.41614 0.59074
 C304 C -0.11706 0.37849 0.62640
 C305 C -0.06849 0.36757 0.63156
 C306 C -0.03522 0.39295 0.60054
 C307 C -0.04987 0.43036 0.56466
 C308 C -0.09813 0.44228 0.56047
 H309 H -0.16889 0.42516 0.58628
 H310 H -0.05664 0.33846 0.65870
 H311 H 0.00193 0.38340 0.60450
 H312 H -0.11024 0.47075 0.53277
 C313 C 0.39930 -0.15012 0.58025
 C314 C 0.38372 -0.12708 0.61955
 C315 C 0.40192 -0.07790 0.62687
 C316 C 0.43468 -0.05226 0.59537
 C317 C 0.45020 -0.07530 0.55597
 C318 C 0.43192 -0.12455 0.54879
 H319 H 0.38646 -0.18819 0.57389
 H320 H 0.39026 -0.05892 0.65653
 H321 H 0.44794 -0.01456 0.60230
 H322 H 0.44212 -0.14329 0.51834
 C323 C 0.43334 0.37411 0.13439
 C324 C 0.38529 0.38680 0.13033
 C325 C 0.37126 0.42495 0.09494
 C326 C 0.40462 0.44951 0.06352
 C327 C 0.45216 0.43538 0.06628
 C328 C 0.46641 0.39784 0.10223
 H329 H 0.44478 0.34455 0.16124
 H330 H 0.33434 0.43525 0.09128
 H331 H 0.39281 0.47809 0.03579
 H332 H 0.50299 0.38655 0.10501
 C333 C 0.07231 0.09619 0.13578
 C334 C 0.10647 0.13498 0.12131
 C335 C 0.11740 0.14304 0.07204
 C336 C 0.09616 0.11129 0.03808
 C337 C 0.06281 0.07184 0.05271
 C338 C 0.05005 0.06524 0.10148
 H339 H 0.06366 0.08935 0.17373
 H340 H 0.14400 0.17250 0.06035
 H341 H 0.10635 0.11688 0.00055
 H342 H 0.02462 0.03472 0.11342
 C343 C 0.11292 0.63855 0.57515
 C344 C 0.10223 0.63107 0.62454
 C345 C 0.06806 0.59248 0.63949
 C346 C 0.04564 0.56112 0.60562
 C347 C 0.05822 0.56713 0.55679
 C348 C 0.09149 0.60643 0.54164
 H349 H 0.13952 0.66781 0.56301
 H350 H 0.05949 0.58610 0.67749
 H351 H 0.02027 0.53071 0.61796
 H352 H 0.10155 0.61158 0.50405
 C353 C 0.60931 0.13704 0.57097
 C354 C 0.60246 0.12642 0.62110
 C355 C 0.57247 0.08431 0.63672
 C356 C 0.55062 0.05267 0.60284
 C357 C 0.55923 0.06221 0.55311
 C358 C 0.58826 0.10483 0.53728
 H359 H 0.63274 0.16895 0.55817
 H360 H 0.56683 0.07537 0.67522
 H361 H 0.52895 0.01951 0.61573
 H362 H 0.59534 0.11257 0.49897
 C363 C 0.57876 0.60362 0.12285
 C364 C 0.61864 0.63437 0.10633
 C365 C 0.63146 0.63237 0.05800
 C366 C 0.60662 0.59880 0.02784
 C367 C 0.56793 0.56701 0.04503
 C368 C 0.55349 0.57050 0.09236
 H369 H 0.56819 0.60364 0.15998
 H370 H 0.66110 0.65639 0.04354
 H371 H 0.61790 0.59738 -0.00887
 H372 H 0.52403 0.54600 0.10660
   
