data_POSCAR
  _audit_creation_date              2014-09-24
  _audit_creation_method            'ToBaCCo'
  _symmetry_space_group_name_H-M    'P1'
  _symmetry_Int_Tables_number       1
  _symmetry_cell_setting            triclinic
  loop_
  _symmetry_equiv_pos_as_xyz
 x,y,z
_cell_length_a 43.4733
_cell_length_b 44.8220
_cell_length_c 44.3420
_cell_angle_alpha 89.876400
_cell_angle_beta 90.459800
_cell_angle_gamma 90.231700
loop_
  _atom_site_label
  _atom_site_type_symbol
  _atom_site_fract_x
  _atom_site_fract_y
  _atom_site_fract_z
C1 C 0.25058 0.24893 0.25368
 C2 C 0.75387 0.74601 0.24740
 C3 C 0.74653 0.25116 0.74732
 C4 C 0.24855 0.75491 0.75450
 C5 C 0.04046 0.04951 0.01001
 H6 H 0.04331 0.04819 -0.01416
 C7 C 0.05813 0.06967 0.02681
 H8 H 0.07453 0.08394 0.01543
 C9 C 0.01537 0.03269 0.05418
 H10 H -0.00155 0.01851 0.06475
 C11 C 0.03230 0.05277 0.07180
 H12 H 0.02869 0.05336 0.09592
 N13 N 0.02020 0.03095 0.02396
 C14 C 0.01306 -0.04217 -0.04044
 H15 H -0.01170 -0.04348 -0.04273
 C16 C 0.03164 -0.06151 -0.05680
 H17 H 0.02098 -0.07742 -0.07201
 C18 C 0.05691 -0.01959 -0.01791
 H19 H 0.06668 -0.00374 -0.00219
 C20 C 0.07637 -0.03844 -0.03391
 H21 H 0.10100 -0.03674 -0.03045
 Zn22 Zn -0.00160 0.00303 -0.00021
 N23 N 0.02589 -0.02151 -0.02174
 C24 C -0.02013 0.02568 -0.05733
 N25 N -0.02671 0.02492 -0.02738
 C26 C -0.05054 0.04080 -0.01597
 C27 C -0.06973 0.05721 -0.03512
 C28 C -0.03829 0.04241 -0.07719
 C29 C -0.01043 -0.03850 0.04595
 C30 C -0.02646 -0.05804 0.06473
 C31 C -0.07308 -0.04636 0.03721
 C32 C -0.05620 -0.02676 0.01916
 N33 N -0.02552 -0.02284 0.02413
 H34 H -0.00055 0.01364 -0.06583
 H35 H -0.05479 0.04042 0.00803
 H36 H -0.08886 0.06946 -0.02583
 H37 H -0.03288 0.04284 -0.10098
 H38 H 0.01413 -0.03558 0.04888
 H39 H -0.01410 -0.07019 0.08211
 H40 H -0.09754 -0.04897 0.03321
 H41 H -0.06763 -0.01501 0.00102
 C42 C 0.06376 -0.05971 -0.05373
 C43 C 0.05434 0.07125 0.05817
 C44 C -0.05822 -0.06208 0.06051
 C45 C -0.06361 0.05812 -0.06610
 C46 C 0.05234 0.54118 0.51481
 H47 H 0.05723 0.53714 0.49129
 C48 C 0.07059 0.56108 0.53132
 H49 H 0.08957 0.57237 0.52041
 C50 C 0.02111 0.53196 0.55743
 H51 H 0.00145 0.52101 0.56736
 C52 C 0.03850 0.55199 0.57465
 H53 H 0.03247 0.55579 0.59798
 N54 N 0.02848 0.52670 0.52816
 C55 C 0.01704 0.45546 0.46211
 H56 H -0.00702 0.45793 0.45625
 C57 C 0.03519 0.43539 0.44618
 H58 H 0.02479 0.42365 0.42742
 C59 C 0.05930 0.46876 0.49325
 H60 H 0.06846 0.48143 0.51200
 C61 C 0.07800 0.44809 0.47873
 H62 H 0.10127 0.44518 0.48695
 Zn63 Zn 0.00429 0.50069 0.50407
 N64 N 0.02960 0.47258 0.48428
 C65 C -0.01480 0.52263 0.44589
 N66 N -0.01760 0.52512 0.47631
 C67 C -0.03577 0.54639 0.48863
 C68 C -0.05260 0.56577 0.47022
 C69 C -0.03177 0.54110 0.42662
 C70 C -0.01111 0.46288 0.55165
 C71 C -0.03004 0.44587 0.57030
 C72 C -0.07369 0.46056 0.53975
 C73 C -0.05395 0.47781 0.52202
 N74 N -0.02331 0.47875 0.52835
 H75 H 0.00062 0.50649 0.43634
 H76 H -0.03705 0.54837 0.51290
 H77 H -0.06634 0.58285 0.48074
 H78 H -0.02991 0.53785 0.40254
 H79 H 0.01341 0.46376 0.55594
 H80 H -0.01977 0.43430 0.58927
 H81 H -0.09786 0.45957 0.53378
 H82 H -0.06305 0.48997 0.50288
 C83 C 0.06634 0.43148 0.45420
 C84 C 0.06369 0.56669 0.56164
 C85 C -0.06186 0.44433 0.56442
 C86 C -0.05110 0.56310 0.43866
 C87 C 0.54722 0.03627 0.50856
 H88 H 0.54803 0.03774 0.48422
 C89 C 0.56593 0.05484 0.52616
 H90 H 0.58157 0.06999 0.51495
 C91 C 0.52626 0.01401 0.55234
 H92 H 0.51069 -0.00189 0.56246
 C93 C 0.54400 0.03262 0.57080
 H94 H 0.54129 0.03103 0.59498
 N95 N 0.52815 0.01613 0.52182
 C96 C 0.51190 -0.05433 0.45528
 H97 H 0.48709 -0.05604 0.45604
 C98 C 0.52847 -0.07343 0.43669
 H99 H 0.51626 -0.08959 0.42291
 C100 C 0.55796 -0.03126 0.47235
 H101 H 0.56950 -0.01521 0.48662
 C102 C 0.57539 -0.04965 0.45376
 H103 H 0.60021 -0.04745 0.45384
 Zn104 Zn 0.50260 -0.00801 0.49704
 N105 N 0.52673 -0.03355 0.47246
 C106 C 0.47459 0.01280 0.44250
 N107 N 0.47850 0.01786 0.47254
 C108 C 0.46600 0.04221 0.48590
 C109 C 0.44809 0.06216 0.46916
 C110 C 0.45675 0.03211 0.42493
 C111 C 0.48266 -0.06128 0.52515
 C112 C 0.46401 -0.07920 0.54323
 C113 C 0.43337 -0.03593 0.55464
 C114 C 0.45250 -0.01886 0.53618
 N115 N 0.47653 -0.03172 0.52172
 H116 H 0.48513 -0.00620 0.43199
 H117 H 0.47026 0.04639 0.50957
 H118 H 0.43863 0.08153 0.48022
 H119 H 0.45336 0.02723 0.40124
 H120 H 0.50223 -0.07104 0.51409
 H121 H 0.46907 -0.10275 0.54517
 H122 H 0.41471 -0.02510 0.56631
 H123 H 0.44826 0.00471 0.53365
 C124 C 0.56061 -0.07099 0.43558
 C125 C 0.56439 0.05337 0.55783
 C126 C 0.43896 -0.06657 0.55833
 C127 C 0.44311 0.05714 0.43825
 C128 C 0.53608 0.54673 0.01168
 H129 H 0.53365 0.55138 -0.01218
 C130 C 0.55427 0.56529 0.02980
 H131 H 0.56613 0.58400 0.01962
 C132 C 0.52380 0.51636 0.05376
 H133 H 0.51180 0.49729 0.06297
 C134 C 0.54179 0.53430 0.07269
 H135 H 0.54320 0.52899 0.09649
 N136 N 0.52140 0.52277 0.02385
 C137 C 0.50857 0.45265 -0.04313
 H138 H 0.48420 0.44823 -0.04100
 C139 C 0.52640 0.43474 -0.06180
 H140 H 0.51560 0.41670 -0.07424
 C141 C 0.55238 0.48128 -0.02927
 H142 H 0.56256 0.49916 -0.01629
 C143 C 0.57095 0.46425 -0.04810
 H144 H 0.59532 0.46916 -0.04942
 Zn145 Zn 0.49656 0.49853 -0.00141
 N146 N 0.52172 0.47538 -0.02724
 C147 C 0.46308 0.51708 -0.05357
 N148 N 0.47049 0.52373 -0.02448
 C149 C 0.45982 0.54892 -0.01114
 C150 C 0.44094 0.56859 -0.02714
 C151 C 0.44403 0.53600 -0.07032
 C152 C 0.48036 0.44398 0.02688
 C153 C 0.46238 0.42502 0.04457
 C154 C 0.42823 0.46621 0.05428
 C155 C 0.44683 0.48436 0.03636
 N156 N 0.47217 0.47299 0.02285
 H157 H 0.47194 0.49716 -0.06393
 H158 H 0.46610 0.55381 0.01198
 H159 H 0.43253 0.58844 -0.01609
 H160 H 0.43855 0.53049 -0.09352
 H161 H 0.50096 0.43551 0.01652
 H162 H 0.46902 0.40189 0.04705
 H163 H 0.40834 0.47581 0.06508
 H164 H 0.44102 0.50758 0.03328
 C165 C 0.55798 0.44056 -0.06450
 C166 C 0.55734 0.55913 0.06075
 C167 C 0.43584 0.43606 0.05850
 C168 C 0.43279 0.56218 -0.05712
 C169 C 0.19632 -0.19228 -0.18239
 C170 C 0.18921 -0.22239 -0.18742
 C171 C 0.20637 -0.23926 -0.20763
 C172 C 0.23052 -0.22632 -0.22467
 C173 C 0.23875 -0.19645 -0.21751
 C174 C 0.22160 -0.17968 -0.19721
 C175 C 0.17731 -0.17399 -0.16187
 C176 C 0.19113 -0.15353 -0.14192
 C177 C 0.17309 -0.13558 -0.12343
 C178 C 0.14082 -0.13765 -0.12451
 C179 C 0.12704 -0.15837 -0.14423
 C180 C 0.14508 -0.17636 -0.16266
 C181 C 0.12155 -0.11791 -0.10561
 C182 C 0.09467 -0.12888 -0.09201
 C183 C 0.07606 -0.11007 -0.07501
 C184 C 0.08393 -0.07987 -0.07115
 C185 C 0.11100 -0.06897 -0.08442
 C186 C 0.12958 -0.08777 -0.10149
 H187 H 0.17051 -0.23304 -0.17547
 H188 H 0.20039 -0.26258 -0.21042
 H189 H 0.25869 -0.18574 -0.22719
 H190 H 0.22802 -0.15662 -0.19335
 H191 H 0.21593 -0.15154 -0.14047
 H192 H 0.18441 -0.12020 -0.10812
 H193 H 0.10225 -0.16019 -0.14595
 H194 H 0.13377 -0.19161 -0.17812
 H195 H 0.08814 -0.15211 -0.09433
 H196 H 0.05562 -0.11923 -0.06464
 H197 H 0.11744 -0.04571 -0.08219
 H198 H 0.14986 -0.07851 -0.11205
 C199 C 0.19943 0.30206 0.32000
 C200 C 0.19869 0.27068 0.32026
 C201 C 0.21478 0.25428 0.29884
 C202 C 0.23276 0.26846 0.27657
 C203 C 0.23496 0.29989 0.27769
 C204 C 0.21791 0.31632 0.29836
 C205 C 0.18093 0.31980 0.34191
 C206 C 0.19015 0.34872 0.35052
 C207 C 0.17195 0.36596 0.36952
 C208 C 0.14448 0.35448 0.38162
 C209 C 0.13587 0.32513 0.37394
 C210 C 0.15346 0.30830 0.35400
 C211 C 0.12465 0.37326 0.40144
 C212 C 0.09265 0.36850 0.40279
 C213 C 0.07404 0.38654 0.42063
 C214 C 0.08655 0.41077 0.43684
 C215 C 0.11857 0.41545 0.43556
 C216 C 0.13733 0.39669 0.41867
 H217 H 0.18585 0.25853 0.33711
 H218 H 0.21313 0.23017 0.29955
 H219 H 0.24979 0.31237 0.26290
 H220 H 0.21918 0.34038 0.29695
 H221 H 0.21146 0.35835 0.34262
 H222 H 0.17941 0.38853 0.37415
 H223 H 0.11544 0.31490 0.38319
 H224 H 0.14502 0.28643 0.34777
 H225 H 0.08158 0.35118 0.38965
 H226 H 0.04976 0.38135 0.42144
 H227 H 0.12940 0.43398 0.44711
 H228 H 0.16184 0.40084 0.41916
 C229 C 0.68898 -0.20034 0.29996
 C230 C 0.70863 -0.18640 0.27922
 C231 C 0.72899 -0.20310 0.26193
 C232 C 0.73131 -0.23435 0.26564
 C233 C 0.71020 -0.24827 0.28531
 C234 C 0.68961 -0.23157 0.30235
 C235 C 0.66826 -0.18231 0.31925
 C236 C 0.66270 -0.19072 0.34932
 C237 C 0.64427 -0.17316 0.36784
 C238 C 0.63130 -0.14663 0.35683
 C239 C 0.63650 -0.13832 0.32675
 C240 C 0.65459 -0.15605 0.30811
 C241 C 0.61296 -0.12731 0.37684
 C242 C 0.61858 -0.09645 0.37787
 C243 C 0.60172 -0.07821 0.39712
 C244 C 0.57862 -0.09043 0.41541
 C245 C 0.57281 -0.12126 0.41421
 C246 C 0.58999 -0.13958 0.39526
 H247 H 0.70868 -0.16239 0.27657
 H248 H 0.74255 -0.19107 0.24563
 H249 H 0.71012 -0.27230 0.28788
 H250 H 0.67409 -0.24321 0.31733
 H251 H 0.67324 -0.21049 0.35885
 H252 H 0.64085 -0.17989 0.39105
 H253 H 0.62638 -0.11815 0.31762
 H254 H 0.65777 -0.14920 0.28492
 H255 H 0.63634 -0.08650 0.36407
 H256 H 0.60647 -0.05448 0.39747
 H257 H 0.55524 -0.13123 0.42822
 H258 H 0.58514 -0.16329 0.39476
 C259 C 0.68961 0.31109 -0.19817
 C260 C 0.72167 0.30986 -0.19424
 C261 C 0.73948 0.29103 -0.21204
 C262 C 0.72577 0.27172 -0.23345
 C263 C 0.69371 0.27433 -0.23832
 C264 C 0.67601 0.29353 -0.22088
 C265 C 0.67033 0.33049 -0.17872
 C266 C 0.64061 0.32137 -0.17031
 C267 C 0.62243 0.33941 -0.15208
 C268 C 0.63362 0.36690 -0.14129
 C269 C 0.66340 0.37599 -0.14956
 C270 C 0.68143 0.35812 -0.16819
 C271 C 0.61431 0.38590 -0.12147
 C272 C 0.61579 0.41723 -0.12332
 C273 C 0.59769 0.43498 -0.10466
 C274 C 0.57735 0.42181 -0.08409
 C275 C 0.57566 0.39060 -0.08224
 C276 C 0.59411 0.37284 -0.10052
 H277 H 0.73310 0.32305 -0.17705
 H278 H 0.76416 0.29084 -0.20852
 H279 H 0.68194 0.26216 -0.25598
 H280 H 0.65158 0.29490 -0.22556
 H281 H 0.63140 0.30005 -0.17752
 H282 H 0.59946 0.33183 -0.14666
 H283 H 0.67302 0.39679 -0.14139
 H284 H 0.70400 0.36615 -0.17449
 H285 H 0.63059 0.42813 -0.13953
 H286 H 0.59916 0.45903 -0.10667
 H287 H 0.56042 0.37995 -0.06624
 H288 H 0.59279 0.34886 -0.09791
 C289 C -0.19918 0.18730 -0.19874
 C290 C -0.19713 0.18830 -0.23034
 C291 C -0.21448 0.20874 -0.24708
 C292 C -0.23436 0.22917 -0.23291
 C293 C -0.23772 0.22659 -0.20132
 C294 C -0.21991 0.20660 -0.18456
 C295 C -0.17977 0.16643 -0.18058
 C296 C -0.19068 0.15415 -0.15345
 C297 C -0.17191 0.13595 -0.13559
 C298 C -0.14187 0.12887 -0.14462
 C299 C -0.13125 0.14045 -0.17219
 C300 C -0.14981 0.15918 -0.18976
 C301 C -0.12159 0.11003 -0.12510
 C302 C -0.08955 0.11489 -0.12410
 C303 C -0.07066 0.09764 -0.10535
 C304 C -0.08343 0.07564 -0.08669
 C305 C -0.11527 0.07066 -0.08751
 C306 C -0.13411 0.08740 -0.10675
 H307 H -0.18228 0.17312 -0.24229
 H308 H -0.21218 0.20890 -0.27139
 H309 H -0.25423 0.23958 -0.18903
 H310 H -0.22232 0.20658 -0.16029
 H311 H -0.21380 0.15858 -0.14585
 H312 H -0.18090 0.12792 -0.11437
 H313 H -0.10852 0.13510 -0.18031
 H314 H -0.14035 0.16841 -0.21028
 H315 H -0.07902 0.13244 -0.13730
 H316 H -0.04613 0.10197 -0.10483
 H317 H -0.12551 0.05353 -0.07348
 H318 H -0.15848 0.08241 -0.10733
 C319 C -0.18216 0.69436 0.30431
 C320 C -0.18173 0.69232 0.27270
 C321 C -0.20228 0.70881 0.25501
 C322 C -0.22410 0.72796 0.26821
 C323 C -0.22307 0.73120 0.29990
 C324 C -0.20300 0.71419 0.31759
 C325 C -0.16121 0.67579 0.32337
 C326 C -0.15013 0.68639 0.35134
 C327 C -0.13182 0.66836 0.36986
 C328 C -0.12352 0.63969 0.36051
 C329 C -0.13371 0.62923 0.33239
 C330 C -0.15264 0.64694 0.31414
 C331 C -0.10486 0.62042 0.38043
 C332 C -0.07644 0.60949 0.37082
 C333 C -0.05878 0.59129 0.38981
 C334 C -0.06957 0.58303 0.41855
 C335 C -0.09835 0.59390 0.42784
 C336 C -0.11560 0.61268 0.40911
 H337 H -0.16535 0.67813 0.26146
 H338 H -0.20139 0.70645 0.23073
 H339 H -0.23744 0.74691 0.31154
 H340 H -0.20417 0.71649 0.34184
 H341 H -0.15545 0.70867 0.35898
 H342 H -0.12390 0.67687 0.39142
 H343 H -0.12769 0.60702 0.32495
 H344 H -0.16111 0.63767 0.29314
 H345 H -0.06771 0.61544 0.34879
 H346 H -0.03652 0.58403 0.38200
 H347 H -0.10790 0.58758 0.44939
 H348 H -0.13767 0.62070 0.41676
 C349 C 0.30767 0.19160 0.31174
 C350 C 0.31061 0.22276 0.31247
 C351 C 0.29218 0.24064 0.29395
 C352 C 0.27061 0.22796 0.27362
 C353 C 0.26671 0.19663 0.27439
 C354 C 0.28528 0.17879 0.29281
 C355 C 0.32788 0.17242 0.33059
 C356 C 0.34069 0.14637 0.31849
 C357 C 0.35977 0.12823 0.33609
 C358 C 0.36633 0.13565 0.36623
 C359 C 0.35349 0.16168 0.37837
 C360 C 0.33455 0.17995 0.36069
 C361 C 0.38636 0.11614 0.38493
 C362 C 0.37851 0.10930 0.41483
 C363 C 0.39698 0.09030 0.43217
 C364 C 0.42378 0.07781 0.42002
 C365 C 0.43179 0.08497 0.39020
 C366 C 0.41326 0.10387 0.37284
 H367 H 0.32758 0.23331 0.32698
 H368 H 0.29514 0.26462 0.29498
 H369 H 0.24911 0.18545 0.26131
 H370 H 0.28176 0.15485 0.29261
 H371 H 0.33619 0.14017 0.29527
 H372 H 0.36908 0.10815 0.32622
 H373 H 0.35836 0.16807 0.40147
 H374 H 0.32479 0.19976 0.37068
 H375 H 0.35770 0.11813 0.42461
 H376 H 0.38990 0.08488 0.45489
 H377 H 0.45258 0.07620 0.38035
 H378 H 0.42013 0.10913 0.35002
 C379 C 0.30036 0.69946 -0.18324
 C380 C 0.27547 0.68740 -0.19950
 C381 C 0.25833 0.70505 -0.21936
 C382 C 0.26631 0.73532 -0.22486
 C383 C 0.29008 0.74760 -0.20654
 C384 C 0.30706 0.72992 -0.18655
 C385 C 0.31937 0.68028 -0.16309
 C386 C 0.35145 0.68427 -0.16140
 C387 C 0.36952 0.66560 -0.14333
 C388 C 0.35596 0.64239 -0.12671
 C389 C 0.32391 0.63854 -0.12810
 C390 C 0.30579 0.65735 -0.14599
 C391 C 0.37528 0.62192 -0.10842
 C392 C 0.37015 0.59097 -0.10940
 C393 C 0.38883 0.57157 -0.09276
 C394 C 0.41283 0.58277 -0.07459
 C395 C 0.41777 0.61374 -0.07337
 C396 C 0.39927 0.63312 -0.09023
 H397 H 0.26933 0.66408 -0.19716
 H398 H 0.23864 0.69465 -0.23010
 H399 H 0.29592 0.77106 -0.20814
 H400 H 0.32533 0.74023 -0.17347
 H401 H 0.36271 0.70138 -0.17465
 H402 H 0.39422 0.66883 -0.14295
 H403 H 0.31283 0.62108 -0.11516
 H404 H 0.28111 0.65401 -0.14629
 H405 H 0.35200 0.58172 -0.12344
 H406 H 0.38436 0.54781 -0.09391
 H407 H 0.43626 0.62295 -0.05973
 H408 H 0.40358 0.65689 -0.08891
 C409 C -0.18319 -0.19960 0.19266
 C410 C -0.20205 -0.22115 0.17881
 C411 C -0.22183 -0.23892 0.19586
 C412 C -0.22435 -0.23498 0.22738
 C413 C -0.20400 -0.21441 0.24124
 C414 C -0.18402 -0.19681 0.22417
 C415 C -0.16305 -0.17994 0.17420
 C416 C -0.15891 -0.14974 0.18186
 C417 C -0.14103 -0.13094 0.16384
 C418 C -0.12713 -0.14185 0.13763
 C419 C -0.13092 -0.17206 0.13011
 C420 C -0.14853 -0.19093 0.14827
 C421 C -0.10919 -0.12165 0.11788
 C422 C -0.11364 -0.12218 0.08647
 C423 C -0.09718 -0.10276 0.06784
 C424 C -0.07570 -0.08266 0.08024
 C425 C -0.07106 -0.08230 0.11164
 C426 C -0.08779 -0.10148 0.13030
 H427 H -0.20187 -0.22412 0.15459
 H428 H -0.23474 -0.25583 0.18392
 H429 H -0.20403 -0.21164 0.26550
 H430 H -0.16909 -0.18111 0.23573
 H431 H -0.17014 -0.14039 0.20137
 H432 H -0.13874 -0.10765 0.16997
 H433 H -0.12005 -0.18112 0.11025
 H434 H -0.15066 -0.21419 0.14203
 H435 H -0.13019 -0.13734 0.07635
 H436 H -0.10101 -0.10366 0.04370
 H437 H -0.05480 -0.06687 0.12178
 H438 H -0.08380 -0.10075 0.15442
 C439 C -0.19673 0.31443 0.69563
 C440 C -0.18269 0.29380 0.71523
 C441 C -0.20031 0.27393 0.73227
 C442 C -0.23270 0.27304 0.72933
 C443 C -0.24662 0.29470 0.71052
 C444 C -0.22900 0.31494 0.69395
 C445 C -0.17779 0.33506 0.67689
 C446 C -0.18764 0.34349 0.64776
 C447 C -0.16946 0.36211 0.62984
 C448 C -0.14078 0.37224 0.64040
 C449 C -0.13090 0.36409 0.66944
 C450 C -0.14932 0.34598 0.68761
 C451 C -0.12083 0.39067 0.62091
 C452 C -0.09033 0.38215 0.61580
 C453 C -0.07141 0.39928 0.59718
 C454 C -0.08236 0.42573 0.58374
 C455 C -0.11301 0.43422 0.58908
 C456 C -0.13211 0.41670 0.60723
 H457 H -0.15790 0.29265 0.71726
 H458 H -0.18804 0.25958 0.74773
 H459 H -0.27143 0.29566 0.70838
 H460 H -0.24079 0.33112 0.67992
 H461 H -0.20908 0.33515 0.63842
 H462 H -0.17737 0.36795 0.60737
 H463 H -0.10897 0.37195 0.67813
 H464 H -0.14123 0.34067 0.71013
 H465 H -0.08130 0.36190 0.62583
 H466 H -0.04829 0.39150 0.59307
 H467 H -0.12218 0.45465 0.57966
 H468 H -0.15556 0.42376 0.61107
 C469 C 0.30479 -0.19309 0.69353
 C470 C 0.31750 -0.21744 0.70900
 C471 C 0.29962 -0.23461 0.72850
 C472 C 0.26851 -0.22720 0.73438
 C473 C 0.25560 -0.20374 0.71689
 C474 C 0.27351 -0.18677 0.69721
 C475 C 0.32419 -0.17447 0.67353
 C476 C 0.31339 -0.16544 0.64501
 C477 C 0.33187 -0.14800 0.62621
 C478 C 0.36147 -0.13904 0.63560
 C479 C 0.37212 -0.14795 0.66426
 C480 C 0.35373 -0.16555 0.68294
 C481 C 0.38124 -0.12055 0.61565
 C482 C 0.41312 -0.12548 0.61445
 C483 C 0.43179 -0.10796 0.59595
 C484 C 0.41904 -0.08518 0.57802
 C485 C 0.38713 -0.08032 0.57911
 C486 C 0.36847 -0.09776 0.59774
 H487 H 0.34128 -0.22358 0.70555
 H488 H 0.31042 -0.25398 0.73848
 H489 H 0.23148 -0.19818 0.71892
 H490 H 0.26296 -0.16835 0.68520
 H491 H 0.29084 -0.17231 0.63705
 H492 H 0.32315 -0.14194 0.60410
 H493 H 0.39454 -0.14098 0.67245
 H494 H 0.36244 -0.17182 0.70500
 H495 H 0.42367 -0.14310 0.62763
 H496 H 0.45631 -0.11207 0.59599
 H497 H 0.37649 -0.06321 0.56533
 H498 H 0.34406 -0.09312 0.59837
 C499 C 0.30537 0.30334 0.19112
 C500 C 0.27325 0.30597 0.19218
 C501 C 0.25612 0.28827 0.21193
 C502 C 0.27058 0.26793 0.23188
 C503 C 0.30270 0.26407 0.22893
 C504 C 0.31978 0.28181 0.20927
 C505 C 0.32399 0.32300 0.17134
 C506 C 0.35182 0.33522 0.18201
 C507 C 0.36967 0.35350 0.16352
 C508 C 0.36018 0.35997 0.13386
 C509 C 0.33221 0.34791 0.12322
 C510 C 0.31428 0.32966 0.14180
 C511 C 0.37947 0.37918 0.11418
 C512 C 0.36590 0.40035 0.09485
 C513 C 0.38415 0.41871 0.07673
 C514 C 0.41639 0.41633 0.07751
 C515 C 0.42993 0.39505 0.09672
 C516 C 0.41169 0.37668 0.11480
 H517 H 0.26141 0.32217 0.17820
 H518 H 0.23138 0.29099 0.21230
 H519 H 0.31511 0.24713 0.24128
 H520 H 0.34438 0.27840 0.20798
 H521 H 0.35962 0.33093 0.20486
 H522 H 0.39076 0.36291 0.17261
 H523 H 0.32445 0.35215 0.10036
 H524 H 0.29311 0.32029 0.13285
 H525 H 0.34117 0.40304 0.09405
 H526 H 0.37298 0.43463 0.06191
 H527 H 0.45469 0.39285 0.09812
 H528 H 0.42285 0.36034 0.12915
 C529 C 0.18978 0.19883 0.19231
 C530 C 0.17711 0.21824 0.21356
 C531 C 0.19605 0.23454 0.23314
 C532 C 0.22839 0.23119 0.23270
 C533 C 0.24083 0.21236 0.21040
 C534 C 0.22185 0.19633 0.19065
 C535 C 0.16952 0.18118 0.17199
 C536 C 0.17601 0.17887 0.14112
 C537 C 0.15695 0.16204 0.12208
 C538 C 0.13114 0.14690 0.13357
 C539 C 0.12473 0.14928 0.16452
 C540 C 0.14362 0.16633 0.18347
 C541 C 0.11124 0.12833 0.11352
 C542 C 0.07924 0.12693 0.11790
 C543 C 0.06073 0.10861 0.09979
 C544 C 0.07374 0.09152 0.07669
 C545 C 0.10558 0.09328 0.07191
 C546 C 0.12415 0.11137 0.09019
 H547 H 0.15243 0.22122 0.21470
 H548 H 0.18490 0.24996 0.24812
 H549 H 0.26551 0.20976 0.20861
 H550 H 0.23227 0.18156 0.17439
 H551 H 0.19562 0.19041 0.13163
 H552 H 0.16228 0.16114 0.09830
 H553 H 0.10544 0.13747 0.17427
 H554 H 0.13834 0.16743 0.20727
 H555 H 0.06843 0.14012 0.13524
 H556 H 0.03618 0.10795 0.10370
 H557 H 0.11626 0.08003 0.05452
 H558 H 0.14873 0.11148 0.08649
 C559 C 0.19304 0.70440 0.69102
 C560 C 0.18003 0.72820 0.70679
 C561 C 0.19775 0.74513 0.72687
 C562 C 0.22892 0.73783 0.73314
 C563 C 0.24217 0.71519 0.71510
 C564 C 0.22446 0.69854 0.69477
 C565 C 0.17374 0.68548 0.67105
 C566 C 0.18391 0.67743 0.64223
 C567 C 0.16586 0.65899 0.62378
 C568 C 0.13742 0.64790 0.63392
 C569 C 0.12733 0.65607 0.66281
 C570 C 0.14521 0.67477 0.68107
 C571 C 0.11852 0.62757 0.61472
 C572 C 0.08619 0.62903 0.61506
 C573 C 0.06843 0.60929 0.59783
 C574 C 0.08256 0.58787 0.57958
 C575 C 0.11480 0.58663 0.57878
 C576 C 0.13259 0.60614 0.59629
 H577 H 0.15609 0.73396 0.70329
 H578 H 0.18672 0.76409 0.73715
 H579 H 0.26634 0.70982 0.71739
 H580 H 0.23522 0.68058 0.68248
 H581 H 0.20569 0.68567 0.63386
 H582 H 0.17410 0.65362 0.60148
 H583 H 0.10589 0.64750 0.67164
 H584 H 0.13706 0.68031 0.70338
 H585 H 0.07456 0.64562 0.62847
 H586 H 0.04360 0.61097 0.59849
 H587 H 0.12623 0.57010 0.56512
 H588 H 0.15737 0.60399 0.59585
 C589 C 0.69204 0.19104 0.68986
 C590 C 0.71224 0.21148 0.67657
 C591 C 0.73010 0.23058 0.69445
 C592 C 0.72718 0.23067 0.72622
 C593 C 0.70711 0.20939 0.73922
 C594 C 0.68988 0.18981 0.72130
 C595 C 0.67342 0.17085 0.67084
 C596 C 0.67746 0.13991 0.67269
 C597 C 0.66026 0.12083 0.65415
 C598 C 0.63811 0.13230 0.63387
 C599 C 0.63395 0.16344 0.63253
 C600 C 0.65170 0.18251 0.65057
 C601 C 0.61948 0.11195 0.61427
 C602 C 0.60957 0.12112 0.58543
 C603 C 0.59162 0.10231 0.56731
 C604 C 0.58360 0.07347 0.57717
 C605 C 0.59394 0.06412 0.60581
 C606 C 0.61130 0.08318 0.62421
 H607 H 0.71465 0.21220 0.65228
 H608 H 0.74637 0.24473 0.68295
 H609 H 0.70473 0.20809 0.76348
 H610 H 0.67454 0.17394 0.73195
 H611 H 0.69436 0.13059 0.68808
 H612 H 0.66471 0.09713 0.65546
 H613 H 0.61671 0.17319 0.61785
 H614 H 0.64817 0.20638 0.64905
 H615 H 0.61580 0.14282 0.57661
 H616 H 0.58376 0.11065 0.54568
 H617 H 0.58883 0.04194 0.61410
 H618 H 0.61797 0.07536 0.64641
 C619 C 0.69206 0.68939 0.19318
 C620 C 0.71134 0.67646 0.21505
 C621 C 0.73101 0.69410 0.23263
 C622 C 0.73263 0.72533 0.22835
 C623 C 0.71186 0.73821 0.20742
 C624 C 0.69222 0.72053 0.18985
 C625 C 0.67194 0.67039 0.17391
 C626 C 0.64175 0.67918 0.16672
 C627 C 0.62296 0.66123 0.14849
 C628 C 0.63394 0.63409 0.13706
 C629 C 0.66413 0.62533 0.14422
 C630 C 0.68291 0.64327 0.16242
 C631 C 0.61405 0.61495 0.11770
 C632 C 0.61409 0.58379 0.12129
 C633 C 0.59564 0.56572 0.10289
 C634 C 0.57675 0.57839 0.08044
 C635 C 0.57665 0.60956 0.07691
 C636 C 0.59505 0.62765 0.09536
 H637 H 0.71088 0.65260 0.21894
 H638 H 0.74437 0.68289 0.24983
 H639 H 0.71140 0.76217 0.20424
 H640 H 0.67753 0.73124 0.17328
 H641 H 0.63249 0.69974 0.17558
 H642 H 0.59966 0.66837 0.14372
 H643 H 0.67343 0.60480 0.13534
 H644 H 0.70623 0.63613 0.16710
 H645 H 0.62822 0.57336 0.13851
 H646 H 0.59647 0.54176 0.10597
 H647 H 0.56210 0.62001 0.06003
 H648 H 0.59474 0.65156 0.09186
   
