data_POSCAR
  _audit_creation_date              2014-09-24
  _audit_creation_method            'ToBaCCo'
  _symmetry_space_group_name_H-M    'P1'
  _symmetry_Int_Tables_number       1
  _symmetry_cell_setting            triclinic
  loop_
  _symmetry_equiv_pos_as_xyz
 x,y,z
_cell_length_a 44.9220
_cell_length_b 45.4630
_cell_length_c 7.1521
_cell_angle_alpha 90.168600
_cell_angle_beta 89.987500
_cell_angle_gamma 90.133900
loop_
  _atom_site_label
  _atom_site_type_symbol
  _atom_site_fract_x
  _atom_site_fract_y
  _atom_site_fract_z
O1 O 0.23219 0.27815 0.03272
 O2 O 0.28543 0.22081 0.17210
 O3 O 0.23181 0.22076 0.03324
 O4 O 0.28569 0.27793 0.17313
 O5 O 0.26748 0.27821 0.46033
 O6 O 0.21371 0.22100 0.32068
 O7 O 0.26732 0.22088 0.45956
 O8 O 0.21399 0.27815 0.31990
 Cu9 Cu 0.26072 0.24939 0.07425
 Cu10 Cu 0.23866 0.24957 0.41855
 C11 C 0.21397 0.28777 0.15374
 C12 C 0.28553 0.21127 0.33843
 C13 C 0.21353 0.21129 0.15439
 C14 C 0.28581 0.28764 0.33945
 O15 O 0.78532 0.27787 0.32185
 O16 O 0.73165 0.22092 0.46518
 O17 O 0.78526 0.22076 0.32598
 O18 O 0.73170 0.27831 0.46025
 O19 O 0.71374 0.27743 0.17252
 O20 O 0.76728 0.21993 0.03824
 O21 O 0.71365 0.22028 0.17760
 O22 O 0.76735 0.27727 0.03412
 Cu23 Cu 0.76041 0.24952 0.42184
 Cu24 Cu 0.73855 0.24864 0.07718
 C25 C 0.78554 0.28712 0.15485
 C26 C 0.71344 0.21106 0.34470
 C27 C 0.78548 0.21074 0.16041
 C28 C 0.71357 0.28756 0.33782
 O29 O 0.73293 0.77965 0.53895
 O30 O 0.78610 0.72214 0.67569
 O31 O 0.73251 0.72232 0.53748
 O32 O 0.78656 0.77928 0.67780
 O33 O 0.76869 0.77933 0.96580
 O34 O 0.71458 0.72244 0.82537
 O35 O 0.76821 0.72191 0.96364
 O36 O 0.71502 0.77956 0.82691
 Cu37 Cu 0.76148 0.75087 0.57902
 Cu38 Cu 0.73970 0.75083 0.92396
 C39 C 0.71482 0.78922 0.66080
 C40 C 0.78625 0.71234 0.84136
 C41 C 0.71427 0.71285 0.65881
 C42 C 0.78691 0.78883 0.84449
 O43 O 0.28532 0.77919 0.82159
 O44 O 0.23162 0.72214 0.96307
 O45 O 0.28513 0.72205 0.82265
 O46 O 0.23174 0.77949 0.96103
 O47 O 0.21360 0.77905 0.67368
 O48 O 0.26689 0.72153 0.53561
 O49 O 0.21337 0.72193 0.67606
 O50 O 0.26717 0.77890 0.53429
 Cu51 Cu 0.26040 0.75075 0.92054
 Cu52 Cu 0.23831 0.75032 0.57638
 C53 C 0.28546 0.78859 0.65492
 C54 C 0.21328 0.71248 0.84264
 C55 C 0.28515 0.71215 0.65679
 C56 C 0.21351 0.78891 0.83968
 C57 C 0.97368 -0.06272 0.02088
 C58 C 1.00080 -0.07766 0.02550
 C59 C 1.02783 -0.06244 0.01998
 C60 C 1.02802 -0.03139 0.01046
 C61 C 1.00061 -0.01597 0.00591
 C62 C 0.97330 -0.03168 0.01130
 C63 C 0.94639 -0.01596 0.00615
 C64 C 0.94629 0.01463 -0.00380
 C65 C 0.97310 0.03063 -0.00942
 C66 C 1.00051 0.01521 -0.00504
 C67 C 1.05483 -0.01539 0.00454
 C68 C 1.05474 0.01520 -0.00557
 C69 C 1.02783 0.03092 -0.01038
 C70 C 1.02744 0.06196 -0.01948
 C71 C 1.00032 0.07690 -0.02389
 C72 C 0.97329 0.06168 -0.01843
 H73 H 0.92512 -0.02721 0.01004
 H74 H 0.92496 0.02565 -0.00720
 H75 H 1.07616 -0.02641 0.00797
 H76 H 1.07600 0.02644 -0.00967
 H77 H 1.00088 -0.10152 0.03117
 H78 H 1.00025 0.10076 -0.02924
 C79 C 0.47301 0.43795 0.52145
 C80 C 0.50016 0.42305 0.52323
 C81 C 0.52716 0.43833 0.51804
 C82 C 0.52728 0.46940 0.51127
 C83 C 0.49983 0.48478 0.50911
 C84 C 0.47256 0.46901 0.51452
 C85 C 0.44561 0.48468 0.51182
 C86 C 0.44544 0.51529 0.50345
 C87 C 0.47222 0.53135 0.49739
 C88 C 0.49966 0.51597 0.50030
 C89 C 0.55405 0.48547 0.50564
 C90 C 0.55389 0.51607 0.49797
 C91 C 0.52694 0.53175 0.49499
 C92 C 0.52648 0.56279 0.48744
 C93 C 0.49933 0.57768 0.48394
 C94 C 0.47234 0.56240 0.48883
 H95 H 0.42437 0.47340 0.51634
 H96 H 0.42409 0.52627 0.50159
 H97 H 0.57540 0.47448 0.50710
 H98 H 0.57512 0.52737 0.49411
 H99 H 0.50028 0.39918 0.52645
 H100 H 0.49920 0.60155 0.47926
 C101 C -0.02703 0.43720 -0.01840
 C102 C 0.00011 0.42229 -0.02387
 C103 C 0.02711 0.43755 -0.01743
 C104 C 0.02727 0.46858 -0.00554
 C105 C -0.00016 0.48397 -0.00047
 C106 C -0.02745 0.46823 -0.00725
 C107 C -0.05438 0.48392 -0.00205
 C108 C -0.05451 0.51450 0.00906
 C109 C -0.02772 0.53053 0.01633
 C110 C -0.00029 0.51514 0.01220
 C111 C 0.05407 0.48460 0.00189
 C112 C 0.05393 0.51519 0.01384
 C113 C 0.02700 0.53088 0.01902
 C114 C 0.02657 0.56191 0.02971
 C115 C -0.00057 0.57683 0.03336
 C116 C -0.02757 0.56158 0.02615
 H117 H -0.07562 0.47266 -0.00678
 H118 H -0.07585 0.52550 0.01196
 H119 H 0.07541 0.47361 -0.00183
 H120 H 0.07518 0.52645 0.01925
 H121 H 0.00022 0.39844 -0.03104
 H122 H -0.00067 0.60069 0.03885
 C123 C 0.47326 0.93805 0.47619
 C124 C 0.50037 0.92307 0.47155
 C125 C 0.52741 0.93827 0.47829
 C126 C 0.52763 0.96930 0.48937
 C127 C 0.50023 0.98476 0.49411
 C128 C 0.47291 0.96908 0.48714
 C129 C 0.44601 0.98483 0.49231
 C130 C 0.44595 1.01542 0.50409
 C131 C 0.47277 1.03138 0.51165
 C132 C 0.50016 1.01593 0.50699
 C133 C 0.55445 0.98527 0.49668
 C134 C 0.55439 1.01585 0.50854
 C135 C 0.52749 1.03160 0.51405
 C136 C 0.52714 1.06263 0.52539
 C137 C 0.50003 1.07761 0.53019
 C138 C 0.47299 1.06242 0.52305
 H139 H 0.42474 0.97362 0.48694
 H140 H 0.42463 1.02646 0.50740
 H141 H 0.57578 0.97423 0.49327
 H142 H 0.57566 1.02707 0.51367
 H143 H 0.50042 0.89921 0.46501
 H144 H 0.49999 1.10146 0.53708
 C145 C 1.19303 0.19066 0.10632
 C146 C 1.17411 0.17267 0.07015
 C147 C 1.15068 0.15174 0.03488
 C148 C 1.15100 0.12431 0.12362
 C149 C 1.12686 0.10506 0.10355
 C150 C 1.10231 0.11319 -0.00533
 C151 C 1.10228 0.14037 -0.09720
 C152 C 1.12641 0.15961 -0.07712
 C153 C 1.07647 0.09449 -0.01423
 C154 C 1.05439 0.07937 -0.01831
 H155 H 1.16956 0.11810 0.21166
 H156 H 1.12704 0.08417 0.17609
 H157 H 1.08333 0.14695 -0.18073
 H158 H 1.12582 0.18086 -0.14517
 C159 C 0.69244 0.69119 0.60810
 C160 C 0.67332 0.67341 0.57245
 C161 C 0.64963 0.65275 0.53748
 C162 C 0.62393 0.66191 0.44349
 C163 C 0.59975 0.64273 0.42408
 C164 C 0.60115 0.61430 0.49867
 C165 C 0.62705 0.60494 0.58972
 C166 C 0.65125 0.62414 0.60915
 C167 C 0.57541 0.59546 0.49088
 C168 C 0.55339 0.58027 0.48780
 H169 H 0.62233 0.68408 0.38922
 H170 H 0.57976 0.65026 0.35458
 H171 H 0.62829 0.58307 0.64889
 H172 H 0.67092 0.61692 0.68359
 C173 C -0.19281 0.30884 0.10309
 C174 C -0.17385 0.32675 0.06703
 C175 C -0.15040 0.34764 0.03219
 C176 C -0.12639 0.33992 -0.08280
 C177 C -0.10222 0.35910 -0.10255
 C178 C -0.10196 0.38607 -0.00731
 C179 C -0.12624 0.39407 0.10462
 C180 C -0.15042 0.37488 0.12439
 C181 C -0.07606 0.40468 -0.01563
 C182 C -0.05396 0.41977 -0.01873
 H183 H -0.12603 0.31880 -0.15332
 H184 H -0.08347 0.35263 -0.18852
 H185 H -0.12619 0.41481 0.17967
 H186 H -0.16874 0.38096 0.21496
 C187 C 0.30714 0.81028 0.60306
 C188 C 0.32613 0.82813 0.56636
 C189 C 0.34963 0.84890 0.53031
 C190 C 0.37379 0.84081 0.41758
 C191 C 0.39800 0.85991 0.39666
 C192 C 0.39816 0.88718 0.48846
 C193 C 0.37370 0.89555 0.59779
 C194 C 0.34949 0.87645 0.61870
 C195 C 0.42413 0.90569 0.47980
 C196 C 0.44628 0.92069 0.47633
 H197 H 0.37422 0.81948 0.34964
 H198 H 0.41687 0.85314 0.31276
 H199 H 0.37368 0.91652 0.67025
 H200 H 0.33101 0.88285 0.70712
 C201 C -0.19243 0.69018 -0.11088
 C202 C -0.17374 0.67186 -0.08020
 C203 C -0.15059 0.65046 -0.05372
 C204 C -0.13938 0.64463 0.12530
 C205 C -0.11543 0.62530 0.14715
 C206 C -0.10265 0.61178 -0.00987
 C207 C -0.11421 0.61724 -0.18824
 C208 C -0.13812 0.63652 -0.21009
 C209 C -0.07677 0.59349 0.00945
 C210 C -0.05461 0.57868 0.01989
 H211 H -0.14877 0.65540 0.24706
 H212 H -0.10656 0.62130 0.28557
 H213 H -0.10439 0.60702 -0.31056
 H214 H -0.14651 0.64098 -0.34921
 C215 C 0.30709 1.18952 0.38933
 C216 C 0.32598 1.17165 0.42578
 C217 C 0.34936 1.15087 0.46220
 C218 C 0.35000 1.12398 0.36600
 C219 C 0.37417 1.10497 0.38786
 C220 C 0.39781 1.11278 0.50582
 C221 C 0.39687 1.13937 0.60515
 C222 C 0.37269 1.15839 0.58334
 C223 C 0.42378 1.09442 0.51643
 C224 C 0.44596 1.07957 0.52138
 H225 H 0.33220 1.11807 0.27073
 H226 H 0.37474 1.08451 0.30982
 H227 H 0.41510 1.14570 0.69600
 H228 H 0.37256 1.17924 0.65704
 C229 C 1.19318 -0.19037 -0.11272
 C230 C 1.17442 -0.17231 -0.07642
 C231 C 1.15121 -0.15128 -0.04048
 C232 C 1.12833 -0.15804 0.08555
 C233 C 1.10426 -0.13887 0.10710
 C234 C 1.10297 -0.11288 0.00264
 C235 C 1.12617 -0.10580 -0.12030
 C236 C 1.15024 -0.12497 -0.14187
 C237 C 1.07704 -0.09444 0.01316
 C238 C 1.05488 -0.07956 0.01810
 H239 H 1.12873 -0.17844 0.16341
 H240 H 1.08636 -0.14463 0.20183
 H241 H 1.12531 -0.08583 -0.20239
 H242 H 1.16768 -0.11965 -0.24088
 C243 C 0.69216 0.30970 0.38532
 C244 C 0.67347 0.32803 0.41714
 C245 C 0.65042 0.34948 0.44630
 C246 C 0.63453 0.35021 0.61485
 C247 C 0.61057 0.36955 0.63643
 C248 C 0.60244 0.38821 0.48948
 C249 C 0.61872 0.38787 0.32249
 C250 C 0.64263 0.36856 0.30094
 C251 C 0.57644 0.40647 0.50507
 C252 C 0.55424 0.42127 0.51317
 H253 H 0.64026 0.33543 0.72764
 H254 H 0.59804 0.36954 0.76582
 H255 H 0.61252 0.40210 0.20778
 H256 H 0.65465 0.36805 0.16966
 C257 C 0.80758 -0.19071 -0.10713
 C258 C 0.82665 -0.17292 -0.07046
 C259 C 0.85028 -0.15225 -0.03425
 C260 C 0.84922 -0.12397 -0.11134
 C261 C 0.87344 -0.10483 -0.09054
 C262 C 0.89881 -0.11393 0.00721
 C263 C 0.89962 -0.14199 0.08746
 C264 C 0.87541 -0.16111 0.06669
 C265 C 0.92465 -0.09523 0.01620
 C266 C 0.94673 -0.08012 0.02010
 H267 H 0.83000 -0.11698 -0.19107
 H268 H 0.87265 -0.08324 -0.15397
 H269 H 0.91919 -0.14931 0.16242
 H270 H 0.87658 -0.18302 0.12537
 C271 C 0.30748 0.30942 0.39068
 C272 C 0.32639 0.32735 0.42761
 C273 C 0.34976 0.34828 0.46437
 C274 C 0.37367 0.34058 0.57995
 C275 C 0.39779 0.35981 0.60135
 C276 C 0.39810 0.38680 0.50724
 C277 C 0.37387 0.39480 0.39528
 C278 C 0.34975 0.37557 0.37388
 C279 C 0.42400 0.40542 0.51664
 C280 C 0.44609 0.42051 0.52065
 H281 H 0.37401 0.31945 0.64962
 H282 H 0.41649 0.35334 0.68751
 H283 H 0.37394 0.41555 0.32124
 H284 H 0.33145 0.38167 0.28334
 C285 C 0.19166 0.69076 -0.10534
 C286 C 0.17279 0.67284 -0.06776
 C287 C 0.14949 0.65190 -0.03006
 C288 C 0.12546 0.65981 0.08429
 C289 C 0.10144 0.64050 0.10684
 C290 C 0.10136 0.61323 0.01502
 C291 C 0.12571 0.60504 -0.09568
 C292 C 0.14973 0.62434 -0.11824
 C293 C 0.07554 0.59451 0.02508
 C294 C 0.05349 0.57937 0.02928
 H295 H 0.12494 0.68115 0.15198
 H296 H 0.08265 0.64712 0.19197
 H297 H 0.12581 0.58407 -0.16800
 H298 H 0.16810 0.61809 -0.20804
 C299 C 0.69298 1.19053 0.39453
 C300 C 0.67412 1.17262 0.43251
 C301 C 0.65077 1.15172 0.46970
 C302 C 0.62719 1.15934 0.58847
 C303 C 0.60301 1.14021 0.61019
 C304 C 0.60232 1.11340 0.51313
 C305 C 0.62623 1.10547 0.39788
 C306 C 0.65040 1.12460 0.37614
 C307 C 0.57630 1.09496 0.52229
 C308 C 0.55413 1.07998 0.52566
 H309 H 0.62713 1.18035 0.66035
 H310 H 0.58456 1.14663 0.69882
 H311 H 0.62584 1.08486 0.32145
 H312 H 0.66841 1.11859 0.28295
 C313 C 0.19257 0.30970 0.10317
 C314 C 0.17384 0.32778 0.06784
 C315 C 0.15064 0.34885 0.03368
 C316 C 0.14966 0.37502 0.13748
 C317 C 0.12557 0.39420 0.11782
 C318 C 0.10237 0.38727 -0.00569
 C319 C 0.10371 0.36145 -0.11280
 C320 C 0.12780 0.34227 -0.09313
 C321 C 0.07639 0.40564 -0.01395
 C322 C 0.05419 0.42047 -0.01725
 H323 H 0.16712 0.38024 0.23670
 H324 H 0.12468 0.41404 0.20194
 H325 H 0.08580 0.35580 -0.20782
 H326 H 0.12823 0.32200 -0.17309
 C327 C 0.69327 0.81103 0.61086
 C328 C 0.67439 0.82895 0.57510
 C329 C 0.65103 0.84979 0.53970
 C330 C 0.64990 0.87617 0.64124
 C331 C 0.62575 0.89523 0.61946
 C332 C 0.60263 0.88796 0.49618
 C333 C 0.60405 0.86187 0.39183
 C334 C 0.62820 0.84282 0.41358
 C335 C 0.57664 0.90629 0.48531
 C336 C 0.55445 0.92113 0.48017
 H337 H 0.66731 0.88166 0.74031
 H338 H 0.62478 0.91525 0.70173
 H339 H 0.58620 0.85594 0.29700
 H340 H 0.62873 0.82236 0.33553
 C341 C 0.80717 0.18894 0.11152
 C342 C 0.82618 0.17109 0.07653
 C343 C 0.84971 0.15037 0.04142
 C344 C 0.87376 0.15833 -0.07263
 C345 C 0.89795 0.13930 -0.09358
 C346 C 0.89820 0.11222 -0.00058
 C347 C 0.87390 0.10399 0.11056
 C348 C 0.84970 0.12304 0.13154
 C349 C 0.92410 0.09373 -0.01081
 C350 C 0.94625 0.07882 -0.01601
 H351 H 0.87412 0.17951 -0.14168
 H352 H 0.91671 0.14595 -0.17891
 H353 H 0.87394 0.08318 0.18390
 H354 H 0.83132 0.11676 0.22120
 C355 C 0.30663 0.69022 0.60666
 C356 C 0.32544 0.67216 0.57152
 C357 C 0.34874 0.65115 0.53742
 C358 C 0.37226 0.65823 0.41685
 C359 C 0.39639 0.63907 0.39780
 C360 C 0.39711 0.61277 0.49929
 C361 C 0.37328 0.60537 0.61658
 C362 C 0.34914 0.62453 0.63564
 C363 C 0.42307 0.59433 0.49189
 C364 C 0.44525 0.57947 0.48911
 H365 H 0.37229 0.67887 0.34145
 H366 H 0.41478 0.64509 0.30755
 H367 H 0.37368 0.58515 0.69631
 H368 H 0.33118 0.61894 0.73028
   
