data_POSCAR
  _audit_creation_date              2014-09-24
  _audit_creation_method            'ToBaCCo'
  _symmetry_space_group_name_H-M    'P1'
  _symmetry_Int_Tables_number       1
  _symmetry_cell_setting            triclinic
  loop_
  _symmetry_equiv_pos_as_xyz
 x,y,z
_cell_length_a 40.7128
_cell_length_b 40.7276
_cell_length_c 40.4451
_cell_angle_alpha 89.989500
_cell_angle_beta 90.123400
_cell_angle_gamma 120.137500
loop_
  _atom_site_label
  _atom_site_type_symbol
  _atom_site_fract_x
  _atom_site_fract_y
  _atom_site_fract_z
C1 C 0.51762 0.05785 0.04512
 H2 H 0.54474 0.05897 0.04508
 C3 C 0.51253 0.08328 0.06451
 H4 H 0.53574 0.10402 0.07958
 C5 C 0.45442 0.03000 0.02500
 H6 H 0.43209 0.00965 0.00914
 C7 C 0.44814 0.05497 0.04404
 H8 H 0.42087 0.05356 0.04302
 N9 N 0.48868 0.03170 0.02608
 C10 C 0.51570 -0.05814 0.01090
 H11 H 0.51573 -0.05918 -0.01583
 C12 C 0.52148 -0.08381 0.02934
 H13 H 0.52613 -0.10464 0.01682
 C14 C 0.50840 -0.03054 0.05996
 H15 H 0.50247 -0.01033 0.07182
 C16 C 0.51404 -0.05570 0.07933
 H17 H 0.51279 -0.05454 0.10603
 Zn18 Zn 0.49915 -0.00022 -0.00042
 N19 N 0.50950 -0.03208 0.02638
 C20 C 0.57426 0.03032 -0.02579
 N21 N 0.54161 0.03183 -0.02690
 C22 C 0.53877 0.05786 -0.04592
 C23 C 0.56935 0.08338 -0.06527
 C24 C 0.60557 0.05538 -0.04479
 C25 C 0.42454 -0.05842 -0.01179
 C26 C 0.39301 -0.08426 -0.03023
 C27 C 0.42864 -0.05608 -0.08023
 C28 C 0.45948 -0.03077 -0.06083
 N29 N 0.45684 -0.03227 -0.02725
 H30 H 0.57628 0.01007 -0.00994
 H31 H 0.51270 0.05882 -0.04589
 H32 H 0.56684 0.10402 -0.08033
 H33 H 0.63151 0.05414 -0.04375
 H34 H 0.42349 -0.05941 0.01494
 H35 H 0.36755 -0.10512 -0.01758
 H36 H 0.43122 -0.05480 -0.10695
 H37 H 0.48566 -0.01047 -0.07265
 C38 C 0.52053 -0.08262 0.06386
 C39 C 0.47749 0.08183 0.06396
 C40 C 0.39512 -0.08316 -0.06480
 C41 C 0.60304 0.08213 -0.06469
 C42 C -0.05751 0.48160 0.62129
 H43 H -0.05865 0.45448 0.62149
 C44 C -0.08291 0.48665 0.60173
 H45 H -0.10365 0.46341 0.58671
 C46 C -0.02962 0.54484 0.64116
 H47 H -0.00928 0.56721 0.65698
 C48 C -0.05457 0.55108 0.62195
 H49 H -0.05314 0.57835 0.62281
 N50 N -0.03136 0.51058 0.64027
 C51 C 0.05847 0.48356 0.65605
 H52 H 0.05951 0.48363 0.68278
 C53 C 0.08414 0.47769 0.63776
 H54 H 0.10496 0.47307 0.65039
 C55 C 0.03089 0.49070 0.60681
 H56 H 0.01069 0.49660 0.59483
 C57 C 0.05605 0.48497 0.58760
 H58 H 0.05489 0.48611 0.56089
 Zn59 Zn 0.00055 0.50019 0.66700
 N60 N 0.03242 0.48973 0.64041
 C61 C -0.03004 0.42520 0.69270
 N62 N -0.03154 0.45785 0.69359
 C63 C -0.05758 0.46076 0.71247
 C64 C -0.08312 0.43027 0.73190
 C65 C -0.05513 0.39397 0.71178
 C66 C 0.05878 0.57482 0.67818
 C67 C 0.08458 0.60640 0.69657
 C68 C 0.05634 0.57101 0.74662
 C69 C 0.03106 0.54008 0.72730
 N70 N 0.03260 0.54258 0.69371
 H71 H -0.00978 0.42311 0.67695
 H72 H -0.05853 0.48684 0.71227
 H73 H -0.10377 0.43285 0.74684
 H74 H -0.05390 0.36803 0.71091
 H75 H 0.05982 0.57578 0.65145
 H76 H 0.10550 0.63186 0.68402
 H77 H 0.05517 0.56871 0.77333
 H78 H 0.01075 0.51395 0.73921
 C79 C 0.08296 0.47851 0.60323
 C80 C -0.08143 0.52169 0.60208
 C81 C 0.08339 0.60441 0.73109
 C82 C -0.08189 0.39659 0.73154
 C83 C 0.53972 0.48125 0.37856
 H84 H 0.51364 0.45411 0.37845
 C85 C 0.57037 0.48639 0.39791
 H86 H 0.56792 0.46320 0.41287
 C87 C 0.57512 0.54445 0.35865
 H88 H 0.57707 0.56676 0.34289
 C89 C 0.60650 0.55078 0.37765
 H90 H 0.63244 0.57807 0.37669
 N91 N 0.54247 0.51016 0.35965
 C92 C 0.42533 0.48293 0.34461
 H93 H 0.42413 0.48291 0.31788
 C94 C 0.39391 0.47711 0.36310
 H95 H 0.36833 0.47243 0.35062
 C96 C 0.46051 0.49028 0.39362
 H97 H 0.48675 0.49625 0.40544
 C98 C 0.42975 0.48460 0.41303
 H99 H 0.43229 0.48586 0.43973
 Zn100 Zn 0.49989 0.49964 0.33319
 N101 N 0.45771 0.48918 0.36004
 C102 C 0.45504 0.42457 0.30753
 N103 N 0.48930 0.45725 0.30653
 C104 C 0.51815 0.46018 0.28747
 C105 C 0.51297 0.42966 0.26797
 C106 C 0.44868 0.39332 0.28838
 C107 C 0.51640 0.57419 0.32213
 C108 C 0.52211 0.60570 0.30380
 C109 C 0.51442 0.57018 0.25369
 C110 C 0.50886 0.53933 0.27295
 N111 N 0.51012 0.54193 0.30654
 H112 H 0.43278 0.42247 0.32341
 H113 H 0.54527 0.48628 0.28758
 H114 H 0.53612 0.43225 0.25289
 H115 H 0.42141 0.36735 0.28934
 H116 H 0.51655 0.57523 0.34886
 H117 H 0.52682 0.63118 0.31641
 H118 H 0.51305 0.56780 0.22698
 H119 H 0.50287 0.51318 0.26100
 C120 C 0.39621 0.47807 0.39762
 C121 C 0.60405 0.52146 0.39744
 C122 C 0.52100 0.60360 0.26928
 C123 C 0.47793 0.39595 0.26844
 C124 C 0.11015 0.47414 0.58390
 C125 C 0.13329 0.47113 0.56764
 C126 C 0.16133 0.46831 0.54818
 C127 C 0.16523 0.47754 0.51455
 C128 C 0.19338 0.47623 0.49584
 C129 C 0.21808 0.46570 0.51058
 C130 C 0.21365 0.45607 0.54434
 C131 C 0.18545 0.45739 0.56300
 C132 C 0.24890 0.46570 0.49098
 C133 C 0.28532 0.47979 0.50474
 C134 C 0.31471 0.48104 0.48595
 C135 C 0.30811 0.46821 0.45320
 C136 C 0.27189 0.45376 0.43938
 C137 C 0.24245 0.45249 0.45812
 C138 C 0.33879 0.47089 0.43356
 C139 C 0.36481 0.47380 0.41715
 H140 H 0.14682 0.48622 0.50287
 H141 H 0.19638 0.48431 0.47004
 H142 H 0.23190 0.44740 0.55630
 H143 H 0.18266 0.45016 0.58902
 H144 H 0.29134 0.49066 0.52979
 H145 H 0.34269 0.49246 0.49684
 H146 H 0.26647 0.44372 0.41405
 H147 H 0.21463 0.44106 0.44696
 C148 C 0.52480 0.89017 0.08333
 C149 C 0.52772 0.86702 0.09969
 C150 C 0.53045 0.83897 0.11927
 C151 C 0.51854 0.83321 0.15225
 C152 C 0.51985 0.80505 0.17100
 C153 C 0.53305 0.78220 0.15696
 C154 C 0.54532 0.78849 0.12387
 C155 C 0.54401 0.81669 0.10516
 C156 C 0.53312 0.75138 0.17655
 C157 C 0.52169 0.71583 0.16200
 C158 C 0.52048 0.68639 0.18071
 C159 C 0.53072 0.69204 0.21415
 C160 C 0.54254 0.72740 0.22878
 C161 C 0.54375 0.75690 0.21012
 C162 C 0.52807 0.66123 0.23363
 C163 C 0.52520 0.63512 0.24991
 H164 H 0.50781 0.85017 0.16336
 H165 H 0.50970 0.80057 0.19624
 H166 H 0.55606 0.77169 0.11249
 H167 H 0.55332 0.82094 0.07965
 H168 H 0.51283 0.71052 0.13636
 H169 H 0.51111 0.65906 0.16919
 H170 H 0.55055 0.73209 0.25465
 H171 H 0.55312 0.78406 0.22191
 C172 C 0.36647 0.89198 0.91749
 C173 C 0.34031 0.86874 0.90110
 C174 C 0.30945 0.84059 0.88151
 C175 C 0.31544 0.83524 0.84838
 C176 C 0.28592 0.80697 0.82959
 C177 C 0.24997 0.78359 0.84376
 C178 C 0.24413 0.78947 0.87701
 C179 C 0.27370 0.81778 0.89574
 C180 C 0.21904 0.75264 0.82413
 C181 C 0.19531 0.71688 0.83849
 C182 C 0.16706 0.68733 0.81973
 C183 C 0.16208 0.69309 0.78642
 C184 C 0.18524 0.72866 0.77199
 C185 C 0.21354 0.75826 0.79070
 C186 C 0.13393 0.66219 0.76687
 C187 C 0.11070 0.63601 0.75053
 H188 H 0.34306 0.85262 0.83716
 H189 H 0.29148 0.80283 0.80422
 H190 H 0.21667 0.77226 0.88850
 H191 H 0.26876 0.82170 0.92138
 H192 H 0.19917 0.71149 0.86401
 H193 H 0.14941 0.65985 0.83110
 H194 H 0.18161 0.73343 0.74622
 H195 H 0.23103 0.78558 0.77906
 C196 C 0.89203 0.52702 0.58255
 C197 C 0.86931 0.53068 0.56616
 C198 C 0.84160 0.53407 0.54658
 C199 C 0.83527 0.52175 0.51369
 C200 C 0.80718 0.52336 0.49503
 C201 C 0.78495 0.53727 0.50908
 C202 C 0.79188 0.55007 0.54206
 C203 C 0.82002 0.54845 0.56067
 C204 C 0.75393 0.53731 0.48970
 C205 C 0.71867 0.52636 0.50455
 C206 C 0.68890 0.52474 0.48598
 C207 C 0.69394 0.53411 0.45237
 C208 C 0.72905 0.54555 0.43746
 C209 C 0.75887 0.54717 0.45598
 C210 C 0.66267 0.53062 0.43298
 C211 C 0.63612 0.52689 0.41676
 H212 H 0.85167 0.51037 0.50260
 H213 H 0.80219 0.51280 0.46988
 H214 H 0.77556 0.56135 0.55344
 H215 H 0.82469 0.55807 0.58612
 H216 H 0.71379 0.51808 0.53031
 H217 H 0.66177 0.51564 0.49773
 H218 H 0.73326 0.55287 0.41146
 H219 H 0.78580 0.55615 0.44395
 C220 C 0.47212 0.10839 0.08332
 C221 C 0.46844 0.13114 0.09957
 C222 C 0.46502 0.15887 0.11901
 C223 C 0.45257 0.18183 0.10432
 C224 C 0.45100 0.20999 0.12285
 C225 C 0.46190 0.21556 0.15635
 C226 C 0.47387 0.19195 0.17099
 C227 C 0.47544 0.16384 0.15241
 C228 C 0.46196 0.24658 0.17572
 C229 C 0.45018 0.24093 0.20895
 C230 C 0.45184 0.27070 0.22751
 C231 C 0.46525 0.30644 0.21314
 C232 C 0.47655 0.31220 0.17999
 C233 C 0.47490 0.28249 0.16138
 C234 C 0.46874 0.33758 0.23265
 C235 C 0.47249 0.36402 0.24898
 H236 H 0.44444 0.17822 0.07847
 H237 H 0.44124 0.22739 0.11099
 H238 H 0.48296 0.19587 0.19658
 H239 H 0.48532 0.14636 0.16398
 H240 H 0.43966 0.21350 0.22056
 H241 H 0.44301 0.26593 0.25316
 H242 H 0.48719 0.33982 0.16867
 H243 H 0.48467 0.28791 0.13602
 C244 C -0.36496 0.10878 0.91599
 C245 C -0.33846 0.13160 0.89978
 C246 C -0.30723 0.15940 0.88041
 C247 C -0.27171 0.18234 0.89513
 C248 C -0.24187 0.21055 0.87666
 C249 C -0.24721 0.21617 0.84319
 C250 C -0.28290 0.19259 0.82852
 C251 C -0.31268 0.16443 0.84704
 C252 C -0.21612 0.24721 0.82389
 C253 C -0.21003 0.24161 0.79064
 C254 C -0.18178 0.27138 0.77214
 C255 C -0.15925 0.30710 0.78662
 C256 C -0.16475 0.31283 0.81979
 C257 C -0.19295 0.28311 0.83833
 C258 C -0.13142 0.33825 0.76719
 C259 C -0.10858 0.36468 0.75093
 H260 H -0.26718 0.17868 0.92096
 H261 H -0.21462 0.22793 0.88855
 H262 H -0.28808 0.19654 0.80296
 H263 H -0.34013 0.14696 0.83545
 H264 H -0.22708 0.21420 0.77895
 H265 H -0.17775 0.26664 0.74648
 H266 H -0.14761 0.34043 0.83118
 H267 H -0.19727 0.28849 0.86371
   
