data_POSCAR
  _audit_creation_date              2014-09-24
  _audit_creation_method            'ToBaCCo'
  _symmetry_space_group_name_H-M    'P1'
  _symmetry_Int_Tables_number       1
  _symmetry_cell_setting            triclinic
  loop_
  _symmetry_equiv_pos_as_xyz
 x,y,z
_cell_length_a 17.0470
_cell_length_b 17.9273
_cell_length_c 25.6775
_cell_angle_alpha 89.023300
_cell_angle_beta 83.380100
_cell_angle_gamma 69.246100
loop_
  _atom_site_label
  _atom_site_type_symbol
  _atom_site_fract_x
  _atom_site_fract_y
  _atom_site_fract_z
C1 C 0.01063 0.70815 1.00014
 C2 C 0.06266 0.65031 1.03089
 C3 C 0.06494 0.57160 1.02894
 C4 C 0.01357 0.54972 0.99770
 C5 C -0.03894 0.60849 0.96739
 C6 C -0.03985 0.68693 0.96810
 C7 C 0.01383 0.46637 0.99757
 C8 C 0.00003 0.43180 0.95186
 C9 C -0.00176 0.35433 0.95244
 C10 C 0.01514 0.30985 0.99776
 C11 C 0.03036 0.34186 1.04312
 C12 C 0.02735 0.42077 1.04347
 H13 H 0.00892 0.76913 1.00143
 H14 H 0.10748 0.52749 1.05185
 H15 H -0.08092 0.59420 0.94400
 H16 H -0.00975 0.46468 0.91599
 H17 H 0.01554 0.24935 0.99796
 H18 H 0.03560 0.44603 1.07952
 C19 C 0.34341 -0.07454 0.50968
 C20 C 0.37369 -0.06321 0.55617
 C21 C 0.44509 -0.04085 0.55355
 C22 C 0.48415 -0.02555 0.50465
 C23 C 0.44855 -0.03397 0.45881
 C24 C 0.37906 -0.05812 0.46117
 C25 C 0.55566 0.00634 0.50111
 C26 C 0.60120 0.00996 0.45200
 C27 C 0.65548 0.05312 0.44618
 C28 C 0.67332 0.08588 0.49027
 C29 C 0.63435 0.07816 0.53998
 C30 C 0.57453 0.04034 0.54529
 H31 H 0.28777 -0.09076 0.51147
 H32 H 0.46741 -0.03369 0.59011
 H33 H 0.46976 -0.01702 0.42081
 H34 H 0.59270 -0.01712 0.41690
 H35 H 0.71451 0.12040 0.48568
 H36 H 0.54104 0.04135 0.58375
 C37 C 0.20347 -0.05684 0.28342
 H38 H 0.23125 -0.06449 0.24291
 C39 C 0.25420 -0.06234 0.32358
 H40 H 0.32126 -0.07499 0.31405
 C41 C 0.08185 -0.02761 0.34558
 H42 H 0.01456 -0.01046 0.35460
 C43 C 0.13009 -0.03395 0.38659
 H44 H 0.09984 -0.02367 0.42662
 N45 N 0.11896 -0.04084 0.29510
 C46 C 0.02459 -0.12864 0.16603
 H47 H -0.03440 -0.07923 0.16503
 C48 C 0.04691 -0.19245 0.13001
 H49 H 0.00436 -0.19242 0.10182
 C50 C 0.15349 -0.18704 0.20264
 H51 H 0.19533 -0.18446 0.23049
 C52 C 0.17874 -0.25133 0.16685
 H53 H 0.23974 -0.29824 0.16750
 Zn54 Zn 0.05010 -0.02989 0.24028
 N55 N 0.07842 -0.12634 0.20075
 C56 C 0.10100 0.02548 0.14452
 N57 N 0.06772 0.04851 0.19487
 C58 C 0.04640 0.12563 0.21178
 C59 C 0.05080 0.18442 0.17606
 C60 C 0.10752 0.08169 0.10804
 C61 C -0.08907 -0.04483 0.30496
 C62 C -0.16865 -0.01596 0.33429
 C63 C -0.20228 0.10331 0.28316
 C64 C -0.12146 0.07327 0.25590
 N65 N -0.06529 0.00206 0.26890
 H66 H 0.12037 -0.03621 0.13202
 H67 H 0.02189 0.14207 0.25237
 H68 H 0.02863 0.24636 0.18892
 H69 H 0.13005 0.06332 0.06742
 H70 H -0.04402 -0.10233 0.31350
 H71 H -0.18527 -0.05173 0.36496
 H72 H -0.24563 0.16135 0.27389
 H73 H -0.10318 0.10811 0.22545
 C74 C 0.12585 -0.25383 0.12962
 C75 C 0.21671 -0.05118 0.37581
 C76 C -0.22499 0.06016 0.32423
 C77 C 0.07977 0.16203 0.12326
 C78 C -0.04318 0.16469 0.78621
 H79 H -0.02818 0.17044 0.74458
 C80 C -0.03930 0.22155 0.82170
 H81 H -0.02034 0.27055 0.80755
 C82 C -0.08309 0.09237 0.85603
 H83 H -0.09983 0.04217 0.86974
 C84 C -0.08094 0.14783 0.89239
 H85 H -0.09471 0.13934 0.93385
 N86 N -0.06212 0.10017 0.80406
 C87 C 0.06671 -0.08837 0.68466
 H88 H 0.02023 -0.11595 0.68264
 C89 C 0.14105 -0.11412 0.65008
 H90 H 0.15004 -0.15937 0.62028
 C91 C 0.11178 0.00506 0.72463
 H92 H 0.10088 0.05116 0.75386
 C93 C 0.18724 -0.01909 0.69081
 H94 H 0.23209 0.01058 0.69323
 Zn95 Zn -0.05808 0.01613 0.75820
 N96 N 0.05131 -0.02680 0.71922
 C97 C -0.15568 0.00717 0.67645
 N98 N -0.14431 0.05633 0.71247
 C99 C -0.19655 0.13407 0.71837
 C100 C -0.26204 0.16516 0.68715
 C101 C -0.22008 0.03618 0.64399
 C102 C -0.01649 -0.11441 0.82617
 C103 C -0.03440 -0.16538 0.86378
 C104 C -0.17988 -0.11391 0.84592
 C105 C -0.15930 -0.06425 0.80863
 N106 N -0.07895 -0.06465 0.79992
 H107 H -0.11613 -0.05502 0.67343
 H108 H -0.18864 0.17210 0.74789
 H109 H -0.30333 0.22699 0.69242
 H110 H -0.22829 -0.00371 0.61568
 H111 H 0.04647 -0.11225 0.81930
 H112 H 0.01535 -0.20335 0.88523
 H113 H -0.24446 -0.11180 0.85355
 H114 H -0.20830 -0.02287 0.78830
 C115 C 0.20064 -0.07737 0.65176
 C116 C -0.05698 0.21180 0.87552
 C117 C -0.11756 -0.16417 0.87445
 C118 C -0.27411 0.11630 0.64940
 N119 N 0.10942 -0.33134 0.06178
 N120 N 0.15528 -0.31787 0.09128
 N121 N 0.04577 0.29397 0.08886
 N122 N 0.07147 0.21847 0.08257
 N123 N 0.32356 -0.06143 0.60545
 N124 N 0.26453 -0.08990 0.60815
 N125 N -0.35291 0.11375 0.58057
 N126 N -0.34226 0.14963 0.61812
 N127 N -0.09104 -0.25951 0.94046
 N128 N -0.14166 -0.21083 0.91476
 N129 N -0.02034 0.31942 0.90760
 N130 N -0.04335 0.25941 0.91496
 N131 N -0.32179 0.07329 0.39924
 N132 N -0.30471 0.09605 0.35527
 N133 N 0.33902 -0.05677 0.41486
 N134 N 0.26324 -0.05475 0.41909
   
