data_POSCAR
  _audit_creation_date              2014-09-24
  _audit_creation_method            'ToBaCCo'
  _symmetry_space_group_name_H-M    'P1'
  _symmetry_Int_Tables_number       1
  _symmetry_cell_setting            triclinic
  loop_
  _symmetry_equiv_pos_as_xyz
 x,y,z
_cell_length_a 50.3770
_cell_length_b 50.4046
_cell_length_c 40.6632
_cell_angle_alpha 90.053000
_cell_angle_beta 89.955700
_cell_angle_gamma 120.115900
loop_
  _atom_site_label
  _atom_site_type_symbol
  _atom_site_fract_x
  _atom_site_fract_y
  _atom_site_fract_z
C1 C -0.06504 0.48177 -0.07831
 C2 C -0.06410 0.45512 -0.07925
 C3 C -0.04351 0.45748 -0.05513
 N4 N -0.03187 0.48484 -0.03965
 C5 C -0.04492 0.49982 -0.05371
 C6 C -0.03682 0.43402 -0.04737
 C7 C -0.01657 0.43582 -0.02212
 C8 C -0.01349 0.41129 -0.01157
 C9 C 0.00773 0.42197 0.01340
 C10 C 0.01715 0.45277 0.01759
 N11 N 0.00262 0.46113 -0.00454
 C12 C 0.03863 0.47191 0.04157
 C13 C 0.04515 0.50193 0.04953
 C14 C 0.06552 0.52007 0.07385
 C15 C 0.06453 0.54671 0.07485
 C16 C 0.04365 0.54417 0.05103
 N17 N 0.03188 0.51676 0.03567
 C18 C 0.03675 0.56746 0.04352
 C19 C 0.01640 0.56567 0.01847
 C20 C 0.01311 0.59016 0.00839
 C21 C -0.00804 0.57962 -0.01666
 C22 C -0.01723 0.54888 -0.02135
 N23 N -0.00258 0.54049 0.00059
 C24 C -0.03856 0.52983 -0.04559
 H25 H -0.07889 0.48726 -0.09413
 H26 H -0.07730 0.43607 -0.09572
 H27 H -0.00686 0.51844 0.00468
 H28 H -0.02559 0.38795 -0.02065
 H29 H 0.01506 0.40843 0.02720
 H30 H 0.07954 0.51465 0.08948
 H31 H 0.07786 0.56584 0.09118
 H32 H -0.01548 0.59320 -0.03020
 H33 H 0.00719 0.48324 -0.00902
 H34 H 0.02504 0.61339 0.01779
 C35 C 0.51903 0.45539 -0.07897
 C36 C 0.54669 0.48209 -0.07773
 C37 C 0.54446 0.49982 -0.05295
 N38 N 0.51630 0.48466 -0.03904
 C39 C 0.50062 0.45746 -0.05482
 C40 C 0.56812 0.52971 -0.04451
 C41 C 0.56582 0.54862 -0.02023
 C42 C 0.58760 0.57922 -0.01526
 C43 C 0.57684 0.58976 0.00965
 C44 C 0.54873 0.56536 0.01933
 N45 N 0.54249 0.54024 0.00138
 C46 C 0.52986 0.56717 0.04403
 C47 C 0.49945 0.54389 0.05115
 C48 C 0.48079 0.54645 0.07455
 C49 C 0.45309 0.51977 0.07333
 C50 C 0.45560 0.50159 0.04928
 N51 N 0.48395 0.51645 0.03581
 C52 C 0.43217 0.47150 0.04130
 C53 C 0.43474 0.45238 0.01750
 C54 C 0.41345 0.42150 0.01339
 C55 C 0.42417 0.41090 -0.01147
 C56 C 0.45179 0.43555 -0.02204
 N57 N 0.45775 0.46085 -0.00457
 C58 C 0.47038 0.43388 -0.04725
 H59 H 0.51324 0.43651 -0.09565
 H60 H 0.56617 0.48779 -0.09348
 H61 H 0.47520 0.48304 -0.00914
 H62 H 0.60888 0.59276 -0.02854
 H63 H 0.58826 0.61295 0.01918
 H64 H 0.48642 0.56560 0.09077
 H65 H 0.43342 0.51434 0.08864
 H66 H 0.41303 0.38754 -0.02048
 H67 H 0.52443 0.51823 0.00512
 H68 H 0.39250 0.40786 0.02717
 C69 C 0.55254 1.07767 -0.06193
 C70 C 0.52528 1.07756 -0.06177
 C71 C 0.50492 1.05245 -0.04318
 N72 N 0.51882 1.03714 -0.03219
 C73 C 0.54801 1.05259 -0.04343
 C74 C 0.47357 1.04294 -0.03872
 C75 C 0.45371 1.01899 -0.01746
 C76 C 0.42203 1.00586 -0.01682
 C77 C 0.41143 0.98459 0.00819
 C78 C 0.43692 0.98533 0.02213
 N79 N 0.46257 1.00657 0.00656
 C80 C 0.43611 0.96778 0.04957
 C81 C 0.46115 0.96463 0.05988
 C82 C 0.46157 0.94956 0.08823
 C83 C 0.48882 0.94962 0.08810
 C84 C 0.50419 0.96472 0.05967
 N85 N 0.48714 0.97369 0.04238
 C86 C 0.53238 0.96794 0.04908
 C87 C 0.54903 0.98549 0.02154
 C88 C 0.57370 0.98472 0.00737
 C89 C 0.58435 1.00599 -0.01762
 C90 C 0.56590 1.01920 -0.01805
 N91 N 0.54465 1.00675 0.00611
 C92 C 0.56998 1.04321 -0.03926
 H93 H 0.57322 1.09412 -0.07461
 H94 H 0.52086 1.09391 -0.07429
 H95 H 0.53024 1.01464 0.01394
 H96 H 0.40803 1.01117 -0.03259
 H97 H 0.38767 0.97035 0.01541
 H98 H 0.44393 0.93924 0.10688
 H99 H 0.49625 0.93934 0.10663
 H100 H 0.60362 1.01128 -0.03354
 H101 H 0.48497 1.01448 0.01417
 H102 H 0.58316 0.97045 0.01443
 C103 C 0.93547 0.48003 0.57509
 C104 C 0.93434 0.45233 0.57413
 C105 C 0.95457 0.45444 0.54970
 N106 N 0.96789 0.48256 0.53574
 C107 C 0.95630 0.49830 0.55115
 C108 C 0.96087 0.43082 0.54170
 C109 C 0.98221 0.43304 0.51762
 C110 C 0.99133 0.41147 0.51328
 C111 C 1.01253 0.42196 0.48828
 C112 C 1.01592 0.44974 0.47786
 N113 N 0.99692 0.45601 0.49554
 C114 C 1.03631 0.46823 0.45267
 C115 C 1.04328 0.49851 0.44501
 C116 C 1.06408 0.51681 0.42104
 C117 C 1.06523 0.54450 0.42201
 C118 C 1.04502 0.54243 0.44647
 N119 N 1.03170 0.51429 0.46043
 C120 C 1.03876 0.56613 0.45454
 C121 C 1.01736 0.56385 0.47867
 C122 C 1.00817 0.58538 0.48320
 C123 C 0.98697 0.57479 0.50821
 C124 C 0.98365 0.54703 0.51843
 N125 N 1.00264 0.54081 0.50067
 C126 C 0.96328 0.52852 0.54353
 H127 H 0.92227 0.48593 0.59147
 H128 H 0.92031 0.43292 0.58984
 H129 H 1.00694 0.52308 0.50491
 H130 H 0.98380 0.39049 0.52701
 H131 H 1.02443 0.41058 0.47910
 H132 H 1.07728 0.51093 0.40463
 H133 H 1.07926 0.56390 0.40628
 H134 H 0.97506 0.58611 0.51750
 H135 H 0.99262 0.47373 0.49121
 H136 H 1.01567 0.60642 0.46958
 C137 C 0.45359 0.51722 0.42194
 C138 C 0.48020 0.54498 0.42312
 C139 C 0.49825 0.54281 0.44754
 N140 N 0.48338 0.51460 0.46127
 C141 C 0.45606 0.49885 0.44574
 C142 C 0.52818 0.56648 0.45575
 C143 C 0.54726 0.56421 0.47980
 C144 C 0.57799 0.58585 0.48434
 C145 C 0.58863 0.57522 0.50923
 C146 C 0.56417 0.54733 0.51933
 N147 N 0.53892 0.54109 0.50164
 C148 C 0.56601 0.52870 0.54424
 C149 C 0.54271 0.49839 0.55165
 C150 C 0.54519 0.48001 0.57542
 C151 C 0.51855 0.45227 0.57429
 C152 C 0.50047 0.45447 0.54993
 N153 N 0.51535 0.48267 0.53618
 C154 C 0.47049 0.43084 0.54181
 C155 C 0.45142 0.43311 0.51775
 C156 C 0.42066 0.41153 0.51326
 C157 C 0.41005 0.42213 0.48832
 C158 C 0.43456 0.44995 0.47813
 N159 N 0.45980 0.45618 0.49582
 C160 C 0.43275 0.46855 0.45316
 H161 H 0.43453 0.51135 0.40551
 H162 H 0.48565 0.56448 0.40756
 H163 H 0.48191 0.47393 0.49157
 H164 H 0.59152 0.60695 0.47081
 H165 H 0.61191 0.58658 0.51850
 H166 H 0.56428 0.48586 0.59180
 H167 H 0.51310 0.43277 0.58985
 H168 H 0.38676 0.41079 0.47908
 H169 H 0.51684 0.52327 0.50582
 H170 H 0.40710 0.39047 0.52686
 C171 C 0.51757 0.06213 0.57809
 C172 C 0.54417 0.06104 0.57907
 C173 C 0.54180 0.04056 0.55484
 N174 N 0.51455 0.02912 0.53923
 C175 C 0.49963 0.04221 0.55335
 C176 C 0.56520 0.03387 0.54702
 C177 C 0.56347 0.01376 0.52169
 C178 C 0.58811 0.01092 0.51109
 C179 C 0.57753 -0.01022 0.48603
 C180 C 0.54663 -0.01987 0.48187
 N181 N 0.53816 -0.00548 0.50413
 C182 C 0.52744 -0.04145 0.45790
 C183 C 0.49729 -0.04806 0.45011
 C184 C 0.47895 -0.06864 0.42599
 C185 C 0.45234 -0.06761 0.42505
 C186 C 0.45500 -0.04650 0.44870
 N187 N 0.48251 -0.03464 0.46389
 C188 C 0.43174 -0.03939 0.45614
 C189 C 0.43370 -0.01881 0.48111
 C190 C 0.40940 -0.01507 0.49112
 C191 C 0.42013 0.00616 0.51610
 C192 C 0.45072 0.01493 0.52084
 N193 N 0.45891 -0.00001 0.49902
 C194 C 0.46979 0.03611 0.54510
 H195 H 0.51208 0.07595 0.59397
 H196 H 0.56318 0.07407 0.59565
 H197 H 0.48089 0.00393 0.49508
 H198 H 0.61145 0.02312 0.52016
 H199 H 0.59119 -0.01740 0.47216
 H200 H 0.48426 -0.08282 0.41045
 H201 H 0.43312 -0.08107 0.40886
 H202 H 0.40672 0.01391 0.52957
 H203 H 0.51600 -0.01022 0.50874
 H204 H 0.38617 -0.02675 0.48170
 O205 O 0.22337 0.39578 0.28021
 O206 O 0.17155 0.39639 0.21625
 O207 O 0.22347 0.39626 0.21607
 O208 O 0.17134 0.39574 0.28039
 O209 O 0.19703 0.44647 0.28072
 O210 O 0.24878 0.44698 0.21683
 O211 O 0.19725 0.44710 0.21702
 O212 O 0.24866 0.44650 0.28053
 Cu213 Cu 0.19484 0.39088 0.24819
 Cu214 Cu 0.22548 0.45184 0.24884
 C215 C 0.24489 0.42115 0.29099
 C216 C 0.17566 0.42196 0.20599
 C217 C 0.24503 0.42181 0.20575
 C218 C 0.17536 0.42113 0.29123
 O219 O 0.60243 0.82739 0.28267
 O220 O 0.60277 0.77592 0.21804
 O221 O 0.60289 0.82798 0.21854
 O222 O 0.60247 0.77547 0.28218
 O223 O 0.55172 0.75024 0.28162
 O224 O 0.55214 0.80238 0.21840
 O225 O 0.55202 0.75071 0.21792
 O226 O 0.55168 0.80177 0.28210
 Cu227 Cu 0.60780 0.80427 0.25037
 Cu228 Cu 0.54681 0.77373 0.24996
 C229 C 0.57688 0.82326 0.29315
 C230 C 0.57734 0.75448 0.20726
 C231 C 0.57749 0.82408 0.20793
 C232 C 0.57691 0.75389 0.29250
 O233 O 0.22470 0.82751 0.21909
 O234 O 0.17232 0.77460 0.28252
 O235 O 0.22427 0.82675 0.28319
 O236 O 0.17260 0.77543 0.21838
 O237 O 0.19820 0.75038 0.21812
 O238 O 0.24951 0.80134 0.28252
 O239 O 0.19794 0.74958 0.28183
 O240 O 0.24991 0.80207 0.21884
 Cu241 Cu 0.19588 0.80363 0.25083
 Cu242 Cu 0.22643 0.77331 0.25027
 C243 C 0.24629 0.82375 0.20845
 C244 C 0.17630 0.75305 0.29274
 C245 C 0.24574 0.82273 0.29362
 C246 C 0.17665 0.75412 0.20748
 O247 O 0.77646 0.60338 0.78062
 O248 O 0.82814 0.60295 0.71634
 O249 O 0.77612 0.60294 0.71649
 O250 O 0.82838 0.60328 0.78049
 O251 O 0.80268 0.55256 0.78057
 O252 O 0.75082 0.55222 0.71702
 O253 O 0.80245 0.55223 0.71687
 O254 O 0.75115 0.55266 0.78072
 Cu255 Cu 0.80487 0.60830 0.74844
 Cu256 Cu 0.77422 0.54734 0.74882
 C257 C 0.75496 0.57798 0.79136
 C258 C 0.82404 0.57741 0.70593
 C259 C 0.75452 0.57741 0.70613
 C260 C 0.82435 0.57786 0.79118
 O261 O 0.39682 0.22383 0.71823
 O262 O 0.39739 0.17285 0.78317
 O263 O 0.39728 0.22475 0.78236
 O264 O 0.39696 0.17194 0.71902
 O265 O 0.44771 0.19767 0.71881
 O266 O 0.44802 0.25009 0.78173
 O267 O 0.44813 0.19858 0.78252
 O268 O 0.44757 0.24916 0.71803
 Cu269 Cu 0.39195 0.19574 0.75074
 Cu270 Cu 0.45294 0.22643 0.75023
 C271 C 0.42221 0.24523 0.70734
 C272 C 0.42297 0.17712 0.79366
 C273 C 0.42281 0.24646 0.79257
 C274 C 0.42239 0.17589 0.70837
 O275 O 0.82731 0.22460 0.78257
 O276 O 0.77494 0.17170 0.71918
 O277 O 0.82699 0.22379 0.71844
 O278 O 0.77516 0.17263 0.78333
 O279 O 0.75006 0.19816 0.78260
 O280 O 0.80147 0.24892 0.71818
 O281 O 0.74981 0.19722 0.71889
 O282 O 0.80181 0.24975 0.78188
 Cu283 Cu 0.80367 0.19560 0.75093
 Cu284 Cu 0.77325 0.22604 0.75033
 C285 C 0.82341 0.24622 0.79276
 C286 C 0.75343 0.17552 0.70849
 C287 C 0.82299 0.24512 0.70753
 C288 C 0.75375 0.17677 0.79377
 C289 C 0.09777 0.40802 0.11296
 C290 C 0.07291 0.41586 0.12371
 C291 C 0.08602 0.44244 0.09894
 C292 C 0.11054 0.43476 0.08778
 C293 C 0.11950 0.43037 0.13912
 C294 C 0.13254 0.45694 0.11433
 C295 C 0.09497 0.43806 0.15021
 C296 C 0.10778 0.46470 0.12514
 C297 C 0.06817 0.45091 0.07742
 C298 C 0.05432 0.45960 0.06065
 C299 C 0.13883 0.42532 0.16223
 C300 C 0.15536 0.42288 0.18190
 H301 H 0.09389 0.38464 0.10823
 H302 H 0.04818 0.39905 0.12730
 H303 H 0.11672 0.43349 0.06185
 H304 H 0.15726 0.47380 0.11070
 H305 H 0.08876 0.43938 0.17612
 H306 H 0.11172 0.48809 0.12993
 C307 C 0.59288 0.69065 0.11521
 C308 C 0.58433 0.65781 0.12621
 C309 C 0.55846 0.64454 0.10055
 C310 C 0.56686 0.67688 0.08914
 C311 C 0.56993 0.69022 0.14041
 C312 C 0.54407 0.67690 0.11474
 C313 C 0.56151 0.65785 0.15173
 C314 C 0.53560 0.64424 0.12579
 C315 C 0.55032 0.61810 0.07927
 C316 C 0.54188 0.59539 0.06274
 C317 C 0.57463 0.71459 0.16342
 C318 C 0.57678 0.73347 0.18309
 H319 H 0.61651 0.71005 0.11113
 H320 H 0.60080 0.64967 0.13066
 H321 H 0.56899 0.68440 0.06315
 H322 H 0.52755 0.68498 0.11025
 H323 H 0.55934 0.65025 0.17771
 H324 H 0.51195 0.62488 0.12994
 C325 C 0.30893 0.89777 0.11208
 C326 C 0.33822 0.92778 0.12273
 C327 C 0.35789 0.91712 0.10437
 C328 C 0.32911 0.88749 0.09335
 C329 C 0.31160 0.88196 0.14317
 C330 C 0.33133 0.87140 0.12478
 C331 C 0.34040 0.91159 0.15415
 C332 C 0.36043 0.90126 0.13548
 C333 C 0.38467 0.93603 0.08370
 C334 C 0.40762 0.95085 0.06768
 C335 C 0.28686 0.86178 0.16559
 C336 C 0.26767 0.84465 0.18480
 H337 H 0.28745 0.89611 0.10273
 H338 H 0.34136 0.95119 0.12161
 H339 H 0.32477 0.87781 0.06810
 H340 H 0.32827 0.84802 0.12584
 H341 H 0.34479 0.92130 0.17939
 H342 H 0.38188 0.90288 0.14489
 C343 C 0.90447 0.56077 0.65083
 C344 C 0.89200 0.53483 0.62491
 C345 C 0.91477 0.55757 0.59971
 C346 C 0.92753 0.58346 0.62535
 C347 C 0.88069 0.56936 0.63937
 C348 C 0.90344 0.59220 0.61421
 C349 C 0.86799 0.54348 0.61371
 C350 C 0.89101 0.56615 0.58816
 C351 C 0.93299 0.54925 0.57855
 C352 C 0.94717 0.54068 0.56213
 C353 C 0.86110 0.57426 0.66227
 C354 C 0.84442 0.57659 0.68185
 H355 H 0.90980 0.55859 0.67683
 H356 H 0.88748 0.51115 0.62909
 H357 H 0.95223 0.59981 0.62986
 H358 H 0.90790 0.61585 0.61009
 H359 H 0.84331 0.52708 0.60916
 H360 H 0.88572 0.56828 0.56214
 C361 C 0.43705 0.34099 0.65057
 C362 C 0.46361 0.35489 0.62537
 C363 C 0.44118 0.35399 0.59920
 C364 C 0.41466 0.34042 0.62411
 C365 C 0.42953 0.30875 0.63971
 C366 C 0.40700 0.30771 0.61358
 C367 C 0.45603 0.32238 0.61478
 C368 C 0.43368 0.32178 0.58827
 C369 C 0.44949 0.38022 0.57758
 C370 C 0.45815 0.40277 0.56080
 C371 C 0.42480 0.28464 0.66304
 C372 C 0.42268 0.26598 0.68295
 H373 H 0.43840 0.34865 0.67642
 H374 H 0.48697 0.37457 0.63000
 H375 H 0.39774 0.34814 0.62767
 H376 H 0.38366 0.28800 0.60902
 H377 H 0.47301 0.31472 0.61118
 H378 H 0.43237 0.31419 0.56239
 C379 C 0.68897 0.09487 0.61767
 C380 C 0.65610 0.07071 0.62892
 C381 C 0.64288 0.08304 0.60298
 C382 C 0.67525 0.10685 0.59133
 C383 C 0.68871 0.11774 0.64249
 C384 C 0.67543 0.13001 0.61654
 C385 C 0.65630 0.09392 0.65405
 C386 C 0.64274 0.10595 0.62784
 C387 C 0.61634 0.06452 0.58189
 C388 C 0.59354 0.05014 0.56553
 C389 C 0.71318 0.13771 0.66526
 C390 C 0.73219 0.15472 0.68468
 H391 H 0.70830 0.09055 0.61378
 H392 H 0.64784 0.04611 0.63374
 H393 H 0.68272 0.11192 0.56529
 H394 H 0.68362 0.15459 0.61168
 H395 H 0.64875 0.08881 0.68008
 H396 H 0.62345 0.11032 0.63180
 C397 C 0.45415 0.13519 0.89043
 C398 C 0.43037 0.10936 0.91292
 C399 C 0.44365 0.08904 0.90258
 C400 C 0.46749 0.11461 0.88046
 C401 C 0.43141 0.12188 0.86166
 C402 C 0.44470 0.10153 0.85141
 C403 C 0.40747 0.09632 0.88373
 C404 C 0.42091 0.07568 0.87382
 C405 C 0.45224 0.07159 0.92454
 C406 C 0.46107 0.05811 0.94171
 C407 C 0.42631 0.14086 0.83814
 C408 C 0.42387 0.15712 0.81813
 H409 H 0.46777 0.15986 0.89703
 H410 H 0.42456 0.11235 0.93848
 H411 H 0.49226 0.12195 0.87933
 H412 H 0.45055 0.09850 0.82588
 H413 H 0.38272 0.08903 0.88479
 H414 H 0.40734 0.05100 0.86726
 C415 C 0.65879 0.56345 0.84731
 C416 C 0.64450 0.53674 0.87227
 C417 C 0.64537 0.55907 0.89858
 C418 C 0.65931 0.58573 0.87391
 C419 C 0.69088 0.57066 0.85840
 C420 C 0.69188 0.59308 0.88467
 C421 C 0.67687 0.54401 0.88309
 C422 C 0.67743 0.56626 0.90974
 C423 C 0.61899 0.55077 0.92002
 C424 C 0.59632 0.54210 0.93666
 C425 C 0.71516 0.57536 0.83526
 C426 C 0.73398 0.57748 0.81554
 H427 H 0.65136 0.56233 0.82140
 H428 H 0.62475 0.51349 0.86739
 H429 H 0.65178 0.60280 0.87041
 H430 H 0.71167 0.61631 0.88948
 H431 H 0.68433 0.52688 0.88664
 H432 H 0.68479 0.56734 0.93567
 C433 C 0.90432 0.34389 0.84688
 C434 C 0.89209 0.35740 0.87300
 C435 C 0.91513 0.35762 0.89789
 C436 C 0.92766 0.34446 0.87206
 C437 C 0.88069 0.31149 0.85859
 C438 C 0.90369 0.31159 0.88345
 C439 C 0.86822 0.32471 0.88444
 C440 C 0.89151 0.32525 0.90969
 C441 C 0.93351 0.38430 0.91886
 C442 C 0.94779 0.40719 0.93512
 C443 C 0.86088 0.28684 0.83592
 C444 C 0.84402 0.26767 0.81655
 H445 H 0.90939 0.35132 0.82082
 H446 H 0.88751 0.37652 0.86891
 H447 H 0.95231 0.35289 0.86724
 H448 H 0.90822 0.29243 0.88747
 H449 H 0.84358 0.31635 0.88930
 H450 H 0.88649 0.31791 0.93577
 C451 C 0.59099 0.90069 0.38696
 C452 C 0.58310 0.92554 0.37647
 C453 C 0.55651 0.91230 0.40129
 C454 C 0.56424 0.88778 0.41219
 C455 C 0.56863 0.87906 0.36073
 C456 C 0.54206 0.86589 0.38558
 C457 C 0.56088 0.90359 0.34991
 C458 C 0.53425 0.89064 0.37503
 C459 C 0.54796 0.93003 0.42296
 C460 C 0.53913 0.94377 0.43978
 C461 C 0.57366 0.85985 0.33739
 C462 C 0.57605 0.84343 0.31750
 H463 H 0.61439 0.90458 0.39158
 H464 H 0.59988 0.95029 0.37300
 H465 H 0.56554 0.88151 0.43806
 H466 H 0.52522 0.84116 0.38910
 H467 H 0.55954 0.90990 0.32407
 H468 H 0.51082 0.88669 0.37035
 C469 C 0.30914 0.40526 0.38216
 C470 C 0.34206 0.41416 0.37100
 C471 C 0.35518 0.43978 0.39696
 C472 C 0.32275 0.43104 0.40852
 C473 C 0.30938 0.42835 0.35733
 C474 C 0.32255 0.45396 0.38330
 C475 C 0.34184 0.43710 0.34585
 C476 C 0.35529 0.46276 0.37208
 C477 C 0.38169 0.44793 0.41812
 C478 C 0.40445 0.45642 0.43456
 C479 C 0.28494 0.42369 0.33447
 C480 C 0.26599 0.42161 0.31495
 H481 H 0.28985 0.38155 0.38603
 H482 H 0.35038 0.39787 0.36621
 H483 H 0.31522 0.42862 0.43455
 H484 H 0.31430 0.47029 0.38813
 H485 H 0.34945 0.43956 0.31984
 H486 H 0.37454 0.48649 0.36815
 C487 C 0.09499 0.65575 0.34762
 C488 C 0.10760 0.64167 0.37255
 C489 C 0.08578 0.64199 0.39877
 C490 C 0.07287 0.65572 0.37413
 C491 C 0.11957 0.68792 0.35899
 C492 C 0.09778 0.68836 0.38518
 C493 C 0.13240 0.67412 0.38366
 C494 C 0.11035 0.67412 0.41022
 C495 C 0.06777 0.61546 0.42005
 C496 C 0.05380 0.59273 0.43662
 C497 C 0.13909 0.71251 0.33611
 C498 C 0.15578 0.73164 0.31662
 H499 H 0.08886 0.64843 0.32164
 H500 H 0.11145 0.62220 0.36757
 H501 H 0.04817 0.64785 0.37049
 H502 H 0.09398 0.70787 0.39009
 H503 H 0.15708 0.68193 0.38735
 H504 H 0.11644 0.68137 0.43621
 C505 C 0.86817 0.54354 0.88260
 C506 C 0.89335 0.53640 0.87180
 C507 C 0.91473 0.55860 0.89828
 C508 C 0.88978 0.56566 0.90942
 C509 C 0.88101 0.57033 0.85808
 C510 C 0.90235 0.59262 0.88452
 C511 C 0.90597 0.56325 0.84701
 C512 C 0.92765 0.58540 0.87378
 C513 C 0.93268 0.55022 0.91975
 C514 C 0.94656 0.54148 0.93643
 C515 C 0.86151 0.57512 0.83496
 C516 C 0.84484 0.57730 0.81528
 H517 H 0.84351 0.52636 0.88600
 H518 H 0.88983 0.51319 0.86679
 H519 H 0.88335 0.56658 0.93534
 H520 H 0.90582 0.61581 0.88947
 H521 H 0.91243 0.56230 0.82111
 H522 H 0.95233 0.60253 0.87043
 C523 C 0.45629 0.32486 0.88435
 C524 C 0.46522 0.35755 0.87295
 C525 C 0.44226 0.35766 0.89778
 C526 C 0.43341 0.32529 0.90953
 C527 C 0.43067 0.31163 0.85841
 C528 C 0.40762 0.31162 0.88320
 C529 C 0.43954 0.34404 0.84675
 C530 C 0.41663 0.34449 0.87186
 C531 C 0.45049 0.38428 0.91881
 C532 C 0.45903 0.40711 0.93515
 C533 C 0.42586 0.28702 0.83571
 C534 C 0.42359 0.26787 0.81634
 H535 H 0.47256 0.31655 0.88926
 H536 H 0.48899 0.37671 0.86895
 H537 H 0.43096 0.31789 0.93559
 H538 H 0.38386 0.29242 0.88714
 H539 H 0.44202 0.35151 0.82070
 H540 H 0.40041 0.35287 0.86698
 C541 C 0.65623 0.10039 0.85152
 C542 C 0.65451 0.07515 0.87461
 C543 C 0.64462 0.08859 0.90283
 C544 C 0.64601 0.11355 0.88003
 C545 C 0.68981 0.12144 0.86181
 C546 C 0.67987 0.13483 0.89005
 C547 C 0.68854 0.09650 0.88456
 C548 C 0.67817 0.10962 0.91321
 C549 C 0.61852 0.07113 0.92485
 C550 C 0.59615 0.05765 0.94208
 C551 C 0.71398 0.14044 0.83826
 C552 C 0.73276 0.15673 0.81824
 H553 H 0.64744 0.09678 0.82592
 H554 H 0.64379 0.05040 0.86853
 H555 H 0.62825 0.12038 0.87838
 H556 H 0.69053 0.15956 0.89616
 H557 H 0.70634 0.08973 0.88615
 H558 H 0.68688 0.11319 0.93884
 C559 C 0.09509 0.40515 0.38249
 C560 C 0.10738 0.43074 0.40907
 C561 C 0.08396 0.43979 0.39756
 C562 C 0.07133 0.41436 0.37140
 C563 C 0.11824 0.42832 0.35786
 C564 C 0.09481 0.43739 0.34644
 C565 C 0.13081 0.45374 0.38404
 C566 C 0.10715 0.46286 0.37289
 C567 C 0.06568 0.44803 0.41871
 C568 C 0.05152 0.45668 0.43509
 C569 C 0.13799 0.42367 0.33493
 C570 C 0.15480 0.42160 0.31532
 H571 H 0.09037 0.38135 0.38616
 H572 H 0.11230 0.42808 0.43508
 H573 H 0.04665 0.39825 0.36647
 H574 H 0.08984 0.44009 0.32046
 H575 H 0.15548 0.46990 0.38901
 H576 H 0.11192 0.48668 0.36915
 C577 C 0.59145 0.69014 0.38511
 C578 C 0.56468 0.67574 0.41029
 C579 C 0.55733 0.64367 0.39895
 C580 C 0.58395 0.65757 0.37418
 C581 C 0.56900 0.68929 0.35901
 C582 C 0.56164 0.65720 0.34775
 C583 C 0.54240 0.67533 0.38380
 C584 C 0.53497 0.64296 0.37281
 C585 C 0.54905 0.61728 0.42031
 C586 C 0.54045 0.59463 0.43691
 C587 C 0.57382 0.71368 0.33603
 C588 C 0.57611 0.73265 0.31646
 H589 H 0.61475 0.70985 0.38989
 H590 H 0.56586 0.68305 0.43626
 H591 H 0.60095 0.64996 0.37050
 H592 H 0.56042 0.64982 0.32180
 H593 H 0.52535 0.68288 0.38753
 H594 H 0.51166 0.62328 0.36797
 C595 C 0.34412 0.89417 0.35153
 C596 C 0.34984 0.92434 0.36784
 C597 C 0.35573 0.91317 0.40070
 C598 C 0.35034 0.88327 0.38464
 C599 C 0.31001 0.87915 0.36076
 C600 C 0.31592 0.86800 0.39363
 C601 C 0.31530 0.90905 0.37676
 C602 C 0.32166 0.89820 0.41007
 C603 C 0.38221 0.93133 0.42199
 C604 C 0.40500 0.94543 0.43846
 C605 C 0.28565 0.85961 0.33767
 C606 C 0.26678 0.84300 0.31791
 H607 H 0.35314 0.89231 0.32724
 H608 H 0.36408 0.94771 0.35749
 H609 H 0.36504 0.87286 0.38809
 H610 H 0.30171 0.84462 0.40398
 H611 H 0.30058 0.91941 0.37325
 H612 H 0.31276 0.90012 0.43440
 C613 C 0.56756 0.90941 0.15419
 C614 C 0.58842 0.92883 0.12540
 C615 C 0.55982 0.91730 0.10359
 C616 C 0.53893 0.89820 0.13209
 C617 C 0.57065 0.88210 0.14245
 C618 C 0.54208 0.87066 0.12061
 C619 C 0.59163 0.90116 0.11398
 C620 C 0.56290 0.89001 0.09179
 C621 C 0.55208 0.93623 0.08294
 C622 C 0.54398 0.95105 0.06700
 C623 C 0.57505 0.86193 0.16492
 C624 C 0.57702 0.84486 0.18419
 H625 H 0.56951 0.91718 0.18008
 H626 H 0.60739 0.95297 0.12710
 H627 H 0.51718 0.89717 0.13933
 H628 H 0.52305 0.84653 0.11887
 H629 H 0.61337 0.90213 0.10681
 H630 H 0.56091 0.88227 0.06588
 C631 C 0.32309 0.45652 0.11380
 C632 C 0.35561 0.46421 0.12458
 C633 C 0.35497 0.44191 0.09839
 C634 C 0.32277 0.43430 0.08726
 C635 C 0.30940 0.42997 0.13862
 C636 C 0.30864 0.40757 0.11247
 C637 C 0.34163 0.43760 0.14967
 C638 C 0.34134 0.41535 0.12319
 C639 C 0.38136 0.45035 0.07689
 C640 C 0.40401 0.45908 0.06020
 C641 C 0.28506 0.42502 0.16179
 C642 C 0.26615 0.42266 0.18154
 H643 H 0.31535 0.47342 0.11017
 H644 H 0.37519 0.48759 0.12934
 H645 H 0.31532 0.43302 0.06134
 H646 H 0.28901 0.38421 0.10777
 H647 H 0.34915 0.43892 0.17557
 H648 H 0.34915 0.39850 0.12677
 C649 C 0.09717 0.69068 0.11530
 C650 C 0.10945 0.67723 0.08891
 C651 C 0.08554 0.64476 0.10014
 C652 C 0.07292 0.65771 0.12611
 C653 C 0.11983 0.69021 0.14025
 C654 C 0.09590 0.65771 0.15139
 C655 C 0.13238 0.67721 0.11426
 C656 C 0.10822 0.64442 0.12513
 C657 C 0.06720 0.61840 0.07875
 C658 C 0.05293 0.59571 0.06220
 C659 C 0.13952 0.71444 0.16340
 C660 C 0.15624 0.73321 0.18319
 H661 H 0.09287 0.71002 0.11154
 H662 H 0.11478 0.68495 0.06297
 H663 H 0.04825 0.64940 0.13071
 H664 H 0.09053 0.64992 0.17731
 H665 H 0.15704 0.68546 0.10963
 H666 H 0.11258 0.62513 0.12896
 C667 C 0.45626 0.13112 0.61725
 C668 C 0.46349 0.10606 0.62824
 C669 C 0.44104 0.08438 0.60212
 C670 C 0.43388 0.10920 0.59079
 C671 C 0.42968 0.11859 0.64206
 C672 C 0.40713 0.09694 0.61598
 C673 C 0.43685 0.09376 0.65333
 C674 C 0.41444 0.07178 0.62691
 C675 C 0.44916 0.06616 0.58072
 C676 C 0.45764 0.05204 0.56405
 C677 C 0.42504 0.13833 0.66501
 C678 C 0.42293 0.15520 0.68451
 H679 H 0.47343 0.15571 0.61350
 H680 H 0.48675 0.10963 0.63307
 H681 H 0.43274 0.11531 0.56481
 H682 H 0.38389 0.09343 0.61121
 H683 H 0.43803 0.08762 0.67928
 H684 H 0.39732 0.04716 0.63061
 C685 C 0.67647 0.54368 0.61401
 C686 C 0.64373 0.53481 0.62530
 C687 C 0.64368 0.55765 0.60033
 C688 C 0.67611 0.56646 0.58870
 C689 C 0.68964 0.56940 0.63986
 C690 C 0.68972 0.59233 0.61494
 C691 C 0.65718 0.56058 0.65141
 C692 C 0.65679 0.58337 0.62617
 C693 C 0.61711 0.54937 0.57922
 C694 C 0.59432 0.54083 0.56282
 C695 C 0.71419 0.57428 0.66267
 C696 C 0.73325 0.57661 0.68217
 H697 H 0.68480 0.52740 0.60924
 H698 H 0.62455 0.51106 0.62935
 H699 H 0.68358 0.56880 0.56265
 H700 H 0.70894 0.61606 0.61095
 H701 H 0.64963 0.55820 0.67744
 H702 H 0.64840 0.59961 0.63090
 C703 C 0.86656 0.32239 0.61502
 C704 C 0.89158 0.35494 0.62558
 C705 C 0.91314 0.35409 0.59939
 C706 C 0.88836 0.32184 0.58849
 C707 C 0.87943 0.30883 0.63994
 C708 C 0.90096 0.30785 0.61379
 C709 C 0.90422 0.34110 0.65077
 C710 C 0.92608 0.34059 0.62428
 C711 C 0.93112 0.38031 0.57770
 C712 C 0.94508 0.40282 0.56084
 C713 C 0.85998 0.28467 0.66328
 C714 C 0.84337 0.26596 0.68317
 H715 H 0.84189 0.31467 0.61145
 H716 H 0.88789 0.37457 0.63021
 H717 H 0.88206 0.31422 0.56262
 H718 H 0.90459 0.28818 0.60922
 H719 H 0.91055 0.34879 0.67662
 H720 H 0.95078 0.34838 0.62782
   
