data_POSCAR
  _audit_creation_date              2014-09-24
  _audit_creation_method            'ToBaCCo'
  _symmetry_space_group_name_H-M    'P1'
  _symmetry_Int_Tables_number       1
  _symmetry_cell_setting            triclinic
  loop_
  _symmetry_equiv_pos_as_xyz
 x,y,z
_cell_length_a 40.4415
_cell_length_b 39.9970
_cell_length_c 17.1241
_cell_angle_alpha 90.008400
_cell_angle_beta 90.012200
_cell_angle_gamma 120.477100
loop_
  _atom_site_label
  _atom_site_type_symbol
  _atom_site_fract_x
  _atom_site_fract_y
  _atom_site_fract_z
C1 C 0.14673 0.43313 0.42677
 C2 C 0.12990 0.43345 0.49848
 C3 C 0.14684 0.43557 0.57172
 C4 C 0.18398 0.43956 0.57112
 C5 C 0.19801 0.43216 0.50107
 C6 C 0.17789 0.42637 0.42953
 C7 C 0.18879 0.41252 0.36506
 C8 C 0.22317 0.41247 0.36561
 C9 C 0.24753 0.42614 0.43070
 C10 C 0.23316 0.43209 0.50163
 C11 C 0.20840 0.45239 0.63661
 C12 C 0.24280 0.45244 0.63706
 C13 C 0.25460 0.43968 0.57205
 C14 C 0.28811 0.43624 0.57312
 C15 C 0.30301 0.43429 0.49990
 C16 C 0.28535 0.43305 0.42856
 H17 H 0.17052 0.40095 0.31430
 H18 H 0.23016 0.40095 0.31523
 H19 H 0.20212 0.46388 0.68781
 H20 H 0.26046 0.46397 0.68846
 H21 H 0.10451 0.43587 0.49560
 H22 H 0.33116 0.43748 0.49664
 C23 C 0.57764 -0.28185 0.57081
 C24 C 0.58102 -0.29621 0.49795
 C25 C 0.57994 -0.27966 0.42611
 C26 C 0.58493 -0.24194 0.42855
 C27 C 0.57882 -0.22778 0.50007
 C28 C 0.57276 -0.24899 0.57036
 C29 C 0.56039 -0.23752 0.63656
 C30 C 0.55836 -0.20382 0.63660
 C31 C 0.56899 -0.17957 0.57071
 C32 C 0.57700 -0.19315 0.50027
 C33 C 0.59738 -0.21715 0.36364
 C34 C 0.59563 -0.18330 0.36381
 C35 C 0.58144 -0.17329 0.42891
 C36 C 0.57248 -0.14351 0.42632
 C37 C 0.57035 -0.12727 0.49743
 C38 C 0.57002 -0.14328 0.57102
 H39 H 0.55073 -0.25494 0.68874
 H40 H 0.54694 -0.19807 0.68845
 H41 H 0.60906 -0.22348 0.31270
 H42 H 0.60611 -0.16470 0.31308
 H43 H 0.57986 -0.32374 0.49530
 H44 H 0.56541 -0.10318 0.49379
 C45 C 1.14010 0.71765 0.42910
 C46 C 1.12096 0.70285 0.50021
 C47 C 1.13817 0.71717 0.57372
 C48 C 1.17634 0.75019 0.57312
 C49 C 1.19283 0.77040 0.50178
 C50 C 1.17384 0.75451 0.42996
 C51 C 1.18924 0.77576 0.36140
 C52 C 1.22557 0.80847 0.36022
 C53 C 1.24669 0.82438 0.42924
 C54 C 1.22962 0.80519 0.50155
 C55 C 1.19955 0.76247 0.64017
 C56 C 1.23542 0.79582 0.64003
 C57 C 1.25019 0.81906 0.57305
 C58 C 1.28677 0.85340 0.57337
 C59 C 1.30443 0.86707 0.50069
 C60 C 1.28498 0.85712 0.42870
 H61 H 1.17340 0.76717 0.30719
 H62 H 1.23662 0.81957 0.30325
 H63 H 1.19145 0.74579 0.69330
 H64 H 1.25211 0.80172 0.69268
 H65 H 1.09362 0.67642 0.49638
 H66 H 1.33532 0.88501 0.50077
 C67 C 0.85209 0.56420 0.57458
 C68 C 0.86871 0.56413 0.50235
 C69 C 0.85143 0.56212 0.42985
 C70 C 0.81471 0.55886 0.43121
 C71 C 0.80077 0.56579 0.50208
 C72 C 0.82097 0.57104 0.57314
 C73 C 0.81029 0.58462 0.63847
 C74 C 0.77601 0.58490 0.63902
 C75 C 0.75138 0.57170 0.57421
 C76 C 0.76576 0.56615 0.50261
 C77 C 0.79073 0.54749 0.36531
 C78 C 0.75655 0.54790 0.36580
 C79 C 0.74468 0.55965 0.43224
 C80 C 0.71171 0.56373 0.43183
 C81 C 0.69691 0.56602 0.50469
 C82 C 0.71366 0.56566 0.57656
 H83 H 0.82872 0.59586 0.68909
 H84 H 0.76941 0.59639 0.69000
 H85 H 0.79724 0.53694 0.31303
 H86 H 0.73920 0.53766 0.31378
 H87 H 0.89411 0.56172 0.50406
 H88 H 0.66933 0.56412 0.50699
 C89 C 0.41250 0.27881 0.42890
 C90 C 0.40146 0.28750 0.50004
 C91 C 0.41273 0.27926 0.57148
 C92 C 0.42072 0.24847 0.57242
 C93 C 0.42232 0.23129 0.50090
 C94 C 0.42026 0.24790 0.42885
 C95 C 0.42692 0.23377 0.35926
 C96 C 0.43394 0.20324 0.35960
 C97 C 0.43303 0.18416 0.42907
 C98 C 0.42896 0.19949 0.50130
 C99 C 0.42810 0.23504 0.64224
 C100 C 0.43520 0.20451 0.64265
 C101 C 0.43352 0.18455 0.57381
 C102 C 0.43967 0.15243 0.57386
 C103 C 0.44725 0.14135 0.50128
 C104 C 0.43943 0.15243 0.42930
 H105 H 0.42708 0.24615 0.30322
 H106 H 0.44169 0.19620 0.30445
 H107 H 0.42880 0.24800 0.69791
 H108 H 0.44363 0.19818 0.69780
 H109 H 0.38646 0.30318 0.49968
 H110 H 0.46038 0.12360 0.50069
 C111 C 0.71438 0.14941 0.57320
 C112 C 0.69536 0.13748 0.50128
 C113 C 0.71378 0.14896 0.42880
 C114 C 0.75186 0.18114 0.42814
 C115 C 0.77155 0.19679 0.50014
 C116 C 0.75242 0.18167 0.57275
 C117 C 0.77081 0.20136 0.64167
 C118 C 0.80816 0.23258 0.64100
 C119 C 0.82861 0.24684 0.57088
 C120 C 0.80985 0.22909 0.49946
 C121 C 0.76972 0.20029 0.35855
 C122 C 0.80720 0.23114 0.35786
 C123 C 0.82831 0.24553 0.42721
 C124 C 0.86706 0.27655 0.42678
 C125 C 0.88673 0.28623 0.49815
 C126 C 0.86708 0.27877 0.56948
 H127 H 0.75630 0.19428 0.69714
 H128 H 0.82057 0.24537 0.69676
 H129 H 0.75473 0.19298 0.30357
 H130 H 0.81901 0.24358 0.30166
 H131 H 0.66452 0.11925 0.50176
 H132 H 0.91749 0.30214 0.49827
 N133 N 0.95503 0.53391 0.08187
 N134 N 0.93336 0.54770 0.10770
 N135 N 1.03501 0.55266 0.13830
 N136 N 1.05606 0.57076 0.19946
 N137 N 1.03527 0.57751 0.08778
 N138 N 1.05630 0.61341 0.11489
 N139 N 0.95448 0.50867 0.13181
 N140 N 0.93211 0.50432 0.19138
 C141 C 0.91830 0.52795 0.17512
 C142 C 1.06970 0.60858 0.18432
 N143 N 1.04158 0.46076 0.08622
 N144 N 1.06465 0.44872 0.11250
 N145 N 0.95815 0.43884 0.13057
 N146 N 0.93697 0.41878 0.19030
 N147 N 0.96159 0.41588 0.08045
 N148 N 0.94345 0.37968 0.10660
 N149 N 1.03885 0.48353 0.13779
 N150 N 1.06034 0.48811 0.19903
 Mn151 Mn 0.99652 0.49588 0.13441
 C152 C 1.07701 0.46706 0.18234
 C153 C 0.92741 0.38195 0.17440
 N154 N 1.03795 0.57980 -0.08348
 N155 N 1.05760 0.61617 -0.10878
 N156 N 0.95923 0.51180 -0.13895
 N157 N 0.93735 0.50712 -0.19953
 N158 N 0.95773 0.53562 -0.08814
 N159 N 0.93496 0.54806 -0.11413
 N160 N 1.03983 0.55637 -0.13485
 N161 N 1.06118 0.57616 -0.19468
 Mn162 Mn 0.99657 0.55710 -0.00047
 C163 C 1.07294 0.61344 -0.17735
 C164 C 0.92168 0.52911 -0.18308
 N165 N 0.96435 0.41788 -0.08936
 N166 N 0.94552 0.38193 -0.11675
 N167 N 1.04365 0.48689 -0.13502
 N168 N 1.06589 0.49138 -0.19480
 N169 N 1.04426 0.46262 -0.08408
 N170 N 1.06646 0.44943 -0.10960
 N171 N 0.96289 0.44193 -0.13965
 N172 N 0.94240 0.42288 -0.20104
 Mn173 Mn 1.00303 0.43908 -0.00172
 Mn174 Mn 1.00133 0.49920 -0.13701
 Cl175 Cl 0.99937 0.49785 -0.00124
 C176 C 0.93126 0.38550 -0.18589
 C177 C 1.08068 0.46869 -0.17777
 N178 N 0.45558 0.41909 0.08442
 N179 N 0.43796 0.38293 0.11072
 N180 N 0.44580 0.48702 0.13849
 N181 N 0.42866 0.49169 0.19912
 N182 N 0.42040 0.46377 0.08709
 N183 N 0.38518 0.45152 0.11283
 N184 N 0.48179 0.44244 0.13458
 N185 N 0.48319 0.42270 0.19461
 C186 C 0.45627 0.38563 0.17882
 C187 C 0.39096 0.47021 0.18206
 N188 N 0.54381 0.58094 0.08809
 N189 N 0.55923 0.61703 0.11455
 N190 N 0.55534 0.51236 0.13479
 N191 N 0.57322 0.50804 0.19457
 N192 N 0.58019 0.53718 0.08439
 N193 N 0.61568 0.55076 0.11009
 N194 N 0.51898 0.55649 0.13889
 N195 N 0.51640 0.57513 0.19957
 Mn196 Mn 0.50051 0.49954 0.13654
 C197 C 0.54098 0.61286 0.18372
 C198 C 0.61074 0.53129 0.17798
 N199 N 0.41941 0.46426 -0.08308
 N200 N 0.38393 0.45092 -0.10866
 N201 N 0.48049 0.44367 -0.13603
 N202 N 0.48194 0.42430 -0.19670
 N203 N 0.45498 0.41989 -0.08532
 N204 N 0.43791 0.38377 -0.11163
 N205 N 0.44432 0.48817 -0.13447
 N206 N 0.42649 0.49217 -0.19482
 Mn207 Mn 0.43731 0.44154 0.00079
 C208 C 0.38892 0.46964 -0.17757
 C209 C 0.45578 0.38700 -0.18052
 N210 N 0.57939 0.53786 -0.08584
 N211 N 0.61468 0.55046 -0.11188
 N212 N 0.51768 0.55777 -0.13405
 N213 N 0.51527 0.57711 -0.19360
 N214 N 0.54302 0.58160 -0.08308
 N215 N 0.55898 0.61788 -0.10832
 N216 N 0.55405 0.51367 -0.13632
 N217 N 0.57133 0.50889 -0.19663
 Mn218 Mn 0.56193 0.55978 0.00086
 Mn219 Mn 0.49918 0.50081 -0.13512
 Cl220 Cl 0.49976 0.50045 0.00074
 C221 C 0.60907 0.53122 -0.18047
 C222 C 0.54034 0.61454 -0.17641
 N223 N 0.41853 -0.03950 0.08374
 N224 N 0.38275 -0.05945 0.10990
 N225 N 0.48479 0.04124 0.13491
 N226 N 0.48906 0.06371 0.19462
 N227 N 0.46057 0.04146 0.08403
 N228 N 0.44707 0.06355 0.10941
 N229 N 0.44226 -0.04058 0.13475
 N230 N 0.42322 -0.06194 0.19527
 C231 C 0.38617 -0.07405 0.17891
 C232 C 0.46595 0.07792 0.17782
 N233 N 0.57873 0.03896 0.08530
 N234 N 0.61451 0.06033 0.11062
 N235 N 0.51244 -0.04195 0.13531
 N236 N 0.50840 -0.06414 0.19537
 N237 N 0.53673 -0.04216 0.08463
 N238 N 0.55022 -0.06420 0.11037
 N239 N 0.55470 0.03969 0.13594
 N240 N 0.57342 0.06198 0.19565
 Mn241 Mn 0.49855 -0.00041 0.13518
 C242 C 0.61064 0.07522 0.17889
 C243 C 0.53132 -0.07860 0.17875
 N244 N 0.46106 0.04175 -0.08586
 N245 N 0.44770 0.06400 -0.11098
 N246 N 0.44347 -0.03998 -0.13701
 N247 N 0.42481 -0.06275 -0.19609
 N248 N 0.41939 -0.03941 -0.08626
 N249 N 0.38359 -0.06143 -0.11087
 N250 N 0.48546 0.04174 -0.13651
 N251 N 0.48983 0.06442 -0.19599
 Mn252 Mn 0.43960 0.00107 -0.00117
 C253 C 0.46673 0.07867 -0.17909
 C254 C 0.38756 -0.07656 -0.17869
 N255 N 0.53750 -0.04180 -0.08557
 N256 N 0.55176 -0.06317 -0.11135
 N257 N 0.55556 0.04039 -0.13557
 N258 N 0.57460 0.06313 -0.19442
 N259 N 0.57930 0.03938 -0.08451
 N260 N 0.61523 0.06099 -0.10875
 N261 N 0.51369 -0.04132 -0.13725
 N262 N 0.51081 -0.06270 -0.19820
 Mn263 Mn 0.55835 -0.00143 -0.00001
 Mn264 Mn 0.49952 0.00020 -0.13661
 Cl265 Cl 0.49899 -0.00020 -0.00065
 C266 C 0.53389 -0.07693 -0.18092
 C267 C 0.61171 0.07633 -0.17672
 C268 C 1.13179 0.44231 0.35716
 C269 C 1.09131 0.40902 0.33626
 C270 C 1.07390 0.41728 0.27772
 C271 C 1.09820 0.45812 0.24369
 C272 C 1.10935 0.48565 0.31394
 C273 C 1.12717 0.47791 0.37187
 C274 C 1.15418 0.45349 0.27866
 C275 C 1.13613 0.46104 0.21918
 H276 H 1.07755 0.38093 0.36494
 H277 H 1.04538 0.39634 0.25686
 H278 H 1.10619 0.51102 0.31604
 H279 H 1.13911 0.49705 0.42200
 H280 H 1.18359 0.46035 0.27186
 H281 H 1.14950 0.47191 0.16272
 C282 C 0.56973 0.69526 0.35713
 C283 C 0.60216 0.68781 0.33333
 C284 C 0.59275 0.66121 0.27534
 C285 C 0.55168 0.64408 0.24475
 C286 C 0.52600 0.62823 0.31750
 C287 C 0.53491 0.65468 0.37478
 C288 C 0.55707 0.70575 0.27960
 C289 C 0.54835 0.67926 0.22075
 H290 H 0.63050 0.70263 0.35969
 H291 H 0.61296 0.65335 0.25267
 H292 H 0.50104 0.59933 0.32220
 H293 H 0.51715 0.64779 0.42667
 H294 H 0.55008 0.72841 0.27331
 H295 H 0.53647 0.68124 0.16528
 C296 C 0.30840 -0.12408 0.35890
 C297 C 0.29069 -0.11529 0.28697
 C298 C 0.31522 -0.09984 0.22439
 C299 C 0.35575 -0.09280 0.24075
 C300 C 0.36833 -0.06761 0.31433
 C301 C 0.34364 -0.08316 0.37477
 C302 C 0.32516 -0.14835 0.32710
 C303 C 0.34965 -0.13216 0.26623
 H304 H 0.26314 -0.11677 0.28771
 H305 H 0.30763 -0.09008 0.17186
 H306 H 0.39238 -0.03801 0.31604
 H307 H 0.34660 -0.06545 0.42535
 H308 H 0.31788 -0.17654 0.35035
 H309 H 0.36310 -0.14650 0.23780
 C310 C 0.86979 0.55575 0.35648
 C311 C 0.91344 0.57148 0.36310
 C312 C 0.92858 0.56216 0.30214
 C313 C 0.89959 0.53897 0.23778
 C314 C 0.86711 0.50344 0.27878
 C315 C 0.85179 0.51214 0.34038
 C316 C 0.86715 0.57348 0.27794
 C317 C 0.88224 0.56416 0.21551
 H318 H 0.93210 0.59233 0.40644
 H319 H 0.95926 0.57367 0.29664
 H320 H 0.85669 0.47376 0.26034
 H321 H 0.82836 0.48980 0.37449
 H322 H 0.85617 0.59313 0.27245
 H323 H 0.88336 0.57521 0.15711
 C324 C 0.42233 0.30698 0.35931
 C325 C 0.39717 0.28971 0.28575
 C326 C 0.40797 0.31476 0.22378
 C327 C 0.44268 0.35509 0.24119
 C328 C 0.43102 0.36883 0.31403
 C329 C 0.42089 0.34438 0.37555
 C330 C 0.46390 0.32290 0.33088
 C331 C 0.47427 0.34752 0.26911
 H332 H 0.37276 0.26039 0.28303
 H333 H 0.39291 0.30672 0.16832
 H334 H 0.43177 0.39632 0.31789
 H335 H 0.41464 0.35311 0.43060
 H336 H 0.48383 0.31579 0.35804
 H337 H 0.50270 0.36094 0.24334
 C338 C 0.68884 0.12885 0.35612
 C339 C 0.66873 0.15052 0.32804
 C340 C 0.64401 0.13325 0.26778
 C341 C 0.64113 0.09550 0.23983
 C342 C 0.68261 0.10637 0.22063
 C343 C 0.70751 0.12320 0.28208
 C344 C 0.65609 0.08682 0.37237
 C345 C 0.63118 0.06995 0.31261
 H346 H 0.67399 0.17771 0.35317
 H347 H 0.62824 0.14571 0.24155
 H348 H 0.69112 0.09916 0.16599
 H349 H 0.73680 0.12910 0.27976
 H350 H 0.65475 0.06997 0.42323
 H351 H 0.60846 0.03971 0.31454
 C352 C 0.44381 0.13329 -0.35692
 C353 C 0.48573 0.15414 -0.32902
 C354 C 0.49263 0.13659 -0.26862
 C355 C 0.45718 0.09940 -0.24016
 C356 C 0.42736 0.11132 -0.22103
 C357 C 0.41971 0.12834 -0.28271
 C358 C 0.43318 0.09072 -0.37236
 C359 C 0.44083 0.07367 -0.31252
 H360 H 0.50820 0.18104 -0.35431
 H361 H 0.52088 0.14850 -0.24254
 H362 H 0.41159 0.10439 -0.16648
 H363 H 0.39649 0.13448 -0.28051
 H364 H 0.41727 0.07384 -0.42296
 H365 H 0.43252 0.04323 -0.31408
 C366 C 0.68925 0.55632 -0.35424
 C367 C 0.69987 0.54446 -0.27588
 C368 C 0.67404 0.53680 -0.21680
 C369 C 0.63939 0.54029 -0.24155
 C370 C 0.65658 0.58138 -0.27459
 C371 C 0.68249 0.58975 -0.33272
 C372 C 0.64883 0.52110 -0.37008
 C373 C 0.62304 0.51324 -0.31256
 H374 H 0.72213 0.53721 -0.26902
 H375 H 0.67612 0.52548 -0.16056
 H376 H 0.64925 0.60240 -0.25337
 H377 H 0.69729 0.61802 -0.36068
 H378 H 0.64162 0.50227 -0.42072
 H379 H 0.59431 0.48809 -0.31559
 C380 C 0.88463 0.30620 -0.36560
 C381 C 0.89499 0.29001 -0.29373
 C382 C 0.90986 0.31532 -0.23236
 C383 C 0.91369 0.35495 -0.24838
 C384 C 0.93745 0.36929 -0.32334
 C385 C 0.92235 0.34466 -0.38443
 C386 C 0.85848 0.32088 -0.33374
 C387 C 0.87343 0.34580 -0.27235
 H388 H 0.89112 0.26111 -0.29154
 H389 H 0.91849 0.30791 -0.17811
 H390 H 0.96293 0.39778 -0.32958
 H391 H 0.93492 0.35457 -0.44153
 H392 H 0.83074 0.31300 -0.35856
 H393 H 0.85831 0.35860 -0.24465
 C394 C 0.56321 -0.12583 -0.36010
 C395 C 0.57791 -0.08180 -0.36764
 C396 C 0.56798 -0.06662 -0.30760
 C397 C 0.54545 -0.09573 -0.24278
 C398 C 0.51078 -0.12933 -0.28338
 C399 C 0.51995 -0.14483 -0.34418
 C400 C 0.58111 -0.12729 -0.28097
 C401 C 0.57121 -0.11215 -0.21933
 H402 H 0.59832 -0.06287 -0.41125
 H403 H 0.57863 -0.03571 -0.30301
 H404 H 0.48130 -0.14036 -0.26525
 H405 H 0.49814 -0.16905 -0.37778
 H406 H 0.60146 -0.13720 -0.27455
 H407 H 0.58242 -0.11011 -0.16085
 C408 C 0.31184 0.44234 -0.35773
 C409 C 0.33864 0.48595 -0.34293
 C410 C 0.36287 0.49446 -0.28172
 C411 C 0.35891 0.45882 -0.23968
 C412 C 0.31633 0.43472 -0.21645
 C413 C 0.29164 0.42546 -0.27847
 C414 C 0.33875 0.42533 -0.36378
 C415 C 0.36351 0.43460 -0.30333
 H416 H 0.33822 0.50848 -0.37757
 H417 H 0.38294 0.52413 -0.26424
 H418 H 0.30651 0.42410 -0.15776
 H419 H 0.26091 0.40624 -0.27215
 H420 H 0.33574 0.40394 -0.40659
 H421 H 0.38203 0.42239 -0.29759
 C422 C 1.12018 0.69253 -0.35742
 C423 C 1.07653 0.66277 -0.36391
 C424 C 1.06182 0.63748 -0.30343
 C425 C 1.09095 0.64436 -0.23921
 C426 C 1.12390 0.64323 -0.28058
 C427 C 1.13881 0.66786 -0.34180
 C428 C 1.12208 0.71232 -0.27825
 C429 C 1.10741 0.68714 -0.21616
 H430 H 1.05720 0.66476 -0.40505
 H431 H 1.03119 0.61746 -0.29741
 H432 H 1.13490 0.62463 -0.26277
 H433 H 1.16241 0.66997 -0.37605
 H434 H 1.13236 0.74308 -0.27210
 H435 H 1.10590 0.69659 -0.15756
 C436 C 0.86708 0.55463 -0.35657
 C437 C 0.90742 0.58793 -0.33499
 C438 C 0.92481 0.57939 -0.27690
 C439 C 0.90060 0.53828 -0.24408
 C440 C 0.86254 0.53492 -0.21927
 C441 C 0.84451 0.54274 -0.27829
 C442 C 0.87195 0.51929 -0.37262
 C443 C 0.88976 0.51127 -0.31515
 H444 H 0.92110 0.61621 -0.36288
 H445 H 0.95325 0.60029 -0.25560
 H446 H 0.84907 0.52356 -0.16309
 H447 H 0.81500 0.53560 -0.27151
 H448 H 0.86017 0.50048 -0.42326
 H449 H 0.89308 0.48602 -0.31818
 C450 C 0.42245 0.30773 -0.35961
 C451 C 0.46420 0.32437 -0.33167
 C452 C 0.47446 0.34928 -0.27037
 C453 C 0.44254 0.35633 -0.24246
 C454 C 0.43031 0.36941 -0.31540
 C455 C 0.42029 0.34470 -0.37645
 C456 C 0.39762 0.29053 -0.28570
 C457 C 0.40829 0.31583 -0.22422
 H458 H 0.48432 0.31753 -0.35881
 H459 H 0.50300 0.36322 -0.24497
 H460 H 0.43074 0.39672 -0.31980
 H461 H 0.41374 0.35308 -0.43159
 H462 H 0.37352 0.26105 -0.28238
 H463 H 0.39342 0.30785 -0.16857
 C464 C 0.68989 0.12966 -0.35360
 C465 C 0.70880 0.12483 -0.27901
 C466 C 0.68393 0.10812 -0.21747
 C467 C 0.64232 0.09659 -0.23722
 C468 C 0.64466 0.13391 -0.26635
 C469 C 0.66931 0.15103 -0.32667
 C470 C 0.65759 0.08734 -0.36902
 C471 C 0.63271 0.07062 -0.30928
 H472 H 0.73817 0.13098 -0.27642
 H473 H 0.69255 0.10134 -0.16248
 H474 H 0.62863 0.14622 -0.24078
 H475 H 0.67425 0.17797 -0.35254
 H476 H 0.65648 0.07033 -0.41941
 H477 H 0.61022 0.04029 -0.31071
 C478 C 1.12923 0.44142 -0.35914
 C479 C 1.13245 0.42405 -0.28045
 C480 C 1.11743 0.43331 -0.21788
 C481 C 1.09939 0.45783 -0.24022
 C482 C 1.13125 0.49350 -0.28189
 C483 C 1.14658 0.48503 -0.34366
 C484 C 1.08533 0.42478 -0.36485
 C485 C 1.07020 0.43401 -0.30381
 H486 H 1.14366 0.40459 -0.27493
 H487 H 1.11663 0.42245 -0.15943
 H488 H 1.14124 0.52315 -0.26383
 H489 H 1.16959 0.50758 -0.37830
 H490 H 1.06663 0.40344 -0.40749
 H491 H 1.03946 0.42192 -0.29756
 C492 C 0.57076 0.69258 -0.35663
 C493 C 0.52748 0.66732 -0.34149
 C494 C 0.51809 0.64290 -0.28002
 C495 C 0.55262 0.64505 -0.23836
 C496 C 0.57533 0.63864 -0.30227
 C497 C 0.58536 0.66361 -0.36309
 C498 C 0.58826 0.71287 -0.27772
 C499 C 0.57825 0.68794 -0.21547
 H500 H 0.50584 0.66893 -0.37616
 H501 H 0.48852 0.62387 -0.26220
 H502 H 0.58613 0.61882 -0.29633
 H503 H 0.60617 0.66558 -0.40556
 H504 H 0.60798 0.74383 -0.27184
 H505 H 0.58889 0.69770 -0.15677
 C506 C 0.31025 -0.12858 -0.35732
 C507 C 0.34064 -0.08507 -0.36865
 C508 C 0.36532 -0.06885 -0.30839
 C509 C 0.35731 -0.09647 -0.23985
 C510 C 0.31516 -0.11115 -0.21859
 C511 C 0.29049 -0.12735 -0.28058
 C512 C 0.33320 -0.14826 -0.33549
 C513 C 0.35751 -0.13166 -0.27450
 H514 H 0.34071 -0.06734 -0.41676
 H515 H 0.38658 -0.03809 -0.30693
 H516 H 0.30583 -0.10716 -0.16172
 H517 H 0.26036 -0.13622 -0.27625
 H518 H 0.33009 -0.17371 -0.36513
 H519 H 0.37505 -0.14296 -0.25216
 C520 C 0.56121 -0.12927 0.35302
 C521 C 0.52431 -0.12783 0.36816
 C522 C 0.51469 -0.11141 0.31024
 C523 C 0.54208 -0.09830 0.24002
 C524 C 0.58204 -0.07132 0.27408
 C525 C 0.59200 -0.08743 0.33253
 C526 C 0.55172 -0.15178 0.27460
 C527 C 0.54235 -0.13507 0.21525
 H528 H 0.50585 -0.14085 0.41859
 H529 H 0.48836 -0.11045 0.31246
 H530 H 0.60113 -0.04199 0.25340
 H531 H 0.61967 -0.07183 0.36148
 H532 H 0.54740 -0.18065 0.26777
 H533 H 0.53239 -0.14883 0.15870
 C534 C 0.31089 0.44334 0.35557
 C535 C 0.35060 0.47950 0.37110
 C536 C 0.37648 0.48812 0.31342
 C537 C 0.36074 0.46058 0.24305
 C538 C 0.34507 0.41983 0.27690
 C539 C 0.31913 0.41085 0.33514
 C540 C 0.29927 0.45393 0.27707
 C541 C 0.32519 0.46232 0.21797
 H542 H 0.35719 0.49827 0.42162
 H543 H 0.40479 0.51393 0.31590
 H544 H 0.35346 0.39952 0.25625
 H545 H 0.30531 0.38280 0.36396
 H546 H 0.27598 0.45965 0.27001
 H547 H 0.32240 0.47286 0.16138
 C548 C 1.12407 0.69025 0.35782
 C549 C 1.08806 0.68871 0.32418
 C550 C 1.07045 0.66221 0.26617
 C551 C 1.09027 0.63931 0.24581
 C552 C 1.13196 0.67004 0.22713
 C553 C 1.15000 0.69620 0.28618
 C554 C 1.11099 0.64803 0.38103
 C555 C 1.09304 0.62170 0.32377
 H556 H 1.07741 0.70725 0.34431
 H557 H 1.04479 0.65809 0.23708
 H558 H 1.14712 0.66893 0.17580
 H559 H 1.18084 0.71548 0.28513
 H560 H 1.11759 0.63966 0.43662
 H561 H 1.08409 0.59140 0.33261
 C562 C 0.44348 0.13217 0.35629
 C563 C 0.41842 0.12637 0.28329
 C564 C 0.42581 0.10937 0.22130
 C565 C 0.45646 0.09845 0.23913
 C566 C 0.49179 0.13620 0.26591
 C567 C 0.48505 0.15368 0.32666
 C568 C 0.43407 0.09018 0.37259
 C569 C 0.44137 0.07308 0.31232
 H570 H 0.39502 0.13226 0.28212
 H571 H 0.40953 0.10200 0.16732
 H572 H 0.51979 0.14850 0.23856
 H573 H 0.50736 0.18091 0.35113
 H574 H 0.41908 0.07357 0.42409
 H575 H 0.43370 0.04283 0.31432
 C576 C 0.68696 0.55791 0.35889
 C577 C 0.66098 0.51440 0.34214
 C578 C 0.63702 0.50613 0.28058
 C579 C 0.64048 0.54195 0.24036
 C580 C 0.63491 0.56500 0.30526
 C581 C 0.65934 0.57390 0.36620
 C582 C 0.70749 0.57589 0.28056
 C583 C 0.68310 0.56699 0.21817
 H584 H 0.66178 0.49181 0.37582
 H585 H 0.61751 0.47656 0.26167
 H586 H 0.61600 0.57679 0.30012
 H587 H 0.66177 0.59467 0.40989
 H588 H 0.73822 0.59533 0.27522
 H589 H 0.69313 0.57822 0.15990
 C590 C 0.88511 0.30424 0.35646
 C591 C 0.92470 0.34130 0.37010
 C592 C 0.93813 0.36548 0.30801
 C593 C 0.91134 0.35166 0.23715
 C594 C 0.90481 0.31107 0.21927
 C595 C 0.89142 0.28637 0.28194
 C596 C 0.85948 0.32052 0.33047
 C597 C 0.87289 0.34474 0.26813
 H598 H 0.94175 0.34925 0.42265
 H599 H 0.96570 0.39229 0.30935
 H600 H 0.91080 0.30267 0.16316
 H601 H 0.88626 0.25699 0.27918
 H602 H 0.83297 0.31385 0.35959
 H603 H 0.85771 0.35826 0.24383
   
