data_POSCAR
  _audit_creation_date              2014-09-24
  _audit_creation_method            'ToBaCCo'
  _symmetry_space_group_name_H-M    'P1'
  _symmetry_Int_Tables_number       1
  _symmetry_cell_setting            triclinic
  loop_
  _symmetry_equiv_pos_as_xyz
 x,y,z
_cell_length_a 28.4111
_cell_length_b 28.5447
_cell_length_c 28.3559
_cell_angle_alpha 90.053100
_cell_angle_beta 90.023500
_cell_angle_gamma 90.052500
loop_
  _atom_site_label
  _atom_site_type_symbol
  _atom_site_fract_x
  _atom_site_fract_y
  _atom_site_fract_z
C1 C 0.16809 0.16706 0.22666
 N2 N 0.14874 0.20594 0.20713
 C3 C 0.16810 0.22535 0.16803
 N4 N 0.20709 0.20595 0.14853
 C5 C 0.22663 0.16706 0.16791
 N6 N 0.20711 0.14773 0.20705
 C7 C -0.16681 0.83320 0.22520
 N8 N -0.14795 0.79429 0.20527
 C9 C -0.16786 0.77518 0.16626
 N10 N -0.20694 0.79491 0.14724
 C11 C -0.22596 0.83387 0.16703
 N12 N -0.20589 0.85288 0.20610
 C13 C -0.16821 0.16620 -0.22429
 N14 N -0.20731 0.14682 -0.20488
 C15 C -0.22692 0.16621 -0.16580
 N16 N -0.20746 0.20514 -0.14639
 C17 C -0.16839 0.22451 -0.16572
 N18 N -0.14889 0.20511 -0.20474
 C19 C 0.16709 0.83436 -0.22550
 N20 N 0.14753 0.79537 -0.20629
 C21 C 0.16690 0.77563 -0.16733
 N22 N 0.20600 0.79476 -0.14774
 C23 C 0.22568 0.83371 -0.16676
 N24 N 0.20625 0.85340 -0.20573
 C25 C 0.16532 1.16778 0.77443
 N26 N 0.14598 1.20693 0.79361
 C27 C 0.16537 1.22661 0.83271
 N28 N 0.20425 1.20716 0.85241
 C29 C 0.22359 1.16808 0.83337
 N30 N 0.20419 1.14853 0.79434
 C31 C 0.83428 0.83389 0.77365
 N32 N 0.85365 0.79497 0.79306
 C33 C 0.83439 0.77559 0.83221
 N34 N 0.79547 0.79498 0.85183
 C35 C 0.77599 0.83387 0.83253
 N36 N 0.79534 0.85324 0.79338
 C37 C 0.16623 0.83062 1.22718
 N38 N 0.14701 0.79163 1.20758
 C39 C 0.16645 0.77230 1.16839
 N40 N 0.20541 0.79199 1.14895
 C41 C 0.22472 0.83096 1.16850
 N42 N 0.20515 0.85012 1.20763
 C43 C 0.83511 1.16827 1.22532
 N44 N 0.79608 1.14882 1.20587
 C45 C 0.77629 1.16810 1.16692
 N46 N 0.79549 1.20716 1.14749
 C47 C 0.83458 1.22676 1.16686
 N48 N 0.85421 1.20729 1.20584
 N49 N 0.45006 0.91687 0.94941
 N50 N 0.41323 0.88903 0.94460
 N51 N 0.54894 0.94988 0.91642
 N52 N 0.58578 0.94553 0.88843
 N53 N 0.54921 0.91727 0.94905
 N54 N 0.58623 0.88981 0.94417
 N55 N 0.44988 0.94952 0.91683
 N56 N 0.41299 0.94484 0.88894
 C57 C 0.39065 0.90693 0.90668
 C58 C 0.60848 0.90785 0.90617
 N59 N 0.54867 1.08300 0.94955
 N60 N 0.58558 1.11071 0.94481
 N61 N 0.44953 1.05015 0.91720
 N62 N 0.41268 1.05490 0.88928
 N63 N 0.44956 1.08259 0.95006
 N64 N 0.41273 1.11035 0.94542
 N65 N 0.54858 1.05051 0.91675
 N66 N 0.58538 1.05517 0.88878
 Mn67 Mn 0.49923 1.00001 0.91621
 C68 C 0.60791 1.09292 0.90669
 C69 C 0.39026 1.09263 0.90733
 N70 N 0.54975 0.91697 1.05046
 N71 N 0.58660 0.88920 1.05504
 N72 N 0.45063 0.94894 1.08377
 N73 N 0.41385 0.94389 1.11176
 N74 N 0.45065 0.91655 1.05084
 N75 N 0.41395 0.88858 1.05551
 N76 N 0.54986 0.94943 1.08332
 N77 N 0.58679 0.94464 1.11117
 Mn78 Mn 0.49992 0.91631 0.99994
 C79 C 0.60919 0.90689 1.09310
 C80 C 0.39152 0.90604 1.09369
 N81 N 0.45002 1.08241 1.05148
 N82 N 0.41319 1.11011 1.05655
 N83 N 0.54953 1.05032 1.08363
 N84 N 0.58664 1.05525 1.11125
 N85 N 0.54912 1.08288 1.05094
 N86 N 0.58587 1.11084 1.05540
 N87 N 0.45028 1.04982 1.08415
 N88 N 0.41361 1.05446 1.11236
 Mn89 Mn 0.49933 1.08332 1.00051
 Mn90 Mn 0.50008 0.99963 1.08436
 Cl91 Cl 0.49964 0.99982 1.00028
 C92 C 0.39100 1.09226 1.09471
 C93 C 0.60875 1.09321 1.09321
 N94 N 0.05110 0.45046 0.08266
 N95 N 0.05605 0.41380 0.11056
 N96 N 0.08371 0.54925 0.04998
 N97 N 0.11167 0.58593 0.05473
 N98 N 0.05119 0.54918 0.08289
 N99 N 0.05613 0.58579 0.11094
 N100 N 0.08363 0.45053 0.04976
 N101 N 0.11160 0.41392 0.05436
 C102 C 0.09398 0.39153 0.09248
 C103 C 0.09404 0.60820 0.09296
 N104 N 0.05026 0.54927 -0.08410
 N105 N 0.05465 0.58605 -0.11191
 N106 N 0.08304 0.45056 -0.05174
 N107 N 0.11070 0.41374 -0.05670
 N108 N 0.05015 0.45066 -0.08429
 N109 N 0.05450 0.41397 -0.11229
 N110 N 0.08313 0.54932 -0.05153
 N111 N 0.11083 0.58616 -0.05630
 Mn112 Mn 0.08400 0.49992 -0.00088
 C113 C 0.09263 0.60852 -0.09417
 C114 C 0.09247 0.39146 -0.09468
 N115 N -0.05013 0.54921 0.08332
 N116 N -0.05469 0.58601 0.11118
 N117 N -0.08307 0.45055 0.05049
 N118 N -0.11100 0.41387 0.05515
 N119 N -0.05024 0.45041 0.08310
 N120 N -0.05493 0.41360 0.11087
 N121 N -0.08294 0.54916 0.05070
 N122 N -0.11074 0.58587 0.05543
 Mn123 Mn 0.00049 0.49981 0.08363
 C124 C -0.09272 0.60832 0.09334
 C125 C -0.09304 0.39134 0.09300
 N126 N -0.05097 0.45074 -0.08370
 N127 N -0.05569 0.41393 -0.11149
 N128 N -0.08335 0.54935 -0.05064
 N129 N -0.11103 0.58619 -0.05505
 N130 N -0.05084 0.54932 -0.08354
 N131 N -0.05549 0.58612 -0.11127
 N132 N -0.08350 0.45075 -0.05083
 N133 N -0.11129 0.41395 -0.05531
 Mn134 Mn -0.00035 0.49999 -0.08450
 Mn135 Mn -0.08381 0.49995 -0.00007
 Cl136 Cl 0.00010 0.49992 -0.00043
 C137 C -0.09352 0.39156 -0.09335
 C138 C -0.09322 0.60857 -0.09308
 N139 N 1.05020 0.08313 0.54952
 N140 N 1.05458 0.11118 0.58628
 N141 N 1.08386 0.05023 0.45062
 N142 N 1.11216 0.05488 0.41400
 N143 N 1.05121 0.08276 0.45023
 N144 N 1.05638 0.11045 0.41334
 N145 N 1.08289 0.05063 0.55002
 N146 N 1.11043 0.05568 0.58721
 C147 C 1.09233 0.09364 0.60928
 C148 C 1.09459 0.09265 0.39128
 N149 N 1.05093 -0.08309 0.45067
 N150 N 1.05587 -0.11107 0.41394
 N151 N 1.08281 -0.05023 0.55022
 N152 N 1.11053 -0.05501 0.58727
 N153 N 1.05011 -0.08278 0.54996
 N154 N 1.05467 -0.11060 0.58685
 N155 N 1.08371 -0.05062 0.45083
 N156 N 1.11188 -0.05561 0.41414
 Mn157 Mn 1.08395 0.00000 0.50043
 C158 C 1.09406 -0.09352 0.39169
 C159 C 1.09254 -0.09283 0.60960
 N160 N 0.94997 0.08275 0.44931
 N161 N 0.94539 0.11065 0.41251
 N162 N 0.91635 0.05045 0.54833
 N163 N 0.88830 0.05494 0.58513
 N164 N 0.94901 0.08302 0.54862
 N165 N 0.94409 0.11061 0.58568
 N166 N 0.91724 0.05025 0.44907
 N167 N 0.88945 0.05512 0.41208
 Mn168 Mn 1.00010 0.08351 0.49941
 C169 C 0.90748 0.09296 0.38981
 C170 C 0.90601 0.09266 0.60788
 N171 N 0.94890 -0.08273 0.54891
 N172 N 0.94401 -0.11025 0.58595
 N173 N 0.91709 -0.05042 0.44932
 N174 N 0.88929 -0.05525 0.41235
 N175 N 0.94970 -0.08299 0.44958
 N176 N 0.94498 -0.11092 0.41273
 N177 N 0.91625 -0.05020 0.54859
 N178 N 0.88822 -0.05468 0.58542
 Mn179 Mn 0.99991 -0.08350 0.49978
 Mn180 Mn 0.91614 0.00002 0.49882
 Cl181 Cl 1.00005 0.00001 0.49960
 C182 C 0.90597 -0.09236 0.60816
 C183 C 0.90711 -0.09315 0.39005
 C184 C 1.15754 0.09272 0.32034
 C185 C 1.13029 0.09740 0.27322
 C186 C 1.14878 0.14779 0.26836
 C187 C 1.17632 0.14339 0.31482
 C188 C 1.10562 0.16712 0.29473
 C189 C 1.08689 0.11644 0.30025
 C190 C 1.11444 0.11207 0.34672
 C191 C 1.13293 0.16242 0.34175
 H192 H 1.17870 0.06191 0.33128
 H193 H 1.12937 0.07085 0.24460
 H194 H 1.21331 0.15468 0.32040
 H195 H 1.08425 0.19785 0.28398
 H196 H 1.04989 0.10512 0.29481
 H197 H 1.13384 0.18893 0.37040
 C198 C 0.84457 -0.09300 0.31911
 C199 C 0.87175 -0.09770 0.27199
 C200 C 0.85291 -0.14794 0.26691
 C201 C 0.82547 -0.14351 0.31340
 C202 C 0.89597 -0.16765 0.29315
 C203 C 0.91506 -0.11710 0.29891
 C204 C 0.88758 -0.11270 0.34539
 C205 C 0.86875 -0.16291 0.34021
 H206 H 0.82361 -0.06209 0.33020
 H207 H 0.87279 -0.07107 0.24350
 H208 H 0.78840 -0.15456 0.31893
 H209 H 0.91711 -0.19849 0.28220
 H210 H 0.95213 -0.10601 0.29353
 H211 H 0.86772 -0.18949 0.36875
 C212 C 0.86760 0.16175 0.65832
 C213 C 0.82450 0.14201 0.68516
 C214 C 0.85211 0.14621 0.73161
 C215 C 0.89502 0.16619 0.70529
 C216 C 0.87100 0.09607 0.72602
 C217 C 0.84362 0.09162 0.67898
 C218 C 0.88647 0.11165 0.65270
 C219 C 0.91415 0.11578 0.69910
 H220 H 0.86640 0.18854 0.63000
 H221 H 0.78739 0.15300 0.67992
 H222 H 0.91610 0.19703 0.71647
 H223 H 0.87219 0.06927 0.75434
 H224 H 0.82265 0.06072 0.66774
 H225 H 0.95128 0.10481 0.70426
 C226 C 1.16262 -0.13063 0.65941
 C227 C 1.16735 -0.10334 0.70640
 C228 C 1.14787 -0.14626 0.73280
 C229 C 1.14345 -0.17377 0.68637
 C230 C 1.09726 -0.12792 0.72780
 C231 C 1.11644 -0.08476 0.70073
 C232 C 1.11204 -0.11229 0.65430
 C233 C 1.09257 -0.15516 0.68073
 H234 H 1.18927 -0.13158 0.63081
 H235 H 1.19824 -0.08203 0.71720
 H236 H 1.15477 -0.21058 0.68085
 H237 H 1.07057 -0.12697 0.75636
 H238 H 1.10508 -0.04794 0.70610
 H239 H 1.06161 -0.17628 0.66977
 C240 C 0.34158 1.16217 1.13288
 C241 C 0.29473 1.16694 1.10538
 C242 C 0.26825 1.14774 1.14858
 C243 C 0.31453 1.14326 1.17630
 C244 C 0.27305 1.09731 1.13015
 C245 C 0.30019 1.11621 1.08671
 C246 C 0.34648 1.11177 1.11445
 C247 C 0.31999 1.09255 1.15759
 H248 H 0.37023 1.18861 1.13385
 H249 H 0.28413 1.19766 1.08389
 H250 H 0.32004 1.15460 1.21336
 H251 H 0.24443 1.07081 1.12917
 H252 H 0.29483 1.10484 1.04964
 H253 H 0.33077 1.06176 1.17888
 C254 C 0.29976 0.88308 0.91494
 C255 C 0.27264 0.90270 0.87181
 C256 C 0.26744 0.85257 0.85271
 C257 C 0.29387 0.83263 0.89561
 C258 C 0.31367 0.85709 0.82496
 C259 C 0.31952 0.90751 0.84432
 C260 C 0.34599 0.88758 0.88717
 C261 C 0.34068 0.83747 0.86808
 H262 H 0.29462 0.89396 0.95219
 H263 H 0.24423 0.92934 0.87315
 H264 H 0.28306 0.80169 0.91670
 H265 H 0.31896 0.84622 0.78774
 H266 H 0.33049 0.93852 0.82342
 H267 H 0.36914 0.81088 0.86674
 C268 C 0.65913 0.86897 1.16319
 C269 C 0.68594 0.82587 1.14375
 C270 C 0.73231 0.85333 1.14807
 C271 C 0.70607 0.89622 1.16781
 C272 C 0.72713 0.87182 1.09744
 C273 C 0.68012 0.84462 1.09285
 C274 C 0.65385 0.88745 1.11258
 C275 C 0.70022 0.91494 1.11687
 H276 H 0.63069 0.86797 1.19000
 H277 H 0.68046 0.78903 1.15501
 H278 H 0.71699 0.91743 1.19878
 H279 H 0.75553 0.87283 1.07057
 H280 H 0.66907 0.82358 1.06182
 H281 H 0.70555 0.95180 1.10558
 C282 C 0.69881 1.11637 0.91522
 C283 C 0.72596 1.09694 0.87201
 C284 C 0.73129 1.14718 0.85333
 C285 C 0.70482 1.16691 0.89631
 C286 C 0.68511 1.14291 0.82541
 C287 C 0.67911 1.09239 0.84437
 C288 C 0.65262 1.11213 0.88729
 C289 C 0.65806 1.16234 0.86861
 H290 H 0.70386 1.10527 0.95240
 H291 H 0.75433 1.07025 0.87321
 H292 H 0.71564 1.19771 0.91768
 H293 H 0.67991 1.15402 0.78826
 H294 H 0.66810 1.06152 0.82321
 H295 H 0.62966 1.18899 0.86741
 C296 C 0.13227 0.34205 0.16256
 C297 C 0.10482 0.29543 0.16732
 C298 C 0.14777 0.26908 0.14764
 C299 C 0.17542 0.31518 0.14312
 C300 C 0.12905 0.27414 0.09702
 C301 C 0.08585 0.30108 0.11643
 C302 C 0.11356 0.34715 0.11198
 C303 C 0.15646 0.32082 0.09224
 H304 H 0.13342 0.37045 0.18930
 H305 H 0.08363 0.28464 0.19836
 H306 H 0.21248 0.32053 0.15431
 H307 H 0.12791 0.24574 0.07026
 H308 H 0.04878 0.29581 0.10523
 H309 H 0.17754 0.33166 0.06115
 C310 C -0.16338 0.34142 -0.13088
 C311 C -0.14399 0.31416 -0.17388
 C312 C -0.14826 0.26839 -0.14567
 C313 C -0.16790 0.29512 -0.10287
 C314 C -0.09771 0.27389 -0.12713
 C315 C -0.09319 0.32024 -0.15511
 C316 C -0.11287 0.34695 -0.11237
 C317 C -0.11708 0.30124 -0.08408
 H318 H -0.19013 0.36970 -0.13224
 H319 H -0.15530 0.31896 -0.21104
 H320 H -0.19879 0.28439 -0.08147
 H321 H -0.07095 0.24561 -0.12578
 H322 H -0.06224 0.33100 -0.17641
 H323 H -0.10578 0.29652 -0.04689
 C324 C 0.09160 0.67964 -0.15619
 C325 C 0.09627 0.72616 -0.12838
 C326 C 0.14663 0.73170 -0.14738
 C327 C 0.14223 0.68578 -0.17541
 C328 C 0.16669 0.70517 -0.10465
 C329 C 0.11606 0.69902 -0.08542
 C330 C 0.11172 0.65315 -0.11351
 C331 C 0.16204 0.65874 -0.13249
 H332 H 0.06049 0.66873 -0.17721
 H333 H 0.06943 0.75436 -0.12690
 H334 H 0.15319 0.68082 -0.21265
 H335 H 0.19774 0.71601 -0.08349
 H336 H 0.10511 0.70391 -0.04815
 H337 H 0.18888 0.63053 -0.13398
 C338 C -0.16267 0.65815 0.13112
 C339 C -0.14329 0.68555 0.17408
 C340 C -0.14788 0.73130 0.14588
 C341 C -0.16751 0.70444 0.10313
 C342 C -0.09734 0.72608 0.12724
 C343 C -0.09251 0.67975 0.15521
 C344 C -0.11217 0.65289 0.11251
 C345 C -0.11670 0.69860 0.08423
 H346 H -0.18931 0.62971 0.13258
 H347 H -0.15447 0.68064 0.21125
 H348 H -0.19851 0.71496 0.08179
 H349 H -0.07069 0.75450 0.12579
 H350 H -0.06146 0.66921 0.17646
 H351 H -0.10552 0.70342 0.04703
 C352 C 1.11527 0.08640 0.70069
 C353 C 1.16608 0.10519 0.70677
 C354 C 1.14628 0.14830 0.73265
 C355 C 1.09576 0.12976 0.72724
 C356 C 1.14238 0.17537 0.68598
 C357 C 1.16189 0.13204 0.65955
 C358 C 1.11141 0.11349 0.65402
 C359 C 1.09158 0.15655 0.67991
 H360 H 1.10392 0.04959 0.70619
 H361 H 1.19687 0.08403 0.71804
 H362 H 1.06874 0.12901 0.75550
 H363 H 1.15370 0.21217 0.68034
 H364 H 1.18887 0.13278 0.63125
 H365 H 1.06073 0.17748 0.66844
 C366 C 0.86816 -0.16185 0.65828
 C367 C 0.89604 -0.16642 0.70497
 C368 C 0.85322 -0.14698 0.73178
 C369 C 0.82512 -0.14270 0.68565
 C370 C 0.87166 -0.09662 0.72657
 C371 C 0.91472 -0.11577 0.69909
 C372 C 0.88661 -0.11152 0.65296
 C373 C 0.84384 -0.09206 0.67978
 H374 H 0.86690 -0.18841 0.62970
 H375 H 0.91751 -0.19714 0.71558
 H376 H 0.78806 -0.15399 0.68056
 H377 H 0.87293 -0.07001 0.75512
 H378 H 0.95180 -0.10447 0.70404
 H379 H 0.82259 -0.06126 0.66897
 C380 C 1.08558 -0.11811 0.30096
 C381 C 1.12888 -0.09950 0.27348
 C382 C 1.14702 -0.15001 0.26886
 C383 C 1.10396 -0.16893 0.29567
 C384 C 1.17494 -0.14526 0.31507
 C385 C 1.15653 -0.09447 0.32034
 C386 C 1.11352 -0.11339 0.34717
 C387 C 1.13165 -0.16388 0.34245
 H388 H 1.04862 -0.10667 0.29570
 H389 H 1.12788 -0.07322 0.24465
 H390 H 1.08237 -0.19969 0.28525
 H391 H 1.21190 -0.15668 0.32046
 H392 H 1.17795 -0.06365 0.33089
 H393 H 1.13264 -0.19010 0.37132
 C394 C 0.91606 0.11741 0.29903
 C395 C 0.87279 0.09856 0.27158
 C396 C 0.85445 0.14898 0.26693
 C397 C 0.89747 0.16815 0.29369
 C398 C 0.82661 0.14428 0.31315
 C399 C 0.84522 0.09359 0.31844
 C400 C 0.88819 0.11274 0.34524
 C401 C 0.86986 0.16314 0.34049
 H402 H 0.95307 0.10610 0.29379
 H403 H 0.87383 0.07221 0.24277
 H404 H 0.91894 0.19895 0.28324
 H405 H 0.78961 0.15556 0.31854
 H406 H 0.82392 0.06272 0.32903
 H407 H 0.86882 0.18944 0.36934
 C408 C 0.09149 0.32045 -0.15712
 C409 C 0.14220 0.31431 -0.17620
 C410 C 0.14635 0.26837 -0.14829
 C411 C 0.09592 0.27384 -0.12949
 C412 C 0.16634 0.29476 -0.10535
 C413 C 0.16189 0.34127 -0.13304
 C414 C 0.11150 0.34685 -0.11423
 C415 C 0.11563 0.30089 -0.08632
 H416 H 0.06049 0.33144 -0.17821
 H417 H 0.15330 0.31942 -0.21337
 H418 H 0.06897 0.24568 -0.12821
 H419 H 0.19727 0.28399 -0.08402
 H420 H 0.18880 0.36946 -0.13431
 H421 H 0.10452 0.29593 -0.04912
 C422 C -0.15552 0.32048 0.09272
 C423 C -0.12805 0.27379 0.09696
 C424 C -0.14638 0.26843 0.14767
 C425 C -0.17412 0.31446 0.14370
 C426 C -0.10326 0.29471 0.16728
 C427 C -0.08471 0.30074 0.11628
 C428 C -0.11246 0.34678 0.11234
 C429 C -0.13079 0.34130 0.16301
 H430 H -0.17683 0.33149 0.06183
 H431 H -0.12710 0.24561 0.06997
 H432 H -0.21110 0.31971 0.15516
 H433 H -0.08174 0.28388 0.19808
 H434 H -0.04772 0.29563 0.10479
 H435 H -0.13173 0.36953 0.18995
 C436 C -0.15482 0.67994 -0.09240
 C437 C -0.12684 0.72630 -0.09709
 C438 C -0.14558 0.73171 -0.14765
 C439 C -0.17378 0.68594 -0.14322
 C440 C -0.10300 0.70493 -0.16752
 C441 C -0.08401 0.69891 -0.11669
 C442 C -0.11229 0.65319 -0.11232
 C443 C -0.13101 0.65864 -0.16284
 H444 H -0.17595 0.66925 -0.06129
 H445 H -0.12530 0.75462 -0.07027
 H446 H -0.21093 0.68108 -0.15437
 H447 H -0.08176 0.71559 -0.19858
 H448 H -0.04684 0.70367 -0.10555
 H449 H -0.13255 0.63031 -0.18964
 C450 C 0.15635 0.67934 0.09316
 C451 C 0.12870 0.72586 0.09822
 C452 C 0.14734 0.73073 0.14890
 C453 C 0.17525 0.68486 0.14412
 C454 C 0.10448 0.70404 0.16840
 C455 C 0.08561 0.69851 0.11743
 C456 C 0.11354 0.65264 0.11267
 C457 C 0.13217 0.65762 0.16332
 H458 H 0.17749 0.66879 0.06201
 H459 H 0.12743 0.75435 0.07163
 H460 H 0.21233 0.67964 0.15530
 H461 H 0.08313 0.71442 0.19948
 H462 H 0.04851 0.70360 0.10624
 H463 H 0.13344 0.62909 0.18986
 C464 C 0.31914 1.09267 0.84493
 C465 C 0.27233 1.09753 0.87247
 C466 C 0.26739 1.14784 0.85386
 C467 C 0.31361 1.14324 0.82608
 C468 C 0.29398 1.16729 0.89690
 C469 C 0.29955 1.11669 0.91577
 C470 C 0.34572 1.11216 0.88793
 C471 C 0.34075 1.16244 0.86933
 H472 H 0.32989 1.06177 0.82374
 H473 H 0.24370 1.07106 0.87357
 H474 H 0.31891 1.15439 0.78897
 H475 H 0.28326 1.19814 0.91818
 H476 H 0.29433 1.10552 0.95290
 H477 H 0.36938 1.18889 0.86822
 C478 C 0.34178 0.86737 1.16352
 C479 C 0.29478 0.89434 1.16832
 C480 C 0.26859 0.85151 1.14825
 C481 C 0.31507 0.82434 1.14370
 C482 C 0.27375 0.87048 1.09779
 C483 C 0.30054 0.91355 1.11759
 C484 C 0.34697 0.88632 1.11310
 C485 C 0.32080 0.84354 1.09298
 H486 H 0.37022 0.86628 1.19035
 H487 H 0.28374 0.91518 1.19948
 H488 H 0.32058 0.78742 1.15463
 H489 H 0.24531 0.87155 1.07095
 H490 H 0.29511 0.95050 1.10666
 H491 H 0.33190 0.82281 1.06177
 C492 C 0.65924 1.13158 1.16278
 C493 C 0.70633 1.10466 1.16688
 C494 C 0.73224 1.14764 1.14686
 C495 C 0.68567 1.17476 1.14300
 C496 C 0.72655 1.12893 1.09632
 C497 C 0.70003 1.08571 1.11607
 C498 C 0.65351 1.11289 1.11228
 C499 C 0.67939 1.15582 1.09220
 H500 H 0.63111 1.13248 1.18991
 H501 H 0.71774 1.08366 1.19776
 H502 H 0.68022 1.21161 1.15425
 H503 H 0.75467 1.12805 1.06918
 H504 H 0.70541 1.04885 1.10481
 H505 H 0.66791 1.17670 1.06126
 C506 C 0.69938 0.88467 0.91472
 C507 C 0.70543 0.83417 0.89568
 C508 C 0.73199 0.85392 0.85281
 C509 C 0.72656 0.90416 0.87159
 C510 C 0.68581 0.85816 0.82488
 C511 C 0.65872 0.83865 0.86796
 C512 C 0.65324 0.88885 0.88673
 C513 C 0.67977 0.90865 0.84390
 H514 H 0.70439 0.89579 0.95192
 H515 H 0.71634 0.80338 0.91692
 H516 H 0.75495 0.93087 0.87289
 H517 H 0.68071 0.84704 0.78770
 H518 H 0.63032 0.81195 0.86664
 H519 H 0.66879 0.93950 0.82279
   
