data_POSCAR
  _audit_creation_date              2014-09-24
  _audit_creation_method            'ToBaCCo'
  _symmetry_space_group_name_H-M    'P1'
  _symmetry_Int_Tables_number       1
  _symmetry_cell_setting            triclinic
  loop_
  _symmetry_equiv_pos_as_xyz
 x,y,z
_cell_length_a 27.1517
_cell_length_b 32.0711
_cell_length_c 27.2725
_cell_angle_alpha 90.135000
_cell_angle_beta 90.002900
_cell_angle_gamma 89.274200
loop_
  _atom_site_label
  _atom_site_type_symbol
  _atom_site_fract_x
  _atom_site_fract_y
  _atom_site_fract_z
O1 O 0.43083 0.33079 0.00184
 O2 O 0.36689 0.39056 0.09770
 O3 O 0.41639 0.31692 0.08800
 O4 O 0.38817 0.40041 0.00006
 O5 O 0.31520 0.37331 -0.01457
 O6 O 0.34337 0.28995 0.07332
 O7 O 0.29569 0.36250 0.07898
 O8 O 0.36006 0.30172 -0.01852
 Cu9 Cu 0.40536 0.36440 0.05087
 Cu10 Cu 0.32095 0.32931 0.02847
 C11 C 0.40646 0.30512 -0.02376
 C12 C 0.32124 0.38672 0.10524
 C13 C 0.38569 0.28781 0.09321
 C14 C 0.34800 0.39990 -0.02400
 O15 O 0.61889 0.58236 0.00039
 O16 O 0.58192 0.67275 -0.07561
 O17 O 0.64735 0.60975 -0.08339
 O18 O 0.56009 0.64882 0.01008
 O19 O 0.61962 0.68255 0.04833
 O20 O 0.70323 0.65042 -0.05030
 O21 O 0.63375 0.71125 -0.03305
 O22 O 0.67513 0.62066 0.03723
 Cu23 Cu 0.59653 0.62427 -0.04088
 Cu24 Cu 0.66562 0.66914 0.00169
 C25 C 0.65341 0.58623 0.03135
 C26 C 0.59803 0.70818 -0.06293
 C27 C 0.69105 0.62321 -0.08170
 C28 C 0.57457 0.67384 0.04331
 O29 O 0.62399 0.40856 0.96782
 O30 O 0.57797 0.32028 1.03983
 O31 O 0.63545 0.38548 1.05840
 O32 O 0.58094 0.33969 0.94547
 O33 O 0.65348 0.31155 0.92756
 O34 O 0.69946 0.34375 1.04663
 O35 O 0.64198 0.28303 1.01433
 O36 O 0.69557 0.37664 0.95664
 Cu37 Cu 0.59801 0.36661 1.00479
 Cu38 Cu 0.67995 0.32550 0.98639
 C39 C 0.66680 0.40774 0.94949
 C40 C 0.60073 0.28562 1.03655
 C41 C 0.67746 0.37156 1.07167
 C42 C 0.60919 0.31944 0.91631
 O43 O 0.37284 0.61637 0.93591
 O44 O 0.39267 0.68174 1.04475
 O45 O 0.36853 0.60515 1.03114
 O46 O 0.40223 0.69225 0.94975
 O47 O 0.32353 0.71015 0.94593
 O48 O 0.29118 0.62724 1.03317
 O49 O 0.31553 0.70436 1.04154
 O50 O 0.29361 0.63293 0.93806
 Cu51 Cu 0.39176 0.64682 0.99047
 Cu52 Cu 0.29810 0.67083 0.98912
 C53 C 0.32953 0.61314 0.91898
 C54 C 0.35762 0.70405 1.06174
 C55 C 0.32483 0.60221 1.04741
 C56 C 0.36810 0.71563 0.93318
 O57 O -0.06557 0.43627 0.38306
 O58 O 0.03473 0.35731 0.39677
 O59 O 0.03059 0.43890 0.38231
 O60 O -0.06204 0.35596 0.39523
 O61 O -0.05902 0.34575 0.31514
 O62 O 0.02986 0.42835 0.30218
 O63 O 0.03650 0.34927 0.31632
 O64 O -0.06464 0.42454 0.30313
 Cu65 Cu -0.01536 0.39805 0.39768
 Cu66 Cu -0.01410 0.38594 0.30125
 C67 C -0.08256 0.44301 0.34034
 C68 C 0.05288 0.34022 0.35859
 C69 C 0.04542 0.44773 0.33941
 C70 C -0.07644 0.33703 0.35692
 O71 O 0.07232 0.65874 0.61795
 O72 O -0.02228 0.58253 0.65710
 O73 O -0.02663 0.65894 0.62289
 O74 O 0.06636 0.57578 0.63490
 O75 O 0.08530 0.59794 0.70942
 O76 O -0.01881 0.67177 0.70199
 O77 O -0.00139 0.59593 0.73397
 O78 O 0.08081 0.67790 0.69519
 Cu79 Cu 0.02234 0.61886 0.62512
 Cu80 Cu 0.03717 0.63952 0.71691
 C81 C 0.09182 0.68191 0.65045
 C82 C -0.02471 0.57444 0.70291
 C83 C -0.04059 0.67801 0.66122
 C84 C 0.08934 0.57127 0.67500
 O85 O 1.01785 0.61285 0.33487
 O86 O 0.91882 0.64213 0.42223
 O87 O 0.91655 0.60899 0.33769
 O88 O 1.00704 0.64839 0.42528
 O89 O 1.01659 0.70498 0.38042
 O90 O 0.91010 0.67238 0.30674
 O91 O 0.92218 0.70651 0.39361
 O92 O 1.00697 0.67198 0.29503
 Cu93 Cu 0.96730 0.62073 0.38087
 Cu94 Cu 0.96317 0.69498 0.33979
 C95 C 1.02915 0.63720 0.30003
 C96 C 0.90658 0.68048 0.42503
 C97 C 0.89518 0.63513 0.30976
 C98 C 1.02602 0.68393 0.41867
 O99 O 0.97379 0.34174 0.57984
 O100 O 1.06180 0.37837 0.67377
 O101 O 1.06402 0.35682 0.58440
 O102 O 0.96159 0.38516 0.66426
 O103 O 0.96346 0.32348 0.69999
 O104 O 1.06211 0.29244 0.61347
 O105 O 1.06031 0.31577 0.70699
 O106 O 0.96760 0.28147 0.61823
 Cu107 Cu 1.01376 0.37166 0.62453
 Cu108 Cu 1.01373 0.29740 0.66339
 C109 C 0.95767 0.30452 0.58193
 C110 C 1.07784 0.35214 0.70511
 C111 C 1.07940 0.31941 0.58380
 C112 C 0.94508 0.36005 0.69574
 O113 O 0.30504 -0.05788 0.38933
 O114 O 0.40051 0.01758 0.35227
 O115 O 0.30921 0.02680 0.39138
 O116 O 0.39917 -0.05778 0.37617
 O117 O 0.37493 -0.06497 0.29906
 O118 O 0.28177 0.01753 0.31602
 O119 O 0.37255 0.01233 0.27645
 O120 O 0.28194 -0.06403 0.31202
 Cu121 Cu 0.35386 -0.01616 0.38474
 Cu122 Cu 0.32483 -0.02419 0.29346
 C123 C 0.27871 -0.07503 0.35628
 C124 C 0.40450 0.02495 0.30651
 C125 C 0.27918 0.03575 0.35747
 C126 C 0.40283 -0.07544 0.33479
 O127 O 0.58735 0.05669 0.62741
 O128 O 0.68249 -0.02645 0.61907
 O129 O 0.60644 -0.01818 0.67016
 O130 O 0.67570 0.04256 0.57980
 O131 O 0.71055 0.07888 0.63909
 O132 O 0.64671 0.01418 0.72919
 O133 O 0.72487 0.00583 0.67681
 O134 O 0.62672 0.08576 0.68911
 Cu135 Cu 0.63182 0.01263 0.61816
 Cu136 Cu 0.68087 0.04989 0.68934
 C137 C 0.58979 0.08434 0.66068
 C138 C 0.72027 -0.02402 0.64631
 C139 C 0.61704 -0.01369 0.71526
 C140 C 0.70702 0.06904 0.59424
 O141 O 0.31376 1.05874 0.56981
 O142 O 0.40268 0.98390 0.62066
 O143 O 0.32875 0.98316 0.56053
 O144 O 0.37495 1.06320 0.64590
 O145 O 0.31476 1.04697 0.69653
 O146 O 0.27891 0.96055 0.61871
 O147 O 0.35250 0.96917 0.68164
 O148 O 0.25802 1.03654 0.62253
 Cu149 Cu 0.36197 1.02460 0.59568
 Cu150 Cu 0.29764 1.00101 0.66155
 C151 C 0.26972 1.05827 0.58521
 C152 C 0.39316 0.96366 0.65925
 C153 C 0.29438 0.95947 0.57500
 C154 C 0.35013 1.07014 0.68470
 O155 O 0.63347 0.92584 0.33775
 O156 O 0.69801 1.02087 0.38281
 O157 O 0.63896 1.00881 0.31504
 O158 O 0.69403 0.94788 0.41502
 O159 O 0.75692 0.93035 0.36739
 O160 O 0.69853 0.98760 0.26533
 O161 O 0.75942 1.00383 0.33316
 O162 O 0.69907 0.90845 0.29435
 Cu163 Cu 0.65840 0.97503 0.36642
 Cu164 Cu 0.73410 0.95499 0.30993
 C165 C 0.65587 0.90083 0.30881
 C166 C 0.74001 1.02856 0.36427
 C167 C 0.66074 1.01033 0.27397
 C168 C 0.73641 0.93145 0.40922
 C169 C 0.83691 0.77479 0.54799
 C170 C 0.84297 0.77992 0.59944
 C171 C 0.82974 0.81847 0.62070
 C172 C 0.81195 0.85195 0.59285
 C173 C 0.80714 0.84723 0.54158
 C174 C 0.81897 0.80858 0.51994
 H175 H 0.81541 0.80509 0.48054
 H176 H 0.83452 0.82329 0.65966
 C177 C 0.16157 0.22851 0.41949
 C178 C 0.16448 0.23122 0.47118
 C179 C 0.17833 0.19593 0.49838
 C180 C 0.19026 0.15801 0.47543
 C181 C 0.18890 0.15541 0.42380
 C182 C 0.17505 0.19083 0.39665
 H183 H 0.17302 0.18848 0.35708
 H184 H 0.17888 0.19772 0.53811
 C185 C 0.15805 0.78790 0.54438
 C186 C 0.13625 0.77765 0.49832
 C187 C 0.15191 0.79881 0.45608
 C188 C 0.18363 0.83287 0.45897
 C189 C 0.19818 0.84735 0.50569
 C190 C 0.18804 0.82333 0.54712
 H191 H 0.20297 0.83318 0.58200
 H192 H 0.13865 0.78899 0.42050
 C193 C 0.84632 0.22419 0.47643
 C194 C 0.82879 0.22708 0.42715
 C195 C 0.79672 0.19643 0.40984
 C196 C 0.78837 0.16030 0.43646
 C197 C 0.80010 0.15961 0.48670
 C198 C 0.82782 0.19237 0.50685
 H199 H 0.83977 0.19034 0.54469
 H200 H 0.78361 0.19717 0.37240
 C201 C 0.48123 0.86697 0.76724
 C202 C 0.52710 0.87150 0.79090
 C203 C 0.54037 0.84297 0.82743
 C204 C 0.50710 0.81379 0.84557
 C205 C 0.45839 0.81314 0.82712
 C206 C 0.44720 0.83842 0.78600
 H207 H 0.41151 0.83652 0.76854
 H208 H 0.57664 0.84483 0.84394
 C209 C 0.51349 0.11526 0.21453
 C210 C 0.56126 0.11829 0.19362
 C211 C 0.57068 0.15076 0.16048
 C212 C 0.53362 0.17876 0.14511
 C213 C 0.48631 0.17644 0.16676
 C214 C 0.47812 0.14600 0.20304
 H215 H 0.44218 0.14410 0.22000
 H216 H 0.60682 0.15281 0.14379
 C217 C 0.48424 0.18593 0.74303
 C218 C 0.43764 0.18342 0.76649
 C219 C 0.42995 0.20648 0.81001
 C220 C 0.46646 0.23174 0.82996
 C221 C 0.51078 0.23788 0.80365
 C222 C 0.51898 0.21414 0.76090
 H223 H 0.55378 0.21586 0.74185
 H224 H 0.39672 0.20235 0.83125
 C225 C 0.53794 0.80304 0.23687
 C226 C 0.48979 0.81453 0.25169
 C227 C 0.44894 0.79923 0.22618
 C228 C 0.45428 0.77424 0.18450
 C229 C 0.50250 0.76375 0.16824
 C230 C 0.54340 0.77685 0.19556
 H231 H 0.57995 0.76905 0.18216
 H232 H 0.41223 0.80746 0.23884
 C233 C 0.75984 0.48360 0.82757
 C234 C 0.77684 0.52395 0.81526
 C235 C 0.81482 0.52726 0.78064
 C236 C 0.84146 0.49224 0.76435
 C237 C 0.82554 0.45187 0.77740
 C238 C 0.78335 0.44843 0.80690
 H239 H 0.76966 0.41784 0.81596
 H240 H 0.82810 0.55796 0.77118
 C241 C 0.23425 0.49388 0.20057
 C242 C 0.23689 0.53231 0.17528
 C243 C 0.20299 0.56449 0.18736
 C244 C 0.16790 0.56006 0.22531
 C245 C 0.16925 0.52279 0.25294
 C246 C 0.20131 0.49023 0.23966
 H247 H 0.19955 0.46097 0.25946
 H248 H 0.20485 0.59345 0.16732
 C249 C 0.72727 0.51166 0.16628
 C250 C 0.73674 0.47213 0.18787
 C251 C 0.76201 0.47058 0.23271
 C252 C 0.78132 0.50630 0.25470
 C253 C 0.77262 0.54576 0.23323
 C254 C 0.74367 0.54779 0.19047
 H255 H 0.73782 0.57764 0.17286
 H256 H 0.76955 0.44055 0.24954
 C257 C 0.26263 0.50393 0.81643
 C258 C 0.26858 0.46433 0.83809
 C259 C 0.23710 0.43211 0.82359
 C260 C 0.19929 0.43836 0.78868
 C261 C 0.19294 0.47897 0.76792
 C262 C 0.22591 0.51048 0.78146
 H263 H 0.22167 0.54160 0.76644
 H264 H 0.24262 0.40148 0.83948
 C265 C 0.29916 0.40953 0.14644
 C266 C 0.31125 0.40133 0.19448
 C267 C 0.28792 0.43154 0.22115
 C268 C 0.26403 0.45648 0.18725
 O269 O 0.27080 0.44318 0.14163
 H270 H 0.33502 0.37665 0.20819
 H271 H 0.28921 0.43565 0.26053
 C272 C 0.67048 0.55031 0.05958
 C273 C 0.68930 0.51450 0.03857
 C274 C 0.71258 0.49395 0.07584
 C275 C 0.70436 0.51797 0.11735
 O276 O 0.68011 0.55284 0.10685
 H277 H 0.69034 0.50658 -0.00001
 H278 H 0.73613 0.46673 0.07191
 C279 C 0.68163 0.44215 0.91735
 C280 C 0.64956 0.47256 0.90040
 C281 C 0.67496 0.49353 0.86535
 C282 C 0.72125 0.47533 0.86455
 O283 O 0.72491 0.44352 0.89538
 H284 H 0.61112 0.47687 0.90986
 H285 H 0.66019 0.51709 0.84094
 C286 C 0.32094 0.58635 0.87657
 C287 C 0.34666 0.58872 0.83314
 C288 C 0.32678 0.55889 0.80368
 C289 C 0.29143 0.54012 0.83207
 O290 O 0.28740 0.55691 0.87617
 H291 H 0.37599 0.60989 0.82406
 H292 H 0.33764 0.55085 0.76664
 C293 C 0.09375 0.30980 0.36231
 C294 C 0.12548 0.30098 0.32414
 C295 C 0.15626 0.27052 0.34111
 C296 C 0.14093 0.26259 0.38843
 O297 O 0.10282 0.28653 0.40141
 H298 H 0.12586 0.31499 0.28808
 H299 H 0.18597 0.25547 0.32108
 C300 C 0.12426 0.71612 0.63609
 C301 C 0.13513 0.74890 0.66680
 C302 C 0.15187 0.77955 0.63696
 C303 C 0.15024 0.76324 0.58998
 O304 O 0.13507 0.72418 0.58990
 H305 H 0.12712 0.75168 0.70556
 H306 H 0.16016 0.81108 0.64809
 C307 C 0.87715 0.69535 0.46712
 C308 C 0.85692 0.66975 0.50215
 C309 C 0.83849 0.69595 0.53735
 C310 C 0.84956 0.73561 0.52161
 O311 O 0.87246 0.73529 0.47869
 H312 H 0.85662 0.63601 0.50248
 H313 H 0.81964 0.68719 0.57066
 C314 C 0.93445 0.28570 0.53871
 C315 C 0.96099 0.27826 0.49657
 C316 C 0.93206 0.25352 0.46858
 C317 C 0.88868 0.24913 0.49447
 O318 O 0.89098 0.26709 0.53839
 H319 H 0.99836 0.28758 0.48870
 H320 H 0.94159 0.23996 0.43340
 C321 C 0.45041 0.04079 0.28590
 C322 C 0.48268 0.01370 0.26308
 C323 C 0.51151 0.03777 0.23448
 C324 C 0.49634 0.07846 0.24308
 O325 O 0.45763 0.08005 0.27304
 H326 H 0.48165 -0.02005 0.26320
 H327 H 0.53736 0.02624 0.20738
 C328 C 0.54877 0.11420 0.66823
 C329 C 0.51046 0.12161 0.63602
 C330 C 0.48037 0.15009 0.65913
 C331 C 0.50191 0.15689 0.70426
 O332 O 0.54380 0.13578 0.70928
 H333 H 0.50522 0.10802 0.60008
 H334 H 0.44678 0.16403 0.64496
 C335 C 0.42968 0.93337 0.67775
 C336 C 0.46994 0.91969 0.65109
 C337 C 0.49410 0.89230 0.68087
 C338 C 0.46744 0.89201 0.72388
 O339 O 0.42767 0.91627 0.72184
 H340 H 0.48021 0.92850 0.61423
 H341 H 0.52754 0.87494 0.67259
 C342 C 0.63298 0.86198 0.29163
 C343 C 0.65986 0.82611 0.28236
 C344 C 0.62743 0.79883 0.26262
 C345 C 0.58291 0.82006 0.26060
 O346 O 0.58623 0.85860 0.27835
 H347 H 0.69883 0.82081 0.28849
 H348 H 0.63558 0.76742 0.25022
 C349 C 0.43362 0.27687 0.94345
 C350 C 0.47267 0.25284 0.95952
 C351 C 0.48917 0.23194 0.91926
 C352 C 0.45981 0.24583 0.88121
 O353 O 0.42504 0.27245 0.89592
 H354 H 0.48689 0.25080 0.99647
 H355 H 0.51975 0.21002 0.91735
 C356 C 0.57096 0.74634 0.92340
 C357 C 0.56650 0.77993 0.95476
 C358 C 0.53643 0.80758 0.93147
 C359 C 0.52467 0.78897 0.88746
 O360 O 0.54558 0.75157 0.88236
 H361 H 0.58328 0.78371 0.99048
 H362 H 0.52698 0.83887 0.94342
 C363 C 0.36713 0.73030 0.10467
 C364 C 0.33847 0.76374 0.11951
 C365 C 0.36594 0.78364 0.15420
 C366 C 0.40930 0.76069 0.15788
 O367 O 0.40915 0.72779 0.12873
 H368 H 0.30356 0.77406 0.10438
 H369 H 0.35687 0.81302 0.17179
 C370 C 0.57782 0.24722 0.05489
 C371 C 0.57529 0.21154 0.02694
 C372 C 0.55326 0.18292 0.05601
 C373 C 0.54428 0.20287 0.10005
 O374 O 0.55940 0.24216 0.09965
 H375 H 0.58864 0.20689 -0.01009
 H376 H 0.54741 0.15039 0.04744
 C377 C 0.23155 0.08143 0.55797
 C378 C 0.18168 0.07619 0.56447
 C379 C 0.15972 0.10240 0.53161
 C380 C 0.19779 0.12138 0.50721
 O381 O 0.24154 0.10896 0.52330
 H382 H 0.16359 0.05597 0.59038
 H383 H 0.12065 0.10831 0.52719
 C384 C 0.76578 0.06440 0.37674
 C385 C 0.81041 0.07392 0.35551
 C386 C 0.82330 0.11092 0.37509
 C387 C 0.78590 0.12156 0.40709
 O388 O 0.75063 0.09329 0.40861
 H389 H 0.83104 0.05606 0.32854
 H390 H 0.85638 0.12823 0.36736
 C391 C 0.75927 0.94402 0.64225
 C392 C 0.80086 0.94275 0.67119
 C393 C 0.82648 0.90827 0.65616
 C394 C 0.79876 0.89115 0.61892
 O395 O 0.75787 0.91285 0.61036
 H396 H 0.81103 0.96424 0.70002
 H397 H 0.86127 0.89692 0.67056
 C398 C 0.24346 0.89258 0.36941
 C399 C 0.20499 0.87987 0.34018
 C400 C 0.17790 0.85395 0.36889
 C401 C 0.20210 0.85275 0.41347
 O402 O 0.24246 0.87542 0.41313
 H403 H 0.19628 0.89009 0.30335
 H404 H 0.14330 0.83975 0.35922
 C405 C 0.11610 0.36439 0.74044
 C406 C 0.12067 0.34761 0.78665
 C407 C 0.15381 0.37212 0.81024
 C408 C 0.16750 0.40205 0.77659
 O409 O 0.14556 0.39647 0.73370
 H410 H 0.09984 0.32235 0.80229
 H411 H 0.16444 0.36985 0.84839
 C412 C 0.06913 0.62563 0.26571
 C413 C 0.08320 0.64944 0.22632
 C414 C 0.12215 0.62856 0.20581
 C415 C 0.12948 0.59332 0.23431
 O416 O 0.09692 0.59172 0.27059
 H417 H 0.06706 0.67864 0.21408
 H418 H 0.14213 0.63821 0.17360
 C419 C 0.87545 0.47119 0.33225
 C420 C 0.85287 0.49691 0.36635
 C421 C 0.81417 0.51519 0.34181
 C422 C 0.81663 0.49908 0.29486
 O423 O 0.85342 0.47239 0.28930
 H424 H 0.86290 0.50128 0.40439
 H425 H 0.78705 0.53689 0.35642
 C426 C 0.94885 0.53806 0.72111
 C427 C 0.97000 0.51030 0.75358
 C428 C 0.93288 0.48566 0.76888
 C429 C 0.89128 0.50055 0.74536
 O430 O 0.90086 0.53286 0.71666
 H431 H 1.00736 0.51016 0.76736
 H432 H 0.93487 0.46272 0.79788
 C433 C 0.72695 0.60612 0.88765
 C434 C 0.77491 0.61958 0.88602
 C435 C 0.79911 0.59132 0.85742
 C436 C 0.76432 0.56234 0.84372
 O437 O 0.72036 0.57156 0.86192
 H438 H 0.79078 0.64588 0.90500
 H439 H 0.83815 0.59083 0.84941
 C440 C 0.34001 0.42748 0.93750
 C441 C 0.37427 0.45489 0.91967
 C442 C 0.35269 0.47250 0.87948
 C443 C 0.30626 0.45532 0.87641
 O444 O 0.29898 0.42754 0.91134
 H445 H 0.41125 0.46006 0.93300
 H446 H 0.36994 0.49398 0.85459
 C447 C 0.31396 0.57241 0.08274
 C448 C 0.34801 0.54525 0.10300
 C449 C 0.32357 0.52549 0.13964
 C450 C 0.27589 0.54127 0.13851
 O451 O 0.27033 0.57012 0.10418
 H452 H 0.38666 0.54185 0.09390
 H453 H 0.33974 0.50398 0.16569
 C454 C 0.70166 0.38787 0.11236
 C455 C 0.74555 0.37152 0.12971
 C456 C 0.76219 0.39977 0.16253
 C457 C 0.72758 0.43172 0.16290
 O458 O 0.69003 0.42413 0.13312
 H459 H 0.76466 0.34348 0.11767
 H460 H 0.79735 0.39865 0.18122
 C461 C 0.91972 0.70584 0.65906
 C462 C 0.89467 0.72005 0.69981
 C463 C 0.85982 0.74681 0.68230
 C464 C 0.86688 0.74824 0.63201
 O465 O 0.90298 0.72269 0.61780
 H466 H 0.90087 0.71168 0.73776
 H467 H 0.83336 0.76418 0.70415
 C468 C 0.88948 0.30536 0.36032
 C469 C 0.87522 0.28153 0.32089
 C470 C 0.84849 0.25033 0.34037
 C471 C 0.84763 0.25752 0.39058
 O472 O 0.87181 0.29168 0.40238
 H473 H 0.88586 0.28483 0.28285
 H474 H 0.83474 0.22396 0.32003
 C475 C 0.11343 0.30733 0.54854
 C476 C 0.13709 0.33434 0.51724
 C477 C 0.16210 0.30940 0.48509
 C478 C 0.15062 0.26921 0.49847
 O479 O 0.12216 0.26787 0.53766
 H480 H 0.13529 0.36808 0.51712
 H481 H 0.18438 0.31931 0.45446
 C482 C 0.05251 0.70233 0.45597
 C483 C 0.03551 0.70379 0.50347
 C484 C 0.06226 0.73413 0.52543
 C485 C 0.09709 0.74599 0.49131
 O486 O 0.08884 0.72846 0.44812
 H487 H 0.00327 0.68877 0.51827
 H488 H 0.05516 0.74731 0.56130
 C489 C 0.59627 0.95822 0.75203
 C490 C 0.60788 0.95993 0.80114
 C491 C 0.58373 0.92758 0.82181
 C492 C 0.55907 0.90832 0.78381
 O493 O 0.56662 0.92707 0.74133
 H494 H 0.63155 0.98191 0.81954
 H495 H 0.58371 0.91925 0.86025
 C496 C 0.43962 0.89179 0.32699
 C497 C 0.47256 0.87647 0.36125
 C498 C 0.49806 0.84540 0.33748
 C499 C 0.47880 0.84487 0.29064
 O500 O 0.44333 0.87271 0.28455
 H501 H 0.47665 0.88612 0.39907
 H502 H 0.52605 0.82492 0.35275
 C503 C 0.64284 0.03979 0.23666
 C504 C 0.66080 0.04199 0.18953
 C505 C 0.63372 0.07273 0.16752
 C506 C 0.60123 0.08715 0.20293
 O507 O 0.60727 0.06747 0.24517
 H508 H 0.68949 0.02292 0.17298
 H509 H 0.63613 0.08233 0.12959
 C510 C 0.36074 0.10619 0.71569
 C511 C 0.32518 0.12703 0.74233
 C512 C 0.34889 0.15919 0.76398
 C513 C 0.39772 0.15528 0.74969
 O514 O 0.40471 0.12300 0.72001
 H515 H 0.28631 0.12020 0.74457
 H516 H 0.33194 0.18291 0.78687
 C517 C 0.53861 0.69935 0.06964
 C518 C 0.50484 0.72356 0.04458
 C519 C 0.48864 0.75233 0.07752
 C520 C 0.51156 0.74203 0.12113
 O521 O 0.54385 0.71111 0.11584
 H522 H 0.49625 0.72252 0.00584
 H523 H 0.46283 0.77766 0.07073
 C524 C 0.39998 0.24996 0.12003
 C525 C 0.36726 0.21921 0.13198
 C526 C 0.39523 0.18795 0.15120
 C527 C 0.44332 0.20174 0.14965
 O528 O 0.44628 0.23951 0.13035
 H529 H 0.32785 0.21915 0.12603
 H530 H 0.38198 0.15805 0.16344
 C531 C 0.59110 0.30345 0.86954
 C532 C 0.62040 0.29828 0.82882
 C533 C 0.59347 0.27502 0.79715
 C534 C 0.54975 0.26682 0.82135
 O535 O 0.54827 0.28504 0.86496
 H536 H 0.65782 0.30871 0.82376
 H537 H 0.60580 0.26432 0.76157
 C538 C 0.37953 0.74915 0.89809
 C539 C 0.34384 0.77380 0.87653
 C540 C 0.36849 0.80017 0.84669
 C541 C 0.41790 0.78987 0.85176
 O542 O 0.42464 0.75880 0.88338
 H543 H 0.30442 0.77283 0.88219
 H544 H 0.35203 0.82482 0.82496
 C545 C 0.76465 0.91831 0.45224
 C546 C 0.79577 0.94482 0.47650
 C547 C 0.81544 0.92184 0.51360
 C548 C 0.79452 0.88295 0.50941
 O549 O 0.76400 0.88051 0.47155
 H550 H 0.80352 0.97696 0.46763
 H551 H 0.84253 0.93198 0.54002
 C552 C 0.26681 0.93522 0.53966
 C553 C 0.23854 0.95433 0.50419
 C554 C 0.20794 0.92428 0.48770
 C555 C 0.22145 0.88847 0.51274
 O556 O 0.25575 0.89558 0.54603
 H557 H 0.23767 0.98705 0.49450
 H558 H 0.17895 0.92805 0.46078
 C559 C 0.24010 0.06682 0.36621
 C560 C 0.19978 0.07181 0.33607
 C561 C 0.17361 0.10410 0.35572
 C562 C 0.19993 0.11656 0.39644
 O563 O 0.24029 0.09372 0.40316
 H564 H 0.19101 0.05437 0.30325
 H565 H 0.14014 0.11796 0.34116
 C566 C 0.74363 0.08434 0.55958
 C567 C 0.77682 0.05820 0.53636
 C568 C 0.80524 0.08358 0.50865
 C569 C 0.78683 0.12331 0.51669
 O570 O 0.74962 0.12399 0.54813
 H571 H 0.77979 0.02463 0.53949
 H572 H 0.83444 0.07416 0.48383
 C573 C 0.85191 0.62226 0.28156
 C574 C 0.81881 0.64931 0.25982
 C575 C 0.78362 0.62456 0.23982
 C576 C 0.79800 0.58403 0.25059
 O577 O 0.83954 0.58285 0.27600
 H578 H 0.81982 0.68303 0.25932
 H579 H 0.75131 0.63510 0.21999
 C580 C 0.90482 0.37388 0.72810
 C581 C 0.88492 0.35011 0.76488
 C582 C 0.85156 0.37565 0.78767
 C583 C 0.85340 0.41331 0.76302
 O584 O 0.88571 0.41203 0.72666
 H585 H 0.89460 0.31838 0.77474
 H586 H 0.83006 0.36793 0.81969
 C587 C 0.11204 0.53117 0.68659
 C588 C 0.08210 0.49796 0.69580
 C589 C 0.10675 0.47430 0.72906
 C590 C 0.15259 0.49209 0.73389
 O591 O 0.15456 0.52788 0.70970
 H592 H 0.04373 0.49512 0.68589
 H593 H 0.09011 0.45041 0.75110
 C594 C 0.08199 0.47980 0.33080
 C595 C 0.10123 0.50699 0.36481
 C596 C 0.13583 0.52904 0.33953
 C597 C 0.13425 0.51358 0.29228
 O598 O 0.10211 0.48365 0.28717
 H599 H 0.09206 0.50966 0.40331
 H600 H 0.16030 0.55244 0.35397
   
