data_POSCAR
  _audit_creation_date              2014-09-24
  _audit_creation_method            'ToBaCCo'
  _symmetry_space_group_name_H-M    'P1'
  _symmetry_Int_Tables_number       1
  _symmetry_cell_setting            triclinic
  loop_
  _symmetry_equiv_pos_as_xyz
 x,y,z
_cell_length_a 33.4275
_cell_length_b 38.5582
_cell_length_c 32.4580
_cell_angle_alpha 98.814900
_cell_angle_beta 97.191700
_cell_angle_gamma 93.196600
loop_
  _atom_site_label
  _atom_site_type_symbol
  _atom_site_fract_x
  _atom_site_fract_y
  _atom_site_fract_z
C1 C 0.56629 0.64897 0.63985
 C2 C 0.60061 0.64379 0.61977
 C3 C 0.62685 0.61935 0.63087
 C4 C 0.61909 0.59992 0.66251
 C5 C 0.58500 0.60485 0.68243
 C6 C 0.55851 0.63004 0.67133
 C7 C 0.53708 0.67226 0.63634
 N8 N 0.51189 0.66852 0.66525
 C9 C 0.52469 0.64289 0.68706
 C10 C 0.58610 0.58288 0.71233
 N11 N 0.62034 0.56543 0.71131
 C12 C 0.64065 0.57584 0.68107
 C13 C 0.65845 0.62114 0.60757
 N14 N 0.65195 0.64639 0.58308
 C15 C 0.61673 0.66042 0.59038
 H16 H 0.53522 0.69153 0.61530
 H17 H 0.51080 0.63463 0.71272
 H18 H 0.56429 0.58064 0.73397
 H19 H 0.66926 0.56670 0.67326
 H20 H 0.68481 0.60608 0.60934
 H21 H 0.60418 0.68165 0.57593
 C22 C 0.94173 0.34824 0.13389
 C23 C 0.90621 0.35192 0.10715
 C24 C 0.88044 0.37715 0.11989
 C25 C 0.88909 0.39843 0.15934
 C26 C 0.92409 0.39511 0.18548
 C27 C 0.95042 0.36977 0.17273
 C28 C 0.97126 0.32459 0.13166
 N29 N 0.99699 0.33108 0.16842
 C30 C 0.98448 0.35874 0.19349
 C31 C 0.92329 0.41749 0.22276
 N32 N 0.88826 0.43366 0.21980
 C33 C 0.86711 0.42218 0.18125
 C34 C 0.84812 0.37465 0.08886
 N35 N 0.85320 0.34837 0.05753
 C36 C 0.88841 0.33395 0.06843
 H37 H 0.97268 0.30330 0.10606
 H38 H 0.99832 0.36930 0.22525
 H39 H 0.94531 0.42032 0.25075
 H40 H 0.83734 0.42971 0.17054
 H41 H 0.82235 0.39045 0.08936
 H42 H 0.90017 0.31222 0.04955
 C43 C 0.36889 0.16767 -0.12925
 C44 C 0.34679 0.14220 -0.11284
 C45 C 0.34400 0.10725 -0.13183
 C46 C 0.36239 0.09740 -0.16798
 C47 C 0.38368 0.12261 -0.18437
 C48 C 0.38760 0.15776 -0.16448
 C49 C 0.37863 0.20324 -0.11631
 N50 N 0.40336 0.21467 -0.14236
 C51 C 0.40893 0.18715 -0.17196
 C52 C 0.39649 0.10616 -0.22050
 N53 N 0.38356 0.07151 -0.22648
 C54 C 0.36315 0.06575 -0.19413
 C55 C 0.32232 0.08828 -0.10834
 N56 N 0.31177 0.11081 -0.07579
 C57 C 0.32645 0.14387 -0.07827
 H58 H 0.36982 0.21929 -0.08901
 H59 H 0.42776 0.18834 -0.19661
 H60 H 0.41315 0.11869 -0.24148
 H61 H 0.34835 0.04083 -0.19081
 H62 H 0.31518 0.06007 -0.11413
 H63 H 0.32355 0.16720 -0.05593
 C64 C 0.09029 0.82423 0.30901
 C65 C 0.13260 0.82858 0.31262
 C66 C 0.15126 0.85955 0.30503
 C67 C 0.12778 0.88613 0.29253
 C68 C 0.08609 0.88199 0.28959
 C69 C 0.06727 0.85092 0.29795
 C70 C 0.06435 0.79881 0.31920
 N71 N 0.02627 0.80966 0.31484
 C72 C 0.02779 0.84141 0.30163
 C73 C 0.07128 0.91295 0.28066
 N74 N 0.10287 0.93547 0.27703
 C75 C 0.13762 0.91935 0.28435
 C76 C 0.19206 0.85897 0.31780
 N77 N 0.19844 0.82831 0.33233
 C78 C 0.16243 0.80940 0.32893
 H79 H 0.07299 0.77514 0.33100
 H80 H 0.00230 0.85717 0.29678
 H81 H 0.03978 0.91863 0.27696
 H82 H 0.16786 0.93114 0.28482
 H83 H 0.21501 0.88022 0.31915
 H84 H 0.15791 0.78503 0.34106
 N85 N 0.12626 0.19785 0.14950
 N86 N 0.11908 0.19124 0.18662
 C87 C 0.09749 0.21640 0.20438
 C88 C 0.09008 0.23946 0.17642
 C89 C 0.10856 0.22726 0.14181
 H90 H 0.08743 0.21754 0.23493
 H91 H 0.11039 0.23949 0.11421
 Cu92 Cu 0.13617 0.14942 0.20747
 Cu93 Cu 0.16162 0.16951 0.11658
 Cu94 Cu 0.19568 0.09610 0.15694
 N95 N 0.13886 0.10092 0.21616
 N96 N 0.16378 0.08040 0.19779
 C97 C 0.15998 0.04838 0.20927
 C98 C 0.13047 0.04907 0.23554
 C99 C 0.11738 0.08255 0.23912
 H100 H 0.17553 0.02590 0.19732
 H101 H 0.09354 0.09253 0.25620
 N102 N 0.21115 0.10978 0.10483
 N103 N 0.19837 0.13755 0.08917
 C104 C 0.21432 0.13935 0.05327
 C105 C 0.23750 0.11104 0.04620
 C106 C 0.23476 0.09272 0.07906
 H107 H 0.20887 0.15917 0.03344
 H108 H 0.24869 0.06872 0.08372
 H109 H 0.14735 0.12285 0.13760
 H110 H 0.19262 0.15098 0.16576
 N111 N 0.39023 0.78944 0.60291
 N112 N 0.39197 0.80803 0.64077
 C113 C 0.40601 0.78829 0.66964
 C114 C 0.41344 0.75592 0.64822
 C115 C 0.40329 0.75755 0.60611
 H116 H 0.41361 0.79764 0.70301
 H117 H 0.40745 0.73794 0.57969
 Cu118 Cu 0.38299 0.85803 0.64612
 Cu119 Cu 0.37733 0.80912 0.55151
 Cu120 Cu 0.33952 0.89150 0.56415
 N121 N 0.37401 0.90794 0.65146
 N122 N 0.35950 0.92109 0.61797
 C123 C 0.36000 0.95629 0.62791
 C124 C 0.37492 0.96539 0.66993
 C125 C 0.38361 0.93438 0.68426
 H126 H 0.35034 0.97384 0.60623
 H127 H 0.39762 0.93158 0.71533
 N128 N 0.33302 0.85985 0.50961
 N129 N 0.34771 0.82858 0.50489
 C130 C 0.33465 0.81151 0.46572
 C131 C 0.31096 0.83326 0.44490
 C132 C 0.31049 0.86373 0.47340
 H133 H 0.33946 0.78441 0.45433
 H134 H 0.29271 0.88582 0.46921
 H135 H 0.38772 0.86330 0.57279
 H136 H 0.33885 0.84078 0.57998
 N137 N 0.89355 0.69893 0.39750
 N138 N 0.91994 0.67765 0.38316
 C139 C 0.94566 0.69548 0.36363
 C140 C 0.93407 0.72947 0.36569
 C141 C 0.90101 0.73090 0.38716
 H142 H 0.96979 0.68426 0.34796
 H143 H 0.88409 0.75352 0.39513
 Cu144 Cu 0.91517 0.62785 0.38749
 Cu145 Cu 0.85375 0.68414 0.43134
 Cu146 Cu 0.83974 0.59526 0.43373
 N147 N 0.89505 0.57846 0.37395
 N148 N 0.86434 0.56635 0.39074
 C149 C 0.85228 0.53340 0.37125
 C150 C 0.87704 0.52442 0.34102
 C151 C 0.90395 0.55341 0.34339
 H152 H 0.82601 0.51806 0.37692
 H153 H 0.92561 0.55722 0.32205
 N154 N 0.80735 0.63011 0.46220
 N155 N 0.81114 0.66392 0.45930
 C156 C 0.78283 0.68057 0.47908
 C157 C 0.76080 0.65597 0.49545
 C158 C 0.77689 0.62424 0.48438
 H159 H 0.77860 0.70837 0.48156
 H160 H 0.76651 0.59877 0.49074
 H161 H 0.87882 0.64038 0.44902
 H162 H 0.84508 0.63386 0.39778
 N163 N 0.56777 0.33147 -0.13345
 N164 N 0.54669 0.35869 -0.13889
 C165 C 0.50699 0.34899 -0.14142
 C166 C 0.50338 0.31370 -0.13825
 C167 C 0.54226 0.30320 -0.13345
 H168 H 0.48277 0.36616 -0.14534
 H169 H 0.55141 0.27753 -0.12847
 Cu170 Cu 0.57325 0.40383 -0.14346
 Cu171 Cu 0.62682 0.33531 -0.12353
 Cu172 Cu 0.67025 0.42053 -0.10255
 N173 N 0.60581 0.44308 -0.15694
 N174 N 0.64424 0.44906 -0.14113
 C175 C 0.66122 0.47476 -0.15840
 C176 C 0.63171 0.48566 -0.18609
 C177 C 0.59677 0.46516 -0.18467
 H178 H 0.69304 0.48349 -0.15292
 H179 H 0.56809 0.46442 -0.20448
 N180 N 0.69803 0.38103 -0.08465
 N181 N 0.68279 0.34801 -0.09489
 C182 C 0.70928 0.32702 -0.07827
 C183 C 0.74221 0.34828 -0.05647
 C184 C 0.73418 0.38227 -0.06097
 H185 H 0.70390 0.29891 -0.07974
 H186 H 0.75283 0.40613 -0.04760
 H187 H 0.62359 0.38443 -0.09258
 H188 H 0.64016 0.38165 -0.14576
 N189 N 0.07300 0.29130 0.22109
 N190 N 0.04811 0.31675 0.21990
 C191 C 0.02805 0.31192 0.18048
 C192 C 0.04174 0.28297 0.15715
 N193 N 0.06976 0.27098 0.18388
 H194 H 0.03124 0.27079 0.12501
 N195 N 0.44068 0.72438 0.70444
 N196 N 0.46664 0.70006 0.70997
 C197 C 0.47897 0.68996 0.67223
 C198 C 0.46006 0.70856 0.64358
 N199 N 0.43639 0.72969 0.66478
 H200 H 0.46473 0.70818 0.61112
 N201 N 0.93251 0.78536 0.33980
 N202 N 0.95675 0.80763 0.32537
 C203 C 0.99264 0.79333 0.32503
 C204 C 0.98975 0.76144 0.33933
 N205 N 0.95169 0.75760 0.34824
 H206 H 1.01295 0.74341 0.34403
 N207 N 0.43415 0.30525 -0.12297
 N208 N 0.40656 0.27914 -0.12292
 C209 C 0.42285 0.24931 -0.13773
 C210 C 0.46109 0.25758 -0.14655
 N211 N 0.46699 0.29278 -0.13688
 H212 H 0.48268 0.23986 -0.15809
 N213 N 0.07410 0.01636 0.25640
 N214 N 0.06533 -0.01476 0.26699
 C215 C 0.09975 -0.03146 0.26794
 C216 C 0.12991 -0.00988 0.25742
 N217 N 0.11250 0.01965 0.25039
 H218 H 0.16091 -0.01523 0.25417
 N219 N 0.67315 0.50940 -0.23288
 N220 N 0.67086 0.53046 -0.26153
 C221 C 0.63360 0.54235 -0.26327
 C222 C 0.61278 0.52776 -0.23506
 N223 N 0.63874 0.50736 -0.21683
 H224 H 0.58221 0.53137 -0.22845
 N225 N 0.39824 1.02706 0.67660
 N226 N 0.40163 1.05638 0.70445
 C227 C 0.38794 1.04770 0.73918
 C228 C 0.37645 1.01206 0.73213
 N229 N 0.38339 1.00033 0.69266
 H230 H 0.36336 0.99641 0.75276
 N231 N 0.83303 0.47955 0.29303
 N232 N 0.83461 0.45541 0.25963
 C233 C 0.87364 0.45597 0.25312
 C234 C 0.89609 0.48108 0.28314
 N235 N 0.86945 0.49522 0.30743
 H236 H 0.92812 0.48876 0.28654
 N237 N 0.26870 0.06884 -0.00103
 N238 N 0.28835 0.06761 -0.03416
 C239 C 0.29089 0.10061 -0.04306
 C240 C 0.27211 0.12220 -0.01467
 N241 N 0.25864 0.10122 0.01098
 H242 H 0.26905 0.15020 -0.01243
 N243 N 0.70677 0.69078 0.51844
 N244 N 0.67687 0.68900 0.54143
 C245 C 0.67862 0.65808 0.55588
 C246 C 0.71023 0.64079 0.54111
 N247 N 0.72697 0.66216 0.51782
 H248 H 0.72016 0.61549 0.54677
 N249 N 0.78907 0.30625 -0.03308
 N250 N 0.81980 0.30547 -0.00308
 C251 C 0.82537 0.33811 0.01970
 C252 C 0.79755 0.35886 0.00303
 N253 N 0.77550 0.33808 -0.02987
 H254 H 0.79312 0.38611 0.01423
 N255 N 0.27664 0.78973 0.38726
 N256 N 0.24623 0.78725 0.35628
 C257 C 0.23513 0.82020 0.35531
 C258 C 0.25901 0.84292 0.38686
 N259 N 0.28455 0.82283 0.40612
 H260 H 0.25578 0.87059 0.39697
   
