data_POSCAR
  _audit_creation_date              2014-09-24
  _audit_creation_method            'ToBaCCo'
  _symmetry_space_group_name_H-M    'P1'
  _symmetry_Int_Tables_number       1
  _symmetry_cell_setting            triclinic
  loop_
  _symmetry_equiv_pos_as_xyz
 x,y,z
_cell_length_a 35.6783
_cell_length_b 35.8313
_cell_length_c 88.7559
_cell_angle_alpha 87.314500
_cell_angle_beta 91.401700
_cell_angle_gamma 119.516800
loop_
  _atom_site_label
  _atom_site_type_symbol
  _atom_site_fract_x
  _atom_site_fract_y
  _atom_site_fract_z
C1 C 0.01920 0.07674 0.51957
 H2 H 0.04979 0.07736 0.51919
 C3 C 0.01458 0.10514 0.52852
 H4 H 0.04168 0.12715 0.53519
 C5 C -0.05322 0.04693 0.51129
 H6 H -0.07927 0.02466 0.50435
 C7 C -0.05932 0.07481 0.52015
 H8 H -0.09019 0.07372 0.51995
 N9 N -0.01444 0.04830 0.51125
 C10 C 0.01514 -0.05393 0.50417
 H11 H 0.01643 -0.05310 0.49198
 C12 C 0.01909 -0.08569 0.51263
 H13 H 0.02418 -0.10881 0.50689
 C14 C 0.00572 -0.02543 0.52642
 H15 H -0.00084 -0.00278 0.53174
 C16 C 0.00959 -0.05652 0.53531
 H17 H 0.00603 -0.05728 0.54741
 Zn18 Zn -0.00270 0.01356 0.49899
 N19 N 0.00844 -0.02473 0.51114
 C20 C 0.08261 0.04927 0.48714
 N21 N 0.04559 0.05142 0.48710
 C22 C 0.04217 0.08277 0.47902
 C23 C 0.07667 0.11345 0.47041
 C24 C 0.11802 0.07936 0.47862
 C25 C -0.08683 -0.05140 0.49311
 C26 C -0.12099 -0.08052 0.48438
 C27 C -0.07915 -0.04472 0.46205
 C28 C -0.04587 -0.01650 0.47126
 N29 N -0.05011 -0.02042 0.48648
 H30 H 0.08496 0.02463 0.49389
 H31 H 0.01247 0.08394 0.47933
 H32 H 0.07301 0.13779 0.46391
 H33 H 0.14744 0.07756 0.47890
 H34 H -0.08931 -0.05396 0.50529
 H35 H -0.14978 -0.10340 0.49036
 H36 H -0.07236 -0.04124 0.45013
 H37 H -0.01593 0.00747 0.46617
 C38 C 0.01588 -0.08751 0.52843
 C39 C -0.02502 0.10458 0.52885
 C40 C -0.11779 -0.07849 0.46842
 C41 C 0.11533 0.11213 0.47017
 C42 C 1.09278 0.04498 0.14681
 H43 H 1.09432 0.07577 0.14751
 C44 C 1.12088 0.04070 0.13734
 H45 H 1.14428 0.06854 0.13086
 C46 C 1.06104 -0.02829 0.15484
 H47 H 1.03787 -0.05494 0.16179
 C48 C 1.08873 -0.03400 0.14552
 H49 H 1.08618 -0.06534 0.14519
 N50 N 1.06330 0.01069 0.15518
 C51 C 0.96124 0.04105 0.16266
 H52 H 0.96076 0.04083 0.17485
 C53 C 0.93044 0.04635 0.15424
 H54 H 0.90674 0.05094 0.16003
 C55 C 0.99192 0.03394 0.14035
 H56 H 1.01494 0.02766 0.13496
 C57 C 0.96187 0.03923 0.13151
 H58 H 0.96233 0.03706 0.11939
 Zn59 Zn 1.02774 0.02143 0.16764
 N60 N 0.99104 0.03481 0.15563
 C61 C 1.06294 0.10442 0.18018
 N62 N 1.06490 0.06752 0.17971
 C63 C 1.09498 0.06218 0.18773
 C64 C 1.12392 0.09414 0.19702
 C65 C 1.09147 0.13740 0.18934
 C66 C 0.96099 -0.06296 0.17345
 C67 C 0.93056 -0.09763 0.18226
 C68 C 0.96454 -0.05824 0.20455
 C69 C 0.99421 -0.02439 0.19534
 N70 N 0.99182 -0.02716 0.18008
 H71 H 1.03927 0.10830 0.17350
 H72 H 1.09625 0.03279 0.18692
 H73 H 1.14770 0.08923 0.20326
 H74 H 1.08908 0.16630 0.18980
 H75 H 0.95924 -0.06398 0.16128
 H76 H 0.90544 -0.12528 0.17676
 H77 H 0.96689 -0.05522 0.21666
 H78 H 1.01824 0.00458 0.20043
 C79 C 0.93025 0.04502 0.13845
 C80 C 1.11896 0.00077 0.13653
 C81 C 0.93170 -0.09521 0.19803
 C82 C 1.12223 0.13226 0.19801
 C83 C 0.03083 0.94679 0.85309
 H84 H 0.00166 0.91599 0.85288
 C85 C 0.06591 0.95133 0.86169
 H86 H 0.06323 0.92391 0.86828
 C87 C 0.06923 1.01993 0.84479
 H88 H 0.07052 1.04635 0.83799
 C89 C 0.10518 1.02594 0.85329
 H90 H 0.13398 1.05712 0.85297
 N91 N 0.03293 0.98084 0.84494
 C92 C -0.10074 0.95029 0.83970
 H93 H -0.10398 0.94991 0.82755
 C94 C -0.13455 0.94567 0.84865
 H95 H -0.16401 0.94000 0.84303
 C96 C -0.05798 0.95757 0.86132
 H97 H -0.02753 0.96384 0.86622
 C98 C -0.09093 0.95291 0.87072
 H99 H -0.08409 0.95642 0.88266
 Zn100 Zn -0.01638 0.96958 0.83332
 N101 N -0.06328 0.95645 0.84612
 C102 C -0.06621 0.88621 0.82111
 N103 N -0.02771 0.92323 0.82116
 C104 C 0.00578 0.92863 0.81259
 C105 C 0.00106 0.89659 0.80316
 C106 C -0.07233 0.85312 0.81183
 C107 C -0.00087 1.05389 0.82767
 C108 C 0.00131 1.08847 0.81897
 C109 C -0.00946 1.04830 0.79664
 C110 C -0.01145 1.01457 0.80573
 N111 N -0.00732 1.01782 0.82096
 H112 H -0.09218 0.88231 0.82820
 H113 H 0.03623 0.95815 0.81306
 H114 H 0.02825 0.90156 0.79649
 H115 H -0.10334 0.82411 0.81169
 H116 H 0.00136 1.05527 0.83983
 H117 H 0.00524 1.11643 0.82454
 H118 H -0.01297 1.04496 0.78455
 H119 H -0.01756 0.98538 0.80060
 C120 C -0.13003 0.94765 0.86451
 C121 C 0.10380 0.99127 0.86186
 C122 C -0.00365 1.08563 0.80325
 C123 C -0.03848 0.85832 0.80260
 C124 C 0.38388 -0.02120 -0.00801
 C125 C 0.38401 -0.02136 0.00745
 C126 C 0.42588 -0.00871 0.01202
 N127 N 0.45124 -0.00101 -0.00011
 C128 C 0.42558 -0.00881 -0.01235
 C129 C 0.44071 -0.00158 0.02708
 C130 C 0.48273 0.00777 0.03140
 C131 C 0.50233 0.02557 0.04489
 C132 C 0.54202 0.02798 0.04504
 C133 C 0.54541 0.01121 0.03168
 N134 N 0.50905 -0.00112 0.02345
 C135 C 0.58035 0.00530 0.02787
 C136 C 0.58635 -0.00513 0.01330
 C137 C 0.61520 -0.01874 0.00978
 C138 C 0.61276 -0.02327 -0.00553
 C139 C 0.58279 -0.01187 -0.01087
 N140 N 0.56673 -0.00074 0.00067
 C141 C 0.57275 -0.00919 -0.02624
 C142 C 0.53939 -0.00098 -0.03110
 C143 C 0.53535 0.01284 -0.04559
 C144 C 0.49799 0.01515 -0.04589
 C145 C 0.48004 0.00233 -0.03160
 N146 N 0.50547 -0.00753 -0.02266
 C147 C 0.43982 -0.00246 -0.02744
 H148 H 0.35624 -0.02927 -0.01522
 H149 H 0.35650 -0.02944 0.01449
 H150 H 0.49775 -0.02249 -0.01199
 H151 H 0.48940 0.03582 0.05371
 H152 H 0.56552 0.04032 0.05404
 H153 H 0.63580 -0.02485 0.01745
 H154 H 0.63123 -0.03346 -0.01199
 H155 H 0.48530 0.02478 -0.05558
 H156 H 0.50064 -0.01893 0.01381
 H157 H 0.55709 0.02048 -0.05498
 C158 C -0.04953 0.35757 0.67475
 C159 C -0.05084 0.35789 0.65929
 C160 C -0.03865 0.39963 0.65439
 N161 N -0.03016 0.42472 0.66632
 C162 C -0.03696 0.39902 0.67878
 C163 C -0.03254 0.41461 0.63915
 C164 C -0.02366 0.45648 0.63456
 C165 C -0.00669 0.47630 0.62067
 C166 C -0.00436 0.51579 0.62044
 C167 C -0.02031 0.51888 0.63414
 N168 N -0.03215 0.48249 0.64267
 C169 C -0.02574 0.55372 0.63809
 C170 C -0.03527 0.55937 0.65288
 C171 C -0.04817 0.58840 0.65670
 C172 C -0.05148 0.58581 0.67212
 C173 C -0.04012 0.55555 0.67721
 N174 N -0.03020 0.53946 0.66543
 C175 C -0.03600 0.54555 0.69253
 C176 C -0.02770 0.51211 0.69726
 C177 C -0.01256 0.50802 0.71143
 C178 C -0.01025 0.47080 0.71170
 C179 C -0.02440 0.45299 0.69773
 N180 N -0.03511 0.47833 0.68902
 C181 C -0.02941 0.41304 0.69371
 H182 H -0.05694 0.33000 0.68218
 H183 H -0.05935 0.33059 0.65246
 H184 H -0.05096 0.47072 0.67870
 H185 H 0.00312 0.46367 0.61166
 H186 H 0.00745 0.53940 0.61116
 H187 H -0.05444 0.60932 0.64916
 H188 H -0.06070 0.60447 0.67881
 H189 H 0.00033 0.45816 0.72117
 H190 H -0.04930 0.47393 0.65271
 H191 H -0.00396 0.52966 0.72060
 C192 C 0.39816 0.39982 0.34201
 C193 C 0.39900 0.40003 0.32658
 C194 C 0.43724 0.43579 0.32200
 N195 N 0.45966 0.45723 0.33415
 C196 C 0.43594 0.43542 0.34640
 C197 C 0.45021 0.44791 0.30678
 C198 C 0.48934 0.48432 0.30200
 C199 C 0.49997 0.49758 0.28701
 C200 C 0.53924 0.53446 0.28693
 C201 C 0.55162 0.54317 0.30187
 N202 N 0.52144 0.51194 0.31096
 C203 C 0.58939 0.58024 0.30651
 C204 C 0.59864 0.59385 0.32154
 C205 C 0.63344 0.63237 0.32575
 C206 C 0.63011 0.63453 0.34099
 C207 C 0.59379 0.59692 0.34570
 N208 N 0.57462 0.57224 0.33378
 C209 C 0.58023 0.58552 0.36089
 C210 C 0.54444 0.54606 0.36575
 C211 C 0.53710 0.53074 0.38064
 C212 C 0.50030 0.49145 0.38081
 C213 C 0.48575 0.48376 0.36603
 N214 N 0.51260 0.51755 0.35694
 C215 C 0.44819 0.44620 0.36155
 H216 H 0.37258 0.37609 0.34915
 H217 H 0.37422 0.37642 0.31955
 H218 H 0.50765 0.52262 0.34565
 H219 H 0.48108 0.48268 0.27712
 H220 H 0.55613 0.55337 0.27697
 H221 H 0.65845 0.65674 0.31859
 H222 H 0.65225 0.66071 0.34782
 H223 H 0.48611 0.47074 0.39072
 H224 H 0.52378 0.50860 0.32252
 H225 H 0.55671 0.54591 0.39038
 C226 C -0.07118 0.15019 0.55606
 C227 C -0.03732 0.19242 0.55696
 C228 C -0.00022 0.20626 0.54830
 C229 C 0.00340 0.17789 0.53897
 C230 C -0.03006 0.13514 0.53818
 C231 C -0.06765 0.12171 0.54669
 C232 C -0.03967 0.22131 0.56715
 C233 C -0.04038 0.24589 0.57581
 C234 C -0.03999 0.27495 0.58609
 C235 C -0.03887 0.29983 0.59502
 C236 C -0.03681 0.32944 0.60586
 C237 C -0.00453 0.34394 0.61691
 C238 C -0.00281 0.37204 0.62765
 C239 C -0.03352 0.38577 0.62747
 C240 C -0.06550 0.37159 0.61626
 C241 C -0.06717 0.34349 0.60550
 H242 H -0.09999 0.13909 0.56276
 H243 H 0.02615 0.23889 0.54889
 H244 H 0.03244 0.18939 0.53237
 H245 H -0.09377 0.08891 0.54642
 H246 H 0.01917 0.33334 0.61727
 H247 H 0.02221 0.38288 0.63618
 H248 H -0.08937 0.38196 0.61595
 H249 H -0.09223 0.33253 0.59699
 C250 C 0.84927 0.79425 0.21363
 C251 C 0.83272 0.80500 0.22582
 C252 C 0.84853 0.84813 0.22890
 C253 C 0.88072 0.88045 0.21988
 C254 C 0.89772 0.87010 0.20762
 C255 C 0.88155 0.82661 0.20456
 C256 C 0.79959 0.77212 0.23526
 C257 C 0.77196 0.74560 0.24347
 C258 C 0.73983 0.71563 0.25340
 C259 C 0.71264 0.69084 0.26212
 C260 C 0.68054 0.66209 0.27281
 C261 C 0.65005 0.67213 0.27813
 C262 C 0.61997 0.64522 0.28899
 C263 C 0.62030 0.60814 0.29463
 C264 C 0.65048 0.59784 0.28913
 C265 C 0.68055 0.62477 0.27827
 H266 H 0.83731 0.76093 0.21116
 H267 H 0.83584 0.85682 0.23827
 H268 H 0.89186 0.91359 0.22238
 H269 H 0.89421 0.81764 0.19527
 H270 H 0.64984 0.70097 0.27401
 H271 H 0.59676 0.65344 0.29314
 H272 H 0.65097 0.56926 0.29339
 H273 H 0.70404 0.61675 0.27425
 C274 C 0.18648 -0.03263 -0.11916
 C275 C 0.20973 0.00360 -0.11056
 C276 C 0.19946 0.03666 -0.11140
 C277 C 0.16556 0.03315 -0.12061
 C278 C 0.14141 -0.00360 -0.12904
 C279 C 0.15260 -0.03622 -0.12834
 C280 C 0.24286 0.00583 -0.10045
 C281 C 0.26982 0.00665 -0.09180
 C282 C 0.30052 0.00664 -0.08147
 C283 C 0.32610 0.00600 -0.07248
 C284 C 0.35592 0.00471 -0.06154
 C285 C 0.37408 0.03604 -0.05070
 C286 C 0.40177 0.03393 -0.03971
 C287 C 0.41150 0.00040 -0.03945
 C288 C 0.39354 -0.03073 -0.05042
 C289 C 0.36584 -0.02858 -0.06142
 H290 H 0.19418 -0.05837 -0.11862
 H291 H 0.21716 0.06478 -0.10474
 H292 H 0.15747 0.05859 -0.12080
 H293 H 0.13506 -0.06459 -0.13488
 H294 H 0.36653 0.06185 -0.05066
 H295 H 0.41541 0.05822 -0.03132
 H296 H 0.40062 -0.05687 -0.05034
 H297 H 0.35184 -0.05307 -0.06973
 C298 C 0.03619 0.85187 0.56089
 C299 C 0.01360 0.80968 0.55610
 C300 C -0.00667 0.80131 0.54200
 C301 C -0.00503 0.83489 0.53282
 C302 C 0.01683 0.87732 0.53767
 C303 C 0.03783 0.88549 0.55174
 C304 C 0.00974 0.77487 0.56595
 C305 C 0.00596 0.74590 0.57441
 C306 C 0.00113 0.71231 0.58456
 C307 C -0.00316 0.68402 0.59346
 C308 C -0.00826 0.65083 0.60437
 C309 C -0.04219 0.60876 0.60303
 C310 C -0.04778 0.57695 0.61394
 C311 C -0.01950 0.58703 0.62627
 C312 C 0.01463 0.62917 0.62749
 C313 C 0.02019 0.66091 0.61660
 H314 H 0.05203 0.85872 0.57179
 H315 H -0.02442 0.76875 0.53821
 H316 H -0.02203 0.82746 0.52215
 H317 H 0.05534 0.91785 0.55571
 H318 H -0.06446 0.60066 0.59364
 H319 H -0.07432 0.54461 0.61286
 H320 H 0.03677 0.63743 0.63693
 H321 H 0.04647 0.69335 0.61777
 C322 C 0.19240 0.18656 0.23169
 C323 C 0.21265 0.22975 0.22681
 C324 C 0.20245 0.24137 0.21266
 C325 C 0.17247 0.20979 0.20334
 C326 C 0.15252 0.16619 0.20807
 C327 C 0.16255 0.15500 0.22241
 C328 C 0.24446 0.26175 0.23628
 C329 C 0.27119 0.28761 0.24445
 C330 C 0.30247 0.31687 0.25428
 C331 C 0.32904 0.34111 0.26290
 C332 C 0.36047 0.36924 0.27343
 C333 C 0.39685 0.36523 0.27697
 C334 C 0.42644 0.39125 0.28770
 C335 C 0.41978 0.42142 0.29497
 C336 C 0.38359 0.42573 0.29128
 C337 C 0.35402 0.39969 0.28055
 H338 H 0.19992 0.17721 0.24264
 H339 H 0.21801 0.27474 0.20876
 H340 H 0.16569 0.21934 0.19231
 H341 H 0.14722 0.12179 0.22646
 H342 H 0.40207 0.34170 0.27156
 H343 H 0.45422 0.38761 0.29048
 H344 H 0.37811 0.44889 0.29683
 H345 H 0.32593 0.40297 0.27793
 C346 C 0.77798 -0.03918 -0.12245
 C347 C 0.77654 -0.05044 -0.10712
 C348 C 0.80443 -0.06441 -0.10130
 C349 C 0.83443 -0.06611 -0.11066
 C350 C 0.83740 -0.05365 -0.12616
 C351 C 0.80785 -0.04089 -0.13190
 C352 C 0.74766 -0.04609 -0.09722
 C353 C 0.72425 -0.04173 -0.08878
 C354 C 0.69758 -0.03606 -0.07872
 C355 C 0.67534 -0.03094 -0.06997
 C356 C 0.64929 -0.02470 -0.05934
 C357 C 0.60514 -0.05395 -0.05818
 C358 C 0.58017 -0.04858 -0.04751
 C359 C 0.59917 -0.01396 -0.03787
 C360 C 0.64333 0.01565 -0.03923
 C361 C 0.66827 0.01023 -0.04990
 H362 H 0.75665 -0.02805 -0.12707
 H363 H 0.80327 -0.07368 -0.08944
 H364 H 0.85450 -0.07817 -0.10565
 H365 H 0.80899 -0.02970 -0.14349
 H366 H 0.59013 -0.08108 -0.06542
 H367 H 0.54614 -0.07166 -0.04662
 H368 H 0.65842 0.04267 -0.03195
 H369 H 0.70239 0.03307 -0.05071
 C370 C 0.18731 0.01339 0.10260
 C371 C 0.20779 -0.00971 0.10753
 C372 C 0.19827 -0.03062 0.12179
 C373 C 0.16876 -0.02794 0.13117
 C374 C 0.14861 -0.00413 0.12639
 C375 C 0.15793 0.01616 0.11194
 C376 C 0.23921 -0.01089 0.09799
 C377 C 0.26561 -0.01077 0.08975
 C378 C 0.29648 -0.00960 0.07981
 C379 C 0.32266 -0.00798 0.07109
 C380 C 0.35354 -0.00553 0.06039
 C381 C 0.36783 -0.03564 0.06123
 C382 C 0.39672 -0.03397 0.05050
 C383 C 0.41142 -0.00225 0.03881
 C384 C 0.39754 0.02828 0.03816
 C385 C 0.36866 0.02657 0.04889
 H386 H 0.19432 0.02957 0.09156
 H387 H 0.21401 -0.04853 0.12573
 H388 H 0.16254 -0.04355 0.14229
 H389 H 0.14245 0.03417 0.10785
 H390 H 0.35633 -0.06060 0.07008
 H391 H 0.40719 -0.05770 0.05115
 H392 H 0.40876 0.05307 0.02925
 H393 H 0.35784 0.05004 0.04814
 C394 C 0.78821 0.81951 0.45648
 C395 C 0.78768 0.82771 0.44098
 C396 C 0.81722 0.86777 0.43473
 C397 C 0.84794 0.89929 0.44383
 C398 C 0.85029 0.89158 0.45959
 C399 C 0.81880 0.85088 0.46569
 C400 C 0.75791 0.79457 0.43137
 C401 C 0.73380 0.76694 0.42313
 C402 C 0.70639 0.73482 0.41325
 C403 C 0.68357 0.70768 0.40463
 C404 C 0.65691 0.67574 0.39410
 C405 C 0.67220 0.65121 0.38738
 C406 C 0.64705 0.62138 0.37670
 C407 C 0.60648 0.61600 0.37261
 C408 C 0.59097 0.64012 0.37954
 C409 C 0.61613 0.66993 0.39023
 H410 H 0.76557 0.78838 0.46144
 H411 H 0.81669 0.87470 0.42273
 H412 H 0.86860 0.93003 0.43829
 H413 H 0.81876 0.84126 0.47739
 H414 H 0.70370 0.65547 0.39029
 H415 H 0.65932 0.60283 0.37148
 H416 H 0.55967 0.63618 0.37652
 H417 H 0.60400 0.68874 0.39535
 C418 C -0.03555 0.14280 0.77290
 C419 C -0.00695 0.18588 0.77566
 C420 C 0.02270 0.19642 0.78753
 C421 C 0.02381 0.16390 0.79658
 C422 C -0.00465 0.12046 0.79380
 C423 C -0.03447 0.11032 0.78189
 C424 C -0.00800 0.21895 0.76611
 C425 C -0.00958 0.24570 0.75778
 C426 C -0.01205 0.27602 0.74768
 C427 C -0.01447 0.30118 0.73877
 C428 C -0.01751 0.33047 0.72781
 C429 C 0.01270 0.34884 0.71613
 C430 C 0.00898 0.37599 0.70512
 C431 C -0.02508 0.38497 0.70566
 C432 C -0.05512 0.36679 0.71745
 C433 C -0.05135 0.33961 0.72848
 H434 H -0.05871 0.13428 0.76377
 H435 H 0.04506 0.22969 0.78974
 H436 H 0.04733 0.17269 0.80558
 H437 H -0.05733 0.07724 0.77963
 H438 H 0.03892 0.34189 0.71548
 H439 H 0.03246 0.38985 0.69611
 H440 H -0.08160 0.37335 0.71801
 H441 H -0.07500 0.32544 0.73743
 C442 C 0.87300 0.06859 0.10594
 C443 C 0.83005 0.04521 0.11065
 C444 C 0.82007 0.02364 0.12478
 C445 C 0.85281 0.02464 0.13404
 C446 C 0.89599 0.04714 0.12924
 C447 C 0.90577 0.06959 0.11516
 C448 C 0.79616 0.04160 0.10064
 C449 C 0.76800 0.03791 0.09202
 C450 C 0.73537 0.03304 0.08167
 C451 C 0.70785 0.02861 0.07263
 C452 C 0.67549 0.02321 0.06160
 C453 C 0.63299 -0.01014 0.06347
 C454 C 0.60189 -0.01596 0.05253
 C455 C 0.61309 0.01155 0.03962
 C456 C 0.65569 0.04504 0.03784
 C457 C 0.68673 0.05081 0.04878
 H458 H 0.88109 0.08543 0.09502
 H459 H 0.78691 0.00527 0.12851
 H460 H 0.84417 0.00655 0.14472
 H461 H 0.93873 0.08759 0.11123
 H462 H 0.62399 -0.03176 0.07333
 H463 H 0.56919 -0.04199 0.05405
 H464 H 0.66481 0.06658 0.02796
 H465 H 0.71953 0.07664 0.04720
 C466 C 0.21126 0.16422 0.44365
 C467 C 0.22028 0.20697 0.44311
 C468 C 0.19598 0.21892 0.45178
 C469 C 0.16235 0.18820 0.46077
 C470 C 0.15248 0.14499 0.46119
 C471 C 0.17762 0.13339 0.45267
 C472 C 0.25329 0.23841 0.43325
 C473 C 0.28014 0.26502 0.42484
 C474 C 0.31072 0.29635 0.41480
 C475 C 0.33615 0.32309 0.40604
 C476 C 0.36574 0.35484 0.39537
 C477 C 0.36645 0.39413 0.39303
 C478 C 0.39378 0.42421 0.38217
 C479 C 0.42056 0.41515 0.37355
 C480 C 0.42024 0.37602 0.37607
 C481 C 0.39288 0.34596 0.38692
 H482 H 0.22977 0.15459 0.43693
 H483 H 0.20271 0.25192 0.45146
 H484 H 0.14404 0.19826 0.46739
 H485 H 0.17055 0.10033 0.45266
 H486 H 0.34551 0.40127 0.39948
 H487 H 0.39371 0.45427 0.38033
 H488 H 0.44078 0.36866 0.36949
 H489 H 0.39253 0.31565 0.38861
 C490 C -0.06876 0.74919 0.78777
 C491 C -0.05028 0.76077 0.77338
 C492 C -0.02930 0.80389 0.76839
 C493 C -0.02616 0.83543 0.77781
 C494 C -0.04394 0.82431 0.79240
 C495 C -0.06571 0.78077 0.79723
 C496 C -0.05152 0.72891 0.76377
 C497 C -0.05128 0.70341 0.75544
 C498 C -0.04974 0.67480 0.74540
 C499 C -0.04756 0.65134 0.73659
 C500 C -0.04418 0.62436 0.72582
 C501 C -0.01032 0.64205 0.71540
 C502 C -0.00739 0.61634 0.70465
 C503 C -0.03843 0.57269 0.70419
 C504 C -0.07201 0.55494 0.71478
 C505 C -0.07491 0.58071 0.72554
 H506 H -0.08498 0.71588 0.79175
 H507 H -0.01499 0.81320 0.75726
 H508 H -0.00979 0.86859 0.77369
 H509 H -0.07936 0.77130 0.80845
 H510 H 0.01365 0.67577 0.71553
 H511 H 0.01886 0.63044 0.69661
 H512 H -0.09614 0.52130 0.71458
 H513 H -0.10121 0.56670 0.73355
   
