data_POSCAR
  _audit_creation_date              2014-09-24
  _audit_creation_method            'ToBaCCo'
  _symmetry_space_group_name_H-M    'P1'
  _symmetry_Int_Tables_number       1
  _symmetry_cell_setting            triclinic
  loop_
  _symmetry_equiv_pos_as_xyz
 x,y,z
_cell_length_a 30.8614
_cell_length_b 30.8643
_cell_length_c 30.8822
_cell_angle_alpha 90.027500
_cell_angle_beta 90.028900
_cell_angle_gamma 90.029000
loop_
  _atom_site_label
  _atom_site_type_symbol
  _atom_site_fract_x
  _atom_site_fract_y
  _atom_site_fract_z
O1 O 0.32016 0.38070 0.04129
 O2 O 0.37986 0.32134 -0.04273
 O3 O 0.32006 0.38122 -0.04251
 O4 O 0.38019 0.32123 0.04105
 O5 O 0.32975 0.27031 0.04110
 O6 O 0.26931 0.33062 -0.04276
 O7 O 0.32939 0.27044 -0.04299
 O8 O 0.26943 0.33005 0.04134
 Cu9 Cu 0.35514 0.35622 -0.00074
 Cu10 Cu 0.29434 0.29521 -0.00087
 C11 C 0.28451 0.36573 0.05514
 C12 C 0.36509 0.28559 -0.05661
 C13 C 0.28428 0.36645 -0.05634
 C14 C 0.36546 0.28544 0.05483
 O15 O 0.62019 0.67881 -0.04277
 O16 O 0.67988 0.61937 0.04120
 O17 O 0.62003 0.67902 0.04101
 O18 O 0.67984 0.61878 -0.04260
 O19 O 0.73071 0.66925 -0.04290
 O20 O 0.67061 0.72980 0.04102
 O21 O 0.73075 0.66988 0.04120
 O22 O 0.67079 0.72959 -0.04308
 Cu23 Cu 0.64490 0.64391 -0.00080
 Cu24 Cu 0.70585 0.70476 -0.00099
 C25 C 0.63502 0.71451 -0.05666
 C26 C 0.71560 0.63426 0.05501
 C27 C 0.63488 0.71478 0.05479
 C28 C 0.71563 0.63344 -0.05646
 O29 O 0.62007 0.32139 1.04275
 O30 O 0.67977 0.38083 0.95879
 O31 O 0.61979 0.32130 0.95897
 O32 O 0.67978 0.38138 1.04258
 O33 O 0.73056 0.33087 1.04283
 O34 O 0.67027 0.27046 0.95892
 O35 O 0.73053 0.33027 0.95875
 O36 O 0.67058 0.27059 1.04302
 Cu37 Cu 0.64477 0.35632 1.00079
 Cu38 Cu 0.70562 0.29541 1.00092
 C39 C 0.63487 0.28569 1.05663
 C40 C 0.71543 0.36591 0.94495
 C41 C 0.63457 0.28554 0.94517
 C42 C 0.71555 0.36666 1.05642
 O43 O 0.32035 0.61900 0.95908
 O44 O 0.38026 0.67859 1.04299
 O45 O 0.32050 0.61855 1.04289
 O46 O 0.38036 0.67858 0.95919
 O47 O 0.32988 0.72941 0.95919
 O48 O 0.26971 0.66905 1.04318
 O49 O 0.32974 0.72938 1.04328
 O50 O 0.26959 0.66956 0.95908
 Cu51 Cu 0.35544 0.64359 1.00105
 Cu52 Cu 0.29460 0.70448 1.00123
 C53 C 0.28464 0.63389 0.94527
 C54 C 0.36551 0.71433 1.05685
 C55 C 0.28473 0.63325 1.05674
 C56 C 0.36558 0.71435 0.94541
 O57 O -0.04279 0.37975 0.32072
 O58 O 0.04135 0.32061 0.38047
 O59 O 0.04105 0.38050 0.32077
 O60 O -0.04249 0.32005 0.38055
 O61 O -0.04233 0.26923 0.33005
 O62 O 0.04153 0.32996 0.27000
 O63 O 0.04182 0.26978 0.32996
 O64 O -0.04262 0.32921 0.26992
 Cu65 Cu -0.00075 0.35531 0.35571
 Cu66 Cu -0.00036 0.29441 0.29485
 C67 C -0.05650 0.36483 0.28499
 C68 C 0.05538 0.28496 0.36568
 C69 C 0.05501 0.36580 0.28505
 C70 C -0.05615 0.28421 0.36576
 O71 O 0.04158 0.67885 0.61935
 O72 O -0.04270 0.61990 0.67911
 O73 O -0.04225 0.67936 0.61905
 O74 O 0.04115 0.61910 0.67920
 O75 O 0.04162 0.66978 0.72983
 O76 O -0.04208 0.73033 0.66938
 O77 O -0.04253 0.67060 0.72974
 O78 O 0.04205 0.72982 0.66972
 Cu79 Cu -0.00058 0.64419 0.64411
 Cu80 Cu -0.00020 0.70528 0.70479
 C81 C 0.05562 0.71455 0.63407
 C82 C -0.05646 0.63494 0.71475
 C83 C -0.05587 0.71525 0.63369
 C84 C 0.05508 0.63390 0.71491
 O85 O 1.04264 0.62004 0.32075
 O86 O 0.95858 0.67926 0.38054
 O87 O 0.95881 0.61939 0.32079
 O88 O 1.04240 0.67953 0.38079
 O89 O 1.04235 0.73045 0.33044
 O90 O 0.95845 0.66999 0.27011
 O91 O 0.95822 0.73015 0.33014
 O92 O 1.04259 0.67068 0.27010
 Cu93 Cu 1.00062 0.64445 0.35579
 Cu94 Cu 1.00037 0.70546 0.29507
 C95 C 1.05643 0.63501 0.28510
 C96 C 0.94463 0.71496 0.36580
 C97 C 0.94490 0.63416 0.28509
 C98 C 1.05612 0.71537 0.36612
 O99 O 0.95807 0.32083 0.61888
 O100 O 1.04221 0.37991 0.67897
 O101 O 1.04191 0.32041 0.61885
 O102 O 0.95835 0.38064 0.67878
 O103 O 0.95782 0.32998 0.72939
 O104 O 1.04168 0.26945 0.66915
 O105 O 1.04198 0.32922 0.72956
 O106 O 0.95754 0.26989 0.66922
 Cu107 Cu 1.00016 0.35555 0.64381
 Cu108 Cu 0.99970 0.29450 0.70444
 C109 C 0.94402 0.28512 0.63353
 C110 C 1.05591 0.36490 0.71465
 C111 C 1.05552 0.28453 0.63350
 C112 C 0.94438 0.36586 0.71445
 O113 O 0.38003 0.04240 0.32097
 O114 O 0.32040 -0.04185 0.38024
 O115 O 0.38062 -0.04144 0.32096
 O116 O 0.32042 0.04199 0.38096
 O117 O 0.26965 0.04213 0.33040
 O118 O 0.33022 -0.04160 0.27003
 O119 O 0.26972 -0.04201 0.32959
 O120 O 0.32953 0.04255 0.27012
 Cu121 Cu 0.35545 0.00029 0.35588
 Cu122 Cu 0.29466 0.00028 0.29489
 C123 C 0.36520 0.05628 0.28528
 C124 C 0.28476 -0.05577 0.36525
 C125 C 0.36596 -0.05524 0.28515
 C126 C 0.28464 0.05575 0.36620
 O127 O 0.67973 -0.04203 0.61992
 O128 O 0.61995 0.04217 0.67913
 O129 O 0.67941 0.04180 0.61898
 O130 O 0.61950 -0.04167 0.67919
 O131 O 0.66995 -0.04150 0.73008
 O132 O 0.73026 0.04225 0.66946
 O133 O 0.67053 0.04264 0.72989
 O134 O 0.73047 -0.04188 0.67053
 Cu135 Cu 0.64457 0.00005 0.64422
 Cu136 Cu 0.70543 0.00043 0.70512
 C137 C 0.71543 -0.05579 0.63491
 C138 C 0.63480 0.05620 0.71477
 C139 C 0.71519 0.05571 0.63364
 C140 C 0.63423 -0.05532 0.71501
 O141 O 0.37972 0.95781 0.67954
 O142 O 0.31990 1.04177 0.62006
 O143 O 0.38013 1.04164 0.67935
 O144 O 0.32021 0.95794 0.61943
 O145 O 0.26940 0.95768 0.66991
 O146 O 0.32972 1.04168 0.73023
 O147 O 0.26921 1.04183 0.67066
 O148 O 0.32919 0.95754 0.73030
 Cu149 Cu 0.35507 0.99979 0.64450
 Cu150 Cu 0.29425 0.99966 0.70541
 C151 C 0.36490 0.94391 0.71521
 C152 C 0.28423 1.05562 0.63501
 C153 C 0.36542 1.05543 0.71511
 C154 C 0.28446 0.94407 0.63416
 O155 O 0.62055 0.95852 0.32102
 O156 O 0.68036 1.04253 0.38070
 O157 O 0.62009 1.04236 0.32133
 O158 O 0.68010 0.95867 0.38114
 O159 O 0.73090 0.95854 0.33066
 O160 O 0.67051 1.04252 0.27047
 O161 O 0.73106 1.04271 0.33013
 O162 O 0.67108 0.95838 0.27026
 Cu163 Cu 0.64521 1.00051 0.35613
 Cu164 Cu 0.70601 1.00054 0.29526
 C165 C 0.63537 0.94467 0.28531
 C166 C 0.71606 1.05643 0.36583
 C167 C 0.63477 1.05617 0.28556
 C168 C 0.71586 0.94485 0.36639
 O169 O 0.82151 0.87993 0.54298
 O170 O 0.88105 0.82039 0.45893
 O171 O 0.82164 0.88048 0.45921
 O172 O 0.88154 0.82026 0.54273
 O173 O 0.83096 0.76948 0.54274
 O174 O 0.77072 0.83004 0.45892
 O175 O 0.83040 0.76966 0.45864
 O176 O 0.77065 0.82942 0.54299
 Cu177 Cu 0.85653 0.85534 0.50101
 Cu178 Cu 0.79554 0.79452 0.50084
 C179 C 0.78575 0.86511 0.55673
 C180 C 0.86610 0.78475 0.44496
 C181 C 0.78585 0.86579 0.44532
 C182 C 0.86677 0.78445 0.55642
 O183 O 0.17837 0.11992 0.54280
 O184 O 0.11898 0.17954 0.45871
 O185 O 0.17855 0.11961 0.45902
 O186 O 0.11835 0.17961 0.54251
 O187 O 0.16888 0.23044 0.54284
 O188 O 0.22939 0.17013 0.45905
 O189 O 0.16955 0.23034 0.45874
 O190 O 0.22918 0.17047 0.54313
 Cu191 Cu 0.14347 0.14459 0.50078
 Cu192 Cu 0.20438 0.20548 0.50099
 C193 C 0.21408 0.13474 0.55671
 C194 C 0.13391 0.21521 0.44488
 C195 C 0.21434 0.13440 0.44529
 C196 C 0.13306 0.21541 0.55635
 O197 O 0.11929 0.81998 0.54110
 O198 O 0.17887 0.87979 0.45729
 O199 O 0.11884 0.82011 0.45731
 O200 O 0.17876 0.88002 0.54106
 O201 O 0.22963 0.82958 0.54115
 O202 O 0.16938 0.76933 0.45709
 O203 O 0.22969 0.82929 0.45707
 O204 O 0.16989 0.76925 0.54119
 Cu205 Cu 0.14384 0.85505 0.49917
 Cu206 Cu 0.20479 0.79423 0.49909
 C207 C 0.13421 0.78431 0.55494
 C208 C 0.21461 0.86501 0.44346
 C209 C 0.13360 0.78435 0.44347
 C210 C 0.21451 0.86526 0.55490
 O211 O 0.82088 0.11945 0.45654
 O212 O 0.88045 0.17947 0.54040
 O213 O 0.82095 0.11942 0.54035
 O214 O 0.88094 0.17923 0.45660
 O215 O 0.83040 0.22999 0.45627
 O216 O 0.77008 0.16986 0.54031
 O217 O 0.82986 0.23019 0.54036
 O218 O 0.77005 0.16993 0.45620
 Cu219 Cu 0.85589 0.14432 0.49845
 Cu220 Cu 0.79496 0.20511 0.49822
 C221 C 0.78512 0.13416 0.44268
 C222 C 0.86553 0.21517 0.55419
 C223 C 0.78519 0.13420 0.55414
 C224 C 0.86623 0.21498 0.44274
 O225 O 0.45767 0.87992 0.82088
 O226 O 0.54189 0.82025 0.88015
 O227 O 0.54152 0.88043 0.82087
 O228 O 0.45803 0.82033 0.88091
 O229 O 0.45773 0.76954 0.83038
 O230 O 0.54151 0.83001 0.76996
 O231 O 0.54188 0.76954 0.82952
 O232 O 0.45736 0.82941 0.77006
 Cu233 Cu 0.49977 0.85531 0.85580
 Cu234 Cu 0.49958 0.79450 0.79484
 C235 C 0.44372 0.86510 0.78519
 C236 C 0.55574 0.78460 0.86516
 C237 C 0.55526 0.86573 0.78507
 C238 C 0.44419 0.78455 0.86618
 O239 O 0.54197 0.17994 0.12021
 O240 O 0.45790 0.12027 0.17967
 O241 O 0.45812 0.17971 0.11950
 O242 O 0.54176 0.11999 0.17974
 O243 O 0.54175 0.17057 0.23049
 O244 O 0.45781 0.23064 0.16989
 O245 O 0.45758 0.17092 0.23035
 O246 O 0.54196 0.23080 0.17068
 Cu247 Cu 0.49994 0.14488 0.14471
 Cu248 Cu 0.49974 0.20587 0.20548
 C249 C 0.55579 0.21567 0.13508
 C250 C 0.44396 0.13517 0.21531
 C251 C 0.44425 0.21550 0.13413
 C252 C 0.55553 0.13484 0.21548
 O253 O 0.54217 0.12020 0.82047
 O254 O 0.45818 0.17991 0.88000
 O255 O 0.45833 0.11975 0.82068
 O256 O 0.54202 0.17970 0.88061
 O257 O 0.54222 0.23052 0.83016
 O258 O 0.45823 0.17018 0.76984
 O259 O 0.45807 0.23063 0.82943
 O260 O 0.54238 0.17075 0.76973
 Cu261 Cu 0.50019 0.14480 0.85553
 Cu262 Cu 0.50025 0.20565 0.79466
 C263 C 0.55603 0.13504 0.78478
 C264 C 0.44430 0.21557 0.86508
 C265 C 0.44451 0.13448 0.78494
 C266 C 0.55584 0.21547 0.86591
 O267 O 0.45861 0.82039 0.12006
 O268 O 0.54269 0.88040 0.17944
 O269 O 0.54248 0.82075 0.11936
 O270 O 0.45883 0.88063 0.17939
 O271 O 0.45892 0.83025 0.23028
 O272 O 0.54284 0.76999 0.16988
 O273 O 0.54308 0.82992 0.23024
 O274 O 0.45868 0.76973 0.17068
 Cu275 Cu 0.50066 0.85561 0.14447
 Cu276 Cu 0.50093 0.79485 0.20540
 C277 C 0.44482 0.78470 0.13502
 C278 C 0.55665 0.86565 0.21514
 C279 C 0.55636 0.78501 0.13407
 C280 C 0.44511 0.86592 0.21517
 O281 O 0.82086 0.45843 0.88043
 O282 O 0.87989 0.54264 0.82066
 O283 O 0.82044 0.54226 0.88077
 O284 O 0.88051 0.45880 0.82051
 O285 O 0.82976 0.45843 0.76993
 O286 O 0.76941 0.54220 0.83047
 O287 O 0.82913 0.54257 0.77007
 O288 O 0.76983 0.45807 0.83012
 Cu289 Cu 0.85554 0.50055 0.85565
 Cu290 Cu 0.79438 0.50030 0.79503
 C291 C 0.78513 0.44445 0.86574
 C292 C 0.86484 0.55642 0.78503
 C293 C 0.78455 0.55593 0.86616
 C294 C 0.86564 0.44490 0.78482
 O295 O 0.12007 0.54260 0.17920
 O296 O 0.17910 0.45833 0.11951
 O297 O 0.11928 0.45876 0.17925
 O298 O 0.17968 0.54216 0.11925
 O299 O 0.23058 0.54206 0.16967
 O300 O 0.16988 0.45834 0.22997
 O301 O 0.23000 0.45792 0.16995
 O302 O 0.17070 0.54248 0.22992
 Cu303 Cu 0.14443 0.50049 0.14423
 Cu304 Cu 0.20543 0.50017 0.20501
 C305 C 0.13505 0.55636 0.21488
 C306 C 0.21477 0.44431 0.13428
 C307 C 0.13402 0.44485 0.21497
 C308 C 0.21555 0.55580 0.13396
 O309 O 0.82098 0.54159 0.11938
 O310 O 0.88001 0.45739 0.17914
 O311 O 0.82050 0.45777 0.11909
 O312 O 0.88075 0.54123 0.17919
 O313 O 0.83011 0.54164 0.22983
 O314 O 0.76955 0.45787 0.16942
 O315 O 0.82934 0.45749 0.22977
 O316 O 0.77005 0.54199 0.16974
 Cu317 Cu 0.85567 0.49947 0.14413
 Cu318 Cu 0.79462 0.49978 0.20481
 C319 C 0.78530 0.55560 0.13411
 C320 C 0.86499 0.44361 0.21478
 C321 C 0.78463 0.44412 0.13374
 C322 C 0.86596 0.55516 0.21488
 O323 O 0.17893 0.54131 0.88080
 O324 O 0.11968 0.45717 0.82089
 O325 O 0.17924 0.45747 0.88100
 O326 O 0.11911 0.54102 0.82095
 O327 O 0.16976 0.54139 0.77032
 O328 O 0.23018 0.45754 0.83066
 O329 O 0.17035 0.45724 0.77027
 O330 O 0.22985 0.54167 0.83044
 Cu331 Cu 0.14414 0.49922 0.85597
 Cu332 Cu 0.20517 0.49948 0.79531
 C333 C 0.21465 0.55528 0.86611
 C334 C 0.13464 0.44341 0.78521
 C335 C 0.21510 0.44380 0.86635
 C336 C 0.13391 0.55493 0.78525
 C337 C 0.25993 0.39095 0.08534
 C338 C 0.23924 0.41424 0.10881
 C339 C 0.74017 0.60900 0.08518
 C340 C 0.76085 0.58568 0.10864
 C341 C 0.73999 0.39113 0.91474
 C342 C 0.76067 0.41440 0.89125
 C343 C 0.25998 0.60860 0.91511
 C344 C 0.23921 0.58531 0.89164
 C345 C 0.08542 0.26045 0.39117
 C346 C 0.10869 0.23976 0.41466
 C347 C 0.08568 0.73902 0.60857
 C348 C 0.10896 0.75972 0.58510
 C349 C 0.91462 0.73949 0.39129
 C350 C 0.89135 0.76021 0.41476
 C351 C 0.91403 0.26060 0.60791
 C352 C 0.89078 0.23984 0.58439
 C353 C 0.39058 0.08640 0.26071
 C354 C 0.41391 0.10977 0.23993
 C355 C 0.60939 0.08629 0.73934
 C356 C 0.58606 0.10964 0.76013
 C357 C 0.39030 0.91386 0.73982
 C358 C 0.41365 0.89051 0.76061
 C359 C 0.60998 0.91458 0.26062
 C360 C 0.58667 0.89117 0.23978
 C361 C 0.39060 0.26096 0.91347
 C362 C 0.41409 0.24017 0.89028
 C363 C 0.60951 0.73917 0.91345
 C364 C 0.58600 0.75998 0.89029
 C365 C 0.39109 0.73907 0.08671
 C366 C 0.41460 0.75996 0.10986
 C367 C 0.60941 0.26107 0.08660
 C368 C 0.58596 0.24028 0.10984
 C369 C 0.25957 0.08579 0.60982
 C370 C 0.23875 0.10926 0.58663
 C371 C 0.73946 0.08493 0.38977
 C372 C 0.76036 0.10851 0.41287
 C373 C 0.74013 0.91402 0.60977
 C374 C 0.76102 0.89057 0.58662
 C375 C 0.26012 0.91400 0.39042
 C376 C 0.23930 0.89052 0.41358
 C377 C 0.08600 0.39010 0.73947
 C378 C 0.10934 0.41337 0.76042
 C379 C 0.08652 0.60977 0.26041
 C380 C 0.10983 0.58646 0.23957
 C381 C 0.91344 0.39011 0.26029
 C382 C 0.89017 0.41347 0.23946
 C383 C 0.91341 0.60977 0.73945
 C384 C 0.89007 0.58649 0.76031
 C385 C 0.73901 0.60920 0.91522
 C386 C 0.75982 0.58588 0.89176
 C387 C 0.26079 0.39061 0.91536
 C388 C 0.23989 0.41387 0.89192
 C389 C 0.26129 0.60904 0.08504
 C390 C 0.24040 0.58574 0.10845
 C391 C 0.73898 0.39086 0.08475
 C392 C 0.75985 0.41416 0.10819
 C393 C 0.91580 0.73872 0.60954
 C394 C 0.89233 0.75961 0.58630
 C395 C 0.91544 0.26069 0.38977
 C396 C 0.89189 0.23977 0.41291
 C397 C 0.08390 0.26106 0.60941
 C398 C 0.10741 0.24018 0.58621
 C399 C 0.08451 0.73879 0.39025
 C400 C 0.10802 0.75962 0.41351
 C401 C 0.60874 0.91465 0.73970
 C402 C 0.58532 0.89125 0.76044
 C403 C 0.39154 0.91475 0.26052
 C404 C 0.41500 0.89138 0.23980
 C405 C 0.60918 0.08616 0.26092
 C406 C 0.58568 0.10947 0.24017
 C407 C 0.39092 0.08555 0.73969
 C408 C 0.41437 0.10899 0.76036
 C409 C 0.60953 0.73949 0.08494
 C410 C 0.58628 0.76029 0.10845
 C411 C 0.39094 0.26083 0.08496
 C412 C 0.41428 0.24011 0.10847
 C413 C 0.60915 0.26090 0.91500
 C414 C 0.58583 0.24015 0.89149
 C415 C 0.39098 0.73901 0.91527
 C416 C 0.41427 0.75981 0.89178
 C417 C 0.74052 0.91478 0.39187
 C418 C 0.76125 0.89135 0.41527
 C419 C 0.25981 0.91405 0.60860
 C420 C 0.23910 0.89069 0.58509
 C421 C 0.25987 0.08567 0.39176
 C422 C 0.23904 0.10897 0.41521
 C423 C 0.73986 0.08560 0.60795
 C424 C 0.76059 0.10886 0.58437
 C425 C 0.91488 0.60861 0.26038
 C426 C 0.89149 0.58519 0.23958
 C427 C 0.91443 0.39146 0.73918
 C428 C 0.89111 0.41487 0.76004
 C429 C 0.08503 0.60833 0.73967
 C430 C 0.10839 0.58494 0.76052
 C431 C 0.08502 0.39143 0.26042
 C432 C 0.10843 0.41484 0.23965
   
