data_POSCAR
  _audit_creation_date              2014-09-24
  _audit_creation_method            'ToBaCCo'
  _symmetry_space_group_name_H-M    'P1'
  _symmetry_Int_Tables_number       1
  _symmetry_cell_setting            triclinic
  loop_
  _symmetry_equiv_pos_as_xyz
 x,y,z
_cell_length_a 45.4364
_cell_length_b 45.7811
_cell_length_c 45.3659
_cell_angle_alpha 90.220400
_cell_angle_beta 89.992700
_cell_angle_gamma 89.938600
loop_
  _atom_site_label
  _atom_site_type_symbol
  _atom_site_fract_x
  _atom_site_fract_y
  _atom_site_fract_z
C1 C 1.21104 0.26247 0.29550
 H2 H 1.21105 0.23895 0.29766
 C3 C 1.19409 0.27957 0.31463
 H4 H 1.18136 0.26890 0.33163
 C5 C 1.22875 0.30476 0.27147
 H6 H 1.24269 0.31467 0.25508
 C7 C 1.21188 0.32266 0.28988
 H8 H 1.21251 0.34606 0.28663
 N9 N 1.22765 0.27520 0.27419
 C10 C 1.23919 0.21030 0.20418
 H11 H 1.26289 0.21091 0.20196
 C12 C 1.22258 0.19224 0.18575
 H13 H 1.23372 0.17874 0.16957
 C14 C 1.19606 0.22692 0.22837
 H15 H 1.18577 0.24071 0.24476
 C16 C 1.17859 0.20911 0.21044
 H17 H 1.15492 0.20947 0.21320
 Zn18 Zn 1.25038 0.25026 0.24946
 N19 N 1.22583 0.22687 0.22524
 C20 C 1.27386 0.19687 0.27114
 N21 N 1.27370 0.22636 0.27419
 C22 C 1.29019 0.23974 0.29519
 C23 C 1.30823 0.22342 0.31385
 C24 C 1.29189 0.17967 0.28894
 C25 C 1.26279 0.29142 0.20516
 C26 C 1.28049 0.30814 0.18656
 C27 C 1.32312 0.28304 0.20570
 C28 C 1.30467 0.26738 0.22447
 N29 N 1.27513 0.27212 0.22421
 H30 H 1.25993 0.18650 0.25493
 H31 H 1.28964 0.26329 0.29714
 H32 H 1.32187 0.23553 0.32908
 H33 H 1.29018 0.15629 0.28610
 H34 H 1.23915 0.29423 0.20483
 H35 H 1.27011 0.32430 0.17268
 H36 H 1.34646 0.27834 0.20601
 H37 H 1.31400 0.25118 0.23898
 C38 C 1.19185 0.19133 0.18888
 C39 C 1.19413 0.31016 0.31184
 C40 C 1.31122 0.30419 0.18669
 C41 C 1.30992 0.19261 0.31091
 C42 C 0.70931 -0.24152 0.29645
 H43 H 0.70933 -0.26514 0.29729
 C44 C 0.69100 -0.22555 0.31527
 H45 H 0.67703 -0.23696 0.33074
 C46 C 0.72783 -0.19791 0.27547
 H47 H 0.74229 -0.18718 0.26006
 C48 C 0.71013 -0.18109 0.29407
 H49 H 0.71084 -0.15751 0.29247
 N50 N 0.72673 -0.22757 0.27661
 C51 C 0.73845 -0.28721 0.20255
 H52 H 0.76210 -0.28641 0.19991
 C53 C 0.72138 -0.30344 0.18283
 H54 H 0.73213 -0.31490 0.16490
 C55 C 0.69578 -0.27224 0.22855
 H56 H 0.68573 -0.25975 0.24606
 C57 C 0.67791 -0.28838 0.20955
 H58 H 0.65440 -0.28865 0.21333
 Zn59 Zn 0.74998 -0.25047 0.25074
 N60 N 0.72551 -0.27233 0.22508
 C61 C 0.77426 -0.30485 0.26902
 N62 N 0.77349 -0.27555 0.27405
 C63 C 0.78869 -0.26332 0.29675
 C64 C 0.80577 -0.28069 0.31533
 C65 C 0.79129 -0.32301 0.28690
 C66 C 0.76014 -0.20913 0.20674
 C67 C 0.77648 -0.19075 0.18854
 C68 C 0.82083 -0.20789 0.21227
 C69 C 0.80363 -0.22602 0.22998
 N70 N 0.77384 -0.22608 0.22713
 H71 H 0.76172 -0.31424 0.25115
 H72 H 0.78732 -0.24001 0.30054
 H73 H 0.81724 -0.27049 0.33357
 H74 H 0.79208 -0.34616 0.28207
 H75 H 0.73642 -0.20982 0.20478
 H76 H 0.76512 -0.17705 0.17279
 H77 H 0.84453 -0.20826 0.21471
 H78 H 0.81414 -0.24004 0.24593
 C79 C 0.69065 -0.30437 0.18633
 C80 C 0.69118 -0.19493 0.31406
 C81 C 0.80725 -0.18987 0.19125
 C82 C 0.80736 -0.31100 0.31050
 C83 C 0.71029 0.25887 -0.20396
 H84 H 0.71072 0.23528 -0.20277
 C85 C 0.69230 0.27484 -0.18483
 H86 H 0.67898 0.26343 -0.16879
 C87 C 0.72752 0.30244 -0.22610
 H88 H 0.74130 0.31312 -0.24218
 C89 C 0.71010 0.31927 -0.20721
 H90 H 0.71037 0.34283 -0.20918
 N91 N 0.72700 0.27279 -0.22443
 C92 C 0.73833 0.21362 -0.29897
 H93 H 0.76190 0.21486 -0.30212
 C94 C 0.72113 0.19721 -0.31844
 H95 H 0.73170 0.18611 -0.33670
 C96 C 0.69600 0.22750 -0.27186
 H97 H 0.68612 0.23955 -0.25394
 C98 C 0.67802 0.21116 -0.29059
 H99 H 0.65461 0.21035 -0.28623
 Zn100 Zn 0.75022 0.24989 -0.25033
 N101 N 0.72564 0.22806 -0.27601
 C102 C 0.77462 0.19537 -0.23280
 N103 N 0.77358 0.22455 -0.22703
 C104 C 0.78820 0.23626 -0.20366
 C105 C 0.80491 0.21847 -0.18512
 C106 C 0.79132 0.17684 -0.21500
 C107 C 0.76121 0.28966 -0.29571
 C108 C 0.77775 0.30794 -0.31387
 C109 C 0.82111 0.29462 -0.28627
 C110 C 0.80370 0.27631 -0.26897
 N111 N 0.77429 0.27440 -0.27373
 H112 H 0.76242 0.18635 -0.25110
 H113 H 0.78674 0.25948 -0.19936
 H114 H 0.81659 0.22820 -0.16674
 H115 H 0.79180 0.15366 -0.21983
 H116 H 0.73769 0.28781 -0.29898
 H117 H 0.76573 0.32045 -0.33003
 H118 H 0.84450 0.29423 -0.28207
 H119 H 0.81384 0.26351 -0.25178
 C120 C 0.69051 0.19559 -0.31423
 C121 C 0.69199 0.30545 -0.18643
 C122 C 0.80849 0.31114 -0.30948
 C123 C 0.80667 0.18834 -0.19076
 C124 C 1.21484 -0.23683 -0.20393
 H125 H 1.21683 -0.26005 -0.20004
 C126 C 1.19746 -0.21966 -0.18530
 H127 H 1.18639 -0.22989 -0.16692
 C128 C 1.22790 -0.19534 -0.23206
 H129 H 1.23996 -0.18589 -0.25018
 C130 C 1.21055 -0.17738 -0.21415
 H131 H 1.20907 -0.15433 -0.21915
 N132 N 1.22950 -0.22454 -0.22687
 C133 C 1.24272 -0.29004 -0.29566
 H134 H 1.26636 -0.28888 -0.29828
 C135 C 1.22621 -0.30849 -0.31381
 H136 H 1.23737 -0.32176 -0.33016
 C137 C 1.19961 -0.27432 -0.27083
 H138 H 1.18928 -0.26075 -0.25427
 C139 C 1.18226 -0.29251 -0.28845
 H140 H 1.15863 -0.29261 -0.28532
 Zn141 Zn 1.25318 -0.24924 -0.25066
 N142 N 1.22931 -0.27368 -0.27447
 C143 C 1.27741 -0.30172 -0.22809
 N144 N 1.27691 -0.27214 -0.22532
 C145 C 1.29304 -0.25830 -0.20423
 C146 C 1.31142 -0.27425 -0.18556
 C147 C 1.29550 -0.31849 -0.20996
 C148 C 1.26410 -0.21268 -0.29889
 C149 C 1.28086 -0.19608 -0.31843
 C150 C 1.32441 -0.20904 -0.29087
 C151 C 1.30685 -0.22558 -0.27203
 N152 N 1.27722 -0.22678 -0.27606
 H153 H 1.26389 -0.31244 -0.24442
 H154 H 1.29192 -0.23477 -0.20222
 H155 H 1.32466 -0.26281 -0.16939
 H156 H 1.29561 -0.34202 -0.21253
 H157 H 1.24055 -0.21442 -0.30191
 H158 H 1.26998 -0.18530 -0.33662
 H159 H 1.34782 -0.20777 -0.28670
 H160 H 1.31701 -0.23731 -0.25413
 C161 C 1.19555 -0.31002 -0.31021
 C162 C 1.19499 -0.18947 -0.19035
 C163 C 1.31147 -0.19392 -0.31446
 C164 C 1.31305 -0.30475 -0.18855
 C165 C 0.26762 0.22397 0.69718
 H166 H 0.24838 0.23468 0.68827
 C167 C 0.28577 0.20750 0.67864
 H168 H 0.28008 0.20546 0.65556
 C169 C 0.29773 0.21283 0.73830
 H170 H 0.30220 0.21515 0.76162
 C171 C 0.31658 0.19634 0.72054
 H172 H 0.33576 0.18628 0.73039
 N173 N 0.27389 0.22630 0.72639
 C174 C 0.20461 0.23579 0.79213
 H175 H 0.20237 0.25929 0.79350
 C176 C 0.18687 0.21801 0.80959
 H177 H 0.17218 0.22878 0.82487
 C178 C 0.22799 0.19448 0.77129
 H179 H 0.24387 0.18535 0.75610
 C180 C 0.21057 0.17579 0.78816
 H181 H 0.21318 0.15260 0.78454
 Zn182 Zn 0.24952 0.24896 0.75122
 N183 N 0.22499 0.22390 0.77377
 C184 C 0.19657 0.26964 0.72539
 N185 N 0.22610 0.27409 0.72756
 C186 C 0.23952 0.29577 0.71216
 C187 C 0.22313 0.31422 0.69403
 C188 C 0.17934 0.28758 0.70750
 C189 C 0.26884 0.27360 0.80588
 C190 C 0.28726 0.29019 0.82398
 C191 C 0.31726 0.30112 0.78153
 C192 C 0.29810 0.28455 0.76420
 N193 N 0.27420 0.27146 0.77643
 H194 H 0.18631 0.25192 0.73718
 H195 H 0.26304 0.29860 0.71363
 H196 H 0.23432 0.33106 0.68166
 H197 H 0.15584 0.28384 0.70634
 H198 H 0.25029 0.26259 0.81555
 H199 H 0.28204 0.29219 0.84718
 H200 H 0.33634 0.31096 0.77133
 H201 H 0.30266 0.28168 0.74098
 C202 C 0.18956 0.18725 0.80811
 C203 C 0.31070 0.19345 0.69025
 C204 C 0.31183 0.30433 0.81186
 C205 C 0.19260 0.31023 0.69150
 C206 C 0.75741 0.70907 0.70550
 H207 H 0.73369 0.70926 0.70349
 C208 C 0.77422 0.69088 0.68733
 H209 H 0.76323 0.67684 0.67155
 C210 C 0.80044 0.72696 0.72889
 H211 H 0.81059 0.74129 0.74488
 C212 C 0.81809 0.70903 0.71125
 H213 H 0.84177 0.70984 0.71380
 N214 N 0.77066 0.72642 0.72595
 C215 C 0.70506 0.74045 0.79474
 H216 H 0.70396 0.76405 0.79537
 C217 C 0.68742 0.72400 0.81362
 H218 H 0.67342 0.73559 0.82900
 C219 C 0.72621 0.69750 0.77476
 H220 H 0.74138 0.68720 0.75962
 C221 C 0.70944 0.68018 0.79360
 H222 H 0.71154 0.65674 0.79149
 Zn223 Zn 0.74625 0.75040 0.74969
 N224 N 0.72344 0.72703 0.77532
 C225 C 0.69186 0.77197 0.72740
 N226 N 0.72161 0.77212 0.72414
 C227 C 0.73462 0.78719 0.70191
 C228 C 0.71762 0.80359 0.68237
 C229 C 0.67405 0.78833 0.70860
 C230 C 0.78455 0.76344 0.79599
 C231 C 0.80161 0.78079 0.81470
 C232 C 0.78704 0.82312 0.78661
 C233 C 0.77002 0.80497 0.76860
 N234 N 0.76934 0.77566 0.77337
 H235 H 0.68174 0.75931 0.74464
 H236 H 0.75829 0.78644 0.69939
 H237 H 0.72846 0.81519 0.66470
 H238 H 0.65052 0.78858 0.71230
 H239 H 0.78327 0.74012 0.79956
 H240 H 0.81312 0.77057 0.83283
 H241 H 0.78781 0.84627 0.78194
 H242 H 0.75748 0.81436 0.75078
 C243 C 0.68924 0.69321 0.81334
 C244 C 0.80499 0.69059 0.69020
 C245 C 0.80319 0.81110 0.81006
 C246 C 0.68687 0.80457 0.68576
 C247 C 0.76131 0.20923 0.20672
 H248 H 0.73755 0.20886 0.20521
 C249 C 0.77812 0.19105 0.18857
 H250 H 0.76709 0.17647 0.17332
 C251 C 0.80440 0.22855 0.22880
 H252 H 0.81456 0.24348 0.24422
 C253 C 0.82208 0.21063 0.21113
 H254 H 0.84578 0.21199 0.21313
 N255 N 0.77458 0.22728 0.22652
 C256 C 0.70747 0.24127 0.29361
 H257 H 0.70586 0.26485 0.29327
 C258 C 0.68950 0.22514 0.31244
 H259 H 0.67420 0.23646 0.32679
 C260 C 0.72978 0.19794 0.27551
 H261 H 0.74563 0.18744 0.26123
 C262 C 0.71236 0.18097 0.29411
 H263 H 0.71465 0.15743 0.29358
 Zn264 Zn 0.74961 0.25098 0.24992
 N265 N 0.72676 0.22750 0.27531
 C266 C 0.69526 0.26563 0.22339
 N267 N 0.72455 0.27163 0.22391
 C268 C 0.73649 0.29143 0.20515
 C269 C 0.71850 0.30760 0.18633
 C270 C 0.67655 0.28073 0.20441
 C271 C 0.78883 0.26474 0.29537
 C272 C 0.80533 0.28241 0.31432
 C273 C 0.78611 0.32486 0.28936
 C274 C 0.76966 0.30639 0.27118
 N275 N 0.77171 0.27688 0.27408
 H276 H 0.68631 0.24887 0.23747
 H277 H 0.76000 0.29515 0.20533
 H278 H 0.72846 0.32426 0.17277
 H279 H 0.65342 0.27517 0.20419
 H280 H 0.78967 0.24123 0.29758
 H281 H 0.81912 0.27239 0.33092
 H282 H 0.78433 0.34829 0.28670
 H283 H 0.75514 0.31581 0.25499
 C284 C 0.69173 0.19456 0.31272
 C285 C 0.80893 0.19151 0.19073
 C286 C 0.80425 0.31288 0.31122
 C287 C 0.68795 0.30255 0.18590
 C288 C 0.26303 0.71356 0.20316
 H289 H 0.23954 0.71481 0.19947
 C290 C 0.28071 0.69723 0.18402
 H291 H 0.27065 0.68564 0.16578
 C292 C 0.30467 0.72710 0.23152
 H293 H 0.31402 0.73908 0.24978
 C294 C 0.32311 0.71083 0.21311
 H295 H 0.34655 0.71044 0.21744
 N296 N 0.27517 0.72789 0.22648
 C297 C 0.21088 0.73729 0.29709
 H298 H 0.21204 0.76060 0.30092
 C299 C 0.19374 0.71979 0.31550
 H300 H 0.18204 0.72991 0.33364
 C301 C 0.22583 0.69589 0.26942
 H302 H 0.23854 0.68660 0.25158
 C303 C 0.20874 0.67762 0.28709
 H304 H 0.20812 0.65448 0.28214
 Zn305 Zn 0.24998 0.75016 0.25112
 N306 N 0.22641 0.72518 0.27453
 C307 C 0.19619 0.77297 0.22883
 N308 N 0.22602 0.77357 0.22643
 C309 C 0.23955 0.79033 0.20578
 C310 C 0.22301 0.80814 0.18713
 C311 C 0.17877 0.79026 0.21044
 C312 C 0.28764 0.76123 0.29908
 C313 C 0.30536 0.77786 0.31790
 C314 C 0.29139 0.82087 0.29070
 C315 C 0.27368 0.80342 0.27277
 N316 N 0.27264 0.77409 0.27674
 H317 H 0.18582 0.75916 0.24504
 H318 H 0.26329 0.78996 0.20396
 H319 H 0.23416 0.82137 0.17086
 H320 H 0.15508 0.78987 0.21295
 H321 H 0.28629 0.73781 0.30192
 H322 H 0.31793 0.76606 0.33420
 H323 H 0.29042 0.84414 0.28696
 H324 H 0.26078 0.81352 0.25564
 C325 C 0.19239 0.68947 0.31058
 C326 C 0.31116 0.69560 0.18903
 C327 C 0.30823 0.80842 0.31377
 C328 C 0.19220 0.80831 0.18940
 N329 N 1.02954 -0.03339 -0.05268
 N330 N 1.04903 -0.03970 -0.07335
 N331 N 0.96775 -0.05306 -0.03150
 N332 N 0.94819 -0.07351 -0.03753
 N333 N 0.96761 -0.03287 -0.05198
 N334 N 0.94783 -0.03901 -0.07240
 N335 N 1.02949 -0.05361 -0.03223
 N336 N 1.04885 -0.07422 -0.03850
 C337 C 1.06115 -0.06510 -0.06404
 C338 C 0.93563 -0.06428 -0.06291
 N339 N 0.96901 -0.03239 0.05265
 N340 N 0.94980 -0.03835 0.07360
 N341 N 1.03028 -0.05332 0.03136
 N342 N 1.04939 -0.07417 0.03746
 N343 N 1.03085 -0.03292 0.05178
 N344 N 1.05042 -0.03938 0.07228
 N345 N 0.96850 -0.05270 0.03212
 N346 N 0.94893 -0.07297 0.03859
 Mn347 Mn 0.99899 -0.05341 -0.00006
 C348 C 0.93716 -0.06356 0.06437
 C349 C 1.06209 -0.06502 0.06286
 N350 N 0.96805 0.03014 -0.05206
 N351 N 0.94848 0.03646 -0.07259
 N352 N 1.03019 0.05008 -0.03232
 N353 N 1.04944 0.07059 -0.03889
 N354 N 1.02994 0.02969 -0.05276
 N355 N 1.04912 0.03580 -0.07373
 N356 N 0.96846 0.05054 -0.03163
 N357 N 0.94931 0.07133 -0.03784
 Mn358 Mn 0.99879 -0.00161 -0.05264
 C359 C 0.93670 0.06207 -0.06326
 C360 C 1.06138 0.06123 -0.06459
 N361 N 1.03124 0.03022 0.05177
 N362 N 1.05062 0.03671 0.07246
 N363 N 0.96922 0.05077 0.03204
 N364 N 0.95009 0.07153 0.03857
 N365 N 0.96946 0.03068 0.05262
 N366 N 0.95052 0.03729 0.07369
 N367 N 1.03104 0.05039 0.03126
 N368 N 1.05032 0.07107 0.03746
 Mn369 Mn 1.00016 -0.00111 0.05246
 Mn370 Mn 0.99972 0.05067 -0.00016
 Cl371 Cl 0.99942 -0.00136 -0.00010
 C372 C 1.06266 0.06207 0.06304
 C373 C 0.93832 0.06266 0.06446
 N374 N 0.96914 0.53175 0.44955
 N375 N 0.94968 0.53805 0.42891
 N376 N 1.03106 0.55170 0.46991
 N377 N 1.05020 0.57236 0.46345
 N378 N 1.03107 0.53132 0.44945
 N379 N 1.05032 0.53760 0.42859
 N380 N 0.96934 0.55210 0.47003
 N381 N 0.95015 0.57283 0.46377
 C382 C 0.93775 0.56360 0.43824
 C383 C 1.06236 0.56312 0.43782
 N384 N 1.03124 0.53169 0.55397
 N385 N 1.05091 0.53777 0.57451
 N386 N 0.96941 0.55229 0.53368
 N387 N 0.94988 0.57280 0.53982
 N388 N 0.96942 0.53215 0.55421
 N389 N 0.94991 0.53844 0.57484
 N390 N 1.03127 0.55188 0.53350
 N391 N 1.05097 0.57220 0.53956
 Mn392 Mn 1.00026 0.55223 0.50179
 C393 C 1.06332 0.56295 0.56505
 C394 C 0.93762 0.56370 0.56541
 N395 N 1.03061 0.46813 0.44954
 N396 N 1.05011 0.46159 0.42894
 N397 N 0.96857 0.44852 0.47009
 N398 N 0.94900 0.42811 0.46391
 N399 N 0.96864 0.46872 0.44962
 N400 N 0.94895 0.46267 0.42908
 N401 N 1.03026 0.44790 0.47000
 N402 N 1.04937 0.42706 0.46378
 Mn403 Mn 0.99988 0.49997 0.44926
 C404 C 1.06189 0.43604 0.43831
 C405 C 0.93664 0.43741 0.43846
 N406 N 0.96900 0.46910 0.55433
 N407 N 0.94989 0.46295 0.57533
 N408 N 1.03046 0.44825 0.53356
 N409 N 1.04986 0.42767 0.53961
 N410 N 1.03077 0.46863 0.55400
 N411 N 1.05036 0.46239 0.57453
 N412 N 0.96857 0.44886 0.53374
 N413 N 0.94906 0.42850 0.54016
 Mn414 Mn 1.00012 0.50040 0.55438
 Mn415 Mn 0.99944 0.44815 0.50185
 Cl416 Cl 0.99993 0.50019 0.50181
 C417 C 0.93731 0.43775 0.56601
 C418 C 1.06237 0.43693 0.56508
 N419 N 0.55230 0.03112 0.53009
 N420 N 0.57303 0.05040 0.53598
 N421 N 0.53113 -0.03009 0.55025
 N422 N 0.53703 -0.04993 0.57049
 N423 N 0.55155 -0.03009 0.52980
 N424 N 0.57189 -0.04981 0.53556
 N425 N 0.53201 0.03139 0.55069
 N426 N 0.53839 0.05102 0.57113
 C427 C 0.56393 0.06292 0.56147
 C428 C 0.56240 -0.06228 0.56082
 N429 N 0.44712 -0.02843 0.52974
 N430 N 0.42637 -0.04774 0.53541
 N431 N 0.46856 0.03226 0.55066
 N432 N 0.46268 0.05157 0.57150
 N433 N 0.44825 0.03288 0.53007
 N434 N 0.42804 0.05268 0.53639
 N435 N 0.46758 -0.02908 0.55016
 N436 N 0.46130 -0.04892 0.57024
 Mn437 Mn 0.49981 0.00109 0.55074
 C438 C 0.43565 -0.06060 0.56058
 C439 C 0.43752 0.06442 0.56215
 N440 N 0.55153 -0.03010 0.46654
 N441 N 0.57159 -0.05020 0.46109
 N442 N 0.53211 0.03139 0.44598
 N443 N 0.53840 0.05113 0.42579
 N444 N 0.55232 0.03117 0.46665
 N445 N 0.57289 0.05069 0.46108
 N446 N 0.53129 -0.03003 0.44590
 N447 N 0.53713 -0.05016 0.42577
 Mn448 Mn 0.55215 0.00055 0.49826
 C449 C 0.56222 -0.06278 0.43576
 C450 C 0.56378 0.06321 0.43568
 N451 N 0.44835 0.03292 0.46640
 N452 N 0.42814 0.05274 0.46030
 N453 N 0.46770 -0.02894 0.44575
 N454 N 0.46155 -0.04872 0.42543
 N455 N 0.44728 -0.02855 0.46624
 N456 N 0.42680 -0.04820 0.46049
 N457 N 0.46863 0.03230 0.44578
 N458 N 0.46267 0.05157 0.42506
 Mn459 Mn 0.44747 0.00224 0.49811
 Mn460 Mn 0.49993 0.00116 0.44555
 Cl461 Cl 0.49981 0.00127 0.49817
 C462 C 0.43754 0.06444 0.43459
 C463 C 0.43614 -0.06081 0.43509
 N464 N 0.55268 0.53093 0.03132
 N465 N 0.57346 0.55025 0.03686
 N466 N 0.53149 0.47085 0.05320
 N467 N 0.53700 0.45149 0.07397
 N468 N 0.55163 0.46958 0.03248
 N469 N 0.57123 0.44915 0.03844
 N470 N 0.53205 0.53213 0.05155
 N471 N 0.53828 0.55237 0.07141
 C472 C 0.56406 0.56371 0.06174
 C473 C 0.56167 0.43789 0.06426
 N474 N 0.44809 0.47042 0.03181
 N475 N 0.42794 0.45054 0.03779
 N476 N 0.46848 0.53265 0.05111
 N477 N 0.46231 0.55272 0.07114
 N478 N 0.44793 0.53183 0.03076
 N479 N 0.42722 0.55129 0.03648
 N480 N 0.46801 0.47141 0.05276
 N481 N 0.46181 0.45244 0.07367
 Mn482 Mn 0.50000 0.50183 0.05244
 C483 C 0.43696 0.43933 0.06386
 C484 C 0.43667 0.56442 0.06155
 N485 N 0.55232 0.46834 -0.03096
 N486 N 0.57272 0.44856 -0.03645
 N487 N 0.53281 0.52981 -0.05247
 N488 N 0.53900 0.54954 -0.07270
 N489 N 0.55315 0.52956 -0.03193
 N490 N 0.57373 0.54902 -0.03764
 N491 N 0.53230 0.46835 -0.05181
 N492 N 0.53852 0.44842 -0.07201
 Mn493 Mn 0.55269 0.49955 0.00024
 C494 C 0.56367 0.43602 -0.06194
 C495 C 0.56449 0.56154 -0.06297
 N496 N 0.44856 0.53053 -0.03273
 N497 N 0.42858 0.55058 -0.03873
 N498 N 0.46895 0.46897 -0.05229
 N499 N 0.46310 0.44916 -0.07263
 N500 N 0.44847 0.46914 -0.03187
 N501 N 0.42814 0.44938 -0.03781
 N502 N 0.46922 0.53026 -0.05297
 N503 N 0.46379 0.55008 -0.07332
 Mn504 Mn 0.44796 0.50042 -0.00051
 Mn505 Mn 0.50081 0.49939 -0.05269
 Cl506 Cl 0.50034 0.50030 -0.00013
 C507 C 0.43849 0.56280 -0.06399
 C508 C 0.43775 0.43686 -0.06316
 C509 C 1.13957 0.13432 0.13403
 C510 C 1.16322 0.15006 0.12201
 C511 C 1.18018 0.16853 0.13977
 C512 C 1.17380 0.17179 0.16993
 C513 C 1.15014 0.15606 0.18194
 C514 C 1.13325 0.13751 0.16420
 C515 C 1.12120 0.11502 0.11513
 C516 C 1.11152 0.08778 0.12554
 C517 C 1.09311 0.07022 0.10830
 C518 C 1.08391 0.07957 0.08033
 C519 C 1.09409 0.10648 0.06962
 C520 C 1.11257 0.12400 0.08682
 H521 H 1.19810 0.18055 0.12982
 H522 H 1.14486 0.15785 0.20515
 H523 H 1.08569 0.04954 0.11708
 H524 H 1.08733 0.11426 0.04814
 H525 H 1.11496 0.12595 0.17405
 H526 H 1.11816 0.08006 0.14708
 H527 H 1.16876 0.14789 0.09888
 H528 H 1.11943 0.14498 0.07830
 C529 C 1.14271 0.63313 0.63533
 C530 C 1.16618 0.64896 0.62308
 C531 C 1.18343 0.66727 0.64075
 C532 C 1.17752 0.67025 0.67103
 C533 C 1.15415 0.65429 0.68329
 C534 C 1.13697 0.63593 0.66566
 C535 C 1.12380 0.61428 0.61652
 C536 C 1.11394 0.58704 0.62676
 C537 C 1.09486 0.57002 0.60971
 C538 C 1.08520 0.57990 0.58209
 C539 C 1.09558 0.60677 0.57150
 C540 C 1.11470 0.62378 0.58853
 H541 H 1.20113 0.67946 0.63061
 H542 H 1.14925 0.65585 0.70660
 H543 H 1.08732 0.54933 0.61838
 H544 H 1.08847 0.61494 0.55029
 H545 H 1.11883 0.62430 0.67569
 H546 H 1.12092 0.57893 0.64804
 H547 H 1.17130 0.64708 0.59984
 H548 H 1.12167 0.64477 0.58014
 C549 C 0.63557 0.14208 0.62996
 C550 C 0.62507 0.16880 0.64100
 C551 C 0.64302 0.18640 0.65868
 C552 C 0.67176 0.17747 0.66600
 C553 C 0.68220 0.15070 0.65481
 C554 C 0.66436 0.13330 0.63688
 C555 C 0.61652 0.12314 0.61157
 C556 C 0.62767 0.11014 0.58582
 C557 C 0.61024 0.09119 0.56915
 C558 C 0.58141 0.08459 0.57809
 C559 C 0.57004 0.09796 0.60357
 C560 C 0.58740 0.11721 0.62009
 H561 H 0.63443 0.20711 0.66642
 H562 H 0.70396 0.14284 0.66043
 H563 H 0.61957 0.08124 0.54957
 H564 H 0.54787 0.09327 0.61093
 H565 H 0.67285 0.11259 0.62895
 H566 H 0.64994 0.11461 0.57861
 H567 H 0.60306 0.17621 0.63569
 H568 H 0.57836 0.12683 0.63997
 C569 C 0.63585 0.64299 0.12968
 C570 C 0.62576 0.67008 0.14014
 C571 C 0.64370 0.68741 0.15808
 C572 C 0.67199 0.67782 0.16624
 C573 C 0.68205 0.65071 0.15558
 C574 C 0.66423 0.63356 0.13739
 C575 C 0.61674 0.62423 0.11122
 C576 C 0.62808 0.61057 0.08590
 C577 C 0.61060 0.59158 0.06934
 C578 C 0.58154 0.58562 0.07799
 C579 C 0.56996 0.59973 0.10296
 C580 C 0.58737 0.61902 0.11936
 H581 H 0.63545 0.70840 0.16540
 H582 H 0.70345 0.64237 0.16184
 H583 H 0.62009 0.58105 0.05015
 H584 H 0.54761 0.59553 0.11006
 H585 H 0.67236 0.61255 0.12992
 H586 H 0.65055 0.61450 0.07901
 H587 H 0.60407 0.67795 0.13421
 H588 H 0.57819 0.62916 0.13891
 C589 C 0.85935 -0.13345 0.13611
 C590 C 0.83531 -0.14886 0.12433
 C591 C 0.81833 -0.16705 0.14223
 C592 C 0.82508 -0.17033 0.17228
 C593 C 0.84905 -0.15483 0.18407
 C594 C 0.86596 -0.13657 0.16621
 C595 C 0.87791 -0.11469 0.11702
 C596 C 0.88827 -0.08758 0.12731
 C597 C 0.90693 -0.07060 0.10989
 C598 C 0.91570 -0.08043 0.08187
 C599 C 0.90483 -0.10719 0.07128
 C600 C 0.88611 -0.12414 0.08866
 H601 H 0.80016 -0.17891 0.13244
 H602 H 0.85461 -0.15665 0.20720
 H603 H 0.91488 -0.05001 0.11857
 H604 H 0.91125 -0.11532 0.04977
 H605 H 0.88455 -0.12525 0.17586
 H606 H 0.88198 -0.07953 0.14888
 H607 H 0.82954 -0.14672 0.10128
 H608 H 0.87872 -0.14504 0.08024
 C609 C 0.86006 0.36678 0.63721
 C610 C 0.83284 0.35647 0.62719
 C611 C 0.81558 0.33829 0.64485
 C612 C 0.82520 0.32927 0.67319
 C613 C 0.85294 0.33991 0.68279
 C614 C 0.86985 0.35842 0.66520
 C615 C 0.87849 0.38590 0.61844
 C616 C 0.89191 0.41091 0.63038
 C617 C 0.91034 0.42825 0.61306
 C618 C 0.91602 0.42070 0.58357
 C619 C 0.90223 0.39596 0.57146
 C620 C 0.88349 0.37882 0.58869
 H621 H 0.79545 0.33030 0.63510
 H622 H 0.86147 0.33543 0.70453
 H623 H 0.92065 0.44720 0.62298
 H624 H 0.90621 0.38966 0.54877
 H625 H 0.89084 0.36608 0.67347
 H626 H 0.88817 0.41701 0.65316
 H627 H 0.82481 0.36255 0.60558
 H628 H 0.87356 0.35955 0.57900
 C629 C 0.36507 -0.14038 0.62887
 C630 C 0.33629 -0.13182 0.63618
 C631 C 0.31888 -0.14924 0.65439
 C632 C 0.32976 -0.17577 0.66552
 C633 C 0.35847 -0.18450 0.65778
 C634 C 0.37598 -0.16691 0.63980
 C635 C 0.38379 -0.12131 0.61040
 C636 C 0.41301 -0.11537 0.61859
 C637 C 0.43010 -0.09599 0.60211
 C638 C 0.41836 -0.08245 0.57699
 C639 C 0.38944 -0.08905 0.56834
 C640 C 0.37226 -0.10817 0.58497
 H641 H 0.29712 -0.14155 0.66031
 H642 H 0.36737 -0.20505 0.66546
 H643 H 0.45235 -0.09131 0.60924
 H644 H 0.37984 -0.07896 0.54904
 H645 H 0.39798 -0.17417 0.63419
 H646 H 0.42235 -0.12506 0.63822
 H647 H 0.32750 -0.11125 0.62838
 H648 H 0.34991 -0.11264 0.57802
 C649 C 0.36726 0.35821 0.13220
 C650 C 0.33862 0.35086 0.12299
 C651 C 0.32076 0.33287 0.14022
 C652 C 0.33072 0.32225 0.16753
 C653 C 0.35941 0.32950 0.17665
 C654 C 0.37752 0.34686 0.15908
 C655 C 0.38601 0.37822 0.11434
 C656 C 0.40609 0.39725 0.12820
 C657 C 0.42322 0.41646 0.11165
 C658 C 0.42017 0.41768 0.08094
 C659 C 0.40026 0.39882 0.06691
 C660 C 0.38363 0.37904 0.08338
 H661 H 0.29910 0.32737 0.13202
 H662 H 0.36789 0.32225 0.19767
 H663 H 0.43822 0.43103 0.12301
 H664 H 0.39771 0.39926 0.04317
 H665 H 0.39960 0.35140 0.16675
 H666 H 0.40816 0.39793 0.15195
 H667 H 0.32964 0.35941 0.10269
 H668 H 0.36899 0.36436 0.07175
 C669 C 0.85868 0.13255 -0.13473
 C670 C 0.83992 0.15386 -0.12250
 C671 C 0.82309 0.17197 -0.14066
 C672 C 0.82439 0.16902 -0.17146
 C673 C 0.84283 0.14755 -0.18373
 C674 C 0.85988 0.12962 -0.16560
 C675 C 0.87742 0.11391 -0.11549
 C676 C 0.88318 0.08459 -0.12299
 C677 C 0.90201 0.06758 -0.10573
 C678 C 0.91530 0.07940 -0.08043
 C679 C 0.90898 0.10839 -0.07242
 C680 C 0.89038 0.12549 -0.08982
 H681 H 0.80873 0.18807 -0.13060
 H682 H 0.84453 0.14504 -0.20742
 H683 H 0.90634 0.04522 -0.11231
 H684 H 0.91903 0.11812 -0.05310
 H685 H 0.87448 0.11388 -0.17584
 H686 H 0.87314 0.07476 -0.14226
 H687 H 0.83803 0.15640 -0.09884
 H688 H 0.88682 0.14806 -0.08356
 C689 C 0.86035 0.63431 0.36688
 C690 C 0.86957 0.66268 0.35973
 C691 C 0.85249 0.68030 0.34136
 C692 C 0.82560 0.67009 0.32993
 C693 C 0.81637 0.64168 0.33724
 C694 C 0.83364 0.62393 0.35537
 C695 C 0.87882 0.61558 0.38604
 C696 C 0.88452 0.58637 0.37831
 C697 C 0.90329 0.56925 0.39556
 C698 C 0.91642 0.58094 0.42103
 C699 C 0.91003 0.60988 0.42921
 C700 C 0.89154 0.62708 0.41180
 H701 H 0.86062 0.70179 0.33576
 H702 H 0.79557 0.63325 0.32930
 H703 H 0.90782 0.54699 0.38877
 H704 H 0.91981 0.61946 0.44874
 H705 H 0.82590 0.60224 0.36079
 H706 H 0.87513 0.57703 0.35847
 H707 H 0.89031 0.67104 0.36793
 H708 H 0.88723 0.64943 0.41843
 C709 C 0.36621 0.14177 0.36422
 C710 C 0.35710 0.16950 0.37358
 C711 C 0.33867 0.18653 0.35590
 C712 C 0.32817 0.17611 0.32832
 C713 C 0.33754 0.14783 0.31946
 C714 C 0.35635 0.13118 0.33699
 C715 C 0.38566 0.12361 0.38287
 C716 C 0.41027 0.10956 0.37054
 C717 C 0.42771 0.09109 0.38766
 C718 C 0.42062 0.08597 0.41733
 C719 C 0.39636 0.10046 0.42984
 C720 C 0.37914 0.11929 0.41280
 H721 H 0.33168 0.20721 0.36507
 H722 H 0.33190 0.13865 0.29823
 H723 H 0.44630 0.08021 0.37745
 H724 H 0.39045 0.09693 0.45268
 H725 H 0.36309 0.10976 0.32928
 H726 H 0.41588 0.11278 0.34758
 H727 H 0.36435 0.17809 0.39465
 H728 H 0.36018 0.12977 0.42275
 C729 C 0.37027 0.64349 -0.13383
 C730 C 0.35430 0.66694 -0.12169
 C731 C 0.33594 0.68397 -0.13946
 C732 C 0.33307 0.67778 -0.16969
 C733 C 0.34929 0.65452 -0.18185
 C734 C 0.36768 0.63759 -0.16414
 C735 C 0.38883 0.62456 -0.11492
 C736 C 0.41627 0.61439 -0.12501
 C737 C 0.43279 0.59491 -0.10809
 C738 C 0.42220 0.58516 -0.08077
 C739 C 0.39520 0.59595 -0.07027
 C740 C 0.37869 0.61547 -0.08717
 H741 H 0.32357 0.70163 -0.12944
 H742 H 0.34782 0.64946 -0.20514
 H743 H 0.45361 0.58706 -0.11665
 H744 H 0.38650 0.58881 -0.04928
 H745 H 0.37942 0.61947 -0.17408
 H746 H 0.42485 0.62135 -0.14611
 H747 H 0.35604 0.67215 -0.09846
 H748 H 0.35752 0.62269 -0.07893
 C749 C 1.14039 -0.13529 -0.13455
 C750 C 1.13202 -0.16405 -0.14138
 C751 C 1.14966 -0.18154 -0.15950
 C752 C 1.17625 -0.17078 -0.17102
 C753 C 1.18466 -0.14199 -0.16400
 C754 C 1.16685 -0.12440 -0.14610
 C755 C 1.12132 -0.11670 -0.11569
 C756 C 1.11499 -0.08774 -0.12369
 C757 C 1.09577 -0.07076 -0.10666
 C758 C 1.08279 -0.08232 -0.08115
 C759 C 1.08975 -0.11100 -0.07272
 C760 C 1.10870 -0.12806 -0.08990
 H761 H 1.14215 -0.20335 -0.16488
 H762 H 1.20522 -0.13313 -0.17202
 H763 H 1.09080 -0.04870 -0.11365
 H764 H 1.08011 -0.12048 -0.05314
 H765 H 1.17396 -0.10240 -0.14092
 H766 H 1.12427 -0.07851 -0.14357
 H767 H 1.11150 -0.17284 -0.13314
 H768 H 1.11348 -0.15020 -0.08304
 C769 C 1.14023 0.36468 0.36804
 C770 C 1.13051 0.33685 0.35935
 C771 C 1.14794 0.31922 0.34116
 C772 C 1.17571 0.32886 0.33151
 C773 C 1.18551 0.35667 0.34055
 C774 C 1.16787 0.37445 0.35843
 C775 C 1.12137 0.38349 0.38685
 C776 C 1.11654 0.41292 0.37956
 C777 C 1.09750 0.43020 0.39650
 C778 C 1.08328 0.41845 0.42126
 C779 C 1.08876 0.38926 0.42899
 C780 C 1.10745 0.37190 0.41184
 H781 H 1.13936 0.29826 0.33422
 H782 H 1.20697 0.36463 0.33409
 H783 H 1.09368 0.45264 0.39008
 H784 H 1.07811 0.37963 0.44796
 H785 H 1.17599 0.39570 0.36510
 H786 H 1.12689 0.42232 0.36030
 H787 H 1.10910 0.32897 0.36614
 H788 H 1.11104 0.34937 0.41808
 C789 C 0.63412 -0.14293 0.36876
 C790 C 0.62327 -0.16791 0.35438
 C791 C 0.64192 -0.18511 0.33697
 C792 C 0.67164 -0.17742 0.33337
 C793 C 0.68246 -0.15248 0.34782
 C794 C 0.66392 -0.13547 0.36542
 C795 C 0.61449 -0.12427 0.38688
 C796 C 0.62416 -0.11355 0.41423
 C797 C 0.60669 -0.09427 0.43047
 C798 C 0.57924 -0.08517 0.41960
 C799 C 0.56911 -0.09653 0.39267
 C800 C 0.58656 -0.11602 0.37647
 H801 H 0.63299 -0.20411 0.32586
 H802 H 0.70532 -0.14619 0.34558
 H803 H 0.61500 -0.08600 0.45125
 H804 H 0.54801 -0.08989 0.38382
 H805 H 0.67277 -0.11615 0.37602
 H806 H 0.64541 -0.11989 0.42295
 H807 H 0.60043 -0.17420 0.35674
 H808 H 0.57867 -0.12386 0.35536
 C809 C 0.63586 0.35709 -0.13029
 C810 C 0.62504 0.33172 -0.14400
 C811 C 0.64339 0.31470 -0.16190
 C812 C 0.67279 0.32292 -0.16669
 C813 C 0.68361 0.34823 -0.15291
 C814 C 0.66537 0.36508 -0.13481
 C815 C 0.61642 0.37561 -0.11180
 C816 C 0.62664 0.38698 -0.08490
 C817 C 0.60908 0.40591 -0.06829
 C818 C 0.58103 0.41405 -0.07836
 C819 C 0.57046 0.40212 -0.10488
 C820 C 0.58796 0.38297 -0.12140
 H821 H 0.63444 0.29540 -0.17246
 H822 H 0.70624 0.35493 -0.15605
 H823 H 0.61776 0.41468 -0.04786
 H824 H 0.54890 0.40801 -0.11313
 H825 H 0.67420 0.38469 -0.12475
 H826 H 0.64833 0.38135 -0.07680
 H827 H 0.60243 0.32500 -0.14074
 H828 H 0.57963 0.37466 -0.14216
 C829 C 1.13736 0.13201 -0.13713
 C830 C 1.16365 0.12167 -0.14948
 C831 C 1.18077 0.13967 -0.16745
 C832 C 1.17197 0.16865 -0.17391
 C833 C 1.14510 0.17852 -0.16159
 C834 C 1.12824 0.16055 -0.14343
 C835 C 1.11931 0.11317 -0.11775
 C836 C 1.10749 0.12443 -0.09144
 C837 C 1.08937 0.10721 -0.07375
 C838 C 1.08245 0.07848 -0.08216
 C839 C 1.09472 0.06698 -0.10816
 C840 C 1.11313 0.08413 -0.12572
 H841 H 1.20150 0.13087 -0.17504
 H842 H 1.13611 0.19978 -0.16659
 H843 H 1.08027 0.11664 -0.05380
 H844 H 1.08975 0.04488 -0.11513
 H845 H 1.10765 0.16884 -0.13471
 H846 H 1.11223 0.14662 -0.08461
 H847 H 1.17136 0.09982 -0.14463
 H848 H 1.12185 0.07499 -0.14597
 C849 C 1.13920 0.63425 0.36626
 C850 C 1.12996 0.66268 0.35931
 C851 C 1.14709 0.68048 0.34117
 C852 C 1.17407 0.67038 0.32979
 C853 C 1.18332 0.64190 0.33689
 C854 C 1.16599 0.62398 0.35477
 C855 C 1.12077 0.61541 0.38534
 C856 C 1.11509 0.58622 0.37750
 C857 C 1.09646 0.56900 0.39479
 C858 C 1.08347 0.58055 0.42041
 C859 C 1.08983 0.60947 0.42867
 C860 C 1.10815 0.62677 0.41122
 H861 H 1.13893 0.70201 0.33573
 H862 H 1.20418 0.63354 0.32899
 H863 H 1.09194 0.54677 0.38793
 H864 H 1.08017 0.61896 0.44832
 H865 H 1.17376 0.60225 0.36004
 H866 H 1.12441 0.57699 0.35756
 H867 H 1.10917 0.67098 0.36751
 H868 H 1.11245 0.64908 0.41795
 C869 C 0.63572 0.14236 0.36802
 C870 C 0.66582 0.13581 0.36528
 C871 C 0.68402 0.15285 0.34749
 C872 C 0.67253 0.17689 0.33214
 C873 C 0.64249 0.18364 0.33511
 C874 C 0.62424 0.16649 0.35280
 C875 C 0.61635 0.12363 0.38623
 C876 C 0.58847 0.11514 0.37588
 C877 C 0.57102 0.09600 0.39226
 C878 C 0.58109 0.08509 0.41933
 C879 C 0.60857 0.09424 0.43008
 C880 C 0.62604 0.11327 0.41368
 H881 H 0.70713 0.14730 0.34583
 H882 H 0.63298 0.20188 0.32333
 H883 H 0.54992 0.08929 0.38346
 H884 H 0.61684 0.08629 0.45096
 H885 H 0.60117 0.17216 0.35468
 H886 H 0.58054 0.12259 0.35469
 H887 H 0.67522 0.11716 0.37649
 H888 H 0.64724 0.11979 0.42240
 C889 C 0.63525 0.64080 -0.13138
 C890 C 0.66299 0.63084 -0.14046
 C891 C 0.68070 0.64798 -0.15859
 C892 C 0.67137 0.67593 -0.16788
 C893 C 0.64355 0.68592 -0.15814
 C894 C 0.62565 0.66844 -0.14041
 C895 C 0.61639 0.62208 -0.11280
 C896 C 0.58688 0.61697 -0.12046
 C897 C 0.56974 0.59760 -0.10400
 C898 C 0.58174 0.58338 -0.07940
 C899 C 0.61096 0.58927 -0.07121
 C900 C 0.62817 0.60828 -0.08788
 H901 H 0.70219 0.63949 -0.16430
 H902 H 0.63473 0.70671 -0.16519
 H903 H 0.54725 0.59348 -0.11072
 H904 H 0.62077 0.57864 -0.05232
 H905 H 0.60428 0.67657 -0.13365
 H906 H 0.57738 0.62727 -0.13970
 H907 H 0.67086 0.60953 -0.13377
 H908 H 0.65079 0.61210 -0.08141
 C909 C 0.85683 -0.13442 -0.13364
 C910 C 0.86584 -0.16288 -0.14099
 C911 C 0.84855 -0.18043 -0.15932
 C912 C 0.82163 -0.17006 -0.17051
 C913 C 0.81259 -0.14156 -0.16301
 C914 C 0.83008 -0.12389 -0.14491
 C915 C 0.87556 -0.11578 -0.11456
 C916 C 0.88148 -0.08668 -0.12229
 C917 C 0.90060 -0.06970 -0.10519
 C918 C 0.91388 -0.08142 -0.07989
 C919 C 0.90724 -0.11022 -0.07168
 C920 C 0.88840 -0.12728 -0.08894
 H921 H 0.85655 -0.20198 -0.16509
 H922 H 0.79178 -0.13301 -0.17077
 H923 H 0.90532 -0.04755 -0.11200
 H924 H 0.91712 -0.11982 -0.05227
 H925 H 0.82251 -0.10211 -0.13935
 H926 H 0.87200 -0.07735 -0.14203
 H927 H 0.88660 -0.17137 -0.13298
 H928 H 0.88393 -0.14954 -0.08232
 C929 C 0.85685 0.36817 0.36736
 C930 C 0.83962 0.34562 0.37940
 C931 C 0.82259 0.32765 0.36118
 C932 C 0.82203 0.33208 0.33060
 C933 C 0.83877 0.35485 0.31855
 C934 C 0.85614 0.37256 0.33668
 C935 C 0.87608 0.38650 0.38656
 C936 C 0.88104 0.41614 0.38007
 C937 C 0.90039 0.43284 0.39717
 C938 C 0.91488 0.42039 0.42139
 C939 C 0.90936 0.39109 0.42845
 C940 C 0.89036 0.37427 0.41113
 H941 H 0.80955 0.31046 0.37104
 H942 H 0.83895 0.35850 0.29497
 H943 H 0.90410 0.45547 0.39138
 H944 H 0.92038 0.38087 0.44690
 H945 H 0.86953 0.38926 0.32650
 H946 H 0.86999 0.42650 0.36173
 H947 H 0.83911 0.34192 0.40294
 H948 H 0.88754 0.35145 0.41657
 C949 C 0.36466 -0.13994 0.36647
 C950 C 0.35444 -0.16688 0.37675
 C951 C 0.33594 -0.18420 0.35930
 C952 C 0.32650 -0.17485 0.33103
 C953 C 0.33703 -0.14737 0.32122
 C954 C 0.35586 -0.13044 0.33855
 C955 C 0.38416 -0.12142 0.38482
 C956 C 0.40930 -0.10852 0.37245
 C957 C 0.42673 -0.08953 0.38913
 C958 C 0.41912 -0.08279 0.41837
 C959 C 0.39434 -0.09618 0.43097
 C960 C 0.37712 -0.11549 0.41439
 H961 H 0.32808 -0.20418 0.36912
 H962 H 0.33231 -0.13909 0.29947
 H963 H 0.44573 -0.07956 0.37887
 H964 H 0.38804 -0.09140 0.45350
 H965 H 0.36345 -0.10967 0.33011
 H966 H 0.41534 -0.11298 0.34978
 H967 H 0.36086 -0.17462 0.39835
 H968 H 0.35774 -0.12505 0.42436
 C969 C 0.36823 0.35746 -0.13348
 C970 C 0.35585 0.33167 -0.12235
 C971 C 0.33782 0.31426 -0.14013
 C972 C 0.33153 0.32243 -0.16934
 C973 C 0.34397 0.34829 -0.18038
 C974 C 0.36220 0.36553 -0.16269
 C975 C 0.38701 0.37625 -0.11465
 C976 C 0.41318 0.38811 -0.12587
 C977 C 0.43011 0.40713 -0.10876
 C978 C 0.42104 0.41490 -0.08019
 C979 C 0.39522 0.40256 -0.06868
 C980 C 0.37841 0.38328 -0.08572
 H981 H 0.32906 0.29423 -0.13107
 H982 H 0.33916 0.35556 -0.20254
 H983 H 0.44996 0.41626 -0.11817
 H984 H 0.38775 0.40816 -0.04670
 H985 H 0.37109 0.38555 -0.17167
 H986 H 0.42048 0.38275 -0.14797
 H987 H 0.36042 0.32482 -0.09999
 H988 H 0.35822 0.37458 -0.07662
 C989 C 1.13957 -0.13671 0.13328
 C990 C 1.13129 -0.16579 0.13862
 C991 C 1.14834 -0.18360 0.15684
 C992 C 1.17418 -0.17281 0.16993
 C993 C 1.18259 -0.14380 0.16441
 C994 C 1.16538 -0.12589 0.14639
 C995 C 1.12104 -0.11770 0.11441
 C996 C 1.11451 -0.08890 0.12308
 C997 C 1.09578 -0.07153 0.10604
 C998 C 1.08343 -0.08256 0.07989
 C999 C 1.09060 -0.11106 0.07082
 C1000 C 1.10912 -0.12849 0.08796
 H1001 H 1.14146 -0.20594 0.16050
 H1002 H 1.20226 -0.13483 0.17441
 H1003 H 1.09063 -0.04964 0.11356
 H1004 H 1.08145 -0.12012 0.05073
 H1005 H 1.17238 -0.10363 0.14250
 H1006 H 1.12321 -0.08009 0.14347
 H1007 H 1.11135 -0.17462 0.12905
 H1008 H 1.11409 -0.15046 0.08055
 C1009 C 1.14050 0.36572 0.63527
 C1010 C 1.13504 0.33554 0.63663
 C1011 C 1.15196 0.31757 0.65479
 C1012 C 1.17476 0.32935 0.67204
 C1013 C 1.18036 0.35951 0.67057
 C1014 C 1.16339 0.37750 0.65241
 C1015 C 1.12194 0.38483 0.61648
 C1016 C 1.11250 0.41228 0.62681
 C1017 C 1.09372 0.42956 0.60978
 C1018 C 1.08398 0.41973 0.58210
 C1019 C 1.09399 0.39267 0.57141
 C1020 C 1.11277 0.37540 0.58842
 H1021 H 1.14733 0.29438 0.65515
 H1022 H 1.19760 0.36929 0.68379
 H1023 H 1.08631 0.45032 0.61859
 H1024 H 1.08695 0.38461 0.55008
 H1025 H 1.16830 0.40062 0.65166
 H1026 H 1.11893 0.42004 0.64845
 H1027 H 1.11733 0.32584 0.62398
 H1028 H 1.12006 0.35458 0.57965
 C1029 C 0.63265 -0.14192 0.62958
 C1030 C 0.66108 -0.13284 0.63749
 C1031 C 0.67866 -0.15022 0.65560
 C1032 C 0.66833 -0.17726 0.66594
 C1033 C 0.63994 -0.18646 0.65764
 C1034 C 0.62222 -0.16887 0.63982
 C1035 C 0.61390 -0.12301 0.61100
 C1036 C 0.58461 -0.11711 0.61901
 C1037 C 0.56759 -0.09772 0.60243
 C1038 C 0.57947 -0.08422 0.57737
 C1039 C 0.60845 -0.09087 0.56886
 C1040 C 0.62555 -0.10994 0.58562
 H1041 H 0.70011 -0.14212 0.66199
 H1042 H 0.63146 -0.20738 0.66471
 H1043 H 0.54529 -0.09299 0.60942
 H1044 H 0.61817 -0.08082 0.54961
 H1045 H 0.60047 -0.17646 0.63374
 H1046 H 0.57521 -0.12683 0.63859
 H1047 H 0.66946 -0.11194 0.63020
 H1048 H 0.64797 -0.11439 0.57883
 C1049 C 0.63088 0.35578 0.13176
 C1050 C 0.65974 0.34919 0.12261
 C1051 C 0.67794 0.33141 0.13971
 C1052 C 0.66807 0.32022 0.16680
 C1053 C 0.63914 0.32665 0.17583
 C1054 C 0.62072 0.34385 0.15840
 C1055 C 0.61186 0.37571 0.11412
 C1056 C 0.59158 0.39445 0.12815
 C1057 C 0.57453 0.41394 0.11180
 C1058 C 0.57788 0.41566 0.08114
 C1059 C 0.59780 0.39690 0.06694
 C1060 C 0.61436 0.37689 0.08320
 H1061 H 0.69981 0.32654 0.13162
 H1062 H 0.63074 0.31891 0.19670
 H1063 H 0.55948 0.42840 0.12327
 H1064 H 0.60056 0.39770 0.04324
 H1065 H 0.59849 0.34785 0.16598
 H1066 H 0.58938 0.39476 0.15190
 H1067 H 0.66863 0.35824 0.10249
 H1068 H 0.62913 0.36239 0.07146
 C1069 C 0.86175 0.13485 0.13599
 C1070 C 0.86880 0.13906 0.16588
 C1071 C 0.85176 0.15754 0.18359
 C1072 C 0.82720 0.17210 0.17185
 C1073 C 0.82010 0.16781 0.14198
 C1074 C 0.83723 0.14945 0.12423
 C1075 C 0.88020 0.11562 0.11710
 C1076 C 0.88790 0.12420 0.08840
 C1077 C 0.90631 0.10670 0.07107
 C1078 C 0.91731 0.08020 0.08203
 C1079 C 0.90910 0.07126 0.11044
 C1080 C 0.89079 0.08882 0.12783
 H1081 H 0.85760 0.16018 0.20658
 H1082 H 0.80146 0.17894 0.13224
 H1083 H 0.91230 0.11415 0.04925
 H1084 H 0.91719 0.05090 0.11944
 H1085 H 0.83114 0.14647 0.10134
 H1086 H 0.88031 0.14485 0.07964
 H1087 H 0.88776 0.12836 0.17548
 H1088 H 0.88490 0.08145 0.14970
 C1089 C 0.85849 0.63426 0.63576
 C1090 C 0.83441 0.64932 0.62365
 C1091 C 0.81696 0.66749 0.64131
 C1092 C 0.82332 0.67112 0.67143
 C1093 C 0.84737 0.65602 0.68353
 C1094 C 0.86472 0.63777 0.66591
 C1095 C 0.87743 0.61538 0.61699
 C1096 C 0.88773 0.58840 0.62751
 C1097 C 0.90672 0.57127 0.61043
 C1098 C 0.91589 0.58081 0.58253
 C1099 C 0.90511 0.60745 0.57170
 C1100 C 0.88603 0.62454 0.58874
 H1101 H 0.79873 0.67903 0.63131
 H1102 H 0.85264 0.65814 0.70672
 H1103 H 0.91459 0.55077 0.61930
 H1104 H 0.91183 0.61535 0.55026
 H1105 H 0.88332 0.62672 0.67581
 H1106 H 0.88114 0.58056 0.64901
 H1107 H 0.82894 0.64688 0.60054
 H1108 H 0.87867 0.64534 0.58014
 C1109 C 0.36732 0.14178 0.63427
 C1110 C 0.36148 0.13309 0.66335
 C1111 C 0.34312 0.14981 0.68144
 C1112 C 0.33032 0.17574 0.67095
 C1113 C 0.33632 0.18450 0.64187
 C1114 C 0.35452 0.16762 0.62368
 C1115 C 0.38631 0.12357 0.61502
 C1116 C 0.37785 0.11723 0.58590
 C1117 C 0.39485 0.09848 0.56841
 C1118 C 0.42072 0.08596 0.57967
 C1119 C 0.42967 0.09306 0.60844
 C1120 C 0.41257 0.11159 0.62598
 H1121 H 0.33853 0.14210 0.70350
 H1122 H 0.32724 0.20460 0.63324
 H1123 H 0.38747 0.09339 0.54629
 H1124 H 0.44956 0.08379 0.61766
 H1125 H 0.35891 0.17496 0.60145
 H1126 H 0.35761 0.12603 0.57698
 H1127 H 0.37067 0.11300 0.67191
 H1128 H 0.41978 0.11644 0.64822
 C1129 C 0.36661 0.64356 0.13235
 C1130 C 0.36990 0.64260 0.16317
 C1131 C 0.35207 0.65966 0.18148
 C1132 C 0.33034 0.67790 0.16946
 C1133 C 0.32698 0.67894 0.13870
 C1134 C 0.34500 0.66205 0.12034
 C1135 C 0.38519 0.62480 0.11299
 C1136 C 0.37323 0.61143 0.08772
 C1137 C 0.39024 0.59250 0.07047
 C1138 C 0.41949 0.58632 0.07826
 C1139 C 0.43172 0.60016 0.10304
 C1140 C 0.41481 0.61929 0.12014
 H1141 H 0.35485 0.65812 0.20513
 H1142 H 0.31064 0.69310 0.12885
 H1143 H 0.38022 0.58204 0.05152
 H1144 H 0.45430 0.59596 0.10941
 H1145 H 0.34217 0.66369 0.09671
 H1146 H 0.35042 0.61485 0.08175
 H1147 H 0.38585 0.62817 0.17323
 H1148 H 0.42493 0.62968 0.13906
   
