data_POSCAR
  _audit_creation_date              2014-09-24
  _audit_creation_method            'ToBaCCo'
  _symmetry_space_group_name_H-M    'P1'
  _symmetry_Int_Tables_number       1
  _symmetry_cell_setting            triclinic
  loop_
  _symmetry_equiv_pos_as_xyz
 x,y,z
_cell_length_a 31.0482
_cell_length_b 31.1501
_cell_length_c 15.8416
_cell_angle_alpha 88.870600
_cell_angle_beta 89.979500
_cell_angle_gamma 87.634900
loop_
  _atom_site_label
  _atom_site_type_symbol
  _atom_site_fract_x
  _atom_site_fract_y
  _atom_site_fract_z
O1 O 0.05869 0.21949 -0.02598
 O2 O -0.02610 0.23329 0.13493
 O3 O 0.05886 0.22033 0.13316
 O4 O -0.02651 0.22711 -0.03091
 O5 O -0.02918 0.15645 -0.02040
 O6 O 0.04947 0.15061 0.14849
 O7 O -0.03362 0.16314 0.14338
 O8 O 0.05449 0.14904 -0.01149
 Cu9 Cu 0.01601 0.23246 0.05206
 Cu10 Cu 0.00910 0.14791 0.06561
 C11 C 0.07280 0.18167 -0.04184
 C12 C -0.04427 0.20092 0.16627
 C13 C 0.06983 0.18367 0.16514
 C14 C -0.04185 0.19192 -0.05363
 O15 O 0.44266 0.74596 0.51625
 O16 O 0.52442 0.73959 0.34280
 O17 O 0.43659 0.73725 0.35423
 O18 O 0.52889 0.74842 0.50427
 O19 O 0.53169 0.67768 0.51885
 O20 O 0.44406 0.66675 0.37032
 O21 O 0.52684 0.66893 0.35870
 O22 O 0.44946 0.67529 0.53027
 Cu23 Cu 0.48250 0.75017 0.42694
 Cu24 Cu 0.48852 0.66543 0.44579
 C25 C 0.43179 0.71082 0.55107
 C26 C 0.54076 0.70270 0.32481
 C27 C 0.42383 0.69963 0.34037
 C28 C 0.54633 0.71388 0.53525
 O29 O 0.94940 0.75824 -0.17473
 O30 O 1.02524 0.76548 0.00244
 O31 O 0.93712 0.77272 -0.01118
 O32 O 1.02985 0.76673 -0.15884
 O33 O 1.02626 0.83753 -0.17342
 O34 O 0.93631 0.84335 -0.02575
 O35 O 1.02058 0.83625 -0.01064
 O36 O 0.94388 0.82908 -0.18723
 Cu37 Cu 0.98469 0.75922 -0.08156
 Cu38 Cu 0.98118 0.84348 -0.09982
 C39 C 0.93414 0.79201 -0.21157
 C40 C 1.03706 0.80218 0.02394
 C41 C 0.92046 0.80973 0.00476
 C42 C 1.04332 0.80137 -0.19163
 O43 O 0.46865 0.26160 0.48912
 O44 O 0.55763 0.26724 0.64622
 O45 O 0.47060 0.26606 0.65208
 O46 O 0.55488 0.26005 0.48375
 O47 O 0.55029 0.33097 0.47480
 O48 O 0.46880 0.33687 0.63912
 O49 O 0.55155 0.33808 0.63597
 O50 O 0.46767 0.33247 0.47804
 Cu51 Cu 0.51327 0.25633 0.56951
 Cu52 Cu 0.50937 0.34143 0.55599
 C53 C 0.45256 0.29690 0.45888
 C54 C 0.57040 0.30422 0.66488
 C55 C 0.45439 0.30284 0.67110
 C56 C 0.56729 0.29537 0.45240
 O57 O 0.77688 0.04512 -0.11267
 O58 O 0.74871 -0.03004 0.05859
 O59 O 0.77368 0.05074 0.05038
 O60 O 0.76877 -0.03951 -0.10091
 O61 O 0.83779 -0.05397 -0.07401
 O62 O 0.84116 0.03007 0.07944
 O63 O 0.81746 -0.04738 0.08132
 O64 O 0.84571 0.03062 -0.08548
 Cu65 Cu 0.76000 0.00799 -0.02827
 Cu66 Cu 0.84178 -0.01116 0.00038
 C67 C 0.81627 0.05232 -0.12494
 C68 C 0.77785 -0.05182 0.09809
 C69 C 0.80916 0.05583 0.08920
 C70 C 0.80348 -0.06213 -0.11212
 O71 O 0.24406 0.53991 0.45361
 O72 O 0.25317 0.45909 0.63108
 O73 O 0.25304 0.54658 0.61545
 O74 O 0.25101 0.45329 0.46926
 O75 O 0.32169 0.45720 0.45811
 O76 O 0.32416 0.54246 0.60883
 O77 O 0.32402 0.46010 0.61935
 O78 O 0.31519 0.53919 0.44829
 Cu79 Cu 0.24286 0.49984 0.54370
 Cu80 Cu 0.32799 0.49974 0.53294
 C81 C 0.27877 0.55391 0.42288
 C82 C 0.29067 0.44466 0.65194
 C83 C 0.28974 0.56089 0.63406
 C84 C 0.28722 0.43913 0.44094
 O85 O 0.26111 1.02189 0.12781
 O86 O 0.23365 0.94651 -0.03789
 O87 O 0.26216 1.02401 -0.03914
 O88 O 0.22670 0.94637 0.12215
 O89 O 0.16082 0.97609 0.11731
 O90 O 0.19608 1.05303 -0.04359
 O91 O 0.16729 0.97497 -0.04348
 O92 O 0.19512 1.05113 0.12343
 Cu93 Cu 0.25281 0.98244 0.04440
 Cu94 Cu 0.17347 1.01742 0.03776
 C95 C 0.23287 1.04877 0.15472
 C96 C 0.19547 0.94678 -0.06673
 C97 C 0.23462 1.05126 -0.06981
 C98 C 0.18714 0.94663 0.14318
 O99 O 0.74149 0.45926 0.40379
 O100 O 0.73914 0.55008 0.55529
 O101 O 0.74857 0.46299 0.56636
 O102 O 0.73921 0.54575 0.39265
 O103 O 0.66834 0.54366 0.40261
 O104 O 0.67747 0.46248 0.57013
 O105 O 0.66851 0.54494 0.56422
 O106 O 0.67031 0.46146 0.40885
 Cu107 Cu 0.74955 0.50464 0.47914
 Cu108 Cu 0.66441 0.50294 0.48725
 C109 C 0.70536 0.44463 0.38270
 C110 C 0.70246 0.56363 0.58254
 C111 C 0.71399 0.44774 0.59506
 C112 C 0.70165 0.55949 0.37060
 C113 C 0.19438 0.15218 0.24863
 C114 C 0.23570 0.14142 0.27886
 C115 C 0.26015 0.17324 0.31427
 C116 C 0.24579 0.21703 0.31116
 C117 C 0.20448 0.22713 0.27699
 C118 C 0.17824 0.19487 0.24963
 C119 C 0.27428 0.25210 0.33857
 C120 C 0.25671 0.29386 0.35631
 C121 C 0.28363 0.32744 0.37417
 C122 C 0.32815 0.31868 0.37918
 C123 C 0.34611 0.27711 0.37057
 C124 C 0.31947 0.24435 0.34745
 H125 H 0.17515 0.12741 0.22265
 H126 H 0.29086 0.16311 0.34136
 H127 H 0.19225 0.25994 0.26956
 H128 H 0.22235 0.30072 0.35800
 H129 H 0.34872 0.34392 0.39845
 H130 H 0.33478 0.21316 0.33753
 C131 C 0.80840 0.83656 0.14531
 C132 C 0.77010 0.84643 0.18863
 C133 C 0.74381 0.81333 0.21424
 C134 C 0.75369 0.77046 0.19165
 C135 C 0.79255 0.76106 0.14791
 C136 C 0.82025 0.79390 0.12553
 C137 C 0.72260 0.73624 0.21077
 C138 C 0.73759 0.69400 0.23275
 C139 C 0.70843 0.66216 0.25257
 C140 C 0.66404 0.67260 0.24769
 C141 C 0.64837 0.71495 0.23322
 C142 C 0.67766 0.74631 0.21219
 H143 H 0.82879 0.86242 0.12649
 H144 H 0.71490 0.82160 0.24953
 H145 H 0.80078 0.72855 0.12885
 H146 H 0.77179 0.68637 0.23908
 H147 H 0.64146 0.64848 0.26533
 H148 H 0.66515 0.77872 0.19954
 C149 C 0.84197 0.16817 0.21264
 C150 C 0.85257 0.20425 0.25842
 C151 C 0.81975 0.23203 0.28782
 C152 C 0.77636 0.22605 0.26683
 C153 C 0.76606 0.18954 0.22099
 C154 C 0.79855 0.16003 0.19547
 C155 C 0.74246 0.25905 0.28921
 C156 C 0.70101 0.24689 0.31540
 C157 C 0.66928 0.27824 0.33608
 C158 C 0.67908 0.32170 0.32779
 C159 C 0.72083 0.33442 0.30898
 C160 C 0.75214 0.30307 0.28792
 H161 H 0.86758 0.14655 0.19060
 H162 H 0.82851 0.25917 0.32488
 H163 H 0.73297 0.18426 0.20377
 H164 H 0.69402 0.21327 0.32321
 H165 H 0.65512 0.34599 0.34568
 H166 H 0.78411 0.31321 0.27200
 C167 C 0.13942 0.82645 0.18590
 C168 C 0.13016 0.78376 0.16858
 C169 C 0.16022 0.75061 0.19272
 C170 C 0.19946 0.76031 0.23247
 C171 C 0.20745 0.80360 0.24838
 C172 C 0.17890 0.83657 0.22133
 C173 C 0.23413 0.72655 0.25034
 C174 C 0.27814 0.73701 0.24433
 C175 C 0.31104 0.70715 0.26706
 C176 C 0.30000 0.66538 0.28995
 C177 C 0.25683 0.65429 0.30025
 C178 C 0.22391 0.68496 0.27942
 H179 H 0.11789 0.85233 0.16323
 H180 H 0.15420 0.71788 0.17589
 H181 H 0.23737 0.81249 0.27690
 H182 H 0.28730 0.76876 0.22445
 H183 H 0.32548 0.64250 0.30886
 H184 H 0.19067 0.67714 0.29012
 C185 C 0.69356 0.33413 0.72245
 C186 C 0.68189 0.29188 0.73932
 C187 C 0.71426 0.26024 0.75361
 C188 C 0.75829 0.26951 0.74380
 C189 C 0.76883 0.31165 0.71772
 C190 C 0.73650 0.34409 0.70647
 C191 C 0.79283 0.23500 0.75710
 C192 C 0.83403 0.24552 0.78654
 C193 C 0.86560 0.21324 0.80448
 C194 C 0.85642 0.17028 0.78952
 C195 C 0.81464 0.15867 0.77049
 C196 C 0.78376 0.19099 0.74933
 H197 H 0.66833 0.35853 0.71117
 H198 H 0.70431 0.22833 0.76993
 H199 H 0.80175 0.31891 0.70242
 H200 H 0.84073 0.27833 0.80156
 H201 H 0.88036 0.14511 0.80477
 H202 H 0.75215 0.18109 0.73157
 C203 C 0.31946 0.68523 0.67647
 C204 C 0.33017 0.72852 0.66806
 C205 C 0.29921 0.76056 0.68898
 C206 C 0.25756 0.74936 0.71502
 C207 C 0.24700 0.70561 0.71791
 C208 C 0.27760 0.67344 0.69743
 C209 C 0.22387 0.78309 0.73336
 C210 C 0.18168 0.77849 0.70443
 C211 C 0.14826 0.80654 0.72958
 C212 C 0.15712 0.84166 0.78032
 C213 C 0.19979 0.84840 0.80558
 C214 C 0.23282 0.81868 0.78276
 H215 H 0.34270 0.66044 0.65756
 H216 H 0.30676 0.79402 0.68068
 H217 H 0.21469 0.69646 0.73400
 H218 H 0.17420 0.75189 0.66464
 H219 H 0.13104 0.86344 0.79965
 H220 H 0.26526 0.82279 0.80556
 C221 C 0.33131 0.32921 0.75864
 C222 C 0.28660 0.33789 0.75446
 C223 C 0.25884 0.30406 0.76921
 C224 C 0.27557 0.26192 0.78844
 C225 C 0.32095 0.25436 0.78835
 C226 C 0.34864 0.28727 0.76913
 C227 C 0.24627 0.22543 0.80449
 C228 C 0.26097 0.18257 0.79098
 C229 C 0.23691 0.14806 0.81789
 C230 C 0.19529 0.15576 0.84955
 C231 C 0.17842 0.19791 0.85824
 C232 C 0.20436 0.23253 0.83788
 H233 H 0.35289 0.35461 0.74342
 H234 H 0.22454 0.31045 0.76161
 H235 H 0.33551 0.22275 0.80015
 H236 H 0.29202 0.17519 0.76282
 H237 H 0.17647 0.12885 0.86914
 H238 H 0.19205 0.26470 0.85097
 C239 C 0.66694 0.68849 0.63201
 C240 C 0.71005 0.67556 0.64641
 C241 C 0.73960 0.70674 0.66280
 C242 C 0.72705 0.75099 0.66054
 C243 C 0.68376 0.76342 0.64058
 C244 C 0.65347 0.73209 0.62558
 C245 C 0.76009 0.78337 0.67636
 C246 C 0.75019 0.82080 0.72286
 C247 C 0.78322 0.84730 0.74823
 C248 C 0.82624 0.83565 0.72784
 C249 C 0.83632 0.79910 0.68121
 C250 C 0.80322 0.77445 0.65207
 H251 H 0.64443 0.66418 0.61699
 H252 H 0.77258 0.69609 0.67581
 H253 H 0.67406 0.79709 0.63355
 H254 H 0.71745 0.82817 0.74310
 H255 H 0.85241 0.85463 0.74922
 H256 H 0.81179 0.74666 0.61469
 N257 N 0.24315 0.07456 0.21505
 N258 N 0.25411 0.09870 0.27132
 N259 N 0.69660 0.60370 0.62354
 N260 N 0.72451 0.63235 0.62719
 N261 N 0.76687 0.91901 0.15338
 N262 N 0.75627 0.89019 0.20258
 N263 N 0.29747 0.40763 0.70516
 N264 N 0.27071 0.37828 0.71795
 N265 N 0.92524 0.20685 0.22220
 N266 N 0.89650 0.21392 0.27442
 N267 N 0.39638 0.70879 0.60797
 N268 N 0.36904 0.73913 0.62386
 N269 N 0.07089 0.80637 0.08401
 N270 N 0.09409 0.77514 0.11497
 N271 N 0.60992 0.30951 0.70795
 N272 N 0.63871 0.27989 0.72075
 N273 N 0.82824 0.08902 0.82676
 N274 N 0.80094 0.11688 0.79652
 N275 N 0.27906 0.58937 0.36481
 N276 N 0.24756 0.61532 0.34632
 N277 N 0.18346 0.91385 0.87705
 N278 N 0.21036 0.88358 0.85798
 N279 N 0.70218 0.40538 0.33931
 N280 N 0.73251 0.37729 0.32907
 N281 N 0.11196 0.17519 0.91216
 N282 N 0.13682 0.20582 0.89579
 N283 N 0.57914 0.69758 0.27605
 N284 N 0.60514 0.72711 0.25924
 N285 N 0.90694 0.78854 0.72630
 N286 N 0.88023 0.78450 0.66974
 N287 N 0.41363 0.29882 0.41151
 N288 N 0.38942 0.26756 0.39959
 N289 N 0.80565 0.90230 0.83285
 N290 N 0.77400 0.88381 0.80056
 N291 N 0.29225 0.39970 0.39763
 N292 N 0.26666 0.36883 0.40025
 N293 N 0.24620 0.07866 0.87202
 N294 N 0.25659 0.10563 0.81870
 N295 N 0.69483 0.59584 0.31567
 N296 N 0.72297 0.62245 0.29359
 N297 N 0.07525 0.79969 0.75506
 N298 N 0.10538 0.79760 0.70469
 N299 N 0.60328 0.29742 0.39702
 N300 N 0.63030 0.26703 0.37943
 N301 N 0.92425 0.19051 0.88663
 N302 N 0.90256 0.22236 0.85483
 N303 N 0.38348 0.69245 0.30101
 N304 N 0.35391 0.72090 0.28453
 N305 N 0.17050 0.90991 0.18424
 N306 N 0.19528 0.87829 0.20673
 N307 N 0.71405 0.41102 0.65011
 N308 N 0.74539 0.38403 0.66336
 N309 N 0.81522 0.09219 0.14040
 N310 N 0.78751 0.12298 0.14887
 N311 N 0.29434 0.60123 0.67313
 N312 N 0.26486 0.63046 0.68082
 N313 N 0.88265 0.81481 0.05524
 N314 N 0.85898 0.78433 0.07842
 N315 N 0.41594 0.30749 0.71969
 N316 N 0.39187 0.27701 0.74082
 N317 N 0.10864 0.17752 0.21178
 N318 N 0.13666 0.20598 0.21515
 N319 N 0.58533 0.71311 0.58281
 N320 N 0.61146 0.74328 0.59039
   
