data_POSCAR
  _audit_creation_date              2014-09-24
  _audit_creation_method            'ToBaCCo'
  _symmetry_space_group_name_H-M    'P1'
  _symmetry_Int_Tables_number       1
  _symmetry_cell_setting            triclinic
  loop_
  _symmetry_equiv_pos_as_xyz
 x,y,z
_cell_length_a 31.6780
_cell_length_b 31.6436
_cell_length_c 26.3128
_cell_angle_alpha 90.021700
_cell_angle_beta 89.944100
_cell_angle_gamma 119.956900
loop_
  _atom_site_label
  _atom_site_type_symbol
  _atom_site_fract_x
  _atom_site_fract_y
  _atom_site_fract_z
C1 C 0.08442 0.54512 0.10257
 C2 C 0.07108 0.50008 0.08012
 C3 C 0.03834 0.48406 0.03917
 C4 C 0.01573 0.51066 0.02286
 C5 C 0.02901 0.55528 0.04784
 C6 C 0.06468 0.57361 0.08595
 C7 C -0.02149 0.49199 -0.01954
 C8 C -0.03459 0.52326 -0.04470
 C9 C -0.07206 0.50561 -0.08114
 C10 C -0.09300 0.45657 -0.09628
 C11 C -0.07855 0.42500 -0.07506
 C12 C -0.04467 0.44260 -0.03497
 H13 H 0.10928 0.55752 0.13435
 H14 H 0.03152 0.45112 0.02005
 H15 H 0.01214 0.57645 0.03809
 H16 H -0.01596 0.56144 -0.03573
 H17 H -0.11905 0.44353 -0.12672
 H18 H -0.03757 0.41714 -0.01502
 C19 C 0.45716 0.54717 0.09764
 C20 C 0.50602 0.57562 0.08303
 C21 C 0.52428 0.55819 0.04462
 C22 C 0.49332 0.51439 0.01829
 C23 C 0.44354 0.48830 0.03223
 C24 C 0.42575 0.50338 0.07295
 C25 C 0.51242 0.49544 -0.02308
 C26 C 0.48699 0.44553 -0.03629
 C27 C 0.50249 0.42757 -0.07639
 C28 C 0.54662 0.45893 -0.10073
 C29 C 0.57468 0.50846 -0.08714
 C30 C 0.55592 0.52662 -0.04968
 H31 H 0.44383 0.55852 0.12959
 H32 H 0.56256 0.57896 0.03563
 H33 H 0.41792 0.45630 0.01138
 H34 H 0.45510 0.41990 -0.01531
 H35 H 0.55793 0.44475 -0.13188
 H36 H 0.57525 0.56497 -0.04106
 C37 C 0.45002 0.91184 0.10445
 C38 C 0.42143 0.93227 0.09007
 C39 C 0.43877 0.96813 0.05183
 C40 C 0.48262 0.98120 0.02550
 C41 C 0.50890 0.95765 0.03927
 C42 C 0.49399 0.92464 0.07980
 C43 C 0.50140 1.01923 -0.01585
 C44 C 0.55130 1.04381 -0.02901
 C45 C 0.56906 1.07681 -0.06946
 C46 C 0.53755 1.08898 -0.09428
 C47 C 0.48816 1.06776 -0.08058
 C48 C 0.47011 1.03130 -0.04265
 H49 H 0.43863 0.88683 0.13612
 H50 H 0.41786 0.98553 0.04289
 H51 H 0.54092 0.96419 0.01834
 H52 H 0.57705 1.03790 -0.00782
 H53 H 0.55156 1.11384 -0.12591
 H54 H 0.43180 1.01238 -0.03395
 C55 C 0.91235 0.44889 0.60414
 C56 C 0.93369 0.49751 0.58838
 C57 C 0.96905 0.51411 0.54997
 C58 C 0.98042 0.48189 0.52393
 C59 C 0.95708 0.43259 0.53993
 C60 C 0.92413 0.41629 0.58085
 C61 C 1.01628 0.49995 0.48046
 C62 C 1.04049 0.47476 0.46503
 C63 C 1.07379 0.49184 0.42454
 C64 C 1.08574 0.53647 0.40167
 C65 C 1.06356 0.56341 0.41676
 C66 C 1.02698 0.54320 0.45420
 H67 H 0.88744 0.43679 0.63593
 H68 H 0.98731 0.55232 0.54056
 H69 H 0.96349 0.40630 0.52043
 H70 H 1.03431 0.44217 0.48458
 H71 H 1.11111 0.54911 0.37042
 H72 H 1.00693 0.56137 0.46310
 C73 C 0.54701 0.45985 0.59856
 C74 C 0.49802 0.43221 0.58415
 C75 C 0.48048 0.44997 0.54545
 C76 C 0.51206 0.49327 0.51872
 C77 C 0.56177 0.51887 0.53281
 C78 C 0.57905 0.50338 0.57364
 C79 C 0.49354 0.51190 0.47658
 C80 C 0.51927 0.56167 0.46242
 C81 C 0.50351 0.57917 0.42203
 C82 C 0.45978 0.54727 0.39749
 C83 C 0.43207 0.49823 0.41193
 C84 C 0.44999 0.48044 0.45021
 H85 H 0.55992 0.44809 0.63050
 H86 H 0.44220 0.42977 0.53646
 H87 H 0.58770 0.55067 0.51187
 H88 H 0.55130 0.58753 0.48305
 H89 H 0.44784 0.56037 0.36584
 H90 H 0.42966 0.44212 0.45923
 C91 C 0.53635 0.08550 0.60469
 C92 C 0.56420 0.06419 0.59062
 C93 C 0.54641 0.02826 0.55254
 C94 C 0.50286 0.01590 0.52605
 C95 C 0.47690 0.03979 0.53990
 C96 C 0.49255 0.07332 0.58006
 C97 C 0.48446 -0.02160 0.48426
 C98 C 0.43463 -0.04671 0.47102
 C99 C 0.41737 -0.07994 0.43063
 C100 C 0.44954 -0.09138 0.40584
 C101 C 0.49910 -0.06893 0.41923
 C102 C 0.51639 -0.03253 0.45712
 H103 H 0.54820 0.11073 0.63618
 H104 H 0.56677 0.01023 0.54378
 H105 H 0.44475 0.03322 0.51921
 H106 H 0.40868 -0.04103 0.49219
 H107 H 0.43598 -0.11658 0.37446
 H108 H 0.55471 -0.01269 0.46563
 O109 O 0.15876 0.40093 0.19879
 O110 O 0.24566 0.39935 0.29188
 O111 O 0.16229 0.39869 0.29850
 O112 O 0.24152 0.40191 0.19316
 O113 O 0.28077 0.48245 0.19612
 O114 O 0.20214 0.47924 0.29977
 O115 O 0.28444 0.47988 0.29379
 O116 O 0.19881 0.48146 0.20143
 Cu117 Cu 0.19787 0.39201 0.24556
 Cu118 Cu 0.24536 0.48874 0.24815
 C119 C 0.16440 0.44170 0.18412
 C120 C 0.28036 0.43968 0.30794
 C121 C 0.16868 0.43870 0.31667
 C122 C 0.27494 0.44303 0.17716
 O123 O 0.60187 0.76147 0.20435
 O124 O 0.59976 0.84801 0.29736
 O125 O 0.59933 0.76492 0.30333
 O126 O 0.59673 0.84178 0.19824
 O127 O 0.51628 0.79933 0.19944
 O128 O 0.51885 0.72399 0.30294
 O129 O 0.51929 0.80627 0.29699
 O130 O 0.52140 0.72016 0.20502
 Cu131 Cu 0.60759 0.80832 0.25077
 Cu132 Cu 0.51100 0.75826 0.25117
 C133 C 0.56182 0.72578 0.18931
 C134 C 0.55907 0.84205 0.31252
 C135 C 0.55904 0.73085 0.32043
 C136 C 0.55565 0.83369 0.18156
 O137 O 0.14984 0.75297 0.30525
 O138 O 0.23574 0.84230 0.21205
 O139 O 0.15232 0.75876 0.20706
 O140 O 0.23259 0.83524 0.31132
 O141 O 0.27234 0.79448 0.30761
 O142 O 0.19357 0.71947 0.20409
 O143 O 0.27560 0.80164 0.20956
 O144 O 0.19025 0.71286 0.30111
 Cu145 Cu 0.18873 0.80164 0.25908
 Cu146 Cu 0.23712 0.75330 0.25518
 C147 C 0.15512 0.71719 0.31817
 C148 C 0.27070 0.83729 0.19551
 C149 C 0.15869 0.72510 0.18899
 C150 C 0.26623 0.82774 0.32699
 O151 O 0.84640 0.60142 0.70003
 O152 O 0.75955 0.60437 0.79234
 O153 O 0.84228 0.60373 0.79821
 O154 O 0.76387 0.60198 0.69297
 O155 O 0.72338 0.52145 0.69571
 O156 O 0.80116 0.52315 0.79914
 O157 O 0.71914 0.52383 0.79357
 O158 O 0.80475 0.52086 0.70204
 Cu159 Cu 0.80698 0.61109 0.74572
 Cu160 Cu 0.75789 0.51432 0.74793
 C161 C 0.84062 0.56037 0.68620
 C162 C 0.72423 0.56432 0.80819
 C163 C 0.83569 0.56335 0.81541
 C164 C 0.73001 0.56117 0.67683
 O165 O 0.39651 0.24637 0.70515
 O166 O 0.39345 0.15699 0.79770
 O167 O 0.39967 0.24269 0.80410
 O168 O 0.39651 0.16328 0.69856
 O169 O 0.47698 0.20241 0.69893
 O170 O 0.48009 0.28009 0.80296
 O171 O 0.47389 0.19519 0.79663
 O172 O 0.47695 0.28429 0.70524
 Cu173 Cu 0.38837 0.19848 0.75135
 Cu174 Cu 0.48492 0.24423 0.75090
 C175 C 0.43732 0.28086 0.69000
 C176 C 0.43331 0.16079 0.81253
 C177 C 0.44084 0.27533 0.82094
 C178 C 0.43671 0.16929 0.68139
 O179 O 0.75003 0.15190 0.71179
 O180 O 0.83587 0.23982 0.80600
 O181 O 0.75325 0.15839 0.81052
 O182 O 0.83397 0.23435 0.70611
 O183 O 0.79413 0.27504 0.70364
 O184 O 0.71458 0.20024 0.80705
 O185 O 0.79668 0.28110 0.80183
 O186 O 0.71137 0.19376 0.70931
 Cu187 Cu 0.79745 0.19207 0.75863
 Cu188 Cu 0.75039 0.24171 0.75497
 C189 C 0.71546 0.15759 0.69536
 C190 C 0.83045 0.27525 0.82011
 C191 C 0.72002 0.16649 0.82626
 C192 C 0.82785 0.26797 0.68751
 N193 N 0.09265 0.40489 0.12530
 N194 N 0.06847 0.42047 0.09725
 C195 C 0.09060 0.46955 0.10085
 C196 C 0.13091 0.48562 0.13221
 C197 C 0.13064 0.44368 0.14719
 H198 H 0.15621 0.52251 0.14420
 H199 H 0.08238 0.36825 0.13035
 H200 H 0.03621 0.39745 0.07795
 N201 N 0.60094 0.68820 0.13727
 N202 N 0.58626 0.64834 0.10951
 C203 C 0.53705 0.62333 0.10851
 C204 C 0.52008 0.64897 0.13648
 C205 C 0.56144 0.68944 0.15422
 H206 H 0.48277 0.63956 0.14377
 H207 H 0.63733 0.71341 0.14522
 H208 H 0.60983 0.63821 0.09291
 N209 N 0.30895 0.91477 0.14468
 N210 N 0.34895 0.94007 0.11719
 C211 C 0.37365 0.91551 0.11550
 C212 C 0.34764 0.87251 0.14274
 C213 C 0.30724 0.87354 0.16075
 H214 H 0.35687 0.84436 0.14944
 H215 H 0.28398 0.92620 0.15307
 H216 H 0.35944 0.97413 0.10128
 N217 N 0.91823 0.59604 0.63622
 N218 N 0.94326 0.57949 0.61112
 C219 C 0.91795 0.53020 0.61175
 C220 C 0.87481 0.51511 0.63801
 C221 C 0.87648 0.55771 0.65296
 H222 H 0.84613 0.47825 0.64592
 H223 H 0.93020 0.63290 0.64263
 H224 H 0.97757 0.60192 0.59520
 N225 N 0.40079 0.32101 0.63830
 N226 N 0.41673 0.36114 0.61073
 C227 C 0.46594 0.38489 0.60991
 C228 C 0.48162 0.35818 0.63792
 C229 C 0.43944 0.31830 0.65534
 H230 H 0.51858 0.36647 0.64527
 H231 H 0.36412 0.29654 0.64596
 H232 H 0.39398 0.37225 0.59405
 N233 N 0.67596 0.07988 0.64502
 N234 N 0.63578 0.05497 0.61776
 C235 C 0.61182 0.08026 0.61598
 C236 C 0.63848 0.12331 0.64293
 C237 C 0.67851 0.12157 0.66084
 H238 H 0.62993 0.15197 0.64948
 H239 H 0.70048 0.06789 0.65343
 H240 H 0.62470 0.02070 0.60205
 N241 N 0.39371 0.08845 0.87056
 N242 N 0.40928 0.06238 0.90059
 C243 C 0.45816 0.08313 0.89511
 C244 C 0.47411 0.12278 0.86219
 C245 C 0.43325 0.12479 0.84789
 H246 H 0.51086 0.14818 0.85005
 H247 H 0.35767 0.08053 0.86686
 H248 H 0.38582 0.03186 0.92207
 N249 N 0.69014 0.60346 0.86507
 N250 N 0.64804 0.58763 0.89438
 C251 C 0.62035 0.53862 0.88910
 C252 C 0.64480 0.52285 0.85700
 C253 C 0.68771 0.56399 0.84303
 H254 H 0.63379 0.48606 0.84515
 H255 H 0.71797 0.63966 0.86130
 H256 H 0.64036 0.61105 0.91515
 N257 N 0.89675 0.30589 0.88523
 N258 N 0.92140 0.34757 0.91544
 C259 C 0.90303 0.37721 0.90533
 C260 C 0.86600 0.35431 0.86942
 C261 C 0.86356 0.31056 0.85776
 H262 H 0.84348 0.36734 0.85265
 H263 H 0.90390 0.27707 0.88411
 H264 H 0.95095 0.35465 0.93858
 N265 N 0.59615 0.91442 0.37035
 N266 N 0.57921 0.93937 0.40026
 C267 C 0.53020 0.91707 0.39486
 C268 C 0.51553 0.87753 0.36202
 C269 C 0.55735 0.87719 0.34779
 H270 H 0.47907 0.85125 0.34990
 H271 H 0.63260 0.92367 0.36663
 H272 H 0.60195 0.97030 0.42155
 N273 N 0.32017 0.40177 0.35823
 N274 N 0.36048 0.41722 0.38530
 C275 C 0.38439 0.46648 0.38682
 C276 C 0.35756 0.48268 0.35992
 C277 C 0.31750 0.44080 0.34229
 H278 H 0.36601 0.51983 0.35324
 H279 H 0.29564 0.36522 0.35003
 H280 H 0.37169 0.39417 0.40106
 N281 N 0.08258 0.68032 0.37561
 N282 N 0.05669 0.63689 0.40292
 C283 C 0.07829 0.60975 0.39498
 C284 C 0.11828 0.63581 0.36310
 C285 C 0.11966 0.67918 0.35211
 H286 H 0.14413 0.62556 0.34949
 H287 H 0.07390 0.70808 0.37397
 H288 H 0.02575 0.62825 0.42443
 N289 N 0.90657 0.60132 0.87506
 N290 N 0.93280 0.58496 0.90360
 C291 C 0.91154 0.53602 0.89738
 C292 C 0.87113 0.52079 0.86588
 C293 C 0.86951 0.56219 0.85275
 H294 H 0.84579 0.48435 0.85282
 H295 H 0.91576 0.63774 0.87079
 H296 H 0.96434 0.60817 0.92376
 N297 N 0.40600 0.31015 0.88247
 N298 N 0.42256 0.35040 0.90991
 C299 C 0.47158 0.37665 0.90537
 C300 C 0.48661 0.35128 0.87431
 C301 C 0.44409 0.30984 0.86018
 H302 H 0.52302 0.36257 0.86092
 H303 H 0.36916 0.28466 0.87738
 H304 H 0.40016 0.36077 0.92880
 N305 N 0.68631 0.09790 0.88892
 N306 N 0.64646 0.07450 0.91696
 C307 C 0.61988 0.09692 0.91216
 C308 C 0.64462 0.13682 0.88033
 C309 C 0.68596 0.13572 0.86596
 H310 H 0.63299 0.16161 0.86663
 H311 H 0.71197 0.08671 0.88392
 H312 H 0.63655 0.04209 0.93640
 N313 N 0.09832 0.39932 0.37730
 N314 N 0.07357 0.41360 0.40632
 C315 C 0.09519 0.46273 0.40439
 C316 C 0.13598 0.48018 0.37343
 C317 C 0.13627 0.43903 0.35655
 H318 H 0.16058 0.51742 0.36192
 H319 H 0.08800 0.36295 0.37019
 H320 H 0.04089 0.38973 0.42453
 N321 N 0.59704 0.69796 0.38044
 N322 N 0.58209 0.65773 0.40762
 C323 C 0.53311 0.63030 0.40402
 C324 C 0.51640 0.65483 0.37402
 C325 C 0.55788 0.69702 0.35936
 H326 H 0.47950 0.64251 0.36158
 H327 H 0.63352 0.72426 0.37465
 H328 H 0.60549 0.64818 0.42565
 N329 N 0.29885 0.89606 0.38998
 N330 N 0.33875 0.92019 0.41774
 C331 C 0.36636 0.89892 0.41240
 C332 C 0.34224 0.85899 0.38045
 C333 C 0.30014 0.85887 0.36664
 H334 H 0.35467 0.83496 0.36633
 H335 H 0.27247 0.90636 0.38543
 H336 H 0.34792 0.95231 0.43741
 N337 N 0.59065 0.90378 0.12051
 N338 N 0.57407 0.92762 0.09332
 C339 C 0.52507 0.90484 0.09794
 C340 C 0.51005 0.86433 0.12874
 C341 C 0.55255 0.86528 0.14266
 H342 H 0.47361 0.83915 0.14203
 H343 H 0.62749 0.91506 0.12548
 H344 H 0.59643 0.96043 0.07449
 N345 N 0.30848 0.40750 0.11490
 N346 N 0.34836 0.42370 0.08692
 C347 C 0.37501 0.47271 0.09147
 C348 C 0.35031 0.48814 0.12303
 C349 C 0.30889 0.44586 0.13752
 H350 H 0.36203 0.52467 0.13645
 H351 H 0.28276 0.37070 0.12008
 H352 H 0.35823 0.40107 0.06766
 N353 N 0.08251 0.68753 0.13658
 N354 N 0.05711 0.64688 0.11009
 C355 C 0.08201 0.62251 0.10879
 C356 C 0.12539 0.64948 0.13488
 C357 C 0.12414 0.68998 0.15220
 H358 H 0.15337 0.64019 0.14232
 H359 H 0.07047 0.71195 0.14543
 H360 H 0.02251 0.63543 0.09524
 N361 N 0.39867 0.09810 0.62164
 N362 N 0.41373 0.07285 0.59453
 C363 C 0.46276 0.09474 0.59781
 C364 C 0.47936 0.13616 0.62750
 C365 C 0.43780 0.13664 0.64236
 H366 H 0.51628 0.16097 0.63970
 H367 H 0.36215 0.08766 0.62773
 H368 H 0.39040 0.03969 0.57682
 N369 N 0.69747 0.59772 0.61468
 N370 N 0.65750 0.58220 0.58707
 C371 C 0.62998 0.53327 0.59189
 C372 C 0.65419 0.51718 0.62325
 C373 C 0.69627 0.55900 0.63733
 H374 H 0.64176 0.48055 0.63682
 H375 H 0.72381 0.63435 0.61964
 H376 H 0.64821 0.60527 0.56785
 N377 N 0.89903 0.29905 0.62786
 N378 N 0.92420 0.33821 0.59914
 C379 C 0.90262 0.36576 0.60078
 C380 C 0.86146 0.34237 0.63114
 C381 C 0.86084 0.30078 0.64805
 H382 H 0.83679 0.35507 0.64225
 H383 H 0.90918 0.27290 0.63515
 H384 H 0.95707 0.34706 0.58132
   
