data_POSCAR
  _audit_creation_date              2014-09-24
  _audit_creation_method            'ToBaCCo'
  _symmetry_space_group_name_H-M    'P1'
  _symmetry_Int_Tables_number       1
  _symmetry_cell_setting            triclinic
  loop_
  _symmetry_equiv_pos_as_xyz
 x,y,z
_cell_length_a 34.7089
_cell_length_b 34.8435
_cell_length_c 33.8680
_cell_angle_alpha 90.098000
_cell_angle_beta 89.720800
_cell_angle_gamma 89.955300
loop_
  _atom_site_label
  _atom_site_type_symbol
  _atom_site_fract_x
  _atom_site_fract_y
  _atom_site_fract_z
C1 C 0.19043 0.18014 0.20613
 C2 C 0.22928 0.17470 0.19508
 C3 C 0.24473 0.19201 0.16084
 C4 C 0.22156 0.21789 0.13964
 C5 C 0.18331 0.22499 0.15110
 C6 C 0.16760 0.20514 0.18344
 H7 H 0.24691 0.15501 0.21189
 H8 H 0.23303 0.23237 0.11385
 H9 H 0.13788 0.21044 0.19176
 C10 C -0.20788 0.78961 0.28076
 C11 C -0.24164 0.80361 0.26276
 C12 C -0.25910 0.78361 0.23161
 C13 C -0.24358 0.74837 0.21950
 C14 C -0.21023 0.73340 0.23707
 C15 C -0.19270 0.75406 0.26784
 H16 H -0.25339 0.83116 0.27153
 H17 H -0.25688 0.73320 0.19520
 H18 H -0.16655 0.74290 0.28085
 C19 C -0.20394 0.20464 -0.25750
 C20 C -0.23414 0.18679 -0.23660
 C21 C -0.25270 0.20503 -0.20463
 C22 C -0.24177 0.24270 -0.19476
 C23 C -0.21112 0.26098 -0.21457
 C24 C -0.19254 0.24179 -0.24597
 H25 H -0.24269 0.15796 -0.24469
 H26 H -0.25559 0.25701 -0.17007
 H27 H -0.16880 0.25569 -0.26108
 C28 C 0.19877 0.81769 -0.21598
 C29 C 0.17668 0.79121 -0.19460
 C30 C 0.19288 0.77026 -0.16348
 C31 C 0.23120 0.77728 -0.15253
 C32 C 0.25361 0.80484 -0.17270
 C33 C 0.23738 0.82371 -0.20553
 H34 H 0.14697 0.78623 -0.20285
 H35 H 0.24307 0.76189 -0.12761
 H36 H 0.25388 0.84499 -0.22164
 C37 C 0.20316 1.21306 0.75692
 C38 C 0.23657 1.19717 0.77369
 C39 C 0.24771 1.20706 0.81224
 C40 C 0.22628 1.23457 0.83335
 C41 C 0.19325 1.25102 0.81680
 C42 C 0.18188 1.24012 0.77875
 H43 H 0.25250 1.17521 0.75785
 H44 H 0.23432 1.24196 0.86330
 H45 H 0.15589 1.25241 0.76646
 C46 C 0.80627 0.80286 0.73366
 C47 C 0.77074 0.81829 0.74637
 C48 C 0.74914 0.80048 0.77644
 C49 C 0.76236 0.76556 0.79224
 C50 C 0.79716 0.74884 0.77925
 C51 C 0.81889 0.76801 0.75013
 H52 H 0.76086 0.84537 0.73444
 H53 H 0.74575 0.75173 0.81531
 H54 H 0.84605 0.75587 0.74034
 C55 C 0.20113 0.79152 1.24556
 C56 C 0.23480 0.80786 1.22954
 C57 C 0.24821 0.79735 1.19196
 C58 C 0.22894 0.76878 1.17059
 C59 C 0.19481 0.75281 1.18565
 C60 C 0.18112 0.76419 1.22295
 H61 H 0.25003 0.83016 1.24544
 H62 H 0.23865 0.76132 1.14109
 H63 H 0.15456 0.75179 1.23402
 C64 C 0.82305 1.19847 1.25120
 C65 C 0.79667 1.17682 1.22890
 C66 C 0.77283 1.19434 1.20099
 C67 C 0.77638 1.23378 1.19395
 C68 C 0.80426 1.25579 1.21393
 C69 C 0.82600 1.23816 1.24400
 H70 H 0.79382 1.14622 1.23378
 H71 H 0.75882 1.24664 1.17115
 H72 H 0.84715 1.25480 1.26005
 O73 O 0.54854 0.98086 0.91937
 O74 O 0.47904 0.95750 1.07461
 O75 O 0.57118 0.93364 1.03112
 O76 O 0.45209 0.95086 0.98356
 O77 O 0.54967 0.96171 1.08314
 O78 O 0.47881 0.96643 0.92873
 O79 O 0.43351 0.98623 1.04399
 O80 O 0.55964 0.94015 0.96315
 C81 C 0.56059 0.94854 0.92810
 C82 C 0.44408 0.96079 1.06745
 C83 C 0.56759 0.93477 1.06744
 C84 C 0.45851 0.94348 0.94830
 O85 O 0.46749 1.04171 0.94590
 O86 O 0.55007 1.03460 1.07628
 O87 O 0.58795 1.01506 0.96571
 O88 O 0.46080 1.05044 1.01559
 O89 O 0.47701 1.03492 1.07452
 O90 O 0.53847 1.04995 0.94852
 O91 O 0.41677 1.01390 0.97264
 O92 O 0.59456 1.00748 1.03797
 Co93 Co 0.50873 1.00780 0.94256
 Co94 Co 0.51346 0.99703 1.07039
 Co95 Co 0.57331 0.97580 0.99933
 Co96 Co 0.45922 1.00009 0.99908
 O97 O 0.51591 0.99368 1.00589
 C98 C 0.43101 1.03666 0.94547
 C99 C 0.58447 1.03181 1.06428
 C100 C 0.57416 1.04589 0.95190
 C101 C 0.46132 1.05809 1.05141
 O102 O 0.03110 0.46256 0.04685
 O103 O 0.03162 0.53851 -0.05335
 O104 O -0.01240 0.42585 -0.04355
 O105 O -0.00345 0.58170 0.03170
 O106 O 0.03006 0.46932 -0.05234
 O107 O 0.03223 0.53625 0.05805
 O108 O -0.00939 0.58216 -0.04082
 O109 O -0.01163 0.42118 0.02769
 C110 C 0.02175 0.42865 0.03997
 C111 C 0.02412 0.57305 -0.05008
 C112 C 0.02156 0.43484 -0.05177
 C113 C 0.02625 0.57088 0.05022
 O114 O -0.03971 0.53344 0.08211
 O115 O -0.04131 0.47014 -0.08567
 O116 O -0.08238 0.45261 0.03167
 O117 O -0.08067 0.55444 -0.03591
 O118 O -0.04160 0.53955 -0.08358
 O119 O -0.04027 0.46231 0.07690
 O120 O -0.07651 0.56236 0.03889
 O121 O -0.08223 0.46161 -0.03947
 Co122 Co -0.00587 0.49866 0.05920
 Co123 Co -0.00701 0.50426 -0.06338
 Co124 Co -0.04530 0.44551 -0.00594
 Co125 Co -0.04102 0.56373 -0.00205
 O126 O -0.02476 0.50311 -0.00278
 C127 C -0.06874 0.55380 0.07377
 C128 C -0.07465 0.46086 -0.07516
 C129 C -0.07367 0.45256 0.06713
 C130 C -0.07377 0.55233 -0.07195
 O131 O 1.09435 0.03759 0.46018
 O132 O 0.92470 0.02780 0.52592
 O133 O 0.98972 0.02041 0.42302
 O134 O 1.04362 0.06753 0.54959
 O135 O 0.96943 0.05426 0.47309
 O136 O 1.09718 0.04017 0.53500
 O137 O 0.97625 0.05636 0.54629
 O138 O 1.05794 0.00654 0.41804
 C139 C 1.08251 0.03237 0.42568
 C140 C 0.94032 0.05145 0.55062
 C141 C 0.97529 0.05114 0.43666
 C142 C 1.07925 0.06789 0.54943
 O143 O 1.09255 -0.03378 0.53777
 O144 O 0.93651 -0.01044 0.46024
 O145 O 1.04457 -0.06362 0.45305
 O146 O 0.98695 -0.01584 0.57691
 O147 O 0.95890 -0.03605 0.52495
 O148 O 1.09804 -0.03597 0.46355
 O149 O 1.05634 -0.00325 0.58117
 O150 O 0.97950 -0.05187 0.45632
 Co151 Co 1.08864 0.00198 0.49914
 Co152 Co 0.96657 0.00919 0.50031
 Co153 Co 1.01828 -0.02023 0.44222
 Co154 Co 1.01638 0.02400 0.55803
 O155 O 1.02495 0.00228 0.49872
 C156 C 1.08138 -0.02856 0.57267
 C157 C 0.94603 -0.04267 0.44818
 C158 C 1.07999 -0.06452 0.45201
 C159 C 0.96520 -0.03955 0.56063
 C160 C 1.14418 0.12047 0.30050
 N161 N 1.18282 0.12134 0.29440
 N162 N 1.19769 0.14059 0.26399
 C163 C 1.17464 0.16032 0.23872
 N164 N 1.13593 0.15975 0.24533
 N165 N 1.12098 0.13997 0.27538
 C166 C 1.12781 0.09821 0.33336
 N167 N 1.09170 0.08345 0.33100
 N168 N 1.07732 0.06232 0.36035
 C169 C 1.09832 0.05568 0.39337
 N170 N 1.13427 0.07078 0.39591
 N171 N 1.14888 0.09138 0.36629
 C172 C 0.85175 -0.14263 0.35985
 N173 N 0.81755 -0.13073 0.34500
 N174 N 0.79792 -0.15299 0.32019
 C175 C 0.81161 -0.18804 0.30913
 N176 N 0.84560 -0.20004 0.32466
 N177 N 0.86526 -0.17780 0.34944
 C178 C 0.87495 -0.11715 0.38489
 N179 N 0.91051 -0.12828 0.39672
 N180 N 0.93270 -0.10460 0.41744
 C181 C 0.92020 -0.06890 0.42720
 N182 N 0.88447 -0.05775 0.41572
 N183 N 0.86225 -0.08148 0.39487
 C184 C 0.85404 0.14422 0.65547
 N185 N 0.82116 0.13022 0.67165
 N186 N 0.80235 0.14997 0.69936
 C187 C 0.81537 0.18471 0.71194
 N188 N 0.84804 0.19893 0.69511
 N189 N 0.86711 0.17899 0.66762
 C190 C 0.87586 0.12121 0.62664
 N191 N 0.91304 0.12992 0.61793
 N192 N 0.93343 0.10782 0.59340
 C193 C 0.91729 0.07641 0.57643
 N194 N 0.88001 0.06788 0.58481
 N195 N 0.85972 0.08979 0.60963
 C196 C 1.14833 -0.11750 0.69368
 N197 N 1.18623 -0.12710 0.69192
 N198 N 1.20232 -0.14766 0.72061
 C199 C 1.18099 -0.15983 0.75189
 N200 N 1.14302 -0.15041 0.75347
 N201 N 1.12703 -0.12948 0.72502
 C202 C 1.13072 -0.09448 0.66226
 N203 N 1.09676 -0.07597 0.66846
 N204 N 1.08104 -0.05478 0.64002
 C205 C 1.09850 -0.05175 0.60420
 N206 N 1.13231 -0.07046 0.59794
 N207 N 1.14825 -0.09126 0.62651
 C208 C 0.34977 1.15536 1.11723
 N209 N 0.32710 1.17891 1.09547
 N210 N 0.29391 1.19211 1.11018
 C211 C 0.28171 1.18176 1.14694
 N212 N 0.30496 1.15877 1.16878
 N213 N 0.33829 1.14597 1.15430
 C214 C 0.38354 1.13621 1.09977
 N215 N 0.40743 1.11562 1.12318
 N216 N 0.43421 1.09284 1.10746
 C217 C 0.43811 1.08964 1.06771
 N218 N 0.41494 1.11106 1.04418
 N219 N 0.38822 1.13408 1.05995
 C220 C 0.35667 0.84348 0.87265
 N221 N 0.34488 0.85467 0.83632
 N222 N 0.31233 0.84110 0.82107
 C223 C 0.29022 0.81559 0.84138
 N224 N 0.30290 0.80341 0.87721
 N225 N 0.33527 0.81731 0.89268
 C226 C 0.38864 0.86366 0.89193
 N227 N 0.39185 0.86344 0.93188
 N228 N 0.41617 0.88719 0.94996
 C229 C 0.43845 0.91173 0.92872
 N230 N 0.43619 0.91097 0.88873
 N231 N 0.41166 0.88747 0.87068
 C232 C 0.65519 0.83767 1.16479
 N233 N 0.67521 0.80752 1.14977
 N234 N 0.70147 0.78956 1.17155
 C235 C 0.70895 0.80118 1.20908
 N236 N 0.68852 0.83109 1.22420
 N237 N 0.66208 0.84892 1.20250
 C238 C 0.62909 0.85995 1.13972
 N239 N 0.60782 0.88888 1.15548
 N240 N 0.58701 0.91166 1.13238
 C241 C 0.58679 0.90650 1.09264
 N242 N 0.60762 0.87722 1.07685
 N243 N 0.62832 0.85427 1.10002
 C244 C 0.67193 1.14375 0.86569
 N245 N 0.69319 1.12606 0.83738
 N246 N 0.71657 1.14613 0.81409
 C247 C 0.72026 1.18472 0.81846
 N248 N 0.69875 1.20245 0.84690
 N249 N 0.67474 1.18241 0.86985
 C250 C 0.64746 1.12059 0.89170
 N251 N 0.61216 1.13297 0.90375
 N252 N 0.58890 1.10976 0.92422
 C253 C 0.60054 1.07375 0.93394
 N254 N 0.63613 1.06188 0.92260
 N255 N 0.65903 1.08475 0.90167
 C256 C 0.11691 0.30867 0.09413
 N257 N 0.15580 0.31215 0.09607
 N258 N 0.17696 0.28510 0.11338
 C259 C 0.16000 0.25378 0.12983
 N260 N 0.12109 0.25032 0.12778
 N261 N 0.09998 0.27715 0.11009
 C262 C 0.09322 0.33932 0.07704
 N263 N 0.05579 0.33268 0.06794
 N264 N 0.03346 0.36100 0.05488
 C265 C 0.04761 0.39709 0.05081
 N266 N 0.08515 0.40372 0.05961
 N267 N 0.10761 0.37528 0.07230
 C268 C -0.16459 0.36266 -0.16807
 N269 N -0.14881 0.34611 -0.20067
 N270 N -0.16442 0.31468 -0.21637
 C271 C -0.19635 0.29846 -0.20005
 N272 N -0.21253 0.31565 -0.16796
 N273 N -0.19695 0.34704 -0.15225
 C274 C -0.14434 0.39364 -0.14720
 N275 N -0.15714 0.40565 -0.11132
 N276 N -0.13592 0.42920 -0.08935
 C277 C -0.10117 0.44181 -0.10252
 N278 N -0.08887 0.43074 -0.13893
 N279 N -0.11007 0.40708 -0.16087
 C280 C 0.12486 0.68762 -0.10657
 N281 N 0.10885 0.72001 -0.12146
 N282 N 0.13060 0.74636 -0.13914
 C283 C 0.16930 0.74157 -0.14229
 N284 N 0.18545 0.70937 -0.12692
 N285 N 0.16360 0.68275 -0.10956
 C286 C 0.10004 0.65801 -0.08911
 N287 N 0.11278 0.62146 -0.08395
 N288 N 0.08893 0.59425 -0.07079
 C289 C 0.05165 0.60279 -0.06206
 N290 N 0.03921 0.63941 -0.06665
 N291 N 0.06289 0.66645 -0.08007
 C292 C -0.15621 0.63930 0.18249
 N293 N -0.13860 0.65793 0.21270
 N294 N -0.15628 0.68685 0.23130
 C295 C -0.19217 0.69826 0.22033
 N296 N -0.20996 0.67880 0.19083
 N297 N -0.19234 0.65004 0.17225
 C298 C -0.13514 0.61189 0.15744
 N299 N -0.15004 0.60194 0.12193
 N300 N -0.12935 0.58170 0.09613
 C301 C -0.09309 0.57019 0.10499
 N302 N -0.07843 0.57914 0.14098
 N303 N -0.09906 0.59980 0.16672
 C304 C 1.15686 0.16651 0.65314
 N305 N 1.19301 0.15695 0.66476
 N306 N 1.20835 0.17274 0.69691
 C307 C 1.18815 0.19870 0.71871
 N308 N 1.15233 0.20882 0.70644
 N309 N 1.13694 0.19298 0.67439
 C310 C 1.13788 0.14511 0.62134
 N311 N 1.09951 0.14938 0.61497
 N312 N 1.08101 0.12609 0.59024
 C313 C 1.10028 0.09781 0.57084
 N314 N 1.13883 0.09424 0.57641
 N315 N 1.15729 0.11743 0.60122
 C316 C 0.87587 -0.13749 0.65596
 N317 N 0.83815 -0.12804 0.66028
 N318 N 0.81562 -0.14731 0.68527
 C319 C 0.82969 -0.17733 0.70638
 N320 N 0.86743 -0.18701 0.70140
 N321 N 0.89017 -0.16726 0.67703
 C322 C 0.90081 -0.11504 0.62974
 N323 N 0.93693 -0.10490 0.64099
 N324 N 0.95827 -0.08172 0.61848
 C325 C 0.94452 -0.06868 0.58352
 N326 N 0.90872 -0.07947 0.57201
 N327 N 0.88714 -0.10199 0.59482
 C328 C 1.15567 -0.16545 0.34924
 N329 N 1.13598 -0.19200 0.32806
 N330 N 1.15121 -0.20699 0.29529
 C331 C 1.18649 -0.19562 0.28208
 N332 N 1.20639 -0.16970 0.30399
 N333 N 1.19132 -0.15492 0.33684
 C334 C 1.13702 -0.14436 0.38155
 N335 N 1.15696 -0.11705 0.40140
 N336 N 1.13896 -0.09314 0.42597
 C337 C 1.10032 -0.09561 0.43159
 N338 N 1.08047 -0.12367 0.41267
 N339 N 1.09853 -0.14768 0.38811
 C340 C 0.89473 0.14412 0.33025
 N341 N 0.87339 0.12371 0.30424
 N342 N 0.84986 0.14134 0.27929
 C343 C 0.84712 0.18022 0.27876
 N344 N 0.86874 0.20068 0.30485
 N345 N 0.89183 0.18296 0.33042
 C346 C 0.92027 0.12364 0.35728
 N347 N 0.93675 0.09038 0.34518
 N348 N 0.95632 0.06873 0.37033
 C349 C 0.95984 0.07921 0.40872
 N350 N 0.94384 0.11286 0.42089
 N351 N 0.92462 0.13491 0.39546
 C352 C 0.12291 0.32615 -0.11857
 N353 N 0.10737 0.29917 -0.14258
 N354 N 0.12987 0.27537 -0.16305
 C355 C 0.16878 0.27737 -0.15999
 N356 N 0.18441 0.30406 -0.13555
 N357 N 0.16186 0.32827 -0.11543
 C358 C 0.09764 0.35337 -0.09789
 N359 N 0.11097 0.38802 -0.08563
 N360 N 0.08694 0.41385 -0.06999
 C361 C 0.04889 0.40571 -0.06568
 N362 N 0.03580 0.37081 -0.07722
 N363 N 0.05969 0.34520 -0.09323
 C364 C -0.16108 0.35942 0.16769
 N365 N -0.19204 0.34082 0.15266
 N366 N -0.20468 0.30846 0.16905
 C367 C -0.18675 0.29317 0.20100
 N368 N -0.15678 0.31287 0.21697
 N369 N -0.14413 0.34525 0.20060
 C370 C -0.14224 0.38990 0.14484
 N371 N -0.10817 0.40483 0.15700
 N372 N -0.08729 0.42689 0.13299
 C373 C -0.09968 0.43471 0.09591
 N374 N -0.13430 0.42077 0.08420
 N375 N -0.15520 0.39878 0.10823
 C376 C -0.15940 0.65119 -0.16808
 N377 N -0.14134 0.66709 -0.19964
 N378 N -0.15582 0.69809 -0.21708
 C379 C -0.18896 0.71459 -0.20375
 N380 N -0.20743 0.69800 -0.17263
 N381 N -0.19283 0.66710 -0.15500
 C382 C -0.14067 0.62028 -0.14581
 N383 N -0.15367 0.61061 -0.10930
 N384 N -0.13346 0.58688 -0.08657
 C385 C -0.09967 0.57169 -0.09963
 N386 N -0.08728 0.58042 -0.13662
 N387 N -0.10740 0.60431 -0.15927
 C388 C 0.12671 0.67877 0.11835
 N389 N 0.11067 0.70834 0.13866
 N390 N 0.13251 0.73185 0.15993
 C391 C 0.17127 0.72694 0.16135
 N392 N 0.18748 0.69769 0.14055
 N393 N 0.16551 0.67378 0.11969
 C394 C 0.10198 0.65158 0.09732
 N395 N 0.11374 0.61494 0.09087
 N396 N 0.08983 0.58935 0.07504
 C397 C 0.05352 0.59963 0.06465
 N398 N 0.04204 0.63646 0.07038
 N399 N 0.06577 0.66190 0.08669
 C400 C 0.33096 1.13958 0.86832
 N401 N 0.30114 1.15499 0.88899
 N402 N 0.27556 1.17755 0.87132
 C403 C 0.27854 1.18529 0.83216
 N404 N 0.30850 1.16999 0.81145
 N405 N 0.33443 1.14776 0.82928
 C406 C 0.35747 1.11288 0.88777
 N407 N 0.39340 1.10614 0.87321
 N408 N 0.41707 1.08177 0.89143
 C409 C 0.40530 1.06285 0.92437
 N410 N 0.36931 1.06940 0.93863
 N411 N 0.34592 1.09409 0.92080
 C412 C 0.33348 0.86459 1.13874
 N413 N 0.30340 0.88094 1.15811
 N414 N 0.27670 0.85926 1.17534
 C415 C 0.27872 0.82042 1.17337
 N416 N 0.30862 0.80392 1.15365
 N417 N 0.33577 0.82567 1.13689
 C418 C 0.36244 0.88903 1.11981
 N419 N 0.39933 0.87689 1.11489
 N420 N 0.42560 0.89994 1.09861
 C421 C 0.41571 0.93567 1.08627
 N422 N 0.37877 0.94761 1.09087
 N423 N 0.35270 0.92483 1.10768
 C424 C 0.69431 1.12748 1.13726
 N425 N 0.72892 1.11284 1.14805
 N426 N 0.75385 1.13414 1.16829
 C427 C 0.74528 1.17099 1.17815
 N428 N 0.71080 1.18575 1.16696
 N429 N 0.68567 1.16429 1.14713
 C430 C 0.66613 1.10343 1.11664
 N431 N 0.62819 1.11282 1.11728
 N432 N 0.60228 1.09011 1.10023
 C433 C 0.61339 1.05744 1.08147
 N434 N 0.65140 1.04826 1.08035
 N435 N 0.67729 1.07075 1.09785
 C436 C 0.65598 0.85787 0.83027
 N437 N 0.66739 0.82282 0.84314
 N438 N 0.69604 0.80415 0.82521
 C439 C 0.71464 0.81974 0.79370
 N440 N 0.70272 0.85461 0.78044
 N441 N 0.67398 0.87331 0.79835
 C442 C 0.62730 0.87999 0.85303
 N443 N 0.61604 0.91558 0.84137
 N444 N 0.59318 0.93695 0.86438
 C445 C 0.58086 0.92350 0.89989
 N446 N 0.59165 0.88772 0.91116
 N447 N 0.61429 0.86635 0.88813
   
