data_POSCAR
  _audit_creation_date              2014-09-24
  _audit_creation_method            'ToBaCCo'
  _symmetry_space_group_name_H-M    'P1'
  _symmetry_Int_Tables_number       1
  _symmetry_cell_setting            triclinic
  loop_
  _symmetry_equiv_pos_as_xyz
 x,y,z
_cell_length_a 24.0254
_cell_length_b 24.0116
_cell_length_c 24.0319
_cell_angle_alpha 90.124700
_cell_angle_beta 90.120000
_cell_angle_gamma 90.144000
loop_
  _atom_site_label
  _atom_site_type_symbol
  _atom_site_fract_x
  _atom_site_fract_y
  _atom_site_fract_z
C1 C 0.27682 1.13077 -0.00093
 C2 C 0.27790 1.09781 0.04717
 C3 C 0.25604 1.04510 0.04451
 C4 C 0.22858 1.02564 -0.00356
 C5 C 0.22649 1.05967 -0.05166
 C6 C 0.25028 1.11319 -0.05034
 C7 C 0.20870 0.96742 -0.00285
 C8 C 0.21475 0.93427 -0.05093
 C9 C 0.22047 0.87665 -0.04633
 C10 C 0.22414 0.85412 0.00841
 C11 C 0.21765 0.88783 0.05727
 C12 C 0.20027 0.94195 0.04962
 H13 H 0.29589 1.17148 0.00036
 H14 H 0.26229 1.01904 0.08059
 H15 H 0.20509 1.04567 -0.08883
 H16 H 0.21952 0.95323 -0.09142
 H17 H 0.23366 0.81036 0.01308
 H18 H 0.19101 0.96657 0.08626
 C19 C 0.77892 0.62760 0.49593
 C20 C 0.78112 0.59499 0.54413
 C21 C 0.75859 0.54253 0.54282
 C22 C 0.72849 0.52339 0.49617
 C23 C 0.72434 0.55742 0.44836
 C24 C 0.75017 0.60980 0.44807
 C25 C 0.70805 0.46549 0.49755
 C26 C 0.71343 0.43201 0.44958
 C27 C 0.71981 0.37447 0.45448
 C28 C 0.72462 0.35249 0.50944
 C29 C 0.71856 0.38664 0.55815
 C30 C 0.70071 0.44057 0.55034
 H31 H 0.79786 0.66842 0.49622
 H32 H 0.76540 0.51695 0.57915
 H33 H 0.70092 0.54388 0.41225
 H34 H 0.71738 0.45078 0.40890
 H35 H 0.73474 0.30890 0.51439
 H36 H 0.69247 0.46571 0.58688
 C37 C 0.75913 1.00293 1.13589
 C38 C 0.76739 0.95024 1.11268
 C39 C 0.76564 0.94499 1.05470
 C40 C 0.75310 0.99186 1.02128
 C41 C 0.73809 1.04291 1.04750
 C42 C 0.74152 1.04862 1.10457
 C43 C 0.75530 0.98907 0.95952
 C44 C 0.75854 1.03982 0.93047
 C45 C 0.75366 1.04190 0.87365
 C46 C 0.75346 0.99079 0.84372
 C47 C 0.75633 0.93806 0.87081
 C48 C 0.75505 0.93799 0.92922
 H49 H 0.76341 1.00818 1.18040
 H50 H 0.77524 0.90502 1.03652
 H51 H 0.72055 1.07746 1.02477
 H52 H 0.76622 1.07890 0.95143
 H53 H 0.75230 0.99230 0.79874
 H54 H 0.75352 0.89827 0.95009
 C55 C 0.26349 0.50604 0.63492
 C56 C 0.27072 0.45296 0.61244
 C57 C 0.26756 0.44630 0.55465
 C58 C 0.25226 0.49200 0.52086
 C59 C 0.23623 0.54263 0.54670
 C60 C 0.24446 0.55048 0.60287
 C61 C 0.25329 0.48903 0.45923
 C62 C 0.25612 0.53980 0.43004
 C63 C 0.25113 0.54181 0.37322
 C64 C 0.25061 0.49052 0.34356
 C65 C 0.25337 0.43782 0.37092
 C66 C 0.25276 0.43791 0.42929
 H67 H 0.26774 0.51192 0.67927
 H68 H 0.27700 0.40603 0.53700
 H69 H 0.21616 0.57594 0.52414
 H70 H 0.26363 0.57894 0.45103
 H71 H 0.24927 0.49188 0.29857
 H72 H 0.25153 0.39836 0.45054
 C73 C 1.13074 0.22773 -0.00485
 C74 C 1.10950 0.22703 0.04929
 C75 C 1.05261 0.23792 0.05647
 C76 C 1.02032 0.25673 0.01089
 C77 C 1.04798 0.27115 -0.03908
 C78 C 1.10196 0.25387 -0.04799
 C79 C 0.95843 0.25714 0.01237
 C80 C 0.92994 0.25588 -0.03915
 C81 C 0.87283 0.25187 -0.04223
 C82 C 0.84308 0.24627 0.00885
 C83 C 0.86987 0.24610 0.06193
 C84 C 0.92783 0.25290 0.06282
 H85 H 1.17319 0.21490 -0.01234
 H86 H 1.03450 0.23151 0.09701
 H87 H 1.02826 0.29558 -0.07128
 H88 H 0.95192 0.25415 -0.07820
 H89 H 0.79828 0.24172 0.00730
 H90 H 0.94836 0.25438 0.10278
 C91 C 0.63341 0.72885 0.49304
 C92 C 0.61133 0.72511 0.54651
 C93 C 0.55409 0.73243 0.55357
 C94 C 0.52105 0.74961 0.50805
 C95 C 0.54765 0.76439 0.45755
 C96 C 0.60280 0.75133 0.44915
 C97 C 0.45946 0.75062 0.51084
 C98 C 0.43020 0.74890 0.46000
 C99 C 0.37328 0.75201 0.45803
 C100 C 0.34373 0.75093 0.50918
 C101 C 0.37126 0.74803 0.56181
 C102 C 0.42959 0.74979 0.56185
 H103 H 0.67705 0.72053 0.48677
 H104 H 0.53644 0.72497 0.59414
 H105 H 0.52646 0.78681 0.42481
 H106 H 0.45108 0.74272 0.42074
 H107 H 0.29871 0.75100 0.50775
 H108 H 0.45083 0.75039 0.60147
 C109 C -0.00009 0.73218 -0.13349
 C110 C 0.04569 0.72438 -0.09836
 C111 C 0.04139 0.73939 -0.04369
 C112 C -0.00605 0.76737 -0.02392
 C113 C -0.05336 0.77288 -0.05871
 C114 C -0.05070 0.75476 -0.11430
 C115 C -0.00462 0.78646 0.03433
 C116 C -0.05229 0.78139 0.06801
 C117 C -0.04705 0.77860 0.12598
 C118 C 0.00832 0.77613 0.14793
 C119 C 0.05663 0.78099 0.11329
 C120 C 0.04825 0.79572 0.05868
 H121 H 0.00387 0.71986 -0.17645
 H122 H 0.07621 0.72928 -0.01695
 H123 H -0.09079 0.79277 -0.04360
 H124 H -0.09287 0.77579 0.04918
 H125 H 0.01410 0.76846 0.19193
 H126 H 0.08460 0.80352 0.03322
 C127 C 0.49588 0.22510 0.37014
 C128 C 0.54347 0.22037 0.40360
 C129 C 0.54190 0.24055 0.45687
 C130 C 0.49575 0.27081 0.47637
 C131 C 0.44806 0.27647 0.44213
 C132 C 0.44791 0.25295 0.38859
 C133 C 0.49798 0.29043 0.53452
 C134 C 0.45037 0.28538 0.56836
 C135 C 0.45585 0.28013 0.62600
 C136 C 0.51104 0.27580 0.64773
 C137 C 0.55945 0.28117 0.61320
 C138 C 0.55117 0.29780 0.55897
 H139 H 0.49668 0.20826 0.32852
 H140 H 0.57769 0.23201 0.48281
 H141 H 0.41201 0.29931 0.45637
 H142 H 0.40949 0.28120 0.54983
 H143 H 0.51638 0.26649 0.69144
 H144 H 0.58753 0.30550 0.53349
 C145 C 1.14692 -0.00938 0.22379
 C146 C 1.12482 0.04571 0.22001
 C147 C 1.06702 0.05016 0.21414
 C148 C 1.03372 0.00195 0.20791
 C149 C 1.05883 -0.05060 0.20000
 C150 C 1.11282 -0.05814 0.21762
 C151 C 0.97558 0.00283 0.22736
 C152 C 0.95579 -0.04432 0.25626
 C153 C 0.90355 -0.04512 0.27959
 C154 C 0.87251 0.00443 0.27929
 C155 C 0.89010 0.05174 0.24979
 C156 C 0.94195 0.05087 0.22347
 H157 H 1.19061 -0.01458 0.23343
 H158 H 1.04783 0.09063 0.21871
 H159 H 1.03398 -0.08728 0.19114
 H160 H 0.98105 -0.08103 0.26211
 H161 H 0.83244 0.00556 0.29942
 H162 H 0.95549 0.08685 0.20003
 C163 C 0.64771 0.48969 0.72395
 C164 C 0.62581 0.54465 0.71982
 C165 C 0.56834 0.54981 0.71335
 C166 C 0.53463 0.50202 0.70779
 C167 C 0.55918 0.44888 0.70096
 C168 C 0.61345 0.44104 0.71803
 C169 C 0.47664 0.50425 0.72743
 C170 C 0.45736 0.45849 0.75844
 C171 C 0.40481 0.45778 0.78036
 C172 C 0.37216 0.50592 0.77640
 C173 C 0.39011 0.55313 0.74687
 C174 C 0.44275 0.55211 0.72179
 H175 H 0.69142 0.48471 0.73359
 H176 H 0.54974 0.59061 0.71734
 H177 H 0.53376 0.41232 0.69326
 H178 H 0.48296 0.42240 0.76640
 H179 H 0.33134 0.50618 0.79488
 H180 H 0.45667 0.58768 0.69793
 C181 C 1.00984 1.15782 0.75569
 C182 C 0.95842 1.12835 0.75106
 C183 C 0.96086 1.07107 0.74864
 C184 C 1.01205 1.04220 0.74652
 C185 C 1.06287 1.07250 0.74995
 C186 C 1.06263 1.13059 0.75595
 C187 C 1.00996 0.98024 0.74513
 C188 C 1.05576 0.94689 0.76151
 C189 C 1.04872 0.88927 0.76882
 C190 C 0.99468 0.86761 0.76577
 C191 C 0.95083 0.89839 0.74340
 C192 C 0.95948 0.95351 0.73013
 H193 H 1.00877 1.20273 0.75934
 H194 H 0.92165 1.04933 0.75172
 H195 H 1.10261 1.05173 0.74808
 H196 H 1.09631 0.96483 0.76911
 H197 H 0.98758 0.82411 0.77448
 H198 H 0.92668 0.97466 0.70779
 C199 C 0.50959 0.65630 0.25039
 C200 C 0.45818 0.62688 0.25061
 C201 C 0.45981 0.57012 0.25624
 C202 C 0.51027 0.54053 0.25395
 C203 C 0.56165 0.57022 0.25371
 C204 C 0.56216 0.62871 0.25399
 C205 C 0.50661 0.47880 0.25308
 C206 C 0.55216 0.44479 0.26811
 C207 C 0.54547 0.38695 0.27047
 C208 C 0.49250 0.36442 0.26253
 C209 C 0.44780 0.39675 0.24445
 C210 C 0.45567 0.45311 0.23713
 H211 H 0.50839 0.70131 0.24868
 H212 H 0.42056 0.54952 0.26388
 H213 H 0.60105 0.54871 0.25306
 H214 H 0.59247 0.46230 0.27780
 H215 H 0.48701 0.31993 0.26548
 H216 H 0.42224 0.47581 0.21744
 O217 O 0.28018 0.09850 0.14523
 O218 O 0.35392 0.09427 0.22591
 O219 O 0.13852 0.14436 0.22203
 O220 O 0.11495 0.21923 0.28622
 O221 O 0.19853 0.21561 0.08119
 O222 O 0.25649 0.29392 0.05908
 O223 O 0.26733 0.33576 0.35788
 O224 O 0.20628 0.25145 0.37934
 O225 O 0.41400 0.25778 0.29768
 O226 O 0.44176 0.19894 0.23551
 O227 O 0.34740 0.38198 0.23844
 O228 O 0.28334 0.39875 0.15363
 O229 O 0.25062 0.39271 0.28470
 O230 O 0.20720 0.40159 0.20412
 O231 O 0.40840 0.32111 0.20266
 O232 O 0.42468 0.22245 0.15939
 O233 O 0.34980 0.25699 0.36691
 O234 O 0.28237 0.20018 0.39284
 O235 O 0.31513 0.16876 0.09725
 O236 O 0.31901 0.25640 0.05362
 O237 O 0.12993 0.22996 0.14430
 O238 O 0.10320 0.28067 0.21806
 O239 O 0.21204 0.08530 0.22736
 O240 O 0.28451 0.07943 0.28723
 Zr241 Zr 0.27904 0.14056 0.22418
 O242 O 0.32352 0.19619 0.27566
 Zr243 Zr 0.17350 0.22794 0.22110
 O244 O 0.21682 0.29030 0.26827
 Zr245 Zr 0.27087 0.23692 0.12457
 O246 O 0.32001 0.29356 0.16768
 Zr247 Zr 0.27331 0.25203 0.32242
 O248 O 0.22732 0.18863 0.27786
 Zr249 Zr 0.36998 0.24780 0.22350
 O250 O 0.32787 0.19149 0.17329
 Zr251 Zr 0.26949 0.34128 0.21887
 O252 O 0.21797 0.28674 0.17167
 O253 O 0.22365 0.18016 0.17069
 O254 O 0.32348 0.30205 0.27371
 C255 C 0.29371 0.12079 0.09825
 C256 C 0.15965 0.09422 0.22414
 C257 C 0.14713 0.22306 0.09394
 C258 C 0.25726 0.38489 0.33658
 C259 C 0.40045 0.25727 0.34919
 C260 C 0.39768 0.36705 0.22575
 H261 H 0.34788 0.17417 0.30045
 H262 H 0.34017 0.31610 0.13974
 H263 H 0.20238 0.15260 0.14850
 H264 H 0.18925 0.31268 0.28900
 H265 H 0.18529 0.21649 0.37262
 H266 H 0.12048 0.25076 0.31225
 H267 H 0.42609 0.25284 0.13171
 H268 H 0.35854 0.25659 0.06530
 H269 H 0.28496 0.16175 0.37832
 H270 H 0.26100 0.09271 0.31829
 H271 H 0.26750 0.38189 0.11955
 H272 H 0.22230 0.31486 0.06864
 H273 H 0.34632 0.05755 0.20850
 H274 H 0.42917 0.16244 0.24986
 H275 H 0.11794 0.31915 0.21904
 H276 H 0.17950 0.38387 0.17914
 O277 O 0.77974 0.91762 0.20074
 O278 O 0.69457 0.93038 0.26421
 O279 O 0.90028 0.85661 0.28247
 O280 O 0.91289 0.77962 0.35107
 O281 O 0.85470 0.77712 0.14001
 O282 O 0.77205 0.70914 0.12021
 O283 O 0.74621 0.70076 0.41559
 O284 O 0.81652 0.76656 0.43357
 O285 O 0.61903 0.75985 0.34967
 O286 O 0.60904 0.85218 0.28016
 O287 O 0.66458 0.64182 0.26809
 O288 O 0.75622 0.62139 0.20637
 O289 O 0.74509 0.63217 0.35031
 O290 O 0.79897 0.60525 0.27798
 O291 O 0.60725 0.71507 0.25296
 O292 O 0.59484 0.79430 0.21408
 O293 O 0.68082 0.79094 0.41325
 O294 O 0.75305 0.83592 0.43635
 O295 O 0.76784 0.85453 0.13135
 O296 O 0.72255 0.77728 0.10228
 O297 O 0.91407 0.77422 0.21344
 O298 O 0.92058 0.71342 0.28267
 O299 O 0.82991 0.90748 0.31445
 O300 O 0.74808 0.94897 0.31821
 Zr301 Zr 0.76206 0.87452 0.27337
 O302 O 0.70766 0.83061 0.32336
 Zr303 Zr 0.85958 0.77686 0.28080
 O304 O 0.80509 0.72377 0.32502
 Zr305 Zr 0.77164 0.77802 0.17522
 O306 O 0.70953 0.73148 0.21849
 Zr307 Zr 0.75364 0.77515 0.37247
 O308 O 0.80843 0.82703 0.33056
 Zr309 Zr 0.65940 0.78031 0.27214
 O310 O 0.71291 0.82689 0.21968
 Zr311 Zr 0.74877 0.67721 0.27421
 O312 O 0.81190 0.72250 0.22914
 O313 O 0.81902 0.82937 0.22541
 O314 O 0.69923 0.72519 0.32544
 C315 C 0.77253 0.90500 0.14928
 C316 C 0.87849 0.90439 0.29474
 C317 C 0.90485 0.77581 0.16107
 C318 C 0.74591 0.64944 0.40119
 C319 C 0.63415 0.77008 0.40053
 C320 C 0.61524 0.66307 0.25852
 H321 H 0.68542 0.85755 0.34517
 H322 H 0.68674 0.71130 0.19064
 H323 H 0.84587 0.85218 0.20405
 H324 H 0.82748 0.69876 0.34879
 H325 H 0.84372 0.79708 0.42790
 H326 H 0.90468 0.74682 0.37458
 H327 H 0.61354 0.80501 0.17903
 H328 H 0.68375 0.78267 0.11492
 H329 H 0.77050 0.86964 0.42037
 H330 H 0.74083 0.93825 0.35738
 H331 H 0.72117 0.62316 0.18476
 H332 H 0.80472 0.68619 0.13027
 H333 H 0.67864 0.92429 0.22662
 H334 H 0.58048 0.84384 0.30863
 H335 H 0.90397 0.68085 0.26349
 H336 H 0.83614 0.61802 0.29045
 O337 O 0.76753 0.09355 0.79431
 O338 O 0.72930 0.08003 0.71777
 O339 O 0.90904 0.20719 0.76439
 O340 O 0.92231 0.28433 0.72905
 O341 O 0.79475 0.23651 0.90794
 O342 O 0.71999 0.27558 0.91959
 O343 O 0.77308 0.32716 0.60910
 O344 O 0.80235 0.24703 0.58009
 O345 O 0.61063 0.22703 0.67282
 O346 O 0.58193 0.19779 0.75334
 O347 O 0.67374 0.39064 0.77200
 O348 O 0.75410 0.42078 0.80068
 O349 O 0.72185 0.38139 0.66363
 O350 O 0.80678 0.41160 0.74064
 O351 O 0.61953 0.33554 0.72090
 O352 O 0.59008 0.25880 0.80526
 O353 O 0.66505 0.27837 0.61860
 O354 O 0.74251 0.19357 0.58960
 O355 O 0.74264 0.14429 0.86996
 O356 O 0.65858 0.21591 0.87852
 O357 O 0.87072 0.26100 0.85767
 O358 O 0.88355 0.34328 0.78228
 O359 O 0.85857 0.13074 0.74127
 O360 O 0.78428 0.11780 0.65867
 Zr361 Zr 0.77071 0.15538 0.73717
 O362 O 0.70724 0.19903 0.69478
 Zr363 Zr 0.84674 0.26418 0.76918
 O364 O 0.80215 0.30583 0.70573
 Zr365 Zr 0.73844 0.23211 0.84522
 O366 O 0.69590 0.29475 0.80073
 Zr367 Zr 0.75043 0.25746 0.65016
 O368 O 0.81391 0.21809 0.69907
 Zr369 Zr 0.65147 0.25064 0.74250
 O370 O 0.70056 0.18801 0.78287
 Zr371 Zr 0.74363 0.35034 0.74885
 O372 O 0.78395 0.30212 0.81207
 O373 O 0.80534 0.19748 0.80390
 O374 O 0.69452 0.30647 0.69322
 C375 C 0.75396 0.09705 0.84480
 C376 C 0.90600 0.15618 0.75180
 C377 C 0.84540 0.25024 0.90508
 C378 C 0.74017 0.36695 0.61388
 C379 C 0.61531 0.25981 0.63294
 C380 C 0.63369 0.38545 0.73931
 H381 H 0.68772 0.17233 0.67007
 H382 H 0.67095 0.31418 0.82707
 H383 H 0.82932 0.17397 0.82780
 H384 H 0.82845 0.33067 0.68605
 H385 H 0.84062 0.24351 0.59521
 H386 H 0.91454 0.28145 0.68860
 H387 H 0.57181 0.29533 0.79991
 H388 H 0.66325 0.19003 0.91025
 H389 H 0.70589 0.19849 0.57128
 H390 H 0.82126 0.13021 0.64537
 H391 H 0.75796 0.40587 0.83895
 H392 H 0.72364 0.31569 0.91053
 H393 H 0.68903 0.08782 0.72218
 H394 H 0.59739 0.15969 0.75683
 H395 H 0.87172 0.35650 0.81947
 H396 H 0.80162 0.42949 0.70390
 O397 O 0.22119 0.86140 0.85254
 O398 O 0.28725 0.88370 0.76864
 O399 O 0.08078 0.80025 0.78071
 O400 O 0.05874 0.73986 0.70404
 O401 O 0.14641 0.72120 0.89995
 O402 O 0.22880 0.64900 0.90771
 O403 O 0.23810 0.65066 0.61732
 O404 O 0.15351 0.71373 0.60013
 O405 O 0.35899 0.73300 0.66365
 O406 O 0.37978 0.79425 0.73828
 O407 O 0.29924 0.58619 0.74236
 O408 O 0.22333 0.57157 0.81855
 O409 O 0.20380 0.58941 0.67894
 O410 O 0.17195 0.55824 0.75442
 O411 O 0.36804 0.65118 0.74108
 O412 O 0.38610 0.72486 0.80861
 O413 O 0.28507 0.74759 0.60662
 O414 O 0.20422 0.78998 0.59636
 O415 O 0.23044 0.78825 0.91152
 O416 O 0.28710 0.71456 0.91887
 O417 O 0.09732 0.68483 0.83073
 O418 O 0.05502 0.67643 0.74350
 O419 O 0.14380 0.86918 0.76612
 O420 O 0.22010 0.89772 0.71873
 Zr421 Zr 0.22060 0.82595 0.76930
 O422 O 0.26751 0.78221 0.70809
 Zr423 Zr 0.12446 0.72762 0.76147
 O424 O 0.16808 0.67841 0.70615
 Zr425 Zr 0.22476 0.72091 0.85718
 O426 O 0.27685 0.67634 0.80229
 Zr427 Zr 0.21884 0.72854 0.65755
 O428 O 0.17120 0.78043 0.71093
 Zr429 Zr 0.32294 0.72729 0.74673
 O430 O 0.27793 0.77350 0.80934
 Zr431 Zr 0.22443 0.62885 0.75164
 O432 O 0.17325 0.67098 0.80686
 O433 O 0.17069 0.77578 0.81760
 O434 O 0.27438 0.67558 0.69744
 C435 C 0.22522 0.84034 0.90243
 C436 C 0.09345 0.85174 0.77290
 C437 C 0.09927 0.70693 0.87828
 C438 C 0.22604 0.60035 0.63271
 C439 C 0.33720 0.74254 0.61458
 C440 C 0.35063 0.60032 0.74201
 H441 H 0.28767 0.81016 0.68556
 H442 H 0.30224 0.65301 0.82472
 H443 H 0.14834 0.79738 0.84459
 H444 H 0.14049 0.65756 0.68360
 H445 H 0.11954 0.72993 0.61656
 H446 H 0.06771 0.77396 0.68267
 H447 H 0.42242 0.71945 0.78979
 H448 H 0.32214 0.72607 0.90053
 H449 H 0.18113 0.81897 0.61430
 H450 H 0.21503 0.88402 0.68017
 H451 H 0.26110 0.57011 0.83493
 H452 H 0.19242 0.62981 0.90445
 H453 H 0.30753 0.87929 0.80426
 H454 H 0.37379 0.81903 0.77061
 H455 H 0.06823 0.63742 0.74311
 H456 H 0.13419 0.57246 0.76262
 O457 O 0.28231 0.41929 0.70304
 O458 O 0.19621 0.43217 0.76638
 O459 O 0.40120 0.35710 0.78425
 O460 O 0.41427 0.28000 0.85291
 O461 O 0.35478 0.27793 0.64222
 O462 O 0.27185 0.21010 0.62308
 O463 O 0.25215 0.20248 0.91878
 O464 O 0.31925 0.27082 0.93551
 O465 O 0.11885 0.26442 0.85294
 O466 O 0.11080 0.35482 0.78306
 O467 O 0.16493 0.14336 0.76987
 O468 O 0.25690 0.12183 0.71052
 O469 O 0.24180 0.13411 0.85425
 O470 O 0.29895 0.10638 0.78320
 O471 O 0.10722 0.21714 0.75905
 O472 O 0.09704 0.29427 0.71558
 O473 O 0.18287 0.28880 0.91774
 O474 O 0.25334 0.33824 0.93831
 O475 O 0.26789 0.35549 0.63448
 O476 O 0.22246 0.27799 0.60544
 O477 O 0.41467 0.27454 0.71532
 O478 O 0.42131 0.21387 0.78461
 O479 O 0.33145 0.40770 0.81801
 O480 O 0.24947 0.45081 0.82034
 Zr481 Zr 0.26351 0.37616 0.77583
 O482 O 0.20926 0.33233 0.82639
 Zr483 Zr 0.36048 0.27745 0.78300
 O484 O 0.30606 0.22472 0.82776
 Zr485 Zr 0.27192 0.27894 0.67814
 O486 O 0.20986 0.23283 0.72198
 Zr487 Zr 0.25532 0.27675 0.87515
 O488 O 0.30989 0.32824 0.83276
 Zr489 Zr 0.16034 0.28232 0.77552
 O490 O 0.21378 0.32849 0.72266
 Zr491 Zr 0.24897 0.17841 0.77766
 O492 O 0.31209 0.22319 0.73192
 O493 O 0.31991 0.33017 0.72781
 O494 O 0.20019 0.22714 0.82877
 C495 C 0.27472 0.40592 0.65178
 C496 C 0.37969 0.40465 0.79763
 C497 C 0.40500 0.27643 0.66305
 C498 C 0.24735 0.15113 0.90503
 C499 C 0.13490 0.27154 0.90404
 C500 C 0.11548 0.16496 0.76204
 H501 H 0.18715 0.35875 0.84896
 H502 H 0.18667 0.21284 0.69433
 H503 H 0.34688 0.35264 0.70625
 H504 H 0.32856 0.19966 0.85134
 H505 H 0.34553 0.30199 0.92913
 H506 H 0.40563 0.24759 0.87680
 H507 H 0.11565 0.31042 0.68262
 H508 H 0.18368 0.28309 0.61826
 H509 H 0.27097 0.37184 0.92227
 H510 H 0.24213 0.44028 0.85954
 H511 H 0.22329 0.12564 0.68698
 H512 H 0.30436 0.18691 0.63316
 H513 H 0.18098 0.42667 0.72842
 H514 H 0.07871 0.34511 0.80701
 H515 H 0.40426 0.18116 0.76607
 H516 H 0.33612 0.11924 0.79553
 O517 O 0.78263 0.59900 0.64477
 O518 O 0.85691 0.59481 0.72601
 O519 O 0.64162 0.64574 0.72188
 O520 O 0.61830 0.72082 0.78546
 O521 O 0.70213 0.71522 0.58054
 O522 O 0.76091 0.79548 0.55961
 O523 O 0.77030 0.83609 0.85761
 O524 O 0.71110 0.75446 0.87994
 O525 O 0.91718 0.75387 0.79667
 O526 O 0.94479 0.69781 0.73308
 O527 O 0.85097 0.88261 0.73664
 O528 O 0.78742 0.89891 0.65257
 O529 O 0.75570 0.89325 0.78409
 O530 O 0.71046 0.90133 0.70350
 O531 O 0.91314 0.82058 0.70430
 O532 O 0.92711 0.72314 0.65723
 O533 O 0.85357 0.76120 0.86582
 O534 O 0.78687 0.69749 0.88943
 O535 O 0.81811 0.66835 0.59521
 O536 O 0.82226 0.75363 0.55185
 O537 O 0.63354 0.73036 0.64366
 O538 O 0.60715 0.78219 0.71715
 O539 O 0.71477 0.58622 0.72842
 O540 O 0.78301 0.57757 0.78489
 Zr541 Zr 0.78192 0.64092 0.72384
 O542 O 0.82684 0.69633 0.77524
 Zr543 Zr 0.67703 0.72893 0.72042
 O544 O 0.72064 0.79100 0.76747
 Zr545 Zr 0.77450 0.73667 0.62366
 O546 O 0.82379 0.79332 0.66680
 Zr547 Zr 0.77703 0.75274 0.82176
 O548 O 0.73058 0.68960 0.77736
 Zr549 Zr 0.87326 0.74732 0.72250
 O550 O 0.83106 0.69105 0.67258
 Zr551 Zr 0.77334 0.84152 0.71782
 O552 O 0.72176 0.78706 0.67055
 O553 O 0.72688 0.68052 0.67019
 O554 O 0.82725 0.80206 0.77248
 C555 C 0.79730 0.62015 0.59759
 C556 C 0.66257 0.59565 0.72462
 C557 C 0.65083 0.72246 0.59353
 C558 C 0.76096 0.88527 0.83619
 C559 C 0.90418 0.75765 0.84818
 C560 C 0.90146 0.86727 0.72553
 H561 H 0.85119 0.67446 0.80016
 H562 H 0.84470 0.81573 0.63932
 H563 H 0.70543 0.65284 0.64832
 H564 H 0.69319 0.81363 0.78808
 H565 H 0.68854 0.72053 0.87322
 H566 H 0.62429 0.75219 0.81159
 H567 H 0.92936 0.75461 0.63083
 H568 H 0.86157 0.75701 0.56386
 H569 H 0.76989 0.66185 0.87744
 H570 H 0.80106 0.59376 0.81823
 H571 H 0.77092 0.88242 0.61863
 H572 H 0.72539 0.81458 0.56805
 H573 H 0.84939 0.55817 0.70843
 H574 H 0.93226 0.66139 0.74767
 H575 H 0.62214 0.82056 0.71827
 H576 H 0.68377 0.88418 0.67706
 O577 O 0.26520 0.59343 0.29365
 O578 O 0.22604 0.57999 0.21760
 O579 O 0.40661 0.70659 0.26469
 O580 O 0.41972 0.78248 0.22553
 O581 O 0.29406 0.73507 0.40650
 O582 O 0.21970 0.77616 0.41890
 O583 O 0.27046 0.82681 0.10804
 O584 O 0.29888 0.74644 0.07888
 O585 O 0.10790 0.72773 0.17336
 O586 O 0.07938 0.69936 0.25406
 O587 O 0.17280 0.89125 0.27164
 O588 O 0.25348 0.92095 0.29966
 O589 O 0.22040 0.88192 0.16284
 O590 O 0.30574 0.91136 0.23951
 O591 O 0.11813 0.83645 0.22076
 O592 O 0.08859 0.76028 0.30571
 O593 O 0.16215 0.77854 0.11839
 O594 O 0.23886 0.69350 0.08886
 O595 O 0.24049 0.64433 0.36924
 O596 O 0.15726 0.71677 0.37857
 O597 O 0.36887 0.76225 0.35558
 O598 O 0.38283 0.84254 0.27936
 O599 O 0.35580 0.63092 0.23914
 O600 O 0.28015 0.61734 0.15777
 Zr601 Zr 0.26786 0.65528 0.23631
 O602 O 0.20440 0.69931 0.19440
 Zr603 Zr 0.34469 0.76390 0.26738
 O604 O 0.29999 0.80569 0.20430
 Zr605 Zr 0.23693 0.73224 0.34450
 O606 O 0.19458 0.79526 0.30033
 Zr607 Zr 0.24759 0.75737 0.14933
 O608 O 0.31116 0.71763 0.19774
 Zr609 Zr 0.14942 0.75139 0.24252
 O610 O 0.19825 0.68835 0.28252
 Zr611 Zr 0.24219 0.85054 0.24795
 O612 O 0.28257 0.80208 0.31092
 O613 O 0.30325 0.69738 0.30257
 O614 O 0.19238 0.80688 0.19273
 C615 C 0.25164 0.59698 0.34416
 C616 C 0.40311 0.65606 0.25072
 C617 C 0.34416 0.75041 0.40292
 C618 C 0.23833 0.86722 0.11303
 C619 C 0.11249 0.76016 0.13320
 C620 C 0.13271 0.88628 0.23903
 H621 H 0.18453 0.67267 0.16989
 H622 H 0.17000 0.81488 0.32688
 H623 H 0.32723 0.67381 0.32639
 H624 H 0.32633 0.83033 0.18443
 H625 H 0.33726 0.74274 0.09369
 H626 H 0.41138 0.77807 0.18533
 H627 H 0.07074 0.79704 0.30050
 H628 H 0.16206 0.69109 0.41045
 H629 H 0.20203 0.69843 0.07097
 H630 H 0.31696 0.62961 0.14387
 H631 H 0.25746 0.90605 0.33792
 H632 H 0.22437 0.81615 0.40982
 H633 H 0.18584 0.58799 0.22218
 H634 H 0.09445 0.66112 0.25773
 H635 H 0.37027 0.85702 0.31584
 H636 H 0.30069 0.92919 0.20272
 O637 O 0.72061 0.35849 0.35319
 O638 O 0.78730 0.37876 0.26951
 O639 O 0.57980 0.29649 0.28266
 O640 O 0.55954 0.23516 0.20277
 O641 O 0.64411 0.21745 0.40038
 O642 O 0.72767 0.14549 0.40851
 O643 O 0.73177 0.14661 0.11599
 O644 O 0.64975 0.21163 0.10281
 O645 O 0.85698 0.23258 0.16405
 O646 O 0.87571 0.29434 0.25553
 O647 O 0.79925 0.08387 0.24414
 O648 O 0.72487 0.06816 0.31991
 O649 O 0.70581 0.08534 0.18168
 O650 O 0.67093 0.05650 0.25745
 O651 O 0.86745 0.14952 0.24456
 O652 O 0.89412 0.22195 0.29711
 O653 O 0.78310 0.23948 0.10569
 O654 O 0.70602 0.28793 0.09823
 O655 O 0.72836 0.28563 0.41277
 O656 O 0.78325 0.21148 0.42259
 O657 O 0.59398 0.18175 0.33124
 O658 O 0.55280 0.17381 0.24590
 O659 O 0.64266 0.36532 0.26628
 O660 O 0.71890 0.39525 0.22104
 Zr661 Zr 0.71948 0.32243 0.27008
 O662 O 0.76600 0.27910 0.20795
 Zr663 Zr 0.62328 0.22399 0.26264
 O664 O 0.66742 0.17441 0.20789
 Zr665 Zr 0.72312 0.21789 0.35873
 O666 O 0.77643 0.17436 0.30425
 Zr667 Zr 0.71711 0.22460 0.15827
 O668 O 0.66981 0.27682 0.21182
 Zr669 Zr 0.82155 0.22510 0.24755
 O670 O 0.77639 0.27003 0.31076
 Zr671 Zr 0.72450 0.12622 0.25367
 O672 O 0.67229 0.16772 0.30834
 O673 O 0.66941 0.27251 0.31870
 O674 O 0.77362 0.17267 0.19840
 C675 C 0.72408 0.33775 0.40332
 C676 C 0.59259 0.34778 0.27425
 C677 C 0.59673 0.20315 0.37908
 C678 C 0.72482 0.09610 0.13387
 C679 C 0.83533 0.23890 0.11443
 C680 C 0.85045 0.09853 0.24488
 H681 H 0.78541 0.30694 0.18469
 H682 H 0.80207 0.15149 0.32685
 H683 H 0.64734 0.29421 0.34585
 H684 H 0.64022 0.15271 0.18566
 H685 H 0.61866 0.23475 0.11638
 H686 H 0.56572 0.27195 0.18518
 H687 H 0.88119 0.21505 0.33554
 H688 H 0.81792 0.22738 0.40705
 H689 H 0.68281 0.31688 0.11605
 H690 H 0.71463 0.38233 0.18213
 H691 H 0.76220 0.06854 0.33733
 H692 H 0.69114 0.12652 0.40568
 H693 H 0.81031 0.37016 0.30261
 H694 H 0.87271 0.31645 0.22097
 H695 H 0.56583 0.13482 0.24290
 H696 H 0.63344 0.07145 0.26560
   
