data_POSCAR
  _audit_creation_date              2014-09-24
  _audit_creation_method            'ToBaCCo'
  _symmetry_space_group_name_H-M    'P1'
  _symmetry_Int_Tables_number       1
  _symmetry_cell_setting            triclinic
  loop_
  _symmetry_equiv_pos_as_xyz
 x,y,z
_cell_length_a 24.8852
_cell_length_b 33.6561
_cell_length_c 17.0531
_cell_angle_alpha 90.008600
_cell_angle_beta 89.769300
_cell_angle_gamma 89.902900
loop_
  _atom_site_label
  _atom_site_type_symbol
  _atom_site_fract_x
  _atom_site_fract_y
  _atom_site_fract_z
C1 C 0.67849 0.34169 0.49842
 C2 C 0.69279 0.32524 0.57096
 C3 C 0.72302 0.28979 0.57073
 C4 C 0.73322 0.26859 0.50006
 C5 C 0.71298 0.28476 0.42919
 C6 C 0.68792 0.32206 0.42745
 C7 C 0.76392 0.22965 0.49975
 C8 C 0.78425 0.21345 0.42857
 C9 C 0.80932 0.17597 0.42628
 C10 C 0.81871 0.15656 0.49770
 C11 C 0.80403 0.17313 0.56987
 C12 C 0.77402 0.20848 0.57020
 H13 H 0.65741 0.36994 0.49728
 H14 H 0.73879 0.27922 0.62528
 H15 H 0.71571 0.26838 0.37538
 H16 H 0.78181 0.23022 0.37529
 H17 H 0.84002 0.12840 0.49739
 H18 H 0.75876 0.21900 0.62533
 C19 C 0.18090 0.84310 0.50572
 C20 C 0.19708 0.82687 0.57761
 C21 C 0.22777 0.79177 0.57621
 C22 C 0.23618 0.77030 0.50556
 C23 C 0.21481 0.78630 0.43520
 C24 C 0.18906 0.82347 0.43439
 C25 C 0.26643 0.73127 0.50552
 C26 C 0.28741 0.71509 0.43489
 C27 C 0.31307 0.67791 0.43385
 C28 C 0.32163 0.65843 0.50513
 C29 C 0.30584 0.67479 0.57727
 C30 C 0.27523 0.70996 0.57625
 H31 H 0.15941 0.87119 0.50552
 H32 H 0.24544 0.78166 0.62987
 H33 H 0.21740 0.76987 0.38133
 H34 H 0.28456 0.73139 0.38094
 H35 H 0.34301 0.63029 0.50461
 H36 H 0.25786 0.72021 0.63025
 C37 C 0.31547 0.34389 -0.49756
 C38 C 0.30767 0.32409 -0.56868
 C39 C 0.28284 0.28663 -0.56733
 C40 C 0.26234 0.27030 -0.49644
 C41 C 0.27101 0.29174 -0.42591
 C42 C 0.30027 0.32733 -0.42568
 C43 C 0.23302 0.23093 -0.49600
 C44 C 0.22446 0.20959 -0.42517
 C45 C 0.19489 0.17399 -0.42398
 C46 C 0.17999 0.15733 -0.49606
 C47 C 0.18787 0.17706 -0.56733
 C48 C 0.21247 0.21455 -0.56641
 H49 H 0.33630 0.37218 -0.49782
 H50 H 0.28056 0.27020 -0.62116
 H51 H 0.25515 0.28127 -0.37113
 H52 H 0.24110 0.22016 -0.37120
 H53 H 0.15941 0.12892 -0.49645
 H54 H 0.21470 0.23095 -0.62028
 C55 C -0.17809 0.84199 -0.50525
 C56 C -0.19406 0.82582 -0.57728
 C57 C -0.22424 0.79054 -0.57616
 C58 C -0.23257 0.76898 -0.50561
 C59 C -0.21139 0.78496 -0.43514
 C60 C -0.18605 0.82220 -0.43407
 C61 C -0.26252 0.72991 -0.50567
 C62 C -0.28340 0.71368 -0.43500
 C63 C -0.30899 0.67652 -0.43403
 C64 C -0.31720 0.65696 -0.50529
 C65 C -0.30128 0.67332 -0.57701
 C66 C -0.27137 0.70863 -0.57642
 H67 H -0.15696 0.87017 -0.50482
 H68 H -0.24157 0.78032 -0.62995
 H69 H -0.21383 0.76847 -0.38136
 H70 H -0.28075 0.72999 -0.38105
 H71 H -0.33857 0.62889 -0.50522
 H72 H -0.25508 0.71901 -0.63105
 N73 N 0.05361 1.04306 0.13902
 N74 N 0.08264 1.05287 0.20037
 N75 N -0.05813 1.07169 0.08284
 N76 N -0.08763 1.10208 0.10750
 N77 N -0.05942 1.04279 0.13462
 N78 N -0.09032 1.05255 0.19436
 N79 N 0.05430 1.07176 0.08668
 N80 N 0.08350 1.10195 0.11215
 C81 C 0.10217 1.08915 0.18233
 C82 C -0.10897 1.08904 0.17611
 N83 N -0.05394 1.04208 -0.13949
 N84 N -0.08505 1.05062 -0.19940
 N85 N 0.05769 1.07145 -0.08387
 N86 N 0.08856 1.10119 -0.10759
 N87 N 0.05924 1.04236 -0.13516
 N88 N 0.09165 1.05127 -0.19364
 N89 N -0.05507 1.07096 -0.08766
 N90 N -0.08672 1.10009 -0.11201
 Mn91 Mn -0.00030 1.07181 -0.00058
 C92 C -0.10652 1.08630 -0.18084
 C93 C 0.11104 1.08747 -0.17504
 N94 N -0.05917 0.95774 0.13466
 N95 N -0.09197 0.94896 0.19274
 N96 N 0.05502 0.92870 0.08775
 N97 N 0.08410 0.89850 0.11380
 N98 N 0.05389 0.95747 0.13990
 N99 N 0.08244 0.94765 0.20182
 N100 N -0.05754 0.92863 0.08337
 N101 N -0.08873 0.89900 0.10672
 Mn102 Mn -0.00272 1.00025 0.13706
 C103 C -0.11151 0.91283 0.17387
 C104 C 0.10220 0.91131 0.18423
 N105 N 0.06009 0.95758 -0.13425
 N106 N 0.09308 0.94892 -0.19216
 N107 N -0.05369 0.92807 -0.08708
 N108 N -0.08231 0.89765 -0.11293
 N109 N -0.05297 0.95671 -0.13946
 N110 N -0.08139 0.94663 -0.20127
 N111 N 0.05889 0.92860 -0.08271
 N112 N 0.09057 0.89911 -0.10581
 Mn113 Mn 0.00305 0.99970 -0.13714
 Mn114 Mn 0.00068 0.92816 0.00035
 Cl115 Cl 0.00017 0.99998 -0.00002
 C116 C 0.11319 0.91297 -0.17303
 C117 C -0.10060 0.91023 -0.18345
 N118 N 0.44181 0.42918 -0.08520
 N119 N 0.40997 0.39995 -0.10823
 N120 N 0.55429 0.45743 -0.14095
 N121 N 0.58531 0.44843 -0.20110
 N122 N 0.55460 0.42856 -0.08912
 N123 N 0.58558 0.39899 -0.11369
 N124 N 0.44109 0.45821 -0.13660
 N125 N 0.40834 0.44980 -0.19456
 C126 C 0.38787 0.41397 -0.17543
 C127 C 0.60589 0.41247 -0.18267
 N128 N 0.55543 0.57144 -0.08816
 N129 N 0.58492 0.60155 -0.11361
 N130 N 0.44159 0.54302 -0.13589
 N131 N 0.40917 0.55204 -0.19394
 N132 N 0.44282 0.57193 -0.08419
 N133 N 0.41172 0.60170 -0.10724
 N134 N 0.55468 0.54282 -0.14058
 N135 N 0.58394 0.55259 -0.20206
 Mn136 Mn 0.49797 0.50035 -0.13859
 C137 C 0.60371 0.58876 -0.18392
 C138 C 0.38944 0.58813 -0.17467
 N139 N 0.55666 0.42792 0.08133
 N140 N 0.58575 0.39736 0.10579
 N141 N 0.44502 0.45733 0.13761
 N142 N 0.41561 0.44765 0.19902
 N143 N 0.44422 0.42868 0.08519
 N144 N 0.41455 0.39865 0.11064
 N145 N 0.55807 0.45680 0.13315
 N146 N 0.58866 0.44688 0.19273
 Mn147 Mn 0.49931 0.42824 -0.00203
 C148 C 0.60694 0.41027 0.17433
 C149 C 0.39571 0.41150 0.18091
 N150 N 0.44558 0.57170 0.08628
 N151 N 0.41672 0.60209 0.11229
 N152 N 0.55903 0.54187 0.13349
 N153 N 0.59176 0.55036 0.19145
 N154 N 0.55817 0.57094 0.08211
 N155 N 0.58992 0.60023 0.10517
 N156 N 0.44593 0.54289 0.13833
 N157 N 0.41701 0.55285 0.20010
 Mn158 Mn 0.50049 0.57184 -0.00098
 Mn159 Mn 0.50197 0.49974 0.13567
 Cl160 Cl 0.49994 0.50004 -0.00142
 C161 C 0.39785 0.58932 0.18253
 C162 C 0.61213 0.58625 0.17233
 C163 C 0.32912 0.34441 0.35761
 C164 C 0.32344 0.32434 0.27632
 C165 C 0.34498 0.34610 0.21592
 C166 C 0.36985 0.38576 0.24222
 C167 C 0.32453 0.40713 0.28642
 C168 C 0.30323 0.38562 0.34625
 C169 C 0.38972 0.35248 0.36479
 C170 C 0.41065 0.37418 0.30527
 H171 H 0.30398 0.29610 0.26576
 H172 H 0.34372 0.33624 0.15537
 H173 H 0.30957 0.43640 0.27085
 H174 H 0.26998 0.39662 0.38156
 H175 H 0.41437 0.34155 0.41260
 H176 H 0.45284 0.38199 0.30273
 C177 C -0.17620 0.84582 0.35209
 C178 C -0.19703 0.88889 0.34814
 C179 C -0.17660 0.91041 0.28775
 C180 C -0.13716 0.88725 0.23548
 C181 C -0.09438 0.87101 0.29114
 C182 C -0.11440 0.84928 0.35115
 C183 C -0.18930 0.82853 0.26985
 C184 C -0.16874 0.85045 0.20890
 H185 H -0.22655 0.90116 0.38854
 H186 H -0.18871 0.94092 0.27684
 H187 H -0.05154 0.87514 0.28248
 H188 H -0.08826 0.83485 0.39341
 H189 H -0.21169 0.80157 0.25882
 H190 H -0.17416 0.84218 0.14794
 C191 C 0.67922 0.65246 0.34899
 C192 C 0.61747 0.64964 0.34986
 C193 C 0.59657 0.62821 0.29026
 C194 C 0.63866 0.61155 0.23340
 C195 C 0.67088 0.64805 0.20620
 C196 C 0.69226 0.66965 0.26678
 C197 C 0.69911 0.60922 0.34467
 C198 C 0.67794 0.58792 0.28470
 H199 H 0.59205 0.66418 0.39317
 H200 H 0.55360 0.62443 0.28290
 H201 H 0.67639 0.65619 0.14513
 H202 H 0.71570 0.69618 0.25594
 H203 H 0.72849 0.59667 0.38458
 H204 H 0.68928 0.55726 0.27357
 C205 C 0.16698 1.15658 0.35905
 C206 C 0.10647 1.14806 0.36636
 C207 C 0.08613 1.12623 0.30683
 C208 C 0.12738 1.11501 0.24368
 C209 C 0.15182 1.15483 0.21739
 C210 C 0.17277 1.17673 0.27777
 C211 C 0.19349 1.11557 0.34759
 C212 C 0.17277 1.09393 0.28773
 H213 H 0.08147 1.15874 0.41430
 H214 H 0.04409 1.11802 0.30446
 H215 H 0.15323 1.16472 0.15686
 H216 H 0.19188 1.20510 0.26713
 H217 H 0.22669 1.10480 0.38286
 H218 H 0.18820 1.06478 0.27208
 C219 C 0.67349 0.34530 -0.35908
 C220 C 0.61173 0.34943 -0.36106
 C221 C 0.59064 0.37129 -0.30184
 C222 C 0.63236 0.38692 -0.24391
 C223 C 0.66283 0.34967 -0.21636
 C224 C 0.68446 0.32769 -0.27651
 C225 C 0.69477 0.38818 -0.35361
 C226 C 0.67324 0.40980 -0.29398
 H227 H 0.58638 0.33545 -0.40482
 H228 H 0.54768 0.37603 -0.29550
 H229 H 0.66679 0.34116 -0.15527
 H230 H 0.70619 0.30047 -0.26475
 H231 H 0.72527 0.40028 -0.39253
 H232 H 0.68535 0.44020 -0.28229
 C233 C 0.17891 0.84659 -0.35158
 C234 C 0.19926 0.88971 -0.34708
 C235 C 0.17852 0.91098 -0.28650
 C236 C 0.13925 0.88754 -0.23461
 C237 C 0.09674 0.87130 -0.29059
 C238 C 0.11707 0.84981 -0.35079
 C239 C 0.19208 0.82911 -0.26948
 C240 C 0.17119 0.85078 -0.20833
 H241 H 0.22870 0.90219 -0.38725
 H242 H 0.19029 0.94149 -0.27520
 H243 H 0.05383 0.87523 -0.28200
 H244 H 0.09116 0.83539 -0.39326
 H245 H 0.21469 0.80217 -0.25872
 H246 H 0.17656 0.84234 -0.14744
 C247 C 0.32406 0.65498 -0.35221
 C248 C 0.38585 0.65128 -0.35258
 C249 C 0.40611 0.62964 -0.29275
 C250 C 0.36357 0.61376 -0.23590
 C251 C 0.33224 0.65080 -0.20911
 C252 C 0.31143 0.67261 -0.26990
 C253 C 0.30313 0.61202 -0.34722
 C254 C 0.32379 0.59062 -0.28700
 H255 H 0.41182 0.66547 -0.39559
 H256 H 0.44899 0.62535 -0.28504
 H257 H 0.32724 0.65933 -0.14814
 H258 H 0.28930 0.69976 -0.25881
 H259 H 0.27339 0.59973 -0.38681
 H260 H 0.31165 0.56019 -0.27546
 C261 C -0.17540 1.15226 -0.35666
 C262 C -0.19579 1.10922 -0.35094
 C263 C -0.17391 1.08795 -0.29135
 C264 C -0.13350 1.11140 -0.24188
 C265 C -0.09211 1.12735 -0.30049
 C266 C -0.11370 1.14878 -0.35968
 C267 C -0.18680 1.16993 -0.27434
 C268 C -0.16474 1.14837 -0.21424
 H269 H -0.22589 1.09678 -0.38972
 H270 H -0.18533 1.05742 -0.27942
 H271 H -0.04907 1.12299 -0.29483
 H272 H -0.08882 1.16279 -0.40422
 H273 H -0.20957 1.19678 -0.26305
 H274 H -0.16912 1.15687 -0.15316
 C275 C 0.66966 0.65612 -0.36044
 C276 C 0.67613 0.67583 -0.27895
 C277 C 0.65476 0.65396 -0.21860
 C278 C 0.62924 0.61460 -0.24520
 C279 C 0.58809 0.62669 -0.30741
 C280 C 0.60891 0.64847 -0.36692
 C281 C 0.69515 0.61471 -0.35010
 C282 C 0.67401 0.59310 -0.29035
 H283 H 0.69595 0.70391 -0.26822
 H284 H 0.65650 0.66358 -0.15792
 H285 H 0.54570 0.61933 -0.30414
 H286 H 0.58407 0.65986 -0.41411
 H287 H 0.72806 0.60364 -0.38601
 H288 H 0.68876 0.56369 -0.27544
 C289 C 0.17651 1.15418 -0.35333
 C290 C 0.18812 1.17216 -0.27120
 C291 C 0.16725 1.15039 -0.21025
 C292 C 0.13686 1.11301 -0.23670
 C293 C 0.09446 1.12833 -0.29400
 C294 C 0.11479 1.14994 -0.35400
 C295 C 0.19822 1.11140 -0.34769
 C296 C 0.17748 1.09001 -0.28729
 H297 H 0.20969 1.19949 -0.26027
 H298 H 0.17165 1.15915 -0.14938
 H299 H 0.05160 1.12359 -0.28664
 H300 H 0.08890 1.16370 -0.39742
 H301 H 0.22849 1.09922 -0.38701
 H302 H 0.19006 1.05972 -0.27533
 C303 C 0.32013 0.34810 -0.35185
 C304 C 0.30806 0.33048 -0.26967
 C305 C 0.32970 0.35197 -0.20919
 C306 C 0.36118 0.38880 -0.23642
 C307 C 0.40300 0.37269 -0.29433
 C308 C 0.38184 0.35136 -0.35387
 C309 C 0.29972 0.39117 -0.34649
 C310 C 0.32115 0.41237 -0.28657
 H311 H 0.28509 0.30374 -0.25874
 H312 H 0.32484 0.34354 -0.14816
 H313 H 0.44601 0.37685 -0.28789
 H314 H 0.40704 0.33724 -0.39797
 H315 H 0.26986 0.40368 -0.38569
 H316 H 0.30956 0.44291 -0.27475
 C317 C -0.16502 0.84261 -0.36039
 C318 C -0.10445 0.85105 -0.36745
 C319 C -0.08412 0.87289 -0.30784
 C320 C -0.12552 0.88424 -0.24492
 C321 C -0.17078 0.90532 -0.28926
 C322 C -0.19143 0.88367 -0.34911
 C323 C -0.17100 0.82253 -0.27910
 C324 C -0.15012 0.84445 -0.21866
 H325 H -0.07937 0.84017 -0.41512
 H326 H -0.04193 0.88082 -0.30504
 H327 H -0.18618 0.93450 -0.27378
 H328 H -0.22455 0.89447 -0.38451
 H329 H -0.19005 0.79412 -0.26858
 H330 H -0.15156 0.83456 -0.15813
 C331 C 0.33383 0.65728 0.36002
 C332 C 0.39455 0.64917 0.36562
 C333 C 0.41474 0.62717 0.30584
 C334 C 0.37303 0.61536 0.24427
 C335 C 0.32838 0.59425 0.29014
 C336 C 0.30787 0.61606 0.35016
 C337 C 0.32699 0.67699 0.27859
 C338 C 0.34772 0.65491 0.21798
 H339 H 0.41982 0.66038 0.41242
 H340 H 0.45701 0.61945 0.30197
 H341 H 0.31324 0.56494 0.27553
 H342 H 0.27513 0.60527 0.38661
 H343 H 0.30744 0.70524 0.26806
 H344 H 0.34567 0.66451 0.15732
 C345 C -0.17194 1.15656 0.35536
 C346 C -0.11076 1.14982 0.35783
 C347 C -0.09114 1.12809 0.29734
 C348 C -0.13366 1.11506 0.23806
 C349 C -0.17643 1.09318 0.28633
 C350 C -0.19653 1.11473 0.34694
 C351 C -0.18151 1.17571 0.27365
 C352 C -0.16117 1.15385 0.21238
 H353 H -0.08472 1.16189 0.40291
 H354 H -0.04870 1.12158 0.29104
 H355 H -0.19097 1.06361 0.27254
 H356 H -0.22832 1.10337 0.38454
 H357 H -0.20332 1.20302 0.26297
 H358 H -0.16546 1.16287 0.15163
 C359 C 0.66849 0.34251 0.35298
 C360 C 0.69426 0.38383 0.34383
 C361 C 0.67470 0.40549 0.28322
 C362 C 0.63110 0.38414 0.23608
 C363 C 0.65728 0.34478 0.21042
 C364 C 0.67710 0.32283 0.27165
 C365 C 0.60765 0.35028 0.35686
 C366 C 0.58841 0.37207 0.29645
 H367 H 0.72629 0.39477 0.38108
 H368 H 0.68996 0.43482 0.26891
 H369 H 0.66069 0.33528 0.14979
 H370 H 0.69741 0.29481 0.26160
 H371 H 0.58161 0.33891 0.40290
 H372 H 0.54617 0.37940 0.29112
 C373 C 0.16770 0.84391 0.36089
 C374 C 0.17394 0.82398 0.27950
 C375 C 0.15271 0.84586 0.21923
 C376 C 0.12752 0.88549 0.24572
 C377 C 0.08632 0.87383 0.30862
 C378 C 0.10700 0.85201 0.36807
 C379 C 0.19348 0.88513 0.34983
 C380 C 0.17248 0.90676 0.29013
 H381 H 0.19343 0.79570 0.26877
 H382 H 0.15430 0.83606 0.15863
 H383 H 0.04403 0.88155 0.30593
 H384 H 0.08212 0.84095 0.41573
 H385 H 0.22646 0.89607 0.38528
 H386 H 0.18742 0.93605 0.27482
   
