data_POSCAR
  _audit_creation_date              2014-09-24
  _audit_creation_method            'ToBaCCo'
  _symmetry_space_group_name_H-M    'P1'
  _symmetry_Int_Tables_number       1
  _symmetry_cell_setting            triclinic
  loop_
  _symmetry_equiv_pos_as_xyz
 x,y,z
_cell_length_a 48.7518
_cell_length_b 48.7831
_cell_length_c 28.1330
_cell_angle_alpha 89.904900
_cell_angle_beta 90.040100
_cell_angle_gamma 120.153400
loop_
  _atom_site_label
  _atom_site_type_symbol
  _atom_site_fract_x
  _atom_site_fract_y
  _atom_site_fract_z
O1 O 0.46303 0.97086 0.54410
 O2 O 0.49338 1.03222 0.45085
 O3 O 0.46254 0.97054 0.45153
 O4 O 0.49374 1.03255 0.54345
 O5 O 0.53887 1.03233 0.54383
 O6 O 0.50812 0.97123 0.45045
 O7 O 0.53893 1.03294 0.45127
 O8 O 0.50815 0.97064 0.54304
 Cu9 Cu 0.47363 1.00152 0.49752
 Cu10 Cu 0.52806 1.00181 0.49711
 C11 C 0.48037 0.96018 0.55947
 C12 C 0.52141 1.04320 0.43505
 C13 C 0.48003 0.96037 0.43506
 C14 C 0.52159 1.04296 0.55958
 O15 O 0.02998 0.53874 0.45153
 O16 O -0.03113 0.50819 0.54505
 O17 O 0.03057 0.53884 0.54409
 O18 O -0.03176 0.50814 0.45246
 O19 O -0.03162 0.46305 0.45145
 O20 O 0.02971 0.49320 0.54465
 O21 O -0.03203 0.46259 0.54407
 O22 O 0.03010 0.49359 0.45207
 Cu23 Cu -0.00055 0.52801 0.49830
 Cu24 Cu -0.00101 0.47356 0.49804
 C25 C 0.04057 0.52143 0.43585
 C26 C -0.04216 0.48011 0.56063
 C27 C 0.04071 0.52123 0.56026
 C28 C -0.04230 0.48037 0.43595
 O29 O 0.50795 0.53861 0.54564
 O30 O 0.53838 0.50812 0.45213
 O31 O 0.50770 0.53900 0.45306
 O32 O 0.53883 0.50792 0.54470
 O33 O 0.49330 0.46289 0.54564
 O34 O 0.46257 0.49347 0.45243
 O35 O 0.49326 0.46258 0.45302
 O36 O 0.46238 0.49353 0.54501
 Cu37 Cu 0.52775 0.52795 0.49887
 Cu38 Cu 0.47334 0.47358 0.49904
 C39 C 0.47991 0.52130 0.56127
 C40 C 0.52104 0.48009 0.43662
 C41 C 0.47987 0.52152 0.43686
 C42 C 0.52139 0.48013 0.56117
 O43 O 0.38138 0.66017 -0.04142
 O44 O 0.38014 0.71225 -0.05653
 C45 C 0.36526 0.72670 -0.06587
 O46 O 0.34107 0.72230 -0.04240
 O47 O 0.28888 0.66873 -0.05685
 C48 C 0.27433 0.63928 -0.06568
 O49 O 0.27867 0.61962 -0.04176
 O50 O 0.33218 0.62103 -0.05593
 C51 C 0.36163 0.63597 -0.06495
 O52 O 0.37992 0.66907 0.05307
 O53 O 0.38138 0.72251 0.03796
 C54 C 0.36161 0.72692 0.06137
 O55 O 0.33219 0.71238 0.05220
 O56 O 0.27864 0.66017 0.03774
 C57 C 0.27417 0.63610 0.06164
 O58 O 0.28865 0.62119 0.05288
 O59 O 0.34080 0.61987 0.03872
 C60 C 0.36495 0.63966 0.06231
 Cr61 Cr 0.37895 0.69012 -0.00173
 Cr62 Cr 0.31107 0.69002 -0.00231
 Cr63 Cr 0.31096 0.62218 -0.00154
 O64 O 0.33366 0.66744 -0.00186
 O65 O 0.61932 0.34174 -0.04243
 O66 O 0.62080 0.28972 -0.05646
 C67 C 0.63584 0.27539 -0.06538
 O68 O 0.65999 0.27994 -0.04162
 O69 O 0.71219 0.33354 -0.05590
 C70 C 0.72657 0.36294 -0.06521
 O71 O 0.72202 0.38262 -0.04188
 O72 O 0.66850 0.38106 -0.05664
 C73 C 0.63909 0.36599 -0.06592
 O74 O 0.62046 0.33315 0.05226
 O75 O 0.61921 0.27977 0.03822
 C76 C 0.63891 0.27540 0.06198
 O77 O 0.66836 0.28992 0.05301
 O78 O 0.72190 0.34219 0.03875
 C79 C 0.72630 0.36638 0.06211
 O80 O 0.71187 0.38128 0.05268
 O81 O 0.65967 0.38236 0.03791
 C82 C 0.63542 0.36256 0.06138
 Cr83 Cr 0.62172 0.31199 -0.00210
 Cr84 Cr 0.68972 0.31228 -0.00146
 Cr85 Cr 0.68963 0.38006 -0.00198
 O86 O 0.66703 0.33478 -0.00184
 C87 C 0.44529 0.88883 -0.33076
 C88 C 0.47480 0.89869 -0.35242
 C89 C 0.48614 0.92178 -0.38810
 C90 C 0.46820 0.93548 -0.40307
 C91 C 0.43861 0.92550 -0.38165
 C92 C 0.42732 0.90248 -0.34586
 C93 C 0.43343 0.86459 -0.29236
 C94 C 0.40112 0.84136 -0.28969
 C95 C 0.38996 0.81877 -0.25330
 C96 C 0.41086 0.81880 -0.21887
 C97 C 0.44317 0.84191 -0.22161
 C98 C 0.45432 0.86458 -0.25788
 C99 C 0.39901 0.79495 -0.18003
 C100 C 0.41622 0.78028 -0.16598
 C101 C 0.40520 0.75802 -0.12913
 C102 C 0.37678 0.75005 -0.10531
 C103 C 0.35954 0.76470 -0.11950
 C104 C 0.37050 0.78684 -0.15651
 H105 H 0.48901 0.88831 -0.34214
 H106 H 0.50896 0.92883 -0.40404
 H107 H 0.42426 0.93568 -0.39222
 H108 H 0.40471 0.89576 -0.32945
 H109 H 0.38450 0.84038 -0.31613
 H110 H 0.36501 0.80097 -0.25247
 H111 H 0.45976 0.84281 -0.19516
 H112 H 0.47924 0.88246 -0.25841
 H113 H 0.43807 0.78579 -0.18384
 H114 H 0.41904 0.74715 -0.11922
 H115 H 0.33756 0.75910 -0.10198
 H116 H 0.35691 0.79800 -0.16623
 C117 C 0.11207 0.55649 -0.33020
 C118 C 0.09806 0.52487 -0.34546
 C119 C 0.07505 0.51347 -0.38122
 C120 C 0.06542 0.53341 -0.40233
 C121 C 0.07948 0.56506 -0.38710
 C122 C 0.10261 0.57649 -0.35151
 C123 C 0.13629 0.56853 -0.29192
 C124 C 0.16351 0.59870 -0.29546
 C125 C 0.18618 0.61012 -0.25922
 C126 C 0.18208 0.59168 -0.21850
 C127 C 0.15486 0.56147 -0.21505
 C128 C 0.13226 0.55001 -0.25138
 C129 C 0.20599 0.60396 -0.17966
 C130 C 0.21414 0.58374 -0.15572
 C131 C 0.23632 0.59519 -0.11880
 C132 C 0.25096 0.62718 -0.10503
 C133 C 0.24295 0.64745 -0.12919
 C134 C 0.22069 0.63596 -0.16599
 H135 H 0.10515 0.50901 -0.33005
 H136 H 0.06472 0.48897 -0.39218
 H137 H 0.07258 0.58104 -0.40261
 H138 H 0.11273 0.60088 -0.34011
 H139 H 0.16747 0.61331 -0.32660
 H140 H 0.20713 0.63325 -0.26336
 H141 H 0.15071 0.54689 -0.18383
 H142 H 0.11130 0.52686 -0.24735
 H143 H 0.20363 0.55909 -0.16586
 H144 H 0.24209 0.57897 -0.10119
 H145 H 0.25368 0.67220 -0.11941
 H146 H 0.21461 0.65206 -0.18323
 C147 C 0.44417 0.55639 -0.32872
 C148 C 0.42431 0.52693 -0.35031
 C149 C 0.43589 0.51559 -0.38606
 C150 C 0.46758 0.53350 -0.40119
 C151 C 0.48741 0.56306 -0.37985
 C152 C 0.47585 0.57435 -0.34398
 C153 C 0.43193 0.56823 -0.29026
 C154 C 0.44112 0.60052 -0.28764
 C155 C 0.42969 0.61162 -0.25132
 C156 C 0.40872 0.59069 -0.21692
 C157 C 0.39946 0.55842 -0.21957
 C158 C 0.41098 0.54733 -0.25575
 C159 C 0.39660 0.60245 -0.17830
 C160 C 0.36459 0.58516 -0.16451
 C161 C 0.35321 0.59609 -0.12791
 C162 C 0.37363 0.62451 -0.10407
 C163 C 0.40565 0.64183 -0.11798
 C164 C 0.41698 0.63096 -0.15475
 H165 H 0.39967 0.51273 -0.33992
 H166 H 0.41995 0.49280 -0.40193
 H167 H 0.51198 0.57738 -0.39056
 H168 H 0.49188 0.59693 -0.32764
 H169 H 0.45681 0.61715 -0.31408
 H170 H 0.43689 0.63654 -0.25056
 H171 H 0.38371 0.54182 -0.19313
 H172 H 0.40387 0.52244 -0.25624
 H173 H 0.34825 0.56330 -0.18240
 H174 H 0.32840 0.58219 -0.11821
 H175 H 0.42202 0.66383 -0.10044
 H176 H 0.44183 0.64461 -0.16428
 C177 C 0.55713 0.11388 -0.33045
 C178 C 0.52757 0.10417 -0.35176
 C179 C 0.51605 0.08119 -0.38749
 C180 C 0.53393 0.06753 -0.40288
 C181 C 0.56360 0.07741 -0.38179
 C182 C 0.57503 0.10028 -0.34589
 C183 C 0.56912 0.13794 -0.29202
 C184 C 0.58370 0.13398 -0.25156
 C185 C 0.59468 0.15644 -0.21510
 C186 C 0.59146 0.18345 -0.21835
 C187 C 0.57701 0.18747 -0.25897
 C188 C 0.56591 0.16494 -0.29534
 C189 C 0.60298 0.20723 -0.17941
 C190 C 0.58548 0.22163 -0.16556
 C191 C 0.59618 0.24381 -0.12872
 C192 C 0.62459 0.25204 -0.10470
 C193 C 0.64214 0.23770 -0.11863
 C194 C 0.63148 0.21560 -0.15558
 H195 H 0.51309 0.11399 -0.34022
 H196 H 0.49310 0.07409 -0.40298
 H197 H 0.57797 0.06738 -0.39287
 H198 H 0.59805 0.10756 -0.33049
 H199 H 0.58607 0.11317 -0.24770
 H200 H 0.60520 0.15234 -0.18396
 H201 H 0.57465 0.20827 -0.26295
 H202 H 0.55519 0.16885 -0.32641
 H203 H 0.56321 0.21538 -0.18272
 H204 H 0.58202 0.25431 -0.11883
 H205 H 0.66423 0.24365 -0.10113
 H206 H 0.64578 0.20533 -0.16586
 C207 C 0.88810 0.44524 -0.33085
 C208 C 0.89865 0.42576 -0.35065
 C209 C 0.92162 0.43721 -0.38648
 C210 C 0.93451 0.46845 -0.40363
 C211 C 0.92364 0.48782 -0.38391
 C212 C 0.90081 0.47636 -0.34788
 C213 C 0.86409 0.43321 -0.29228
 C214 C 0.86764 0.45228 -0.25276
 C215 C 0.84521 0.44087 -0.21618
 C216 C 0.81862 0.41016 -0.21839
 C217 C 0.81502 0.39115 -0.25810
 C218 C 0.83754 0.40252 -0.29456
 C219 C 0.79484 0.39799 -0.17935
 C220 C 0.78092 0.36627 -0.16430
 C221 C 0.75871 0.35487 -0.12743
 C222 C 0.74998 0.37496 -0.10454
 C223 C 0.76386 0.40666 -0.11962
 C224 C 0.78597 0.41801 -0.15664
 H225 H 0.88951 0.40177 -0.33785
 H226 H 0.92930 0.42150 -0.40056
 H227 H 0.93282 0.51195 -0.39608
 H228 H 0.89284 0.49179 -0.33364
 H229 H 0.88810 0.47586 -0.24972
 H230 H 0.84900 0.45592 -0.18574
 H231 H 0.79455 0.36761 -0.26131
 H232 H 0.83397 0.38746 -0.32492
 H233 H 0.78757 0.35034 -0.18055
 H234 H 0.74858 0.33035 -0.11660
 H235 H 0.75752 0.42272 -0.10301
 H236 H 0.79584 0.44242 -0.16786
 C237 C 0.55675 0.44551 -0.33067
 C238 C 0.57607 0.47569 -0.35062
 C239 C 0.56446 0.48709 -0.38631
 C240 C 0.53318 0.46852 -0.40324
 C241 C 0.51395 0.43815 -0.38346
 C242 C 0.52558 0.42686 -0.34759
 C243 C 0.56901 0.43365 -0.29215
 C244 C 0.56096 0.40164 -0.29061
 C245 C 0.57237 0.39051 -0.25420
 C246 C 0.59222 0.41116 -0.21866
 C247 C 0.60035 0.44316 -0.22022
 C248 C 0.58882 0.45425 -0.25646
 C249 C 0.60431 0.39939 -0.17994
 C250 C 0.63603 0.41723 -0.16500
 C251 C 0.64737 0.40631 -0.12823
 C252 C 0.62718 0.37738 -0.10534
 C253 C 0.59545 0.35950 -0.12042
 C254 C 0.58418 0.37035 -0.15740
 H255 H 0.60037 0.49045 -0.33896
 H256 H 0.58014 0.51050 -0.40065
 H257 H 0.48973 0.42310 -0.39529
 H258 H 0.50992 0.40369 -0.33254
 H259 H 0.54619 0.38526 -0.31795
 H260 H 0.56606 0.36582 -0.25423
 H261 H 0.61521 0.45950 -0.19289
 H262 H 0.59501 0.47890 -0.25607
 H263 H 0.65218 0.43953 -0.18210
 H264 H 0.67195 0.42066 -0.11760
 H265 H 0.57926 0.33709 -0.10364
 H266 H 0.55954 0.35624 -0.16787
 C267 C 0.88771 0.44605 0.32770
 C268 C 0.90009 0.42736 0.34466
 C269 C 0.92300 0.43855 0.38056
 C270 C 0.93429 0.46888 0.40034
 C271 C 0.92174 0.48751 0.38337
 C272 C 0.89872 0.47620 0.34763
 C273 C 0.86359 0.43426 0.28914
 C274 C 0.86457 0.45491 0.25338
 C275 C 0.84201 0.44383 0.21699
 C276 C 0.81805 0.41181 0.21536
 C277 C 0.81704 0.39113 0.25103
 C278 C 0.83950 0.40224 0.28757
 C279 C 0.79432 0.40002 0.17643
 C280 C 0.78547 0.37103 0.15402
 C281 C 0.76344 0.36013 0.11691
 C282 C 0.74959 0.37789 0.10157
 C283 C 0.75829 0.40679 0.12430
 C284 C 0.78048 0.41777 0.16119
 H285 H 0.89246 0.40421 0.32961
 H286 H 0.93204 0.42345 0.39241
 H287 H 0.92960 0.51090 0.39771
 H288 H 0.88931 0.49101 0.33593
 H289 H 0.88312 0.47957 0.25302
 H290 H 0.84365 0.46021 0.18959
 H291 H 0.79858 0.36643 0.25103
 H292 H 0.83774 0.38583 0.31498
 H293 H 0.79599 0.35701 0.16471
 H294 H 0.75724 0.33775 0.10026
 H295 H 0.74806 0.42104 0.11345
 H296 H 0.78659 0.44003 0.17818
 C297 C 0.55621 0.11337 0.32708
 C298 C 0.57569 0.10266 0.34657
 C299 C 0.56425 0.07954 0.38219
 C300 C 0.53303 0.06665 0.39946
 C301 C 0.51366 0.07767 0.38004
 C302 C 0.52511 0.10065 0.34420
 C303 C 0.56825 0.13756 0.28874
 C304 C 0.54917 0.13419 0.24923
 C305 C 0.56064 0.15674 0.21278
 C306 C 0.59139 0.18326 0.21513
 C307 C 0.61038 0.18669 0.25486
 C308 C 0.59897 0.16405 0.29118
 C309 C 0.60366 0.20712 0.17617
 C310 C 0.63541 0.22102 0.16128
 C311 C 0.64689 0.24327 0.12442
 C312 C 0.62683 0.25203 0.10138
 C313 C 0.59510 0.23819 0.11632
 C314 C 0.58367 0.21606 0.15333
 H315 H 0.59966 0.11181 0.33369
 H316 H 0.57995 0.07176 0.39604
 H317 H 0.48954 0.06849 0.39231
 H318 H 0.50969 0.10873 0.33017
 H319 H 0.52557 0.11377 0.24607
 H320 H 0.54559 0.15307 0.18232
 H321 H 0.63396 0.20711 0.25820
 H322 H 0.61403 0.16748 0.32154
 H323 H 0.65131 0.21433 0.17761
 H324 H 0.67142 0.25337 0.11370
 H325 H 0.57907 0.24458 0.09959
 H326 H 0.55924 0.20621 0.16443
 C327 C 0.55599 0.44440 0.32635
 C328 C 0.57400 0.47604 0.34158
 C329 C 0.56276 0.48758 0.37755
 C330 C 0.53320 0.46777 0.39902
 C331 C 0.51524 0.43611 0.38393
 C332 C 0.52653 0.42455 0.34808
 C333 C 0.56778 0.43220 0.28774
 C334 C 0.54681 0.41133 0.25329
 C335 C 0.55786 0.39990 0.21692
 C336 C 0.59015 0.40917 0.21404
 C337 C 0.61114 0.43005 0.24841
 C338 C 0.60008 0.44139 0.28490
 C339 C 0.60188 0.39717 0.17520
 C340 C 0.63038 0.41761 0.15157
 C341 C 0.64125 0.40641 0.11464
 C342 C 0.62393 0.37444 0.10063
 C343 C 0.59551 0.35396 0.12453
 C344 C 0.58458 0.36523 0.16129
 H345 H 0.59658 0.49207 0.32513
 H346 H 0.57712 0.51212 0.38822
 H347 H 0.49245 0.42018 0.39990
 H348 H 0.51230 0.39993 0.33771
 H349 H 0.52191 0.40422 0.25395
 H350 H 0.54122 0.38422 0.19052
 H351 H 0.63608 0.43724 0.24747
 H352 H 0.61675 0.45701 0.31131
 H353 H 0.64405 0.44243 0.16119
 H354 H 0.66325 0.42282 0.09706
 H355 H 0.58161 0.32920 0.11476
 H356 H 0.56272 0.34884 0.17924
 C357 C 0.11172 0.55688 0.32596
 C358 C 0.10195 0.52734 0.34736
 C359 C 0.07888 0.51584 0.38305
 C360 C 0.06520 0.53372 0.39831
 C361 C 0.07513 0.56337 0.37711
 C362 C 0.09808 0.57478 0.34124
 C363 C 0.13589 0.56888 0.28760
 C364 C 0.13202 0.58346 0.24707
 C365 C 0.15461 0.59451 0.21072
 C366 C 0.18167 0.59134 0.21416
 C367 C 0.18557 0.57686 0.25484
 C368 C 0.16291 0.56570 0.29110
 C369 C 0.20561 0.60297 0.17536
 C370 C 0.22014 0.58557 0.16166
 C371 C 0.24247 0.59636 0.12493
 C372 C 0.25070 0.62477 0.10089
 C373 C 0.23624 0.64222 0.11468
 C374 C 0.21400 0.63147 0.15152
 H375 H 0.11179 0.51287 0.33594
 H376 H 0.07174 0.49290 0.39862
 H377 H 0.06509 0.57774 0.38809
 H378 H 0.10541 0.59779 0.32578
 H379 H 0.11120 0.58581 0.24307
 H380 H 0.15060 0.60504 0.17952
 H381 H 0.20639 0.57453 0.25897
 H382 H 0.16674 0.55497 0.32224
 H383 H 0.21389 0.56330 0.17883
 H384 H 0.25306 0.58228 0.11513
 H385 H 0.24218 0.66431 0.09716
 H386 H 0.20363 0.64569 0.16170
 C387 C 0.44404 0.88930 0.32521
 C388 C 0.47574 0.90314 0.34033
 C389 C 0.48738 0.92607 0.37614
 C390 C 0.46761 0.93577 0.39756
 C391 C 0.43590 0.92188 0.38255
 C392 C 0.42424 0.89888 0.34686
 C393 C 0.43173 0.86512 0.28682
 C394 C 0.41077 0.86498 0.25234
 C395 C 0.39925 0.84232 0.21616
 C396 C 0.40851 0.81935 0.21351
 C397 C 0.42948 0.81947 0.24791
 C398 C 0.44091 0.84206 0.28421
 C399 C 0.39644 0.79545 0.17485
 C400 C 0.41684 0.78742 0.15134
 C401 C 0.40556 0.76520 0.11454
 C402 C 0.37356 0.75039 0.10055
 C403 C 0.35311 0.75829 0.12434
 C404 C 0.36445 0.78063 0.16098
 H405 H 0.49174 0.89662 0.32394
 H406 H 0.51196 0.93640 0.38675
 H407 H 0.42001 0.92871 0.39849
 H408 H 0.39958 0.88834 0.33657
 H409 H 0.40367 0.88274 0.25283
 H410 H 0.38350 0.84312 0.18973
 H411 H 0.43667 0.80178 0.24715
 H412 H 0.45660 0.84118 0.31065
 H413 H 0.44168 0.79871 0.16092
 H414 H 0.42196 0.75966 0.09703
 H415 H 0.32832 0.74730 0.11459
 H416 H 0.34809 0.78607 0.17884
 C417 C 0.44460 0.55744 0.32708
 C418 C 0.47410 0.57725 0.34867
 C419 C 0.48549 0.56561 0.38435
 C420 C 0.46759 0.53391 0.39942
 C421 C 0.43799 0.51414 0.37811
 C422 C 0.42664 0.52576 0.34229
 C423 C 0.43272 0.56972 0.28861
 C424 C 0.40042 0.56052 0.28594
 C425 C 0.38927 0.57194 0.24957
 C426 C 0.41020 0.59292 0.21516
 C427 C 0.44250 0.60220 0.21788
 C428 C 0.45362 0.59068 0.25411
 C429 C 0.39840 0.60497 0.17641
 C430 C 0.41568 0.63694 0.16248
 C431 C 0.40475 0.64825 0.12568
 C432 C 0.37635 0.62778 0.10177
 C433 C 0.35902 0.59580 0.11585
 C434 C 0.36989 0.58456 0.15283
 H435 H 0.48829 0.60189 0.33831
 H436 H 0.50832 0.58151 0.40022
 H437 H 0.42367 0.48957 0.38877
 H438 H 0.40403 0.50976 0.32595
 H439 H 0.38379 0.54481 0.31238
 H440 H 0.36434 0.56472 0.24876
 H441 H 0.45909 0.61794 0.19143
 H442 H 0.47853 0.59780 0.25464
 H443 H 0.43753 0.65331 0.18041
 H444 H 0.41865 0.67302 0.11585
 H445 H 0.33705 0.57939 0.09826
 H446 H 0.35625 0.55973 0.16247
   
