data_POSCAR
  _audit_creation_date              2014-09-24
  _audit_creation_method            'ToBaCCo'
  _symmetry_space_group_name_H-M    'P1'
  _symmetry_Int_Tables_number       1
  _symmetry_cell_setting            triclinic
  loop_
  _symmetry_equiv_pos_as_xyz
 x,y,z
_cell_length_a 29.9709
_cell_length_b 30.5788
_cell_length_c 30.5933
_cell_angle_alpha 87.958400
_cell_angle_beta 92.639800
_cell_angle_gamma 87.738400
loop_
  _atom_site_label
  _atom_site_type_symbol
  _atom_site_fract_x
  _atom_site_fract_y
  _atom_site_fract_z
N1 N 0.23572 0.34755 1.33741
 N2 N 0.24462 0.30979 1.35856
 C3 C 0.21760 0.30630 1.39229
 C4 C 0.19041 0.34393 1.39231
 C5 C 0.20264 0.36941 1.35694
 H6 H 0.21851 0.27900 1.41579
 H7 H 0.18915 0.40168 1.34670
 Cu8 Cu 0.29313 0.27032 1.34247
 Cu9 Cu 0.26848 0.36523 1.28667
 Cu10 Cu 0.35761 0.29728 1.25952
 N11 N 0.34177 0.23132 1.32583
 N12 N 0.36684 0.24211 1.29330
 C13 C 0.40084 0.21222 1.29166
 C14 C 0.39710 0.18129 1.32531
 C15 C 0.35905 0.19415 1.34609
 H16 H 0.42763 0.21428 1.26928
 H17 H 0.34655 0.17895 1.37530
 N18 N 0.34271 0.35457 1.22960
 N19 N 0.31021 0.38141 1.24149
 C20 C 0.31224 0.41995 1.21905
 C21 C 0.34718 0.41680 1.19131
 C22 C 0.36558 0.37499 1.19855
 H23 H 0.29062 0.44849 1.22326
 H24 H 0.39509 0.36152 1.18406
 H25 H 0.29063 0.30338 1.26860
 H26 H 0.32765 0.33236 1.30782
 N27 N 1.27003 0.68739 0.83172
 N28 N 1.25682 0.71836 0.85748
 C29 C 1.28301 0.71617 0.89450
 C30 C 1.31430 0.68197 0.89162
 C31 C 1.30530 0.66460 0.85125
 H32 H 1.27860 0.73697 0.92197
 H33 H 1.32201 0.63648 0.83777
 Cu34 Cu 1.20471 0.75663 0.84156
 Cu35 Cu 1.23841 0.67780 0.77618
 Cu36 Cu 1.12813 0.71752 0.77072
 N37 N 1.14352 0.78006 0.83722
 N38 N 1.11302 0.76248 0.81185
 C39 C 1.07274 0.78132 0.81880
 C40 C 1.07852 0.81266 0.84992
 C41 C 1.12389 0.81126 0.86064
 H42 H 1.04168 0.77283 0.80247
 H43 H 1.14099 0.82995 0.88517
 N44 N 1.15103 0.67278 0.73151
 N45 N 1.19333 0.65877 0.73309
 C46 C 1.19880 0.62801 0.70329
 C47 C 1.15801 0.62244 0.68178
 C48 C 1.12845 0.65138 0.70028
 H49 H 1.22990 0.61003 0.69863
 H50 H 1.09298 0.65561 0.69228
 H51 H 1.19358 0.73229 0.76619
 H52 H 1.18140 0.68971 0.80865
 N53 N 0.74251 -0.12247 0.17783
 N54 N 0.74872 -0.14642 0.14363
 C55 C 0.78579 -0.13372 0.12408
 C56 C 0.80381 -0.10052 0.14777
 C57 C 0.77553 -0.09418 0.18157
 H58 H 0.79971 -0.14861 0.09593
 H59 H 0.77917 -0.07119 0.20741
 Cu60 Cu 0.71013 -0.19435 0.13033
 Cu61 Cu 0.69350 -0.13077 0.21626
 Cu62 Cu 0.62468 -0.21653 0.19469
 N63 N 0.67286 -0.24416 0.12116
 N64 N 0.63820 -0.25162 0.14475
 C65 C 0.61854 -0.28789 0.13084
 C66 C 0.64292 -0.30446 0.09744
 C67 C 0.67713 -0.27592 0.09218
 H68 H 0.58991 -0.30219 0.14515
 H69 H 0.70331 -0.27819 0.06912
 N70 N 0.61660 -0.17742 0.24382
 N71 N 0.64223 -0.14416 0.25156
 C72 C 0.62933 -0.12486 0.28814
 C73 C 0.59448 -0.14753 0.30443
 C74 C 0.58719 -0.18056 0.27561
 H75 H 0.64530 -0.09761 0.30301
 H76 H 0.56288 -0.20561 0.27824
 H77 H 0.68945 -0.19735 0.20652
 H78 H 0.65131 -0.15955 0.17135
 N79 N -0.27043 1.16068 -0.35256
 N80 N -0.25354 1.18722 -0.38165
 C81 C -0.27223 1.17997 -0.42150
 C82 C -0.30289 1.14770 -0.41679
 C83 C -0.30116 1.13641 -0.37264
 H84 H -0.26403 1.19667 -0.45165
 H85 H -0.31946 1.11112 -0.35661
 Cu86 Cu -0.20927 1.22915 -0.36467
 Cu87 Cu -0.24877 1.15705 -0.29159
 Cu88 Cu -0.15367 1.21362 -0.26675
 N89 N -0.16093 1.26631 -0.34677
 N90 N -0.13971 1.25999 -0.30835
 C91 C -0.10717 1.28876 -0.30450
 C92 C -0.10767 1.31434 -0.34274
 C93 C -0.14227 1.29932 -0.36892
 H94 H -0.08420 1.29016 -0.27634
 H95 H -0.15239 1.31094 -0.40183
 N96 N -0.17394 1.16583 -0.22889
 N97 N -0.21070 1.14490 -0.23794
 C98 C -0.21395 1.11209 -0.20782
 C99 C -0.17748 1.11258 -0.17846
 C100 C -0.15297 1.14715 -0.19261
 H101 H -0.23966 1.08826 -0.20859
 H102 H -0.12111 1.15654 -0.17867
 H103 H -0.21927 1.21797 -0.28595
 H104 H -0.18570 1.17269 -0.31006
 N105 N 0.75748 0.64263 0.65431
 N106 N 0.73857 0.66931 0.62360
 C107 C 0.75658 0.66083 0.58515
 C108 C 0.78900 0.62765 0.59261
 C109 C 0.78908 0.61713 0.63682
 H110 H 0.74671 0.67730 0.55414
 H111 H 0.80863 0.59109 0.65442
 Cu112 Cu 0.69317 0.71332 0.63693
 Cu113 Cu 0.73577 0.63928 0.71308
 Cu114 Cu 0.64118 0.70298 0.73110
 N115 N 0.66017 0.76234 0.66079
 N116 N 0.64156 0.75903 0.69882
 C117 C 0.62046 0.79743 0.70682
 C118 C 0.62588 0.82594 0.67157
 C119 C 0.65090 0.80263 0.64289
 H120 H 0.60040 0.80321 0.73471
 H121 H 0.66070 0.81386 0.61094
 N122 N 0.65930 0.65069 0.76753
 N123 N 0.69628 0.62726 0.76144
 C124 C 0.69752 0.59119 0.78800
 C125 C 0.65936 0.59196 0.81164
 C126 C 0.63598 0.63024 0.79817
 H127 H 0.72283 0.56499 0.78795
 H128 H 0.60340 0.64120 0.80824
 H129 H 0.67197 0.65801 0.68966
 H130 H 0.70523 0.70160 0.71589
 N131 N 0.73719 0.33604 0.15925
 N132 N 0.73559 0.29452 0.14963
 C133 C 0.69647 0.28792 0.12786
 C134 C 0.67283 0.32771 0.12316
 C135 C 0.69973 0.35754 0.14305
 H136 H 0.68664 0.25695 0.11525
 H137 H 0.69244 0.39223 0.14588
 Cu138 Cu 0.78656 0.25445 0.16351
 Cu139 Cu 0.78769 0.35904 0.19224
 Cu140 Cu 0.85580 0.27923 0.24697
 N141 N 0.84522 0.22509 0.17276
 N142 N 0.87149 0.23368 0.20674
 C143 C 0.91030 0.21041 0.20497
 C144 C 0.90850 0.18648 0.16753
 C145 C 0.86663 0.19626 0.14791
 H146 H 0.93843 0.21242 0.22816
 H147 H 0.85323 0.18428 0.11736
 N148 N 0.85106 0.33963 0.26600
 N149 N 0.82836 0.37089 0.24263
 C150 C 0.83768 0.40981 0.25927
 C151 C 0.86734 0.40240 0.29497
 C152 C 0.87479 0.35761 0.29865
 H153 H 0.82465 0.44120 0.24587
 H154 H 0.89850 0.33976 0.32106
 H155 H 0.83658 0.31008 0.18947
 H156 H 0.78980 0.30146 0.22653
 N157 N 0.24885 0.14192 0.85160
 N158 N 0.25722 0.17447 0.87731
 C159 C 0.22387 0.17912 0.90498
 C160 C 0.19345 0.14720 0.89669
 C161 C 0.21043 0.12396 0.86282
 H162 H 0.22185 0.20385 0.92930
 H163 H 0.19520 0.09704 0.84660
 Cu164 Cu 0.31079 0.20790 0.87211
 Cu165 Cu 0.28747 0.12721 0.80420
 Cu166 Cu 0.37209 0.19856 0.78378
 N167 N 0.35206 0.25261 0.85598
 N168 N 0.37423 0.24975 0.82001
 C169 C 0.39789 0.28589 0.81470
 C170 C 0.39046 0.31260 0.84941
 C171 C 0.36138 0.29044 0.87517
 H172 H 0.41915 0.29214 0.78774
 H173 H 0.34707 0.30161 0.90482
 N174 N 0.35726 0.15034 0.74506
 N175 N 0.32387 0.12439 0.75202
 C176 C 0.31937 0.09770 0.71817
 C177 C 0.35194 0.10672 0.68900
 C178 C 0.37556 0.14004 0.70708
 H179 H 0.29410 0.07362 0.71475
 H180 H 0.40276 0.15671 0.69266
 H181 H 0.34650 0.15318 0.82604
 H182 H 0.30550 0.19126 0.79519
 N183 N 0.27413 0.82661 0.34721
 N184 N 0.26482 0.79365 0.37357
 C185 C 0.28690 0.79738 0.41240
 C186 C 0.31080 0.83504 0.41044
 C187 C 0.30228 0.85273 0.36852
 H188 H 0.28412 0.77532 0.44049
 H189 H 0.31460 0.88285 0.35496
 Cu190 Cu 0.21979 0.75210 0.35744
 Cu191 Cu 0.24630 0.83309 0.28852
 Cu192 Cu 0.13983 0.80344 0.28619
 N193 N 0.15876 0.73202 0.35075
 N194 N 0.12715 0.75414 0.32676
 C195 C 0.08744 0.73724 0.33494
 C196 C 0.09479 0.70267 0.36516
 C197 C 0.14033 0.69993 0.37413
 H198 H 0.05554 0.74973 0.32077
 H199 H 0.15824 0.67865 0.39854
 N200 N 0.16447 0.83579 0.23734
 N201 N 0.20679 0.84567 0.23724
 C202 C 0.21444 0.86733 0.19939
 C203 C 0.17445 0.87178 0.17495
 C204 C 0.14341 0.85179 0.20007
 H205 H 0.24611 0.88039 0.19110
 H206 H 0.10816 0.84905 0.19186
 H207 H 0.18795 0.80860 0.33565
 H208 H 0.19905 0.76972 0.29149
 Zn209 Zn 0.01215 1.00173 0.06375
 Zn210 Zn 0.05153 0.98966 -0.02035
 Zn211 Zn -0.04342 0.96843 -0.00856
 Zn212 Zn -0.01764 1.05994 -0.00688
 O213 O 0.00073 1.00420 0.00605
 O214 O 0.06077 0.96939 0.08028
 O215 O 0.04113 0.95013 -0.06122
 O216 O -0.07322 0.94956 0.03846
 O217 O 0.09339 0.96324 0.01720
 O218 O -0.03260 0.97889 0.09143
 O219 O -0.02217 0.92309 -0.03832
 O220 O -0.06347 1.06445 -0.04720
 O221 O 0.07689 1.03735 -0.04358
 O222 O -0.08465 0.99575 -0.04528
 O223 O 0.02734 1.09002 -0.02804
 O224 O -0.03526 1.08664 0.04164
 O225 O 0.01829 1.05487 0.08491
 C226 C 0.09278 0.95551 0.05825
 C227 C 0.01142 0.92145 -0.06242
 C228 C -0.06632 0.95819 0.07856
 C229 C -0.08932 1.03507 -0.06014
 C230 C 0.06477 1.07770 -0.04256
 C231 C -0.01182 1.08485 0.07741
 Zn232 Zn 0.49801 -0.06088 0.51165
 Zn233 Zn 0.51212 0.02347 0.54989
 Zn234 Zn 0.53477 0.00904 0.45839
 Zn235 Zn 0.44072 0.01072 0.48129
 O236 O 0.49701 -0.00352 0.50037
 O237 O 0.53142 -0.07744 0.55907
 O238 O 0.55279 0.06375 0.53943
 O239 O 0.55103 -0.03856 0.42820
 O240 O 0.53860 -0.01405 0.59107
 O241 O 0.51912 -0.09007 0.46735
 O242 O 0.58294 0.03499 0.48113
 O243 O 0.43807 0.05044 0.43616
 O244 O 0.46371 0.04770 0.57434
 O245 O 0.50916 0.04759 0.41862
 O246 O 0.41008 0.03347 0.52472
 O247 O 0.41240 -0.03753 0.46431
 O248 O 0.44316 -0.07971 0.51840
 C249 C 0.54585 -0.05525 0.59053
 C250 C 0.58401 0.06126 0.51259
 C251 C 0.54013 -0.07807 0.43420
 C252 C 0.46931 0.06313 0.41258
 C253 C 0.42259 0.04765 0.56177
 C254 C 0.41297 -0.07239 0.48832
 Zn255 Zn 0.99677 0.54821 0.52613
 Zn256 Zn 1.02919 0.50192 0.45268
 Zn257 Zn 1.03999 0.46375 0.53892
 Zn258 Zn 0.95268 0.47100 0.49733
 O259 O 1.00467 0.49608 0.50388
 O260 O 0.99884 0.58897 0.48245
 O261 O 1.07148 0.45868 0.44545
 O262 O 1.08060 0.49595 0.56484
 O263 O 1.05128 0.55554 0.44540
 O264 O 1.04111 0.55890 0.56655
 O265 O 1.06803 0.42292 0.50965
 O266 O 0.94517 0.43046 0.54131
 O267 O 0.98609 0.49755 0.41057
 O268 O 1.00919 0.43758 0.57958
 O269 O 0.94636 0.44781 0.44406
 O270 O 0.90891 0.51266 0.49986
 O271 O 0.94237 0.55412 0.54851
 C272 C 1.02800 0.58981 0.45349
 C273 C 1.08245 0.42596 0.47130
 C274 C 1.07592 0.53492 0.57751
 C275 C 0.97068 0.42184 0.57536
 C276 C 0.95605 0.46928 0.40955
 C277 C 0.90734 0.54303 0.52722
 Zn278 Zn 0.48523 0.52057 0.94119
 Zn279 Zn 0.55807 0.49058 0.99873
 Zn280 Zn 0.48506 0.54322 1.03366
 Zn281 Zn 0.47238 0.45133 1.00988
 O282 O 0.49926 0.50133 0.99643
 O283 O 0.53468 0.53758 0.91450
 O284 O 0.58656 0.53519 1.02079
 O285 O 0.44576 0.58286 1.00816
 O286 O 0.57862 0.48456 0.94547
 O287 O 0.44460 0.56585 0.93823
 O288 O 0.53293 0.57375 1.05144
 O289 O 0.43096 0.46082 1.04947
 O290 O 0.57536 0.44290 1.03085
 O291 O 0.45749 0.52046 1.07959
 O292 O 0.51100 0.41020 1.03540
 O293 O 0.44814 0.42716 0.96170
 O294 O 0.46226 0.47734 0.91023
 C295 C 0.57092 0.51435 0.91589
 C296 C 0.57349 0.56820 1.04146
 C297 C 0.43070 0.58915 0.96884
 C298 C 0.43171 0.48826 1.07987
 C299 C 0.55294 0.41094 1.04349
 C300 C 0.44800 0.44015 0.92166
 C301 C 1.15908 0.35465 0.42291
 C302 C 1.14996 0.32791 0.45845
 C303 C 1.11955 0.35115 0.48080
 C304 C 1.11208 0.39026 0.45724
 O305 O 1.13593 0.39255 0.42193
 H306 H 1.16421 0.29562 0.46753
 H307 H 1.10484 0.34101 0.51100
 C308 C 0.34737 0.66499 0.92572
 C309 C 0.35202 0.68146 0.96698
 C310 C 0.38422 0.65523 0.98859
 C311 C 0.39698 0.62480 0.95886
 O312 O 0.37467 0.63061 0.92060
 H313 H 0.33367 0.70885 0.98001
 H314 H 0.39674 0.65776 1.02212
 C315 C -0.15418 0.92142 0.14093
 C316 C -0.13202 0.94389 0.17298
 C317 C -0.09546 0.95931 0.15392
 C318 C -0.09810 0.94542 0.11149
 O319 O -0.13375 0.92221 0.10340
 H320 H -0.14139 0.94850 0.20629
 H321 H -0.07032 0.97921 0.16888
 C322 C 0.67042 0.12720 0.54866
 C323 C 0.68019 0.12771 0.50503
 C324 C 0.64907 0.10251 0.48539
 C325 C 0.62234 0.08922 0.51845
 O326 O 0.63526 0.10401 0.55688
 H327 H 0.70738 0.14358 0.48966
 H328 H 0.64607 0.09486 0.45114
 C329 C 0.42762 0.14727 0.33869
 C330 C 0.46744 0.13835 0.31915
 C331 C 0.48820 0.10518 0.34421
 C332 C 0.45941 0.09604 0.37691
 O333 O 0.42254 0.12142 0.37364
 H334 H 0.48038 0.15466 0.29073
 H335 H 0.52066 0.08975 0.33950
 C336 C 0.92209 0.34665 0.64682
 C337 C 0.95670 0.35861 0.67469
 C338 C 0.97879 0.38891 0.65155
 C339 C 0.95605 0.39350 0.61132
 O340 O 0.92142 0.36799 0.60826
 H341 H 0.96543 0.34628 0.70769
 H342 H 1.00839 0.40536 0.66247
 C343 C 0.04577 0.83872 -0.13150
 C344 C 0.00023 0.83445 -0.13794
 C345 C -0.01897 0.86460 -0.11202
 C346 C 0.01622 0.88550 -0.09251
 O347 O 0.05550 0.86988 -0.10414
 H348 H -0.01694 0.81155 -0.15823
 H349 H -0.05432 0.87099 -0.10817
 C350 C 0.63584 0.65739 1.07485
 C351 C 0.66548 0.63993 1.04626
 C352 C 0.64652 0.60324 1.03169
 C353 C 0.60641 0.60117 1.05188
 O354 O 0.59973 0.63397 1.07828
 H355 H 0.69724 0.65224 1.03715
 H356 H 0.65974 0.58124 1.00806
 C357 C 0.36477 0.45156 1.16347
 C358 C 0.35902 0.49579 1.17001
 C359 C 0.38397 0.51581 1.13954
 C360 C 0.40227 0.48226 1.11634
 O361 O 0.39084 0.44326 1.13083
 H362 H 0.34011 0.51139 1.19486
 H363 H 0.38822 0.55060 1.13466
 C364 C 0.57235 -0.14043 0.34563
 C365 C 0.54741 -0.17131 0.36609
 C366 C 0.53337 -0.15228 0.40279
 C367 C 0.55049 -0.11103 0.40189
 O368 O 0.57433 -0.10367 0.36720
 H369 H 0.54039 -0.20385 0.35558
 H370 H 0.51227 -0.16639 0.42689
 C371 C -0.16416 1.08011 -0.14315
 C372 C -0.18607 1.04208 -0.13488
 C373 C -0.16099 1.02018 -0.10219
 C374 C -0.12585 1.04663 -0.09274
 O375 O -0.12764 1.08305 -0.11754
 H376 H -0.21608 1.03112 -0.15139
 H377 H -0.16728 0.98852 -0.08729
 C378 C 1.14777 0.58981 0.64903
 C379 C 1.17792 0.55755 0.63736
 C380 C 1.15478 0.53294 0.60873
 C381 C 1.11232 0.55218 0.60474
 O382 O 1.10783 0.58680 0.62918
 H383 H 1.21238 0.55201 0.64901
 H384 H 1.16725 0.50418 0.59281
 C385 C 0.81473 0.60487 0.56012
 C386 C 0.79960 0.59934 0.51754
 C387 C 0.83203 0.57402 0.49983
 C388 C 0.86472 0.56679 0.53279
 O389 O 0.85433 0.58533 0.56951
 H390 H 0.76828 0.61147 0.50170
 H391 H 0.83230 0.56284 0.46667
 C392 C 0.62934 0.33773 1.10032
 C393 C 0.59660 0.30814 1.09252
 C394 C 0.56214 0.33197 1.07112
 C395 C 0.57698 0.37399 1.06708
 O396 O 0.61757 0.37754 1.08487
 H397 H 0.59767 0.27357 1.10156
 H398 H 0.53056 0.32002 1.05900
 C399 C 0.15103 1.14093 -0.08196
 C400 C 0.12735 1.17394 -0.06257
 C401 C 0.09084 1.15478 -0.04677
 C402 C 0.09522 1.11133 -0.05716
 O403 O 0.13173 1.10277 -0.07870
 H404 H 0.13573 1.20791 -0.06029
 H405 H 0.06477 1.17031 -0.02868
 C406 C 0.33776 -0.14667 0.44612
 C407 C 0.34539 -0.16670 0.48704
 C408 C 0.37349 -0.14034 0.50901
 C409 C 0.38052 -0.10604 0.48000
 O410 O 0.35891 -0.10973 0.44173
 H411 H 0.33294 -0.19738 0.49906
 H412 H 0.38810 -0.14599 0.54184
 C413 C 0.60386 -0.13090 0.66242
 C414 C 0.59421 -0.10041 0.69313
 C415 C 0.57279 -0.06605 0.66990
 C416 C 0.57042 -0.07889 0.62711
 O417 O 0.58936 -0.11802 0.62254
 H418 H 0.60167 -0.10307 0.72809
 H419 H 0.55898 -0.03618 0.68275
 C420 C 1.06137 0.67811 0.38820
 C421 C 1.01812 0.69333 0.39351
 C422 C 1.00007 0.66247 0.41981
 C423 C 1.03351 0.63054 0.42794
 O424 O 1.07081 0.63992 0.40890
 H425 H 1.00213 0.72377 0.38072
 H426 H 0.96643 0.66285 0.43127
 C427 C -0.05551 1.15855 0.15103
 C428 C -0.01499 1.14913 0.17327
 C429 C 0.00751 1.12114 0.14768
 C430 C -0.02079 1.11593 0.11159
 O431 O -0.05913 1.13855 0.11348
 H432 H -0.00359 1.16049 0.20480
 H433 H 0.04022 1.10558 0.15488
 C434 C 0.40880 0.35590 0.85641
 C435 C 0.42384 0.38246 0.82332
 C436 C 0.43884 0.41848 0.84337
 C437 C 0.43231 0.41107 0.88732
 O438 O 0.41391 0.37309 0.89540
 H439 H 0.42402 0.37618 0.78874
 H440 H 0.45400 0.44626 0.82798
 C441 C 0.64448 0.55733 0.84137
 C442 C 0.66890 0.51914 0.85278
 C443 C 0.64363 0.49708 0.88136
 C444 C 0.60560 0.52336 0.88496
 O445 O 0.60598 0.55999 0.86075
 H446 H 0.70151 0.50893 0.84216
 H447 H 0.65229 0.46603 0.89834
 C448 C 0.35813 0.08680 0.64650
 C449 C 0.32412 0.06913 0.62191
 C450 C 0.34361 0.05388 0.58580
 C451 C 0.38824 0.06284 0.59129
 O452 O 0.39721 0.08300 0.62812
 H453 H 0.28929 0.06751 0.62948
 H454 H 0.32754 0.03693 0.55931
 C455 C 0.16524 0.89534 0.13270
 C456 C 0.19606 0.90282 0.10144
 C457 C 0.17269 0.92549 0.06785
 C458 C 0.12973 0.93057 0.08175
 O459 O 0.12514 0.91220 0.12089
 H460 H 0.23114 0.89278 0.10291
 H461 H 0.18557 0.93777 0.03751
 C462 C 0.89128 0.43511 0.31970
 C463 C 0.89837 0.47687 0.30378
 C464 C 0.92471 0.49490 0.33521
 C465 C 0.93108 0.46296 0.36812
 O466 O 0.91093 0.42653 0.35884
 H467 H 0.88668 0.49193 0.27258
 H468 H 0.93732 0.52759 0.33455
   
