data_POSCAR
  _audit_creation_date              2014-09-24
  _audit_creation_method            'ToBaCCo'
  _symmetry_space_group_name_H-M    'P1'
  _symmetry_Int_Tables_number       1
  _symmetry_cell_setting            triclinic
  loop_
  _symmetry_equiv_pos_as_xyz
 x,y,z
_cell_length_a 13.0940
_cell_length_b 13.2247
_cell_length_c 16.2438
_cell_angle_alpha 90.000000
_cell_angle_beta 89.598500
_cell_angle_gamma 89.999900
loop_
  _atom_site_label
  _atom_site_type_symbol
  _atom_site_fract_x
  _atom_site_fract_y
  _atom_site_fract_z
O1 O 0.19470 0.11985 0.05580
 O2 O -0.19524 -0.11514 0.05694
 O3 O -0.11769 0.19448 0.05912
 O4 O 0.11735 -0.18985 0.05778
 O5 O -0.17599 0.05448 0.10233
 O6 O 0.17437 -0.04999 0.10188
 O7 O -0.05390 -0.16992 0.10147
 O8 O 0.05345 0.17533 0.10120
 C9 C 0.14574 0.16422 0.11117
 C10 C -0.14648 -0.16020 0.11156
 C11 C -0.16431 0.14598 0.11398
 C12 C 0.16267 -0.14151 0.11258
 O13 O 0.19524 -0.11514 -0.05694
 O14 O -0.19470 0.11984 -0.05580
 O15 O 0.11769 0.19448 -0.05912
 O16 O -0.11735 -0.18986 -0.05778
 O17 O -0.17438 -0.04999 -0.10188
 O18 O 0.17598 0.05448 -0.10233
 O19 O 0.05390 -0.16991 -0.10147
 O20 O -0.05345 0.17533 -0.10120
 Co21 Co 0.16696 0.00229 -0.00028
 Co22 Co -0.16696 0.00228 0.00028
 Co23 Co -0.00000 0.16718 0.00000
 Co24 Co -0.00000 -0.16211 -0.00000
 O25 O -0.00000 0.00244 0.00000
 C26 C 0.14647 -0.16019 -0.11157
 C27 C -0.14574 0.16422 -0.11117
 C28 C 0.16430 0.14599 -0.11398
 C29 C -0.16268 -0.14152 -0.11258
 O30 O 0.38203 0.30563 0.44349
 O31 O 0.61856 0.69127 0.44360
 O32 O 0.30588 0.61506 0.44206
 O33 O 0.69498 0.38245 0.44147
 O34 O 0.44787 0.67147 0.39803
 O35 O 0.55411 0.32425 0.39792
 O36 O 0.67510 0.55192 0.39809
 O37 O 0.32556 0.44550 0.39898
 C38 C 0.33731 0.35411 0.38860
 C39 C 0.66312 0.64325 0.38803
 C40 C 0.35544 0.66070 0.38757
 C41 C 0.64646 0.33674 0.38700
 O42 O 0.61796 0.30563 0.55651
 O43 O 0.38143 0.69127 0.55639
 O44 O 0.30502 0.38245 0.55853
 O45 O 0.69411 0.61506 0.55794
 O46 O 0.55212 0.67147 0.60197
 O47 O 0.44588 0.32425 0.60208
 O48 O 0.67443 0.44550 0.60102
 O49 O 0.32489 0.55192 0.60190
 Co50 Co 0.50000 0.33287 0.50000
 Co51 Co 0.50000 0.66346 0.50000
 Co52 Co 0.33338 0.49876 0.50037
 Co53 Co 0.66662 0.49876 0.49963
 O54 O 0.50000 0.49841 0.50000
 C55 C 0.66268 0.35411 0.61140
 C56 C 0.33687 0.64326 0.61197
 C57 C 0.35353 0.33674 0.61300
 C58 C 0.64455 0.66070 0.61242
 C59 C 0.14986 0.29449 0.22116
 C60 C 0.19636 0.21170 0.18191
 C61 C 0.28989 0.17501 0.21145
 C62 C 0.33536 0.21978 0.28019
 C63 C 0.28925 0.30358 0.31831
 C64 C 0.19656 0.34080 0.28800
 H65 H 0.07782 0.32432 0.19949
 H66 H 0.32696 0.11125 0.18202
 H67 H 0.40726 0.19043 0.30256
 H68 H 0.15941 0.40498 0.31685
 C69 C 0.70817 0.82435 0.21169
 C70 C 0.80258 0.78978 0.18142
 C71 C 0.84983 0.70674 0.21922
 C72 C 0.80358 0.65880 0.28596
 C73 C 0.71042 0.69447 0.31738
 C74 C 0.66322 0.77805 0.28039
 H75 H 0.67008 0.88771 0.18298
 H76 H 0.92216 0.67807 0.19655
 H77 H 0.84159 0.59487 0.31402
 H78 H 0.59109 0.80626 0.30380
 C79 C 0.85013 0.29449 0.77884
 C80 C 0.80363 0.21170 0.81809
 C81 C 0.71010 0.17501 0.78855
 C82 C 0.66463 0.21978 0.71981
 C83 C 0.71075 0.30358 0.68169
 C84 C 0.80343 0.34080 0.71200
 H85 H 0.92217 0.32433 0.80051
 H86 H 0.67303 0.11125 0.81798
 H87 H 0.59274 0.19043 0.69744
 H88 H 0.84058 0.40498 0.68315
 C89 C 0.29182 0.82435 0.78831
 C90 C 0.19742 0.78978 0.81858
 C91 C 0.15017 0.70674 0.78078
 C92 C 0.19641 0.65880 0.71404
 C93 C 0.28958 0.69447 0.68262
 C94 C 0.33677 0.77805 0.71961
 H95 H 0.32992 0.88771 0.81702
 H96 H 0.07783 0.67807 0.80345
 H97 H 0.15841 0.59488 0.68598
 H98 H 0.40891 0.80626 0.69620
 C99 C 0.18887 0.29528 0.80272
 C100 C 0.20682 0.19203 0.81971
 C101 C 0.27173 0.13764 0.76577
 C102 C 0.31988 0.18545 0.69945
 C103 C 0.30119 0.28761 0.68285
 C104 C 0.23419 0.34191 0.73403
 H105 H 0.13901 0.34005 0.84183
 H106 H 0.28789 0.05835 0.77573
 H107 H 0.37109 0.14219 0.66037
 H108 H 0.21909 0.42100 0.72210
 C109 C 0.70531 0.85176 0.77758
 C110 C 0.78935 0.80720 0.81673
 C111 C 0.82619 0.71378 0.78785
 C112 C 0.78057 0.66662 0.72013
 C113 C 0.69543 0.71065 0.68217
 C114 C 0.65811 0.80339 0.71167
 H115 H 0.67498 0.92340 0.79879
 H116 H 0.89065 0.67781 0.81718
 H117 H 0.81044 0.59503 0.69839
 H118 H 0.59327 0.83935 0.68281
 C119 C 0.29468 0.85176 0.22242
 C120 C 0.21065 0.80721 0.18327
 C121 C 0.17380 0.71379 0.21215
 C122 C 0.21942 0.66663 0.27987
 C123 C 0.30456 0.71065 0.31783
 C124 C 0.34188 0.80339 0.28833
 H125 H 0.32501 0.92340 0.20121
 H126 H 0.10934 0.67781 0.18282
 H127 H 0.18955 0.59503 0.30160
 H128 H 0.40672 0.83935 0.31719
 C129 C 0.81112 0.29528 0.19728
 C130 C 0.79317 0.19203 0.18029
 C131 C 0.72826 0.13764 0.23423
 C132 C 0.68012 0.18545 0.30055
 C133 C 0.69880 0.28761 0.31715
 C134 C 0.76580 0.34191 0.26597
 H135 H 0.86098 0.34005 0.15817
 H136 H 0.71210 0.05835 0.22427
 H137 H 0.62890 0.14219 0.33963
 H138 H 0.78090 0.42100 0.27790
   
