data_POSCAR
  _audit_creation_date              2014-09-24
  _audit_creation_method            'ToBaCCo'
  _symmetry_space_group_name_H-M    'P1'
  _symmetry_Int_Tables_number       1
  _symmetry_cell_setting            triclinic
  loop_
  _symmetry_equiv_pos_as_xyz
 x,y,z
_cell_length_a 48.5102
_cell_length_b 49.2041
_cell_length_c 49.3860
_cell_angle_alpha 89.130500
_cell_angle_beta 88.279400
_cell_angle_gamma 90.266100
loop_
  _atom_site_label
  _atom_site_type_symbol
  _atom_site_fract_x
  _atom_site_fract_y
  _atom_site_fract_z
Si1 Si 0.24469 0.50836 0.99809
 Si2 Si 0.74229 0.50581 0.00511
 Si3 Si 0.00901 0.24869 0.50591
 Si4 Si 1.00541 0.74248 0.49409
 Si5 Si 0.51675 -0.00356 0.24852
 Si6 Si 0.49846 0.01578 0.74859
 C7 C 0.30056 0.02044 0.46960
 H8 H 0.29994 0.03416 0.48652
 C9 C 0.32105 0.02340 0.44935
 H10 H 0.33590 0.03979 0.45061
 C11 C 0.28203 -0.01781 0.44777
 H12 H 0.26722 -0.03426 0.44760
 C13 C 0.30223 -0.01562 0.42706
 H14 H 0.30272 -0.03048 0.41111
 N15 N 0.28157 0.00012 0.46847
 C16 C 0.21266 0.02588 0.52021
 H17 H 0.21097 0.00844 0.53378
 C18 C 0.19323 0.04663 0.52200
 H19 H 0.17673 0.04523 0.53722
 C20 C 0.23586 0.04848 0.48336
 H21 H 0.25202 0.04876 0.46784
 C22 C 0.21700 0.06983 0.48459
 H23 H 0.21887 0.08641 0.46997
 Zn24 Zn 0.25645 -0.00365 0.49832
 N25 N 0.23333 0.02706 0.50102
 C26 C 0.27656 0.01125 0.54952
 N27 N 0.27788 -0.00738 0.52946
 C28 C 0.29673 -0.02773 0.52965
 C29 C 0.31560 -0.02966 0.55036
 C30 C 0.29506 0.01008 0.57065
 C31 C 0.21565 -0.03300 0.47319
 C32 C 0.19609 -0.05347 0.46998
 C33 C 0.21274 -0.07596 0.51009
 C34 C 0.23207 -0.05503 0.51251
 N35 N 0.23309 -0.03408 0.49421
 H36 H 0.26187 0.02766 0.54865
 H37 H 0.29757 -0.04203 0.51322
 H38 H 0.33060 -0.04588 0.55000
 H39 H 0.29434 0.02565 0.58591
 H40 H 0.21668 -0.01591 0.45915
 H41 H 0.18244 -0.05220 0.45307
 H42 H 0.21170 -0.09208 0.52526
 H43 H 0.24567 -0.05517 0.52944
 C44 C 0.19513 0.06884 0.50385
 C45 C 0.32226 0.00505 0.42784
 C46 C 0.19419 -0.07516 0.48877
 C47 C 0.31524 -0.01030 0.57098
 C48 C 0.71504 0.01676 0.53070
 H49 H 0.71649 0.03305 0.51575
 C50 C 0.69534 0.01790 0.55186
 H51 H 0.68154 0.03510 0.55294
 C52 C 0.73067 -0.02594 0.54671
 H53 H 0.74416 -0.04319 0.54442
 C54 C 0.71127 -0.02564 0.56817
 H55 H 0.71049 -0.04249 0.58253
 N56 N 0.73234 -0.00482 0.52863
 C57 C 0.80263 0.02556 0.48009
 H58 H 0.80280 0.01078 0.46409
 C59 C 0.82282 0.04581 0.48020
 H60 H 0.83823 0.04672 0.46389
 C61 C 0.78216 0.04213 0.52073
 H62 H 0.76663 0.04024 0.53679
 C63 C 0.80207 0.06270 0.52169
 H64 H 0.80163 0.07647 0.53859
 Zn65 Zn 0.75768 -0.00527 0.49872
 N66 N 0.78278 0.02415 0.50007
 C67 C 0.73987 0.01901 0.44974
 N68 N 0.73700 -0.00283 0.46685
 C69 C 0.71820 -0.02273 0.46241
 C70 C 0.70179 -0.02145 0.43968
 C71 C 0.72371 0.02122 0.42689
 C72 C 0.79592 -0.04071 0.52063
 C73 C 0.81337 -0.06311 0.52207
 C74 C 0.79630 -0.07816 0.47932
 C75 C 0.77910 -0.05545 0.47873
 N76 N 0.77910 -0.03737 0.49932
 H77 H 0.75437 0.03500 0.45396
 H78 H 0.71590 -0.03956 0.47666
 H79 H 0.68677 -0.03737 0.43659
 H80 H 0.72634 0.03868 0.41344
 H81 H 0.79595 -0.02571 0.53642
 H82 H 0.82691 -0.06510 0.53901
 H83 H 0.79594 -0.09241 0.46285
 H84 H 0.76612 -0.05212 0.46163
 C85 C 0.82287 0.06462 0.50131
 C86 C 0.69324 -0.00352 0.57095
 C87 C 0.81378 -0.08219 0.50120
 C88 C 0.70439 0.00080 0.42162
 C89 C 0.46817 0.21094 1.03764
 H90 H 0.45245 0.21147 1.02256
 C91 C 0.46698 0.19119 1.05823
 H92 H 0.44994 0.17688 1.05913
 C93 C 0.50977 0.22866 1.05429
 H94 H 0.52685 0.24277 1.05222
 C95 C 0.50943 0.20920 1.07519
 H96 H 0.52633 0.20862 1.08901
 N97 N 0.48936 0.22911 1.03598
 C98 C 0.46010 0.29540 0.98473
 H99 H 0.47654 0.29607 0.96943
 C100 C 0.43868 0.31420 0.98374
 H101 H 0.43858 0.32904 0.96734
 C102 C 0.44047 0.27519 1.02471
 H103 H 0.44156 0.26036 1.04098
 C104 C 0.41864 0.29362 1.02452
 H105 H 0.40312 0.29272 1.04073
 Zn106 Zn 0.49129 0.25272 1.00535
 N107 N 0.46055 0.27630 1.00489
 C108 C 0.47310 0.23247 0.95501
 N109 N 0.49224 0.23033 0.97451
 C110 C 0.51163 0.21047 0.97379
 C111 C 0.51211 0.19153 0.95304
 C112 C 0.47300 0.21407 0.93372
 C113 C 0.52448 0.29290 1.02662
 C114 C 0.54673 0.31082 1.02796
 C115 C 0.56610 0.29133 0.98704
 C116 C 0.54343 0.27372 0.98650
 N117 N 0.52324 0.27481 1.00616
 H118 H 0.45744 0.24796 0.95626
 H119 H 0.52638 0.20904 0.98974
 H120 H 0.52756 0.17571 0.95293
 H121 H 0.45726 0.21567 0.91869
 H122 H 0.50798 0.29347 1.04184
 H123 H 0.54739 0.32491 1.04455
 H124 H 0.58170 0.29059 0.97092
 H125 H 0.54178 0.25955 0.97012
 C126 C 0.41759 0.31353 1.00387
 C127 C 0.48802 0.18988 1.07714
 C128 C 0.56785 0.31035 1.00787
 C129 C 0.49246 0.19306 0.93279
 C130 C 0.47569 0.80033 -0.03523
 H131 H 0.46046 0.79977 -0.01877
 C132 C 0.47358 0.81955 -0.05615
 H133 H 0.45669 0.83384 -0.05549
 C134 C 0.51699 0.78319 -0.05512
 H135 H 0.53417 0.76936 -0.05442
 C136 C 0.51559 0.80194 -0.07653
 H137 H 0.53145 0.80180 -0.09242
 N138 N 0.49713 0.78264 -0.03509
 C139 C 0.47081 0.71409 0.01630
 H140 H 0.48732 0.71424 0.03055
 C141 C 0.45069 0.69378 0.01809
 H142 H 0.45163 0.67854 0.03408
 C143 C 0.44975 0.73389 -0.02189
 H144 H 0.44981 0.74927 -0.03773
 C145 C 0.42912 0.71392 -0.02081
 H146 H 0.41341 0.71413 -0.03592
 Zn147 Zn 0.49954 0.75880 -0.00485
 N148 N 0.47000 0.73362 -0.00341
 C149 C 0.47839 0.77724 0.04589
 N150 N 0.49879 0.78033 0.02656
 C151 C 0.51871 0.79965 0.02864
 C152 C 0.51911 0.81630 0.05125
 C153 C 0.47786 0.79364 0.06874
 C154 C 0.53517 0.72043 -0.02776
 C155 C 0.55791 0.70320 -0.02944
 C156 C 0.57435 0.72251 0.01180
 C157 C 0.55134 0.73944 0.01265
 N158 N 0.53234 0.73815 -0.00700
 H159 H 0.46237 0.76221 0.04358
 H160 H 0.53435 0.80203 0.01269
 H161 H 0.53510 0.83162 0.05256
 H162 H 0.46164 0.79076 0.08407
 H163 H 0.51941 0.71938 -0.04276
 H164 H 0.55946 0.68882 -0.04578
 H165 H 0.58922 0.72375 0.02767
 H166 H 0.54843 0.75309 0.02938
 C167 C 0.42957 0.69340 -0.00072
 C168 C 0.49377 0.82061 -0.07716
 C169 C 0.57774 0.70394 -0.00933
 C170 C 0.49851 0.81337 0.07167
 C171 C 1.01705 0.47171 0.20625
 H172 H 1.00105 0.45630 0.20697
 C173 C 1.03762 0.47121 0.18592
 H174 H 1.03754 0.45505 0.17128
 C175 C 1.03635 0.51152 0.22452
 H176 H 1.03545 0.52750 0.23926
 C177 C 1.05738 0.51177 0.20453
 H178 H 1.07251 0.52803 0.20411
 N179 N 1.01683 0.49156 0.22510
 C180 C 0.96973 0.45831 0.29450
 H181 H 0.95465 0.47424 0.29723
 C182 C 0.96993 0.43622 0.31254
 H183 H 0.95508 0.43552 0.32934
 C184 C 1.00810 0.44067 0.26981
 H185 H 1.02315 0.44263 0.25334
 C186 C 1.00892 0.41811 0.28727
 H187 H 1.02436 0.40267 0.28363
 Zn188 Zn 0.98696 0.49114 0.25065
 N189 N 0.98853 0.46007 0.27357
 C190 C 0.93603 0.46945 0.23342
 N191 N 0.95431 0.49043 0.23065
 C192 C 0.95077 0.51070 0.21210
 C193 C 0.92795 0.51056 0.19557
 C194 C 0.91297 0.46841 0.21717
 C195 C 1.00928 0.52489 0.28973
 C196 C 1.01016 0.54656 0.30765
 C197 C 0.96653 0.56199 0.29100
 C198 C 0.96650 0.54006 0.27338
 N199 N 0.98774 0.52211 0.27297
 H200 H 0.93950 0.45322 0.24788
 H201 H 0.96595 0.52683 0.20994
 H202 H 0.92574 0.52666 0.18061
 H203 H 0.89862 0.45158 0.21961
 H204 H 1.02563 0.51001 0.28939
 H205 H 1.02726 0.54813 0.32115
 H206 H 0.94950 0.57614 0.29089
 H207 H 0.94925 0.53723 0.26039
 C208 C 0.98969 0.41566 0.30904
 C209 C 1.05810 0.49149 0.18479
 C210 C 0.98850 0.56539 0.30855
 C211 C 0.90877 0.48913 0.19789
 C212 C -0.03422 0.47332 0.79247
 H213 H -0.01747 0.45890 0.79130
 C214 C -0.05533 0.46983 0.81203
 H215 H -0.05490 0.45236 0.82560
 C216 C -0.05474 0.51381 0.77630
 H217 H -0.05406 0.53128 0.76279
 C218 C -0.07627 0.51113 0.79562
 H219 H -0.09197 0.52668 0.79675
 N220 N -0.03427 0.49503 0.77512
 C221 C 0.02004 0.47144 0.70784
 H222 H 0.03448 0.48826 0.70773
 C223 C 0.02255 0.45148 0.68819
 H224 H 0.03929 0.45287 0.67322
 C225 C -0.01944 0.44944 0.72748
 H226 H -0.03615 0.44908 0.74243
 C227 C -0.01770 0.42900 0.70817
 H228 H -0.03316 0.41305 0.70849
 Zn229 Zn -0.00331 0.49934 0.75124
 N230 N -0.00064 0.47006 0.72700
 C231 C 0.04851 0.48202 0.77064
 N232 N 0.02813 0.50081 0.77295
 C233 C 0.02860 0.52018 0.79227
 C234 C 0.05023 0.52122 0.81025
 C235 C 0.07057 0.48234 0.78818
 C236 C -0.02732 0.53223 0.71219
 C237 C -0.02955 0.55404 0.69401
 C238 C 0.01156 0.57363 0.71230
 C239 C 0.01297 0.55144 0.73020
 N240 N -0.00630 0.53129 0.72977
 H241 H 0.04741 0.46633 0.75565
 H242 H 0.01192 0.53464 0.79390
 H243 H 0.05026 0.53685 0.82544
 H244 H 0.08626 0.46684 0.78643
 H245 H -0.04202 0.51565 0.71191
 H246 H -0.04602 0.55401 0.67970
 H247 H 0.02714 0.58943 0.71282
 H248 H 0.02985 0.55004 0.74392
 C249 C 0.00340 0.42999 0.68805
 C250 C -0.07659 0.48905 0.81401
 C251 C -0.00979 0.57500 0.69372
 C252 C 0.07150 0.50199 0.80847
 C253 C 0.06093 0.23148 0.52585
 C254 C 0.08415 0.21469 0.52598
 C255 C 0.08789 0.19473 0.50620
 C256 C 0.06891 0.19296 0.48532
 C257 C 0.04592 0.20987 0.48508
 C258 C 0.04136 0.22863 0.50576
 C259 C 0.11146 0.17585 0.50782
 C260 C 0.10939 0.14987 0.50031
 C261 C 0.13195 0.12990 0.50243
 C262 C 0.12504 0.10225 0.50494
 C263 C 0.14558 0.08254 0.50595
 C264 C 0.17354 0.09004 0.50404
 C265 C 0.18055 0.11772 0.50139
 C266 C 0.15995 0.13752 0.50068
 H267 H 0.05823 0.24634 0.54159
 H268 H 0.09878 0.21674 0.54197
 H269 H 0.07175 0.17849 0.46920
 H270 H 0.03130 0.20783 0.46908
 H271 H 0.13001 0.18296 0.51718
 H272 H 0.08973 0.14233 0.49365
 H273 H 0.10362 0.09586 0.50605
 H274 H 0.13958 0.06133 0.50756
 H275 H 0.20197 0.12402 0.49986
 H276 H 0.16600 0.15861 0.49807
 C277 C 0.70915 0.54583 0.02950
 C278 C 0.69422 0.56996 0.03058
 C279 C 0.69386 0.58760 0.00803
 C280 C 0.70990 0.58129 -0.01525
 C281 C 0.72513 0.55721 -0.01618
 C282 C 0.72428 0.53907 0.00598
 C283 C 0.67627 0.61204 0.00961
 C284 C 0.66386 0.62282 -0.01195
 C285 C 0.64311 0.64489 -0.01024
 C286 C 0.63577 0.65835 -0.03423
 C287 C 0.61494 0.67790 -0.03394
 C288 C 0.60095 0.68441 -0.00960
 C289 C 0.60846 0.67121 0.01446
 C290 C 0.62916 0.65160 0.01418
 H291 H 0.70849 0.53218 0.04693
 H292 H 0.68227 0.57449 0.04883
 H293 H 0.71085 0.59492 -0.03266
 H294 H 0.73722 0.55279 -0.03429
 H295 H 0.67209 0.61996 0.02959
 H296 H 0.66818 0.61450 -0.03179
 H297 H 0.64599 0.65350 -0.05334
 H298 H 0.60971 0.68788 -0.05278
 H299 H 0.59762 0.67535 0.03343
 H300 H 0.63327 0.64123 0.03305
 C301 C 0.96716 -0.22452 0.46699
 C302 C 0.94419 -0.20764 0.46521
 C303 C 0.92722 -0.20281 0.48815
 C304 C 0.93303 -0.21628 0.51270
 C305 C 0.95600 -0.23322 0.51441
 C306 C 0.97339 -0.23711 0.49166
 C307 C 0.90401 -0.18347 0.48559
 C308 C 0.89332 -0.16950 0.50653
 C309 C 0.87179 -0.14832 0.50396
 C310 C 0.85703 -0.14046 0.52742
 C311 C 0.83781 -0.11943 0.52643
 C312 C 0.83299 -0.10561 0.50193
 C313 C 0.84750 -0.11364 0.47835
 C314 C 0.86676 -0.13467 0.47933
 H315 H 0.98038 -0.22735 0.44919
 H316 H 0.94008 -0.19774 0.44602
 H317 H 0.91994 -0.21390 0.53061
 H318 H 0.96037 -0.24283 0.53365
 H319 H 0.89658 -0.17986 0.46544
 H320 H 0.90093 -0.17312 0.52662
 H321 H 0.86054 -0.15051 0.54667
 H322 H 0.82675 -0.11393 0.54490
 H323 H 0.84466 -0.10303 0.45928
 H324 H 0.87823 -0.13936 0.46091
 C325 C 0.28663 0.47725 0.97297
 C326 C 0.30607 0.45642 0.97143
 C327 C 0.30772 0.43689 0.99235
 C328 C 0.28943 0.43873 1.01496
 C329 C 0.26998 0.45959 1.01644
 C330 C 0.26846 0.47895 0.99545
 C331 C 0.32983 0.41618 0.99057
 C332 C 0.32944 0.39276 1.00487
 C333 C 0.35226 0.37278 1.00371
 C334 C 0.34667 0.34557 1.01098
 C335 C 0.36776 0.32629 1.01086
 C336 C 0.39502 0.33386 1.00366
 C337 C 0.40067 0.36115 0.99663
 C338 C 0.37959 0.38042 0.99674
 H339 H 0.28606 0.49231 0.95677
 H340 H 0.32007 0.45573 0.95396
 H341 H 0.29060 0.42475 1.03198
 H342 H 0.25673 0.46091 1.03436
 H343 H 0.34672 0.42028 0.97626
 H344 H 0.31142 0.38735 1.01726
 H345 H 0.32586 0.33918 1.01666
 H346 H 0.36269 0.30540 1.01618
 H347 H 0.42155 0.36778 0.99163
 H348 H 0.38500 0.40134 0.99203
 C349 C 0.95203 0.23530 0.50606
 C350 C 0.92939 0.21753 0.50719
 C351 C 0.93321 0.18945 0.51092
 C352 C 0.96006 0.17970 0.51482
 C353 C 0.98260 0.19743 0.51350
 C354 C 0.97883 0.22523 0.50844
 C355 C 0.90890 0.17100 0.51110
 C356 C 0.91087 0.14468 0.50447
 C357 C 0.88748 0.12508 0.50406
 C358 C 0.89318 0.09851 0.49566
 C359 C 0.87228 0.07899 0.49486
 C360 C 0.84500 0.08554 0.50237
 C361 C 0.83917 0.11207 0.51095
 C362 C 0.86014 0.13165 0.51184
 H363 H 0.94865 0.25685 0.50290
 H364 H 0.90889 0.22567 0.50471
 H365 H 0.96383 0.15848 0.51925
 H366 H 1.00290 0.18923 0.51671
 H367 H 0.88903 0.17990 0.51570
 H368 H 0.93084 0.13685 0.49824
 H369 H 0.91399 0.09271 0.48974
 H370 H 0.87762 0.05862 0.48867
 H371 H 0.81830 0.11780 0.51668
 H372 H 0.85461 0.15170 0.51864
 C373 C 0.26612 0.55867 -0.02296
 C374 C 0.28427 0.58083 -0.02351
 C375 C 0.30419 0.58342 -0.00365
 C376 C 0.30500 0.56375 0.01734
 C377 C 0.28686 0.54161 0.01782
 C378 C 0.26732 0.53894 -0.00228
 C379 C 0.32351 0.60689 -0.00537
 C380 C 0.34857 0.60643 0.00541
 C381 C 0.36866 0.62924 0.00313
 C382 C 0.39653 0.62368 0.00749
 C383 C 0.41625 0.64444 0.00605
 C384 C 0.40853 0.67137 0.00038
 C385 C 0.38062 0.67704 -0.00393
 C386 C 0.36084 0.65624 -0.00244
 H387 H 0.25152 0.55686 -0.03896
 H388 H 0.28311 0.59573 -0.03980
 H389 H 0.31939 0.56543 0.03354
 H390 H 0.28810 0.52651 0.03393
 H391 H 0.31739 0.62429 -0.01737
 H392 H 0.35551 0.58798 0.01521
 H393 H 0.40314 0.60312 0.01190
 H394 H 0.43763 0.63935 0.00912
 H395 H 0.37400 0.69768 -0.00786
 H396 H 0.33949 0.66159 -0.00509
 C397 C 0.06254 -0.24410 0.49546
 C398 C 0.08519 -0.22640 0.49540
 C399 C 0.08149 -0.19821 0.49272
 C400 C 0.05452 -0.18808 0.49072
 C401 C 0.03194 -0.20579 0.49083
 C402 C 0.03575 -0.23395 0.49302
 C403 C 0.10589 -0.17996 0.49345
 C404 C 0.10646 -0.15502 0.48201
 C405 C 0.12972 -0.13547 0.48374
 C406 C 0.12464 -0.10801 0.47777
 C407 C 0.14554 -0.08856 0.47934
 C408 C 0.17220 -0.09611 0.48675
 C409 C 0.17749 -0.12365 0.49244
 C410 C 0.15652 -0.14317 0.49087
 H411 H 0.06592 -0.26575 0.49778
 H412 H 0.10567 -0.23473 0.49743
 H413 H 0.05058 -0.16647 0.48981
 H414 H 0.01153 -0.19723 0.48960
 H415 H 0.12366 -0.18756 0.50380
 H416 H 0.08866 -0.14803 0.47125
 H417 H 0.10426 -0.10146 0.47219
 H418 H 0.14064 -0.06748 0.47523
 H419 H 0.19795 -0.13015 0.49775
 H420 H 0.16165 -0.16416 0.49490
 C421 C 0.68809 0.48405 1.00420
 C422 C 0.66851 0.46326 1.00367
 C423 C 0.67652 0.43589 1.00402
 C424 C 0.70488 0.42978 1.00455
 C425 C 0.72453 0.45072 1.00503
 C426 C 0.71622 0.47796 1.00516
 C427 C 0.65441 0.41493 1.00344
 C428 C 0.65792 0.38822 1.00802
 C429 C 0.63463 0.36855 1.00819
 C430 C 0.63972 0.34140 1.00140
 C431 C 0.61811 0.32245 1.00123
 C432 C 0.59099 0.33022 1.00822
 C433 C 0.58603 0.35729 1.01551
 C434 C 0.60756 0.37619 1.01566
 H435 H 0.68103 0.50484 1.00362
 H436 H 0.64690 0.46866 1.00302
 H437 H 0.71217 0.40908 1.00424
 H438 H 0.74623 0.44567 1.00524
 H439 H 0.63395 0.42221 0.99917
 H440 H 0.67824 0.38015 1.01134
 H441 H 0.66043 0.33491 0.99594
 H442 H 0.62267 0.30164 0.99592
 H443 H 0.56537 0.36400 1.02085
 H444 H 0.60289 0.39664 1.02201
 C445 C 0.51496 0.05342 1.23881
 C446 C 0.51255 0.07690 1.22268
 C447 C 0.50992 0.07497 1.19453
 C448 C 0.51069 0.04912 1.18273
 C449 C 0.51314 0.02577 1.19882
 C450 C 0.51537 0.02772 1.22695
 C451 C 0.50712 0.10008 1.17785
 C452 C 0.49354 0.10042 1.15455
 C453 C 0.49164 0.12424 1.13588
 C454 C 0.48234 0.11974 1.10968
 C455 C 0.48086 0.14105 1.09083
 C456 C 0.48849 0.16756 1.09775
 C457 C 0.49732 0.17229 1.12414
 C458 C 0.49883 0.15090 1.14306
 H459 H 0.51632 0.05531 1.26055
 H460 H 0.51226 0.09657 1.23223
 H461 H 0.50968 0.04679 1.16104
 H462 H 0.51296 0.00627 1.18908
 H463 H 0.51643 0.11841 1.18526
 H464 H 0.48364 0.08191 1.14820
 H465 H 0.47663 0.09947 1.10354
 H466 H 0.47438 0.13658 1.07058
 H467 H 0.50291 0.19259 1.13021
 H468 H 0.50546 0.15554 1.16316
 C469 C 0.02343 0.72717 0.54665
 C470 C 0.02336 0.71101 0.57018
 C471 C 0.00412 0.68981 0.57410
 C472 C -0.01518 0.68519 0.55392
 C473 C -0.01505 0.70136 0.53041
 C474 C 0.00453 0.72216 0.52635
 C475 C 0.00592 0.67206 0.59855
 C476 C -0.01514 0.65677 0.60846
 C477 C -0.01283 0.63737 0.63159
 C478 C -0.03705 0.62842 0.64529
 C479 C -0.03604 0.60871 0.66591
 C480 C -0.01074 0.59736 0.67321
 C481 C 0.01357 0.60655 0.65976
 C482 C 0.01257 0.62624 0.63911
 H483 H 0.03836 0.74348 0.54448
 H484 H 0.03846 0.71503 0.58535
 H485 H -0.02993 0.66867 0.55573
 H486 H -0.03012 0.69728 0.51533
 H487 H 0.02526 0.67215 0.60889
 H488 H -0.03521 0.65867 0.59967
 H489 H -0.05689 0.63652 0.63982
 H490 H -0.05510 0.60222 0.67606
 H491 H 0.03331 0.59778 0.66451
 H492 H 0.03163 0.63183 0.62853
 C493 C 0.52186 0.98646 -0.20834
 C494 C 0.52363 0.96522 -0.18940
 C495 C 0.50442 0.94374 -0.18889
 C496 C 0.48361 0.94381 -0.20822
 C497 C 0.48178 0.96519 -0.22703
 C498 C 0.50097 0.98656 -0.22729
 C499 C 0.50721 0.92177 -0.16817
 C500 C 0.48725 0.90366 -0.16144
 C501 C 0.48983 0.88224 -0.14013
 C502 C 0.46573 0.86941 -0.12983
 C503 C 0.46698 0.84932 -0.10961
 C504 C 0.49244 0.84149 -0.09919
 C505 C 0.51663 0.85399 -0.10979
 C506 C 0.51541 0.87396 -0.13014
 H507 H 0.53676 1.00291 -0.20812
 H508 H 0.53995 0.96570 -0.17492
 H509 H 0.46878 0.92744 -0.20921
 H510 H 0.46527 0.96491 -0.24123
 H511 H 0.52618 0.92159 -0.15725
 H512 H 0.46749 0.90513 -0.17086
 H513 H 0.44577 0.87508 -0.13735
 H514 H 0.44798 0.83976 -0.10229
 H515 H 0.53659 0.84861 -0.10212
 H516 H 0.53463 0.88255 -0.13797
 C517 C 1.03212 0.28737 0.46923
 C518 C 1.03302 0.30398 0.44606
 C519 C 1.01241 0.30216 0.42680
 C520 C 0.99154 0.28232 0.43063
 C521 C 0.99062 0.26577 0.45394
 C522 C 1.01050 0.26874 0.47369
 C523 C 1.01353 0.32150 0.40341
 C524 C 0.99174 0.32757 0.38835
 C525 C 0.99209 0.34917 0.36697
 C526 C 0.96680 0.35954 0.35849
 C527 C 0.96599 0.38078 0.33943
 C528 C 0.99051 0.39218 0.32833
 C529 C 1.01584 0.38126 0.33618
 C530 C 1.01665 0.35990 0.35510
 H531 H 1.04796 0.28958 0.48404
 H532 H 1.04958 0.31873 0.44349
 H533 H 0.97593 0.27934 0.41578
 H534 H 0.97432 0.25081 0.45644
 H535 H 1.03260 0.33266 0.40012
 H536 H 0.97207 0.31793 0.39306
 H537 H 0.94754 0.35147 0.36697
 H538 H 0.94611 0.38825 0.33339
 H539 H 1.03514 0.38959 0.32812
 H540 H 1.03661 0.35200 0.36023
 C541 C 0.54030 0.96239 0.20893
 C542 C 0.54095 0.94060 0.19117
 C543 C 0.51901 0.92191 0.19095
 C544 C 0.49692 0.92480 0.20988
 C545 C 0.49628 0.94671 0.22761
 C546 C 0.51766 0.96597 0.22675
 C547 C 0.52010 0.90004 0.17059
 C548 C 0.49782 0.88648 0.16246
 C549 C 0.49861 0.86669 0.14004
 C550 C 0.47392 0.86053 0.12725
 C551 C 0.47379 0.84294 0.10530
 C552 C 0.49839 0.83110 0.09566
 C553 C 0.52299 0.83661 0.10887
 C554 C 0.52311 0.85402 0.13095
 H555 H 0.55722 0.97685 0.20831
 H556 H 0.55840 0.93870 0.17714
 H557 H 0.48015 0.91025 0.21122
 H558 H 0.47901 0.94856 0.24179
 H559 H 0.53985 0.89673 0.16048
 H560 H 0.47770 0.89143 0.17099
 H561 H 0.45472 0.86979 0.13393
 H562 H 0.45454 0.83913 0.09544
 H563 H 0.54213 0.82724 0.10221
 H564 H 0.54241 0.85723 0.14081
 C565 C 0.00645 0.26133 0.56171
 C566 C 0.00454 0.27873 0.58383
 C567 C 0.00222 0.30693 0.57976
 C568 C 0.00067 0.31725 0.55311
 C569 C 0.00259 0.29986 0.53109
 C570 C 0.00607 0.27187 0.53521
 C571 C 0.00066 0.32495 0.60354
 C572 C 0.00939 0.35089 0.60231
 C573 C 0.00762 0.37024 0.62507
 C574 C 0.01285 0.39783 0.61921
 C575 C 0.01148 0.41712 0.63960
 C576 C 0.00495 0.40930 0.66651
 C577 C -0.00017 0.38169 0.67253
 C578 C 0.00121 0.36232 0.65208
 H579 H 0.00848 0.23967 0.56528
 H580 H 0.00524 0.27022 0.60415
 H581 H -0.00252 0.33866 0.54913
 H582 H 0.00104 0.30846 0.51093
 H583 H -0.00744 0.31619 0.62234
 H584 H 0.01828 0.35875 0.58339
 H585 H 0.01781 0.40458 0.59864
 H586 H 0.01513 0.43827 0.63421
 H587 H -0.00486 0.37502 0.69316
 H588 H -0.00241 0.34130 0.65778
 C589 C 0.51533 0.06770 0.76717
 C590 C 0.51424 0.08964 0.78485
 C591 C 0.49429 0.09035 0.80600
 C592 C 0.47461 0.06928 0.80840
 C593 C 0.47555 0.04753 0.79056
 C594 C 0.49605 0.04646 0.77002
 C595 C 0.49463 0.11311 0.82528
 C596 C 0.48708 0.10988 0.85148
 C597 C 0.48891 0.13178 0.87161
 C598 C 0.49249 0.12454 0.89885
 C599 C 0.49401 0.14447 0.91859
 C600 C 0.49152 0.17210 0.91156
 C601 C 0.48755 0.17940 0.88434
 C602 C 0.48633 0.15944 0.86450
 H603 H 0.53154 0.06723 0.75170
 H604 H 0.52951 0.10570 0.78251
 H605 H 0.45847 0.06958 0.82401
 H606 H 0.46050 0.03128 0.79306
 H607 H 0.50340 0.13229 0.81816
 H608 H 0.48105 0.08987 0.85903
 H609 H 0.49425 0.10337 0.90487
 H610 H 0.49663 0.13823 0.93948
 H611 H 0.48553 0.20055 0.87840
 H612 H 0.48284 0.16570 0.84379
 C613 C 1.03038 0.71521 0.44892
 C614 C 1.03083 0.69656 0.42783
 C615 C 1.00714 0.68152 0.42196
 C616 C 0.98288 0.68557 0.43774
 C617 C 0.98251 0.70419 0.45883
 C618 C 1.00635 0.71880 0.46492
 C619 C 1.00895 0.66103 0.40022
 C620 C 0.98696 0.65175 0.38723
 C621 C 0.98824 0.63010 0.36659
 C622 C 0.96381 0.61620 0.36087
 C623 C 0.96388 0.59535 0.34199
 C624 C 0.98841 0.58798 0.32820
 C625 C 1.01282 0.60216 0.33353
 C626 C 1.01276 0.62307 0.35243
 H627 H 1.04895 0.72653 0.45267
 H628 H 1.04978 0.69386 0.41603
 H629 H 0.96431 0.67403 0.43443
 H630 H 0.96348 0.70711 0.47038
 H631 H 1.02927 0.65338 0.39511
 H632 H 0.96674 0.65971 0.39229
 H633 H 0.94462 0.62123 0.37136
 H634 H 0.94478 0.58463 0.33859
 H635 H 1.03193 0.59732 0.32282
 H636 H 1.03189 0.63379 0.35545
 C637 C 1.22254 0.52688 0.04862
 C638 C 1.20430 0.52566 0.07109
 C639 C 1.18548 0.50401 0.07448
 C640 C 1.18600 0.48302 0.05541
 C641 C 1.20421 0.48429 0.03297
 C642 C 1.22252 0.50623 0.02940
 C643 C 1.16577 0.50401 0.09804
 C644 C 1.14126 0.49123 0.09803
 C645 C 1.12060 0.49190 0.12079
 C646 C 1.09312 0.48535 0.11549
 C647 C 1.07288 0.48534 0.13620
 C648 C 1.07969 0.49173 0.16282
 C649 C 1.10722 0.49816 0.16824
 C650 C 1.12752 0.49813 0.14750
 H651 H 1.23617 0.54424 0.04612
 H652 H 1.20445 0.54200 0.08554
 H653 H 1.17253 0.46551 0.05773
 H654 H 1.20389 0.46818 0.01827
 H655 H 1.17099 0.51645 0.11504
 H656 H 1.13515 0.48095 0.07993
 H657 H 1.08721 0.48037 0.09517
 H658 H 1.05181 0.48063 0.13129
 H659 H 1.11317 0.50268 0.18865
 H660 H 1.14857 0.50245 0.15267
 C661 C 0.53015 0.03747 0.70441
 C662 C 0.55207 0.03814 0.68539
 C663 C 0.57285 0.01839 0.68612
 C664 C 0.57171 -0.00156 0.70688
 C665 C 0.54979 -0.00215 0.72592
 C666 C 0.52887 0.01734 0.72477
 C667 C 0.59534 0.01942 0.66510
 C668 C 0.60968 -0.00255 0.65737
 C669 C 0.63124 -0.00202 0.63541
 C670 C 0.63764 -0.02633 0.62217
 C671 C 0.65772 -0.02683 0.60131
 C672 C 0.67208 -0.00301 0.59333
 C673 C 0.66600 0.02127 0.60685
 C674 C 0.64588 0.02178 0.62773
 H675 H 0.51404 0.05256 0.70308
 H676 H 0.55252 0.05382 0.66975
 H677 H 0.58773 -0.01664 0.70865
 H678 H 0.54918 -0.01804 0.74129
 H679 H 0.59877 0.03860 0.65449
 H680 H 0.60436 -0.02221 0.66622
 H681 H 0.62680 -0.04497 0.62777
 H682 H 0.66168 -0.04581 0.59112
 H683 H 0.67712 0.03983 0.60158
 H684 H 0.64228 0.04073 0.63804
 C685 C -0.24637 0.50255 0.94854
 C686 C -0.22927 0.50036 0.92534
 C687 C -0.20067 0.49713 0.92761
 C688 C -0.18951 0.49642 0.95359
 C689 C -0.20658 0.49869 0.97667
 C690 C -0.23506 0.50217 0.97432
 C691 C -0.18288 0.49603 0.90269
 C692 C -0.15833 0.48354 0.90199
 C693 C -0.13847 0.48433 0.87852
 C694 C -0.11104 0.47706 0.88308
 C695 C -0.09111 0.47836 0.86213
 C696 C -0.09816 0.48677 0.83594
 C697 C -0.12573 0.49352 0.83113
 C698 C -0.14573 0.49225 0.85215
 H699 H -0.26839 0.50486 0.94634
 H700 H -0.23837 0.50113 0.90558
 H701 H -0.16753 0.49483 0.95627
 H702 H -0.19728 0.49787 0.99627
 H703 H -0.19034 0.50618 0.88481
 H704 H -0.15170 0.47288 0.91997
 H705 H -0.10482 0.47086 0.90313
 H706 H -0.07000 0.47338 0.86664
 H707 H -0.13189 0.49961 0.81105
 H708 H -0.16672 0.49730 0.84746
 C709 C 0.45928 -0.00223 0.26063
 C710 C 0.43582 -0.00156 0.27780
 C711 C 0.43840 -0.00115 0.30604
 C712 C 0.46494 -0.00201 0.31676
 C713 C 0.48829 -0.00273 0.29961
 C714 C 0.48564 -0.00307 0.27145
 C715 C 0.41319 -0.00084 0.32377
 C716 C 0.41284 0.00979 0.34865
 C717 C 0.38882 0.00886 0.36798
 C718 C 0.39353 0.01404 0.39533
 C719 C 0.37195 0.01293 0.41463
 C720 C 0.34498 0.00679 0.40704
 C721 C 0.34008 0.00198 0.37961
 C722 C 0.36173 0.00307 0.36023
 H723 H 0.45685 -0.00220 0.23890
 H724 H 0.41562 -0.00112 0.26903
 H725 H 0.46784 -0.00264 0.33839
 H726 H 0.50834 -0.00297 0.30858
 H727 H 0.39471 -0.00967 0.31585
 H728 H 0.43144 0.01917 0.35580
 H729 H 0.41414 0.01857 0.40191
 H730 H 0.37652 0.01636 0.43564
 H731 H 0.31943 -0.00235 0.37309
 H732 H 0.35694 -0.00033 0.33933
 C733 C 0.20074 0.53068 0.96940
 C734 C 0.18110 0.53160 0.94933
 C735 C 0.18048 0.51157 0.92940
 C736 C 0.19994 0.49041 0.93013
 C737 C 0.21963 0.48955 0.95027
 C738 C 0.22017 0.50975 0.96994
 C739 C 0.15833 0.51282 0.90936
 C740 C 0.15918 0.49983 0.88566
 C741 C 0.13645 0.50100 0.86623
 C742 C 0.14231 0.49595 0.83876
 C743 C 0.12133 0.49646 0.81994
 C744 C 0.09396 0.50187 0.82825
 C745 C 0.08804 0.50660 0.85579
 C746 C 0.10897 0.50605 0.87460
 H747 H 0.20060 0.54624 0.98469
 H748 H 0.16621 0.54793 0.94948
 H749 H 0.19963 0.47405 0.91577
 H750 H 0.23397 0.47280 0.95071
 H751 H 0.14101 0.52587 0.91413
 H752 H 0.17753 0.48881 0.87955
 H753 H 0.16324 0.49177 0.83181
 H754 H 0.12657 0.49287 0.79883
 H755 H 0.06705 0.51011 0.86294
 H756 H 0.10335 0.50895 0.89571
 C757 C 0.55227 -0.02916 0.28473
 C758 C 0.57477 -0.03102 0.30157
 C759 C 0.59371 -0.00948 0.30299
 C760 C 0.59030 0.01358 0.28614
 C761 C 0.56767 0.01541 0.26925
 C762 C 0.54823 -0.00572 0.26895
 C763 C 0.61634 -0.01206 0.32242
 C764 C 0.63015 0.00917 0.33220
 C765 C 0.65041 0.00658 0.35405
 C766 C 0.65626 0.02956 0.36943
 C767 C 0.67408 0.02780 0.39110
 C768 C 0.68652 0.00298 0.39784
 C769 C 0.68138 -0.01984 0.38200
 C770 C 0.66371 -0.01806 0.36021
 H771 H 0.53763 -0.04584 0.28448
 H772 H 0.57703 -0.04916 0.31401
 H773 H 0.60497 0.03019 0.28580
 H774 H 0.56536 0.03338 0.25667
 H775 H 0.61993 -0.03220 0.33059
 H776 H 0.62493 0.02955 0.32572
 H777 H 0.64651 0.04883 0.36505
 H778 H 0.67757 0.04571 0.40303
 H779 H 0.69119 -0.03907 0.38638
 H780 H 0.66075 -0.03602 0.34828
 C781 C 0.78223 0.52657 0.03939
 C782 C 0.79872 0.52688 0.06203
 C783 C 0.79675 0.50597 0.08164
 C784 C 0.77720 0.48505 0.07849
 C785 C 0.76066 0.48479 0.05574
 C786 C 0.76343 0.50533 0.03588
 C787 C 0.81533 0.50711 0.10491
 C788 C 0.82181 0.48550 0.12032
 C789 C 0.84269 0.48672 0.14164
 C790 C 0.85670 0.46287 0.14871
 C791 C 0.87774 0.46350 0.16742
 C792 C 0.88513 0.48802 0.17956
 C793 C 0.87037 0.51168 0.17333
 C794 C 0.84926 0.51104 0.15472
 H795 H 0.78436 0.54284 0.02444
 H796 H 0.81334 0.54339 0.06405
 H797 H 0.77431 0.46907 0.09359
 H798 H 0.74575 0.46858 0.05380
 H799 H 0.82569 0.52629 0.10800
 H800 H 0.81347 0.46571 0.11580
 H801 H 0.85189 0.44383 0.13914
 H802 H 0.88883 0.44495 0.17172
 H803 H 0.87518 0.53072 0.18289
 H804 H 0.83818 0.52963 0.15075
 C805 C 0.44671 0.03133 0.72745
 C806 C 0.42456 0.02870 0.71016
 C807 C 0.42353 0.00713 0.69189
 C808 C 0.44482 -0.01225 0.69183
 C809 C 0.46697 -0.00950 0.70901
 C810 C 0.46803 0.01222 0.72694
 C811 C 0.39997 0.00545 0.67346
 C812 C 0.40121 -0.00785 0.64992
 C813 C 0.37845 -0.00864 0.63052
 C814 C 0.38485 -0.01525 0.60353
 C815 C 0.36432 -0.01604 0.58435
 C816 C 0.33676 -0.01042 0.59175
 C817 C 0.33018 -0.00427 0.61888
 C818 C 0.35076 -0.00350 0.63813
 H819 H 0.44722 0.04844 0.74091
 H820 H 0.40840 0.04381 0.71075
 H821 H 0.44445 -0.02970 0.67881
 H822 H 0.48331 -0.02443 0.70835
 H823 H 0.38176 0.01703 0.67882
 H824 H 0.42035 -0.01731 0.64350
 H825 H 0.40594 -0.01944 0.59712
 H826 H 0.37015 -0.02048 0.56356
 H827 H 0.30905 -0.00031 0.62528
 H828 H 0.34476 0.00077 0.65888
   
