data_POSCAR
  _audit_creation_date              2014-09-24
  _audit_creation_method            'ToBaCCo'
  _symmetry_space_group_name_H-M    'P1'
  _symmetry_Int_Tables_number       1
  _symmetry_cell_setting            triclinic
  loop_
  _symmetry_equiv_pos_as_xyz
 x,y,z
_cell_length_a 33.7175
_cell_length_b 33.7335
_cell_length_c 33.7163
_cell_angle_alpha 89.494000
_cell_angle_beta 90.194300
_cell_angle_gamma 89.378800
loop_
  _atom_site_label
  _atom_site_type_symbol
  _atom_site_fract_x
  _atom_site_fract_y
  _atom_site_fract_z
O1 O 0.55399 0.49928 0.03240
 O2 O 0.44461 0.49986 0.03239
 O3 O 0.49961 0.44502 0.03234
 O4 O 0.49902 0.55411 0.03266
 O5 O 0.49879 0.55489 -0.03294
 O6 O 0.49938 0.44579 -0.03326
 O7 O 0.44438 0.50063 -0.03319
 O8 O 0.55376 0.50005 -0.03319
 Cu9 Cu 0.49932 0.49949 0.03906
 Cu10 Cu 0.49905 0.50042 -0.03976
 C11 C 0.57234 0.49957 -0.00039
 C12 C 0.42601 0.50033 -0.00040
 C13 C 0.49961 0.42700 -0.00051
 C14 C 0.49882 0.57291 -0.00008
 O15 O -0.03252 0.55612 0.49930
 O16 O -0.03249 0.44684 0.50040
 O17 O -0.03248 0.50154 0.55444
 O18 O -0.03250 0.50140 0.44525
 O19 O 0.03309 0.50070 0.44547
 O20 O 0.03312 0.50084 0.55466
 O21 O 0.03310 0.44613 0.50061
 O22 O 0.03307 0.55542 0.49952
 Cu23 Cu -0.03911 0.50155 0.49982
 Cu24 Cu 0.03971 0.50071 0.50008
 C25 C 0.00027 0.57424 0.49923
 C26 C 0.00031 0.42803 0.50068
 C27 C 0.00032 0.50121 0.57298
 C28 C 0.00029 0.50102 0.42693
 O29 O 0.49941 0.03266 0.55519
 O30 O 0.49953 0.03246 0.44590
 O31 O 0.44495 0.03224 0.50030
 O32 O 0.55404 0.03289 0.50075
 O33 O 0.55514 -0.03269 0.50146
 O34 O 0.44604 -0.03333 0.50101
 O35 O 0.50063 -0.03311 0.44660
 O36 O 0.50050 -0.03290 0.55589
 Cu37 Cu 0.49938 0.03918 0.50047
 Cu38 Cu 0.50070 -0.03963 0.50132
 C39 C 0.49989 -0.00009 0.57400
 C40 C 0.50009 -0.00035 0.42780
 C41 C 0.42710 -0.00065 0.50058
 C42 C 0.57299 0.00021 0.50115
 C43 C 0.50133 0.10275 -0.07468
 C44 C 0.49927 0.07423 -0.10331
 C45 C 0.49846 0.03795 -0.08365
 N46 N 0.49988 0.04352 -0.04404
 C47 C 0.50160 0.08305 -0.03838
 C48 C 0.49765 0.00075 -0.10260
 C49 C 0.49839 -0.03645 -0.08270
 C50 C 0.50342 -0.07254 -0.10157
 C51 C 0.50339 -0.10138 -0.07259
 C52 C 0.49833 -0.08232 -0.03661
 N53 N 0.49462 -0.04277 -0.04315
 C54 C 0.49743 -0.10205 0.00065
 C55 C 0.49808 -0.08317 0.03792
 C56 C 0.49871 -0.10288 0.07422
 C57 C 0.50069 -0.07434 0.10284
 C58 C 0.50111 -0.03806 0.08319
 N59 N 0.49952 -0.04363 0.04358
 C60 C 0.50163 -0.00084 0.10212
 C61 C 0.50070 0.03633 0.08221
 C62 C 0.49526 0.07239 0.10103
 C63 C 0.49537 0.10123 0.07206
 C64 C 0.50088 0.08220 0.03613
 N65 N 0.50478 0.04267 0.04269
 C66 C 0.50206 0.10194 -0.00112
 H67 H 0.50224 0.13441 -0.08004
 H68 H 0.49867 0.07964 -0.13500
 H69 H 0.51276 0.02172 0.02187
 H70 H 0.50729 -0.07765 -0.13297
 H71 H 0.50721 -0.13286 -0.07752
 H72 H 0.49805 -0.13455 0.07958
 H73 H 0.50148 -0.07975 0.13453
 H74 H 0.49132 0.13269 0.07695
 H75 H 0.48706 -0.02176 -0.02225
 H76 H 0.49110 0.07746 0.13240
 C77 C -0.07222 0.48579 0.89854
 C78 C -0.10102 0.48545 0.92721
 C79 C -0.08227 0.49380 0.96279
 N80 N -0.04313 0.49952 0.95671
 C81 C -0.03682 0.49434 0.91754
 C82 C -0.10170 0.49844 0.99951
 C83 C -0.08173 0.50417 1.03593
 C84 C -0.09995 0.51573 1.07086
 C85 C -0.07100 0.51597 1.09968
 C86 C -0.03581 0.50453 1.08163
 N87 N -0.04271 0.49711 1.04286
 C88 C 0.00079 0.49906 1.10164
 C89 C 0.03768 0.49432 1.08245
 C90 C 0.07337 0.48605 1.10155
 C91 C 0.10217 0.48623 1.07287
 C92 C 0.08314 0.49462 1.03721
 N93 N 0.04382 0.49985 1.04322
 C94 C 0.10239 0.49970 1.00042
 C95 C 0.08221 0.50547 0.96396
 C96 C 0.10003 0.51751 0.92890
 C97 C 0.07107 0.51755 0.90008
 C98 C 0.03629 0.50551 0.91826
 N99 N 0.04345 0.49793 0.95710
 C100 C -0.00010 0.49966 0.89830
 H101 H -0.07690 0.48075 0.86721
 H102 H -0.13225 0.48011 0.92233
 H103 H 0.02422 0.48408 0.97661
 H104 H -0.13098 0.52298 1.07523
 H105 H -0.07545 0.52341 1.13052
 H106 H 0.07822 0.48084 1.13293
 H107 H 0.13356 0.48118 1.07779
 H108 H 0.07526 0.52525 0.86915
 H109 H -0.02298 0.48368 1.02350
 H110 H 0.13079 0.52519 0.92445
 C111 C 0.10280 -0.07478 0.50057
 C112 C 0.07420 -0.10329 0.49861
 C113 C 0.03791 -0.08353 0.49826
 N114 N 0.04354 -0.04398 0.49987
 C115 C 0.08312 -0.03845 0.50125
 C116 C 0.00066 -0.10235 0.49773
 C117 C -0.03648 -0.08232 0.49894
 C118 C -0.07250 -0.10110 0.50436
 C119 C -0.10129 -0.07202 0.50468
 C120 C -0.08227 -0.03607 0.49942
 N121 N -0.04282 -0.04271 0.49526
 C122 C -0.10196 0.00127 0.49869
 C123 C -0.08303 0.03845 0.49924
 C124 C -0.10270 0.07478 0.50001
 C125 C -0.07410 0.10328 0.50191
 C126 C -0.03780 0.08353 0.50212
 N127 N -0.04344 0.04398 0.50050
 C128 C -0.00055 0.10235 0.50254
 C129 C 0.03658 0.08232 0.50130
 C130 C 0.07260 0.10108 0.49579
 C131 C 0.10139 0.07200 0.49556
 C132 C 0.08237 0.03606 0.50093
 N133 N 0.04293 0.04271 0.50508
 C134 C 0.10206 -0.00127 0.50178
 H135 H 0.13449 -0.08024 0.50116
 H136 H 0.07958 -0.13496 0.49777
 H137 H 0.02209 0.02181 0.51300
 H138 H -0.07756 -0.13252 0.50826
 H139 H -0.13268 -0.07687 0.50885
 H140 H -0.13440 0.08023 0.49953
 H141 H -0.07947 0.13496 0.50278
 H142 H 0.13278 0.07684 0.49137
 H143 H -0.02197 -0.02179 0.48743
 H144 H 0.07766 0.13249 0.49180
 C145 C -0.38505 0.49935 0.99961
 C146 C -0.34926 0.49919 0.99963
 C147 C -0.30651 0.49901 0.99968
 C148 C -0.28567 0.49061 0.96480
 C149 C -0.24415 0.49047 0.96484
 C150 C -0.22327 0.49874 0.99975
 C151 C -0.24410 0.50713 1.03464
 C152 C -0.28561 0.50726 1.03460
 C153 C -0.18054 0.49864 0.99976
 C154 C -0.14475 0.49855 0.99970
 H155 H -0.30148 0.48418 0.93762
 H156 H -0.22836 0.48395 0.93769
 H157 H -0.22827 0.51356 1.06181
 H158 H -0.30139 0.51379 1.06175
 C159 C 0.38571 0.50049 0.99960
 C160 C 0.34991 0.50059 0.99963
 C161 C 0.30716 0.50066 0.99973
 C162 C 0.28600 0.50879 0.96469
 C163 C 0.24449 0.50875 0.96479
 C164 C 0.22393 0.50058 0.99993
 C165 C 0.24509 0.49249 1.03498
 C166 C 0.28659 0.49252 1.03488
 C167 C 0.18121 0.50039 1.00003
 C168 C 0.14543 0.50013 1.00017
 H169 H 0.30157 0.51510 0.93734
 H170 H 0.22844 0.51504 0.93752
 H171 H 0.22951 0.48613 1.06232
 H172 H 0.30262 0.48619 1.06215
 C173 C 0.00026 -0.38549 0.49889
 C174 C 0.00026 -0.34972 0.49862
 C175 C 0.00028 -0.30701 0.49834
 C176 C -0.03563 -0.28575 0.49966
 C177 C -0.03560 -0.24427 0.49948
 C178 C 0.00034 -0.22384 0.49798
 C179 C 0.03625 -0.24509 0.49662
 C180 C 0.03622 -0.28657 0.49681
 C181 C 0.00039 -0.18116 0.49787
 C182 C 0.00049 -0.14539 0.49780
 H183 H -0.06359 -0.30123 0.50086
 H184 H -0.06354 -0.22814 0.50054
 H185 H 0.06421 -0.22960 0.49545
 H186 H 0.06416 -0.30268 0.49577
 C187 C 0.00030 0.38547 0.50107
 C188 C 0.00027 0.34970 0.50137
 C189 C 0.00019 0.30699 0.50169
 C190 C -0.03178 0.28654 0.51829
 C191 C -0.03190 0.24506 0.51853
 C192 C -0.00006 0.22383 0.50217
 C193 C 0.03192 0.24428 0.48560
 C194 C 0.03204 0.28576 0.48535
 C195 C -0.00023 0.18115 0.50234
 C196 C -0.00037 0.14539 0.50244
 H197 H -0.05657 0.30263 0.53100
 H198 H -0.05678 0.22955 0.53142
 H199 H 0.05670 0.22817 0.47287
 H200 H 0.05690 0.30125 0.47242
 C201 C 0.49968 -0.00001 -0.38573
 C202 C 0.49943 0.00008 -0.34996
 C203 C 0.49910 0.00020 -0.30726
 C204 C 0.50019 -0.03568 -0.28599
 C205 C 0.49986 -0.03557 -0.24449
 C206 C 0.49843 0.00043 -0.22409
 C207 C 0.49733 0.03630 -0.24535
 C208 C 0.49766 0.03619 -0.28684
 C209 C 0.49813 0.00054 -0.18141
 C210 C 0.49790 0.00063 -0.14564
 H211 H 0.50130 -0.06368 -0.30146
 H212 H 0.50073 -0.06348 -0.22834
 H213 H 0.49622 0.06430 -0.22987
 H214 H 0.49679 0.06410 -0.30298
 C215 C 0.50014 -0.00043 0.38524
 C216 C 0.50020 -0.00047 0.34947
 C217 C 0.50030 -0.00052 0.30677
 C218 C 0.50164 -0.03648 0.28629
 C219 C 0.50186 -0.03652 0.24480
 C220 C 0.50073 -0.00060 0.22361
 C221 C 0.49935 0.03535 0.24407
 C222 C 0.49913 0.03539 0.28556
 C223 C 0.50104 -0.00065 0.18093
 C224 C 0.50130 -0.00072 0.14516
 H225 H 0.50255 -0.06442 0.30237
 H226 H 0.50292 -0.06449 0.22926
 H227 H 0.49846 0.06329 0.22797
 H228 H 0.49809 0.06337 0.30109
 C229 C 0.49867 -0.38463 0.00006
 C230 C 0.49858 -0.34892 0.00016
 C231 C 0.49845 -0.30631 0.00027
 C232 C 0.49658 -0.28591 0.03624
 C233 C 0.49638 -0.24446 0.03633
 C234 C 0.49805 -0.22330 0.00045
 C235 C 0.49996 -0.24369 -0.03551
 C236 C 0.50016 -0.28514 -0.03560
 C237 C 0.49781 -0.18071 0.00053
 C238 C 0.49763 -0.14500 0.00059
 H239 H 0.49526 -0.30201 0.06414
 H240 H 0.49491 -0.22894 0.06429
 H241 H 0.50127 -0.22757 -0.06341
 H242 H 0.50163 -0.30064 -0.06357
 C243 C 0.49991 0.38454 -0.00063
 C244 C 0.50019 0.34883 -0.00071
 C245 C 0.50056 0.30621 -0.00079
 C246 C 0.49889 0.28504 0.03509
 C247 C 0.49927 0.24360 0.03502
 C248 C 0.50132 0.22320 -0.00094
 C249 C 0.50299 0.24436 -0.03682
 C250 C 0.50262 0.28580 -0.03674
 C251 C 0.50163 0.18061 -0.00101
 C252 C 0.50185 0.14490 -0.00106
 H253 H 0.49730 0.30056 0.06305
 H254 H 0.49795 0.22748 0.06292
 H255 H 0.50457 0.22883 -0.06478
 H256 H 0.50392 0.30191 -0.06465
 C257 C -0.38454 0.00046 0.50115
 C258 C -0.34883 0.00065 0.50106
 C259 C -0.30622 0.00086 0.50085
 C260 C -0.28604 0.03635 0.49405
 C261 C -0.24458 0.03651 0.49367
 C262 C -0.22321 0.00118 0.50009
 C263 C -0.24338 -0.03429 0.50693
 C264 C -0.28484 -0.03446 0.50731
 C265 C -0.18063 0.00130 0.49960
 C266 C -0.14492 0.00133 0.49919
 H267 H -0.30232 0.06380 0.48900
 H268 H -0.22922 0.06409 0.48835
 H269 H -0.22709 -0.06176 0.51192
 H270 H -0.30018 -0.06205 0.51258
 C271 C 0.38464 -0.00090 0.50045
 C272 C 0.34893 -0.00106 0.50040
 C273 C 0.30632 -0.00119 0.50040
 C274 C 0.28505 0.03443 0.49556
 C275 C 0.24359 0.03435 0.49574
 C276 C 0.22331 -0.00135 0.50075
 C277 C 0.24457 -0.03698 0.50554
 C278 C 0.28603 -0.03690 0.50537
 C279 C 0.18073 -0.00138 0.50108
 C280 C 0.14501 -0.00135 0.50139
 H281 H 0.30048 0.06220 0.49170
 H282 H 0.22738 0.06205 0.49201
 H283 H 0.22912 -0.06474 0.50943
 H284 H 0.30223 -0.06460 0.50913
 C285 C 0.00029 0.50091 1.38443
 C286 C 0.00030 0.50078 1.34869
 C287 C 0.00034 0.50057 1.30603
 C288 C 0.03545 0.49215 1.28550
 C289 C 0.03549 0.49186 1.24403
 C290 C 0.00042 0.50000 1.22296
 C291 C -0.03469 0.50843 1.24347
 C292 C -0.03473 0.50872 1.28495
 C293 C 0.00047 0.49969 1.18033
 C294 C 0.00058 0.49942 1.14459
 H295 H 0.06273 0.48581 1.30153
 H296 H 0.06279 0.48530 1.22843
 H297 H -0.06196 0.51476 1.22743
 H298 H -0.06203 0.51527 1.30054
 C299 C 0.00034 0.50124 0.61549
 C300 C 0.00033 0.50123 0.65122
 C301 C 0.00030 0.50117 0.69388
 C302 C -0.03462 0.49282 0.71459
 C303 C -0.03465 0.49267 0.75607
 C304 C 0.00024 0.50088 0.77697
 C305 C 0.03516 0.50927 0.75627
 C306 C 0.03519 0.50941 0.71479
 C307 C 0.00022 0.50056 0.81960
 C308 C 0.00012 0.50020 0.85534
 H309 H -0.06176 0.48639 0.69871
 H310 H -0.06180 0.48614 0.77182
 H311 H 0.06230 0.51564 0.77218
 H312 H 0.06235 0.51590 0.69906
   
