data_POSCAR
  _audit_creation_date              2014-09-24
  _audit_creation_method            'ToBaCCo'
  _symmetry_space_group_name_H-M    'P1'
  _symmetry_Int_Tables_number       1
  _symmetry_cell_setting            triclinic
  loop_
  _symmetry_equiv_pos_as_xyz
 x,y,z
_cell_length_a 32.9457
_cell_length_b 32.5065
_cell_length_c 34.2664
_cell_angle_alpha 89.828600
_cell_angle_beta 90.162300
_cell_angle_gamma 89.789400
loop_
  _atom_site_label
  _atom_site_type_symbol
  _atom_site_fract_x
  _atom_site_fract_y
  _atom_site_fract_z
C1 C 0.59750 0.64983 0.62852
 C2 C 0.59855 0.61902 0.65726
 C3 C 0.62829 0.58798 0.65626
 C4 C 0.65674 0.58774 0.62579
 C5 C 0.65577 0.61829 0.59683
 C6 C 0.62622 0.64931 0.59845
 H7 H 0.57643 0.61916 0.68056
 H8 H 0.67969 0.56401 0.62456
 H9 H 0.62551 0.67307 0.57619
 C10 C 0.90484 0.34977 0.12683
 C11 C 0.90258 0.38058 0.15542
 C12 C 0.87155 0.41016 0.15425
 C13 C 0.84289 0.40926 0.12398
 C14 C 0.84495 0.37892 0.09506
 C15 C 0.87584 0.34919 0.09672
 H16 H 0.92462 0.38176 0.17884
 H17 H 0.81899 0.43206 0.12301
 H18 H 0.87728 0.32558 0.07446
 C19 C 0.39973 0.15152 -0.12256
 C20 C 0.39883 0.12319 -0.15330
 C21 C 0.36841 0.09322 -0.15520
 C22 C 0.33886 0.09148 -0.12584
 C23 C 0.33953 0.11962 -0.09489
 C24 C 0.36986 0.14973 -0.09355
 H25 H 0.42186 0.12447 -0.17580
 H26 H 0.31548 0.06830 -0.12704
 H27 H 0.37007 0.17153 -0.06975
 C28 C 0.09629 0.84424 0.37807
 C29 C 0.12746 0.84490 0.40609
 C30 C 0.15794 0.87487 0.40443
 C31 C 0.15708 0.90444 0.37456
 C32 C 0.12618 0.90408 0.34635
 C33 C 0.09600 0.87383 0.34818
 H34 H 0.12798 0.82231 0.42924
 H35 H 0.18046 0.92777 0.37329
 H36 H 0.07212 0.87316 0.32644
 N37 N 0.07638 0.18990 0.10996
 N38 N 0.06147 0.17412 0.14224
 C39 C 0.02916 0.19663 0.15344
 C40 C 0.02362 0.22795 0.12669
 C41 C 0.05397 0.22288 0.09946
 H42 H 0.01100 0.19080 0.17907
 H43 H 0.05938 0.24192 0.07408
 Cu44 Cu 0.08566 0.12570 0.16642
 Cu45 Cu 0.12383 0.16664 0.08425
 Cu46 Cu 0.16812 0.08076 0.12752
 N47 N 0.11112 0.07805 0.19076
 N48 N 0.14356 0.06072 0.17560
 C49 C 0.15470 0.02841 0.19795
 C50 C 0.12769 0.02540 0.22851
 C51 C 0.10045 0.05725 0.22317
 H52 H 0.18012 0.00822 0.19216
 H53 H 0.07466 0.06442 0.24139
 N54 N 0.18848 0.10567 0.07885
 N55 N 0.17194 0.13866 0.06267
 C56 C 0.19286 0.14838 0.03022
 C57 C 0.22370 0.12006 0.02576
 C58 C 0.22017 0.09341 0.05693
 H59 H 0.18615 0.17397 0.01101
 H60 H 0.23941 0.06718 0.06317
 H61 H 0.11622 0.10706 0.10416
 H62 H 0.14955 0.14117 0.13391
 N63 N 0.42959 0.81568 0.60553
 N64 N 0.44345 0.83162 0.63817
 C65 C 0.47503 0.80878 0.65100
 C66 C 0.48109 0.77709 0.62493
 C67 C 0.45190 0.78232 0.59643
 H68 H 0.49217 0.81449 0.67737
 H69 H 0.44704 0.76296 0.57125
 Cu70 Cu 0.41804 0.88009 0.66077
 Cu71 Cu 0.38293 0.83852 0.57787
 Cu72 Cu 0.33744 0.92508 0.61790
 N73 N 0.39276 0.92886 0.68290
 N74 N 0.36093 0.94605 0.66618
 C75 C 0.34850 0.97811 0.68795
 C76 C 0.37399 0.98111 0.71982
 C77 C 0.40176 0.94957 0.71578
 H78 H 0.32267 0.99755 0.68131
 H79 H 0.42616 0.94202 0.73575
 N80 N 0.31828 0.89917 0.56924
 N81 N 0.33547 0.86605 0.55422
 C82 C 0.31454 0.85468 0.52224
 C83 C 0.28286 0.88195 0.51692
 C84 C 0.28605 0.90980 0.54703
 H85 H 0.32123 0.82805 0.50454
 H86 H 0.26564 0.93517 0.55281
 H87 H 0.38995 0.89830 0.59714
 H88 H 0.35528 0.86469 0.62596
 N89 N 0.91805 0.69244 0.39233
 N90 N 0.93317 0.67713 0.35997
 C91 C 0.96634 0.69879 0.34994
 C92 C 0.97219 0.72901 0.37753
 C93 C 0.94112 0.72422 0.40402
 H94 H 0.98513 0.69296 0.32472
 H95 H 0.93580 0.74239 0.42990
 Cu96 Cu 0.90845 0.63000 0.33453
 Cu97 Cu 0.86993 0.66987 0.41713
 Cu98 Cu 0.82608 0.58489 0.37333
 N99 N 0.88411 0.58158 0.31099
 N100 N 0.85161 0.56443 0.32607
 C101 C 0.84083 0.53199 0.30410
 C102 C 0.86811 0.52864 0.27383
 C103 C 0.89522 0.56041 0.27898
 H104 H 0.81521 0.51219 0.30981
 H105 H 0.92094 0.56748 0.26064
 N106 N 0.80467 0.61005 0.42127
 N107 N 0.82114 0.64266 0.43778
 C108 C 0.79992 0.65217 0.47010
 C109 C 0.76894 0.62412 0.47405
 C110 C 0.77270 0.59787 0.44275
 H111 H 0.80677 0.67717 0.48976
 H112 H 0.75373 0.57166 0.43639
 H113 H 0.87808 0.61063 0.39669
 H114 H 0.84449 0.64529 0.36725
 N115 N 0.57930 0.30544 -0.10767
 N116 N 0.56265 0.32252 -0.13870
 C117 C 0.52930 0.30107 -0.14869
 C118 C 0.52489 0.26917 -0.12242
 C119 C 0.55703 0.27274 -0.09678
 H120 H 0.50943 0.30816 -0.17298
 H121 H 0.56361 0.25310 -0.07202
 Cu122 Cu 0.58579 0.37145 -0.16263
 Cu123 Cu 0.62832 0.32698 -0.08345
 Cu124 Cu 0.67149 0.41273 -0.12664
 N125 N 0.61110 0.41904 -0.18700
 N126 N 0.64484 0.43467 -0.17293
 C127 C 0.65620 0.46668 -0.19529
 C128 C 0.62804 0.47136 -0.22482
 C129 C 0.59979 0.44077 -0.21881
 H130 H 0.68294 0.48518 -0.19046
 H131 H 0.57328 0.43474 -0.23654
 N132 N 0.69407 0.38624 -0.07963
 N133 N 0.67789 0.35333 -0.06330
 C134 C 0.69978 0.34317 -0.03138
 C135 C 0.73089 0.37113 -0.02753
 C136 C 0.72650 0.39796 -0.05846
 H137 H 0.69315 0.31797 -0.01178
 H138 H 0.74519 0.42443 -0.06465
 H139 H 0.62040 0.38715 -0.10142
 H140 H 0.65112 0.35304 -0.13380
 C141 C -0.03995 0.26636 0.15967
 C142 C -0.03126 0.31314 0.15967
 C143 C -0.06414 0.31907 0.12802
 C144 C -0.07312 0.27263 0.12809
 C145 C -0.03241 0.31340 0.09558
 C146 C 0.00079 0.30708 0.12719
 C147 C -0.00826 0.26075 0.12726
 C148 C -0.04100 0.26660 0.09566
 H149 H -0.04305 0.24684 0.18611
 H150 H -0.02639 0.33165 0.18641
 H151 H -0.10380 0.25863 0.12851
 H152 H -0.02948 0.33306 0.06920
 H153 H 0.03154 0.32091 0.12676
 H154 H -0.04468 0.24711 0.06936
 C155 C 0.54316 0.73700 0.66010
 C156 C 0.53302 0.69050 0.66034
 C157 C 0.56602 0.68336 0.62930
 C158 C 0.57647 0.72948 0.62911
 C159 C 0.53485 0.68998 0.59632
 C160 C 0.50154 0.69748 0.62730
 C161 C 0.51207 0.74350 0.62709
 C162 C 0.54498 0.73641 0.59611
 H163 H 0.54649 0.75660 0.68637
 H164 H 0.52761 0.67193 0.68702
 H165 H 0.60762 0.74237 0.62988
 H166 H 0.53165 0.67030 0.57009
 H167 H 0.47037 0.68465 0.62650
 H168 H 0.54961 0.75565 0.56969
 C169 C 1.01209 0.79316 0.34719
 C170 C 1.01950 0.82514 0.37984
 C171 C 1.06498 0.81410 0.37946
 C172 C 1.05791 0.78249 0.34681
 C173 C 1.05836 0.78078 0.41089
 C174 C 1.01252 0.79152 0.41120
 C175 C 1.00554 0.75997 0.37855
 C176 C 1.05091 0.74887 0.37820
 H177 H 0.99270 0.79795 0.32101
 H178 H 1.00675 0.85679 0.38057
 H179 H 1.07689 0.77893 0.32031
 H180 H 1.07679 0.77488 0.43749
 H181 H 0.99362 0.79517 0.43773
 H182 H 1.06348 0.71715 0.37745
 C183 C 0.48634 0.20456 -0.09024
 C184 C 0.44046 0.21495 -0.08864
 C185 C 0.43272 0.18330 -0.12118
 C186 C 0.47825 0.17263 -0.12274
 C187 C 0.43828 0.21667 -0.15264
 C188 C 0.44637 0.24864 -0.12013
 C189 C 0.49179 0.23789 -0.12170
 C190 C 0.48414 0.20635 -0.15420
 H191 H 0.50631 0.19963 -0.06450
 H192 H 0.42289 0.21900 -0.06135
 H193 H 0.49112 0.14104 -0.12379
 H194 H 0.41817 0.22143 -0.17832
 H195 H 0.43357 0.28025 -0.11911
 H196 H 0.50245 0.20311 -0.18117
 C197 C 0.12563 -0.05310 0.25199
 C198 C 0.15895 -0.05982 0.28339
 C199 C 0.12570 -0.06389 0.31462
 C200 C 0.09237 -0.05749 0.28352
 C201 C 0.12718 -0.01731 0.32244
 C202 C 0.16042 -0.01289 0.29084
 C203 C 0.12709 -0.00663 0.25988
 C204 C 0.09388 -0.01062 0.29108
 H205 H 0.12506 -0.06753 0.22268
 H206 H 0.18572 -0.08040 0.28047
 H207 H 0.06398 -0.07533 0.27986
 H208 H 0.12777 -0.00281 0.35172
 H209 H 0.18841 0.00580 0.29354
 H210 H 0.06701 0.00978 0.29426
 C211 C 0.59633 0.53650 -0.26261
 C212 C 0.63074 0.56790 -0.27002
 C213 C 0.62932 0.55742 -0.31379
 C214 C 0.59489 0.52642 -0.30673
 C215 C 0.66149 0.52337 -0.30796
 C216 C 0.66283 0.53357 -0.26388
 C217 C 0.62845 0.50259 -0.25688
 C218 C 0.62703 0.49205 -0.30054
 H219 H 0.56955 0.54158 -0.24362
 H220 H 0.63233 0.59936 -0.25761
 H221 H 0.56693 0.52366 -0.32467
 H222 H 0.68875 0.51707 -0.32593
 H223 H 0.69088 0.53653 -0.24611
 H224 H 0.62543 0.46051 -0.31276
 C225 C 0.36940 0.99840 0.79587
 C226 C 0.40209 1.03096 0.80551
 C227 C 0.36830 1.06309 0.81161
 C228 C 0.33556 1.03082 0.80229
 C229 C 0.37040 1.07575 0.76833
 C230 C 0.40422 1.04327 0.76192
 C231 C 0.37152 1.01111 0.75268
 C232 C 0.33771 1.04319 0.75865
 H233 H 0.36906 0.96626 0.80688
 H234 H 0.42857 1.02613 0.82512
 H235 H 0.30699 1.02524 0.81849
 H236 H 0.37076 1.10787 0.75726
 H237 H 0.43247 1.04813 0.74497
 H238 H 0.31118 1.04814 0.73914
 C239 C 0.90199 0.46502 0.23635
 C240 C 0.86908 0.43192 0.22949
 C241 C 0.86936 0.44228 0.18563
 C242 C 0.90229 0.47502 0.19217
 C243 C 0.83567 0.47468 0.19143
 C244 C 0.83542 0.46460 0.23562
 C245 C 0.86835 0.49729 0.24207
 C246 C 0.86862 0.50774 0.19831
 H247 H 0.92925 0.46135 0.25517
 H248 H 0.86924 0.40042 0.24209
 H249 H 0.92980 0.47907 0.17396
 H250 H 0.80802 0.47921 0.17336
 H251 H 0.80783 0.46035 0.25367
 H252 H 0.86848 0.53928 0.18581
 C253 C 0.24370 0.11941 -0.04992
 C254 C 0.27672 0.15249 -0.05653
 C255 C 0.30816 0.11811 -0.06316
 C256 C 0.27547 0.08499 -0.05687
 C257 C 0.31877 0.11751 -0.01937
 C258 C 0.28699 0.15191 -0.01245
 C259 C 0.25439 0.11885 -0.00623
 C260 C 0.28578 0.08445 -0.01274
 H261 H 0.21248 0.12025 -0.06217
 H262 H 0.27320 0.18049 -0.07487
 H263 H 0.27029 0.05714 -0.07481
 H264 H 0.34995 0.11669 -0.00703
 H265 H 0.29146 0.17943 0.00615
 H266 H 0.28942 0.05639 0.00549
 C267 C 0.70710 0.58769 0.51177
 C268 C 0.71842 0.58525 0.55560
 C269 C 0.68623 0.61847 0.56428
 C270 C 0.67463 0.62086 0.52078
 C271 C 0.71789 0.65268 0.55876
 C272 C 0.75037 0.61950 0.54977
 C273 C 0.73872 0.62189 0.50637
 C274 C 0.70665 0.65508 0.51493
 H275 H 0.70270 0.56089 0.49224
 H276 H 0.72381 0.55617 0.57186
 H277 H 0.64317 0.62136 0.50910
 H278 H 0.72211 0.67940 0.57844
 H279 H 0.78185 0.61902 0.56138
 H280 H 0.70210 0.68381 0.49786
 C281 C 0.75006 0.37535 0.04816
 C282 C 0.78334 0.34286 0.05718
 C283 C 0.81429 0.37775 0.06253
 C284 C 0.78131 0.41027 0.05382
 C285 C 0.82556 0.37576 0.01901
 C286 C 0.79423 0.34085 0.01330
 C287 C 0.76139 0.37337 0.00474
 C288 C 0.79233 0.40823 0.01000
 H289 H 0.71868 0.37509 0.05986
 H290 H 0.77986 0.31599 0.07693
 H291 H 0.77538 0.43921 0.06994
 H292 H 0.85693 0.37599 0.00725
 H293 H 0.79924 0.31229 -0.00372
 H294 H 0.79605 0.43521 -0.00956
 C295 C 0.24521 0.84510 0.45684
 C296 C 0.19938 0.84331 0.46642
 C297 C 0.19122 0.87587 0.43454
 C298 C 0.23674 0.87762 0.42470
 C299 C 0.19624 0.91073 0.46444
 C300 C 0.20470 0.87819 0.49659
 C301 C 0.25013 0.87993 0.48672
 C302 C 0.24213 0.91249 0.45498
 H303 H 0.26552 0.81801 0.45369
 H304 H 0.18239 0.81444 0.47175
 H305 H 0.24969 0.87731 0.39483
 H306 H 0.17574 0.93771 0.46735
 H307 H 0.19180 0.87852 0.52648
 H308 H 0.26006 0.94096 0.45058
   
