data_POSCAR
  _audit_creation_date              2014-09-24
  _audit_creation_method            'ToBaCCo'
  _symmetry_space_group_name_H-M    'P1'
  _symmetry_Int_Tables_number       1
  _symmetry_cell_setting            triclinic
  loop_
  _symmetry_equiv_pos_as_xyz
 x,y,z
_cell_length_a 27.7260
_cell_length_b 28.3028
_cell_length_c 27.5633
_cell_angle_alpha 94.041400
_cell_angle_beta 91.204100
_cell_angle_gamma 91.541300
loop_
  _atom_site_label
  _atom_site_type_symbol
  _atom_site_fract_x
  _atom_site_fract_y
  _atom_site_fract_z
C1 C 0.17668 0.54554 1.06013
 H2 H 0.17687 0.57381 1.03567
 C3 C 0.14256 0.54474 1.09670
 H4 H 0.11722 0.57319 1.10049
 C5 C 0.20746 0.47272 1.08228
 H6 H 0.23139 0.44368 1.07542
 C7 C 0.17415 0.47047 1.11926
 H8 H 0.17554 0.44011 1.14068
 N9 N 0.20762 0.50939 1.05308
 C10 C 0.31464 0.55377 0.95077
 H11 H 0.30891 0.52437 0.92381
 C12 C 0.35261 0.58617 0.94600
 H13 H 0.37600 0.58156 0.91512
 C14 C 0.29280 0.59347 1.02535
 H15 H 0.27034 0.59507 1.05698
 C16 C 0.33037 0.62714 1.02178
 H17 H 0.33657 0.65430 1.05105
 Zn18 Zn 0.24284 0.50531 0.99518
 N19 N 0.28618 0.55740 0.99030
 C20 C 0.19270 0.53795 0.91428
 N21 N 0.19611 0.50225 0.94447
 C22 C 0.16285 0.46596 0.94270
 C23 C 0.12423 0.46447 0.90927
 C24 C 0.15449 0.53811 0.88057
 C25 C 0.31481 0.44677 1.02691
 C26 C 0.34661 0.40934 1.02426
 C27 C 0.30912 0.38135 0.94726
 C28 C 0.27738 0.41885 0.95183
 N29 N 0.28079 0.45062 0.99125
 H30 H 0.21859 0.56729 0.91752
 H31 H 0.16585 0.43864 0.96806
 H32 H 0.09784 0.43550 0.90867
 H33 H 0.15215 0.56816 0.85868
 H34 H 0.31774 0.47340 1.05705
 H35 H 0.37419 0.40768 1.05242
 H36 H 0.30686 0.35695 0.91515
 H37 H 0.25123 0.42345 0.92306
 C38 C 0.36138 0.62300 0.98201
 C39 C 0.13963 0.50604 1.12598
 C40 C 0.34404 0.37617 0.98385
 C41 C 0.11945 0.50086 0.87766
 C42 C 0.80947 0.55387 -0.04769
 H43 H 0.80286 0.58220 -0.02048
 C44 C 0.84005 0.56228 -0.08578
 H45 H 0.85703 0.59705 -0.08741
 C46 C 0.79444 0.47471 -0.07935
 H47 H 0.77617 0.44079 -0.07687
 C48 C 0.82554 0.48140 -0.11783
 H49 H 0.83044 0.45256 -0.14505
 N50 N 0.78705 0.51079 -0.04523
 C51 C 0.69265 0.57188 0.06338
 H52 H 0.70203 0.55119 0.09355
 C53 C 0.65983 0.60841 0.06979
 H54 H 0.64451 0.61600 0.10522
 C55 C 0.69817 0.58472 -0.02034
 H56 H 0.71115 0.57368 -0.05596
 C57 C 0.66564 0.62139 -0.01558
 H58 H 0.65457 0.63786 -0.04805
 Zn59 Zn 0.74498 0.50362 0.00746
 N60 N 0.71065 0.56046 0.01868
 C61 C 0.77545 0.45429 0.08959
 N62 N 0.78305 0.49286 0.06363
 C63 C 0.81997 0.52437 0.07569
 C64 C 0.85274 0.51631 0.11315
 C65 C 0.80749 0.44475 0.12730
 C66 C 0.65257 0.46698 -0.01692
 C67 C 0.61538 0.43355 -0.02637
 C68 C 0.67224 0.37150 -0.01742
 C69 C 0.70904 0.40649 -0.00940
 N70 N 0.69838 0.45336 -0.00798
 H71 H 0.74501 0.43046 0.08083
 H72 H 0.82460 0.55553 0.05566
 H73 H 0.88155 0.54222 0.12171
 H74 H 0.80162 0.41322 0.14674
 H75 H 0.64430 0.50397 -0.01645
 H76 H 0.57914 0.44553 -0.03273
 H77 H 0.68098 0.33447 -0.01740
 H78 H 0.74582 0.39622 -0.00316
 C79 C 0.64539 0.63333 0.02991
 C80 C 0.84871 0.52582 -0.12123
 C81 C 0.62460 0.38528 -0.02559
 C82 C 0.84761 0.47512 0.13853
 C83 C -0.05324 0.30969 0.45040
 H84 H -0.07729 0.31144 0.48084
 C85 C -0.05860 0.34072 0.41352
 H86 H -0.08735 0.36592 0.41579
 C87 C 0.01507 0.27653 0.41247
 H88 H 0.04493 0.25285 0.41310
 C89 C 0.01103 0.30669 0.37480
 H90 H 0.03830 0.30450 0.34746
 N91 N -0.01646 0.27887 0.44953
 C92 C -0.05094 0.17522 0.55373
 H93 H -0.02018 0.18148 0.57838
 C94 C -0.08233 0.13671 0.55879
 H95 H -0.07579 0.11368 0.58786
 C96 C -0.09433 0.19553 0.48351
 H97 H -0.09748 0.21735 0.45303
 C98 C -0.12674 0.15729 0.48724
 H99 H -0.15455 0.15039 0.45935
 Zn100 Zn -0.00504 0.24523 0.50534
 N101 N -0.05684 0.20307 0.51601
 C102 C -0.02579 0.29550 0.59571
 N103 N 0.00442 0.29144 0.55747
 C104 C 0.03965 0.32461 0.55135
 C105 C 0.04457 0.36475 0.58342
 C106 C -0.02211 0.33528 0.62888
 C107 C 0.04646 0.17213 0.46129
 C108 C 0.08371 0.14046 0.45442
 C109 C 0.12753 0.18175 0.52207
 C110 C 0.08939 0.21296 0.52746
 N111 N 0.04988 0.20753 0.49724
 H112 H -0.05435 0.26927 0.59909
 H113 H 0.06250 0.32085 0.52005
 H114 H 0.07160 0.39174 0.57676
 H115 H -0.04818 0.33907 0.65742
 H116 H 0.01430 0.16822 0.43827
 H117 H 0.08004 0.11220 0.42585
 H118 H 0.15864 0.18687 0.54637
 H119 H 0.09105 0.24086 0.55634
 C120 C -0.12011 0.12663 0.52471
 C121 C -0.02572 0.34032 0.37535
 C122 C 0.12453 0.14447 0.48545
 C123 C 0.01288 0.37104 0.62214
 C124 C 0.96904 0.67565 0.54518
 H125 H 0.94186 0.67065 0.51640
 C126 C 0.96784 0.64709 0.58444
 H127 H 0.93965 0.62000 0.58567
 C128 C 1.04120 0.71442 0.57643
 H129 H 1.07058 0.73956 0.57238
 C130 C 1.04203 0.68586 0.61558
 H131 H 1.07182 0.68954 0.64177
 N132 N 1.00516 0.70873 0.54211
 C133 C 0.95166 0.80300 0.43611
 H134 H 0.98137 0.80223 0.41126
 C135 C 0.91481 0.83506 0.43096
 H136 H 0.91608 0.85858 0.40164
 C137 C 0.91576 0.77549 0.50649
 H138 H 0.91706 0.75362 0.53698
 C139 C 0.87800 0.80667 0.50246
 H140 H 0.84987 0.80643 0.52899
 Zn141 Zn 1.00909 0.74178 0.48516
 N142 N 0.95199 0.77471 0.47398
 C143 C 0.98882 0.68573 0.39692
 N144 N 1.02096 0.69584 0.43439
 C145 C 1.05930 0.66804 0.44155
 C146 C 1.06529 0.62687 0.41171
 C147 C 0.99369 0.64497 0.36584
 C148 C 1.05092 0.82262 0.52893
 C149 C 1.08222 0.86175 0.53621
 C150 C 1.12971 0.83022 0.46948
 C151 C 1.09730 0.79126 0.46356
 N152 N 1.05869 0.78856 0.49300
 H153 H 0.95786 0.70763 0.39282
 H154 H 1.08367 0.67646 0.47230
 H155 H 1.09478 0.60395 0.41931
 H156 H 0.96620 0.63618 0.33799
 H157 H 1.01954 0.81974 0.55132
 H158 H 1.07469 0.88893 0.56449
 H159 H 1.15915 0.83258 0.44459
 H160 H 1.10211 0.76410 0.43461
 C161 C 0.87824 0.83834 0.46531
 C162 C 1.00510 0.65182 0.61982
 C163 C 1.12186 0.86636 0.50604
 C164 C 1.03178 0.61438 0.37392
 C165 C 0.41727 -0.01497 0.29581
 H166 H 0.42029 -0.04668 0.27195
 C167 C 0.37965 -0.01146 0.32900
 H168 H 0.35332 -0.04031 0.32966
 C169 C 0.44796 0.06120 0.32425
 H170 H 0.47512 0.08915 0.32248
 C171 C 0.41082 0.06646 0.35718
 H172 H 0.40945 0.09873 0.38065
 N173 N 0.45026 0.02132 0.29399
 C174 C 0.54699 -0.06402 0.21656
 H175 H 0.57625 -0.05307 0.24163
 C176 C 0.55123 -0.10519 0.18631
 H177 H 0.58362 -0.12548 0.18936
 C178 C 0.47087 -0.04970 0.18094
 H179 H 0.43985 -0.02747 0.17888
 C180 C 0.47376 -0.09058 0.14949
 H181 H 0.44411 -0.09885 0.12406
 Zn182 Zn 0.50444 0.02031 0.25327
 N183 N 0.50719 -0.03724 0.21363
 C184 C 0.55799 -0.00916 0.32885
 N185 N 0.55818 0.02528 0.29690
 C186 C 0.59306 0.06019 0.29926
 C187 C 0.63061 0.06019 0.33421
 C188 C 0.59475 -0.01078 0.36370
 C189 C 0.45877 0.09441 0.21029
 C190 C 0.45225 0.13000 0.17866
 C191 C 0.53282 0.11791 0.14967
 C192 C 0.53787 0.08223 0.18223
 N193 N 0.50111 0.07140 0.21192
 H194 H 0.52911 -0.03575 0.32691
 H195 H 0.59176 0.08798 0.27434
 H196 H 0.65849 0.08783 0.33578
 H197 H 0.59353 -0.03851 0.38880
 H198 H 0.42917 0.08439 0.23256
 H199 H 0.41790 0.14736 0.17799
 H200 H 0.56249 0.12556 0.12641
 H201 H 0.57087 0.06274 0.18333
 C202 C 0.51477 -0.11900 0.15163
 C203 C 0.37634 0.02982 0.36024
 C204 C 0.48918 0.14216 0.14749
 C205 C 0.63215 0.02375 0.36621
 C206 C 0.56705 -0.05893 0.69022
 H207 H 0.54365 -0.08798 0.69948
 C208 C 0.60280 -0.06682 0.65612
 H209 H 0.60711 -0.10229 0.63960
 C210 C 0.58910 0.02277 0.70006
 H211 H 0.58314 0.05762 0.71720
 C212 C 0.62522 0.01651 0.66561
 H213 H 0.64763 0.04665 0.65741
 N214 N 0.56077 -0.01473 0.71128
 C215 C 0.46816 -0.08147 0.80946
 H216 H 0.43312 -0.07172 0.79632
 C217 C 0.47159 -0.11721 0.84205
 H218 H 0.43890 -0.13480 0.85298
 C219 C 0.55321 -0.07106 0.81042
 H220 H 0.58504 -0.05317 0.79789
 C221 C 0.55828 -0.10642 0.84257
 H222 H 0.59418 -0.11520 0.85461
 Zn223 Zn 0.50830 -0.00766 0.75364
 N224 N 0.50874 -0.05884 0.79482
 C225 C 0.40676 -0.00048 0.73515
 N226 N 0.45053 -0.00748 0.71476
 C227 C 0.45498 -0.01121 0.66556
 C228 C 0.41491 -0.00734 0.63490
 C229 C 0.36561 0.00402 0.70568
 C230 C 0.55232 0.05347 0.82771
 C231 C 0.55527 0.09204 0.86228
 C232 C 0.48518 0.12380 0.82421
 C233 C 0.48357 0.08464 0.79038
 N234 N 0.51591 0.04965 0.79364
 H235 H 0.40406 0.00345 0.77431
 H236 H 0.48992 -0.01570 0.64966
 H237 H 0.42021 -0.00852 0.59607
 H238 H 0.33125 0.01087 0.72240
 H239 H 0.57830 0.02586 0.82914
 H240 H 0.58349 0.09368 0.89017
 H241 H 0.45887 0.15099 0.82086
 H242 H 0.45588 0.08192 0.76212
 C243 C 0.51731 -0.12965 0.85942
 C244 C 0.63196 -0.02884 0.64285
 C245 C 0.52038 0.12690 0.86193
 C246 C 0.36943 0.00060 0.65487
 C247 C 0.22250 0.05326 0.50734
 C248 C 0.25734 0.04586 0.54992
 C249 C 0.28291 0.00535 0.54394
 C250 C 0.27117 -0.02389 0.49577
 C251 C 0.25418 0.05129 0.46242
 C252 C 0.27995 0.01097 0.45634
 C253 C 0.19109 0.00797 0.50175
 C254 C 0.21631 -0.03256 0.49600
 H255 H 0.26326 0.07198 0.58021
 H256 H 0.29189 -0.05690 0.49084
 H257 H 0.25566 0.07952 0.43794
 H258 H 0.15205 0.00850 0.50137
 C259 C 0.78647 -0.06425 0.49867
 C260 C 0.75259 -0.05832 0.54160
 C261 C 0.72499 -0.01913 0.54133
 C262 C 0.73474 0.01116 0.49812
 C263 C 0.75336 -0.06315 0.45362
 C264 C 0.72664 -0.02360 0.45288
 C265 C 0.81630 -0.01797 0.50075
 C266 C 0.78940 0.02164 0.50088
 H267 H 0.75177 -0.08276 0.57004
 H268 H 0.71274 0.04337 0.49836
 H269 H 0.74985 -0.09213 0.42581
 H270 H 0.85538 -0.01703 0.50093
 C271 C 0.44303 0.28641 1.00701
 C272 C 0.43961 0.25005 0.96315
 C273 C 0.47956 0.22359 0.95687
 C274 C 0.51941 0.23532 0.99629
 C275 C 0.45406 0.25724 1.05027
 C276 C 0.49356 0.22959 1.04469
 C277 C 0.48930 0.31522 1.00047
 C278 C 0.52944 0.28894 0.99449
 H279 H 0.40791 0.24520 0.93948
 H280 H 0.55225 0.21400 0.99255
 H281 H 0.43182 0.25870 1.08204
 H282 H 0.49017 0.35360 1.00276
 C283 C 0.54966 0.72694 0.00465
 C284 C 0.54404 0.75652 -0.03956
 C285 C 0.50256 0.78142 -0.04077
 C286 C 0.46972 0.77331 0.00230
 C287 C 0.54563 0.76008 0.04690
 C288 C 0.50240 0.78665 0.04721
 C289 C 0.50392 0.69534 0.00303
 C290 C 0.46202 0.71930 0.00166
 H291 H 0.57098 0.75700 -0.06731
 H292 H 0.43557 0.79297 0.00137
 H293 H 0.57410 0.76481 0.07434
 H294 H 0.50493 0.65725 0.00461
 C295 C 1.00551 0.42051 0.27546
 C296 C 0.96166 0.42676 0.24178
 C297 C 0.96479 0.46627 0.21609
 C298 C 1.01179 0.49573 0.22614
 C299 C 1.04697 0.42010 0.24421
 C300 C 1.05238 0.46037 0.21677
 C301 C 1.01076 0.46741 0.30722
 C302 C 1.01364 0.50673 0.28138
 H303 H 0.93198 0.40107 0.23773
 H304 H 1.01363 0.52798 0.20564
 H305 H 1.07288 0.39200 0.24255
 H306 H 1.00984 0.46921 0.34657
 C307 C -0.02205 0.56100 0.71415
 C308 C -0.06388 0.55373 0.74846
 C309 C -0.05807 0.51675 0.77719
 C310 C -0.01112 0.49002 0.76822
 C311 C 0.02287 0.56583 0.74762
 C312 C 0.02915 0.52875 0.77556
 C313 C -0.01777 0.51332 0.68535
 C314 C -0.01176 0.47611 0.71336
 H315 H -0.09502 0.57599 0.74969
 H316 H -0.00697 0.45927 0.79062
 H317 H 0.04757 0.59626 0.74938
 H318 H -0.02082 0.50944 0.64601
 C319 C 0.16187 0.10828 0.47883
 C320 C 0.19286 0.09708 0.51395
 H321 H 0.16084 0.08657 0.44477
 H322 H 0.19287 0.11586 0.54951
 C323 C 0.60557 0.66729 0.03565
 C324 C 0.59554 0.69918 0.00337
 H325 H 0.58206 0.66432 0.06629
 H326 H 0.61990 0.70442 -0.02602
 C327 C 0.84278 -0.12357 0.46245
 C328 C 0.81690 -0.10742 0.50037
 H329 H 0.84045 -0.10572 0.42898
 H330 H 0.82151 -0.12202 0.53531
 C331 C 0.38016 0.33901 0.97689
 C332 C 0.40002 0.31750 1.01389
 H333 H 0.39139 0.32980 0.94009
 H334 H 0.38849 0.32632 1.05065
 C335 C 0.85283 0.08097 0.52613
 C336 C 0.81077 0.07011 0.50259
 H337 H 0.86917 0.05445 0.54722
 H338 H 0.79109 0.09685 0.48497
 C339 C 0.40635 0.65201 -0.02049
 C340 C 0.41390 0.69539 0.00160
 H341 H 0.43501 0.63640 -0.04185
 H342 H 0.38471 0.71390 0.01930
 C343 C 0.15064 -0.08873 0.51184
 C344 C 0.19299 -0.08032 0.49102
 H345 H 0.13553 -0.06062 0.53501
 H346 H 0.21155 -0.10842 0.47121
 C347 C 0.58268 0.35190 0.96787
 C348 C 0.57796 0.31116 0.98965
 H349 H 0.55134 0.36493 0.94939
 H350 H 0.60849 0.29618 1.00753
 C351 C 0.47882 0.17910 1.11319
 C352 C 0.50865 0.19457 1.07950
 H353 H 0.44294 0.19296 1.11515
 H354 H 0.54395 0.17983 1.07509
 C355 C 0.00961 0.61804 0.65770
 C356 C -0.02807 0.60081 0.68119
 H357 H 0.04564 0.60656 0.66593
 H358 H -0.06416 0.61213 0.67292
 C359 C 0.52501 0.83345 -0.10578
 C360 C 0.49105 0.81545 -0.07772
 H361 H 0.56192 0.82297 -0.10125
 H362 H 0.45460 0.82799 -0.07911
 C363 C 0.97136 0.37550 0.34171
 C364 C 1.00225 0.37917 0.30249
 H365 H 0.94529 0.40306 0.34795
 H366 H 1.02389 0.34939 0.29107
 C367 C 0.52201 0.84042 0.12014
 C368 C 0.49126 0.82388 0.08118
 H369 H 0.55499 0.82190 0.12584
 H370 H 0.45780 0.84127 0.07482
 C371 C 0.01354 0.41775 0.64983
 C372 C -0.00767 0.42690 0.69258
 H373 H 0.03159 0.44670 0.63309
 H374 H -0.02211 0.39851 0.71273
 C375 C 0.52114 0.16514 0.90165
 C376 C 0.48098 0.18656 0.91641
 H377 H 0.55521 0.17391 0.92037
 H378 H 0.44686 0.17659 0.89822
 C379 C 1.03440 0.56696 0.34799
 C380 C 1.01484 0.55573 0.30373
 H381 H 1.05322 0.54010 0.36648
 H382 H 0.99994 0.58297 0.28271
 C383 C 1.10144 0.50360 0.15890
 C384 C 1.09181 0.46475 0.18638
 H385 H 1.07730 0.53297 0.16143
 H386 H 1.11552 0.43517 0.18456
 C387 C 0.66943 -0.03883 0.60636
 C388 C 0.68885 -0.00653 0.57858
 H389 H 0.67912 -0.07552 0.60036
 H390 H 0.67637 0.02942 0.58104
 C391 C -0.11951 0.53629 0.83821
 C392 C -0.09218 0.50399 0.81499
 H393 H -0.11595 0.57300 0.82976
 H394 H -0.09175 0.46819 0.82643
 C395 C 0.33742 0.03696 0.39570
 C396 C 0.31516 0.00176 0.41736
 H397 H 0.32989 0.07331 0.40730
 H398 H 0.32569 -0.03446 0.40945
 C399 C 0.07651 0.49970 0.84434
 C400 C 0.07245 0.52765 0.80740
 H401 H 0.04716 0.47529 0.85121
 H402 H 0.10163 0.55189 0.79987
 C403 C 0.67199 0.02217 0.40264
 C404 C 0.68944 -0.01922 0.41463
 H405 H 0.68786 0.05524 0.41847
 H406 H 0.67650 -0.05173 0.39488
 C407 C 0.88297 0.46257 0.17647
 C408 C 0.92862 0.47983 0.17974
 H409 H 0.87114 0.43692 0.20131
 H410 H 0.94093 0.50508 0.15478
 C411 C 0.32679 0.00943 0.62374
 C412 C 0.32215 -0.00762 0.57715
 H413 H 0.29862 0.03069 0.63987
 H414 H 0.34793 -0.03241 0.56224
   
