data_POSCAR
  _audit_creation_date              2014-09-24
  _audit_creation_method            'ToBaCCo'
  _symmetry_space_group_name_H-M    'P1'
  _symmetry_Int_Tables_number       1
  _symmetry_cell_setting            triclinic
  loop_
  _symmetry_equiv_pos_as_xyz
 x,y,z
_cell_length_a 24.4305
_cell_length_b 25.8139
_cell_length_c 24.0833
_cell_angle_alpha 88.885800
_cell_angle_beta 89.228000
_cell_angle_gamma 90.286600
loop_
  _atom_site_label
  _atom_site_type_symbol
  _atom_site_fract_x
  _atom_site_fract_y
  _atom_site_fract_z
C1 C 0.13401 0.16843 0.19740
 C2 C 0.13178 0.21066 0.15970
 C3 C 0.17807 0.22533 0.12779
 C4 C 0.22534 0.19452 0.12997
 C5 C 0.22850 0.15190 0.16699
 C6 C 0.18307 0.14043 0.20175
 H7 H 0.09542 0.23435 0.15770
 H8 H 0.26033 0.20452 0.10379
 H9 H 0.18441 0.10777 0.23046
 C10 C -0.17377 0.84375 0.24181
 C11 C -0.13536 0.80486 0.23134
 C12 C -0.13386 0.77908 0.18042
 C13 C -0.16669 0.79773 0.13683
 C14 C -0.20369 0.83867 0.14582
 C15 C -0.20898 0.85935 0.19905
 H16 H -0.10794 0.79328 0.26415
 H17 H -0.16456 0.77969 0.09662
 H18 H -0.23757 0.89064 0.20550
 C19 C -0.14392 0.17585 -0.21359
 C20 C -0.19723 0.15658 -0.22158
 C21 C -0.24014 0.17048 -0.18597
 C22 C -0.23091 0.20606 -0.14408
 C23 C -0.17932 0.22947 -0.13788
 C24 C -0.13564 0.21314 -0.17199
 H25 H -0.20492 0.12799 -0.25299
 H26 H -0.26498 0.21589 -0.11731
 H27 H -0.09571 0.23046 -0.16667
 C28 C 0.18854 0.84739 -0.24207
 C29 C 0.14710 0.80941 -0.23590
 C30 C 0.14356 0.77730 -0.18799
 C31 C 0.18014 0.78547 -0.14455
 C32 C 0.22115 0.82362 -0.14937
 C33 C 0.22609 0.85321 -0.19871
 H34 H 0.11797 0.80455 -0.26886
 H35 H 0.17736 0.76128 -0.10737
 H36 H 0.25766 0.88267 -0.20154
 C37 C 0.16518 1.17854 0.75972
 C38 C 0.18800 1.13793 0.79148
 C39 C 0.20615 1.14703 0.84548
 C40 C 0.19819 1.19542 0.86923
 C41 C 0.17088 1.23444 0.83981
 C42 C 0.15537 1.22637 0.78506
 H43 H 0.19545 1.10055 0.77311
 H44 H 0.21193 1.20220 0.91111
 H45 H 0.13540 1.25759 0.76264
 C46 C 0.86918 0.83749 0.79337
 C47 C 0.87346 0.79579 0.83199
 C48 C 0.82664 0.77718 0.86131
 C49 C 0.77741 0.80460 0.85587
 C50 C 0.77289 0.84539 0.81756
 C51 C 0.81783 0.86049 0.78503
 H52 H 0.91213 0.77601 0.83683
 H53 H 0.74153 0.79420 0.88045
 H54 H 0.81323 0.89264 0.75582
 C55 C 0.14580 0.83143 1.21413
 C56 C 0.13708 0.79389 1.17294
 C57 C 0.18056 0.77711 1.13899
 C58 C 0.23211 0.80014 1.14473
 C59 C 0.24197 0.83580 1.18609
 C60 C 0.19941 0.85048 1.22182
 H61 H 0.09708 0.77659 1.16791
 H62 H 0.26591 0.78994 1.11781
 H63 H 0.20751 0.87923 1.25292
 C64 C 0.81315 1.15839 1.23658
 C65 C 0.77633 1.14861 1.19357
 C66 C 0.78015 1.17616 1.14279
 C67 C 0.81879 1.21667 1.13649
 C68 C 0.85403 1.22873 1.18009
 C69 C 0.85226 1.19798 1.22883
 H70 H 0.74681 1.11736 1.19785
 H71 H 0.82060 1.23954 1.09834
 H72 H 0.88084 1.20560 1.26161
 O73 O 0.41449 0.89140 0.92541
 O74 O 0.36441 0.93531 0.99047
 C75 C 0.36977 0.89999 0.95339
 O76 O 0.60973 0.91687 1.07725
 O77 O 0.65042 0.96554 1.00712
 C78 C 0.65210 0.93200 1.04796
 O79 O 0.46089 0.90372 1.11772
 O80 O 0.38626 0.94292 1.07839
 C81 C 0.40864 0.91247 1.11464
 O82 O 0.55937 0.91263 0.87711
 O83 O 0.62676 0.96242 0.91516
 C84 C 0.60934 0.92925 0.87982
 Zr85 Zr 0.49277 0.92692 0.93138
 O86 O 0.50973 0.84678 0.93991
 O87 O 0.46793 0.91404 0.84906
 Zr88 Zr 0.52568 0.93470 1.06692
 O89 O 0.53696 0.85342 1.06821
 O90 O 0.54252 0.93840 1.15275
 O91 O 0.46302 0.91627 1.01242
 O92 O 0.55617 0.92555 0.98701
 O93 O 0.54432 1.08617 0.87161
 O94 O 0.61938 1.04888 0.91232
 C95 C 0.59677 1.07870 0.87556
 O96 O 0.44014 1.08798 1.10380
 O97 O 0.37599 1.03088 1.07177
 C98 C 0.39099 1.06857 1.10276
 O99 O 0.59106 1.09738 1.06930
 O100 O 0.64109 1.05426 1.00350
 C101 C 0.63607 1.08855 1.04180
 O102 O 0.39474 1.07574 0.91459
 O103 O 0.35427 1.02277 0.98112
 C104 C 0.35214 1.05623 0.94053
 Zr105 Zr 0.47915 1.05759 0.92368
 O106 O 0.47640 1.13957 0.92094
 O107 O 0.45366 1.05506 0.84011
 Zr108 Zr 0.51161 1.06517 1.05919
 O109 O 0.50825 1.14689 1.05070
 O110 O 0.52603 1.07142 1.14523
 Zr111 Zr 0.42382 0.98862 1.01598
 Zr112 Zr 0.58103 1.00313 0.97430
 O113 O 0.54043 1.07479 0.97868
 O114 O 0.44677 1.06692 1.00345
 O115 O 0.53028 0.99603 0.90456
 O116 O 0.47532 0.99642 1.08483
 O117 O 0.43810 0.98733 0.92962
 O118 O 0.56853 1.00481 1.06101
 H119 H 0.58319 0.89762 0.98114
 H120 H 0.45968 0.99674 1.12299
 H121 H 0.56120 1.10720 0.97065
 H122 H 0.40731 0.98273 0.90380
 H123 H 0.57360 0.96260 1.15703
 H124 H 0.55811 1.04965 1.15383
 H125 H 0.47099 1.15598 1.03840
 H126 H 0.44608 1.15035 0.94570
 H127 H 0.48079 1.03429 0.81951
 H128 H 0.46965 0.94799 0.82948
 H129 H 0.48044 0.83104 0.96355
 H130 H 0.50158 0.83724 1.05875
 O131 O -0.06033 0.43022 0.12513
 O132 O -0.02793 0.37319 0.06066
 C133 C -0.05175 0.38380 0.10754
 O134 O -0.12309 0.57162 -0.06477
 O135 O -0.05994 0.63128 -0.03609
 C136 C -0.10608 0.61876 -0.05801
 O137 O -0.12187 0.42684 -0.05351
 O138 O -0.05281 0.37131 -0.02883
 C139 C -0.10171 0.38075 -0.04667
 O140 O -0.05754 0.57479 0.12407
 O141 O -0.03171 0.63342 0.05563
 C142 C -0.05130 0.62174 0.10463
 Zr143 Zr -0.04219 0.50263 0.08700
 O144 O -0.12513 0.50548 0.11349
 O145 O -0.01707 0.49822 0.17071
 Zr146 Zr -0.08423 0.50031 -0.04624
 O147 O -0.16899 0.50057 -0.02781
 O148 O -0.10279 0.49371 -0.13149
 O149 O -0.07228 0.45517 0.02521
 O150 O -0.07433 0.54617 0.02277
 O151 O 0.12285 0.57999 0.05857
 O152 O 0.05655 0.63562 0.02699
 C153 C 0.10348 0.62595 0.04933
 O154 O 0.08480 0.43562 -0.11428
 O155 O 0.04383 0.37542 -0.05573
 C156 C 0.07810 0.38863 -0.09519
 O157 O 0.05817 0.57813 -0.13052
 O158 O 0.02820 0.63489 -0.06467
 C159 C 0.04888 0.62451 -0.11299
 O160 O 0.12986 0.43549 0.05525
 O161 O 0.06466 0.37561 0.03157
 C162 C 0.11259 0.38821 0.04954
 Zr163 Zr 0.08859 0.50674 0.04273
 O164 O 0.17198 0.51368 0.01885
 O165 O 0.11072 0.50181 0.12741
 Zr166 Zr 0.04587 0.50497 -0.09064
 O167 O 0.12304 0.51459 -0.13033
 O168 O 0.01321 0.49298 -0.17040
 Zr169 Zr 0.00449 0.42592 0.00014
 Zr170 Zr -0.00016 0.58140 -0.00337
 O171 O 0.07574 0.55102 -0.02855
 O172 O 0.07888 0.46122 -0.02584
 O173 O 0.02518 0.55136 0.07418
 O174 O -0.02040 0.45619 -0.07721
 O175 O 0.02767 0.45931 0.07547
 O176 O -0.02395 0.54942 -0.07954
 H177 H -0.10563 0.56830 0.03347
 H178 H -0.02803 0.43065 -0.10636
 H179 H 0.10577 0.57498 -0.04012
 H180 H 0.03837 0.43620 0.10674
 H181 H -0.09734 0.52823 -0.14930
 H182 H -0.00502 0.52546 -0.18212
 H183 H 0.15035 0.51643 -0.10054
 H184 H 0.17742 0.49197 -0.01418
 H185 H 0.10153 0.53524 0.14455
 H186 H 0.01200 0.52452 0.17521
 H187 H -0.14380 0.47450 0.09902
 H188 H -0.17247 0.50159 0.01305
 O189 O 0.88068 0.08924 0.44992
 O190 O 0.91739 0.04251 0.37830
 C191 C 0.88255 0.07491 0.39851
 O192 O 1.10814 0.11120 0.53935
 O193 O 1.08283 0.06046 0.61480
 C194 C 1.10892 0.09928 0.59191
 O195 O 1.06252 0.10583 0.39201
 O196 O 1.00232 0.05042 0.35051
 C197 C 1.03572 0.08961 0.34952
 O198 O 0.92212 0.09283 0.60013
 O199 O 0.99454 0.05349 0.64343
 C200 C 0.95271 0.08421 0.64301
 Zr201 Zr 0.93105 0.06633 0.51742
 O202 O 0.92422 0.14805 0.51854
 O203 O 0.84734 0.05821 0.54002
 Zr204 Zr 1.06410 0.07665 0.47460
 O205 O 1.06569 0.15845 0.46996
 O206 O 1.14588 0.07557 0.44423
 O207 O 0.98281 0.08006 0.44896
 O208 O 1.00988 0.08315 0.54091
 O209 O 0.93769 -0.08643 0.60693
 O210 O 1.00296 -0.03541 0.64714
 C211 C 0.96629 -0.07184 0.64895
 O212 O 1.08080 -0.08440 0.39943
 O213 O 1.01035 -0.04267 0.35521
 C214 C 1.05029 -0.07560 0.35658
 O215 O 1.12829 -0.07362 0.54649
 O216 O 1.09067 -0.02786 0.61827
 C217 C 1.12618 -0.05952 0.59796
 O218 O 0.89500 -0.09508 0.45788
 O219 O 0.92438 -0.04617 0.38241
 C220 C 0.89415 -0.08195 0.40553
 Zr221 Zr 0.94336 -0.06382 0.52211
 O222 O 0.95908 -0.14422 0.52256
 O223 O 0.86199 -0.07790 0.54974
 Zr224 Zr 1.07579 -0.05289 0.47996
 O225 O 1.08641 -0.13403 0.48696
 O226 O 1.15650 -0.04336 0.44811
 Zr227 Zr 0.98019 0.00360 0.41997
 Zr228 Zr 1.02664 0.01021 0.57743
 O229 O 1.02374 -0.06586 0.54729
 O230 O 0.99641 -0.07037 0.45439
 O231 O 0.94101 0.00243 0.57048
 O232 O 1.06548 0.01066 0.42763
 O233 O 0.91416 -0.00123 0.47696
 O234 O 1.09412 0.01494 0.52191
 H235 H 1.01304 0.11517 0.56265
 H236 H 1.08816 0.01191 0.39319
 H237 H 1.03328 -0.09554 0.57195
 H238 H 0.87624 -0.00411 0.46331
 H239 H 1.17010 0.06910 0.47620
 H240 H 1.17722 -0.02280 0.47506
 H241 H 1.05257 -0.15036 0.47332
 H242 H 0.92496 -0.16125 0.53633
 H243 H 0.84079 -0.04640 0.54097
 H244 H 0.84540 0.03715 0.57480
 H245 H 0.93577 0.16155 0.48144
 H246 H 1.02903 0.17016 0.48187
 C247 C 1.08921 0.15402 0.23173
 C248 C 1.03523 0.16931 0.22551
 C249 C 1.00677 0.14470 0.26773
 C250 C 1.04549 0.11733 0.29690
 O251 O 1.09506 0.12277 0.27538
 H252 H 1.01812 0.19445 0.19382
 H253 H 0.96349 0.14760 0.27717
 C254 C 0.82529 -0.13270 0.29390
 C255 C 0.78308 -0.10328 0.31533
 C256 C 0.80166 -0.08575 0.36472
 C257 C 0.85369 -0.10537 0.36974
 O258 O 0.86815 -0.13362 0.32696
 H259 H 0.74391 -0.09455 0.29706
 H260 H 0.78155 -0.05838 0.39157
 C261 C 0.89967 0.15623 0.75421
 C262 C 0.95483 0.16183 0.76554
 C263 C 0.98174 0.13376 0.72641
 C264 C 0.94147 0.11383 0.69340
 O265 O 0.89180 0.12729 0.70996
 H266 H 0.97367 0.18234 0.79909
 H267 H 1.02558 0.12928 0.72168
 C268 C 1.19053 -0.12023 0.70998
 C269 C 1.23182 -0.08510 0.69563
 C270 C 1.21475 -0.06023 0.64851
 C271 C 1.16477 -0.08190 0.63728
 O272 O 1.14979 -0.11786 0.67431
 H273 H 1.26946 -0.07724 0.71704
 H274 H 1.23487 -0.02825 0.62667
 C275 C 0.27600 1.12106 1.16789
 C276 C 0.28702 1.08189 1.20637
 C277 C 0.33458 1.06007 1.18878
 C278 C 0.34964 1.08747 1.14150
 O279 O 0.31432 1.12417 1.12837
 H280 H 0.26320 1.06930 1.24233
 H281 H 0.35436 1.02626 1.20648
 C282 C 0.25788 0.83467 0.89743
 C283 C 0.24578 0.82452 0.95288
 C284 C 0.28703 0.84709 0.98153
 C285 C 0.32155 0.86844 0.94155
 O286 O 0.30410 0.86115 0.89066
 H287 H 0.21003 0.80522 0.97060
 H288 H 0.29111 0.84862 1.02615
 C289 C 0.76460 0.86245 1.10006
 C290 C 0.78373 0.86926 1.04622
 C291 C 0.74486 0.89816 1.01990
 C292 C 0.70463 0.90644 1.05945
 O293 O 0.71646 0.88484 1.10807
 H294 H 0.82213 0.85611 1.02874
 H295 H 0.74522 0.91082 0.97679
 C296 C 0.70592 1.14522 0.81117
 C297 C 0.67230 1.14530 0.76558
 C298 C 0.62512 1.12096 0.78353
 C299 C 0.63439 1.10728 0.83822
 O300 O 0.68309 1.12213 0.85499
 H301 H 0.68067 1.16217 0.72484
 H302 H 0.58882 1.11352 0.75964
 C303 C 0.17801 0.27517 0.09618
 C304 C 0.22445 0.30342 0.08152
 C305 C 0.20598 0.34967 0.06126
 C306 C 0.14981 0.34614 0.06461
 O307 O 0.13263 0.30118 0.08564
 H308 H 0.26677 0.29296 0.08764
 H309 H 0.23042 0.38239 0.04667
 C310 C -0.17180 0.27223 -0.09770
 C311 C -0.21303 0.29187 -0.06417
 C312 C -0.19116 0.33402 -0.03969
 C313 C -0.13801 0.33699 -0.05887
 O314 O -0.12586 0.29974 -0.09412
 H315 H -0.25490 0.27884 -0.05916
 H316 H -0.21184 0.36040 -0.01211
 C317 C 0.10367 0.73375 -0.18334
 C318 C 0.07517 0.71316 -0.22709
 C319 C 0.04951 0.67002 -0.20584
 C320 C 0.06343 0.66778 -0.15070
 O321 O 0.09622 0.70614 -0.13681
 H322 H 0.07502 0.72621 -0.27001
 H323 H 0.02465 0.64273 -0.22812
 C324 C -0.10099 0.73090 0.17504
 C325 C -0.08233 0.70223 0.22012
 C326 C -0.06023 0.65877 0.19883
 C327 C -0.06645 0.66356 0.14235
 O328 O -0.09129 0.70720 0.12738
 H329 H -0.08660 0.71019 0.26385
 H330 H -0.04290 0.62651 0.22189
 C331 C 1.15396 0.17181 0.70340
 C332 C 1.15050 0.21160 0.66426
 C333 C 1.13881 0.18829 0.61575
 C334 C 1.13482 0.13621 0.62876
 O335 O 1.14452 0.12590 0.68173
 H336 H 1.15614 0.25274 0.66991
 H337 H 1.13034 0.20735 0.57639
 C338 C 0.91405 -0.14300 0.76251
 C339 C 0.96896 -0.15100 0.77331
 C340 C 0.99674 -0.12226 0.73361
 C341 C 0.95673 -0.10006 0.70127
 O342 O 0.90706 -0.11250 0.71851
 H343 H 0.98686 -0.17383 0.80648
 H344 H 1.04065 -0.11937 0.72771
 C345 C 1.10229 -0.14877 0.24622
 C346 C 1.04703 -0.15436 0.23511
 C347 C 1.02030 -0.12602 0.27413
 C348 C 1.06076 -0.10615 0.30686
 O349 O 1.11035 -0.11967 0.29021
 H350 H 1.02801 -0.17498 0.20174
 H351 H 0.97651 -0.12113 0.27880
 C352 C 0.81316 0.12862 0.28613
 C353 C 0.77289 0.09391 0.30404
 C354 C 0.79195 0.07227 0.35213
 C355 C 0.84209 0.09520 0.36002
 O356 O 0.85518 0.12901 0.32027
 H357 H 0.73461 0.08455 0.28449
 H358 H 0.77308 0.04140 0.37676
 C359 C 0.16018 0.28450 -0.13478
 C360 C 0.19977 0.31367 -0.10963
 C361 C 0.17379 0.35757 -0.09409
 C362 C 0.12027 0.35143 -0.11028
 O363 O 0.11153 0.30699 -0.13491
 H364 H 0.24243 0.30415 -0.10387
 H365 H 0.19121 0.38971 -0.07199
 C366 C -0.10942 0.27484 0.17632
 C367 C -0.08841 0.29952 0.22197
 C368 C -0.06274 0.34268 0.20148
 C369 C -0.06912 0.34115 0.14487
 O370 O -0.09764 0.30029 0.12921
 H371 H -0.09337 0.28913 0.26545
 H372 H -0.04299 0.37260 0.22506
 C373 C -0.17179 0.73055 -0.10740
 C374 C -0.21729 0.70449 -0.08538
 C375 C -0.19824 0.65893 -0.06449
 C376 C -0.14276 0.66061 -0.07414
 O377 O -0.12629 0.70373 -0.09990
 H378 H -0.25989 0.71548 -0.08609
 H379 H -0.22190 0.62808 -0.04457
 C380 C 0.17335 0.73393 0.09970
 C381 C 0.21544 0.71240 0.06869
 C382 C 0.19354 0.67022 0.04473
 C383 C 0.13974 0.66913 0.06179
 O384 O 0.12696 0.70748 0.09518
 H385 H 0.25793 0.72387 0.06529
 H386 H 0.21462 0.64244 0.01914
 C387 C 0.23552 1.10702 0.87676
 C388 C 0.21196 1.06185 0.89708
 C389 C 0.25246 1.03757 0.92578
 C390 C 0.29766 1.06969 0.92013
 O391 O 0.28750 1.11196 0.89039
 H392 H 0.17025 1.04865 0.89199
 H393 H 0.24988 1.00023 0.94696
 C394 C 0.29660 0.85958 1.18706
 C395 C 0.33159 0.85966 1.23153
 C396 C 0.38046 0.87801 1.21020
 C397 C 0.37085 0.88787 1.15470
 O398 O 0.32030 0.87677 1.14080
 H399 H 0.32308 0.84627 1.27363
 H400 H 0.41805 0.88429 1.23242
 C401 C 0.74508 1.16020 1.09630
 C402 C 0.75809 1.16742 1.04065
 C403 C 0.71877 1.14121 1.01277
 C404 C 0.68428 1.12060 1.05331
 O405 O 0.69999 1.13197 1.10395
 H406 H 0.79316 1.18749 1.02248
 H407 H 0.71553 1.13749 0.96825
 C408 C 0.72133 0.87358 0.81455
 C409 C 0.69162 0.88253 0.76705
 C410 C 0.64406 0.90468 0.78509
 C411 C 0.64960 0.90819 0.84176
 O412 O 0.69609 0.88929 0.85971
 H413 H 0.70251 0.87245 0.72494
 H414 H 0.60970 0.91686 0.76024
   
