data_POSCAR
  _audit_creation_date              2014-09-24
  _audit_creation_method            'ToBaCCo'
  _symmetry_space_group_name_H-M    'P1'
  _symmetry_Int_Tables_number       1
  _symmetry_cell_setting            triclinic
  loop_
  _symmetry_equiv_pos_as_xyz
 x,y,z
_cell_length_a 38.8725
_cell_length_b 38.9527
_cell_length_c 38.7562
_cell_angle_alpha 99.796500
_cell_angle_beta 77.727500
_cell_angle_gamma 94.705300
loop_
  _atom_site_label
  _atom_site_type_symbol
  _atom_site_fract_x
  _atom_site_fract_y
  _atom_site_fract_z
O1 O 0.53846 0.50715 0.03208
 O2 O 0.44524 0.50248 0.02473
 O3 O 0.48880 0.45765 0.03149
 O4 O 0.49447 0.55129 0.02493
 O5 O 0.51052 0.53860 -0.03373
 O6 O 0.50500 0.44507 -0.02716
 O7 O 0.46093 0.48930 -0.03384
 O8 O 0.55428 0.49420 -0.02657
 Cu9 Cu 0.49024 0.50582 0.03419
 Cu10 Cu 0.50926 0.49054 -0.03619
 C11 C 0.56234 0.50146 0.00404
 C12 C 0.43702 0.49535 -0.00582
 C13 C 0.49600 0.43533 0.00328
 C14 C 0.50320 0.56094 -0.00558
 O15 O -0.03137 0.54625 0.51471
 O16 O -0.02891 0.45068 0.50412
 O17 O -0.02523 0.50163 0.55571
 O18 O -0.03550 0.49521 0.46263
 O19 O 0.02231 0.49764 0.44455
 O20 O 0.03254 0.50674 0.53816
 O21 O 0.02895 0.45463 0.48696
 O22 O 0.02617 0.54996 0.49549
 Cu23 Cu -0.03605 0.49807 0.51098
 Cu24 Cu 0.03329 0.50266 0.48950
 C25 C -0.00307 0.56456 0.50668
 C26 C 0.00053 0.43635 0.49422
 C27 C 0.00537 0.50524 0.56290
 C28 C -0.00839 0.49523 0.43765
 O29 O 0.50417 0.02265 0.54855
 O30 O 0.51245 0.03084 0.45405
 O31 O 0.46025 0.02985 0.50821
 O32 O 0.55643 0.02305 0.49426
 O33 O 0.54949 -0.03428 0.48307
 O34 O 0.45419 -0.02714 0.49257
 O35 O 0.50826 -0.02645 0.44001
 O36 O 0.49545 -0.03428 0.53548
 Cu37 Cu 0.50901 0.03233 0.50259
 Cu38 Cu 0.50124 -0.03628 0.48636
 C39 C 0.49821 -0.00716 0.55839
 C40 C 0.51178 0.00366 0.43085
 C41 C 0.44084 0.00252 0.50222
 C42 C 0.56927 -0.00691 0.48708
 C43 C 0.49008 -0.04014 -0.08017
 C44 C 0.49276 -0.07393 -0.07354
 C45 C 0.49491 -0.08038 -0.03966
 C46 C 0.49537 -0.05204 -0.01146
 C47 C 0.49253 -0.01759 -0.01762
 C48 C 0.48903 -0.01170 -0.05183
 C49 C 0.48367 0.02233 -0.05651
 C50 C 0.48398 0.05029 -0.02895
 C51 C 0.48970 0.04542 0.00446
 C52 C 0.49311 0.01104 0.01051
 C53 C 0.49889 -0.05716 0.02264
 C54 C 0.49887 -0.02926 0.05029
 C55 C 0.49669 0.00517 0.04472
 C56 C 0.49726 0.03385 0.07258
 C57 C 0.49442 0.06759 0.06591
 C58 C 0.49098 0.07389 0.03236
 H59 H 0.47869 0.02774 -0.08142
 H60 H 0.47926 0.07574 -0.03410
 H61 H 0.50181 -0.08283 0.02842
 H62 H 0.50049 -0.03518 0.07612
 H63 H 0.49324 -0.09568 -0.09521
 H64 H 0.49555 0.08950 0.08714
 C65 C 0.04036 0.50834 0.92315
 C66 C 0.07413 0.50607 0.92955
 C67 C 0.07960 0.50410 0.96369
 C68 C 0.05021 0.50358 0.99247
 C69 C 0.01577 0.50611 0.98653
 C70 C 0.01091 0.50930 0.95197
 C71 C -0.02315 0.51423 0.94734
 C72 C -0.05211 0.51383 0.97540
 C73 C -0.04828 0.50843 1.00931
 C74 C -0.01391 0.50546 1.01522
 C75 C 0.05424 0.50024 1.02693
 C76 C 0.02533 0.50033 1.05512
 C77 C -0.00910 0.50226 1.04982
 C78 C -0.03882 0.50178 1.07825
 C79 C -0.07253 0.50411 1.07172
 C80 C -0.07780 0.50700 1.03775
 H81 H -0.02780 0.51893 0.92204
 H82 H -0.07752 0.51825 0.97023
 H83 H 0.07982 0.49743 1.03260
 H84 H 0.03047 0.49889 1.08114
 H85 H 0.09662 0.50570 0.90746
 H86 H -0.09521 0.50300 1.09342
 C87 C -0.02995 -0.07301 0.51375
 C88 C -0.06355 -0.06618 0.50986
 C89 C -0.07195 -0.03298 0.50604
 C90 C -0.04579 -0.00541 0.50595
 C91 C -0.01150 -0.01184 0.50987
 C92 C -0.00368 -0.04561 0.51429
 C93 C 0.02982 -0.05079 0.52021
 C94 C 0.05573 -0.02395 0.51989
 C95 C 0.04920 0.00923 0.51375
 C96 C 0.01493 0.01568 0.50984
 C97 C -0.05312 0.02854 0.50280
 C98 C -0.02710 0.05528 0.50210
 C99 C 0.00703 0.04957 0.50593
 C100 C 0.03360 0.07673 0.50563
 C101 C 0.06749 0.06964 0.50845
 C102 C 0.07577 0.03640 0.51227
 H103 H 0.03631 -0.07558 0.52556
 H104 H 0.08084 -0.02947 0.52499
 H105 H -0.07910 0.03499 0.50092
 H106 H -0.03417 0.08050 0.49848
 H107 H -0.08351 -0.08734 0.50923
 H108 H 0.08789 0.09041 0.50752
 C109 C -0.32876 0.50526 1.01305
 C110 C -0.35476 0.51846 1.04239
 C111 C -0.39011 0.51720 1.03948
 C112 C -0.40020 0.50307 1.00706
 C113 C -0.37417 0.49020 0.97761
 C114 C -0.33889 0.49110 0.98063
 C115 C -0.29137 0.50601 1.01630
 N116 N -0.26756 0.48697 0.99104
 N117 N -0.23404 0.48735 0.99414
 C118 C -0.22285 0.50694 1.02253
 N119 N -0.24663 0.52609 1.04772
 N120 N -0.28019 0.52557 1.04471
 C121 C -0.18559 0.50722 1.02608
 C122 C -0.17231 0.53255 1.05103
 C123 C -0.13720 0.53272 1.05444
 C124 C -0.11469 0.50756 1.03305
 C125 C -0.12800 0.48193 1.00850
 C126 C -0.16298 0.48197 1.00477
 H127 H -0.34789 0.52946 1.06777
 H128 H -0.40953 0.52741 1.06264
 H129 H -0.38111 0.47907 0.95228
 H130 H -0.31952 0.48082 0.95747
 H131 H -0.18899 0.55237 1.06784
 H132 H -0.12754 0.55251 1.07378
 H133 H -0.11126 0.46183 0.99229
 H134 H -0.17244 0.46189 0.98556
 C135 C 0.33001 0.49507 0.98575
 C136 C 0.33982 0.50445 1.01906
 C137 C 0.37500 0.50394 1.02194
 C138 C 0.40145 0.49457 0.99142
 C139 C 0.39147 0.48506 0.95806
 C140 C 0.35616 0.48506 0.95534
 C141 C 0.29277 0.49610 0.98273
 N142 N 0.28115 0.47847 0.95369
 N143 N 0.24767 0.47954 0.95095
 C144 C 0.22449 0.49850 0.97701
 N145 N 0.23614 0.51620 1.00601
 N146 N 0.26955 0.51493 1.00886
 C147 C 0.18734 0.49988 0.97385
 C148 C 0.16627 0.52673 0.99439
 C149 C 0.13131 0.52820 0.99108
 C150 C 0.11649 0.50237 0.96787
 C151 C 0.13752 0.47565 0.94722
 C152 C 0.17263 0.47446 0.95008
 H153 H 0.32025 0.51208 1.04303
 H154 H 0.38144 0.51142 1.04813
 H155 H 0.41090 0.47760 0.93391
 H156 H 0.34944 0.47777 0.92926
 H157 H 0.17695 0.54691 1.01263
 H158 H 0.11577 0.54948 1.00663
 H159 H 0.12668 0.45567 0.92888
 H160 H 0.18814 0.45345 0.93391
 C161 C -0.00683 -0.32585 0.51493
 C162 C 0.02511 -0.34239 0.50129
 C163 C 0.02650 -0.37847 0.49903
 C164 C -0.00419 -0.39902 0.50993
 C165 C -0.03613 -0.38229 0.52374
 C166 C -0.03736 -0.34617 0.52639
 C167 C -0.00852 -0.28774 0.51663
 N168 N -0.03696 -0.27060 0.53647
 N169 N -0.03893 -0.23648 0.53734
 C170 C -0.01261 -0.21807 0.51829
 N171 N 0.01589 -0.23518 0.49852
 N172 N 0.01794 -0.26929 0.49779
 C173 C -0.01553 -0.18040 0.51829
 C174 C 0.00644 -0.16329 0.49201
 C175 C 0.00224 -0.12822 0.49087
 C176 C -0.02350 -0.10942 0.51641
 C177 C -0.04509 -0.12628 0.54297
 C178 C -0.04119 -0.16142 0.54390
 H179 H 0.04914 -0.32744 0.49239
 H180 H 0.05164 -0.39023 0.48829
 H181 H -0.06035 -0.39704 0.53252
 H182 H -0.06243 -0.33425 0.53693
 H183 H 0.02627 -0.17723 0.47172
 H184 H 0.01867 -0.11586 0.46971
 H185 H -0.06530 -0.11229 0.56275
 H186 H -0.05848 -0.17377 0.56454
 C187 C 0.00573 0.32583 0.49066
 C188 C 0.03479 0.34533 0.47424
 C189 C 0.03295 0.38113 0.47500
 C190 C 0.00187 0.39816 0.49183
 C191 C -0.02748 0.37854 0.50749
 C192 C -0.02551 0.34279 0.50708
 C193 C 0.00836 0.28826 0.49146
 N194 N -0.01601 0.27118 0.51400
 N195 N -0.01298 0.23769 0.51557
 C196 C 0.01446 0.21983 0.49454
 N197 N 0.03867 0.23685 0.47181
 N198 N 0.03573 0.27037 0.47036
 C199 C 0.01840 0.18284 0.49685
 C200 C 0.04271 0.16270 0.47073
 C201 C 0.04710 0.12807 0.47334
 C202 C 0.02736 0.11290 0.50211
 C203 C 0.00324 0.13295 0.52837
 C204 C -0.00147 0.16750 0.52560
 H205 H 0.05926 0.33310 0.46140
 H206 H 0.05598 0.39553 0.46261
 H207 H -0.05177 0.39094 0.52073
 H208 H -0.04842 0.32849 0.51982
 H209 H 0.05840 0.17368 0.44825
 H210 H 0.06607 0.11307 0.45299
 H211 H -0.01174 0.12186 0.55113
 H212 H -0.02017 0.18237 0.54633
 C213 C 0.49130 -0.01617 -0.33289
 C214 C 0.49932 0.01628 -0.34460
 C215 C 0.50093 0.01937 -0.38030
 C216 C 0.49513 -0.01010 -0.40541
 C217 C 0.48688 -0.04258 -0.39351
 C218 C 0.48473 -0.04550 -0.35763
 C219 C 0.49038 -0.01942 -0.29521
 N220 N 0.47363 -0.04734 -0.28099
 N221 N 0.47314 -0.05032 -0.24714
 C222 C 0.48961 -0.02566 -0.22621
 N223 N 0.50641 0.00221 -0.24046
 N224 N 0.50669 0.00532 -0.27421
 C225 C 0.48951 -0.02915 -0.18876
 C226 C 0.51476 -0.01042 -0.17085
 C227 C 0.51498 -0.01403 -0.13565
 C228 C 0.48942 -0.03571 -0.11734
 C229 C 0.46428 -0.05455 -0.13520
 C230 C 0.46438 -0.05140 -0.17062
 H231 H 0.50428 0.03941 -0.32612
 H232 H 0.50730 0.04486 -0.38823
 H233 H 0.48213 -0.06589 -0.41188
 H234 H 0.47857 -0.07089 -0.34942
 H235 H 0.53472 0.00660 -0.18424
 H236 H 0.53515 0.00008 -0.12264
 H237 H 0.44454 -0.07168 -0.12167
 H238 H 0.44459 -0.06615 -0.18369
 C239 C 0.51495 0.01381 0.32143
 C240 C 0.50703 0.04226 0.34892
 C241 C 0.50694 0.03912 0.38429
 C242 C 0.51418 0.00729 0.39305
 C243 C 0.52244 -0.02112 0.36555
 C244 C 0.52316 -0.01779 0.33001
 C245 C 0.51352 0.01695 0.28427
 N246 N 0.53102 -0.00496 0.25610
 N247 N 0.52915 -0.00226 0.22273
 C248 C 0.50942 0.02226 0.21624
 N249 N 0.49191 0.04410 0.24442
 N250 N 0.49402 0.04159 0.27773
 C251 C 0.50654 0.02492 0.17937
 C252 C 0.47739 0.04033 0.17327
 C253 C 0.47430 0.04270 0.13853
 C254 C 0.50042 0.02999 0.10921
 C255 C 0.53001 0.01532 0.11525
 C256 C 0.53280 0.01232 0.15000
 H257 H 0.50081 0.06700 0.34311
 H258 H 0.50036 0.06144 0.40491
 H259 H 0.52822 -0.04594 0.37153
 H260 H 0.52925 -0.04019 0.30938
 H261 H 0.45671 0.05023 0.19535
 H262 H 0.45145 0.05444 0.13447
 H263 H 0.55088 0.00616 0.09303
 H264 H 0.55575 0.00068 0.15395
 C265 C 0.50420 -0.33021 -0.01425
 C266 C 0.51987 -0.35432 -0.04351
 C267 C 0.51973 -0.38964 -0.04066
 C268 C 0.50431 -0.40154 -0.00835
 C269 C 0.48918 -0.37735 0.02107
 C270 C 0.48895 -0.34212 0.01810
 C271 C 0.50333 -0.29297 -0.01759
 N272 N 0.48171 -0.27128 0.00731
 N273 N 0.48051 -0.23793 0.00405
 C274 C 0.50099 -0.22480 -0.02417
 N275 N 0.52271 -0.24645 -0.04900
 N276 N 0.52379 -0.27985 -0.04583
 C277 C 0.49952 -0.18774 -0.02789
 C278 C 0.52566 -0.17229 -0.05236
 C279 C 0.52429 -0.13733 -0.05584
 C280 C 0.49676 -0.11718 -0.03503
 C281 C 0.47028 -0.13266 -0.01105
 C282 C 0.47184 -0.16751 -0.00723
 H283 H 0.53178 -0.34603 -0.06884
 H284 H 0.53167 -0.40763 -0.06378
 H285 H 0.47700 -0.38572 0.04630
 H286 H 0.47680 -0.32421 0.04119
 H287 H 0.54732 -0.18712 -0.06868
 H288 H 0.54477 -0.12592 -0.07475
 H289 H 0.44844 -0.11769 0.00471
 H290 H 0.45110 -0.17870 0.01159
 C291 C 0.49160 0.32587 0.01063
 C292 C 0.50699 0.33790 -0.02162
 C293 C 0.50810 0.37337 -0.02405
 C294 C 0.49417 0.39770 0.00581
 C295 C 0.47879 0.38571 0.03808
 C296 C 0.47734 0.35017 0.04042
 C297 C 0.49071 0.28826 0.01322
 N298 N 0.47049 0.27547 0.04179
 N299 N 0.46992 0.24170 0.04419
 C300 C 0.48965 0.21931 0.01820
 N301 N 0.50987 0.23210 -0.01036
 N302 N 0.51032 0.26584 -0.01284
 C303 C 0.48945 0.18185 0.02115
 C304 C 0.51508 0.16029 -0.00142
 C305 C 0.51542 0.12518 0.00200
 C306 C 0.48975 0.11074 0.02755
 C307 C 0.46410 0.13215 0.05006
 C308 C 0.46395 0.16735 0.04693
 H309 H 0.51810 0.31989 -0.04511
 H310 H 0.52021 0.38177 -0.04928
 H311 H 0.46776 0.40380 0.06154
 H312 H 0.46538 0.34180 0.06569
 H313 H 0.53527 0.17068 -0.02133
 H314 H 0.53588 0.10927 -0.01511
 H315 H 0.44427 0.12157 0.07017
 H316 H 0.44383 0.18319 0.06471
 C317 C -0.32065 -0.01558 0.48412
 C318 C -0.33283 0.01547 0.47819
 C319 C -0.36860 0.01829 0.47873
 C320 C -0.39264 -0.01015 0.48445
 C321 C -0.38020 -0.04152 0.48920
 C322 C -0.34465 -0.04409 0.48937
 C323 C -0.28345 -0.01799 0.48625
 N324 N -0.27463 -0.04073 0.50550
 N325 N -0.24134 -0.04250 0.50836
 C326 C -0.21542 -0.02182 0.49183
 N327 N -0.22415 0.00077 0.47231
 N328 N -0.25756 0.00279 0.46973
 C329 C -0.17861 -0.02375 0.49549
 C330 C -0.15031 -0.01462 0.46894
 C331 C -0.11555 -0.01754 0.47222
 C332 C -0.10857 -0.02853 0.50263
 C333 C -0.13687 -0.03748 0.52919
 C334 C -0.17154 -0.03530 0.52557
 H335 H -0.31490 0.03789 0.47419
 H336 H -0.37750 0.04274 0.47491
 H337 H -0.39814 -0.06382 0.49380
 H338 H -0.33596 -0.06841 0.49379
 H339 H -0.15506 -0.00601 0.44530
 H340 H -0.09408 -0.01136 0.45100
 H341 H -0.13205 -0.04634 0.55268
 H342 H -0.19283 -0.04242 0.54649
 C343 C 0.32948 0.01062 0.51075
 C344 C 0.34999 0.03919 0.52412
 C345 C 0.38613 0.03656 0.52157
 C346 C 0.40244 0.00518 0.50594
 C347 C 0.38181 -0.02354 0.49313
 C348 C 0.34579 -0.02081 0.49535
 C349 C 0.29145 0.01368 0.51220
 N350 N 0.27340 -0.01094 0.49283
 N351 N 0.23938 -0.00791 0.49349
 C352 C 0.22193 0.01979 0.51368
 N353 N 0.23993 0.04433 0.53322
 N354 N 0.27400 0.04138 0.53243
 C355 C 0.18426 0.02342 0.51391
 C356 C 0.16443 0.04806 0.53963
 C357 C 0.12903 0.05180 0.53945
 C358 C 0.11280 0.03106 0.51354
 C359 C 0.13259 0.00670 0.48762
 C360 C 0.16788 0.00266 0.48800
 H361 H 0.33825 0.06380 0.53608
 H362 H 0.40132 0.05913 0.53175
 H363 H 0.39360 -0.04807 0.48089
 H364 H 0.33074 -0.04337 0.48494
 H365 H 0.17624 0.06444 0.55995
 H366 H 0.11426 0.07098 0.55947
 H367 H 0.12073 -0.00902 0.46695
 H368 H 0.18247 -0.01633 0.46761
 C369 C -0.02017 0.49093 1.32908
 C370 C -0.04819 0.50059 1.35777
 C371 C -0.04457 0.50129 1.39299
 C372 C -0.01265 0.49294 1.40030
 C373 C 0.01535 0.48315 1.37163
 C374 C 0.01151 0.48184 1.33635
 C375 C -0.02375 0.49118 1.29186
 N376 N -0.00222 0.47264 1.26386
 N377 N -0.00513 0.47344 1.23036
 C378 C -0.02949 0.49305 1.22350
 N379 N -0.05100 0.51158 1.25150
 N380 N -0.04828 0.51055 1.28498
 C381 C -0.03213 0.49483 1.18632
 C382 C -0.04753 0.52330 1.17860
 C383 C -0.04932 0.52555 1.14346
 C384 C -0.03604 0.49927 1.11536
 C385 C -0.02158 0.47028 1.12309
 C386 C -0.01916 0.46832 1.15820
 H387 H -0.07299 0.50757 1.35300
 H388 H -0.06657 0.50903 1.41456
 H389 H 0.04022 0.47646 1.37647
 H390 H 0.03362 0.47442 1.31480
 H391 H -0.05772 0.54414 1.19967
 H392 H -0.06094 0.54793 1.13810
 H393 H -0.01199 0.44931 1.10188
 H394 H -0.00754 0.44587 1.16340
 C395 C 0.01671 0.50868 0.67156
 C396 C 0.04510 0.51921 0.64584
 C397 C 0.04148 0.51819 0.61052
 C398 C 0.00926 0.50711 0.60034
 C399 C -0.01925 0.49711 0.62619
 C400 C -0.01551 0.49767 0.66133
 C401 C 0.02061 0.50874 0.70876
 N402 N -0.00300 0.49048 0.73081
 N403 N 0.00046 0.49028 0.76422
 C404 C 0.02758 0.50849 0.77709
 N405 N 0.05117 0.52685 0.75509
 N406 N 0.04782 0.52688 0.72157
 C407 C 0.03119 0.50834 0.81434
 C408 C 0.05291 0.53369 0.83089
 C409 C 0.05568 0.53384 0.86631
 C410 C 0.03692 0.50857 0.88576
 C411 C 0.01596 0.48270 0.86899
 C412 C 0.01279 0.48281 0.83378
 H413 H 0.07029 0.52774 0.65287
 H414 H 0.06390 0.52612 0.59119
 H415 H -0.04440 0.48833 0.61916
 H416 H -0.03795 0.48955 0.68051
 H417 H 0.06743 0.55369 0.81664
 H418 H 0.07228 0.55381 0.87866
 H419 H 0.00193 0.46248 0.88327
 H420 H -0.00382 0.46267 0.82168
   
