data_POSCAR
  _audit_creation_date              2014-09-24
  _audit_creation_method            'ToBaCCo'
  _symmetry_space_group_name_H-M    'P1'
  _symmetry_Int_Tables_number       1
  _symmetry_cell_setting            triclinic
  loop_
  _symmetry_equiv_pos_as_xyz
 x,y,z
_cell_length_a 39.2799
_cell_length_b 36.7237
_cell_length_c 37.8618
_cell_angle_alpha 89.278100
_cell_angle_beta 90.079800
_cell_angle_gamma 89.728100
loop_
  _atom_site_label
  _atom_site_type_symbol
  _atom_site_fract_x
  _atom_site_fract_y
  _atom_site_fract_z
N1 N 0.19148 1.25936 0.16580
 N2 N 0.17000 1.26165 0.19232
 C3 C 0.14550 1.28614 0.18414
 C4 C 0.15232 1.29991 0.15086
 C5 C 0.18148 1.28241 0.13982
 H6 H 0.12356 1.29203 0.20037
 H7 H 0.19344 1.28479 0.11417
 Cu8 Cu 0.17404 1.22965 0.23327
 Cu9 Cu 0.22829 1.22357 0.16513
 Cu10 Cu 0.22802 1.15844 0.23217
 N11 N 0.16983 1.18958 0.26680
 N12 N 0.19113 1.16182 0.26642
 C13 C 0.18084 1.13659 0.29016
 C14 C 0.15171 1.14945 0.30613
 C15 C 0.14519 1.18297 0.29071
 H16 H 0.19253 1.11010 0.29406
 H17 H 0.12328 1.20030 0.29509
 N18 N 0.26297 1.15998 0.19482
 N19 N 0.26310 1.18488 0.16931
 C20 C 0.28801 1.17683 0.14623
 C21 C 0.30419 1.14557 0.15789
 C22 C 0.28779 1.13543 0.18858
 H23 H 0.29275 1.19130 0.12169
 H24 H 0.29233 1.11089 0.20399
 H25 H 0.20033 1.18616 0.19394
 H26 H 0.23256 1.21303 0.21882
 N27 N 0.81402 0.73776 0.16530
 N28 N 0.83840 0.74017 0.18900
 C29 C 0.86368 0.71689 0.18066
 C30 C 0.85441 0.69901 0.15036
 C31 C 0.82290 0.71283 0.14117
 H32 H 0.88779 0.71453 0.19435
 H33 H 0.80849 0.70675 0.11762
 Cu34 Cu 0.83656 0.77664 0.22576
 Cu35 Cu 0.77484 0.77052 0.16470
 Cu36 Cu 0.77139 0.83596 0.22995
 N37 N 0.83434 0.81325 0.26237
 N38 N 0.80871 0.83637 0.26391
 C39 C 0.81497 0.86089 0.28925
 C40 C 0.84605 0.85244 0.30427
 C41 C 0.85784 0.82231 0.28665
 H42 H 0.79914 0.88430 0.29483
 H43 H 0.88248 0.80942 0.28986
 N44 N 0.73610 0.83115 0.19324
 N45 N 0.73737 0.80615 0.16848
 C46 C 0.71200 0.81243 0.14517
 C47 C 0.69401 0.84259 0.15592
 C48 C 0.70988 0.85395 0.18629
 H49 H 0.70834 0.79787 0.12082
 H50 H 0.70422 0.87849 0.20069
 H51 H 0.79882 0.81378 0.18873
 H52 H 0.77512 0.78148 0.21799
 N53 N 0.80850 1.26123 -0.16462
 N54 N 0.82956 1.26229 -0.19160
 C55 C 0.85483 1.28585 -0.18473
 C56 C 0.84903 1.30029 -0.15182
 C57 C 0.81959 1.28416 -0.13968
 H58 H 0.87655 1.29079 -0.20163
 H59 H 0.80810 1.28748 -0.11397
 Cu60 Cu 0.82381 1.23013 -0.23140
 Cu61 Cu 0.77058 1.22722 -0.16209
 Cu62 Cu 0.76749 1.16163 -0.22696
 N63 N 0.82603 1.18961 -0.26371
 N64 N 0.80380 1.16294 -0.26201
 C65 C 0.81266 1.13710 -0.28524
 C66 C 0.84184 1.14840 -0.30225
 C67 C 0.84987 1.18165 -0.28800
 H68 H 0.79993 1.11125 -0.28813
 H69 H 0.87219 1.19790 -0.29351
 N70 N 0.73331 1.16513 -0.18903
 N71 N 0.73446 1.19021 -0.16434
 C72 C 0.70986 1.18343 -0.14043
 C73 C 0.69253 1.15280 -0.15069
 C74 C 0.70796 1.14173 -0.18142
 H75 H 0.70616 1.19820 -0.11619
 H76 H 0.70246 1.11721 -0.19584
 H77 H 0.79677 1.18828 -0.19021
 H78 H 0.76502 1.21650 -0.21537
 N79 N 0.19460 0.74001 -0.16903
 N80 N 0.17334 0.73869 -0.19586
 C81 C 0.14873 0.71433 -0.18854
 C82 C 0.15517 0.69963 -0.15550
 C83 C 0.18429 0.71646 -0.14373
 H84 H 0.12691 0.70912 -0.20517
 H85 H 0.19600 0.71326 -0.11800
 Cu86 Cu 0.17772 0.77177 -0.23591
 Cu87 Cu 0.23151 0.77528 -0.16707
 Cu88 Cu 0.23199 0.84203 -0.23262
 N89 N 0.17380 0.81275 -0.26848
 N90 N 0.19527 0.84010 -0.26726
 C91 C 0.18518 0.86617 -0.29037
 C92 C 0.15599 0.85430 -0.30680
 C93 C 0.14923 0.82047 -0.29231
 H94 H 0.19702 0.89256 -0.29347
 H95 H 0.12721 0.80367 -0.29725
 N96 N 0.26667 0.83903 -0.19495
 N97 N 0.26648 0.81358 -0.16996
 C98 C 0.29108 0.82089 -0.14628
 C99 C 0.30741 0.85222 -0.15704
 C100 C 0.29140 0.86316 -0.18780
 H101 H 0.29544 0.80591 -0.12191
 H102 H 0.29605 0.88804 -0.20257
 H103 H 0.20401 0.81381 -0.19533
 H104 H 0.23626 0.78705 -0.22049
 C105 C 0.46307 0.97783 -0.02265
 C106 C 0.48067 0.99811 0.00252
 C107 C 0.46264 1.01850 0.02736
 C108 C 0.42690 1.01879 0.02724
 C109 C 0.40949 0.99832 0.00188
 C110 C 0.42733 0.97774 -0.02316
 C111 C 0.51807 0.99810 0.00276
 C112 C 0.53586 1.02167 -0.01990
 C113 C 0.57160 1.02202 -0.01974
 C114 C 0.58924 0.99797 0.00300
 C115 C 0.57166 0.97397 0.02561
 C116 C 0.53591 0.97447 0.02555
 H117 H 0.47727 0.96242 -0.04197
 H118 H 0.47651 1.03387 0.04690
 H119 H 0.52181 1.04015 -0.03713
 H120 H 0.52191 0.95601 0.04265
 H121 H 0.38191 0.99840 0.00164
 H122 H 0.61681 0.99790 0.00307
 C123 C -0.01892 0.46032 0.97377
 C124 C 0.00264 0.47917 0.99657
 C125 C 0.02414 0.45991 1.01974
 C126 C 0.02427 0.42167 1.02035
 C127 C 0.00252 0.40299 0.99734
 C128 C -0.01919 0.42206 0.97394
 C129 C 0.00269 0.51918 0.99626
 C130 C -0.01853 0.53826 1.01932
 C131 C -0.01850 0.57651 1.01944
 C132 C 0.00314 0.59536 0.99606
 C133 C 0.02460 0.57646 0.97282
 C134 C 0.02418 0.53822 0.97313
 H135 H -0.03518 0.47554 0.95570
 H136 H 0.04040 0.47481 1.03757
 H137 H -0.03469 0.52322 1.03746
 H138 H 0.04027 0.52317 0.95518
 H139 H 0.00246 0.37350 0.99768
 H140 H 0.00334 0.62485 0.99598
 C141 C 0.97089 -0.01798 0.46343
 C142 C 0.99478 0.00276 0.48179
 C143 C 1.01816 0.02431 0.46314
 C144 C 1.01764 0.02556 0.42605
 C145 C 0.99376 0.00437 0.40791
 C146 C 0.97031 -0.01754 0.42633
 C147 C 0.99517 0.00214 0.52062
 C148 C 1.01980 -0.01844 0.53883
 C149 C 1.02042 -0.01919 0.57592
 C150 C 0.99621 0.00136 0.59451
 C151 C 0.97147 0.02229 0.57650
 C152 C 0.97103 0.02230 0.53940
 H153 H 0.95274 -0.03432 0.47811
 H154 H 1.03619 0.04067 0.47761
 H155 H 1.03856 -0.03367 0.52403
 H156 H 0.95191 0.03789 0.52504
 H157 H 0.99404 0.00419 0.37931
 H158 H 0.99666 0.00110 0.62311
 C159 C 0.09060 0.36140 1.09037
 C160 C 0.10248 0.39264 1.07288
 C161 C 0.08085 0.41246 1.05034
 C162 C 0.13167 0.32163 1.13081
 C163 C 0.03529 0.36995 1.06293
 C164 C 0.05695 0.35021 1.08545
 C165 C 0.11309 0.34017 1.11259
 C166 C 0.04705 0.40120 1.04494
 H167 H 0.12854 0.40145 1.07637
 H168 H 0.09075 0.43616 1.03657
 H169 H 0.00929 0.36090 1.05974
 H170 H 0.04749 0.32608 1.09888
 C171 C -0.08385 0.63636 1.08914
 C172 C -0.05019 0.64743 1.08379
 C173 C -0.02886 0.62781 1.06138
 C174 C -0.12427 0.67597 1.12934
 C175 C -0.07474 0.58569 1.04975
 C176 C -0.09605 0.60538 1.07218
 C177 C -0.10601 0.65749 1.11123
 C178 C -0.04094 0.59682 1.04394
 H179 H -0.04048 0.67137 1.09679
 H180 H -0.00285 0.63677 1.05785
 H181 H -0.08489 0.56220 1.03639
 H182 H -0.12212 0.59668 1.07599
 C183 C -0.08644 0.36256 0.90623
 C184 C -0.05283 0.35077 0.91124
 C185 C -0.03084 0.37033 0.93290
 C186 C -0.12845 0.32306 0.86796
 C187 C -0.07595 0.41384 0.94441
 C188 C -0.09790 0.39423 0.92271
 C189 C -0.10937 0.34143 0.88512
 C190 C -0.04222 0.40196 0.94996
 H191 H -0.04368 0.32630 0.89860
 H192 H -0.00490 0.36078 0.93622
 H193 H -0.08558 0.43783 0.95747
 H194 H -0.12392 0.40350 0.91914
 C195 C 0.09153 0.63644 0.90397
 C196 C 0.05784 0.64798 0.90858
 C197 C 0.03598 0.62829 0.93067
 C198 C 0.13312 0.67641 0.86485
 C199 C 0.08133 0.58507 0.94336
 C200 C 0.10319 0.60486 0.92128
 C201 C 0.11430 0.65776 0.88243
 C202 C 0.04753 0.59673 0.94849
 H203 H 0.04854 0.67239 0.89530
 H204 H 0.00998 0.63768 0.93372
 H205 H 0.09107 0.56113 0.95705
 H206 H 0.12928 0.59579 0.91805
 C207 C 1.08781 0.09204 0.36710
 C208 C 1.09908 0.07248 0.39690
 C209 C 1.07624 0.05110 0.41636
 C210 C 1.13057 0.13033 0.32778
 C211 C 1.03076 0.06902 0.37635
 C212 C 1.05359 0.09038 0.35699
 C213 C 1.11135 0.11303 0.34618
 C214 C 1.04186 0.04894 0.40613
 H215 H 1.12557 0.07344 0.40485
 H216 H 1.08560 0.03567 0.43895
 H217 H 1.00435 0.06833 0.36813
 H218 H 1.04459 0.10544 0.33400
 C219 C 1.09308 -0.08475 0.63354
 C220 C 1.07755 -0.09842 0.60321
 C221 C 1.05424 -0.07694 0.58416
 C222 C 1.13502 -0.12552 0.67203
 C223 C 1.06219 -0.02793 0.62562
 C224 C 1.08548 -0.04942 0.64458
 C225 C 1.11609 -0.10716 0.65404
 C226 C 1.04611 -0.04154 0.59532
 H227 H 1.08314 -0.12580 0.59452
 H228 H 1.04199 -0.08832 0.56119
 H229 H 1.05683 -0.00062 0.63459
 H230 H 1.09739 -0.03856 0.66800
 C231 C 0.90180 -0.08448 0.36722
 C232 C 0.91727 -0.09829 0.39793
 C233 C 0.93906 -0.07632 0.41760
 C234 C 0.86425 -0.12654 0.32669
 C235 C 0.92956 -0.02650 0.37609
 C236 C 0.90779 -0.04847 0.35652
 C237 C 0.88102 -0.10755 0.34569
 C238 C 0.94573 -0.04029 0.40667
 H239 H 0.91297 -0.12620 0.40634
 H240 H 0.95143 -0.08784 0.44078
 H241 H 0.93382 0.00127 0.36727
 H242 H 0.89595 -0.03751 0.33278
 C243 C 0.90139 0.08744 0.63611
 C244 C 0.91579 0.10143 0.60502
 C245 C 0.93818 0.08006 0.58530
 C246 C 0.86163 0.12819 0.67595
 C247 C 0.93148 0.03046 0.62752
 C248 C 0.90911 0.05185 0.64717
 C249 C 0.87953 0.10982 0.65736
 C250 C 0.94651 0.04443 0.59651
 H251 H 0.91008 0.12901 0.59629
 H252 H 0.94962 0.09172 0.56176
 H253 H 0.93700 0.00297 0.63657
 H254 H 0.89807 0.04074 0.67117
 C255 C 0.36864 1.08330 0.09944
 C256 C 0.39807 1.09765 0.08391
 C257 C 0.41751 1.07642 0.06099
 C258 C 0.32813 1.12415 0.13832
 C259 C 0.37836 1.02625 0.06953
 C260 C 0.35903 1.04747 0.09246
 C261 C 0.34717 1.10574 0.12103
 C262 C 0.40759 1.04063 0.05321
 H263 H 0.40562 1.12544 0.08898
 H264 H 0.43971 1.08832 0.04855
 H265 H 0.37038 0.99862 0.06443
 H266 H 0.33630 1.03609 0.10434
 C267 C 0.62900 1.09295 -0.08806
 C268 C 0.63852 1.08818 -0.05268
 C269 C 0.61952 1.06559 -0.03037
 C270 C 0.66877 1.13234 -0.12969
 C271 C 0.58088 1.05286 -0.07860
 C272 C 0.60001 1.07547 -0.10094
 C273 C 0.64999 1.11465 -0.11117
 C274 C 0.59069 1.04737 -0.04316
 H275 H 0.66090 1.10160 -0.04243
 H276 H 0.62739 1.06235 -0.00308
 H277 H 0.55898 1.03893 -0.08924
 H278 H 0.59250 1.07886 -0.12834
 C279 C 0.37042 0.91356 -0.09651
 C280 C 0.36042 0.94936 -0.08950
 C281 C 0.37930 0.97047 -0.06619
 C282 C 0.33088 0.87317 -0.13658
 C283 C 0.41878 0.92025 -0.05727
 C284 C 0.39980 0.89913 -0.08058
 C285 C 0.34949 0.89131 -0.11868
 C286 C 0.40847 0.95601 -0.04949
 H287 H 0.33773 0.96081 -0.10169
 H288 H 0.37103 0.99809 -0.06113
 H289 H 0.44094 0.90828 -0.04455
 H290 H 0.40767 0.87137 -0.08568
 C291 C 0.62940 0.90242 0.09375
 C292 C 0.63879 0.90722 0.05838
 C293 C 0.61967 0.93000 0.03613
 C294 C 0.66973 0.86294 0.13517
 C295 C 0.58113 0.94287 0.08440
 C296 C 0.60039 0.92007 0.10669
 C297 C 0.65063 0.88065 0.11679
 C298 C 0.59084 0.94841 0.04897
 H299 H 0.66119 0.89368 0.04809
 H300 H 0.62746 0.93328 0.00886
 H301 H 0.55922 0.95693 0.09507
 H302 H 0.59300 0.91667 0.13408
   
