data_POSCAR
  _audit_creation_date              2014-09-24
  _audit_creation_method            'ToBaCCo'
  _symmetry_space_group_name_H-M    'P1'
  _symmetry_Int_Tables_number       1
  _symmetry_cell_setting            triclinic
  loop_
  _symmetry_equiv_pos_as_xyz
 x,y,z
_cell_length_a 15.2444
_cell_length_b 14.9978
_cell_length_c 15.0094
_cell_angle_alpha 74.742300
_cell_angle_beta 97.049600
_cell_angle_gamma 83.209000
loop_
  _atom_site_label
  _atom_site_type_symbol
  _atom_site_fract_x
  _atom_site_fract_y
  _atom_site_fract_z
O1 O 0.64958 0.45972 0.10435
 O2 O 0.40879 0.46412 0.11814
 O3 O 0.54182 0.33610 0.12598
 O4 O 0.52052 0.58540 0.10965
 O5 O 0.48976 0.62301 -0.04463
 O6 O 0.50289 0.37349 -0.02757
 O7 O 0.37521 0.50443 -0.03592
 O8 O 0.61548 0.49019 -0.04926
 Cu9 Cu 0.53308 0.45834 0.13003
 Cu10 Cu 0.49279 0.50200 -0.05510
 C11 C 0.67303 0.47269 0.02416
 C12 C 0.35116 0.48349 0.04404
 C13 C 0.52394 0.31253 0.05161
 C14 C 0.50357 0.64628 0.03074
 O15 O -0.09600 0.61209 0.51829
 O16 O -0.02580 0.36130 0.54037
 O17 O -0.02205 0.46872 0.65431
 O18 O -0.09928 0.50268 0.40089
 O19 O 0.03343 0.53398 0.36929
 O20 O 0.10633 0.51007 0.61945
 O21 O 0.10323 0.39429 0.49878
 O22 O 0.02816 0.64592 0.46505
 Cu23 Cu -0.07409 0.48348 0.53158
 Cu24 Cu 0.08276 0.52230 0.49088
 C25 C -0.04598 0.67180 0.48855
 C26 C 0.04908 0.33619 0.51815
 C27 C 0.05409 0.48909 0.67887
 C28 C -0.04509 0.52077 0.34261
 O29 O 0.48598 0.09709 0.56028
 O30 O 0.45829 0.06447 0.32596
 O31 O 0.35652 0.06877 0.45316
 O32 O 0.59028 0.09829 0.43458
 O33 O 0.63362 -0.05371 0.49695
 O34 O 0.40002 -0.08347 0.51462
 O35 O 0.50307 -0.08737 0.38850
 O36 O 0.52939 -0.05501 0.62281
 Cu37 Cu 0.46907 0.09775 0.43648
 Cu38 Cu 0.52129 -0.08538 0.51135
 C39 C 0.50839 0.02639 0.63141
 C40 C 0.47656 -0.01740 0.31753
 C41 C 0.33910 -0.01229 0.48987
 C42 C 0.65173 0.02769 0.46291
 C43 C 0.49980 -0.01518 -0.11213
 C44 C 0.47536 -0.08635 -0.04141
 C45 C 0.45052 -0.06505 0.03862
 C46 C 0.45735 0.02197 0.05434
 C47 C 0.48229 0.09238 -0.01606
 C48 C 0.50401 0.07287 -0.09714
 H49 H 0.52692 0.12738 -0.14765
 H50 H 0.42523 -0.11708 0.08962
 C51 C -0.01404 0.53566 1.09066
 C52 C -0.08040 0.50873 1.03270
 C53 C -0.05660 0.48482 0.95284
 C54 C 0.03083 0.48157 0.93160
 C55 C 0.09805 0.50515 0.99182
 C56 C 0.07240 0.53633 1.06714
 H57 H 0.12121 0.56056 1.11018
 H58 H -0.10722 0.47081 0.90347
 C59 C 0.08533 0.02873 0.48770
 C60 C 0.01892 0.08610 0.51509
 C61 C -0.06749 0.06189 0.51443
 C62 C -0.09155 -0.01541 0.48516
 C63 C -0.02375 -0.07512 0.46239
 C64 C 0.06128 -0.04881 0.45954
 H65 H 0.11045 -0.09117 0.43530
 H66 H -0.11710 0.10478 0.53759
 C67 C -0.23213 0.46344 1.01486
 C68 C -0.17516 0.51228 1.04955
 H69 H -0.21104 0.41731 0.97447
 H70 H -0.19980 0.55818 1.08898
 C71 C 0.26111 0.48166 1.05267
 C72 C 0.19435 0.49799 0.97961
 H73 H 0.24586 0.46521 1.12320
 H74 H 0.21128 0.50641 0.91049
 C75 C -0.06966 -0.23502 0.48885
 C76 C -0.03253 -0.16509 0.43929
 H77 H -0.11220 -0.22338 0.53833
 H78 H 0.00913 -0.18133 0.39018
 C79 C 0.06817 0.24245 0.50322
 C80 C 0.03278 0.16938 0.54916
 H81 H 0.09905 0.23954 0.44288
 H82 H -0.00290 0.17852 0.60517
 C83 C 0.50415 0.03967 -0.28132
 C84 C 0.51949 -0.03070 -0.20177
 H85 H 0.47929 0.11019 -0.28109
 H86 H 0.54093 -0.10146 -0.20387
 C87 C 0.47209 -0.03257 0.22497
 C88 C 0.44264 0.03599 0.14564
 H89 H 0.50152 -0.10115 0.22269
 H90 H 0.41603 0.10511 0.14878
 C91 C 0.50202 -0.25586 0.02944
 C92 C 0.47639 -0.18356 -0.04754
 H93 H 0.52429 -0.24351 0.09591
 H94 H 0.45746 -0.19602 -0.11462
 C95 C 0.52534 0.21358 0.05711
 C96 C 0.48147 0.18947 -0.01319
 H97 H 0.56074 0.16088 0.11924
 H98 H 0.44848 0.24331 -0.07580
 C99 C -0.25499 0.04198 0.45812
 C100 C -0.18711 -0.02941 0.47734
 H101 H -0.24245 0.11359 0.43955
 H102 H -0.20389 -0.09849 0.48670
 C103 C 0.24761 -0.02589 0.50406
 C104 C 0.17983 0.04515 0.48797
 H105 H 0.23625 -0.09760 0.52829
 H106 H 0.19484 0.11540 0.47103
 C107 C -0.06928 0.51799 1.24483
 C108 C -0.02657 0.56293 1.17760
 H109 H -0.11109 0.46756 1.23270
 H110 H 0.01605 0.61095 1.19504
 C111 C 0.07787 0.49850 0.77450
 C112 C 0.04402 0.44981 0.84714
 H113 H 0.11173 0.55651 0.78067
 H114 H 0.00681 0.39532 0.83588
   
