data_POSCAR
  _audit_creation_date              2014-09-24
  _audit_creation_method            'ToBaCCo'
  _symmetry_space_group_name_H-M    'P1'
  _symmetry_Int_Tables_number       1
  _symmetry_cell_setting            triclinic
  loop_
  _symmetry_equiv_pos_as_xyz
 x,y,z
_cell_length_a 38.6564
_cell_length_b 38.6255
_cell_length_c 18.2826
_cell_angle_alpha 89.854500
_cell_angle_beta 90.085300
_cell_angle_gamma 119.980400
loop_
  _atom_site_label
  _atom_site_type_symbol
  _atom_site_fract_x
  _atom_site_fract_y
  _atom_site_fract_z
C1 C 0.49971 0.99924 0.46402
 C2 C 0.50043 0.99908 0.53844
 C3 C 0.48156 0.96131 0.58125
 C4 C 0.52002 1.03667 0.58147
 C5 C 0.51796 1.03695 0.42111
 C6 C 0.48067 0.96172 0.42083
 C7 C 0.44071 0.93322 0.57407
 C8 C 0.42338 0.89831 0.61641
 C9 C 0.44671 0.89131 0.66663
 C10 C 0.48742 0.91935 0.67400
 C11 C 0.50467 0.95416 0.63175
 C12 C 0.49780 1.04355 0.63421
 C13 C 0.51574 1.07828 0.67639
 C14 C 0.55617 1.10644 0.66671
 C15 C 0.57865 1.09973 0.61445
 C16 C 0.56069 1.06492 0.57212
 C17 C 0.54701 1.04370 0.36831
 C18 C 0.56352 1.07818 0.32526
 C19 C 0.55102 1.10623 0.33412
 C20 C 0.52203 1.09976 0.38669
 C21 C 0.50545 1.06518 0.42992
 C22 C 0.49333 0.93347 0.42718
 C23 C 0.47603 0.89913 0.38357
 C24 C 0.44616 0.89291 0.33309
 C25 C 0.43348 0.92096 0.32672
 C26 C 0.45071 0.95521 0.37015
 H27 H 0.42224 0.93856 0.53636
 H28 H 0.39177 0.87712 0.61043
 H29 H 0.50587 0.91459 0.71286
 H30 H 0.53615 0.97558 0.63834
 H31 H 0.46649 1.02202 0.64251
 H32 H 0.49813 1.08303 0.71695
 H33 H 0.57852 1.05980 0.53265
 H34 H 0.55683 1.02216 0.36042
 H35 H 0.58574 1.08277 0.28449
 H36 H 0.51192 1.12113 0.39358
 H37 H 0.48255 1.06015 0.46943
 H38 H 0.51692 0.93832 0.46499
 H39 H 0.48629 0.87776 0.38849
 H40 H 0.41057 0.91657 0.28756
 H41 H 0.44075 0.97678 0.36417
 H42 H 0.61005 1.12117 0.60695
 C43 C -0.00063 0.49933 0.46099
 C44 C -0.00055 0.50001 0.53541
 C45 C 0.03711 0.51897 0.57829
 C46 C -0.03808 0.48187 0.57859
 C47 C -0.03831 0.47974 0.41815
 C48 C 0.03699 0.51822 0.41798
 C49 C 0.06526 0.50624 0.57158
 C50 C 0.09986 0.52364 0.61455
 C51 C 0.10645 0.55367 0.66478
 C52 C 0.07847 0.56638 0.67160
 C53 C 0.04395 0.54906 0.62879
 C54 C -0.04469 0.45288 0.63168
 C55 C -0.07898 0.43651 0.67501
 C56 C -0.10698 0.44908 0.66614
 C57 C -0.10065 0.47799 0.61328
 C58 C -0.06627 0.49444 0.56977
 C59 C -0.04526 0.50195 0.36524
 C60 C -0.07996 0.48398 0.32295
 C61 C -0.10808 0.44346 0.33269
 C62 C -0.10131 0.42101 0.38527
 C63 C -0.06651 0.43903 0.42768
 C64 C 0.06511 0.55910 0.42505
 C65 C 0.09992 0.57639 0.38269
 C66 C 0.10676 0.55305 0.33265
 C67 C 0.07874 0.51239 0.32525
 C68 C 0.04401 0.49510 0.36748
 H69 H 0.06016 0.48257 0.53389
 H70 H 0.12117 0.51335 0.60930
 H71 H 0.08314 0.58941 0.71058
 H72 H 0.02247 0.55907 0.63505
 H73 H -0.02318 0.44301 0.63959
 H74 H -0.08346 0.41433 0.71599
 H75 H -0.06134 0.51731 0.53005
 H76 H -0.02376 0.53329 0.35681
 H77 H -0.08465 0.50168 0.28223
 H78 H -0.12264 0.38955 0.39300
 H79 H -0.06133 0.42122 0.46729
 H80 H 0.05988 0.57759 0.46273
 H81 H 0.12124 0.60797 0.38837
 H82 H 0.08360 0.49411 0.28638
 H83 H 0.02257 0.46361 0.36094
 H84 H -0.12199 0.48816 0.60638
 C85 C 0.50041 0.50066 0.46516
 C86 C 0.49973 0.49999 0.53959
 C87 C 0.48007 0.51798 0.58237
 C88 C 0.51865 0.48125 0.58272
 C89 C 0.51917 0.48176 0.42234
 C90 C 0.48241 0.52029 0.42198
 C91 C 0.50217 0.54701 0.63532
 C92 C 0.48408 0.56349 0.67784
 C93 C 0.44355 0.55098 0.66829
 C94 C 0.42122 0.52194 0.61562
 C95 C 0.43937 0.50540 0.57297
 C96 C 0.55951 0.49404 0.57557
 C97 C 0.57693 0.47677 0.61849
 C98 C 0.55371 0.44675 0.66919
 C99 C 0.51301 0.43402 0.67650
 C100 C 0.49564 0.45125 0.63371
 C101 C 0.50638 0.44086 0.42959
 C102 C 0.52357 0.42345 0.38671
 C103 C 0.55347 0.44672 0.33602
 C104 C 0.56624 0.48743 0.32865
 C105 C 0.54912 0.50482 0.37137
 C106 C 0.45346 0.49813 0.36891
 C107 C 0.43711 0.51626 0.32581
 C108 C 0.44968 0.55681 0.33489
 C109 C 0.47860 0.57919 0.38767
 C110 C 0.49501 0.56105 0.43095
 H111 H 0.53351 0.55689 0.64366
 H112 H 0.50169 0.58576 0.71861
 H113 H 0.38976 0.51174 0.60802
 H114 H 0.42164 0.48251 0.53334
 H115 H 0.57791 0.51767 0.53750
 H116 H 0.60853 0.48716 0.61266
 H117 H 0.46416 0.44118 0.64030
 H118 H 0.48279 0.42241 0.46763
 H119 H 0.51322 0.39183 0.39240
 H120 H 0.58917 0.50565 0.28932
 H121 H 0.55919 0.53633 0.36469
 H122 H 0.44356 0.46676 0.36088
 H123 H 0.41494 0.49872 0.28488
 H124 H 0.48877 0.61068 0.39473
 H125 H 0.51785 0.57882 0.47065
 H126 H 0.49472 0.41101 0.71577
 O127 O 0.39329 0.65735 -0.06508
 O128 O 0.39137 0.72310 -0.08916
 C129 C 0.37269 0.74163 -0.10152
 O130 O 0.34231 0.73600 -0.06537
 O131 O 0.27633 0.66805 -0.08552
 C132 C 0.25791 0.63074 -0.09697
 O133 O 0.26392 0.60617 -0.06060
 O134 O 0.33110 0.60724 -0.08367
 C135 C 0.36802 0.62592 -0.09825
 O136 O 0.39341 0.66979 0.07999
 O137 O 0.39449 0.73696 0.05601
 C138 C 0.36988 0.74290 0.09208
 O139 O 0.33263 0.72450 0.08024
 O140 O 0.26477 0.65848 0.06005
 C141 C 0.25915 0.62813 0.09657
 O142 O 0.27768 0.60943 0.08469
 O143 O 0.34339 0.60751 0.06159
 C144 C 0.37472 0.63285 0.09491
 Cr145 Cr 0.39088 0.69567 -0.00451
 Cr146 Cr 0.30514 0.69563 -0.00264
 Cr147 Cr 0.30515 0.60985 0.00041
 O148 O 0.33374 0.66703 -0.00226
 O149 O 0.60913 0.33291 -0.08531
 O150 O 0.60699 0.26490 -0.06379
 C151 C 0.63220 0.25916 -0.09815
 O152 O 0.66920 0.27763 -0.08429
 O153 O 0.73636 0.34348 -0.05952
 C154 C 0.74240 0.37465 -0.09391
 O155 O 0.72401 0.39334 -0.08052
 O156 O 0.65789 0.39470 -0.05892
 C157 C 0.62778 0.37028 -0.09617
 O158 O 0.60571 0.34228 0.06016
 O159 O 0.60707 0.27608 0.08161
 C160 C 0.62577 0.25767 0.09503
 O161 O 0.65692 0.26380 0.06075
 O162 O 0.72271 0.33102 0.08555
 C163 C 0.74117 0.36803 0.09935
 O164 O 0.73543 0.39329 0.06486
 O165 O 0.66749 0.39107 0.08649
 C166 C 0.63018 0.37234 0.09746
 Cr167 Cr 0.60947 0.30517 -0.00177
 Cr168 Cr 0.69517 0.30511 0.00062
 Cr169 Cr 0.69508 0.39086 0.00291
 O170 O 0.66659 0.33369 0.00058
 C171 C 0.43053 0.85956 -0.29153
 C172 C 0.41633 0.83099 -0.25121
 C173 C 0.40054 0.79861 -0.20158
 C174 C 0.38759 0.77197 -0.15709
 C175 C 0.14099 0.57058 -0.28840
 C176 C 0.16911 0.58480 -0.24723
 C177 C 0.20105 0.60129 -0.19689
 C178 C 0.22748 0.61504 -0.15217
 C179 C 0.42596 0.56628 -0.28800
 C180 C 0.41134 0.58002 -0.24744
 C181 C 0.39533 0.59619 -0.19768
 C182 C 0.38247 0.60990 -0.15330
 C183 C 0.57453 0.14141 -0.28761
 C184 C 0.58893 0.16989 -0.24732
 C185 C 0.60481 0.20220 -0.19779
 C186 C 0.61765 0.22880 -0.15344
 C187 C 0.85871 0.43313 -0.28658
 C188 C 0.83079 0.41960 -0.24499
 C189 C 0.79906 0.40373 -0.19421
 C190 C 0.77276 0.39031 -0.14922
 C191 C 0.57062 0.43079 -0.28674
 C192 C 0.58477 0.41657 -0.24594
 C193 C 0.60042 0.40002 -0.19597
 C194 C 0.61318 0.38618 -0.15142
 C195 C 0.85887 0.42598 0.28924
 C196 C 0.83039 0.41143 0.24887
 C197 C 0.79811 0.39545 0.19921
 C198 C 0.77152 0.38256 0.15475
 C199 C 0.56710 0.14074 0.28710
 C200 C 0.58072 0.16882 0.24570
 C201 C 0.59668 0.20072 0.19510
 C202 C 0.61014 0.22716 0.15024
 C203 C 0.57018 0.42888 0.28931
 C204 C 0.58427 0.41486 0.24819
 C205 C 0.60067 0.39937 0.19781
 C206 C 0.61439 0.38676 0.15297
 C207 C 0.14166 0.57079 0.28671
 C208 C 0.17008 0.58482 0.24626
 C209 C 0.20233 0.60047 0.19656
 C210 C 0.22888 0.61331 0.15206
 C211 C 0.42943 0.85872 0.28550
 C212 C 0.41537 0.83091 0.24370
 C213 C 0.39906 0.79932 0.19270
 C214 C 0.38545 0.77313 0.14756
 C215 C 0.43371 0.57538 0.28792
 C216 C 0.42013 0.58988 0.24652
 C217 C 0.40414 0.60575 0.19580
 C218 C 0.39058 0.61851 0.15068
   
