data_POSCAR
  _audit_creation_date              2014-09-24
  _audit_creation_method            'ToBaCCo'
  _symmetry_space_group_name_H-M    'P1'
  _symmetry_Int_Tables_number       1
  _symmetry_cell_setting            triclinic
  loop_
  _symmetry_equiv_pos_as_xyz
 x,y,z
_cell_length_a 32.2338
_cell_length_b 32.2338
_cell_length_c 32.1739
_cell_angle_alpha 89.977700
_cell_angle_beta 90.022300
_cell_angle_gamma 89.858200
loop_
  _atom_site_label
  _atom_site_type_symbol
  _atom_site_fract_x
  _atom_site_fract_y
  _atom_site_fract_z
C1 C 0.20737 0.15242 0.20788
 C2 C 0.18946 0.13490 0.24355
 C3 C 0.15375 0.15257 0.26184
 C4 C 0.13618 0.18826 0.24344
 C5 C 0.15377 0.20606 0.20780
 C6 C 0.18948 0.18812 0.18995
 C7 C 0.24302 0.13481 0.18999
 C8 C 0.26133 0.15240 0.15425
 C9 C 0.24296 0.18808 0.13663
 C10 C 0.20735 0.20597 0.15421
 C11 C 0.18945 0.24160 0.13659
 C12 C 0.15386 0.25980 0.15423
 C13 C 0.13621 0.24170 0.18986
 H14 H 0.20361 0.10747 0.25703
 H15 H 0.10875 0.20250 0.25679
 H16 H 0.25647 0.10739 0.20417
 H17 H 0.25632 0.20226 0.10918
 H18 H 0.20341 0.25518 0.10916
 H19 H 0.10879 0.25535 0.20381
 C20 C -0.20727 0.84765 0.20772
 C21 C -0.18941 0.86514 0.24342
 C22 C -0.15365 0.84752 0.26170
 C23 C -0.13599 0.81192 0.24327
 C24 C -0.15355 0.79415 0.20760
 C25 C -0.18930 0.81204 0.18975
 C26 C -0.24297 0.86521 0.18985
 C27 C -0.26124 0.84766 0.15408
 C28 C -0.24280 0.81206 0.13641
 C29 C -0.20714 0.79422 0.15398
 C30 C -0.18915 0.75867 0.13634
 C31 C -0.15351 0.74052 0.15398
 C32 C -0.13590 0.75861 0.18963
 H33 H -0.20362 0.89251 0.25693
 H34 H -0.10853 0.79772 0.25662
 H35 H -0.25648 0.89257 0.20408
 H36 H -0.25614 0.79791 0.10894
 H37 H -0.20309 0.74510 0.10888
 H38 H -0.10845 0.74500 0.20359
 C39 C -0.20869 0.15376 -0.20647
 C40 C -0.19073 0.13613 -0.24209
 C41 C -0.15513 0.15371 -0.26023
 C42 C -0.13755 0.18927 -0.24209
 C43 C -0.15516 0.20721 -0.20651
 C44 C -0.19086 0.18943 -0.18861
 C45 C -0.24429 0.13629 -0.18857
 C46 C -0.26264 0.15397 -0.15288
 C47 C -0.24437 0.18965 -0.13532
 C48 C -0.20877 0.20742 -0.15292
 C49 C -0.19088 0.24303 -0.13541
 C50 C -0.15529 0.26103 -0.15313
 C51 C -0.13763 0.24277 -0.18870
 H52 H -0.20462 0.10874 -0.25572
 H53 H -0.11015 0.20319 -0.25567
 H54 H -0.25764 0.10888 -0.20272
 H55 H -0.25779 0.20389 -0.10791
 H56 H -0.20484 0.25675 -0.10802
 H57 H -0.11023 0.25625 -0.20272
 C58 C 0.20757 0.84630 -0.20812
 C59 C 0.18961 0.86395 -0.24373
 C60 C 0.15393 0.84642 -0.26204
 C61 C 0.13646 0.81072 -0.24374
 C62 C 0.15413 0.79279 -0.20815
 C63 C 0.18980 0.81059 -0.19026
 C64 C 0.24316 0.86378 -0.19020
 C65 C 0.26139 0.84603 -0.15460
 C66 C 0.24336 0.81041 -0.13697
 C67 C 0.20777 0.79260 -0.15455
 C68 C 0.18999 0.75698 -0.13702
 C69 C 0.15440 0.73893 -0.15470
 C70 C 0.13667 0.75717 -0.19028
 H71 H 0.20369 0.89138 -0.25712
 H72 H 0.10905 0.79659 -0.25713
 H73 H 0.25669 0.89120 -0.20414
 H74 H 0.25702 0.79637 -0.10957
 H75 H 0.20401 0.74330 -0.10961
 H76 H 0.10927 0.74363 -0.20426
 C77 C 0.15241 1.20738 0.79211
 C78 C 0.13489 1.18948 0.75644
 C79 C 0.15255 1.15376 0.73815
 C80 C 0.18825 1.13619 0.75655
 C81 C 0.20605 1.15378 0.79219
 C82 C 0.18811 1.18949 0.81004
 C83 C 0.13480 1.24304 0.81000
 C84 C 0.15238 1.26134 0.84574
 C85 C 0.18807 1.24297 0.86336
 C86 C 0.20596 1.20736 0.84578
 C87 C 0.24158 1.18946 0.86340
 C88 C 0.25979 1.15387 0.84576
 C89 C 0.24168 1.13622 0.81013
 H90 H 0.10746 1.20362 0.74296
 H91 H 0.20248 1.10876 0.74320
 H92 H 0.10737 1.25648 0.79582
 H93 H 0.20225 1.25633 0.89081
 H94 H 0.25516 1.20343 0.89083
 H95 H 0.25534 1.10880 0.79618
 C96 C 0.84764 0.79274 0.79227
 C97 C 0.86513 0.81060 0.75657
 C98 C 0.84751 0.84636 0.73829
 C99 C 0.81190 0.86402 0.75672
 C100 C 0.79414 0.84647 0.79239
 C101 C 0.81203 0.81071 0.81024
 C102 C 0.86519 0.75704 0.81014
 C103 C 0.84765 0.73877 0.84591
 C104 C 0.81205 0.75722 0.86358
 C105 C 0.79421 0.79288 0.84602
 C106 C 0.75866 0.81086 0.86365
 C107 C 0.74051 0.84651 0.84601
 C108 C 0.75860 0.86412 0.81035
 H109 H 0.89249 0.79639 0.74306
 H110 H 0.79771 0.89148 0.74337
 H111 H 0.89255 0.74354 0.79591
 H112 H 0.79790 0.74387 0.89106
 H113 H 0.74508 0.79693 0.89111
 H114 H 0.74498 0.89157 0.79640
 C115 C 0.15374 0.79133 1.20646
 C116 C 0.13611 0.80929 1.24208
 C117 C 0.15370 0.84489 1.26022
 C118 C 0.18926 0.86246 1.24208
 C119 C 0.20719 0.84485 1.20650
 C120 C 0.18942 0.80915 1.18860
 C121 C 0.13628 0.75573 1.18856
 C122 C 0.15396 0.73738 1.15287
 C123 C 0.18964 0.75564 1.13531
 C124 C 0.20741 0.79125 1.15291
 C125 C 0.24302 0.80913 1.13541
 C126 C 0.26101 0.84473 1.15312
 C127 C 0.24275 0.86238 1.18869
 H128 H 0.10872 0.79539 1.25571
 H129 H 0.20318 0.88987 1.25566
 H130 H 0.10887 0.74237 1.20271
 H131 H 0.20388 0.74222 1.10790
 H132 H 0.25674 0.79518 1.10801
 H133 H 0.25624 0.88979 1.20271
 C134 C 0.84628 1.20758 1.20811
 C135 C 0.86394 1.18962 1.24372
 C136 C 0.84640 1.15394 1.26203
 C137 C 0.81071 1.13647 1.24373
 C138 C 0.79277 1.15414 1.20814
 C139 C 0.81057 1.18982 1.19025
 C140 C 0.86376 1.24318 1.19019
 C141 C 0.84602 1.26140 1.15459
 C142 C 0.81040 1.24337 1.13696
 C143 C 0.79259 1.20779 1.15454
 C144 C 0.75697 1.19000 1.13701
 C145 C 0.73892 1.15441 1.15469
 C146 C 0.75716 1.13668 1.19027
 H147 H 0.89137 1.20370 1.25711
 H148 H 0.79658 1.10906 1.25712
 H149 H 0.89119 1.25671 1.20413
 H150 H 0.79636 1.25703 1.10956
 H151 H 0.74329 1.20403 1.10960
 H152 H 0.74362 1.10928 1.20425
 N153 N 0.54332 1.07400 0.95576
 N154 N 0.57479 1.09967 0.95071
 N155 N 0.45625 1.04482 0.92665
 N156 N 0.42467 1.04988 0.90099
 N157 N 0.45599 1.07355 0.95558
 N158 N 0.42423 1.09896 0.95042
 N159 N 0.54357 1.04524 0.92686
 N160 N 0.57518 1.05053 0.90136
 C161 C 0.59430 1.08460 0.91663
 C162 C 0.40506 1.08378 0.91624
 N163 N 0.45711 0.92658 0.95526
 N164 N 0.42566 0.90095 0.95002
 N165 N 0.54427 0.95590 0.92669
 N166 N 0.57591 0.95089 0.90112
 N167 N 0.54441 0.92704 0.95551
 N168 N 0.57613 0.90159 0.95037
 N169 N 0.45695 0.95547 0.92647
 N170 N 0.42539 0.95031 0.90085
 Mn171 Mn 0.50026 1.00036 0.92617
 C172 C 0.40624 0.91617 0.91595
 C173 C 0.59542 0.91688 0.91632
 N174 N 0.45575 1.07330 1.04512
 N175 N 0.42399 1.09872 1.05034
 N176 N 0.54323 1.04490 1.07411
 N177 N 0.57481 1.05008 1.09971
 N178 N 0.54307 1.07377 1.04530
 N179 N 0.57453 1.09939 1.05048
 N180 N 0.45592 1.04441 1.07391
 N181 N 0.42430 1.04935 1.09951
 Mn182 Mn 0.49953 1.07416 1.00044
 C183 C 0.40473 1.08336 1.08440
 C184 C 0.59396 1.08420 1.08455
 N185 N 0.54427 0.92682 1.04501
 N186 N 0.57606 0.90144 1.05020
 N187 N 0.45665 0.95504 1.07368
 N188 N 0.42498 0.94968 1.09910
 N189 N 0.45697 0.92633 1.04474
 N190 N 0.42554 0.90062 1.04966
 N191 N 0.54397 0.95556 1.07393
 N192 N 0.57555 0.95053 1.09960
 Mn193 Mn 0.50070 0.92619 1.00013
 Mn194 Mn 0.49994 0.99998 1.07441
 Cl195 Cl 0.50011 1.00018 1.00029
 C196 C 0.59521 0.91664 1.08439
 C197 C 0.40595 0.91560 1.08370
 N198 N -0.04497 0.45666 -0.07368
 N199 N -0.05033 0.42499 -0.09911
 N200 N -0.07319 0.54428 -0.04502
 N201 N -0.09858 0.57607 -0.05021
 N202 N -0.04446 0.54399 -0.07394
 N203 N -0.04948 0.57556 -0.09961
 N204 N -0.07369 0.45698 -0.04475
 N205 N -0.09939 0.42555 -0.04967
 C206 C -0.08441 0.40596 -0.08371
 C207 C -0.08337 0.59522 -0.08440
 N208 N -0.04412 0.54428 0.07330
 N209 N -0.04913 0.57592 0.09887
 N210 N -0.07344 0.45713 0.04473
 N211 N -0.09906 0.42567 0.04997
 N212 N -0.04454 0.45696 0.07352
 N213 N -0.04970 0.42541 0.09915
 N214 N -0.07297 0.54442 0.04448
 N215 N -0.09842 0.57614 0.04962
 Mn216 Mn -0.07382 0.50071 -0.00014
 C217 C -0.08313 0.59543 0.08367
 C218 C -0.08384 0.40625 0.08405
 N219 N 0.04489 0.54325 -0.07412
 N220 N 0.05006 0.57483 -0.09972
 N221 N 0.07329 0.45576 -0.04513
 N222 N 0.09871 0.42401 -0.05035
 N223 N 0.04439 0.45593 -0.07391
 N224 N 0.04934 0.42431 -0.09952
 N225 N 0.07376 0.54309 -0.04531
 N226 N 0.09938 0.57454 -0.05049
 Mn227 Mn -0.00004 0.49995 -0.07442
 C228 C 0.08419 0.59398 -0.08456
 C229 C 0.08334 0.40474 -0.08441
 N230 N 0.04480 0.45627 0.07334
 N231 N 0.04987 0.42469 0.09900
 N232 N 0.07399 0.54334 0.04423
 N233 N 0.09965 0.57480 0.04928
 N234 N 0.04523 0.54358 0.07313
 N235 N 0.05052 0.57519 0.09863
 N236 N 0.07353 0.45600 0.04441
 N237 N 0.09895 0.42424 0.04957
 Mn238 Mn 0.00035 0.50027 0.07383
 Mn239 Mn 0.07415 0.49954 -0.00045
 Cl240 Cl 0.00016 0.50012 -0.00030
 C241 C 0.08377 0.40507 0.08375
 C242 C 0.08459 0.59431 0.08336
 N243 N 1.04447 0.07339 0.54371
 N244 N 1.04953 0.09899 0.57531
 N245 N 1.07338 0.04448 0.45628
 N246 N 1.09898 0.04954 0.42467
 N247 N 1.04456 0.07335 0.45621
 N248 N 1.04975 0.09887 0.42452
 N249 N 1.07334 0.04457 0.54378
 N250 N 1.09885 0.04977 0.57547
 C251 C 1.08358 0.08385 0.59477
 C252 C 1.08383 0.08359 0.40522
 N253 N 1.04462 -0.07361 0.45632
 N254 N 1.04972 -0.09921 0.42472
 N255 N 1.07344 -0.04481 0.54377
 N256 N 1.09904 -0.04999 0.57539
 N257 N 1.04469 -0.07361 0.54377
 N258 N 1.04993 -0.09919 0.57540
 N259 N 1.07343 -0.04488 0.45629
 N260 N 1.09895 -0.05013 0.42463
 Mn261 Mn 1.07390 -0.00016 0.50004
 C262 C 1.08373 -0.08416 0.40531
 C263 C 1.08396 -0.08402 0.59476
 N264 N 0.95518 0.07345 0.45622
 N265 N 0.95000 0.09905 0.42460
 N266 N 0.92638 0.04463 0.54367
 N267 N 0.90078 0.04973 0.57527
 N268 N 0.95511 0.07344 0.54370
 N269 N 0.94985 0.09897 0.57535
 N270 N 0.92638 0.04470 0.45622
 N271 N 0.90080 0.04994 0.42459
 Mn272 Mn 0.99983 0.07392 0.49995
 C273 C 0.91596 0.08397 0.40523
 C274 C 0.91583 0.08375 0.59468
 N275 N 0.95537 -0.07353 0.54372
 N276 N 0.95033 -0.09910 0.57536
 N277 N 0.92646 -0.04462 0.45627
 N278 N 0.90088 -0.04965 0.42463
 N279 N 0.95528 -0.07348 0.45624
 N280 N 0.95012 -0.09897 0.42455
 N281 N 0.92650 -0.04471 0.54375
 N282 N 0.90101 -0.04987 0.57544
 Mn283 Mn 0.99999 -0.07406 0.50001
 Mn284 Mn 0.92593 0.00000 0.49998
 Cl285 Cl 0.99992 -0.00007 0.49999
 C286 C 0.91631 -0.08394 0.59478
 C287 C 0.91605 -0.08368 0.40521
 N288 N 1.10170 0.15213 0.31563
 C289 C 1.13604 0.13505 0.29786
 N290 N 1.15288 0.10074 0.31590
 N291 N 1.13625 0.08434 0.35004
 C292 C 1.10206 0.10159 0.36759
 N293 N 1.08505 0.13575 0.34977
 N294 N 0.89836 -0.15206 0.31554
 C295 C 0.86400 -0.13501 0.29775
 N296 N 0.84709 -0.10076 0.31581
 N297 N 0.86367 -0.08440 0.34999
 C298 C 0.89787 -0.10163 0.36755
 N299 N 0.91495 -0.13573 0.34972
 N300 N 0.89780 0.15229 0.68420
 C301 C 0.86356 0.13522 0.70189
 N302 N 0.84675 0.10099 0.68396
 N303 N 0.86342 0.08457 0.64983
 C304 C 0.89756 0.10176 0.63228
 N305 N 0.91449 0.13589 0.65007
 N306 N 1.15298 -0.10161 0.68407
 C307 C 1.13619 -0.13593 0.70199
 N308 N 1.10189 -0.15285 0.68415
 N309 N 1.08523 -0.13632 0.65004
 C310 C 1.10219 -0.10216 0.63235
 N311 N 1.13633 -0.08506 0.64996
 N312 N 0.31511 1.15186 1.10222
 C313 C 0.29734 1.13483 1.13656
 N314 N 0.31538 1.10052 1.15344
 N315 N 0.34953 1.08410 1.13682
 C316 C 0.36707 1.10131 1.10263
 N317 N 0.34925 1.13546 1.08559
 N318 N 0.31692 0.89881 0.84705
 C319 C 0.29923 0.86451 0.86399
 N320 N 0.31712 0.84740 0.89824
 N321 N 0.35119 0.86386 0.91481
 C322 C 0.36873 0.89807 0.89776
 N323 N 0.35099 0.91529 0.86361
 N324 N 0.68495 0.84825 1.10204
 C325 C 0.70270 0.86520 1.13644
 N326 N 0.68459 0.89940 1.15341
 N327 N 0.65040 0.91581 1.13684
 C328 C 0.63288 0.89869 1.10259
 N329 N 0.65077 0.86464 1.08545
 N330 N 0.68346 1.15341 0.89908
 C331 C 0.70141 1.13643 0.86477
 N332 N 0.68361 1.10213 0.84785
 N333 N 0.64954 1.08563 0.86438
 C334 C 0.63183 1.10277 0.89854
 N335 N 0.64939 1.13693 0.91564
 N336 N 0.10118 0.31571 0.15272
 C337 C 0.13534 0.29772 0.13565
 N338 N 0.15229 0.31541 0.10128
 N339 N 0.13584 0.34958 0.08472
 C340 C 0.10179 0.36742 0.10191
 N341 N 0.08471 0.34988 0.13618
 N342 N -0.15353 0.31695 -0.10053
 C343 C -0.13666 0.29888 -0.13477
 N344 N -0.10240 0.31640 -0.15197
 N345 N -0.08574 0.35050 -0.13569
 C346 C -0.10271 0.36843 -0.10156
 N347 N -0.13688 0.35106 -0.08423
 N348 N 0.10164 0.68341 -0.15324
 C349 C 0.13592 0.70106 -0.13621
 N350 N 0.15297 0.68311 -0.10197
 N351 N 0.13649 0.64900 -0.08550
 C352 C 0.10230 0.63150 -0.10265
 N353 N 0.08514 0.64930 -0.13679
 N354 N -0.15188 0.68490 0.10111
 C355 C -0.13490 0.70267 0.13542
 N356 N -0.10063 0.68483 0.15246
 N357 N -0.08408 0.65069 0.13597
 C358 C -0.10119 0.63306 0.10177
 N359 N -0.13535 0.65077 0.08460
 N360 N 1.15212 0.10172 0.68436
 C361 C 1.13504 0.13605 0.70213
 N362 N 1.10073 0.15289 0.68409
 N363 N 1.08433 0.13626 0.64994
 C364 C 1.10157 0.10208 0.63240
 N365 N 1.13574 0.08507 0.65022
 N366 N 0.89922 -0.15290 0.68418
 C367 C 0.86497 -0.13598 0.70224
 N368 N 0.84792 -0.10163 0.68445
 N369 N 0.86426 -0.08503 0.65027
 C370 C 0.89836 -0.10212 0.63244
 N371 N 0.91558 -0.13632 0.65000
 N372 N 1.15227 -0.10218 0.31579
 C373 C 1.13521 -0.13643 0.29810
 N374 N 1.10097 -0.15324 0.31602
 N375 N 1.08455 -0.13656 0.35016
 C376 C 1.10174 -0.10242 0.36771
 N377 N 1.13587 -0.08549 0.34992
 N378 N 0.89837 0.15299 0.31591
 C379 C 0.86406 0.13620 0.29800
 N380 N 0.84714 0.10191 0.31584
 N381 N 0.86367 0.08524 0.34995
 C382 C 0.89783 0.10221 0.36764
 N383 N 0.91492 0.13635 0.35002
 N384 N 0.10051 0.31539 -0.15345
 C385 C 0.13482 0.29735 -0.13657
 N386 N 0.15184 0.31512 -0.10223
 N387 N 0.13545 0.34926 -0.08560
 C388 C 0.10130 0.36708 -0.10264
 N389 N 0.08409 0.34954 -0.13683
 N390 N -0.10120 0.31693 0.15294
 C391 C -0.13551 0.29925 0.13600
 N392 N -0.15261 0.31713 0.10175
 N393 N -0.13616 0.35121 0.08518
 C394 C -0.10194 0.36875 0.10223
 N395 N -0.08473 0.35101 0.13638
 N396 N -0.15176 0.68497 -0.10205
 C397 C -0.13482 0.70271 -0.13645
 N398 N -0.10061 0.68460 -0.15342
 N399 N -0.08420 0.65041 -0.13685
 C400 C -0.10133 0.63290 -0.10260
 N401 N -0.13537 0.65079 -0.08546
 N402 N 0.10211 0.68362 0.15214
 C403 C 0.13642 0.70142 0.13522
 N404 N 0.15339 0.68348 0.10091
 N405 N 0.13692 0.64940 0.08435
 C406 C 0.10276 0.63184 0.10145
 N407 N 0.08562 0.64956 0.13561
 N408 N 0.31539 1.15231 0.89871
 C409 C 0.29771 1.13535 0.86434
 N410 N 0.31569 1.10119 0.84727
 N411 N 0.34987 1.08472 0.86381
 C412 C 0.36741 1.10180 0.89808
 N413 N 0.34956 1.13586 0.91527
 N414 N 0.31639 0.89761 1.15196
 C415 C 0.29887 0.86335 1.13476
 N416 N 0.31694 0.84649 1.10052
 N417 N 0.35104 0.86314 1.08422
 C418 C 0.36842 0.89730 1.10155
 N419 N 0.35049 0.91427 1.13568
 N420 N 0.68310 1.15298 1.10196
 C421 C 0.70105 1.13593 1.13620
 N422 N 0.68339 1.10165 1.15323
 N423 N 0.64929 1.08515 1.13678
 C424 C 0.63149 1.10232 1.10264
 N425 N 0.64899 1.13650 1.08549
 N426 N 0.68481 0.89939 0.84753
 C427 C 0.70266 0.86511 0.86457
 N428 N 0.68489 0.84813 0.89888
 N429 N 0.65075 0.86466 0.91539
 C430 C 0.63305 0.89882 0.89822
 N431 N 0.65068 0.91593 0.86402
   
