data_POSCAR
  _audit_creation_date              2014-09-24
  _audit_creation_method            'ToBaCCo'
  _symmetry_space_group_name_H-M    'P1'
  _symmetry_Int_Tables_number       1
  _symmetry_cell_setting            triclinic
  loop_
  _symmetry_equiv_pos_as_xyz
 x,y,z
_cell_length_a 49.8400
_cell_length_b 49.9838
_cell_length_c 49.9265
_cell_angle_alpha 90.139400
_cell_angle_beta 90.157900
_cell_angle_gamma 90.143300
loop_
  _atom_site_label
  _atom_site_type_symbol
  _atom_site_fract_x
  _atom_site_fract_y
  _atom_site_fract_z
C1 C 0.20944 0.51973 1.03345
 H2 H 0.20867 0.53492 1.01807
 C3 C 0.19148 0.52064 1.05482
 H4 H 0.17678 0.53649 1.05483
 C5 C 0.22848 0.47972 1.04993
 H6 H 0.24272 0.46362 1.04780
 C7 C 0.21085 0.47975 1.07163
 H8 H 0.21300 0.46399 1.08626
 N9 N 0.22750 0.49956 1.03142
 C10 C 0.29039 0.53040 0.97933
 H11 H 0.29035 0.51502 0.96404
 C12 C 0.30901 0.55125 0.97818
 H13 H 0.32300 0.55202 0.96166
 C14 C 0.27220 0.54781 1.01954
 H15 H 0.25825 0.54605 1.03596
 C16 C 0.29049 0.56904 1.01918
 H17 H 0.29038 0.58345 1.03541
 Zn18 Zn 0.24949 0.49889 1.00060
 N19 N 0.27243 0.52908 0.99973
 C20 C 0.22698 0.51831 0.95189
 N21 N 0.22626 0.49856 0.97057
 C22 C 0.20765 0.47866 0.96931
 C23 C 0.18888 0.47796 0.94853
 C24 C 0.20857 0.51838 0.93074
 C25 C 0.29055 0.46668 1.02040
 C26 C 0.30862 0.44541 1.02098
 C27 C 0.28799 0.42796 0.98070
 C28 C 0.27027 0.44957 0.98092
 N29 N 0.27179 0.46832 1.00067
 H30 H 0.24144 0.53434 0.95361
 H31 H 0.20730 0.46342 0.98466
 H32 H 0.17437 0.46181 0.94779
 H33 H 0.20911 0.53454 0.91635
 H34 H 0.29165 0.48216 1.03555
 H35 H 0.32371 0.44476 1.03661
 H36 H 0.28640 0.41315 0.96491
 H37 H 0.25561 0.45151 0.96508
 C38 C 0.30934 0.57086 0.99838
 C39 C 0.19165 0.50032 1.07448
 C40 C 0.30756 0.42573 1.00088
 C41 C 0.18908 0.49808 0.92895
 C42 C 0.79069 0.52069 -0.03254
 H43 H 0.79152 0.53614 -0.01734
 C44 C 0.80868 0.52121 -0.05390
 H45 H 0.82345 0.53709 -0.05491
 C46 C 0.77115 0.48055 -0.04886
 H47 H 0.75682 0.46449 -0.04658
 C48 C 0.78880 0.48026 -0.07054
 H49 H 0.78747 0.46419 -0.08506
 N50 N 0.77233 0.50065 -0.03047
 C51 C 0.70918 0.53252 0.02056
 H52 H 0.70889 0.51733 0.03597
 C53 C 0.69063 0.55335 0.02125
 H54 H 0.67637 0.55431 0.03754
 C55 C 0.72806 0.54942 -0.01950
 H56 H 0.74225 0.54745 -0.03569
 C57 C 0.70985 0.57063 -0.01960
 H58 H 0.71026 0.58482 -0.03595
 Zn59 Zn 0.75001 0.50058 0.00012
 N60 N 0.72743 0.53094 0.00045
 C61 C 0.77205 0.52053 0.04891
 N62 N 0.77280 0.50045 0.03048
 C63 C 0.79104 0.48036 0.03235
 C64 C 0.80935 0.47976 0.05354
 C65 C 0.79003 0.52073 0.07042
 C66 C 0.70864 0.46877 -0.01995
 C67 C 0.68999 0.44792 -0.02053
 C68 C 0.70975 0.43051 0.02007
 C69 C 0.72805 0.45173 0.01987
 N70 N 0.72721 0.47027 -0.00001
 H71 H 0.75781 0.53663 0.04679
 H72 H 0.79152 0.46493 0.01712
 H73 H 0.82400 0.46383 0.05439
 H74 H 0.78902 0.53679 0.08498
 H75 H 0.70820 0.48400 -0.03530
 H76 H 0.67549 0.44701 -0.03670
 H77 H 0.71036 0.41624 0.03634
 H78 H 0.74250 0.45365 0.03593
 C79 C 0.69066 0.57267 0.00086
 C80 C 0.80796 0.50074 -0.07322
 C81 C 0.69026 0.42852 -0.00023
 C82 C 0.80906 0.50020 0.07290
 C83 C -0.02028 0.29012 0.46672
 H84 H -0.03542 0.29088 0.48220
 C85 C -0.02135 0.30802 0.44535
 H86 H -0.03727 0.32266 0.44544
 C87 C 0.01975 0.27117 0.45000
 H88 H 0.03593 0.25699 0.45205
 C89 C 0.01956 0.28874 0.42829
 H90 H 0.03527 0.28661 0.41357
 N91 N -0.00002 0.27213 0.46864
 C92 C -0.03067 0.20951 0.52101
 H93 H -0.01523 0.20962 0.53629
 C94 C -0.05153 0.19089 0.52222
 H95 H -0.05225 0.17697 0.53878
 C96 C -0.04821 0.22749 0.48075
 H97 H -0.04649 0.24135 0.46429
 C98 C -0.06945 0.20920 0.48117
 H99 H -0.08390 0.20922 0.46494
 Zn100 Zn 0.00085 0.25026 0.49950
 N101 N -0.02941 0.22736 0.50055
 C102 C -0.01837 0.27287 0.54826
 N103 N 0.00132 0.27351 0.52946
 C104 C 0.02128 0.29208 0.53052
 C105 C 0.02209 0.31090 0.55119
 C106 C -0.01833 0.29134 0.56931
 C107 C 0.03313 0.20933 0.47964
 C108 C 0.05448 0.19133 0.47903
 C109 C 0.07210 0.21198 0.51921
 C110 C 0.05041 0.22963 0.51903
 N111 N 0.03154 0.22807 0.49934
 H112 H -0.03445 0.25843 0.54670
 H113 H 0.03648 0.29236 0.51509
 H114 H 0.03828 0.32537 0.55176
 H115 H -0.03446 0.29087 0.58379
 H116 H 0.01756 0.20820 0.46454
 H117 H 0.05509 0.17626 0.46343
 H118 H 0.08700 0.21360 0.53496
 H119 H 0.04851 0.24427 0.53485
 C120 C -0.07120 0.19045 0.50202
 C121 C -0.00112 0.30787 0.42556
 C122 C 0.07429 0.19243 0.49907
 C123 C 0.00202 0.31080 0.57088
 C124 C 0.97917 0.70997 0.53297
 H125 H 0.96401 0.70892 0.51745
 C126 C 0.97835 0.69212 0.55441
 H127 H 0.96253 0.67726 0.55514
 C128 C 1.01894 0.72984 0.55001
 H129 H 1.03499 0.74423 0.54797
 C130 C 1.01892 0.71234 0.57179
 H131 H 1.03474 0.71385 0.58662
 N132 N 0.99918 0.72840 0.53121
 C133 C 0.96769 0.79033 0.47857
 H134 H 0.98311 0.79043 0.46336
 C135 C 0.94673 0.80874 0.47733
 H136 H 0.94591 0.82268 0.46079
 C137 C 0.95038 0.77215 0.51878
 H138 H 0.95225 0.75832 0.53526
 C139 C 0.92905 0.79022 0.51833
 H140 H 0.91467 0.79006 0.53454
 Zn141 Zn 0.99975 0.75027 0.50034
 N142 N 0.96914 0.77252 0.49905
 C143 C 0.98101 0.72720 0.45150
 N144 N 1.00075 0.72707 0.47037
 C145 C 1.02110 0.70905 0.46938
 C146 C 1.02228 0.69026 0.44871
 C147 C 0.98141 0.70873 0.43044
 C148 C 1.03104 0.79195 0.52055
 C149 C 1.05184 0.81066 0.52131
 C150 C 1.07013 0.79063 0.48125
 C151 C 1.04894 0.77227 0.48126
 N152 N 1.02999 0.77321 0.50080
 H153 H 0.96462 0.74121 0.45301
 H154 H 1.03633 0.70917 0.48487
 H155 H 1.03878 0.67621 0.44820
 H156 H 0.96525 0.70878 0.41591
 H157 H 1.01549 0.79246 0.53562
 H158 H 1.05239 0.82529 0.53733
 H159 H 1.08472 0.78993 0.46524
 H160 H 1.04738 0.75769 0.46533
 C161 C 0.92716 0.80900 0.49752
 C162 C 0.99850 0.69307 0.57413
 C163 C 1.07166 0.81028 0.50138
 C164 C 1.00217 0.68982 0.42895
 C165 C 0.46788 -0.02090 0.29027
 H166 H 0.48323 -0.03613 0.29115
 C167 C 0.44663 -0.02140 0.30842
 H168 H 0.44587 -0.03706 0.32335
 C169 C 0.45106 0.01873 0.27047
 H170 H 0.45310 0.03460 0.25598
 C171 C 0.42948 0.01902 0.28827
 H172 H 0.41481 0.03489 0.28688
 N173 N 0.46964 -0.00112 0.27171
 C174 C 0.52046 -0.03339 0.20862
 H175 H 0.53560 -0.01786 0.20782
 C176 C 0.52133 -0.05469 0.19054
 H177 H 0.53707 -0.05446 0.17570
 C178 C 0.48068 -0.05038 0.22795
 H179 H 0.46469 -0.04847 0.24239
 C180 C 0.48066 -0.07202 0.21019
 H181 H 0.46499 -0.08683 0.21239
 Zn182 Zn 0.50012 -0.00102 0.24921
 N183 N 0.50045 -0.03167 0.22692
 C184 C 0.54918 -0.02031 0.27106
 N185 N 0.53067 -0.00037 0.27180
 C186 C 0.53251 0.01985 0.28997
 C187 C 0.55374 0.02070 0.30825
 C188 C 0.57073 -0.02027 0.28900
 C189 C 0.47963 0.03021 0.20787
 C190 C 0.47874 0.05100 0.18930
 C191 C 0.51936 0.06904 0.20882
 C192 C 0.51947 0.04787 0.22704
 N193 N 0.49971 0.02906 0.22630
 H194 H 0.54708 -0.03653 0.25687
 H195 H 0.51722 0.03516 0.29045
 H196 H 0.55454 0.03670 0.32289
 H197 H 0.58532 -0.03624 0.28803
 H198 H 0.46437 0.01478 0.20751
 H199 H 0.46244 0.05165 0.17494
 H200 H 0.53553 0.08355 0.20936
 H201 H 0.53564 0.04624 0.24139
 C202 C 0.50114 -0.07460 0.19082
 C203 C 0.42712 -0.00118 0.30764
 C204 C 0.49887 0.07070 0.18951
 C205 C 0.57314 0.00036 0.30802
 C206 C 0.53315 -0.02036 0.71002
 H207 H 0.51783 -0.03573 0.70933
 C208 C 0.55448 -0.02110 0.69197
 H209 H 0.55535 -0.03708 0.67733
 C210 C 0.54974 0.01985 0.72916
 H211 H 0.54756 0.03605 0.74333
 C212 C 0.57139 0.01991 0.71146
 H213 H 0.58600 0.03595 0.71261
 N214 N 0.53121 -0.00015 0.72818
 C215 C 0.47954 -0.03092 0.79137
 H216 H 0.46429 -0.01555 0.79150
 C217 C 0.47847 -0.05171 0.80993
 H218 H 0.46204 -0.05242 0.82405
 C219 C 0.51955 -0.04841 0.77278
 H220 H 0.53584 -0.04671 0.75867
 C221 C 0.51926 -0.06958 0.79101
 H222 H 0.53542 -0.08400 0.79071
 Zn223 Zn 0.50047 0.00039 0.75032
 N224 N 0.49979 -0.02968 0.77323
 C225 C 0.45147 -0.01939 0.72838
 N226 N 0.47020 0.00043 0.72738
 C227 C 0.46870 0.02021 0.70880
 C228 C 0.44756 0.02077 0.69042
 C229 C 0.43000 -0.01961 0.71034
 C230 C 0.52048 0.03289 0.79124
 C231 C 0.52114 0.05425 0.80928
 C232 C 0.48072 0.07142 0.78885
 C233 C 0.48085 0.04972 0.77116
 N234 N 0.50064 0.03107 0.77259
 H235 H 0.45330 -0.03526 0.74290
 H236 H 0.48416 0.03542 0.70812
 H237 H 0.44700 0.03646 0.67551
 H238 H 0.41518 -0.03544 0.71156
 H239 H 0.53566 0.01749 0.79227
 H240 H 0.53685 0.05505 0.82428
 H241 H 0.46490 0.08614 0.78732
 H242 H 0.46493 0.04764 0.75659
 C243 C 0.49860 -0.07132 0.81003
 C244 C 0.57389 -0.00069 0.69244
 C245 C 0.50101 0.07384 0.80830
 C246 C 0.42788 0.00063 0.69098
 C247 C 0.29148 0.02053 0.46681
 H248 H 0.29232 0.03591 0.48208
 C249 C 0.30960 0.02101 0.44555
 H250 H 0.32442 0.03685 0.44433
 C251 C 0.27165 -0.01938 0.45011
 H252 H 0.25722 -0.03538 0.45225
 C253 C 0.28944 -0.01966 0.42851
 H254 H 0.28848 -0.03574 0.41395
 N255 N 0.27290 0.00062 0.46863
 C256 C 0.20982 0.03317 0.51944
 H257 H 0.20910 0.01793 0.53477
 C258 C 0.19182 0.05451 0.52017
 H259 H 0.17723 0.05582 0.53616
 C260 C 0.22919 0.04973 0.47939
 H261 H 0.24339 0.04751 0.46326
 C262 C 0.21153 0.07141 0.47937
 H263 H 0.21235 0.08595 0.46333
 Zn264 Zn 0.25045 0.00068 0.49913
 N265 N 0.22811 0.03124 0.49935
 C266 C 0.27243 0.02046 0.54808
 N267 N 0.27319 0.00046 0.52954
 C268 C 0.29143 -0.01968 0.53131
 C269 C 0.30969 -0.02041 0.55255
 C270 C 0.29036 0.02049 0.56965
 C271 C 0.20905 -0.03134 0.47903
 C272 C 0.19059 -0.05239 0.47850
 C273 C 0.21039 -0.06942 0.51927
 C274 C 0.22851 -0.04804 0.51904
 N275 N 0.22759 -0.02960 0.49903
 H276 H 0.25826 0.03663 0.54598
 H277 H 0.29189 -0.03506 0.51603
 H278 H 0.32423 -0.03644 0.55373
 H279 H 0.28978 0.03656 0.58424
 H280 H 0.20847 -0.01614 0.46365
 H281 H 0.17577 -0.05350 0.46262
 H282 H 0.21106 -0.08388 0.53539
 H283 H 0.24292 -0.04596 0.53511
 C284 C 0.19266 0.07376 0.49992
 C285 C 0.30860 0.00069 0.42627
 C286 C 0.19123 -0.07155 0.49885
 C287 C 0.30917 -0.00011 0.57185
 C288 C 0.70935 0.02008 0.53302
 H289 H 0.70871 0.03555 0.51791
 C290 C 0.69130 0.02065 0.55434
 H291 H 0.67675 0.03665 0.55577
 C292 C 0.72857 -0.02013 0.54926
 H293 H 0.74275 -0.03627 0.54692
 C294 C 0.71086 -0.02032 0.57091
 H295 H 0.71160 -0.03648 0.58532
 N296 N 0.72760 -0.00001 0.53094
 C297 C 0.79117 0.03213 0.48044
 H298 H 0.79160 0.01700 0.46492
 C299 C 0.80961 0.05319 0.48002
 H300 H 0.82426 0.05438 0.46407
 C301 C 0.77212 0.04866 0.52070
 H302 H 0.75787 0.04651 0.53681
 C303 C 0.79023 0.07004 0.52103
 H304 H 0.78973 0.08444 0.53728
 Zn305 Zn 0.75002 -0.00002 0.50042
 N306 N 0.77284 0.03031 0.50051
 C307 C 0.72834 0.02018 0.45163
 N308 N 0.72728 0.00013 0.47002
 C309 C 0.70876 -0.01984 0.46806
 C310 C 0.69054 -0.02036 0.44678
 C311 C 0.71045 0.02042 0.43002
 C312 C 0.79096 -0.03250 0.52017
 C313 C 0.80915 -0.05370 0.52048
 C314 C 0.78912 -0.07036 0.47955
 C315 C 0.77128 -0.04884 0.48000
 N316 N 0.77245 -0.03052 0.50020
 H317 H 0.74273 0.03621 0.45387
 H318 H 0.70807 -0.03526 0.48322
 H319 H 0.67580 -0.03628 0.44544
 H320 H 0.71129 0.03651 0.41555
 H321 H 0.79175 -0.01739 0.53571
 H322 H 0.82397 -0.05500 0.53634
 H323 H 0.78827 -0.08472 0.46328
 H324 H 0.75689 -0.04657 0.46397
 C325 C 0.80918 0.07227 0.50054
 C326 C 0.69204 0.00023 0.57342
 C327 C 0.80827 -0.07274 0.49993
 C328 C 0.69138 -0.00002 0.42763
 C329 C 0.47939 0.20860 1.03214
 H330 H 0.46411 0.20809 1.01671
 C331 C 0.47867 0.19012 1.05304
 H332 H 0.46274 0.17536 1.05381
 C333 C 0.51933 0.22792 1.04958
 H334 H 0.53543 0.24229 1.04786
 C335 C 0.51936 0.20976 1.07084
 H336 H 0.53537 0.21036 1.08555
 N337 N 0.49944 0.22708 1.03085
 C338 C 0.46748 0.29081 0.98064
 H339 H 0.48290 0.29169 0.96546
 C340 C 0.44611 0.30881 0.97993
 H341 H 0.44498 0.32356 0.96412
 C342 C 0.45045 0.27100 1.02026
 H343 H 0.45248 0.25661 1.03623
 C344 C 0.42874 0.28865 1.02031
 H345 H 0.41400 0.28765 1.03618
 Zn346 Zn 0.49974 0.24991 1.00068
 N347 N 0.46918 0.27230 1.00051
 C348 C 0.48017 0.22872 0.95130
 N349 N 0.50010 0.22765 0.96998
 C350 C 0.52023 0.20940 0.96814
 C351 C 0.52101 0.19143 0.94670
 C352 C 0.48019 0.21108 0.92954
 C353 C 0.53191 0.29075 1.02159
 C354 C 0.55304 0.30913 1.02244
 C355 C 0.57022 0.28993 0.98147
 C356 C 0.54876 0.27189 0.98138
 N357 N 0.53020 0.27256 1.00133
 H358 H 0.46399 0.24288 0.95345
 H359 H 0.53554 0.20869 0.98352
 H360 H 0.53703 0.17687 0.94548
 H361 H 0.46417 0.21189 0.91486
 H362 H 0.51660 0.29116 1.03691
 H363 H 0.55411 0.32370 1.03850
 H364 H 0.58476 0.28948 0.96538
 H365 H 0.54671 0.25776 0.96510
 C366 C 0.42660 0.30774 0.99997
 C367 C 0.49888 0.19066 1.07251
 C368 C 0.57231 0.30876 1.00214
 C369 C 0.50078 0.19225 0.92727
 C370 C 0.47895 0.79075 -0.03254
 H371 H 0.46365 0.79109 -0.01721
 C372 C 0.47811 0.80918 -0.05348
 H373 H 0.46206 0.82374 -0.05438
 C374 C 0.51907 0.77193 -0.04967
 H375 H 0.53529 0.75777 -0.04781
 C376 C 0.51898 0.79004 -0.07096
 H377 H 0.53502 0.78963 -0.08556
 N378 N 0.49915 0.77254 -0.03107
 C379 C 0.46786 0.70847 0.01915
 H380 H 0.48329 0.70790 0.03442
 C381 C 0.44680 0.69002 0.01971
 H382 H 0.44591 0.67522 0.03550
 C383 C 0.45058 0.72790 -0.02060
 H384 H 0.45243 0.74231 -0.03658
 C385 C 0.42917 0.70978 -0.02080
 H386 H 0.41447 0.71044 -0.03681
 Zn387 Zn 0.49967 0.74979 -0.00084
 N388 N 0.46931 0.72698 -0.00073
 C389 C 0.48013 0.77081 0.04849
 N390 N 0.49996 0.77210 0.02982
 C391 C 0.51997 0.79059 0.03165
 C392 C 0.52076 0.80856 0.05308
 C393 C 0.48017 0.78845 0.07026
 C394 C 0.53208 0.70929 -0.02155
 C395 C 0.55330 0.69113 -0.02227
 C396 C 0.57045 0.71059 0.01872
 C397 C 0.54889 0.72842 0.01868
 N398 N 0.53030 0.72750 -0.00133
 H399 H 0.46405 0.75645 0.04635
 H400 H 0.53520 0.79146 0.01628
 H401 H 0.53670 0.82330 0.05431
 H402 H 0.46425 0.78746 0.08495
 H403 H 0.51675 0.70869 -0.03693
 H404 H 0.55442 0.67653 -0.03830
 H405 H 0.58500 0.71122 0.03487
 H406 H 0.54678 0.74255 0.03493
 C407 C 0.42733 0.69064 -0.00050
 C408 C 0.49835 0.80887 -0.07280
 C409 C 0.57259 0.69173 -0.00189
 C410 C 0.50066 0.80751 0.07252
 C411 C 1.03304 0.47929 0.20954
 H412 H 1.01764 0.46402 0.20861
 C413 C 1.05436 0.47876 0.19148
 H414 H 1.05549 0.46298 0.17661
 C415 C 1.05001 0.51900 0.22954
 H416 H 1.04795 0.53494 0.24401
 C417 C 1.07167 0.51922 0.21182
 H418 H 1.08636 0.53520 0.21286
 N419 N 1.03132 0.49912 0.22817
 C420 C 0.98009 0.46674 0.29097
 H421 H 0.96488 0.48213 0.29175
 C422 C 0.97913 0.44533 0.30885
 H423 H 0.96310 0.44413 0.32340
 C424 C 1.02004 0.44986 0.27158
 H425 H 1.03623 0.45198 0.25741
 C426 C 1.01984 0.42811 0.28912
 H427 H 1.03576 0.41342 0.28825
 Zn428 Zn 1.00075 0.49921 0.25057
 N429 N 1.00024 0.46855 0.27273
 C430 C 0.95162 0.47986 0.22849
 N431 N 0.97029 0.49979 0.22786
 C432 C 0.96863 0.52003 0.20975
 C433 C 0.94740 0.52092 0.19147
 C434 C 0.93006 0.48000 0.21054
 C435 C 1.02120 0.53074 0.29207
 C436 C 1.02207 0.55173 0.31054
 C437 C 0.98150 0.56945 0.29086
 C438 C 0.98138 0.54811 0.27271
 N439 N 1.00115 0.52937 0.27355
 H440 H 0.95363 0.46360 0.24254
 H441 H 0.98401 0.53534 0.20939
 H442 H 0.94632 0.53702 0.17703
 H443 H 0.91539 0.46398 0.21100
 H444 H 1.03639 0.51532 0.29258
 H445 H 1.03802 0.55257 0.32531
 H446 H 0.96560 0.58418 0.29022
 H447 H 0.96527 0.54634 0.25830
 C448 C 0.99923 0.42588 0.30794
 C449 C 1.07380 0.49895 0.19259
 C450 C 1.00201 0.57122 0.30996
 C451 C 0.92799 0.50069 0.19184
 C452 C -0.03361 0.48015 0.78992
 H453 H -0.01833 0.46482 0.79042
 C454 C -0.05490 0.47929 0.80801
 H455 H -0.05613 0.46320 0.82246
 C456 C -0.05027 0.52037 0.77106
 H457 H -0.04808 0.53664 0.75705
 C458 C -0.07188 0.52027 0.78883
 H459 H -0.08642 0.53634 0.78828
 N460 N -0.03174 0.50041 0.77185
 C461 C 0.01968 0.46959 0.70840
 H462 H 0.03494 0.48502 0.70817
 C463 C 0.02066 0.44863 0.68990
 H464 H 0.03677 0.44783 0.67540
 C465 C -0.02043 0.45216 0.72708
 H466 H -0.03668 0.45390 0.74122
 C467 C -0.02020 0.43085 0.70889
 H468 H -0.03617 0.41611 0.70924
 Zn469 Zn -0.00108 0.50104 0.74960
 N470 N -0.00056 0.47091 0.72658
 C471 C 0.04783 0.48122 0.77147
 N472 N 0.02925 0.50112 0.77249
 C473 C 0.03081 0.52091 0.79119
 C474 C 0.05181 0.52133 0.80975
 C475 C 0.06917 0.48090 0.78967
 C476 C -0.02122 0.53355 0.70895
 C477 C -0.02190 0.55498 0.69109
 C478 C 0.01871 0.57218 0.71142
 C479 C 0.01864 0.55042 0.72895
 N480 N -0.00124 0.53173 0.72749
 H481 H 0.04589 0.46531 0.75692
 H482 H 0.01549 0.53620 0.79185
 H483 H 0.05278 0.53704 0.82471
 H484 H 0.08374 0.46487 0.78893
 H485 H -0.03649 0.51816 0.70794
 H486 H -0.03779 0.55619 0.67629
 H487 H 0.03469 0.58688 0.71254
 H488 H 0.03469 0.54829 0.74335
 C489 C 0.00050 0.42913 0.69012
 C490 C -0.07415 0.49959 0.80752
 C491 C -0.00172 0.57442 0.69230
 C492 C 0.07111 0.50109 0.80903
 C493 C 0.13732 0.13386 0.49969
 C494 C 0.12917 0.14543 0.47552
 C495 C 0.10894 0.16477 0.47532
 C496 C 0.09658 0.17277 0.49935
 C497 C 0.10519 0.16127 0.52359
 C498 C 0.12541 0.14192 0.52372
 C499 C 0.15726 0.11309 0.49975
 C500 C 0.17360 0.09534 0.49981
 H501 H 0.13827 0.13934 0.45679
 H502 H 0.10299 0.17349 0.45639
 H503 H 0.09584 0.16671 0.54236
 H504 H 0.13147 0.13299 0.54253
 C505 C 0.63127 0.63492 -0.00048
 C506 C 0.65783 0.64069 -0.00753
 C507 C 0.67722 0.62050 -0.00705
 C508 C 0.67027 0.59428 0.00055
 C509 C 0.64351 0.58875 0.00761
 C510 C 0.62419 0.60893 0.00709
 C511 C 0.61113 0.65549 -0.00112
 C512 C 0.59380 0.67226 -0.00154
 H513 H 0.66353 0.66076 -0.01339
 H514 H 0.69770 0.62544 -0.01233
 H515 H 0.63741 0.56870 0.01312
 H516 H 0.60367 0.60422 0.01248
 C517 C 0.86489 -0.13159 0.49798
 C518 C 0.89097 -0.12471 0.49028
 C519 C 0.91113 -0.14406 0.48997
 C520 C 0.90550 -0.17063 0.49736
 C521 C 0.87917 -0.17740 0.50499
 C522 C 0.85900 -0.15798 0.50527
 C523 C 0.84439 -0.11138 0.49868
 C524 C 0.82767 -0.09399 0.49926
 H525 H 0.89577 -0.10431 0.48472
 H526 H 0.93126 -0.13810 0.48442
 H527 H 0.87415 -0.19773 0.51052
 H528 H 0.83886 -0.16352 0.51124
 C529 C 0.36634 0.36291 1.00022
 C530 C 0.35830 0.37487 0.97619
 C531 C 0.33889 0.39501 0.97634
 C532 C 0.32729 0.40351 1.00058
 C533 C 0.33527 0.39111 1.02458
 C534 C 0.35468 0.37096 1.02438
 C535 C 0.38718 0.34304 1.00015
 C536 C 0.40497 0.32675 1.00008
 H537 H 0.36730 0.36889 0.95739
 H538 H 0.33346 0.40440 0.95758
 H539 H 0.32649 0.39698 1.04351
 H540 H 0.36075 0.36182 1.04309
 C541 C 0.86630 0.13096 0.50198
 C542 C 0.89242 0.12413 0.50963
 C543 C 0.91267 0.14350 0.50979
 C544 C 0.90709 0.17003 0.50227
 C545 C 0.88073 0.17673 0.49468
 C546 C 0.86047 0.15730 0.49455
 C547 C 0.84568 0.11075 0.50147
 C548 C 0.82881 0.09342 0.50105
 H549 H 0.89717 0.10377 0.51530
 H550 H 0.93282 0.13759 0.51532
 H551 H 0.87574 0.19703 0.48907
 H552 H 0.84030 0.16281 0.48862
 C553 C 0.36871 0.63345 -0.00165
 C554 C 0.37569 0.60742 -0.00920
 C555 C 0.35636 0.58712 -0.00932
 C556 C 0.32972 0.59259 -0.00185
 C557 C 0.32287 0.61885 0.00568
 C558 C 0.34226 0.63915 0.00576
 C559 C 0.38887 0.65411 -0.00123
 C560 C 0.40618 0.67100 -0.00090
 H561 H 0.39613 0.60276 -0.01485
 H562 H 0.36238 0.56705 -0.01479
 H563 H 0.30249 0.62375 0.01125
 H564 H 0.33664 0.65925 0.01161
 C565 C 0.13408 -0.13017 0.50032
 C566 C 0.14003 -0.15678 0.49392
 C567 C 0.11978 -0.17622 0.49432
 C568 C 0.09332 -0.16926 0.50117
 C569 C 0.08760 -0.14244 0.50759
 C570 C 0.10784 -0.12307 0.50716
 C571 C 0.15472 -0.11000 0.49973
 C572 C 0.17159 -0.09268 0.49929
 H573 H 0.16029 -0.16249 0.48863
 H574 H 0.12487 -0.19673 0.48955
 H575 H 0.06737 -0.13635 0.51252
 H576 H 0.10299 -0.10251 0.51204
 C577 C 0.63085 0.36600 1.00110
 C578 C 0.62368 0.39202 0.99380
 C579 C 0.64300 0.41230 0.99331
 C580 C 0.66984 0.40683 1.00014
 C581 C 0.67688 0.38059 1.00749
 C582 C 0.65749 0.36031 1.00794
 C583 C 0.61074 0.34531 1.00163
 C584 C 0.59345 0.32841 1.00194
 H585 H 0.60310 0.39667 0.98857
 H586 H 0.63684 0.43236 0.98799
 H587 H 0.69742 0.37570 1.01258
 H588 H 0.66326 0.34021 1.01358
 C589 C 0.49897 0.13334 1.13061
 C590 C 0.49188 0.10722 1.12333
 C591 C 0.49181 0.08689 1.14249
 C592 C 0.49884 0.09242 1.16925
 C593 C 0.50598 0.11876 1.17639
 C594 C 0.50601 0.13909 1.15717
 C595 C 0.49908 0.15408 1.11067
 C596 C 0.49905 0.17100 1.09351
 H597 H 0.48650 0.10252 1.10281
 H598 H 0.48664 0.06676 1.13625
 H599 H 0.51121 0.12370 1.19688
 H600 H 0.51150 0.15927 1.16302
 C601 C -0.00132 0.63464 0.63719
 C602 C 0.02280 0.64243 0.62522
 C603 C 0.02281 0.66174 0.60500
 C604 C -0.00137 0.67348 0.59645
 C605 C -0.02548 0.66575 0.60887
 C606 C -0.02544 0.64645 0.62910
 C607 C -0.00143 0.61385 0.65708
 C608 C -0.00155 0.59607 0.67335
 H609 H 0.04157 0.63330 0.63123
 H610 H 0.04165 0.66696 0.59559
 H611 H -0.04437 0.67466 0.60297
 H612 H -0.04423 0.64056 0.63824
 C613 C 0.49832 0.86611 -0.13100
 C614 C 0.50557 0.86037 -0.15746
 C615 C 0.50562 0.88067 -0.17671
 C616 C 0.49839 0.90697 -0.16970
 C617 C 0.49112 0.91248 -0.14304
 C618 C 0.49110 0.89219 -0.12385
 C619 C 0.49842 0.84542 -0.11101
 C620 C 0.49842 0.82851 -0.09382
 H621 H 0.51116 0.84023 -0.16320
 H622 H 0.51104 0.87574 -0.19712
 H623 H 0.48587 0.93259 -0.13690
 H624 H 0.48556 0.89687 -0.10340
 C625 C 0.99879 0.36569 0.36308
 C626 C 0.97478 0.35836 0.37542
 C627 C 0.97469 0.33910 0.39567
 C628 C 0.99875 0.32667 0.40416
 C629 C 1.02277 0.33409 0.39097
 C630 C 1.02272 0.35339 0.37076
 C631 C 0.99898 0.38647 0.34317
 C632 C 0.99911 0.40424 0.32689
 H633 H 0.95607 0.36762 0.36946
 H634 H 0.95544 0.33361 0.40396
 H635 H 1.04203 0.32618 0.39695
 H636 H 1.04150 0.35911 0.36146
 C637 C 0.50098 0.86281 0.13283
 C638 C 0.47712 0.87032 0.14532
 C639 C 0.47715 0.89057 0.16468
 C640 C 0.50118 0.90398 0.17194
 C641 C 0.52517 0.89566 0.15931
 C642 C 0.52500 0.87537 0.14001
 C643 C 0.50075 0.84285 0.11202
 C644 C 0.50065 0.82652 0.09421
 H645 H 0.45833 0.86085 0.13973
 H646 H 0.45794 0.89641 0.17276
 H647 H 0.54444 0.90411 0.16469
 H648 H 0.54367 0.86954 0.13060
 C649 C 0.00133 0.37047 0.63308
 C650 C 0.00842 0.37744 0.60692
 C651 C 0.00871 0.35803 0.58674
 C652 C 0.00192 0.33131 0.59246
 C653 C -0.00517 0.32447 0.61885
 C654 C -0.00544 0.34395 0.63903
 C655 C 0.00092 0.39066 0.65367
 C656 C 0.00067 0.40799 0.67051
 H657 H 0.01359 0.39793 0.60207
 H658 H 0.01385 0.36404 0.56657
 H659 H -0.01022 0.30403 0.62394
 H660 H -0.01091 0.33833 0.65923
 C661 C 0.50061 0.13693 0.86699
 C662 C 0.52477 0.12892 0.85526
 C663 C 0.52488 0.10868 0.83588
 C664 C 0.50079 0.09615 0.82800
 C665 C 0.47657 0.10461 0.83966
 C666 C 0.47651 0.12484 0.85904
 C667 C 0.50065 0.15687 0.88782
 C668 C 0.50070 0.17321 0.90562
 H669 H 0.54355 0.13815 0.86126
 H670 H 0.54381 0.10285 0.82704
 H671 H 0.45774 0.09513 0.83430
 H672 H 0.45771 0.13079 0.86810
 C673 C 1.00239 0.63003 0.36686
 C674 C 0.99509 0.65637 0.36086
 C675 C 0.99509 0.67589 0.38099
 C676 C 1.00244 0.66928 0.40740
 C677 C 1.00979 0.64274 0.41317
 C678 C 1.00975 0.62328 0.39304
 C679 C 1.00217 0.60977 0.34633
 C680 C 1.00205 0.59240 0.32953
 H681 H 0.98939 0.66181 0.34064
 H682 H 0.98961 0.69619 0.37586
 H683 H 1.01513 0.63691 0.43336
 H684 H 1.01533 0.60293 0.39793
 C685 C 1.13378 0.49994 0.13705
 C686 C 1.14609 0.47614 0.12918
 C687 C 1.16540 0.47625 0.10892
 C688 C 1.17279 0.50029 0.09588
 C689 C 1.16032 0.52422 0.10455
 C690 C 1.14107 0.52397 0.12484
 C691 C 1.11305 0.49960 0.15706
 C692 C 1.09534 0.49930 0.17346
 H693 H 1.14040 0.45735 0.13836
 H694 H 1.17332 0.45709 0.10280
 H695 H 1.16580 0.54347 0.09637
 H696 H 1.13179 0.54258 0.13096
 C697 C 0.63667 -0.00016 0.63354
 C698 C 0.62906 -0.02420 0.64571
 C699 C 0.60890 -0.02436 0.66513
 C700 C 0.59607 -0.00045 0.67262
 C701 C 0.60411 0.02365 0.66049
 C702 C 0.62425 0.02376 0.64107
 C703 C 0.65661 -0.00012 0.61275
 C704 C 0.67296 -0.00000 0.59499
 H705 H 0.63856 -0.04284 0.64003
 H706 H 0.60338 -0.04318 0.67433
 H707 H 0.59437 0.04233 0.66552
 H708 H 0.62989 0.04246 0.63167
 C709 C -0.13375 0.49988 0.86345
 C710 C -0.14575 0.52397 0.87116
 C711 C -0.16495 0.52424 0.89152
 C712 C -0.17240 0.50037 0.90446
 C713 C -0.16044 0.47621 0.89633
 C714 C -0.14122 0.47600 0.87598
 C715 C -0.11316 0.49976 0.84330
 C716 C -0.09556 0.49967 0.82678
 H717 H -0.14010 0.54257 0.86158
 H718 H -0.17403 0.54310 0.89710
 H719 H -0.16544 0.45757 0.90614
 H720 H -0.13195 0.45726 0.87027
 C721 C 0.36421 -0.00015 0.36639
 C722 C 0.37200 -0.02434 0.35462
 C723 C 0.39222 -0.02467 0.33527
 C724 C 0.40494 -0.00077 0.32744
 C725 C 0.39673 0.02348 0.33919
 C726 C 0.37652 0.02376 0.35854
 C727 C 0.34419 0.00008 0.38710
 C728 C 0.32777 0.00034 0.40478
 H729 H 0.36259 -0.04296 0.36054
 H730 H 0.39786 -0.04361 0.32636
 H731 H 0.40637 0.04216 0.33389
 H732 H 0.37074 0.04258 0.36764
 C733 C 0.12960 0.49926 0.86640
 C734 C 0.15625 0.50598 0.86065
 C735 C 0.17566 0.50552 0.88094
 C736 C 0.16864 0.49829 0.90724
 C737 C 0.14180 0.49152 0.91276
 C738 C 0.12244 0.49201 0.89247
 C739 C 0.10945 0.49997 0.84571
 C740 C 0.09218 0.50052 0.82877
 H741 H 0.16201 0.51159 0.84052
 H742 H 0.19620 0.51056 0.87601
 H743 H 0.13566 0.48628 0.93286
 H744 H 0.10185 0.48688 0.89716
 C745 C 0.63581 0.00022 0.36739
 C746 C 0.62338 -0.02377 0.35982
 C747 C 0.60324 -0.02378 0.34027
 C748 C 0.59524 0.00026 0.32804
 C749 C 0.60806 0.02425 0.33560
 C750 C 0.62821 0.02420 0.35515
 C751 C 0.65579 0.00027 0.38825
 C752 C 0.67220 0.00020 0.40603
 H753 H 0.62901 -0.04244 0.36926
 H754 H 0.59351 -0.04251 0.33519
 H755 H 0.60257 0.04303 0.32634
 H756 H 0.63772 0.04289 0.36086
 C757 C 0.86811 0.50072 0.13586
 C758 C 0.85583 0.47668 0.12816
 C759 C 0.83640 0.47652 0.10790
 C760 C 0.82900 0.50045 0.09507
 C761 C 0.84126 0.52454 0.10318
 C762 C 0.86070 0.52465 0.12342
 C763 C 0.88885 0.50073 0.15597
 C764 C 0.90653 0.50073 0.17250
 H765 H 0.86141 0.45804 0.13767
 H766 H 0.82709 0.45771 0.10235
 H767 H 0.83629 0.54323 0.09345
 H768 H 0.87018 0.54335 0.12913
 C769 C 0.36500 0.00008 0.63184
 C770 C 0.37708 -0.02391 0.63967
 C771 C 0.39729 -0.02379 0.65914
 C772 C 0.40573 0.00038 0.67102
 C773 C 0.39325 0.02436 0.66321
 C774 C 0.37302 0.02419 0.64375
 C775 C 0.34494 0.00003 0.61106
 C776 C 0.32845 -0.00003 0.59335
 H777 H 0.37112 -0.04267 0.63048
 H778 H 0.40675 -0.04253 0.66444
 H779 H 0.39906 0.04324 0.67222
 H780 H 0.36379 0.04288 0.63785
   
