data_POSCAR
  _audit_creation_date              2014-09-24
  _audit_creation_method            'ToBaCCo'
  _symmetry_space_group_name_H-M    'P1'
  _symmetry_Int_Tables_number       1
  _symmetry_cell_setting            triclinic
  loop_
  _symmetry_equiv_pos_as_xyz
 x,y,z
_cell_length_a 21.1333
_cell_length_b 21.2399
_cell_length_c 21.1905
_cell_angle_alpha 90.444100
_cell_angle_beta 89.817900
_cell_angle_gamma 89.917000
loop_
  _atom_site_label
  _atom_site_type_symbol
  _atom_site_fract_x
  _atom_site_fract_y
  _atom_site_fract_z
C1 C 0.12403 0.00048 0.25174
 C2 C 0.36929 -0.00192 0.75119
 C3 C 0.87598 0.50249 0.24885
 C4 C 0.63172 0.50169 0.74888
 C5 C 0.24917 0.12099 0.99665
 C6 C 0.75390 0.37341 0.99996
 C7 C 0.24720 0.87475 0.50080
 C8 C 0.75104 0.63001 0.50222
 C9 C 0.00107 0.24893 0.12510
 C10 C 0.00325 0.74925 0.37846
 C11 C 0.49776 0.24790 0.87491
 C12 C 0.49813 0.75147 0.62504
 C13 C 0.87214 1.00072 0.75194
 C14 C 0.37413 0.50016 0.24911
 C15 C 0.62492 1.00235 0.25111
 C16 C 0.13182 0.49819 0.74869
 C17 C 0.74918 0.87768 0.00458
 C18 C 0.25318 0.37323 0.49697
 C19 C 0.25448 0.62534 -0.00078
 C20 C 0.74665 0.12476 0.49787
 C21 C 1.00032 0.74776 0.87942
 C22 C 0.50035 0.25071 0.37192
 C23 C 0.99838 0.24936 0.62504
 C24 C 0.50247 0.75056 0.12722
 O25 O -0.03991 0.81791 0.96305
 O26 O -0.00502 0.81576 1.06754
 O27 O -0.18583 0.96825 0.97885
 O28 O -0.18401 1.07475 0.99453
 O29 O -0.03268 0.99249 0.81990
 O30 O 0.02543 0.90471 0.81115
 O31 O -0.02067 1.13763 1.11798
 O32 O -0.12165 1.01562 1.12224
 O33 O 0.12278 0.99262 1.13678
 O34 O 0.13981 0.89833 1.08867
 O35 O 0.13597 1.11901 0.98484
 O36 O 0.05573 1.13488 0.88607
 O37 O 0.03348 1.18013 1.03643
 O38 O -0.00034 1.18609 0.94253
 O39 O 0.18168 1.03215 1.02687
 O40 O 0.17579 0.92443 0.99704
 O41 O 0.02837 1.01097 1.18409
 O42 O -0.05096 1.07624 1.19347
 O43 O 0.03357 0.85658 0.89749
 O44 O 0.10127 0.97600 0.84029
 O45 O -0.12822 1.00480 0.86573
 O46 O -0.13970 1.10470 0.91842
 O47 O -0.13942 0.87911 1.01357
 O48 O -0.07803 0.85632 1.10477
 Zr49 Zr -0.04198 0.89673 1.02361
 O50 O 0.01600 0.95041 1.08445
 Zr51 Zr -0.10513 1.02318 0.96129
 O52 O -0.05023 1.08313 1.01924
 Zr53 Zr 0.02172 0.95700 0.89684
 O54 O 0.08321 1.01579 0.95117
 Zr55 Zr -0.02622 1.03832 1.10373
 O56 O -0.08852 0.98083 1.04949
 Zr57 Zr 0.10101 0.97444 1.03975
 O58 O 0.04693 0.91224 0.98160
 Zr59 Zr 0.03718 1.10043 0.97599
 O60 O -0.02063 1.04541 0.91482
 O61 O -0.06498 0.93643 0.93741
 O62 O 0.06058 1.06126 1.06263
 C63 C -0.00058 0.81022 0.91788
 C64 C -0.18853 0.91247 1.00066
 C65 C -0.09280 0.99980 0.81611
 C66 C 0.00361 1.18549 1.08900
 C67 C 0.08829 1.00085 1.18716
 C68 C 0.18527 1.08696 1.00193
 H69 H 0.02258 0.92399 1.12186
 H70 H 0.12266 1.02486 0.92827
 H71 H -0.09138 0.90881 0.91035
 H72 H -0.07607 1.12136 1.02609
 H73 H -0.12170 0.98533 1.15725
 H74 H -0.19143 1.06181 1.03866
 H75 H 0.18185 0.94302 0.95483
 H76 H 0.08541 1.00451 0.80732
 H77 H -0.06846 1.04301 1.22104
 H78 H -0.11106 0.88655 1.11688
 H79 H 0.09485 1.15981 0.89068
 H80 H -0.01681 0.88570 0.80351
 H81 H 0.03566 0.80625 1.04649
 H82 H 0.11838 0.86049 1.07197
 H83 H -0.10503 1.11828 0.89058
 H84 H -0.04554 1.18724 0.95424
 O85 O 0.63841 0.62442 0.48689
 O86 O 0.57816 0.64347 0.39483
 O87 O 0.48178 0.63848 0.62043
 O88 O 0.40147 0.57337 0.65333
 O89 O 0.62616 0.48584 0.63594
 O90 O 0.64773 0.39640 0.57333
 O91 O 0.32091 0.46133 0.46673
 O92 O 0.30875 0.55060 0.49953
 O93 O 0.46339 0.47042 0.31681
 O94 O 0.55761 0.50745 0.31123
 O95 O 0.47120 0.31953 0.46001
 O96 O 0.50740 0.31100 0.54560
 O97 O 0.36692 0.37837 0.51492
 O98 O 0.44079 0.35641 0.60493
 O99 O 0.51818 0.36475 0.37542
 O100 O 0.60889 0.43809 0.34875
 O101 O 0.37966 0.51944 0.36299
 O102 O 0.35332 0.61005 0.44553
 O103 O 0.68554 0.53953 0.53025
 O104 O 0.68793 0.43582 0.49814
 O105 O 0.54213 0.53329 0.68229
 O106 O 0.44516 0.49315 0.68543
 O107 O 0.53068 0.68372 0.53706
 O108 O 0.50260 0.68475 0.43353
 Zr109 Zr 0.54059 0.60452 0.47745
 O110 O 0.48162 0.55100 0.41724
 Zr111 Zr 0.48031 0.53898 0.60431
 O112 O 0.42007 0.48086 0.54912
 Zr113 Zr 0.60714 0.47874 0.53764
 O114 O 0.55320 0.41961 0.47772
 Zr115 Zr 0.39804 0.52391 0.46274
 O116 O 0.45295 0.58488 0.52149
 Zr117 Zr 0.52521 0.46440 0.39467
 O118 O 0.58733 0.52153 0.45029
 Zr119 Zr 0.46617 0.39805 0.52049
 O120 O 0.52385 0.45190 0.58325
 O121 O 0.56572 0.56408 0.56305
 O122 O 0.43899 0.43831 0.43512
 C123 C 0.68814 0.59386 0.50488
 C124 C 0.50172 0.68762 0.59000
 C125 C 0.59565 0.50517 0.68555
 C126 C 0.31727 0.40827 0.49455
 C127 C 0.40974 0.49832 0.31327
 C128 C 0.49784 0.31549 0.40599
 H129 H 0.47268 0.57733 0.38016
 H130 H 0.57922 0.38205 0.46809
 H131 H 0.59219 0.59151 0.59028
 H132 H 0.38237 0.47069 0.57460
 H133 H 0.30828 0.53943 0.54471
 H134 H 0.36550 0.54912 0.63639
 H135 H 0.64213 0.46548 0.36702
 H136 H 0.69714 0.45854 0.45860
 H137 H 0.36909 0.64092 0.47713
 H138 H 0.46070 0.69226 0.45306
 H139 H 0.55378 0.31459 0.54092
 H140 H 0.61452 0.37713 0.59957
 H141 H 0.60493 0.61007 0.37636
 H142 H 0.54333 0.55178 0.31118
 H143 H 0.46809 0.45284 0.68973
 H144 H 0.47525 0.36504 0.63513
 O145 O 0.35929 -0.12101 0.48640
 O146 O 0.42092 -0.14109 0.39339
 O147 O 0.50947 -0.13557 0.62252
 O148 O 0.60374 -0.07444 0.63476
 O149 O 0.37401 0.01571 0.63858
 O150 O 0.34896 0.10065 0.58635
 O151 O 0.67805 0.03763 0.46872
 O152 O 0.68904 -0.04769 0.49845
 O153 O 0.53655 0.03373 0.31962
 O154 O 0.44162 -0.00047 0.31126
 O155 O 0.52926 0.18310 0.46138
 O156 O 0.48898 0.18783 0.55979
 O157 O 0.63309 0.12291 0.51597
 O158 O 0.56455 0.15163 0.60431
 O159 O 0.48018 0.13776 0.37793
 O160 O 0.39012 0.06682 0.35394
 O161 O 0.61925 -0.01713 0.36424
 O162 O 0.63652 -0.11187 0.44639
 O163 O 0.31296 -0.03477 0.52983
 O164 O 0.31611 0.07368 0.49947
 O165 O 0.45916 -0.03036 0.68357
 O166 O 0.55944 -0.00149 0.68655
 O167 O 0.46842 -0.18174 0.53526
 O168 O 0.49423 -0.18225 0.43062
 Zr169 Zr 0.45695 -0.10212 0.47659
 O170 O 0.51598 -0.04823 0.41706
 Zr171 Zr 0.51817 -0.03762 0.60369
 O172 O 0.57790 0.02145 0.55034
 Zr173 Zr 0.39230 0.02469 0.54011
 O174 O 0.44629 0.08451 0.48105
 Zr175 Zr 0.59928 -0.02211 0.46330
 O176 O 0.54382 -0.08317 0.52003
 Zr177 Zr 0.47359 0.03902 0.39708
 O178 O 0.41117 -0.01830 0.45177
 Zr179 Zr 0.53348 0.10551 0.52330
 O180 O 0.47623 0.05070 0.58544
 O181 O 0.43243 -0.06152 0.56275
 O182 O 0.55973 0.06430 0.43734
 C183 C 0.30997 -0.08945 0.50429
 C184 C 0.49344 -0.18501 0.59015
 C185 C 0.40481 -0.00417 0.68749
 C186 C 0.68214 0.09152 0.49552
 C187 C 0.58979 0.00511 0.31533
 C188 C 0.50162 0.18702 0.40783
 H189 H 0.52503 -0.07428 0.37926
 H190 H 0.42052 0.12221 0.47210
 H191 H 0.40544 -0.08848 0.58969
 H192 H 0.61598 0.02987 0.57604
 H193 H 0.68616 -0.04517 0.54496
 H194 H 0.61535 -0.10581 0.60217
 H195 H 0.35699 0.03998 0.37277
 H196 H 0.30322 0.04911 0.46190
 H197 H 0.62915 -0.13949 0.48329
 H198 H 0.53590 -0.19008 0.45008
 H199 H 0.44899 0.19600 0.53717
 H200 H 0.37804 0.13628 0.58043
 H201 H 0.39401 -0.10723 0.37710
 H202 H 0.45667 -0.04443 0.30957
 H203 H 0.54248 0.04165 0.69100
 H204 H 0.53835 0.13305 0.63798
 O205 O -0.13311 0.37897 0.97642
 O206 O -0.06244 0.34147 0.89732
 O207 O 0.01841 0.36154 1.12068
 O208 O 0.10385 0.41792 1.14929
 O209 O -0.11566 0.52197 1.13618
 O210 O -0.15493 0.59918 1.05955
 O211 O 0.18890 0.53370 0.96897
 O212 O 0.18085 0.42276 1.00417
 O213 O 0.04144 0.52649 0.81579
 O214 O -0.04390 0.49731 0.80668
 O215 O 0.01490 0.67984 0.97062
 O216 O 0.10004 0.67439 1.05860
 O217 O 0.14239 0.61650 1.01729
 O218 O 0.00927 0.64149 1.10653
 O219 O -0.00677 0.63326 0.87673
 O220 O -0.10604 0.55887 0.85805
 O221 O 0.12840 0.48576 0.86226
 O222 O 0.15859 0.40078 0.91631
 O223 O -0.17561 0.45747 1.03559
 O224 O -0.18183 0.55245 0.99109
 O225 O -0.03431 0.46989 1.18158
 O226 O 0.07400 0.50293 1.17964
 O227 O -0.02942 0.31575 1.03685
 O228 O 0.01733 0.31141 0.94896
 Zr229 Zr -0.03289 0.39331 0.97628
 O230 O 0.02486 0.44762 0.91610
 Zr231 Zr 0.02727 0.45968 1.10301
 O232 O 0.08860 0.51651 1.04836
 Zr233 Zr -0.09894 0.52052 1.03669
 O234 O -0.04426 0.58071 0.97866
 Zr235 Zr 0.10893 0.47434 0.96036
 O236 O 0.05436 0.41387 1.01898
 Zr237 Zr -0.01785 0.53451 0.89534
 O238 O -0.07917 0.47596 0.94919
 Zr239 Zr 0.04316 0.60028 1.02299
 O240 O -0.01575 0.54762 1.08518
 O241 O -0.05834 0.43506 1.06175
 O242 O 0.06826 0.56031 0.93612
 C243 C -0.18140 0.40746 1.00217
 C244 C -0.00162 0.31230 1.09011
 C245 C -0.08702 0.49972 1.18543
 C246 C 0.19198 0.58755 0.99615
 C247 C 0.09681 0.50256 0.81264
 C248 C 0.00260 0.68307 0.91182
 H249 H 0.03445 0.42292 0.87777
 H250 H -0.07185 0.61668 0.96885
 H251 H -0.08565 0.40881 1.08905
 H252 H 0.12686 0.52378 1.07409
 H253 H 0.19408 0.44792 1.04132
 H254 H 0.13180 0.40234 1.11529
 H255 H -0.13494 0.52233 0.86188
 H256 H -0.18685 0.52827 0.95138
 H257 H 0.12577 0.37064 0.90345
 H258 H 0.06099 0.31472 0.96534
 H259 H 0.09243 0.71414 1.03545
 H260 H -0.13233 0.63647 1.04327
 H261 H -0.03366 0.35059 0.86182
 H262 H -0.04133 0.45106 0.81009
 H263 H 0.05165 0.54322 1.18765
 H264 H -0.01026 0.68137 1.09239
 O265 O 0.02254 0.63679 0.38251
 O266 O 0.10422 0.57029 0.34960
 O267 O -0.12061 0.48575 0.36215
 O268 O -0.14727 0.39906 0.41953
 O269 O -0.13531 0.62431 0.51630
 O270 O -0.06885 0.64105 0.60927
 O271 O 0.02981 0.31757 0.53796
 O272 O -0.00273 0.31013 0.44654
 O273 O 0.18497 0.46259 0.52624
 O274 O 0.17600 0.57563 0.49491
 O275 O 0.03909 0.47072 0.68279
 O276 O -0.06089 0.50720 0.68484
 O277 O -0.01701 0.36328 0.62308
 O278 O -0.10390 0.42975 0.64875
 O279 O 0.12646 0.51012 0.63544
 O280 O 0.15359 0.59523 0.58392
 O281 O 0.13828 0.37586 0.48456
 O282 O 0.06825 0.35098 0.39403
 O283 O -0.02906 0.68159 0.46532
 O284 O 0.00497 0.68275 0.56402
 O285 O -0.18198 0.53907 0.47195
 O286 O -0.18120 0.42965 0.49957
 O287 O -0.03625 0.53373 0.31817
 O288 O 0.05770 0.49354 0.31328
 Zr289 Zr 0.02440 0.53737 0.39696
 O290 O 0.08470 0.47846 0.45086
 Zr291 Zr -0.10327 0.47746 0.46081
 O292 O -0.04896 0.41794 0.51940
 Zr293 Zr -0.03737 0.60258 0.52389
 O294 O 0.02095 0.54834 0.58297
 Zr295 Zr 0.03866 0.39542 0.47738
 O296 O -0.01905 0.45009 0.41568
 Zr297 Zr 0.10514 0.52174 0.53827
 O298 O 0.05081 0.58348 0.48095
 Zr299 Zr -0.02240 0.46218 0.60406
 O300 O -0.08461 0.51971 0.54933
 O301 O -0.06163 0.56252 0.43750
 O302 O 0.06445 0.43570 0.56387
 C303 C 0.00075 0.68565 0.41289
 C304 C -0.08946 0.50558 0.31333
 C305 C -0.18506 0.59381 0.49788
 C306 C 0.00232 0.31389 0.59173
 C307 C 0.18832 0.40752 0.50161
 C308 C 0.09515 0.49378 0.68537
 H309 H 0.12263 0.46865 0.42540
 H310 H 0.03012 0.57365 0.62107
 H311 H -0.08815 0.59011 0.41086
 H312 H -0.07515 0.38048 0.52803
 H313 H -0.04862 0.31239 0.45541
 H314 H -0.11254 0.37473 0.40000
 H315 H 0.12099 0.62651 0.59562
 H316 H 0.04842 0.68470 0.54646
 H317 H 0.03823 0.36482 0.36122
 H318 H 0.03562 0.45273 0.30896
 H319 H -0.04277 0.54991 0.68851
 H320 H -0.10148 0.61205 0.62443
 H321 H 0.13991 0.54505 0.36554
 H322 H 0.19314 0.54918 0.46029
 H323 H -0.19344 0.45333 0.53806
 H324 H -0.13827 0.45336 0.62805
 O325 O 0.52614 0.81829 0.03666
 O326 O 0.50472 0.83041 -0.08845
 O327 O 0.67901 0.96169 0.04301
 O328 O 0.68343 1.05613 -0.00837
 O329 O 0.53625 0.96908 0.18272
 O330 O 0.43173 1.00259 0.18259
 O331 O 0.50512 1.13521 -0.12185
 O332 O 0.59937 1.00042 -0.15453
 O333 O 0.37290 0.98731 -0.13562
 O334 O 0.37348 0.88739 -0.08646
 O335 O 0.36058 1.11561 0.01404
 O336 O 0.49681 1.14088 0.10659
 O337 O 0.48344 1.18306 -0.02922
 O338 O 0.40321 1.17195 0.06799
 O339 O 0.31614 1.02978 -0.03179
 O340 O 0.31829 0.93270 0.00531
 O341 O 0.46422 1.01691 -0.18328
 O342 O 0.57359 1.08999 -0.17204
 O343 O 0.48522 0.86321 0.12444
 O344 O 0.39183 0.92284 0.14235
 O345 O 0.61668 1.02447 0.13916
 O346 O 0.65079 1.10291 0.07220
 O347 O 0.64128 0.89351 -0.02869
 O348 O 0.59043 0.82144 -0.06884
 Zr349 Zr 0.54102 0.89629 -0.02368
 O350 O 0.48336 0.94973 -0.08609
 Zr351 Zr 0.60176 1.02391 0.03974
 O352 O 0.54780 1.08398 -0.01962
 Zr353 Zr 0.47538 0.96000 0.10351
 O354 O 0.41615 1.01618 0.04713
 Zr355 Zr 0.52285 1.03823 -0.10387
 O356 O 0.58518 0.98141 -0.04906
 Zr357 Zr 0.39773 0.97202 -0.04023
 O358 O 0.45214 0.91199 0.01936
 Zr359 Zr 0.45947 1.10149 0.02361
 O360 O 0.51681 1.04854 0.08626
 O361 O 0.56229 0.93705 0.06301
 O362 O 0.43619 1.05964 -0.06292
 C363 C 0.50297 0.81430 0.09212
 C364 C 0.68682 0.91514 0.00535
 C365 C 0.58815 1.00028 0.18761
 C366 C 0.49562 1.18539 -0.08832
 C367 C 0.40577 1.00028 -0.18555
 C368 C 0.31201 1.08463 -0.00622
 H369 H 0.47768 0.92641 -0.12592
 H370 H 0.37709 1.02373 0.07164
 H371 H 0.58921 0.91038 0.09022
 H372 H 0.57352 1.12148 -0.02858
 H373 H 0.57905 0.97668 -0.18943
 H374 H 0.68504 1.03481 -0.05005
 H375 H 0.28729 0.92217 -0.02789
 H376 H 0.35565 0.93593 0.11620
 H377 H 0.54909 1.08778 -0.21184
 H378 H 0.60450 0.79058 -0.03667
 H379 H 0.51210 1.18271 0.09319
 H380 H 0.45184 1.04437 0.18789
 H381 H 0.47237 0.80650 -0.06494
 H382 H 0.38130 0.85421 -0.05508
 H383 H 0.63412 1.13835 0.04736
 H384 H 0.41085 1.21286 0.04729
 O385 O 0.64098 0.38010 0.01923
 O386 O 0.57542 0.34698 0.09890
 O387 O 0.48012 0.36160 -0.12108
 O388 O 0.40482 0.42687 -0.15689
 O389 O 0.62439 0.52238 -0.13795
 O390 O 0.65979 0.59778 -0.07112
 O391 O 0.32307 0.54026 0.03188
 O392 O 0.30837 0.45489 0.00071
 O393 O 0.46144 0.53323 0.18026
 O394 O 0.55372 0.49679 0.18958
 O395 O 0.47177 0.68120 0.03915
 O396 O 0.50091 0.69389 -0.04620
 O397 O 0.36791 0.62180 -0.02007
 O398 O 0.45251 0.64206 -0.11287
 O399 O 0.52035 0.63646 0.12278
 O400 O 0.61039 0.56340 0.14598
 O401 O 0.38019 0.48005 0.13513
 O402 O 0.35624 0.38951 0.04766
 O403 O 0.68629 0.45930 -0.03521
 O404 O 0.68836 0.55719 0.01052
 O405 O 0.54552 0.46600 -0.18287
 O406 O 0.44556 0.50881 -0.18547
 O407 O 0.53433 0.31759 -0.04079
 O408 O 0.49733 0.31264 0.05411
 Zr409 Zr 0.54112 0.39543 0.02058
 O410 O 0.48219 0.44981 0.08122
 Zr411 Zr 0.48230 0.46161 -0.10602
 O412 O 0.42145 0.52002 -0.05137
 Zr413 Zr 0.60880 0.52084 -0.03802
 O414 O 0.55380 0.58150 0.02012
 Zr415 Zr 0.39934 0.47725 0.03521
 O416 O 0.45423 0.41629 -0.02352
 Zr417 Zr 0.52526 0.53683 0.10337
 O418 O 0.58738 0.47783 0.04917
 Zr419 Zr 0.46742 0.60325 -0.02348
 O420 O 0.52654 0.54845 -0.08445
 O421 O 0.56760 0.43571 -0.06461
 O422 O 0.43978 0.56305 0.06203
 C423 C 0.69031 0.40872 -0.00344
 C424 C 0.50212 0.31276 -0.09156
 C425 C 0.59623 0.49856 -0.18713
 C426 C 0.31894 0.59220 0.00222
 C427 C 0.40921 0.50290 0.18451
 C428 C 0.49975 0.68566 0.09256
 H429 H 0.47184 0.42379 0.11813
 H430 H 0.57925 0.61918 0.03005
 H431 H 0.59455 0.40841 -0.09167
 H432 H 0.38380 0.52911 -0.07717
 H433 H 0.31017 0.45902 -0.04569
 H434 H 0.36759 0.44773 -0.13780
 H435 H 0.64227 0.53059 0.13574
 H436 H 0.69571 0.53119 0.04827
 H437 H 0.36521 0.36185 0.01070
 H438 H 0.45376 0.31302 0.03761
 H439 H 0.54731 0.69239 -0.04101
 H440 H 0.63966 0.63397 -0.04969
 H441 H 0.55050 0.36374 0.13460
 H442 H 0.53655 0.45364 0.19194
 H443 H 0.47055 0.54755 -0.19174
 H444 H 0.49071 0.63622 -0.13960
 O445 O -0.04409 0.17867 0.54277
 O446 O 0.00506 0.18425 0.44723
 O447 O -0.18670 0.03606 0.52952
 O448 O -0.18296 -0.06961 0.49623
 O449 O -0.03359 0.00604 0.68383
 O450 O 0.02081 0.09349 0.69230
 O451 O -0.01642 -0.13914 0.38529
 O452 O -0.11059 -0.00601 0.36378
 O453 O 0.12321 0.00867 0.36691
 O454 O 0.14397 0.10600 0.43390
 O455 O 0.13430 -0.12182 0.51667
 O456 O 0.05471 -0.13274 0.61849
 O457 O 0.03111 -0.18327 0.46940
 O458 O 0.00190 -0.18991 0.56010
 O459 O 0.18082 -0.03676 0.47242
 O460 O 0.18766 0.05376 0.50690
 O461 O 0.02970 -0.01263 0.31980
 O462 O -0.06086 -0.09440 0.32383
 O463 O 0.03205 0.14080 0.60521
 O464 O 0.09932 0.02267 0.66269
 O465 O -0.12891 -0.00688 0.63822
 O466 O -0.15159 -0.09874 0.58770
 O467 O -0.14096 0.11722 0.47786
 O468 O -0.07196 0.15098 0.39964
 Zr469 Zr -0.04139 0.10214 0.47900
 O470 O 0.01864 0.04785 0.41897
 Zr471 Zr -0.10741 -0.02310 0.54149
 O472 O -0.05140 -0.08371 0.48461
 Zr473 Zr 0.01964 0.04066 0.60665
 O474 O 0.08194 -0.01866 0.55329
 Zr475 Zr -0.02478 -0.03990 0.39992
 O476 O -0.08813 0.01823 0.45311
 Zr477 Zr 0.10213 0.02276 0.46536
 O478 O 0.04657 0.08480 0.52270
 Zr479 Zr 0.03561 -0.10230 0.52762
 O480 O -0.02375 -0.04749 0.58824
 O481 O -0.06634 0.06293 0.56508
 O482 O 0.06143 -0.06336 0.44125
 C483 C -0.00354 0.18684 0.58666
 C484 C -0.19029 0.08812 0.49965
 C485 C -0.09351 -0.00045 0.68764
 C486 C 0.00513 -0.18763 0.41508
 C487 C 0.08911 -0.00108 0.31665
 C488 C 0.18375 -0.09102 0.49762
 H489 H 0.02862 0.07449 0.38244
 H490 H 0.12091 -0.02940 0.57617
 H491 H -0.09351 0.09032 0.59189
 H492 H -0.07608 -0.12253 0.47746
 H493 H -0.09956 0.00883 0.32110
 H494 H -0.18763 -0.04961 0.45447
 H495 H 0.18445 0.04730 0.55294
 H496 H 0.08346 -0.00415 0.69712
 H497 H -0.03338 -0.09055 0.28601
 H498 H -0.04460 0.13730 0.36414
 H499 H 0.09450 -0.15679 0.61406
 H500 H -0.02112 0.11407 0.69832
 H501 H 0.04432 0.18977 0.47178
 H502 H 0.13281 0.13834 0.46594
 H503 H -0.13127 -0.13759 0.57182
 H504 H -0.04469 -0.18936 0.55704
 O505 O 0.88813 0.24469 0.12393
 O506 O 0.83306 0.14682 0.11018
 O507 O 0.73188 0.36939 0.11147
 O508 O 0.65145 0.40633 0.17924
 O509 O 0.85764 0.39400 0.28253
 O510 O 0.94201 0.34575 0.28428
 O511 O 0.57047 0.21965 0.28560
 O512 O 0.56033 0.24998 0.19827
 O513 O 0.71535 0.07096 0.27939
 O514 O 0.81148 0.06611 0.24654
 O515 O 0.71936 0.21442 0.43090
 O516 O 0.75522 0.30731 0.43842
 O517 O 0.61435 0.26827 0.37041
 O518 O 0.68419 0.35854 0.39654
 O519 O 0.76667 0.12980 0.38475
 O520 O 0.86331 0.11095 0.30850
 O521 O 0.63081 0.11593 0.23178
 O522 O 0.61213 0.19700 0.13611
 O523 O 0.93359 0.25707 0.21915
 O524 O 0.91290 0.27302 0.35279
 O525 O 0.79444 0.43189 0.20720
 O526 O 0.69870 0.44025 0.25570
 O527 O 0.78419 0.28710 0.06706
 O528 O 0.75514 0.18325 0.06615
 Zr529 Zr 0.79218 0.22961 0.14611
 O530 O 0.73342 0.16966 0.19921
 Zr531 Zr 0.73064 0.35661 0.21094
 O532 O 0.67019 0.30223 0.26898
 Zr533 Zr 0.85705 0.29323 0.27349
 O534 O 0.80243 0.23362 0.33349
 Zr535 Zr 0.64961 0.21528 0.22544
 O536 O 0.70429 0.27349 0.16460
 Zr537 Zr 0.77609 0.15024 0.28626
 O538 O 0.83787 0.20589 0.22951
 Zr539 Zr 0.71435 0.27561 0.35304
 O540 O 0.77260 0.33804 0.29950
 O541 O 0.81690 0.31551 0.18735
 O542 O 0.68931 0.18979 0.31170
 C543 C 0.93730 0.24990 0.15936
 C544 C 0.75465 0.33918 0.06299
 C545 C 0.83859 0.43985 0.24720
 C546 C 0.56551 0.24758 0.33897
 C547 C 0.66099 0.06671 0.25277
 C548 C 0.74554 0.16012 0.43424
 H549 H 0.72524 0.13167 0.17331
 H550 H 0.82471 0.22257 0.37257
 H551 H 0.84441 0.34215 0.16063
 H552 H 0.63205 0.32724 0.27879
 H553 H 0.56004 0.29563 0.20766
 H554 H 0.61583 0.39058 0.20473
 H555 H 0.89573 0.13337 0.28346
 H556 H 0.94638 0.24436 0.33701
 H557 H 0.62183 0.23213 0.10707
 H558 H 0.71422 0.20369 0.05687
 H559 H 0.80117 0.29889 0.43639
 H560 H 0.95611 0.36148 0.24245
 H561 H 0.86093 0.13147 0.14385
 H562 H 0.80046 0.06576 0.20126
 H563 H 0.72294 0.44552 0.29514
 H564 H 0.71426 0.39092 0.38173
 O565 O 0.78137 0.78818 0.93626
 O566 O 0.74518 0.69082 0.93822
 O567 O 0.93260 0.77792 0.79185
 O568 O 0.92090 0.74467 0.67116
 O569 O 0.78318 0.93428 0.78489
 O570 O 0.69008 0.93835 0.75817
 O571 O 0.77869 0.63924 0.61218
 O572 O 0.87049 0.63095 0.73596
 O573 O 0.63064 0.61491 0.75729
 O574 O 0.60493 0.68078 0.85561
 O575 O 0.61127 0.77770 0.63195
 O576 O 0.72142 0.87261 0.61630
 O577 O 0.71498 0.71489 0.57287
 O578 O 0.73164 0.81260 0.55835
 O579 O 0.56833 0.72080 0.71131
 O580 O 0.55506 0.74159 0.80266
 O581 O 0.72552 0.56928 0.73648
 O582 O 0.78665 0.55658 0.68168
 O583 O 0.73408 0.87229 0.89220
 O584 O 0.64586 0.88656 0.84316
 O585 O 0.86488 0.88986 0.73172
 O586 O 0.92246 0.83783 0.67444
 O587 O 0.88710 0.73022 0.87524
 O588 O 0.82056 0.64604 0.90144
 Zr589 Zr 0.78825 0.72749 0.85651
 O590 O 0.73052 0.66886 0.79909
 Zr591 Zr 0.85500 0.79043 0.73094
 O592 O 0.79960 0.73696 0.66651
 Zr593 Zr 0.72611 0.85381 0.79453
 O594 O 0.66447 0.80265 0.73422
 Zr595 Zr 0.77612 0.65157 0.71171
 O596 O 0.83766 0.70220 0.77334
 Zr597 Zr 0.64635 0.71325 0.77277
 O598 O 0.69978 0.76968 0.83729
 Zr599 Zr 0.71159 0.77948 0.64976
 O600 O 0.77090 0.83575 0.70727
 O601 O 0.81310 0.81333 0.81749
 O602 O 0.68923 0.69169 0.68707
 C603 C 0.75293 0.84136 0.94095
 C604 C 0.93634 0.75034 0.84491
 C605 C 0.83553 0.93836 0.75466
 C606 C 0.74941 0.66542 0.56581
 C607 C 0.66603 0.56556 0.74797
 C608 C 0.56288 0.75173 0.65998
 H609 H 0.72088 0.63179 0.82500
 H610 H 0.62555 0.82750 0.72793
 H611 H 0.84017 0.84022 0.84460
 H612 H 0.82372 0.73402 0.62655
 H613 H 0.86959 0.58818 0.75381
 H614 H 0.94670 0.71697 0.69828
 H615 H 0.55762 0.78717 0.81096
 H616 H 0.60815 0.87332 0.81937
 H617 H 0.82803 0.55083 0.66089
 H618 H 0.79913 0.61024 0.88060
 H619 H 0.71298 0.90355 0.65026
 H620 H 0.65028 0.92838 0.73633
 H621 H 0.70455 0.71320 0.94460
 H622 H 0.61837 0.71150 0.88796
 H623 H 0.96160 0.84452 0.69967
 H624 H 0.77714 0.80333 0.54977
 O625 O 0.21283 0.42676 0.70717
 O626 O 0.31117 0.43339 0.75074
 O627 O 0.22075 0.28507 0.56383
 O628 O 0.24898 0.17869 0.56473
 O629 O 0.06614 0.25693 0.71950
 O630 O 0.06443 0.34776 0.74839
 O631 O 0.36412 0.10879 0.73004
 O632 O 0.39471 0.24558 0.64487
 O633 O 0.38346 0.25915 0.87339
 O634 O 0.31373 0.35582 0.89429
 O635 O 0.22585 0.12720 0.88403
 O636 O 0.13121 0.10704 0.79818
 O637 O 0.28107 0.06763 0.78266
 O638 O 0.18674 0.06187 0.74777
 O639 O 0.27884 0.20878 0.92885
 O640 O 0.24715 0.30086 0.93975
 O641 O 0.43092 0.23040 0.78174
 O642 O 0.42503 0.15306 0.68389
 O643 O 0.14927 0.39129 0.78402
 O644 O 0.08960 0.27951 0.85082
 O645 O 0.11230 0.24263 0.62412
 O646 O 0.16593 0.14691 0.60377
 O647 O 0.27664 0.36444 0.60867
 O648 O 0.35780 0.39816 0.68103
 Zr649 Zr 0.27598 0.35014 0.70834
 O650 O 0.33355 0.29532 0.76907
 Zr651 Zr 0.20984 0.22632 0.64299
 O652 O 0.26546 0.16538 0.69830
 Zr653 Zr 0.14527 0.29221 0.76952
 O654 O 0.19620 0.23168 0.83157
 Zr655 Zr 0.35116 0.20771 0.72495
 O656 O 0.29988 0.26559 0.66112
 Zr657 Zr 0.28533 0.27109 0.85206
 O658 O 0.23082 0.33427 0.79602
 Zr659 Zr 0.22085 0.14728 0.78509
 O660 O 0.16285 0.20426 0.72643
 O661 O 0.18879 0.31260 0.68410
 O662 O 0.30853 0.18466 0.81085
 C663 C 0.16907 0.43605 0.74795
 C664 C 0.25233 0.33631 0.55974
 C665 C 0.06251 0.24866 0.65972
 C666 C 0.33399 0.06156 0.75362
 C667 C 0.43359 0.24625 0.84008
 C668 C 0.24992 0.15598 0.93283
 H669 H 0.37086 0.32120 0.77913
 H670 H 0.17350 0.22260 0.87090
 H671 H 0.16261 0.33999 0.65689
 H672 H 0.27199 0.12682 0.67285
 H673 H 0.43507 0.26242 0.66142
 H674 H 0.29127 0.19760 0.55808
 H675 H 0.20075 0.29580 0.93750
 H676 H 0.05711 0.24885 0.83797
 H677 H 0.46457 0.15913 0.70823
 H678 H 0.39338 0.37662 0.70201
 H679 H 0.09905 0.13483 0.77889
 H680 H 0.04003 0.35590 0.78744
 H681 H 0.28837 0.43953 0.79110
 H682 H 0.28213 0.38773 0.88158
 H683 H 0.14645 0.12531 0.63993
 H684 H 0.20125 0.05874 0.70338
 O685 O 0.28668 0.56966 0.21570
 O686 O 0.18081 0.57045 0.24597
 O687 O 0.27912 0.71521 0.06736
 O688 O 0.25027 0.83858 0.08046
 O689 O 0.43209 0.71045 0.20941
 O690 O 0.43319 0.75765 0.31243
 O691 O 0.12888 0.88830 0.24052
 O692 O 0.10042 0.75522 0.14788
 O693 O 0.11621 0.73613 0.37424
 O694 O 0.19212 0.63993 0.39066
 O695 O 0.27443 0.86767 0.38916
 O696 O 0.36376 0.87028 0.24545
 O697 O 0.22032 0.93552 0.26818
 O698 O 0.30576 0.94099 0.32655
 O699 O 0.21524 0.78904 0.43008
 O700 O 0.25093 0.69615 0.43857
 O701 O 0.06882 0.76881 0.28465
 O702 O 0.07454 0.84079 0.18067
 O703 O 0.36806 0.61212 0.27050
 O704 O 0.40285 0.67222 0.34711
 O705 O 0.39255 0.78138 0.14199
 O706 O 0.34001 0.82650 0.07436
 O707 O 0.23498 0.62911 0.11078
 O708 O 0.14614 0.61183 0.16351
 Zr709 Zr 0.22657 0.64959 0.20779
 O710 O 0.16608 0.70280 0.26822
 Zr711 Zr 0.29151 0.77645 0.14570
 O712 O 0.23233 0.83742 0.20107
 Zr713 Zr 0.35457 0.71146 0.27112
 O714 O 0.30099 0.76948 0.33317
 Zr715 Zr 0.14792 0.79100 0.22650
 O716 O 0.20266 0.73451 0.16250
 Zr717 Zr 0.21360 0.72719 0.35198
 O718 O 0.27050 0.66637 0.29562
 Zr719 Zr 0.27550 0.85389 0.28886
 O720 O 0.33759 0.80041 0.23009
 O721 O 0.31350 0.68940 0.18424
 O722 O 0.18907 0.81331 0.31268
 C723 C 0.33824 0.56399 0.24715
 C724 C 0.25419 0.66066 0.06268
 C725 C 0.43939 0.74887 0.16409
 C726 C 0.16154 0.93805 0.25301
 C727 C 0.06642 0.75084 0.34223
 C728 C 0.24720 0.83976 0.43651
 H729 H 0.12846 0.67631 0.27590
 H730 H 0.32726 0.77680 0.37086
 H731 H 0.34045 0.66229 0.15692
 H732 H 0.22537 0.87646 0.17718
 H733 H 0.06634 0.72885 0.16577
 H734 H 0.21807 0.81311 0.05800
 H735 H 0.29493 0.71133 0.44195
 H736 H 0.38355 0.69284 0.38422
 H737 H 0.03453 0.83677 0.20500
 H738 H 0.10950 0.63570 0.17997
 H739 H 0.39466 0.88296 0.27770
 H740 H 0.44599 0.79296 0.28521
 H741 H 0.20341 0.56018 0.28528
 H742 H 0.22500 0.60939 0.37670
 H743 H 0.35140 0.79681 0.03958
 H744 H 0.32781 0.96341 0.29234
 O745 O 0.21270 0.56919 0.78922
 O746 O 0.31175 0.56419 0.74651
 O747 O 0.22291 0.71354 0.93374
 O748 O 0.24495 0.81771 0.93435
 O749 O 0.06688 0.73919 0.78388
 O750 O 0.05951 0.65271 0.71663
 O751 O 0.35945 0.88842 0.77741
 O752 O 0.37750 0.76231 0.86379
 O753 O 0.38348 0.74048 0.62635
 O754 O 0.31513 0.64370 0.60148
 O755 O 0.22472 0.86918 0.61360
 O756 O 0.13109 0.89400 0.70547
 O757 O 0.28369 0.92798 0.71446
 O758 O 0.18770 0.93822 0.74755
 O759 O 0.27768 0.78740 0.56821
 O760 O 0.24398 0.69354 0.56065
 O761 O 0.43095 0.76394 0.71953
 O762 O 0.44328 0.82293 0.77810
 O763 O 0.14697 0.60620 0.71532
 O764 O 0.08485 0.72672 0.65075
 O765 O 0.11385 0.75252 0.87825
 O766 O 0.16481 0.85162 0.88990
 O767 O 0.27255 0.63072 0.88735
 O768 O 0.35682 0.60301 0.82031
 Zr769 Zr 0.27400 0.64656 0.78855
 O770 O 0.33140 0.70145 0.72833
 Zr771 Zr 0.20920 0.77057 0.85439
 O772 O 0.26430 0.83279 0.79974
 Zr773 Zr 0.14385 0.70611 0.72764
 O774 O 0.19543 0.76649 0.66605
 Zr775 Zr 0.34946 0.78884 0.77260
 O776 O 0.29916 0.73004 0.83611
 Zr777 Zr 0.28448 0.72651 0.64565
 O778 O 0.22936 0.66332 0.70083
 Zr779 Zr 0.22006 0.85068 0.71305
 O780 O 0.16162 0.79335 0.77148
 O781 O 0.18635 0.68439 0.81318
 O782 O 0.30716 0.81266 0.68715
 C783 C 0.16820 0.56071 0.74956
 C784 C 0.25176 0.66077 0.93666
 C785 C 0.06393 0.74699 0.84369
 C786 C 0.33310 0.93503 0.74891
 C787 C 0.43379 0.75144 0.66028
 C788 C 0.24845 0.84000 0.56449
 H789 H 0.36855 0.67525 0.71796
 H790 H 0.17264 0.77529 0.62682
 H791 H 0.16028 0.65660 0.84018
 H792 H 0.26870 0.87061 0.82688
 H793 H 0.42001 0.74386 0.85797
 H794 H 0.28941 0.80403 0.93829
 H795 H 0.19777 0.70023 0.56301
 H796 H 0.05385 0.75780 0.66716
 H797 H 0.44845 0.84326 0.81952
 H798 H 0.39204 0.62454 0.79871
 H799 H 0.09869 0.86589 0.72391
 H800 H 0.04744 0.63435 0.75793
 H801 H 0.28810 0.55657 0.70702
 H802 H 0.28608 0.61073 0.61718
 H803 H 0.14587 0.87202 0.85289
 H804 H 0.20192 0.94225 0.79192
 O805 O 0.25907 0.12343 0.10998
 O806 O 0.34808 0.10087 0.16179
 O807 O 0.13069 0.11195 0.27358
 O808 O 0.09331 0.18081 0.34923
 O809 O 0.10869 0.28411 0.14532
 O810 O 0.15676 0.26435 0.05644
 O811 O 0.28378 0.28770 0.42650
 O812 O 0.25451 0.20216 0.43889
 O813 O 0.43203 0.27995 0.28206
 O814 O 0.43595 0.25172 0.18026
 O815 O 0.28615 0.43153 0.27849
 O816 O 0.19702 0.44071 0.24709
 O817 O 0.23256 0.37089 0.38380
 O818 O 0.13983 0.39507 0.30955
 O819 O 0.37162 0.38657 0.23134
 O820 O 0.38968 0.31771 0.13592
 O821 O 0.38719 0.23135 0.36587
 O822 O 0.30453 0.13928 0.38992
 O823 O 0.23779 0.21616 0.06316
 O824 O 0.23275 0.34951 0.08753
 O825 O 0.07067 0.20667 0.20557
 O826 O 0.06283 0.25678 0.30437
 O827 O 0.21059 0.06776 0.21722
 O828 O 0.31752 0.06895 0.24878
 Zr829 Zr 0.27168 0.14546 0.20689
 O830 O 0.33320 0.20013 0.26386
 Zr831 Zr 0.14500 0.21077 0.27022
 O832 O 0.19998 0.26933 0.32947
 Zr833 Zr 0.20880 0.27094 0.14220
 O834 O 0.26777 0.33274 0.19624
 Zr835 Zr 0.28768 0.22658 0.34830
 O836 O 0.22867 0.16497 0.29506
 Zr837 Zr 0.35229 0.28759 0.22161
 O838 O 0.29703 0.22822 0.16086
 Zr839 Zr 0.22561 0.35291 0.28413
 O840 O 0.16333 0.29810 0.22629
 O841 O 0.18579 0.18596 0.18391
 O842 O 0.31256 0.31297 0.30851
 C843 C 0.24970 0.15712 0.06026
 C844 C 0.15934 0.06354 0.24932
 C845 C 0.06291 0.24763 0.16275
 C846 C 0.25485 0.34029 0.43200
 C847 C 0.43638 0.25250 0.33571
 C848 C 0.34028 0.43571 0.25163
 H849 H 0.37167 0.17473 0.27118
 H850 H 0.27823 0.37241 0.17502
 H851 H 0.15920 0.15866 0.15666
 H852 H 0.17503 0.27850 0.36784
 H853 H 0.20789 0.20520 0.43747
 H854 H 0.11157 0.20288 0.38608
 H855 H 0.36429 0.29549 0.10350
 H856 H 0.25875 0.33196 0.05289
 H857 H 0.26899 0.11045 0.37973
 H858 H 0.29453 0.06263 0.28880
 H859 H 0.20267 0.43881 0.20075
 H860 H 0.14286 0.30663 0.04248
 H861 H 0.38530 0.12666 0.17233
 H862 H 0.44156 0.20819 0.19534
 H863 H 0.05573 0.29423 0.27806
 H864 H 0.10861 0.38235 0.27714
 O865 O 0.87711 0.61558 0.24843
 O866 O 0.88400 0.68313 0.14077
 O867 O 0.88986 0.76259 0.37693
 O868 O 0.84310 0.85127 0.39213
 O869 O 0.71956 0.64605 0.39330
 O870 O 0.64841 0.59175 0.27324
 O871 O 0.71370 0.93253 0.22114
 O872 O 0.80830 0.94405 0.24648
 O873 O 0.71838 0.79090 0.07402
 O874 O 0.75473 0.69502 0.06466
 O875 O 0.57072 0.78189 0.21539
 O876 O 0.56218 0.75191 0.30921
 O877 O 0.62962 0.88846 0.27039
 O878 O 0.60773 0.81225 0.36348
 O879 O 0.61643 0.73388 0.13074
 O880 O 0.69150 0.64212 0.10759
 O881 O 0.77248 0.87254 0.11762
 O882 O 0.86797 0.89367 0.22020
 O883 O 0.78151 0.57023 0.25409
 O884 O 0.72260 0.56201 0.34505
 O885 O 0.78803 0.71558 0.43568
 O886 O 0.74296 0.81141 0.43517
 O887 O 0.93693 0.73004 0.28614
 O888 O 0.94860 0.73312 0.19913
 Zr889 Zr 0.85647 0.71169 0.23094
 O890 O 0.80357 0.77128 0.17081
 Zr891 Zr 0.79199 0.77400 0.35703
 O892 O 0.73307 0.83485 0.30395
 Zr893 Zr 0.72902 0.64672 0.29252
 O894 O 0.66848 0.70146 0.23413
 Zr895 Zr 0.77642 0.85458 0.21721
 O896 O 0.83664 0.79872 0.27385
 Zr897 Zr 0.71571 0.72775 0.15070
 O898 O 0.77340 0.66525 0.20514
 Zr899 Zr 0.64901 0.78914 0.27704
 O900 O 0.70399 0.73093 0.33763
 O901 O 0.81484 0.68742 0.31620
 O902 O 0.69006 0.81412 0.19139
 C903 C 0.84160 0.56628 0.24970
 C904 C 0.93958 0.74839 0.34361
 C905 C 0.75155 0.66814 0.44073
 C906 C 0.65986 0.93737 0.24880
 C907 C 0.74788 0.84339 0.06916
 C908 C 0.56693 0.75434 0.16142
 H909 H 0.82934 0.78020 0.13300
 H910 H 0.62911 0.67909 0.22373
 H911 H 0.84091 0.66050 0.34396
 H912 H 0.72489 0.87362 0.32871
 H913 H 0.79689 0.94973 0.29170
 H914 H 0.82941 0.88708 0.36629
 H915 H 0.71733 0.60909 0.12808
 H916 H 0.76530 0.55046 0.36080
 H917 H 0.89990 0.85994 0.21568
 H918 H 0.94567 0.77368 0.17703
 H919 H 0.56347 0.70594 0.30147
 H920 H 0.66363 0.55671 0.24625
 H921 H 0.90260 0.64091 0.14625
 H922 H 0.79768 0.71292 0.06050
 H923 H 0.74179 0.85755 0.43081
 H924 H 0.62698 0.78444 0.39560
 O925 O 0.61158 0.23970 0.87473
 O926 O 0.66441 0.15027 0.89914
 O927 O 0.77234 0.36719 0.88874
 O928 O 0.85565 0.39657 0.82240
 O929 O 0.64635 0.39189 0.71539
 O930 O 0.58725 0.27870 0.64891
 O931 O 0.93087 0.23423 0.71857
 O932 O 0.93966 0.17705 0.80178
 O933 O 0.78536 0.06959 0.71769
 O934 O 0.68598 0.06094 0.74331
 O935 O 0.77710 0.21251 0.56674
 O936 O 0.74257 0.30220 0.56100
 O937 O 0.88336 0.25981 0.62631
 O938 O 0.81121 0.35624 0.60414
 O939 O 0.72948 0.12853 0.61178
 O940 O 0.63566 0.10703 0.68965
 O941 O 0.86542 0.11212 0.77455
 O942 O 0.86367 0.25215 0.86294
 O943 O 0.56529 0.25531 0.78016
 O944 O 0.56346 0.34708 0.75462
 O945 O 0.71185 0.42967 0.78983
 O946 O 0.81052 0.43561 0.75102
 O947 O 0.72150 0.28521 0.93390
 O948 O 0.75000 0.17721 0.93121
 Zr949 Zr 0.70936 0.22625 0.85485
 O950 O 0.76551 0.16513 0.79871
 Zr951 Zr 0.77356 0.35209 0.78999
 O952 O 0.83181 0.29777 0.72872
 Zr953 Zr 0.64379 0.29187 0.72988
 O954 O 0.69560 0.23129 0.66713
 Zr955 Zr 0.84998 0.21100 0.77310
 O956 O 0.79792 0.26874 0.83664
 Zr957 Zr 0.72245 0.14733 0.71140
 O958 O 0.66293 0.20336 0.77127
 Zr959 Zr 0.78405 0.27209 0.64619
 O960 O 0.72862 0.33496 0.70281
 O961 O 0.68726 0.31275 0.81512
 O962 O 0.80881 0.18648 0.68644
 C963 C 0.56178 0.24612 0.83977
 C964 C 0.75128 0.33739 0.93750
 C965 C 0.66795 0.43823 0.74952
 C966 C 0.93371 0.24815 0.65988
 C967 C 0.83694 0.06427 0.74926
 C968 C 0.74979 0.15900 0.56253
 H969 H 0.77132 0.12695 0.82439
 H970 H 0.67168 0.22080 0.62869
 H971 H 0.66081 0.34018 0.84254
 H972 H 0.86871 0.32424 0.71866
 H973 H 0.96204 0.21190 0.82332
 H974 H 0.89056 0.37474 0.80035
 H975 H 0.60431 0.13366 0.71212
 H976 H 0.53793 0.35488 0.71651
 H977 H 0.88097 0.22001 0.89149
 H978 H 0.79031 0.19809 0.94207
 H979 H 0.69644 0.29518 0.56410
 H980 H 0.54975 0.25499 0.66339
 H981 H 0.67540 0.11265 0.87383
 H982 H 0.69530 0.05837 0.78888
 H983 H 0.79154 0.43917 0.70872
 H984 H 0.77978 0.38823 0.61796
   
