data_POSCAR
  _audit_creation_date              2014-09-24
  _audit_creation_method            'ToBaCCo'
  _symmetry_space_group_name_H-M    'P1'
  _symmetry_Int_Tables_number       1
  _symmetry_cell_setting            triclinic
  loop_
  _symmetry_equiv_pos_as_xyz
 x,y,z
_cell_length_a 19.2282
_cell_length_b 19.6588
_cell_length_c 19.4680
_cell_angle_alpha 89.793300
_cell_angle_beta 90.093400
_cell_angle_gamma 90.002900
loop_
  _atom_site_label
  _atom_site_type_symbol
  _atom_site_fract_x
  _atom_site_fract_y
  _atom_site_fract_z
C1 C 0.31356 0.40570 1.36974
 C2 C 0.36397 0.40741 1.31734
 C3 C 0.40921 0.35315 1.30979
 C4 C 0.40634 0.29770 1.35513
 C5 C 0.35861 0.29741 1.40821
 C6 C 0.30937 0.34987 1.41326
 C7 C 0.25884 0.44794 1.38589
 N8 N 0.21932 0.41717 1.43491
 C9 C 0.24961 0.35699 1.45184
 C10 C 0.37177 0.24041 1.44745
 N11 N 0.42414 0.20485 1.41754
 C12 C 0.44447 0.23848 1.36000
 C13 C 0.44908 0.36570 1.25271
 N14 N 0.42909 0.42590 1.22457
 C15 C 0.37702 0.45200 1.26370
 H16 H 0.24572 0.49515 1.36008
 H17 H 0.22935 0.32087 1.48887
 H18 H 0.34443 0.22522 1.49362
 H19 H 0.48643 0.22294 1.32648
 H20 H 0.48815 0.33208 1.23162
 H21 H 0.34880 0.49836 1.25235
 C22 C 1.18818 0.59154 0.86926
 C23 C 1.14116 0.59244 0.81452
 C24 C 1.08521 0.63657 0.81542
 C25 C 1.07715 0.68216 0.87031
 C26 C 1.12526 0.68224 0.92354
 C27 C 1.18068 0.63573 0.92378
 C28 C 1.24876 0.55662 0.87893
 N29 N 1.27896 0.57790 0.93823
 C30 C 1.23765 0.62644 0.96647
 C31 C 1.11203 0.73854 0.96289
 N32 N 1.05734 0.77291 0.93510
 C33 C 1.03458 0.73796 0.87928
 C34 C 1.05012 0.62782 0.75434
 N35 N 1.08425 0.58034 0.71663
 C36 C 1.14021 0.55858 0.75272
 H37 H 1.27043 0.51954 0.84391
 H38 H 1.24946 0.65469 1.01269
 H39 H 1.14335 0.75593 1.00568
 H40 H 0.99485 0.75544 0.84388
 H41 H 1.00379 0.65468 0.73792
 H42 H 1.17693 0.52054 0.73551
 C43 C 0.68269 -0.08151 0.13186
 C44 C 0.63740 -0.08474 0.18781
 C45 C 0.58529 -0.13332 0.18956
 C46 C 0.57963 -0.18115 0.13642
 C47 C 0.62643 -0.17920 0.08239
 C48 C 0.67746 -0.12821 0.07923
 C49 C 0.74083 -0.04297 0.12003
 N50 N 0.77162 -0.06503 0.06145
 C51 C 0.73295 -0.11697 0.03568
 C52 C 0.61647 -0.23723 0.04466
 N53 N 0.56444 -0.27425 0.07379
 C54 C 0.54063 -0.23978 0.12940
 C55 C 0.55153 -0.12608 0.25132
 N56 N 0.58290 -0.07538 0.28698
 C57 C 0.63563 -0.04984 0.24892
 H58 H 0.76143 -0.00424 0.15390
 H59 H 0.74662 -0.14727 -0.00864
 H60 H 0.64723 -0.25290 0.00091
 H61 H 0.50196 -0.25852 0.16515
 H62 H 0.50829 -0.15630 0.26977
 H63 H 0.66961 -0.00873 0.26442
 C64 C -0.18488 1.09321 -0.37098
 C65 C -0.13271 1.08941 -0.32056
 C66 C -0.08740 1.14339 -0.31188
 C67 C -0.09233 1.20105 -0.35416
 C68 C -0.14197 1.20351 -0.40569
 C69 C -0.19111 1.15086 -0.41172
 C70 C -0.24004 1.05141 -0.38633
 N71 N -0.28191 1.08381 -0.43223
 C72 C -0.25269 1.14486 -0.44803
 C73 C -0.13034 1.26244 -0.44243
 N74 N -0.07720 1.29696 -0.41231
 C75 C -0.05479 1.26081 -0.35708
 C76 C -0.04686 1.12899 -0.25563
 N77 N -0.06701 1.06818 -0.22894
 C78 C -0.11942 1.04333 -0.26843
 H79 H -0.25168 1.00316 -0.36187
 H80 H -0.27493 1.18234 -0.48254
 H81 H -0.15886 1.27936 -0.48737
 H82 H -0.01142 1.27473 -0.32447
 H83 H -0.00853 1.16255 -0.23302
 H84 H -0.14874 0.99757 -0.25739
 C85 C 0.67150 0.57108 0.61435
 C86 C 0.62416 0.57147 0.66858
 C87 C 0.57172 0.61969 0.67044
 C88 C 0.56734 0.66941 0.61873
 C89 C 0.61641 0.67070 0.56666
 C90 C 0.66816 0.62044 0.56367
 C91 C 0.73190 0.53544 0.60515
 N92 N 0.76565 0.56168 0.55009
 C93 C 0.72721 0.61372 0.52412
 C94 C 0.60890 0.73165 0.53264
 N95 N 0.55594 0.76690 0.56200
 C96 C 0.52937 0.72872 0.61398
 C97 C 0.53942 0.61316 0.73312
 N98 N 0.57193 0.56313 0.76889
 C99 C 0.62373 0.53717 0.73023
 H100 H 0.75232 0.49643 0.63906
 H101 H 0.74358 0.64741 0.48311
 H102 H 0.64223 0.75062 0.49206
 H103 H 0.49005 0.74562 0.64986
 H104 H 0.49791 0.64473 0.75286
 H105 H 0.65976 0.49806 0.74681
 C106 C 0.83437 0.42220 0.11749
 C107 C 0.88385 0.42315 0.17091
 C108 C 0.92628 0.36703 0.18175
 C109 C 0.92102 0.30992 0.13915
 C110 C 0.87431 0.31029 0.08520
 C111 C 0.82851 0.36503 0.07646
 C112 C 0.77929 0.46442 0.10095
 N113 N 0.73866 0.43223 0.05399
 C114 C 0.76795 0.37128 0.03928
 C115 C 0.88282 0.25039 0.05012
 N116 N 0.93144 0.21240 0.08325
 C117 C 0.95397 0.24744 0.13898
 C118 C 0.96328 0.37830 0.24092
 N119 N 0.94394 0.43925 0.26729
 C120 C 0.89546 0.46724 0.22484
 H121 H 0.76562 0.51124 0.12680
 H122 H 0.74502 0.33289 0.00651
 H123 H 0.85487 0.23497 0.00439
 H124 H 0.99405 0.23046 0.17422
 H125 H 0.99821 0.34253 0.26559
 H126 H 0.86728 0.51382 0.23494
 C127 C 0.31957 0.07998 0.87636
 C128 C 0.37520 0.07250 0.83008
 C129 C 0.42652 0.12183 0.82706
 C130 C 0.42368 0.17834 0.87057
 C131 C 0.36800 0.18634 0.91480
 C132 C 0.31467 0.13793 0.91631
 C133 C 0.26056 0.04221 0.88859
 N134 N 0.21903 0.07727 0.93253
 C135 C 0.25118 0.13640 0.94904
 C136 C 0.37688 0.24723 0.94808
 N137 N 0.43653 0.27588 0.92512
 C138 C 0.46519 0.23506 0.87699
 C139 C 0.46690 0.10840 0.77058
 N140 N 0.44100 0.05279 0.73829
 C141 C 0.38555 0.02972 0.77488
 H142 H 0.24729 -0.00581 0.86481
 H143 H 0.23054 0.17471 0.98327
 H144 H 0.34200 0.26983 0.98518
 H145 H 0.51205 0.24633 0.84838
 H146 H 0.50793 0.14065 0.75072
 H147 H 0.35091 -0.01054 0.75851
 C148 C 0.17967 0.92550 0.37589
 C149 C 0.13491 0.92246 0.31933
 C150 C 0.08154 0.87534 0.31834
 C151 C 0.07375 0.82909 0.37274
 C152 C 0.11948 0.83091 0.42778
 C153 C 0.17231 0.88015 0.42994
 C154 C 0.23985 0.96115 0.38654
 N155 N 0.26998 0.93844 0.44546
 C156 C 0.22875 0.88920 0.47287
 C157 C 0.10813 0.77300 0.46598
 N158 N 0.05675 0.73639 0.43560
 C159 C 0.03476 0.77065 0.37901
 C160 C 0.04901 0.88131 0.25576
 N161 N 0.08209 0.93004 0.21872
 C162 C 0.13500 0.95546 0.25673
 H163 H 0.26249 0.99772 0.35131
 H164 H 0.24141 0.85875 0.51765
 H165 H 0.13870 0.75610 0.50958
 H166 H -0.00186 0.75120 0.34161
 H167 H 0.00512 0.85170 0.23786
 H168 H 0.17019 0.99529 0.24030
 Zn169 Zn 0.01686 1.07741 -0.03916
 Zn170 Zn -0.05609 0.94614 -0.05681
 Zn171 Zn 0.07854 0.95736 0.01493
 Zn172 Zn -0.04013 1.01577 0.07810
 O173 O -0.00195 0.99729 -0.00233
 O174 O -0.00376 1.07915 -0.12791
 O175 O -0.01618 0.86407 -0.07358
 O176 O 0.14436 0.99270 -0.03931
 O177 O -0.07165 0.98831 -0.13866
 O178 O 0.10879 1.09891 -0.02916
 O179 O 0.07553 0.86931 -0.00449
 O180 O -0.00453 0.96336 0.14334
 O181 O -0.13910 0.93066 -0.01570
 O182 O 0.10340 0.96435 0.10492
 O183 O -0.13001 0.99590 0.07703
 O184 O -0.02941 1.10444 0.10332
 O185 O -0.03781 1.14169 -0.00290
 C186 C -0.04576 1.04321 -0.16279
 C187 C 0.03768 0.83680 -0.04668
 C188 C 0.15604 1.05603 -0.04459
 C189 C 0.05981 0.95387 0.15301
 C190 C -0.16452 0.95503 0.03958
 C191 C -0.04436 1.15162 0.06101
 Zn192 Zn 0.46125 0.01172 0.42624
 Zn193 Zn 0.44522 -0.05866 0.56016
 Zn194 Zn 0.58116 -0.04386 0.49006
 Zn195 Zn 0.51470 0.07463 0.54359
 O196 O 0.49935 -0.00613 0.50690
 O197 O 0.37132 -0.00655 0.42730
 O198 O 0.48334 -0.14192 0.57203
 O199 O 0.60425 -0.03853 0.39962
 O200 O 0.36045 -0.07017 0.52121
 O201 O 0.49615 -0.04140 0.36159
 O202 O 0.58067 -0.13198 0.51164
 O203 O 0.60575 0.10017 0.53183
 O204 O 0.43354 -0.02120 0.64414
 O205 O 0.64696 -0.00436 0.54162
 O206 O 0.49573 0.07361 0.63352
 O207 O 0.45649 0.13659 0.50638
 O208 O 0.47179 0.10006 0.40089
 C209 C 0.33527 -0.04492 0.46603
 C210 C 0.53903 -0.16746 0.54765
 C211 C 0.56048 -0.05061 0.35203
 C212 C 0.65570 0.05958 0.54589
 C213 C 0.45844 0.03343 0.66936
 C214 C 0.45182 0.14613 0.44202
 Zn215 Zn 0.96163 0.49096 0.57795
 Zn216 Zn 1.01714 0.42527 0.46242
 Zn217 Zn 0.94724 0.55742 0.44090
 Zn218 Zn 1.08264 0.54561 0.51285
 O219 O 1.00088 0.50687 0.49702
 O220 O 0.96950 0.40235 0.60486
 O221 O 0.99849 0.42317 0.37285
 O222 O 0.86162 0.56805 0.47653
 O223 O 0.95860 0.36390 0.49952
 O224 O 0.87187 0.51142 0.57509
 O225 O 0.93730 0.51787 0.35764
 O226 O 1.08197 0.63287 0.48810
 O227 O 1.10844 0.40070 0.47468
 O228 O 0.98364 0.64127 0.42866
 O229 O 1.14851 0.50531 0.46199
 O230 O 1.10551 0.54340 0.60382
 O231 O 0.99752 0.54416 0.64246
 C232 C 0.95120 0.35555 0.56369
 C233 C 0.96170 0.46196 0.33507
 C234 C 0.83586 0.54559 0.53240
 C235 C 1.03939 0.66742 0.45224
 C236 C 1.15761 0.44140 0.45847
 C237 C 1.06178 0.55483 0.65161
 Zn238 Zn 0.53074 0.42114 1.04080
 Zn239 Zn 0.45083 0.55302 1.05707
 Zn240 Zn 0.58439 0.54781 0.97754
 Zn241 Zn 0.45864 0.48048 0.92221
 O242 O 0.50597 0.50092 0.99997
 O243 O 0.49545 0.41502 1.12532
 O244 O 0.49142 0.63381 1.07865
 O245 O 0.66256 0.50983 1.01133
 O246 O 0.43220 0.50877 1.13702
 O247 O 0.62332 0.40991 1.04700
 O248 O 0.58381 0.63130 1.01106
 O249 O 0.49870 0.51112 0.84668
 O250 O 0.36721 0.57475 1.01789
 O251 O 0.59517 0.55837 0.88628
 O252 O 0.37629 0.51745 0.92095
 O253 O 0.44339 0.39238 0.90931
 O254 O 0.49774 0.34721 0.99837
 C255 C 0.45376 0.45163 1.15980
 C256 C 0.54560 0.66207 1.05390
 C257 C 0.67315 0.45113 1.03664
 C258 C 0.55501 0.54273 0.83696
 C259 C 0.34231 0.55618 0.96021
 C260 C 0.46110 0.34124 0.94467
   
