data_POSCAR
  _audit_creation_date              2014-09-24
  _audit_creation_method            'ToBaCCo'
  _symmetry_space_group_name_H-M    'P1'
  _symmetry_Int_Tables_number       1
  _symmetry_cell_setting            triclinic
  loop_
  _symmetry_equiv_pos_as_xyz
 x,y,z
_cell_length_a 28.0813
_cell_length_b 30.7648
_cell_length_c 19.4674
_cell_angle_alpha 89.930800
_cell_angle_beta 89.814800
_cell_angle_gamma 89.989400
loop_
  _atom_site_label
  _atom_site_type_symbol
  _atom_site_fract_x
  _atom_site_fract_y
  _atom_site_fract_z
C1 C 0.13264 0.22728 0.12101
 C2 C 0.13300 0.27165 0.12071
 C3 C 0.16616 0.28455 0.16895
 N4 N 0.18579 0.24911 0.19919
 C5 C 0.16615 0.21368 0.16905
 C6 C 0.17411 0.32839 0.18837
 C7 C 0.20740 0.34113 0.23893
 C8 C 0.21006 0.38221 0.26828
 C9 C 0.24879 0.38214 0.31115
 C10 C 0.26928 0.34134 0.30610
 N11 N 0.24387 0.31653 0.26214
 C12 C 0.31251 0.32900 0.33724
 C13 C 0.32834 0.28556 0.33931
 C14 C 0.37482 0.27310 0.35208
 C15 C 0.37514 0.22866 0.35221
 C16 C 0.32856 0.21533 0.34079
 N17 N 0.30002 0.25029 0.33213
 C18 C 0.31262 0.17164 0.34072
 C19 C 0.26823 0.15977 0.31146
 C20 C 0.24390 0.12177 0.32603
 C21 C 0.20450 0.12111 0.28471
 C22 C 0.20486 0.15924 0.24598
 N23 N 0.24397 0.18274 0.26343
 C24 C 0.17323 0.16978 0.19099
 H25 H 0.10762 0.20813 0.09194
 H26 H 0.10936 0.29182 0.09066
 H27 H 0.25672 0.21022 0.23810
 H28 H 0.18722 0.40991 0.25945
 H29 H 0.26090 0.40941 0.34149
 H30 H 0.40554 0.29385 0.35908
 H31 H 0.40650 0.20866 0.35860
 H32 H 0.17904 0.09494 0.28525
 H33 H 0.25421 0.28647 0.24297
 H34 H 0.25320 0.09695 0.36305
 C35 C 0.61558 0.27221 0.33393
 C36 C 0.61561 0.22762 0.33444
 C37 C 0.66083 0.21478 0.31415
 N38 N 0.68830 0.24983 0.30093
 C39 C 0.66077 0.28494 0.31334
 C40 C 0.67773 0.17167 0.31367
 C41 C 0.72117 0.16029 0.28207
 C42 C 0.74709 0.12304 0.29585
 C43 C 0.78565 0.12342 0.25199
 C44 C 0.78155 0.16049 0.21153
 N45 N 0.74246 0.18304 0.23111
 C46 C 0.81049 0.17169 0.15445
 C47 C 0.81047 0.21471 0.12873
 C48 C 0.82304 0.22699 0.06269
 C49 C 0.82265 0.27158 0.06148
 C50 C 0.81042 0.28523 0.12720
 N51 N 0.80213 0.25027 0.16783
 C52 C 0.81025 0.32878 0.15160
 C53 C 0.78124 0.33960 0.20931
 C54 C 0.78633 0.37543 0.25237
 C55 C 0.74792 0.37554 0.29634
 C56 C 0.72120 0.33919 0.28070
 N57 N 0.74179 0.31722 0.22831
 C58 C 0.67775 0.32797 0.31241
 H59 H 0.58585 0.29282 0.34780
 H60 H 0.58589 0.20710 0.34873
 H61 H 0.72701 0.29083 0.20239
 H62 H 0.73929 0.09841 0.33400
 H63 H 0.81341 0.09910 0.25103
 H64 H 0.83086 0.20607 0.01946
 H65 H 0.82969 0.29138 0.01665
 H66 H 0.74099 0.39918 0.33627
 H67 H 0.72826 0.21001 0.20596
 H68 H 0.81494 0.39886 0.25400
 C69 C 0.82951 0.72869 0.90855
 C70 C 0.82982 0.77325 0.90758
 C71 C 0.82000 0.78562 0.84072
 N72 N 0.81336 0.75014 0.80085
 C73 C 0.82008 0.71514 0.84193
 C74 C 0.82073 0.82871 0.81534
 C75 C 0.79241 0.84015 0.75801
 C76 C 0.79623 0.87771 0.71865
 C77 C 0.75797 0.87803 0.67447
 C78 C 0.73252 0.84031 0.68708
 N79 N 0.75385 0.81732 0.73749
 C80 C 0.68904 0.82896 0.65590
 C81 C 0.67229 0.78576 0.65521
 C82 C 0.62664 0.77298 0.63738
 C83 C 0.62647 0.72841 0.63817
 C84 C 0.67202 0.71556 0.65646
 N85 N 0.69994 0.75063 0.66713
 C86 C 0.68859 0.67234 0.65796
 C87 C 0.73218 0.66105 0.68882
 C88 C 0.75827 0.62411 0.67409
 C89 C 0.79668 0.62413 0.71781
 C90 C 0.79221 0.66058 0.75975
 N91 N 0.75316 0.68329 0.74031
 C92 C 0.82087 0.67162 0.81744
 H93 H 0.83458 0.70881 0.95380
 H94 H 0.83562 0.79410 0.95149
 H95 H 0.73863 0.71004 0.76574
 H96 H 0.82345 0.90248 0.72076
 H97 H 0.74991 0.90307 0.63717
 H98 H 0.59655 0.79351 0.62514
 H99 H 0.59626 0.70791 0.62655
 H100 H 0.82470 0.60011 0.71690
 H101 H 0.73974 0.79005 0.76204
 H102 H 0.75078 0.59999 0.63516
 C103 C 0.38628 0.77163 0.66502
 C104 C 0.38628 0.72704 0.66494
 C105 C 0.34111 0.71423 0.68556
 N106 N 0.31366 0.74929 0.69865
 C107 C 0.34112 0.78438 0.68568
 C108 C 0.32404 0.67121 0.68583
 C109 C 0.28068 0.65992 0.71780
 C110 C 0.25387 0.62359 0.70235
 C111 C 0.21554 0.62373 0.74656
 C112 C 0.22075 0.65960 0.78952
 N113 N 0.26021 0.68189 0.77028
 C114 C 0.19222 0.67056 0.84768
 C115 C 0.19347 0.71384 0.87282
 C116 C 0.18477 0.72680 0.93991
 C117 C 0.18470 0.77138 0.93985
 C118 C 0.19336 0.78437 0.87272
 N119 N 0.19969 0.74912 0.83210
 C120 C 0.19213 0.82766 0.84748
 C121 C 0.22056 0.83860 0.78923
 C122 C 0.21521 0.87443 0.74608
 C123 C 0.25360 0.87472 0.70203
 C124 C 0.28056 0.83850 0.71776
 N125 N 0.26012 0.81644 0.77021
 C126 C 0.32404 0.82740 0.68612
 H127 H 0.41594 0.79222 0.65072
 H128 H 0.41595 0.70648 0.65058
 H129 H 0.27506 0.79012 0.79625
 H130 H 0.26070 0.59991 0.66243
 H131 H 0.18699 0.60026 0.74505
 H132 H 0.18001 0.70644 0.98475
 H133 H 0.17989 0.79172 0.98463
 H134 H 0.26039 0.89843 0.66204
 H135 H 0.27503 0.70830 0.79611
 H136 H 0.18653 0.89779 0.74445
 O137 O 1.04603 -0.05769 0.02021
 O138 O 0.94891 0.01457 0.07747
 O139 O 0.95544 -0.05764 0.00728
 O140 O 1.04146 0.01469 0.09184
 O141 O 1.05054 0.05153 -0.00482
 O142 O 0.95914 -0.01718 -0.08651
 O143 O 0.95940 0.05528 -0.01497
 O144 O 1.05229 -0.01977 -0.07590
 Cu145 Cu 0.99727 -0.02518 0.05905
 Cu146 Cu 1.00587 0.02114 -0.05541
 C147 C 1.06492 -0.05147 -0.03832
 C148 C 0.93860 0.04784 0.04178
 C149 C 0.94285 -0.04983 -0.05400
 C150 C 1.06065 0.04540 0.05796
 O151 O 0.45261 0.48415 0.41648
 O152 O 0.54696 0.55541 0.48292
 O153 O 0.54496 0.48397 0.41101
 O154 O 0.45477 0.55532 0.48993
 O155 O 0.45743 0.51630 0.58520
 O156 O 0.54742 0.44499 0.50635
 O157 O 0.55001 0.51652 0.57830
 O158 O 0.45541 0.44528 0.51191
 Cu159 Cu 0.49949 0.52364 0.44051
 Cu160 Cu 0.50284 0.47692 0.55508
 C161 C 0.43842 0.45223 0.45252
 C162 C 0.56426 0.54834 0.54204
 C163 C 0.56108 0.45200 0.44510
 C164 C 0.44115 0.54823 0.55122
 O165 O -0.04615 0.55763 0.00680
 O166 O 0.03813 0.48362 0.09114
 O167 O 0.04464 0.55636 0.01963
 O168 O -0.05376 0.48488 0.07517
 O169 O -0.04331 0.44469 -0.01768
 O170 O 0.05059 0.51921 -0.07712
 O171 O 0.04802 0.44783 -0.00622
 O172 O -0.04257 0.51788 -0.08758
 Cu173 Cu -0.00488 0.52429 0.05799
 Cu174 Cu 0.00371 0.47877 -0.05706
 C175 C -0.05870 0.55039 -0.05462
 C176 C 0.05740 0.45316 0.05697
 C177 C 0.06359 0.55042 -0.03896
 C178 C -0.06425 0.45191 0.03901
 O179 O 0.54207 1.01715 0.41071
 O180 O 0.45335 0.94480 0.49068
 O181 O 0.44932 1.01648 0.41882
 O182 O 0.54542 0.94556 0.48246
 O183 O 0.54861 0.98370 0.57844
 O184 O 0.45422 1.05562 0.51362
 O185 O 0.45605 0.98375 0.58587
 O186 O 0.54602 1.05517 0.50676
 Cu187 Cu 0.49713 0.97717 0.44100
 Cu188 Cu 0.50147 1.02336 0.55586
 C189 C 0.55897 1.04860 0.44510
 C190 C 0.43995 0.95171 0.55205
 C191 C 0.43606 1.04861 0.45504
 C192 C 0.56297 0.95229 0.54154
 N193 N 1.12614 0.10356 0.19299
 C194 C 1.14740 0.13628 0.15736
 N195 N 1.14197 0.13695 0.08795
 N196 N 1.11543 0.10737 0.05611
 C197 C 1.09347 0.07543 0.09229
 N198 N 1.09968 0.07379 0.16130
 N199 N 0.64114 0.64409 0.56150
 C200 C 0.65963 0.63797 0.62514
 N201 N 0.64850 0.60106 0.65997
 N202 N 0.61907 0.57183 0.63278
 C203 C 0.59991 0.57839 0.56966
 N204 N 0.61184 0.61484 0.53427
 N205 N -0.16450 0.40367 0.13422
 C206 C -0.15979 0.36057 0.12001
 N207 N -0.12437 0.34861 0.07608
 N208 N -0.09503 0.37788 0.04858
 C209 C -0.09938 0.42056 0.06450
 N210 N -0.13469 0.43300 0.10782
 N211 N 0.36302 0.89918 0.68119
 C212 C 0.35143 0.86140 0.64936
 N213 N 0.36729 0.85446 0.58434
 N214 N 0.39443 0.88384 0.55273
 C215 C 0.40677 0.92124 0.58497
 N216 N 0.39036 0.92852 0.64964
 N217 N -0.11612 0.65284 -0.10321
 C218 C -0.14928 0.64025 -0.14990
 N219 N -0.15224 0.59707 -0.16457
 N220 N -0.12340 0.56821 -0.13489
 C221 C -0.09086 0.58131 -0.08801
 N222 N -0.08791 0.62410 -0.07248
 N223 N 0.34404 1.09845 0.34583
 C224 C 0.34139 1.13941 0.37195
 N225 N 0.36842 1.14912 0.42768
 N226 N 0.39739 1.11970 0.45523
 C227 C 0.40084 1.07932 0.42794
 N228 N 0.37349 1.06910 0.37289
 N229 N 1.16442 -0.09810 -0.13670
 C230 C 1.16180 -0.14107 -0.12056
 N231 N 1.12803 -0.15349 -0.07420
 N232 N 1.09824 -0.12477 -0.04628
 C233 C 1.10049 -0.08225 -0.06417
 N234 N 1.13416 -0.06938 -0.10985
 N235 N 0.63442 0.35510 0.41393
 C236 C 0.65024 0.36196 0.34884
 N237 N 0.63845 0.39961 0.31663
 N238 N 0.61094 0.42890 0.34788
 C239 C 0.59455 0.42169 0.41260
 N240 N 0.60710 0.38443 0.44523
 N241 N 0.89020 -0.15212 -0.11278
 C242 C 0.85236 -0.13862 -0.15056
 N243 N 0.84452 -0.09511 -0.15628
 N244 N 0.87346 -0.06650 -0.12626
 C245 C 0.91080 -0.08042 -0.08805
 N246 N 0.91850 -0.12370 -0.08160
 N247 N 0.36037 0.35721 0.43320
 C248 C 0.34302 0.36281 0.36876
 N249 N 0.35597 0.39879 0.33280
 N250 N 0.38554 0.42786 0.36007
 C251 C 0.40316 0.42203 0.42431
 N252 N 0.38989 0.38627 0.46046
 N253 N 0.16387 0.59646 -0.13660
 C254 C 0.16161 0.63941 -0.12042
 N255 N 0.12787 0.65198 -0.07413
 N256 N 0.09777 0.62345 -0.04634
 C257 C 0.09965 0.58095 -0.06429
 N258 N 0.13329 0.56792 -0.10989
 N259 N 0.63694 1.10072 0.31686
 C260 C 0.64977 1.13780 0.34972
 N261 N 0.63425 1.14442 0.41499
 N262 N 0.60631 1.11539 0.44591
 C263 C 0.59275 1.07870 0.41268
 N264 N 0.60880 1.07173 0.34773
 N265 N 0.14717 0.36803 0.08535
 C266 C 0.14516 0.36263 0.15456
 N267 N 0.11497 0.38797 0.19162
 N268 N 0.08793 0.41765 0.16066
 C269 C 0.08967 0.42273 0.09142
 N270 N 0.11970 0.39732 0.05429
 N271 N 0.64120 0.85721 0.55966
 C272 C 0.65987 0.86329 0.62320
 N273 N 0.64836 0.89994 0.65833
 N274 N 0.61845 0.92895 0.63151
 C275 C 0.59912 0.92243 0.56852
 N276 N 0.61140 0.88625 0.53280
 N277 N 0.83410 0.09533 0.12807
 C278 C 0.84272 0.13869 0.12214
 N279 N 0.88243 0.15150 0.08753
 N280 N 0.91214 0.12247 0.06036
 C281 C 0.90385 0.07931 0.06772
 N282 N 0.86433 0.06618 0.10217
 N283 N 0.36340 0.59961 0.68030
 C284 C 0.35144 0.63741 0.64868
 N285 N 0.36728 0.64472 0.58370
 N286 N 0.39476 0.61569 0.55194
 C287 C 0.40749 0.57829 0.58402
 N288 N 0.39106 0.57063 0.64861
   
