data_POSCAR
  _audit_creation_date              2014-09-24
  _audit_creation_method            'ToBaCCo'
  _symmetry_space_group_name_H-M    'P1'
  _symmetry_Int_Tables_number       1
  _symmetry_cell_setting            triclinic
  loop_
  _symmetry_equiv_pos_as_xyz
 x,y,z
_cell_length_a 52.4294
_cell_length_b 52.3988
_cell_length_c 22.4458
_cell_angle_alpha 89.976600
_cell_angle_beta 90.021800
_cell_angle_gamma 119.605300
loop_
  _atom_site_label
  _atom_site_type_symbol
  _atom_site_fract_x
  _atom_site_fract_y
  _atom_site_fract_z
C1 C 0.49150 0.97366 0.53713
 C2 C 0.48986 0.97366 0.47394
 C3 C 0.50239 1.00051 0.44329
 C4 C 0.51709 1.02787 0.47261
 C5 C 0.51843 1.02807 0.53630
 C6 C 0.50582 1.00094 0.56662
 H7 H 0.50683 1.00104 0.61480
 H8 H 0.50146 0.99981 0.39505
 C9 C 0.02595 0.51901 0.53204
 C10 C 0.02618 0.51754 0.46913
 C11 C -0.00056 0.50352 0.43823
 C12 C -0.02790 0.49087 0.46766
 C13 C -0.02794 0.49185 0.53117
 C14 C -0.00108 0.50603 0.56190
 H15 H -0.00120 0.50666 0.61018
 H16 H 0.00019 0.50349 0.38999
 C17 C 0.48372 0.51236 0.53628
 C18 C 0.48379 0.51209 0.47291
 C19 C 0.49655 0.49773 0.44285
 C20 C 0.50932 0.48349 0.47330
 C21 C 0.50930 0.48332 0.53668
 C22 C 0.49645 0.49783 0.56665
 H23 H 0.49641 0.49786 0.61490
 H24 H 0.49659 0.49770 0.39452
 O25 O 0.37776 0.66186 -0.04436
 O26 O 0.37811 0.71170 -0.05734
 C27 C 0.36402 0.72471 -0.07167
 O28 O 0.33997 0.71943 -0.04730
 O29 O 0.29102 0.67123 -0.06684
 C30 C 0.27826 0.64453 -0.08203
 O31 O 0.28302 0.62562 -0.05690
 O32 O 0.33291 0.62703 -0.07036
 C33 C 0.36047 0.64053 -0.07732
 O34 O 0.37255 0.66583 0.07449
 O35 O 0.37569 0.71656 0.06143
 C36 C 0.35731 0.72211 0.08646
 O37 O 0.33068 0.71017 0.07109
 O38 O 0.28167 0.66209 0.05161
 C39 C 0.27565 0.63780 0.07601
 O40 O 0.28787 0.62295 0.06171
 O41 O 0.33680 0.62147 0.04826
 C42 C 0.35840 0.63824 0.08113
 Cr43 Cr 0.37427 0.68813 0.00826
 Cr44 Cr 0.31169 0.68981 0.00214
 Cr45 Cr 0.31105 0.62603 -0.00400
 O46 O 0.33228 0.66806 0.00215
 O47 O 0.61996 0.33775 -0.04384
 O48 O 0.62139 0.28880 -0.05707
 C49 C 0.63618 0.27649 -0.07113
 O50 O 0.66040 0.28247 -0.04649
 O51 O 0.70848 0.33154 -0.06601
 C52 C 0.72055 0.35824 -0.08105
 O53 O 0.71505 0.37663 -0.05587
 O54 O 0.66439 0.37349 -0.06969
 C55 C 0.63683 0.35931 -0.07674
 O56 O 0.62526 0.33381 0.07501
 O57 O 0.62387 0.28386 0.06158
 C58 C 0.64274 0.27909 0.08690
 O59 O 0.66946 0.29192 0.07194
 O60 O 0.71766 0.34085 0.05234
 C61 C 0.72289 0.36487 0.07689
 O62 O 0.70984 0.37895 0.06275
 O63 O 0.66004 0.37867 0.04888
 C64 C 0.63865 0.36140 0.08169
 Cr65 Cr 0.62437 0.31196 0.00864
 Cr66 Cr 0.68808 0.31255 0.00294
 Cr67 Cr 0.68647 0.37518 -0.00317
 O68 O 0.66638 0.33317 0.00280
 C69 C 0.45334 0.89572 -0.35769
 C70 C 0.45214 0.92075 -0.33951
 C71 C 0.46471 0.94616 -0.37407
 C72 C 0.47918 0.94762 -0.42799
 C73 C 0.48134 0.92282 -0.44491
 C74 C 0.46830 0.89714 -0.41066
 C75 C 0.43910 0.86848 -0.32100
 C76 C 0.45178 0.85041 -0.31516
 C77 C 0.43892 0.82559 -0.27843
 C78 C 0.41326 0.81843 -0.24601
 C79 C 0.40038 0.83627 -0.25271
 C80 C 0.41294 0.86074 -0.29008
 C81 C 0.40045 0.79313 -0.20387
 C82 C 0.36995 0.77694 -0.19435
 C83 C 0.35812 0.75464 -0.15166
 C84 C 0.37642 0.74755 -0.11836
 C85 C 0.40677 0.76295 -0.12908
 C86 C 0.41868 0.78566 -0.17094
 H87 H 0.44150 0.92083 -0.29826
 H88 H 0.46204 0.96437 -0.35924
 H89 H 0.49362 0.92333 -0.48406
 H90 H 0.46977 0.87835 -0.42606
 H91 H 0.47203 0.85575 -0.33786
 H92 H 0.44922 0.81212 -0.27532
 H93 H 0.38090 0.83183 -0.22799
 H94 H 0.40214 0.87370 -0.29442
 H95 H 0.35511 0.78150 -0.21979
 H96 H 0.33459 0.74284 -0.14485
 H97 H 0.42142 0.75806 -0.10375
 H98 H 0.44227 0.79788 -0.17612
 C99 C 0.10552 0.56032 -0.36361
 C100 C 0.08265 0.53197 -0.34964
 C101 C 0.05701 0.51873 -0.38363
 C102 C 0.05329 0.53362 -0.43185
 C103 C 0.07559 0.56230 -0.44479
 C104 C 0.10159 0.57533 -0.41168
 C105 C 0.13313 0.57405 -0.32781
 C106 C 0.14884 0.60455 -0.31801
 C107 C 0.17418 0.61715 -0.28284
 C108 C 0.18421 0.59958 -0.25540
 C109 C 0.16866 0.56913 -0.26584
 C110 C 0.14375 0.55663 -0.30205
 C111 C 0.20998 0.61262 -0.21430
 C112 C 0.22814 0.59999 -0.20820
 C113 C 0.25064 0.61063 -0.16588
 C114 C 0.25605 0.63465 -0.12981
 C115 C 0.23889 0.64816 -0.13747
 C116 C 0.21591 0.63708 -0.17870
 H117 H 0.08433 0.51996 -0.31204
 H118 H 0.04009 0.49667 -0.37243
 H119 H 0.07303 0.57452 -0.48098
 H120 H 0.11871 0.59702 -0.42437
 H121 H 0.14131 0.61875 -0.33642
 H122 H 0.18578 0.64073 -0.27702
 H123 H 0.17525 0.55467 -0.24499
 H124 H 0.13279 0.53318 -0.30956
 H125 H 0.22491 0.58170 -0.23578
 H126 H 0.26380 0.60003 -0.16124
 H127 H 0.24244 0.66655 -0.10976
 H128 H 0.20221 0.64714 -0.18098
 C129 C 0.44688 0.55454 -0.36123
 C130 C 0.46345 0.56815 -0.41244
 C131 C 0.47582 0.55453 -0.44605
 C132 C 0.47164 0.52670 -0.42979
 C133 C 0.45551 0.51354 -0.37754
 C134 C 0.44329 0.52721 -0.34398
 C135 C 0.43354 0.56874 -0.32528
 C136 C 0.40556 0.55177 -0.30001
 C137 C 0.39354 0.56469 -0.26350
 C138 C 0.40911 0.59497 -0.25160
 C139 C 0.43680 0.61210 -0.27806
 C140 C 0.44889 0.59913 -0.31445
 C141 C 0.39691 0.60825 -0.20988
 C142 C 0.41524 0.62983 -0.16885
 C143 C 0.40351 0.64085 -0.12683
 C144 C 0.37314 0.63042 -0.12459
 C145 C 0.35489 0.60939 -0.16657
 C146 C 0.36665 0.59851 -0.20883
 H147 H 0.46674 0.58929 -0.42683
 H148 H 0.48934 0.56627 -0.48387
 H149 H 0.45134 0.49205 -0.36344
 H150 H 0.43111 0.51635 -0.30413
 H151 H 0.39295 0.52838 -0.30822
 H152 H 0.37234 0.55076 -0.24335
 H153 H 0.44921 0.63554 -0.27041
 H154 H 0.47057 0.61280 -0.33288
 H155 H 0.43857 0.63754 -0.16786
 H156 H 0.41818 0.65699 -0.09505
 H157 H 0.33144 0.60109 -0.16646
 H158 H 0.35199 0.58232 -0.24051
 C159 C 0.55338 0.10560 -0.35760
 C160 C 0.53654 0.10278 -0.40852
 C161 C 0.52462 0.07721 -0.44302
 C162 C 0.52990 0.05401 -0.42860
 C163 C 0.54631 0.05680 -0.37681
 C164 C 0.55769 0.08205 -0.34184
 C165 C 0.56637 0.13275 -0.32059
 C166 C 0.59351 0.14256 -0.29201
 C167 C 0.60503 0.16694 -0.25444
 C168 C 0.59011 0.18273 -0.24532
 C169 C 0.56341 0.17352 -0.27544
 C170 C 0.55158 0.14873 -0.31221
 C171 C 0.60198 0.20801 -0.20315
 C172 C 0.58296 0.21371 -0.16849
 C173 C 0.59411 0.23647 -0.12675
 C174 C 0.62448 0.25366 -0.11777
 C175 C 0.64354 0.24833 -0.15269
 C176 C 0.63245 0.22602 -0.19537
 H177 H 0.53273 0.12043 -0.42219
 H178 H 0.51100 0.07555 -0.48073
 H179 H 0.55129 0.03981 -0.36401
 H180 H 0.56984 0.08297 -0.30215
 H181 H 0.60594 0.13131 -0.29835
 H182 H 0.62539 0.17295 -0.23153
 H183 H 0.55150 0.18537 -0.27052
 H184 H 0.53052 0.14177 -0.33299
 H185 H 0.55941 0.20008 -0.17223
 H186 H 0.57892 0.24001 -0.10007
 H187 H 0.66708 0.26154 -0.14718
 H188 H 0.64785 0.22290 -0.22218
 C189 C 0.89308 0.44803 -0.36304
 C190 C 0.89831 0.43300 -0.40925
 C191 C 0.92415 0.44691 -0.44273
 C192 C 0.94490 0.47647 -0.43225
 C193 C 0.93992 0.49142 -0.38586
 C194 C 0.91450 0.47733 -0.35137
 C195 C 0.86561 0.43335 -0.32686
 C196 C 0.85331 0.44967 -0.30299
 C197 C 0.82851 0.43636 -0.26657
 C198 C 0.81470 0.40612 -0.25410
 C199 C 0.82639 0.38958 -0.27966
 C200 C 0.85166 0.40304 -0.31493
 C201 C 0.78898 0.39226 -0.21293
 C202 C 0.78447 0.36865 -0.17596
 C203 C 0.76145 0.35683 -0.13487
 C204 C 0.74284 0.36878 -0.12865
 C205 C 0.74685 0.39195 -0.16596
 C206 C 0.76937 0.40327 -0.20822
 H207 H 0.88232 0.41060 -0.42027
 H208 H 0.92773 0.43473 -0.47755
 H209 H 0.95569 0.51414 -0.37649
 H210 H 0.91187 0.48947 -0.31518
 H211 H 0.86284 0.47288 -0.31218
 H212 H 0.82064 0.45009 -0.24720
 H213 H 0.81616 0.36616 -0.27232
 H214 H 0.86051 0.38968 -0.33177
 H215 H 0.79929 0.35986 -0.17708
 H216 H 0.75897 0.33913 -0.10612
 H217 H 0.73255 0.40132 -0.16237
 H218 H 0.77146 0.42081 -0.23686
 C219 C 0.54695 0.44208 -0.36015
 C220 C 0.53038 0.42821 -0.41123
 C221 C 0.51769 0.44149 -0.44498
 C222 C 0.52154 0.46922 -0.42902
 C223 C 0.53760 0.48260 -0.37683
 C224 C 0.55014 0.46928 -0.34311
 C225 C 0.56077 0.42833 -0.32422
 C226 C 0.58875 0.44574 -0.29925
 C227 C 0.60124 0.43325 -0.26284
 C228 C 0.58618 0.40297 -0.25074
 C229 C 0.55848 0.38541 -0.27688
 C230 C 0.54591 0.39796 -0.31318
 C231 C 0.59891 0.39014 -0.20915
 C232 C 0.58097 0.36844 -0.16792
 C233 C 0.59319 0.35787 -0.12597
 C234 C 0.62367 0.36890 -0.12399
 C235 C 0.64153 0.39004 -0.16619
 C236 C 0.62928 0.40045 -0.20839
 H237 H 0.52739 0.40717 -0.42544
 H238 H 0.50424 0.42958 -0.48275
 H239 H 0.54152 0.50403 -0.36294
 H240 H 0.56228 0.48031 -0.30335
 H241 H 0.60100 0.46913 -0.30764
 H242 H 0.62243 0.44749 -0.24292
 H243 H 0.54645 0.36197 -0.26908
 H244 H 0.52424 0.38396 -0.33139
 H245 H 0.55756 0.36029 -0.16672
 H246 H 0.57881 0.34164 -0.09401
 H247 H 0.66505 0.39878 -0.16629
 H248 H 0.64366 0.41674 -0.24023
 C249 C 0.89439 0.45285 0.36178
 C250 C 0.89619 0.46873 0.41358
 C251 C 0.92177 0.48162 0.44802
 C252 C 0.94609 0.47834 0.43267
 C253 C 0.94424 0.46280 0.38004
 C254 C 0.91893 0.45042 0.34517
 C255 C 0.86727 0.43904 0.32469
 C256 C 0.85878 0.41243 0.29486
 C257 C 0.83431 0.40014 0.25751
 C258 C 0.81717 0.41375 0.24981
 C259 C 0.82513 0.43993 0.28102
 C260 C 0.84997 0.45252 0.31762
 C261 C 0.79173 0.40109 0.20803
 C262 C 0.78471 0.41948 0.17441
 C263 C 0.76181 0.40765 0.13301
 C264 C 0.74578 0.37723 0.12340
 C265 C 0.75241 0.35877 0.15738
 C266 C 0.77489 0.37053 0.19966
 H267 H 0.87778 0.47114 0.42789
 H268 H 0.92260 0.49474 0.48594
 H269 H 0.96205 0.45924 0.36642
 H270 H 0.91873 0.43901 0.30484
 H271 H 0.87111 0.40102 0.30011
 H272 H 0.82926 0.38024 0.23368
 H273 H 0.81224 0.45081 0.27714
 H274 H 0.85591 0.47315 0.33934
 H275 H 0.79743 0.44311 0.17867
 H276 H 0.75727 0.42240 0.10708
 H277 H 0.74012 0.33519 0.15138
 H278 H 0.77906 0.35558 0.22568
 C279 C 0.55882 0.10546 0.36642
 C280 C 0.57278 0.10261 0.41747
 C281 C 0.55954 0.07691 0.45157
 C282 C 0.53145 0.05362 0.43688
 C283 C 0.51805 0.05627 0.38454
 C284 C 0.53155 0.08167 0.34987
 C285 C 0.57240 0.13303 0.33050
 C286 C 0.55470 0.14253 0.30185
 C287 C 0.56712 0.16758 0.26605
 C288 C 0.59771 0.18435 0.25882
 C289 C 0.61551 0.17536 0.28890
 C290 C 0.60302 0.14992 0.32384
 C291 C 0.61074 0.21035 0.21834
 C292 C 0.63610 0.21739 0.18492
 C293 C 0.64716 0.24051 0.14399
 C294 C 0.63279 0.25676 0.13456
 C295 C 0.60789 0.25029 0.16866
 C296 C 0.59720 0.22760 0.21058
 H297 H 0.59381 0.12038 0.43177
 H298 H 0.57148 0.07532 0.48941
 H299 H 0.49644 0.03915 0.37127
 H300 H 0.52043 0.08258 0.30997
 H301 H 0.53109 0.13058 0.30690
 H302 H 0.55255 0.17337 0.24304
 H303 H 0.63917 0.18791 0.28541
 H304 H 0.61743 0.14325 0.34463
 H305 H 0.64691 0.20441 0.18865
 H306 H 0.66627 0.24488 0.11789
 H307 H 0.59659 0.26271 0.16270
 H308 H 0.57815 0.22348 0.23652
 C309 C 0.55195 0.44701 0.36683
 C310 C 0.56754 0.46756 0.41193
 C311 C 0.55389 0.47969 0.44613
 C312 C 0.52425 0.47112 0.43672
 C313 C 0.50876 0.45090 0.39138
 C314 C 0.52245 0.43904 0.35675
 C315 C 0.56633 0.43411 0.32990
 C316 C 0.55044 0.40478 0.31072
 C317 C 0.56339 0.39301 0.27358
 C318 C 0.59271 0.41015 0.25514
 C319 C 0.60886 0.43927 0.27562
 C320 C 0.59580 0.45114 0.31231
 C321 C 0.60594 0.39799 0.21304
 C322 C 0.62537 0.41579 0.16826
 C323 C 0.63657 0.40407 0.12665
 C324 C 0.62835 0.37417 0.12833
 C325 C 0.60936 0.35644 0.17363
 C326 C 0.59844 0.36826 0.21570
 H327 H 0.59018 0.47402 0.42130
 H328 H 0.56637 0.49558 0.48036
 H329 H 0.48594 0.44416 0.38304
 H330 H 0.50995 0.42384 0.32157
 H331 H 0.52787 0.39084 0.32424
 H332 H 0.55013 0.37064 0.25819
 H333 H 0.63162 0.45299 0.26312
 H334 H 0.60865 0.47388 0.32575
 H335 H 0.63127 0.43864 0.16412
 H336 H 0.65101 0.41827 0.09208
 H337 H 0.60284 0.33338 0.17645
 H338 H 0.58402 0.35403 0.25026
 C339 C 0.10559 0.55522 0.36449
 C340 C 0.10184 0.53632 0.41245
 C341 C 0.07601 0.52377 0.44614
 C342 C 0.05373 0.53049 0.43370
 C343 C 0.05743 0.54932 0.38600
 C344 C 0.08286 0.56131 0.35153
 C345 C 0.13271 0.56821 0.32735
 C346 C 0.14350 0.59613 0.30152
 C347 C 0.16771 0.60760 0.26349
 C348 C 0.18239 0.59183 0.25125
 C349 C 0.17226 0.56435 0.27879
 C350 C 0.14760 0.55258 0.31585
 C351 C 0.20745 0.60362 0.20850
 C352 C 0.21221 0.58457 0.17179
 C353 C 0.23488 0.59568 0.12987
 C354 C 0.25287 0.62608 0.12268
 C355 C 0.24844 0.64518 0.15945
 C356 C 0.22626 0.63409 0.20239
 H357 H 0.11890 0.53133 0.42435
 H358 H 0.07348 0.50892 0.48210
 H359 H 0.04052 0.55475 0.37532
 H360 H 0.08444 0.57505 0.31413
 H361 H 0.13314 0.60922 0.31029
 H362 H 0.17443 0.62860 0.24266
 H363 H 0.18325 0.55174 0.27158
 H364 H 0.13988 0.53091 0.33432
 H365 H 0.19794 0.56105 0.17408
 H366 H 0.23772 0.58049 0.10169
 H367 H 0.26230 0.66873 0.15525
 H368 H 0.22390 0.64950 0.23074
 C369 C 0.44577 0.89437 0.36919
 C370 C 0.43106 0.89931 0.41647
 C371 C 0.44498 0.92529 0.44968
 C372 C 0.47421 0.94645 0.43761
 C373 C 0.48876 0.94180 0.39002
 C374 C 0.47467 0.91626 0.35593
 C375 C 0.43123 0.86673 0.33352
 C376 C 0.44783 0.85493 0.30881
 C377 C 0.43469 0.83008 0.27247
 C378 C 0.40437 0.81574 0.26089
 C379 C 0.38755 0.82689 0.28742
 C380 C 0.40083 0.85219 0.32270
 C381 C 0.39073 0.79010 0.21947
 C382 C 0.36688 0.78530 0.18303
 C383 C 0.35531 0.76245 0.14152
 C384 C 0.36773 0.74428 0.13437
 C385 C 0.39113 0.74856 0.17120
 C386 C 0.40223 0.77093 0.21384
 H387 H 0.40895 0.88298 0.42859
 H388 H 0.43314 0.92862 0.48558
 H389 H 0.51122 0.95792 0.37946
 H390 H 0.48650 0.91385 0.31886
 H391 H 0.47114 0.86493 0.31719
 H392 H 0.44861 0.82263 0.25238
 H393 H 0.36407 0.81621 0.28077
 H394 H 0.38726 0.86063 0.34034
 H395 H 0.35770 0.79979 0.18490
 H396 H 0.33741 0.75976 0.11321
 H397 H 0.40087 0.73461 0.16695
 H398 H 0.42000 0.77326 0.24205
 C399 C 0.44200 0.54924 0.36570
 C400 C 0.47142 0.55685 0.35578
 C401 C 0.48481 0.54472 0.39059
 C402 C 0.46911 0.52460 0.43594
 C403 C 0.43953 0.51635 0.44511
 C404 C 0.42618 0.52875 0.41072
 C405 C 0.42800 0.56256 0.32880
 C406 C 0.39852 0.54595 0.31100
 C407 C 0.38582 0.55825 0.27441
 C408 C 0.40235 0.58739 0.25428
 C409 C 0.43170 0.60411 0.27289
 C410 C 0.44428 0.59192 0.30992
 C411 C 0.38951 0.60005 0.21237
 C412 C 0.39753 0.62991 0.21544
 C413 C 0.38709 0.64223 0.17343
 C414 C 0.36806 0.62490 0.12781
 C415 C 0.35926 0.59486 0.12580
 C416 C 0.36999 0.58262 0.16734
 H417 H 0.48408 0.57199 0.32065
 H418 H 0.50758 0.55122 0.38244
 H419 H 0.42688 0.50055 0.47934
 H420 H 0.40359 0.52257 0.41994
 H421 H 0.38537 0.52320 0.32422
 H422 H 0.36304 0.54484 0.26174
 H423 H 0.44526 0.62648 0.25775
 H424 H 0.46688 0.60555 0.32361
 H425 H 0.41201 0.64386 0.25022
 H426 H 0.39404 0.66539 0.17654
 H427 H 0.34476 0.58095 0.09097
 H428 H 0.36368 0.55968 0.16293
   
