data_POSCAR
  _audit_creation_date              2014-09-24
  _audit_creation_method            'ToBaCCo'
  _symmetry_space_group_name_H-M    'P1'
  _symmetry_Int_Tables_number       1
  _symmetry_cell_setting            triclinic
  loop_
  _symmetry_equiv_pos_as_xyz
 x,y,z
_cell_length_a 31.2647
_cell_length_b 29.1534
_cell_length_c 27.9291
_cell_angle_alpha 89.963700
_cell_angle_beta 87.885900
_cell_angle_gamma 89.367800
loop_
  _atom_site_label
  _atom_site_type_symbol
  _atom_site_fract_x
  _atom_site_fract_y
  _atom_site_fract_z
C1 C 0.25512 0.47605 1.00314
 C2 C 0.75965 0.49720 0.00388
 C3 C -0.01339 0.24552 0.53932
 C4 C 0.99640 0.78175 0.48831
 C5 C 0.49285 0.01734 0.23137
 C6 C 0.49906 -0.02538 0.74217
 C7 C 0.28535 0.05318 0.41799
 H8 H 0.26278 0.08110 0.42373
 C9 C 0.31556 0.05533 0.37977
 H10 H 0.31566 0.08462 0.35590
 C11 C 0.31408 -0.01832 0.44235
 H12 H 0.31335 -0.04700 0.46687
 C13 C 0.34528 -0.01703 0.40545
 H14 H 0.36875 -0.04456 0.40204
 N15 N 0.28528 0.01671 0.44849
 C16 C 0.20046 0.08227 0.55475
 H17 H 0.21732 0.07092 0.58573
 C18 C 0.16854 0.11625 0.56035
 H19 H 0.16162 0.13101 0.59540
 C20 C 0.18508 0.07344 0.47298
 H21 H 0.19042 0.05542 0.43942
 C22 C 0.15325 0.10748 0.47689
 H23 H 0.13470 0.11579 0.44600
 Zn24 Zn 0.24821 0.01127 0.50365
 N25 N 0.20853 0.06187 0.51136
 C26 C 0.30076 0.04227 0.57776
 N27 N 0.28414 0.00474 0.55667
 C28 C 0.29714 -0.03834 0.56864
 C29 C 0.32792 -0.04491 0.60303
 C30 C 0.33021 0.03716 0.61386
 C31 C 0.21195 -0.06465 0.45578
 C32 C 0.18245 -0.10006 0.45155
 C33 C 0.16286 -0.09083 0.53558
 C34 C 0.19228 -0.05544 0.53810
 N35 N 0.21532 -0.04236 0.49832
 H36 H 0.29182 0.07625 0.56593
 H37 H 0.28497 -0.06765 0.55001
 H38 H 0.33941 -0.07930 0.61030
 H39 H 0.34283 0.06742 0.63053
 H40 H 0.23012 -0.05315 0.42445
 H41 H 0.17743 -0.11516 0.41682
 H42 H 0.14259 -0.09884 0.56669
 H43 H 0.19536 -0.03683 0.57127
 C44 C 0.14454 0.12937 0.52103
 C45 C 0.34682 0.02056 0.37424
 C46 C 0.15669 -0.11233 0.49153
 C47 C 0.34434 -0.00693 0.62683
 C48 C 0.66806 0.03888 0.53365
 H49 H 0.66369 0.06544 0.50715
 C50 C 0.63589 0.03066 0.56859
 H51 H 0.60692 0.05140 0.56951
 C52 C 0.70970 -0.02280 0.56302
 H53 H 0.73770 -0.04470 0.55983
 C54 C 0.67852 -0.03196 0.59865
 H55 H 0.68297 -0.06041 0.62300
 N56 N 0.70372 0.01169 0.53095
 C57 C 0.80756 0.07196 0.44344
 H58 H 0.81143 0.04566 0.41627
 C59 C 0.83984 0.10419 0.44891
 H60 H 0.86841 0.10261 0.42580
 C61 C 0.76798 0.10267 0.51021
 H62 H 0.74098 0.10060 0.53539
 C63 C 0.79915 0.13606 0.51640
 H64 H 0.79582 0.15968 0.54625
 Zn65 Zn 0.74054 0.01600 0.47577
 N66 N 0.77345 0.07054 0.47514
 C67 C 0.70360 0.04531 0.38841
 N68 N 0.70529 0.01198 0.42244
 C69 C 0.67846 -0.02439 0.42232
 C70 C 0.64851 -0.02855 0.38694
 C71 C 0.67346 0.04289 0.35265
 C72 C 0.81186 -0.03023 0.50783
 C73 C 0.84341 -0.06420 0.50969
 C74 C 0.80786 -0.10567 0.44792
 C75 C 0.77734 -0.07042 0.44659
 N76 N 0.77992 -0.03361 0.47629
 H77 H 0.72458 0.07447 0.38996
 H78 H 0.67968 -0.04971 0.45058
 H79 H 0.62702 -0.05745 0.38781
 H80 H 0.67112 0.07046 0.32684
 H81 H 0.81313 -0.00058 0.53100
 H82 H 0.86949 -0.06043 0.53382
 H83 H 0.80611 -0.13450 0.42366
 H84 H 0.75214 -0.07233 0.42133
 C85 C 0.83669 0.13530 0.48713
 C86 C 0.64068 -0.00587 0.60071
 C87 C 0.84189 -0.10196 0.47891
 C88 C 0.64538 0.00560 0.35184
 C89 C 0.50035 0.17700 1.00994
 H90 H 0.49418 0.16302 0.97508
 C91 C 0.49323 0.15010 1.05058
 H92 H 0.48290 0.11499 1.04667
 C93 C 0.51983 0.23989 1.05799
 H94 H 0.52958 0.27506 1.06095
 C95 C 0.51310 0.21409 1.09968
 H96 H 0.51813 0.22937 1.13433
 N97 N 0.51339 0.22110 1.01420
 C98 C 0.46414 0.33431 0.94012
 H99 H 0.49313 0.35028 0.92639
 C100 C 0.42627 0.35975 0.94430
 H101 H 0.42611 0.39574 0.93464
 C102 C 0.42897 0.26849 0.97170
 H103 H 0.43056 0.23305 0.98292
 C104 C 0.39038 0.29262 0.97638
 H105 H 0.36225 0.27613 0.99188
 Zn106 Zn 0.51686 0.25777 0.95817
 N107 N 0.46503 0.29008 0.95543
 C108 C 0.49452 0.22538 0.86823
 N109 N 0.52312 0.22050 0.90349
 C110 C 0.55258 0.18585 0.90282
 C111 C 0.55122 0.15167 0.86811
 C112 C 0.49227 0.19216 0.83261
 C113 C 0.55767 0.33446 0.99298
 C114 C 0.59110 0.36458 0.99938
 C115 C 0.63380 0.32174 0.94042
 C116 C 0.59940 0.29230 0.93510
 N117 N 0.56255 0.29878 0.96183
 H118 H 0.47157 0.25337 0.86944
 H119 H 0.57475 0.18279 0.93153
 H120 H 0.57214 0.12193 0.87024
 H121 H 0.46715 0.19413 0.80698
 H122 H 0.52772 0.33946 1.01300
 H123 H 0.58721 0.39258 1.02471
 H124 H 0.66339 0.31620 0.91976
 H125 H 0.60242 0.26400 0.91025
 C126 C 0.38946 0.33903 0.96396
 C127 C 0.49894 0.16895 1.09607
 C128 C 0.62962 0.35782 0.97330
 C129 C 0.51955 0.15390 0.83400
 C130 C 0.46648 0.79366 -0.05102
 H131 H 0.44072 0.79652 -0.02420
 C132 C 0.46872 0.82460 -0.08903
 H133 H 0.44479 0.85159 -0.09137
 C134 C 0.53090 0.75716 -0.07878
 H135 H 0.55575 0.73178 -0.07383
 C136 C 0.53450 0.78769 -0.11734
 H137 H 0.56217 0.78583 -0.14179
 N138 N 0.49748 0.76105 -0.04629
 C139 C 0.43569 0.66246 0.05037
 H140 H 0.45790 0.66132 0.07917
 C141 C 0.39989 0.63417 0.05178
 H142 H 0.39492 0.61053 0.08134
 C143 C 0.41649 0.69226 -0.02497
 H144 H 0.42364 0.71385 -0.05556
 C145 C 0.38020 0.66474 -0.02485
 H146 H 0.35996 0.66493 -0.05550
 Zn147 Zn 0.49413 0.72586 0.01070
 N148 N 0.44352 0.69048 0.01218
 C149 C 0.45851 0.77346 0.09313
 N150 N 0.49261 0.76878 0.06161
 C151 C 0.52576 0.79854 0.06159
 C152 C 0.52513 0.83534 0.09330
 C153 C 0.45635 0.81036 0.12529
 C154 C 0.54958 0.65364 -0.01982
 C155 C 0.58604 0.62539 -0.01965
 C156 C 0.60824 0.66476 0.05117
 C157 C 0.57129 0.69206 0.04983
 N158 N 0.54307 0.68655 0.01431
 H159 H 0.43201 0.75010 0.09177
 H160 H 0.55196 0.79463 0.03546
 H161 H 0.55090 0.85989 0.09150
 H162 H 0.42815 0.81542 0.14846
 H163 H 0.52658 0.64969 -0.04749
 H164 H 0.59087 0.59928 -0.04693
 H165 H 0.63051 0.66959 0.07949
 H166 H 0.56533 0.71761 0.07728
 C167 C 0.37192 0.63502 0.01366
 C168 C 0.50359 0.82239 -0.12191
 C169 C 0.61573 0.63080 0.01629
 C170 C 0.48954 0.84227 0.12453
 C171 C 1.08271 0.45735 0.22951
 H172 H 1.08004 0.43593 0.26090
 C173 C 1.11845 0.45242 0.19840
 H174 H 1.14333 0.42776 0.20649
 C175 C 1.05389 0.51477 0.17951
 H176 H 1.02820 0.53840 0.17179
 C177 C 1.08875 0.51055 0.14723
 H178 H 1.09008 0.53129 0.11502
 N179 N 1.05152 0.48861 0.21991
 C180 C 0.95814 0.42420 0.31006
 H181 H 0.93208 0.43108 0.28677
 C182 C 0.95324 0.39026 0.34528
 H183 H 0.92410 0.37051 0.34780
 C184 C 1.02667 0.44254 0.33740
 H185 H 1.05474 0.46390 0.33517
 C186 C 1.02285 0.40943 0.37336
 H187 H 1.04830 0.40513 0.39833
 Zn188 Zn 1.00177 0.49763 0.25971
 N189 N 0.99473 0.44927 0.30623
 C190 C 0.94453 0.45896 0.19702
 N191 N 0.95536 0.49903 0.21798
 C192 C 0.93679 0.53947 0.20533
 C193 C 0.90724 0.54074 0.16901
 C194 C 0.91295 0.45830 0.16316
 C195 C 1.01643 0.59448 0.26869
 C196 C 1.01601 0.63644 0.29320
 C197 C 0.99733 0.59556 0.36607
 C198 C 0.99708 0.55488 0.34022
 N199 N 1.00591 0.55487 0.29221
 H200 H 0.96055 0.42738 0.20659
 H201 H 0.94605 0.57109 0.22187
 H202 H 0.89445 0.57355 0.15789
 H203 H 0.90336 0.42565 0.14882
 H204 H 1.02372 0.59401 0.23065
 H205 H 1.02248 0.66797 0.27388
 H206 H 0.98941 0.59491 0.40416
 H207 H 0.98844 0.52356 0.35854
 C208 C 0.98565 0.38313 0.37782
 C209 C 1.12124 0.47880 0.15641
 C210 C 1.00516 0.63716 0.34225
 C211 C 0.89535 0.49978 0.14683
 C212 C -0.03668 0.49803 0.83247
 H213 H -0.01208 0.47194 0.83582
 C214 C -0.07284 0.49775 0.86320
 H215 H -0.07633 0.47114 0.89011
 C216 C -0.06295 0.56377 0.79253
 H217 H -0.05900 0.58958 0.76506
 C218 C -0.09963 0.56490 0.82274
 H219 H -0.12406 0.59093 0.81787
 N220 N -0.03307 0.52972 0.79687
 C221 C 0.04155 0.45962 0.68099
 H222 H 0.06635 0.48426 0.67262
 C223 C 0.04026 0.41842 0.65507
 H224 H 0.06367 0.41166 0.62633
 C225 C -0.02009 0.43869 0.72742
 H226 H -0.04418 0.44668 0.75485
 C227 C -0.02250 0.39734 0.70254
 H228 H -0.04854 0.37413 0.71096
 Zn229 Zn 0.01493 0.52458 0.75333
 N230 N 0.01188 0.46880 0.71687
 C231 C 0.09306 0.48826 0.78508
 N232 N 0.06465 0.52374 0.79029
 C233 C 0.06868 0.55575 0.82532
 C234 C 0.10136 0.55163 0.85808
 C235 C 0.12625 0.48312 0.81661
 C236 C -0.01790 0.57650 0.67969
 C237 C -0.02229 0.61366 0.64879
 C238 C 0.04009 0.64763 0.68234
 C239 C 0.04318 0.60978 0.71298
 N240 N 0.01424 0.57532 0.71116
 H241 H 0.08908 0.46263 0.75786
 H242 H 0.04527 0.58323 0.82918
 H243 H 0.10321 0.57594 0.88721
 H244 H 0.14767 0.45375 0.81317
 H245 H -0.04036 0.54857 0.67897
 H246 H -0.04775 0.61391 0.62351
 H247 H 0.06380 0.67439 0.68311
 H248 H 0.06865 0.60795 0.73805
 C249 C 0.00789 0.38681 0.66602
 C250 C -0.10513 0.53087 0.85765
 C251 C 0.00680 0.64985 0.65006
 C252 C 0.12978 0.51424 0.85439
 C253 C 0.06742 0.14479 0.51399
 C254 C 0.03075 0.17188 0.51762
 C255 C 0.03039 0.21718 0.53647
 C256 C 0.07162 0.23564 0.54674
 C257 C 0.10943 0.20733 0.54271
 C258 C 0.10694 0.16127 0.52688
 C259 C 0.14910 0.22678 0.55257
 N260 N 0.15126 0.27147 0.56524
 N261 N 0.11650 0.29816 0.56819
 C262 C 0.07717 0.28201 0.55899
 H263 H 0.06478 0.11012 0.50046
 H264 H 0.00264 0.15590 0.50435
 H265 H 0.17861 0.20719 0.54943
 H266 H 0.05097 0.30606 0.56097
 C267 C 0.68472 0.60235 -0.01901
 C268 C 0.71965 0.57229 -0.02119
 C269 C 0.72635 0.53828 0.01430
 C270 C 0.69511 0.53726 0.05390
 C271 C 0.65889 0.56751 0.05496
 C272 C 0.65384 0.60004 0.01810
 C273 C 0.62757 0.56305 0.09223
 N274 N 0.63267 0.53159 0.12719
 N275 N 0.66683 0.50413 0.12728
 C276 C 0.69781 0.50587 0.09215
 H277 H 0.68091 0.62679 -0.04784
 H278 H 0.73926 0.57441 -0.05360
 H279 H 0.59878 0.58390 0.09383
 H280 H 0.72446 0.48316 0.09541
 C281 C 0.88534 -0.16160 0.51712
 C282 C 0.92206 -0.18853 0.52003
 C283 C 0.95416 -0.18958 0.48294
 C284 C 0.94611 -0.16292 0.44033
 C285 C 0.90788 -0.13623 0.43752
 C286 C 0.87806 -0.13500 0.47674
 C287 C 0.90174 -0.10922 0.39636
 N288 N 0.93189 -0.10857 0.36044
 N289 N 0.96823 -0.13221 0.36331
 C290 C 0.97654 -0.15855 0.40188
 H291 H 0.86252 -0.16089 0.54729
 H292 H 0.92458 -0.20871 0.55210
 H293 H 0.87364 -0.08795 0.39240
 H294 H 1.00787 -0.17349 0.40255
 C295 C 0.32487 0.38125 0.94210
 C296 C 0.29324 0.41408 0.95125
 C297 C 0.28724 0.43500 0.99682
 C298 C 0.31663 0.42201 1.03341
 C299 C 0.34787 0.38722 1.02386
 C300 C 0.35228 0.36786 0.97765
 C301 C 0.37559 0.37432 1.06032
 N302 N 0.37320 0.39600 1.10314
 N303 N 0.34546 0.43013 1.11165
 C304 C 0.31771 0.44416 1.07837
 H305 H 0.32903 0.36732 0.90623
 H306 H 0.27462 0.42394 0.92105
 H307 H 0.39949 0.34754 1.05511
 H308 H 0.29833 0.47362 1.08734
 C309 C 0.89195 0.19461 0.46975
 C310 C 0.92797 0.21973 0.48125
 C311 C 0.94858 0.21348 0.52520
 C312 C 0.93336 0.17648 0.55544
 C313 C 0.89652 0.15121 0.54340
 C314 C 0.87500 0.16144 0.50092
 C315 C 0.88326 0.11469 0.57345
 N316 N 0.90529 0.10405 0.61276
 N317 N 0.94017 0.12680 0.62366
 C318 C 0.95503 0.16195 0.59631
 H319 H 0.87672 0.20165 0.43626
 H320 H 0.93831 0.24537 0.45566
 H321 H 0.85622 0.09359 0.56569
 H322 H 0.98485 0.17619 0.60575
 C323 C 0.35563 0.55511 -0.00124
 C324 C 0.32854 0.51850 -0.00597
 C325 C 0.28350 0.52167 0.00371
 C326 C 0.26664 0.56806 0.00856
 C327 C 0.29508 0.60589 0.01262
 C328 C 0.33980 0.59852 0.00960
 C329 C 0.27786 0.65020 0.01942
 N330 N 0.23492 0.65692 0.02045
 N331 N 0.20814 0.62227 0.01541
 C332 C 0.22234 0.57848 0.00936
 H333 H 0.38978 0.54951 -0.00712
 H334 H 0.34478 0.48761 -0.01793
 H335 H 0.29818 0.67962 0.02350
 H336 H 0.19857 0.55225 0.00615
 C337 C 0.11573 -0.18475 0.49144
 C338 C 0.07714 -0.20823 0.49255
 C339 C 0.03689 -0.18570 0.48932
 C340 C 0.03772 -0.13553 0.48905
 C341 C 0.07762 -0.11286 0.48197
 C342 C 0.11642 -0.13743 0.48546
 C343 C 0.07807 -0.06500 0.47421
 N344 N 0.04154 -0.04014 0.47883
 N345 N 0.00488 -0.05985 0.49169
 C346 C 0.00198 -0.10577 0.49825
 H347 H 0.14536 -0.20375 0.49544
 H348 H 0.07898 -0.24520 0.49545
 H349 H 0.10732 -0.04688 0.46543
 H350 H -0.02810 -0.11665 0.51310
 C351 C 0.66633 0.42959 0.95658
 C352 C 0.69704 0.46178 0.96537
 C353 C 0.72873 0.45536 1.00018
 C354 C 0.72646 0.41335 1.02822
 C355 C 0.69561 0.37959 1.01668
 C356 C 0.66548 0.38856 0.98142
 C357 C 0.69464 0.33766 1.04174
 N358 N 0.72151 0.33011 1.07770
 N359 N 0.74876 0.36196 1.09068
 C360 C 0.75178 0.40295 1.06797
 H361 H 0.64293 0.43680 0.92981
 H362 H 0.69689 0.49200 0.94288
 H363 H 0.67253 0.31083 1.03328
 H364 H 0.77270 0.42652 1.08383
 C365 C 0.52592 0.13051 1.16765
 C366 C 0.52460 0.09386 1.19938
 C367 C 0.48964 0.06322 1.20221
 C368 C 0.45202 0.07652 1.17658
 C369 C 0.45297 0.11616 1.14688
 C370 C 0.49148 0.14012 1.13908
 C371 C 0.41574 0.12966 1.12356
 N372 N 0.38044 0.10333 1.12682
 N373 N 0.38032 0.06410 1.15108
 C374 C 0.41486 0.04955 1.17508
 H375 H 0.55522 0.14985 1.16338
 H376 H 0.55253 0.08932 1.22031
 H377 H 0.41460 0.16086 1.10260
 H378 H 0.41325 0.01593 1.18999
 C379 C 0.01218 0.67192 0.56588
 C380 C 0.01050 0.70267 0.52843
 C381 C -0.00051 0.74997 0.53475
 C382 C -0.00270 0.76555 0.58379
 C383 C -0.00112 0.73331 0.62245
 C384 C 0.00542 0.68609 0.61287
 C385 C -0.00616 0.74940 0.66976
 N386 N -0.01027 0.79494 0.67835
 N387 N -0.00990 0.82528 0.64277
 C388 C -0.00604 0.81215 0.59624
 H389 H 0.01950 0.63621 0.55791
 H390 H 0.01891 0.68763 0.49408
 H391 H -0.00662 0.72626 0.70004
 H392 H -0.00618 0.83833 0.56977
 C393 C 0.50646 0.85296 -0.20493
 C394 C 0.50685 0.88973 -0.23691
 C395 C 0.50942 0.93565 -0.22083
 C396 C 0.52521 0.94155 -0.17311
 C397 C 0.52242 0.90437 -0.14015
 C398 C 0.51063 0.86052 -0.15606
 C399 C 0.53361 0.91143 -0.09228
 N400 N 0.54992 0.95200 -0.07896
 N401 N 0.55643 0.98557 -0.11044
 C402 C 0.54572 0.98143 -0.15680
 H403 H 0.50023 0.81880 -0.21807
 H404 H 0.50053 0.88226 -0.27371
 H405 H 0.53105 0.88463 -0.06560
 H406 H 0.55499 1.00926 -0.17976
 C407 C 1.01110 0.31422 0.42126
 C408 C 1.01337 0.28381 0.46028
 C409 C 0.99101 0.28925 0.50506
 C410 C 0.96752 0.33272 0.51204
 C411 C 0.95330 0.35923 0.45679
 C412 C 0.98109 0.35012 0.41791
 C413 C 0.90867 0.39915 0.45451
 N414 N 0.87714 0.41684 0.49982
 N415 N 0.87478 0.40681 0.55412
 C416 C 0.90578 0.37250 0.58417
 H417 H 1.03252 0.30756 0.39059
 H418 H 1.03321 0.25367 0.45395
 H419 H 0.90234 0.41393 0.42004
 H420 H 0.89910 0.36436 0.62182
 C421 C 0.49198 0.88856 0.19866
 C422 C 0.49450 0.93053 0.22201
 C423 C 0.49132 0.97327 0.19787
 C424 C 0.48809 0.97094 0.14589
 C425 C 0.48044 0.92780 0.12389
 C426 C 0.48486 0.88669 0.14992
 C427 C 0.47051 0.92632 0.07507
 N428 N 0.47334 0.96456 0.04797
 N429 N 0.48626 1.00376 0.06635
 C430 C 0.49481 1.00788 0.11336
 H431 H 0.49610 0.85717 0.21885
 H432 H 0.49847 0.92944 0.26032
 H433 H 0.46124 0.89483 0.05799
 H434 H 0.50926 1.03942 0.12267
 C435 C 0.01144 0.30144 0.65477
 C436 C 0.00165 0.26198 0.62845
 C437 C -0.02643 0.26426 0.58961
 C438 C -0.05390 0.30218 0.58763
 C439 C -0.02296 0.34761 0.59655
 C440 C 0.00188 0.34515 0.63689
 C441 C -0.02477 0.39479 0.56418
 N442 N -0.05966 0.39690 0.52536
 N443 N -0.09727 0.34767 0.51530
 C444 C -0.09378 0.30222 0.54737
 H445 H 0.03087 0.29815 0.68592
 H446 H 0.02048 0.23153 0.63518
 H447 H -0.00445 0.42379 0.57028
 H448 H -0.11437 0.27333 0.54209
 C449 C 0.52954 0.10169 0.76501
 C450 C 0.52398 0.05950 0.74318
 C451 C 0.49919 0.02418 0.76522
 C452 C 0.47355 0.03716 0.80716
 C453 C 0.47900 0.08068 0.82882
 C454 C 0.50861 0.11186 0.80844
 C455 C 0.45528 0.09151 0.87137
 N456 N 0.42749 0.06091 0.89077
 N457 N 0.42223 0.02015 0.87080
 C458 C 0.44427 0.00750 0.83018
 H459 H 0.55097 0.12637 0.74819
 H460 H 0.54018 0.05500 0.70869
 H461 H 0.45843 0.12399 0.88946
 H462 H 0.43949 -0.02597 0.81753
 C463 C 1.03278 0.71007 0.37502
 C464 C 1.03082 0.74412 0.41022
 C465 C 0.99557 0.74824 0.44356
 C466 C 0.95982 0.71808 0.43632
 C467 C 0.96032 0.68805 0.39647
 C468 C 0.99852 0.68063 0.36922
 C469 C 0.92302 0.66369 0.38646
 N470 N 0.88892 0.66504 0.41761
 N471 N 0.89008 0.68857 0.45823
 C472 C 0.92445 0.71403 0.46901
 H473 H 1.06203 0.70550 0.35345
 H474 H 1.05812 0.76619 0.41136
 H475 H 0.92106 0.64303 0.35444
 H476 H 0.92418 0.72847 0.50409
 C477 C 1.18636 0.50948 0.11665
 C478 C 1.22093 0.50669 0.08406
 C479 C 1.22692 0.46940 0.05189
 C480 C 1.20520 0.42799 0.06773
 C481 C 1.16788 0.43160 0.09847
 C482 C 1.15792 0.47337 0.12188
 C483 C 1.14273 0.39246 0.10683
 N484 N 1.15776 0.35079 0.09278
 N485 N 1.19598 0.34606 0.07089
 C486 C 1.22054 0.38276 0.05924
 H487 H 1.18194 0.54016 0.13825
 H488 H 1.24295 0.53461 0.08519
 H489 H 1.11202 0.39429 0.12583
 H490 H 1.25092 0.37493 0.04252
 C491 C 0.61180 -0.01380 0.68367
 C492 C 0.57857 -0.02147 0.71699
 C493 C 0.53668 -0.03174 0.70300
 C494 C 0.53299 -0.04674 0.65410
 C495 C 0.56666 -0.03718 0.61982
 C496 C 0.60537 -0.01825 0.63487
 C497 C 0.56145 -0.04891 0.57152
 N498 N 0.52606 -0.07141 0.55863
 N499 N 0.49591 -0.08344 0.59086
 C500 C 0.49848 -0.07272 0.63787
 H501 H 0.64235 -0.00237 0.69607
 H502 H 0.58514 -0.01523 0.75388
 H503 H 0.58571 -0.04171 0.54405
 H504 H 0.47395 -0.08615 0.66162
 C505 C -0.15333 0.55496 0.92503
 C506 C -0.18599 0.54556 0.95838
 C507 C -0.21212 0.50598 0.95604
 C508 C -0.20528 0.47703 0.91359
 C509 C -0.17380 0.49002 0.87776
 C510 C -0.14590 0.52659 0.88579
 C511 C -0.16929 0.46483 0.83481
 N512 N -0.19238 0.42665 0.82873
 N513 N -0.21885 0.41151 0.86324
 C514 C -0.22532 0.43436 0.90516
 H515 H -0.13238 0.58356 0.93117
 H516 H -0.18937 0.56866 0.98867
 H517 H -0.14736 0.47513 0.80599
 H518 H -0.24381 0.41596 0.93118
 C519 C 0.38730 -0.01203 0.30443
 C520 C 0.42172 -0.01359 0.27152
 C521 C 0.45354 0.02072 0.26920
 C522 C 0.44862 0.05768 0.30374
 C523 C 0.41311 0.05875 0.33743
 C524 C 0.38231 0.02359 0.33745
 C525 C 0.41060 0.09405 0.37197
 N526 N 0.44106 0.12654 0.37265
 N527 N 0.47443 0.12561 0.34188
 C528 C 0.47943 0.09239 0.30822
 H529 H 0.36407 -0.03935 0.30416
 H530 H 0.42161 -0.04179 0.24667
 H531 H 0.38527 0.09593 0.39920
 H532 H 0.50870 0.09271 0.28743
 C533 C 0.19909 0.52704 0.89200
 C534 C 0.23069 0.51474 0.92376
 C535 C 0.22435 0.47982 0.95886
 C536 C 0.18881 0.45041 0.95092
 C537 C 0.15477 0.46546 0.92233
 C538 C 0.16024 0.50406 0.89237
 C539 C 0.11740 0.43898 0.92163
 N540 N 0.11718 0.39658 0.94139
 N541 N 0.15209 0.37910 0.96057
 C542 C 0.18809 0.40419 0.96431
 H543 H 0.20525 0.55446 0.86654
 H544 H 0.25999 0.53397 0.92085
 H545 H 0.08910 0.45085 0.90397
 H546 H 0.21678 0.38665 0.97344
 C547 C 0.56833 0.00027 0.33822
 C548 C 0.53294 0.00163 0.30993
 C549 C 0.53585 0.01110 0.25998
 C550 C 0.57860 0.00947 0.23856
 C551 C 0.61506 0.00706 0.26798
 C552 C 0.60950 0.00472 0.31836
 C553 C 0.65624 0.00543 0.24592
 N554 N 0.66098 0.00642 0.19760
 N555 N 0.62732 0.00875 0.16996
 C556 C 0.58673 0.01009 0.18872
 H557 H 0.56326 -0.00404 0.37656
 H558 H 0.50297 -0.00480 0.32894
 H559 H 0.68472 0.00240 0.26653
 H560 H 0.56158 0.01204 0.16430
 C561 C 0.82770 0.52862 0.11286
 C562 C 0.79565 0.52778 0.07975
 C563 C 0.79483 0.49438 0.04293
 C564 C 0.83201 0.46476 0.03791
 C565 C 0.86749 0.47069 0.06763
 C566 C 0.86372 0.50003 0.10799
 C567 C 0.90605 0.44734 0.05536
 N568 N 0.90721 0.41550 0.02009
 N569 N 0.87247 0.40571 -0.00379
 C570 C 0.83507 0.42880 0.00438
 H571 H 0.82419 0.55241 0.14254
 H572 H 0.77135 0.55405 0.08422
 H573 H 0.93538 0.45434 0.07316
 H574 H 0.80789 0.41785 -0.01438
 C575 C 0.41567 0.01383 0.65352
 C576 C 0.45092 0.00853 0.68136
 C577 C 0.45388 -0.02502 0.71801
 C578 C 0.41561 -0.05206 0.72779
 C579 C 0.37861 -0.04472 0.69943
 C580 C 0.37952 -0.01275 0.66114
 C581 C 0.34074 -0.06868 0.71104
 N582 N 0.33979 -0.09988 0.74672
 N583 N 0.37389 -0.10801 0.77242
 C584 C 0.41109 -0.08540 0.76451
 H585 H 0.41735 0.03852 0.62451
 H586 H 0.47776 0.03012 0.67181
 H587 H 0.31142 -0.06238 0.69275
 H588 H 0.43484 -0.09285 0.78959
   
