data_POSCAR
  _audit_creation_date              2014-09-24
  _audit_creation_method            'ToBaCCo'
  _symmetry_space_group_name_H-M    'P1'
  _symmetry_Int_Tables_number       1
  _symmetry_cell_setting            triclinic
  loop_
  _symmetry_equiv_pos_as_xyz
 x,y,z
_cell_length_a 14.3605
_cell_length_b 14.7629
_cell_length_c 14.1429
_cell_angle_alpha 89.329900
_cell_angle_beta 89.427700
_cell_angle_gamma 89.762100
loop_
  _atom_site_label
  _atom_site_type_symbol
  _atom_site_fract_x
  _atom_site_fract_y
  _atom_site_fract_z
O1 O 0.59499 0.17547 0.06663
 O2 O 0.40735 -0.08186 -0.17090
 O3 O 0.61595 0.00138 -0.16439
 O4 O 0.30456 0.08163 0.05357
 O5 O 0.57158 -0.13382 -0.15935
 O6 O 0.41959 0.17550 0.04533
 O7 O 0.34140 0.03205 -0.10480
 O8 O 0.64411 0.12238 -0.06510
 C9 C 0.64429 0.18309 -0.00626
 C10 C 0.35532 -0.01336 -0.17674
 C11 C 0.60602 -0.07089 -0.20522
 C12 C 0.33379 0.16106 0.04478
 O13 O 0.40819 0.05492 0.19097
 O14 O 0.54164 -0.19392 0.01229
 O15 O 0.69007 0.01140 0.08177
 O16 O 0.25418 -0.08783 -0.01054
 O17 O 0.38285 -0.16185 0.00065
 O18 O 0.58644 0.04845 0.19190
 O19 O 0.36342 -0.06993 0.13036
 O20 O 0.66819 -0.11964 -0.02107
 Co21 Co 0.50068 0.10239 0.11203
 Co22 Co 0.47749 -0.13063 -0.07293
 Co23 Co 0.64189 0.00230 -0.03875
 Co24 Co 0.35963 -0.02050 0.00964
 O25 O 0.50058 -0.00369 0.00335
 C26 C 0.36423 -0.01854 0.19896
 C27 C 0.62755 -0.19146 0.00720
 C28 C 0.66725 0.02211 0.16796
 C29 C 0.30044 -0.16306 -0.02542
 O30 O -0.19226 0.44962 0.00958
 O31 O 0.06854 0.59075 0.17106
 O32 O -0.03114 0.38165 0.15119
 O33 O -0.09260 0.67455 0.05274
 O34 O 0.10141 0.44126 0.18052
 O35 O -0.18138 0.60208 -0.04340
 O36 O 0.07128 0.69984 0.07651
 O37 O -0.11324 0.32986 0.00894
 C38 C -0.18869 0.36748 0.02472
 C39 C 0.06191 0.67209 0.15866
 C40 C 0.03161 0.39690 0.20840
 C41 C -0.17039 0.66203 0.01988
 O42 O -0.06154 0.54299 -0.19286
 O43 O 0.19991 0.45304 0.00645
 O44 O 0.04294 0.33783 -0.08581
 O45 O 0.10115 0.65095 -0.10258
 O46 O 0.18866 0.61176 0.01239
 O47 O -0.08572 0.38757 -0.14662
 O48 O -0.06300 0.67037 -0.13057
 O49 O 0.12631 0.34107 0.06011
 Co50 Co -0.11845 0.49708 -0.08533
 Co51 Co 0.12799 0.52346 0.08421
 Co52 Co 0.00586 0.36560 0.03071
 Co53 Co 0.00488 0.65757 -0.02319
 O54 O 0.00497 0.51065 0.00114
 C55 C -0.05027 0.62532 -0.20206
 C56 C 0.19877 0.37115 0.02398
 C57 C -0.01442 0.33604 -0.15012
 C58 C 0.17868 0.64664 -0.06852
 O59 O 0.00969 -0.15208 0.37859
 O60 O 0.14472 0.10299 0.61952
 O61 O 0.13305 -0.02561 0.37316
 O62 O -0.00109 -0.15006 0.67525
 O63 O 0.18115 0.08985 0.44837
 O64 O -0.00533 -0.20243 0.53344
 O65 O 0.12811 -0.03108 0.67938
 O66 O -0.01435 -0.04697 0.28046
 C67 C 0.00033 -0.12858 0.29460
 C68 C 0.18033 0.03339 0.65584
 C69 C 0.19822 0.02567 0.39322
 C70 C 0.00209 -0.21539 0.61939
 O71 O -0.16576 -0.11221 0.56124
 O72 O 0.02080 0.18164 0.41162
 O73 O -0.09944 0.07506 0.37501
 O74 O -0.00485 0.09588 0.70239
 O75 O -0.02182 0.17662 0.57558
 O76 O -0.15679 -0.05848 0.39209
 O77 O -0.12855 -0.02586 0.68264
 O78 O 0.05053 0.10152 0.28732
 Co79 Co -0.07319 -0.12004 0.47002
 Co80 Co 0.07491 0.12425 0.51399
 Co81 Co 0.01741 0.02440 0.37943
 Co82 Co -0.00040 -0.02497 0.66952
 O83 O 0.00323 -0.00521 0.51528
 C84 C -0.18690 -0.07267 0.63780
 C85 C 0.04336 0.17957 0.32493
 C86 C -0.16598 0.02262 0.36436
 C87 C -0.03200 0.16783 0.66221
 N88 N -0.28955 0.25478 -0.01920
 N89 N -0.27012 0.31367 0.04216
 N90 N 0.27051 0.77027 -0.06825
 N91 N 0.24794 0.70153 -0.10982
 N92 N 0.26657 0.23237 0.04319
 N93 N 0.27923 0.31386 0.01698
 N94 N -0.32109 0.72679 0.01606
 N95 N -0.23551 0.73249 0.03435
 N96 N 0.04248 -0.26916 0.23481
 N97 N 0.02001 -0.18738 0.21859
 N98 N -0.00221 0.26548 0.78283
 N99 N -0.05719 0.24505 0.71703
 N100 N 0.04127 0.33720 0.28646
 N101 N 0.03342 0.25465 0.26386
 N102 N -0.01697 -0.33926 0.72387
 N103 N 0.01840 -0.30655 0.65147
 N104 N 0.31597 0.00803 0.74699
 N105 N 0.27921 0.03194 0.67203
 N106 N -0.26520 -0.00205 0.23776
 N107 N -0.24170 0.04971 0.30498
 N108 N 0.29634 -0.03203 0.27309
 N109 N 0.28292 0.02549 0.33819
 N110 N -0.36556 -0.08502 0.69913
 N111 N -0.28177 -0.07922 0.67038
   
