data_POSCAR
  _audit_creation_date              2014-09-24
  _audit_creation_method            'ToBaCCo'
  _symmetry_space_group_name_H-M    'P1'
  _symmetry_Int_Tables_number       1
  _symmetry_cell_setting            triclinic
  loop_
  _symmetry_equiv_pos_as_xyz
 x,y,z
_cell_length_a 28.7934
_cell_length_b 28.6151
_cell_length_c 28.6151
_cell_angle_alpha 90.005400
_cell_angle_beta 90.006500
_cell_angle_gamma 90.004400
loop_
  _atom_site_label
  _atom_site_type_symbol
  _atom_site_fract_x
  _atom_site_fract_y
  _atom_site_fract_z
C1 C 0.21028 1.24580 0.17692
 C2 C 0.24461 1.21105 0.17755
 C3 C 0.24414 1.17704 0.21202
 C4 C 0.20933 1.17737 0.24629
 C5 C 0.17538 1.21172 0.24568
 C6 C 0.17586 1.24614 0.21080
 C7 C 0.19998 1.28074 0.14547
 N8 N 0.16043 1.30202 0.15973
 C9 C 0.14518 1.28127 0.19941
 C10 C 0.14407 1.20124 0.28054
 N11 N 0.15848 1.16165 0.30203
 C12 C 0.19812 1.14655 0.28150
 C13 C 0.27906 1.14578 0.20180
 N14 N 0.30046 1.16025 0.16223
 C15 C 0.27981 1.19991 0.14692
 H16 H 0.21879 1.28889 0.11371
 H17 H 0.11331 1.28992 0.21756
 H18 H 0.11232 1.21994 0.28848
 H19 H 0.21638 1.11465 0.29035
 H20 H 0.28716 1.11398 0.22062
 H21 H 0.28861 1.21818 0.11499
 C22 C 0.79121 0.75317 0.17698
 C23 C 0.75643 0.78747 0.17708
 C24 C 0.75623 0.82177 0.21128
 C25 C 0.79081 0.82217 0.24581
 C26 C 0.82518 0.78825 0.24571
 C27 C 0.82538 0.75355 0.21110
 C28 C 0.80219 0.71813 0.14586
 N29 N 0.84192 0.69750 0.16058
 C30 C 0.85661 0.71875 0.20021
 C31 C 0.85613 0.79940 0.28068
 N32 N 0.84110 0.83899 0.30175
 C33 C 0.80141 0.85343 0.28084
 C34 C 0.72099 0.85250 0.20054
 N35 N 0.70006 0.83742 0.16093
 C36 C 0.72132 0.79791 0.14611
 H37 H 0.78372 0.70948 0.11403
 H38 H 0.88847 0.71068 0.21865
 H39 H 0.88805 0.78117 0.28899
 H40 H 0.78271 0.88517 0.28930
 H41 H 0.71236 0.88435 0.21903
 H42 H 0.71299 0.77927 0.11426
 C43 C 0.78984 1.24582 -0.17621
 C44 C 0.75522 1.21136 -0.17616
 C45 C 0.75497 1.17711 -0.21040
 C46 C 0.78934 1.17692 -0.24512
 C47 C 0.82358 1.21099 -0.24518
 C48 C 0.82383 1.24564 -0.21052
 C49 C 0.80080 1.28088 -0.14512
 N50 N 0.84035 1.30173 -0.16001
 C51 C 0.85495 1.28060 -0.19974
 C52 C 0.85435 1.20000 -0.28036
 N53 N 0.83933 1.16038 -0.30140
 C54 C 0.79983 1.14576 -0.28026
 C55 C 0.71993 1.14621 -0.19950
 N56 N 0.69916 1.16113 -0.15975
 C57 C 0.72033 1.20073 -0.14500
 H58 H 0.78245 1.28939 -0.11319
 H59 H 0.88667 1.28886 -0.21833
 H60 H 0.88615 1.21838 -0.28885
 H61 H 0.78119 1.11396 -0.28865
 H62 H 0.71132 1.11434 -0.21798
 H63 H 0.71210 1.21929 -0.11308
 C64 C 0.20956 0.75467 -0.17805
 C65 C 0.24413 0.78920 -0.17797
 C66 C 0.24415 0.82362 -0.21204
 C67 C 0.20960 0.82395 -0.24658
 C68 C 0.17542 0.78983 -0.24666
 C69 C 0.17540 0.75499 -0.21221
 C70 C 0.19878 0.71942 -0.14712
 N71 N 0.15919 0.69859 -0.16196
 C72 C 0.14439 0.71993 -0.20150
 C73 C 0.14443 0.80097 -0.28162
 N74 N 0.15928 0.84074 -0.30249
 C75 C 0.19887 0.85530 -0.28147
 C76 C 0.27918 0.85453 -0.20116
 N77 N 0.30019 0.83946 -0.16160
 C78 C 0.27917 0.79975 -0.14694
 H79 H 0.21728 0.71075 -0.11531
 H80 H 0.11259 0.71173 -0.22000
 H81 H 0.11262 0.78260 -0.29004
 H82 H 0.21741 0.88718 -0.28976
 H83 H 0.28763 0.88650 -0.21953
 H84 H 0.28760 0.78105 -0.11515
 C85 C 0.57094 1.06381 -0.01326
 H86 H 0.57192 1.06370 0.02453
 C87 C 0.60272 1.09076 -0.03838
 H88 H 0.62820 1.11164 -0.01994
 C89 C 0.53754 1.03557 -0.08361
 H90 H 0.51277 1.01326 -0.10109
 C91 C 0.56875 1.06200 -0.11008
 H92 H 0.56765 1.06030 -0.14789
 N93 N 0.53908 1.03710 -0.03607
 C94 C 0.42911 1.01339 0.06594
 H95 H 0.42817 0.97559 0.06593
 C96 C 0.39732 1.03856 0.09282
 H97 H 0.37187 1.02015 0.11377
 C98 C 0.46239 1.08369 0.03745
 H99 H 0.48709 1.10113 0.01505
 C100 C 0.43117 1.11021 0.06381
 H101 H 0.43219 1.14800 0.06196
 Zn102 Zn 0.49993 0.99908 0.00099
 N103 N 0.46090 1.03616 0.03911
 C104 C 0.53778 0.96253 0.08545
 N105 N 0.53910 0.96095 0.03791
 C106 C 0.57081 0.93416 0.01499
 C107 C 0.60270 0.90725 0.03999
 C108 C 0.56912 0.93613 0.11181
 C109 C 0.42888 0.98511 -0.06373
 C110 C 0.39702 0.96014 -0.09072
 C111 C 0.43074 0.88829 -0.06209
 C112 C 0.46204 0.91462 -0.03561
 N113 N 0.46066 0.96216 -0.03705
 H114 H 0.51313 0.98489 0.10302
 H115 H 0.57161 0.93423 -0.02281
 H116 H 0.62809 0.88634 0.02145
 H117 H 0.56823 0.93792 0.14962
 H118 H 0.42804 1.02291 -0.06355
 H119 H 0.37161 0.97871 -0.11158
 H120 H 0.43171 0.85048 -0.06046
 H121 H 0.48676 0.89702 -0.01333
 C122 C 0.39826 1.08739 0.09160
 C123 C 0.60170 1.08971 -0.08722
 C124 C 0.39787 0.91131 -0.08976
 C125 C 0.60195 0.90839 0.08883
 C126 C -0.01331 0.57141 1.06382
 H127 H 0.02425 0.57250 1.06372
 C128 C -0.03837 0.60325 1.09085
 H129 H -0.02011 0.62888 1.11181
 C130 C -0.08313 0.53765 1.03552
 H131 H -0.10043 0.51271 1.01318
 C132 C -0.10952 0.56890 1.06203
 H133 H -0.14709 0.56767 1.06035
 N134 N -0.03589 0.53933 1.03705
 C135 C 0.06563 0.42873 1.01361
 H136 H 0.06567 0.42771 0.97581
 C137 C 0.09238 0.39684 1.03888
 H138 H 0.11328 0.37124 1.02055
 C139 C 0.03716 0.46230 1.08380
 H140 H 0.01484 0.48716 1.10116
 C141 C 0.06340 0.43100 1.11041
 H142 H 0.06152 0.43212 1.14821
 Zn143 Zn 0.00105 0.49997 0.99909
 N144 N 0.03888 0.46072 1.03627
 C145 C 0.08506 0.53798 0.96262
 N146 N 0.03782 0.53939 0.96103
 C147 C 0.01509 0.57131 0.93421
 C148 C 0.04000 0.60330 0.90722
 C149 C 0.11131 0.56940 0.93615
 C150 C -0.06322 0.42844 0.98492
 C151 C -0.09007 0.39648 0.95984
 C152 C -0.06152 0.43056 0.88810
 C153 C -0.03518 0.46195 0.91453
 N154 N -0.03667 0.46045 0.96207
 H155 H 0.10248 0.51317 0.98500
 H156 H -0.02247 0.57217 0.93427
 H157 H 0.02162 0.62882 0.88625
 H158 H 0.14888 0.56842 0.93791
 H159 H -0.06309 0.42750 1.02272
 H160 H -0.11087 0.37091 0.97833
 H161 H -0.05989 0.43165 0.85029
 H162 H -0.01301 0.48684 0.89701
 C163 C 0.09112 0.39791 1.08771
 C164 C -0.08690 0.60205 1.08983
 C165 C -0.08910 0.39748 0.91101
 C166 C 0.08853 0.60242 0.90834
 C167 C 1.06336 -0.01348 0.57134
 H168 H 1.06330 0.02431 0.57242
 C169 C 1.09019 -0.03872 0.60320
 H170 H 1.11103 -0.02036 0.62883
 C171 C 1.03517 -0.08371 0.53760
 H172 H 1.01295 -0.10111 0.51267
 C173 C 1.06148 -0.11029 0.56887
 H174 H 1.05977 -0.14809 0.56765
 N175 N 1.03674 -0.03618 0.53926
 C176 C 1.01341 0.06595 0.42864
 H177 H 0.97585 0.06595 0.42762
 C178 C 1.03849 0.09291 0.39677
 H179 H 1.02026 0.11393 0.37118
 C180 C 1.08319 0.03738 0.46223
 H181 H 1.10047 0.01494 0.48709
 C182 C 1.10962 0.06382 0.43094
 H183 H 1.14718 0.06199 0.43207
 Zn184 Zn 0.99902 0.00099 0.49990
 N185 N 1.03596 0.03906 0.46064
 C186 C 0.96285 0.08555 0.53790
 N187 N 0.96121 0.03801 0.53931
 C188 C 0.93453 0.01518 0.57124
 C189 C 0.90776 0.04028 0.60324
 C190 C 0.93660 0.11200 0.56934
 C191 C 0.98497 -0.06368 0.42838
 C192 C 0.96008 -0.09074 0.39644
 C193 C 0.88875 -0.06208 0.43052
 C194 C 0.91499 -0.03553 0.46189
 N195 N 0.96224 -0.03697 0.46039
 H196 H 0.98512 0.10304 0.51309
 H197 H 0.93455 -0.02262 0.57211
 H198 H 0.88691 0.02182 0.62878
 H199 H 0.93840 0.14980 0.56836
 H200 H 1.02254 -0.06351 0.42744
 H201 H 0.97847 -0.11167 0.37088
 H202 H 0.85118 -0.06049 0.43161
 H203 H 0.89756 -0.01324 0.48678
 C204 C 1.08702 0.09170 0.39785
 C205 C 1.08912 -0.08755 0.60202
 C206 C 0.91155 -0.08983 0.39745
 C207 C 0.90894 0.08912 0.60237
 C208 C 0.13775 0.33468 1.13609
 C209 C 0.11677 0.36390 1.11428
 C210 C -0.13478 0.66498 1.13735
 C211 C -0.11323 0.63589 1.11592
 C212 C -0.13644 0.33435 0.86319
 C213 C -0.11507 0.36353 0.88468
 C214 C 0.13607 0.66582 0.86110
 C215 C 0.11469 0.63650 0.88238
 C216 C 1.13503 0.13875 0.33467
 C217 C 1.11339 0.11758 0.36388
 C218 C 1.13624 -0.13578 0.66499
 C219 C 1.11500 -0.11407 0.63588
 C220 C 0.86410 -0.13759 0.33436
 C221 C 0.88541 -0.11602 0.36353
 C222 C 0.86216 0.13705 0.66582
 C223 C 0.88323 0.11548 0.63648
 C224 C 0.33506 1.13549 0.13828
 C225 C 0.36428 1.11383 0.11730
 C226 C 0.66468 1.13685 -0.13516
 C227 C 0.63556 1.11561 -0.11360
 C228 C 0.33475 0.86375 -0.13713
 C229 C 0.36394 0.88510 -0.11576
 C230 C 0.66534 0.86153 0.13650
 C231 C 0.63602 0.88263 0.11507
   
