data_POSCAR
  _audit_creation_date              2014-09-24
  _audit_creation_method            'ToBaCCo'
  _symmetry_space_group_name_H-M    'P1'
  _symmetry_Int_Tables_number       1
  _symmetry_cell_setting            triclinic
  loop_
  _symmetry_equiv_pos_as_xyz
 x,y,z
_cell_length_a 29.2687
_cell_length_b 18.0309
_cell_length_c 17.9587
_cell_angle_alpha 89.816100
_cell_angle_beta 90.113300
_cell_angle_gamma 89.885000
loop_
  _atom_site_label
  _atom_site_type_symbol
  _atom_site_fract_x
  _atom_site_fract_y
  _atom_site_fract_z
O1 O 0.06457 0.12649 0.13735
 O2 O 0.11449 0.06104 0.06440
 C3 C 0.10561 0.10793 0.11703
 O4 O -0.06367 -0.13799 0.12845
 O5 O -0.11375 -0.06582 0.06161
 C6 C -0.10476 -0.11818 0.10910
 O7 O 0.06505 -0.13074 0.13596
 O8 O 0.11472 -0.06295 0.06502
 C9 C 0.10625 -0.11141 0.11680
 O10 O -0.06397 0.13370 0.13022
 O11 O -0.11392 0.06299 0.06244
 C12 C -0.10504 0.11445 0.11060
 Zr13 Zr 0.00033 0.09181 0.09541
 O14 O -0.00479 0.08983 0.21298
 O15 O 0.00542 0.20890 0.09668
 Zr16 Zr 0.00058 -0.09571 0.09418
 O17 O -0.00458 -0.09649 0.21175
 O18 O 0.00596 -0.21280 0.09364
 O19 O 0.04123 -0.00211 0.10943
 O20 O -0.03923 -0.00205 0.10840
 O21 O -0.06418 0.13613 -0.12727
 O22 O -0.11402 0.06410 -0.06051
 C23 C -0.10520 0.11646 -0.10797
 O24 O 0.06450 -0.12813 -0.13654
 O25 O 0.11452 -0.06203 -0.06431
 C26 C 0.10556 -0.10913 -0.11672
 O27 O -0.06405 -0.13551 -0.12920
 O28 O -0.11396 -0.06476 -0.06135
 C29 C -0.10511 -0.11617 -0.10958
 O30 O 0.06444 0.12859 -0.13482
 O31 O 0.11452 0.06052 -0.06380
 C32 C 0.10555 0.10888 -0.11544
 Zr33 Zr 0.00016 0.09364 -0.09306
 O34 O -0.00530 0.09425 -0.21063
 O35 O 0.00536 0.21073 -0.09267
 Zr36 Zr 0.00025 -0.09376 -0.09436
 O37 O -0.00520 -0.09196 -0.21192
 O38 O 0.00558 -0.21085 -0.09554
 Zr39 Zr 0.06813 -0.00116 0.00062
 Zr40 Zr -0.06743 -0.00093 0.00056
 O41 O -0.03953 0.00013 -0.10730
 O42 O 0.04092 0.00000 -0.10820
 O43 O -0.04040 0.10736 0.00125
 O44 O 0.04006 -0.10846 -0.00017
 O45 O 0.03984 0.10624 0.00124
 O46 O -0.04021 -0.10926 -0.00016
 H47 H -0.06006 -0.00242 0.15183
 H48 H 0.06093 -0.15180 -0.00039
 H49 H -0.06046 0.00057 -0.15074
 H50 H 0.06049 0.14971 0.00132
 H51 H -0.01936 -0.23201 0.06272
 H52 H -0.01948 -0.23066 -0.06449
 H53 H 0.02053 -0.06214 -0.23124
 H54 H 0.02048 0.06478 -0.23038
 H55 H -0.01983 0.23003 -0.06160
 H56 H -0.01971 0.22875 0.06553
 H57 H 0.02125 0.06041 0.23226
 H58 H 0.02103 -0.06668 0.23148
 O59 O 0.56353 0.63039 0.63482
 O60 O 0.61393 0.56332 0.56389
 C61 C 0.60448 0.61104 0.61538
 O62 O 0.43611 0.36500 0.62969
 O63 O 0.38556 0.43589 0.56203
 C64 C 0.39512 0.38445 0.61012
 O65 O 0.56380 0.37205 0.63695
 O66 O 0.61402 0.43845 0.56490
 C67 C 0.60467 0.39125 0.61713
 O68 O 0.43585 0.63730 0.62742
 O69 O 0.38545 0.56578 0.56096
 C70 C 0.39493 0.61763 0.60820
 Zr71 Zr 0.49971 0.59458 0.59222
 O72 O 0.49451 0.59452 0.70981
 O73 O 0.50481 0.71170 0.59066
 Zr74 Zr 0.49994 0.40738 0.59383
 O75 O 0.49474 0.40865 0.71141
 O76 O 0.50535 0.29026 0.59411
 O77 O 0.54069 0.50106 0.60766
 O78 O 0.46000 0.50105 0.60655
 O79 O 0.43567 0.63627 0.36832
 O80 O 0.38535 0.56531 0.43575
 C81 C 0.39473 0.61681 0.38774
 O82 O 0.56363 0.37069 0.36342
 O83 O 0.61399 0.43777 0.43445
 C84 C 0.60458 0.39000 0.38299
 O85 O 0.43598 0.36381 0.37050
 O86 O 0.38551 0.43537 0.43682
 C87 C 0.39504 0.38349 0.38963
 O88 O 0.56393 0.62833 0.36217
 O89 O 0.61450 0.56182 0.43444
 C90 C 0.60494 0.60909 0.38221
 Zr91 Zr 0.49964 0.59364 0.40425
 O92 O 0.49436 0.59218 0.28665
 O93 O 0.50481 0.71074 0.40311
 Zr94 Zr 0.49979 0.40652 0.40585
 O95 O 0.49445 0.40658 0.28825
 O96 O 0.50519 0.28940 0.40743
 Zr97 Zr 0.56808 0.50056 0.49910
 Zr98 Zr 0.43134 0.50056 0.49895
 O99 O 0.45985 0.50005 0.39142
 O100 O 0.54054 0.49999 0.39046
 O101 O 0.45881 0.60867 0.49805
 O102 O 0.53969 0.39341 0.49999
 O103 O 0.53943 0.60772 0.49819
 O104 O 0.45902 0.39243 0.49990
 H105 H 0.43942 0.50127 0.65029
 H106 H 0.56036 0.34982 0.50034
 H107 H 0.43920 0.49988 0.34763
 H108 H 0.55999 0.65130 0.49790
 H109 H 0.47967 0.27064 0.56428
 H110 H 0.47957 0.27006 0.43755
 H111 H 0.51990 0.43676 0.26853
 H112 H 0.52052 0.56325 0.26740
 H113 H 0.47960 0.73048 0.43387
 H114 H 0.47907 0.73104 0.56052
 H115 H 0.52024 0.56478 0.72966
 H116 H 0.52040 0.43859 0.73076
 C117 C 0.17435 0.23018 0.24697
 C118 C 0.21909 0.21132 0.22721
 C119 C 0.22679 0.15815 0.17207
 C120 C 0.18990 0.12417 0.13646
 C121 C 0.14472 0.14305 0.15558
 C122 C 0.13738 0.19629 0.21149
 C123 C 0.25706 0.24729 0.26280
 C124 C 0.28881 0.27788 0.29230
 C125 C 0.32591 0.31421 0.32647
 C126 C 0.35753 0.34564 0.35542
 H127 H 0.16804 0.27134 0.28958
 H128 H 0.26132 0.14318 0.15636
 H129 H 0.19683 0.08335 0.09382
 H130 H 0.10310 0.21213 0.22762
 C131 C 0.82633 0.75195 0.23161
 C132 C 0.78163 0.77095 0.21132
 C133 C 0.77403 0.82544 0.15707
 C134 C 0.81098 0.86120 0.12347
 C135 C 0.85613 0.84290 0.14381
 C136 C 0.86338 0.78760 0.19808
 C137 C 0.74353 0.73535 0.24695
 C138 C 0.71160 0.70599 0.27721
 C139 C 0.67427 0.67203 0.31317
 C140 C 0.64250 0.64324 0.34439
 H141 H 0.83256 0.70984 0.27362
 H142 H 0.73955 0.84056 0.14098
 H143 H 0.80410 0.90335 0.08182
 H144 H 0.89762 0.77212 0.21504
 C145 C 0.77355 0.17350 0.84345
 C146 C 0.78114 0.22812 0.78942
 C147 C 0.82583 0.24696 0.76951
 C148 C 0.86287 0.21103 0.80318
 C149 C 0.85564 0.15559 0.85724
 C150 C 0.81051 0.13744 0.87721
 C151 C 0.74308 0.26403 0.75355
 C152 C 0.71124 0.29372 0.72299
 C153 C 0.67403 0.32804 0.68665
 C154 C 0.64230 0.35705 0.65514
 H155 H 0.73906 0.15849 0.85923
 H156 H 0.83204 0.28916 0.72767
 H157 H 0.89710 0.22641 0.78650
 H158 H 0.80367 0.09519 0.91869
 C159 C 0.17418 0.76928 0.75256
 C160 C 0.21893 0.78872 0.77168
 C161 C 0.22667 0.84209 0.82661
 C162 C 0.18981 0.87567 0.86267
 C163 C 0.14462 0.85618 0.84422
 C164 C 0.13724 0.80277 0.78850
 C165 C 0.25688 0.75310 0.73569
 C166 C 0.28863 0.72275 0.70593
 C167 C 0.32574 0.68666 0.67152
 C168 C 0.35738 0.65537 0.64244
 H169 H 0.16784 0.72796 0.71012
 H170 H 0.26121 0.85750 0.84183
 H171 H 0.19678 0.91664 0.90516
 H172 H 0.10296 0.78648 0.77288
 C173 C 0.17421 0.23288 0.75543
 C174 C 0.21901 0.21284 0.77416
 C175 C 0.22674 0.15829 0.82837
 C176 C 0.18987 0.12417 0.86402
 C177 C 0.14464 0.14423 0.84592
 C178 C 0.13727 0.19885 0.79097
 C179 C 0.25701 0.24884 0.73836
 C180 C 0.28878 0.27938 0.70866
 C181 C 0.32592 0.31558 0.67414
 C182 C 0.35757 0.34684 0.64485
 H183 H 0.16783 0.27506 0.71356
 H184 H 0.26128 0.14233 0.84331
 H185 H 0.19687 0.08230 0.90591
 H186 H 0.10297 0.21564 0.77560
 C187 C 0.77355 0.82793 0.84123
 C188 C 0.78112 0.77406 0.78669
 C189 C 0.82585 0.75547 0.76657
 C190 C 0.86290 0.79080 0.80051
 C191 C 0.85569 0.84541 0.85513
 C192 C 0.81052 0.86338 0.87527
 C193 C 0.74300 0.73848 0.75078
 C194 C 0.71112 0.70897 0.72032
 C195 C 0.67385 0.67468 0.68421
 C196 C 0.64212 0.64556 0.65300
 H197 H 0.73906 0.84278 0.85726
 H198 H 0.83211 0.71386 0.72438
 H199 H 0.89715 0.77554 0.78366
 H200 H 0.80365 0.90500 0.91715
 C201 C 0.22466 0.84100 0.16896
 C202 C 0.21726 0.78765 0.22423
 C203 C 0.17261 0.76868 0.24405
 C204 C 0.13540 0.80254 0.20856
 C205 C 0.14217 0.85629 0.15211
 C206 C 0.18765 0.87506 0.13323
 C207 C 0.25552 0.75178 0.25999
 C208 C 0.28758 0.72146 0.28955
 C209 C 0.32508 0.68553 0.32386
 C210 C 0.35699 0.65443 0.35302
 H211 H 0.25913 0.85613 0.15318
 H212 H 0.16650 0.72739 0.28684
 H213 H 0.10139 0.78601 0.22549
 H214 H 0.19503 0.91595 0.09058
 C215 C 0.77365 0.17126 0.15905
 C216 C 0.78124 0.22525 0.21346
 C217 C 0.82599 0.24353 0.23384
 C218 C 0.86302 0.20780 0.20023
 C219 C 0.85578 0.15311 0.14571
 C220 C 0.81060 0.13542 0.12536
 C221 C 0.74314 0.26131 0.24894
 C222 C 0.71126 0.29120 0.27903
 C223 C 0.67399 0.32589 0.31473
 C224 C 0.64224 0.35527 0.34563
 H225 H 0.73915 0.15665 0.14283
 H226 H 0.83227 0.28522 0.27593
 H227 H 0.89728 0.22285 0.21724
 H228 H 0.80370 0.09375 0.08354
   
