data_POSCAR
  _audit_creation_date              2014-09-24
  _audit_creation_method            'ToBaCCo'
  _symmetry_space_group_name_H-M    'P1'
  _symmetry_Int_Tables_number       1
  _symmetry_cell_setting            triclinic
  loop_
  _symmetry_equiv_pos_as_xyz
 x,y,z
_cell_length_a 48.5580
_cell_length_b 24.1232
_cell_length_c 19.0926
_cell_angle_alpha 89.996900
_cell_angle_beta 89.883000
_cell_angle_gamma 90.117200
loop_
  _atom_site_label
  _atom_site_type_symbol
  _atom_site_fract_x
  _atom_site_fract_y
  _atom_site_fract_z
O1 O 0.71499 0.22360 0.43412
 O2 O 0.76485 0.18278 0.56873
 O3 O 0.71518 0.22317 0.57008
 O4 O 0.76479 0.18400 0.43305
 O5 O 0.78197 0.26875 0.43427
 O6 O 0.73209 0.30800 0.57112
 O7 O 0.78211 0.26746 0.56954
 O8 O 0.73183 0.30857 0.43439
 Cu9 Cu 0.73823 0.19496 0.50144
 Cu10 Cu 0.75861 0.29682 0.50241
 C11 C 0.71472 0.27304 0.41136
 C12 C 0.78226 0.21772 0.59151
 C13 C 0.71494 0.27237 0.59392
 C14 C 0.78215 0.21942 0.41098
 O15 O 0.23254 0.81246 0.56825
 O16 O 0.28299 0.77012 0.43336
 O17 O 0.23305 0.81090 0.43162
 O18 O 0.28277 0.77351 0.56880
 O19 O 0.26626 0.68827 0.57085
 O20 O 0.21604 0.72609 0.43465
 O21 O 0.26565 0.68552 0.43523
 O22 O 0.21618 0.72722 0.57077
 Cu23 Cu 0.25945 0.80034 0.50028
 Cu24 Cu 0.23931 0.69834 0.50317
 C25 C 0.21560 0.77698 0.59251
 C26 C 0.28304 0.72026 0.41176
 C27 C 0.21590 0.77500 0.40991
 C28 C 0.28337 0.72433 0.59246
 O29 O 0.26673 0.31767 -0.57144
 O30 O 0.21630 0.28103 -0.43466
 O31 O 0.26699 0.31751 -0.43549
 O32 O 0.21612 0.28071 -0.57075
 O33 O 0.23151 0.19485 -0.57119
 O34 O 0.28223 0.23143 -0.43583
 O35 O 0.23156 0.19498 -0.43478
 O36 O 0.28208 0.23176 -0.57126
 Cu37 Cu 0.23997 0.30781 -0.50306
 Cu38 Cu 0.25831 0.20462 -0.50328
 C39 C 0.28336 0.28119 -0.59418
 C40 C 0.21516 0.23166 -0.41162
 C41 C 0.28357 0.28087 -0.41317
 C42 C 0.21494 0.23135 -0.59395
 O43 O -0.23396 0.81537 -0.56608
 O44 O -0.28349 0.77734 -0.42832
 O45 O -0.23320 0.81570 -0.43006
 O46 O -0.28412 0.77579 -0.56419
 O47 O -0.26704 0.69112 -0.56541
 O48 O -0.21743 0.73001 -0.42883
 O49 O -0.26771 0.69176 -0.42885
 O50 O -0.21688 0.73069 -0.56402
 Cu51 Cu -0.26034 0.80458 -0.49724
 Cu52 Cu -0.24072 0.70229 -0.49680
 C53 C -0.21658 0.77994 -0.58764
 C54 C -0.28437 0.72793 -0.40536
 C55 C -0.21645 0.77967 -0.40692
 C56 C -0.28429 0.72648 -0.58761
 O57 O -0.03681 0.90521 0.13071
 O58 O -0.06746 0.95410 0.06386
 C59 C -0.06169 0.91908 0.11316
 O60 O 0.03922 1.10449 0.12237
 O61 O 0.06986 1.05204 0.05934
 C62 C 0.06410 1.09021 0.10492
 O63 O -0.03788 1.09766 0.13028
 O64 O -0.06802 1.04675 0.06393
 C65 C -0.06261 1.08236 0.11288
 O66 O 0.04015 0.90224 0.12250
 O67 O 0.07028 0.95613 0.05956
 C68 C 0.06487 0.91757 0.10503
 Zr69 Zr 0.00146 0.93246 0.08943
 O70 O 0.00475 0.93197 0.19998
 O71 O -0.00122 0.84483 0.08795
 Zr72 Zr 0.00070 1.07258 0.08920
 O73 O 0.00392 1.07391 0.19975
 O74 O -0.00291 1.16004 0.08705
 O75 O -0.02344 1.00186 0.10360
 O76 O 0.02499 1.00316 0.10198
 O77 O 0.03998 0.90267 -0.12155
 O78 O 0.07017 0.95662 -0.05927
 C79 C 0.06472 0.91827 -0.10485
 O80 O -0.03848 1.09700 -0.12752
 O81 O -0.06818 1.04678 -0.05890
 C82 C -0.06311 1.08179 -0.10873
 O83 O 0.03869 1.10441 -0.12168
 O84 O 0.06953 1.05237 -0.05910
 C85 C 0.06362 1.09033 -0.10479
 O86 O -0.03704 0.90552 -0.12724
 O87 O -0.06767 0.95442 -0.05992
 C88 C -0.06190 0.91943 -0.10935
 Zr89 Zr 0.00129 0.93227 -0.08675
 O90 O 0.00421 0.93048 -0.19735
 O91 O -0.00136 0.84465 -0.08370
 Zr92 Zr 0.00036 1.07245 -0.08703
 O93 O 0.00328 1.07381 -0.19766
 O94 O -0.00337 1.15988 -0.08471
 Zr95 Zr -0.04026 1.00123 0.00186
 Zr96 Zr 0.04213 1.00359 0.00063
 O97 O 0.02467 1.00306 -0.10022
 O98 O -0.02371 1.00161 -0.10039
 O99 O 0.02618 0.92220 0.00101
 O100 O -0.02364 1.08187 0.00147
 O101 O -0.02269 0.92159 0.00164
 O102 O 0.02520 1.08407 0.00068
 H103 H 0.03736 1.00347 0.14319
 H104 H -0.03637 1.11392 0.00158
 H105 H 0.03686 1.00341 -0.14190
 H106 H -0.03507 0.88888 0.00178
 H107 H 0.01309 1.17484 0.06087
 H108 H 0.01280 1.17479 -0.05948
 H109 H -0.01123 1.04902 -0.21610
 H110 H -0.01023 0.95525 -0.21591
 H111 H 0.01525 0.83071 -0.05957
 H112 H 0.01462 0.83080 0.06061
 H113 H -0.01029 0.95527 0.21872
 H114 H -0.01066 1.04937 0.21858
 O115 O 0.46181 0.40383 0.12641
 O116 O 0.43158 0.45378 0.05944
 C117 C 0.43707 0.41828 0.10850
 O118 O 0.53859 0.60123 0.12393
 O119 O 0.56923 0.54896 0.06077
 C120 C 0.56348 0.58661 0.10697
 O121 O 0.46129 0.59541 0.12848
 O122 O 0.43149 0.54610 0.05933
 C123 C 0.43663 0.58079 0.10946
 O124 O 0.53877 0.39927 0.12119
 O125 O 0.56942 0.45332 0.06006
 C126 C 0.56365 0.41469 0.10510
 Zr127 Zr 0.50039 0.43013 0.08650
 O128 O 0.50256 0.42580 0.19707
 O129 O 0.49922 0.34287 0.07718
 Zr130 Zr 0.50014 0.57038 0.08826
 O131 O 0.50266 0.57110 0.19894
 O132 O 0.49688 0.65790 0.08647
 O133 O 0.47569 0.49990 0.10061
 O134 O 0.52405 0.50038 0.10101
 O135 O 0.53977 0.40010 -0.12176
 O136 O 0.56992 0.45364 -0.05870
 C137 C 0.56450 0.41519 -0.10423
 O138 O 0.46275 0.59742 -0.12925
 O139 O 0.43203 0.54688 -0.06383
 C140 C 0.43787 0.58269 -0.11235
 O141 O 0.53976 0.60276 -0.12064
 O142 O 0.56996 0.54956 -0.05759
 C143 C 0.56451 0.58796 -0.10304
 O144 O 0.46296 0.40476 -0.13088
 O145 O 0.43216 0.45418 -0.06474
 C146 C 0.43806 0.41901 -0.11389
 Zr147 Zr 0.50114 0.43135 -0.08934
 O148 O 0.50476 0.43172 -0.19987
 O149 O 0.49856 0.34374 -0.08882
 Zr150 Zr 0.50103 0.57146 -0.08796
 O151 O 0.50458 0.57348 -0.19846
 O152 O 0.49782 0.65897 -0.08495
 Zr153 Zr 0.45941 0.50044 -0.00175
 Zr154 Zr 0.54183 0.50126 0.00039
 O155 O 0.52503 0.50166 -0.10113
 O156 O 0.47660 0.50128 -0.10326
 O157 O 0.52554 0.42029 -0.00084
 O158 O 0.47644 0.58074 -0.00040
 O159 O 0.47655 0.42045 -0.00202
 O160 O 0.52530 0.58205 0.00090
 H161 H 0.53606 0.50011 0.14289
 H162 H 0.46386 0.61302 -0.00037
 H163 H 0.53755 0.50189 -0.14219
 H164 H 0.46404 0.38794 -0.00257
 H165 H 0.51332 0.67258 0.06201
 H166 H 0.51382 0.67330 -0.05851
 H167 H 0.49012 0.54892 -0.21766
 H168 H 0.48965 0.45479 -0.21854
 H169 H 0.51210 0.33007 -0.05427
 H170 H 0.49905 0.32820 0.12566
 H171 H 0.48919 0.45286 0.21587
 H172 H 0.48794 0.54654 0.21698
 C173 C 0.34667 0.32821 0.26732
 C174 C 0.34466 0.27282 0.28924
 C175 C 0.32326 0.25684 0.33374
 C176 C 0.30371 0.29582 0.35668
 C177 C 0.30589 0.35039 0.33103
 N178 N 0.32701 0.36493 0.28790
 C179 C 0.36995 0.34822 0.22402
 N180 N 0.36632 0.39330 0.18212
 C181 C 0.38717 0.41549 0.14350
 C182 C 0.41376 0.39285 0.14697
 C183 C 0.41795 0.34645 0.18997
 C184 C 0.39616 0.32400 0.22832
 H185 H 0.32239 0.21411 0.35107
 H186 H 0.29120 0.38190 0.34626
 H187 H 0.38305 0.45149 0.11141
 H188 H 0.43812 0.32774 0.19452
 H189 H 0.35941 0.24201 0.27238
 H190 H 0.40014 0.28923 0.26261
 C191 C -0.15271 0.83209 0.27286
 C192 C -0.17662 0.86430 0.27949
 C193 C -0.19774 0.84678 0.32397
 C194 C -0.19532 0.79683 0.36106
 C195 C -0.17146 0.76493 0.35128
 N196 N -0.15094 0.78337 0.30863
 C197 C -0.12920 0.85153 0.22975
 N198 N -0.13288 0.89335 0.18284
 C199 C -0.11186 0.91439 0.14399
 C200 C -0.08498 0.89397 0.15214
 C201 C -0.08076 0.85038 0.19962
 C202 C -0.10281 0.82885 0.23810
 H203 H -0.21581 0.87261 0.32993
 H204 H -0.16873 0.72624 0.37909
 H205 H -0.11615 0.94775 0.10779
 H206 H -0.06041 0.83317 0.20744
 H207 H -0.17869 0.90337 0.25212
 H208 H -0.09909 0.79572 0.27514
 C209 C 0.65340 0.67490 0.26841
 C210 C 0.67687 0.64187 0.27795
 C211 C 0.69742 0.65910 0.32408
 C212 C 0.69488 0.70953 0.36011
 C213 C 0.67150 0.74217 0.34757
 N214 N 0.65152 0.72405 0.30324
 C215 C 0.63038 0.65574 0.22356
 N216 N 0.63408 0.61170 0.17993
 C217 C 0.61335 0.59040 0.14049
 C218 C 0.58673 0.61288 0.14465
 C219 C 0.58255 0.65896 0.18830
 C220 C 0.60433 0.68068 0.22740
 H221 H 0.71515 0.63270 0.33204
 H222 H 0.66870 0.78130 0.37435
 H223 H 0.61757 0.55493 0.10752
 H224 H 0.56240 0.67776 0.19299
 H225 H 0.67905 0.60244 0.25143
 H226 H 0.60058 0.71562 0.26168
 C227 C 0.15298 1.18469 0.26393
 C228 C 0.15461 1.23995 0.28666
 C229 C 0.17550 1.25580 0.33263
 C230 C 0.19489 1.21682 0.35625
 C231 C 0.19307 1.16240 0.32999
 N232 N 0.17246 1.14801 0.28544
 C233 C 0.13025 1.16456 0.21902
 N234 N 0.13434 1.11881 0.17855
 C235 C 0.11390 1.09572 0.13958
 C236 C 0.08720 1.11798 0.14139
 C237 C 0.08260 1.16544 0.18227
 C238 C 0.10400 1.18886 0.22092
 H239 H 0.17613 1.29843 0.35039
 H240 H 0.20765 1.13090 0.34569
 H241 H 0.11836 1.05902 0.10906
 H242 H 0.06233 1.18393 0.18547
 H243 H 0.13998 1.27076 0.26927
 H244 H 0.09962 1.22421 0.25395
 C245 C 0.65371 0.32068 -0.26245
 C246 C 0.65506 0.26528 -0.28465
 C247 C 0.67569 0.24898 -0.33114
 C248 C 0.69524 0.28755 -0.35558
 C249 C 0.69384 0.34207 -0.32948
 N250 N 0.67337 0.35700 -0.28461
 C251 C 0.63095 0.34121 -0.21777
 N252 N 0.63497 0.38726 -0.17773
 C253 C 0.61444 0.41036 -0.13893
 C254 C 0.58776 0.38776 -0.14046
 C255 C 0.58326 0.34005 -0.18094
 C256 C 0.60470 0.31670 -0.21945
 H257 H 0.67601 0.20625 -0.34858
 H258 H 0.70859 0.37325 -0.34579
 H259 H 0.61881 0.44728 -0.10871
 H260 H 0.56303 0.32126 -0.18397
 H261 H 0.64037 0.23466 -0.26660
 H262 H 0.60034 0.28118 -0.25219
 C263 C 0.15400 0.82622 -0.26535
 C264 C 0.15580 0.77049 -0.28584
 C265 C 0.17654 0.75400 -0.33184
 C266 C 0.19575 0.79273 -0.35761
 C267 C 0.19387 0.84772 -0.33339
 N268 N 0.17331 0.86282 -0.28882
 C269 C 0.13118 0.84655 -0.22071
 N270 N 0.13502 0.89273 -0.18083
 C271 C 0.11448 0.91521 -0.14149
 C272 C 0.08798 0.89173 -0.14217
 C273 C 0.08364 0.84398 -0.18268
 C274 C 0.10509 0.82131 -0.22180
 H275 H 0.17722 0.71093 -0.34780
 H276 H 0.20833 0.87906 -0.35083
 H277 H 0.11871 0.95224 -0.11136
 H278 H 0.06353 0.82458 -0.18513
 H279 H 0.14139 0.73973 -0.26670
 H280 H 0.10088 0.78562 -0.25440
 C281 C 0.34795 0.67486 -0.26952
 C282 C 0.34707 0.72969 -0.29410
 C283 C 0.32554 0.74628 -0.33747
 C284 C 0.30481 0.70855 -0.35636
 C285 C 0.30587 0.65474 -0.32843
 N286 N 0.32714 0.63945 -0.28646
 C287 C 0.37124 0.65407 -0.22728
 N288 N 0.36704 0.61081 -0.18268
 C289 C 0.38777 0.58814 -0.14448
 C290 C 0.41481 0.60837 -0.15112
 C291 C 0.41958 0.65284 -0.19698
 C292 C 0.39793 0.67578 -0.23496
 H293 H 0.32544 0.78835 -0.35727
 H294 H 0.29019 0.62444 -0.34110
 H295 H 0.38314 0.55382 -0.10990
 H296 H 0.44008 0.66969 -0.20407
 H297 H 0.36279 0.75955 -0.28022
 H298 H 0.40233 0.70897 -0.27143
 C299 C -0.15519 1.16283 -0.26764
 C300 C -0.17836 1.12927 -0.27983
 C301 C -0.19899 1.14773 -0.32468
 C302 C -0.19676 1.19960 -0.35739
 C303 C -0.17343 1.23223 -0.34327
 N304 N -0.15339 1.21305 -0.29991
 C305 C -0.13212 1.14359 -0.22344
 N306 N -0.10608 1.16137 -0.23786
 C307 C -0.08380 1.14328 -0.20132
 C308 C -0.08709 1.10488 -0.14662
 C309 C -0.11390 1.08738 -0.12969
 C310 C -0.13637 1.10660 -0.16774
 H311 H -0.21653 1.12102 -0.33446
 H312 H -0.17078 1.27229 -0.36793
 H313 H -0.06356 1.15833 -0.21579
 H314 H -0.11758 1.05837 -0.08740
 H315 H -0.18020 1.08840 -0.25693
 H316 H -0.15681 1.09272 -0.15330
 C317 C 0.65398 0.68101 -0.26199
 C318 C 0.65581 0.73642 -0.28395
 C319 C 0.67660 0.75224 -0.33032
 C320 C 0.69577 0.71314 -0.35503
 C321 C 0.69383 0.65857 -0.32935
 N322 N 0.67326 0.64414 -0.28444
 C323 C 0.63115 0.66107 -0.21706
 N324 N 0.63499 0.61515 -0.17677
 C325 C 0.61439 0.59245 -0.13774
 C326 C 0.58782 0.61532 -0.13932
 C327 C 0.58350 0.66293 -0.18002
 C328 C 0.60504 0.68593 -0.21873
 H329 H 0.67734 0.79502 -0.34752
 H330 H 0.70825 0.62699 -0.34589
 H331 H 0.61862 0.55557 -0.10736
 H332 H 0.56333 0.68185 -0.18309
 H333 H 0.64140 0.76737 -0.26571
 H334 H 0.60085 0.72142 -0.25163
 C335 C 0.15220 1.18450 -0.26628
 C336 C 0.15336 1.23937 -0.29078
 C337 C 0.17426 1.25510 -0.33700
 C338 C 0.19410 1.21650 -0.35876
 C339 C 0.19278 1.16263 -0.33106
 N340 N 0.17215 1.14819 -0.28635
 C341 C 0.12950 1.16438 -0.22100
 N342 N 0.13382 1.11948 -0.17923
 C343 C 0.11345 1.09651 -0.13967
 C344 C 0.08661 1.11801 -0.14210
 C345 C 0.08177 1.16459 -0.18435
 C346 C 0.10308 1.18788 -0.22367
 H347 H 0.17462 1.29727 -0.35646
 H348 H 0.20781 1.13166 -0.34583
 H349 H 0.11812 1.06051 -0.10808
 H350 H 0.06138 1.18247 -0.18813
 H351 H 0.13838 1.26994 -0.27462
 H352 H 0.09851 1.22248 -0.25771
 C353 C 0.34838 0.32880 -0.27452
 C354 C 0.34725 0.27414 -0.29966
 C355 C 0.32569 0.25808 -0.34340
 C356 C 0.30519 0.29619 -0.36215
 C357 C 0.30655 0.34988 -0.33388
 N358 N 0.32781 0.36461 -0.29149
 C359 C 0.37160 0.34897 -0.23137
 N360 N 0.36742 0.39199 -0.18646
 C361 C 0.38808 0.41415 -0.14738
 C362 C 0.41504 0.39363 -0.15337
 C363 C 0.41979 0.34935 -0.19949
 C364 C 0.39821 0.32692 -0.23838
 H365 H 0.32537 0.21610 -0.36348
 H366 H 0.29104 0.38045 -0.34642
 H367 H 0.38347 0.44836 -0.11268
 H368 H 0.44025 0.33229 -0.20608
 H369 H 0.36278 0.24398 -0.28583
 H370 H 0.40260 0.29387 -0.27501
 C371 C -0.15193 0.82919 -0.26838
 C372 C -0.15349 0.77390 -0.29099
 C373 C -0.17497 0.75745 -0.33467
 C374 C -0.19500 0.79578 -0.35584
 C375 C -0.19328 0.85017 -0.32995
 N376 N -0.17207 0.86530 -0.28760
 C377 C -0.12866 0.84956 -0.22561
 N378 N -0.13255 0.89381 -0.18247
 C379 C -0.11178 0.91598 -0.14375
 C380 C -0.08504 0.89410 -0.14830
 C381 C -0.08058 0.84863 -0.19268
 C382 C -0.10227 0.82625 -0.23122
 H383 H -0.17559 0.71493 -0.35279
 H384 H -0.20843 0.88094 -0.34443
 H385 H -0.11611 0.95129 -0.11059
 H386 H -0.06029 0.83058 -0.19813
 H387 H -0.13835 0.74354 -0.27525
 H388 H -0.09810 0.79219 -0.26651
 C389 C 0.34502 0.66400 0.26940
 C390 C 0.32172 0.63092 0.28224
 C391 C 0.30128 0.64984 0.32761
 C392 C 0.30384 0.70171 0.36019
 C393 C 0.32728 0.73387 0.34537
 N394 N 0.34713 0.71423 0.30154
 C395 C 0.36793 0.64417 0.22485
 N396 N 0.39406 0.66157 0.23867
 C397 C 0.41623 0.64294 0.20190
 C398 C 0.41274 0.60433 0.14754
 C399 C 0.38584 0.58720 0.13117
 C400 C 0.36348 0.60697 0.16949
 H401 H 0.28365 0.62348 0.33789
 H402 H 0.33018 0.77390 0.36987
 H403 H 0.43653 0.65776 0.21591
 H404 H 0.38202 0.55807 0.08914
 H405 H 0.31962 0.59006 0.25949
 H406 H 0.34297 0.59335 0.15551
 C407 C -0.15414 1.16749 0.27133
 C408 C -0.17779 1.13452 0.27917
 C409 C -0.19890 1.15193 0.32366
 C410 C -0.19670 1.20250 0.35955
 C411 C -0.17311 1.23512 0.34848
 N412 N -0.15261 1.21680 0.30586
 C413 C -0.13057 1.14831 0.22849
 N414 N -0.13393 1.10549 0.18282
 C415 C -0.11276 1.08479 0.14432
 C416 C -0.08609 1.10669 0.15158
 C417 C -0.08222 1.15128 0.19778
 C418 C -0.10440 1.17238 0.23590
 H419 H -0.21677 1.12554 0.33065
 H420 H -0.17054 1.27431 0.37528
 H421 H -0.11677 1.05063 0.10907
 H422 H -0.06205 1.16967 0.20483
 H423 H -0.17967 1.09497 0.25278
 H424 H -0.10093 1.20633 0.27193
 C425 C 0.65221 0.32228 0.26680
 C426 C 0.65365 0.26685 0.28889
 C427 C 0.67437 0.25066 0.33493
 C428 C 0.69384 0.28931 0.35886
 C429 C 0.69231 0.34386 0.33348
 N430 N 0.67179 0.35878 0.28891
 C431 C 0.62954 0.34247 0.22182
 N432 N 0.63370 0.38806 0.18103
 C433 C 0.61334 0.41058 0.14137
 C434 C 0.58669 0.38779 0.14262
 C435 C 0.58203 0.34060 0.18398
 C436 C 0.60331 0.31786 0.22345
 H437 H 0.67491 0.20797 0.35243
 H438 H 0.70705 0.37490 0.35000
 H439 H 0.61785 0.44714 0.11054
 H440 H 0.56180 0.32176 0.18688
 H441 H 0.63902 0.23614 0.27093
 H442 H 0.59885 0.28267 0.25672
 C443 C 0.15380 0.82321 0.26362
 C444 C 0.15502 0.76795 0.28669
 C445 C 0.17562 0.75193 0.33326
 C446 C 0.19518 0.79057 0.35666
 C447 C 0.19392 0.84482 0.33010
 N448 N 0.17351 0.85958 0.28518
 C449 C 0.13113 0.84363 0.21872
 N450 N 0.13520 0.88977 0.17882
 C451 C 0.11475 0.91290 0.13996
 C452 C 0.08810 0.89020 0.14127
 C453 C 0.08355 0.84237 0.18156
 C454 C 0.10490 0.81902 0.22015
 H455 H 0.17599 0.70947 0.35164
 H456 H 0.20875 0.87585 0.34613
 H457 H 0.11916 0.94991 0.10991
 H458 H 0.06333 0.82348 0.18440
 H459 H 0.14028 0.73727 0.26925
 H460 H 0.10047 0.78344 0.25275
   
