data_POSCAR
  _audit_creation_date              2014-09-24
  _audit_creation_method            'ToBaCCo'
  _symmetry_space_group_name_H-M    'P1'
  _symmetry_Int_Tables_number       1
  _symmetry_cell_setting            triclinic
  loop_
  _symmetry_equiv_pos_as_xyz
 x,y,z
_cell_length_a 48.0834
_cell_length_b 47.4365
_cell_length_c 48.1531
_cell_angle_alpha 89.902800
_cell_angle_beta 90.012900
_cell_angle_gamma 89.994000
loop_
  _atom_site_label
  _atom_site_type_symbol
  _atom_site_fract_x
  _atom_site_fract_y
  _atom_site_fract_z
C1 C 0.60429 0.64529 0.62554
 C2 C 0.62486 0.64531 0.60494
 C3 C 0.64567 0.62464 0.60511
 C4 C 0.64592 0.60393 0.62589
 C5 C 0.62534 0.60388 0.64652
 C6 C 0.60453 0.62458 0.64632
 H7 H 0.62467 0.66134 0.58885
 H8 H 0.66206 0.58795 0.62596
 H9 H 0.58856 0.62462 0.66224
 C10 C 0.89648 0.35426 0.12515
 C11 C 0.89626 0.37494 0.14592
 C12 C 0.87547 0.39564 0.14609
 C13 C 0.85488 0.39565 0.12550
 C14 C 0.85507 0.37500 0.10474
 C15 C 0.87586 0.35431 0.10457
 H16 H 0.91218 0.37498 0.16189
 H17 H 0.83878 0.41167 0.12563
 H18 H 0.87595 0.33834 0.08845
 C19 C 0.39563 0.14588 -0.12552
 C20 C 0.39540 0.12516 -0.14622
 C21 C 0.37459 0.10450 -0.14637
 C22 C 0.35399 0.10457 -0.12580
 C23 C 0.35419 0.12527 -0.10509
 C24 C 0.37502 0.14592 -0.10496
 H25 H 0.41136 0.12512 -0.16214
 H26 H 0.33787 0.08857 -0.12591
 H27 H 0.37519 0.16195 -0.08893
 C28 C 0.10339 0.85376 0.37473
 C29 C 0.12401 0.85376 0.39532
 C30 C 0.14476 0.87449 0.39516
 C31 C 0.14491 0.89523 0.37441
 C32 C 0.12432 0.89526 0.35382
 C33 C 0.10357 0.87453 0.35398
 H34 H 0.12395 0.83773 0.41142
 H35 H 0.16098 0.91127 0.37429
 H36 H 0.08765 0.87461 0.33800
 N37 N 0.09277 0.17074 0.11259
 N38 N 0.08221 0.15952 0.13526
 C39 C 0.05965 0.17447 0.14294
 C40 C 0.05610 0.19603 0.12407
 C41 C 0.07734 0.19319 0.10508
 H42 H 0.04676 0.17006 0.16083
 H43 H 0.08124 0.20643 0.08720
 Cu44 Cu 0.09894 0.12649 0.15248
 Cu45 Cu 0.12567 0.15544 0.09452
 Cu46 Cu 0.15529 0.09590 0.12412
 N47 N 0.11544 0.09271 0.16848
 N48 N 0.13748 0.08086 0.15729
 C49 C 0.14460 0.05799 0.17231
 C50 C 0.12600 0.05553 0.19393
 C51 C 0.10777 0.07775 0.19103
 H52 H 0.16195 0.04421 0.16786
 H53 H 0.09030 0.08257 0.20434
 N54 N 0.17028 0.11422 0.09056
 N55 N 0.15900 0.13691 0.07928
 C56 C 0.17392 0.14436 0.05675
 C57 C 0.19546 0.12546 0.05388
 C58 C 0.19269 0.10664 0.07550
 H59 H 0.16954 0.16218 0.04341
 H60 H 0.20603 0.08883 0.07988
 H61 H 0.11987 0.11443 0.10795
 H62 H 0.14293 0.13726 0.12954
 N63 N 0.40644 0.82950 0.61288
 N64 N 0.41697 0.84070 0.63554
 C65 C 0.43959 0.82581 0.64323
 C66 C 0.44320 0.80431 0.62437
 C67 C 0.42195 0.80713 0.60538
 H68 H 0.45246 0.83020 0.66112
 H69 H 0.41808 0.79392 0.58751
 Cu70 Cu 0.40013 0.87362 0.65274
 Cu71 Cu 0.37348 0.84473 0.59479
 Cu72 Cu 0.34366 0.90408 0.62436
 N73 N 0.38352 0.90730 0.66871
 N74 N 0.36143 0.91910 0.65751
 C75 C 0.35426 0.94191 0.67250
 C76 C 0.37286 0.94440 0.69412
 C77 C 0.39117 0.92224 0.69124
 H78 H 0.33687 0.95565 0.66803
 H79 H 0.40867 0.91746 0.70454
 N80 N 0.32871 0.88580 0.59081
 N81 N 0.34008 0.86319 0.57954
 C82 C 0.32517 0.85574 0.55702
 C83 C 0.30356 0.87456 0.55414
 C84 C 0.30627 0.89333 0.57575
 H85 H 0.32961 0.83798 0.54369
 H86 H 0.29287 0.91108 0.58012
 H87 H 0.37914 0.88573 0.60820
 H88 H 0.35617 0.86275 0.62981
 N89 N 0.90758 0.66977 0.38780
 N90 N 0.91845 0.65827 0.36544
 C91 C 0.94101 0.67322 0.35775
 C92 C 0.94425 0.69507 0.37628
 C93 C 0.92282 0.69239 0.39509
 H94 H 0.95410 0.66865 0.34006
 H95 H 0.91865 0.70587 0.41269
 Cu96 Cu 0.90198 0.62493 0.34868
 Cu97 Cu 0.87452 0.65459 0.40577
 Cu98 Cu 0.84484 0.59513 0.37618
 N99 N 0.88517 0.59159 0.33225
 N100 N 0.86280 0.58004 0.34314
 C101 C 0.85545 0.55744 0.32791
 C102 C 0.87424 0.55484 0.30648
 C103 C 0.89282 0.57670 0.30970
 H104 H 0.83781 0.54395 0.33209
 H105 H 0.91050 0.58134 0.29659
 N106 N 0.82975 0.61349 0.40963
 N107 N 0.84105 0.63614 0.42090
 C108 C 0.82606 0.64361 0.44336
 C109 C 0.80447 0.62477 0.44619
 C110 C 0.80728 0.60597 0.42463
 H111 H 0.83046 0.66138 0.45669
 H112 H 0.79392 0.58818 0.42026
 H113 H 0.88006 0.61342 0.39293
 H114 H 0.85770 0.63633 0.37063
 N115 N 0.59346 0.33005 -0.11296
 N116 N 0.58293 0.34127 -0.13565
 C117 C 0.56033 0.32639 -0.14331
 C118 C 0.55671 0.30486 -0.12441
 C119 C 0.57796 0.30767 -0.10542
 H120 H 0.54746 0.33080 -0.16122
 H121 H 0.58184 0.29443 -0.08752
 Cu122 Cu 0.59979 0.37420 -0.15292
 Cu123 Cu 0.62642 0.34526 -0.09490
 Cu124 Cu 0.65626 0.40462 -0.12462
 N125 N 0.61640 0.40787 -0.16899
 N126 N 0.63850 0.41966 -0.15782
 C127 C 0.64568 0.44247 -0.17289
 C128 C 0.62708 0.44497 -0.19452
 C129 C 0.60877 0.42283 -0.19157
 H130 H 0.66308 0.45619 -0.16847
 H131 H 0.59126 0.41806 -0.20486
 N132 N 0.67119 0.38632 -0.09102
 N133 N 0.65982 0.36370 -0.07969
 C134 C 0.67472 0.35624 -0.05714
 C135 C 0.69633 0.37505 -0.05431
 C136 C 0.69362 0.39383 -0.07597
 H137 H 0.67027 0.33847 -0.04376
 H138 H 0.70702 0.41159 -0.08038
 H139 H 0.62078 0.38626 -0.10841
 H140 H 0.64374 0.36330 -0.12996
 C141 C -0.04358 0.29473 0.12470
 C142 C -0.03799 0.28174 0.15338
 C143 C -0.01773 0.26165 0.15324
 C144 C -0.00505 0.25652 0.12444
 C145 C 0.00503 0.28558 0.11464
 C146 C -0.01523 0.30568 0.11478
 C147 C -0.05013 0.26960 0.10575
 C148 C -0.02987 0.24951 0.10561
 C149 C -0.06538 0.31636 0.12485
 C150 C -0.08329 0.33415 0.12499
 C151 C 0.01676 0.23490 0.12429
 C152 C 0.03471 0.21715 0.12419
 H153 H -0.04897 0.28780 0.17214
 H154 H -0.01136 0.25049 0.17189
 H155 H 0.02622 0.29000 0.10816
 H156 H -0.01140 0.32730 0.10842
 H157 H -0.06901 0.26775 0.09352
 H158 H -0.03139 0.23044 0.09326
 C159 C 0.54313 0.70586 0.62504
 C160 C 0.52336 0.70398 0.65000
 C161 C 0.50306 0.72403 0.64986
 C162 C 0.50451 0.74399 0.62477
 C163 C 0.50388 0.72462 0.59927
 C164 C 0.52419 0.70457 0.59941
 C165 C 0.55438 0.73614 0.62552
 C166 C 0.53408 0.75618 0.62538
 C167 C 0.56498 0.68427 0.62520
 C168 C 0.58291 0.66651 0.62534
 C169 C 0.48265 0.76555 0.62463
 C170 C 0.46466 0.78325 0.62451
 H171 H 0.52516 0.68829 0.66635
 H172 H 0.48746 0.72551 0.66609
 H173 H 0.48881 0.72649 0.58257
 H174 H 0.52651 0.68927 0.58283
 H175 H 0.57636 0.74137 0.62592
 H176 H 0.53866 0.77859 0.62567
 C177 C 1.04360 0.79410 0.37526
 C178 C 1.03555 0.78417 0.40453
 C179 C 1.01535 0.76403 0.40473
 C180 C 1.00518 0.75578 0.37563
 C181 C 1.03150 0.74699 0.35984
 C182 C 1.05171 0.76714 0.35964
 C183 C 1.01622 0.80372 0.36187
 C184 C 0.99601 0.78358 0.36207
 C185 C 1.06534 0.81578 0.37505
 C186 C 1.08321 0.83361 0.37489
 C187 C 0.98343 0.73410 0.37585
 C188 C 0.96555 0.71628 0.37604
 H189 H 1.04489 0.79226 0.42344
 H190 H 1.00738 0.75486 0.42381
 H191 H 1.03406 0.72673 0.34970
 H192 H 1.07156 0.76413 0.34933
 H193 H 1.01298 0.82453 0.35301
 H194 H 0.97547 0.78713 0.35338
 C195 C 0.45682 0.20640 -0.12507
 C196 C 0.45794 0.22404 -0.15180
 C197 C 0.47824 0.24409 -0.15165
 C198 C 0.49543 0.24453 -0.12479
 C199 C 0.50654 0.21436 -0.12152
 C200 C 0.48624 0.19432 -0.12167
 C201 C 0.45373 0.22797 -0.10153
 C202 C 0.47403 0.24801 -0.10139
 C203 C 0.43497 0.18482 -0.12523
 C204 C 0.41703 0.16708 -0.12536
 C205 C 0.51729 0.26609 -0.12463
 C206 C 0.53527 0.28379 -0.12452
 H207 H 0.44402 0.22105 -0.16931
 H208 H 0.48171 0.25827 -0.16903
 H209 H 0.52843 0.20920 -0.11929
 H210 H 0.49074 0.17199 -0.11957
 H211 H 0.43707 0.22753 -0.08633
 H212 H 0.47476 0.26474 -0.08605
 C213 C 0.12487 -0.04383 0.29300
 C214 C 0.10458 -0.01948 0.29850
 C215 C 0.10479 0.00072 0.27835
 C216 C 0.12527 -0.00540 0.25466
 C217 C 0.11720 -0.03476 0.24398
 C218 C 0.11699 -0.05496 0.26413
 C219 C 0.15333 -0.02971 0.28908
 C220 C 0.15354 -0.00951 0.26892
 C221 C 0.12466 -0.06557 0.31469
 C222 C 0.12450 -0.08343 0.33253
 C223 C 0.12551 0.01634 0.23297
 C224 C 0.12572 0.03422 0.21515
 H225 H 0.09123 -0.01822 0.31663
 H226 H 0.09161 0.01928 0.27921
 H227 H 0.11209 -0.03928 0.22248
 H228 H 0.11170 -0.07678 0.25990
 H229 H 0.17170 -0.03510 0.30108
 H230 H 0.17209 0.00240 0.26366
 C231 C 0.62600 0.54419 -0.29370
 C232 C 0.63894 0.51620 -0.30307
 C233 C 0.63916 0.49602 -0.28289
 C234 C 0.62641 0.50582 -0.25531
 C235 C 0.59713 0.51622 -0.26285
 C236 C 0.59691 0.53640 -0.28303
 C237 C 0.64244 0.55269 -0.26769
 C238 C 0.64265 0.53252 -0.24751
 C239 C 0.62576 0.56590 -0.31542
 C240 C 0.62556 0.58374 -0.33329
 C241 C 0.62664 0.48410 -0.23359
 C242 C 0.62684 0.46625 -0.21575
 H243 H 0.64721 0.51254 -0.32373
 H244 H 0.64761 0.47508 -0.28626
 H245 H 0.57823 0.50843 -0.25319
 H246 H 0.57783 0.54589 -0.29066
 H247 H 0.65298 0.57279 -0.26534
 H248 H 0.65338 0.53533 -0.22787
 C249 C 0.37397 1.04366 0.79294
 C250 C 0.38161 1.05486 0.76400
 C251 C 0.38139 1.03468 0.74389
 C252 C 0.37356 1.00527 0.75469
 C253 C 0.34536 1.00918 0.76912
 C254 C 0.34557 1.02936 0.78922
 C255 C 0.39444 1.01943 0.79838
 C256 C 0.39423 0.99925 0.77828
 C257 C 0.37420 1.06538 0.81458
 C258 C 0.37438 1.08322 0.83237
 C259 C 0.37332 0.98354 0.73305
 C260 C 0.37312 0.96568 0.71528
 H261 H 0.38673 1.07672 0.75968
 H262 H 0.38633 1.03925 0.72235
 H263 H 0.32685 0.99716 0.76399
 H264 H 0.32725 1.03463 0.80132
 H265 H 0.40792 1.01824 0.81644
 H266 H 0.40752 0.98077 0.77911
 C267 C 0.87496 0.45622 0.20703
 C268 C 0.89396 0.44924 0.23173
 C269 C 0.89381 0.46931 0.25195
 C270 C 0.87467 0.49438 0.24549
 C271 C 0.84599 0.48130 0.24004
 C272 C 0.84614 0.46123 0.21982
 C273 C 0.88457 0.48533 0.19690
 C274 C 0.88442 0.50540 0.21712
 C275 C 0.87512 0.43462 0.18527
 C276 C 0.87527 0.41685 0.16740
 C277 C 0.87451 0.51598 0.26726
 C278 C 0.87439 0.53372 0.28515
 H279 H 0.90643 0.43022 0.23320
 H280 H 0.90616 0.46747 0.27074
 H281 H 0.82722 0.48727 0.25109
 H282 H 0.82750 0.45002 0.21355
 H283 H 0.89094 0.48979 0.17572
 H284 H 0.89066 0.52704 0.21326
 C285 C 0.29380 0.12536 -0.04468
 C286 C 0.28604 0.09577 -0.03431
 C287 C 0.26603 0.09578 -0.01427
 C288 C 0.25574 0.12539 -0.00656
 C289 C 0.24622 0.13860 -0.03410
 C290 C 0.26623 0.13858 -0.05414
 C291 C 0.30205 0.14175 -0.01848
 C292 C 0.28204 0.14177 0.00156
 C293 C 0.31533 0.12533 -0.06625
 C294 C 0.33304 0.12531 -0.08396
 C295 C 0.23420 0.12541 0.01501
 C296 C 0.21652 0.12543 0.03275
 H297 H 0.29544 0.07650 -0.04202
 H298 H 0.25829 0.07653 -0.00481
 H299 H 0.22558 0.14720 -0.03755
 H300 H 0.26273 0.14717 -0.07476
 H301 H 0.32186 0.15241 -0.01590
 H302 H 0.28471 0.15244 0.02131
 C303 C 0.70604 0.62470 0.54466
 C304 C 0.73189 0.60740 0.55242
 C305 C 0.75191 0.60740 0.53239
 C306 C 0.74412 0.62471 0.50656
 C307 C 0.73713 0.65421 0.51760
 C308 C 0.71711 0.65421 0.53762
 C309 C 0.69620 0.61249 0.51683
 C310 C 0.71622 0.61249 0.49681
 C311 C 0.68449 0.62469 0.56622
 C312 C 0.66679 0.62467 0.58394
 C313 C 0.76567 0.62471 0.48501
 C314 C 0.78338 0.62473 0.46730
 H315 H 0.73426 0.59614 0.57192
 H316 H 0.77143 0.59614 0.53474
 H317 H 0.74704 0.67342 0.51032
 H318 H 0.70986 0.67341 0.54750
 H319 H 0.67534 0.60454 0.51318
 H320 H 0.71252 0.60455 0.47600
 C321 C 0.79466 0.37507 0.04430
 C322 C 0.76524 0.36990 0.05557
 C323 C 0.74523 0.36989 0.03553
 C324 C 0.75660 0.37506 0.00617
 C325 C 0.77896 0.35236 0.00199
 C326 C 0.79897 0.35236 0.02204
 C327 C 0.79271 0.40294 0.02817
 C328 C 0.77270 0.40293 0.00812
 C329 C 0.81620 0.37506 0.06588
 C330 C 0.83391 0.37504 0.08360
 C331 C 0.73507 0.37506 -0.01541
 C332 C 0.71738 0.37505 -0.03316
 H333 H 0.76053 0.36654 0.07738
 H334 H 0.72338 0.36653 0.04016
 H335 H 0.77907 0.33758 -0.01520
 H336 H 0.81621 0.33758 0.02202
 H337 H 0.80588 0.42108 0.03215
 H338 H 0.76873 0.42107 -0.00507
 C339 C 0.20517 0.87452 0.45559
 C340 C 0.19393 0.88062 0.48480
 C341 C 0.21395 0.88064 0.50484
 C342 C 0.24325 0.87455 0.49370
 C343 C 0.24803 0.89663 0.47085
 C344 C 0.22801 0.89661 0.45081
 C345 C 0.22066 0.84634 0.45826
 C346 C 0.24068 0.84636 0.47830
 C347 C 0.18363 0.87449 0.43402
 C348 C 0.16592 0.87449 0.41630
 C349 C 0.26479 0.87457 0.51528
 C350 C 0.28249 0.87457 0.53301
 H351 H 0.17217 0.88458 0.48934
 H352 H 0.20933 0.88462 0.52655
 H353 H 0.26559 0.91101 0.47044
 H354 H 0.22842 0.91097 0.43324
 H355 H 0.21630 0.82800 0.44554
 H356 H 0.25346 0.82803 0.48275
   
