data_POSCAR
  _audit_creation_date              2014-09-24
  _audit_creation_method            'ToBaCCo'
  _symmetry_space_group_name_H-M    'P1'
  _symmetry_Int_Tables_number       1
  _symmetry_cell_setting            triclinic
  loop_
  _symmetry_equiv_pos_as_xyz
 x,y,z
_cell_length_a 19.0886
_cell_length_b 19.0316
_cell_length_c 18.9274
_cell_angle_alpha 90.080400
_cell_angle_beta 90.148500
_cell_angle_gamma 90.117500
loop_
  _atom_site_label
  _atom_site_type_symbol
  _atom_site_fract_x
  _atom_site_fract_y
  _atom_site_fract_z
C1 C 0.53116 0.96570 -0.70733
 C2 C 0.45943 0.96673 -0.70703
 C3 C 0.43961 0.99856 -0.64421
 N4 N 0.49676 1.01744 -0.60645
 C5 C 0.55277 0.99714 -0.64484
 C6 C 0.36961 1.01056 -0.62327
 C7 C 0.35099 1.03087 -0.55379
 C8 C 0.28569 1.05622 -0.53424
 C9 C 0.28685 1.06389 -0.46206
 C10 C 0.35295 1.04363 -0.43956
 N11 N 0.39169 1.02348 -0.49570
 C12 C 0.37380 1.03932 -0.36813
 C13 C 0.44426 1.03427 -0.34590
 C14 C 0.46536 1.02569 -0.27645
 C15 C 0.53709 1.02512 -0.27687
 C16 C 0.55778 1.03265 -0.34683
 N17 N 0.50068 1.03984 -0.38862
 C18 C 0.62848 1.03521 -0.37048
 C19 C 0.64675 1.04399 -0.44275
 C20 C 0.71301 1.06120 -0.46798
 C21 C 0.71060 1.05532 -0.54027
 C22 C 0.64371 1.03281 -0.55761
 N23 N 0.60504 1.02679 -0.49813
 C24 C 0.62323 1.00909 -0.62553
 H25 H 0.56361 0.94393 -0.74871
 H26 H 0.42570 0.94566 -0.74797
 H27 H 0.55709 1.00129 -0.49472
 H28 H 0.24137 1.06680 -0.56836
 H29 H 0.24368 1.08166 -0.42969
 H30 H 0.43254 1.02074 -0.23016
 H31 H 0.56999 1.01982 -0.23063
 H32 H 0.75438 1.06303 -0.57569
 H33 H 0.43948 0.99764 -0.49348
 H34 H 0.75960 1.07414 -0.43821
 C35 C -0.72032 1.54285 -0.01206
 C36 C -0.72373 1.47143 -0.00477
 C37 C -0.65643 1.44868 0.01050
 N38 N -0.61169 1.50390 0.00907
 C39 C -0.65028 1.56178 -0.00523
 C40 C -0.63799 1.37869 0.02904
 C41 C -0.56751 1.35723 0.04056
 C42 C -0.54845 1.29522 0.07418
 C43 C -0.47682 1.29082 0.07115
 C44 C -0.45364 1.35068 0.03687
 N45 N -0.50910 1.39114 0.01839
 C46 C -0.38277 1.36347 0.01945
 C47 C -0.35598 1.43105 0.00463
 C48 C -0.28593 1.44647 -0.00689
 C49 C -0.28108 1.51800 -0.01189
 C50 C -0.34871 1.54396 -0.00645
 N51 N -0.39415 1.49066 0.00437
 C52 C -0.36706 1.61562 -0.01313
 C53 C -0.43681 1.64117 -0.01667
 C54 C -0.45388 1.70984 -0.03393
 C55 C -0.52554 1.71433 -0.03309
 C56 C -0.55103 1.64832 -0.01507
 N57 N -0.49637 1.60404 -0.00512
 C58 C -0.62367 1.63165 -0.00968
 H59 H -0.76510 1.57619 -0.02144
 H60 H -0.77109 1.44035 -0.00851
 H61 H -0.49935 1.55300 0.01318
 H62 H -0.58276 1.25665 0.09801
 H63 H -0.44528 1.24825 0.09169
 H64 H -0.24228 1.41048 -0.01008
 H65 H -0.23303 1.54709 -0.01986
 H66 H -0.55555 1.76092 -0.04550
 H67 H -0.50763 1.43440 -0.01507
 H68 H -0.41843 1.75228 -0.04712
 C69 C -0.03399 0.50886 0.28083
 C70 C -0.03586 0.43719 0.28785
 C71 C -0.02173 0.42262 0.35836
 N72 N -0.01057 0.48312 0.39412
 C73 C -0.01864 0.53583 0.34710
 C74 C -0.01367 0.35433 0.38709
 C75 C -0.00071 0.34108 0.45972
 C76 C 0.01602 0.27577 0.48748
 C77 C 0.01703 0.28288 0.55955
 C78 C 0.00116 0.35255 0.57457
 N79 N -0.01008 0.38736 0.51328
 C80 C -0.01023 0.38001 0.64344
 C81 C -0.01703 0.45280 0.65804
 C82 C -0.03364 0.48094 0.72355
 C83 C -0.03192 0.55247 0.71631
 C84 C -0.01271 0.56615 0.64700
 N85 N -0.00351 0.50509 0.61159
 C86 C -0.00220 0.63425 0.61833
 C87 C 0.00839 0.64626 0.54508
 C88 C 0.03364 0.70853 0.51666
 C89 C 0.03125 0.70133 0.44450
 C90 C 0.00567 0.63452 0.43047
 N91 N -0.00868 0.60145 0.49208
 C92 C -0.00666 0.60755 0.36179
 H93 H -0.04157 0.53772 0.23218
 H94 H -0.04499 0.40009 0.24542
 H95 H -0.03605 0.55458 0.49748
 H96 H 0.02415 0.22708 0.45912
 H97 H 0.02587 0.24041 0.59637
 H98 H -0.04563 0.45302 0.77179
 H99 H -0.04338 0.59003 0.75765
 H100 H 0.04599 0.74117 0.40672
 H101 H -0.03207 0.43688 0.50884
 H102 H 0.05089 0.75490 0.54500
 O103 O -0.18079 0.99467 -0.09405
 O104 O 0.17906 1.01683 -0.09011
 O105 O -0.00736 1.10832 -0.16896
 O106 O 0.00552 0.91987 -0.18812
 O107 O 0.01087 0.82667 -0.11057
 O108 O -0.01460 1.18585 -0.07522
 O109 O 0.09416 1.01744 -0.17731
 O110 O -0.09550 1.01289 -0.17838
 Zr111 Zr -0.00068 1.00857 -0.12096
 O112 O 0.06690 0.94337 -0.06688
 O113 O -0.06848 1.06204 -0.05566
 C114 C -0.16002 1.00539 -0.15837
 C115 C 0.15854 1.02004 -0.15545
 C116 C -0.01301 1.17074 -0.14204
 C117 C 0.00816 0.85326 -0.17368
 H118 H 0.08632 1.10480 -0.08012
 O119 O 0.05809 1.07010 -0.05376
 H120 H -0.08841 0.90729 -0.10045
 O121 O -0.06011 0.93594 -0.06740
 O122 O 0.17726 1.00274 0.10066
 O123 O -0.18129 0.97793 0.09685
 O124 O 0.08222 1.18288 0.02387
 O125 O 0.10561 0.82389 -0.01487
 O126 O -0.08403 0.81051 -0.01405
 O127 O -0.10807 1.17025 0.01520
 O128 O -0.00521 1.07372 0.19313
 O129 O -0.00108 0.88347 0.17293
 O130 O -0.01266 1.16704 0.11543
 O131 O 0.00753 0.80660 0.07880
 O132 O 0.17213 1.10243 0.01849
 O133 O -0.18772 1.07924 0.00688
 O134 O -0.17452 0.89025 -0.00401
 O135 O 0.18523 0.91481 -0.00468
 O136 O 0.09168 0.98822 0.18521
 O137 O -0.09625 0.97678 0.18352
 Zr138 Zr 0.12148 1.00486 0.00437
 Zr139 Zr -0.12419 0.98880 0.00165
 Zr140 Zr -0.00912 1.12004 0.01440
 Zr141 Zr 0.00677 0.87389 -0.00956
 Zr142 Zr -0.00206 0.98489 0.12637
 O143 O -0.06113 0.92281 0.05977
 O144 O 0.05751 1.05824 0.07339
 C145 C 0.15627 0.99520 0.16536
 C146 C -0.16086 0.97542 0.16239
 C147 C 0.14809 1.16579 0.02568
 C148 C 0.16890 0.84885 -0.01057
 C149 C -0.14979 0.82715 -0.01049
 C150 C -0.17141 1.14533 0.01068
 C151 C -0.00989 1.14002 0.17829
 C152 C 0.00298 0.82086 0.14558
 H153 H -0.10003 1.07567 0.10276
 O154 O -0.06823 1.04988 0.07100
 H155 H 0.09659 0.90117 0.08894
 O156 O 0.06536 0.93181 0.06096
 C157 C 0.26399 0.94979 0.33029
 C158 C 0.31615 1.00299 0.32568
 C159 C 0.31624 1.04869 0.26764
 C160 C 0.26411 1.04492 0.21650
 C161 C 0.21078 0.99456 0.22080
 C162 C 0.21151 0.94486 0.27677
 C163 C 0.26551 0.89865 0.38445
 C164 C 0.21665 0.84422 0.38590
 C165 C 0.16635 0.83872 0.33302
 C166 C 0.16387 0.88797 0.27873
 H167 H 0.30529 0.89922 0.42523
 H168 H 0.21867 0.80530 0.42751
 H169 H 0.12977 0.79537 0.33334
 H170 H 0.12577 0.87932 0.23747
 H171 H 0.35616 1.08899 0.26288
 H172 H 0.26488 1.08255 0.17357
 C173 C -0.26950 0.94300 0.33019
 C174 C -0.32127 0.99554 0.32082
 C175 C -0.32029 1.03707 0.25988
 C176 C -0.26933 1.02742 0.20849
 C177 C -0.21589 0.97774 0.21737
 C178 C -0.21493 0.93564 0.27940
 C179 C -0.27101 0.89739 0.38902
 C180 C -0.21806 0.84830 0.39968
 C181 C -0.16314 0.84321 0.35196
 C182 C -0.16186 0.88565 0.29198
 H183 H -0.31299 0.89911 0.42723
 H184 H -0.21963 0.81403 0.44517
 H185 H -0.12166 0.80567 0.36119
 H186 H -0.11898 0.87858 0.25598
 H187 H -0.35944 1.07750 0.25214
 H188 H -0.27025 1.06103 0.16229
 C189 C -0.31128 0.95946 -0.28306
 C190 C -0.31749 1.02414 -0.32032
 C191 C -0.27077 1.07906 -0.30455
 C192 C -0.21891 1.07093 -0.25342
 C193 C -0.21430 1.00917 -0.21369
 C194 C -0.26089 0.95281 -0.22783
 C195 C -0.35301 0.90048 -0.30092
 C196 C -0.34852 0.83841 -0.26241
 C197 C -0.30145 0.83304 -0.20666
 C198 C -0.25697 0.88891 -0.19013
 H199 H -0.38948 0.90174 -0.34474
 H200 H -0.38169 0.79417 -0.27597
 H201 H -0.29899 0.78490 -0.17676
 H202 H -0.21923 0.88109 -0.14829
 H203 H -0.27539 1.12932 -0.33098
 H204 H -0.18360 1.11433 -0.24289
 C205 C 0.30018 1.09876 -0.27358
 C206 C 0.31803 1.03846 -0.31348
 C207 C 0.28255 0.97506 -0.30182
 C208 C 0.23063 0.97025 -0.25056
 C209 C 0.21294 1.02869 -0.20955
 C210 C 0.24692 1.09389 -0.22128
 C211 C 0.33358 1.16393 -0.28510
 C212 C 0.31454 1.22313 -0.24614
 C213 C 0.26193 1.21858 -0.19551
 C214 C 0.22831 1.15466 -0.18302
 H215 H 0.37421 1.16970 -0.32445
 H216 H 0.34046 1.27288 -0.25552
 H217 H 0.24706 1.26481 -0.16577
 H218 H 0.18751 1.15338 -0.14353
 H219 H 0.29566 0.92878 -0.33243
 H220 H 0.20446 0.92035 -0.24234
 C221 C 0.24994 1.33296 0.08115
 C222 C 0.30849 1.32686 0.03492
 C223 C 0.31404 1.26671 -0.00759
 C224 C 0.26238 1.21543 -0.00772
 C225 C 0.20145 1.22255 0.03275
 C226 C 0.19522 1.28143 0.07885
 C227 C 0.24617 1.38745 0.13188
 C228 C 0.18798 1.39433 0.17554
 C229 C 0.13364 1.34584 0.17153
 C230 C 0.13768 1.28914 0.12499
 H231 H 0.28821 1.42513 0.13836
 H232 H 0.18531 1.43719 0.21311
 H233 H 0.08865 1.35150 0.20569
 H234 H 0.09586 1.25126 0.12699
 H235 H 0.35839 1.25998 -0.04263
 H236 H 0.26965 1.17011 -0.04149
 C237 C 0.32678 0.73827 0.04719
 C238 C 0.32812 0.68835 -0.00901
 C239 C 0.28073 0.69588 -0.06536
 C240 C 0.23032 0.74861 -0.06510
 C241 C 0.22682 0.79730 -0.00981
 C242 C 0.27603 0.79325 0.04654
 C243 C 0.37263 0.73277 0.10591
 C244 C 0.37061 0.78156 0.16077
 C245 C 0.32162 0.83535 0.15978
 C246 C 0.27404 0.84060 0.10411
 H247 H 0.40999 0.69044 0.11062
 H248 H 0.40649 0.77690 0.20490
 H249 H 0.31967 0.87237 0.20309
 H250 H 0.23509 0.88117 0.10773
 H251 H 0.28223 0.65987 -0.10975
 H252 H 0.19358 0.75150 -0.10867
 C253 C -0.26462 0.67552 -0.07580
 C254 C -0.30925 0.66824 -0.01644
 C255 C -0.29958 0.71184 0.04241
 C256 C -0.24721 0.76259 0.04320
 C257 C -0.20153 0.76994 -0.01397
 C258 C -0.20907 0.72565 -0.07387
 C259 C -0.27452 0.63456 -0.13727
 C260 C -0.22919 0.64099 -0.19453
 C261 C -0.17418 0.68900 -0.19220
 C262 C -0.16439 0.73159 -0.13294
 H263 H -0.31720 0.59728 -0.14151
 H264 H -0.23695 0.60879 -0.24110
 H265 H -0.13952 0.69378 -0.23694
 H266 H -0.12232 0.76958 -0.13444
 H267 H -0.33355 0.70692 0.08793
 H268 H -0.24200 0.79633 0.08912
 C269 C -0.33789 1.24983 -0.03451
 C270 C -0.33350 1.30268 0.01823
 C271 C -0.27937 1.30015 0.06825
 C272 C -0.22745 1.24917 0.06410
 C273 C -0.22962 1.19680 0.01207
 C274 C -0.28606 1.19600 -0.03723
 C275 C -0.39184 1.25041 -0.08589
 C276 C -0.39620 1.19799 -0.13710
 C277 C -0.34609 1.14530 -0.13948
 C278 C -0.29092 1.14491 -0.09115
 H279 H -0.43112 1.29118 -0.08728
 H280 H -0.43824 1.19867 -0.17559
 H281 H -0.34934 1.10514 -0.17972
 H282 H -0.25184 1.10506 -0.09773
 H283 H -0.27581 1.33985 0.10920
 H284 H -0.18486 1.25082 0.10190
 C285 C -0.08057 1.27177 0.31143
 C286 C -0.01641 1.29662 0.34039
 C287 C 0.04673 1.26467 0.32048
 C288 C 0.04756 1.21167 0.26979
 C289 C -0.01460 1.18925 0.23773
 C290 C -0.07954 1.21727 0.25991
 C291 C -0.14576 1.29924 0.33322
 C292 C -0.20827 1.27344 0.30490
 C293 C -0.20718 1.21985 0.25478
 C294 C -0.14355 1.19189 0.23232
 H295 H -0.14889 1.34033 0.37268
 H296 H -0.25784 1.29488 0.32218
 H297 H -0.25587 1.19982 0.23319
 H298 H -0.14503 1.14999 0.19371
 H299 H 0.09607 1.28273 0.34251
 H300 H 0.09736 1.18977 0.25356
 C301 C -0.07801 1.31456 -0.26612
 C302 C -0.01374 1.33219 -0.29970
 C303 C 0.04829 1.29930 -0.27774
 C304 C 0.04730 1.24816 -0.22547
 C305 C -0.01527 1.22940 -0.19228
 C306 C -0.07845 1.26340 -0.21118
 C307 C -0.14215 1.34502 -0.28734
 C308 C -0.20452 1.32747 -0.25350
 C309 C -0.20454 1.27875 -0.19879
 C310 C -0.14235 1.24640 -0.17794
 H311 H -0.14464 1.38261 -0.33010
 H312 H -0.25316 1.35172 -0.26988
 H313 H -0.25319 1.26574 -0.17287
 H314 H -0.14475 1.20792 -0.13598
 H315 H 0.09778 1.31227 -0.30255
 H316 H 0.09577 1.22228 -0.21134
 C317 C -0.04866 0.74894 -0.33868
 C318 C -0.00006 0.69239 -0.33467
 C319 C 0.05045 0.69259 -0.28064
 C320 C 0.05319 0.74628 -0.23091
 C321 C 0.00605 0.80244 -0.23319
 C322 C -0.04549 0.80443 -0.28773
 C323 C -0.10382 0.74881 -0.38884
 C324 C -0.15236 0.80319 -0.39113
 C325 C -0.14834 0.85785 -0.34276
 C326 C -0.09667 0.85792 -0.29067
 H327 H -0.11094 0.70626 -0.42604
 H328 H -0.19402 0.80239 -0.42994
 H329 H -0.18633 0.89984 -0.34494
 H330 H -0.09861 0.89966 -0.25247
 H331 H 0.08815 0.65025 -0.27666
 H332 H 0.09231 0.74350 -0.18948
 C333 C 0.06160 0.67037 0.26557
 C334 C -0.00219 0.65708 0.30119
 C335 C -0.06304 0.69207 0.28006
 C336 C -0.06071 0.74277 0.22713
 C337 C 0.00266 0.76089 0.19490
 C338 C 0.06405 0.72257 0.21168
 C339 C 0.12313 0.63317 0.28286
 C340 C 0.18541 0.64620 0.24696
 C341 C 0.18768 0.69666 0.19392
 C342 C 0.12794 0.73515 0.17659
 H343 H 0.12343 0.59340 0.32368
 H344 H 0.23215 0.61685 0.26020
 H345 H 0.23605 0.70573 0.16610
 H346 H 0.13210 0.77426 0.13542
 H347 H -0.11254 0.68066 0.30551
 H348 H -0.10884 0.76830 0.21138
   
