data_POSCAR
  _audit_creation_date              2014-09-24
  _audit_creation_method            'ToBaCCo'
  _symmetry_space_group_name_H-M    'P1'
  _symmetry_Int_Tables_number       1
  _symmetry_cell_setting            triclinic
  loop_
  _symmetry_equiv_pos_as_xyz
 x,y,z
_cell_length_a 43.5539
_cell_length_b 40.9613
_cell_length_c 41.0647
_cell_angle_alpha 90.063300
_cell_angle_beta 90.104000
_cell_angle_gamma 90.054600
loop_
  _atom_site_label
  _atom_site_type_symbol
  _atom_site_fract_x
  _atom_site_fract_y
  _atom_site_fract_z
C1 C 0.25000 0.49835 1.00068
 C2 C 0.75039 0.50015 -0.00146
 C3 C -0.00087 0.24499 0.49033
 C4 C 0.99945 0.75591 0.50855
 C5 C 0.50258 -0.01074 0.25605
 C6 C 0.49724 0.00956 0.74469
 C7 C 0.29687 0.02559 0.45845
 H8 H 0.29490 0.04654 0.47437
 C9 C 0.31931 0.02515 0.43425
 H10 H 0.33441 0.04597 0.43134
 C11 C 0.28081 -0.02784 0.44408
 H12 H 0.26636 -0.04879 0.44858
 C13 C 0.30342 -0.02959 0.42006
 H14 H 0.30584 -0.05167 0.40576
 N15 N 0.27784 -0.00043 0.46257
 C16 C 0.20179 0.03878 0.51917
 H17 H 0.20027 0.01930 0.53687
 C18 C 0.18010 0.06376 0.51932
 H19 H 0.16173 0.06270 0.53698
 C20 C 0.22653 0.06187 0.47336
 H21 H 0.24413 0.06065 0.45494
 C22 C 0.20573 0.08787 0.47312
 H23 H 0.20842 0.10679 0.45500
 Zn24 Zn 0.25000 0.00092 0.49787
 N25 N 0.22431 0.03812 0.49635
 C26 C 0.27685 0.02947 0.55390
 N27 N 0.27424 0.00167 0.53595
 C28 C 0.29158 -0.02510 0.54259
 C29 C 0.31262 -0.02462 0.56825
 C30 C 0.29811 0.03124 0.57936
 C31 C 0.20694 -0.04135 0.46998
 C32 C 0.18484 -0.06602 0.46917
 C33 C 0.19641 -0.07803 0.52544
 C34 C 0.21870 -0.05349 0.52498
 N35 N 0.22348 -0.03570 0.49751
 H36 H 0.26336 0.05071 0.54765
 H37 H 0.28955 -0.04659 0.52738
 H38 H 0.32673 -0.04589 0.57287
 H39 H 0.30062 0.05375 0.59297
 H40 H 0.21071 -0.02634 0.44869
 H41 H 0.17236 -0.07031 0.44676
 H42 H 0.19222 -0.09094 0.54798
 H43 H 0.23123 -0.04778 0.54699
 C44 C 0.18180 0.08894 0.49611
 C45 C 0.32290 -0.00282 0.41496
 C46 C 0.17891 -0.08448 0.49732
 C47 C 0.31642 0.00402 0.58654
 C48 C 0.72117 0.02966 0.55873
 H49 H 0.73571 0.05041 0.55371
 C50 C 0.69976 0.03147 0.58397
 H51 H 0.69849 0.05343 0.59859
 C52 C 0.70414 -0.02359 0.54504
 H53 H 0.70557 -0.04467 0.52923
 C54 C 0.68258 -0.02292 0.57016
 H55 H 0.66739 -0.04358 0.57347
 N56 N 0.72299 0.00238 0.53989
 C57 C 0.77645 0.05661 0.47413
 H58 H 0.76221 0.05087 0.45333
 C59 C 0.79720 0.08258 0.47231
 H60 H 0.79840 0.09698 0.45024
 C61 C 0.79344 0.04402 0.52751
 H62 H 0.79229 0.02833 0.54865
 C63 C 0.81422 0.06999 0.52689
 H64 H 0.82913 0.07410 0.54763
 Zn65 Zn 0.74948 0.00047 0.50336
 N66 N 0.77497 0.03793 0.50146
 C67 C 0.70463 0.02312 0.46027
 N68 N 0.72400 -0.00226 0.46599
 C69 C 0.72356 -0.02942 0.44688
 C70 C 0.70309 -0.03168 0.42073
 C71 C 0.68399 0.02199 0.43424
 C72 C 0.77696 -0.05567 0.53260
 C73 C 0.79805 -0.08134 0.53432
 C74 C 0.81655 -0.06644 0.48093
 C75 C 0.79537 -0.04090 0.48038
 N76 N 0.77595 -0.03615 0.50583
 H77 H 0.70500 0.04413 0.47626
 H78 H 0.73852 -0.04971 0.45231
 H79 H 0.70292 -0.05354 0.40587
 H80 H 0.66839 0.04220 0.43044
 H81 H 0.76190 -0.05100 0.55295
 H82 H 0.79867 -0.09659 0.55583
 H83 H 0.83209 -0.06954 0.46061
 H84 H 0.79452 -0.02458 0.45970
 C85 C 0.81651 0.08941 0.49888
 C86 C 0.68001 0.00501 0.58982
 C87 C 0.81821 -0.08694 0.50824
 C88 C 0.68287 -0.00580 0.41423
 C89 C 0.47858 0.20307 1.04737
 H90 H 0.46164 0.20253 1.02808
 C91 C 0.47808 0.17929 1.07162
 H92 H 0.46053 0.16055 1.07107
 C93 C 0.52265 0.22762 1.07095
 H94 H 0.54050 0.24590 1.07010
 C95 C 0.52270 0.20455 1.09605
 H96 H 0.54053 0.20534 1.11446
 N97 N 0.50075 0.22645 1.04727
 C98 C 0.46232 0.30289 0.98597
 H99 H 0.47936 0.30334 0.96684
 C100 C 0.43723 0.32398 0.98463
 H101 H 0.43518 0.34084 0.96445
 C102 C 0.44486 0.28086 1.03599
 H103 H 0.44812 0.26418 1.05607
 C104 C 0.41955 0.30182 1.03581
 H105 H 0.40321 0.30085 1.05563
 Zn106 Zn 0.50065 0.25471 1.01085
 N107 N 0.46550 0.28168 1.01118
 C108 C 0.47521 0.22664 0.95364
 N109 N 0.50037 0.22777 0.97332
 C110 C 0.52501 0.20814 0.96788
 C111 C 0.52543 0.18707 0.94113
 C112 C 0.47440 0.20543 0.92702
 C113 C 0.53878 0.30348 1.03647
 C114 C 0.56322 0.32554 1.03725
 C115 C 0.57971 0.30501 0.98497
 C116 C 0.55501 0.28328 0.98525
 N117 N 0.53533 0.28264 1.01093
 H118 H 0.45544 0.24162 0.95893
 H119 H 0.54436 0.20886 0.98443
 H120 H 0.54518 0.17157 0.93707
 H121 H 0.45417 0.20459 0.91166
 H122 H 0.52239 0.30300 1.05624
 H123 H 0.56580 0.34158 1.05804
 H124 H 0.59474 0.30553 0.96400
 H125 H 0.55125 0.26754 0.96453
 C126 C 0.41547 0.32364 1.00979
 C127 C 0.50048 0.17974 1.09620
 C128 C 0.58408 0.32654 1.01120
 C129 C 0.49979 0.18547 0.92050
 C130 C 0.47596 0.79525 -0.04645
 H131 H 0.45948 0.79556 -0.02678
 C132 C 0.47459 0.81895 -0.07075
 H133 H 0.45682 0.83741 -0.06984
 C134 C 0.51982 0.77142 -0.07093
 H135 H 0.53796 0.75348 -0.07040
 C136 C 0.51898 0.79441 -0.09608
 H137 H 0.53642 0.79390 -0.11484
 N138 N 0.49847 0.77229 -0.04677
 C139 C 0.46317 0.69543 0.01597
 H140 H 0.48057 0.69585 0.03480
 C141 C 0.43897 0.67323 0.01783
 H142 H 0.43768 0.65701 0.03858
 C143 C 0.44384 0.71655 -0.03370
 H144 H 0.44618 0.73315 -0.05398
 C145 C 0.41932 0.69449 -0.03295
 H146 H 0.40304 0.69430 -0.05289
 Zn147 Zn 0.49980 0.74423 -0.01024
 N148 N 0.46509 0.71660 -0.00939
 C149 C 0.47581 0.77222 0.04760
 N150 N 0.50037 0.77130 0.02718
 C151 C 0.52504 0.79118 0.03184
 C152 C 0.52612 0.81228 0.05855
 C153 C 0.47565 0.79348 0.07420
 C154 C 0.53758 0.69590 -0.03683
 C155 C 0.56203 0.67393 -0.03813
 C156 C 0.57978 0.69467 0.01368
 C157 C 0.55505 0.71632 0.01393
 N158 N 0.53473 0.71678 -0.01126
 H159 H 0.45601 0.75702 0.04292
 H160 H 0.54389 0.79061 0.01474
 H161 H 0.54589 0.82797 0.06202
 H162 H 0.45588 0.79417 0.09015
 H163 H 0.52068 0.69621 -0.05616
 H164 H 0.56409 0.65782 -0.05893
 H165 H 0.59530 0.69424 0.03429
 H166 H 0.55177 0.73207 0.03471
 C167 C 0.41672 0.67231 -0.00698
 C168 C 0.49644 0.81884 -0.09579
 C169 C 0.58351 0.67305 -0.01258
 C170 C 0.50110 0.81367 0.07993
 C171 C 1.03764 0.48351 0.19587
 H172 H 1.02031 0.46457 0.19524
 C173 C 1.06255 0.48212 0.17464
 H174 H 1.06422 0.46208 0.15752
 C175 C 1.05590 0.53318 0.21844
 H176 H 1.05299 0.55315 0.23537
 C177 C 1.08106 0.53295 0.19733
 H178 H 1.09764 0.55264 0.19843
 N179 N 1.03492 0.50857 0.21739
 C180 C 0.97459 0.46502 0.28989
 H181 H 0.95549 0.48188 0.28941
 C182 C 0.97375 0.43791 0.31046
 H183 H 0.95393 0.43392 0.32585
 C184 C 1.02419 0.45031 0.27131
 H185 H 1.04406 0.45555 0.25651
 C186 C 1.02457 0.42329 0.29200
 H187 H 1.04457 0.40761 0.29261
 Zn188 Zn 0.99973 0.50843 0.24419
 N189 N 0.99935 0.47042 0.27047
 C190 C 0.94500 0.48413 0.21502
 N191 N 0.96523 0.50943 0.21610
 C192 C 0.96247 0.53530 0.19559
 C193 C 0.93817 0.53685 0.17344
 C194 C 0.92043 0.48461 0.19317
 C195 C 1.02202 0.54446 0.29635
 C196 C 1.02261 0.56868 0.32024
 C197 C 0.97839 0.59364 0.29487
 C198 C 0.97832 0.56858 0.27171
 N199 N 0.99999 0.54466 0.27285
 H200 H 0.94821 0.46314 0.23051
 H201 H 0.97929 0.55474 0.19642
 H202 H 0.93614 0.55792 0.15769
 H203 H 0.90495 0.46393 0.19229
 H204 H 1.03877 0.52498 0.29687
 H205 H 1.04006 0.56791 0.33905
 H206 H 0.96075 0.61224 0.29405
 H207 H 0.96055 0.56796 0.25336
 C208 C 0.99907 0.41683 0.31178
 C209 C 1.08461 0.50710 0.17515
 C210 C 1.00048 0.59353 0.31977
 C211 C 0.91673 0.51123 0.17200
 C212 C -0.03696 0.46607 0.80376
 H213 H -0.02048 0.44634 0.80350
 C214 C -0.06139 0.46543 0.82576
 H215 H -0.06358 0.44508 0.84241
 C216 C -0.05324 0.51734 0.78344
 H217 H -0.04963 0.53795 0.76756
 C218 C -0.07783 0.51779 0.80515
 H219 H -0.09334 0.53844 0.80509
 N220 N -0.03357 0.49156 0.78287
 C221 C 0.02209 0.45596 0.70231
 H222 H 0.03848 0.47578 0.70126
 C223 C 0.02220 0.43189 0.67827
 H224 H 0.03884 0.43312 0.65874
 C225 C -0.02037 0.43089 0.72835
 H226 H -0.03751 0.43110 0.74730
 C227 C -0.02063 0.40587 0.70514
 H228 H -0.03786 0.38684 0.70648
 Zn229 Zn 0.00098 0.49173 0.75489
 N230 N 0.00084 0.45527 0.72651
 C231 C 0.05688 0.46655 0.78078
 N232 N 0.03624 0.49143 0.78170
 C233 C 0.03936 0.51657 0.80309
 C234 C 0.06432 0.51769 0.82438
 C235 C 0.08206 0.46650 0.80196
 C236 C -0.02369 0.53457 0.70846
 C237 C -0.02437 0.56138 0.68750
 C238 C 0.02648 0.57612 0.70605
 C239 C 0.02593 0.54943 0.72717
 N240 N 0.00099 0.52941 0.72815
 H241 H 0.05367 0.44656 0.76391
 H242 H 0.02231 0.53576 0.80360
 H243 H 0.06630 0.53777 0.84143
 H244 H 0.09834 0.44656 0.80100
 H245 H -0.04285 0.51777 0.70906
 H246 H -0.04415 0.56522 0.67196
 H247 H 0.04654 0.59175 0.70531
 H248 H 0.04573 0.54436 0.74219
 C249 C 0.00053 0.40662 0.67948
 C250 C -0.08213 0.49162 0.82669
 C251 C 0.00104 0.58236 0.68605
 C252 C 0.08599 0.49237 0.82406
 C253 C 0.08299 0.18444 0.49216
 C254 C 0.06389 0.18556 0.46459
 C255 C 0.03793 0.20548 0.46404
 C256 C 0.02918 0.22420 0.49147
 C257 C 0.04902 0.22351 0.51879
 C258 C 0.07551 0.20428 0.51893
 C259 C 0.10985 0.16181 0.49340
 C260 C 0.11916 0.14770 0.52304
 C261 C 0.14318 0.12517 0.52405
 C262 C 0.15809 0.11525 0.49533
 C263 C 0.14920 0.12980 0.46575
 C264 C 0.12573 0.15304 0.46487
 H265 H 0.02379 0.20544 0.44230
 H266 H 0.04455 0.23765 0.54044
 H267 H 0.14976 0.11532 0.54747
 H268 H 0.15975 0.12272 0.44299
 H269 H 0.09011 0.20506 0.54026
 H270 H 0.10742 0.15330 0.54555
 H271 H 0.06835 0.17038 0.44356
 H272 H 0.11990 0.16384 0.44164
 C273 C 0.68181 0.57800 -0.00897
 C274 C 0.68657 0.55593 -0.03458
 C275 C 0.70905 0.53182 -0.03215
 C276 C 0.72800 0.52935 -0.00431
 C277 C 0.72249 0.55126 0.02165
 C278 C 0.70006 0.57548 0.01910
 C279 C 0.65701 0.60270 -0.01091
 C280 C 0.66196 0.63474 0.00014
 C281 C 0.63826 0.65770 -0.00083
 C282 C 0.60906 0.64906 -0.01272
 C283 C 0.60424 0.61705 -0.02402
 C284 C 0.62796 0.59415 -0.02317
 H285 H 0.71159 0.51471 -0.05209
 H286 H 0.73457 0.54923 0.04455
 H287 H 0.64286 0.68229 0.00757
 H288 H 0.58189 0.60942 -0.03276
 H289 H 0.69622 0.59155 0.03965
 H290 H 0.68424 0.64209 0.00933
 H291 H 0.67277 0.55721 -0.05651
 H292 H 0.62334 0.56949 -0.03136
 C293 C 0.91715 -0.18095 0.51185
 C294 C 0.91527 -0.21267 0.49924
 C295 C 0.94119 -0.23282 0.49861
 C296 C 0.97029 -0.22168 0.50958
 C297 C 0.97127 -0.18986 0.52315
 C298 C 0.94532 -0.16995 0.52410
 C299 C 0.89012 -0.15894 0.51183
 C300 C 0.88338 -0.13973 0.53928
 C301 C 0.85942 -0.11708 0.53843
 C302 C 0.84186 -0.11294 0.51000
 C303 C 0.84810 -0.13272 0.48281
 C304 C 0.87189 -0.15563 0.48378
 H305 H 0.93826 -0.25743 0.48953
 H306 H 0.99192 -0.17953 0.53317
 H307 H 0.85529 -0.10202 0.55966
 H308 H 0.83475 -0.13022 0.46068
 H309 H 0.94747 -0.14552 0.53399
 H310 H 0.89692 -0.14200 0.56131
 H311 H 0.89361 -0.22206 0.49022
 H312 H 0.87670 -0.16998 0.46222
 C313 C 0.31663 0.41807 1.00491
 C314 C 0.31386 0.43787 0.97718
 C315 C 0.29196 0.46268 0.97592
 C316 C 0.27169 0.46837 1.00213
 C317 C 0.27511 0.44873 1.03020
 C318 C 0.29690 0.42373 1.03132
 C319 C 0.34088 0.39256 1.00666
 C320 C 0.35704 0.38698 1.03583
 C321 C 0.38079 0.36408 1.03704
 C322 C 0.38910 0.34648 1.00906
 C323 C 0.37268 0.35162 0.98005
 C324 C 0.34876 0.37430 0.97889
 H325 H 0.29103 0.47796 0.95444
 H326 H 0.26180 0.45297 1.05194
 H327 H 0.39332 0.36087 1.05962
 H328 H 0.37834 0.33802 0.95824
 H329 H 0.29847 0.40898 1.05312
 H330 H 0.35196 0.40098 1.05753
 H331 H 0.32924 0.43487 0.95673
 H332 H 0.33642 0.37751 0.95621
 C333 C 0.91671 0.18169 0.49394
 C334 C 0.94528 0.16855 0.48584
 C335 C 0.97152 0.18806 0.48533
 C336 C 0.97020 0.22205 0.49186
 C337 C 0.94109 0.23458 0.50113
 C338 C 0.91488 0.21479 0.50218
 C339 C 0.88925 0.16035 0.49420
 C340 C 0.86979 0.15933 0.52141
 C341 C 0.84570 0.13671 0.52274
 C342 C 0.84038 0.11515 0.49666
 C343 C 0.85917 0.11710 0.46898
 C344 C 0.88346 0.13933 0.46785
 H345 H 0.99245 0.17536 0.48011
 H346 H 0.93848 0.26000 0.50778
 H347 H 0.83141 0.13580 0.54428
 H348 H 0.85576 0.10059 0.44867
 H349 H 0.89308 0.22547 0.50899
 H350 H 0.87391 0.17518 0.54209
 H351 H 0.94746 0.14276 0.48043
 H352 H 0.89807 0.13981 0.44654
 C353 C 0.31851 0.57683 -0.00198
 C354 C 0.29906 0.57190 -0.02879
 C355 C 0.27664 0.54745 -0.02819
 C356 C 0.27235 0.52783 -0.00024
 C357 C 0.29231 0.53299 0.02645
 C358 C 0.31485 0.55719 0.02567
 C359 C 0.34348 0.60141 -0.00336
 C360 C 0.37312 0.59337 0.00744
 C361 C 0.39682 0.61627 0.00602
 C362 C 0.39141 0.64791 -0.00596
 C363 C 0.36171 0.65591 -0.01687
 C364 C 0.33803 0.63284 -0.01570
 H365 H 0.26367 0.54348 -0.05027
 H366 H 0.29057 0.51783 0.04796
 H367 H 0.41953 0.60899 0.01391
 H368 H 0.35663 0.68016 -0.02583
 H369 H 0.32957 0.56044 0.04671
 H370 H 0.37809 0.56911 0.01649
 H371 H 0.30198 0.58616 -0.05076
 H372 H 0.31531 0.63973 -0.02396
 C373 C 0.07918 -0.17807 0.50235
 C374 C 0.06509 -0.18992 0.47404
 C375 C 0.04013 -0.21128 0.47597
 C376 C 0.02847 -0.22176 0.50638
 C377 C 0.04230 -0.20832 0.53467
 C378 C 0.06758 -0.18746 0.53268
 C379 C 0.10510 -0.15482 0.50030
 C380 C 0.13194 -0.15991 0.51854
 C381 C 0.15615 -0.13751 0.51708
 C382 C 0.15379 -0.10922 0.49779
 C383 C 0.12677 -0.10431 0.47955
 C384 C 0.10284 -0.12699 0.48059
 H385 H 0.02995 -0.21901 0.45329
 H386 H 0.03299 -0.21322 0.55859
 H387 H 0.17675 -0.14248 0.53099
 H388 H 0.12370 -0.08252 0.46503
 H389 H 0.07748 -0.17776 0.55490
 H390 H 0.13426 -0.18139 0.53370
 H391 H 0.07343 -0.18262 0.45030
 H392 H 0.08216 -0.12236 0.46665
 C393 C 0.68272 0.42141 1.00660
 C394 C 0.70072 0.42408 0.97842
 C395 C 0.72302 0.44849 0.97576
 C396 C 0.72859 0.47046 1.00166
 C397 C 0.71005 0.46767 1.02971
 C398 C 0.68774 0.44337 1.03228
 C399 C 0.65782 0.39677 1.00860
 C400 C 0.62899 0.40532 1.02131
 C401 C 0.60520 0.38248 1.02240
 C402 C 0.60970 0.35052 1.01089
 C403 C 0.63864 0.34188 0.99845
 C404 C 0.66243 0.36479 0.99725
 H405 H 0.73486 0.45067 0.95277
 H406 H 0.71267 0.48477 1.04965
 H407 H 0.58304 0.39010 1.03156
 H408 H 0.64299 0.31733 0.98984
 H409 H 0.67420 0.44194 1.05432
 H410 H 0.62460 0.42994 1.02971
 H411 H 0.69672 0.40806 0.95785
 H412 H 0.68452 0.35742 0.98770
 C413 C 0.50034 0.07507 1.19102
 C414 C 0.48259 0.04726 1.18447
 C415 C 0.48301 0.02052 1.20540
 C416 C 0.50166 0.02007 1.23362
 C417 C 0.51683 0.04963 1.24172
 C418 C 0.51684 0.07630 1.22040
 C419 C 0.50140 0.10232 1.16703
 C420 C 0.50334 0.13513 1.17712
 C421 C 0.50356 0.16041 1.15415
 C422 C 0.50141 0.15335 1.12076
 C423 C 0.49990 0.12069 1.11065
 C424 C 0.50018 0.09550 1.13345
 H425 H 0.46841 0.00034 1.19894
 H426 H 0.52874 0.05243 1.26467
 H427 H 0.50466 0.18548 1.16247
 H428 H 0.49881 0.11464 1.08499
 H429 H 0.53016 0.09768 1.22683
 H430 H 0.50399 0.14136 1.20273
 H431 H 0.46807 0.04610 1.16307
 H432 H 0.49961 0.07058 1.12465
 C433 C 0.00076 0.68712 0.59142
 C434 C 0.02807 0.70095 0.57975
 C435 C 0.02764 0.72321 0.55406
 C436 C -0.00025 0.73388 0.53971
 C437 C -0.02756 0.71989 0.55206
 C438 C -0.02706 0.69708 0.57733
 C439 C 0.00139 0.66109 0.61678
 C440 C -0.02278 0.65781 0.63929
 C441 C -0.02290 0.63227 0.66185
 C442 C 0.00144 0.60989 0.66285
 C443 C 0.02590 0.61343 0.64099
 C444 C 0.02574 0.63852 0.61800
 H445 H 0.04963 0.73070 0.54447
 H446 H -0.04971 0.72536 0.54191
 H447 H -0.04188 0.63009 0.67872
 H448 H 0.04472 0.59616 0.64111
 H449 H -0.04859 0.68633 0.58492
 H450 H -0.04163 0.67501 0.63957
 H451 H 0.05005 0.69409 0.58997
 H452 H 0.04438 0.63961 0.60065
 C453 C 0.49463 0.92365 -0.19046
 C454 C 0.51074 0.92229 -0.22002
 C455 C 0.51079 0.94901 -0.24127
 C456 C 0.49610 0.97873 -0.23293
 C457 C 0.47782 0.97845 -0.20451
 C458 C 0.47730 0.95165 -0.18366
 C459 C 0.49578 0.89636 -0.16652
 C460 C 0.49502 0.90312 -0.13291
 C461 C 0.49513 0.87789 -0.11015
 C462 C 0.49659 0.84525 -0.12032
 C463 C 0.49816 0.83825 -0.15375
 C464 C 0.49752 0.86356 -0.17667
 H465 H 0.52241 0.94614 -0.26432
 H466 H 0.46359 0.99882 -0.19784
 H467 H 0.49447 0.88390 -0.08446
 H468 H 0.49921 0.81319 -0.16211
 H469 H 0.46308 0.95294 -0.16211
 H470 H 0.49460 0.92802 -0.12406
 H471 H 0.52375 0.90080 -0.22663
 H472 H 0.49780 0.85735 -0.20229
 C473 C 0.99897 0.31122 0.40551
 C474 C 0.97132 0.30174 0.42021
 C475 C 0.97106 0.27939 0.44590
 C476 C 0.99850 0.26558 0.45819
 C477 C 1.02618 0.27519 0.44268
 C478 C 1.02630 0.29697 0.41659
 C479 C 0.99950 0.33736 0.38025
 C480 C 1.02413 0.35962 0.37886
 C481 C 1.02422 0.38495 0.35615
 C482 C 0.99943 0.38905 0.33471
 C483 C 0.97482 0.36697 0.33588
 C484 C 0.97498 0.34119 0.35819
 H485 H 0.94903 0.27430 0.45634
 H486 H 1.04832 0.26740 0.45165
 H487 H 1.04327 0.40197 0.35594
 H488 H 0.95557 0.36956 0.31934
 H489 H 1.04812 0.30328 0.40570
 H490 H 1.04306 0.35812 0.39590
 H491 H 0.94977 0.31264 0.41285
 H492 H 0.95588 0.32427 0.35809
 C493 C 0.50197 0.90772 0.18538
 C494 C 0.52970 0.92176 0.19579
 C495 C 0.53004 0.94660 0.21916
 C496 C 0.50262 0.95856 0.23324
 C497 C 0.47485 0.94421 0.22214
 C498 C 0.47459 0.91894 0.19936
 C499 C 0.50144 0.88277 0.15891
 C500 C 0.47697 0.88176 0.13644
 C501 C 0.47666 0.85889 0.11121
 C502 C 0.50108 0.83698 0.10740
 C503 C 0.52562 0.83788 0.12954
 C504 C 0.52566 0.86031 0.15525
 H505 H 0.55213 0.95668 0.22505
 H506 H 0.45278 0.95344 0.22983
 H507 H 0.45769 0.85885 0.09411
 H508 H 0.54459 0.82098 0.12712
 H509 H 0.45267 0.90869 0.19225
 H510 H 0.45830 0.89911 0.13779
 H511 H 0.55129 0.91445 0.18501
 H512 H 0.54462 0.85989 0.17231
 C513 C -0.00079 0.31276 0.57388
 C514 C -0.01279 0.28106 0.57696
 C515 C -0.01234 0.25937 0.55060
 C516 C -0.00112 0.26906 0.51975
 C517 C 0.01221 0.30046 0.51756
 C518 C 0.01234 0.32178 0.54402
 C519 C -0.00162 0.33649 0.60146
 C520 C -0.00483 0.37013 0.59527
 C521 C -0.00409 0.39273 0.62069
 C522 C -0.00088 0.38227 0.65298
 C523 C 0.00132 0.34876 0.65956
 C524 C 0.00126 0.32607 0.63402
 H525 H -0.02095 0.23488 0.55443
 H526 H 0.02300 0.30899 0.49555
 H527 H -0.00628 0.41849 0.61517
 H528 H 0.00390 0.34026 0.68438
 H529 H 0.02319 0.34537 0.54105
 H530 H -0.00804 0.37913 0.57074
 H531 H -0.02287 0.27298 0.59963
 H532 H 0.00418 0.30049 0.63980
 C533 C 0.49819 0.09132 0.81514
 C534 C 0.47055 0.08020 0.80154
 C535 C 0.47034 0.05486 0.77881
 C536 C 0.49787 0.04027 0.76750
 C537 C 0.52555 0.05220 0.78118
 C538 C 0.52568 0.07712 0.80446
 C539 C 0.49822 0.11636 0.84153
 C540 C 0.52260 0.13876 0.84472
 C541 C 0.52316 0.16120 0.87040
 C542 C 0.49908 0.16218 0.89301
 C543 C 0.47448 0.14035 0.88964
 C544 C 0.47418 0.11748 0.86441
 H545 H 0.44811 0.04580 0.77129
 H546 H 0.54753 0.04212 0.77505
 H547 H 0.54225 0.17806 0.87246
 H548 H 0.45585 0.14043 0.90709
 H549 H 0.54746 0.08439 0.81493
 H550 H 0.54122 0.13910 0.82732
 H551 H 0.44880 0.09060 0.80887
 H552 H 0.45541 0.10019 0.86338
 C553 C 1.00051 0.68899 0.42407
 C554 C 1.01806 0.68261 0.45199
 C555 C 1.01785 0.70400 0.47839
 C556 C 0.99965 0.73258 0.47838
 C557 C 0.98443 0.74028 0.44883
 C558 C 0.98422 0.71852 0.42250
 C559 C 0.99956 0.66479 0.39695
 C560 C 0.99790 0.67478 0.36419
 C561 C 0.99773 0.65167 0.33902
 C562 C 0.99971 0.61821 0.34610
 C563 C 1.00104 0.60819 0.37870
 C564 C 1.00068 0.63114 0.40381
 H565 H 1.03235 0.69769 0.49866
 H566 H 0.97277 0.76335 0.44572
 H567 H 0.99680 0.65993 0.31399
 H568 H 1.00200 0.58248 0.38477
 H569 H 0.97099 0.72478 0.40107
 H570 H 0.99737 0.70042 0.35792
 H571 H 1.03235 0.66105 0.45346
 H572 H 1.00108 0.62242 0.42868
 C573 C 1.18256 0.50251 0.07997
 C574 C 1.18535 0.47479 0.06007
 C575 C 1.20739 0.47359 0.03547
 C576 C 1.22779 0.49986 0.03012
 C577 C 1.22422 0.52800 0.04973
 C578 C 1.20232 0.52904 0.07453
 C579 C 1.15840 0.50412 0.10551
 C580 C 1.14247 0.53338 0.11151
 C581 C 1.11899 0.53454 0.13465
 C582 C 1.11071 0.50640 0.15206
 C583 C 1.12685 0.47727 0.14643
 C584 C 1.15051 0.47617 0.12354
 H585 H 1.20842 0.45206 0.02018
 H586 H 1.23760 0.54982 0.04569
 H587 H 1.10665 0.55720 0.13822
 H588 H 1.12118 0.45534 0.15985
 H589 H 1.20076 0.55086 0.08933
 H590 H 1.14753 0.55522 0.09771
 H591 H 1.16993 0.45425 0.06289
 H592 H 1.16269 0.45341 0.12001
 C593 C 0.57961 0.01045 0.68180
 C594 C 0.55162 0.02279 0.67046
 C595 C 0.52561 0.02265 0.69025
 C596 C 0.52640 0.00994 0.72233
 C597 C 0.55526 -0.00146 0.73366
 C598 C 0.58122 -0.00160 0.71366
 C599 C 0.60678 0.00982 0.66005
 C600 C 0.62507 -0.01831 0.65766
 C601 C 0.64921 -0.01972 0.63527
 C602 C 0.65574 0.00710 0.61508
 C603 C 0.63801 0.03557 0.61821
 C604 C 0.61373 0.03687 0.64037
 H605 H 0.50508 0.03257 0.67959
 H606 H 0.55789 -0.01042 0.75829
 H607 H 0.66267 -0.04187 0.63356
 H608 H 0.64230 0.05651 0.60280
 H609 H 0.60271 -0.01078 0.72327
 H610 H 0.62010 -0.03957 0.67239
 H611 H 0.54965 0.03213 0.64588
 H612 H 0.60018 0.05897 0.64192
 C613 C -0.18133 0.49444 0.92048
 C614 C -0.20001 0.52218 0.92345
 C615 C -0.22248 0.52397 0.94758
 C616 C -0.22771 0.49757 0.96899
 C617 C -0.20863 0.46989 0.96589
 C618 C -0.18604 0.46820 0.94185
 C619 C -0.15610 0.49357 0.89618
 C620 C -0.14913 0.46469 0.87921
 C621 C -0.12508 0.46397 0.85669
 C622 C -0.10762 0.49216 0.85057
 C623 C -0.11456 0.52099 0.86755
 C624 C -0.13845 0.52167 0.89015
 H625 H -0.23480 0.54673 0.94990
 H626 H -0.21086 0.44968 0.98270
 H627 H -0.12042 0.44150 0.84370
 H628 H -0.10113 0.54292 0.86378
 H629 H -0.17153 0.44678 0.94076
 H630 H -0.16251 0.44274 0.88304
 H631 H -0.19696 0.54286 0.90738
 H632 H -0.14273 0.54411 0.90333
 C633 C 0.42313 -0.00791 0.32260
 C634 C 0.43524 -0.03780 0.31193
 C635 C 0.46043 -0.03869 0.29100
 C636 C 0.47367 -0.00974 0.27847
 C637 C 0.46173 0.02017 0.29009
 C638 C 0.43693 0.02104 0.31160
 C639 C 0.39690 -0.00694 0.34586
 C640 C 0.37526 0.01857 0.34472
 C641 C 0.35119 0.01992 0.36716
 C642 C 0.34784 -0.00456 0.39072
 C643 C 0.36898 -0.03032 0.39167
 C644 C 0.39343 -0.03134 0.36973
 H645 H 0.47000 -0.06235 0.28520
 H646 H 0.47173 0.04326 0.28324
 H647 H 0.33496 0.03991 0.36594
 H648 H 0.36702 -0.04922 0.40998
 H649 H 0.42908 0.04457 0.32022
 H650 H 0.37673 0.03744 0.32636
 H651 H 0.42541 -0.06072 0.31982
 H652 H 0.40993 -0.05093 0.37200
 C653 C 0.18358 0.49551 0.92011
 C654 C 0.18673 0.52323 0.93998
 C655 C 0.20851 0.52403 0.96495
 C656 C 0.22827 0.49733 0.97074
 C657 C 0.22440 0.46925 0.95109
 C658 C 0.20277 0.46860 0.92592
 C659 C 0.15956 0.49426 0.89431
 C660 C 0.14315 0.46527 0.88823
 C661 C 0.11976 0.46446 0.86489
 C662 C 0.11204 0.49269 0.84734
 C663 C 0.12865 0.52154 0.85303
 C664 C 0.15224 0.52229 0.87613
 H665 H 0.20978 0.54556 0.98023
 H666 H 0.23726 0.44715 0.95540
 H667 H 0.10704 0.44201 0.86127
 H668 H 0.12341 0.54354 0.83952
 H669 H 0.20094 0.44679 0.91113
 H670 H 0.14776 0.44338 0.90214
 H671 H 0.17175 0.54407 0.93687
 H672 H 0.16478 0.54484 0.87972
 C673 C 0.58500 -0.01274 0.31912
 C674 C 0.58669 -0.00027 0.28743
 C675 C 0.56077 -0.00023 0.26724
 C676 C 0.53186 -0.01167 0.27831
 C677 C 0.53111 -0.02517 0.31007
 C678 C 0.55706 -0.02554 0.33001
 C679 C 0.61192 -0.01189 0.34129
 C680 C 0.61899 -0.03899 0.36085
 C681 C 0.64264 -0.03730 0.38382
 C682 C 0.65959 -0.00838 0.38791
 C683 C 0.65307 0.01846 0.36773
 C684 C 0.62957 0.01666 0.34453
 H685 H 0.56348 0.00899 0.24273
 H686 H 0.51062 -0.03551 0.32037
 H687 H 0.64697 -0.05828 0.39917
 H688 H 0.66596 0.04096 0.37016
 H689 H 0.55504 -0.03531 0.35441
 H690 H 0.60592 -0.06140 0.35865
 H691 H 0.60819 0.00918 0.27813
 H692 H 0.62447 0.03798 0.32991
 C693 C 0.81857 0.50839 0.07672
 C694 C 0.81349 0.53417 0.05493
 C695 C 0.79109 0.53155 0.03071
 C696 C 0.77260 0.50334 0.02785
 C697 C 0.77850 0.47724 0.04946
 C698 C 0.80079 0.47997 0.07379
 C699 C 0.84326 0.51045 0.10154
 C700 C 0.83834 0.49894 0.13331
 C701 C 0.86201 0.49966 0.15631
 C702 C 0.89119 0.51175 0.14798
 C703 C 0.89596 0.52362 0.11628
 C704 C 0.87225 0.52303 0.09334
 H705 H 0.78830 0.55161 0.01381
 H706 H 0.76684 0.45406 0.04712
 H707 H 0.85743 0.49086 0.18067
 H708 H 0.91828 0.53258 0.10890
 H709 H 0.80492 0.45929 0.08960
 H710 H 0.81610 0.48950 0.14041
 H711 H 0.82696 0.55635 0.05652
 H712 H 0.87684 0.53160 0.06888
 C713 C 0.41670 0.00843 0.67927
 C714 C 0.42997 0.03803 0.68929
 C715 C 0.45554 0.03835 0.70980
 C716 C 0.46809 0.00913 0.72251
 C717 C 0.45498 -0.02052 0.71156
 C718 C 0.42976 -0.02083 0.69047
 C719 C 0.39011 0.00801 0.65634
 C720 C 0.36771 -0.01676 0.65808
 C721 C 0.34355 -0.01791 0.63563
 C722 C 0.34089 0.00606 0.61143
 C723 C 0.36269 0.03123 0.61004
 C724 C 0.38719 0.03203 0.63202
 H725 H 0.46590 0.06174 0.71528
 H726 H 0.46431 -0.04385 0.71862
 H727 H 0.32685 -0.03746 0.63719
 H728 H 0.36131 0.04968 0.59123
 H729 H 0.42099 -0.04419 0.68234
 H730 H 0.36875 -0.03529 0.67681
 H731 H 0.42072 0.06117 0.68123
 H732 H 0.40424 0.05105 0.62931
   
