data_POSCAR
  _audit_creation_date              2014-09-24
  _audit_creation_method            'ToBaCCo'
  _symmetry_space_group_name_H-M    'P1'
  _symmetry_Int_Tables_number       1
  _symmetry_cell_setting            triclinic
  loop_
  _symmetry_equiv_pos_as_xyz
 x,y,z
_cell_length_a 24.9824
_cell_length_b 25.1184
_cell_length_c 10.6053
_cell_angle_alpha 90.467800
_cell_angle_beta 89.905300
_cell_angle_gamma 119.743500
loop_
  _atom_site_label
  _atom_site_type_symbol
  _atom_site_fract_x
  _atom_site_fract_y
  _atom_site_fract_z
C1 C 0.14010 0.55699 0.55072
 C2 C 0.13027 0.55123 0.42536
 C3 C 0.11734 0.49300 0.39123
 N4 N 0.12045 0.46219 0.49279
 C5 C 0.13360 0.50212 0.58962
 C6 C 0.11048 0.47338 0.26431
 C7 C 0.15011 0.45138 0.22014
 C8 C 0.15889 0.43954 0.09597
 C9 C 0.21001 0.43159 0.09496
 C10 C 0.23013 0.43732 0.21824
 N11 N 0.19280 0.44766 0.29366
 C12 C 0.28110 0.43211 0.25982
 C13 C 0.28416 0.41483 0.38519
 C14 C 0.28399 0.36179 0.41838
 C15 C 0.28726 0.36203 0.54861
 C16 C 0.29099 0.41589 0.58988
 N17 N 0.28618 0.44700 0.49010
 C18 C 0.29649 0.43577 0.71762
 C19 C 0.25981 0.46183 0.75340
 C20 C 0.27675 0.51033 0.83595
 C21 C 0.22951 0.52281 0.84275
 C22 C 0.18621 0.48395 0.75700
 N23 N 0.20504 0.44762 0.70065
 C24 C 0.13711 0.49059 0.71598
 H25 H 0.15359 0.59758 0.60732
 H26 H 0.13699 0.58730 0.36453
 H27 H 0.18154 0.41491 0.63015
 H28 H 0.13260 0.43792 0.01385
 H29 H 0.22903 0.42067 0.01376
 H30 H 0.27753 0.32497 0.35540
 H31 H 0.28091 0.32437 0.60712
 H32 H 0.23134 0.56163 0.89145
 H33 H 0.20064 0.45698 0.38954
 H34 H 0.32159 0.54066 0.86973
 C35 C 0.61939 0.93367 0.44529
 C36 C 0.61682 0.93339 0.57464
 C37 C 0.58130 0.87355 0.61016
 N38 N 0.56349 0.83642 0.50599
 C39 C 0.58526 0.87363 0.40413
 C40 C 0.56133 0.85370 0.73549
 C41 C 0.54678 0.79500 0.77031
 C42 C 0.56406 0.78023 0.88266
 C43 C 0.54171 0.71788 0.87823
 C44 C 0.51060 0.69778 0.76495
 N45 N 0.51454 0.74499 0.69888
 C46 C 0.47624 0.63752 0.72424
 C47 C 0.46131 0.62436 0.59796
 C48 C 0.41155 0.57128 0.55610
 C49 C 0.41839 0.56976 0.42968
 C50 C 0.47328 0.62184 0.39966
 N51 N 0.49910 0.65689 0.50266
 C52 C 0.49792 0.63604 0.27807
 C53 C 0.51422 0.69507 0.23315
 C54 C 0.48082 0.70311 0.13990
 C55 C 0.49561 0.76342 0.14602
 C56 C 0.53920 0.79253 0.23920
 N57 N 0.54865 0.74937 0.29614
 C58 C 0.56405 0.85558 0.27710
 H59 H 0.64084 0.97336 0.38609
 H60 H 0.63861 0.97214 0.63695
 H61 H 0.57680 0.75617 0.37422
 H62 H 0.59136 0.81149 0.95748
 H63 H 0.54769 0.69058 0.94917
 H64 H 0.37415 0.53869 0.61237
 H65 H 0.38562 0.53548 0.36654
 H66 H 0.47014 0.78081 0.10036
 H67 H 0.49125 0.74236 0.61539
 H68 H 0.44384 0.66783 0.08407
 C69 C 0.07643 0.67734 0.55535
 C70 C 0.07950 0.67837 0.42595
 C71 C 0.13900 0.69477 0.39463
 N72 N 0.17323 0.70693 0.50238
 C73 C 0.13459 0.69596 0.60104
 C74 C 0.15974 0.69030 0.27118
 C75 C 0.22264 0.72665 0.23968
 C76 C 0.24869 0.72957 0.12215
 C77 C 0.30841 0.77503 0.12693
 C78 C 0.31745 0.79946 0.24668
 N79 N 0.26551 0.77036 0.31459
 C80 C 0.37113 0.84928 0.29139
 C81 C 0.38471 0.85500 0.41946
 C82 C 0.43380 0.85056 0.46430
 C83 C 0.43022 0.85185 0.59118
 C84 C 0.38038 0.85915 0.61966
 N85 N 0.35019 0.85881 0.51380
 C86 C 0.36465 0.86682 0.74311
 C87 C 0.30166 0.82779 0.78197
 C88 C 0.27418 0.82998 0.89404
 C89 C 0.21367 0.78074 0.89203
 C90 C 0.20545 0.74931 0.77919
 N91 N 0.25880 0.77929 0.71251
 C92 C 0.14890 0.69836 0.73272
 H93 H 0.03663 0.66429 0.61245
 H94 H 0.04278 0.66912 0.36140
 H95 H 0.26722 0.76436 0.62677
 H96 H 0.22726 0.70648 0.03582
 H97 H 0.33986 0.78907 0.04842
 H98 H 0.46486 0.84148 0.41015
 H99 H 0.45781 0.84349 0.65565
 H100 H 0.17924 0.77029 0.96420
 H101 H 0.25883 0.78461 0.40232
 H102 H 0.29517 0.86346 0.96921
 C103 C 0.92595 0.63768 0.55432
 C104 C 0.92414 0.63667 0.42379
 C105 C 0.87035 0.58465 0.38902
 N106 N 0.83839 0.55479 0.49326
 C107 C 0.87390 0.58582 0.59436
 C108 C 0.84978 0.56706 0.26315
 C109 C 0.79287 0.56110 0.22393
 C110 C 0.77724 0.56603 0.10142
 C111 C 0.71876 0.55941 0.10481
 C112 C 0.69967 0.54925 0.22969
 N113 N 0.74637 0.55260 0.30129
 C114 C 0.63876 0.52855 0.27541
 C115 C 0.62552 0.50784 0.40045
 C116 C 0.57825 0.45041 0.43118
 C117 C 0.58024 0.44479 0.55689
 C118 C 0.62901 0.49899 0.59956
 N119 N 0.65877 0.53799 0.50417
 C120 C 0.64458 0.50838 0.72684
 C121 C 0.70046 0.51338 0.76303
 C122 C 0.70618 0.47464 0.84570
 C123 C 0.76622 0.48814 0.83700
 C124 C 0.79679 0.53714 0.75666
 N125 N 0.75518 0.55061 0.70703
 C126 C 0.85974 0.56520 0.72116
 H127 H 0.95799 0.67492 0.61395
 H128 H 0.95552 0.67246 0.36153
 H129 H 0.76372 0.58411 0.63991
 H130 H 0.80619 0.57600 0.01930
 H131 H 0.69351 0.56090 0.02365
 H132 H 0.54857 0.41458 0.36841
 H133 H 0.55198 0.40431 0.61119
 H134 H 0.78154 0.45840 0.86909
 H135 H 0.74537 0.54480 0.39744
 H136 H 0.66993 0.43581 0.89437
 C137 C 0.56368 0.13134 0.59449
 C138 C 0.56816 0.13324 0.46877
 C139 C 0.52151 0.14178 0.42634
 N140 N 0.48739 0.14502 0.52228
 C141 C 0.51327 0.13671 0.62688
 C142 C 0.51347 0.14642 0.29836
 C143 C 0.50422 0.19211 0.25012
 C144 C 0.52286 0.21749 0.13265
 C145 C 0.51133 0.26497 0.12778
 C146 C 0.48587 0.26716 0.24262
 N147 N 0.48068 0.22142 0.31584
 C148 C 0.46458 0.30746 0.27635
 C149 C 0.44210 0.30593 0.40021
 C150 C 0.39952 0.32301 0.43153
 C151 C 0.39784 0.32447 0.56069
 C152 C 0.43682 0.30502 0.60529
 N153 N 0.46404 0.29316 0.50680
 C154 C 0.44898 0.30324 0.73621
 C155 C 0.45249 0.25153 0.78367
 C156 C 0.42743 0.22046 0.89505
 C157 C 0.43707 0.17007 0.89786
 C158 C 0.46777 0.17145 0.78811
 N159 N 0.47562 0.22056 0.71905
 C160 C 0.49089 0.13128 0.75117
 H161 H 0.59501 0.12760 0.65432
 H162 H 0.60303 0.13116 0.41337
 H163 H 0.50062 0.23588 0.63573
 H164 H 0.54335 0.20442 0.05783
 H165 H 0.51849 0.29162 0.04464
 H166 H 0.37156 0.33147 0.36691
 H167 H 0.37163 0.33820 0.61863
 H168 H 0.42290 0.13638 0.97189
 H169 H 0.45839 0.20767 0.40208
 H170 H 0.40332 0.23190 0.96556
 C171 C 0.71578 0.08690 0.59131
 C172 C 0.72041 0.08369 0.46171
 C173 C 0.71245 0.12973 0.41111
 N174 N 0.70588 0.16281 0.50558
 C175 C 0.70565 0.13507 0.61560
 C176 C 0.71306 0.14124 0.27958
 C177 C 0.76029 0.19911 0.23355
 C178 C 0.79718 0.20841 0.12896
 C179 C 0.84066 0.27102 0.12524
 C180 C 0.82977 0.29821 0.22880
 N181 N 0.78179 0.25353 0.29515
 C182 C 0.86053 0.36216 0.26258
 C183 C 0.84954 0.37810 0.38252
 C184 C 0.84371 0.42887 0.40934
 C185 C 0.84198 0.43256 0.53673
 C186 C 0.84528 0.38351 0.58224
 N187 N 0.84923 0.34897 0.48887
 C188 C 0.84300 0.37193 0.71018
 C189 C 0.80340 0.31493 0.75932
 C190 C 0.78691 0.30370 0.88417
 C191 C 0.74701 0.24266 0.89133
 C192 C 0.73961 0.21838 0.77088
 N193 N 0.77515 0.26292 0.69068
 C194 C 0.70229 0.15659 0.73819
 H195 H 0.72455 0.06081 0.66065
 H196 H 0.73305 0.05415 0.41069
 H197 H 0.78079 0.25789 0.59535
 H198 H 0.79350 0.17371 0.06279
 H199 H 0.87604 0.29366 0.05465
 H200 H 0.83866 0.45831 0.34373
 H201 H 0.83439 0.46409 0.59194
 H202 H 0.72732 0.21934 0.97763
 H203 H 0.76115 0.26034 0.37446
 H204 H 0.80054 0.33554 0.96220
 O205 O 0.94507 0.55123 -0.26005
 O206 O 1.06312 0.62477 0.16872
 O207 O 0.85225 0.49393 0.11232
 O208 O 1.10876 0.64260 -0.07228
 O209 O 0.94249 0.57584 0.16132
 O210 O 1.06455 0.59988 -0.25008
 O211 O 1.14468 0.61539 0.11793
 O212 O 0.89672 0.54884 -0.08423
 C213 C 0.90313 0.55687 -0.20364
 C214 C 1.12085 0.64222 0.18574
 C215 C 0.88345 0.54543 0.17679
 C216 C 1.10537 0.64671 -0.19124
 O217 O 1.04738 0.48710 -0.22107
 O218 O 0.93486 0.46865 0.22895
 O219 O 0.86177 0.43901 -0.12511
 O220 O 1.08324 0.49762 0.06885
 O221 O 1.04650 0.51507 0.23184
 O222 O 0.93790 0.44382 -0.23316
 O223 O 1.12914 0.55455 -0.12294
 O224 O 0.89657 0.41708 0.06577
 Co225 Co 0.99886 0.52191 -0.22266
 Co226 Co 0.99652 0.54440 0.17724
 Co227 Co 0.90580 0.48931 0.00260
 Co228 Co 1.08789 0.56733 0.00501
 O229 O 0.99694 0.52756 -0.02422
 C230 C 1.10371 0.51130 -0.20101
 C231 C 0.90163 0.41674 0.18029
 C232 C 0.88176 0.42020 -0.21257
 C233 C 1.07709 0.49280 0.18424
 O234 O 0.46631 0.40342 -0.24656
 O235 O 0.36561 0.42450 0.16036
 O236 O 0.52806 0.38540 0.12411
 O237 O 0.34812 0.45250 -0.08543
 O238 O 0.43643 0.37552 0.16530
 O239 O 0.39751 0.45445 -0.25883
 O240 O 0.35638 0.50609 0.11452
 O241 O 0.46621 0.35953 -0.06985
 C242 C 0.45891 0.35590 -0.18854
 C243 C 0.33666 0.45462 0.17656
 C244 C 0.47647 0.35855 0.18741
 C245 C 0.34831 0.44579 -0.20512
 O246 O 0.49879 0.56219 -0.21836
 O247 O 0.53001 0.48529 0.23757
 O248 O 0.57610 0.44673 -0.11524
 O249 O 0.47615 0.58274 0.07777
 O250 O 0.46386 0.53005 0.23745
 O251 O 0.56272 0.51539 -0.20842
 O252 O 0.42353 0.56374 -0.11791
 O253 O 0.58497 0.50284 0.07606
 Co254 Co 0.47987 0.48236 -0.21529
 Co255 Co 0.45060 0.45566 0.18043
 Co256 Co 0.52058 0.43385 0.00990
 Co257 Co 0.41532 0.51170 0.00698
 O258 O 0.46958 0.47435 -0.01838
 C259 C 0.46619 0.58607 -0.19681
 C260 C 0.58303 0.50816 0.19093
 C261 C 0.59394 0.48976 -0.19275
 C262 C 0.48083 0.58165 0.19234
 O263 O 0.62895 0.06099 -0.15825
 O264 O 0.54760 -0.06102 0.25840
 O265 O 0.65192 0.10163 0.08245
 O266 O 0.49173 -0.14449 -0.11578
 O267 O 0.60797 0.05828 0.26000
 O268 O 0.57470 -0.05586 -0.16412
 O269 O 0.54689 -0.10679 0.08168
 O270 O 0.62849 0.14575 -0.10139
 C271 C 0.65099 0.11880 -0.17223
 C272 C 0.55439 -0.10190 0.20108
 C273 C 0.65613 0.09689 0.20111
 C274 C 0.54281 -0.11412 -0.18067
 O275 O 0.46864 -0.05909 -0.22460
 O276 O 0.49815 0.05267 0.22898
 O277 O 0.51147 0.09537 -0.04875
 O278 O 0.43817 -0.13626 0.12807
 O279 O 0.44488 -0.05772 0.22999
 O280 O 0.51872 0.05307 -0.21426
 O281 O 0.41686 -0.09848 -0.06224
 O282 O 0.57338 0.13199 0.14246
 Co283 Co 0.54631 -0.00006 -0.17083
 Co284 Co 0.52579 -0.00171 0.22680
 Co285 Co 0.57832 0.08988 0.00859
 Co286 Co 0.48829 -0.09313 -0.00011
 O287 O 0.53133 -0.00184 0.02951
 C288 C 0.41653 -0.09378 -0.17728
 C289 C 0.52876 0.10918 0.21626
 C290 C 0.50339 0.08906 -0.16395
 C291 C 0.41936 -0.11420 0.21215
   
