data_POSCAR
  _audit_creation_date              2014-09-24
  _audit_creation_method            'ToBaCCo'
  _symmetry_space_group_name_H-M    'P1'
  _symmetry_Int_Tables_number       1
  _symmetry_cell_setting            triclinic
  loop_
  _symmetry_equiv_pos_as_xyz
 x,y,z
_cell_length_a 37.8606
_cell_length_b 36.0189
_cell_length_c 36.0181
_cell_angle_alpha 89.907200
_cell_angle_beta 90.023900
_cell_angle_gamma 89.976500
loop_
  _atom_site_label
  _atom_site_type_symbol
  _atom_site_fract_x
  _atom_site_fract_y
  _atom_site_fract_z
C1 C 0.30356 0.30074 0.23584
 H2 H 0.30503 0.30131 0.26583
 C3 C 0.32644 0.32267 0.21475
 H4 H 0.34555 0.34033 0.22847
 C5 C 0.27714 0.27674 0.18119
 H6 H 0.25828 0.25842 0.16818
 C7 C 0.29953 0.29821 0.15906
 H8 H 0.29760 0.29664 0.12909
 N9 N 0.27922 0.27873 0.21887
 C10 C 0.19558 0.26340 0.30080
 H11 H 0.19404 0.23341 0.30145
 C12 C 0.17282 0.28455 0.32276
 H13 H 0.15374 0.27087 0.34052
 C14 C 0.22206 0.31799 0.27660
 H15 H 0.24089 0.33096 0.25820
 C16 C 0.19978 0.34017 0.29810
 H17 H 0.20179 0.37013 0.29648
 Zn18 Zn 0.24952 0.24959 0.24956
 N19 N 0.21990 0.28031 0.27868
 C20 C 0.27708 0.22249 0.31799
 N21 N 0.27915 0.22037 0.28031
 C22 C 0.30344 0.19825 0.26342
 C23 C 0.32630 0.17634 0.28460
 C24 C 0.29946 0.20104 0.34019
 C25 C 0.19556 0.23595 0.19827
 C26 C 0.17270 0.21488 0.17633
 C27 C 0.19952 0.15917 0.20102
 C28 C 0.22190 0.18127 0.22249
 N29 N 0.21984 0.21895 0.22040
 H30 H 0.25827 0.24090 0.33094
 H31 H 0.30491 0.19758 0.23343
 H32 H 0.34539 0.15859 0.27094
 H33 H 0.29755 0.20272 0.37016
 H34 H 0.19410 0.26595 0.19760
 H35 H 0.15363 0.22863 0.15858
 H36 H 0.20143 0.12920 0.20268
 H37 H 0.24070 0.16823 0.24090
 C38 C 0.17506 0.32328 0.32149
 C39 C 0.32429 0.32147 0.17601
 C40 C 0.17481 0.17615 0.17765
 C41 C 0.32419 0.17768 0.32333
 C42 C 0.80434 0.80203 0.23523
 H43 H 0.80586 0.80269 0.26521
 C44 C 0.82708 0.82404 0.21404
 H45 H 0.84610 0.84182 0.22778
 C46 C 0.77793 0.77775 0.18069
 H47 H 0.75914 0.75931 0.16777
 C48 C 0.80018 0.79928 0.15845
 H49 H 0.79812 0.79756 0.12848
 N50 N 0.78008 0.77986 0.21836
 C51 C 0.69653 0.76432 0.30037
 H52 H 0.69508 0.73433 0.30102
 C53 C 0.67371 0.78540 0.32235
 H54 H 0.65468 0.77165 0.34011
 C55 C 0.72285 0.81900 0.27618
 H56 H 0.74164 0.83203 0.25778
 C57 C 0.70051 0.84111 0.29769
 H58 H 0.70244 0.87107 0.29608
 Zn59 Zn 0.75050 0.75066 0.24915
 N60 N 0.72080 0.78132 0.27826
 C61 C 0.77808 0.72365 0.31761
 N62 N 0.78022 0.72157 0.27994
 C63 C 0.80455 0.69946 0.26308
 C64 C 0.82733 0.67747 0.28429
 C65 C 0.80037 0.70213 0.33985
 C66 C 0.69653 0.73671 0.19793
 C67 C 0.67373 0.71549 0.17607
 C68 C 0.70076 0.65994 0.20090
 C69 C 0.72307 0.68219 0.22229
 N70 N 0.72089 0.71986 0.22009
 H71 H 0.75924 0.74204 0.33054
 H72 H 0.80607 0.69881 0.23310
 H73 H 0.84641 0.65970 0.27065
 H74 H 0.79837 0.70374 0.36981
 H75 H 0.69497 0.76669 0.19719
 H76 H 0.65461 0.72912 0.15830
 H77 H 0.70277 0.62999 0.20264
 H78 H 0.74193 0.66927 0.24072
 C79 C 0.67585 0.82413 0.32108
 C80 C 0.82488 0.82275 0.17528
 C81 C 0.67598 0.67677 0.17749
 C82 C 0.82509 0.67873 0.32301
 C83 C 0.80481 0.30002 0.73705
 H84 H 0.80635 0.30066 0.76704
 C85 C 0.82757 0.32200 0.71586
 H86 H 0.84665 0.33976 0.72950
 C87 C 0.77833 0.27586 0.68250
 H88 H 0.75949 0.25747 0.66957
 C89 C 0.80060 0.29737 0.66028
 H90 H 0.79858 0.29577 0.63032
 N91 N 0.78049 0.27792 0.72018
 C92 C 0.69686 0.26274 0.80216
 H93 H 0.69533 0.23276 0.80289
 C94 C 0.67404 0.28395 0.82401
 H95 H 0.65493 0.27031 0.84177
 C96 C 0.72334 0.31728 0.77783
 H97 H 0.74217 0.33021 0.75941
 C98 C 0.70100 0.33951 0.79922
 H99 H 0.70298 0.36947 0.79748
 Zn100 Zn 0.75081 0.24882 0.75095
 N101 N 0.72119 0.27960 0.78002
 C102 C 0.77832 0.22170 0.81940
 N103 N 0.78043 0.21960 0.78173
 C104 C 0.80469 0.19744 0.76485
 C105 C 0.82748 0.17543 0.78602
 C106 C 0.80060 0.20017 0.84164
 C107 C 0.69681 0.23519 0.69972
 C108 C 0.67398 0.21414 0.67775
 C109 C 0.70082 0.15840 0.70237
 C110 C 0.72318 0.18049 0.72388
 N111 N 0.72110 0.21818 0.72183
 H112 H 0.75952 0.24014 0.83232
 H113 H 0.80618 0.19680 0.73486
 H114 H 0.84649 0.15768 0.77219
 H115 H 0.79851 0.20194 0.87161
 H116 H 0.69534 0.26518 0.69909
 H117 H 0.65491 0.22789 0.66000
 H118 H 0.70276 0.12843 0.70398
 H119 H 0.74199 0.16744 0.74227
 C120 C 0.67625 0.32267 0.82260
 C121 C 0.82532 0.32075 0.67713
 C122 C 0.67612 0.17540 0.67900
 C123 C 0.82533 0.17670 0.82480
 C124 C 0.30350 0.80149 0.73639
 H125 H 0.30497 0.80215 0.76638
 C126 C 0.32636 0.82339 0.71524
 H127 H 0.34544 0.84112 0.72892
 C128 C 0.27715 0.77727 0.68180
 H129 H 0.25834 0.75888 0.66883
 C130 C 0.29952 0.79871 0.65962
 H131 H 0.29761 0.79704 0.62965
 N132 N 0.27922 0.77938 0.71948
 C133 C 0.19562 0.76394 0.80145
 H134 H 0.19417 0.73395 0.80216
 C135 C 0.17275 0.78505 0.82333
 H136 H 0.15368 0.77134 0.84109
 C137 C 0.22195 0.81857 0.77717
 H138 H 0.24075 0.83156 0.75876
 C139 C 0.19956 0.84071 0.79858
 H140 H 0.20146 0.87068 0.79688
 Zn141 Zn 0.24959 0.75021 0.75022
 N142 N 0.21990 0.78089 0.77932
 C143 C 0.27719 0.72305 0.81863
 N144 N 0.27929 0.72106 0.78095
 C145 C 0.30363 0.69903 0.76400
 C146 C 0.32650 0.67708 0.78512
 C147 C 0.29958 0.70155 0.84078
 C148 C 0.19566 0.73637 0.69892
 C149 C 0.17289 0.71520 0.67698
 C150 C 0.19985 0.65960 0.70176
 C151 C 0.22214 0.68180 0.72324
 N152 N 0.21997 0.71947 0.72109
 H153 H 0.25834 0.74137 0.83162
 H154 H 0.30511 0.69846 0.73401
 H155 H 0.34561 0.65940 0.77141
 H156 H 0.29764 0.70311 0.87074
 H157 H 0.19412 0.76636 0.69822
 H158 H 0.15380 0.72887 0.65918
 H159 H 0.20186 0.62964 0.70344
 H160 H 0.24096 0.66884 0.74168
 C161 C 0.17485 0.82378 0.82196
 C162 C 0.32424 0.82206 0.67651
 C163 C 0.17513 0.67648 0.67833
 C164 C 0.32434 0.67827 0.82385
 Si165 Si -0.00125 0.00017 -0.00043
 Si166 Si -0.00005 0.49973 0.50009
 Si167 Si 0.50045 -0.00011 0.50006
 Si168 Si 0.50047 0.49969 -0.00007
 C169 C 0.06820 -0.07027 -0.11464
 C170 C 0.10911 -0.06953 -0.11390
 C171 C 0.10936 -0.11218 -0.11356
 C172 C 0.06881 -0.11329 -0.11466
 C173 C 0.06800 -0.07086 -0.07199
 C174 C 0.06824 -0.11351 -0.07164
 C175 C 0.10855 -0.06976 -0.07090
 C176 C 0.10916 -0.11276 -0.07091
 C177 C 0.13254 -0.13511 -0.13664
 C178 C 0.15175 -0.15389 -0.15555
 C179 C 0.04513 -0.04776 -0.04875
 C180 C 0.02649 -0.02869 -0.02953
 H181 H 0.05109 -0.05253 -0.13235
 H182 H 0.12617 -0.05170 -0.13153
 H183 H 0.05272 -0.13145 -0.13292
 H184 H 0.05118 -0.13132 -0.05400
 H185 H 0.12463 -0.05160 -0.05264
 H186 H 0.12625 -0.13049 -0.05319
 C187 C 0.06917 0.42962 0.38561
 C188 C 0.11008 0.43003 0.38637
 C189 C 0.11002 0.38738 0.38640
 C190 C 0.06946 0.38660 0.38527
 C191 C 0.06895 0.42872 0.42826
 C192 C 0.06888 0.38607 0.42829
 C193 C 0.10951 0.42949 0.42937
 C194 C 0.10980 0.38649 0.42904
 C195 C 0.13304 0.36443 0.36316
 C196 C 0.15211 0.34563 0.34412
 C197 C 0.04622 0.45182 0.45163
 C198 C 0.02766 0.47089 0.47093
 H199 H 0.05220 0.44762 0.36803
 H200 H 0.12728 0.44785 0.36887
 H201 H 0.05326 0.36871 0.36688
 H202 H 0.05168 0.36827 0.44580
 H203 H 0.12571 0.44739 0.44777
 H204 H 0.12676 0.36849 0.44664
 C205 C 0.56975 -0.06987 0.38545
 C206 C 0.61066 -0.06940 0.38624
 C207 C 0.61066 -0.11205 0.38612
 C208 C 0.57011 -0.11289 0.38496
 C209 C 0.56950 -0.07092 0.42809
 C210 C 0.56950 -0.11357 0.42797
 C211 C 0.61006 -0.07009 0.42924
 C212 C 0.61041 -0.11309 0.42876
 C213 C 0.63373 -0.13489 0.36282
 C214 C 0.65285 -0.15360 0.34375
 C215 C 0.54673 -0.04792 0.45152
 C216 C 0.52815 -0.02891 0.47086
 H217 H 0.55277 -0.05184 0.36791
 H218 H 0.62785 -0.05149 0.36882
 H219 H 0.55394 -0.13074 0.36649
 H220 H 0.55231 -0.13146 0.44540
 H221 H 0.62622 -0.05223 0.44771
 H222 H 0.62739 -0.13112 0.44631
 C223 C 0.56985 0.42900 -0.11417
 C224 C 0.61076 0.42963 -0.11343
 C225 C 0.61091 0.38698 -0.11302
 C226 C 0.57035 0.38598 -0.11413
 C227 C 0.56964 0.42848 -0.07152
 C228 C 0.56979 0.38583 -0.07111
 C229 C 0.61020 0.42948 -0.07043
 C230 C 0.61070 0.38647 -0.07037
 C231 C 0.63403 0.36395 -0.13606
 C232 C 0.65320 0.34509 -0.15494
 C233 C 0.54682 0.45166 -0.04832
 C234 C 0.52821 0.47079 -0.02914
 H235 H 0.55279 0.44675 -0.13192
 H236 H 0.62786 0.44739 -0.13109
 H237 H 0.55423 0.36783 -0.13235
 H238 H 0.55268 0.36809 -0.05344
 H239 H 0.62632 0.44763 -0.05220
 H240 H 0.62775 0.36873 -0.05261
 C241 C -0.11028 0.07680 -0.06551
 C242 C -0.10599 0.11921 -0.07113
 C243 C -0.11157 0.11385 -0.11303
 C244 C -0.11621 0.07180 -0.10776
 C245 C -0.07038 0.07202 -0.07161
 C246 C -0.07595 0.06665 -0.11351
 C247 C -0.06573 0.11407 -0.07687
 C248 C -0.07167 0.10907 -0.11914
 C249 C -0.13465 0.13707 -0.13602
 C250 C -0.15379 0.15611 -0.15485
 C251 C -0.04758 0.04865 -0.04846
 C252 C -0.02898 0.02936 -0.02935
 H253 H -0.12589 0.06327 -0.04320
 H254 H -0.11860 0.14108 -0.05396
 H255 H -0.13722 0.05467 -0.12072
 H256 H -0.06334 0.04478 -0.13067
 H257 H -0.04471 0.13118 -0.06390
 H258 H -0.05605 0.12261 -0.14145
 C259 C -0.10896 0.57635 0.43466
 C260 C -0.10472 0.61880 0.42932
 C261 C -0.10998 0.61366 0.38734
 C262 C -0.11457 0.57157 0.39233
 C263 C -0.06900 0.57169 0.42886
 C264 C -0.07426 0.56655 0.38689
 C265 C -0.06440 0.61378 0.42387
 C266 C -0.07002 0.60901 0.38153
 C267 C -0.13294 0.63696 0.36430
 C268 C -0.15198 0.65605 0.34543
 C269 C -0.04632 0.54826 0.45205
 C270 C -0.02777 0.52893 0.47118
 H271 H -0.12471 0.56265 0.45677
 H272 H -0.11750 0.64054 0.44651
 H273 H -0.13545 0.55447 0.37911
 H274 H -0.06147 0.54480 0.36971
 H275 H -0.04352 0.63087 0.43711
 H276 H -0.05427 0.62271 0.35942
 C277 C 0.39118 0.07591 0.43487
 C278 C 0.39506 0.11839 0.42950
 C279 C 0.38974 0.11319 0.38754
 C280 C 0.38550 0.07106 0.39257
 C281 C 0.43115 0.07161 0.42897
 C282 C 0.42584 0.06640 0.38701
 C283 C 0.43540 0.11374 0.42396
 C284 C 0.42972 0.10889 0.38163
 C285 C 0.36653 0.13626 0.36455
 C286 C 0.34730 0.15517 0.34572
 C287 C 0.45404 0.04835 0.45211
 C288 C 0.47270 0.02910 0.47120
 H289 H 0.37559 0.06209 0.45703
 H290 H 0.38215 0.14003 0.44672
 H291 H 0.36473 0.05377 0.37940
 H292 H 0.43876 0.04476 0.36981
 H293 H 0.45618 0.13101 0.43713
 H294 H 0.44531 0.12272 0.35947
 C295 C 0.39130 0.57620 -0.06485
 C296 C 0.39548 0.61864 -0.07033
 C297 C 0.38982 0.61340 -0.11224
 C298 C 0.38529 0.57132 -0.10710
 C299 C 0.43120 0.57154 -0.07106
 C300 C 0.42555 0.56629 -0.11296
 C301 C 0.43574 0.61362 -0.07619
 C302 C 0.42972 0.60874 -0.11846
 C303 C 0.36664 0.63663 -0.13510
 C304 C 0.34743 0.65565 -0.15384
 C305 C 0.45408 0.54816 -0.04803
 C306 C 0.47273 0.52886 -0.02897
 H307 H 0.37577 0.56255 -0.04254
 H308 H 0.38286 0.64042 -0.05306
 H309 H 0.36429 0.55418 -0.12006
 H310 H 0.43817 0.54451 -0.13022
 H311 H 0.45675 0.63074 -0.06322
 H312 H 0.44526 0.62239 -0.14077
 C313 C -0.06967 -0.07219 0.11341
 C314 C -0.11058 -0.07090 0.11350
 C315 C -0.11131 -0.11353 0.11222
 C316 C -0.07076 -0.11518 0.11249
 C317 C -0.07023 -0.07168 0.07077
 C318 C -0.07096 -0.11430 0.06948
 C319 C -0.11078 -0.07003 0.07050
 C320 C -0.11187 -0.11301 0.06957
 C321 C -0.13433 -0.13676 0.13522
 C322 C -0.15342 -0.15581 0.15407
 C323 C -0.04750 -0.04830 0.04761
 C324 C -0.02894 -0.02901 0.02849
 H325 H -0.05206 -0.05513 0.13117
 H326 H -0.12712 -0.05331 0.13186
 H327 H -0.05457 -0.13401 0.13002
 H328 H -0.05441 -0.13188 0.05111
 H329 H -0.12698 -0.05120 0.05297
 H330 H -0.12947 -0.13006 0.05180
 C331 C -0.06839 0.42740 0.61398
 C332 C -0.10930 0.42844 0.61398
 C333 C -0.10981 0.38581 0.61284
 C334 C -0.06925 0.38439 0.61319
 C335 C -0.06888 0.42777 0.57133
 C336 C -0.06938 0.38513 0.57017
 C337 C -0.10943 0.42917 0.57098
 C338 C -0.11029 0.38619 0.57018
 C339 C -0.13275 0.36252 0.63587
 C340 C -0.15178 0.34344 0.65473
 C341 C -0.04622 0.45119 0.54814
 C342 C -0.02771 0.47053 0.52901
 H343 H -0.05090 0.44461 0.63171
 H344 H -0.12597 0.44599 0.63225
 H345 H -0.05298 0.36572 0.63081
 H346 H -0.05270 0.36760 0.55190
 H347 H -0.12569 0.44785 0.55336
 H348 H -0.12777 0.36898 0.55243
 C349 C 0.43146 -0.07215 0.61371
 C350 C 0.39055 -0.07080 0.61351
 C351 C 0.38977 -0.11343 0.61240
 C352 C 0.43031 -0.11514 0.61296
 C353 C 0.43117 -0.07182 0.57106
 C354 C 0.43039 -0.11445 0.56994
 C355 C 0.39062 -0.07012 0.57050
 C356 C 0.38949 -0.11310 0.56975
 C357 C 0.36657 -0.13652 0.63535
 C358 C 0.34734 -0.15544 0.65415
 C359 C 0.45405 -0.04855 0.54797
 C360 C 0.47270 -0.02930 0.52890
 H361 H 0.44898 -0.05504 0.63152
 H362 H 0.37392 -0.05311 0.63167
 H363 H 0.44637 -0.13392 0.63069
 H364 H 0.44703 -0.13213 0.55177
 H365 H 0.37457 -0.05134 0.55278
 H366 H 0.37197 -0.13019 0.55193
 C367 C 0.43156 0.42740 0.11356
 C368 C 0.39066 0.42882 0.11345
 C369 C 0.38981 0.38620 0.11212
 C370 C 0.43035 0.38441 0.11259
 C371 C 0.43120 0.42795 0.07091
 C372 C 0.43035 0.38534 0.06958
 C373 C 0.39066 0.42973 0.07045
 C374 C 0.38945 0.38676 0.06947
 C375 C 0.36662 0.36302 0.13498
 C376 C 0.34739 0.34404 0.15372
 C377 C 0.45408 0.45128 0.04788
 C378 C 0.47273 0.47055 0.02882
 H379 H 0.44915 0.44438 0.13142
 H380 H 0.37409 0.44644 0.13174
 H381 H 0.44641 0.36552 0.13018
 H382 H 0.44693 0.36773 0.05127
 H383 H 0.37459 0.44863 0.05286
 H384 H 0.37187 0.36979 0.05159
 C385 C 0.06847 0.07010 0.11390
 C386 C 0.10938 0.06963 0.11291
 C387 C 0.10935 0.11229 0.11296
 C388 C 0.06879 0.11312 0.11431
 C389 C 0.06800 0.07108 0.07125
 C390 C 0.06796 0.11374 0.07130
 C391 C 0.10855 0.07025 0.06991
 C392 C 0.10887 0.11326 0.07032
 C393 C 0.13252 0.13515 0.13611
 C394 C 0.15173 0.15388 0.15508
 C395 C 0.04513 0.04805 0.04795
 C396 C 0.02650 0.02901 0.02870
 H397 H 0.05159 0.05210 0.13154
 H398 H 0.12666 0.05175 0.13027
 H399 H 0.05271 0.13101 0.13283
 H400 H 0.05067 0.13160 0.05393
 H401 H 0.12463 0.05237 0.05139
 H402 H 0.12574 0.13126 0.05266
 C403 C 0.06941 0.61348 0.57110
 C404 C 0.06950 0.61362 0.61412
 C405 C 0.11006 0.61227 0.61356
 C406 C 0.11032 0.61249 0.57090
 C407 C 0.06897 0.57083 0.57180
 C408 C 0.10953 0.56949 0.57124
 C409 C 0.06870 0.57061 0.61445
 C410 C 0.10961 0.56962 0.61425
 C411 C 0.13308 0.63527 0.63674
 C412 C 0.15217 0.65410 0.65574
 C413 C 0.04623 0.54769 0.54847
 C414 C 0.02767 0.52859 0.52921
 H415 H 0.05262 0.63124 0.55309
 H416 H 0.05331 0.63202 0.63202
 H417 H 0.12769 0.62997 0.55325
 H418 H 0.12572 0.55109 0.55335
 H419 H 0.05133 0.55312 0.63209
 H420 H 0.12640 0.55185 0.63225
 C421 C 0.57021 0.11324 0.57153
 C422 C 0.57029 0.11318 0.61455
 C423 C 0.61084 0.11166 0.61399
 C424 C 0.61111 0.11207 0.57134
 C425 C 0.56960 0.07059 0.57204
 C426 C 0.61015 0.06908 0.57148
 C427 C 0.56932 0.07017 0.61469
 C428 C 0.61023 0.06901 0.61449
 C429 C 0.63395 0.13446 0.63728
 C430 C 0.65310 0.15315 0.65634
 C431 C 0.54679 0.04763 0.54861
 C432 C 0.52818 0.02865 0.52927
 H433 H 0.55349 0.13115 0.55360
 H434 H 0.55416 0.13157 0.63253
 H435 H 0.62855 0.12956 0.55377
 H436 H 0.62628 0.05069 0.55351
 H437 H 0.55188 0.05268 0.63224
 H438 H 0.62695 0.05109 0.63242
 C439 C 0.57003 0.57007 0.11413
 C440 C 0.61094 0.56976 0.11314
 C441 C 0.61075 0.61242 0.11304
 C442 C 0.57019 0.61309 0.11439
 C443 C 0.56956 0.57090 0.07148
 C444 C 0.56936 0.61355 0.07138
 C445 C 0.61011 0.57023 0.07014
 C446 C 0.61027 0.61323 0.07039
 C447 C 0.63383 0.63547 0.13611
 C448 C 0.65297 0.65434 0.15501
 C449 C 0.54677 0.54771 0.04825
 C450 C 0.52818 0.52858 0.02904
 H451 H 0.55322 0.55206 0.13184
 H452 H 0.62829 0.55202 0.13057
 H453 H 0.55404 0.63098 0.13284
 H454 H 0.55200 0.63128 0.05394
 H455 H 0.62626 0.55234 0.05169
 H456 H 0.62708 0.63124 0.05267
   
