data_POSCAR
  _audit_creation_date              2014-09-24
  _audit_creation_method            'ToBaCCo'
  _symmetry_space_group_name_H-M    'P1'
  _symmetry_Int_Tables_number       1
  _symmetry_cell_setting            triclinic
  loop_
  _symmetry_equiv_pos_as_xyz
 x,y,z
_cell_length_a 46.5018
_cell_length_b 45.7942
_cell_length_c 48.0252
_cell_angle_alpha 90.024700
_cell_angle_beta 89.999600
_cell_angle_gamma 90.024400
loop_
  _atom_site_label
  _atom_site_type_symbol
  _atom_site_fract_x
  _atom_site_fract_y
  _atom_site_fract_z
O1 O 0.30860 0.35625 0.02516
 O2 O 0.34988 0.32034 -0.02987
 O3 O 0.30735 0.35739 -0.02828
 O4 O 0.35021 0.31876 0.02420
 O5 O 0.31900 0.28231 0.02406
 O6 O 0.27588 0.32117 -0.02893
 O7 O 0.31886 0.28374 -0.03052
 O8 O 0.27692 0.32019 0.02493
 Cu9 Cu 0.33226 0.34172 -0.00225
 Cu10 Cu 0.29459 0.29801 -0.00274
 C11 C 0.28563 0.34468 0.03404
 C12 C 0.34159 0.29597 -0.03940
 C13 C 0.28405 0.34624 -0.03697
 C14 C 0.34184 0.29414 0.03314
 O15 O 0.69931 0.65024 0.02622
 O16 O 0.66169 0.69139 -0.02824
 O17 O 0.70114 0.65064 -0.02727
 O18 O 0.65920 0.69022 0.02531
 O19 O 0.69248 0.72467 0.02723
 O20 O 0.73501 0.68449 -0.02568
 O21 O 0.69511 0.72571 -0.02671
 O22 O 0.73303 0.68425 0.02819
 Cu23 Cu 0.67698 0.66724 -0.00119
 Cu24 Cu 0.71730 0.70827 0.00091
 C25 C 0.72283 0.65986 0.03593
 C26 C 0.67158 0.71579 -0.03620
 C27 C 0.72545 0.66032 -0.03483
 C28 C 0.66831 0.71437 0.03473
 O29 O 0.68652 0.35120 0.97491
 O30 O 0.64501 0.31020 1.02690
 O31 O 0.68373 0.35124 1.02882
 O32 O 0.64716 0.31055 0.97346
 O33 O 0.68084 0.27649 0.97474
 O34 O 0.71798 0.31781 1.03048
 O35 O 0.67891 0.27637 1.02853
 O36 O 0.72063 0.31760 0.97610
 Cu37 Cu 0.66230 0.33424 1.00085
 Cu38 Cu 0.70316 0.29374 1.00255
 C39 C 0.71071 0.34155 0.96692
 C40 C 0.65458 0.28613 1.03608
 C41 C 0.70705 0.34163 1.03894
 C42 C 0.65726 0.28633 0.96528
 O43 O 0.31529 0.64448 0.97011
 O44 O 0.35645 0.67814 1.02675
 O45 O 0.31234 0.64309 1.02372
 O46 O 0.35856 0.68045 0.97294
 O47 O 0.32881 0.71811 0.97267
 O48 O 0.28246 0.68064 1.02386
 O49 O 0.32695 0.71600 1.02686
 O50 O 0.28514 0.68183 0.96991
 Cu51 Cu 0.33867 0.65781 0.99841
 Cu52 Cu 0.30286 0.70301 0.99832
 C53 C 0.29303 0.65707 0.96077
 C54 C 0.34898 0.70284 1.03618
 C55 C 0.28939 0.65525 1.03202
 C56 C 0.35166 0.70569 0.96442
 O57 O 0.03388 0.31810 0.35627
 O58 O -0.02358 0.35301 0.31600
 O59 O -0.02184 0.31679 0.35738
 O60 O 0.03167 0.35471 0.31475
 O61 O 0.03207 0.31809 0.28472
 O62 O -0.02188 0.27966 0.32792
 O63 O -0.02363 0.31625 0.28609
 O64 O 0.03440 0.28104 0.32676
 Cu65 Cu 0.00510 0.33928 0.33913
 Cu66 Cu 0.00539 0.29490 0.30344
 C67 C 0.04369 0.29359 0.34856
 C68 C -0.03312 0.34084 0.29416
 C69 C -0.03098 0.29192 0.34995
 C70 C 0.04039 0.34329 0.29226
 O71 O 0.02223 0.69247 0.65028
 O72 O -0.03482 0.64957 0.68329
 O73 O -0.03288 0.69154 0.64686
 O74 O 0.02045 0.65191 0.68863
 O75 O 0.01699 0.68522 0.72180
 O76 O -0.03689 0.72490 0.67996
 O77 O -0.03880 0.68256 0.71671
 O78 O 0.01856 0.72629 0.68297
 Cu79 Cu -0.00580 0.66800 0.66402
 Cu80 Cu -0.01030 0.70804 0.70383
 C81 C 0.02941 0.71697 0.66036
 C82 C -0.04632 0.65854 0.70561
 C83 C -0.04350 0.71516 0.65607
 C84 C 0.02736 0.66154 0.71247
 O85 O 1.02962 0.64002 0.32294
 O86 O 0.97107 0.67698 0.35998
 O87 O 0.97368 0.63743 0.32134
 O88 O 1.02634 0.67874 0.36232
 O89 O 1.02637 0.71384 0.33070
 O90 O 0.97325 0.67207 0.28928
 O91 O 0.97077 0.71194 0.32821
 O92 O 1.02967 0.67473 0.29095
 Cu93 Cu 1.00020 0.65467 0.34471
 Cu94 Cu 1.00004 0.69657 0.30640
 C95 C 1.03963 0.65111 0.30079
 C96 C 0.96137 0.70093 0.35067
 C97 C 0.96438 0.64771 0.29857
 C98 C 1.03489 0.70345 0.35379
 O99 O 0.97471 0.30796 0.64515
 O100 O 1.02935 0.35020 0.68278
 O101 O 1.03002 0.31015 0.64431
 O102 O 0.97383 0.34864 0.68341
 O103 O 0.97511 0.31480 0.71621
 O104 O 1.03183 0.27580 0.67660
 O105 O 1.03108 0.31628 0.71550
 O106 O 0.97608 0.27367 0.67753
 Cu107 Cu 1.00176 0.33265 0.66069
 Cu108 Cu 1.00363 0.29170 0.69980
 C109 C 0.96667 0.28341 0.65453
 C110 C 1.03918 0.34064 0.70564
 C111 C 1.04014 0.28633 0.65349
 C112 C 0.96529 0.33865 0.70659
 O113 O 0.35046 0.02041 0.30950
 O114 O 0.31406 -0.03580 0.35103
 O115 O 0.35177 -0.03570 0.31043
 O116 O 0.31365 0.02043 0.35044
 O117 O 0.27777 0.01970 0.32023
 O118 O 0.31652 -0.03681 0.27955
 O119 O 0.27833 -0.03702 0.32067
 O120 O 0.31499 0.01970 0.27883
 Cu121 Cu 0.33600 -0.00765 0.33340
 Cu122 Cu 0.29326 -0.00882 0.29675
 C123 C 0.33925 0.02915 0.28692
 C124 C 0.28973 -0.04535 0.34333
 C125 C 0.34116 -0.04508 0.28783
 C126 C 0.28918 0.02926 0.34249
 O127 O 0.63515 0.03084 0.67600
 O128 O 0.67525 -0.02380 0.63596
 O129 O 0.63742 -0.02586 0.67569
 O130 O 0.67242 0.03252 0.63596
 O131 O 0.70763 0.03432 0.66688
 O132 O 0.67227 -0.02454 0.70699
 O133 O 0.71043 -0.02239 0.66693
 O134 O 0.67003 0.03262 0.70725
 Cu135 Cu 0.65148 0.00322 0.65285
 Cu136 Cu 0.69361 0.00512 0.69025
 C137 C 0.64576 0.04106 0.69827
 C138 C 0.69974 -0.03206 0.64443
 C139 C 0.64878 -0.03508 0.69799
 C140 C 0.69598 0.04316 0.64450
 O141 O 0.32172 1.02232 0.64643
 O142 O 0.35842 0.96751 0.68918
 O143 O 0.32327 0.96564 0.64701
 O144 O 0.35654 1.02348 0.68890
 O145 O 0.31970 1.02282 0.71804
 O146 O 0.28617 0.96452 0.67580
 O147 O 0.32170 0.96647 0.71844
 O148 O 0.28454 1.02171 0.67512
 Cu149 Cu 0.34358 0.99483 0.66488
 Cu150 Cu 0.29913 0.99377 0.69964
 C151 C 0.29696 1.03125 0.65338
 C152 C 0.34674 0.95827 0.71133
 C153 C 0.29908 0.95536 0.65420
 C154 C 0.34421 1.03241 0.71086
 O155 O 0.64542 0.97347 0.31506
 O156 O 0.68327 1.03133 0.35291
 O157 O 0.64235 1.03004 0.31615
 O158 O 0.68708 0.97539 0.35127
 O159 O 0.71930 0.97808 0.31749
 O160 O 0.67422 1.03316 0.28210
 O161 O 0.71560 1.03448 0.31927
 O162 O 0.67718 0.97607 0.28089
 Cu163 Cu 0.66125 1.00221 0.33716
 Cu164 Cu 0.69974 1.00570 0.29637
 C165 C 0.65465 0.96507 0.29157
 C166 C 0.70600 1.04237 0.34287
 C167 C 0.65063 1.04084 0.29321
 C168 C 0.71099 0.96799 0.34074
 C169 C 0.88193 0.77742 0.50105
 C170 C 0.86960 0.78378 0.47525
 C171 C 0.84624 0.80303 0.47385
 C172 C 0.83664 0.81818 0.49782
 C173 C 0.84990 0.81153 0.52361
 C174 C 0.87204 0.79087 0.52531
 C175 C 0.81459 0.84214 0.49566
 C176 C 0.80009 0.85262 0.51958
 C177 C 0.78255 0.87747 0.51823
 C178 C 0.77734 0.89059 0.49246
 C179 C 0.79013 0.87987 0.46822
 C180 C 0.80908 0.85617 0.46992
 H181 H 0.89941 0.76179 0.50222
 H182 H 0.83651 0.80662 0.45373
 H183 H 0.84425 0.82297 0.54248
 H184 H 0.80279 0.84229 0.53960
 H185 H 0.76289 0.90913 0.49125
 H186 H 0.82003 0.84980 0.45107
 C187 C 0.12616 0.22731 0.50117
 C188 C 0.13793 0.21826 0.47580
 C189 C 0.15836 0.19572 0.47561
 C190 C 0.16605 0.18081 0.50036
 C191 C 0.15264 0.18969 0.52549
 C192 C 0.13365 0.21351 0.52611
 C193 C 0.18834 0.15679 0.50000
 C194 C 0.20240 0.14792 0.52477
 C195 C 0.22353 0.12604 0.52448
 C196 C 0.23192 0.11384 0.49905
 C197 C 0.21890 0.12242 0.47411
 C198 C 0.19648 0.14293 0.47480
 H199 H 0.11032 0.24467 0.50147
 H200 H 0.16836 0.19061 0.45594
 H201 H 0.15690 0.17864 0.54489
 H202 H 0.19780 0.15818 0.54450
 H203 H 0.24823 0.09694 0.49867
 H204 H 0.18599 0.14804 0.45538
 C205 C 0.10743 0.78160 0.50674
 C206 C 0.11857 0.79339 0.53136
 C207 C 0.14329 0.81089 0.53014
 C208 C 0.15794 0.81563 0.50470
 C209 C 0.14677 0.80238 0.48038
 C210 C 0.12108 0.78627 0.48115
 C211 C 0.18410 0.83497 0.50346
 C212 C 0.19243 0.84873 0.47834
 C213 C 0.21615 0.86767 0.47743
 C214 C 0.23126 0.87370 0.50197
 C215 C 0.22327 0.86086 0.52725
 C216 C 0.20038 0.84090 0.52769
 H217 H 0.08834 0.76802 0.50756
 H218 H 0.15033 0.82120 0.54919
 H219 H 0.15754 0.80473 0.46058
 H220 H 0.18006 0.84591 0.45949
 H221 H 0.24899 0.88906 0.50148
 H222 H 0.19554 0.83023 0.54718
 C223 C 0.88765 0.22133 0.50045
 C224 C 0.87777 0.20776 0.52471
 C225 C 0.85384 0.18917 0.52330
 C226 C 0.83878 0.18492 0.49800
 C227 C 0.84898 0.19948 0.47398
 C228 C 0.87359 0.21716 0.47501
 C229 C 0.81260 0.16566 0.49673
 C230 C 0.80318 0.15345 0.47123
 C231 C 0.77815 0.13637 0.46991
 C232 C 0.76339 0.12970 0.49450
 C233 C 0.77288 0.14039 0.52021
 C234 C 0.79675 0.15909 0.52106
 H235 H 0.90639 0.23538 0.50141
 H236 H 0.84763 0.17784 0.54208
 H237 H 0.83769 0.19790 0.45438
 H238 H 0.81501 0.15700 0.45218
 H239 H 0.74513 0.11502 0.49368
 H240 H 0.80252 0.16845 0.54093
 C241 C 0.50327 0.87745 0.77436
 C242 C 0.47855 0.87074 0.78961
 C243 C 0.48033 0.85092 0.81178
 C244 C 0.50666 0.83708 0.81855
 C245 C 0.53116 0.84394 0.80232
 C246 C 0.52967 0.86449 0.78073
 C247 C 0.50877 0.81659 0.84296
 C248 C 0.53545 0.81128 0.85622
 C249 C 0.53731 0.79294 0.87952
 C250 C 0.51223 0.78066 0.89050
 C251 C 0.48547 0.78578 0.87815
 C252 C 0.48398 0.80281 0.85391
 H253 H 0.50202 0.89337 0.75770
 H254 H 0.46121 0.84745 0.82411
 H255 H 0.55159 0.83344 0.80606
 H256 H 0.55494 0.82184 0.84927
 H257 H 0.51360 0.76648 0.90852
 H258 H 0.46324 0.80552 0.84414
 C259 C 0.49282 0.11665 0.22305
 C260 C 0.46738 0.12324 0.20885
 C261 C 0.46775 0.14441 0.18774
 C262 C 0.49335 0.15958 0.18105
 C263 C 0.51855 0.15286 0.19623
 C264 C 0.51851 0.13111 0.21678
 C265 C 0.49399 0.18180 0.15807
 C266 C 0.51993 0.18825 0.14392
 C267 C 0.52070 0.20902 0.12250
 C268 C 0.49528 0.22300 0.11454
 C269 C 0.46921 0.21675 0.12779
 C270 C 0.46870 0.19653 0.14972
 H271 H 0.49265 0.09985 0.23895
 H272 H 0.44815 0.14812 0.17617
 H273 H 0.53837 0.16458 0.19253
 H274 H 0.53958 0.17673 0.14878
 H275 H 0.49575 0.23876 0.09771
 H276 H 0.44853 0.19288 0.16036
 C277 C 0.49544 0.12103 0.77447
 C278 C 0.52127 0.13538 0.78039
 C279 C 0.52186 0.15693 0.80112
 C280 C 0.49690 0.16374 0.81660
 C281 C 0.47114 0.14866 0.81033
 C282 C 0.47034 0.12758 0.78920
 C283 C 0.49783 0.18598 0.83948
 C284 C 0.47270 0.20105 0.84756
 C285 C 0.47310 0.22090 0.86978
 C286 C 0.49908 0.22666 0.88344
 C287 C 0.52447 0.21249 0.87553
 C288 C 0.52369 0.19197 0.85385
 H289 H 0.49491 0.10433 0.75847
 H290 H 0.54182 0.16845 0.80471
 H291 H 0.45177 0.15238 0.82226
 H292 H 0.45268 0.19783 0.83652
 H293 H 0.49952 0.24210 0.90054
 H294 H 0.54323 0.18023 0.84898
 C295 C 0.50166 0.87954 0.22233
 C296 C 0.52805 0.86696 0.21514
 C297 C 0.52889 0.84525 0.19452
 C298 C 0.50368 0.83668 0.18017
 C299 C 0.47740 0.85022 0.18764
 C300 C 0.47624 0.87123 0.20889
 C301 C 0.50484 0.81410 0.15738
 C302 C 0.47987 0.79854 0.14942
 C303 C 0.48046 0.77839 0.12742
 C304 C 0.50654 0.77264 0.11394
 C305 C 0.53181 0.78714 0.12169
 C306 C 0.53078 0.80810 0.14301
 H307 H 0.50090 0.89615 0.23840
 H308 H 0.54932 0.83497 0.19025
 H309 H 0.45772 0.84535 0.17663
 H310 H 0.45979 0.80152 0.16037
 H311 H 0.50714 0.75689 0.09710
 H312 H 0.55023 0.82009 0.14758
 C313 C 0.79118 0.49867 0.89307
 C314 C 0.79594 0.47193 0.87975
 C315 C 0.81127 0.47133 0.85455
 C316 C 0.82364 0.49707 0.84341
 C317 C 0.81899 0.52364 0.85791
 C318 C 0.80214 0.52467 0.88211
 C319 C 0.84136 0.49635 0.81707
 C320 C 0.84641 0.52221 0.80173
 C321 C 0.86436 0.52237 0.77826
 C322 C 0.87555 0.49593 0.76847
 C323 C 0.87012 0.46966 0.78244
 C324 C 0.85390 0.47011 0.80716
 H325 H 0.77804 0.49931 0.91171
 H326 H 0.81349 0.45060 0.84406
 H327 H 0.82867 0.54381 0.85105
 H328 H 0.83655 0.54262 0.80762
 H329 H 0.88965 0.49589 0.75050
 H330 H 0.85133 0.44985 0.81836
 C331 C 0.21276 0.50304 0.10804
 C332 C 0.20710 0.47674 0.12172
 C333 C 0.19196 0.47706 0.14690
 C334 C 0.18033 0.50328 0.15759
 C335 C 0.18633 0.52960 0.14324
 C336 C 0.20302 0.52958 0.11890
 C337 C 0.16138 0.50287 0.18294
 C338 C 0.15661 0.52842 0.19883
 C339 C 0.13757 0.52830 0.22148
 C340 C 0.12412 0.50222 0.22923
 C341 C 0.12866 0.47654 0.21415
 C342 C 0.14684 0.47702 0.19092
 H343 H 0.22562 0.50286 0.08920
 H344 H 0.18905 0.45655 0.15764
 H345 H 0.17768 0.55022 0.15023
 H346 H 0.16747 0.54863 0.19394
 H347 H 0.10938 0.50206 0.24672
 H348 H 0.14847 0.45728 0.17872
 C349 C 0.78027 0.49716 0.11574
 C350 C 0.79450 0.52272 0.12378
 C351 C 0.81423 0.52174 0.14584
 C352 C 0.81910 0.49562 0.16085
 C353 C 0.80398 0.47024 0.15247
 C354 C 0.78503 0.47082 0.12973
 C355 C 0.83947 0.49494 0.18523
 C356 C 0.85147 0.46831 0.19468
 C357 C 0.86906 0.46747 0.21839
 C358 C 0.87643 0.49353 0.23176
 C359 C 0.86612 0.52036 0.22214
 C360 C 0.84709 0.52090 0.19948
 H361 H 0.76531 0.49779 0.09844
 H362 H 0.82594 0.54148 0.15062
 H363 H 0.80610 0.44996 0.16375
 H364 H 0.84731 0.44800 0.18397
 H365 H 0.89128 0.49296 0.24916
 H366 H 0.83818 0.54177 0.19357
 C367 C 0.21392 0.50290 0.88673
 C368 C 0.20735 0.52917 0.87342
 C369 C 0.18958 0.52897 0.84985
 C370 C 0.17621 0.50285 0.84072
 C371 C 0.18318 0.47661 0.85484
 C372 C 0.20239 0.47651 0.87735
 C373 C 0.15389 0.50321 0.81795
 C374 C 0.14551 0.47715 0.80425
 C375 C 0.12212 0.47685 0.78582
 C376 C 0.10844 0.50306 0.77905
 C377 C 0.11707 0.52940 0.79113
 C378 C 0.13930 0.52934 0.81086
 H379 H 0.22850 0.50303 0.90436
 H380 H 0.18585 0.54950 0.83941
 H381 H 0.17318 0.45612 0.84939
 H382 H 0.15630 0.45672 0.80822
 H383 H 0.09103 0.50294 0.76404
 H384 H 0.14406 0.54973 0.82116
 C385 C 0.23953 0.39939 0.08287
 C386 C 0.24413 0.40382 0.11139
 C387 C 0.23259 0.42848 0.12454
 C388 C 0.26858 0.36093 0.05338
 C389 C 0.21137 0.44372 0.08076
 C390 C 0.22267 0.41907 0.06777
 C391 C 0.25491 0.37721 0.06791
 C392 C 0.21677 0.44900 0.10909
 H393 H 0.25748 0.38889 0.12317
 H394 H 0.23709 0.43222 0.14638
 H395 H 0.19896 0.45909 0.06853
 H396 H 0.21920 0.41598 0.04564
 C397 C 0.76658 0.60036 0.08213
 C398 C 0.76949 0.60033 0.11116
 C399 C 0.78020 0.57554 0.12475
 C400 C 0.73897 0.64144 0.05433
 C401 C 0.78593 0.55128 0.08021
 C402 C 0.77544 0.57605 0.06670
 C403 C 0.75204 0.62376 0.06795
 C404 C 0.78774 0.55050 0.10940
 H405 H 0.76253 0.61896 0.12331
 H406 H 0.78118 0.57535 0.14728
 H407 H 0.79182 0.53237 0.06792
 H408 H 0.77323 0.57580 0.04424
 C409 C 0.75794 0.39738 0.91940
 C410 C 0.75463 0.40126 0.89062
 C411 C 0.76803 0.42485 0.87723
 C412 C 0.72765 0.35912 0.94838
 C413 C 0.78858 0.44010 0.92129
 C414 C 0.77538 0.41655 0.93453
 C415 C 0.74163 0.37565 0.93426
 C416 C 0.78456 0.44487 0.89264
 H417 H 0.74100 0.38668 0.87873
 H418 H 0.76447 0.42818 0.85518
 H419 H 0.80145 0.45505 0.93356
 H420 H 0.77804 0.41384 0.95680
 C421 C 0.24440 0.60488 0.91139
 C422 C 0.24816 0.60023 0.88275
 C423 C 0.23488 0.57632 0.86975
 C424 C 0.27564 0.64165 0.94098
 C425 C 0.21363 0.56235 0.91389
 C426 C 0.22659 0.58625 0.92671
 C427 C 0.26122 0.62614 0.92627
 C428 C 0.21821 0.55675 0.88549
 H429 H 0.26215 0.61435 0.87075
 H430 H 0.23875 0.57227 0.84785
 H431 H 0.20069 0.54764 0.92635
 H432 H 0.22369 0.58949 0.94889
 C433 C 0.09973 0.25636 0.40314
 C434 C 0.10939 0.27425 0.42485
 C435 C 0.12327 0.26204 0.44786
 C436 C 0.06481 0.27956 0.36576
 C437 C 0.11924 0.21404 0.42695
 C438 C 0.10522 0.22630 0.40395
 C439 C 0.08143 0.26858 0.38194
 C440 C 0.12763 0.23171 0.44951
 H441 H 0.10517 0.29751 0.42453
 H442 H 0.12976 0.27619 0.46482
 H443 H 0.12208 0.19059 0.42780
 H444 H 0.09762 0.21220 0.38739
 C445 C 0.07711 0.76491 0.60631
 C446 C 0.06086 0.77673 0.58452
 C447 C 0.07445 0.78742 0.56069
 C448 C 0.04837 0.73509 0.64431
 C449 C 0.12088 0.77607 0.58090
 C450 C 0.10719 0.76515 0.60473
 C451 C 0.06244 0.74935 0.62817
 C452 C 0.10456 0.78647 0.55831
 H453 H 0.03758 0.77650 0.58540
 H454 H 0.06141 0.79555 0.54370
 H455 H 0.14409 0.77488 0.57948
 H456 H 0.11998 0.75577 0.62132
 C457 C 0.91046 0.74576 0.40411
 C458 C 0.92647 0.76139 0.42371
 C459 C 0.91288 0.77431 0.44637
 C460 C 0.94092 0.71665 0.36711
 C461 C 0.86672 0.75709 0.42950
 C462 C 0.88049 0.74388 0.40677
 C463 C 0.92573 0.72995 0.38295
 C464 C 0.88298 0.77183 0.44979
 H465 H 0.94966 0.76291 0.42188
 H466 H 0.92578 0.78592 0.46156
 H467 H 0.84365 0.75491 0.43179
 H468 H 0.86794 0.73165 0.39176
 C469 C 0.91976 0.23608 0.59925
 C470 C 0.88968 0.23472 0.59832
 C471 C 0.87587 0.22367 0.57463
 C472 C 0.94817 0.26577 0.63756
 C473 C 0.92222 0.21435 0.55330
 C474 C 0.93594 0.22517 0.57699
 C475 C 0.93433 0.25165 0.62114
 C476 C 0.89206 0.21426 0.55157
 H477 H 0.87694 0.24334 0.61533
 H478 H 0.85260 0.22406 0.57366
 H479 H 0.93515 0.20702 0.53589
 H480 H 0.95922 0.22623 0.57743
 C481 C 0.39343 0.07809 0.23976
 C482 C 0.39230 0.10841 0.23592
 C483 C 0.41578 0.12312 0.22414
 C484 C 0.35563 0.04846 0.26955
 C485 C 0.44099 0.07708 0.21921
 C486 C 0.41753 0.06245 0.23073
 C487 C 0.37170 0.06293 0.25548
 C488 C 0.44066 0.10762 0.21650
 H489 H 0.37383 0.12075 0.24301
 H490 H 0.41517 0.14669 0.22242
 H491 H 0.45986 0.06467 0.21331
 H492 H 0.41870 0.03902 0.23366
 C493 C 0.59353 0.09810 0.73876
 C494 C 0.59498 0.10361 0.76741
 C495 C 0.57220 0.11780 0.78083
 C496 C 0.62945 0.06217 0.71356
 C497 C 0.54723 0.12213 0.73670
 C498 C 0.57002 0.10815 0.72334
 C499 C 0.61404 0.07918 0.72553
 C500 C 0.54771 0.12624 0.76568
 H501 H 0.61300 0.09571 0.77956
 H502 H 0.57289 0.12049 0.80323
 H503 H 0.52863 0.12860 0.72460
 H504 H 0.56864 0.10391 0.70118
 C505 C 0.40238 0.91233 0.75940
 C506 C 0.40234 0.88212 0.76406
 C507 C 0.42660 0.86858 0.77563
 C508 C 0.36339 0.93984 0.72929
 C509 C 0.45039 0.91559 0.77870
 C510 C 0.42617 0.92905 0.76742
 C511 C 0.37993 0.92626 0.74363
 C512 C 0.45114 0.88516 0.78221
 H513 H 0.38414 0.86893 0.75773
 H514 H 0.42684 0.84506 0.77800
 H515 H 0.46901 0.92880 0.78376
 H516 H 0.42650 0.95241 0.76382
 C517 C 0.60138 0.90721 0.25317
 C518 C 0.60156 0.90126 0.22455
 C519 C 0.57841 0.88646 0.21231
 C520 C 0.63831 0.94350 0.27674
 C521 C 0.55544 0.88259 0.25747
 C522 C 0.57861 0.89719 0.26965
 C523 C 0.62251 0.92631 0.26540
 C524 C 0.55472 0.87779 0.22857
 H525 H 0.61895 0.90912 0.21155
 H526 H 0.57824 0.88326 0.18997
 H527 H 0.53758 0.87593 0.27047
 H528 H 0.57816 0.90175 0.29179
 C529 C 0.39827 0.25928 0.90661
 C530 C 0.39779 0.22993 0.89846
 C531 C 0.42163 0.21773 0.88500
 C532 C 0.35923 0.28183 0.94021
 C533 C 0.44599 0.26451 0.88698
 C534 C 0.42214 0.27667 0.90027
 C535 C 0.37606 0.27103 0.92416
 C536 C 0.44626 0.23475 0.87987
 H537 H 0.37952 0.21622 0.90349
 H538 H 0.42142 0.19468 0.87995
 H539 H 0.46458 0.27814 0.88302
 H540 H 0.42279 0.29938 0.90659
 C541 C 0.61489 0.76321 0.91814
 C542 C 0.59295 0.77553 0.93427
 C543 C 0.56835 0.78673 0.92155
 C544 C 0.65433 0.73325 0.94548
 C545 C 0.58816 0.77497 0.87622
 C546 C 0.61277 0.76352 0.88904
 C547 C 0.63748 0.74740 0.93200
 C548 C 0.56536 0.78581 0.89246
 H549 H 0.59429 0.77529 0.95680
 H550 H 0.55116 0.79515 0.93448
 H551 H 0.58621 0.77383 0.85377
 H552 H 0.62950 0.75382 0.87637
 C553 C 0.40595 0.73911 0.09046
 C554 C 0.40522 0.76847 0.09859
 C555 C 0.42893 0.78093 0.11210
 C556 C 0.36689 0.71646 0.05678
 C557 C 0.45369 0.73441 0.11024
 C558 C 0.42998 0.72199 0.09688
 C559 C 0.38379 0.72715 0.07287
 C560 C 0.45372 0.76420 0.11733
 H561 H 0.38685 0.78199 0.09351
 H562 H 0.42849 0.80399 0.11711
 H563 H 0.47239 0.72096 0.11427
 H564 H 0.43085 0.69928 0.09059
 C565 C 0.59653 0.23971 0.08127
 C566 C 0.59652 0.23647 0.11028
 C567 C 0.57236 0.22484 0.12375
 C568 C 0.63645 0.26902 0.05389
 C569 C 0.54871 0.21885 0.07913
 C570 C 0.57284 0.23024 0.06574
 C571 C 0.61924 0.25518 0.06724
 C572 C 0.54793 0.21673 0.10830
 H573 H 0.61468 0.24389 0.12252
 H574 H 0.57216 0.22361 0.14627
 H575 H 0.53025 0.21251 0.06676
 H576 H 0.57258 0.23269 0.04329
 C577 C 0.26004 0.08632 0.59723
 C578 C 0.23062 0.09282 0.59648
 C579 C 0.21889 0.10722 0.57339
 C580 C 0.28269 0.05178 0.63551
 C581 C 0.26616 0.10949 0.55223
 C582 C 0.27783 0.09525 0.57532
 C583 C 0.27180 0.06812 0.61888
 C584 C 0.23645 0.11498 0.55070
 H585 H 0.21660 0.08584 0.61322
 H586 H 0.19590 0.11096 0.57263
 H587 H 0.28022 0.11549 0.53519
 H588 H 0.30061 0.09029 0.57563
 C589 C 0.74502 0.09668 0.39566
 C590 C 0.77463 0.09582 0.40107
 C591 C 0.78581 0.10990 0.42461
 C592 C 0.72060 0.06208 0.35853
 C593 C 0.73791 0.12637 0.43683
 C594 C 0.72684 0.11249 0.41329
 C595 C 0.73250 0.07850 0.37443
 C596 C 0.76738 0.12464 0.44310
 H597 H 0.78885 0.08333 0.38776
 H598 H 0.80856 0.10807 0.42910
 H599 H 0.72332 0.13783 0.45061
 H600 H 0.70388 0.11311 0.40946
 C601 C 0.74509 0.91864 0.58964
 C602 C 0.76071 0.93500 0.57029
 C603 C 0.77342 0.92133 0.54751
 C604 C 0.71608 0.94855 0.62722
 C605 C 0.75587 0.87446 0.56374
 C606 C 0.74293 0.88828 0.58658
 C607 C 0.72949 0.93386 0.61099
 C608 C 0.77069 0.89104 0.54371
 H609 H 0.76243 0.95850 0.57242
 H610 H 0.78509 0.93451 0.53257
 H611 H 0.75345 0.85109 0.56118
 H612 H 0.73069 0.87546 0.60137
 C613 C 0.24742 0.90870 0.40300
 C614 C 0.24262 0.92519 0.42708
 C615 C 0.23149 0.91200 0.45094
 C616 C 0.27411 0.93600 0.36198
 C617 C 0.22877 0.86575 0.42652
 C618 C 0.24011 0.87901 0.40259
 C619 C 0.26149 0.92245 0.37972
 C620 C 0.22498 0.88204 0.45110
 H621 H 0.24814 0.94817 0.42765
 H622 H 0.22842 0.92514 0.46946
 H623 H 0.22404 0.84260 0.42618
 H624 H 0.24382 0.86601 0.38408
 C625 C 0.08588 0.39953 0.74976
 C626 C 0.06855 0.41933 0.76421
 C627 C 0.08065 0.44394 0.77657
 C628 C 0.05818 0.35898 0.72136
 C629 C 0.12796 0.42864 0.76115
 C630 C 0.11570 0.40396 0.74852
 C631 C 0.07209 0.37645 0.73444
 C632 C 0.11036 0.44917 0.77470
 H633 H 0.04547 0.41619 0.76524
 H634 H 0.06671 0.45927 0.78721
 H635 H 0.15090 0.43229 0.75942
 H636 H 0.12928 0.38884 0.73721
 C637 C 0.10021 0.60176 0.26206
 C638 C 0.10425 0.60227 0.23318
 C639 C 0.11881 0.57937 0.22002
 C640 C 0.06212 0.63594 0.28645
 C641 C 0.12675 0.55638 0.26484
 C642 C 0.11235 0.57932 0.27794
 C643 C 0.08019 0.62141 0.27502
 C644 C 0.12911 0.55565 0.23568
 H645 H 0.09471 0.61941 0.22068
 H646 H 0.12010 0.57912 0.19750
 H647 H 0.13461 0.53838 0.27731
 H648 H 0.10922 0.57863 0.30029
 C649 C 0.90979 0.39187 0.25266
 C650 C 0.89299 0.40999 0.26954
 C651 C 0.87850 0.43373 0.25801
 C652 C 0.94571 0.35610 0.27808
 C653 C 0.89610 0.42046 0.21220
 C654 C 0.91084 0.39674 0.22385
 C655 C 0.92880 0.37123 0.26571
 C656 C 0.88058 0.43966 0.22938
 H657 H 0.89220 0.40659 0.29186
 H658 H 0.86651 0.44815 0.27160
 H659 H 0.89816 0.42477 0.19012
 H660 H 0.92406 0.38305 0.21064
 C661 C 0.89915 0.60000 0.74131
 C662 C 0.88909 0.57733 0.72432
 C663 C 0.87630 0.55267 0.73619
 C664 C 0.93281 0.64014 0.71889
 C665 C 0.88230 0.57387 0.78207
 C666 C 0.89516 0.59850 0.77016
 C667 C 0.91664 0.62274 0.72939
 C668 C 0.87347 0.55032 0.76526
 H669 H 0.89221 0.57817 0.70198
 H670 H 0.86945 0.53502 0.72271
 H671 H 0.88074 0.57255 0.80453
 H672 H 0.90315 0.61575 0.78354
 C673 C 0.77182 0.60292 0.92154
 C674 C 0.77246 0.60106 0.89244
 C675 C 0.78395 0.57625 0.87945
 C676 C 0.74209 0.64323 0.94857
 C677 C 0.79506 0.55562 0.92464
 C678 C 0.78376 0.58044 0.93754
 C679 C 0.75619 0.62592 0.93539
 C680 C 0.79458 0.55290 0.89549
 H681 H 0.76306 0.61819 0.87983
 H682 H 0.78307 0.57460 0.85697
 H683 H 0.80334 0.53810 0.93748
 H684 H 0.78329 0.58154 0.96008
 C685 C 0.23567 0.40076 0.91837
 C686 C 0.23406 0.40137 0.88924
 C687 C 0.22154 0.42533 0.87575
 C688 C 0.26697 0.36245 0.94613
 C689 C 0.21136 0.44749 0.92052
 C690 C 0.22365 0.42353 0.93393
 C691 C 0.25225 0.37883 0.93261
 C692 C 0.21090 0.44900 0.89131
 H693 H 0.24349 0.38396 0.87699
 H694 H 0.22161 0.42613 0.85321
 H695 H 0.20310 0.46535 0.93296
 H696 H 0.22485 0.42335 0.95647
 C697 C 0.23810 0.60401 0.07733
 C698 C 0.23849 0.60273 0.10647
 C699 C 0.22515 0.57945 0.12030
 C700 C 0.27140 0.63997 0.04884
 C701 C 0.20997 0.55950 0.07591
 C702 C 0.22311 0.58280 0.06217
 C703 C 0.25579 0.62462 0.06255
 C704 C 0.21165 0.55711 0.10503
 H705 H 0.25022 0.61891 0.11839
 H706 H 0.22695 0.57792 0.14274
 H707 H 0.19956 0.54263 0.06371
 H708 H 0.22276 0.58349 0.03962
 C709 C 0.74460 0.39636 0.09251
 C710 C 0.77354 0.39486 0.10049
 C711 C 0.78641 0.41850 0.11423
 C712 C 0.72080 0.35803 0.05838
 C713 C 0.74112 0.44465 0.11288
 C714 C 0.72830 0.42102 0.09935
 C715 C 0.73215 0.37447 0.07465
 C716 C 0.77049 0.44396 0.11976
 H717 H 0.78643 0.37598 0.09511
 H718 H 0.80913 0.41755 0.11912
 H719 H 0.72834 0.46392 0.11713
 H720 H 0.70593 0.42249 0.09319
 C721 C 0.91176 0.76038 0.60009
 C722 C 0.88174 0.76244 0.59868
 C723 C 0.86864 0.77406 0.57486
 C724 C 0.93926 0.73102 0.63910
 C725 C 0.91562 0.78240 0.55444
 C726 C 0.92862 0.77104 0.57822
 C727 C 0.92568 0.74482 0.62229
 C728 C 0.88552 0.78329 0.55223
 H729 H 0.86850 0.75408 0.61543
 H730 H 0.84539 0.77439 0.57349
 H731 H 0.92904 0.78961 0.53733
 H732 H 0.95186 0.76949 0.57908
 C733 C 0.91484 0.25540 0.40413
 C734 C 0.90486 0.22657 0.40273
 C735 C 0.89000 0.21447 0.42532
 C736 C 0.94968 0.27818 0.36654
 C737 C 0.89433 0.26031 0.45025
 C738 C 0.90899 0.27238 0.42768
 C739 C 0.93321 0.26715 0.38280
 C740 C 0.88530 0.23104 0.44957
 H741 H 0.90941 0.21320 0.38465
 H742 H 0.88344 0.19179 0.42440
 H743 H 0.89072 0.27361 0.46857
 H744 H 0.91664 0.29470 0.42899
 C745 C 0.09318 0.24721 0.59977
 C746 C 0.09403 0.21696 0.59526
 C747 C 0.10828 0.20565 0.57187
 C748 C 0.05929 0.27159 0.63739
 C749 C 0.12135 0.25476 0.55796
 C750 C 0.10734 0.26596 0.58132
 C751 C 0.07530 0.25964 0.62122
 C752 C 0.12144 0.22457 0.55264
 H753 H 0.08289 0.20225 0.60924
 H754 H 0.10791 0.18233 0.56815
 H755 H 0.13160 0.26977 0.54363
 H756 H 0.10669 0.28938 0.58446
 C757 C 0.08110 0.74890 0.40884
 C758 C 0.06489 0.76502 0.42795
 C759 C 0.07814 0.77776 0.45100
 C760 C 0.05230 0.71945 0.37059
 C761 C 0.12428 0.75920 0.43556
 C762 C 0.11090 0.74628 0.41247
 C763 C 0.06635 0.73316 0.38716
 C764 C 0.10787 0.77456 0.45534
 H765 H 0.04182 0.76711 0.42543
 H766 H 0.06506 0.78982 0.46571
 H767 H 0.14718 0.75629 0.43851
 H768 H 0.12362 0.73363 0.39793
 C769 C 0.60029 0.90468 0.73876
 C770 C 0.60183 0.89976 0.76751
 C771 C 0.57974 0.88456 0.78103
 C772 C 0.63405 0.94265 0.71337
 C773 C 0.55533 0.87802 0.73686
 C774 C 0.57745 0.89301 0.72339
 C775 C 0.61972 0.92471 0.72540
 C776 C 0.55579 0.87451 0.76592
 H777 H 0.61929 0.90890 0.77964
 H778 H 0.58042 0.88239 0.80348
 H779 H 0.53717 0.87034 0.72477
 H780 H 0.57597 0.89679 0.70116
 C781 C 0.39924 0.91019 0.24116
 C782 C 0.40016 0.88001 0.23632
 C783 C 0.42471 0.86735 0.22436
 C784 C 0.35879 0.93659 0.27056
 C785 C 0.44697 0.91511 0.22138
 C786 C 0.42246 0.92769 0.23308
 C787 C 0.37609 0.92342 0.25666
 C788 C 0.44864 0.88474 0.21750
 H789 H 0.38241 0.86621 0.24263
 H790 H 0.42557 0.84388 0.22174
 H791 H 0.46499 0.92901 0.21604
 H792 H 0.42206 0.95104 0.23676
 C793 C 0.59319 0.09540 0.25615
 C794 C 0.59386 0.10210 0.22771
 C795 C 0.57013 0.11548 0.21511
 C796 C 0.63226 0.06137 0.27941
 C797 C 0.54557 0.11652 0.25962
 C798 C 0.56930 0.10330 0.27218
 C799 C 0.61527 0.07759 0.26846
 C800 C 0.54542 0.12198 0.23082
 H801 H 0.61216 0.09587 0.21508
 H802 H 0.57045 0.11921 0.19284
 H803 H 0.52690 0.12155 0.27223
 H804 H 0.56851 0.09813 0.29418
 C805 C 0.39641 0.08219 0.75905
 C806 C 0.42027 0.06662 0.76874
 C807 C 0.44370 0.08139 0.78011
 C808 C 0.35960 0.05212 0.72862
 C809 C 0.41883 0.12745 0.77389
 C810 C 0.39539 0.11260 0.76221
 C811 C 0.37510 0.06684 0.74302
 C812 C 0.44353 0.11197 0.78206
 H813 H 0.42136 0.04312 0.76627
 H814 H 0.46249 0.06905 0.78637
 H815 H 0.41840 0.15107 0.77502
 H816 H 0.37711 0.12488 0.75458
 C817 C 0.60855 0.75852 0.08016
 C818 C 0.60863 0.76233 0.10911
 C819 C 0.58410 0.77314 0.12264
 C820 C 0.64971 0.73091 0.05269
 C821 C 0.55977 0.77711 0.07818
 C822 C 0.58426 0.76652 0.06474
 C823 C 0.63195 0.74404 0.06609
 C824 C 0.55917 0.77989 0.10732
 H825 H 0.62723 0.75605 0.12130
 H826 H 0.58411 0.77489 0.14513
 H827 H 0.54098 0.78243 0.06586
 H828 H 0.58389 0.76364 0.04234
 C829 C 0.39627 0.25586 0.08851
 C830 C 0.39560 0.22617 0.09551
 C831 C 0.41860 0.21367 0.11008
 C832 C 0.35912 0.27946 0.05351
 C833 C 0.44230 0.26081 0.11163
 C834 C 0.41930 0.27326 0.09725
 C835 C 0.37518 0.26815 0.06999
 C836 C 0.44257 0.23074 0.11745
 H837 H 0.37795 0.21248 0.08870
 H838 H 0.41846 0.19040 0.11411
 H839 H 0.46044 0.27443 0.11726
 H840 H 0.42008 0.29624 0.09191
 C841 C 0.60057 0.24061 0.91807
 C842 C 0.57645 0.23151 0.93318
 C843 C 0.55216 0.22106 0.91934
 C844 C 0.64020 0.26912 0.94656
 C845 C 0.57647 0.22724 0.87508
 C846 C 0.60079 0.23795 0.88900
 C847 C 0.62332 0.25550 0.93261
 C848 C 0.55166 0.21951 0.89014
 H849 H 0.57598 0.23358 0.95566
 H850 H 0.53341 0.21497 0.93141
 H851 H 0.57650 0.22640 0.85254
 H852 H 0.61924 0.24516 0.87708
 C853 C 0.41148 0.74849 0.91803
 C854 C 0.41429 0.74658 0.88903
 C855 C 0.43799 0.75936 0.87573
 C856 C 0.37101 0.72093 0.94629
 C857 C 0.45571 0.77625 0.92041
 C858 C 0.43207 0.76364 0.93358
 C859 C 0.38872 0.73359 0.93251
 C860 C 0.45918 0.77387 0.89141
 H861 H 0.39853 0.73476 0.87682
 H862 H 0.44025 0.75711 0.85339
 H863 H 0.47149 0.78768 0.93293
 H864 H 0.43013 0.76524 0.95602
 C865 C 0.76060 0.92098 0.39371
 C866 C 0.76142 0.89045 0.39527
 C867 C 0.77289 0.87682 0.41890
 C868 C 0.72950 0.94941 0.35667
 C869 C 0.78370 0.92425 0.43878
 C870 C 0.77250 0.93778 0.41515
 C871 C 0.74430 0.93550 0.37239
 C872 C 0.78320 0.89370 0.44123
 H873 H 0.75200 0.87725 0.37891
 H874 H 0.77211 0.85324 0.42047
 H875 H 0.79171 0.93767 0.45567
 H876 H 0.77181 0.96141 0.41424
 C877 C 0.26278 0.89832 0.59948
 C878 C 0.27985 0.88893 0.57721
 C879 C 0.26726 0.87506 0.55433
 C880 C 0.28579 0.93384 0.63671
 C881 C 0.22059 0.87852 0.57657
 C882 C 0.23323 0.89247 0.59943
 C883 C 0.27510 0.91690 0.62051
 C884 C 0.23737 0.87050 0.55342
 H885 H 0.30272 0.89344 0.57698
 H886 H 0.28072 0.86887 0.53690
 H887 H 0.19748 0.87559 0.57630
 H888 H 0.21977 0.89987 0.61644
 C889 C 0.25088 0.08240 0.39934
 C890 C 0.22113 0.08459 0.40361
 C891 C 0.21045 0.09855 0.42748
 C892 C 0.27392 0.04929 0.36012
 C893 C 0.25924 0.10856 0.44244
 C894 C 0.26982 0.09485 0.41861
 C895 C 0.26252 0.06498 0.37703
 C896 C 0.22949 0.11007 0.44743
 H897 H 0.20626 0.07478 0.38898
 H898 H 0.18744 0.09930 0.43091
 H899 H 0.27436 0.11758 0.45730
 H900 H 0.29286 0.09316 0.41565
 C901 C 0.73363 0.10109 0.59163
 C902 C 0.71641 0.11244 0.57033
 C903 C 0.72902 0.12682 0.54777
 C904 C 0.70991 0.06487 0.62776
 C905 C 0.77607 0.11990 0.56848
 C906 C 0.76341 0.10543 0.59100
 C907 C 0.72100 0.08208 0.61211
 C908 C 0.75907 0.12995 0.54622
 H909 H 0.69335 0.10909 0.57055
 H910 H 0.71540 0.13459 0.53105
 H911 H 0.79928 0.12170 0.56768
 H912 H 0.77696 0.09650 0.60725
 C913 C 0.90739 0.59433 0.25917
 C914 C 0.90378 0.59313 0.23024
 C915 C 0.88853 0.56998 0.21817
 C916 C 0.94365 0.63095 0.28324
 C917 C 0.87945 0.54994 0.26404
 C918 C 0.89453 0.57311 0.27604
 C919 C 0.92669 0.61518 0.27163
 C920 C 0.87703 0.54767 0.23495
 H921 H 0.91380 0.60933 0.21696
 H922 H 0.88722 0.56857 0.19569
 H923 H 0.87063 0.53314 0.27742
 H924 H 0.89722 0.57377 0.29845
 C925 C 0.91119 0.39389 0.74768
 C926 C 0.89468 0.41234 0.73086
 C927 C 0.88039 0.43624 0.74246
 C928 C 0.94513 0.35571 0.72245
 C929 C 0.89793 0.42278 0.78820
 C930 C 0.91241 0.39887 0.77647
 C931 C 0.92917 0.37212 0.73466
 C932 C 0.88238 0.44213 0.77114
 H933 H 0.89367 0.40886 0.70856
 H934 H 0.86834 0.45062 0.72889
 H935 H 0.90001 0.42694 0.81030
 H936 H 0.92536 0.38493 0.78969
 C937 C 0.07424 0.60508 0.75934
 C938 C 0.10425 0.60513 0.76199
 C939 C 0.11828 0.58111 0.77391
 C940 C 0.04574 0.64407 0.72969
 C941 C 0.07222 0.55755 0.78134
 C942 C 0.05828 0.58155 0.76965
 C943 C 0.05961 0.62734 0.74365
 C944 C 0.10238 0.55675 0.78292
 H945 H 0.11682 0.62315 0.75391
 H946 H 0.14155 0.58087 0.77475
 H947 H 0.05950 0.53914 0.78836
 H948 H 0.03507 0.58123 0.76765
 C949 C 0.08583 0.40052 0.24529
 C950 C 0.07029 0.42602 0.23981
 C951 C 0.08404 0.45035 0.22857
 C952 C 0.05848 0.36045 0.27452
 C953 C 0.12887 0.42338 0.22685
 C954 C 0.11506 0.39900 0.23835
 C955 C 0.07191 0.37748 0.26052
 C956 C 0.11359 0.44950 0.22259
 H957 H 0.04769 0.42746 0.24517
 H958 H 0.07177 0.47014 0.22520
 H959 H 0.15170 0.42232 0.22250
 H960 H 0.12733 0.37942 0.24270
   
