data_POSCAR
  _audit_creation_date              2014-09-24
  _audit_creation_method            'ToBaCCo'
  _symmetry_space_group_name_H-M    'P1'
  _symmetry_Int_Tables_number       1
  _symmetry_cell_setting            triclinic
  loop_
  _symmetry_equiv_pos_as_xyz
 x,y,z
_cell_length_a 43.8291
_cell_length_b 43.9976
_cell_length_c 29.1126
_cell_angle_alpha 89.785500
_cell_angle_beta 89.526200
_cell_angle_gamma 87.927800
loop_
  _atom_site_label
  _atom_site_type_symbol
  _atom_site_fract_x
  _atom_site_fract_y
  _atom_site_fract_z
C1 C 0.00043 0.25980 -0.00109
 C2 C -0.00012 0.25283 0.04468
 C3 C -0.02923 0.24624 0.06911
 C4 C 0.02844 0.25159 0.07220
 C5 C 0.02937 0.25805 -0.02790
 C6 C -0.02810 0.26632 -0.02740
 C7 C -0.03601 0.25937 0.11201
 C8 C -0.06396 0.25451 0.13393
 C9 C -0.08615 0.23686 0.11269
 C10 C -0.07873 0.22308 0.07029
 C11 C -0.05033 0.22690 0.04961
 C12 C 0.04856 0.27572 0.07070
 C13 C 0.07493 0.27490 0.09740
 C14 C 0.08170 0.24990 0.12638
 C15 C 0.06119 0.22614 0.12860
 C16 C 0.03487 0.22693 0.10172
 C17 C 0.04674 0.23065 -0.02971
 C18 C 0.07250 0.22801 -0.05811
 C19 C 0.08166 0.25281 -0.08460
 C20 C 0.06447 0.28041 -0.08236
 C21 C 0.03834 0.28288 -0.05450
 C22 C -0.03405 0.24951 -0.06701
 C23 C -0.06219 0.25289 -0.08903
 C24 C -0.08489 0.27355 -0.07219
 C25 C -0.07837 0.29119 -0.03361
 C26 C -0.05018 0.28785 -0.01168
 H27 H -0.01996 0.27409 0.12806
 H28 H -0.06838 0.26609 0.16610
 H29 H -0.09483 0.20894 0.05309
 H30 H -0.04514 0.21528 0.01762
 H31 H 0.04359 0.29545 0.04933
 H32 H 0.08950 0.29421 0.09596
 H33 H 0.01952 0.20821 0.10384
 H34 H 0.03980 0.21107 -0.01010
 H35 H 0.08521 0.20645 -0.05968
 H36 H 0.07052 0.29970 -0.10328
 H37 H 0.02492 0.30404 -0.05399
 H38 H -0.01744 0.23267 -0.07965
 H39 H -0.06637 0.23828 -0.11790
 H40 H -0.09539 0.30723 -0.01986
 H41 H -0.04593 0.30134 0.01850
 H42 H 0.06567 0.20679 0.15096
 C43 C 0.49189 0.75900 0.47449
 C44 C 0.49428 0.76192 0.52101
 C45 C 0.46685 0.76887 0.55008
 C46 C 0.52403 0.75764 0.54483
 C47 C 0.51917 0.75647 0.44377
 C48 C 0.46164 0.75784 0.45190
 C49 C 0.44761 0.79427 0.54062
 C50 C 0.42008 0.79875 0.56460
 C51 C 0.41134 0.77819 0.59889
 C52 C 0.43140 0.75344 0.60969
 C53 C 0.45897 0.74901 0.58568
 C54 C 0.53284 0.77883 0.57767
 C55 C 0.56128 0.77564 0.59886
 C56 C 0.58140 0.75117 0.58742
 C57 C 0.57232 0.72966 0.55539
 C58 C 0.54366 0.73249 0.53500
 C59 C 0.52168 0.73283 0.41164
 C60 C 0.54689 0.73031 0.38213
 C61 C 0.57017 0.75135 0.38399
 C62 C 0.56739 0.77544 0.41570
 C63 C 0.54206 0.77797 0.44522
 C64 C 0.43976 0.73747 0.46722
 C65 C 0.41113 0.73716 0.44665
 C66 C 0.40427 0.75635 0.40932
 C67 C 0.42642 0.77622 0.39320
 C68 C 0.45486 0.77693 0.41435
 H69 H 0.45349 0.81009 0.51365
 H70 H 0.40522 0.81802 0.55555
 H71 H 0.42562 0.73670 0.63524
 H72 H 0.47353 0.72928 0.59345
 H73 H 0.51801 0.79829 0.58603
 H74 H 0.56791 0.79287 0.62289
 H75 H 0.53699 0.71528 0.51095
 H76 H 0.50418 0.71613 0.40966
 H77 H 0.54828 0.71169 0.35786
 H78 H 0.58427 0.79269 0.41741
 H79 H 0.54018 0.79685 0.46897
 H80 H 0.44479 0.72194 0.49532
 H81 H 0.39440 0.72166 0.45956
 H82 H 0.42154 0.79175 0.36505
 H83 H 0.47145 0.79273 0.40191
 H84 H 0.58745 0.71058 0.54622
 C85 C 0.99465 0.72666 -0.02639
 C86 C 0.99819 0.72485 0.02005
 C87 C 1.02900 0.72370 0.04045
 C88 C 0.97199 0.72572 0.05283
 C89 C 0.96431 0.73234 -0.04782
 C90 C 1.02150 0.72371 -0.05785
 C91 C 1.04042 0.69688 0.06120
 C92 C 1.06981 0.69560 0.07953
 C93 C 1.08760 0.72146 0.07889
 C94 C 1.07596 0.74843 0.05852
 C95 C 1.04693 0.74944 0.03909
 C96 C 0.94797 0.70563 0.04882
 C97 C 0.92311 0.70741 0.07934
 C98 C 0.92196 0.72929 0.11463
 C99 C 0.94652 0.74861 0.11930
 C100 C 0.97123 0.74687 0.08880
 C101 C 0.94458 0.75623 -0.03281
 C102 C 0.91557 0.76037 -0.05184
 C103 C 0.90623 0.74151 -0.08738
 C104 C 0.92636 0.71827 -0.10355
 C105 C 0.95515 0.71377 -0.08391
 C106 C 1.02792 0.74723 -0.08866
 C107 C 1.05424 0.74554 -0.11621
 C108 C 1.07479 0.72008 -0.11345
 C109 C 1.06743 0.69611 -0.08363
 C110 C 1.04101 0.69778 -0.05652
 H111 H 1.02677 0.67685 0.06239
 H112 H 1.07850 0.67460 0.09490
 H113 H 1.08951 0.76851 0.05697
 H114 H 1.03833 0.77029 0.02314
 H115 H 0.94846 0.68864 0.02198
 H116 H 0.90519 0.69142 0.07532
 H117 H 0.98955 0.76249 0.09279
 H118 H 0.95148 0.77145 -0.00599
 H119 H 0.90043 0.77844 -0.03892
 H120 H 0.91956 0.70296 -0.13031
 H121 H 0.97006 0.69532 -0.09619
 H122 H 1.01296 0.76733 -0.09042
 H123 H 1.05842 0.76473 -0.13828
 H124 H 1.08237 0.67603 -0.08076
 H125 H 1.03602 0.67899 -0.03387
 H126 H 0.94641 0.76549 0.14631
 C127 C 0.49933 0.24006 0.49216
 C128 C 0.50235 0.24457 0.53832
 C129 C 0.53297 0.24656 0.55989
 C130 C 0.47540 0.24765 0.56947
 C131 C 0.46928 0.24320 0.46856
 C132 C 0.52648 0.23226 0.46306
 C133 C 0.54067 0.22825 0.59796
 C134 C 0.56976 0.22913 0.61727
 C135 C 0.59166 0.24848 0.59883
 C136 C 0.58374 0.26710 0.56125
 C137 C 0.55454 0.26654 0.54244
 C138 C 0.45263 0.22600 0.56942
 C139 C 0.42702 0.22954 0.59808
 C140 C 0.42385 0.25478 0.62757
 C141 C 0.44721 0.27575 0.62868
 C142 C 0.47272 0.27225 0.59990
 C143 C 0.44924 0.26830 0.47685
 C144 C 0.42099 0.27074 0.45495
 C145 C 0.41270 0.24882 0.42296
 C146 C 0.43298 0.22404 0.41384
 C147 C 0.46097 0.22128 0.43647
 C148 C 0.53403 0.25102 0.42594
 C149 C 0.56152 0.24600 0.40198
 C150 C 0.58174 0.22180 0.41449
 C151 C 0.57333 0.20225 0.45026
 C152 C 0.54585 0.20725 0.47407
 H153 H 0.52437 0.21272 0.61205
 H154 H 0.57529 0.21401 0.64563
 H155 H 0.60018 0.28222 0.54649
 H156 H 0.54890 0.28144 0.51383
 H157 H 0.45470 0.20636 0.54712
 H158 H 0.41011 0.21225 0.59743
 H159 H 0.49018 0.28904 0.60083
 H160 H 0.45543 0.28605 0.50030
 H161 H 0.40576 0.29007 0.46241
 H162 H 0.42698 0.20646 0.38998
 H163 H 0.47603 0.20178 0.42931
 H164 H 0.51935 0.27044 0.41700
 H165 H 0.56731 0.26199 0.37530
 H166 H 0.58843 0.18346 0.46059
 H167 H 0.54018 0.19226 0.50224
 H168 H 0.44552 0.29517 0.65145
 C169 C 0.74818 -0.00419 -0.01862
 C170 C 0.75106 -0.00368 0.02811
 C171 C 0.75186 -0.03190 0.05660
 C172 C 0.75389 0.02544 0.05313
 C173 C 0.74232 0.02444 -0.04525
 C174 C 0.75135 -0.03303 -0.04509
 C175 C 0.72957 -0.05381 0.05212
 C176 C 0.73059 -0.08013 0.07930
 C177 C 0.75383 -0.08492 0.11222
 C178 C 0.77567 -0.06247 0.11699
 C179 C 0.77471 -0.03638 0.08959
 C180 C 0.73458 0.03234 0.09063
 C181 C 0.73613 0.06028 0.11293
 C182 C 0.75713 0.08173 0.09804
 C183 C 0.77685 0.07451 0.06122
 C184 C 0.77564 0.04640 0.03946
 C185 C 0.76139 0.03179 -0.08225
 C186 C 0.75779 0.05985 -0.10474
 C187 C 0.73485 0.08132 -0.09055
 C188 C 0.71504 0.07313 -0.05462
 C189 C 0.71848 0.04496 -0.03266
 C190 C 0.77524 -0.05430 -0.03612
 C191 C 0.77683 -0.08215 -0.05886
 C192 C 0.75550 -0.08891 -0.09282
 C193 C 0.73248 -0.06679 -0.10354
 C194 C 0.73041 -0.03927 -0.07968
 H195 H 0.71129 -0.05047 0.02761
 H196 H 0.71284 -0.09615 0.07435
 H197 H 0.79381 -0.06514 0.14192
 H198 H 0.79204 -0.01971 0.09390
 H199 H 0.71773 0.01642 0.10178
 H200 H 0.72018 0.06545 0.14063
 H201 H 0.79127 0.04122 0.01133
 H202 H 0.77982 0.01620 -0.09271
 H203 H 0.77384 0.06460 -0.13190
 H204 H 0.69695 0.08875 -0.04293
 H205 H 0.70302 0.03948 -0.00486
 H206 H 0.79242 -0.04958 -0.01087
 H207 H 0.79502 -0.09842 -0.04999
 H208 H 0.71509 -0.07088 -0.12863
 H209 H 0.71193 -0.02312 -0.08748
 H210 H 0.79320 0.09071 0.04923
 C211 C 0.24532 0.50773 0.46077
 C212 C 0.24562 0.50633 0.50760
 C213 C 0.24760 0.47674 0.53210
 C214 C 0.24579 0.53384 0.53734
 C215 C 0.24862 0.53698 0.43571
 C216 C 0.24200 0.47971 0.43289
 C217 C 0.22478 0.46923 0.56375
 C218 C 0.22798 0.44287 0.59042
 C219 C 0.25438 0.42389 0.58629
 C220 C 0.27711 0.43142 0.55444
 C221 C 0.27365 0.45751 0.52722
 C222 C 0.22388 0.55776 0.53260
 C223 C 0.22379 0.58273 0.56238
 C224 C 0.24545 0.58399 0.59776
 C225 C 0.26707 0.55993 0.60252
 C226 C 0.26734 0.53524 0.57262
 C227 C 0.27198 0.55666 0.44684
 C228 C 0.27319 0.58530 0.42624
 C229 C 0.25187 0.59435 0.39279
 C230 C 0.22944 0.57406 0.37981
 C231 C 0.22785 0.54561 0.40115
 C232 C 0.26388 0.47153 0.39926
 C233 C 0.26206 0.44406 0.37539
 C234 C 0.23803 0.42439 0.38447
 C235 C 0.21572 0.43318 0.41718
 C236 C 0.21751 0.46063 0.44082
 H237 H 0.20477 0.48412 0.56836
 H238 H 0.21043 0.43810 0.61552
 H239 H 0.29775 0.41728 0.55106
 H240 H 0.29172 0.46332 0.50352
 H241 H 0.20657 0.55684 0.50637
 H242 H 0.20625 0.60046 0.55841
 H243 H 0.28440 0.51708 0.57716
 H244 H 0.28884 0.55016 0.47238
 H245 H 0.29074 0.60051 0.43662
 H246 H 0.21239 0.58059 0.35461
 H247 H 0.20977 0.53072 0.39180
 H248 H 0.28296 0.48593 0.39261
 H249 H 0.28007 0.43798 0.35119
 H250 H 0.19697 0.41856 0.42489
 H251 H 0.20005 0.46674 0.46602
 H252 H 0.28387 0.56022 0.62959
 C253 C 0.26782 1.00626 -0.04170
 C254 C 0.26844 1.00725 0.00528
 C255 C 0.26353 1.03634 0.03109
 C256 C 0.27370 0.97913 0.03295
 C257 C 0.26909 0.97707 -0.06785
 C258 C 0.26491 1.03444 -0.06992
 C259 C 0.28390 1.04407 0.06575
 C260 C 0.28094 1.07223 0.08789
 C261 C 0.25761 1.09359 0.07534
 C262 C 0.23667 1.08522 0.04170
 C263 C 0.23910 1.05670 0.02077
 C264 C 0.29909 0.95952 0.02449
 C265 C 0.30180 0.93142 0.04690
 C266 C 0.27959 0.92269 0.07887
 C267 C 0.25488 0.94304 0.08881
 C268 C 0.25212 0.97107 0.06623
 C269 C 0.24971 0.95329 -0.05696
 C270 C 0.25026 0.92670 -0.08324
 C271 C 0.26951 0.92373 -0.12226
 C272 C 0.28835 0.94793 -0.13346
 C273 C 0.28839 0.97404 -0.10639
 C274 C 0.24167 1.03728 -0.10256
 C275 C 0.23798 1.06379 -0.12858
 C276 C 0.25727 1.08830 -0.12245
 C277 C 0.28123 1.08499 -0.09039
 C278 C 0.28510 1.05820 -0.06478
 H279 H 0.30277 1.02865 0.07468
 H280 H 0.29801 1.07747 0.11293
 H281 H 0.21820 1.10078 0.03149
 H282 H 0.22233 1.05088 -0.00453
 H283 H 0.31623 0.96554 -0.00062
 H284 H 0.32102 0.91620 0.03860
 H285 H 0.23235 0.98589 0.07316
 H286 H 0.23364 0.95550 -0.02862
 H287 H 0.23446 0.90940 -0.07382
 H288 H 0.30330 0.94665 -0.16329
 H289 H 0.30330 0.99217 -0.11591
 H290 H 0.22601 1.01909 -0.10738
 H291 H 0.21950 1.06527 -0.15310
 H292 H 0.29734 1.10257 -0.08491
 H293 H 0.30370 1.05609 -0.04057
 H294 H 0.23687 0.93698 0.11235
 C295 C 0.74697 0.49407 0.48345
 C296 C 0.75045 0.49752 0.52971
 C297 C 0.74702 0.52777 0.55217
 C298 C 0.75780 0.47079 0.55962
 C299 C 0.74514 0.46341 0.46260
 C300 C 0.74538 0.52045 0.45135
 C301 C 0.76863 0.53672 0.58431
 C302 C 0.76627 0.56559 0.60414
 C303 C 0.74225 0.58602 0.59200
 C304 C 0.72035 0.57687 0.56063
 C305 C 0.72233 0.54779 0.54162
 C306 C 0.78315 0.45146 0.54971
 C307 C 0.78793 0.42439 0.57419
 C308 C 0.76784 0.41631 0.60962
 C309 C 0.74325 0.43649 0.62105
 C310 C 0.73843 0.46358 0.59637
 C311 C 0.72433 0.44249 0.47956
 C312 C 0.72404 0.41312 0.46168
 C313 C 0.74380 0.40447 0.42556
 C314 C 0.76402 0.42571 0.40763
 C315 C 0.76461 0.45496 0.42599
 C316 C 0.72168 0.52311 0.41936
 C317 C 0.72017 0.54752 0.38857
 C318 C 0.74235 0.56977 0.38895
 C319 C 0.76654 0.56669 0.42044
 C320 C 0.76801 0.54224 0.45127
 H321 H 0.78777 0.52163 0.59318
 H322 H 0.78378 0.57227 0.62769
 H323 H 0.70161 0.59224 0.55095
 H324 H 0.70481 0.54109 0.51809
 H325 H 0.79863 0.45685 0.52189
 H326 H 0.80705 0.40935 0.56468
 H327 H 0.71876 0.47824 0.60451
 H328 H 0.70864 0.44877 0.50714
 H329 H 0.70829 0.39713 0.47599
 H330 H 0.78003 0.41953 0.38046
 H331 H 0.78081 0.47077 0.41244
 H332 H 0.70416 0.50638 0.41851
 H333 H 0.70146 0.54912 0.36449
 H334 H 0.78470 0.58264 0.42103
 H335 H 0.78697 0.54014 0.47484
 H336 H 0.72689 0.43096 0.64749
 O337 O 0.24210 0.27283 0.16590
 O338 O 0.31515 0.25858 0.22472
 O339 O 0.27880 0.22581 0.17640
 O340 O 0.27739 0.30552 0.21615
 O341 O 0.25072 0.29245 0.27729
 O342 O 0.25701 0.21213 0.24161
 O343 O 0.29054 0.24798 0.28900
 O344 O 0.21730 0.25698 0.22731
 Cu345 Cu 0.28083 0.26707 0.18955
 Cu346 Cu 0.25129 0.25110 0.26505
 C347 C 0.21733 0.26664 0.18606
 C348 C 0.31536 0.25137 0.26696
 C349 C 0.26852 0.20535 0.20267
 C350 C 0.26364 0.31259 0.25341
 O351 O 0.76882 0.72345 0.30672
 O352 O 0.75272 0.78960 0.23194
 O353 O 0.72776 0.76757 0.30618
 O354 O 0.79329 0.74506 0.23204
 O355 O 0.76321 0.71779 0.18936
 O356 O 0.69788 0.73984 0.26386
 O357 O 0.72236 0.76232 0.18972
 O358 O 0.73892 0.69583 0.26423
 Cu359 Cu 0.76366 0.75920 0.27343
 Cu360 Cu 0.72760 0.72618 0.22250
 C361 C 0.75647 0.69843 0.29844
 C362 C 0.73492 0.78726 0.19801
 C363 C 0.70169 0.75727 0.29788
 C364 C 0.78938 0.72774 0.19790
 O365 O 0.79739 0.23504 0.28581
 O366 O 0.71596 0.23107 0.31621
 O367 O 0.75647 0.19316 0.28103
 O368 O 0.75628 0.27263 0.32011
 O369 O 0.74607 0.28845 0.24961
 O370 O 0.74245 0.20916 0.21209
 O371 O 0.70333 0.24863 0.24753
 O372 O 0.78469 0.24789 0.21493
 Cu373 Cu 0.75781 0.23136 0.30782
 Cu374 Cu 0.74281 0.25023 0.22408
 C375 C 0.80492 0.24146 0.24481
 C376 C 0.69579 0.23956 0.28734
 C377 C 0.74941 0.18769 0.23975
 C378 C 0.75135 0.29406 0.29144
 O379 O 0.20123 0.76503 0.24039
 O380 O 0.27870 0.76596 0.28752
 O381 O 0.24285 0.80522 0.24553
 O382 O 0.23742 0.72563 0.28302
 O383 O 0.25632 0.70987 0.21632
 O384 O 0.26176 0.78962 0.17876
 O385 O 0.29793 0.75075 0.22073
 O386 O 0.22024 0.74866 0.17407
 Cu387 Cu 0.23807 0.76698 0.27081
 Cu388 Cu 0.26095 0.74816 0.19072
 C389 C 0.19755 0.75668 0.19920
 C390 C 0.30150 0.75855 0.26220
 C391 C 0.25326 0.81098 0.20578
 C392 C 0.24620 0.70422 0.25630
 O393 O 0.76214 0.28379 0.71304
 O394 O 0.76327 0.20328 0.74802
 O395 O 0.72316 0.24080 0.70957
 O396 O 0.80181 0.24671 0.75160
 O397 O 0.78387 0.26055 0.81977
 O398 O 0.70517 0.25317 0.77834
 O399 O 0.74547 0.21647 0.81655
 O400 O 0.74336 0.29715 0.78093
 Cu401 Cu 0.76435 0.24227 0.72372
 Cu402 Cu 0.74270 0.25815 0.80579
 C403 C 0.75241 0.30419 0.74085
 C404 C 0.75474 0.19614 0.78828
 C405 C 0.70076 0.24607 0.73676
 C406 C 0.80625 0.25474 0.79276
 O407 O 0.28730 0.73773 0.75360
 O408 O 0.20607 0.73561 0.78591
 O409 O 0.24127 0.70680 0.72662
 O410 O 0.25148 0.76718 0.81205
 O411 O 0.24198 0.80193 0.75860
 O412 O 0.22896 0.74149 0.67434
 O413 O 0.19499 0.77135 0.73464
 O414 O 0.27612 0.77164 0.69964
 Cu415 Cu 0.24770 0.73333 0.77476
 Cu416 Cu 0.23440 0.77506 0.71147
 C417 C 0.29554 0.75474 0.72081
 C418 C 0.18675 0.75346 0.76639
 C419 C 0.23328 0.71385 0.68596
 C420 C 0.24845 0.79485 0.79984
 O421 O 0.19863 0.25838 0.77214
 O422 O 0.26420 0.24132 0.69544
 O423 O 0.24231 0.21721 0.76964
 O424 O 0.21997 0.28263 0.69694
 O425 O 0.25018 0.31147 0.73697
 O426 O 0.26992 0.24669 0.81281
 O427 O 0.29300 0.26959 0.73870
 O428 O 0.22661 0.28922 0.81244
 Cu429 Cu 0.22833 0.24701 0.72931
 Cu430 Cu 0.26266 0.28229 0.77956
 C431 C 0.20146 0.27665 0.80539
 C432 C 0.28988 0.25230 0.70433
 C433 C 0.25977 0.22076 0.80366
 C434 C 0.23188 0.30803 0.70392
 O435 O 0.73805 0.70246 0.76665
 O436 O 0.73378 0.78240 0.80329
 O437 O 0.69558 0.74594 0.76589
 O438 O 0.77537 0.73955 0.80415
 O439 O 0.79105 0.75367 0.73525
 O440 O 0.71133 0.75944 0.69674
 O441 O 0.74832 0.79693 0.73399
 O442 O 0.75331 0.71691 0.69770
 Cu443 Cu 0.73404 0.74110 0.79189
 Cu444 Cu 0.75265 0.75824 0.70903
 C445 C 0.74634 0.69610 0.72583
 C446 C 0.74044 0.80323 0.77500
 C447 C 0.68990 0.75357 0.72465
 C448 C 0.79677 0.74568 0.77633
 C449 C 0.25512 0.12333 0.09333
 C450 C 0.26958 0.13289 0.13079
 C451 C 0.26714 0.16511 0.14461
 C452 C 0.27024 0.17327 0.18844
 H453 H 0.28258 0.11723 0.15239
 H454 H 0.26215 0.18231 0.11869
 H455 H 0.23990 0.13962 0.07610
 H456 H 0.27282 0.15595 0.21482
 C457 C 0.74046 0.61748 0.60940
 C458 C 0.74867 0.62481 0.65192
 C459 C 0.74714 0.65672 0.66673
 C460 C 0.74781 0.66416 0.71112
 H461 H 0.75601 0.60727 0.67606
 H462 H 0.74486 0.67442 0.64081
 H463 H 0.73107 0.63508 0.58687
 H464 H 0.74843 0.64650 0.73719
 C465 C 0.75635 0.88917 0.14085
 C466 C 0.73861 0.86496 0.13921
 C467 C 0.74404 0.83920 0.17103
 C468 C 0.72884 0.81351 0.16741
 H469 H 0.72054 0.86335 0.11444
 H470 H 0.76123 0.84109 0.19735
 H471 H 0.77451 0.88856 0.16603
 H472 H 0.71209 0.81135 0.14054
 C473 C 0.25984 0.39758 0.61715
 C474 C 0.23744 0.38065 0.63340
 C475 C 0.24427 0.35557 0.66561
 C476 C 0.22458 0.33357 0.67281
 H477 H 0.21410 0.38489 0.62240
 H478 H 0.26618 0.35463 0.68272
 H479 H 0.28329 0.39153 0.62596
 H480 H 0.20354 0.33337 0.65353
 C481 C 0.88553 0.23347 0.13023
 C482 C 0.87609 0.24137 0.17479
 C483 C 0.84533 0.24056 0.18693
 C484 C 0.83574 0.24130 0.23273
 H485 H 0.89248 0.24672 0.20088
 H486 H 0.82857 0.23803 0.16012
 H487 H 0.86876 0.22298 0.10869
 H488 H 0.85264 0.23973 0.25973
 C489 C 0.38042 0.78238 0.61982
 C490 C 0.37050 0.76711 0.65658
 C491 C 0.33842 0.77051 0.67198
 C492 C 0.32798 0.75405 0.70706
 H493 H 0.38556 0.75147 0.67505
 H494 H 0.32295 0.78577 0.65332
 H495 H 0.36468 0.79849 0.60329
 H496 H 0.34354 0.73872 0.72542
 C497 C 0.11844 0.71982 0.09873
 C498 C 0.12855 0.74201 0.12510
 C499 C 0.15948 0.74025 0.14419
 C500 C 0.16654 0.75698 0.18048
 H501 H 0.11364 0.76145 0.13346
 H502 H 0.17652 0.72491 0.12870
 H503 H 0.13247 0.69930 0.09347
 H504 H 0.14896 0.77089 0.19749
 C505 C 0.62324 0.24887 0.61651
 C506 C 0.63046 0.24303 0.66032
 C507 C 0.66236 0.24407 0.67573
 C508 C 0.66918 0.24414 0.72041
 H509 H 0.61277 0.23835 0.68530
 H510 H 0.68041 0.24554 0.65020
 H511 H 0.64109 0.25545 0.59285
 H512 H 0.65096 0.24395 0.74582
 C513 C 0.73146 0.11092 0.89080
 C514 C 0.74725 0.12163 0.85487
 C515 C 0.74359 0.15381 0.84082
 C516 C 0.75634 0.16386 0.80201
 H517 H 0.76309 0.10723 0.83547
 H518 H 0.73066 0.16951 0.86278
 H519 H 0.71487 0.12643 0.90705
 H520 H 0.76848 0.14791 0.77951
 C521 C 0.25238 0.62571 0.37452
 C522 C 0.24430 0.63319 0.33165
 C523 C 0.24478 0.66507 0.31626
 C524 C 0.24490 0.67240 0.27169
 H525 H 0.23801 0.61579 0.30760
 H526 H 0.24594 0.68281 0.34190
 H527 H 0.26071 0.64318 0.39691
 H528 H 0.24555 0.65462 0.24599
 C529 C 0.26973 0.89838 0.84822
 C530 C 0.25708 0.87176 0.85787
 C531 C 0.25646 0.84766 0.82289
 C532 C 0.25163 0.81880 0.83449
 H533 H 0.24743 0.86717 0.89138
 H534 H 0.25978 0.85370 0.78709
 H535 H 0.28148 0.90033 0.81542
 H536 H 0.24986 0.81253 0.87044
 C537 C 0.74374 0.37285 0.40881
 C538 C 0.75044 0.36525 0.36541
 C539 C 0.75033 0.33332 0.35089
 C540 C 0.75167 0.32586 0.30650
 H541 H 0.75538 0.38260 0.34020
 H542 H 0.74866 0.31572 0.37688
 H543 H 0.73687 0.35535 0.43271
 H544 H 0.75214 0.34355 0.28051
 C545 C 0.10790 0.24848 0.88358
 C546 C 0.12673 0.27062 0.87237
 C547 C 0.15222 0.26457 0.84008
 C548 C 0.17549 0.28327 0.83657
 H549 H 0.12387 0.29293 0.88780
 H550 H 0.15237 0.24394 0.81979
 H551 H 0.11254 0.22579 0.87018
 H552 H 0.17619 0.30305 0.85857
 C553 C 0.59634 0.74745 0.35159
 C554 C 0.62323 0.76055 0.35637
 C555 C 0.64830 0.75388 0.32347
 C556 C 0.67589 0.76535 0.32879
 H557 H 0.62737 0.77528 0.38514
 H558 H 0.64430 0.73871 0.29504
 H559 H 0.59368 0.73193 0.32314
 H560 H 0.67994 0.78034 0.35740
 C561 C 0.87486 0.74548 0.89489
 C562 C 0.86765 0.73999 0.85125
 C563 C 0.83577 0.74304 0.83612
 C564 C 0.82867 0.74343 0.79159
 H565 H 0.88527 0.73348 0.82649
 H566 H 0.81783 0.74517 0.86192
 H567 H 0.85723 0.75398 0.91837
 H568 H 0.84664 0.74271 0.76577
 C569 C 0.38256 0.25196 0.40055
 C570 C 0.37806 0.24367 0.35705
 C571 C 0.34785 0.24778 0.33557
 C572 C 0.34498 0.24683 0.28993
 H573 H 0.39703 0.23473 0.33647
 H574 H 0.32795 0.25242 0.35716
 H575 H 0.36392 0.26297 0.41964
 H576 H 0.36520 0.24375 0.26850
 C577 C 0.75736 0.88208 0.88698
 C578 C 0.74238 0.87407 0.84921
 C579 C 0.74418 0.84235 0.83356
 C580 C 0.73908 0.83508 0.78990
 H581 H 0.72933 0.89052 0.82900
 H582 H 0.75034 0.82463 0.85816
 H583 H 0.77246 0.86500 0.90273
 H584 H 0.73507 0.85279 0.76447
 C585 C 0.23627 0.39386 0.36315
 C586 C 0.25110 0.38511 0.32471
 C587 C 0.24927 0.35360 0.30787
 C588 C 0.26341 0.34447 0.26912
 H589 H 0.26476 0.40088 0.30561
 H590 H 0.23670 0.33745 0.32813
 H591 H 0.22183 0.37768 0.38015
 H592 H 0.27585 0.36069 0.24882
 C593 C 0.25159 0.11478 0.85119
 C594 C 0.26576 0.14109 0.85587
 C595 C 0.25718 0.16720 0.82636
 C596 C 0.26850 0.19461 0.83299
 H597 H 0.28299 0.14411 0.88160
 H598 H 0.24101 0.16396 0.79895
 H599 H 0.23370 0.11408 0.82567
 H600 H 0.28435 0.19802 0.86073
 C601 C 0.73953 0.59523 0.35543
 C602 C 0.75409 0.62133 0.35897
 C603 C 0.74891 0.64603 0.32527
 C604 C 0.76247 0.67257 0.32974
 H605 H 0.76912 0.62522 0.38747
 H606 H 0.73333 0.64269 0.29713
 H607 H 0.72374 0.59278 0.32729
 H608 H 0.77785 0.67582 0.35814
 C609 C 0.10286 0.71786 0.86247
 C610 C 0.11292 0.73816 0.83186
 C611 C 0.14420 0.73492 0.81301
 C612 C 0.15455 0.75427 0.78146
 H613 H 0.09898 0.75763 0.82120
 H614 H 0.15936 0.71708 0.82650
 H615 H 0.11788 0.69834 0.86998
 H616 H 0.13931 0.77186 0.76752
 C617 C 0.61275 0.21772 0.39424
 C618 C 0.62156 0.23006 0.35443
 C619 C 0.65380 0.22764 0.33992
 C620 C 0.66323 0.23951 0.30017
 H621 H 0.60542 0.24252 0.33290
 H622 H 0.67026 0.21679 0.36291
 H623 H 0.62940 0.20429 0.41374
 H624 H 0.64676 0.24997 0.27687
 C625 C 0.88385 0.27570 0.90842
 C626 C 0.87677 0.26606 0.86638
 C627 C 0.84480 0.26636 0.85088
 C628 C 0.83790 0.25674 0.80883
 H629 H 0.89442 0.25752 0.84312
 H630 H 0.82676 0.27377 0.87443
 H631 H 0.86577 0.28544 0.93003
 H632 H 0.85611 0.24958 0.78541
 C633 C 0.37355 0.75595 0.38903
 C634 C 0.36854 0.76069 0.34433
 C635 C 0.33744 0.76021 0.32602
 C636 C 0.33252 0.75898 0.28087
 H637 H 0.38745 0.76430 0.32096
 H638 H 0.31831 0.76042 0.34991
 H639 H 0.35462 0.75027 0.41132
 H640 H 0.35169 0.75750 0.25711
 C641 C 0.28167 0.89147 0.09820
 C642 C 0.26755 0.88316 0.13694
 C643 C 0.26819 0.85112 0.15180
 C644 C 0.25487 0.84295 0.19119
 H645 H 0.25510 0.89984 0.15773
 H646 H 0.27902 0.83399 0.12981
 H647 H 0.29525 0.87450 0.07940
 H648 H 0.24450 0.86024 0.21335
 C649 C 0.77201 0.38573 0.63078
 C650 C 0.75925 0.37724 0.67053
 C651 C 0.76262 0.34542 0.68627
 C652 C 0.75104 0.33637 0.72650
 H653 H 0.74602 0.39335 0.69126
 H654 H 0.77418 0.32895 0.66394
 H655 H 0.78618 0.36913 0.61216
 H656 H 0.73988 0.35288 0.74917
 C657 C 0.75768 0.11242 0.11812
 C658 C 0.75078 0.11829 0.16205
 C659 C 0.75061 0.14970 0.17888
 C660 C 0.74955 0.15607 0.22368
 H661 H 0.74560 0.10005 0.18566
 H662 H 0.75180 0.16801 0.15394
 H663 H 0.76476 0.13081 0.09600
 H664 H 0.74979 0.13785 0.24884
 C665 C 0.24567 0.60900 0.63173
 C666 C 0.23425 0.63718 0.62417
 C667 C 0.23683 0.66073 0.65973
 C668 C 0.22925 0.68993 0.65138
 H669 H 0.22407 0.64327 0.59150
 H670 H 0.24590 0.65413 0.69300
 H671 H 0.25709 0.60425 0.66402
 H672 H 0.22078 0.69664 0.61783
 C673 C 0.89601 0.73289 0.14750
 C674 C 0.86823 0.72213 0.14079
 C675 C 0.84328 0.72902 0.17384
 C676 C 0.81512 0.71935 0.16705
 H677 H 0.86326 0.70936 0.11024
 H678 H 0.84788 0.74287 0.20355
 H679 H 0.89959 0.74648 0.17787
 H680 H 0.81058 0.70547 0.13736
 C681 C 0.39702 0.25984 0.65823
 C682 C 0.36970 0.24826 0.65072
 C683 C 0.34382 0.25544 0.68183
 C684 C 0.31614 0.24484 0.67408
 H685 H 0.36594 0.23422 0.62099
 H686 H 0.34745 0.26983 0.71130
 H687 H 0.39951 0.27496 0.68721
 H688 H 0.31257 0.23043 0.64462
 C689 C 0.10936 0.24819 0.15552
 C690 C 0.13493 0.26262 0.14528
 C691 C 0.16230 0.25933 0.17428
 C692 C 0.18871 0.27066 0.16026
 H693 H 0.13632 0.27611 0.11421
 H694 H 0.16109 0.24688 0.20642
 H695 H 0.10915 0.23337 0.18536
 H696 H 0.18979 0.28225 0.12738
 C697 C 0.61259 0.74854 0.60609
 C698 C 0.61942 0.75676 0.64881
 C699 C 0.65118 0.75452 0.66460
 C700 C 0.65805 0.75559 0.70916
 H701 H 0.60160 0.76475 0.67232
 H702 H 0.66928 0.75147 0.63921
 H703 H 0.63041 0.73857 0.58422
 H704 H 0.63996 0.75703 0.73477
   
