data_POSCAR
  _audit_creation_date              2014-09-24
  _audit_creation_method            'ToBaCCo'
  _symmetry_space_group_name_H-M    'P1'
  _symmetry_Int_Tables_number       1
  _symmetry_cell_setting            triclinic
  loop_
  _symmetry_equiv_pos_as_xyz
 x,y,z
_cell_length_a 38.2602
_cell_length_b 38.1343
_cell_length_c 38.0850
_cell_angle_alpha 89.931800
_cell_angle_beta 89.985200
_cell_angle_gamma 89.965900
loop_
  _atom_site_label
  _atom_site_type_symbol
  _atom_site_fract_x
  _atom_site_fract_y
  _atom_site_fract_z
C1 C 0.19173 1.23147 0.18946
 N2 N 0.21957 1.21546 0.17413
 C3 C 0.23257 1.18515 0.18759
 N4 N 0.21739 1.17064 0.21637
 C5 C 0.18964 1.18647 0.23203
 N6 N 0.17697 1.21693 0.21851
 C7 C 0.81170 0.76594 0.19054
 N8 N 0.82553 0.78141 0.21951
 C9 C 0.81046 0.81049 0.23351
 N10 N 0.78134 0.82413 0.21828
 C11 C 0.76726 0.80882 0.18938
 N12 N 0.78255 0.77980 0.17556
 C13 C 0.81310 1.23367 -0.18575
 N14 N 0.78421 1.21880 -0.17135
 C15 C 0.76848 1.19110 -0.18721
 N16 N 0.78202 1.17805 -0.21747
 C17 C 0.81115 1.19252 -0.23191
 N18 N 0.82656 1.22037 -0.21593
 C19 C 0.18598 0.76853 -0.19088
 N20 N 0.21648 0.78184 -0.17838
 C21 C 0.23100 0.81067 -0.19344
 N22 N 0.21496 0.82614 -0.22124
 C23 C 0.18453 0.81299 -0.23406
 N24 N 0.17008 0.78429 -0.21865
 C25 C 0.55094 1.04748 -0.01288
 H26 H 0.54897 1.04911 0.01541
 C27 C 0.57503 1.06835 -0.03077
 H28 H 0.59144 1.08609 -0.01594
 C29 C 0.53255 1.02139 -0.06619
 H30 H 0.51651 1.00248 -0.07980
 C31 C 0.55655 1.04155 -0.08513
 H32 H 0.55829 1.03825 -0.11331
 N33 N 0.53011 1.02481 -0.03072
 C34 C 0.44826 1.00580 0.04664
 H35 H 0.44987 0.97753 0.04849
 C36 C 0.42384 1.02402 0.06684
 H37 H 0.40682 1.00947 0.08428
 C38 C 0.46791 1.05874 0.02069
 H39 H 0.48459 1.07207 0.00209
 C40 C 0.44360 1.07799 0.04015
 H41 H 0.44227 1.10614 0.03665
 Zn42 Zn 0.50020 0.99594 -0.00370
 N43 N 0.46987 1.02331 0.02437
 C44 C 0.53069 0.97139 0.06000
 N45 N 0.52944 0.96751 0.02452
 C46 C 0.55113 0.94488 0.00764
 C47 C 0.57493 0.92455 0.02655
 C48 C 0.55439 0.95184 0.07994
 C49 C 0.45043 0.98551 -0.05598
 C50 C 0.42688 0.96708 -0.07695
 C51 C 0.44611 0.91330 -0.04944
 C52 C 0.46960 0.93277 -0.02923
 N53 N 0.47137 0.96821 -0.03291
 H54 H 0.51397 0.99027 0.07285
 H55 H 0.55012 0.94290 -0.02068
 H56 H 0.59208 0.90687 0.01249
 H57 H 0.55523 0.95555 0.10811
 H58 H 0.45184 1.01379 -0.05780
 H59 H 0.41032 0.98148 -0.09495
 H60 H 0.44481 0.88516 -0.04586
 H61 H 0.48570 0.91960 -0.01000
 C62 C 0.42110 1.06061 0.06356
 C63 C 0.57826 1.06538 -0.06738
 C64 C 0.42426 0.93049 -0.07361
 C65 C 0.57700 0.92810 0.06319
 C66 C -0.00723 0.55147 1.05561
 H67 H 0.02093 0.55034 1.05798
 C68 C -0.02627 0.57516 1.07594
 H69 H -0.01248 0.59213 1.09400
 C70 C -0.05905 0.53141 1.02814
 H71 H -0.07162 0.51489 1.00890
 C72 C -0.07909 0.55505 1.04765
 H73 H -0.10708 0.55603 1.04354
 N74 N -0.02379 0.53000 1.03252
 C75 C 0.05696 0.45120 1.01501
 H76 H 0.05917 0.45290 0.98674
 C77 C 0.07776 0.42755 1.03361
 H78 H 0.09603 0.41120 1.01935
 C79 C 0.02937 0.46968 1.06754
 H80 H 0.00987 0.48553 1.08054
 C81 C 0.04936 0.44606 1.08715
 H82 H 0.04537 0.44442 1.11525
 Zn83 Zn 0.00454 0.50080 1.00420
 N84 N 0.03355 0.47186 1.03213
 C85 C 0.06671 0.53370 0.97925
 N86 N 0.03146 0.53094 0.97545
 C87 C 0.01373 0.55163 0.95246
 C88 C 0.03152 0.57585 0.93160
 C89 C 0.08553 0.55787 0.95914
 C90 C -0.04554 0.44879 0.99411
 C91 C -0.06566 0.42439 0.97581
 C92 C -0.03874 0.44404 0.92188
 C93 C -0.01937 0.46835 0.94121
 N94 N -0.02322 0.47037 0.97666
 H95 H 0.08020 0.51780 0.99842
 H96 H -0.01440 0.54942 0.95054
 H97 H 0.01680 0.59212 0.91358
 H98 H 0.11353 0.55987 0.96274
 H99 H -0.04753 0.45045 1.02240
 H100 H -0.08318 0.40742 0.99031
 H101 H -0.03514 0.44268 0.89371
 H102 H -0.00073 0.48498 0.92793
 C103 C 0.07387 0.42450 1.07015
 C104 C -0.06269 0.57739 1.07188
 C105 C -0.06225 0.42162 0.93920
 C106 C 0.06791 0.57939 0.93495
 C107 C 1.05826 -0.02026 0.53210
 H108 H 1.07135 -0.00133 0.51559
 C109 C 1.07761 -0.03967 0.55644
 H110 H 1.10560 -0.03579 0.55795
 C111 C 1.00580 -0.04712 0.55133
 H112 H 0.97766 -0.04934 0.54955
 C113 C 1.02414 -0.06731 0.57574
 H114 H 1.00983 -0.08511 0.59260
 N115 N 1.02302 -0.02443 0.52990
 C116 C 1.02018 0.06598 0.46661
 H117 H 1.00101 0.07943 0.48248
 C118 C 1.04021 0.08498 0.44251
 H119 H 1.03655 0.11307 0.44052
 C120 C 1.04707 0.01294 0.44871
 H121 H 1.04907 -0.01528 0.45090
 C122 C 1.06785 0.03091 0.42456
 H123 H 1.08589 0.01623 0.40832
 Zn124 Zn 0.99551 0.00347 0.49946
 N125 N 1.02407 0.03062 0.46935
 C126 C 0.98479 0.05589 0.54916
 N127 N 0.96770 0.03248 0.52848
 C128 C 0.93245 0.02835 0.53065
 C129 C 0.91296 0.04844 0.55428
 C130 C 0.96631 0.07678 0.57282
 C131 C 0.97191 -0.06023 0.46856
 C132 C 0.95258 -0.08027 0.44480
 C133 C 0.92412 -0.02727 0.42492
 C134 C 0.94427 -0.00823 0.44874
 N135 N 0.96737 -0.02488 0.47015
 H136 H 1.01293 0.05806 0.54747
 H137 H 0.91947 0.00884 0.51478
 H138 H 0.88499 0.04451 0.55590
 H139 H 0.98054 0.09507 0.58917
 H140 H 0.99116 -0.07286 0.48503
 H141 H 0.95682 -0.10832 0.44368
 H142 H 0.90605 -0.01341 0.40799
 H143 H 0.94178 0.02001 0.44999
 C144 C 1.06441 0.06742 0.42104
 C145 C 1.06053 -0.06355 0.57870
 C146 C 0.92836 -0.06377 0.42251
 C147 C 0.92993 0.07299 0.57584
 C148 C 0.14704 0.31791 1.14323
 N149 N 0.17538 0.30226 1.12859
 N150 N 0.19031 0.27467 1.14397
 C151 C 0.17736 0.26156 1.17450
 N152 N 0.14921 0.27747 1.18931
 N153 N 0.13436 0.30516 1.17399
 C154 C 0.12933 0.34694 1.12515
 N155 N 0.10210 0.36386 1.14048
 N156 N 0.08492 0.38897 1.12329
 C157 C 0.09416 0.39799 1.09003
 N158 N 0.12159 0.38116 1.07486
 N159 N 0.13887 0.35618 1.09209
 C160 C -0.13847 0.68238 1.14443
 N161 N -0.12493 0.69782 1.17350
 N162 N -0.14140 0.72454 1.18880
 C163 C -0.17192 0.73699 1.17548
 N164 N -0.18556 0.72136 1.14651
 N165 N -0.16918 0.69452 1.13132
 C166 C -0.11949 0.65402 1.12664
 N167 N -0.13408 0.63681 1.09913
 N168 N -0.11627 0.61206 1.08212
 C169 C -0.08311 0.60371 1.09181
 N170 N -0.06865 0.62088 1.11947
 N171 N -0.08651 0.64549 1.13660
 C172 C -0.13647 0.31635 0.86545
 N173 N -0.12571 0.30572 0.83320
 N174 N -0.14193 0.27955 0.81676
 C175 C -0.16958 0.26314 0.83192
 N176 N -0.18047 0.27391 0.86407
 N177 N -0.16417 0.29999 0.88057
 C178 C -0.11792 0.34440 0.88413
 N179 N -0.12620 0.35221 0.91787
 N180 N -0.10871 0.37691 0.93522
 C181 C -0.08234 0.39489 0.91949
 N182 N -0.07427 0.38719 0.88561
 N183 N -0.09167 0.36238 0.86828
 C184 C 0.13891 0.68528 0.85870
 N185 N 0.17056 0.69711 0.86960
 N186 N 0.18601 0.72388 0.85330
 C187 C 0.17045 0.73975 0.82542
 N188 N 0.13894 0.72764 0.81434
 N189 N 0.12344 0.70098 0.83072
 C190 C 0.12110 0.65684 0.87759
 N191 N 0.08776 0.64801 0.86929
 N192 N 0.07104 0.62318 0.88727
 C193 C 0.08701 0.60610 0.91418
 N194 N 0.12051 0.61479 0.92224
 N195 N 0.13720 0.63973 0.90435
 C196 C 1.14043 0.13912 0.31541
 N197 N 1.12941 0.17079 0.30342
 N198 N 1.14560 0.18636 0.27663
 C199 C 1.17350 0.17088 0.26089
 N200 N 1.18470 0.13935 0.27316
 N201 N 1.16843 0.12374 0.29985
 C202 C 1.12161 0.12114 0.34381
 N203 N 1.13000 0.08772 0.35272
 N204 N 1.11207 0.07083 0.37748
 C205 C 1.08512 0.08672 0.39442
 N206 N 1.07697 0.12030 0.38567
 N207 N 1.09481 0.13716 0.36079
 C208 C 1.13429 -0.13764 0.68435
 N209 N 1.11991 -0.16620 0.70000
 N210 N 1.13638 -0.18243 0.72621
 C211 C 1.16777 -0.17061 0.73790
 N212 N 1.18219 -0.14209 0.72213
 N213 N 1.16579 -0.12595 0.69581
 C214 C 1.11563 -0.11915 0.65617
 N215 N 1.13100 -0.09222 0.63869
 N216 N 1.11367 -0.07486 0.61379
 C217 C 1.08026 -0.08363 0.60550
 N218 N 1.06500 -0.11068 0.62298
 N219 N 1.08236 -0.12815 0.64776
 C220 C 0.85645 -0.13952 0.31706
 N221 N 0.82731 -0.12608 0.30179
 N222 N 0.81207 -0.14258 0.27505
 C223 C 0.82553 -0.17304 0.26242
 N224 N 0.85458 -0.18656 0.27787
 N225 N 0.86971 -0.17014 0.30473
 C226 C 0.87411 -0.12053 0.34550
 N227 N 0.90163 -0.13512 0.36263
 N228 N 0.91849 -0.11732 0.38749
 C229 C 0.90862 -0.08418 0.39605
 N230 N 0.88095 -0.06972 0.37897
 N231 N 0.86398 -0.08757 0.35424
 C232 C 0.85727 0.14699 0.68206
 N233 N 0.82650 0.13456 0.69472
 N234 N 0.81123 0.14967 0.72228
 C235 C 0.82610 0.17785 0.73815
 N236 N 0.85665 0.19055 0.72514
 N237 N 0.87198 0.17535 0.69768
 C238 C 0.87527 0.12902 0.65316
 N239 N 0.90824 0.13839 0.64398
 N240 N 0.92537 0.12091 0.61908
 C241 C 0.91019 0.09346 0.60228
 N242 N 0.87702 0.08438 0.61124
 N243 N 0.85992 0.10176 0.63626
 C244 C 0.31546 1.13405 0.13751
 N245 N 0.29880 1.11882 0.16506
 N246 N 0.27265 1.13527 0.18124
 C247 C 0.26208 1.16750 0.17038
 N248 N 0.27879 1.18277 0.14287
 N249 N 0.30504 1.16637 0.12677
 C250 C 0.34361 1.11545 0.11906
 N251 N 0.36183 1.13139 0.09296
 N252 N 0.38673 1.11414 0.07564
 C253 C 0.39429 1.08023 0.08363
 N254 N 0.37607 1.06440 0.10985
 N255 N 0.35128 1.08167 0.12727
 C256 C 0.68374 1.14138 -0.13892
 N257 N 0.70029 1.16847 -0.12290
 N258 N 0.72692 1.18466 -0.13855
 C259 C 0.73806 1.17429 -0.17076
 N260 N 0.72141 1.14731 -0.18686
 N261 N 0.69469 1.13118 -0.17126
 C262 C 0.65539 1.12261 -0.12095
 N263 N 0.63767 1.09653 -0.13740
 N264 N 0.61283 1.07870 -0.12057
 C265 C 0.60484 1.08613 -0.08661
 N266 N 0.62251 1.11237 -0.07030
 N267 N 0.64725 1.13029 -0.08715
 C268 C 0.31847 0.85774 -0.14768
 N269 N 0.30190 0.87318 -0.17517
 N270 N 0.27452 0.85777 -0.19025
 C271 C 0.26263 0.82641 -0.17833
 N272 N 0.27936 0.81083 -0.15100
 N273 N 0.30683 0.82619 -0.13600
 C274 C 0.34727 0.87579 -0.12975
 N275 N 0.36486 0.85997 -0.10314
 N276 N 0.38977 0.87710 -0.08574
 C277 C 0.39794 0.91076 -0.09415
 N278 N 0.38044 0.92641 -0.12097
 N279 N 0.35564 0.90926 -0.13846
 C280 C 0.68224 0.85559 0.13864
 N281 N 0.69875 0.82759 0.12417
 N282 N 0.72545 0.81232 0.14064
 C283 C 0.73672 0.82458 0.17211
 N284 N 0.72011 0.85248 0.18666
 N285 N 0.69330 0.86767 0.17026
 C286 C 0.65386 0.87337 0.11971
 N287 N 0.63585 0.90000 0.13492
 N288 N 0.61106 0.91701 0.11718
 C289 C 0.60341 0.90817 0.08349
 N290 N 0.62137 0.88137 0.06841
 N291 N 0.64605 0.86426 0.08618
   
