data_POSCAR
  _audit_creation_date              2014-09-24
  _audit_creation_method            'ToBaCCo'
  _symmetry_space_group_name_H-M    'P1'
  _symmetry_Int_Tables_number       1
  _symmetry_cell_setting            triclinic
  loop_
  _symmetry_equiv_pos_as_xyz
 x,y,z
_cell_length_a 33.7457
_cell_length_b 34.6885
_cell_length_c 31.6426
_cell_angle_alpha 99.738200
_cell_angle_beta 90.384600
_cell_angle_gamma 99.503700
loop_
  _atom_site_label
  _atom_site_type_symbol
  _atom_site_fract_x
  _atom_site_fract_y
  _atom_site_fract_z
C1 C 0.18739 0.51554 0.99696
 H2 H 0.19391 0.53049 0.96982
 C3 C 0.15584 0.52405 1.02316
 H4 H 0.13880 0.54623 1.01616
 C5 C 0.20046 0.46672 1.03680
 H6 H 0.21700 0.44337 1.04090
 C7 C 0.16950 0.47477 1.06439
 H8 H 0.16322 0.45764 1.08985
 N9 N 0.20823 0.48664 1.00348
 C10 C 0.31616 0.49779 0.92983
 H11 H 0.30945 0.47000 0.90763
 C12 C 0.35480 0.51980 0.93275
 H13 H 0.37751 0.50915 0.91200
 C14 C 0.29534 0.54357 0.98619
 H15 H 0.27252 0.55163 1.00820
 C16 C 0.33366 0.56686 0.98986
 H17 H 0.33981 0.59306 1.01445
 Zn18 Zn 0.24192 0.47047 0.95898
 N19 N 0.28771 0.50936 0.95706
 C20 C 0.22058 0.48079 0.87483
 N21 N 0.21006 0.46108 0.90785
 C22 C 0.17293 0.43907 0.90887
 C23 C 0.14366 0.43844 0.87733
 C24 C 0.19240 0.48026 0.84205
 C25 C 0.29159 0.43181 0.99925
 C26 C 0.31623 0.40380 1.00199
 C27 C 0.27820 0.36065 0.94216
 C28 C 0.25475 0.39002 0.93989
 N29 N 0.26249 0.42506 0.96771
 H30 H 0.24998 0.49877 0.87510
 H31 H 0.16525 0.42418 0.93585
 H32 H 0.11364 0.42238 0.87981
 H33 H 0.20055 0.49757 0.81701
 H34 H 0.29741 0.46021 1.02048
 H35 H 0.34047 0.41045 1.02606
 H36 H 0.27299 0.33349 0.91881
 H37 H 0.23200 0.38571 0.91453
 C38 C 0.36423 0.55421 0.96380
 C39 C 0.14573 0.50289 1.05685
 C40 C 0.31034 0.36822 0.97245
 C41 C 0.15298 0.46023 0.84415
 C42 C 0.82957 0.55232 -0.00154
 H43 H 0.83047 0.56837 0.03099
 C44 C 0.86394 0.55574 -0.02571
 H45 H 0.89108 0.57497 -0.01171
 C46 C 0.79361 0.50591 -0.05811
 H47 H 0.76655 0.48548 -0.06993
 C48 C 0.82731 0.50871 -0.08363
 H49 H 0.82561 0.49054 -0.11516
 N50 N 0.79557 0.52725 -0.01770
 C51 C 0.69762 0.55960 0.06107
 H52 H 0.68821 0.53195 0.07252
 C53 C 0.67323 0.58867 0.06666
 H54 H 0.64535 0.58350 0.08314
 C55 C 0.74410 0.59858 0.02290
 H56 H 0.77078 0.60152 0.00424
 C57 C 0.72092 0.62881 0.02847
 H58 H 0.73023 0.65506 0.01434
 Zn59 Zn 0.75477 0.51867 0.02184
 N60 N 0.73162 0.56450 0.03841
 C61 C 0.78111 0.52658 0.10913
 N62 N 0.78007 0.50474 0.06903
 C63 C 0.80316 0.47607 0.05928
 C64 C 0.83069 0.47023 0.08964
 C65 C 0.80782 0.52121 0.14079
 C66 C 0.68927 0.48757 -0.03393
 C67 C 0.65232 0.46392 -0.04737
 C68 C 0.66338 0.42144 0.00317
 C69 C 0.70015 0.44603 0.01577
 N70 N 0.71189 0.47877 -0.00230
 H71 H 0.76303 0.54973 0.11590
 H72 H 0.80206 0.45955 0.02695
 H73 H 0.85017 0.44855 0.08065
 H74 H 0.80979 0.54008 0.17198
 H75 H 0.69899 0.51428 -0.04707
 H76 H 0.63411 0.47231 -0.07148
 H77 H 0.65402 0.39636 0.01906
 H78 H 0.71822 0.44013 0.04152
 C79 C 0.68426 0.62326 0.04912
 C80 C 0.86334 0.53321 -0.06699
 C81 C 0.63841 0.43098 -0.02795
 C82 C 0.83413 0.49388 0.13052
 C83 C 0.01422 0.28242 0.38955
 H84 H -0.01770 0.27107 0.38673
 C85 C 0.03023 0.31317 0.36807
 H86 H 0.01018 0.32410 0.34792
 C87 C 0.07772 0.28387 0.42270
 H88 H 0.09557 0.27384 0.44584
 C89 C 0.09495 0.31486 0.40213
 H90 H 0.12635 0.32746 0.40901
 N91 N 0.03773 0.26944 0.41730
 C92 C -0.04990 0.17981 0.46280
 H93 H -0.05062 0.19491 0.49556
 C94 C -0.07189 0.14179 0.45046
 H95 H -0.08996 0.12835 0.47394
 C96 C -0.02235 0.17806 0.39394
 H97 H -0.00165 0.19179 0.37274
 C98 C -0.04334 0.13949 0.38045
 H99 H -0.03943 0.12410 0.34840
 Zn100 Zn 0.01138 0.24266 0.45898
 N101 N -0.02562 0.19709 0.43474
 C102 C -0.05457 0.28029 0.48965
 N103 N -0.01416 0.28122 0.49274
 C104 C 0.01052 0.31324 0.51511
 C105 C -0.00523 0.34554 0.53654
 C106 C -0.07155 0.31251 0.50985
 C107 C 0.06569 0.19374 0.46983
 C108 C 0.08933 0.17334 0.49133
 C109 C 0.07947 0.21617 0.55763
 C110 C 0.05493 0.23507 0.53500
 N111 N 0.04855 0.22355 0.49183
 H112 H -0.07347 0.25539 0.47008
 H113 H 0.04271 0.31414 0.51529
 H114 H 0.01508 0.37086 0.55372
 H115 H -0.10365 0.31174 0.50656
 H116 H 0.05977 0.18490 0.43563
 H117 H 0.10200 0.14909 0.47340
 H118 H 0.08392 0.22513 0.59205
 H119 H 0.04009 0.25791 0.55224
 C120 C -0.06802 0.12071 0.40914
 C121 C 0.07068 0.33141 0.37611
 C122 C 0.09613 0.18433 0.53579
 C123 C -0.04670 0.34561 0.53362
 C124 C 0.94158 0.67885 0.52199
 H125 H 0.94147 0.67050 0.48746
 C126 C 0.92758 0.65034 0.54709
 H127 H 0.91627 0.62018 0.53163
 C128 C 0.95858 0.72790 0.58410
 H129 H 0.97207 0.75769 0.59851
 C130 C 0.94410 0.70050 0.61039
 H131 H 0.94629 0.70970 0.64489
 N132 N 0.95739 0.71658 0.54074
 C133 C 0.95962 0.79564 0.44748
 H134 H 0.99168 0.80551 0.44656
 C135 C 0.93297 0.81594 0.42983
 H136 H 0.94478 0.84092 0.41459
 C137 C 0.90542 0.75293 0.47145
 H138 H 0.89486 0.72957 0.48935
 C139 C 0.87771 0.77191 0.45350
 H140 H 0.84591 0.76249 0.45735
 Zn141 Zn 0.98338 0.74968 0.50381
 N142 N 0.94553 0.76564 0.46896
 C143 C 1.00979 0.70488 0.42869
 N144 N 1.01742 0.71903 0.47122
 C145 C 1.04539 0.70602 0.49385
 C146 C 1.06606 0.67658 0.47413
 C147 C 1.02949 0.67496 0.40776
 C148 C 0.99092 0.82251 0.55819
 C149 C 1.00903 0.86084 0.57656
 C150 C 1.07205 0.84672 0.54734
 C151 C 1.05273 0.80849 0.52963
 N152 N 1.01275 0.79734 0.53495
 H153 H 0.98677 0.71508 0.41165
 H154 H 1.05007 0.71708 0.52790
 H155 H 1.08708 0.66561 0.49318
 H156 H 1.02199 0.66301 0.37429
 H157 H 0.95895 0.81328 0.56092
 H158 H 0.99078 0.88071 0.59392
 H159 H 1.10363 0.85526 0.54181
 H160 H 1.06932 0.78848 0.51004
 C161 C 0.89146 0.80483 0.43387
 C162 C 0.92942 0.66093 0.59191
 C163 C 1.04989 0.87371 0.57039
 C164 C 1.05720 0.65969 0.43094
 C165 C 0.43377 0.01244 0.34641
 H166 H 0.45509 -0.00785 0.34473
 C167 C 0.40749 0.01524 0.38035
 H168 H 0.40843 -0.00354 0.40424
 C169 C 0.40818 0.06276 0.31803
 H170 H 0.40921 0.08181 0.29418
 C171 C 0.38135 0.06643 0.35128
 H172 H 0.36155 0.08814 0.35233
 N173 N 0.43399 0.03639 0.31648
 C174 C 0.49586 -0.01268 0.20405
 H175 H 0.52002 0.01195 0.20348
 C176 C 0.49118 -0.04536 0.17090
 H177 H 0.51250 -0.04547 0.14555
 C178 C 0.43838 -0.04095 0.23767
 H179 H 0.41743 -0.03868 0.26331
 C180 C 0.43276 -0.07447 0.20535
 H181 H 0.40761 -0.09794 0.20702
 Zn182 Zn 0.47550 0.03710 0.27667
 N183 N 0.46953 -0.01090 0.23641
 C184 C 0.55131 0.01949 0.30114
 N185 N 0.52420 0.04458 0.30934
 C186 C 0.52859 0.07351 0.34466
 C187 C 0.56088 0.07781 0.37370
 C188 C 0.58412 0.02268 0.32949
 C189 C 0.45778 0.06926 0.20504
 C190 C 0.45964 0.09751 0.17836
 C191 C 0.49361 0.14673 0.23604
 C192 C 0.49177 0.11725 0.26149
 N193 N 0.47480 0.07914 0.24534
 H194 H 0.54686 -0.00398 0.27355
 H195 H 0.50584 0.09207 0.35147
 H196 H 0.56302 0.10033 0.40223
 H197 H 0.60473 0.00180 0.32287
 H198 H 0.44326 0.03917 0.19316
 H199 H 0.44675 0.08875 0.14605
 H200 H 0.50817 0.17671 0.24883
 H201 H 0.50477 0.12479 0.29365
 C202 C 0.45916 -0.07694 0.17104
 C203 C 0.38124 0.04300 0.38344
 C204 C 0.47839 0.13660 0.19356
 C205 C 0.58868 0.05166 0.36681
 C206 C 0.56064 -0.04197 0.67523
 H207 H 0.52914 -0.04847 0.66575
 C208 C 0.58917 -0.04450 0.64370
 H209 H 0.57909 -0.05252 0.61036
 C210 C 0.61185 -0.02484 0.72991
 H211 H 0.62071 -0.01709 0.76346
 C212 C 0.64148 -0.02751 0.69932
 H213 H 0.67287 -0.02137 0.70972
 N214 N 0.57226 -0.03120 0.71742
 C215 C 0.50235 -0.06162 0.82610
 H216 H 0.48495 -0.03779 0.83133
 C217 C 0.50251 -0.08664 0.85634
 H218 H 0.48459 -0.08218 0.88440
 C219 C 0.54858 -0.09464 0.78404
 H220 H 0.56721 -0.09697 0.75637
 C221 C 0.54960 -0.12032 0.81342
 H222 H 0.56879 -0.14265 0.80765
 Zn223 Zn 0.53132 -0.02478 0.75802
 N224 N 0.52570 -0.06560 0.79125
 C225 C 0.44968 -0.05313 0.73058
 N226 N 0.48226 -0.02486 0.72802
 C227 C 0.48138 0.00263 0.70216
 C228 C 0.44689 0.00222 0.67731
 C229 C 0.41445 -0.05443 0.70654
 C230 C 0.57442 0.02248 0.82826
 C231 C 0.58159 0.05242 0.86411
 C232 C 0.52983 0.08336 0.83729
 C233 C 0.52362 0.05270 0.80180
 N234 N 0.54545 0.02272 0.79827
 H235 H 0.45112 -0.07506 0.75082
 H236 H 0.50787 0.02450 0.70026
 H237 H 0.44703 0.02435 0.65698
 H238 H 0.38887 -0.07723 0.70895
 H239 H 0.59006 -0.00252 0.82606
 H240 H 0.60367 0.05061 0.88838
 H241 H 0.51111 0.10608 0.84018
 H242 H 0.49993 0.05193 0.77846
 C243 C 0.52704 -0.11594 0.85061
 C244 C 0.63020 -0.03649 0.65558
 C245 C 0.55835 0.08275 0.86964
 C246 C 0.41284 -0.02668 0.67924
 C247 C 0.17702 0.00124 0.58082
 C248 C 0.20661 0.03303 0.57424
 C249 C 0.19614 0.07066 0.57504
 C250 C 0.15639 0.07633 0.58124
 C251 C 0.12695 0.04440 0.58728
 C252 C 0.13699 0.00667 0.58721
 C253 C 0.24801 0.02655 0.56437
 C254 C 0.26628 0.03920 0.52835
 C255 C 0.30524 0.03269 0.51779
 C256 C 0.32669 0.01456 0.54501
 C257 C 0.30874 0.00210 0.58158
 C258 C 0.26913 0.00746 0.59043
 H259 H 0.18507 -0.02779 0.58021
 H260 H 0.21864 0.09537 0.56977
 H261 H 0.24952 0.05314 0.50768
 H262 H 0.25522 -0.00200 0.61856
 H263 H 0.09611 0.04891 0.59135
 H264 H 0.35706 0.01006 0.53783
 C265 C 0.78993 -0.07079 0.43477
 C266 C 0.78170 -0.03204 0.43955
 C267 C 0.80975 -0.00234 0.42643
 C268 C 0.84620 -0.01070 0.40920
 C269 C 0.85411 -0.04978 0.40425
 C270 C 0.82607 -0.08003 0.41721
 C271 C 0.74472 -0.02174 0.46001
 C272 C 0.73491 -0.03118 0.50061
 C273 C 0.70157 -0.01864 0.52164
 C274 C 0.67850 0.00392 0.50187
 C275 C 0.68759 0.01293 0.46123
 C276 C 0.72050 -0.00018 0.44020
 H277 H 0.76840 -0.09367 0.44538
 H278 H 0.80339 0.02762 0.43034
 H279 H 0.75356 -0.04767 0.51612
 H280 H 0.72775 0.00722 0.40891
 H281 H 0.88222 -0.05639 0.39107
 H282 H 0.65331 0.01475 0.51798
 C283 C 0.51750 0.30396 0.98472
 C284 C 0.48687 0.27466 0.99439
 C285 C 0.44662 0.27926 0.99063
 C286 C 0.43684 0.31322 0.97743
 C287 C 0.46786 0.34272 0.96812
 C288 C 0.50836 0.33833 0.97186
 C289 C 0.49734 0.23929 1.00850
 C290 C 0.48986 0.23270 1.05045
 C291 C 0.50154 0.19993 1.06456
 C292 C 0.52110 0.17399 1.03636
 C293 C 0.52836 0.18021 0.99428
 C294 C 0.51641 0.21295 0.98048
 H295 H 0.54846 0.29976 0.98723
 H296 H 0.42296 0.25648 0.99805
 H297 H 0.47516 0.25314 1.07210
 H298 H 0.52239 0.21825 0.94817
 H299 H 0.46051 0.36897 0.95780
 H300 H 0.53068 0.14884 1.04704
 C301 C 0.55014 0.71730 0.03399
 C302 C 0.51101 0.72194 0.02360
 C303 C 0.48111 0.68860 0.01200
 C304 C 0.49045 0.65037 0.00951
 C305 C 0.52977 0.64600 0.02020
 C306 C 0.55990 0.67938 0.03265
 C307 C 0.50302 0.76138 0.01917
 C308 C 0.51649 0.77735 -0.01682
 C309 C 0.51061 0.81544 -0.02175
 C310 C 0.49202 0.83820 0.01107
 C311 C 0.47846 0.82217 0.04753
 C312 C 0.48337 0.78342 0.05088
 H313 H 0.57323 0.74332 0.04203
 H314 H 0.45141 0.69250 0.00224
 H315 H 0.53128 0.75966 -0.04137
 H316 H 0.47340 0.77108 0.07901
 H317 H 0.53694 0.61645 0.01725
 H318 H 0.48819 0.86809 0.00854
 C319 C 1.05491 0.52670 0.30470
 C320 C 1.04716 0.49030 0.27666
 C321 C 1.05878 0.45658 0.28854
 C322 C 1.07910 0.45944 0.32805
 C323 C 1.08775 0.49632 0.35551
 C324 C 1.07494 0.53003 0.34449
 C325 C 1.02856 0.48853 0.23414
 C326 C 1.05313 0.49187 0.19902
 C327 C 1.03676 0.49623 0.15963
 C328 C 0.99525 0.49562 0.15526
 C329 C 0.97004 0.49126 0.18999
 C330 C 0.98716 0.48834 0.22965
 H331 H 1.04592 0.55253 0.29494
 H332 H 1.05249 0.42834 0.26696
 H333 H 1.08530 0.49358 0.20319
 H334 H 0.96843 0.48644 0.25715
 H335 H 1.10289 0.49829 0.38627
 H336 H 0.98294 0.49971 0.12500
 C337 C -0.06099 0.53539 0.69504
 C338 C -0.04873 0.50039 0.70248
 C339 C -0.05194 0.46782 0.66910
 C340 C -0.06785 0.46974 0.62856
 C341 C -0.07962 0.50518 0.62127
 C342 C -0.07550 0.53849 0.65428
 C343 C -0.03125 0.49847 0.74483
 C344 C -0.05165 0.50949 0.78225
 C345 C -0.03426 0.50987 0.82270
 C346 C 0.00381 0.49904 0.82546
 C347 C 0.02447 0.48746 0.78824
 C348 C 0.00663 0.48723 0.74799
 H349 H -0.05733 0.56095 0.72056
 H350 H -0.04287 0.44063 0.67504
 H351 H -0.08069 0.51853 0.77985
 H352 H 0.02260 0.47910 0.71913
 H353 H -0.09120 0.50695 0.58980
 H354 H 0.01743 0.50027 0.85680
 N355 N 0.15963 0.14759 0.60492
 N356 N 0.14387 0.17724 0.59392
 C357 C 0.11925 0.16166 0.55928
 C358 C 0.12005 0.12153 0.54967
 N359 N 0.14544 0.11402 0.57885
 H360 H 0.10396 0.09990 0.52396
 N361 N 0.63243 0.70296 0.03824
 N362 N 0.66638 0.68928 0.04266
 C363 C 0.65599 0.65137 0.04848
 C364 C 0.61459 0.64222 0.04728
 N365 N 0.60091 0.67509 0.04058
 H366 H 0.59644 0.61382 0.04908
 N367 N 0.80622 -0.15143 0.41354
 N368 N 0.82252 -0.18286 0.41770
 C369 C 0.86267 -0.17082 0.42141
 C370 C 0.87041 -0.13074 0.41922
 N371 N 0.83439 -0.11977 0.41447
 H372 H 0.89899 -0.11089 0.42449
 N373 N 0.36560 0.28779 0.95994
 N374 N 0.33116 0.30124 0.95804
 C375 C 0.33958 0.34087 0.97118
 C376 C 0.38029 0.35133 0.98069
 N377 N 0.39545 0.31746 0.97321
 H378 H 0.39729 0.38074 0.99141
 N379 N 0.90163 0.01710 0.36759
 N380 N 0.92449 0.05185 0.36607
 C381 C 0.91242 0.07868 0.39724
 C382 C 0.88139 0.05916 0.41778
 N383 N 0.87550 0.02093 0.39842
 H384 H 0.86519 0.07136 0.44482
 N385 N 0.47100 0.58279 -0.02903
 N386 N 0.43818 0.55690 -0.04255
 C387 C 0.40648 0.57431 -0.02925
 C388 C 0.42103 0.61189 -0.00698
 N389 N 0.46142 0.61599 -0.00762
 H390 H 0.40403 0.63393 0.00832
 N391 N 0.07194 -0.02219 0.61134
 N392 N 0.04815 -0.05708 0.60782
 C393 C 0.06797 -0.08424 0.58553
 C394 C 0.10493 -0.06466 0.57563
 N395 N 0.10619 -0.02606 0.59224
 H396 H 0.12761 -0.07678 0.55608
 N397 N 0.53563 0.39486 0.93781
 N398 N 0.56986 0.41961 0.93662
 C399 C 0.59709 0.40879 0.96178
 C400 C 0.57824 0.37648 0.97841
 N401 N 0.54002 0.36869 0.96272
 H402 H 0.59061 0.36102 1.00094
 N403 N 0.49406 0.22137 1.14144
 N404 N 0.48818 0.20563 1.17676
 C405 C 0.48377 0.16592 1.16447
 C406 C 0.48741 0.15787 1.12068
 N407 N 0.49392 0.19313 1.10750
 H408 H 0.48619 0.12918 1.10048
 N409 N -0.08969 0.60549 0.67696
 N410 N -0.08844 0.63887 0.66156
 C411 C -0.08091 0.63060 0.61950
 C412 C -0.07778 0.59085 0.60960
 N413 N -0.08330 0.57626 0.64635
 H414 H -0.06853 0.57517 0.57975
 N415 N 0.55053 0.81468 -0.08554
 N416 N 0.55525 0.83166 -0.11998
 C417 C 0.53065 0.85885 -0.11664
 C418 C 0.51081 0.85816 -0.07844
 N419 N 0.52409 0.83011 -0.06006
 H420 H 0.48818 0.87534 -0.06592
 N421 N 1.12365 0.42378 0.36161
 N422 N 1.12229 0.38923 0.37458
 C423 C 1.08572 0.36747 0.36247
 C424 C 1.06494 0.38994 0.34081
 N425 N 1.08955 0.42473 0.34125
 H426 H 1.03409 0.38322 0.32865
 N427 N 0.43073 0.83076 0.10432
 N428 N 0.42516 0.85716 0.13826
 C429 C 0.45357 0.88954 0.13825
 C430 C 0.47638 0.88214 0.10235
 N431 N 0.46111 0.84528 0.08223
 H432 H 0.50275 0.90051 0.09281
 N433 N -0.10137 0.42523 0.56550
 N434 N -0.09721 0.39166 0.54009
 C435 C -0.06352 0.38067 0.55392
 C436 C -0.04725 0.40853 0.58864
 N437 N -0.07169 0.43576 0.59490
 H438 H -0.02023 0.40902 0.60750
 N439 N 0.57499 0.13349 0.97787
 N440 N 0.58409 0.10764 0.94514
 C441 C 0.56147 0.11068 0.91088
 C442 C 0.53830 0.13963 0.92378
 N443 N 0.54758 0.15295 0.96567
 H444 H 0.51514 0.14843 0.90551
 N445 N 1.10737 0.57583 0.40719
 N446 N 1.10381 0.61045 0.43070
 C447 C 1.07440 0.62435 0.41181
 C448 C 1.06004 0.59694 0.37588
 N449 N 1.08132 0.56709 0.37410
 H450 H 1.03473 0.59737 0.35492
 N451 N 1.05559 0.52824 0.09821
 N452 N 1.08489 0.53134 0.07076
 C453 C 1.11145 0.50870 0.08049
 C454 C 1.09729 0.49168 0.11526
 N455 N 1.06243 0.50458 0.12515
 H456 H 1.11051 0.47164 0.13159
 N457 N 0.71784 -0.03330 0.59223
 N458 N 0.69993 -0.03801 0.62867
 C459 C 0.66085 -0.03566 0.62246
 C460 C 0.65549 -0.02926 0.58118
 N461 N 0.69166 -0.02776 0.56339
 H462 H 0.62809 -0.02503 0.56598
 N463 N -0.03570 0.54035 0.89786
 N464 N -0.06207 0.54754 0.92774
 C465 C -0.09899 0.53355 0.90934
 C466 C -0.09431 0.51761 0.86695
 N467 N -0.05442 0.52245 0.86114
 H468 H -0.11742 0.50304 0.84299
 N469 N 0.30883 0.07091 0.45961
 N470 N 0.32794 0.07413 0.42368
 C471 C 0.35432 0.04859 0.42001
 C472 C 0.35088 0.02973 0.45544
 N473 N 0.32214 0.04453 0.47933
 H474 H 0.36679 0.00682 0.46254
 N475 N 0.09184 0.48275 0.76207
 N476 N 0.12675 0.47565 0.77570
 C477 C 0.12093 0.46557 0.81480
 C478 C 0.08142 0.46698 0.82478
 N479 N 0.06427 0.47801 0.79123
 H480 H 0.06720 0.46220 0.85443
 N481 N 0.64918 0.06658 0.46299
 N482 N 0.62282 0.07783 0.43853
 C483 C 0.61974 0.05292 0.40049
 C484 C 0.64560 0.02613 0.40238
 N485 N 0.66322 0.03569 0.44184
 H486 H 0.64910 0.00043 0.37895
 N487 N 0.90521 0.50458 0.21775
 N488 N 0.86850 0.50564 0.20323
 C489 C 0.86760 0.49299 0.16046
 C490 C 0.90500 0.48442 0.14925
 N491 N 0.92772 0.49220 0.18576
 H492 H 0.91507 0.47504 0.11734
 N493 N 0.31316 -0.04188 0.63330
 N494 N 0.33991 -0.05011 0.65975
 C495 C 0.37552 -0.02789 0.65375
 C496 C 0.36966 -0.00597 0.62218
 N497 N 0.33040 -0.01558 0.61034
 H498 H 0.39127 0.01588 0.61013
   
