data_POSCAR
  _audit_creation_date              2014-09-24
  _audit_creation_method            'ToBaCCo'
  _symmetry_space_group_name_H-M    'P1'
  _symmetry_Int_Tables_number       1
  _symmetry_cell_setting            triclinic
  loop_
  _symmetry_equiv_pos_as_xyz
 x,y,z
_cell_length_a 57.4834
_cell_length_b 57.2932
_cell_length_c 57.4867
_cell_angle_alpha 89.917300
_cell_angle_beta 90.002800
_cell_angle_gamma 90.069000
loop_
  _atom_site_label
  _atom_site_type_symbol
  _atom_site_fract_x
  _atom_site_fract_y
  _atom_site_fract_z
N1 N 0.59745 0.66212 0.61602
 N2 N 0.58854 0.65275 0.63494
 C3 C 0.56975 0.66518 0.64147
 C4 C 0.56691 0.68317 0.62577
 C5 C 0.58467 0.68081 0.60986
 H6 H 0.55890 0.66146 0.65639
 H7 H 0.58799 0.69183 0.59493
 Cu8 Cu 0.60234 0.62500 0.64877
 Cu9 Cu 0.62492 0.64941 0.60072
 Cu10 Cu 0.64954 0.59988 0.62538
 N11 N 0.61613 0.59726 0.66258
 N12 N 0.63458 0.58745 0.65321
 C13 C 0.64049 0.56850 0.66577
 C14 C 0.62491 0.56647 0.68387
 C15 C 0.60966 0.58487 0.68147
 H16 H 0.65497 0.55708 0.66199
 H17 H 0.59500 0.58883 0.69257
 N18 N 0.66211 0.61511 0.59724
 N19 N 0.65274 0.63397 0.58786
 C20 C 0.66528 0.64019 0.56904
 C21 C 0.68326 0.62453 0.56659
 C22 C 0.68085 0.60887 0.58462
 H23 H 0.66170 0.65503 0.55795
 H24 H 0.69198 0.59411 0.58825
 H25 H 0.62015 0.61530 0.61152
 H26 H 0.63924 0.63407 0.62991
 N27 N 0.90307 0.33713 0.11577
 N28 N 0.91199 0.34649 0.13468
 C29 C 0.93080 0.33408 0.14121
 C30 C 0.93361 0.31613 0.12553
 C31 C 0.91585 0.31845 0.10962
 H32 H 0.94165 0.33780 0.15612
 H33 H 0.91250 0.30745 0.09470
 Cu34 Cu 0.89820 0.37419 0.14847
 Cu35 Cu 0.87559 0.34982 0.10048
 Cu36 Cu 0.85097 0.39932 0.12509
 N37 N 0.88441 0.40190 0.16225
 N38 N 0.86596 0.41172 0.15288
 C39 C 0.86005 0.43063 0.16543
 C40 C 0.87564 0.43266 0.18352
 C41 C 0.89087 0.41426 0.18111
 H42 H 0.84557 0.44206 0.16166
 H43 H 0.90555 0.41030 0.19220
 N44 N 0.83839 0.38411 0.09701
 N45 N 0.84775 0.36527 0.08765
 C46 C 0.83518 0.35904 0.06886
 C47 C 0.81720 0.37470 0.06642
 C48 C 0.81962 0.39035 0.08441
 H49 H 0.83875 0.34422 0.05780
 H50 H 0.80849 0.40510 0.08803
 H51 H 0.88037 0.38390 0.11121
 H52 H 0.86130 0.36510 0.12965
 N53 N 0.40277 0.16210 -0.11544
 N54 N 0.41214 0.15227 -0.13387
 C55 C 0.43104 0.16463 -0.14032
 C56 C 0.43347 0.18302 -0.12509
 C57 C 0.41535 0.18101 -0.10953
 H58 H 0.44214 0.16066 -0.15497
 H59 H 0.41160 0.19245 -0.09507
 Cu60 Cu 0.39832 0.12455 -0.14765
 Cu61 Cu 0.37494 0.14972 -0.10049
 Cu62 Cu 0.35025 0.10019 -0.12509
 N63 N 0.38450 0.09684 -0.16142
 N64 N 0.36557 0.08747 -0.15253
 C65 C 0.35942 0.06878 -0.16531
 C66 C 0.37535 0.06643 -0.18305
 C67 C 0.39104 0.08441 -0.18020
 H68 H 0.34448 0.05777 -0.16200
 H69 H 0.40597 0.08813 -0.19103
 N70 N 0.33742 0.11568 -0.09730
 N71 N 0.34681 0.13453 -0.08795
 C72 C 0.33421 0.14080 -0.06921
 C73 C 0.31618 0.12517 -0.06680
 C74 C 0.31859 0.10948 -0.08475
 H75 H 0.33786 0.15556 -0.05810
 H76 H 0.30749 0.09466 -0.08830
 H77 H 0.37945 0.11551 -0.11077
 H78 H 0.36107 0.13429 -0.12988
 N79 N 0.09694 0.83717 0.38416
 N80 N 0.08802 0.84657 0.36526
 C81 C 0.06921 0.83413 0.35872
 C82 C 0.06639 0.81612 0.37439
 C83 C 0.08416 0.81844 0.39031
 H84 H 0.05836 0.83789 0.34380
 H85 H 0.08752 0.80740 0.40522
 Cu86 Cu 0.10181 0.87435 0.35147
 Cu87 Cu 0.12445 0.84991 0.39945
 Cu88 Cu 0.14905 0.89954 0.37482
 N89 N 0.11558 0.90213 0.33768
 N90 N 0.13404 0.91197 0.34705
 C91 C 0.13993 0.93094 0.33450
 C92 C 0.12434 0.93298 0.31643
 C93 C 0.10910 0.91454 0.31883
 H94 H 0.15442 0.94240 0.33827
 H95 H 0.09443 0.91058 0.30775
 N96 N 0.16165 0.88431 0.40289
 N97 N 0.15231 0.86541 0.41227
 C98 C 0.16490 0.85920 0.43105
 C99 C 0.18288 0.87492 0.43347
 C100 C 0.18042 0.89059 0.41547
 H101 H 0.16136 0.84434 0.44213
 H102 H 0.19153 0.90539 0.41183
 H103 H 0.11966 0.88402 0.38871
 H104 H 0.13873 0.86533 0.37026
 N105 N 0.09699 0.16294 0.11568
 N106 N 0.08806 0.15354 0.13459
 C107 C 0.06927 0.16596 0.14111
 C108 C 0.06644 0.18396 0.12543
 C109 C 0.08421 0.18164 0.10953
 H110 H 0.05842 0.16222 0.15603
 H111 H 0.08754 0.19266 0.09461
 Cu112 Cu 0.10185 0.12583 0.14841
 Cu113 Cu 0.12446 0.15026 0.10039
 Cu114 Cu 0.14905 0.10072 0.12507
 N115 N 0.11562 0.09810 0.16223
 N116 N 0.13407 0.08830 0.15287
 C117 C 0.13999 0.06938 0.16545
 C118 C 0.12441 0.06734 0.18355
 C119 C 0.10916 0.08573 0.18111
 H120 H 0.15446 0.05795 0.16170
 H121 H 0.09450 0.08968 0.19220
 N122 N 0.16162 0.11595 0.09698
 N123 N 0.15227 0.13481 0.08759
 C124 C 0.16484 0.14104 0.06879
 C125 C 0.18280 0.12536 0.06638
 C126 C 0.18037 0.10970 0.08439
 H127 H 0.16129 0.15587 0.05770
 H128 H 0.19149 0.09493 0.08803
 H129 H 0.11966 0.11616 0.11117
 H130 H 0.13874 0.13492 0.12960
 N131 N 0.40269 0.83764 0.61556
 N132 N 0.41182 0.84717 0.63427
 C133 C 0.43069 0.83477 0.64071
 C134 C 0.43329 0.81661 0.62523
 C135 C 0.41534 0.81884 0.60951
 H136 H 0.44168 0.83858 0.65550
 H137 H 0.41179 0.80766 0.59478
 Cu138 Cu 0.39817 0.87488 0.64823
 Cu139 Cu 0.37508 0.85023 0.60046
 Cu140 Cu 0.35048 0.89966 0.62505
 N141 N 0.38421 0.90259 0.66188
 N142 N 0.36556 0.91220 0.65268
 C143 C 0.35950 0.93099 0.66533
 C144 C 0.37523 0.93321 0.68328
 C145 C 0.39070 0.91504 0.68069
 H146 H 0.34482 0.94222 0.66174
 H147 H 0.40548 0.91122 0.69168
 N148 N 0.33778 0.88438 0.59710
 N149 N 0.34714 0.86555 0.58773
 C150 C 0.33457 0.85934 0.56895
 C151 C 0.31658 0.87500 0.56650
 C152 C 0.31901 0.89064 0.58451
 H153 H 0.33815 0.84455 0.55785
 H154 H 0.30791 0.90542 0.58812
 H155 H 0.37989 0.88437 0.61110
 H156 H 0.36109 0.86554 0.62985
 N157 N 0.90283 0.66250 0.38404
 N158 N 0.91176 0.65313 0.36516
 C159 C 0.93058 0.66559 0.35863
 C160 C 0.93341 0.68359 0.37427
 C161 C 0.91561 0.68121 0.39016
 H162 H 0.94145 0.66188 0.34374
 H163 H 0.91226 0.69224 0.40505
 Cu164 Cu 0.89797 0.62536 0.35140
 Cu165 Cu 0.87530 0.64974 0.39932
 Cu166 Cu 0.85071 0.60014 0.37476
 N167 N 0.88420 0.59759 0.33764
 N168 N 0.86574 0.58773 0.34700
 C169 C 0.85986 0.56878 0.33447
 C170 C 0.87547 0.56676 0.31641
 C171 C 0.89069 0.58520 0.31881
 H172 H 0.84537 0.55731 0.33824
 H173 H 0.90538 0.58918 0.30773
 N174 N 0.83808 0.61537 0.40281
 N175 N 0.84744 0.63424 0.41215
 C176 C 0.83484 0.64046 0.43091
 C177 C 0.81685 0.62476 0.43337
 C178 C 0.81930 0.60909 0.41540
 H179 H 0.83839 0.65530 0.44196
 H180 H 0.80818 0.59431 0.41178
 H181 H 0.88008 0.61564 0.38864
 H182 H 0.86103 0.63436 0.37015
 N183 N 0.59734 0.33795 -0.11557
 N184 N 0.58797 0.34780 -0.13402
 C185 C 0.56908 0.33544 -0.14046
 C186 C 0.56666 0.31701 -0.12521
 C187 C 0.58476 0.31902 -0.10964
 H188 H 0.55798 0.33941 -0.15512
 H189 H 0.58852 0.30756 -0.09516
 Cu190 Cu 0.60178 0.37554 -0.14784
 Cu191 Cu 0.62516 0.35032 -0.10062
 Cu192 Cu 0.64984 0.39989 -0.12530
 N193 N 0.61561 0.40328 -0.16167
 N194 N 0.63453 0.41265 -0.15279
 C195 C 0.64069 0.43135 -0.16562
 C196 C 0.62476 0.43371 -0.18337
 C197 C 0.60907 0.41573 -0.18048
 H198 H 0.65562 0.44236 -0.16232
 H199 H 0.59413 0.41201 -0.19131
 N200 N 0.66267 0.38437 -0.09747
 N201 N 0.65327 0.36551 -0.08809
 C202 C 0.66587 0.35920 -0.06934
 C203 C 0.68391 0.37483 -0.06693
 C204 C 0.68149 0.39055 -0.08491
 H205 H 0.66221 0.34442 -0.05821
 H206 H 0.69260 0.40537 -0.08848
 H207 H 0.62064 0.38453 -0.11095
 H208 H 0.63902 0.36578 -0.13003
 C209 C -0.00215 0.23775 0.14524
 C210 C 0.00246 0.26438 0.14428
 C211 C -0.01662 0.26672 0.12571
 C212 C -0.02151 0.24037 0.12668
 C213 C 0.01570 0.23428 0.12567
 C214 C -0.00338 0.23662 0.10711
 C215 C 0.02060 0.26063 0.12471
 C216 C 0.00124 0.26325 0.10614
 C217 C -0.03465 0.28475 0.12572
 C218 C -0.04954 0.29952 0.12566
 C219 C 0.03374 0.21626 0.12564
 C220 C 0.04863 0.20150 0.12557
 H221 H -0.00335 0.22705 0.16131
 H222 H 0.00467 0.27600 0.15956
 H223 H -0.03904 0.23226 0.12748
 H224 H -0.00558 0.22501 0.09182
 H225 H 0.03813 0.26874 0.12389
 H226 H 0.00244 0.27395 0.09007
 C227 C 0.49231 0.75301 0.60392
 C228 C 0.51775 0.75653 0.61209
 C229 C 0.51616 0.73356 0.62583
 C230 C 0.49099 0.72976 0.61765
 C231 C 0.48386 0.76605 0.62567
 C232 C 0.48226 0.74308 0.63940
 C233 C 0.50903 0.76985 0.63384
 C234 C 0.50771 0.74660 0.64758
 C235 C 0.53419 0.71551 0.62589
 C236 C 0.54908 0.70072 0.62589
 C237 C 0.46586 0.78413 0.62555
 C238 C 0.45103 0.79898 0.62542
 H239 H 0.48578 0.75586 0.58597
 H240 H 0.53254 0.76187 0.60086
 H241 H 0.48377 0.71308 0.61099
 H242 H 0.46746 0.73775 0.65063
 H243 H 0.51625 0.78653 0.64049
 H244 H 0.51424 0.74375 0.66553
 C245 C 1.00550 0.73414 0.39017
 C246 C 1.02103 0.74065 0.36911
 C247 C 1.01653 0.76660 0.37409
 C248 C 1.00128 0.76036 0.39515
 C249 C 0.98418 0.73408 0.37404
 C250 C 0.97968 0.76002 0.37903
 C251 C 0.99943 0.74031 0.35298
 C252 C 0.99522 0.76654 0.35796
 C253 C 1.03460 0.78466 0.37414
 C254 C 1.04952 0.79947 0.37423
 C255 C 0.96613 0.71600 0.37405
 C256 C 0.95123 0.70118 0.37411
 H257 H 1.00954 0.72062 0.40342
 H258 H 1.03824 0.73291 0.36503
 H259 H 1.00224 0.76881 0.41249
 H260 H 0.96248 0.76778 0.38312
 H261 H 0.99849 0.73187 0.33564
 H262 H 0.99118 0.78007 0.34473
 C263 C 0.51757 0.24351 -0.11163
 C264 C 0.49198 0.24709 -0.10399
 C265 C 0.48394 0.23372 -0.12570
 C266 C 0.50925 0.22986 -0.13334
 C267 C 0.51622 0.26627 -0.12572
 C268 C 0.50818 0.25291 -0.14744
 C269 C 0.49091 0.27013 -0.11808
 C270 C 0.48259 0.25648 -0.13979
 C271 C 0.46596 0.21561 -0.12559
 C272 C 0.45115 0.20072 -0.12541
 C273 C 0.53419 0.28440 -0.12565
 C274 C 0.54899 0.29930 -0.12550
 H275 H 0.53215 0.23839 -0.10005
 H276 H 0.48511 0.24449 -0.08612
 H277 H 0.51657 0.21309 -0.13962
 H278 H 0.51506 0.25551 -0.16530
 H279 H 0.48359 0.28689 -0.11180
 H280 H 0.46800 0.26161 -0.15137
 C281 C 0.12123 0.02118 0.26013
 C282 C 0.10354 0.00081 0.26169
 C283 C 0.12376 -0.01612 0.26612
 C284 C 0.14146 0.00396 0.26484
 C285 C 0.12379 0.01654 0.23394
 C286 C 0.14401 -0.00040 0.23837
 C287 C 0.10609 -0.00354 0.23522
 C288 C 0.12632 -0.02076 0.23993
 C289 C 0.12384 -0.03431 0.28404
 C290 C 0.12401 -0.04925 0.29880
 C291 C 0.12390 0.03470 0.21600
 C292 C 0.12408 0.04961 0.20121
 H293 H 0.11915 0.03863 0.26821
 H294 H 0.08690 0.00111 0.27149
 H295 H 0.15600 0.00683 0.27722
 H296 H 0.16065 -0.00069 0.22858
 H297 H 0.09156 -0.00642 0.22283
 H298 H 0.12842 -0.03821 0.23184
 C299 C 0.60833 0.50548 -0.23428
 C300 C 0.62942 0.52105 -0.24074
 C301 C 0.62437 0.51660 -0.26661
 C302 C 0.60329 0.50130 -0.26042
 C303 C 0.62441 0.48407 -0.23426
 C304 C 0.61937 0.47961 -0.26012
 C305 C 0.64550 0.49937 -0.24046
 C306 C 0.64045 0.49519 -0.26660
 C307 C 0.62445 0.53475 -0.28460
 C308 C 0.62461 0.54967 -0.29940
 C309 C 0.62448 0.46604 -0.21617
 C310 C 0.62459 0.45126 -0.20123
 H311 H 0.59512 0.50950 -0.22078
 H312 H 0.63355 0.53829 -0.23298
 H313 H 0.58593 0.50229 -0.26883
 H314 H 0.61525 0.46237 -0.26790
 H315 H 0.66286 0.49838 -0.23206
 H316 H 0.65366 0.49118 -0.28009
 C317 C 0.37901 0.97900 0.75990
 C318 C 0.39616 0.99984 0.76107
 C319 C 0.37560 1.01617 0.76615
 C320 C 0.35845 0.99560 0.76526
 C321 C 0.37559 0.98375 0.73381
 C322 C 0.35503 1.00007 0.73889
 C323 C 0.39274 1.00431 0.73470
 C324 C 0.37218 1.02092 0.74007
 C325 C 0.37557 1.03416 0.78421
 C326 C 0.37550 1.04891 0.79913
 C327 C 0.37554 0.96570 0.71580
 C328 C 0.37545 0.95086 0.70097
 H329 H 0.38181 0.96156 0.76786
 H330 H 0.41307 0.99996 0.77039
 H331 H 0.34435 0.99224 0.77803
 H332 H 0.33812 0.99996 0.72958
 H333 H 0.40684 1.00768 0.72193
 H334 H 0.36937 1.03836 0.73211
 C335 C 0.88957 0.49285 0.26791
 C336 C 0.86773 0.47975 0.25899
 C337 C 0.87622 0.48338 0.23390
 C338 C 0.89806 0.49620 0.24253
 C339 C 0.87616 0.51597 0.26609
 C340 C 0.88465 0.51960 0.24100
 C341 C 0.85433 0.50314 0.25745
 C342 C 0.86281 0.50650 0.23209
 C343 C 0.87614 0.46525 0.21596
 C344 C 0.87596 0.45036 0.20118
 C345 C 0.87603 0.53411 0.28402
 C346 C 0.87582 0.54902 0.29878
 H347 H 0.90057 0.48743 0.28284
 H348 H 0.86077 0.46316 0.26618
 H349 H 0.91604 0.49314 0.23620
 H350 H 0.89160 0.53619 0.23381
 H351 H 0.83635 0.50620 0.26378
 H352 H 0.85181 0.51191 0.21716
 C353 C 0.22892 0.12997 -0.00987
 C354 C 0.25039 0.14633 -0.01041
 C355 C 0.26580 0.12524 -0.01623
 C356 C 0.24461 0.10888 -0.01597
 C357 C 0.23344 0.12536 0.01608
 C358 C 0.24885 0.10427 0.01025
 C359 C 0.25462 0.14172 0.01582
 C360 C 0.27032 0.12064 0.00971
 C361 C 0.28378 0.12519 -0.03427
 C362 C 0.29857 0.12516 -0.04911
 C363 C 0.21538 0.12540 0.03403
 C364 C 0.20051 0.12540 0.04878
 H365 H 0.21170 0.13381 -0.01770
 H366 H 0.25125 0.16362 -0.01911
 H367 H 0.24071 0.09538 -0.02924
 H368 H 0.24800 0.08699 0.01897
 H369 H 0.25853 0.15522 0.02909
 H370 H 0.28755 0.11680 0.01754
 C371 C 0.73994 0.62340 0.47887
 C372 C 0.73756 0.60496 0.49847
 C373 C 0.73380 0.62474 0.51609
 C374 C 0.73590 0.64318 0.49677
 C375 C 0.76618 0.62479 0.48375
 C376 C 0.76243 0.64457 0.50137
 C377 C 0.76409 0.60635 0.50306
 C378 C 0.76005 0.62613 0.52096
 C379 C 0.71577 0.62466 0.53411
 C380 C 0.70094 0.62461 0.54893
 C381 C 0.78425 0.62480 0.46576
 C382 C 0.79911 0.62478 0.45098
 H383 H 0.73186 0.62229 0.46137
 H384 H 0.72714 0.58867 0.49748
 H385 H 0.72411 0.65833 0.49439
 H386 H 0.77285 0.66086 0.50235
 H387 H 0.77588 0.59120 0.50545
 H388 H 0.76812 0.62725 0.53847
 C389 C 0.74294 0.39659 -0.00356
 C390 C 0.74152 0.38308 0.01976
 C391 C 0.76659 0.37462 0.01605
 C392 C 0.76829 0.38812 -0.00699
 C393 C 0.73425 0.37470 -0.01630
 C394 C 0.75932 0.36622 -0.02000
 C395 C 0.73254 0.36119 0.00674
 C396 C 0.75790 0.35272 0.00332
 C397 C 0.78463 0.37462 0.03404
 C398 C 0.79949 0.37465 0.04882
 C399 C 0.71629 0.37476 -0.03436
 C400 C 0.70151 0.37481 -0.04923
 H401 H 0.73658 0.41462 -0.00660
 H402 H 0.73441 0.39001 0.03632
 H403 H 0.78320 0.39919 -0.01243
 H404 H 0.76644 0.35929 -0.03656
 H405 H 0.71764 0.35012 0.01218
 H406 H 0.76425 0.33468 0.00637
 C407 C 0.24454 0.89092 0.51618
 C408 C 0.24861 0.89627 0.49007
 C409 C 0.23361 0.87499 0.48375
 C410 C 0.22926 0.86964 0.50959
 C411 C 0.26606 0.87505 0.51601
 C412 C 0.25106 0.85377 0.50970
 C413 C 0.27041 0.88039 0.49018
 C414 C 0.25513 0.85911 0.48359
 C415 C 0.21551 0.87494 0.46581
 C416 C 0.20061 0.87492 0.45107
 C417 C 0.28409 0.87504 0.53401
 C418 C 0.29892 0.87503 0.54883
 H419 H 0.24039 0.90400 0.52978
 H420 H 0.24740 0.91374 0.48179
 H421 H 0.21213 0.86522 0.51736
 H422 H 0.25226 0.83629 0.51797
 H423 H 0.28754 0.88481 0.48241
 H424 H 0.25928 0.84603 0.46998
   
