data_POSCAR
  _audit_creation_date              2014-09-24
  _audit_creation_method            'ToBaCCo'
  _symmetry_space_group_name_H-M    'P1'
  _symmetry_Int_Tables_number       1
  _symmetry_cell_setting            triclinic
  loop_
  _symmetry_equiv_pos_as_xyz
 x,y,z
_cell_length_a 36.3989
_cell_length_b 36.4669
_cell_length_c 65.6529
_cell_angle_alpha 88.461700
_cell_angle_beta 90.778100
_cell_angle_gamma 120.053800
loop_
  _atom_site_label
  _atom_site_type_symbol
  _atom_site_fract_x
  _atom_site_fract_y
  _atom_site_fract_z
C1 C 0.02008 0.06798 0.52826
 H2 H 0.04998 0.06836 0.52798
 C3 C 0.01575 0.09671 0.54015
 H4 H 0.04233 0.11923 0.54915
 C5 C -0.05070 0.03908 0.51634
 H6 H -0.07616 0.01716 0.50670
 C7 C -0.05636 0.06739 0.52803
 H8 H -0.08632 0.06699 0.52752
 N9 N -0.01290 0.03988 0.51671
 C10 C 0.01690 -0.05969 0.50585
 H11 H 0.01785 -0.05869 0.48937
 C12 C 0.02110 -0.09085 0.51670
 H13 H 0.02559 -0.11379 0.50858
 C14 C 0.00758 -0.03249 0.53657
 H15 H 0.00100 -0.01056 0.54422
 C16 C 0.01161 -0.06316 0.54800
 H17 H 0.00861 -0.06444 0.56443
 Zn18 Zn -0.00180 0.00529 0.49989
 N19 N 0.01010 -0.03144 0.51587
 C20 C 0.08212 0.04191 0.48368
 N21 N 0.04495 0.04238 0.48334
 C22 C 0.04056 0.07174 0.47201
 C23 C 0.07430 0.10213 0.46029
 C24 C 0.11676 0.07186 0.47216
 C25 C -0.08506 -0.05951 0.49341
 C26 C -0.11961 -0.08957 0.48231
 C27 C -0.08025 -0.05754 0.45125
 C28 C -0.04645 -0.02809 0.46295
 N29 N -0.04937 -0.02973 0.48364
 H30 H 0.08524 0.01893 0.49315
 H31 H 0.01087 0.07178 0.47231
 H32 H 0.07061 0.12559 0.45145
 H33 H 0.14643 0.07167 0.47264
 H34 H -0.08615 -0.06061 0.50988
 H35 H -0.14750 -0.11368 0.49033
 H36 H -0.07715 -0.05650 0.43481
 H37 H -0.01743 -0.00496 0.45549
 C38 C 0.01799 -0.09285 0.53795
 C39 C -0.02272 0.09656 0.53996
 C40 C -0.11701 -0.08887 0.46103
 C41 C 0.11279 0.10231 0.46043
 C42 C 1.07877 0.03353 0.13904
 H43 H 1.07887 0.06325 0.13908
 C44 C 1.10869 0.02994 0.12753
 H45 H 1.13186 0.05691 0.11860
 C46 C 1.04934 -0.03754 0.15118
 H47 H 1.02673 -0.06340 0.16075
 C48 C 1.07883 -0.04246 0.13987
 H49 H 1.07866 -0.07226 0.14062
 N50 N 1.04985 0.00007 0.15051
 C51 C 0.94860 0.02855 0.15996
 H52 H 0.94829 0.02893 0.17643
 C53 C 0.91813 0.03292 0.14871
 H54 H 0.89439 0.03696 0.15650
 C55 C 0.97847 0.02052 0.12967
 H56 H 1.00117 0.01439 0.12235
 C57 C 0.94853 0.02474 0.11785
 H58 H 0.94860 0.02232 0.10144
 Zn59 Zn 1.01365 0.01023 0.16683
 N60 N 0.97785 0.02232 0.15034
 C61 C 1.04848 0.09336 0.18277
 N62 N 1.04929 0.05643 0.18337
 C63 C 1.07802 0.05189 0.19502
 C64 C 1.10734 0.08520 0.20682
 C65 C 1.07738 0.12759 0.19436
 C66 C 0.94865 -0.07334 0.17342
 C67 C 0.91794 -0.10824 0.18455
 C68 C 0.94757 -0.06975 0.21551
 C69 C 0.97773 -0.03554 0.20380
 N70 N 0.97761 -0.03787 0.18314
 H71 H 1.02605 0.09663 0.17305
 H72 H 1.07836 0.02240 0.19493
 H73 H 1.13030 0.08138 0.21593
 H74 H 1.07692 0.15707 0.19368
 H75 H 0.94871 -0.07397 0.15695
 H76 H 0.89442 -0.13600 0.17667
 H77 H 0.94723 -0.06731 0.23190
 H78 H 1.00019 -0.00672 0.21122
 C79 C 0.91785 0.03056 0.12748
 C80 C 1.10887 -0.00830 0.12802
 C81 C 0.91715 -0.10622 0.20577
 C82 C 1.10714 0.12343 0.20643
 C83 C 0.03514 0.96343 0.86156
 H84 H 0.00550 0.93366 0.86123
 C85 C 0.06873 0.96697 0.87348
 H86 H 0.06497 0.93992 0.88245
 C87 C 0.07678 1.03468 0.84974
 H88 H 0.08002 1.06064 0.84012
 C89 C 0.11127 1.03957 0.86146
 H90 H 0.14092 1.06942 0.86098
 N91 N 0.03965 0.99701 0.85005
 C92 C -0.09020 0.96846 0.83888
 H93 H -0.09075 0.96842 0.82240
 C94 C -0.12511 0.96395 0.84964
 H95 H -0.15278 0.96013 0.84140
 C96 C -0.05253 0.97582 0.86969
 H97 H -0.02373 0.98178 0.87741
 C98 C -0.08675 0.97145 0.88105
 H99 H -0.08426 0.97358 0.89749
 Zn100 Zn -0.00671 0.98708 0.83313
 N101 N -0.05479 0.97446 0.84899
 C102 C -0.05490 0.90428 0.81671
 N103 N -0.01716 0.94135 0.81648
 C104 C 0.01618 0.94626 0.80522
 C105 C 0.01233 0.91317 0.79351
 C106 C -0.06009 0.87028 0.80519
 C107 C 0.01186 1.07065 0.82685
 C108 C 0.01632 1.10594 0.81583
 C109 C 0.00786 1.06863 0.78468
 C110 C 0.00356 1.03400 0.79627
 N111 N 0.00546 1.03558 0.81698
 H112 H -0.08066 0.90071 0.82612
 H113 H 0.04601 0.97584 0.80561
 H114 H 0.03920 0.91726 0.78475
 H115 H -0.08999 0.84067 0.80561
 H116 H 0.01233 1.07068 0.84333
 H117 H 0.02053 1.13340 0.82382
 H118 H 0.00537 1.06682 0.76823
 H119 H -0.00272 1.00548 0.78873
 C120 C -0.12319 0.96593 0.87091
 C121 C 0.10719 1.00530 0.87335
 C122 C 0.01387 1.10473 0.79457
 C123 C -0.02606 0.87478 0.79357
 C124 C 0.46860 -0.00553 -0.01101
 C125 C 0.47022 -0.00430 0.01043
 C126 C 0.50471 -0.00308 0.02077
 C127 C 0.53731 -0.00368 0.00996
 C128 C 0.53502 -0.00626 -0.01143
 C129 C 0.50083 -0.00686 -0.02180
 H130 H 0.49935 -0.00828 -0.03830
 H131 H 0.50623 -0.00155 0.03726
 C132 C -0.01385 0.45837 0.65577
 C133 C -0.01363 0.45763 0.67724
 C134 C -0.01421 0.49026 0.68775
 C135 C -0.01424 0.52400 0.67706
 C136 C -0.01303 0.52546 0.65560
 C137 C -0.01323 0.49244 0.64508
 H138 H -0.01279 0.49331 0.62855
 H139 H -0.01452 0.48944 0.70428
 C140 C 0.53971 0.54357 0.32350
 C141 C 0.53876 0.54345 0.34495
 C142 C 0.50519 0.50969 0.35554
 C143 C 0.47225 0.47639 0.34493
 C144 C 0.47254 0.47719 0.32347
 C145 C 0.50642 0.51061 0.31288
 H146 H 0.50690 0.51095 0.29636
 H147 H 0.50472 0.50933 0.37207
 C148 C -0.02673 0.12747 0.55141
 C149 C -0.02872 0.15427 0.56090
 C150 C -0.02968 0.18716 0.57210
 C151 C -0.01308 0.19604 0.59186
 C152 C -0.01195 0.22941 0.60239
 C153 C -0.02735 0.25443 0.59326
 C154 C -0.04444 0.24492 0.57347
 C155 C -0.04555 0.21151 0.56297
 C156 C -0.02492 0.29073 0.60418
 C157 C -0.01326 0.32923 0.59373
 C158 C -0.01055 0.36355 0.60404
 C159 C -0.01947 0.35987 0.62490
 C160 C -0.03113 0.32172 0.63543
 C161 C -0.03381 0.28736 0.62516
 C162 C -0.01696 0.39507 0.63549
 C163 C -0.01524 0.42419 0.64455
 H164 H -0.00043 0.17758 0.59902
 H165 H 0.00187 0.23625 0.61749
 H166 H -0.05705 0.26322 0.56613
 H167 H -0.05842 0.20494 0.54767
 H168 H -0.00562 0.33302 0.57765
 H169 H -0.00142 0.39297 0.59575
 H170 H -0.03832 0.31847 0.65156
 H171 H -0.04335 0.25802 0.63357
 C172 C 0.88357 0.85975 0.21738
 C173 C 0.85476 0.83183 0.22704
 C174 C 0.81970 0.79911 0.23850
 C175 C 0.79391 0.80925 0.24989
 C176 C 0.75914 0.77751 0.26064
 C177 C 0.74964 0.73510 0.26013
 C178 C 0.77592 0.72525 0.24873
 C179 C 0.81071 0.75708 0.23798
 C180 C 0.71223 0.70127 0.27127
 C181 C 0.68633 0.66167 0.26239
 C182 C 0.65093 0.62995 0.27280
 C183 C 0.64091 0.63737 0.29220
 C184 C 0.66644 0.67663 0.30117
 C185 C 0.70187 0.70839 0.29079
 C186 C 0.60482 0.60450 0.30301
 C187 C 0.57491 0.57684 0.31221
 H188 H 0.80046 0.84167 0.25031
 H189 H 0.73922 0.78604 0.26904
 H190 H 0.76977 0.69300 0.24824
 H191 H 0.83049 0.74889 0.22923
 H192 H 0.69311 0.65541 0.24728
 H193 H 0.63135 0.59967 0.26572
 H194 H 0.65904 0.68264 0.31621
 H195 H 0.72145 0.73833 0.29814
 C196 C 0.14267 0.00856 -0.11521
 C197 C 0.17200 0.01005 -0.10576
 C198 C 0.20659 0.01054 -0.09465
 C199 C 0.20127 -0.00302 -0.07421
 C200 C 0.23417 -0.00451 -0.06368
 C201 C 0.27282 0.00745 -0.07350
 C202 C 0.27800 0.02146 -0.09400
 C203 C 0.24508 0.02296 -0.10449
 C204 C 0.30735 0.00472 -0.06252
 C205 C 0.33116 -0.01034 -0.07236
 C206 C 0.36356 -0.01307 -0.06202
 C207 C 0.37261 -0.00079 -0.04172
 C208 C 0.34911 0.01420 -0.03178
 C209 C 0.31665 0.01690 -0.04208
 C210 C 0.40627 -0.00312 -0.03114
 C211 C 0.43458 -0.00458 -0.02212
 H212 H 0.17150 -0.01298 -0.06649
 H213 H 0.22901 -0.01592 -0.04800
 H214 H 0.30756 0.03142 -0.10189
 H215 H 0.24952 0.03346 -0.12032
 H216 H 0.32436 -0.02053 -0.08798
 H217 H 0.38152 -0.02477 -0.06984
 H218 H 0.35603 0.02401 -0.01610
 H219 H 0.29923 0.02907 -0.03416
 C220 C 0.01854 0.87309 0.54926
 C221 C 0.01780 0.84379 0.55859
 C222 C 0.01571 0.80807 0.56953
 C223 C 0.02613 0.81090 0.59025
 C224 C 0.02272 0.77566 0.60097
 C225 C 0.00880 0.73709 0.59109
 C226 C -0.00138 0.73469 0.57023
 C227 C 0.00204 0.76994 0.55955
 C228 C 0.00460 0.69943 0.60248
 C229 C 0.01678 0.67256 0.59344
 C230 C 0.01249 0.63692 0.60409
 C231 C -0.00404 0.62759 0.62387
 C232 C -0.01620 0.65411 0.63302
 C233 C -0.01191 0.68981 0.62240
 C234 C -0.00791 0.59118 0.63488
 C235 C -0.01063 0.56099 0.64420
 H236 H 0.03671 0.84026 0.59813
 H237 H 0.03130 0.77867 0.61694
 H238 H -0.01274 0.70533 0.56225
 H239 H -0.00637 0.76732 0.54355
 H240 H 0.03012 0.67941 0.57825
 H241 H 0.02223 0.61672 0.59692
 H242 H -0.02905 0.64715 0.64833
 H243 H -0.02208 0.70954 0.62967
 C244 C 0.13849 0.15854 0.21786
 C245 C 0.16562 0.18744 0.22739
 C246 C 0.19888 0.22140 0.23867
 C247 C 0.22395 0.26120 0.22931
 C248 C 0.25767 0.29355 0.23993
 C249 C 0.26678 0.28646 0.26007
 C250 C 0.24104 0.24647 0.26942
 C251 C 0.20737 0.21416 0.25877
 C252 C 0.30340 0.32036 0.27116
 C253 C 0.30004 0.32677 0.29194
 C254 C 0.33468 0.35849 0.30237
 C255 C 0.37312 0.38413 0.29220
 C256 C 0.37680 0.37802 0.27155
 C257 C 0.34219 0.34637 0.26108
 C258 C 0.40863 0.41686 0.30295
 C259 C 0.43802 0.44432 0.31213
 H260 H 0.21769 0.26712 0.21374
 H261 H 0.27653 0.32415 0.23242
 H262 H 0.24756 0.23985 0.28481
 H263 H 0.18833 0.18337 0.26611
 H264 H 0.27048 0.30762 0.30006
 H265 H 0.33144 0.36311 0.31833
 H266 H 0.40644 0.39765 0.26355
 H267 H 0.34597 0.34182 0.24518
 C268 C 0.84461 -0.03473 -0.11846
 C269 C 0.81657 -0.03410 -0.10918
 C270 C 0.78365 -0.03201 -0.09829
 C271 C 0.76548 -0.05740 -0.08084
 C272 C 0.73417 -0.05448 -0.07007
 C273 C 0.72065 -0.02608 -0.07664
 C274 C 0.73905 -0.00082 -0.09425
 C275 C 0.77032 -0.00378 -0.10498
 C276 C 0.68771 -0.02256 -0.06515
 C277 C 0.65616 -0.01790 -0.07555
 C278 C 0.62541 -0.01418 -0.06474
 C279 C 0.62574 -0.01505 -0.04343
 C280 C 0.65690 -0.01977 -0.03293
 C281 C 0.68770 -0.02349 -0.04371
 C282 C 0.59391 -0.01148 -0.03233
 C283 C 0.56716 -0.00883 -0.02292
 H284 H 0.77556 -0.07937 -0.07553
 H285 H 0.72026 -0.07472 -0.05672
 H286 H 0.72979 0.02177 -0.09954
 H287 H 0.78435 0.01619 -0.11841
 H288 H 0.65496 -0.01765 -0.09204
 H289 H 0.60129 -0.01075 -0.07301
 H290 H 0.65742 -0.02051 -0.01642
 H291 H 0.71186 -0.02649 -0.03526
 C292 C 0.14099 -0.01153 0.11700
 C293 C 0.16882 -0.01279 0.10786
 C294 C 0.20298 -0.01278 0.09708
 C295 C 0.19458 -0.04408 0.08293
 C296 C 0.22795 -0.04336 0.07225
 C297 C 0.27016 -0.01128 0.07561
 C298 C 0.27821 0.01995 0.08990
 C299 C 0.24484 0.01917 0.10054
 C300 C 0.30568 -0.01017 0.06419
 C301 C 0.34427 0.00059 0.07403
 C302 C 0.37787 0.00210 0.06324
 C303 C 0.37338 -0.00709 0.04250
 C304 C 0.33511 -0.01794 0.03258
 C305 C 0.30146 -0.01947 0.04334
 C306 C 0.40791 -0.00565 0.03142
 C307 C 0.43654 -0.00476 0.02199
 H308 H 0.16229 -0.06898 0.08014
 H309 H 0.22078 -0.06812 0.06153
 H310 H 0.31026 0.04539 0.09262
 H311 H 0.25168 0.04368 0.11138
 H312 H 0.34832 0.00736 0.09012
 H313 H 0.40730 0.01034 0.07109
 H314 H 0.33131 -0.02514 0.01652
 H315 H 0.27238 -0.02732 0.03527
 C316 C 0.85242 0.88127 0.45049
 C317 C 0.82470 0.85310 0.44083
 C318 C 0.79223 0.81876 0.42941
 C319 C 0.75004 0.80949 0.43037
 C320 C 0.71842 0.77531 0.41971
 C321 C 0.72864 0.74994 0.40793
 C322 C 0.77121 0.75974 0.40697
 C323 C 0.80274 0.79389 0.41765
 C324 C 0.69503 0.71314 0.39689
 C325 C 0.70252 0.70403 0.37718
 C326 C 0.67098 0.66915 0.36689
 C327 C 0.63158 0.64293 0.37614
 C328 C 0.62379 0.65171 0.39571
 C329 C 0.65528 0.68656 0.40604
 C330 C 0.59897 0.60740 0.36541
 C331 C 0.57159 0.57800 0.35625
 H332 H 0.74155 0.82855 0.43943
 H333 H 0.68604 0.76892 0.42054
 H334 H 0.78003 0.74050 0.39828
 H335 H 0.83528 0.80066 0.41689
 H336 H 0.73257 0.72416 0.36963
 H337 H 0.67729 0.66271 0.35171
 H338 H 0.59340 0.63159 0.40301
 H339 H 0.64874 0.69237 0.42129
 C340 C 0.01479 0.13929 0.78304
 C341 C 0.01440 0.16780 0.77349
 C342 C 0.01277 0.20135 0.76222
 C343 C 0.02599 0.24027 0.77134
 C344 C 0.02277 0.27228 0.76071
 C345 C 0.00621 0.26575 0.74080
 C346 C -0.00664 0.22662 0.73170
 C347 C -0.00341 0.19465 0.74237
 C348 C 0.00195 0.29941 0.72965
 C349 C 0.01161 0.30741 0.70875
 C350 C 0.00764 0.33916 0.69830
 C351 C -0.00612 0.36325 0.70857
 C352 C -0.01594 0.35547 0.72933
 C353 C -0.01194 0.32378 0.73982
 C354 C -0.00953 0.39632 0.69783
 C355 C -0.01181 0.42417 0.68863
 H356 H 0.03853 0.24578 0.78672
 H357 H 0.03347 0.30224 0.76802
 H358 H -0.02000 0.22042 0.71650
 H359 H -0.01400 0.16453 0.73521
 H360 H 0.02286 0.28957 0.70055
 H361 H 0.01556 0.34510 0.68225
 H362 H -0.02667 0.37391 0.73741
 H363 H -0.02020 0.31798 0.75582
 C364 C 0.88455 0.03132 0.11575
 C365 C 0.85590 0.03074 0.10606
 C366 C 0.82095 0.02882 0.09466
 C367 C 0.79388 0.04056 0.10370
 C368 C 0.75876 0.03683 0.09299
 C369 C 0.75021 0.02125 0.07307
 C370 C 0.77790 0.00997 0.06404
 C371 C 0.81299 0.01369 0.07479
 C372 C 0.71227 0.01623 0.06189
 C373 C 0.71465 0.02674 0.04098
 C374 C 0.67887 0.02200 0.03051
 C375 C 0.64026 0.00660 0.04077
 C376 C 0.63752 -0.00408 0.06153
 C377 C 0.67326 0.00069 0.07204
 C378 C 0.60363 0.00233 0.03005
 C379 C 0.57321 -0.00076 0.02099
 H380 H 0.79973 0.05227 0.11908
 H381 H 0.73839 0.04633 0.10025
 H382 H 0.77190 -0.00260 0.04884
 H383 H 0.83359 0.00426 0.06770
 H384 H 0.74432 0.03923 0.03280
 H385 H 0.68138 0.03058 0.01445
 H386 H 0.60776 -0.01608 0.06961
 H387 H 0.67024 -0.00827 0.08805
 C388 C 0.14833 0.13473 0.44911
 C389 C 0.17762 0.16271 0.43972
 C390 C 0.21208 0.19694 0.42861
 C391 C 0.20573 0.20698 0.40863
 C392 C 0.23853 0.24150 0.39814
 C393 C 0.27814 0.26653 0.40754
 C394 C 0.28433 0.25590 0.42756
 C395 C 0.25149 0.22134 0.43801
 C396 C 0.31260 0.30395 0.39662
 C397 C 0.33816 0.34189 0.40693
 C398 C 0.37038 0.37723 0.39662
 C399 C 0.37749 0.37513 0.37591
 C400 C 0.35229 0.33755 0.36552
 C401 C 0.32001 0.30219 0.37578
 C402 C 0.41084 0.41134 0.36532
 C403 C 0.43880 0.44128 0.35622
 H404 H 0.17525 0.18847 0.40125
 H405 H 0.23259 0.24917 0.38285
 H406 H 0.31462 0.27420 0.43511
 H407 H 0.25673 0.21388 0.45348
 H408 H 0.33285 0.34445 0.42288
 H409 H 0.38967 0.40619 0.40480
 H410 H 0.35769 0.33552 0.34950
 H411 H 0.30123 0.27331 0.36749
 C412 C -0.02959 0.83980 0.78235
 C413 C -0.03119 0.81091 0.77310
 C414 C -0.03173 0.77689 0.76224
 C415 C -0.02203 0.74865 0.77249
 C416 C -0.02072 0.71663 0.76187
 C417 C -0.02904 0.71244 0.74081
 C418 C -0.03909 0.74079 0.73067
 C419 C -0.04040 0.77281 0.74133
 C420 C -0.02665 0.67898 0.72946
 C421 C -0.00814 0.68774 0.70996
 C422 C -0.00526 0.65642 0.69946
 C423 C -0.02084 0.61597 0.70829
 C424 C -0.03947 0.60688 0.72763
 C425 C -0.04236 0.63815 0.73816
 C426 C -0.01802 0.58370 0.69746
 C427 C -0.01602 0.55657 0.68828
 H428 H -0.01497 0.75171 0.78864
 H429 H -0.01230 0.69571 0.77006
 H430 H -0.04616 0.73806 0.71452
 H431 H -0.04788 0.79455 0.73325
 H432 H 0.00474 0.71900 0.70297
 H433 H 0.00927 0.66379 0.68450
 H434 H -0.05183 0.57560 0.73456
 H435 H -0.05729 0.63025 0.75302
   
