data_POSCAR
  _audit_creation_date              2014-09-24
  _audit_creation_method            'ToBaCCo'
  _symmetry_space_group_name_H-M    'P1'
  _symmetry_Int_Tables_number       1
  _symmetry_cell_setting            triclinic
  loop_
  _symmetry_equiv_pos_as_xyz
 x,y,z
_cell_length_a 20.8747
_cell_length_b 20.9153
_cell_length_c 20.9517
_cell_angle_alpha 101.707700
_cell_angle_beta 77.892300
_cell_angle_gamma 77.474100
loop_
  _atom_site_label
  _atom_site_type_symbol
  _atom_site_fract_x
  _atom_site_fract_y
  _atom_site_fract_z
C1 C 0.56299 0.51307 0.00497
 C2 C 0.51289 0.56349 -0.00654
 C3 C 0.45055 0.55108 -0.01177
 C4 C 0.43729 0.48932 -0.00594
 C5 C 0.48734 0.43900 0.00548
 C6 C 0.54963 0.45132 0.01074
 H7 H 0.58817 0.41221 0.01914
 H8 H 0.41181 0.59005 -0.02017
 C9 C -0.00607 0.43872 0.51282
 C10 C 0.00639 0.48764 0.56212
 C11 C 0.01207 0.54964 0.54932
 C12 C 0.00573 0.56359 0.48792
 C13 C -0.00668 0.51454 0.43853
 C14 C -0.01236 0.45258 0.45144
 H15 H -0.02146 0.41464 0.41322
 H16 H 0.02117 0.58743 0.58772
 C17 C 0.48891 0.00474 0.43820
 C18 C 0.43903 -0.00726 0.48747
 C19 C 0.45131 -0.01242 0.54970
 C20 C 0.51276 -0.00601 0.56366
 C21 C 0.56282 0.00601 0.51421
 C22 C 0.55035 0.01116 0.45196
 H23 H 0.58892 0.01995 0.41363
 H24 H 0.41241 -0.02121 0.58768
 O25 O 0.45550 -0.00290 -0.08391
 O26 O 0.43442 0.01808 0.09893
 O27 O 0.43361 0.09938 0.01871
 O28 O 0.45619 -0.08413 -0.00371
 O29 O 0.56738 -0.10082 -0.02026
 O30 O 0.54480 0.08272 0.00214
 O31 O 0.54560 0.00149 0.08230
 O32 O 0.56668 -0.01952 -0.10054
 Cu33 Cu 0.43375 0.00918 0.00908
 Cu34 Cu 0.56730 -0.01062 -0.01068
 C35 C 0.51433 -0.01370 -0.12291
 C36 C 0.48677 0.01230 0.12130
 C37 C 0.48572 0.12185 0.01317
 C38 C 0.51525 -0.12327 -0.01469
 O39 O -0.10032 0.56671 1.01783
 O40 O 0.08349 0.54554 0.99674
 O41 O 0.00352 0.54398 0.91570
 O42 O -0.02029 0.56818 1.09898
 O43 O -0.00328 0.45749 1.08457
 O44 O 0.02054 0.43329 0.90129
 O45 O 0.10059 0.43487 0.98240
 O46 O -0.08324 0.45603 1.00349
 Cu47 Cu -0.01003 0.56724 1.00867
 Cu48 Cu 0.01029 0.43428 0.99160
 C49 C -0.12262 0.51462 1.01315
 C50 C 0.12289 0.48696 0.98703
 C51 C 0.01495 0.48491 0.87775
 C52 C -0.01473 0.51656 1.12252
 O53 O 0.01781 -0.09976 0.43403
 O54 O -0.00454 0.08377 0.45659
 O55 O 0.09880 -0.01995 0.43327
 O56 O -0.08550 0.00403 0.45750
 O57 O -0.10038 0.01890 0.56772
 O58 O 0.08390 -0.00509 0.54350
 O59 O -0.01935 0.09871 0.56681
 O60 O 0.00299 -0.08482 0.54424
 Cu61 Cu 0.00803 -0.00938 0.43424
 Cu62 Cu -0.00961 0.00834 0.56667
 C63 C 0.01312 -0.12308 0.48567
 C64 C -0.01463 0.12202 0.51516
 C65 C 0.12226 -0.01549 0.48466
 C66 C -0.12384 0.01441 0.51633
 C67 C -0.37475 0.52133 1.00959
 C68 C -0.31859 0.52476 1.01309
 C69 C -0.25148 0.52452 1.01574
 C70 C -0.19316 0.52133 1.01602
 C71 C 0.37512 0.48078 0.98965
 C72 C 0.31896 0.47714 0.98638
 C73 C 0.25182 0.47719 0.98402
 C74 C 0.19346 0.48027 0.98396
 C75 C 0.01046 -0.37455 0.47894
 C76 C 0.01395 -0.31861 0.47510
 C77 C 0.01643 -0.25170 0.47518
 C78 C 0.01645 -0.19349 0.47850
 C79 C -0.01132 0.37343 0.52232
 C80 C -0.01497 0.31748 0.52591
 C81 C -0.01766 0.25059 0.52567
 C82 C -0.01783 0.19241 0.52231
 C83 C 0.52105 -0.01050 -0.37418
 C84 C 0.52449 -0.01388 -0.31815
 C85 C 0.52424 -0.01641 -0.25124
 C86 C 0.52105 -0.01662 -0.19314
 C87 C 0.47990 0.00947 0.37267
 C88 C 0.47655 0.01277 0.31660
 C89 C 0.47685 0.01519 0.24966
 C90 C 0.48005 0.01531 0.19154
 C91 C 0.52193 -0.37471 -0.01150
 C92 C 0.52581 -0.31884 -0.01517
 C93 C 0.52576 -0.25195 -0.01783
 C94 C 0.52245 -0.19372 -0.01795
 C95 C 0.47791 0.37367 0.01067
 C96 C 0.47446 0.31765 0.01418
 C97 C 0.47491 0.25063 0.01663
 C98 C 0.47844 0.19234 0.01658
 C99 C -0.37558 0.01138 0.52368
 C100 C -0.31977 0.01529 0.52776
 C101 C -0.25285 0.01804 0.52765
 C102 C -0.19451 0.01804 0.52406
 C103 C 0.37412 -0.01293 0.47719
 C104 C 0.31827 -0.01673 0.47321
 C105 C 0.25131 -0.01934 0.47336
 C106 C 0.19294 -0.01923 0.47694
 C107 C -0.01227 0.52458 1.37357
 C108 C -0.01602 0.52836 1.31780
 C109 C -0.01858 0.52803 1.25102
 C110 C -0.01846 0.52434 1.19287
 C111 C 0.01204 0.47728 0.62690
 C112 C 0.01589 0.47331 0.68259
 C113 C 0.01859 0.47351 0.74931
 C114 C 0.01858 0.47714 0.80743
   
