data_POSCAR
  _audit_creation_date              2014-09-24
  _audit_creation_method            'ToBaCCo'
  _symmetry_space_group_name_H-M    'P1'
  _symmetry_Int_Tables_number       1
  _symmetry_cell_setting            triclinic
  loop_
  _symmetry_equiv_pos_as_xyz
 x,y,z
_cell_length_a 42.7306
_cell_length_b 48.6910
_cell_length_c 48.4139
_cell_angle_alpha 93.584600
_cell_angle_beta 88.588100
_cell_angle_gamma 94.547500
loop_
  _atom_site_label
  _atom_site_type_symbol
  _atom_site_fract_x
  _atom_site_fract_y
  _atom_site_fract_z
N1 N 0.19353 1.27838 0.19811
 N2 N 0.16997 1.27553 0.21591
 C3 C 0.15057 1.29555 0.21307
 C4 C 0.16239 1.31195 0.19211
 C5 C 0.18995 1.30036 0.18328
 H6 H 0.12878 1.29716 0.22462
 H7 H 0.20611 1.30692 0.16703
 Cu8 Cu 0.16566 1.24441 0.23930
 Cu9 Cu 0.22657 1.25273 0.19518
 Cu10 Cu 0.20497 1.18933 0.22217
 N11 N 0.16430 1.21369 0.26322
 N12 N 0.17983 1.19200 0.25628
 C13 C 0.17332 1.17283 0.27484
 C14 C 0.15232 1.18292 0.29466
 C15 C 0.14732 1.20911 0.28649
 H16 H 0.18246 1.15271 0.27319
 H17 H 0.13197 1.22359 0.29621
 N18 N 0.23978 1.19506 0.19525
 N19 N 0.24910 1.21941 0.18608
 C20 C 0.27415 1.21665 0.16896
 C21 C 0.28069 1.18919 0.16713
 C22 C 0.25843 1.17615 0.18409
 H23 H 0.28615 1.23323 0.15803
 H24 H 0.25631 1.15454 0.18838
 H25 H 0.19226 1.22218 0.19979
 H26 H 0.21825 1.22961 0.23017
 N27 N 0.77370 0.73185 0.16368
 N28 N 0.79908 0.73880 0.17805
 C29 C 0.82101 0.72122 0.17067
 C30 C 0.80866 0.70205 0.15059
 C31 C 0.77847 0.70954 0.14676
 H32 H 0.84437 0.72279 0.17898
 H33 H 0.76134 0.69991 0.13243
 Cu34 Cu 0.80214 0.77104 0.20413
 Cu35 Cu 0.73773 0.75379 0.16694
 Cu36 Cu 0.73146 0.79855 0.22167
 N37 N 0.79610 0.79596 0.23728
 N38 N 0.76863 0.80473 0.24502
 C39 C 0.77163 0.81969 0.26926
 C40 C 0.80280 0.82086 0.27709
 C41 C 0.81753 0.80547 0.25616
 H42 H 0.75269 0.82992 0.27966
 H43 H 0.84184 0.80080 0.25499
 N44 N 0.70606 0.80014 0.18889
 N45 N 0.70879 0.78264 0.16735
 C46 C 0.69023 0.78924 0.14715
 C47 C 0.67499 0.81227 0.15644
 C48 C 0.68555 0.81852 0.18315
 H49 H 0.68901 0.77871 0.12683
 H50 H 0.67949 0.83553 0.19718
 H51 H 0.76517 0.79277 0.19266
 H52 H 0.75621 0.76266 0.21431
 N53 N 0.84119 1.24329 -0.17655
 N54 N 0.86402 1.24201 -0.19511
 C55 C 0.88525 1.26359 -0.19033
 C56 C 0.87530 1.27932 -0.16739
 C57 C 0.84715 1.26572 -0.15922
 H58 H 0.90663 1.26722 -0.20238
 H59 H 0.83204 1.27164 -0.14201
 Cu60 Cu 0.86473 1.21186 -0.22324
 Cu61 Cu 0.80573 1.21559 -0.17627
 Cu62 Cu 0.80090 1.16725 -0.23201
 N63 N 0.85986 1.18701 -0.25602
 N64 N 0.83499 1.16963 -0.25954
 C65 C 0.83879 1.15393 -0.28311
 C66 C 0.86780 1.16182 -0.29511
 C67 C 0.88027 1.18311 -0.27720
 H68 H 0.82197 1.13749 -0.29036
 H69 H 0.90287 1.19455 -0.27883
 N70 N 0.76908 1.16823 -0.20177
 N71 N 0.77167 1.18597 -0.18003
 C72 C 0.74816 1.17991 -0.16187
 C73 C 0.72969 1.15745 -0.17279
 C74 C 0.74352 1.15065 -0.19816
 H75 H 0.74480 1.19086 -0.14203
 H76 H 0.73626 1.13338 -0.21231
 H77 H 0.82591 1.18312 -0.19795
 H78 H 0.80782 1.20847 -0.21892
 N79 N 0.17356 0.75419 -0.18690
 N80 N 0.15053 0.75209 -0.20456
 C81 C 0.13055 0.73029 -0.19876
 C82 C 0.14164 0.71805 -0.17618
 C83 C 0.16907 0.73387 -0.16931
 H84 H 0.10934 0.72406 -0.20993
 H85 H 0.18428 0.73136 -0.15230
 Cu86 Cu 0.14844 0.77886 -0.23257
 Cu87 Cu 0.20681 0.78392 -0.18695
 Cu88 Cu 0.20409 0.83127 -0.23728
 N89 N 0.14725 0.80537 -0.26092
 N90 N 0.16931 0.82557 -0.26286
 C91 C 0.16275 0.84104 -0.28372
 C92 C 0.13480 0.83014 -0.29561
 C93 C 0.12578 0.80738 -0.28045
 H94 H 0.17706 0.85924 -0.28924
 H95 H 0.10508 0.79335 -0.28318
 N96 N 0.23730 0.83347 -0.20945
 N97 N 0.23825 0.81542 -0.19032
 C98 C 0.26249 0.82317 -0.17362
 C99 C 0.27759 0.84736 -0.18251
 C100 C 0.26097 0.85319 -0.20538
 H101 H 0.26835 0.81224 -0.15595
 H102 H 0.26508 0.87104 -0.21753
 H103 H 0.18125 0.81251 -0.20452
 H104 H 0.20475 0.79040 -0.22863
 C105 C 0.54178 1.05301 0.00489
 H106 H 0.53595 1.05756 0.02648
 C107 C 0.56482 1.06966 -0.00836
 H108 H 0.57583 1.08746 0.00315
 C109 C 0.53404 1.02425 -0.03603
 H110 H 0.52245 1.00612 -0.04650
 C111 C 0.55752 1.03996 -0.04992
 H112 H 0.56374 1.03350 -0.07100
 N113 N 0.52674 1.03095 -0.00909
 C114 C 0.44675 1.01398 0.04669
 H115 H 0.44901 0.99227 0.04900
 C116 C 0.42281 1.02714 0.06089
 H117 H 0.40731 1.01543 0.07462
 C118 C 0.46464 1.05536 0.02609
 H119 H 0.48049 1.06609 0.01194
 C120 C 0.44070 1.06928 0.03960
 H121 H 0.43854 1.09067 0.03566
 Zn122 Zn 0.49810 1.00786 0.01104
 N123 N 0.46741 1.02825 0.03009
 C124 C 0.51768 0.99354 0.06403
 N125 N 0.52191 0.99004 0.03612
 C126 C 0.54391 0.97374 0.02490
 C127 C 0.56157 0.95899 0.04183
 C128 C 0.53498 0.97927 0.08177
 C129 C 0.45745 0.99116 -0.03210
 C130 C 0.43777 0.97295 -0.04849
 C131 C 0.45677 0.93501 -0.02562
 C132 C 0.47596 0.95395 -0.00957
 N133 N 0.47586 0.98147 -0.01297
 H134 H 0.50086 1.00728 0.07266
 H135 H 0.54730 0.97182 0.00266
 H136 H 0.57875 0.94589 0.03247
 H137 H 0.53077 0.98175 0.10390
 H138 H 0.45741 1.01318 -0.03401
 H139 H 0.42248 0.98120 -0.06288
 H140 H 0.45709 0.91322 -0.02247
 H141 H 0.49012 0.94663 0.00617
 C142 C 0.41938 1.05518 0.05739
 C143 C 0.57346 1.06303 -0.03606
 C144 C 0.43691 0.94445 -0.04508
 C145 C 0.55693 0.96140 0.07066
 C146 C 0.00178 0.52935 1.06800
 H147 H 0.01674 0.51585 1.07741
 C148 C -0.01532 0.54743 1.08478
 H149 H -0.01377 0.54728 1.10706
 C150 C -0.01816 0.54622 1.02762
 H151 H -0.01870 0.54586 1.00527
 C152 C -0.03559 0.56462 1.04358
 H153 H -0.04938 0.57852 1.03330
 N154 N -0.00004 0.52901 1.03997
 C155 C 0.08254 0.49057 1.03602
 H156 H 0.09360 0.50611 1.02324
 C157 C 0.10118 0.47441 1.05067
 H158 H 0.12647 0.47817 1.04943
 C159 C 0.03628 0.46660 1.05293
 H160 H 0.01093 0.46345 1.05332
 C161 C 0.05398 0.44987 1.06771
 H162 H 0.04194 0.43369 1.07922
 Zn163 Zn 0.02441 0.50630 1.01650
 N164 N 0.05069 0.48646 1.03749
 C165 C 0.06677 0.55098 1.00508
 N166 N 0.04838 0.52977 0.99293
 C167 C 0.04562 0.52672 0.96495
 C168 C 0.06197 0.54539 0.94802
 C169 C 0.08360 0.57005 0.98894
 C170 C -0.03350 0.47893 0.99838
 C171 C -0.05221 0.45818 0.98406
 C172 C -0.00513 0.43974 0.96451
 C173 C 0.01266 0.46080 0.97920
 N174 N -0.00168 0.47990 0.99565
 H175 H 0.06797 0.55327 1.02741
 H176 H 0.03035 0.51010 0.95570
 H177 H 0.05957 0.54262 0.92578
 H178 H 0.09769 0.58707 0.99904
 H179 H -0.04446 0.49395 1.01197
 H180 H -0.07751 0.45781 0.98639
 H181 H 0.00679 0.42443 0.95196
 H182 H 0.03803 0.46175 0.97784
 C183 C 0.08693 0.45359 1.06667
 C184 C -0.03425 0.56546 1.07259
 C185 C -0.03804 0.43816 0.96693
 C186 C 0.08118 0.56748 0.96001
 C187 C 1.04302 -0.01753 0.52896
 H188 H 1.04305 0.00464 0.52827
 C189 C 1.06028 -0.02876 0.54896
 H190 H 1.07336 -0.01503 0.56374
 C191 C 1.02468 -0.06219 0.51120
 H192 H 1.01019 -0.07516 0.49692
 C193 C 1.04168 -0.07432 0.53084
 H194 H 1.04072 -0.09660 0.53088
 N195 N 1.02602 -0.03424 0.51036
 C196 C 1.01603 0.02136 0.44456
 H197 H 0.99071 0.02001 0.44330
 C198 C 1.03432 0.03807 0.42703
 H199 H 1.02291 0.04950 0.41221
 C200 C 1.06163 0.00718 0.46473
 H201 H 1.07218 -0.00528 0.47910
 C202 C 1.08085 0.02340 0.44734
 H203 H 1.10613 0.02368 0.44880
 Zn204 Zn 1.00282 -0.01640 0.48488
 N205 N 1.02983 0.00661 0.46316
 C206 C 0.97664 0.03264 0.50656
 N207 N 0.97446 0.00460 0.50615
 C208 C 0.95357 -0.00933 0.52285
 C209 C 0.93407 0.00499 0.54121
 C210 C 0.95748 0.04778 0.52451
 C211 C 0.99783 -0.06076 0.44526
 C212 C 0.98363 -0.07853 0.42471
 C213 C 0.93549 -0.05628 0.43330
 C214 C 0.95038 -0.03952 0.45433
 N215 N 0.98105 -0.04197 0.45980
 H216 H 0.99386 0.04341 0.49363
 H217 H 0.95273 -0.03162 0.52242
 H218 H 0.91841 -0.00649 0.55501
 H219 H 0.95969 0.07009 0.52460
 H220 H 1.02244 -0.06176 0.44946
 H221 H 0.99745 -0.09375 0.41408
 H222 H 0.91154 -0.05293 0.42856
 H223 H 0.93780 -0.02376 0.46547
 C224 C 1.06717 0.03916 0.42825
 C225 C 1.05987 -0.05755 0.55004
 C226 C 0.95214 -0.07614 0.41797
 C227 C 0.93618 0.03399 0.54250
 C228 C 0.16069 0.34618 1.15702
 C229 C 0.14539 0.36689 1.14509
 C230 C 0.11781 0.37640 1.15778
 C231 C 0.10616 0.36525 1.18227
 C232 C 0.12112 0.34432 1.19375
 C233 C 0.14839 0.33416 1.18119
 C234 C 0.10194 0.39648 1.14553
 C235 C 0.11287 0.40674 1.12034
 C236 C 0.14053 0.39736 1.10766
 C237 C 0.15681 0.37772 1.12025
 C238 C 0.15108 0.40737 1.08227
 C239 C 0.13398 0.42597 1.06921
 C240 C 0.10615 0.43517 1.08142
 C241 C 0.09610 0.42575 1.10732
 H242 H 0.18153 0.33896 1.14675
 H243 H 0.08512 0.37240 1.19235
 H244 H 0.11100 0.33626 1.21255
 H245 H 0.08066 0.40362 1.15525
 H246 H 0.17793 0.37041 1.11040
 H247 H 0.17219 0.40037 1.07220
 H248 H 0.14211 0.43254 1.04915
 H249 H 0.07503 0.43300 1.11725
 C250 C -0.14552 0.67275 1.14362
 C251 C -0.12990 0.65199 1.12884
 C252 C -0.14426 0.63749 1.10569
 C253 C -0.17405 0.64383 1.09787
 C254 C -0.18938 0.66457 1.11259
 C255 C -0.17529 0.67942 1.13552
 C256 C -0.12851 0.61708 1.09057
 C257 C -0.09844 0.61111 1.09818
 C258 C -0.08416 0.62543 1.12147
 C259 C -0.10001 0.64571 1.13672
 C260 C -0.05408 0.61942 1.12895
 C261 C -0.03808 0.59971 1.11329
 C262 C -0.05188 0.58554 1.08988
 C263 C -0.08228 0.59123 1.08264
 H264 H -0.13430 0.68369 1.16132
 H265 H -0.18542 0.63291 1.08018
 H266 H -0.21217 0.66910 1.10566
 H267 H -0.13950 0.60608 1.07271
 H268 H -0.08896 0.65679 1.15450
 H269 H -0.04275 0.63023 1.14672
 H270 H -0.01456 0.59600 1.11914
 H271 H -0.09338 0.58017 1.06489
 C272 C -0.11719 0.31457 0.87259
 C273 C -0.10081 0.33782 0.88556
 C274 C -0.07512 0.35138 0.87165
 C275 C -0.06648 0.34165 0.84493
 C276 C -0.08281 0.31847 0.83222
 C277 C -0.10818 0.30453 0.84591
 C278 C -0.05828 0.37425 0.88474
 C279 C -0.06665 0.38365 0.91168
 C280 C -0.09252 0.37027 0.92552
 C281 C -0.10948 0.34749 0.91236
 C282 C -0.10079 0.37975 0.95245
 C283 C -0.08334 0.40201 0.96571
 C284 C -0.05732 0.41527 0.95231
 C285 C -0.04930 0.40606 0.92512
 H286 H -0.13652 0.30408 0.88358
 H287 H -0.04694 0.35186 0.83392
 H288 H -0.07547 0.31157 0.81157
 H289 H -0.03847 0.38453 0.87409
 H290 H -0.12921 0.33714 0.92306
 H291 H -0.12052 0.36973 0.96338
 H292 H -0.08979 0.40845 0.98675
 H293 H -0.02956 0.41635 0.91442
 C294 C 0.14255 0.68282 0.85955
 C295 C 0.12797 0.66125 0.87431
 C296 C 0.09709 0.65072 0.86780
 C297 C 0.08147 0.66176 0.84645
 C298 C 0.09607 0.68334 0.83196
 C299 C 0.12665 0.69431 0.83846
 C300 C 0.08220 0.62957 0.88291
 C301 C 0.09773 0.61897 0.90463
 C302 C 0.12872 0.62937 0.91101
 C303 C 0.14370 0.65033 0.89572
 C304 C 0.14408 0.61888 0.93285
 C305 C 0.12874 0.59856 0.94853
 C306 C 0.09783 0.58824 0.94258
 C307 C 0.08256 0.59842 0.92038
 H308 H 0.16621 0.69067 0.86475
 H309 H 0.05780 0.65391 0.84116
 H310 H 0.08306 0.69162 0.81595
 H311 H 0.05842 0.62161 0.87800
 H312 H 0.16741 0.65840 0.90074
 H313 H 0.16786 0.62655 0.93796
 H314 H 0.14113 0.59083 0.96531
 H315 H 0.05858 0.59089 0.91582
 C316 C 1.14610 0.14256 0.32292
 C317 C 1.13041 0.12803 0.34398
 C318 C 1.10593 0.13995 0.35945
 C319 C 1.09820 0.16649 0.35415
 C320 C 1.11398 0.18089 0.33326
 C321 C 1.13777 0.16901 0.31691
 C322 C 1.08933 0.12504 0.37973
 C323 C 1.09691 0.09831 0.38473
 C324 C 1.12197 0.08665 0.36979
 C325 C 1.13857 0.10158 0.34952
 C326 C 1.12972 0.06006 0.37512
 C327 C 1.11236 0.04490 0.39462
 C328 C 1.08687 0.05600 0.40902
 C329 C 1.07951 0.08290 0.40418
 H330 H 1.16462 0.13293 0.31124
 H331 H 1.07964 0.17602 0.36596
 H332 H 1.10676 0.20113 0.32973
 H333 H 1.07026 0.13408 0.39134
 H334 H 1.15752 0.09247 0.33781
 H335 H 1.14892 0.05084 0.36393
 H336 H 1.11831 0.02415 0.39788
 H337 H 1.06012 0.09174 0.41548
 C338 C 1.13163 -0.13657 0.66861
 C339 C 1.11538 -0.12600 0.64729
 C340 C 1.08569 -0.13850 0.63952
 C341 C 1.07297 -0.16160 0.65292
 C342 C 1.08929 -0.17211 0.67405
 C343 C 1.11876 -0.15967 0.68246
 C344 C 1.06912 -0.12767 0.61857
 C345 C 1.08194 -0.10447 0.60524
 C346 C 1.11183 -0.09214 0.61278
 C347 C 1.12835 -0.10297 0.63374
 C348 C 1.12463 -0.06905 0.59934
 C349 C 1.10787 -0.05806 0.57882
 C350 C 1.07794 -0.06988 0.57134
 C351 C 1.06521 -0.09325 0.58462
 H352 H 1.15429 -0.12658 0.67419
 H353 H 1.05027 -0.17151 0.64716
 H354 H 1.07831 -0.18984 0.68386
 H355 H 1.04624 -0.13721 0.61275
 H356 H 1.15121 -0.09339 0.63960
 H357 H 1.14759 -0.05945 0.60475
 H358 H 1.11848 -0.04034 0.56864
 H359 H 1.04200 -0.10238 0.57934
 C360 C 0.84952 -0.16075 0.30258
 C361 C 0.86333 -0.14592 0.32553
 C362 C 0.84420 -0.13602 0.34757
 C363 C 0.81150 -0.14054 0.34593
 C364 C 0.79783 -0.15453 0.32259
 C365 C 0.81659 -0.16503 0.30064
 C366 C 0.85803 -0.12142 0.37066
 C367 C 0.89073 -0.11571 0.37149
 C368 C 0.90974 -0.12492 0.34903
 C369 C 0.89601 -0.14035 0.32643
 C370 C 0.94218 -0.11817 0.34931
 C371 C 0.95574 -0.10227 0.37152
 C372 C 0.93733 -0.09337 0.39442
 C373 C 0.90468 -0.10049 0.39422
 H374 H 0.86465 -0.16800 0.28588
 H375 H 0.79643 -0.13301 0.36258
 H376 H 0.77249 -0.15752 0.32221
 H377 H 0.84332 -0.11404 0.38769
 H378 H 0.91070 -0.14758 0.30932
 H379 H 0.95704 -0.12474 0.33208
 H380 H 0.98069 -0.09656 0.37033
 H381 H 0.88998 -0.09428 0.41168
 C382 C 0.86742 0.12715 0.66560
 C383 C 0.88282 0.11428 0.64291
 C384 C 0.91351 0.12433 0.63519
 C385 C 0.92800 0.14735 0.64982
 C386 C 0.91267 0.15998 0.67238
 C387 C 0.88235 0.14989 0.68101
 C388 C 0.92945 0.11101 0.61322
 C389 C 0.91517 0.08759 0.59891
 C390 C 0.88427 0.07774 0.60623
 C391 C 0.86822 0.09121 0.62813
 C392 C 0.87016 0.05430 0.59180
 C393 C 0.88674 0.04041 0.57072
 C394 C 0.91774 0.04971 0.56363
 C395 C 0.93163 0.07356 0.57772
 H396 H 0.84407 0.11894 0.67135
 H397 H 0.95145 0.15544 0.64403
 H398 H 0.92512 0.17751 0.68309
 H399 H 0.95314 0.11863 0.60753
 H400 H 0.84462 0.08347 0.63393
 H401 H 0.84642 0.04653 0.59701
 H402 H 0.87531 0.02232 0.55997
 H403 H 0.95567 0.08075 0.57285
 C404 C 0.30155 1.14838 0.14114
 C405 C 0.32534 1.13577 0.12579
 C406 C 0.35401 1.15112 0.12011
 C407 C 0.35802 1.17906 0.12930
 C408 C 0.33398 1.19158 0.14421
 C409 C 0.30573 1.17629 0.15053
 C410 C 0.37815 1.13829 0.10541
 C411 C 0.37378 1.11040 0.09600
 C412 C 0.34478 1.09533 0.10110
 C413 C 0.32083 1.10804 0.11608
 C414 C 0.34018 1.06771 0.09119
 C415 C 0.36420 1.05494 0.07665
 C416 C 0.39353 1.06938 0.07200
 C417 C 0.39800 1.09729 0.08166
 H418 H 0.27964 1.13652 0.14550
 H419 H 0.37977 1.19119 0.12503
 H420 H 0.33775 1.21310 0.15130
 H421 H 0.40027 1.14998 0.10131
 H422 H 0.29871 1.09635 0.12022
 H423 H 0.31797 1.05596 0.09465
 H424 H 0.35965 1.03371 0.06889
 H425 H 0.42049 1.10871 0.07853
 C426 C 0.70099 1.14158 -0.13039
 C427 C 0.67566 1.12701 -0.11745
 C428 C 0.65092 1.11401 -0.13356
 C429 C 0.65232 1.11538 -0.16244
 C430 C 0.67805 1.12937 -0.17522
 C431 C 0.70244 1.14272 -0.15931
 C432 C 0.62543 1.09962 -0.12059
 C433 C 0.62482 1.09742 -0.09179
 C434 C 0.64996 1.10990 -0.07584
 C435 C 0.67499 1.12489 -0.08870
 C436 C 0.64986 1.10692 -0.04727
 C437 C 0.62519 1.09163 -0.03454
 C438 C 0.59963 1.07944 -0.04996
 C439 C 0.59966 1.08264 -0.07872
 H440 H 0.71997 1.15144 -0.11799
 H441 H 0.63365 1.10545 -0.17514
 H442 H 0.67868 1.13006 -0.19754
 H443 H 0.60635 1.08981 -0.13293
 H444 H 0.69416 1.13460 -0.07637
 H445 H 0.66913 1.11608 -0.03479
 H446 H 0.62653 1.08901 -0.01259
 H447 H 0.58011 1.07376 -0.09099
 C448 C 0.31268 0.85973 -0.14206
 C449 C 0.33683 0.87641 -0.12887
 C450 C 0.35296 0.89801 -0.14295
 C451 C 0.34479 0.90235 -0.17012
 C452 C 0.32057 0.88572 -0.18307
 C453 C 0.30411 0.86435 -0.16916
 C454 C 0.37666 0.91510 -0.12952
 C455 C 0.38417 0.91102 -0.10208
 C456 C 0.36815 0.88925 -0.08813
 C457 C 0.34471 0.87203 -0.10163
 C458 C 0.37550 0.88528 -0.06071
 C459 C 0.39814 0.90296 -0.04699
 C460 C 0.41409 0.92489 -0.06046
 C461 C 0.40713 0.92860 -0.08819
 H462 H 0.30018 0.84358 -0.13084
 H463 H 0.35696 0.91875 -0.18128
 H464 H 0.31481 0.88966 -0.20402
 H465 H 0.38892 0.93178 -0.14027
 H466 H 0.33232 0.85546 -0.09082
 H467 H 0.36337 0.86875 -0.04970
 H468 H 0.40257 0.89987 -0.02553
 H469 H 0.41947 0.94522 -0.09894
 C470 C 0.64890 0.85550 0.14845
 C471 C 0.63079 0.87085 0.13218
 C472 C 0.61754 0.85845 0.10752
 C473 C 0.62230 0.83088 0.09974
 C474 C 0.64050 0.81583 0.11592
 C475 C 0.65424 0.82799 0.14028
 C476 C 0.60006 0.87385 0.09086
 C477 C 0.59578 0.90159 0.09844
 C478 C 0.60875 0.91398 0.12321
 C479 C 0.62613 0.89852 0.13996
 C480 C 0.60426 0.94170 0.13071
 C481 C 0.58729 0.95708 0.11373
 C482 C 0.57460 0.94504 0.08891
 C483 C 0.57885 0.91718 0.08149
 H484 H 0.65946 0.86528 0.16704
 H485 H 0.61218 0.82102 0.08098
 H486 H 0.64380 0.79461 0.10925
 H487 H 0.59005 0.86433 0.07188
 H488 H 0.63624 0.90807 0.15889
 H489 H 0.61402 0.95154 0.14962
 H490 H 0.58452 0.97855 0.11979
 H491 H 0.56873 0.90757 0.06261
   
