data_POSCAR
  _audit_creation_date              2014-09-24
  _audit_creation_method            'ToBaCCo'
  _symmetry_space_group_name_H-M    'P1'
  _symmetry_Int_Tables_number       1
  _symmetry_cell_setting            triclinic
  loop_
  _symmetry_equiv_pos_as_xyz
 x,y,z
_cell_length_a 55.3218
_cell_length_b 26.1665
_cell_length_c 22.2243
_cell_angle_alpha 89.497700
_cell_angle_beta 89.919200
_cell_angle_gamma 90.253900
loop_
  _atom_site_label
  _atom_site_type_symbol
  _atom_site_fract_x
  _atom_site_fract_y
  _atom_site_fract_z
O1 O 0.76068 0.17669 0.55482
 O2 O 0.71860 0.22304 0.43826
 O3 O 0.76270 0.18648 0.43865
 O4 O 0.71700 0.21325 0.55481
 O5 O 0.73190 0.29103 0.56497
 O6 O 0.77708 0.26468 0.44754
 O7 O 0.73284 0.30130 0.44939
 O8 O 0.77541 0.25471 0.56396
 Cu9 Cu 0.73828 0.19207 0.49539
 Cu10 Cu 0.75583 0.28573 0.50705
 C11 C 0.77528 0.20783 0.57926
 C12 C 0.71812 0.27037 0.42511
 C13 C 0.77803 0.22068 0.42381
 C14 C 0.71662 0.25676 0.57979
 O15 O 0.22267 0.73606 0.43421
 O16 O 0.26332 0.68924 0.55327
 O17 O 0.21987 0.72765 0.55091
 O18 O 0.26615 0.69846 0.43720
 O19 O 0.28120 0.77620 0.44632
 O20 O 0.23516 0.80512 0.56048
 O21 O 0.27864 0.76664 0.56255
 O22 O 0.23766 0.81379 0.44397
 Cu23 Cu 0.24144 0.70512 0.49301
 Cu24 Cu 0.25966 0.79822 0.50435
 C25 C 0.22314 0.78292 0.41876
 C26 C 0.27820 0.71970 0.57793
 C27 C 0.21953 0.77150 0.57500
 C28 C 0.28169 0.73226 0.42252
 O29 O 0.26627 0.29213 -0.56177
 O30 O 0.22354 0.26053 -0.43909
 O31 O 0.26706 0.29977 -0.44663
 O32 O 0.22243 0.25522 -0.55659
 O33 O 0.23749 0.17752 -0.55121
 O34 O 0.28189 0.22179 -0.43912
 O35 O 0.23849 0.18264 -0.43406
 O36 O 0.28140 0.21452 -0.55520
 Cu37 Cu 0.24315 0.28456 -0.50154
 Cu38 Cu 0.26122 0.19126 -0.49428
 C39 C 0.28157 0.25901 -0.57862
 C40 C 0.22371 0.21603 -0.41561
 C41 C 0.28240 0.26876 -0.42497
 C42 C 0.22231 0.20889 -0.57323
 O43 O -0.28267 0.79119 -0.44976
 O44 O -0.23893 0.82472 -0.56810
 O45 O -0.28167 0.78313 -0.56652
 O46 O -0.23896 0.82965 -0.45146
 O47 O -0.22332 0.75246 -0.44466
 O48 O -0.26581 0.70617 -0.55896
 O49 O -0.22309 0.74775 -0.56165
 O50 O -0.26704 0.71401 -0.44251
 Cu51 Cu -0.26216 0.81486 -0.50950
 Cu52 Cu -0.24322 0.72242 -0.50105
 C53 C -0.28254 0.74684 -0.42618
 C54 C -0.22350 0.79218 -0.58539
 C55 C -0.28098 0.73659 -0.58249
 C56 C -0.22365 0.79894 -0.42879
 O57 O -0.03268 0.90629 0.10418
 O58 O -0.05961 0.95236 0.04753
 C59 C -0.05452 0.91865 0.08870
 O60 O 0.03192 1.09131 0.11446
 O61 O 0.05976 1.04835 0.05780
 C62 C 0.05403 1.08023 0.09975
 O63 O -0.03584 1.08118 0.11561
 O64 O -0.06103 1.03712 0.05261
 C65 C -0.05721 1.06700 0.09785
 O66 O 0.03487 0.90657 0.10126
 O67 O 0.06117 0.96060 0.05222
 C68 C 0.05653 0.92297 0.08890
 Zr69 Zr 0.00091 0.93370 0.07140
 O70 O 0.00245 0.92372 0.16589
 O71 O 0.00107 0.85391 0.05753
 Zr72 Zr -0.00128 1.06282 0.08045
 O73 O 0.00037 1.06023 0.17557
 O74 O -0.00529 1.14325 0.08211
 O75 O -0.02172 0.99583 0.08660
 O76 O 0.02055 0.99925 0.08846
 O77 O 0.03702 0.91849 -0.10816
 O78 O 0.06225 0.96642 -0.04910
 C79 C 0.05839 0.93315 -0.09098
 O80 O -0.03353 1.09315 -0.10727
 O81 O -0.06001 1.04284 -0.05361
 C82 C -0.05521 1.07729 -0.09422
 O83 O 0.03389 1.10316 -0.09709
 O84 O 0.06074 1.05419 -0.04369
 C85 C 0.05572 1.09044 -0.08180
 O86 O -0.03073 0.91864 -0.11875
 O87 O -0.05860 0.95852 -0.05925
 C88 C -0.05284 0.92957 -0.10402
 Zr89 Zr 0.00232 0.94229 -0.07929
 O90 O 0.00603 0.94558 -0.17405
 O91 O 0.00113 0.86145 -0.08178
 Zr92 Zr 0.00019 1.07140 -0.07042
 O93 O 0.00360 1.08090 -0.16468
 O94 O -0.00398 1.15133 -0.06052
 Zr95 Zr -0.03563 0.99960 -0.00164
 Zr96 Zr 0.03655 1.00547 0.00273
 O97 O 0.02221 1.00912 -0.08487
 O98 O -0.02004 1.00581 -0.08812
 O99 O 0.02351 0.92994 -0.00323
 O100 O -0.02195 1.07457 0.00429
 O101 O -0.01954 0.92704 -0.00577
 O102 O 0.02104 1.07882 0.00699
 H103 H 0.03087 0.99791 0.12485
 H104 H -0.03359 1.10322 0.00549
 H105 H 0.03324 1.01184 -0.11991
 H106 H -0.03020 0.89660 -0.00843
 H107 H 0.00944 1.15859 0.06409
 H108 H 0.01073 1.16458 -0.04059
 H109 H -0.00676 1.05470 -0.18359
 H110 H -0.00653 0.96896 -0.18957
 H111 H 0.01432 0.84862 -0.05575
 H112 H 0.00086 0.83797 0.09813
 H113 H -0.00856 0.94914 0.18366
 H114 H -0.01163 1.03462 0.18949
 O115 O 0.46437 0.41403 0.10905
 O116 O 0.43886 0.45844 0.04652
 C117 C 0.44288 0.42719 0.09094
 O118 O 0.53235 0.59477 0.10386
 O119 O 0.55986 0.54546 0.05378
 C120 C 0.55435 0.58132 0.09133
 O121 O 0.46437 0.58792 0.10379
 O122 O 0.43887 0.54152 0.04385
 C123 C 0.44291 0.57387 0.08655
 O124 O 0.53259 0.40881 0.10979
 O125 O 0.55994 0.45656 0.05518
 C126 C 0.55453 0.42199 0.09519
 Zr127 Zr 0.49910 0.43610 0.07637
 O128 O 0.49994 0.43349 0.17154
 O129 O 0.49795 0.35553 0.07162
 Zr130 Zr 0.49898 0.56555 0.07249
 O131 O 0.50025 0.56892 0.16755
 O132 O 0.49603 0.64613 0.06761
 O133 O 0.47748 0.50072 0.08423
 O134 O 0.51977 0.50124 0.08761
 O135 O 0.53585 0.40557 -0.10006
 O136 O 0.56145 0.45575 -0.04468
 C137 C 0.55734 0.42006 -0.08354
 O138 O 0.46854 0.58597 -0.11882
 O139 O 0.44109 0.54103 -0.06188
 C140 C 0.44657 0.57280 -0.10495
 O141 O 0.53609 0.59058 -0.10673
 O142 O 0.56155 0.54318 -0.04744
 C143 C 0.55754 0.57712 -0.08899
 O144 O 0.46804 0.40952 -0.11213
 O145 O 0.44066 0.45493 -0.05666
 C146 C 0.44610 0.42214 -0.09781
 Zr147 Zr 0.50144 0.43389 -0.07510
 O148 O 0.50558 0.43115 -0.16973
 O149 O 0.49911 0.35317 -0.07075
 Zr150 Zr 0.50155 0.56350 -0.07904
 O151 O 0.50564 0.56515 -0.17371
 O152 O 0.49884 0.64420 -0.07766
 Zr153 Zr 0.46437 0.49935 -0.00481
 Zr154 Zr 0.53617 0.50022 0.00219
 O155 O 0.52250 0.49869 -0.08617
 O156 O 0.48023 0.49828 -0.09110
 O157 O 0.52190 0.42545 0.00303
 O158 O 0.47913 0.57356 -0.00562
 O159 O 0.47916 0.42546 -0.00094
 O160 O 0.52193 0.57478 -0.00147
 H161 H 0.53004 0.50179 0.12409
 H162 H 0.46794 0.60300 -0.00747
 H163 H 0.53380 0.49812 -0.12078
 H164 H 0.46809 0.39558 -0.00072
 H165 H 0.51046 0.65927 0.04608
 H166 H 0.51358 0.65767 -0.05809
 H167 H 0.49455 0.53907 -0.19017
 H168 H 0.49278 0.45265 -0.18771
 H169 H 0.51120 0.34141 -0.04096
 H170 H 0.49696 0.34306 0.11378
 H171 H 0.48838 0.45934 0.18602
 H172 H 0.48757 0.54565 0.18330
 C173 C 0.31664 0.23610 0.36027
 C174 C 0.33531 0.25011 0.32097
 C175 C 0.33700 0.30010 0.29803
 C176 C 0.31934 0.33588 0.31479
 C177 C 0.30062 0.32190 0.35403
 C178 C 0.29919 0.27200 0.37812
 C179 C 0.35823 0.31400 0.26022
 C180 C 0.35910 0.35520 0.22392
 C181 C 0.38087 0.37051 0.18893
 C182 C 0.37801 0.40310 0.13903
 C183 C 0.39807 0.42059 0.10654
 C184 C 0.42159 0.40620 0.12353
 C185 C 0.42449 0.37340 0.17338
 C186 C 0.40439 0.35587 0.20588
 H187 H 0.31626 0.19727 0.37759
 H188 H 0.34870 0.22184 0.30907
 H189 H 0.32028 0.37520 0.29962
 H190 H 0.28766 0.35081 0.36676
 H191 H 0.37351 0.28836 0.26179
 H192 H 0.34310 0.37829 0.21792
 H193 H 0.36015 0.41538 0.12531
 H194 H 0.39512 0.44601 0.06856
 H195 H 0.44234 0.36197 0.18809
 H196 H 0.40750 0.33219 0.24520
 C197 C -0.20673 0.85522 0.34417
 C198 C -0.18969 0.86929 0.30066
 C199 C -0.17219 0.83447 0.28126
 C200 C -0.17263 0.78439 0.30497
 C201 C -0.18963 0.77028 0.34876
 C202 C -0.20678 0.80566 0.36945
 C203 C -0.15391 0.85229 0.23679
 C204 C -0.13248 0.82956 0.22867
 C205 C -0.11318 0.85085 0.18928
 C206 C -0.08921 0.83646 0.20055
 C207 C -0.07023 0.85760 0.16705
 C208 C -0.07481 0.89350 0.12108
 C209 C -0.09889 0.90653 0.10819
 C210 C -0.11790 0.88528 0.14170
 H211 H -0.21969 0.88361 0.35838
 H212 H -0.18993 0.90795 0.28280
 H213 H -0.16005 0.75573 0.28978
 H214 H -0.18924 0.73156 0.36638
 H215 H -0.15765 0.88792 0.21363
 H216 H -0.12786 0.79642 0.25560
 H217 H -0.08507 0.80964 0.23646
 H218 H -0.05192 0.84642 0.17803
 H219 H -0.10308 0.93366 0.07268
 H220 H -0.13616 0.89600 0.12999
 C221 C 0.70181 0.66534 0.35616
 C222 C 0.68546 0.64675 0.31373
 C223 C 0.66882 0.67952 0.28576
 C224 C 0.66940 0.73191 0.29987
 C225 C 0.68575 0.75051 0.34249
 C226 C 0.70200 0.71736 0.37146
 C227 C 0.65129 0.65738 0.24255
 C228 C 0.63016 0.67942 0.22844
 C229 C 0.61150 0.65490 0.19028
 C230 C 0.58744 0.67058 0.19668
 C231 C 0.56901 0.64727 0.16387
 C232 C 0.57421 0.60785 0.12332
 C233 C 0.59843 0.59326 0.11526
 C234 C 0.61691 0.61660 0.14824
 H235 H 0.71418 0.63878 0.37737
 H236 H 0.68558 0.60636 0.30340
 H237 H 0.65750 0.75886 0.27790
 H238 H 0.68565 0.79090 0.35270
 H239 H 0.65523 0.61966 0.22570
 H240 H 0.62525 0.71502 0.24949
 H241 H 0.58277 0.70031 0.22822
 H242 H 0.55060 0.65982 0.17099
 H243 H 0.60312 0.56341 0.08392
 H244 H 0.63532 0.60462 0.14038
 C245 C 0.20428 1.14108 0.36591
 C246 C 0.18693 1.12484 0.32445
 C247 C 0.17006 1.15929 0.30041
 C248 C 0.17137 1.21090 0.31737
 C249 C 0.18862 1.22717 0.35892
 C250 C 0.20524 1.19246 0.38419
 C251 C 0.15170 1.14014 0.25741
 C252 C 0.13053 1.16359 0.24731
 C253 C 0.11154 1.14310 0.20701
 C254 C 0.08752 1.15817 0.21628
 C255 C 0.06890 1.13863 0.18073
 C256 C 0.07392 1.10383 0.13460
 C257 C 0.09810 1.09006 0.12392
 C258 C 0.11672 1.10955 0.15959
 H259 H 0.21680 1.11314 0.38388
 H260 H 0.18651 1.08498 0.31167
 H261 H 0.15933 1.23914 0.29828
 H262 H 0.18890 1.26718 0.37103
 H263 H 0.15523 1.10373 0.23651
 H264 H 0.12602 1.19742 0.27254
 H265 H 0.08306 1.18442 0.25202
 H266 H 0.05052 1.15029 0.19006
 H267 H 0.10266 1.06366 0.08845
 H268 H 0.13507 1.09841 0.14955
 C269 C 0.68097 0.23072 -0.35692
 C270 C 0.66270 0.24231 -0.31575
 C271 C 0.66110 0.29127 -0.29077
 C272 C 0.67825 0.32858 -0.30796
 C273 C 0.69653 0.31696 -0.34901
 C274 C 0.69799 0.26804 -0.37433
 C275 C 0.64042 0.30288 -0.25056
 C276 C 0.64015 0.34239 -0.21243
 C277 C 0.61870 0.35748 -0.17658
 C278 C 0.62196 0.39162 -0.12885
 C279 C 0.60212 0.41063 -0.09728
 C280 C 0.57847 0.39603 -0.11286
 C281 C 0.57521 0.36088 -0.15965
 C282 C 0.59504 0.34201 -0.19138
 H283 H 0.68155 0.19269 -0.37570
 H284 H 0.64961 0.21300 -0.30381
 H285 H 0.67727 0.36727 -0.29154
 H286 H 0.70923 0.34673 -0.36187
 H287 H 0.62504 0.27729 -0.25246
 H288 H 0.65638 0.36503 -0.20664
 H289 H 0.63992 0.40448 -0.11669
 H290 H 0.60534 0.43776 -0.06163
 H291 H 0.55724 0.34912 -0.17321
 H292 H 0.59152 0.31698 -0.22880
 C293 C 0.18325 0.74709 -0.36317
 C294 C 0.16470 0.75959 -0.32324
 C295 C 0.16307 0.80896 -0.29940
 C296 C 0.18048 0.84576 -0.31649
 C297 C 0.19905 0.83323 -0.35633
 C298 C 0.20055 0.78388 -0.38047
 C299 C 0.14218 0.82132 -0.26028
 C300 C 0.14169 0.86141 -0.22304
 C301 C 0.12011 0.87611 -0.18751
 C302 C 0.12318 0.90883 -0.13838
 C303 C 0.10323 0.92640 -0.10608
 C304 C 0.07966 0.91181 -0.12248
 C305 C 0.07658 0.87857 -0.17124
 C306 C 0.09653 0.86111 -0.20359
 H307 H 0.18385 0.70875 -0.38106
 H308 H 0.15143 0.73065 -0.31131
 H309 H 0.17951 0.88471 -0.30089
 H310 H 0.21197 0.86259 -0.36915
 H311 H 0.12685 0.79557 -0.26186
 H312 H 0.15782 0.88435 -0.21721
 H313 H 0.14110 0.92135 -0.12531
 H314 H 0.10629 0.95209 -0.06889
 H315 H 0.05869 0.86694 -0.18548
 H316 H 0.09320 0.83732 -0.24225
 C317 C 0.29459 0.64912 -0.36196
 C318 C 0.31161 0.63028 -0.32109
 C319 C 0.32907 0.66275 -0.29609
 C320 C 0.32851 0.71515 -0.31081
 C321 C 0.31148 0.73410 -0.35163
 C322 C 0.29448 0.70123 -0.37854
 C323 C 0.34745 0.64064 -0.25497
 C324 C 0.36942 0.66147 -0.24717
 C325 C 0.38861 0.63806 -0.20952
 C326 C 0.41273 0.65201 -0.22075
 C327 C 0.43149 0.63090 -0.18687
 C328 C 0.42657 0.59552 -0.14043
 C329 C 0.40238 0.58208 -0.12847
 C330 C 0.38359 0.60320 -0.16248
 H331 H 0.28174 0.62251 -0.38113
 H332 H 0.31146 0.58989 -0.30995
 H333 H 0.34107 0.74179 -0.29074
 H334 H 0.31185 0.77455 -0.36242
 H335 H 0.34324 0.60409 -0.23425
 H336 H 0.37432 0.69549 -0.27251
 H337 H 0.41711 0.67905 -0.25636
 H338 H 0.44988 0.64232 -0.19724
 H339 H 0.39791 0.55526 -0.09272
 H340 H 0.36522 0.59261 -0.15107
 C341 C -0.20548 1.13698 -0.36134
 C342 C -0.18840 1.11962 -0.31969
 C343 C -0.17288 1.15415 -0.29083
 C344 C -0.17545 1.20677 -0.30268
 C345 C -0.19245 1.22411 -0.34442
 C346 C -0.20746 1.18939 -0.37472
 C347 C -0.15435 1.13398 -0.24886
 C348 C -0.13371 1.15898 -0.23686
 C349 C -0.11423 1.13796 -0.19836
 C350 C -0.09071 1.15724 -0.20587
 C351 C -0.07162 1.13802 -0.17162
 C352 C -0.07566 1.09927 -0.12855
 C353 C -0.09934 1.08080 -0.11987
 C354 C -0.11845 1.10000 -0.15427
 H355 H -0.21687 1.10928 -0.38368
 H356 H -0.18699 1.07895 -0.31087
 H357 H -0.16452 1.23482 -0.27966
 H358 H -0.19377 1.26480 -0.35304
 H359 H -0.15716 1.09580 -0.23103
 H360 H -0.12998 1.19499 -0.25940
 H361 H -0.08700 1.18681 -0.23908
 H362 H -0.05365 1.15331 -0.17933
 H363 H -0.10314 1.05121 -0.08677
 H364 H -0.13643 1.08528 -0.14568
 C365 C 0.68209 0.76962 -0.36146
 C366 C 0.66381 0.75620 -0.32084
 C367 C 0.66209 0.70625 -0.29773
 C368 C 0.67921 0.66984 -0.31606
 C369 C 0.69754 0.68330 -0.35669
 C370 C 0.69904 0.73322 -0.38027
 C371 C 0.64131 0.69308 -0.25816
 C372 C 0.64073 0.65216 -0.22139
 C373 C 0.61920 0.63706 -0.18538
 C374 C 0.62229 0.60389 -0.13607
 C375 C 0.60235 0.58574 -0.10355
 C376 C 0.57877 0.60009 -0.11992
 C377 C 0.57567 0.63398 -0.16868
 C378 C 0.59562 0.65209 -0.20124
 H379 H 0.68270 0.80841 -0.37882
 H380 H 0.65078 0.78489 -0.30790
 H381 H 0.67815 0.63053 -0.30087
 H382 H 0.71020 0.65427 -0.37068
 H383 H 0.62613 0.71899 -0.25892
 H384 H 0.65673 0.62890 -0.21630
 H385 H 0.64021 0.59139 -0.12315
 H386 H 0.60543 0.55954 -0.06637
 H387 H 0.55777 0.64544 -0.18290
 H388 H 0.59230 0.67626 -0.24001
 C389 C 0.20583 1.15260 -0.34301
 C390 C 0.18908 1.13903 -0.29856
 C391 C 0.17242 1.17480 -0.27695
 C392 C 0.17344 1.22524 -0.29963
 C393 C 0.19021 1.23880 -0.34431
 C394 C 0.20644 1.20249 -0.36690
 C395 C 0.15440 1.15744 -0.23142
 C396 C 0.13367 1.18197 -0.21982
 C397 C 0.11447 1.16082 -0.17984
 C398 C 0.09060 1.17710 -0.18871
 C399 C 0.07163 1.15551 -0.15548
 C400 C 0.07610 1.11726 -0.11214
 C401 C 0.10015 1.10272 -0.10107
 C402 C 0.11915 1.12438 -0.13435
 H403 H 0.21815 1.12371 -0.35912
 H404 H 0.18888 1.10006 -0.28169
 H405 H 0.16152 1.25454 -0.28302
 H406 H 0.19040 1.27772 -0.36129
 H407 H 0.15762 1.12068 -0.21035
 H408 H 0.12940 1.21657 -0.24444
 H409 H 0.08649 1.20552 -0.22289
 H410 H 0.05337 1.16794 -0.16497
 H411 H 0.10430 1.07377 -0.06757
 H412 H 0.13737 1.11219 -0.12439
 C413 C 0.30888 0.33952 -0.38937
 C414 C 0.32829 0.35748 -0.35542
 C415 C 0.34030 0.32488 -0.31518
 C416 C 0.33270 0.27370 -0.30963
 C417 C 0.31361 0.25536 -0.34475
 C418 C 0.30156 0.28814 -0.38498
 C419 C 0.36144 0.34462 -0.28217
 C420 C 0.36637 0.33102 -0.22536
 C421 C 0.38711 0.35309 -0.19280
 C422 C 0.38432 0.36754 -0.13263
 C423 C 0.40349 0.39029 -0.10176
 C424 C 0.42599 0.39748 -0.13011
 C425 C 0.42900 0.38147 -0.18976
 C426 C 0.40966 0.35988 -0.22106
 H427 H 0.30008 0.36549 -0.42052
 H428 H 0.33397 0.39695 -0.36062
 H429 H 0.34199 0.24753 -0.27967
 H430 H 0.30838 0.21554 -0.34076
 H431 H 0.37242 0.37371 -0.30414
 H432 H 0.35401 0.30625 -0.20082
 H433 H 0.36712 0.36229 -0.10999
 H434 H 0.40079 0.40192 -0.05557
 H435 H 0.44617 0.38658 -0.21257
 H436 H 0.41236 0.34814 -0.26718
 C437 C -0.20481 0.86915 -0.36807
 C438 C -0.18720 0.88662 -0.32795
 C439 C -0.17005 0.85290 -0.30362
 C440 C -0.17143 0.80082 -0.31857
 C441 C -0.18900 0.78337 -0.35862
 C442 C -0.20575 0.81738 -0.38432
 C443 C -0.15133 0.87313 -0.26227
 C444 C -0.12978 0.85070 -0.25415
 C445 C -0.11057 0.87130 -0.21449
 C446 C -0.08655 0.85671 -0.22487
 C447 C -0.06782 0.87520 -0.18882
 C448 C -0.07274 0.90841 -0.14102
 C449 C -0.09688 0.92225 -0.12983
 C450 C -0.11559 0.90385 -0.16602
 H451 H -0.21751 0.89631 -0.38684
 H452 H -0.18674 0.92680 -0.31665
 H453 H -0.15915 0.77323 -0.29908
 H454 H -0.18939 0.74314 -0.36962
 H455 H -0.15502 0.90926 -0.24087
 H456 H -0.12528 0.81728 -0.28015
 H457 H -0.08220 0.83130 -0.26152
 H458 H -0.04948 0.86362 -0.19866
 H459 H -0.10136 0.94753 -0.09318
 H460 H -0.13392 0.91473 -0.15523
 C461 C 0.31786 0.75719 0.36075
 C462 C 0.33651 0.74496 0.32101
 C463 C 0.33842 0.69554 0.29749
 C464 C 0.32121 0.65838 0.31475
 C465 C 0.30253 0.67064 0.35440
 C466 C 0.30074 0.72006 0.37817
 C467 C 0.35935 0.68357 0.25836
 C468 C 0.35989 0.64365 0.22091
 C469 C 0.38141 0.62951 0.18489
 C470 C 0.37827 0.59702 0.13560
 C471 C 0.39815 0.58003 0.10268
 C472 C 0.42173 0.59494 0.11860
 C473 C 0.42489 0.62792 0.16756
 C474 C 0.40499 0.64485 0.20053
 H475 H 0.31704 0.79559 0.37837
 H476 H 0.34963 0.77417 0.30893
 H477 H 0.32241 0.61939 0.29939
 H478 H 0.28976 0.64103 0.36738
 H479 H 0.37459 0.70954 0.25994
 H480 H 0.34382 0.62053 0.21514
 H481 H 0.36035 0.58423 0.12288
 H482 H 0.39503 0.55445 0.06541
 H483 H 0.44280 0.63974 0.18146
 H484 H 0.40837 0.66848 0.23930
 C485 C -0.18594 1.24615 0.36657
 C486 C -0.16667 1.23362 0.32876
 C487 C -0.16450 1.18421 0.30533
 C488 C -0.18224 1.14749 0.32033
 C489 C -0.20155 1.15998 0.35800
 C490 C -0.20354 1.20931 0.38238
 C491 C -0.14286 1.17188 0.26860
 C492 C -0.14159 1.13163 0.23169
 C493 C -0.11963 1.11785 0.19701
 C494 C -0.12220 1.08555 0.14735
 C495 C -0.10201 1.06971 0.11477
 C496 C -0.07863 1.08551 0.13134
 C497 C -0.07599 1.11782 0.18114
 C498 C -0.09623 1.13371 0.21376
 H499 H -0.18673 1.28455 0.38425
 H500 H -0.15322 1.26259 0.31828
 H501 H -0.18098 1.10854 0.30488
 H502 H -0.21458 1.13034 0.36919
 H503 H -0.12768 1.19797 0.27132
 H504 H -0.15748 1.10821 0.22475
 H505 H -0.13994 1.07231 0.13377
 H506 H -0.10477 1.04458 0.07691
 H507 H -0.05825 1.13032 0.19552
 H508 H -0.09331 1.15722 0.25286
 C509 C 0.69221 0.34132 0.38689
 C510 C 0.67305 0.35919 0.35184
 C511 C 0.66132 0.32671 0.31133
 C512 C 0.66907 0.27581 0.30637
 C513 C 0.68791 0.25756 0.34249
 C514 C 0.69957 0.29012 0.38330
 C515 C 0.64015 0.34606 0.27791
 C516 C 0.63499 0.33208 0.22157
 C517 C 0.61400 0.35334 0.18908
 C518 C 0.61647 0.36808 0.12859
 C519 C 0.59709 0.39039 0.09794
 C520 C 0.57471 0.39680 0.12682
 C521 C 0.57199 0.38025 0.18671
 C522 C 0.59154 0.35914 0.21779
 H523 H 0.70068 0.36713 0.41841
 H524 H 0.66725 0.39845 0.35663
 H525 H 0.66002 0.24967 0.27626
 H526 H 0.69317 0.21787 0.33906
 H527 H 0.62918 0.37493 0.29935
 H528 H 0.64728 0.30753 0.19734
 H529 H 0.63359 0.36355 0.10558
 H530 H 0.59957 0.40248 0.05159
 H531 H 0.55492 0.38480 0.20994
 H532 H 0.58908 0.34714 0.26417
 C533 C 0.20468 0.85420 0.35845
 C534 C 0.18815 0.87198 0.31566
 C535 C 0.17293 0.83783 0.28521
 C536 C 0.17526 0.78509 0.29688
 C537 C 0.19171 0.76734 0.33983
 C538 C 0.20642 0.80171 0.37158
 C539 C 0.15494 0.85871 0.24208
 C540 C 0.13470 0.83363 0.22650
 C541 C 0.11548 0.85598 0.18805
 C542 C 0.09204 0.83558 0.19255
 C543 C 0.07305 0.85658 0.15942
 C544 C 0.07707 0.89837 0.12045
 C545 C 0.10072 0.91771 0.11419
 C546 C 0.11975 0.89669 0.14750
 H547 H 0.21584 0.88168 0.38187
 H548 H 0.18694 0.91272 0.30715
 H549 H 0.16459 0.75724 0.27285
 H550 H 0.19286 0.72659 0.34824
 H551 H 0.15770 0.89761 0.22657
 H552 H 0.13092 0.79657 0.24639
 H553 H 0.08828 0.80390 0.22290
 H554 H 0.05512 0.84047 0.16513
 H555 H 0.10451 0.94962 0.08422
 H556 H 0.13768 0.91242 0.14111
   
