data_POSCAR
  _audit_creation_date              2014-09-24
  _audit_creation_method            'ToBaCCo'
  _symmetry_space_group_name_H-M    'P1'
  _symmetry_Int_Tables_number       1
  _symmetry_cell_setting            triclinic
  loop_
  _symmetry_equiv_pos_as_xyz
 x,y,z
_cell_length_a 36.2996
_cell_length_b 29.2419
_cell_length_c 17.5376
_cell_angle_alpha 89.771100
_cell_angle_beta 89.989100
_cell_angle_gamma 90.000200
loop_
  _atom_site_label
  _atom_site_type_symbol
  _atom_site_fract_x
  _atom_site_fract_y
  _atom_site_fract_z
C1 C 1.28227 0.20068 0.27484
 C2 C 1.25059 0.22481 0.25172
 C3 C 1.21921 0.19990 0.22964
 C4 C 1.21853 0.15167 0.23142
 C5 C 1.25117 0.12840 0.25385
 C6 C 1.28381 0.15238 0.27442
 C7 C 1.25052 0.27615 0.25019
 C8 C 1.28206 0.30034 0.22650
 C9 C 1.28350 0.34864 0.22661
 C10 C 1.25087 0.37259 0.24757
 C11 C 1.21831 0.34923 0.27053
 C12 C 1.21914 0.30099 0.27255
 H13 H 1.30603 0.21978 0.29433
 H14 H 1.19505 0.21816 0.20987
 H15 H 1.30579 0.28128 0.20676
 H16 H 1.19507 0.28266 0.29265
 H17 H 1.25102 0.09177 0.25569
 H18 H 1.25066 0.40922 0.24563
 C19 C 0.78144 -0.30061 0.27410
 C20 C 0.74977 -0.27649 0.25115
 C21 C 0.71846 -0.30134 0.22867
 C22 C 0.71785 -0.34956 0.22978
 C23 C 0.75051 -0.37290 0.25203
 C24 C 0.78307 -0.34888 0.27315
 C25 C 0.74964 -0.22521 0.25021
 C26 C 0.78122 -0.20091 0.22725
 C27 C 0.78250 -0.15277 0.22809
 C28 C 0.75011 -0.12882 0.24949
 C29 C 0.71744 -0.15223 0.27125
 C30 C 0.71817 -0.20048 0.27246
 H31 H 0.80515 -0.28153 0.29391
 H32 H 0.69429 -0.28303 0.20906
 H33 H 0.80514 -0.21963 0.20764
 H34 H 0.69402 -0.21888 0.29199
 H35 H 0.75042 -0.40954 0.25328
 H36 H 0.75036 -0.09216 0.24906
 C37 C 0.78160 0.20116 -0.22702
 C38 C 0.75000 0.22533 -0.25034
 C39 C 0.71860 0.20047 -0.27254
 C40 C 0.71792 0.15222 -0.27084
 C41 C 0.75055 0.12894 -0.24861
 C42 C 0.78290 0.15300 -0.22730
 C43 C 0.75001 0.27662 -0.25179
 C44 C 0.78162 0.30075 -0.27508
 C45 C 0.78315 0.34903 -0.27461
 C46 C 0.75052 0.37303 -0.25388
 C47 C 0.71789 0.34968 -0.23141
 C48 C 0.71863 0.30147 -0.22959
 H49 H 0.80549 0.21998 -0.20757
 H50 H 0.69447 0.21876 -0.29238
 H51 H 0.80535 0.28166 -0.29474
 H52 H 0.69451 0.28316 -0.20971
 H53 H 0.75079 0.09228 -0.24772
 H54 H 0.75037 0.40967 -0.25558
 C55 C 1.28140 -0.30058 -0.22573
 C56 C 1.24973 -0.27643 -0.24851
 C57 C 1.21835 -0.30123 -0.27067
 C58 C 1.21769 -0.34943 -0.26930
 C59 C 1.25035 -0.37280 -0.24738
 C60 C 1.28296 -0.34883 -0.22669
 C61 C 1.24968 -0.22519 -0.24948
 C62 C 1.28129 -0.20096 -0.27246
 C63 C 1.28261 -0.15283 -0.27146
 C64 C 1.25028 -0.12884 -0.25008
 C65 C 1.21762 -0.15220 -0.22836
 C66 C 1.21827 -0.20043 -0.22714
 H67 H 1.30516 -0.28154 -0.20606
 H68 H 1.19417 -0.28290 -0.29019
 H69 H 1.30518 -0.21970 -0.29217
 H70 H 1.19411 -0.21877 -0.20755
 H71 H 1.25024 -0.40943 -0.24604
 H72 H 1.25056 -0.09219 -0.25056
 C73 C 0.21077 0.28791 0.72614
 C74 C 0.22969 0.25009 0.75399
 C75 C 0.21101 0.21184 0.78118
 C76 C 0.17260 0.21106 0.78236
 C77 C 0.15354 0.24938 0.75255
 C78 C 0.17251 0.28787 0.72384
 C79 C 0.26958 0.25039 0.75387
 C80 C 0.28828 0.28777 0.78374
 C81 C 0.32669 0.28895 0.78331
 C82 C 0.34571 0.25123 0.75198
 C83 C 0.32675 0.21336 0.72173
 C84 C 0.28848 0.21350 0.72315
 H85 H 0.22652 0.31681 0.70626
 H86 H 0.22719 0.18325 0.80080
 H87 H 0.27204 0.31521 0.80683
 H88 H 0.27268 0.18549 0.70058
 H89 H 0.12367 0.24930 0.75163
 H90 H 0.37558 0.25131 0.75108
 C91 C 0.71017 0.78868 0.72436
 C92 C 0.72894 0.75055 0.75162
 C93 C 0.71011 0.71226 0.77811
 C94 C 0.67171 0.71175 0.77951
 C95 C 0.65279 0.75019 0.74987
 C96 C 0.67182 0.78879 0.72103
 C97 C 0.76884 0.75056 0.75169
 C98 C 0.78772 0.78759 0.78230
 C99 C 0.82604 0.78828 0.78202
 C100 C 0.84501 0.75072 0.75074
 C101 C 0.82596 0.71310 0.71991
 C102 C 0.78766 0.71362 0.72064
 H103 H 0.72623 0.81768 0.70595
 H104 H 0.72616 0.68345 0.79724
 H105 H 0.77191 0.81528 0.80595
 H106 H 0.77180 0.68586 0.69737
 H107 H 0.62291 0.75008 0.74928
 H108 H 0.87488 0.75076 0.75044
 C109 C 0.71099 0.28792 0.22083
 C110 C 0.72982 0.25008 0.24886
 C111 C 0.71111 0.21193 0.27612
 C112 C 0.67284 0.21122 0.27641
 C113 C 0.65373 0.24941 0.24713
 C114 C 0.67273 0.28794 0.21872
 C115 C 0.76960 0.25030 0.24934
 C116 C 0.78821 0.28756 0.27964
 C117 C 0.82648 0.28830 0.28015
 C118 C 0.84569 0.25066 0.24981
 C119 C 0.82682 0.21288 0.21914
 C120 C 0.78855 0.21324 0.21928
 H121 H 0.72678 0.31681 0.20104
 H122 H 0.72702 0.18340 0.29688
 H123 H 0.77221 0.31533 0.30249
 H124 H 0.77281 0.18528 0.19641
 H125 H 0.62387 0.24920 0.24665
 H126 H 0.87555 0.25079 0.25008
 C127 C 0.21027 0.78808 0.22456
 C128 C 0.22899 0.74992 0.25174
 C129 C 0.21017 0.71170 0.27837
 C130 C 0.17180 0.71134 0.28022
 C131 C 0.15287 0.74978 0.25055
 C132 C 0.17192 0.78829 0.22150
 C133 C 0.26885 0.74992 0.25191
 C134 C 0.28765 0.78689 0.28277
 C135 C 0.32595 0.78765 0.28257
 C136 C 0.34499 0.75015 0.25123
 C137 C 0.32597 0.71255 0.22021
 C138 C 0.28768 0.71305 0.22077
 H139 H 0.22637 0.81702 0.20607
 H140 H 0.22621 0.68282 0.29730
 H141 H 0.27178 0.81450 0.30647
 H142 H 0.27182 0.68536 0.19729
 H143 H 0.12299 0.74973 0.25012
 H144 H 0.37485 0.75024 0.25096
 O145 O 1.05489 0.07873 0.14035
 O146 O 1.09431 0.03715 0.06561
 C147 C 1.08795 0.06699 0.11834
 O148 O 0.94665 -0.08341 0.13296
 O149 O 0.90723 -0.03786 0.06448
 C150 C 0.91360 -0.07021 0.11329
 O151 O 1.04938 -0.08154 0.13976
 O152 O 1.09173 -0.04145 0.06813
 C153 C 1.08261 -0.07257 0.11803
 O154 O 0.95201 0.08432 0.13383
 O155 O 0.90972 0.04336 0.06399
 C156 C 0.91882 0.07524 0.11202
 Zr157 Zr 1.00204 0.05700 0.09845
 O158 O 0.99941 0.05644 0.21901
 O159 O 1.00415 0.12922 0.09291
 Zr160 Zr 0.99940 -0.05757 0.09757
 O161 O 0.99785 -0.05246 0.21770
 O162 O 1.00064 -0.12986 0.10126
 O163 O 1.03399 -0.00112 0.11269
 O164 O 0.96823 0.00031 0.11179
 O165 O 0.94691 0.08338 -0.13133
 O166 O 0.90734 0.03856 -0.06182
 C167 C 0.91381 0.07057 -0.11122
 O168 O 1.05448 -0.07905 -0.13673
 O169 O 1.09410 -0.03752 -0.06248
 C170 C 1.08755 -0.06740 -0.11495
 O171 O 0.95152 -0.08396 -0.13007
 O172 O 0.90938 -0.04249 -0.06087
 C173 C 0.91835 -0.07459 -0.10862
 O174 O 1.04967 0.08051 -0.13848
 O175 O 1.09183 0.04089 -0.06567
 C176 C 1.08285 0.07170 -0.11621
 Zr177 Zr 0.99955 0.05825 -0.09399
 O178 O 0.99676 0.06158 -0.21433
 O179 O 1.00013 0.13017 -0.08265
 Zr180 Zr 1.00180 -0.05663 -0.09558
 O181 O 1.00412 -0.05526 -0.21639
 O182 O 1.00307 -0.12892 -0.09221
 Zr183 Zr 1.05590 -0.00007 0.00147
 Zr184 Zr 0.94560 0.00032 0.00146
 O185 O 0.96827 0.00034 -0.10877
 O186 O 1.03376 0.00135 -0.10960
 O187 O 0.96807 0.06667 0.00292
 O188 O 1.03242 -0.06580 0.00145
 O189 O 1.03291 0.06589 0.00157
 O190 O 0.96799 -0.06604 0.00024
 H191 H 0.95137 0.00053 0.15626
 H192 H 1.04834 -0.09329 0.00045
 H193 H 0.95123 0.00042 -0.15285
 H194 H 1.04924 0.09301 0.00249
 H195 H 0.98872 -0.14069 0.05393
 H196 H 1.00456 -0.13922 -0.14591
 H197 H 0.98021 -0.04420 -0.23623
 H198 H 1.00998 0.03443 -0.23375
 H199 H 0.99979 0.14269 -0.13523
 H200 H 1.00539 0.14002 0.14635
 H201 H 1.01756 0.03361 0.23718
 H202 H 0.99637 -0.08424 0.23727
 O203 O 1.05388 0.57877 0.63944
 O204 O 1.09334 0.53748 0.56435
 C205 C 1.08693 0.56706 0.61739
 O206 O 0.94569 0.41671 0.63071
 O207 O 0.90632 0.46231 0.56223
 C208 C 0.91264 0.42993 0.61100
 O209 O 1.04848 0.41865 0.63780
 O210 O 1.09085 0.45896 0.56660
 C211 C 1.08173 0.42782 0.61646
 O212 O 0.95099 0.58463 0.63225
 O213 O 0.90877 0.54368 0.56225
 C214 C 0.91780 0.57556 0.61042
 Zr215 Zr 1.00106 0.55726 0.59712
 O216 O 0.99824 0.55642 0.71766
 O217 O 1.00324 0.62949 0.59214
 Zr218 Zr 0.99850 0.44267 0.59566
 O219 O 0.99687 0.44758 0.71580
 O220 O 0.99971 0.37038 0.59903
 O221 O 1.03304 0.49914 0.61112
 O222 O 0.96727 0.50049 0.61006
 O223 O 0.94592 0.58373 0.36723
 O224 O 0.90643 0.53871 0.43653
 C225 C 0.91282 0.57074 0.38717
 O226 O 1.05427 0.42158 0.36196
 O227 O 1.09364 0.46334 0.43625
 C228 C 1.08734 0.43339 0.38378
 O229 O 0.95111 0.41666 0.36765
 O230 O 0.90879 0.45795 0.43678
 C231 C 0.91791 0.42599 0.38894
 O232 O 1.04885 0.58112 0.36025
 O233 O 1.09099 0.54153 0.43311
 C234 C 1.08202 0.57234 0.38260
 Zr235 Zr 0.99873 0.55894 0.40476
 O236 O 0.99549 0.56426 0.28467
 O237 O 0.99925 0.63074 0.41802
 Zr238 Zr 1.00119 0.44398 0.40244
 O239 O 0.99796 0.44594 0.28188
 O240 O 1.00331 0.37171 0.40445
 Zr241 Zr 1.05505 0.50042 0.49995
 Zr242 Zr 0.94479 0.50065 0.49963
 O243 O 0.96771 0.50094 0.38948
 O244 O 1.03309 0.50207 0.38863
 O245 O 0.96714 0.56705 0.50155
 O246 O 1.03162 0.43465 0.49964
 O247 O 1.03203 0.56639 0.50043
 O248 O 0.96725 0.43433 0.49809
 H249 H 0.95035 0.50065 0.65441
 H250 H 1.04760 0.40722 0.49861
 H251 H 0.95107 0.50084 0.34468
 H252 H 1.04839 0.59348 0.50154
 H253 H 0.98853 0.35966 0.55086
 H254 H 1.00427 0.36177 0.35050
 H255 H 1.02063 0.46088 0.26276
 H256 H 1.00944 0.53815 0.26373
 H257 H 0.99888 0.64373 0.36577
 H258 H 1.00446 0.64014 0.64567
 H259 H 1.01640 0.53359 0.73580
 H260 H 0.99538 0.41577 0.73522
 O261 O 0.55446 0.07913 0.63885
 O262 O 0.59379 0.03733 0.56427
 C263 C 0.58747 0.06730 0.61679
 O264 O 0.44637 -0.08314 0.63294
 O265 O 0.40681 -0.03764 0.56467
 C266 C 0.41331 -0.06998 0.61343
 O267 O 0.54902 -0.08124 0.63926
 O268 O 0.59126 -0.04127 0.56722
 C269 C 0.58223 -0.07230 0.61733
 O270 O 0.45165 0.08490 0.63284
 O271 O 0.40921 0.04379 0.56368
 C272 C 0.41840 0.07580 0.61148
 Zr273 Zr 0.50159 0.05732 0.59742
 O274 O 0.49906 0.05700 0.71799
 O275 O 0.50377 0.12953 0.59138
 Zr276 Zr 0.49899 -0.05725 0.59727
 O277 O 0.49759 -0.05176 0.71736
 O278 O 0.50021 -0.12952 0.60158
 O279 O 0.53358 -0.00076 0.61188
 O280 O 0.46779 0.00066 0.61131
 O281 O 0.44612 0.08339 0.36818
 O282 O 0.40662 0.03855 0.43781
 C283 C 0.41303 0.07062 0.38844
 O284 O 0.55389 -0.07924 0.36284
 O285 O 0.59355 -0.03757 0.43673
 C286 C 0.58700 -0.06755 0.38443
 O287 O 0.45088 -0.08406 0.36993
 O288 O 0.40876 -0.04256 0.43919
 C289 C 0.41773 -0.07470 0.39152
 O290 O 0.54891 0.08003 0.36004
 O291 O 0.59118 0.04058 0.43287
 C292 C 0.58212 0.07111 0.38199
 Zr293 Zr 0.49883 0.05815 0.40507
 O294 O 0.49576 0.06126 0.28474
 O295 O 0.49961 0.13010 0.41588
 Zr296 Zr 0.50116 -0.05673 0.40409
 O297 O 0.50337 -0.05561 0.28327
 O298 O 0.50240 -0.12902 0.40782
 Zr299 Zr 0.55532 -0.00002 0.50053
 Zr300 Zr 0.44501 0.00045 0.50112
 O301 O 0.46756 0.00021 0.39078
 O302 O 0.53305 0.00121 0.38958
 O303 O 0.46748 0.06679 0.50208
 O304 O 0.53187 -0.06573 0.50102
 O305 O 0.53235 0.06597 0.50033
 O306 O 0.46746 -0.06590 0.50015
 H307 H 0.45098 0.00101 0.65585
 H308 H 0.54779 -0.09322 0.50008
 H309 H 0.45046 0.00026 0.34681
 H310 H 0.54872 0.09305 0.50090
 H311 H 0.48856 -0.14048 0.55404
 H312 H 0.50389 -0.13941 0.35417
 H313 H 0.47949 -0.04440 0.26349
 H314 H 0.50897 0.03410 0.26533
 H315 H 0.49921 0.14247 0.36321
 H316 H 0.50508 0.14047 0.64474
 H317 H 0.51732 0.03433 0.73623
 H318 H 0.49614 -0.08348 0.73721
 O319 O 0.55388 0.57879 0.13791
 O320 O 0.59327 0.53769 0.06241
 C321 C 0.58694 0.56717 0.11566
 O322 O 0.44582 0.41663 0.12999
 O323 O 0.40627 0.46204 0.06161
 C324 C 0.41270 0.42973 0.11048
 O325 O 0.54866 0.41901 0.13636
 O326 O 0.59085 0.45934 0.06468
 C327 C 0.58185 0.42824 0.11464
 O328 O 0.45093 0.58449 0.13124
 O329 O 0.40865 0.54342 0.06154
 C330 C 0.41773 0.57532 0.10965
 Zr331 Zr 0.50098 0.55726 0.09579
 O332 O 0.49834 0.55651 0.21635
 O333 O 0.50304 0.62949 0.09068
 Zr334 Zr 0.49855 0.44267 0.09445
 O335 O 0.49705 0.44750 0.21461
 O336 O 0.49995 0.37038 0.09775
 O337 O 0.53304 0.49923 0.10963
 O338 O 0.46728 0.50042 0.10899
 O339 O 0.44557 0.58359 -0.13368
 O340 O 0.40620 0.53845 -0.06428
 C341 C 0.41254 0.57053 -0.11357
 O342 O 0.55397 0.42171 -0.13968
 O343 O 0.59338 0.46356 -0.06562
 C344 C 0.58703 0.43361 -0.11805
 O345 O 0.45087 0.41617 -0.13317
 O346 O 0.40862 0.45741 -0.06379
 C347 C 0.41768 0.42534 -0.11155
 O348 O 0.54845 0.58143 -0.14106
 O349 O 0.59070 0.54171 -0.06870
 C350 C 0.58167 0.57262 -0.11898
 Zr351 Zr 0.49839 0.55886 -0.09659
 O352 O 0.49497 0.56377 -0.21672
 O353 O 0.49877 0.63068 -0.08370
 Zr354 Zr 0.50093 0.44391 -0.09881
 O355 O 0.49741 0.44592 -0.21933
 O356 O 0.50328 0.37164 -0.09677
 Zr357 Zr 0.55488 0.50055 -0.00168
 Zr358 Zr 0.44462 0.50045 -0.00129
 O359 O 0.46736 0.50078 -0.11158
 O360 O 0.53278 0.50206 -0.11287
 O361 O 0.46691 0.56690 0.00041
 O362 O 0.53154 0.43472 -0.00179
 O363 O 0.53178 0.56646 -0.00109
 O364 O 0.46718 0.43421 -0.00290
 H365 H 0.45043 0.50054 0.15347
 H366 H 0.54757 0.40734 -0.00289
 H367 H 0.45063 0.50057 -0.15623
 H368 H 0.54811 0.59358 -0.00001
 H369 H 0.48853 0.35963 0.04984
 H370 H 0.50419 0.36169 -0.15072
 H371 H 0.52004 0.46086 -0.23866
 H372 H 0.50977 0.53836 -0.23760
 H373 H 0.49829 0.64359 -0.13601
 H374 H 0.50439 0.64016 0.14418
 H375 H 0.51642 0.53357 0.23441
 H376 H 0.49572 0.41567 0.23399
 C377 C 1.18313 0.12693 0.20457
 C378 C 1.18088 0.07441 0.21485
 C379 C 1.14918 0.05533 0.18769
 C380 C 1.12193 0.08974 0.15266
 C381 C 1.11567 0.12508 0.21608
 C382 C 1.14747 0.14426 0.24324
 C383 C 1.17621 0.13459 0.11892
 C384 C 1.14456 0.11552 0.09221
 H385 H 1.20095 0.05354 0.24446
 H386 H 1.14337 0.01904 0.19333
 H387 H 1.08875 0.13387 0.23858
 H388 H 1.14733 0.16916 0.28898
 H389 H 1.19473 0.15377 0.08216
 H390 H 1.13613 0.11889 0.03316
 C391 C 1.18225 0.62608 0.70386
 C392 C 1.17995 0.57353 0.71329
 C393 C 1.14814 0.55475 0.68613
 C394 C 1.12091 0.58949 0.65192
 C395 C 1.11482 0.62443 0.71597
 C396 C 1.14672 0.64331 0.74318
 C397 C 1.17520 0.63430 0.61841
 C398 C 1.14345 0.61555 0.59168
 H399 H 1.20006 0.55243 0.74232
 H400 H 1.14226 0.51844 0.69120
 H401 H 1.08796 0.63316 0.73885
 H402 H 1.14674 0.66791 0.78938
 H403 H 1.19369 0.65363 0.58181
 H404 H 1.13489 0.61934 0.53277
 C405 C 0.68256 0.12748 0.70245
 C406 C 0.68021 0.07505 0.71382
 C407 C 0.64853 0.05586 0.68676
 C408 C 0.62144 0.09012 0.65080
 C409 C 0.61511 0.12593 0.71345
 C410 C 0.64688 0.14520 0.74049
 C411 C 0.67586 0.13455 0.61660
 C412 C 0.64424 0.11537 0.59000
 H413 H 0.70016 0.05441 0.74424
 H414 H 0.64262 0.01964 0.69316
 H415 H 0.58816 0.13495 0.73557
 H416 H 0.64669 0.17039 0.78578
 H417 H 0.69453 0.15334 0.57962
 H418 H 0.63602 0.11816 0.53072
 C419 C 0.68240 0.62597 0.20260
 C420 C 0.68014 0.57337 0.21133
 C421 C 0.64831 0.55467 0.18403
 C422 C 0.62100 0.58952 0.15031
 C423 C 0.61496 0.62417 0.21483
 C424 C 0.64687 0.64296 0.24220
 C425 C 0.67527 0.63455 0.11725
 C426 C 0.64351 0.61586 0.09036
 H427 H 0.70037 0.55215 0.23975
 H428 H 0.64251 0.51832 0.18851
 H429 H 0.58811 0.63277 0.23789
 H430 H 0.64689 0.66736 0.28868
 H431 H 0.69374 0.65402 0.08082
 H432 H 0.63494 0.61986 0.03148
 C433 C 0.81816 -0.12889 0.20089
 C434 C 0.82401 -0.13501 0.11471
 C435 C 0.85579 -0.11646 0.08747
 C436 C 0.87959 -0.09279 0.14786
 C437 C 0.85348 -0.05823 0.18584
 C438 C 0.82165 -0.07679 0.21357
 C439 C 0.85381 -0.14823 0.23722
 C440 C 0.88575 -0.12962 0.20937
 H441 H 0.80474 -0.15288 0.07801
 H442 H 0.86360 -0.11897 0.02817
 H443 H 0.86022 -0.02234 0.19323
 H444 H 0.80242 -0.05611 0.24564
 H445 H 0.85388 -0.17392 0.28207
 H446 H 0.91269 -0.13971 0.23029
 C447 C 0.81701 0.37159 0.69937
 C448 C 0.82247 0.36612 0.61284
 C449 C 0.85427 0.38449 0.58538
 C450 C 0.87855 0.40744 0.64572
 C451 C 0.85289 0.44200 0.68497
 C452 C 0.82107 0.42362 0.71318
 C453 C 0.85281 0.35172 0.73467
 C454 C 0.88473 0.37014 0.70639
 H455 H 0.80291 0.34883 0.57598
 H456 H 0.86176 0.38239 0.52583
 H457 H 0.86012 0.47765 0.69356
 H458 H 0.80263 0.44426 0.74724
 H459 H 0.85304 0.32599 0.77947
 H460 H 0.91170 0.35977 0.72679
 C461 C 0.31820 -0.12893 0.70134
 C462 C 0.32382 -0.13474 0.61505
 C463 C 0.35552 -0.11610 0.58769
 C464 C 0.37944 -0.09266 0.64811
 C465 C 0.35346 -0.05823 0.68670
 C466 C 0.32171 -0.07688 0.71459
 C467 C 0.35391 -0.14843 0.73713
 C468 C 0.38577 -0.12971 0.70916
 H469 H 0.30448 -0.15251 0.57838
 H470 H 0.36322 -0.11844 0.52831
 H471 H 0.36026 -0.02238 0.69453
 H472 H 0.30265 -0.05635 0.74732
 H473 H 0.35408 -0.17428 0.78172
 H474 H 0.41277 -0.13986 0.72971
 C475 C 0.31729 0.37125 0.20008
 C476 C 0.32266 0.36547 0.11357
 C477 C 0.35438 0.38389 0.08572
 C478 C 0.37868 0.40719 0.14564
 C479 C 0.35297 0.44177 0.18466
 C480 C 0.32124 0.42337 0.21327
 C481 C 0.35321 0.35169 0.23535
 C482 C 0.38504 0.37015 0.20668
 H483 H 0.30313 0.34790 0.07704
 H484 H 0.36183 0.38150 0.02619
 H485 H 0.36010 0.47750 0.19281
 H486 H 0.30278 0.44407 0.24719
 H487 H 0.35357 0.32611 0.28039
 H488 H 0.41206 0.35996 0.22701
 C489 C 0.81854 0.12918 -0.19969
 C490 C 0.82194 0.07701 -0.21173
 C491 C 0.85371 0.05848 -0.18370
 C492 C 0.87986 0.09313 -0.14612
 C493 C 0.88612 0.12968 -0.20806
 C494 C 0.85424 0.14827 -0.23618
 C495 C 0.82434 0.13567 -0.11357
 C496 C 0.85608 0.11715 -0.08604
 H497 H 0.80274 0.05623 -0.24365
 H498 H 0.86041 0.02254 -0.19068
 H499 H 0.91310 0.13962 -0.22902
 H500 H 0.85438 0.17379 -0.28128
 H501 H 0.80511 0.15380 -0.07716
 H502 H 0.86389 0.11998 -0.02675
 C503 C 0.81700 0.62864 0.29900
 C504 C 0.82104 0.57654 0.28586
 C505 C 0.85295 0.55832 0.31388
 C506 C 0.87871 0.59308 0.35232
 C507 C 0.88472 0.63009 0.29110
 C508 C 0.85271 0.64837 0.26300
 C509 C 0.82270 0.63452 0.38539
 C510 C 0.85460 0.61633 0.41267
 H511 H 0.80249 0.55568 0.25243
 H512 H 0.86015 0.52262 0.30572
 H513 H 0.91163 0.64040 0.27030
 H514 H 0.85279 0.67395 0.21796
 H515 H 0.80326 0.65201 0.42226
 H516 H 0.86230 0.61883 0.47208
 C517 C 0.31764 0.12969 0.30034
 C518 C 0.35350 0.14943 0.26515
 C519 C 0.38535 0.13074 0.29330
 C520 C 0.37903 0.09335 0.35378
 C521 C 0.35484 0.11636 0.41425
 C522 C 0.32310 0.13497 0.38689
 C523 C 0.32155 0.07764 0.28623
 C524 C 0.35327 0.05902 0.31439
 H525 H 0.35383 0.17529 0.22055
 H526 H 0.41236 0.14102 0.27299
 H527 H 0.36238 0.11843 0.47379
 H528 H 0.30365 0.15239 0.42380
 H529 H 0.30313 0.05718 0.25180
 H530 H 0.36040 0.02337 0.30549
 C531 C 0.31684 0.62863 -0.20111
 C532 C 0.35252 0.64843 -0.23705
 C533 C 0.38451 0.63006 -0.20911
 C534 C 0.37847 0.59291 -0.14815
 C535 C 0.35441 0.61601 -0.08758
 C536 C 0.32253 0.63430 -0.11470
 C537 C 0.32083 0.57656 -0.21469
 C538 C 0.35271 0.55825 -0.18681
 H539 H 0.35261 0.67409 -0.28196
 H540 H 0.41143 0.64038 -0.22989
 H541 H 0.36212 0.61833 -0.02816
 H542 H 0.30311 0.65170 -0.07769
 H543 H 0.30231 0.55585 -0.24843
 H544 H 0.35992 0.52258 -0.19532
 C545 C 1.18232 -0.12753 -0.20145
 C546 C 1.17562 -0.13501 -0.11572
 C547 C 1.14404 -0.11588 -0.08888
 C548 C 1.12133 -0.09026 -0.14934
 C549 C 1.14848 -0.05592 -0.18488
 C550 C 1.18010 -0.07506 -0.21220
 C551 C 1.14662 -0.14499 -0.23974
 C552 C 1.11489 -0.12575 -0.21243
 H553 H 1.19419 -0.15416 -0.07903
 H554 H 1.13568 -0.11917 -0.02979
 H555 H 1.14261 -0.01966 -0.19098
 H556 H 1.20002 -0.05436 -0.24259
 H557 H 1.14640 -0.16998 -0.28534
 H558 H 1.08792 -0.13457 -0.23462
 C559 C 1.18280 0.37382 0.29749
 C560 C 1.17593 0.36623 0.38319
 C561 C 1.14420 0.38515 0.40992
 C562 C 1.12142 0.41071 0.34946
 C563 C 1.14855 0.44522 0.31421
 C564 C 1.18034 0.42630 0.28707
 C565 C 1.14717 0.35623 0.25899
 C566 C 1.11529 0.37526 0.28618
 H567 H 1.19456 0.34726 0.41999
 H568 H 1.13585 0.38188 0.46904
 H569 H 1.14264 0.48149 0.30856
 H570 H 1.20039 0.44725 0.25752
 H571 H 1.14710 0.33127 0.21335
 H572 H 1.08840 0.36627 0.26379
 C573 C 0.68202 -0.12762 0.29810
 C574 C 0.67526 -0.13505 0.38384
 C575 C 0.64362 -0.11597 0.41057
 C576 C 0.62088 -0.09043 0.35005
 C577 C 0.64802 -0.05607 0.31449
 C578 C 0.67971 -0.07516 0.28730
 C579 C 0.64634 -0.14517 0.25980
 C580 C 0.61455 -0.12597 0.28701
 H581 H 0.69383 -0.15412 0.42061
 H582 H 0.63525 -0.11923 0.46966
 H583 H 0.64213 -0.01982 0.30838
 H584 H 0.69966 -0.05443 0.25705
 H585 H 0.64617 -0.17020 0.21425
 H586 H 0.58760 -0.13488 0.26478
 C587 C 0.68241 0.37425 -0.20453
 C588 C 0.67996 0.42673 -0.21488
 C589 C 0.64817 0.44561 -0.18769
 C590 C 0.62107 0.41103 -0.15249
 C591 C 0.61493 0.37563 -0.21584
 C592 C 0.64680 0.35666 -0.24308
 C593 C 0.67557 0.36659 -0.11885
 C594 C 0.64385 0.38546 -0.09208
 H595 H 0.69998 0.44768 -0.24448
 H596 H 0.64222 0.48187 -0.19332
 H597 H 0.58803 0.36666 -0.23825
 H598 H 0.64674 0.33176 -0.28881
 H599 H 0.69422 0.34761 -0.08209
 H600 H 0.63551 0.38214 -0.03298
 C601 C 1.15228 0.17238 -0.18929
 C602 C 1.13125 0.14820 -0.25376
 C603 C 1.10943 0.11335 -0.22977
 C604 C 1.11033 0.10569 -0.14328
 C605 C 1.15092 0.09800 -0.12371
 C606 C 1.17314 0.13299 -0.14719
 C607 C 1.12284 0.18693 -0.13158
 C608 C 1.10094 0.15237 -0.10806
 H609 H 1.13394 0.15714 -0.31368
 H610 H 1.09358 0.09251 -0.26897
 H611 H 1.16113 0.06896 -0.09128
 H612 H 1.20189 0.13301 -0.13107
 H613 H 1.12019 0.22128 -0.10885
 H614 H 1.07959 0.15756 -0.06556
 C615 C 1.15141 0.67282 0.30892
 C616 C 1.13054 0.64833 0.24459
 C617 C 1.10874 0.61354 0.26883
 C618 C 1.10948 0.60626 0.35540
 C619 C 1.15004 0.59875 0.37544
 C620 C 1.17224 0.63369 0.35176
 C621 C 1.12185 0.68758 0.36624
 C622 C 1.09996 0.65307 0.39001
 H623 H 1.13331 0.65704 0.18459
 H624 H 1.09297 0.59251 0.22976
 H625 H 1.16020 0.56997 0.40860
 H626 H 1.20090 0.63405 0.36862
 H627 H 1.11916 0.72201 0.38863
 H628 H 1.07857 0.65837 0.43237
 C629 C 0.65156 0.17067 0.30653
 C630 C 0.67257 0.13098 0.34709
 C631 C 0.65030 0.09632 0.37167
 C632 C 0.60958 0.10466 0.35400
 C633 C 0.60096 0.15139 0.38982
 C634 C 0.62290 0.18564 0.36536
 C635 C 0.62969 0.14709 0.24282
 C636 C 0.60784 0.11248 0.26755
 H637 H 0.70173 0.13014 0.35962
 H638 H 0.66067 0.06671 0.40240
 H639 H 0.58002 0.15685 0.43307
 H640 H 0.62074 0.22010 0.38781
 H641 H 0.63189 0.15624 0.18293
 H642 H 0.59139 0.09194 0.22894
 C643 C 0.65127 0.67316 -0.19211
 C644 C 0.62180 0.68782 -0.13449
 C645 C 0.59982 0.65333 -0.11097
 C646 C 0.60916 0.60660 -0.14608
 C647 C 0.60833 0.61421 -0.23257
 C648 C 0.63023 0.64898 -0.25658
 C649 C 0.67202 0.63376 -0.14984
 C650 C 0.64973 0.59885 -0.12636
 H651 H 0.61921 0.72219 -0.11180
 H652 H 0.57846 0.65858 -0.06853
 H653 H 0.59244 0.59340 -0.27177
 H654 H 0.63296 0.65790 -0.31650
 H655 H 0.70075 0.63379 -0.13345
 H656 H 0.65987 0.56985 -0.09372
 C657 C 0.84770 -0.17194 -0.18654
 C658 C 0.82706 -0.13175 -0.14720
 C659 C 0.84976 -0.09794 -0.12150
 C660 C 0.89053 -0.10755 -0.13690
 C661 C 0.89787 -0.15466 -0.10086
 C662 C 0.87546 -0.18809 -0.12640
 C663 C 0.87074 -0.14872 -0.24915
 C664 C 0.89303 -0.11500 -0.22331
 H665 H 0.79767 -0.12947 -0.13788
 H666 H 0.83961 -0.06780 -0.09231
 H667 H 0.91833 -0.16086 -0.05680
 H668 H 0.87674 -0.22277 -0.10417
 H669 H 0.86895 -0.15737 -0.30919
 H670 H 0.91026 -0.09476 -0.26119
 C671 C 0.84783 0.32825 0.31137
 C672 C 0.82692 0.36859 0.34971
 C673 C 0.84946 0.40260 0.37528
 C674 C 0.89028 0.39296 0.36073
 C675 C 0.89755 0.34611 0.39770
 C676 C 0.87533 0.31248 0.37227
 C677 C 0.87107 0.35117 0.24879
 C678 C 0.89317 0.38508 0.27449
 H679 H 0.79751 0.37085 0.35854
 H680 H 0.83914 0.43288 0.40383
 H681 H 0.91780 0.34022 0.44231
 H682 H 0.87654 0.27794 0.39512
 H683 H 0.86952 0.34221 0.18884
 H684 H 0.91048 0.40520 0.23660
 C685 C 0.34745 -0.17247 0.31395
 C686 C 0.37038 -0.14916 0.25127
 C687 C 0.39252 -0.11528 0.27702
 C688 C 0.39001 -0.10778 0.36342
 C689 C 0.34923 -0.09838 0.37883
 C690 C 0.32665 -0.13235 0.35324
 C691 C 0.37526 -0.18842 0.37409
 C692 C 0.39753 -0.15482 0.39957
 H693 H 0.36861 -0.15786 0.19124
 H694 H 0.40965 -0.09495 0.23907
 H695 H 0.33897 -0.06829 0.40800
 H696 H 0.29728 -0.13024 0.36271
 H697 H 0.37668 -0.22307 0.39639
 H698 H 0.41800 -0.16087 0.44367
 C699 C 0.34721 0.32706 -0.18748
 C700 C 0.32657 0.36760 -0.14860
 C701 C 0.34926 0.40164 -0.12381
 C702 C 0.38999 0.39205 -0.13923
 C703 C 0.39746 0.34525 -0.10226
 C704 C 0.37510 0.31154 -0.12693
 C705 C 0.37015 0.35011 -0.25062
 C706 C 0.39241 0.38404 -0.22546
 H707 H 0.29729 0.37006 -0.13821
 H708 H 0.33911 0.43188 -0.09486
 H709 H 0.41793 0.33949 -0.05804
 H710 H 0.37647 0.27710 -0.10364
 H711 H 0.36830 0.34125 -0.31060
 H712 H 0.40950 0.40415 -0.26379
 C713 C 1.15168 -0.17318 0.19243
 C714 C 1.13050 -0.14879 0.25644
 C715 C 1.10884 -0.11397 0.23191
 C716 C 1.10999 -0.10656 0.14537
 C717 C 1.15064 -0.09900 0.12620
 C718 C 1.17272 -0.13400 0.15016
 C719 C 1.12240 -0.18786 0.13446
 C720 C 1.10063 -0.15331 0.11038
 H721 H 1.13298 -0.15758 0.31646
 H722 H 1.09289 -0.09298 0.27076
 H723 H 1.16095 -0.07020 0.09331
 H724 H 1.20145 -0.13438 0.13378
 H725 H 1.11983 -0.22225 0.11185
 H726 H 1.07946 -0.15853 0.06752
 C727 C 1.15113 0.32822 0.69290
 C728 C 1.12916 0.35204 0.75621
 C729 C 1.10737 0.38659 0.73104
 C730 C 1.10921 0.39417 0.64453
 C731 C 1.14997 0.40239 0.62702
 C732 C 1.17218 0.36775 0.65196
 C733 C 1.12252 0.31308 0.63404
 C734 C 1.10063 0.34731 0.60909
 H735 H 1.13123 0.34305 0.81619
 H736 H 1.09086 0.40723 0.76940
 H737 H 1.16037 0.43174 0.59563
 H738 H 1.20129 0.36825 0.63885
 H739 H 1.12041 0.27857 0.61184
 H740 H 1.07979 0.34178 0.56567
 C741 C 0.65151 -0.17274 0.69190
 C742 C 0.67248 -0.13351 0.64962
 C743 C 0.65033 -0.09858 0.62558
 C744 C 0.60968 -0.10623 0.64472
 C745 C 0.60042 -0.15302 0.60978
 C746 C 0.62226 -0.18750 0.63388
 C747 C 0.63026 -0.14838 0.75585
 C748 C 0.60853 -0.11362 0.73127
 H749 H 0.70123 -0.13381 0.63337
 H750 H 0.66060 -0.06975 0.59270
 H751 H 0.57926 -0.15831 0.56692
 H752 H 0.61976 -0.22190 0.61128
 H753 H 0.63275 -0.15715 0.81588
 H754 H 0.59254 -0.09268 0.77010
 C755 C 0.65137 0.32842 0.18870
 C756 C 0.62960 0.35187 0.25269
 C757 C 0.60775 0.38654 0.22835
 C758 C 0.60937 0.39457 0.14195
 C759 C 0.65007 0.40291 0.12406
 C760 C 0.67234 0.36814 0.14817
 C761 C 0.62262 0.31359 0.12996
 C762 C 0.60067 0.34793 0.10586
 H763 H 0.63186 0.34256 0.31251
 H764 H 0.59137 0.40699 0.26722
 H765 H 0.66038 0.43245 0.09304
 H766 H 0.70142 0.36871 0.13476
 H767 H 0.62046 0.27920 0.10720
 H768 H 0.57970 0.34262 0.06262
 C769 C 0.84846 0.17306 0.18826
 C770 C 0.87113 0.14985 0.25142
 C771 C 0.89338 0.11595 0.22617
 C772 C 0.89117 0.10838 0.13979
 C773 C 0.85046 0.09897 0.12368
 C774 C 0.82780 0.13296 0.14870
 C775 C 0.87651 0.18896 0.12850
 C776 C 0.89887 0.15533 0.10354
 H777 H 0.86914 0.15866 0.31138
 H778 H 0.91038 0.09568 0.26443
 H779 H 0.84032 0.06896 0.09407
 H780 H 0.79851 0.13104 0.13805
 H781 H 0.87798 0.22357 0.10603
 H782 H 0.91950 0.16130 0.05972
 C783 C 0.84749 0.67328 0.68829
 C784 C 0.82670 0.63318 0.64899
 C785 C 0.84929 0.59924 0.62330
 C786 C 0.89009 0.60865 0.63864
 C787 C 0.89754 0.65569 0.60246
 C788 C 0.87526 0.68927 0.62805
 C789 C 0.87048 0.64997 0.75086
 C790 C 0.89263 0.61613 0.72503
 H791 H 0.79734 0.63116 0.63932
 H792 H 0.83905 0.56920 0.59395
 H793 H 0.91797 0.66176 0.55826
 H794 H 0.87662 0.72392 0.60572
 H795 H 0.86874 0.65865 0.81090
 H796 H 0.90979 0.59582 0.76291
 C797 C 0.34830 0.17358 0.68994
 C798 C 0.37147 0.15036 0.75230
 C799 C 0.39357 0.11651 0.72629
 C800 C 0.39079 0.10895 0.63994
 C801 C 0.34997 0.09948 0.62510
 C802 C 0.32745 0.13342 0.65091
 C803 C 0.37590 0.18956 0.62935
 C804 C 0.39813 0.15597 0.60356
 H805 H 0.36991 0.15913 0.81232
 H806 H 0.41086 0.09626 0.76401
 H807 H 0.33967 0.06947 0.59576
 H808 H 0.29809 0.13143 0.64117
 H809 H 0.37718 0.22419 0.60694
 H810 H 0.41843 0.16201 0.55911
 C811 C 0.34749 0.67281 0.18835
 C812 C 0.37514 0.68892 0.12797
 C813 C 0.39739 0.65542 0.10208
 C814 C 0.39005 0.60832 0.13816
 C815 C 0.39274 0.61570 0.22457
 C816 C 0.37060 0.64947 0.25068
 C817 C 0.32667 0.63271 0.14907
 C818 C 0.34925 0.59884 0.12310
 H819 H 0.37643 0.72361 0.10577
 H820 H 0.41774 0.66157 0.05775
 H821 H 0.40998 0.59536 0.26225
 H822 H 0.36896 0.65808 0.31076
 H823 H 0.29729 0.63059 0.13970
 H824 H 0.33898 0.56880 0.09379
   
