data_POSCAR
  _audit_creation_date              2014-09-24
  _audit_creation_method            'ToBaCCo'
  _symmetry_space_group_name_H-M    'P1'
  _symmetry_Int_Tables_number       1
  _symmetry_cell_setting            triclinic
  loop_
  _symmetry_equiv_pos_as_xyz
 x,y,z
_cell_length_a 52.2661
_cell_length_b 51.6151
_cell_length_c 51.1663
_cell_angle_alpha 90.080700
_cell_angle_beta 89.992500
_cell_angle_gamma 119.896100
loop_
  _atom_site_label
  _atom_site_type_symbol
  _atom_site_fract_x
  _atom_site_fract_y
  _atom_site_fract_z
C1 C -0.00117 0.51073 1.32313
 C2 C 0.02587 0.52742 1.31010
 C3 C 0.02596 0.52766 1.28262
 C4 C 0.00032 0.50854 1.26816
 C5 C -0.02611 0.49050 1.28205
 C6 C -0.02747 0.49277 1.30937
 C7 C 0.00122 0.50723 1.23880
 C8 C -0.02474 0.49693 1.22375
 C9 C -0.02414 0.49496 1.19642
 C10 C 0.00281 0.50439 1.18373
 C11 C 0.02896 0.51539 1.19807
 C12 C 0.02804 0.51625 1.22543
 H13 H -0.00170 0.51150 1.34428
 H14 H 0.04635 0.54230 1.27264
 H15 H -0.04591 0.47497 1.27172
 H16 H -0.04555 0.49105 1.23292
 H17 H 0.00349 0.50336 1.16260
 H18 H 0.04838 0.52335 1.23596
 C19 C 0.48425 0.48553 1.32580
 C20 C 0.47806 0.50595 1.31313
 C21 C 0.48385 0.51081 1.28617
 C22 C 0.49331 0.49391 1.27150
 C23 C 0.49819 0.47276 1.28476
 C24 C 0.49539 0.46963 1.31210
 C25 C 0.49912 0.49918 1.24266
 C26 C 0.51950 0.49293 1.23004
 C27 C 0.52567 0.49867 1.20332
 C28 C 0.51272 0.51239 1.18923
 C29 C 0.49206 0.51840 1.20108
 C30 C 0.48475 0.51100 1.22748
 H31 H 0.48099 0.48247 1.34672
 H32 H 0.48095 0.52786 1.27669
 H33 H 0.50486 0.45910 1.27399
 H34 H 0.53123 0.48410 1.24082
 H35 H 0.51759 0.51700 1.16861
 H36 H 0.46800 0.51481 1.23605
 C37 C 0.51381 0.99361 1.31105
 C38 C 0.49768 0.96794 1.29595
 C39 C 0.50007 0.96973 1.26872
 C40 C 0.51933 0.99702 1.25621
 C41 C 0.53699 1.02226 1.27203
 C42 C 0.53358 1.02112 1.29942
 C43 C 0.51903 0.99958 1.22696
 C44 C 0.52679 1.02715 1.21497
 C45 C 0.52345 1.02911 1.18797
 C46 C 0.51086 1.00303 1.17279
 C47 C 0.50360 0.97546 1.18405
 C48 C 0.50878 0.97410 1.21080
 H49 H 0.51112 0.99178 1.33209
 H50 H 0.48567 0.94991 1.25760
 H51 H 0.55286 1.04311 1.26309
 H52 H 0.53438 1.04723 1.22650
 H53 H 0.50758 1.00431 1.15202
 H54 H 0.50376 0.95279 1.21898
 C55 C 0.99679 0.51649 0.67825
 C56 C 0.97083 0.49787 0.69192
 C57 C 0.97209 0.49489 0.71904
 C58 C 0.99862 0.51231 0.73306
 C59 C 1.02429 0.53185 0.71878
 C60 C 1.02396 0.53290 0.69126
 C61 C 0.99957 0.50937 0.76227
 C62 C 1.02620 0.51661 0.77529
 C63 C 1.02680 0.51260 0.80237
 C64 C 1.00034 0.49981 0.81649
 C65 C 0.97367 0.49273 0.80424
 C66 C 0.97361 0.49849 0.77744
 H67 H 0.99571 0.51770 0.65717
 H68 H 0.95213 0.47899 0.72896
 H69 H 1.04478 0.54590 0.72890
 H70 H 1.04658 0.52465 0.76459
 H71 H 1.00067 0.49632 0.83733
 H72 H 0.95305 0.49398 0.76854
 C73 C 0.48387 0.48279 0.67323
 C74 C 0.49572 0.46775 0.68701
 C75 C 0.49756 0.46990 0.71436
 C76 C 0.48965 0.48859 0.72812
 C77 C 0.48013 0.50540 0.71349
 C78 C 0.47616 0.50174 0.68634
 C79 C 0.49065 0.49001 0.75747
 C80 C 0.47320 0.49914 0.77151
 C81 C 0.47366 0.50014 0.79887
 C82 C 0.49097 0.49111 0.81265
 C83 C 0.50821 0.48160 0.79931
 C84 C 0.50839 0.48157 0.77189
 H85 H 0.48182 0.48079 0.65215
 H86 H 0.50470 0.45635 0.72464
 H87 H 0.47516 0.52107 0.72301
 H88 H 0.45837 0.50469 0.76150
 H89 H 0.49102 0.49149 0.83383
 H90 H 0.52295 0.47546 0.76212
 C91 C 0.50795 0.00136 0.68883
 C92 C 0.52711 0.02785 0.70187
 C93 C 0.53273 0.02706 0.72854
 C94 C 0.51723 0.00028 0.74303
 C95 C 0.49870 -0.02640 0.72908
 C96 C 0.49455 -0.02620 0.70189
 C97 C 0.51831 0.00060 0.77253
 C98 C 0.50848 -0.02603 0.78703
 C99 C 0.50433 -0.02670 0.81432
 C100 C 0.51305 0.00040 0.82749
 C101 C 0.52518 0.02746 0.81389
 C102 C 0.52695 0.02731 0.78658
 H103 H 0.50443 0.00236 0.66807
 H104 H 0.54838 0.04777 0.73783
 H105 H 0.48620 -0.04733 0.73926
 H106 H 0.50312 -0.04661 0.77715
 H107 H 0.51102 0.00068 0.84855
 H108 H 0.53403 0.04820 0.77660
 O109 O 0.37183 0.64921 0.97372
 O110 O 0.37139 0.69867 0.96593
 C111 C 0.35833 0.71342 0.96234
 O112 O 0.33628 0.70946 0.97579
 O113 O 0.28650 0.65865 0.97094
 C114 C 0.27243 0.63057 0.96741
 O115 O 0.27729 0.61250 0.98048
 O116 O 0.32566 0.61092 0.97140
 C117 C 0.35224 0.62470 0.96384
 O118 O 0.37598 0.65966 1.02560
 O119 O 0.37697 0.71009 1.01793
 C120 C 0.36011 0.71653 1.03092
 O121 O 0.33235 0.70351 1.02773
 O122 O 0.28105 0.65437 1.02353
 C123 C 0.27649 0.63156 1.03661
 O124 O 0.28941 0.61689 1.03194
 O125 O 0.33676 0.61378 1.02305
 C126 C 0.36148 0.63264 1.03283
 Cr127 Cr 0.37230 0.67856 0.99594
 Cr128 Cr 0.30982 0.68049 0.99946
 Cr129 Cr 0.30820 0.61532 1.00160
 O130 O 0.33017 0.65811 0.99908
 O131 O 0.62646 0.34119 0.97164
 O132 O 0.62430 0.29051 0.98189
 C133 C 0.64195 0.28448 0.96976
 O134 O 0.66957 0.29805 0.97386
 O135 O 0.72039 0.34736 0.97999
 C136 C 0.72456 0.36923 0.96564
 O137 O 0.71075 0.38339 0.96876
 O138 O 0.66362 0.38744 0.97805
 C139 C 0.64039 0.36876 0.96617
 O140 O 0.62751 0.35252 1.02366
 O141 O 0.62675 0.30245 1.03321
 C142 C 0.64006 0.28824 1.03843
 O143 O 0.66280 0.29204 1.02616
 O144 O 0.71202 0.34252 1.03222
 C145 C 0.72704 0.37067 1.03452
 O146 O 0.72305 0.38842 1.02019
 O147 O 0.67414 0.38934 1.02931
 C148 C 0.64693 0.37615 1.03512
 Cr149 Cr 0.62790 0.32253 1.00254
 Cr150 Cr 0.69041 0.32083 1.00299
 Cr151 Cr 0.69203 0.38546 0.99917
 O152 O 0.67002 0.34286 1.00166
 O153 O 0.66097 0.36655 0.52787
 O154 O 0.71372 0.37379 0.52018
 C155 C 0.72030 0.35672 0.53270
 O156 O 0.70864 0.32904 0.52800
 O157 O 0.66245 0.27676 0.51976
 C158 C 0.63860 0.27054 0.53159
 O159 O 0.62273 0.28192 0.52565
 O160 O 0.61707 0.32870 0.51618
 C161 C 0.63319 0.35126 0.53037
 O162 O 0.65366 0.36851 0.47592
 O163 O 0.70549 0.37279 0.46853
 C164 C 0.72073 0.36041 0.46359
 O165 O 0.71791 0.33764 0.47578
 O166 O 0.67129 0.28598 0.46745
 C167 C 0.64408 0.26988 0.46252
 O168 O 0.62432 0.27267 0.47442
 O169 O 0.62193 0.32135 0.46470
 C170 C 0.63265 0.34927 0.46188
 Cr171 Cr 0.68277 0.36876 0.49806
 Cr172 Cr 0.68915 0.30805 0.49772
 Cr173 Cr 0.62316 0.30210 0.49528
 O174 O 0.66512 0.32627 0.49698
 O175 O 0.32769 0.62764 0.53235
 O176 O 0.27881 0.62874 0.52304
 C177 C 0.27516 0.64810 0.53526
 O178 O 0.29037 0.67587 0.53082
 O179 O 0.34010 0.72504 0.52213
 C180 C 0.36238 0.72884 0.53516
 O181 O 0.37541 0.71409 0.53104
 O182 O 0.37416 0.66331 0.52443
 C183 C 0.35516 0.64053 0.53697
 O184 O 0.33602 0.62481 0.48099
 O185 O 0.28856 0.62839 0.47164
 C186 C 0.27601 0.64338 0.46646
 O187 O 0.28132 0.66700 0.47869
 O188 O 0.33201 0.71476 0.47059
 C189 C 0.35931 0.72705 0.46558
 O190 O 0.37712 0.72193 0.47847
 O191 O 0.37374 0.67016 0.47209
 C192 C 0.35923 0.64219 0.46831
 Cr193 Cr 0.30868 0.62912 0.50200
 Cr194 Cr 0.31171 0.69474 0.50061
 Cr195 Cr 0.37347 0.69164 0.50153
 O196 O 0.33132 0.67185 0.50135
 C197 C 0.44262 0.54899 0.35520
 N198 N 0.44584 0.52690 0.36614
 N199 N 0.45761 0.51340 0.35261
 C200 C 0.46639 0.52111 0.32742
 N201 N 0.46303 0.54328 0.31647
 N202 N 0.45155 0.55708 0.33013
 C203 C 0.42919 0.56327 0.37044
 N204 N 0.43308 0.59049 0.36380
 N205 N 0.42131 0.60340 0.37835
 C206 C 0.40495 0.58934 0.39981
 N207 N 0.40090 0.56206 0.40624
 N208 N 0.41292 0.54936 0.39192
 C209 C 0.39219 0.60329 0.41638
 N210 N 0.37062 0.58636 0.43370
 N211 N 0.35974 0.59879 0.44974
 C212 C 0.37021 0.62870 0.44927
 N213 N 0.39177 0.64571 0.43189
 N214 N 0.40246 0.63320 0.41562
 C215 C 0.44636 0.88823 0.33657
 N216 N 0.44499 0.91312 0.34256
 N217 N 0.46078 0.93829 0.32917
 C218 C 0.47818 0.93937 0.30902
 N219 N 0.47914 0.91431 0.30268
 N220 N 0.46364 0.88922 0.31633
 C221 C 0.43102 0.86153 0.35298
 N222 N 0.44070 0.84157 0.35448
 N223 N 0.42833 0.81874 0.37115
 C224 C 0.40563 0.81490 0.38668
 N225 N 0.39566 0.83459 0.38485
 N226 N 0.40827 0.85761 0.36845
 C227 C 0.39301 0.79089 0.40612
 N228 N 0.36630 0.78254 0.41694
 N229 N 0.35539 0.76180 0.43555
 C230 C 0.37096 0.74894 0.44430
 N231 N 0.39768 0.75726 0.43348
 N232 N 0.40845 0.77777 0.41462
 C233 C 0.10368 0.56674 0.35198
 N234 N 0.10375 0.57304 0.32622
 N235 N 0.07859 0.56081 0.31269
 C236 C 0.05235 0.54226 0.32448
 N237 N 0.05250 0.53666 0.35042
 N238 N 0.07762 0.54844 0.36383
 C239 C 0.13120 0.57825 0.36676
 N240 N 0.13306 0.56186 0.38660
 N241 N 0.15774 0.57212 0.40052
 C242 C 0.18132 0.59934 0.39535
 N243 N 0.17949 0.61586 0.37555
 N244 N 0.15492 0.60535 0.36130
 C245 C 0.20761 0.61110 0.41193
 N246 N 0.22436 0.64090 0.41642
 N247 N 0.24662 0.65128 0.43343
 C248 C 0.25319 0.63228 0.44619
 N249 N 0.23679 0.60254 0.44131
 N250 N 0.21425 0.59212 0.42463
 C251 C 0.52907 0.42435 0.35302
 N252 N 0.51824 0.43990 0.36568
 N253 N 0.50640 0.45348 0.35244
 C254 C 0.50516 0.45248 0.32589
 N255 N 0.51567 0.43646 0.31324
 N256 N 0.52727 0.42254 0.32654
 C257 C 0.54444 0.41191 0.36795
 N258 N 0.54852 0.38972 0.35820
 N259 N 0.56306 0.37923 0.37206
 C260 C 0.57440 0.39095 0.39592
 N261 N 0.57040 0.41319 0.40549
 N262 N 0.55557 0.42333 0.39186
 C263 C 0.59087 0.38024 0.41148
 N264 N 0.60976 0.39817 0.43023
 N265 N 0.62371 0.38844 0.44559
 C266 C 0.61910 0.36027 0.44301
 N267 N 0.60026 0.34226 0.42417
 N268 N 0.58653 0.35216 0.40853
 C269 C 0.57378 0.09708 0.34523
 N270 N 0.58106 0.09845 0.31958
 N271 N 0.56849 0.07388 0.30475
 C272 C 0.54839 0.04699 0.31504
 N273 N 0.54173 0.04584 0.34084
 N274 N 0.55400 0.07033 0.35556
 C275 C 0.58547 0.12399 0.36155
 N276 N 0.57086 0.12340 0.38363
 N277 N 0.58065 0.14755 0.39863
 C278 C 0.60563 0.17316 0.39231
 N279 N 0.62048 0.17382 0.37028
 N280 N 0.61044 0.14967 0.35503
 C281 C 0.61590 0.19937 0.40934
 N282 N 0.64448 0.22178 0.40926
 N283 N 0.65362 0.24458 0.42597
 C284 C 0.63439 0.24588 0.44309
 N285 N 0.60581 0.22366 0.44286
 N286 N 0.59679 0.20078 0.42641
 C287 C 0.89318 0.45171 0.34897
 N288 N 0.91826 0.47236 0.36092
 N289 N 0.94386 0.48503 0.34823
 C290 C 0.94546 0.47797 0.32290
 N291 N 0.92018 0.45727 0.31092
 N292 N 0.89457 0.44417 0.32379
 C293 C 0.86520 0.43819 0.36328
 N294 N 0.84374 0.40960 0.35855
 N295 N 0.81912 0.39703 0.37283
 C296 C 0.81492 0.41281 0.39196
 N297 N 0.83619 0.44152 0.39636
 N298 N 0.86097 0.45390 0.38241
 C299 C 0.78881 0.39873 0.40882
 N300 N 0.77940 0.41566 0.42136
 N301 N 0.75702 0.40326 0.43820
 C302 C 0.74359 0.37357 0.44341
 N303 N 0.75295 0.35662 0.43082
 N304 N 0.77502 0.36894 0.41368
 C305 C 0.57260 0.46629 1.16119
 N306 N 0.55626 0.45128 1.18233
 N307 N 0.54233 0.46225 1.19636
 C308 C 0.54394 0.48846 1.18961
 N309 N 0.56047 0.50356 1.16855
 N310 N 0.57470 0.49278 1.15471
 C311 C 0.58597 0.45308 1.14450
 N312 N 0.60771 0.47025 1.12736
 N313 N 0.61860 0.45793 1.11114
 C314 C 0.60784 0.42795 1.11121
 N315 N 0.58614 0.41079 1.12837
 N316 N 0.57551 0.42315 1.14482
 C317 C 0.61858 0.41419 1.09226
 N318 N 0.60186 0.38483 1.08594
 N319 N 0.61094 0.37263 1.06782
 C320 C 0.63724 0.38929 1.05561
 N321 N 0.65412 0.41857 1.06214
 N322 N 0.64487 0.43085 1.08001
 C323 C 0.89829 0.45961 1.15199
 N324 N 0.92429 0.48126 1.14206
 N325 N 0.94889 0.49262 1.15626
 C326 C 0.94837 0.48301 1.18104
 N327 N 0.92226 0.46154 1.19107
 N328 N 0.89769 0.44994 1.17676
 C329 C 0.87152 0.44659 1.13587
 N330 N 0.84761 0.41998 1.14224
 N331 N 0.82378 0.40778 1.12693
 C332 C 0.82296 0.42194 1.10487
 N333 N 0.84677 0.44865 1.09867
 N334 N 0.87067 0.46068 1.11380
 C335 C 0.79718 0.40854 1.08751
 N336 N 0.79422 0.42538 1.06875
 N337 N 0.77153 0.41329 1.05224
 C338 C 0.75108 0.38382 1.05371
 N339 N 0.75397 0.36689 1.07251
 N340 N 0.77658 0.37909 1.08921
 C341 C 0.55460 0.11205 1.15139
 N342 N 0.56860 0.10932 1.17264
 N343 N 0.55823 0.08308 1.18462
 C344 C 0.53368 0.05849 1.17560
 N345 N 0.51967 0.06125 1.15434
 N346 N 0.52983 0.08759 1.14255
 C347 C 0.56694 0.14057 1.13737
 N348 N 0.54991 0.14614 1.12089
 N349 N 0.56154 0.17144 1.10720
 C350 C 0.59070 0.19189 1.10926
 N351 N 0.60771 0.18633 1.12577
 N352 N 0.59600 0.16122 1.13971
 C353 C 0.60395 0.21856 1.09260
 N354 N 0.63319 0.23253 1.08686
 N355 N 0.64487 0.25526 1.07007
 C356 C 0.62784 0.26514 1.05874
 N357 N 0.59871 0.25152 1.06484
 N358 N 0.58694 0.22852 1.08136
 C359 C 0.45228 0.55652 1.15608
 N360 N 0.43730 0.53773 1.17607
 N361 N 0.45002 0.52588 1.19065
 C362 C 0.47805 0.53211 1.18558
 N363 N 0.49294 0.55090 1.16557
 N364 N 0.48036 0.56298 1.15119
 C365 C 0.43830 0.56916 1.13951
 N366 N 0.45501 0.59264 1.12360
 N367 N 0.44245 0.60360 1.10784
 C368 C 0.41266 0.59129 1.10720
 N369 N 0.39590 0.56781 1.12313
 N370 N 0.40851 0.55703 1.13910
 C371 C 0.39892 0.60261 1.08886
 N372 N 0.36980 0.58608 1.08286
 N373 N 0.35776 0.59576 1.06521
 C374 C 0.37434 0.62246 1.05310
 N375 N 0.40338 0.63912 1.05934
 N376 N 0.41547 0.62931 1.07679
 C377 C 0.10853 0.54910 1.15710
 N378 N 0.10661 0.56349 1.17859
 N379 N 0.08150 0.55232 1.19206
 C380 C 0.05730 0.52658 1.18431
 N381 N 0.05926 0.51223 1.16280
 N382 N 0.08448 0.52317 1.14957
 C383 C 0.13570 0.56186 1.14155
 N384 N 0.14111 0.54412 1.12559
 N385 N 0.16508 0.55578 1.11055
 C386 C 0.18431 0.58565 1.11064
 N387 N 0.17891 0.60343 1.12659
 N388 N 0.15512 0.59170 1.14191
 C389 C 0.20970 0.59841 1.09287
 N390 N 0.22250 0.62741 1.08519
 N391 N 0.24419 0.63826 1.06758
 C392 C 0.25410 0.62060 1.05732
 N393 N 0.24159 0.59176 1.06533
 N394 N 0.21968 0.58082 1.08265
 C395 C 0.46090 0.89635 1.14023
 N396 N 0.47961 0.89922 1.15988
 N397 N 0.49340 0.92444 1.17370
 C398 C 0.48934 0.94788 1.16814
 N399 N 0.47084 0.94505 1.14831
 N400 N 0.45678 0.91972 1.13470
 C401 C 0.44509 0.86837 1.12535
 N402 N 0.42062 0.86224 1.11138
 N403 N 0.40624 0.83693 1.09777
 C404 C 0.41596 0.81697 1.09744
 N405 N 0.44048 0.82313 1.11136
 N406 N 0.45467 0.84829 1.12523
 C407 C 0.40077 0.78973 1.08151
 N408 N 0.41487 0.77478 1.07423
 N409 N 0.40168 0.75108 1.05850
 C410 C 0.37378 0.74122 1.04979
 N411 N 0.35953 0.75590 1.05739
 N412 N 0.37284 0.77982 1.07287
 C413 C 0.53266 0.42448 0.64533
 N414 N 0.50952 0.42623 0.63531
 N415 N 0.49734 0.43947 0.64874
 C416 C 0.50762 0.45110 0.67282
 N417 N 0.53051 0.44894 0.68295
 N418 N 0.54288 0.43599 0.66942
 C419 C 0.54718 0.41157 0.62984
 N420 N 0.57472 0.41712 0.63614
 N421 N 0.58848 0.40661 0.62129
 C422 C 0.57506 0.38993 0.59976
 N423 N 0.54742 0.38414 0.59364
 N424 N 0.53379 0.39489 0.60832
 C425 C 0.59030 0.37903 0.58278
 N426 N 0.57492 0.35791 0.56445
 N427 N 0.58866 0.34874 0.54819
 C428 C 0.61836 0.36052 0.54948
 N429 N 0.63383 0.38163 0.56786
 N430 N 0.62000 0.39063 0.58432
 C431 C 0.56298 0.10750 0.65917
 N432 N 0.57962 0.10348 0.67736
 N433 N 0.56821 0.07839 0.69141
 C434 C 0.53990 0.05632 0.68744
 N435 N 0.52337 0.06048 0.66929
 N436 N 0.53462 0.08563 0.65553
 C437 C 0.57531 0.13439 0.64282
 N438 N 0.55695 0.14095 0.62925
 N439 N 0.56773 0.16420 0.61308
 C440 C 0.59727 0.18158 0.60964
 N441 N 0.61571 0.17515 0.62328
 N442 N 0.60491 0.15202 0.63969
 C443 C 0.60872 0.20594 0.59047
 N444 N 0.63689 0.21840 0.58159
 N445 N 0.64655 0.23921 0.56298
 C446 C 0.62845 0.24842 0.55273
 N447 N 0.60041 0.23619 0.56184
 N448 N 0.59069 0.21523 0.58027
 C449 C 0.89116 0.45361 0.65024
 N450 N 0.91344 0.48047 0.64223
 N451 N 0.93864 0.49432 0.65552
 C452 C 0.94255 0.48202 0.67751
 N453 N 0.92013 0.45520 0.68572
 N454 N 0.89494 0.44115 0.67223
 C455 C 0.86375 0.43854 0.63492
 N456 N 0.84408 0.40899 0.63808
 N457 N 0.81996 0.39545 0.62314
 C458 C 0.81457 0.41107 0.60471
 N459 N 0.83411 0.44063 0.60180
 N460 N 0.85827 0.45406 0.61653
 C461 C 0.78876 0.39644 0.58736
 N462 N 0.78181 0.41331 0.57181
 N463 N 0.75954 0.40050 0.55492
 C464 C 0.74344 0.37031 0.55277
 N465 N 0.75024 0.35334 0.56843
 N466 N 0.77246 0.36619 0.58550
 C467 C 0.43845 0.54496 0.64586
 N468 N 0.45682 0.55857 0.66637
 N469 N 0.46892 0.54490 0.67922
 C470 C 0.46345 0.51732 0.67178
 N471 N 0.44528 0.50387 0.65110
 N472 N 0.43290 0.51736 0.63847
 C473 C 0.42478 0.55972 0.63183
 N474 N 0.40034 0.54346 0.61701
 N475 N 0.38811 0.55680 0.60389
 C476 C 0.40005 0.58692 0.60490
 N477 N 0.42453 0.60322 0.61970
 N478 N 0.43656 0.58983 0.63310
 C479 C 0.38753 0.60161 0.58912
 N480 N 0.40418 0.63087 0.58255
 N481 N 0.39358 0.64356 0.56648
 C482 C 0.36579 0.62755 0.55671
 N483 N 0.34896 0.59844 0.56367
 N484 N 0.35969 0.58566 0.57949
 C485 C 0.44733 0.89631 0.65899
 N486 N 0.45427 0.89497 0.68434
 N487 N 0.46885 0.91991 0.69850
 C488 C 0.47747 0.94715 0.68773
 N489 N 0.47031 0.94819 0.66237
 N490 N 0.45539 0.92334 0.64837
 C491 C 0.43224 0.86940 0.64270
 N492 N 0.41811 0.86992 0.62065
 N493 N 0.40581 0.84638 0.60476
 C494 C 0.40754 0.82157 0.61010
 N495 N 0.42165 0.82095 0.63220
 N496 N 0.43368 0.84443 0.64830
 C497 C 0.39502 0.79645 0.59162
 N498 N 0.40368 0.77561 0.59163
 N499 N 0.39329 0.75389 0.57373
 C500 C 0.37372 0.75217 0.55536
 N501 N 0.36491 0.77284 0.55558
 N502 N 0.37549 0.79466 0.57326
 C503 C 0.10098 0.57473 0.64826
 N504 N 0.10176 0.57862 0.67457
 N505 N 0.07688 0.56568 0.68853
 C506 C 0.05024 0.54865 0.67670
 N507 N 0.04971 0.54550 0.65029
 N508 N 0.07450 0.55807 0.63641
 C509 C 0.12812 0.58650 0.63273
 N510 N 0.12760 0.57331 0.60964
 N511 N 0.15195 0.58320 0.59535
 C512 C 0.17772 0.60691 0.60343
 N513 N 0.17831 0.62034 0.62647
 N514 N 0.15395 0.61014 0.64100
 C515 C 0.20416 0.61759 0.58710
 N516 N 0.22663 0.64632 0.58847
 N517 N 0.24960 0.65610 0.57226
 C518 C 0.25107 0.63737 0.55439
 N519 N 0.22881 0.60859 0.55335
 N520 N 0.20573 0.59895 0.56928
 C521 C 0.42734 0.53316 0.84091
 N522 N 0.42885 0.50919 0.84978
 N523 N 0.44328 0.49844 0.83624
 C524 C 0.45640 0.51102 0.81317
 N525 N 0.45450 0.53473 0.80411
 N526 N 0.44041 0.54574 0.81783
 C527 C 0.41330 0.54623 0.85678
 N528 N 0.42109 0.57539 0.85388
 N529 N 0.40989 0.58786 0.86957
 C530 C 0.39022 0.57150 0.88846
 N531 N 0.38208 0.54223 0.89110
 N532 N 0.39358 0.52986 0.87565
 C533 C 0.37927 0.58558 0.90678
 N534 N 0.35435 0.56871 0.92083
 N535 N 0.34531 0.58133 0.93854
 C536 C 0.36111 0.61120 0.94310
 N537 N 0.38601 0.62807 0.92902
 N538 N 0.39483 0.61551 0.91106
 C539 C 0.10546 0.54408 0.84475
 N540 N 0.10495 0.55770 0.82221
 N541 N 0.08021 0.54707 0.80821
 C542 C 0.05499 0.52259 0.81633
 N543 N 0.05564 0.50890 0.83877
 N544 N 0.08042 0.51933 0.85261
 C545 C 0.13203 0.55664 0.86122
 N546 N 0.13383 0.54044 0.88127
 N547 N 0.15710 0.55220 0.89718
 C548 C 0.17933 0.58073 0.89382
 N549 N 0.17761 0.59696 0.87372
 N550 N 0.15442 0.58509 0.85765
 C551 C 0.20425 0.59386 0.91223
 N552 N 0.22329 0.62381 0.91283
 N553 N 0.24513 0.63562 0.93031
 C554 C 0.24881 0.61787 0.94771
 N555 N 0.22990 0.58794 0.94693
 N556 N 0.20797 0.57618 0.92961
 C557 C 0.46102 0.89336 0.85442
 N558 N 0.46802 0.91953 0.86636
 N559 N 0.48262 0.94529 0.85356
 C560 C 0.49059 0.94604 0.82815
 N561 N 0.48363 0.91970 0.81627
 N562 N 0.46931 0.89389 0.82919
 C563 C 0.44404 0.86506 0.86857
 N564 N 0.44390 0.83983 0.86073
 N565 N 0.42874 0.81444 0.87411
 C566 C 0.41284 0.81331 0.89553
 N567 N 0.41280 0.83847 0.90315
 N568 N 0.42821 0.86388 0.89001
 C569 C 0.39687 0.78586 0.91103
 N570 N 0.37596 0.78298 0.92837
 N571 N 0.36284 0.75922 0.94393
 C572 C 0.37030 0.73754 0.94290
 N573 N 0.39106 0.74027 0.92540
 N574 N 0.40397 0.76392 0.90961
 C575 C 0.55454 0.45001 0.84321
 N576 N 0.55178 0.47336 0.85185
 N577 N 0.53739 0.48365 0.83770
 C578 C 0.52555 0.47123 0.81420
 N579 N 0.52866 0.44811 0.80537
 N580 N 0.54277 0.43757 0.81969
 C581 C 0.56914 0.43795 0.85962
 N582 N 0.56442 0.40985 0.85579
 N583 N 0.57654 0.39852 0.87173
 C584 C 0.59402 0.41503 0.89187
 N585 N 0.59896 0.44321 0.89546
 N586 N 0.58662 0.45440 0.87973
 C587 C 0.60679 0.40266 0.91010
 N588 N 0.62868 0.42115 0.92655
 N589 N 0.63962 0.41021 0.94402
 C590 C 0.62890 0.38033 0.94589
 N591 N 0.60701 0.36174 0.92939
 N592 N 0.59623 0.37274 0.91171
 C593 C 0.89520 0.45265 0.84779
 N594 N 0.91887 0.45040 0.85543
 N595 N 0.94375 0.46331 0.84164
 C596 C 0.94594 0.47883 0.81955
 N597 N 0.92216 0.48094 0.81181
 N598 N 0.89729 0.46821 0.82575
 C599 C 0.86803 0.43855 0.86343
 N600 N 0.84633 0.44534 0.85955
 N601 N 0.82222 0.43312 0.87451
 C602 C 0.81887 0.41350 0.89369
 N603 N 0.84047 0.40655 0.89735
 N604 N 0.86462 0.41891 0.88256
 C605 C 0.79305 0.40078 0.91102
 N606 N 0.78846 0.37864 0.92793
 N607 N 0.76612 0.36809 0.94479
 C608 C 0.74758 0.37937 0.94549
 N609 N 0.75201 0.40139 0.92845
 N610 N 0.77429 0.41184 0.91144
 C611 C 0.55745 0.10767 0.85580
 N612 N 0.56956 0.10703 0.83250
 N613 N 0.55890 0.08167 0.81894
 C614 C 0.53594 0.05592 0.82828
 N615 N 0.52385 0.05662 0.85159
 N616 N 0.53430 0.08204 0.86501
 C617 C 0.56967 0.13534 0.87122
 N618 N 0.55410 0.13768 0.89142
 N619 N 0.56546 0.16236 0.90597
 C620 C 0.59293 0.18552 0.90106
 N621 N 0.60853 0.18320 0.88086
 N622 N 0.59704 0.15861 0.86612
 C623 C 0.60572 0.21214 0.91790
 N624 N 0.63521 0.23178 0.91785
 N625 N 0.64683 0.25509 0.93412
 C626 C 0.62932 0.25975 0.95083
 N627 N 0.59982 0.24029 0.95064
 N628 N 0.58825 0.21686 0.93457
   
