data_POSCAR
  _audit_creation_date              2014-09-24
  _audit_creation_method            'ToBaCCo'
  _symmetry_space_group_name_H-M    'P1'
  _symmetry_Int_Tables_number       1
  _symmetry_cell_setting            triclinic
  loop_
  _symmetry_equiv_pos_as_xyz
 x,y,z
_cell_length_a 34.7686
_cell_length_b 40.7441
_cell_length_c 30.6447
_cell_angle_alpha 90.095200
_cell_angle_beta 89.892700
_cell_angle_gamma 89.997600
loop_
  _atom_site_label
  _atom_site_type_symbol
  _atom_site_fract_x
  _atom_site_fract_y
  _atom_site_fract_z
Si1 Si 1.25440 0.24760 0.25055
 Si2 Si 0.74997 -0.24630 0.25425
 Si3 Si 0.74879 0.24658 -0.24747
 Si4 Si 1.24792 -0.24765 -0.25699
 Si5 Si 0.25085 0.24822 0.74771
 Si6 Si 0.75343 0.75422 0.74750
 Si7 Si 0.74280 0.24667 0.24716
 Si8 Si 0.24839 0.75231 0.25532
 O9 O 1.06772 -0.04518 0.08503
 O10 O 1.03465 -0.08173 0.04202
 C11 C 1.05864 -0.07470 0.07290
 O12 O 0.92828 0.04543 0.07476
 O13 O 0.96735 0.08215 0.03912
 C14 C 0.93880 0.07495 0.06452
 O15 O 0.93313 -0.04603 0.08011
 O16 O 0.96964 -0.08220 0.04004
 C17 C 0.94352 -0.07539 0.06879
 O18 O 1.07126 0.04663 0.07973
 O19 O 1.03459 0.08252 0.03974
 C20 C 1.06131 0.07591 0.06768
 Zr21 Zr 1.04937 0.00060 0.05954
 O22 O 1.04796 0.00393 0.12847
 O23 O 1.11014 -0.00072 0.05809
 Zr24 Zr 0.95293 -0.00013 0.05712
 O25 O 0.95811 0.00153 0.12577
 O26 O 0.89234 -0.00186 0.06256
 O27 O 1.00118 -0.02928 0.06682
 O28 O 1.00059 0.02920 0.06614
 O29 O 1.07518 0.04611 -0.06938
 O30 O 1.03620 0.08236 -0.03259
 C31 C 1.06443 0.07550 -0.05871
 O32 O 0.93704 -0.04660 -0.07775
 O33 O 0.97136 -0.08243 -0.03512
 C34 C 0.94689 -0.07590 -0.06563
 O35 O 0.93237 0.04513 -0.07420
 O36 O 0.96798 0.08180 -0.03422
 C37 C 0.94159 0.07464 -0.06233
 O38 O 1.07208 -0.04544 -0.07385
 O39 O 1.03626 -0.08194 -0.03365
 C40 C 1.06209 -0.07488 -0.06262
 Zr41 Zr 1.05199 0.00034 -0.05046
 O42 O 1.05205 0.00392 -0.11940
 O43 O 1.11276 -0.00210 -0.04966
 Zr44 Zr 0.95520 -0.00042 -0.05343
 O45 O 0.95878 0.00309 -0.12227
 O46 O 0.89455 -0.00423 -0.05674
 Zr47 Zr 1.00273 -0.04901 0.00321
 Zr48 Zr 1.00159 0.04929 0.00292
 O49 O 1.00347 0.02873 -0.06005
 O50 O 1.00411 -0.02952 -0.06049
 O51 O 1.05770 0.02977 0.00469
 O52 O 0.94710 -0.02870 0.00171
 O53 O 1.05804 -0.02809 0.00484
 O54 O 0.94593 0.02871 0.00155
 H55 H 0.99992 0.04429 0.09154
 H56 H 0.92442 -0.04340 0.00105
 H57 H 1.00396 0.04373 -0.08547
 H58 H 1.08094 -0.04255 0.00561
 H59 H 0.88220 -0.00486 0.03275
 H60 H 0.88367 0.01276 -0.03717
 H61 H 0.97241 -0.01664 -0.13304
 H62 H 1.03877 -0.01569 -0.13103
 H63 H 1.12146 0.01085 -0.02417
 H64 H 1.11866 -0.00053 0.08894
 H65 H 1.02936 -0.01268 0.13896
 H66 H 0.93150 0.00206 0.13733
 O67 O 1.06455 0.44926 0.57493
 O68 O 1.02911 0.41362 0.53293
 C69 C 1.05434 0.42003 0.56285
 O70 O 0.92744 0.54270 0.57151
 O71 O 0.96573 0.57902 0.53408
 C72 C 0.93808 0.57212 0.56095
 O73 O 0.92973 0.45116 0.57499
 O74 O 0.96408 0.41456 0.53317
 C75 C 0.93899 0.42165 0.56305
 O76 O 1.07032 0.54074 0.57185
 O77 O 1.03321 0.57809 0.53480
 C78 C 1.06062 0.57041 0.56146
 Zr79 Zr 1.04686 0.49554 0.55102
 O80 O 1.04770 0.49792 0.62003
 O81 O 1.10750 0.49306 0.54707
 Zr82 Zr 0.95025 0.49688 0.55199
 O83 O 0.95726 0.49751 0.62046
 O84 O 0.88972 0.49707 0.55925
 O85 O 0.99793 0.46665 0.55951
 O86 O 0.99908 0.52504 0.55996
 O87 O 1.07038 0.54177 0.42190
 O88 O 1.03302 0.57859 0.45985
 C89 C 1.06058 0.57134 0.43296
 O90 O 0.92932 0.45252 0.41709
 O91 O 0.96380 0.41521 0.45732
 C92 C 0.93850 0.42284 0.42806
 O93 O 0.92771 0.54400 0.42275
 O94 O 0.96564 0.57958 0.46184
 C95 C 0.93817 0.57318 0.43467
 O96 O 1.06488 0.45036 0.41667
 O97 O 1.02899 0.41414 0.45729
 C98 C 1.05463 0.42099 0.42797
 Zr99 Zr 1.04629 0.49635 0.44093
 O100 O 1.04377 0.50048 0.37210
 O101 O 1.10695 0.49273 0.43861
 Zr102 Zr 0.94952 0.49779 0.44183
 O103 O 0.95061 0.50194 0.37296
 O104 O 0.88869 0.49563 0.44157
 Zr105 Zr 0.99715 0.44748 0.49558
 Zr106 Zr 0.99932 0.54589 0.49721
 O107 O 0.99847 0.52590 0.43385
 O108 O 0.99727 0.46765 0.43224
 O109 O 1.05478 0.52513 0.49642
 O110 O 0.94211 0.46892 0.49648
 O111 O 1.05305 0.46728 0.49556
 O112 O 0.94297 0.52658 0.49744
 H113 H 0.99933 0.53981 0.58569
 H114 H 0.91910 0.45460 0.49630
 H115 H 0.99862 0.54104 0.40857
 H116 H 1.07561 0.45241 0.49539
 H117 H 0.87866 0.49059 0.53087
 H118 H 0.87925 0.51246 0.46230
 H119 H 0.96457 0.48266 0.36132
 H120 H 1.03102 0.48053 0.36071
 H121 H 1.11690 0.50440 0.46457
 H122 H 1.11698 0.49269 0.57755
 H123 H 1.02852 0.48192 0.63085
 H124 H 0.93099 0.49860 0.63292
 O125 O 0.55196 0.05711 0.58216
 O126 O 0.59593 0.02837 0.54111
 C127 C 0.58679 0.04965 0.57091
 O128 O 0.44614 -0.06167 0.57393
 O129 O 0.40331 -0.02940 0.53634
 C130 C 0.41165 -0.05320 0.56271
 O131 O 0.55317 -0.05800 0.58002
 O132 O 0.59663 -0.02759 0.54044
 C133 C 0.58787 -0.04975 0.56918
 O134 O 0.44531 0.05996 0.57567
 O135 O 0.40293 0.02897 0.53553
 C136 C 0.41097 0.05208 0.56328
 Zr137 Zr 0.49897 0.04061 0.55667
 O138 O 0.49378 0.03986 0.62553
 O139 O 0.50054 0.09247 0.55472
 Zr140 Zr 0.49971 -0.04184 0.55531
 O141 O 0.49470 -0.04240 0.62418
 O142 O 0.50198 -0.09363 0.55171
 O143 O 0.53381 -0.00046 0.56528
 O144 O 0.46539 -0.00084 0.56336
 O145 O 0.44770 0.06116 0.42671
 O146 O 0.40410 0.02811 0.46209
 C147 C 0.41299 0.05211 0.43618
 O148 O 0.55541 -0.05713 0.42248
 O149 O 0.59760 -0.02751 0.46469
 C150 C 0.58973 -0.04902 0.43475
 O151 O 0.44889 -0.06156 0.42525
 O152 O 0.40464 -0.03068 0.46307
 C153 C 0.41400 -0.05393 0.43599
 O154 O 0.55451 0.05868 0.42442
 O155 O 0.59728 0.02854 0.46514
 C156 C 0.58900 0.05067 0.43621
 Zr157 Zr 0.50076 0.04145 0.44676
 O158 O 0.49760 0.04001 0.37775
 O159 O 0.50344 0.09331 0.44586
 Zr160 Zr 0.50145 -0.04081 0.44537
 O161 O 0.49803 -0.03795 0.37646
 O162 O 0.50523 -0.09257 0.44227
 Zr163 Zr 0.55803 0.00022 0.50215
 Zr164 Zr 0.44224 -0.00051 0.49997
 O165 O 0.46727 0.00011 0.43742
 O166 O 0.53596 0.00060 0.43807
 O167 O 0.46551 0.04722 0.50118
 O168 O 0.53411 -0.04721 0.50091
 O169 O 0.53330 0.04734 0.50247
 O170 O 0.46637 -0.04796 0.49968
 H171 H 0.44757 -0.00097 0.58864
 H172 H 0.55113 -0.06671 0.50096
 H173 H 0.45000 -0.00001 0.41173
 H174 H 0.55001 0.06702 0.50310
 H175 H 0.50151 -0.10168 0.58222
 H176 H 0.49254 -0.10114 0.46884
 H177 H 0.52198 -0.02756 0.36579
 H178 H 0.52133 0.02940 0.36682
 H179 H 0.48944 0.10116 0.47200
 H180 H 0.49997 0.10008 0.58546
 H181 H 0.51557 0.02693 0.63706
 H182 H 0.51621 -0.02929 0.63610
 O183 O 0.43283 0.45876 -0.08325
 O184 O 0.46666 0.42212 -0.04120
 C185 C 0.44227 0.42921 -0.07175
 O186 O 0.57130 0.54993 -0.07474
 O187 O 0.53281 0.58650 -0.03782
 C188 C 0.56072 0.57945 -0.06436
 O189 O 0.56758 0.45836 -0.07970
 O190 O 0.53159 0.42193 -0.03958
 C191 C 0.55738 0.42887 -0.06876
 O192 O 0.42956 0.55042 -0.07853
 O193 O 0.46631 0.58674 -0.03906
 C194 C 0.43982 0.57985 -0.06736
 Zr195 Zr 0.45087 0.50451 -0.05736
 O196 O 0.45061 0.50736 -0.12631
 O197 O 0.39017 0.50321 -0.05397
 Zr198 Zr 0.54768 0.50420 -0.05596
 O199 O 0.54235 0.50540 -0.12461
 O200 O 0.60835 0.50351 -0.06111
 O201 O 0.49938 0.47492 -0.06533
 O202 O 0.49959 0.53314 -0.06444
 O203 O 0.42647 0.54987 0.07291
 O204 O 0.46499 0.58642 0.03615
 C205 C 0.43720 0.57940 0.06289
 O206 O 0.56438 0.45807 0.07907
 O207 O 0.53010 0.42182 0.03684
 C208 C 0.55453 0.42864 0.06741
 O209 O 0.56778 0.54978 0.07591
 O210 O 0.53137 0.58646 0.03686
 C211 C 0.55781 0.57932 0.06506
 O212 O 0.43005 0.45820 0.07631
 O213 O 0.46505 0.42179 0.03486
 C214 C 0.43996 0.42873 0.06481
 Zr215 Zr 0.44908 0.50416 0.05226
 O216 O 0.44814 0.50757 0.12121
 O217 O 0.38832 0.50118 0.05043
 Zr218 Zr 0.54625 0.50398 0.05414
 O219 O 0.54507 0.50733 0.12309
 O220 O 0.60703 0.50077 0.05468
 Zr221 Zr 0.49848 0.45497 -0.00191
 Zr222 Zr 0.49876 0.55351 -0.00128
 O223 O 0.49761 0.53259 0.06148
 O224 O 0.49745 0.47471 0.06175
 O225 O 0.44268 0.53388 -0.00251
 O226 O 0.55402 0.47545 -0.00090
 O227 O 0.44296 0.47556 -0.00293
 O228 O 0.55470 0.53338 -0.00056
 H229 H 0.50013 0.54794 -0.09007
 H230 H 0.57657 0.46061 -0.00036
 H231 H 0.49717 0.54716 0.08739
 H232 H 0.42025 0.46088 -0.00352
 H233 H 0.61850 0.49701 -0.03233
 H234 H 0.61708 0.51906 0.03676
 H235 H 0.52898 0.48910 0.13405
 H236 H 0.46341 0.48906 0.13279
 H237 H 0.37938 0.51692 0.02807
 H238 H 0.38095 0.50330 -0.08455
 H239 H 0.47094 0.49239 -0.13707
 H240 H 0.56893 0.50610 -0.13627
 C241 C 1.12281 0.15130 0.12027
 C242 C 1.15834 0.16008 0.10090
 C243 C 1.18338 0.18207 0.12289
 C244 C 1.17265 0.19499 0.16399
 C245 C 1.13597 0.18802 0.18183
 C246 C 1.11084 0.16620 0.15974
 C247 C 1.07432 0.15943 0.17814
 C248 C 1.06296 0.17391 0.21734
 C249 C 1.08768 0.19512 0.23916
 C250 C 1.12387 0.20206 0.22185
 C251 C 1.21901 0.19027 0.10334
 C252 C 1.22950 0.17717 0.06300
 C253 C 1.20498 0.15565 0.04145
 C254 C 1.16979 0.14705 0.06005
 C255 C 1.20015 0.21349 0.18942
 C256 C 1.22257 0.22779 0.21240
 C257 C 1.09997 0.12528 0.10131
 C258 C 1.08184 0.10292 0.08606
 H259 H 1.05411 0.14312 0.16229
 H260 H 1.03488 0.16859 0.23089
 H261 H 1.07880 0.20626 0.26965
 H262 H 1.14214 0.21859 0.24005
 H263 H 1.23893 0.20702 0.11886
 H264 H 1.25679 0.18378 0.04839
 H265 H 1.21326 0.14557 0.01016
 H266 H 1.15158 0.13034 0.04197
 C267 C 1.12579 0.64172 0.61833
 C268 C 1.10973 0.66382 0.64899
 C269 C 1.13402 0.68580 0.67208
 C270 C 1.17416 0.68557 0.66414
 C271 C 1.19007 0.66410 0.63260
 C272 C 1.16578 0.64211 0.60953
 C273 C 1.18231 0.62072 0.57823
 C274 C 1.22175 0.62106 0.57003
 C275 C 1.24553 0.64253 0.59270
 C276 C 1.23004 0.66387 0.62366
 C277 C 1.11742 0.70741 0.70305
 C278 C 1.07792 0.70733 0.71087
 C279 C 1.05413 0.68592 0.68810
 C280 C 1.06970 0.66434 0.65749
 C281 C 1.19906 0.70704 0.68901
 C282 C 1.21922 0.72493 0.71021
 C283 C 1.10158 0.61743 0.59750
 C284 C 1.08223 0.59642 0.58082
 H285 H 1.16498 0.60362 0.55971
 H286 H 1.23391 0.60455 0.54596
 H287 H 1.27616 0.64267 0.58627
 H288 H 1.24969 0.68015 0.64044
 H289 H 1.13473 0.72454 0.72152
 H290 H 1.06570 0.72391 0.73477
 H291 H 1.02345 0.68600 0.69422
 H292 H 1.05004 0.64817 0.64055
 C293 C 0.66171 0.11013 0.63385
 C294 C 0.65740 0.11323 0.67962
 C295 C 0.67475 0.14000 0.70192
 C296 C 0.69638 0.16349 0.67831
 C297 C 0.70231 0.15948 0.63288
 C298 C 0.68499 0.13264 0.61060
 C299 C 0.69125 0.12912 0.56520
 C300 C 0.71419 0.15137 0.54249
 C301 C 0.73086 0.17776 0.56418
 C302 C 0.72505 0.18192 0.60887
 C303 C 0.66965 0.14277 0.74763
 C304 C 0.64810 0.11971 0.77065
 C305 C 0.63115 0.09353 0.74884
 C306 C 0.63562 0.09022 0.70385
 C307 C 0.71260 0.19158 0.70099
 C308 C 0.72631 0.21430 0.72082
 C309 C 0.63861 0.08622 0.61041
 C310 C 0.61658 0.06814 0.59185
 H311 H 0.67885 0.10897 0.54696
 H312 H 0.71906 0.14813 0.50786
 H313 H 0.74849 0.19507 0.54633
 H314 H 0.73870 0.20276 0.62437
 H315 H 0.68229 0.16269 0.76609
 H316 H 0.64455 0.12218 0.80560
 H317 H 0.61448 0.07565 0.76687
 H318 H 0.62208 0.06932 0.68837
 C319 C 0.61655 0.65094 0.13085
 C320 C 0.63813 0.67542 0.10906
 C321 C 0.66235 0.69685 0.13334
 C322 C 0.66475 0.69372 0.17930
 C323 C 0.64191 0.67015 0.20123
 C324 C 0.61773 0.64873 0.17697
 C325 C 0.59534 0.62526 0.19966
 C326 C 0.59677 0.62302 0.24499
 C327 C 0.62045 0.64393 0.26870
 C328 C 0.64285 0.66725 0.24725
 C329 C 0.68391 0.72093 0.11078
 C330 C 0.68136 0.72397 0.06558
 C331 C 0.65749 0.70318 0.04191
 C332 C 0.63624 0.67900 0.06319
 C333 C 0.69161 0.71390 0.20386
 C334 C 0.71445 0.73008 0.22422
 C335 C 0.59474 0.62687 0.10602
 C336 C 0.57741 0.60577 0.08660
 H337 H 0.57637 0.60852 0.18269
 H338 H 0.57938 0.60498 0.26181
 H339 H 0.62146 0.64209 0.30391
 H340 H 0.66075 0.68301 0.26713
 H341 H 0.70274 0.73776 0.12781
 H342 H 0.69790 0.74264 0.04885
 H343 H 0.65539 0.70584 0.00687
 H344 H 0.61811 0.66336 0.04339
 C345 C 0.88100 -0.14907 0.12382
 C346 C 0.84280 -0.15353 0.10900
 C347 C 0.81808 -0.17578 0.13097
 C348 C 0.83163 -0.19308 0.16785
 C349 C 0.87029 -0.18963 0.18156
 C350 C 0.89515 -0.16763 0.15930
 C351 C 0.93362 -0.16431 0.17371
 C352 C 0.94711 -0.18220 0.20926
 C353 C 0.92271 -0.20361 0.23122
 C354 C 0.88471 -0.20735 0.21769
 C355 C 0.77992 -0.17977 0.11582
 C356 C 0.76650 -0.16205 0.08010
 C357 C 0.79057 -0.14001 0.05884
 C358 C 0.82835 -0.13575 0.07291
 C359 C 0.80502 -0.21219 0.19382
 C360 C 0.78280 -0.22676 0.21679
 C361 C 0.90477 -0.12391 0.10430
 C362 C 0.92329 -0.10212 0.08825
 H363 H 0.95363 -0.14795 0.15764
 H364 H 0.97662 -0.17937 0.21987
 H365 H 0.93327 -0.21737 0.25892
 H366 H 0.86680 -0.22424 0.23576
 H367 H 0.76014 -0.19666 0.13130
 H368 H 0.73726 -0.16543 0.06888
 H369 H 0.78005 -0.12632 0.03107
 H370 H 0.84609 -0.11856 0.05504
 C371 C 0.87811 0.34984 0.62525
 C372 C 0.85156 0.32989 0.60237
 C373 C 0.82608 0.30907 0.62584
 C374 C 0.82749 0.30824 0.67198
 C375 C 0.85546 0.32685 0.69469
 C376 C 0.88085 0.34771 0.67124
 C377 C 0.90851 0.36616 0.69463
 C378 C 0.91110 0.36397 0.73990
 C379 C 0.88627 0.34356 0.76285
 C380 C 0.85868 0.32520 0.74069
 C381 C 0.79961 0.28948 0.60235
 C382 C 0.79868 0.29012 0.55690
 C383 C 0.82380 0.31029 0.53394
 C384 C 0.84981 0.33021 0.55624
 C385 C 0.80037 0.28830 0.69631
 C386 C 0.77870 0.27184 0.71777
 C387 C 0.90096 0.37399 0.60204
 C388 C 0.91899 0.39519 0.58381
 H389 H 0.92861 0.38225 0.67821
 H390 H 0.93254 0.37814 0.75724
 H391 H 0.88842 0.34191 0.79801
 H392 H 0.84010 0.30961 0.76001
 H393 H 0.77965 0.27328 0.61881
 H394 H 0.77847 0.27479 0.53940
 H395 H 0.82326 0.31038 0.49865
 H396 H 0.86879 0.34549 0.53698
 C397 C 0.33352 -0.11570 0.61597
 C398 C 0.32962 -0.14690 0.59606
 C399 C 0.31134 -0.17284 0.61903
 C400 C 0.29721 -0.16736 0.66175
 C401 C 0.29905 -0.13564 0.68059
 C402 C 0.31726 -0.10970 0.65757
 C403 C 0.31934 -0.07829 0.67720
 C404 C 0.30372 -0.07265 0.71846
 C405 C 0.28587 -0.09803 0.74102
 C406 C 0.28351 -0.12922 0.72248
 C407 C 0.30814 -0.20395 0.59874
 C408 C 0.32268 -0.20928 0.55691
 C409 C 0.34078 -0.18395 0.53452
 C410 C 0.34426 -0.15305 0.55369
 C411 C 0.28187 -0.19445 0.68694
 C412 C 0.26900 -0.21639 0.70876
 C413 C 0.35814 -0.09125 0.59603
 C414 C 0.38116 -0.07262 0.58037
 H415 H 0.33279 -0.05778 0.66077
 H416 H 0.30546 -0.04846 0.73298
 H417 H 0.27378 -0.09353 0.77305
 H418 H 0.26928 -0.14815 0.74127
 H419 H 0.29429 -0.22439 0.61491
 H420 H 0.31989 -0.23319 0.54180
 H421 H 0.35195 -0.18819 0.50200
 H422 H 0.35819 -0.13402 0.53482
 C423 C 0.38400 0.35556 0.13045
 C424 C 0.38200 0.35766 0.17655
 C425 C 0.35887 0.33512 0.20031
 C426 C 0.33791 0.31058 0.17786
 C427 C 0.34112 0.30764 0.13194
 C428 C 0.36428 0.33018 0.10816
 C429 C 0.36696 0.32684 0.06228
 C430 C 0.34745 0.30182 0.04052
 C431 C 0.32465 0.27990 0.06372
 C432 C 0.32137 0.28268 0.10891
 C433 C 0.35704 0.33791 0.24632
 C434 C 0.37756 0.36223 0.26825
 C435 C 0.40021 0.38425 0.24503
 C436 C 0.40248 0.38213 0.19971
 C437 C 0.31186 0.28930 0.20181
 C438 C 0.28950 0.27226 0.22157
 C439 C 0.40478 0.38047 0.10609
 C440 C 0.42127 0.40206 0.08674
 H441 H 0.38433 0.34333 0.04283
 H442 H 0.35009 0.29941 0.00547
 H443 H 0.30948 0.26057 0.04664
 H444 H 0.30341 0.26496 0.12557
 H445 H 0.33990 0.32130 0.26583
 H446 H 0.37589 0.36398 0.30345
 H447 H 0.41612 0.40308 0.26221
 H448 H 0.42058 0.39977 0.18312
 C449 C 0.88086 0.14906 -0.11881
 C450 C 0.88844 0.15723 -0.16285
 C451 C 0.86371 0.17926 -0.18514
 C452 C 0.83160 0.19293 -0.16320
 C453 C 0.82560 0.18656 -0.11836
 C454 C 0.85042 0.16459 -0.09599
 C455 C 0.84394 0.15857 -0.05112
 C456 C 0.81390 0.17402 -0.02896
 C457 C 0.78946 0.19531 -0.05093
 C458 C 0.79504 0.20154 -0.09519
 C459 C 0.87160 0.18687 -0.22934
 C460 C 0.90315 0.17318 -0.25079
 C461 C 0.92737 0.15165 -0.22894
 C462 C 0.92020 0.14362 -0.18549
 C463 C 0.80379 0.21193 -0.18761
 C464 C 0.78110 0.22657 -0.20988
 C465 C 0.90299 0.12334 -0.09797
 C466 C 0.92088 0.10128 -0.08156
 H467 H 0.86225 0.14222 -0.03264
 H468 H 0.80963 0.16959 0.00547
 H469 H 0.76614 0.20718 -0.03356
 H470 H 0.77546 0.21845 -0.11090
 H471 H 0.85371 0.20362 -0.24767
 H472 H 0.90885 0.17936 -0.28453
 H473 H 0.95188 0.14112 -0.24571
 H474 H 0.93996 0.12687 -0.16981
 C475 C 0.87438 0.64687 0.38146
 C476 C 0.88883 0.66582 0.34645
 C477 C 0.86396 0.68748 0.32371
 C478 C 0.82491 0.69027 0.33648
 C479 C 0.81099 0.67258 0.37293
 C480 C 0.83579 0.65069 0.39542
 C481 C 0.82113 0.63282 0.43137
 C482 C 0.78309 0.63666 0.44487
 C483 C 0.75889 0.65821 0.42300
 C484 C 0.77250 0.67598 0.38734
 C485 C 0.87884 0.70571 0.28820
 C486 C 0.91728 0.70285 0.27580
 C487 C 0.94167 0.68181 0.29825
 C488 C 0.92775 0.66339 0.33316
 C489 C 0.79902 0.71065 0.31128
 C490 C 0.77842 0.72758 0.28924
 C491 C 0.89832 0.62187 0.40114
 C492 C 0.91722 0.60012 0.41670
 H493 H 0.83895 0.61599 0.44965
 H494 H 0.77242 0.62296 0.47260
 H495 H 0.72941 0.66118 0.43370
 H496 H 0.75262 0.69246 0.37135
 H497 H 0.86096 0.72233 0.26971
 H498 H 0.92817 0.71702 0.24860
 H499 H 0.97151 0.67966 0.28851
 H500 H 0.94783 0.64739 0.34969
 C501 C 0.33877 0.11221 0.37254
 C502 C 0.34642 0.11623 0.32746
 C503 C 0.32964 0.14279 0.30438
 C504 C 0.30519 0.16509 0.32650
 C505 C 0.29598 0.16010 0.37104
 C506 C 0.31279 0.13349 0.39412
 C507 C 0.30333 0.12897 0.43862
 C508 C 0.27772 0.15005 0.45968
 C509 C 0.26150 0.17623 0.43723
 C510 C 0.27045 0.18135 0.39340
 C511 C 0.33814 0.14658 0.25945
 C512 C 0.36248 0.12469 0.23796
 C513 C 0.37888 0.09868 0.26053
 C514 C 0.37107 0.09439 0.30476
 C515 C 0.28947 0.19295 0.30317
 C516 C 0.27623 0.21550 0.28280
 C517 C 0.36117 0.08870 0.39724
 C518 C 0.38302 0.07077 0.41612
 H519 H 0.31531 0.10896 0.45738
 H520 H 0.27053 0.14612 0.49366
 H521 H 0.24181 0.19264 0.45383
 H522 H 0.25706 0.20198 0.37724
 H523 H 0.32606 0.16641 0.24044
 H524 H 0.36864 0.12794 0.20359
 H525 H 0.39773 0.08171 0.24369
 H526 H 0.38433 0.07366 0.32083
 C527 C 0.38229 0.65154 -0.13361
 C528 C 0.37905 0.64754 -0.17938
 C529 C 0.35494 0.66886 -0.20375
 C530 C 0.33428 0.69409 -0.18222
 C531 C 0.33886 0.69901 -0.13676
 C532 C 0.36300 0.67768 -0.11238
 C533 C 0.36706 0.68299 -0.06698
 C534 C 0.34797 0.70878 -0.04628
 C535 C 0.32418 0.72951 -0.07005
 C536 C 0.31952 0.72477 -0.11479
 C537 C 0.35180 0.66415 -0.24939
 C538 C 0.37201 0.63914 -0.27038
 C539 C 0.39564 0.61832 -0.24657
 C540 C 0.39920 0.62233 -0.20160
 C541 C 0.30715 0.71396 -0.20658
 C542 C 0.28399 0.72972 -0.22689
 C543 C 0.40372 0.62759 -0.10840
 C544 C 0.42067 0.60645 -0.08881
 H545 H 0.38521 0.66746 -0.04713
 H546 H 0.35166 0.71269 -0.01160
 H547 H 0.30931 0.74943 -0.05377
 H548 H 0.30084 0.74161 -0.13195
 H549 H 0.33386 0.67977 -0.26935
 H550 H 0.36934 0.63593 -0.30532
 H551 H 0.41132 0.59896 -0.26303
 H552 H 0.41803 0.60557 -0.18455
 C553 C 1.12290 -0.14800 -0.12154
 C554 C 1.16183 -0.15238 -0.10941
 C555 C 1.18533 -0.17468 -0.13304
 C556 C 1.16980 -0.19213 -0.16885
 C557 C 1.13056 -0.18852 -0.18012
 C558 C 1.10696 -0.16645 -0.15622
 C559 C 1.06787 -0.16292 -0.16824
 C560 C 1.05263 -0.18058 -0.20313
 C561 C 1.07581 -0.20204 -0.22672
 C562 C 1.11433 -0.20613 -0.21544
 C563 C 1.22428 -0.17856 -0.12063
 C564 C 1.23963 -0.16065 -0.08603
 C565 C 1.21673 -0.13856 -0.06316
 C566 C 1.17821 -0.13447 -0.07444
 C567 C 1.19489 -0.21177 -0.19602
 C568 C 1.21610 -0.22693 -0.21956
 C569 C 1.10007 -0.12302 -0.10017
 C570 C 1.08207 -0.10142 -0.08292
 H571 H 1.04874 -0.14650 -0.15085
 H572 H 1.02271 -0.17752 -0.21198
 H573 H 1.06388 -0.21553 -0.25397
 H574 H 1.13121 -0.22316 -0.23465
 H575 H 1.24323 -0.19546 -0.13745
 H576 H 1.26946 -0.16391 -0.07696
 H577 H 1.22876 -0.12471 -0.03628
 H578 H 1.16145 -0.11724 -0.05537
 C579 C 1.12074 0.34942 0.37326
 C580 C 1.15893 0.34699 0.38898
 C581 C 1.18576 0.32634 0.36728
 C582 C 1.17422 0.30840 0.33000
 C583 C 1.13561 0.30978 0.31540
 C584 C 1.10872 0.33025 0.33728
 C585 C 1.07028 0.33127 0.32220
 C586 C 1.05874 0.31246 0.28651
 C587 C 1.08510 0.29255 0.26492
 C588 C 1.12317 0.29124 0.27896
 C589 C 1.22383 0.32439 0.38334
 C590 C 1.23508 0.34240 0.41985
 C591 C 1.20888 0.36273 0.44100
 C592 C 1.17119 0.36507 0.42593
 C593 C 1.20206 0.28908 0.30594
 C594 C 1.22418 0.27288 0.28474
 C595 C 1.09487 0.37331 0.39236
 C596 C 1.07521 0.39445 0.40833
 H597 H 1.04875 0.34639 0.33800
 H598 H 1.02921 0.31338 0.27552
 H599 H 1.07605 0.27806 0.23714
 H600 H 1.14267 0.27556 0.26099
 H601 H 1.24521 0.30889 0.36796
 H602 H 1.26428 0.34056 0.43178
 H603 H 1.21772 0.37659 0.46943
 H604 H 1.15178 0.38097 0.44374
 C605 C 0.66618 -0.10824 0.37246
 C606 C 0.66076 -0.11195 0.32694
 C607 C 0.67767 -0.13895 0.30470
 C608 C 0.69996 -0.16203 0.32811
 C609 C 0.70721 -0.15726 0.37314
 C610 C 0.69032 -0.13018 0.39536
 C611 C 0.69780 -0.12589 0.44037
 C612 C 0.72158 -0.14763 0.46276
 C613 C 0.73784 -0.17427 0.44114
 C614 C 0.73079 -0.17919 0.39684
 C615 C 0.67140 -0.14240 0.25927
 C616 C 0.64913 -0.11976 0.23650
 C617 C 0.63259 -0.09333 0.25828
 C618 C 0.63821 -0.08937 0.30298
 C619 C 0.71539 -0.19052 0.30566
 C620 C 0.72841 -0.21358 0.28593
 C621 C 0.64292 -0.08462 0.39615
 C622 C 0.62040 -0.06692 0.41461
 H623 H 0.68572 -0.10552 0.45851
 H624 H 0.72734 -0.14382 0.49709
 H625 H 0.75609 -0.19119 0.45877
 H626 H 0.74416 -0.20019 0.38136
 H627 H 0.68369 -0.16252 0.24085
 H628 H 0.64468 -0.12274 0.20176
 H629 H 0.61535 -0.07579 0.24045
 H630 H 0.62497 -0.06830 0.31844
 C631 C 0.61724 0.35493 -0.12908
 C632 C 0.60788 0.34504 -0.17210
 C633 C 0.63193 0.32240 -0.19468
 C634 C 0.66516 0.30965 -0.17408
 C635 C 0.67361 0.31848 -0.13041
 C636 C 0.64964 0.34121 -0.10788
 C637 C 0.65899 0.34992 -0.06443
 C638 C 0.69105 0.33656 -0.04381
 C639 C 0.71434 0.31422 -0.06574
 C640 C 0.70590 0.30523 -0.10856
 C641 C 0.62216 0.31317 -0.23780
 C642 C 0.58951 0.32586 -0.25800
 C643 C 0.56598 0.34794 -0.23591
 C644 C 0.57494 0.35753 -0.19346
 C645 C 0.69139 0.28847 -0.19821
 C646 C 0.71382 0.27143 -0.21808
 C647 C 0.59476 0.38035 -0.10745
 C648 C 0.57707 0.40214 -0.08972
 H649 H 0.64157 0.36699 -0.04589
 H650 H 0.69772 0.34344 -0.01054
 H651 H 0.73910 0.30378 -0.04948
 H652 H 0.72486 0.28773 -0.12423
 H653 H 0.63952 0.29600 -0.25625
 H654 H 0.58242 0.31849 -0.29098
 H655 H 0.54066 0.35771 -0.25176
 H656 H 0.55571 0.37470 -0.17757
 C657 C 1.12907 0.14845 -0.11304
 C658 C 1.11245 0.17301 -0.13962
 C659 C 1.13651 0.19500 -0.16307
 C660 C 1.17699 0.19217 -0.15986
 C661 C 1.19356 0.16857 -0.13177
 C662 C 1.16952 0.14665 -0.10822
 C663 C 1.18675 0.12294 -0.08078
 C664 C 1.22660 0.12089 -0.07686
 C665 C 1.25011 0.14236 -0.09989
 C666 C 1.23394 0.16598 -0.12709
 C667 C 1.11931 0.21913 -0.18990
 C668 C 1.07945 0.22144 -0.19346
 C669 C 1.05591 0.19988 -0.17058
 C670 C 1.07206 0.17589 -0.14391
 C671 C 1.20150 0.21176 -0.18785
 C672 C 1.22162 0.22702 -0.21252
 C673 C 1.10491 0.12371 -0.09291
 C674 C 1.08578 0.10218 -0.07700
 H675 H 1.16966 0.10583 -0.06197
 H676 H 1.23929 0.10263 -0.05569
 H677 H 1.28105 0.14074 -0.09664
 H678 H 1.25341 0.18220 -0.14426
 H679 H 1.13645 0.23650 -0.20825
 H680 H 1.06677 0.24005 -0.21410
 H681 H 1.02495 0.20174 -0.17349
 H682 H 1.05260 0.15972 -0.12664
 C683 C 1.12770 0.64290 0.37865
 C684 C 1.11215 0.67052 0.35696
 C685 C 1.13700 0.69280 0.33502
 C686 C 1.17724 0.68728 0.33485
 C687 C 1.19287 0.66026 0.35771
 C688 C 1.16805 0.63804 0.37975
 C689 C 1.18438 0.61113 0.40228
 C690 C 1.22406 0.60630 0.40295
 C691 C 1.24830 0.62799 0.38128
 C692 C 1.23304 0.65469 0.35885
 C693 C 1.12078 0.72015 0.31336
 C694 C 1.08117 0.72540 0.31347
 C695 C 1.05689 0.70361 0.33493
 C696 C 1.07204 0.67641 0.35642
 C697 C 1.20230 0.70875 0.30991
 C698 C 1.22225 0.72656 0.28815
 C699 C 1.10238 0.61872 0.39839
 C700 C 1.08248 0.59766 0.41434
 H701 H 1.16675 0.59360 0.41969
 H702 H 1.23605 0.58561 0.42037
 H703 H 1.27909 0.62412 0.38186
 H704 H 1.25306 0.67094 0.34256
 H705 H 1.13849 0.73780 0.29627
 H706 H 1.06927 0.74650 0.29684
 H707 H 1.02615 0.70783 0.33500
 H708 H 1.05203 0.66017 0.37273
 C709 C 0.66433 0.11341 0.37854
 C710 C 0.66752 0.14495 0.39774
 C711 C 0.68369 0.17128 0.37350
 C712 C 0.69654 0.16589 0.33023
 C713 C 0.69531 0.13396 0.31193
 C714 C 0.67916 0.10763 0.33620
 C715 C 0.67770 0.07603 0.31708
 C716 C 0.69190 0.07055 0.27514
 C717 C 0.70772 0.09628 0.25138
 C718 C 0.70945 0.12768 0.26938
 C719 C 0.68615 0.20267 0.39314
 C720 C 0.67290 0.20792 0.43553
 C721 C 0.65689 0.18222 0.45916
 C722 C 0.65421 0.15103 0.44068
 C723 C 0.71036 0.19319 0.30418
 C724 C 0.72231 0.21528 0.28188
 C725 C 0.64141 0.08841 0.40000
 C726 C 0.61928 0.06960 0.41703
 H727 H 0.66583 0.05524 0.33445
 H728 H 0.69065 0.04620 0.26102
 H729 H 0.71872 0.09190 0.21881
 H730 H 0.72206 0.14688 0.24963
 H731 H 0.69838 0.22342 0.37602
 H732 H 0.67506 0.23207 0.45010
 H733 H 0.64669 0.18642 0.49210
 H734 H 0.64193 0.13173 0.46053
 C735 C 0.62250 0.65210 -0.12455
 C736 C 0.65762 0.66317 -0.10635
 C737 C 0.68164 0.68490 -0.13040
 C738 C 0.67050 0.69536 -0.17259
 C739 C 0.63468 0.68534 -0.19003
 C740 C 0.61060 0.66370 -0.16593
 C741 C 0.57506 0.65387 -0.18422
 C742 C 0.56359 0.66512 -0.22509
 C743 C 0.58714 0.68624 -0.24865
 C744 C 0.62232 0.69629 -0.23150
 C745 C 0.71667 0.69549 -0.11158
 C746 C 0.72772 0.68486 -0.07026
 C747 C 0.70435 0.66349 -0.04688
 C748 C 0.66963 0.65273 -0.06451
 C749 C 0.69655 0.71528 -0.19867
 C750 C 0.71875 0.73120 -0.22034
 C751 C 0.59974 0.62740 -0.10195
 C752 C 0.58150 0.60601 -0.08421
 H753 H 0.55570 0.63754 -0.16708
 H754 H 0.53627 0.65740 -0.23855
 H755 H 0.57810 0.69491 -0.28039
 H756 H 0.63961 0.71281 -0.25100
 H757 H 0.73580 0.71215 -0.12849
 H758 H 0.75456 0.69327 -0.05632
 H759 H 0.71303 0.65535 -0.01476
 H760 H 0.65227 0.63633 -0.04492
 C761 C 0.89027 -0.15096 -0.12598
 C762 C 0.86244 -0.16930 -0.10266
 C763 C 0.83715 -0.19061 -0.12550
 C764 C 0.84011 -0.19353 -0.17138
 C765 C 0.87002 -0.17731 -0.19415
 C766 C 0.89525 -0.15597 -0.17133
 C767 C 0.92485 -0.13982 -0.19470
 C768 C 0.92944 -0.14473 -0.23942
 C769 C 0.90467 -0.16554 -0.26182
 C770 C 0.87519 -0.18166 -0.23964
 C771 C 0.80916 -0.20840 -0.10174
 C772 C 0.80669 -0.20562 -0.05649
 C773 C 0.83170 -0.18502 -0.03408
 C774 C 0.85910 -0.16676 -0.05676
 C775 C 0.81145 -0.21180 -0.19554
 C776 C 0.78777 -0.22597 -0.21704
 C777 C 0.91168 -0.12524 -0.10415
 C778 C 0.92834 -0.10297 -0.08658
 H779 H 0.94494 -0.12354 -0.17860
 H780 H 0.95237 -0.13234 -0.25676
 H781 H 0.90835 -0.16928 -0.29656
 H782 H 0.85677 -0.19774 -0.25843
 H783 H 0.78930 -0.22492 -0.11778
 H784 H 0.78539 -0.21966 -0.03870
 H785 H 0.82999 -0.18334 0.00108
 H786 H 0.87796 -0.15107 -0.03793
 C787 C 0.87301 0.35279 0.36880
 C788 C 0.83583 0.34685 0.38605
 C789 C 0.81002 0.32583 0.36346
 C790 C 0.82149 0.31107 0.32369
 C791 C 0.85886 0.31664 0.30677
 C792 C 0.88478 0.33744 0.32954
 C793 C 0.92198 0.34269 0.31203
 C794 C 0.93315 0.32795 0.27294
 C795 C 0.90771 0.30776 0.25051
 C796 C 0.87097 0.30208 0.26709
 C797 C 0.77296 0.32031 0.38119
 C798 C 0.76163 0.33532 0.42003
 C799 C 0.78676 0.35608 0.44198
 C800 C 0.82352 0.36176 0.42544
 C801 C 0.79482 0.29045 0.29983
 C802 C 0.77329 0.27321 0.27934
 C803 C 0.89810 0.37629 0.39003
 C804 C 0.91758 0.39691 0.40742
 H805 H 0.94277 0.35820 0.32831
 H806 H 0.96162 0.33235 0.25989
 H807 H 0.91645 0.29650 0.22006
 H808 H 0.85216 0.28633 0.24838
 H809 H 0.75237 0.30440 0.36525
 H810 H 0.73318 0.33084 0.43315
 H811 H 0.77786 0.36764 0.47219
 H812 H 0.84215 0.37787 0.44392
 C813 C 0.34051 -0.11668 0.37441
 C814 C 0.31359 -0.13678 0.39647
 C815 C 0.29542 -0.16315 0.37399
 C816 C 0.30418 -0.16918 0.32952
 C817 C 0.33017 -0.14839 0.30710
 C818 C 0.34832 -0.12207 0.32956
 C819 C 0.37433 -0.10175 0.30642
 C820 C 0.38218 -0.10726 0.26241
 C821 C 0.36447 -0.13301 0.24049
 C822 C 0.33876 -0.15342 0.26239
 C823 C 0.26886 -0.18307 0.39686
 C824 C 0.26027 -0.17699 0.44058
 C825 C 0.27784 -0.15111 0.46243
 C826 C 0.30439 -0.13126 0.44086
 C827 C 0.28619 -0.19636 0.30643
 C828 C 0.27112 -0.21822 0.28608
 C829 C 0.36292 -0.09244 0.39827
 C830 C 0.38445 -0.07369 0.41653
 H831 H 0.38871 -0.08130 0.32195
 H832 H 0.40210 -0.09145 0.24524
 H833 H 0.37068 -0.13720 0.20630
 H834 H 0.32573 -0.17312 0.24387
 H835 H 0.25443 -0.20345 0.38119
 H836 H 0.23983 -0.19243 0.45758
 H837 H 0.27096 -0.14645 0.49635
 H838 H 0.31740 -0.11145 0.45920
 C839 C 0.38296 0.35602 -0.13409
 C840 C 0.34902 0.34385 -0.11422
 C841 C 0.32495 0.32157 -0.13728
 C842 C 0.33486 0.31158 -0.18017
 C843 C 0.36953 0.32279 -0.19939
 C844 C 0.39366 0.34503 -0.17626
 C845 C 0.42807 0.35596 -0.19624
 C846 C 0.43840 0.34523 -0.23785
 C847 C 0.41480 0.32356 -0.26046
 C848 C 0.38071 0.31241 -0.24162
 C849 C 0.29110 0.30992 -0.11675
 C850 C 0.28127 0.32001 -0.07471
 C851 C 0.30471 0.34186 -0.05225
 C852 C 0.33827 0.35367 -0.07156
 C853 C 0.30882 0.29056 -0.20474
 C854 C 0.28635 0.27349 -0.22444
 C855 C 0.40562 0.38107 -0.11201
 C856 C 0.42316 0.40263 -0.09367
 H857 H 0.44740 0.37275 -0.17987
 H858 H 0.46485 0.35379 -0.25262
 H859 H 0.42297 0.31532 -0.29277
 H860 H 0.36333 0.29551 -0.26043
 H861 H 0.27194 0.29286 -0.13286
 H862 H 0.25532 0.31080 -0.05948
 H863 H 0.29698 0.34958 -0.01957
 H864 H 0.35571 0.37043 -0.05262
 C865 C 1.11585 -0.14983 0.13266
 C866 C 1.10853 -0.15769 0.17687
 C867 C 1.13317 -0.17985 0.19914
 C868 C 1.16490 -0.19398 0.17701
 C869 C 1.17037 -0.18815 0.13194
 C870 C 1.14567 -0.16606 0.10963
 C871 C 1.15159 -0.16065 0.06452
 C872 C 1.18091 -0.17683 0.04208
 C873 C 1.20525 -0.19825 0.06398
 C874 C 1.20026 -0.20386 0.10847
 C875 C 1.12551 -0.18718 0.24345
 C876 C 1.09418 -0.17323 0.26501
 C877 C 1.07005 -0.15158 0.24318
 C878 C 1.07709 -0.14371 0.19965
 C879 C 1.19288 -0.21304 0.20116
 C880 C 1.21615 -0.22788 0.22244
 C881 C 1.09430 -0.12376 0.11166
 C882 C 1.07748 -0.10151 0.09423
 H883 H 1.13334 -0.14426 0.04604
 H884 H 1.18465 -0.17287 0.00748
 H885 H 1.22801 -0.21070 0.04638
 H886 H 1.21971 -0.22091 0.12410
 H887 H 1.14340 -0.20396 0.26173
 H888 H 1.08858 -0.17928 0.29881
 H889 H 1.04571 -0.14084 0.26005
 H890 H 1.05743 -0.12687 0.18394
 C891 C 1.11504 0.34787 0.62424
 C892 C 1.11163 0.34459 0.67007
 C893 C 1.13784 0.32435 0.69323
 C894 C 1.16739 0.30761 0.67042
 C895 C 1.16952 0.30949 0.62435
 C896 C 1.14316 0.32961 0.60116
 C897 C 1.14574 0.33105 0.55510
 C898 C 1.17343 0.31294 0.53259
 C899 C 1.19938 0.29345 0.55529
 C900 C 1.19764 0.29170 0.60067
 C901 C 1.13392 0.32151 0.73907
 C902 C 1.10491 0.33820 0.76136
 C903 C 1.07934 0.35807 0.73871
 C904 C 1.08255 0.36135 0.69359
 C905 C 1.19561 0.28867 0.69449
 C906 C 1.21847 0.27291 0.71522
 C907 C 1.09165 0.37187 0.60149
 C908 C 1.07363 0.39315 0.58346
 H909 H 1.12614 0.34584 0.53604
 H910 H 1.17467 0.31392 0.49735
 H911 H 1.22089 0.27950 0.53764
 H912 H 1.21832 0.27609 0.61690
 H913 H 1.15306 0.30629 0.75813
 H914 H 1.10226 0.33569 0.79640
 H915 H 1.05684 0.37097 0.75616
 H916 H 1.06184 0.37693 0.67737
 C917 C 0.66453 -0.11203 0.62578
 C918 C 0.67006 -0.14264 0.60464
 C919 C 0.68845 -0.16879 0.62707
 C920 C 0.70107 -0.16423 0.67055
 C921 C 0.69718 -0.13316 0.69092
 C922 C 0.67888 -0.10698 0.66844
 C923 C 0.67488 -0.07629 0.68962
 C924 C 0.68867 -0.07154 0.73183
 C925 C 0.70659 -0.09711 0.75383
 C926 C 0.71085 -0.12763 0.73379
 C927 C 0.69339 -0.19922 0.60543
 C928 C 0.68033 -0.20376 0.56288
 C929 C 0.66206 -0.17828 0.54106
 C930 C 0.65702 -0.14799 0.56147
 C931 C 0.71729 -0.19156 0.69467
 C932 C 0.73099 -0.21382 0.71531
 C933 C 0.64052 -0.08724 0.60544
 C934 C 0.61801 -0.06858 0.58880
 H935 H 0.66129 -0.05564 0.67370
 H936 H 0.68544 -0.04788 0.74754
 H937 H 0.71725 -0.09330 0.78662
 H938 H 0.72504 -0.14675 0.75221
 H939 H 0.70742 -0.21977 0.62109
 H940 H 0.68439 -0.22717 0.54677
 H941 H 0.65199 -0.18192 0.50799
 H942 H 0.64305 -0.12881 0.54296
 C943 C 0.61006 0.35481 0.13222
 C944 C 0.61443 0.35739 0.17804
 C945 C 0.63792 0.33453 0.20072
 C946 C 0.65692 0.30919 0.17748
 C947 C 0.65123 0.30577 0.13194
 C948 C 0.62768 0.32861 0.10925
 C949 C 0.62252 0.32474 0.06374
 C950 C 0.63998 0.29894 0.04128
 C951 C 0.66320 0.27675 0.06339
 C952 C 0.66890 0.28002 0.10819
 C953 C 0.64213 0.33783 0.24646
 C954 C 0.62359 0.36293 0.26916
 C955 C 0.60060 0.38526 0.24700
 C956 C 0.59600 0.38266 0.20197
 C957 C 0.68363 0.28771 0.20010
 C958 C 0.70662 0.27072 0.21896
 C959 C 0.58915 0.38006 0.10863
 C960 C 0.57278 0.40184 0.08955
 H961 H 0.60476 0.34143 0.04512
 H962 H 0.63547 0.29617 0.00654
 H963 H 0.67680 0.25684 0.04574
 H964 H 0.68706 0.26207 0.12402
 H965 H 0.65962 0.32100 0.26517
 H966 H 0.62706 0.36505 0.30415
 H967 H 0.58623 0.40471 0.26479
 H968 H 0.57773 0.40057 0.18621
 C969 C 0.87166 0.14732 0.11599
 C970 C 0.83183 0.14669 0.10645
 C971 C 0.80654 0.16876 0.12804
 C972 C 0.82123 0.19104 0.15929
 C973 C 0.86124 0.19245 0.16769
 C974 C 0.88658 0.17058 0.14580
 C975 C 0.92644 0.17218 0.15494
 C976 C 0.94082 0.19469 0.18506
 C977 C 0.91600 0.21596 0.20671
 C978 C 0.87664 0.21497 0.19823
 C979 C 0.76679 0.16758 0.11830
 C980 C 0.75240 0.14510 0.08815
 C981 C 0.77711 0.12332 0.06722
 C982 C 0.81640 0.12401 0.07612
 C983 C 0.79501 0.21059 0.18530
 C984 C 0.77358 0.22578 0.20862
 C985 C 0.89673 0.12269 0.09720
 C986 C 0.91664 0.10133 0.08216
 H987 H 0.94685 0.15610 0.13892
 H988 H 0.97138 0.19557 0.19171
 H989 H 0.92728 0.23329 0.23023
 H990 H 0.85845 0.23199 0.21581
 H991 H 0.74646 0.18405 0.13375
 H992 H 0.72193 0.14456 0.08101
 H993 H 0.76582 0.10592 0.04378
 H994 H 0.83450 0.10676 0.05874
 C995 C 0.87609 0.64421 0.62140
 C996 C 0.87714 0.64526 0.66757
 C997 C 0.85239 0.66695 0.69065
 C998 C 0.82679 0.68751 0.66742
 C999 C 0.82660 0.68724 0.62123
 C1000 C 0.85142 0.66555 0.59811
 C1001 C 0.85091 0.66581 0.55193
 C1002 C 0.82671 0.68705 0.52925
 C1003 C 0.80227 0.70809 0.55186
 C1004 C 0.80205 0.70826 0.59734
 C1005 C 0.85386 0.66747 0.73684
 C1006 C 0.87912 0.64720 0.75953
 C1007 C 0.90335 0.62600 0.73694
 C1008 C 0.90248 0.62491 0.69151
 C1009 C 0.80115 0.70914 0.69134
 C1010 C 0.78093 0.72701 0.71269
 C1011 C 0.89902 0.61999 0.59833
 C1012 C 0.91739 0.59872 0.58058
 H1013 H 0.86941 0.64987 0.53294
 H1014 H 0.82699 0.68728 0.49395
 H1015 H 0.78345 0.72445 0.53407
 H1016 H 0.78263 0.72512 0.61352
 H1017 H 0.83563 0.68355 0.75593
 H1018 H 0.87990 0.64796 0.79483
 H1019 H 0.92297 0.61032 0.75471
 H1020 H 0.92201 0.60810 0.67545
 C1021 C 0.33446 0.11528 0.61888
 C1022 C 0.32057 0.10988 0.66171
 C1023 C 0.30343 0.13609 0.68546
 C1024 C 0.30019 0.16754 0.66615
 C1025 C 0.31210 0.17245 0.62245
 C1026 C 0.32938 0.14626 0.59878
 C1027 C 0.34182 0.15194 0.55544
 C1028 C 0.33719 0.18258 0.53600
 C1029 C 0.32000 0.20810 0.55903
 C1030 C 0.30760 0.20325 0.60181
 C1031 C 0.29028 0.13021 0.72850
 C1032 C 0.29393 0.09931 0.74749
 C1033 C 0.31069 0.07369 0.72424
 C1034 C 0.32395 0.07878 0.68184
 C1035 C 0.28526 0.19483 0.69160
 C1036 C 0.27246 0.21689 0.71350
 C1037 C 0.35806 0.09050 0.59767
 C1038 C 0.38051 0.07161 0.58122
 H1039 H 0.35493 0.13273 0.53604
 H1040 H 0.34676 0.18648 0.50277
 H1041 H 0.31626 0.23180 0.54368
 H1042 H 0.29440 0.22384 0.61844
 H1043 H 0.27699 0.14934 0.74788
 H1044 H 0.28368 0.09524 0.78042
 H1045 H 0.31343 0.04973 0.73912
 H1046 H 0.33662 0.05808 0.66494
 C1047 C 0.37636 0.65156 0.12615
 C1048 C 0.34333 0.66578 0.10685
 C1049 C 0.31947 0.68729 0.13164
 C1050 C 0.32861 0.69438 0.17570
 C1051 C 0.36238 0.68110 0.19449
 C1052 C 0.38632 0.65970 0.16966
 C1053 C 0.41977 0.64663 0.18935
 C1054 C 0.42934 0.65445 0.23226
 C1055 C 0.40593 0.67530 0.25652
 C1056 C 0.37279 0.68852 0.23803
 C1057 C 0.28657 0.70107 0.11162
 C1058 C 0.27739 0.69375 0.06844
 C1059 C 0.30054 0.67259 0.04434
 C1060 C 0.33323 0.65877 0.06311
 C1061 C 0.30261 0.71429 0.20211
 C1062 C 0.28060 0.73026 0.22412
 C1063 C 0.39882 0.62716 0.10230
 C1064 C 0.41682 0.60595 0.08364
 H1065 H 0.43895 0.63037 0.17177
 H1066 H 0.45506 0.64427 0.24677
 H1067 H 0.41349 0.68128 0.28984
 H1068 H 0.35555 0.70469 0.25817
 H1069 H 0.26769 0.71768 0.12904
 H1070 H 0.25215 0.70455 0.05362
 H1071 H 0.29325 0.66697 0.01082
 H1072 H 0.35052 0.64267 0.04293
   
