data_POSCAR
  _audit_creation_date              2014-09-24
  _audit_creation_method            'ToBaCCo'
  _symmetry_space_group_name_H-M    'P1'
  _symmetry_Int_Tables_number       1
  _symmetry_cell_setting            triclinic
  loop_
  _symmetry_equiv_pos_as_xyz
 x,y,z
_cell_length_a 50.4535
_cell_length_b 49.8843
_cell_length_c 49.7268
_cell_angle_alpha 89.967300
_cell_angle_beta 90.005200
_cell_angle_gamma 88.482500
loop_
  _atom_site_label
  _atom_site_type_symbol
  _atom_site_fract_x
  _atom_site_fract_y
  _atom_site_fract_z
C1 C -0.05827 0.27780 0.02503
 C2 C -0.07125 0.27481 0.00029
 C3 C -0.05881 0.27969 -0.02442
 C4 C -0.03138 0.28575 -0.02453
 C5 C -0.01729 0.28716 0.00018
 C6 C -0.03074 0.28338 0.02499
 C7 C -0.01583 0.28328 0.04893
 C8 C 0.01102 0.28862 0.04885
 C9 C 0.02468 0.29262 0.02468
 C10 C 0.01059 0.29152 0.00005
 C11 C -0.01718 0.28868 -0.04868
 C12 C 0.00968 0.29400 -0.04868
 C13 C 0.02438 0.29430 -0.02469
 C14 C 0.05228 0.29833 -0.02466
 C15 C 0.06525 0.30117 0.00015
 C16 C 0.05214 0.29753 0.02455
 H17 H -0.02450 0.27846 0.06813
 H18 H 0.02101 0.28920 0.06808
 H19 H -0.02638 0.28640 -0.06810
 H20 H 0.01873 0.29782 -0.06795
 H21 H -0.09238 0.27131 0.00033
 H22 H 0.08655 0.30365 0.00065
 C23 C 0.44076 0.79174 0.52372
 C24 C 0.42739 0.78982 0.49919
 C25 C 0.44080 0.79142 0.47467
 C26 C 0.46860 0.79455 0.47447
 C27 C 0.48253 0.79606 0.49920
 C28 C 0.46856 0.79486 0.52392
 C29 C 0.48281 0.79620 0.54815
 C30 C 0.51021 0.79867 0.54814
 C31 C 0.52456 0.79925 0.52392
 C32 C 0.51057 0.79823 0.49920
 C33 C 0.48289 0.79560 0.45025
 C34 C 0.51029 0.79808 0.45026
 C35 C 0.52460 0.79896 0.47449
 C36 C 0.55256 0.80068 0.47468
 C37 C 0.56600 0.80210 0.49922
 C38 C 0.55253 0.80096 0.52375
 H39 H 0.47297 0.79518 0.56743
 H40 H 0.52003 0.80008 0.56741
 H41 H 0.47309 0.79433 0.43097
 H42 H 0.52014 0.79925 0.43099
 H43 H 0.40610 0.78730 0.49919
 H44 H 0.58747 0.80279 0.49923
 C45 C 0.94163 0.71332 0.02374
 C46 C 0.92812 0.71266 -0.00077
 C47 C 0.94161 0.71348 -0.02528
 C48 C 0.96960 0.71487 -0.02545
 C49 C 0.98374 0.71503 -0.00077
 C50 C 0.96963 0.71468 0.02391
 C51 C 0.98369 0.71733 0.04804
 C52 C 1.01107 0.71957 0.04808
 C53 C 1.02584 0.71838 0.02404
 C54 C 1.01191 0.71687 -0.00077
 C55 C 0.98364 0.71774 -0.04957
 C56 C 1.01101 0.72001 -0.04960
 C57 C 1.02582 0.71862 -0.02559
 C58 C 1.05381 0.72147 -0.02553
 C59 C 1.06694 0.72352 -0.00077
 C60 C 1.05384 0.72122 0.02399
 H61 H 0.97361 0.71859 0.06721
 H62 H 1.02028 0.72327 0.06727
 H63 H 0.97354 0.71916 -0.06873
 H64 H 1.02019 0.72390 -0.06878
 H65 H 0.90665 0.71182 -0.00076
 H66 H 1.08840 0.72454 -0.00078
 C67 C 0.55261 0.20938 0.52497
 C68 C 0.56605 0.21085 0.50046
 C69 C 0.55267 0.20927 0.47592
 C70 C 0.52482 0.20659 0.47568
 C71 C 0.51080 0.20553 0.50040
 C72 C 0.52475 0.20670 0.52514
 C73 C 0.51044 0.20577 0.54935
 C74 C 0.48299 0.20374 0.54931
 C75 C 0.46866 0.20322 0.52507
 C76 C 0.48271 0.20382 0.50036
 C77 C 0.51056 0.20554 0.45145
 C78 C 0.48311 0.20351 0.45142
 C79 C 0.46872 0.20310 0.47563
 C80 C 0.44071 0.20183 0.47577
 C81 C 0.42720 0.20083 0.50030
 C82 C 0.44065 0.20195 0.52486
 H83 H 0.52027 0.20676 0.56863
 H84 H 0.47312 0.20263 0.56857
 H85 H 0.52045 0.20644 0.43218
 H86 H 0.47329 0.20230 0.43214
 H87 H 0.58739 0.21302 0.50048
 H88 H 0.40571 0.20041 0.50028
 C89 C 0.70838 0.05547 0.02484
 C90 C 0.70865 0.06951 0.00060
 C91 C 0.70908 0.05640 -0.02439
 C92 C 0.70993 0.02777 -0.02475
 C93 C 0.70891 0.01318 -0.00016
 C94 C 0.70850 0.02716 0.02467
 C95 C 0.70999 0.01253 0.04873
 C96 C 0.71130 -0.01528 0.04859
 C97 C 0.71032 -0.02991 0.02441
 C98 C 0.70995 -0.01547 -0.00031
 C99 C 0.71476 0.01333 -0.04859
 C100 C 0.71595 -0.01449 -0.04876
 C101 C 0.71230 -0.02947 -0.02512
 C102 C 0.71389 -0.05799 -0.02531
 C103 C 0.71466 -0.07166 -0.00064
 C104 C 0.71238 -0.05844 0.02418
 H105 H 0.71109 0.02244 0.06803
 H106 H 0.71422 -0.02498 0.06781
 H107 H 0.71900 0.02328 -0.06733
 H108 H 0.72105 -0.02402 -0.06764
 H109 H 0.70772 0.09125 0.00140
 H110 H 0.71489 -0.09342 -0.00079
 C111 C 0.19979 0.55731 0.52454
 C112 C 0.20172 0.57061 0.49990
 C113 C 0.20138 0.55670 0.47551
 C114 C 0.19957 0.52843 0.47559
 C115 C 0.19758 0.51460 0.50044
 C116 C 0.19748 0.52910 0.52500
 C117 C 0.19581 0.51495 0.54936
 C118 C 0.19447 0.48713 0.54965
 C119 C 0.19537 0.47228 0.52563
 C120 C 0.19650 0.48615 0.50075
 C121 C 0.20067 0.51357 0.45159
 C122 C 0.19956 0.48573 0.45190
 C123 C 0.19730 0.47159 0.47622
 C124 C 0.19672 0.44324 0.47677
 C125 C 0.19562 0.42989 0.50147
 C126 C 0.19524 0.44390 0.52583
 H127 H 0.19573 0.52521 0.56852
 H128 H 0.19286 0.47739 0.56900
 H129 H 0.20287 0.52326 0.43229
 H130 H 0.20091 0.47540 0.43281
 H131 H 0.20350 0.59224 0.49971
 H132 H 0.19580 0.40814 0.50175
 C133 C 0.31017 1.05605 0.02546
 C134 C 0.31198 1.06958 0.00074
 C135 C 0.31035 1.05628 -0.02410
 C136 C 0.30926 1.02781 -0.02424
 C137 C 0.30819 1.01354 0.00046
 C138 C 0.30905 1.02756 0.02531
 C139 C 0.31087 1.01250 0.04925
 C140 C 0.30914 0.98475 0.04909
 C141 C 0.30638 0.97065 0.02489
 C142 C 0.30689 0.98503 0.00030
 C143 C 0.31130 1.01301 -0.04832
 C144 C 0.30952 0.98527 -0.04848
 C145 C 0.30654 0.97091 -0.02446
 C146 C 0.30436 0.94266 -0.02448
 C147 C 0.30341 0.92889 -0.00002
 C148 C 0.30425 0.94240 0.02459
 H149 H 0.31432 1.02191 0.06846
 H150 H 0.31061 0.97440 0.06818
 H151 H 0.31495 1.02263 -0.06740
 H152 H 0.31114 0.97514 -0.06766
 H153 H 0.31149 1.09133 0.00082
 H154 H 0.30125 0.90730 -0.00012
 C155 C 0.80847 0.55311 0.52410
 C156 C 0.80991 0.56674 0.49958
 C157 C 0.81028 0.55301 0.47506
 C158 C 0.81024 0.52463 0.47496
 C159 C 0.80878 0.51049 0.49967
 C160 C 0.80793 0.52476 0.52434
 C161 C 0.80676 0.51029 0.54857
 C162 C 0.80554 0.48246 0.54858
 C163 C 0.80608 0.46791 0.52438
 C164 C 0.80784 0.48204 0.49969
 C165 C 0.81202 0.51001 0.45085
 C166 C 0.81103 0.48216 0.45086
 C167 C 0.80824 0.46782 0.47499
 C168 C 0.80616 0.43958 0.47511
 C169 C 0.80444 0.42596 0.49961
 C170 C 0.80441 0.43963 0.52415
 H171 H 0.80674 0.52034 0.56784
 H172 H 0.80408 0.47251 0.56783
 H173 H 0.81437 0.51995 0.43169
 H174 H 0.81262 0.47200 0.43169
 H175 H 0.80948 0.58850 0.49954
 H176 H 0.80258 0.40434 0.49958
 O177 O 0.23527 0.27536 0.21589
 O178 O 0.28752 0.25414 0.26370
 O179 O 0.27281 0.23872 0.21586
 O180 O 0.25005 0.29078 0.26367
 O181 O 0.22287 0.26218 0.28216
 O182 O 0.24555 0.21012 0.23423
 O183 O 0.26031 0.22551 0.28208
 O184 O 0.20805 0.24680 0.23439
 Cu185 Cu 0.26414 0.26760 0.23793
 Cu186 Cu 0.23147 0.23328 0.26005
 C187 C 0.21277 0.26453 0.21680
 C188 C 0.28277 0.23641 0.28128
 C189 C 0.26289 0.21558 0.21666
 C190 C 0.23278 0.28532 0.28131
 O191 O 0.75276 0.79104 0.23875
 O192 O 0.77562 0.73869 0.28622
 O193 O 0.79055 0.75482 0.23875
 O194 O 0.73766 0.77496 0.28619
 O195 O 0.71090 0.74631 0.26717
 O196 O 0.76380 0.72613 0.21977
 O197 O 0.74886 0.71002 0.26724
 O198 O 0.72602 0.76236 0.21971
 Cu199 Cu 0.76681 0.76774 0.26442
 Cu200 Cu 0.73470 0.73332 0.24161
 C201 C 0.73574 0.78558 0.22087
 C202 C 0.76604 0.71542 0.28497
 C203 C 0.78613 0.73725 0.22092
 C204 C 0.71527 0.76396 0.28492
 O205 O 0.78913 0.23945 0.23809
 O206 O 0.73618 0.22307 0.28590
 O207 O 0.75136 0.20524 0.23892
 O208 O 0.77419 0.25720 0.28528
 O209 O 0.74739 0.28696 0.26578
 O210 O 0.72467 0.23499 0.21924
 O211 O 0.70944 0.25278 0.26624
 O212 O 0.76240 0.26927 0.21858
 Cu213 Cu 0.76540 0.22828 0.26404
 Cu214 Cu 0.73330 0.26400 0.24052
 C215 C 0.78472 0.25694 0.21992
 C216 C 0.71378 0.23523 0.28435
 C217 C 0.73435 0.21127 0.22093
 C218 C 0.76453 0.28092 0.28366
 O219 O 0.27228 0.76036 0.21551
 O220 O 0.25097 0.70845 0.26280
 O221 O 0.23500 0.72548 0.21569
 O222 O 0.28795 0.74362 0.26283
 O223 O 0.26074 0.77314 0.28210
 O224 O 0.20781 0.75482 0.23523
 O225 O 0.22386 0.73786 0.28233
 O226 O 0.24499 0.78979 0.23479
 Cu227 Cu 0.26427 0.73153 0.23726
 Cu228 Cu 0.23162 0.76685 0.26056
 C229 C 0.26211 0.78389 0.21685
 C230 C 0.23399 0.71432 0.28086
 C231 C 0.21240 0.73724 0.21724
 C232 C 0.28332 0.76133 0.28071
 O233 O 0.75019 0.20741 0.76316
 O234 O 0.77274 0.25923 0.71637
 O235 O 0.78765 0.24204 0.76380
 O236 O 0.73500 0.22480 0.71598
 O237 O 0.70796 0.25444 0.73529
 O238 O 0.76062 0.27179 0.78296
 O239 O 0.74565 0.28893 0.73551
 O240 O 0.72321 0.23708 0.78250
 Cu241 Cu 0.76411 0.23041 0.73789
 Cu242 Cu 0.73165 0.26605 0.76098
 C243 C 0.73306 0.21341 0.78103
 C244 C 0.76289 0.28289 0.71773
 C245 C 0.78305 0.25967 0.78176
 C246 C 0.71251 0.23681 0.71734
 O247 O 0.28764 0.74566 0.73562
 O248 O 0.23465 0.72749 0.78268
 O249 O 0.25041 0.71071 0.73546
 O250 O 0.27204 0.76223 0.78304
 O251 O 0.24489 0.79192 0.76392
 O252 O 0.22342 0.74038 0.71610
 O253 O 0.20757 0.75709 0.76332
 O254 O 0.26057 0.77541 0.71649
 Cu255 Cu 0.26390 0.73356 0.76113
 Cu256 Cu 0.23142 0.76918 0.73803
 C257 C 0.28309 0.76347 0.71782
 C258 C 0.21210 0.73936 0.78120
 C259 C 0.23340 0.71675 0.71747
 C260 C 0.26197 0.78582 0.78185
 O261 O 0.25000 0.29059 0.73761
 O262 O 0.27343 0.23857 0.78510
 O263 O 0.28769 0.25419 0.73719
 O264 O 0.23553 0.27477 0.78536
 O265 O 0.20844 0.24607 0.76691
 O266 O 0.26061 0.22539 0.71891
 O267 O 0.24630 0.20981 0.76682
 O268 O 0.22297 0.26184 0.71915
 Cu269 Cu 0.26438 0.26740 0.76316
 Cu270 Cu 0.23187 0.23289 0.74111
 C271 C 0.23270 0.28506 0.72004
 C272 C 0.26368 0.21537 0.78431
 C273 C 0.28299 0.23646 0.71961
 C274 C 0.21312 0.26376 0.78453
 O275 O 0.73769 0.77581 0.71221
 O276 O 0.79056 0.75533 0.75958
 O277 O 0.77515 0.73904 0.71236
 O278 O 0.75328 0.79206 0.75939
 O279 O 0.72623 0.76394 0.77883
 O280 O 0.74806 0.71091 0.73173
 O281 O 0.76350 0.72718 0.77896
 O282 O 0.71063 0.74771 0.73165
 Cu283 Cu 0.76687 0.76837 0.73390
 Cu284 Cu 0.73438 0.73460 0.75721
 C285 C 0.71515 0.76513 0.71370
 C286 C 0.78598 0.73799 0.77761
 C287 C 0.76522 0.71595 0.71385
 C288 C 0.73627 0.78699 0.77740
 C289 C 0.29934 0.10550 0.09423
 C290 C 0.31891 0.11126 0.07533
 C291 C 0.32281 0.09469 0.05293
 C292 C 0.30741 0.07176 0.04916
 C293 C 0.28762 0.06636 0.06836
 C294 C 0.28376 0.08299 0.09072
 C295 C 0.29448 0.12334 0.11655
 C296 C 0.29008 0.13863 0.13490
 C297 C 0.28443 0.15729 0.15637
 C298 C 0.29639 0.18228 0.15662
 C299 C 0.28982 0.20105 0.17657
 C300 C 0.27112 0.19508 0.19656
 C301 C 0.25956 0.16970 0.19642
 C302 C 0.26616 0.15097 0.17643
 H303 H 0.33099 0.12873 0.07776
 H304 H 0.33822 0.09963 0.03873
 H305 H 0.27435 0.04989 0.06555
 H306 H 0.26822 0.07861 0.10498
 H307 H 0.31051 0.18742 0.14115
 H308 H 0.29907 0.22039 0.17608
 H309 H 0.24508 0.16447 0.21148
 H310 H 0.25673 0.13171 0.17639
 C311 C 0.79924 0.60317 0.59365
 C312 C 0.77906 0.58589 0.58627
 C313 C 0.78228 0.56917 0.56391
 C314 C 0.80581 0.56946 0.54884
 C315 C 0.82602 0.58675 0.55636
 C316 C 0.82277 0.60349 0.57873
 C317 C 0.79522 0.62143 0.61572
 C318 C 0.79135 0.63709 0.63384
 C319 C 0.78613 0.65619 0.65496
 C320 C 0.76811 0.65035 0.67539
 C321 C 0.76172 0.66959 0.69493
 C322 C 0.77324 0.69496 0.69423
 C323 C 0.79174 0.70043 0.67390
 C324 C 0.79810 0.68116 0.65439
 H325 H 0.76069 0.58567 0.59754
 H326 H 0.76631 0.55630 0.55808
 H327 H 0.84415 0.58744 0.54475
 H328 H 0.83841 0.61694 0.58415
 H329 H 0.75867 0.63110 0.67595
 H330 H 0.74740 0.66475 0.71030
 H331 H 0.80096 0.71976 0.67278
 H332 H 0.81202 0.68591 0.63860
 C333 C 0.71152 0.89247 0.09383
 C334 C 0.69279 0.91348 0.09105
 C335 C 0.69292 0.92977 0.06810
 C336 C 0.71208 0.92552 0.04775
 C337 C 0.73031 0.90375 0.05060
 C338 C 0.73012 0.88757 0.07349
 C339 C 0.71206 0.87582 0.11748
 C340 C 0.71364 0.86134 0.13686
 C341 C 0.71686 0.84347 0.15943
 C342 C 0.70486 0.81849 0.15924
 C343 C 0.71028 0.79995 0.17974
 C344 C 0.72789 0.80613 0.20067
 C345 C 0.73919 0.83162 0.20112
 C346 C 0.73373 0.85012 0.18060
 H347 H 0.67805 0.91721 0.10653
 H348 H 0.67770 0.94536 0.06604
 H349 H 0.74532 0.89971 0.03546
 H350 H 0.74466 0.87130 0.07539
 H351 H 0.69190 0.81307 0.14286
 H352 H 0.70126 0.78051 0.17879
 H353 H 0.75282 0.83702 0.21692
 H354 H 0.74325 0.86934 0.18086
 C355 C 0.20079 0.39497 0.59662
 C356 C 0.17843 0.39375 0.58001
 C357 C 0.17632 0.41013 0.55723
 C358 C 0.19649 0.42796 0.55097
 C359 C 0.21882 0.42915 0.56775
 C360 C 0.22090 0.41280 0.59051
 C361 C 0.20380 0.37708 0.61919
 C362 C 0.20704 0.36184 0.63779
 C363 C 0.21180 0.34334 0.65958
 C364 C 0.20010 0.31821 0.65942
 C365 C 0.20633 0.29946 0.67951
 C366 C 0.22444 0.30560 0.70000
 C367 C 0.23559 0.33116 0.70033
 C368 C 0.22932 0.34987 0.68023
 H369 H 0.16286 0.37987 0.58444
 H370 H 0.15912 0.40874 0.54431
 H371 H 0.23479 0.44243 0.56294
 H372 H 0.23839 0.41373 0.60309
 H373 H 0.18658 0.31292 0.64346
 H374 H 0.19742 0.27997 0.67866
 H375 H 0.24959 0.33653 0.71580
 H376 H 0.23856 0.36923 0.68049
 C377 C 0.89331 0.27430 0.09460
 C378 C 0.91150 0.29480 0.09188
 C379 C 0.92774 0.29587 0.06911
 C380 C 0.92628 0.27619 0.04880
 C381 C 0.90749 0.25593 0.05170
 C382 C 0.89134 0.25491 0.07447
 C383 C 0.87616 0.27332 0.11769
 C384 C 0.86133 0.27199 0.13663
 C385 C 0.84307 0.26978 0.15872
 C386 C 0.81921 0.28472 0.15860
 C387 C 0.80050 0.28110 0.17893
 C388 C 0.80541 0.26239 0.19966
 C389 C 0.82975 0.24794 0.19996
 C390 C 0.84843 0.25160 0.17959
 H391 H 0.91289 0.31017 0.10716
 H392 H 0.94085 0.31259 0.06701
 H393 H 0.90566 0.24046 0.03659
 H394 H 0.87723 0.23902 0.07631
 H395 H 0.81482 0.29878 0.14248
 H396 H 0.78197 0.29253 0.17809
 H397 H 0.83414 0.23337 0.21560
 H398 H 0.86680 0.23985 0.17982
 C399 C 0.39266 0.78611 0.59445
 C400 C 0.39624 0.76392 0.57748
 C401 C 0.41222 0.76571 0.55465
 C402 C 0.42489 0.78969 0.54864
 C403 C 0.42131 0.81191 0.56571
 C404 C 0.40529 0.81010 0.58858
 C405 C 0.37534 0.78431 0.61733
 C406 C 0.36035 0.78224 0.63605
 C407 C 0.34190 0.77909 0.65781
 C408 C 0.34734 0.76043 0.67824
 C409 C 0.32849 0.75584 0.69822
 C410 C 0.30389 0.76982 0.69797
 C411 C 0.29888 0.78901 0.67770
 C412 C 0.31776 0.79356 0.65776
 H413 H 0.38646 0.74531 0.58175
 H414 H 0.41462 0.74847 0.54155
 H415 H 0.43070 0.83065 0.56114
 H416 H 0.40252 0.82743 0.60148
 H417 H 0.36592 0.74904 0.67841
 H418 H 0.33296 0.74093 0.71352
 H419 H 0.28016 0.80011 0.67692
 H420 H 0.31331 0.80798 0.64198
 C421 C 0.10281 0.72011 0.09331
 C422 C 0.10634 0.73924 0.07318
 C423 C 0.09005 0.73969 0.05051
 C424 C 0.06955 0.72120 0.04766
 C425 C 0.06648 0.70172 0.06796
 C426 C 0.08289 0.70131 0.09067
 C427 C 0.11997 0.71991 0.11642
 C428 C 0.13490 0.72068 0.13531
 C429 C 0.15331 0.72276 0.15726
 C430 C 0.17770 0.70875 0.15641
 C431 C 0.19667 0.71281 0.17639
 C432 C 0.19150 0.73105 0.19745
 C433 C 0.16662 0.74445 0.19853
 C434 C 0.14769 0.74034 0.17854
 H435 H 0.12176 0.75385 0.07500
 H436 H 0.09312 0.75500 0.03544
 H437 H 0.05190 0.68630 0.06592
 H438 H 0.08022 0.68617 0.10599
 H439 H 0.18231 0.69520 0.13994
 H440 H 0.21562 0.70219 0.17496
 H441 H 0.16201 0.75861 0.21446
 H442 H 0.12893 0.75140 0.17931
 C443 C 0.60139 0.21477 0.59521
 C444 C 0.59794 0.23690 0.57812
 C445 C 0.58164 0.23522 0.55551
 C446 C 0.56850 0.21143 0.54986
 C447 C 0.57189 0.18929 0.56711
 C448 C 0.58824 0.19099 0.58975
 C449 C 0.61913 0.21641 0.61777
 C450 C 0.63446 0.21841 0.63622
 C451 C 0.65325 0.22154 0.65768
 C452 C 0.67755 0.20736 0.65711
 C453 C 0.69664 0.21185 0.67688
 C454 C 0.69167 0.23068 0.69746
 C455 C 0.66694 0.24441 0.69818
 C456 C 0.64789 0.23988 0.67838
 H457 H 0.60811 0.25534 0.58208
 H458 H 0.57941 0.25238 0.54227
 H459 H 0.56215 0.17069 0.56280
 H460 H 0.59089 0.17371 0.60277
 H461 H 0.68194 0.19320 0.64111
 H462 H 0.71545 0.20096 0.67574
 H463 H 0.66248 0.25903 0.71373
 H464 H 0.62919 0.25105 0.67895
 C465 C 0.70833 0.10565 0.90602
 C466 C 0.69206 0.08340 0.90717
 C467 C 0.69219 0.06703 0.93007
 C468 C 0.70889 0.07250 0.95207
 C469 C 0.72468 0.09541 0.95073
 C470 C 0.72450 0.11165 0.92789
 C471 C 0.70894 0.12243 0.88249
 C472 C 0.71060 0.13710 0.86333
 C473 C 0.71390 0.15525 0.84114
 C474 C 0.70188 0.18085 0.84180
 C475 C 0.70742 0.19955 0.82174
 C476 C 0.72518 0.19289 0.80081
 C477 C 0.73652 0.16682 0.79989
 C478 C 0.73094 0.14817 0.81996
 H479 H 0.67921 0.07876 0.89044
 H480 H 0.67879 0.05044 0.93079
 H481 H 0.73793 0.10034 0.96704
 H482 H 0.73718 0.12884 0.92722
 H483 H 0.68879 0.18660 0.85820
 H484 H 0.69836 0.21943 0.82304
 H485 H 0.75026 0.16105 0.78407
 H486 H 0.74049 0.12846 0.81935
 C487 C 0.20770 0.60504 0.40463
 C488 C 0.18468 0.59060 0.40919
 C489 C 0.18270 0.57444 0.43208
 C490 C 0.20379 0.57254 0.45049
 C491 C 0.22681 0.58700 0.44576
 C492 C 0.22877 0.60311 0.42291
 C493 C 0.20966 0.62246 0.38169
 C494 C 0.21201 0.63751 0.36293
 C495 C 0.21570 0.65597 0.34109
 C496 C 0.20339 0.68143 0.34175
 C497 C 0.20875 0.70022 0.32173
 C498 C 0.22659 0.69377 0.30081
 C499 C 0.23833 0.66788 0.29995
 C500 C 0.23293 0.64913 0.31999
 H501 H 0.16821 0.59206 0.39524
 H502 H 0.16467 0.56367 0.43564
 H503 H 0.24316 0.58591 0.45987
 H504 H 0.24662 0.61428 0.41963
 H505 H 0.19011 0.68697 0.35806
 H506 H 0.19940 0.71997 0.32298
 H507 H 0.25214 0.66227 0.28414
 H508 H 0.24266 0.62951 0.31936
 C509 C 0.29504 0.89441 0.90487
 C510 C 0.31677 0.88982 0.92195
 C511 C 0.32010 0.90590 0.94467
 C512 C 0.30181 0.92681 0.95045
 C513 C 0.28011 0.93140 0.93319
 C514 C 0.27680 0.91532 0.91046
 C515 C 0.29082 0.87693 0.88232
 C516 C 0.28695 0.86189 0.86383
 C517 C 0.28192 0.84346 0.84225
 C518 C 0.29424 0.81800 0.84222
 C519 C 0.28821 0.79944 0.82222
 C520 C 0.26969 0.80610 0.80196
 C521 C 0.25779 0.83195 0.80185
 C522 C 0.26386 0.85047 0.82190
 H523 H 0.33090 0.87359 0.91792
 H524 H 0.33680 0.90191 0.95790
 H525 H 0.26556 0.94714 0.93758
 H526 H 0.25980 0.91891 0.89752
 H527 H 0.30820 0.81233 0.85791
 H528 H 0.29771 0.77973 0.82290
 H529 H 0.24344 0.83770 0.78658
 H530 H 0.25414 0.87011 0.82177
 C531 C 0.79847 0.39091 0.40468
 C532 C 0.82018 0.38687 0.42189
 C533 C 0.82301 0.40311 0.44457
 C534 C 0.80421 0.42361 0.45012
 C535 C 0.78254 0.42765 0.43272
 C536 C 0.77974 0.41142 0.41006
 C537 C 0.79463 0.37318 0.38231
 C538 C 0.79089 0.35795 0.36398
 C539 C 0.78577 0.33933 0.34265
 C540 C 0.79768 0.31368 0.34311
 C541 C 0.79127 0.29486 0.32352
 C542 C 0.77278 0.30145 0.30321
 C543 C 0.76137 0.32750 0.30257
 C544 C 0.76782 0.34629 0.32221
 H545 H 0.83467 0.37092 0.41803
 H546 H 0.83968 0.39955 0.45794
 H547 H 0.76761 0.44307 0.43697
 H548 H 0.76274 0.41455 0.39701
 H549 H 0.81154 0.30807 0.35891
 H550 H 0.80040 0.27500 0.32459
 H551 H 0.74707 0.33320 0.28723
 H552 H 0.75842 0.36606 0.32173
 C553 C 0.10246 0.29284 0.90704
 C554 C 0.08219 0.27457 0.91048
 C555 C 0.06530 0.27665 0.93270
 C556 C 0.06814 0.29732 0.95178
 C557 C 0.08890 0.31541 0.94815
 C558 C 0.10574 0.31328 0.92588
 C559 C 0.12060 0.28979 0.88485
 C560 C 0.13601 0.28670 0.86652
 C561 C 0.15467 0.28230 0.84498
 C562 C 0.14911 0.26408 0.82448
 C563 C 0.16789 0.25850 0.80444
 C564 C 0.19254 0.27105 0.80468
 C565 C 0.19774 0.28975 0.82507
 C566 C 0.17892 0.29530 0.84509
 H567 H 0.07979 0.25834 0.89629
 H568 H 0.05069 0.26137 0.93549
 H569 H 0.09188 0.33151 0.96235
 H570 H 0.12152 0.32742 0.92352
 H571 H 0.13043 0.25385 0.82424
 H572 H 0.16326 0.24400 0.78906
 H573 H 0.21651 0.29974 0.82584
 H574 H 0.18346 0.30939 0.86091
 C575 C 0.60254 0.79419 0.40514
 C576 C 0.58577 0.77330 0.41185
 C577 C 0.56904 0.77567 0.43416
 C578 C 0.56877 0.79907 0.44986
 C579 C 0.58553 0.82004 0.44297
 C580 C 0.60229 0.81763 0.42065
 C581 C 0.62086 0.79096 0.38314
 C582 C 0.63654 0.78767 0.36507
 C583 C 0.65561 0.78304 0.34396
 C584 C 0.65048 0.76457 0.32356
 C585 C 0.66968 0.75875 0.30400
 C586 C 0.69432 0.77132 0.30463
 C587 C 0.69908 0.79025 0.32493
 C588 C 0.67984 0.79603 0.34447
 H589 H 0.58598 0.75499 0.40014
 H590 H 0.55662 0.75910 0.43950
 H591 H 0.58581 0.83808 0.45507
 H592 H 0.61534 0.83383 0.41575
 H593 H 0.63181 0.75433 0.32304
 H594 H 0.66539 0.74409 0.28867
 H595 H 0.71783 0.80027 0.32599
 H596 H 0.68405 0.81030 0.36023
 C597 C 0.89362 0.71573 0.90354
 C598 C 0.91113 0.69392 0.90805
 C599 C 0.92699 0.69316 0.93117
 C600 C 0.92549 0.71428 0.94983
 C601 C 0.90784 0.73601 0.94521
 C602 C 0.89204 0.73675 0.92215
 C603 C 0.87686 0.71664 0.88012
 C604 C 0.86228 0.71825 0.86095
 C605 C 0.84425 0.72119 0.83865
 C606 C 0.82020 0.70786 0.83884
 C607 C 0.80154 0.71267 0.81850
 C608 C 0.80669 0.73099 0.79772
 C609 C 0.83126 0.74370 0.79729
 C610 C 0.84988 0.73885 0.81766
 H611 H 0.91242 0.67750 0.89383
 H612 H 0.94031 0.67612 0.93460
 H613 H 0.90634 0.75238 0.95948
 H614 H 0.87850 0.75366 0.91890
 H615 H 0.81559 0.69425 0.85507
 H616 H 0.78283 0.70257 0.81943
 H617 H 0.83584 0.75791 0.78160
 H618 H 0.86839 0.74938 0.81739
 C619 C 0.39178 0.20762 0.40535
 C620 C 0.39156 0.18447 0.42129
 C621 C 0.40786 0.18234 0.44400
 C622 C 0.42462 0.20331 0.45085
 C623 C 0.42474 0.22648 0.43479
 C624 C 0.40847 0.22857 0.41210
 C625 C 0.37413 0.21046 0.38272
 C626 C 0.35907 0.21343 0.36405
 C627 C 0.34075 0.21770 0.34218
 C628 C 0.31659 0.20456 0.34194
 C629 C 0.29797 0.21011 0.32172
 C630 C 0.30327 0.22898 0.30148
 C631 C 0.32788 0.24163 0.30157
 C632 C 0.34646 0.23603 0.32181
 H633 H 0.37858 0.16823 0.41636
 H634 H 0.40730 0.16448 0.45635
 H635 H 0.43719 0.24304 0.44006
 H636 H 0.40863 0.24666 0.40005
 H637 H 0.31193 0.19039 0.35765
 H638 H 0.27923 0.20004 0.32225
 H639 H 0.33258 0.25626 0.28631
 H640 H 0.36507 0.24639 0.32185
 C641 C 0.71404 0.89422 0.90419
 C642 C 0.73141 0.88802 0.92532
 C643 C 0.73138 0.90382 0.94845
 C644 C 0.71417 0.92647 0.95079
 C645 C 0.69637 0.93217 0.92950
 C646 C 0.69645 0.91625 0.90633
 C647 C 0.71453 0.87775 0.88047
 C648 C 0.71589 0.86332 0.86106
 C649 C 0.71868 0.84540 0.83854
 C650 C 0.70612 0.82073 0.83884
 C651 C 0.71111 0.80203 0.81841
 C652 C 0.72884 0.80777 0.79746
 C653 C 0.74069 0.83299 0.79688
 C654 C 0.73566 0.85165 0.81733
 H655 H 0.74509 0.87097 0.92387
 H656 H 0.74544 0.89873 0.96423
 H657 H 0.68192 0.94855 0.93103
 H658 H 0.68267 0.92102 0.89021
 H659 H 0.69306 0.81564 0.85525
 H660 H 0.70167 0.78281 0.81945
 H661 H 0.75443 0.83803 0.78105
 H662 H 0.74560 0.87063 0.81699
 C663 C 0.20313 0.39368 0.40647
 C664 C 0.22358 0.39367 0.42551
 C665 C 0.22147 0.40999 0.44825
 C666 C 0.19893 0.42662 0.45215
 C667 C 0.17839 0.42656 0.43309
 C668 C 0.18052 0.41018 0.41028
 C669 C 0.20549 0.37644 0.38334
 C670 C 0.20830 0.36156 0.36438
 C671 C 0.21264 0.34333 0.34227
 C672 C 0.20061 0.31837 0.34221
 C673 C 0.20658 0.29974 0.32194
 C674 C 0.22476 0.30582 0.30149
 C675 C 0.23623 0.33123 0.30137
 C676 C 0.23022 0.34983 0.32165
 H677 H 0.24112 0.38094 0.42282
 H678 H 0.23742 0.40969 0.46285
 H679 H 0.16075 0.43907 0.43597
 H680 H 0.16454 0.41027 0.39573
 H681 H 0.18706 0.31308 0.35814
 H682 H 0.19741 0.28036 0.32264
 H683 H 0.25030 0.33656 0.28595
 H684 H 0.23974 0.36904 0.32157
 C685 C 0.30007 0.10596 0.90723
 C686 C 0.28439 0.08352 0.91060
 C687 C 0.28802 0.06687 0.93299
 C688 C 0.30769 0.07219 0.95232
 C689 C 0.32314 0.09511 0.94874
 C690 C 0.31946 0.11169 0.92631
 C691 C 0.29548 0.12372 0.88481
 C692 C 0.29122 0.13889 0.86633
 C693 C 0.28561 0.15737 0.84471
 C694 C 0.26737 0.15087 0.82469
 C695 C 0.26068 0.16950 0.80462
 C696 C 0.27213 0.19492 0.80437
 C697 C 0.29086 0.20104 0.82428
 C698 C 0.29752 0.18238 0.84431
 H699 H 0.26897 0.07917 0.89620
 H700 H 0.27469 0.05041 0.93567
 H701 H 0.33844 0.09998 0.96309
 H702 H 0.33160 0.12914 0.92399
 H703 H 0.25799 0.13158 0.82486
 H704 H 0.24618 0.16417 0.78962
 H705 H 0.30003 0.22042 0.82467
 H706 H 0.31161 0.18763 0.85975
 C707 C 0.80235 0.60304 0.40520
 C708 C 0.78330 0.58392 0.41081
 C709 C 0.78625 0.56716 0.43319
 C710 C 0.80842 0.56921 0.45008
 C711 C 0.82759 0.58828 0.44425
 C712 C 0.82459 0.60508 0.42186
 C713 C 0.79826 0.62144 0.38319
 C714 C 0.79414 0.63712 0.36511
 C715 C 0.78845 0.65614 0.34399
 C716 C 0.77046 0.64992 0.32364
 C717 C 0.76356 0.66901 0.30409
 C718 C 0.77454 0.69465 0.30469
 C719 C 0.79299 0.70054 0.32494
 C720 C 0.79986 0.68140 0.34446
 H721 H 0.76589 0.58235 0.39820
 H722 H 0.77100 0.55295 0.43767
 H723 H 0.84464 0.59037 0.45725
 H724 H 0.83935 0.61995 0.41781
 H725 H 0.76144 0.63045 0.32315
 H726 H 0.74931 0.66384 0.28879
 H727 H 0.80180 0.72007 0.32598
 H728 H 0.81372 0.68646 0.36019
 C729 C 0.10262 0.72121 0.90506
 C730 C 0.08276 0.70232 0.90757
 C731 C 0.06641 0.70244 0.93032
 C732 C 0.06947 0.72172 0.95079
 C733 C 0.08993 0.74029 0.94808
 C734 C 0.10616 0.74013 0.92537
 C735 C 0.11972 0.72128 0.88192
 C736 C 0.13462 0.72226 0.86303
 C737 C 0.15301 0.72453 0.84109
 C738 C 0.17730 0.71035 0.84174
 C739 C 0.19627 0.71454 0.82178
 C740 C 0.19120 0.73310 0.80096
 C741 C 0.16641 0.74669 0.80008
 C742 C 0.14748 0.74245 0.82005
 H743 H 0.08010 0.68733 0.89212
 H744 H 0.05187 0.68696 0.93224
 H745 H 0.09299 0.75544 0.96329
 H746 H 0.12153 0.75480 0.92366
 H747 H 0.18184 0.69654 0.85802
 H748 H 0.21515 0.70376 0.82305
 H749 H 0.16187 0.76110 0.78433
 H750 H 0.12879 0.75365 0.81943
 C751 C 0.60175 0.21433 0.40586
 C752 C 0.58856 0.19058 0.41140
 C753 C 0.57209 0.18900 0.43396
 C754 C 0.56863 0.21122 0.45106
 C755 C 0.58180 0.23498 0.44533
 C756 C 0.59821 0.23655 0.42280
 C757 C 0.61965 0.21584 0.38342
 C758 C 0.63511 0.21770 0.36509
 C759 C 0.65408 0.22066 0.34374
 C760 C 0.67829 0.20633 0.34455
 C761 C 0.69753 0.21062 0.32488
 C762 C 0.69280 0.22938 0.30417
 C763 C 0.66817 0.24328 0.30323
 C764 C 0.64897 0.23896 0.32292
 H765 H 0.59128 0.17323 0.39850
 H766 H 0.56234 0.17042 0.43833
 H767 H 0.57952 0.25221 0.45847
 H768 H 0.60842 0.25497 0.41879
 H769 H 0.68249 0.19220 0.36064
 H770 H 0.71626 0.19960 0.32619
 H771 H 0.66390 0.25786 0.28757
 H772 H 0.63033 0.25024 0.32218
 C773 C 0.89170 0.27823 0.90672
 C774 C 0.89119 0.25746 0.92557
 C775 C 0.90763 0.25792 0.94813
 C776 C 0.92530 0.27901 0.95208
 C777 C 0.92517 0.30016 0.93320
 C778 C 0.90864 0.29964 0.91062
 C779 C 0.87444 0.27754 0.88370
 C780 C 0.85957 0.27622 0.86479
 C781 C 0.84133 0.27375 0.84273
 C782 C 0.84691 0.25556 0.82194
 C783 C 0.82825 0.25150 0.80165
 C784 C 0.80369 0.26555 0.80195
 C785 C 0.79855 0.28430 0.82257
 C786 C 0.81724 0.28832 0.84283
 H787 H 0.87802 0.24086 0.92284
 H788 H 0.90696 0.24139 0.96224
 H789 H 0.93733 0.31747 0.93628
 H790 H 0.90887 0.31607 0.89637
 H791 H 0.86545 0.24409 0.82172
 H792 H 0.83283 0.23693 0.78609
 H793 H 0.77985 0.29543 0.82340
 H794 H 0.81267 0.30237 0.85889
 C795 C 0.39286 0.78488 0.40393
 C796 C 0.39642 0.76290 0.42120
 C797 C 0.41235 0.76499 0.44404
 C798 C 0.42499 0.78905 0.44975
 C799 C 0.42141 0.81106 0.43238
 C800 C 0.40544 0.80895 0.40951
 C801 C 0.37556 0.78280 0.38106
 C802 C 0.36058 0.78054 0.36236
 C803 C 0.34211 0.77723 0.34065
 C804 C 0.34760 0.75855 0.32027
 C805 C 0.32875 0.75385 0.30031
 C806 C 0.30410 0.76774 0.30055
 C807 C 0.29904 0.78693 0.32077
 C808 C 0.31791 0.79160 0.34069
 H809 H 0.38666 0.74424 0.41716
 H810 H 0.41474 0.74791 0.45737
 H811 H 0.43078 0.82986 0.43672
 H812 H 0.40268 0.82613 0.39637
 H813 H 0.36623 0.74724 0.32012
 H814 H 0.33326 0.73894 0.28505
 H815 H 0.28028 0.79797 0.32154
 H816 H 0.31342 0.80603 0.35642
 C817 C 0.29499 0.89354 0.09479
 C818 C 0.27656 0.91427 0.08920
 C819 C 0.27982 0.93053 0.06660
 C820 C 0.30166 0.92629 0.04946
 C821 C 0.32014 0.90553 0.05522
 C822 C 0.31685 0.88927 0.07782
 C823 C 0.29083 0.87589 0.11721
 C824 C 0.28701 0.86070 0.13559
 C825 C 0.28201 0.84210 0.15701
 C826 C 0.26386 0.84888 0.17734
 C827 C 0.25780 0.83016 0.19721
 C828 C 0.26979 0.80436 0.19693
 C829 C 0.28840 0.79794 0.17670
 C830 C 0.29443 0.81669 0.15688
 H831 H 0.25946 0.91760 0.10207
 H832 H 0.26515 0.94616 0.06221
 H833 H 0.33696 0.90182 0.04207
 H834 H 0.33112 0.87317 0.08186
 H835 H 0.25408 0.86848 0.17758
 H836 H 0.24338 0.83573 0.21248
 H837 H 0.29798 0.77827 0.17590
 H838 H 0.30845 0.81121 0.14119
 C839 C 0.79501 0.39141 0.59471
 C840 C 0.77421 0.39456 0.57625
 C841 C 0.77727 0.41053 0.55345
 C842 C 0.80112 0.42365 0.54895
 C843 C 0.82197 0.42050 0.56750
 C844 C 0.81889 0.40447 0.59035
 C845 C 0.79185 0.37418 0.61764
 C846 C 0.78850 0.35926 0.63635
 C847 C 0.78372 0.34091 0.65806
 C848 C 0.79591 0.31539 0.65798
 C849 C 0.78965 0.29672 0.67781
 C850 C 0.77103 0.30333 0.69798
 C851 C 0.75936 0.32927 0.69826
 C852 C 0.76564 0.34791 0.67839
 H853 H 0.75571 0.38446 0.57936
 H854 H 0.76108 0.41262 0.53922
 H855 H 0.84059 0.43028 0.56413
 H856 H 0.83516 0.40206 0.60444
 H857 H 0.80984 0.30973 0.64227
 H858 H 0.79899 0.27694 0.67701
 H859 H 0.74494 0.33499 0.71348
 H860 H 0.75600 0.36757 0.67856
 C861 C 0.70997 0.10332 0.09631
 C862 C 0.73162 0.10268 0.07871
 C863 C 0.73111 0.08684 0.05561
 C864 C 0.70898 0.07136 0.04995
 C865 C 0.68726 0.07202 0.06762
 C866 C 0.68779 0.08793 0.09079
 C867 C 0.71064 0.12026 0.11966
 C868 C 0.71224 0.13499 0.13875
 C869 C 0.71541 0.15312 0.16091
 C870 C 0.70345 0.17874 0.16011
 C871 C 0.70887 0.19743 0.18017
 C872 C 0.72646 0.19073 0.20124
 C873 C 0.73771 0.16463 0.20232
 C874 C 0.73224 0.14599 0.18225
 H875 H 0.74883 0.11458 0.08276
 H876 H 0.74794 0.08667 0.04207
 H877 H 0.66993 0.06040 0.06334
 H878 H 0.67089 0.08838 0.10424
 H879 H 0.69051 0.18451 0.14358
 H880 H 0.69990 0.21734 0.17874
 H881 H 0.75132 0.15884 0.21827
 H882 H 0.74173 0.12626 0.18297
 C883 C 0.20536 0.60695 0.59456
 C884 C 0.18151 0.59437 0.58876
 C885 C 0.17967 0.57781 0.56614
 C886 C 0.20172 0.57364 0.54928
 C887 C 0.22554 0.58625 0.55524
 C888 C 0.22736 0.60275 0.57779
 C889 C 0.20737 0.62469 0.61725
 C890 C 0.20994 0.63993 0.63583
 C891 C 0.21405 0.65848 0.65751
 C892 C 0.20214 0.68413 0.65676
 C893 C 0.20788 0.70292 0.67665
 C894 C 0.22572 0.69630 0.69754
 C895 C 0.23710 0.67024 0.69846
 C896 C 0.23132 0.65150 0.67855
 H897 H 0.16432 0.59758 0.60153
 H898 H 0.16106 0.56845 0.56161
 H899 H 0.24266 0.58340 0.54230
 H900 H 0.24587 0.61245 0.58202
 H901 H 0.18884 0.68980 0.64049
 H902 H 0.19879 0.72279 0.67535
 H903 H 0.25090 0.66449 0.71424
 H904 H 0.24075 0.63175 0.67926
 C905 C 0.89370 0.71532 0.09494
 C906 C 0.89220 0.73646 0.07644
 C907 C 0.90798 0.73580 0.05338
 C908 C 0.92553 0.71402 0.04864
 C909 C 0.92695 0.69278 0.06718
 C910 C 0.91111 0.69346 0.09031
 C911 C 0.87697 0.71616 0.11837
 C912 C 0.86241 0.71774 0.13756
 C913 C 0.84441 0.72065 0.15987
 C914 C 0.84988 0.73855 0.18067
 C915 C 0.83126 0.74335 0.20104
 C916 C 0.80684 0.73035 0.20080
 C917 C 0.80185 0.71180 0.18021
 C918 C 0.82051 0.70704 0.15986
 H919 H 0.87874 0.75342 0.07979
 H920 H 0.90655 0.75227 0.03920
 H921 H 0.94020 0.67571 0.06365
 H922 H 0.91234 0.67695 0.10445
 H923 H 0.86826 0.74930 0.18079
 H924 H 0.83571 0.75775 0.21659
 H925 H 0.78326 0.70146 0.17943
 H926 H 0.81602 0.69323 0.14378
 C927 C 0.39170 0.20803 0.59523
 C928 C 0.39151 0.18480 0.57943
 C929 C 0.40780 0.18260 0.55672
 C930 C 0.42452 0.20356 0.54974
 C931 C 0.42459 0.22681 0.56565
 C932 C 0.40834 0.22898 0.58834
 C933 C 0.37410 0.21092 0.61789
 C934 C 0.35909 0.21390 0.63659
 C935 C 0.34081 0.21813 0.65849
 C936 C 0.31676 0.20480 0.65889
 C937 C 0.29819 0.21025 0.67917
 C938 C 0.30343 0.22920 0.69931
 C939 C 0.32793 0.24207 0.69907
 C940 C 0.34646 0.23658 0.67876
 H941 H 0.37857 0.16856 0.58447
 H942 H 0.40727 0.16466 0.54449
 H943 H 0.43701 0.24337 0.56028
 H944 H 0.40847 0.24713 0.60029
 H945 H 0.31215 0.19054 0.64325
 H946 H 0.27954 0.20001 0.67875
 H947 H 0.33257 0.25677 0.71425
 H948 H 0.36498 0.24708 0.67860
 C949 C 0.10225 0.29295 0.09416
 C950 C 0.09896 0.31728 0.08032
 C951 C 0.08222 0.31898 0.05789
 C952 C 0.06854 0.29639 0.04928
 C953 C 0.07197 0.27205 0.06323
 C954 C 0.08864 0.27039 0.08562
 C955 C 0.12031 0.29065 0.11650
 C956 C 0.13566 0.28790 0.13494
 C957 C 0.15424 0.28364 0.15659
 C958 C 0.17859 0.29643 0.15637
 C959 C 0.19742 0.29074 0.17635
 C960 C 0.19214 0.27209 0.19679
 C961 C 0.16736 0.25979 0.19715
 C962 C 0.14857 0.26552 0.17716
 H963 H 0.10955 0.33480 0.08664
 H964 H 0.08007 0.33779 0.04712
 H965 H 0.06196 0.25431 0.05653
 H966 H 0.09122 0.25142 0.09603
 H967 H 0.18322 0.31041 0.14047
 H968 H 0.21630 0.30054 0.17548
 H969 H 0.16266 0.24535 0.21258
 H970 H 0.12982 0.25543 0.17746
 C971 C 0.60244 0.79513 0.59340
 C972 C 0.60226 0.81839 0.57761
 C973 C 0.58551 0.82060 0.55525
 C974 C 0.56870 0.79961 0.54861
 C975 C 0.56889 0.77638 0.56460
 C976 C 0.58561 0.77421 0.58694
 C977 C 0.62077 0.79207 0.61542
 C978 C 0.63644 0.78888 0.63351
 C979 C 0.65550 0.78432 0.65465
 C980 C 0.67991 0.79698 0.65388
 C981 C 0.69914 0.79119 0.67343
 C982 C 0.69421 0.77258 0.69400
 C983 C 0.66940 0.76036 0.69490
 C984 C 0.65020 0.76619 0.67532
 H985 H 0.61535 0.83460 0.58231
 H986 H 0.58585 0.83850 0.54293
 H987 H 0.55643 0.75979 0.55946
 H988 H 0.58577 0.75603 0.59887
 H989 H 0.68425 0.81098 0.63791
 H990 H 0.71803 0.80094 0.67216
 H991 H 0.66496 0.74595 0.71044
 H992 H 0.63140 0.75620 0.67605
   
