data_POSCAR
  _audit_creation_date              2014-09-24
  _audit_creation_method            'ToBaCCo'
  _symmetry_space_group_name_H-M    'P1'
  _symmetry_Int_Tables_number       1
  _symmetry_cell_setting            triclinic
  loop_
  _symmetry_equiv_pos_as_xyz
 x,y,z
_cell_length_a 30.6424
_cell_length_b 30.6003
_cell_length_c 36.6765
_cell_angle_alpha 90.011000
_cell_angle_beta 89.994700
_cell_angle_gamma 89.992400
loop_
  _atom_site_label
  _atom_site_type_symbol
  _atom_site_fract_x
  _atom_site_fract_y
  _atom_site_fract_z
C1 C 1.25006 0.25051 0.24996
 C2 C 0.74965 -0.24997 0.25008
 C3 C 0.75041 0.24966 -0.24997
 C4 C 1.25026 -0.25025 -0.24998
 C5 C 0.24940 0.25014 0.75016
 C6 C 0.74983 0.75054 0.74995
 C7 C 0.75012 0.24985 0.25009
 C8 C 0.25025 0.74967 0.25004
 O9 O 1.08379 0.04970 0.02586
 O10 O 0.91754 -0.05127 0.02543
 O11 O 0.95020 0.08248 0.02544
 O12 O 1.05106 -0.08417 0.02627
 O13 O 0.92586 0.02220 0.04562
 O14 O 1.07535 -0.02379 0.04634
 O15 O 0.97762 -0.07539 0.04600
 O16 O 1.02347 0.07422 0.04571
 C17 C 1.06293 0.06897 0.05016
 C18 C 0.93811 -0.07019 0.05008
 C19 C 0.93098 0.06177 0.04987
 C20 C 1.07035 -0.06339 0.05066
 O21 O 1.08399 -0.05167 -0.02404
 O22 O 0.91771 0.04975 -0.02492
 O23 O 1.05134 0.08219 -0.02470
 O24 O 0.95043 -0.08409 -0.02467
 O25 O 0.92639 -0.02374 -0.04500
 O26 O 1.07593 0.02178 -0.04450
 O27 O 1.02386 -0.07586 -0.04444
 O28 O 0.97800 0.07382 -0.04507
 Co29 Co 1.07209 -0.00098 0.00089
 Co30 Co 0.92957 -0.00078 0.00031
 Co31 Co 1.00075 0.07049 0.00035
 Co32 Co 1.00074 -0.07218 0.00077
 O33 O 1.00080 -0.00086 0.00059
 C34 C 1.06336 -0.07070 -0.04860
 C35 C 0.93847 0.06888 -0.04936
 C36 C 1.07063 0.06130 -0.04900
 C37 C 0.93145 -0.06332 -0.04922
 O38 O 1.08355 0.55149 0.52439
 O39 O 0.91739 0.45035 0.52538
 O40 O 0.95000 0.58416 0.52468
 O41 O 1.05103 0.41766 0.52489
 O42 O 0.92602 0.52390 0.54520
 O43 O 1.07550 0.47805 0.54475
 O44 O 0.97772 0.42614 0.54543
 O45 O 1.02339 0.57584 0.54467
 C46 C 1.06287 0.57055 0.54892
 C47 C 0.93820 0.43119 0.54979
 C48 C 0.93104 0.56351 0.54929
 C49 C 1.07027 0.43852 0.54922
 O50 O 1.08332 0.45024 0.47431
 O51 O 0.91727 0.55111 0.47462
 O52 O 1.05082 0.58410 0.47407
 O53 O 0.94973 0.41736 0.47506
 O54 O 0.92550 0.47758 0.45470
 O55 O 1.07497 0.52372 0.45393
 O56 O 1.02298 0.42562 0.45457
 O57 O 0.97741 0.57529 0.45414
 Co58 Co 1.07168 0.50087 0.49937
 Co59 Co 0.92922 0.50075 0.49995
 Co60 Co 1.00040 0.57213 0.49942
 Co61 Co 1.00037 0.42940 0.49997
 O62 O 1.00043 0.50078 0.49967
 C63 C 1.06242 0.43099 0.45002
 C64 C 0.93791 0.57002 0.44999
 C65 C 1.07005 0.56333 0.44965
 C66 C 0.93056 0.43798 0.45056
 O67 O 0.57366 0.02233 0.54544
 O68 O 0.42415 -0.02330 0.54466
 O69 O 0.47600 0.07416 0.54525
 O70 O 0.52181 -0.07552 0.54468
 O71 O 0.41583 0.05020 0.52469
 O72 O 0.58211 -0.05105 0.52480
 O73 O 0.44847 -0.08355 0.52438
 O74 O 0.54946 0.08280 0.52549
 C75 C 0.56865 0.06191 0.54985
 C76 C 0.42941 -0.06284 0.54890
 C77 C 0.43644 0.06917 0.54931
 C78 C 0.56129 -0.07033 0.54912
 O79 O 0.57414 -0.02283 0.45454
 O80 O 0.42469 0.02275 0.45416
 O81 O 0.52230 0.07477 0.45477
 O82 O 0.47615 -0.07489 0.45389
 O83 O 0.41586 -0.05077 0.47407
 O84 O 0.58242 0.05049 0.47513
 O85 O 0.54953 -0.08329 0.47420
 O86 O 0.44886 0.08297 0.47464
 Co87 Co 0.57038 -0.00027 0.49996
 Co88 Co 0.42785 -0.00028 0.49942
 Co89 Co 0.49914 0.07099 0.50000
 Co90 Co 0.49900 -0.07165 0.49932
 O91 O 0.49910 -0.00031 0.49967
 C92 C 0.56881 -0.06232 0.44996
 C93 C 0.42995 0.06231 0.45001
 C94 C 0.56184 0.06972 0.45064
 C95 C 0.43659 -0.07002 0.44963
 O96 O 0.58280 0.55069 0.02546
 O97 O 0.41692 0.44996 0.02570
 O98 O 0.44923 0.58381 0.02572
 O99 O 0.55053 0.41694 0.02471
 O100 O 0.42521 0.52346 0.04595
 O101 O 0.57465 0.47713 0.04517
 O102 O 0.47729 0.42522 0.04534
 O103 O 0.52259 0.57493 0.04582
 C104 C 0.56207 0.56961 0.05006
 C105 C 0.43787 0.43067 0.04995
 C106 C 0.43003 0.56309 0.05017
 C107 C 0.56969 0.43752 0.04924
 O108 O 0.58273 0.45008 -0.02560
 O109 O 0.41667 0.55105 -0.02462
 O110 O 0.55022 0.58386 -0.02460
 O111 O 0.44908 0.41722 -0.02489
 O112 O 0.42468 0.47760 -0.04481
 O113 O 0.57412 0.52365 -0.04524
 O114 O 0.52239 0.42575 -0.04557
 O115 O 0.47688 0.57547 -0.04478
 Co116 Co 0.57092 0.50040 -0.00003
 Co117 Co 0.42851 0.50051 0.00053
 Co118 Co 0.49974 0.57178 0.00051
 Co119 Co 0.49982 0.42901 -0.00008
 O120 O 0.49974 0.50042 0.00023
 C121 C 0.56189 0.43087 -0.04999
 C122 C 0.43741 0.57014 -0.04910
 C123 C 0.56917 0.56326 -0.04925
 C124 C 0.42978 0.43804 -0.04921
 C125 C 1.17457 0.17557 0.18207
 N126 N 1.13433 0.18944 0.17194
 N127 N 1.11131 0.16706 0.14742
 C128 C 1.12784 0.13014 0.13233
 N129 N 1.16804 0.11621 0.14253
 N130 N 1.19106 0.13859 0.16705
 C131 C 1.20039 0.20105 0.20674
 C132 C 1.22258 0.22309 0.22668
 C133 C 1.10428 0.10765 0.10428
 C134 C 1.08507 0.08955 0.07995
 C135 C 1.17472 0.67510 0.68192
 N136 N 1.13413 0.68862 0.67245
 N137 N 1.11114 0.66663 0.64766
 C138 C 1.12807 0.63049 0.63160
 N139 N 1.16861 0.61690 0.64115
 N140 N 1.19160 0.63888 0.66594
 C141 C 1.20052 0.70033 0.70679
 C142 C 1.22272 0.72227 0.72681
 C143 C 1.10447 0.60847 0.60331
 C144 C 1.08519 0.59075 0.57881
 C145 C 0.67585 0.17368 0.68185
 N146 N 0.63821 0.18964 0.66765
 N147 N 0.61586 0.16665 0.64307
 C148 C 0.63045 0.12698 0.63193
 N149 N 0.66804 0.11097 0.64619
 N150 N 0.69039 0.13397 0.67077
 C151 C 0.70123 0.19955 0.70669
 C152 C 0.72313 0.22186 0.72674
 C153 C 0.60777 0.10339 0.60388
 C154 C 0.58947 0.08413 0.57960
 C155 C 0.67396 0.67495 0.18249
 N156 N 0.63334 0.68835 0.17300
 N157 N 0.61031 0.66610 0.14840
 C158 C 0.62722 0.62981 0.13257
 N159 N 0.66780 0.61633 0.14214
 N160 N 0.69083 0.63858 0.16674
 C161 C 0.69980 0.70042 0.20713
 C162 C 0.72205 0.72250 0.22699
 C163 C 0.60364 0.60759 0.10440
 C164 C 0.58437 0.58978 0.07995
 C165 C 0.82540 -0.17541 0.18211
 N166 N 0.80864 -0.13907 0.16624
 N167 N 0.83181 -0.11692 0.14168
 C168 C 0.87243 -0.13045 0.13228
 N169 N 0.88923 -0.16672 0.14823
 N170 N 0.86606 -0.18887 0.17279
 C171 C 0.79947 -0.20071 0.20682
 C172 C 0.77720 -0.22264 0.22679
 C173 C 0.89621 -0.10826 0.10421
 C174 C 0.91565 -0.09044 0.07986
 C175 C 0.82597 0.32467 0.68187
 N176 N 0.86636 0.31092 0.67197
 N177 N 0.88943 0.33318 0.64738
 C178 C 0.87282 0.36987 0.63194
 N179 N 0.83248 0.38367 0.64191
 N180 N 0.80941 0.36141 0.66649
 C181 C 0.80010 0.29928 0.70671
 C182 C 0.77791 0.27726 0.72675
 C183 C 0.89657 0.39236 0.60388
 C184 C 0.91593 0.41050 0.57958
 C185 C 0.32463 -0.17454 0.68185
 N186 N 0.31082 -0.13416 0.67193
 N187 N 0.33283 -0.11121 0.64713
 C188 C 0.36930 -0.12797 0.63153
 N189 N 0.38318 -0.16831 0.64153
 N190 N 0.36117 -0.19125 0.66632
 C191 C 0.29942 -0.20034 0.70674
 C192 C 0.27756 -0.22258 0.72678
 C193 C 0.39140 -0.10444 0.60324
 C194 C 0.40918 -0.08518 0.57876
 C195 C 0.32611 0.32526 0.18240
 N196 N 0.30989 0.36237 0.16742
 N197 N 0.33301 0.38454 0.14284
 C198 C 0.37304 0.37024 0.13252
 N199 N 0.38932 0.33320 0.14757
 N200 N 0.36619 0.31103 0.17215
 C201 C 0.30011 0.29993 0.20702
 C202 C 0.27775 0.27795 0.22687
 C203 C 0.39664 0.39245 0.10435
 C204 C 0.41582 0.41032 0.07988
 C205 C 0.82618 0.17530 -0.18148
 N206 N 0.81002 0.13809 -0.16660
 N207 N 0.83310 0.11591 -0.14197
 C208 C 0.87306 0.13026 -0.13146
 N209 N 0.88926 0.16741 -0.14641
 N210 N 0.86617 0.18959 -0.17104
 C211 C 0.80028 0.20052 -0.20641
 C212 C 0.77803 0.22236 -0.22654
 C213 C 0.89680 0.10778 -0.10340
 C214 C 0.91617 0.08962 -0.07911
 C215 C 0.82529 0.67513 0.31787
 N216 N 0.80836 0.63904 0.33399
 N217 N 0.83154 0.61686 0.35854
 C218 C 0.87232 0.63013 0.36768
 N219 N 0.88929 0.66615 0.35148
 N220 N 0.86612 0.68833 0.32694
 C221 C 0.79937 0.70051 0.29322
 C222 C 0.77713 0.72253 0.27330
 C223 C 0.89610 0.60797 0.39577
 C224 C 0.91551 0.59019 0.42015
 C225 C 0.32465 0.17469 0.31785
 N226 N 0.31112 0.13409 0.32743
 N227 N 0.33332 0.11098 0.35200
 C228 C 0.36969 0.12779 0.36771
 N229 N 0.38329 0.16833 0.35805
 N230 N 0.36109 0.19144 0.33348
 C231 C 0.29930 0.20059 0.29315
 C232 C 0.27736 0.22287 0.27321
 C233 C 0.39192 0.10410 0.39582
 C234 C 0.40975 0.08472 0.42020
 C235 C 0.32594 0.67492 -0.18215
 N236 N 0.36637 0.68860 -0.17238
 N237 N 0.38930 0.66655 -0.14760
 C238 C 0.37247 0.63017 -0.13186
 N239 N 0.33209 0.61641 -0.14171
 N240 N 0.30916 0.63847 -0.16649
 C241 C 0.30014 0.70024 -0.20696
 C242 C 0.27790 0.72224 -0.22690
 C243 C 0.39596 0.60808 -0.10354
 C244 C 0.41516 0.59033 -0.07902
 C245 C 1.17500 -0.17573 -0.18152
 N246 N 1.19194 -0.13948 -0.16565
 N247 N 1.16904 -0.11742 -0.14083
 C248 C 1.12853 -0.13097 -0.13116
 N249 N 1.11154 -0.16715 -0.14711
 N250 N 1.13444 -0.18921 -0.17192
 C251 C 1.20068 -0.20098 -0.20648
 C252 C 1.22279 -0.22288 -0.22660
 C253 C 1.10500 -0.10882 -0.10289
 C254 C 1.08573 -0.09100 -0.07843
 C255 C 1.17429 0.32548 0.31763
 N256 N 1.19078 0.36225 0.33299
 N257 N 1.16767 0.38443 0.35757
 C258 C 1.12737 0.37051 0.36751
 N259 N 1.11083 0.33381 0.35207
 N260 N 1.13395 0.31162 0.32749
 C261 C 1.20024 0.30010 0.29298
 C262 C 1.22252 0.27806 0.27310
 C263 C 1.10374 0.39273 0.39567
 C264 C 1.08451 0.41061 0.42011
 C265 C 0.67493 -0.17396 0.31775
 N266 N 0.68919 -0.13396 0.32829
 N267 N 0.66690 -0.11088 0.35284
 C268 C 0.62969 -0.12712 0.36756
 N269 N 0.61536 -0.16707 0.35694
 N270 N 0.63765 -0.19015 0.33239
 C271 C 0.70032 -0.19991 0.29312
 C272 C 0.72230 -0.22226 0.27324
 C273 C 0.60730 -0.10358 0.39568
 C274 C 0.58929 -0.08440 0.42009
 C275 C 0.67423 0.32443 -0.18208
 N276 N 0.63426 0.31009 -0.17160
 N277 N 0.61112 0.33232 -0.14704
 C278 C 0.62724 0.36958 -0.13219
 N279 N 0.66715 0.38398 -0.14274
 N280 N 0.69029 0.36175 -0.16730
 C281 C 0.70024 0.29910 -0.20686
 C282 C 0.72262 0.27714 -0.22682
 C283 C 0.60348 0.39207 -0.10412
 C284 C 0.58414 0.41020 -0.07980
 C285 C 1.17524 0.17378 -0.18182
 N286 N 1.13819 0.18986 -0.16667
 N287 N 1.11633 0.16665 -0.14194
 C288 C 1.13087 0.12666 -0.13161
 N289 N 1.16785 0.11053 -0.14683
 N290 N 1.18971 0.13374 -0.17156
 C291 C 1.20026 0.19990 -0.20668
 C292 C 1.22204 0.22234 -0.22668
 C293 C 1.10884 0.10286 -0.10337
 C294 C 1.09103 0.08352 -0.07891
 C295 C 1.17671 0.67552 0.31726
 N296 N 1.14000 0.69214 0.33261
 N297 N 1.11782 0.66917 0.35733
 C298 C 1.13165 0.62885 0.36748
 N299 N 1.16830 0.61218 0.35207
 N300 N 1.19049 0.63516 0.32736
 C301 C 1.20206 0.70133 0.29226
 C302 C 1.22409 0.72355 0.27214
 C303 C 1.10911 0.60511 0.39561
 C304 C 1.09088 0.58572 0.41991
 C305 C 0.67418 0.17556 0.31837
 N306 N 0.63412 0.18981 0.32869
 N307 N 0.61108 0.16772 0.35339
 C308 C 0.62739 0.13073 0.36852
 N309 N 0.66741 0.11643 0.35814
 N310 N 0.69045 0.13851 0.33344
 C311 C 0.70008 0.20075 0.29346
 C312 C 0.72238 0.22257 0.27338
 C313 C 0.60368 0.10838 0.39664
 C314 C 0.58429 0.09033 0.42095
 C315 C 0.67530 0.67511 -0.18161
 N316 N 0.63870 0.69190 -0.16623
 N317 N 0.61647 0.66901 -0.14151
 C318 C 0.63018 0.62864 -0.13143
 N319 N 0.66672 0.61181 -0.14688
 N320 N 0.68895 0.63469 -0.17159
 C321 C 0.70063 0.70079 -0.20655
 C322 C 0.72254 0.72294 -0.22668
 C323 C 0.60774 0.60508 -0.10329
 C324 C 0.58969 0.58575 -0.07896
 C325 C 0.82495 -0.17413 -0.18198
 N326 N 0.81134 -0.13380 -0.17166
 N327 N 0.83370 -0.11111 -0.14690
 C328 C 0.87033 -0.12806 -0.13170
 N329 N 0.88400 -0.16833 -0.14208
 N330 N 0.86164 -0.19103 -0.16685
 C331 C 0.79941 -0.19968 -0.20687
 C332 C 0.77733 -0.22179 -0.22689
 C333 C 0.89286 -0.10475 -0.10346
 C334 C 0.91095 -0.08561 -0.07904
 C335 C 0.82482 0.32550 0.31829
 N336 N 0.86120 0.30871 0.33402
 N337 N 0.88331 0.33177 0.35871
 C338 C 0.86970 0.37231 0.36842
 N339 N 0.83338 0.38914 0.35262
 N340 N 0.81127 0.36608 0.32794
 C341 C 0.79955 0.29964 0.29340
 C342 C 0.77761 0.27743 0.27335
 C343 C 0.89200 0.39607 0.39654
 C344 C 0.91000 0.41550 0.42085
 C345 C 0.32471 -0.17713 0.31730
 N346 N 0.30866 -0.13963 0.33180
 N347 N 0.33158 -0.11738 0.35651
 C348 C 0.37127 -0.13194 0.36752
 N349 N 0.38736 -0.16939 0.35297
 N350 N 0.36445 -0.19163 0.32825
 C351 C 0.29889 -0.20245 0.29228
 C352 C 0.27659 -0.22439 0.27215
 C353 C 0.39491 -0.10927 0.39564
 C354 C 0.41423 -0.09095 0.41992
 C355 C 0.32382 0.32587 -0.18149
 N356 N 0.30970 0.36604 -0.17124
 N357 N 0.33182 0.38912 -0.14658
 C358 C 0.36872 0.37272 -0.13142
 N359 N 0.38289 0.33259 -0.14173
 N360 N 0.36078 0.30951 -0.16640
 C361 C 0.29861 0.29997 -0.20638
 C362 C 0.27676 0.27772 -0.22648
 C363 C 0.39107 0.39643 -0.10330
 C364 C 0.40913 0.41577 -0.07896
 C365 C 1.17694 -0.17564 0.18304
 N366 N 1.19124 -0.13566 0.17242
 N367 N 1.16907 -0.11264 0.14772
 C368 C 1.13192 -0.12889 0.13285
 N369 N 1.11757 -0.16883 0.14353
 N370 N 1.13974 -0.19185 0.16823
 C371 C 1.20224 -0.20157 0.20800
 C372 C 1.22421 -0.22394 0.22805
 C373 C 1.10937 -0.10516 0.10472
 C374 C 1.09115 -0.08578 0.08041
 C375 C 1.17492 0.32608 0.68204
 N376 N 1.13838 0.30958 0.66636
 N377 N 1.11650 0.33276 0.64162
 C378 C 1.13050 0.37312 0.63180
 N379 N 1.16698 0.38966 0.64755
 N380 N 1.18886 0.36649 0.67229
 C381 C 1.20001 0.30005 0.70693
 C382 C 1.22187 0.27774 0.72696
 C383 C 1.10848 0.39692 0.60356
 C384 C 1.09067 0.41628 0.57911
 C385 C 0.67361 -0.17530 0.68182
 N386 N 0.68961 -0.13811 0.66681
 N387 N 0.66644 -0.11619 0.64208
 C388 C 0.62658 -0.13081 0.63162
 N389 N 0.61053 -0.16795 0.64671
 N390 N 0.63370 -0.18986 0.67143
 C391 C 0.69967 -0.20035 0.70670
 C392 C 0.72207 -0.22212 0.72673
 C393 C 0.60283 -0.10870 0.60341
 C394 C 0.58351 -0.09082 0.57898
 C395 C 0.67577 0.32532 0.18148
 N396 N 0.63912 0.30866 0.16609
 N397 N 0.61698 0.33162 0.14137
 C398 C 0.63083 0.37195 0.13128
 N399 N 0.66742 0.38865 0.14674
 N400 N 0.68955 0.36568 0.17146
 C401 C 0.70099 0.29957 0.20647
 C402 C 0.72283 0.27741 0.22665
 C403 C 0.60842 0.39562 0.10317
 C404 C 0.59034 0.41502 0.07888
 C405 C 0.82490 0.17386 0.18220
 N406 N 0.81090 0.13365 0.17194
 N407 N 0.83308 0.11064 0.14727
 C408 C 0.86994 0.12714 0.13210
 N409 N 0.88400 0.16729 0.14244
 N410 N 0.86182 0.19031 0.16711
 C411 C 0.79956 0.19975 0.20702
 C412 C 0.77759 0.22206 0.22699
 C413 C 0.89233 0.10349 0.10396
 C414 C 0.91039 0.08416 0.07962
 C415 C 0.82485 0.67532 0.68167
 N416 N 0.81166 0.63459 0.67210
 N417 N 0.83394 0.61171 0.64740
 C418 C 0.87007 0.62886 0.63154
 N419 N 0.88332 0.66954 0.64118
 N420 N 0.86104 0.69242 0.66588
 C421 C 0.79939 0.70097 0.70657
 C422 C 0.77735 0.72306 0.72664
 C423 C 0.89251 0.60528 0.60339
 C424 C 0.91055 0.58596 0.57904
 C425 C 0.32486 0.17549 0.68178
 N426 N 0.30819 0.13870 0.66656
 N427 N 0.33104 0.11643 0.64184
 C428 C 0.37124 0.13028 0.63158
 N429 N 0.38796 0.16701 0.64686
 N430 N 0.36511 0.18928 0.67158
 C431 C 0.29920 0.20087 0.70671
 C432 C 0.27704 0.22282 0.72682
 C433 C 0.39475 0.10780 0.60341
 C434 C 0.41402 0.08971 0.57906
 C435 C 0.32329 0.67532 0.18254
 N436 N 0.36043 0.69160 0.16767
 N437 N 0.38259 0.66862 0.14293
 C438 C 0.36830 0.62864 0.13227
 N439 N 0.33121 0.61233 0.14720
 N440 N 0.30905 0.63531 0.17194
 C441 C 0.29805 0.70116 0.20761
 C442 C 0.27617 0.72344 0.22781
 C443 C 0.39088 0.60491 0.10415
 C444 C 0.40914 0.58552 0.07987
   
