data_POSCAR
  _audit_creation_date              2014-09-24
  _audit_creation_method            'ToBaCCo'
  _symmetry_space_group_name_H-M    'P1'
  _symmetry_Int_Tables_number       1
  _symmetry_cell_setting            triclinic
  loop_
  _symmetry_equiv_pos_as_xyz
 x,y,z
_cell_length_a 35.5790
_cell_length_b 41.0369
_cell_length_c 36.0000
_cell_angle_alpha 89.751700
_cell_angle_beta 90.073900
_cell_angle_gamma 89.573400
loop_
  _atom_site_label
  _atom_site_type_symbol
  _atom_site_fract_x
  _atom_site_fract_y
  _atom_site_fract_z
Si1 Si 1.24971 0.25031 0.24631
 Si2 Si 0.75097 -0.24812 0.24637
 Si3 Si 0.74885 0.25025 -0.24715
 Si4 Si 1.24439 -0.25044 -0.25505
 Si5 Si 0.25118 0.25099 0.75361
 Si6 Si 0.75563 0.75061 0.75410
 Si7 Si 0.74972 0.24979 0.24775
 Si8 Si 0.24921 0.74996 0.25486
 N9 N 1.06848 0.03220 0.04100
 N10 N 1.09361 0.05494 0.04760
 N11 N 1.04180 -0.03607 0.06637
 N12 N 1.04883 -0.05855 0.09183
 N13 N 1.06797 -0.03627 0.04066
 N14 N 1.09356 -0.05889 0.04797
 N15 N 1.04226 0.03237 0.06665
 N16 N 1.04881 0.05522 0.09146
 C17 C 1.08066 0.06919 0.07888
 C18 C 1.08086 -0.07279 0.07963
 N19 N 0.93485 -0.03455 0.03998
 N20 N 0.91055 -0.05825 0.04528
 N21 N 0.96129 0.03341 0.06637
 N22 N 0.95480 0.05628 0.09127
 N23 N 0.93522 0.03392 0.04050
 N24 N 0.91028 0.05716 0.04704
 N25 N 0.96091 -0.03508 0.06585
 N26 N 0.95512 -0.05917 0.08950
 Mn27 Mn 1.00154 -0.00133 0.06671
 C28 C 0.92383 -0.07341 0.07606
 C29 C 0.92318 0.07101 0.07851
 N30 N 1.06796 -0.03548 -0.03948
 N31 N 1.09258 -0.05898 -0.04602
 N32 N 1.04259 0.03369 -0.06479
 N33 N 1.04959 0.05674 -0.08947
 N34 N 1.06869 0.03299 -0.03895
 N35 N 1.09416 0.05556 -0.04531
 N36 N 1.04192 -0.03473 -0.06537
 N37 N 1.04803 -0.05768 -0.09022
 Mn38 Mn 1.06868 -0.00167 0.00080
 C39 C 1.07943 -0.07270 -0.07748
 C40 C 1.08154 0.07030 -0.07661
 N41 N 0.93541 0.03474 -0.03942
 N42 N 0.91083 0.05843 -0.04550
 N43 N 0.96117 -0.03380 -0.06562
 N44 N 0.95591 -0.05785 -0.08925
 N45 N 0.93504 -0.03380 -0.03990
 N46 N 0.91121 -0.05782 -0.04529
 N47 N 0.96162 0.03474 -0.06506
 N48 N 0.95564 0.05842 -0.08934
 Mn49 Mn 0.93470 0.00009 0.00028
 Mn50 Mn 1.00181 0.00000 -0.06562
 Cl51 Cl 1.00171 -0.00071 0.00055
 C52 C 0.92412 0.07306 -0.07647
 C53 C 0.92479 -0.07258 -0.07602
 N54 N 1.06459 0.53196 0.53874
 N55 N 1.08893 0.55548 0.54473
 N56 N 1.03873 0.46326 0.56403
 N57 N 1.04576 0.44035 0.58900
 N58 N 1.06484 0.46343 0.53826
 N59 N 1.09037 0.44061 0.54500
 N60 N 1.03855 0.53179 0.56457
 N61 N 1.04443 0.55520 0.58888
 C62 C 1.07573 0.56979 0.57588
 C63 C 1.07774 0.42627 0.57644
 N64 N 0.93145 0.46417 0.53836
 N65 N 0.90565 0.44204 0.54542
 N66 N 0.95765 0.53220 0.56473
 N67 N 0.95098 0.55477 0.58995
 N68 N 0.93148 0.53270 0.53896
 N69 N 0.90624 0.55562 0.54594
 N70 N 0.95763 0.46370 0.56414
 N71 N 0.95033 0.44124 0.58944
 Mn72 Mn 0.99816 0.49772 0.56474
 C73 C 0.91816 0.42772 0.57703
 C74 C 0.91911 0.56931 0.57756
 N75 N 1.06472 0.46433 0.45817
 N76 N 1.09036 0.44183 0.45097
 N77 N 1.03855 0.53325 0.43285
 N78 N 1.04571 0.55591 0.40771
 N79 N 1.06468 0.53282 0.45868
 N80 N 1.09031 0.55517 0.45181
 N81 N 1.03859 0.46474 0.43235
 N82 N 1.04574 0.44252 0.40685
 Mn83 Mn 1.06509 0.49813 0.49848
 C84 C 1.07780 0.42826 0.41920
 C85 C 1.07778 0.56956 0.42024
 N86 N 0.93140 0.53352 0.45884
 N87 N 0.90606 0.55651 0.45232
 N88 N 0.95750 0.46513 0.43243
 N89 N 0.95085 0.44240 0.40746
 N90 N 0.93144 0.46503 0.45826
 N91 N 0.90635 0.44224 0.45158
 N92 N 0.95746 0.53364 0.43301
 N93 N 0.95057 0.55672 0.40821
 Mn94 Mn 0.93106 0.49886 0.49859
 Mn95 Mn 0.99801 0.49919 0.43228
 Cl96 Cl 0.99808 0.49846 0.49851
 C97 C 0.91873 0.57091 0.42096
 C98 C 0.91912 0.42822 0.42008
 N99 N 0.54154 -0.05791 0.46252
 N100 N 0.54919 -0.08103 0.43829
 N101 N 0.56798 -0.03506 0.54019
 N102 N 0.59504 -0.04277 0.56392
 N103 N 0.54169 -0.05738 0.54051
 N104 N 0.55011 -0.08075 0.56445
 N105 N 0.56780 -0.03556 0.46216
 N106 N 0.59410 -0.04297 0.43766
 C107 C 0.58162 -0.07106 0.42266
 C108 C 0.58299 -0.07095 0.57929
 N109 N 0.54108 0.05792 0.53885
 N110 N 0.54909 0.08150 0.56231
 N111 N 0.56754 0.03491 0.46116
 N112 N 0.59428 0.04239 0.43720
 N113 N 0.54098 0.05732 0.46087
 N114 N 0.54886 0.08053 0.43670
 N115 N 0.56762 0.03548 0.53920
 N116 N 0.59444 0.04329 0.56291
 Mn117 Mn 0.56809 -0.00007 0.50068
 C118 C 0.58200 0.07170 0.57753
 C119 C 0.58173 0.07054 0.42175
 N120 N 0.46069 -0.05720 0.54045
 N121 N 0.45229 -0.08071 0.56405
 N122 N 0.43402 -0.03549 0.46208
 N123 N 0.40673 -0.04380 0.43909
 N124 N 0.46057 -0.05794 0.46248
 N125 N 0.45208 -0.08196 0.43978
 N126 N 0.43417 -0.03473 0.54008
 N127 N 0.40699 -0.04248 0.56340
 Mn128 Mn 0.50114 -0.05780 0.50150
 C129 C 0.41922 -0.07081 0.57865
 C130 C 0.41889 -0.07247 0.42489
 N131 N 0.46012 0.05745 0.46080
 N132 N 0.45193 0.08071 0.43668
 N133 N 0.43378 0.03580 0.53904
 N134 N 0.40682 0.04386 0.56258
 N135 N 0.46012 0.05809 0.53875
 N136 N 0.45185 0.08177 0.56207
 N137 N 0.43383 0.03512 0.46102
 N138 N 0.40696 0.04274 0.43706
 Mn139 Mn 0.50057 0.05788 0.49982
 Mn140 Mn 0.43362 0.00019 0.50054
 Cl141 Cl 0.50084 0.00004 0.50065
 C142 C 0.41918 0.07085 0.42166
 C143 C 0.41899 0.07223 0.57717
 N144 N 0.56521 0.53657 0.04062
 N145 N 0.59052 0.55917 0.04730
 N146 N 0.53851 0.46827 0.06625
 N147 N 0.54479 0.44498 0.09095
 N148 N 0.56467 0.46807 0.04054
 N149 N 0.58948 0.44464 0.04701
 N150 N 0.53905 0.53677 0.06633
 N151 N 0.54581 0.55951 0.09123
 C152 C 0.57771 0.57339 0.07867
 C153 C 0.57641 0.43035 0.07829
 N154 N 0.43139 0.46984 0.04029
 N155 N 0.40600 0.44726 0.04687
 N156 N 0.45802 0.53784 0.06632
 N157 N 0.45074 0.55978 0.09210
 N158 N 0.43188 0.53836 0.04051
 N159 N 0.40607 0.56068 0.04808
 N160 N 0.45753 0.46937 0.06609
 N161 N 0.45066 0.44646 0.09095
 Mn162 Mn 0.49829 0.50306 0.06661
 C163 C 0.41872 0.43275 0.07828
 C164 C 0.41860 0.57407 0.08002
 N165 N 0.56487 0.46843 -0.03951
 N166 N 0.59026 0.44565 -0.04648
 N167 N 0.53929 0.53735 -0.06531
 N168 N 0.54650 0.55991 -0.09051
 N169 N 0.56539 0.53693 -0.03946
 N170 N 0.59108 0.55920 -0.04636
 N171 N 0.53876 0.46885 -0.06533
 N172 N 0.54566 0.44637 -0.09060
 Mn173 Mn 0.56542 0.50250 0.00056
 C174 C 0.57756 0.43192 -0.07813
 C175 C 0.57858 0.57350 -0.07798
 N176 N 0.43211 0.53864 -0.03976
 N177 N 0.40670 0.56141 -0.04703
 N178 N 0.45775 0.46987 -0.06543
 N179 N 0.45124 0.44688 -0.09010
 N180 N 0.43152 0.47012 -0.03978
 N181 N 0.40641 0.44729 -0.04630
 N182 N 0.45830 0.53833 -0.06546
 N183 N 0.45147 0.56087 -0.09088
 Mn184 Mn 0.43133 0.50427 0.00030
 Mn185 Mn 0.49851 0.50360 -0.06574
 Cl186 Cl 0.49838 0.50338 0.00043
 C187 C 0.41954 0.57525 -0.07866
 C188 C 0.41939 0.43291 -0.07754
 C189 C 1.13849 0.13797 0.13665
 C190 C 1.16059 0.12744 0.16724
 C191 C 1.18132 0.15049 0.18804
 C192 C 1.17992 0.18388 0.17803
 C193 C 1.15786 0.19442 0.14748
 C194 C 1.13703 0.17137 0.12671
 C195 C 1.11516 0.18242 0.09623
 C196 C 1.11394 0.21533 0.08655
 C197 C 1.13434 0.23788 0.10687
 C198 C 1.15611 0.22768 0.13703
 C199 C 1.20315 0.13944 0.21860
 C200 C 1.20456 0.10653 0.22820
 C201 C 1.18436 0.08395 0.20776
 C202 C 1.16256 0.09414 0.17763
 C203 C 1.20158 0.20713 0.19911
 C204 C 1.22027 0.22535 0.21738
 C205 C 1.11745 0.11432 0.11549
 C206 C 1.10038 0.09406 0.09845
 H207 H 1.09882 0.16578 0.07960
 H208 H 1.09708 0.22338 0.06316
 H209 H 1.13331 0.26342 0.09924
 H210 H 1.17150 0.24611 0.15202
 H211 H 1.21929 0.15605 0.23543
 H212 H 1.22139 0.09852 0.25164
 H213 H 1.18555 0.05840 0.21531
 H214 H 1.14732 0.07564 0.16264
 C215 C 1.13182 0.64205 0.62997
 C216 C 1.17047 0.64644 0.62218
 C217 C 1.19172 0.66896 0.64328
 C218 C 1.17420 0.68691 0.67202
 C219 C 1.13525 0.68344 0.67887
 C220 C 1.11398 0.66093 0.65775
 C221 C 1.07513 0.65770 0.66521
 C222 C 1.05778 0.67625 0.69274
 C223 C 1.07860 0.69827 0.71340
 C224 C 1.11692 0.70190 0.70670
 C225 C 1.23038 0.67279 0.63520
 C226 C 1.24753 0.65490 0.60703
 C227 C 1.22674 0.63286 0.58639
 C228 C 1.18866 0.62856 0.59377
 C229 C 1.19655 0.70798 0.69534
 C230 C 1.21551 0.72491 0.71498
 C231 C 1.11098 0.61716 0.61043
 C232 C 1.09446 0.59584 0.59451
 H233 H 1.05777 0.64095 0.64979
 H234 H 1.02803 0.67351 0.69806
 H235 H 1.06501 0.71263 0.73475
 H236 H 1.13193 0.71939 0.72343
 H237 H 1.24771 0.68971 0.65043
 H238 H 1.27710 0.65818 0.60118
 H239 H 1.24019 0.61903 0.56452
 H240 H 1.17366 0.61120 0.57688
 C241 C 0.64311 0.13251 0.64370
 C242 C 0.63000 0.14145 0.67938
 C243 C 0.65003 0.16475 0.70063
 C244 C 0.68306 0.17896 0.68608
 C245 C 0.69635 0.16984 0.65052
 C246 C 0.67634 0.14653 0.62929
 C247 C 0.69016 0.13786 0.59379
 C248 C 0.72279 0.15181 0.57968
 C249 C 0.74233 0.17461 0.60043
 C250 C 0.72940 0.18361 0.63546
 C251 C 0.63632 0.17337 0.73617
 C252 C 0.60375 0.15937 0.75033
 C253 C 0.58417 0.13660 0.72957
 C254 C 0.59701 0.12765 0.69448
 C255 C 0.70363 0.20269 0.70777
 C256 C 0.72119 0.22208 0.72572
 C257 C 0.62175 0.10984 0.62123
 C258 C 0.60376 0.09183 0.60182
 H259 H 0.67598 0.12020 0.57661
 H260 H 0.73295 0.14488 0.55248
 H261 H 0.76765 0.18540 0.58935
 H262 H 0.74558 0.20147 0.65053
 H263 H 0.65057 0.19099 0.75336
 H264 H 0.59364 0.16625 0.77757
 H265 H 0.55888 0.12579 0.74070
 H266 H 0.58085 0.10979 0.67940
 C267 C 0.63564 0.64169 0.13740
 C268 C 0.65098 0.66956 0.11993
 C269 C 0.67249 0.69193 0.14101
 C270 C 0.67850 0.68626 0.17939
 C271 C 0.66293 0.65854 0.19692
 C272 C 0.64138 0.63620 0.17587
 C273 C 0.62616 0.60860 0.19399
 C274 C 0.63217 0.60319 0.23178
 C275 C 0.65334 0.62501 0.25235
 C276 C 0.66860 0.65241 0.23528
 C277 C 0.68777 0.71953 0.12296
 C278 C 0.68194 0.72487 0.08513
 C279 C 0.66087 0.70300 0.06451
 C280 C 0.64549 0.67562 0.08157
 C281 C 0.70141 0.70843 0.20074
 C282 C 0.72085 0.72625 0.21881
 C283 C 0.61471 0.61821 0.11578
 C284 C 0.59764 0.59809 0.09844
 H285 H 0.60950 0.59091 0.17920
 H286 H 0.62034 0.58195 0.24517
 H287 H 0.65796 0.62069 0.28170
 H288 H 0.68484 0.66867 0.25248
 H289 H 0.70435 0.73723 0.13784
 H290 H 0.69385 0.74609 0.07175
 H291 H 0.65641 0.70726 0.03513
 H292 H 0.62929 0.65931 0.06438
 C293 C 0.86954 -0.14690 0.13006
 C294 C 0.88188 -0.15619 0.16601
 C295 C 0.86023 -0.17826 0.18745
 C296 C 0.82640 -0.19080 0.17279
 C297 C 0.81511 -0.18289 0.13612
 C298 C 0.83678 -0.16084 0.11465
 C299 C 0.82482 -0.15298 0.07816
 C300 C 0.79239 -0.16665 0.06327
 C301 C 0.77118 -0.18825 0.08430
 C302 C 0.78225 -0.19633 0.12035
 C303 C 0.87287 -0.18702 0.22347
 C304 C 0.90605 -0.17435 0.23785
 C305 C 0.92723 -0.15271 0.21687
 C306 C 0.91541 -0.14362 0.18136
 C307 C 0.80230 -0.21040 0.19613
 C308 C 0.78196 -0.22590 0.21601
 C309 C 0.88932 -0.12167 0.10993
 C310 C 0.90529 -0.09996 0.09404
 H311 H 0.84048 -0.13639 0.06072
 H312 H 0.78370 -0.16047 0.03527
 H313 H 0.74604 -0.19883 0.07262
 H314 H 0.76491 -0.21332 0.13560
 H315 H 0.85741 -0.20385 0.24079
 H316 H 0.91537 -0.18137 0.26540
 H317 H 0.95299 -0.14293 0.22815
 H318 H 0.93291 -0.12682 0.16605
 C319 C 0.85779 0.36131 0.63710
 C320 C 0.85387 0.32859 0.62540
 C321 C 0.83263 0.30635 0.64716
 C322 C 0.81551 0.31693 0.68051
 C323 C 0.81918 0.34969 0.69208
 C324 C 0.84035 0.37194 0.67032
 C325 C 0.84353 0.40458 0.68246
 C326 C 0.82629 0.41494 0.71513
 C327 C 0.80562 0.39317 0.73642
 C328 C 0.80203 0.36090 0.72518
 C329 C 0.82900 0.27381 0.63486
 C330 C 0.84589 0.26352 0.60198
 C331 C 0.86670 0.28525 0.58074
 C332 C 0.87075 0.31744 0.59219
 C333 C 0.79414 0.29426 0.70306
 C334 C 0.77623 0.27611 0.72244
 C335 C 0.87960 0.38412 0.61508
 C336 C 0.89742 0.40366 0.59737
 H337 H 0.85931 0.42244 0.66688
 H338 H 0.82900 0.43999 0.72397
 H339 H 0.79230 0.40132 0.76179
 H340 H 0.78570 0.34491 0.74272
 H341 H 0.81307 0.25604 0.65043
 H342 H 0.84280 0.23856 0.59295
 H343 H 0.87976 0.27713 0.55524
 H344 H 0.88717 0.33345 0.57473
 C345 C 0.35542 -0.13318 0.64028
 C346 C 0.34383 -0.12647 0.67707
 C347 C 0.32237 -0.14977 0.69703
 C348 C 0.31270 -0.17963 0.68005
 C349 C 0.32406 -0.18627 0.64318
 C350 C 0.34547 -0.16297 0.62321
 C351 C 0.35647 -0.17013 0.58632
 C352 C 0.34657 -0.19945 0.56968
 C353 C 0.32565 -0.22224 0.58926
 C354 C 0.31445 -0.21586 0.62560
 C355 C 0.31100 -0.14251 0.73378
 C356 C 0.32059 -0.11308 0.75032
 C357 C 0.34163 -0.09032 0.73080
 C358 C 0.35320 -0.09681 0.69459
 C359 C 0.29089 -0.20339 0.70047
 C360 C 0.27256 -0.22271 0.71780
 C361 C 0.37781 -0.10975 0.61988
 C362 C 0.39662 -0.09126 0.60182
 H363 H 0.37275 -0.15320 0.56991
 H364 H 0.35518 -0.20450 0.54143
 H365 H 0.31803 -0.24498 0.57622
 H366 H 0.29819 -0.23435 0.63969
 H367 H 0.29458 -0.15943 0.75009
 H368 H 0.31164 -0.10792 0.77844
 H369 H 0.34901 -0.06749 0.74378
 H370 H 0.36949 -0.07834 0.68049
 C371 C 0.36099 0.36365 0.13650
 C372 C 0.35323 0.36955 0.17447
 C373 C 0.33236 0.34652 0.19539
 C374 C 0.31945 0.31771 0.17823
 C375 C 0.32728 0.31175 0.14031
 C376 C 0.34811 0.33482 0.11935
 C377 C 0.35545 0.32845 0.08143
 C378 C 0.34254 0.30009 0.06467
 C379 C 0.32217 0.27752 0.08518
 C380 C 0.31455 0.28315 0.12258
 C381 C 0.32474 0.35303 0.23326
 C382 C 0.33742 0.38147 0.24997
 C383 C 0.35787 0.40399 0.22952
 C384 C 0.36578 0.39823 0.19221
 C385 C 0.29746 0.29466 0.19953
 C386 C 0.27879 0.27628 0.21783
 C387 C 0.38174 0.38753 0.11509
 C388 C 0.39876 0.40787 0.09790
 H389 H 0.37117 0.34528 0.06435
 H390 H 0.34838 0.29560 0.03563
 H391 H 0.31221 0.25553 0.07203
 H392 H 0.29860 0.26490 0.13739
 H393 H 0.30896 0.33626 0.25036
 H394 H 0.33137 0.38604 0.27895
 H395 H 0.36767 0.42605 0.24262
 H396 H 0.38179 0.41649 0.17748
 C397 C 0.86853 0.14513 -0.13337
 C398 C 0.87444 0.14783 -0.17215
 C399 C 0.85249 0.17012 -0.19348
 C400 C 0.82479 0.18958 -0.17590
 C401 C 0.81983 0.18776 -0.13693
 C402 C 0.84181 0.16547 -0.11558
 C403 C 0.83625 0.16391 -0.07669
 C404 C 0.80973 0.18385 -0.05938
 C405 C 0.78818 0.20561 -0.08027
 C406 C 0.79303 0.20763 -0.11863
 C407 C 0.85866 0.17220 -0.23227
 C408 C 0.88578 0.15282 -0.24947
 C409 C 0.90726 0.13101 -0.22861
 C410 C 0.90176 0.12842 -0.19039
 C411 C 0.80045 0.21038 -0.19818
 C412 C 0.78000 0.22686 -0.21733
 C413 C 0.88872 0.12040 -0.11224
 C414 C 0.90509 0.09914 -0.09548
 H415 H 0.85240 0.14740 -0.05929
 H416 H 0.80587 0.18240 -0.02959
 H417 H 0.76761 0.22103 -0.06669
 H418 H 0.77569 0.22497 -0.13370
 H419 H 0.84273 0.18885 -0.24968
 H420 H 0.89016 0.15475 -0.27915
 H421 H 0.92831 0.11602 -0.24209
 H422 H 0.91924 0.11116 -0.17535
 C423 C 0.85936 0.64034 0.36344
 C424 C 0.87664 0.66918 0.35041
 C425 C 0.85563 0.69192 0.32872
 C426 C 0.81752 0.68564 0.32021
 C427 C 0.80012 0.65698 0.33355
 C428 C 0.82109 0.63428 0.35528
 C429 C 0.80311 0.60573 0.36821
 C430 C 0.76555 0.59976 0.35982
 C431 C 0.74507 0.62193 0.33848
 C432 C 0.76200 0.65026 0.32543
 C433 C 0.87353 0.72049 0.31578
 C434 C 0.91113 0.72642 0.32405
 C435 C 0.93168 0.70419 0.34526
 C436 C 0.91477 0.67585 0.35837
 C437 C 0.79637 0.70814 0.29694
 C438 C 0.77844 0.72615 0.27714
 C439 C 0.88105 0.61645 0.38439
 C440 C 0.89857 0.59600 0.40135
 H441 H 0.81784 0.58774 0.38491
 H442 H 0.75227 0.57779 0.36991
 H443 H 0.71590 0.61717 0.33200
 H444 H 0.74486 0.66676 0.30896
 H445 H 0.85869 0.73850 0.29919
 H446 H 0.92439 0.74839 0.31392
 H447 H 0.96089 0.70890 0.35159
 H448 H 0.93188 0.65929 0.37479
 C449 C 0.35792 0.13320 0.35637
 C450 C 0.34156 0.12409 0.32214
 C451 C 0.32130 0.14754 0.30075
 C452 C 0.31747 0.17991 0.31381
 C453 C 0.33368 0.18898 0.34811
 C454 C 0.35397 0.16556 0.36947
 C455 C 0.36989 0.17521 0.40375
 C456 C 0.36583 0.20705 0.41653
 C457 C 0.34599 0.22994 0.39560
 C458 C 0.33004 0.22115 0.36176
 C459 C 0.30523 0.13791 0.26655
 C460 C 0.30894 0.10599 0.25394
 C461 C 0.32868 0.08305 0.27492
 C462 C 0.34490 0.09187 0.30864
 C463 C 0.29631 0.20367 0.29223
 C464 C 0.27825 0.22294 0.27417
 C465 C 0.37907 0.10955 0.37818
 C466 C 0.39710 0.09105 0.39734
 H467 H 0.38556 0.15831 0.42107
 H468 H 0.37814 0.21398 0.44282
 H469 H 0.34291 0.25464 0.40564
 H470 H 0.31487 0.23983 0.34647
 H471 H 0.28971 0.15489 0.24921
 H472 H 0.29643 0.09904 0.22775
 H473 H 0.33147 0.05828 0.26500
 H474 H 0.36000 0.07319 0.32399
 C475 C 0.36119 0.64246 -0.14035
 C476 C 0.36353 0.64064 -0.17956
 C477 C 0.34162 0.66213 -0.20199
 C478 C 0.31757 0.68531 -0.18506
 C479 C 0.31579 0.68758 -0.14587
 C480 C 0.33767 0.66607 -0.12343
 C481 C 0.33531 0.66866 -0.08431
 C482 C 0.31201 0.69189 -0.06782
 C483 C 0.29061 0.71294 -0.08976
 C484 C 0.29235 0.71091 -0.12836
 C485 C 0.34424 0.65974 -0.24112
 C486 C 0.36789 0.63680 -0.25763
 C487 C 0.38934 0.61580 -0.23570
 C488 C 0.38729 0.61758 -0.19711
 C489 C 0.29416 0.70638 -0.20796
 C490 C 0.27446 0.72368 -0.22693
 C491 C 0.38217 0.61942 -0.11757
 C492 C 0.39935 0.59963 -0.09933
 H493 H 0.35146 0.65285 -0.06609
 H494 H 0.31056 0.69356 -0.03785
 H495 H 0.27256 0.73094 -0.07682
 H496 H 0.27521 0.72784 -0.14425
 H497 H 0.32813 0.67557 -0.25936
 H498 H 0.36957 0.63533 -0.28760
 H499 H 0.40768 0.59803 -0.24866
 H500 H 0.40458 0.60074 -0.18126
 C501 C 1.13587 -0.14242 -0.13610
 C502 C 1.17542 -0.13993 -0.13917
 C503 C 1.19561 -0.16222 -0.16180
 C504 C 1.17612 -0.18693 -0.18103
 C505 C 1.13665 -0.18967 -0.17767
 C506 C 1.11642 -0.16729 -0.15512
 C507 C 1.07690 -0.17025 -0.15242
 C508 C 1.05793 -0.19464 -0.17149
 C509 C 1.07775 -0.21655 -0.19352
 C510 C 1.11668 -0.21422 -0.19667
 C511 C 1.23511 -0.15901 -0.16489
 C512 C 1.25408 -0.13449 -0.14609
 C513 C 1.23433 -0.11275 -0.12383
 C514 C 1.19546 -0.11532 -0.12029
 C515 C 1.19680 -0.20887 -0.20497
 C516 C 1.21506 -0.22620 -0.22496
 C517 C 1.11522 -0.11856 -0.11454
 C518 C 1.09862 -0.09800 -0.09721
 H519 H 1.06030 -0.15379 -0.13559
 H520 H 1.02768 -0.19653 -0.16915
 H521 H 1.06289 -0.23545 -0.20828
 H522 H 1.13089 -0.23181 -0.21414
 H523 H 1.25176 -0.17534 -0.18185
 H524 H 1.28426 -0.13237 -0.14882
 H525 H 1.24919 -0.09375 -0.10924
 H526 H 1.18137 -0.09781 -0.10264
 C527 C 1.13826 0.36135 0.35983
 C528 C 1.17044 0.37217 0.34034
 C529 C 1.19186 0.34976 0.31892
 C530 C 1.18100 0.31668 0.31716
 C531 C 1.14894 0.30583 0.33674
 C532 C 1.12748 0.32825 0.35815
 C533 C 1.09547 0.31688 0.37742
 C534 C 1.08497 0.28428 0.37559
 C535 C 1.10597 0.26235 0.35467
 C536 C 1.13762 0.27287 0.33541
 C537 C 1.22384 0.36115 0.29955
 C538 C 1.23434 0.39375 0.30131
 C539 C 1.21342 0.41566 0.32230
 C540 C 1.18182 0.40514 0.34165
 C541 C 1.20266 0.29405 0.29481
 C542 C 1.22111 0.27596 0.27580
 C543 C 1.11621 0.38441 0.38131
 C544 C 1.09834 0.40409 0.39882
 H545 H 1.07826 0.33303 0.39406
 H546 H 1.06040 0.27599 0.39050
 H547 H 1.09770 0.23705 0.35335
 H548 H 1.15308 0.25492 0.31951
 H549 H 1.24105 0.34506 0.28285
 H550 H 1.25882 0.40205 0.28628
 H551 H 1.22169 0.44096 0.32359
 H552 H 1.16646 0.42312 0.35758
 C553 C 0.64080 -0.13117 0.35361
 C554 C 0.67357 -0.12097 0.33473
 C555 C 0.69462 -0.14371 0.31336
 C556 C 0.68274 -0.17650 0.31104
 C557 C 0.64962 -0.18658 0.32939
 C558 C 0.62857 -0.16384 0.35073
 C559 C 0.59560 -0.17452 0.36896
 C560 C 0.58380 -0.20672 0.36616
 C561 C 0.60440 -0.22895 0.34529
 C562 C 0.63696 -0.21913 0.32706
 C563 C 0.72737 -0.13299 0.29483
 C564 C 0.73898 -0.10071 0.29733
 C565 C 0.71839 -0.07848 0.31823
 C566 C 0.68604 -0.08836 0.33679
 C567 C 0.70474 -0.19993 0.29008
 C568 C 0.72309 -0.21936 0.27273
 C569 C 0.62023 -0.10851 0.37696
 C570 C 0.60283 -0.09069 0.39727
 H571 H 0.57857 -0.15815 0.38547
 H572 H 0.55851 -0.21446 0.38026
 H573 H 0.59512 -0.25394 0.34320
 H574 H 0.65202 -0.23732 0.31114
 H575 H 0.74430 -0.14938 0.27822
 H576 H 0.76409 -0.09292 0.28297
 H577 H 0.72752 -0.05343 0.32008
 H578 H 0.67091 -0.07019 0.35267
 C579 C 0.63631 0.36366 -0.13741
 C580 C 0.65770 0.37431 -0.16827
 C581 C 0.67864 0.35138 -0.18946
 C582 C 0.67814 0.31793 -0.17964
 C583 C 0.65679 0.30727 -0.14880
 C584 C 0.63579 0.33020 -0.12763
 C585 C 0.61469 0.31898 -0.09690
 C586 C 0.61437 0.28603 -0.08733
 C587 C 0.63492 0.26362 -0.10802
 C588 C 0.65594 0.27398 -0.13845
 C589 C 0.69982 0.36262 -0.22018
 C590 C 0.70035 0.39556 -0.22965
 C591 C 0.67992 0.41799 -0.20891
 C592 C 0.65877 0.40764 -0.17857
 C593 C 0.70008 0.29473 -0.20104
 C594 C 0.71897 0.27626 -0.21919
 C595 C 0.61504 0.38721 -0.11578
 C596 C 0.59771 0.40730 -0.09828
 H597 H 0.59827 0.33549 -0.07996
 H598 H 0.59809 0.27786 -0.06373
 H599 H 0.63458 0.23806 -0.10047
 H600 H 0.67147 0.25564 -0.15370
 H601 H 0.71613 0.34612 -0.23722
 H602 H 0.71669 0.40371 -0.25323
 H603 H 0.68042 0.44357 -0.21637
 H604 H 0.64334 0.42603 -0.16332
 C605 C 1.14109 0.13890 -0.13385
 C606 C 1.13217 0.17252 -0.13175
 C607 C 1.15314 0.19543 -0.15280
 C608 C 1.18289 0.18454 -0.17579
 C609 C 1.19196 0.15093 -0.17774
 C610 C 1.17102 0.12804 -0.15668
 C611 C 1.18060 0.09456 -0.15911
 C612 C 1.20997 0.08401 -0.18175
 C613 C 1.23040 0.10639 -0.20241
 C614 C 1.22165 0.13949 -0.20053
 C615 C 1.14369 0.22891 -0.15037
 C616 C 1.11432 0.23947 -0.12774
 C617 C 1.09381 0.21708 -0.10712
 C618 C 1.10250 0.18395 -0.10900
 C619 C 1.20408 0.20767 -0.19777
 C620 C 1.22235 0.22587 -0.21668
 C621 C 1.11938 0.11534 -0.11291
 C622 C 1.10181 0.09513 -0.09604
 H623 H 1.16554 0.07619 -0.14359
 H624 H 1.21688 0.05832 -0.18329
 H625 H 1.25313 0.09807 -0.22002
 H626 H 1.23838 0.15593 -0.21714
 H627 H 1.15885 0.24722 -0.16589
 H628 H 1.10744 0.26517 -0.12619
 H629 H 1.07102 0.22541 -0.08958
 H630 H 1.08577 0.16746 -0.09245
 C631 C 1.13810 0.63806 0.36297
 C632 C 1.12229 0.66874 0.35334
 C633 C 1.14387 0.69173 0.33293
 C634 C 1.18115 0.68392 0.32224
 C635 C 1.19698 0.65326 0.33192
 C636 C 1.17541 0.63028 0.35230
 C637 C 1.19186 0.59976 0.36146
 C638 C 1.22851 0.59215 0.35077
 C639 C 1.24959 0.61462 0.33089
 C640 C 1.23417 0.64486 0.32152
 C641 C 1.12740 0.72216 0.32353
 C642 C 1.09065 0.72969 0.33395
 C643 C 1.06955 0.70723 0.35387
 C644 C 1.08505 0.67708 0.36355
 C645 C 1.20305 0.70698 0.30062
 C646 C 1.22176 0.72533 0.28217
 C647 C 1.11601 0.61434 0.38352
 C648 C 1.09822 0.59419 0.40039
 H649 H 1.17662 0.58146 0.37691
 H650 H 1.24062 0.56868 0.35799
 H651 H 1.27806 0.60860 0.32268
 H652 H 1.25174 0.66152 0.30611
 H653 H 1.14271 0.74041 0.30805
 H654 H 1.07847 0.75307 0.32651
 H655 H 1.04100 0.71320 0.36187
 H656 H 1.06755 0.66041 0.37906
 C657 C 0.64131 0.13189 0.35461
 C658 C 0.62657 0.16375 0.34933
 C659 C 0.64724 0.18708 0.32860
 C660 C 0.68249 0.17841 0.31324
 C661 C 0.69698 0.14642 0.31800
 C662 C 0.67632 0.12309 0.33877
 C663 C 0.69141 0.09131 0.34326
 C664 C 0.72590 0.08278 0.32762
 C665 C 0.74609 0.10558 0.30727
 C666 C 0.73195 0.13707 0.30245
 C667 C 0.63200 0.21879 0.32377
 C668 C 0.59731 0.22723 0.33900
 C669 C 0.57708 0.20444 0.35929
 C670 C 0.59140 0.17304 0.36450
 C671 C 0.70384 0.20234 0.29251
 C672 C 0.72184 0.22183 0.27504
 C673 C 0.62085 0.10865 0.37728
 C674 C 0.60334 0.09046 0.39701
 H675 H 0.67669 0.07273 0.35880
 H676 H 0.73701 0.05835 0.33128
 H677 H 0.77286 0.09883 0.29515
 H678 H 0.74869 0.15393 0.28639
 H679 H 0.64668 0.23737 0.30819
 H680 H 0.58606 0.25158 0.33502
 H681 H 0.55013 0.21110 0.37105
 H682 H 0.57456 0.15618 0.38044
 C683 C 0.63824 0.64087 -0.13721
 C684 C 0.65118 0.66995 -0.12064
 C685 C 0.67317 0.69216 -0.14168
 C686 C 0.68206 0.68512 -0.17913
 C687 C 0.66894 0.65615 -0.19577
 C688 C 0.64693 0.63397 -0.17477
 C689 C 0.63422 0.60512 -0.19201
 C690 C 0.64308 0.59835 -0.22889
 C691 C 0.66468 0.62001 -0.24940
 C692 C 0.67752 0.64862 -0.23319
 C693 C 0.68596 0.72099 -0.12449
 C694 C 0.67727 0.72771 -0.08756
 C695 C 0.65576 0.70601 -0.06699
 C696 C 0.64279 0.67742 -0.08320
 C697 C 0.70534 0.70726 -0.20040
 C698 C 0.72507 0.72505 -0.21839
 C699 C 0.61665 0.61767 -0.11554
 C700 C 0.59906 0.59785 -0.09807
 H701 H 0.61734 0.58750 -0.17722
 H702 H 0.63314 0.57616 -0.24161
 H703 H 0.67152 0.61463 -0.27803
 H704 H 0.69422 0.66469 -0.25031
 H705 H 0.70277 0.73862 -0.13937
 H706 H 0.68730 0.74987 -0.07484
 H707 H 0.64908 0.71135 -0.03832
 H708 H 0.62615 0.66130 -0.06609
 C709 C 0.87171 -0.14751 -0.12827
 C710 C 0.88809 -0.16233 -0.15985
 C711 C 0.86689 -0.18463 -0.18132
 C712 C 0.82953 -0.19197 -0.17097
 C713 C 0.81404 -0.17878 -0.13805
 C714 C 0.83522 -0.15647 -0.11661
 C715 C 0.81907 -0.14335 -0.08396
 C716 C 0.78306 -0.15216 -0.07274
 C717 C 0.76232 -0.17400 -0.09374
 C718 C 0.77746 -0.18718 -0.12609
 C719 C 0.88365 -0.19893 -0.21301
 C720 C 0.92044 -0.19152 -0.22308
 C721 C 0.94121 -0.16972 -0.20205
 C722 C 0.92532 -0.15515 -0.17082
 C723 C 0.80635 -0.21164 -0.19508
 C724 C 0.78647 -0.22717 -0.21534
 C725 C 0.89140 -0.12173 -0.10909
 C726 C 0.90699 -0.09958 -0.09374
 H727 H 0.83418 -0.12639 -0.06664
 H728 H 0.77120 -0.14202 -0.04760
 H729 H 0.73437 -0.18079 -0.08490
 H730 H 0.76031 -0.20417 -0.14142
 H731 H 0.86864 -0.21612 -0.23013
 H732 H 0.93289 -0.20278 -0.24730
 H733 H 0.96979 -0.16408 -0.20994
 H734 H 0.94260 -0.13844 -0.15524
 C735 C 0.86099 0.35853 0.36337
 C736 C 0.82199 0.35504 0.37003
 C737 C 0.80069 0.33279 0.34854
 C738 C 0.81851 0.31414 0.32054
 C739 C 0.85767 0.31703 0.31451
 C740 C 0.87897 0.33929 0.33599
 C741 C 0.91804 0.34187 0.32933
 C742 C 0.93557 0.32297 0.30224
 C743 C 0.91474 0.30122 0.28123
 C744 C 0.87623 0.29819 0.28716
 C745 C 0.76172 0.32987 0.35555
 C746 C 0.74428 0.34837 0.38304
 C747 C 0.76510 0.37012 0.40406
 C748 C 0.80351 0.37352 0.39774
 C749 C 0.79638 0.29267 0.29734
 C750 C 0.77783 0.27527 0.27777
 C751 C 0.88226 0.38263 0.38386
 C752 C 0.89941 0.40316 0.40055
 H753 H 0.93543 0.35841 0.34500
 H754 H 0.96549 0.32522 0.29754
 H755 H 0.92850 0.28659 0.26023
 H756 H 0.86123 0.28090 0.27016
 H757 H 0.74434 0.31325 0.33997
 H758 H 0.71446 0.34581 0.38806
 H759 H 0.75143 0.38442 0.42540
 H760 H 0.81851 0.39072 0.41486
 C761 C 0.35648 -0.13541 0.36235
 C762 C 0.34755 -0.16597 0.37846
 C763 C 0.32700 -0.18929 0.35770
 C764 C 0.31546 -0.18198 0.32093
 C765 C 0.32418 -0.15136 0.30489
 C766 C 0.34467 -0.12801 0.32568
 C767 C 0.35288 -0.09756 0.30908
 C768 C 0.34119 -0.09035 0.27298
 C769 C 0.32126 -0.11319 0.25264
 C770 C 0.31282 -0.14338 0.26824
 C771 C 0.31841 -0.21961 0.37443
 C772 C 0.32974 -0.22670 0.41066
 C773 C 0.34979 -0.20393 0.43097
 C774 C 0.35870 -0.17389 0.41520
 C775 C 0.29415 -0.20564 0.29975
 C776 C 0.27603 -0.22463 0.28169
 C777 C 0.37817 -0.11191 0.38347
 C778 C 0.39654 -0.09326 0.40178
 H779 H 0.36832 -0.07902 0.32381
 H780 H 0.34766 -0.06692 0.26073
 H781 H 0.31227 -0.10749 0.22459
 H782 H 0.29735 -0.16036 0.25126
 H783 H 0.30287 -0.23811 0.35973
 H784 H 0.32291 -0.25000 0.42304
 H785 H 0.35850 -0.20955 0.45912
 H786 H 0.37431 -0.15699 0.43215
 C787 C 0.36367 0.36264 -0.13563
 C788 C 0.34140 0.33898 -0.11748
 C789 C 0.32062 0.31618 -0.13875
 C790 C 0.32227 0.31718 -0.17804
 C791 C 0.34515 0.34041 -0.19617
 C792 C 0.36591 0.36319 -0.17492
 C793 C 0.38845 0.38627 -0.19370
 C794 C 0.39043 0.38682 -0.23235
 C795 C 0.37011 0.36455 -0.25313
 C796 C 0.34768 0.34157 -0.23540
 C797 C 0.29839 0.29288 -0.11999
 C798 C 0.29678 0.29207 -0.08131
 C799 C 0.31711 0.31434 -0.06052
 C800 C 0.33919 0.33759 -0.07825
 C801 C 0.29972 0.29496 -0.19989
 C802 C 0.28065 0.27704 -0.21834
 C803 C 0.38358 0.38692 -0.11411
 C804 C 0.39997 0.40762 -0.09697
 H805 H 0.40483 0.40408 -0.17878
 H806 H 0.40782 0.40463 -0.24625
 H807 H 0.37174 0.36508 -0.28315
 H808 H 0.33245 0.32473 -0.25278
 H809 H 0.28212 0.27503 -0.13496
 H810 H 0.27967 0.27407 -0.06740
 H811 H 0.31575 0.31361 -0.03049
 H812 H 0.35453 0.35438 -0.06090
 C813 C 1.13999 -0.14008 0.14083
 C814 C 1.13480 -0.17400 0.13614
 C815 C 1.15553 -0.19653 0.15839
 C816 C 1.18129 -0.18501 0.18522
 C817 C 1.18642 -0.15110 0.18998
 C818 C 1.16578 -0.12857 0.16768
 C819 C 1.17152 -0.09479 0.17289
 C820 C 1.19685 -0.08359 0.19940
 C821 C 1.21695 -0.10561 0.22127
 C822 C 1.21190 -0.13899 0.21675
 C823 C 1.14991 -0.23031 0.15320
 C824 C 1.12450 -0.24152 0.12676
 C825 C 1.10422 -0.21950 0.10502
 C826 C 1.10920 -0.18610 0.10953
 C827 C 1.20283 -0.20786 0.20779
 C828 C 1.22144 -0.22596 0.22693
 C829 C 1.11869 -0.11694 0.11836
 C830 C 1.10126 -0.09715 0.10028
 H831 H 1.15653 -0.07668 0.15658
 H832 H 1.20087 -0.05767 0.20301
 H833 H 1.23652 -0.09679 0.24190
 H834 H 1.22811 -0.15513 0.23451
 H835 H 1.16503 -0.24836 0.16948
 H836 H 1.12053 -0.26744 0.12314
 H837 H 1.08452 -0.22834 0.08452
 H838 H 1.09281 -0.16991 0.09196
 C839 C 1.13595 0.35719 0.63592
 C840 C 1.12497 0.35073 0.67302
 C841 C 1.14659 0.32895 0.69538
 C842 C 1.17907 0.31374 0.68053
 C843 C 1.18948 0.31949 0.64313
 C844 C 1.16787 0.34130 0.62076
 C845 C 1.17896 0.34681 0.58354
 C846 C 1.21046 0.33117 0.56880
 C847 C 1.23157 0.30983 0.59066
 C848 C 1.22135 0.30398 0.62743
 C849 C 1.13517 0.32301 0.73244
 C850 C 1.10327 0.33814 0.74699
 C851 C 1.08213 0.35944 0.72514
 C852 C 1.09272 0.36577 0.68857
 C853 C 1.20224 0.29287 0.70399
 C854 C 1.22165 0.27593 0.72371
 C855 C 1.11512 0.38099 0.61389
 C856 C 1.09797 0.40133 0.59635
 H857 H 1.16339 0.36315 0.56544
 H858 H 1.21852 0.33563 0.54025
 H859 H 1.25599 0.29772 0.57908
 H860 H 1.23861 0.28714 0.64332
 H861 H 1.15066 0.30659 0.75052
 H862 H 1.09491 0.33329 0.77537
 H863 H 1.05736 0.37113 0.73656
 H864 H 1.07532 0.38247 0.67266
 C865 C 0.64570 -0.13245 0.64463
 C866 C 0.66103 -0.12307 0.67924
 C867 C 0.68232 -0.14587 0.70062
 C868 C 0.68814 -0.17792 0.68725
 C869 C 0.67286 -0.18730 0.65261
 C870 C 0.65158 -0.16451 0.63124
 C871 C 0.63660 -0.17450 0.59669
 C872 C 0.64247 -0.20604 0.58364
 C873 C 0.66327 -0.22830 0.60454
 C874 C 0.67836 -0.21918 0.63865
 C875 C 0.69738 -0.13592 0.73513
 C876 C 0.69158 -0.10435 0.74816
 C877 C 0.67076 -0.08208 0.72726
 C878 C 0.65560 -0.09120 0.69317
 C879 C 0.70990 -0.20123 0.70901
 C880 C 0.72804 -0.22059 0.72696
 C881 C 0.62378 -0.10935 0.62269
 C882 C 0.60531 -0.09112 0.60352
 H883 H 0.62022 -0.15809 0.57938
 H884 H 0.63081 -0.21324 0.55715
 H885 H 0.66776 -0.25278 0.59428
 H886 H 0.69434 -0.23738 0.65388
 H887 H 0.71377 -0.15238 0.75238
 H888 H 0.70330 -0.09714 0.77462
 H889 H 0.66634 -0.05759 0.73751
 H890 H 0.63962 -0.07302 0.67790
 C891 C 0.63285 0.35876 0.13538
 C892 C 0.62292 0.35215 0.17273
 C893 C 0.64458 0.32961 0.19405
 C894 C 0.67603 0.31384 0.17790
 C895 C 0.68524 0.31962 0.14021
 C896 C 0.66358 0.34217 0.11888
 C897 C 0.67346 0.34771 0.08132
 C898 C 0.70382 0.33140 0.06527
 C899 C 0.72499 0.30935 0.08613
 C900 C 0.71596 0.30345 0.12320
 C901 C 0.63425 0.32353 0.23140
 C902 C 0.60337 0.33925 0.24722
 C903 C 0.58220 0.36130 0.22638
 C904 C 0.59174 0.36779 0.18956
 C905 C 0.69956 0.29247 0.20036
 C906 C 0.71940 0.27517 0.21921
 C907 C 0.61235 0.38348 0.11447
 C908 C 0.59572 0.40458 0.09765
 H909 H 0.65778 0.36459 0.06395
 H910 H 0.71095 0.33589 0.03649
 H911 H 0.74854 0.29673 0.07354
 H912 H 0.73321 0.28604 0.13827
 H913 H 0.64980 0.30652 0.24871
 H914 H 0.59583 0.33427 0.27580
 H915 H 0.55823 0.37345 0.23879
 H916 H 0.57436 0.38509 0.17446
 C917 C 0.86553 0.14041 0.13680
 C918 C 0.84968 0.16820 0.11913
 C919 C 0.82811 0.19085 0.14012
 C920 C 0.82253 0.18552 0.17858
 C921 C 0.83850 0.15782 0.19628
 C922 C 0.86013 0.13523 0.17534
 C923 C 0.87572 0.10764 0.19363
 C924 C 0.86997 0.10248 0.23148
 C925 C 0.84872 0.12454 0.25194
 C926 C 0.83312 0.15194 0.23471
 C927 C 0.81230 0.21834 0.12187
 C928 C 0.81763 0.22329 0.08392
 C929 C 0.83871 0.20113 0.06338
 C930 C 0.85465 0.17387 0.08065
 C931 C 0.79950 0.20787 0.19991
 C932 C 0.77997 0.22545 0.21846
 C933 C 0.88649 0.11662 0.11532
 C934 C 0.90350 0.09616 0.09815
 H935 H 0.89247 0.08976 0.17893
 H936 H 0.88207 0.08124 0.24499
 H937 H 0.84430 0.12042 0.28133
 H938 H 0.81683 0.16838 0.25185
 H939 H 0.79568 0.23624 0.13669
 H940 H 0.80530 0.24442 0.07038
 H941 H 0.84275 0.20508 0.03390
 H942 H 0.87083 0.15732 0.06353
 C943 C 0.86168 0.63858 0.63658
 C944 C 0.82248 0.63489 0.64180
 C945 C 0.80227 0.65758 0.66398
 C946 C 0.82135 0.68390 0.68071
 C947 C 0.86048 0.68774 0.67530
 C948 C 0.88072 0.66501 0.65316
 C949 C 0.91986 0.66923 0.64833
 C950 C 0.93848 0.69517 0.66492
 C951 C 0.91869 0.71739 0.68657
 C952 C 0.88012 0.71385 0.69178
 C953 C 0.76317 0.65320 0.66911
 C954 C 0.74456 0.62718 0.65274
 C955 C 0.76430 0.60504 0.63096
 C956 C 0.80280 0.60873 0.62545
 C957 C 0.80074 0.70652 0.70409
 C958 C 0.78308 0.72465 0.72379
 C959 C 0.88247 0.61465 0.61502
 C960 C 0.89938 0.59425 0.59760
 H961 H 0.93645 0.65259 0.63172
 H962 H 0.96843 0.69804 0.66093
 H963 H 0.93328 0.73748 0.69940
 H964 H 0.86593 0.73175 0.70886
 H965 H 0.74656 0.66977 0.68581
 H966 H 0.71466 0.62419 0.65699
 H967 H 0.74971 0.58488 0.61827
 H968 H 0.81690 0.59087 0.60827
 C969 C 0.35768 0.13447 0.64215
 C970 C 0.34979 0.12781 0.67995
 C971 C 0.32981 0.15108 0.70158
 C972 C 0.31781 0.18087 0.68526
 C973 C 0.32538 0.18741 0.64739
 C974 C 0.34539 0.16416 0.62576
 C975 C 0.35262 0.17129 0.58793
 C976 C 0.34037 0.20049 0.57193
 C977 C 0.32077 0.22319 0.59308
 C978 C 0.31330 0.21687 0.63039
 C979 C 0.32224 0.14388 0.73932
 C980 C 0.33406 0.11452 0.75522
 C981 C 0.35357 0.09177 0.73406
 C982 C 0.36145 0.09822 0.69685
 C983 C 0.29712 0.20448 0.70727
 C984 C 0.27939 0.22365 0.72562
 C985 C 0.37894 0.11116 0.62015
 C986 C 0.39698 0.09270 0.60111
 H987 H 0.36770 0.15440 0.57029
 H988 H 0.34612 0.20551 0.54295
 H989 H 0.31130 0.24583 0.58053
 H990 H 0.29795 0.23529 0.64570
 H991 H 0.30718 0.16081 0.75692
 H992 H 0.32803 0.10941 0.78412
 H993 H 0.36267 0.06899 0.74654
 H994 H 0.37668 0.07976 0.68149
 C995 C 0.35928 0.64034 0.14198
 C996 C 0.36246 0.67432 0.13577
 C997 C 0.34165 0.69659 0.15806
 C998 C 0.31774 0.68479 0.18641
 C999 C 0.31458 0.65082 0.19267
 C1000 C 0.33541 0.62855 0.17044
 C1001 C 0.33175 0.59472 0.17729
 C1002 C 0.30818 0.58322 0.20524
 C1003 C 0.28778 0.60498 0.22692
 C1004 C 0.29084 0.63840 0.22084
 C1005 C 0.34531 0.73042 0.15130
 C1006 C 0.36884 0.74194 0.12333
 C1007 C 0.38916 0.72018 0.10155
 C1008 C 0.38612 0.68673 0.10758
 C1009 C 0.29597 0.70741 0.20890
 C1010 C 0.27723 0.72550 0.22776
 C1011 C 0.38054 0.61746 0.11929
 C1012 C 0.39801 0.59799 0.10098
 H1013 H 0.34700 0.57681 0.16115
 H1014 H 0.30571 0.55727 0.21007
 H1015 H 0.26946 0.59592 0.24855
 H1016 H 0.27437 0.65434 0.23843
 H1017 H 0.33007 0.74828 0.16753
 H1018 H 0.37131 0.76789 0.11854
 H1019 H 0.40739 0.72926 0.07986
 H1020 H 0.40248 0.67076 0.08992
   
