data_POSCAR
  _audit_creation_date              2014-09-24
  _audit_creation_method            'ToBaCCo'
  _symmetry_space_group_name_H-M    'P1'
  _symmetry_Int_Tables_number       1
  _symmetry_cell_setting            triclinic
  loop_
  _symmetry_equiv_pos_as_xyz
 x,y,z
_cell_length_a 36.7990
_cell_length_b 36.7989
_cell_length_c 36.7989
_cell_angle_alpha 88.565100
_cell_angle_beta 88.564500
_cell_angle_gamma 88.564800
loop_
  _atom_site_label
  _atom_site_type_symbol
  _atom_site_fract_x
  _atom_site_fract_y
  _atom_site_fract_z
C1 C 0.75794 0.61582 0.99952
 C2 C 0.74950 0.37694 0.50555
 C3 C 0.24949 -0.12305 0.00554
 C4 C 0.25793 0.11583 0.49952
 C5 C 0.11582 0.49953 0.25794
 C6 C -0.12306 0.00555 0.24950
 C7 C 0.37695 0.50555 0.74950
 C8 C 0.61582 0.99953 0.75794
 C9 C 0.00555 0.24949 -0.12305
 C10 C 0.49952 0.25793 0.11583
 C11 C 0.99952 0.75793 0.61582
 C12 C 0.50555 0.74949 0.37694
 C13 C 0.43589 -0.03540 0.28601
 H14 H 0.43788 -0.00932 0.29864
 C15 C 0.45417 -0.06597 0.30068
 H16 H 0.47052 -0.06337 0.32451
 C17 C 0.41011 -0.07142 0.24121
 H18 H 0.39193 -0.07388 0.21890
 C19 C 0.42793 -0.10254 0.25494
 H20 H 0.42365 -0.12860 0.24287
 N21 N 0.41402 -0.03872 0.25704
 C22 C 0.38913 0.06816 0.20848
 H23 H 0.36006 0.06494 0.20714
 C24 C 0.40472 0.09994 0.19491
 H25 H 0.38767 0.12118 0.18284
 C26 C 0.44677 0.04439 0.22609
 H27 H 0.46289 0.02261 0.23832
 C28 C 0.46357 0.07596 0.21274
 H29 H 0.49273 0.07848 0.21457
 Zn30 Zn 0.38368 0.00125 0.24258
 N31 N 0.41008 0.04138 0.22406
 C32 C 0.35998 0.05046 0.29587
 N33 N 0.35613 0.01601 0.28413
 C34 C 0.33557 -0.00838 0.30341
 C35 C 0.31780 0.00174 0.33587
 C36 C 0.34272 0.06162 0.32792
 C37 C 0.37163 -0.01888 0.17237
 C38 C 0.35287 -0.03071 0.14266
 C39 C 0.29744 -0.02929 0.17934
 C40 C 0.31732 -0.01731 0.20852
 N41 N 0.35387 -0.01303 0.20463
 H42 H 0.37722 0.06920 0.28101
 H43 H 0.33361 -0.03585 0.29396
 H44 H 0.30182 -0.01783 0.35134
 H45 H 0.34636 0.08901 0.33713
 H46 H 0.40064 -0.01497 0.17004
 H47 H 0.36747 -0.03610 0.11735
 H48 H 0.26852 -0.03355 0.18272
 H49 H 0.30369 -0.01202 0.23426
 C50 C 0.44219 0.10405 0.19725
 C51 C 0.44967 -0.09995 0.28530
 C52 C 0.31554 -0.03632 0.14623
 C53 C 0.32166 0.03707 0.34823
 C54 C 0.07337 1.03344 0.79409
 H55 H 0.06974 1.00730 0.80762
 C56 C 0.05609 1.06458 0.80807
 H57 H 0.03886 1.06240 0.83229
 C58 C 0.10208 1.06883 0.74743
 H59 H 0.12100 1.07075 0.72462
 C60 C 0.08532 1.10052 0.76045
 H61 H 0.09110 1.12649 0.74732
 N62 N 0.09616 1.03616 0.76449
 C63 C 0.11600 0.92813 0.72074
 H64 H 0.14539 0.92886 0.72006
 C65 C 0.09868 0.89845 0.70692
 H66 H 0.11475 0.87624 0.69552
 C67 C 0.05925 0.95672 0.73564
 H68 H 0.04415 0.97978 0.74644
 C69 C 0.04071 0.92740 0.72191
 H70 H 0.01127 0.92782 0.72219
 Zn71 Zn 0.12462 0.99496 0.75043
 N72 N 0.09627 0.95639 0.73486
 C73 C 0.14658 0.94508 0.80533
 N74 N 0.15189 0.97909 0.79109
 C75 C 0.17414 1.00257 0.80724
 C76 C 0.19232 0.99192 0.83890
 C77 C 0.16419 0.93340 0.83674
 C78 C 0.13671 1.01499 0.67883
 C79 C 0.15555 1.02591 0.64733
 C80 C 0.21156 1.02107 0.68029
 C81 C 0.19157 1.01004 0.71135
 N82 N 0.15474 1.00791 0.71013
 H83 H 0.12799 0.92716 0.79295
 H84 H 0.17724 1.02974 0.79587
 H85 H 0.20972 1.01079 0.85185
 H86 H 0.15946 0.90639 0.84799
 H87 H 0.10745 1.01276 0.67864
 H88 H 0.14077 1.03233 0.62279
 H89 H 0.24075 1.02367 0.68150
 H90 H 0.20539 1.00374 0.73638
 C91 C 0.06075 0.89805 0.70739
 C92 C 0.06256 1.09849 0.79134
 C93 C 0.19322 1.02935 0.64812
 C94 C 0.18711 0.95701 0.85378
 C95 C 0.57339 0.53345 0.29409
 H96 H 0.56975 0.50730 0.30762
 C97 C 0.55610 0.56459 0.30807
 H98 H 0.53888 0.56240 0.33229
 C99 C 0.60210 0.56883 0.24743
 H100 H 0.62101 0.57075 0.22462
 C101 C 0.58534 0.60052 0.26045
 H102 H 0.59111 0.62649 0.24732
 N103 N 0.59617 0.53616 0.26449
 C104 C 0.61601 0.42812 0.22074
 H105 H 0.64540 0.42885 0.22007
 C106 C 0.59869 0.39845 0.20693
 H107 H 0.61475 0.37623 0.19553
 C108 C 0.55926 0.45672 0.23565
 H109 H 0.54416 0.47978 0.24645
 C110 C 0.54072 0.42740 0.22192
 H111 H 0.51128 0.42782 0.22220
 Zn112 Zn 0.62464 0.49496 0.25043
 N113 N 0.59628 0.45639 0.23486
 C114 C 0.64659 0.44508 0.30533
 N115 N 0.65190 0.47908 0.29110
 C116 C 0.67415 0.50256 0.30725
 C117 C 0.69233 0.49192 0.33891
 C118 C 0.66420 0.43340 0.33674
 C119 C 0.63672 0.51498 0.17883
 C120 C 0.65556 0.52591 0.14733
 C121 C 0.71157 0.52107 0.18029
 C122 C 0.69159 0.51003 0.21135
 N123 N 0.65475 0.50791 0.21013
 H124 H 0.62799 0.42716 0.29296
 H125 H 0.67726 0.52973 0.29587
 H126 H 0.70974 0.51078 0.35185
 H127 H 0.65947 0.40639 0.34799
 H128 H 0.60747 0.51275 0.17865
 H129 H 0.64078 0.53232 0.12279
 H130 H 0.74077 0.52367 0.18150
 H131 H 0.70540 0.50374 0.23638
 C132 C 0.56075 0.39805 0.20740
 C133 C 0.56257 0.59849 0.29134
 C134 C 0.69323 0.52934 0.14813
 C135 C 0.68712 0.45701 0.35379
 C136 C 0.93590 0.46460 0.78601
 H137 H 0.93789 0.49068 0.79864
 C138 C 0.95418 0.43403 0.80069
 H139 H 0.97053 0.43663 0.82451
 C140 C 0.91012 0.42858 0.74121
 H141 H 0.89194 0.42612 0.71891
 C142 C 0.92794 0.39746 0.75495
 H143 H 0.92366 0.37140 0.74288
 N144 N 0.91403 0.46128 0.75704
 C145 C 0.88914 0.56816 0.70847
 H146 H 0.86006 0.56493 0.70713
 C147 C 0.90473 0.59994 0.69491
 H148 H 0.88767 0.62118 0.68283
 C149 C 0.94678 0.54439 0.72609
 H150 H 0.96290 0.52261 0.73831
 C151 C 0.96358 0.57596 0.71274
 H152 H 0.99274 0.57848 0.71456
 Zn153 Zn 0.88369 0.50125 0.74258
 N154 N 0.91008 0.54138 0.72406
 C155 C 0.85998 0.55046 0.79586
 N156 N 0.85614 0.51601 0.78413
 C157 C 0.83558 0.49162 0.80341
 C158 C 0.81781 0.50174 0.83586
 C159 C 0.84272 0.56162 0.82791
 C160 C 0.87164 0.48111 0.67237
 C161 C 0.85288 0.46928 0.64266
 C162 C 0.79745 0.47071 0.67934
 C163 C 0.81733 0.48269 0.70852
 N164 N 0.85388 0.48697 0.70463
 H165 H 0.87722 0.56921 0.78100
 H166 H 0.83363 0.46415 0.79396
 H167 H 0.80183 0.48217 0.85134
 H168 H 0.84636 0.58901 0.83713
 H169 H 0.90065 0.48502 0.67004
 H170 H 0.86748 0.46389 0.61735
 H171 H 0.76853 0.46644 0.68272
 H172 H 0.80370 0.48798 0.73426
 C173 C 0.94220 0.60405 0.69724
 C174 C 0.94968 0.40006 0.78530
 C175 C 0.81555 0.46367 0.64624
 C176 C 0.82167 0.53707 0.84823
 C177 C 0.28601 0.43589 -0.03539
 H178 H 0.29864 0.43789 -0.00931
 C179 C 0.30069 0.45417 -0.06596
 H180 H 0.32452 0.47052 -0.06336
 C181 C 0.24121 0.41012 -0.07141
 H182 H 0.21891 0.39193 -0.07387
 C183 C 0.25495 0.42794 -0.10253
 H184 H 0.24288 0.42365 -0.12859
 N185 N 0.25705 0.41402 -0.03871
 C186 C 0.20848 0.38913 0.06817
 H187 H 0.20714 0.36006 0.06494
 C188 C 0.19491 0.40473 0.09995
 H189 H 0.18284 0.38767 0.12119
 C190 C 0.22610 0.44677 0.04440
 H191 H 0.23832 0.46290 0.02262
 C192 C 0.21274 0.46358 0.07597
 H193 H 0.21457 0.49273 0.07849
 Zn194 Zn 0.24259 0.38368 0.00126
 N195 N 0.22406 0.41008 0.04139
 C196 C 0.29587 0.35998 0.05047
 N197 N 0.28413 0.35614 0.01602
 C198 C 0.30341 0.33557 -0.00837
 C199 C 0.33587 0.31781 0.00175
 C200 C 0.32792 0.34272 0.06163
 C201 C 0.17238 0.37163 -0.01887
 C202 C 0.14266 0.35287 -0.03071
 C203 C 0.17935 0.29744 -0.02929
 C204 C 0.20852 0.31732 -0.01730
 N205 N 0.20464 0.35387 -0.01302
 H206 H 0.28101 0.37722 0.06921
 H207 H 0.29397 0.33362 -0.03584
 H208 H 0.35135 0.30183 -0.01782
 H209 H 0.33713 0.34636 0.08902
 H210 H 0.17004 0.40065 -0.01496
 H211 H 0.11735 0.36747 -0.03609
 H212 H 0.18272 0.26852 -0.03355
 H213 H 0.23427 0.30369 -0.01202
 C214 C 0.19724 0.44220 0.10406
 C215 C 0.28531 0.44967 -0.09994
 C216 C 0.14624 0.31555 -0.03632
 C217 C 0.34824 0.32166 0.03708
 C218 C 0.79409 0.07338 1.03345
 H219 H 0.80762 0.06975 1.00731
 C220 C 0.80807 0.05609 1.06459
 H221 H 0.83229 0.03887 1.06240
 C222 C 0.74744 0.10209 1.06884
 H223 H 0.72462 0.12101 1.07075
 C224 C 0.76046 0.08533 1.10052
 H225 H 0.74732 0.09111 1.12650
 N226 N 0.76449 0.09617 1.03616
 C227 C 0.72075 0.11602 0.92813
 H228 H 0.72008 0.14540 0.92886
 C229 C 0.70693 0.09869 0.89845
 H230 H 0.69553 0.11476 0.87624
 C231 C 0.73565 0.05926 0.95673
 H232 H 0.74644 0.04416 0.97978
 C233 C 0.72192 0.04073 0.92741
 H234 H 0.72219 0.01128 0.92782
 Zn235 Zn 0.75043 0.12463 0.99496
 N236 N 0.73486 0.09628 0.95640
 C237 C 0.80534 0.14658 0.94509
 N238 N 0.79110 0.15190 0.97909
 C239 C 0.80725 0.17415 1.00257
 C240 C 0.83891 0.19233 0.99193
 C241 C 0.83675 0.16420 0.93341
 C242 C 0.67884 0.13672 1.01499
 C243 C 0.64734 0.15555 1.02592
 C244 C 0.68030 0.21157 1.02108
 C245 C 0.71136 0.19158 1.01004
 N246 N 0.71014 0.15475 1.00792
 H247 H 0.79296 0.12799 0.92717
 H248 H 0.79588 0.17725 1.02974
 H249 H 0.85186 0.20973 1.01079
 H250 H 0.84800 0.15947 0.90640
 H251 H 0.67865 0.10746 1.01276
 H252 H 0.62280 0.14078 1.03233
 H253 H 0.68150 0.24076 1.02368
 H254 H 0.73638 0.20540 1.00375
 C255 C 0.70739 0.06076 0.89806
 C256 C 0.79134 0.06257 1.09849
 C257 C 0.64813 0.19322 1.02935
 C258 C 0.85379 0.18712 0.95702
 C259 C 0.29409 0.57337 0.53345
 H260 H 0.30763 0.56974 0.50731
 C261 C 0.30807 0.55609 0.56459
 H262 H 0.33229 0.53886 0.56240
 C263 C 0.24744 0.60209 0.56884
 H264 H 0.22463 0.62101 0.57075
 C265 C 0.26046 0.58533 0.60052
 H266 H 0.24733 0.59111 0.62650
 N267 N 0.26450 0.59616 0.53616
 C268 C 0.22075 0.61601 0.42813
 H269 H 0.22008 0.64539 0.42886
 C270 C 0.20694 0.59868 0.39845
 H271 H 0.19554 0.61475 0.37624
 C272 C 0.23565 0.55925 0.45673
 H273 H 0.24644 0.54415 0.47978
 C274 C 0.22192 0.54072 0.42741
 H275 H 0.22219 0.51127 0.42782
 Zn276 Zn 0.25044 0.62463 0.49496
 N277 N 0.23487 0.59627 0.45640
 C278 C 0.30534 0.64657 0.44509
 N279 N 0.29111 0.65189 0.47909
 C280 C 0.30726 0.67414 0.50257
 C281 C 0.33892 0.69232 0.49192
 C282 C 0.33675 0.66419 0.43341
 C283 C 0.17884 0.63671 0.51499
 C284 C 0.14734 0.65555 0.52591
 C285 C 0.18030 0.71156 0.52107
 C286 C 0.21136 0.69158 0.51003
 N287 N 0.21014 0.65474 0.50791
 H288 H 0.29297 0.62798 0.42717
 H289 H 0.29588 0.67725 0.52974
 H290 H 0.35186 0.70973 0.51078
 H291 H 0.34800 0.65946 0.40639
 H292 H 0.17866 0.60746 0.51276
 H293 H 0.12280 0.64078 0.53233
 H294 H 0.18151 0.74076 0.52366
 H295 H 0.23639 0.70539 0.50374
 C296 C 0.20740 0.56075 0.39806
 C297 C 0.29135 0.56256 0.59849
 C298 C 0.14813 0.69322 0.52935
 C299 C 0.35380 0.68711 0.45701
 C300 C 0.78601 0.93590 0.46461
 H301 H 0.79864 0.93789 0.49069
 C302 C 0.80069 0.95417 0.43403
 H303 H 0.82451 0.97052 0.43664
 C304 C 0.74121 0.91013 0.42859
 H305 H 0.71890 0.89194 0.42613
 C306 C 0.75494 0.92794 0.39747
 H307 H 0.74287 0.92366 0.37141
 N308 N 0.75704 0.91403 0.46129
 C309 C 0.70848 0.88913 0.56817
 H310 H 0.70714 0.86006 0.56494
 C311 C 0.69491 0.90473 0.59995
 H312 H 0.68284 0.88767 0.62119
 C313 C 0.72609 0.94677 0.54440
 H314 H 0.73832 0.96290 0.52262
 C315 C 0.71274 0.96358 0.57597
 H316 H 0.71457 0.99273 0.57849
 Zn317 Zn 0.74259 0.88368 0.50125
 N318 N 0.72406 0.91008 0.54139
 C319 C 0.79587 0.85998 0.55046
 N320 N 0.78413 0.85614 0.51601
 C321 C 0.80341 0.83558 0.49162
 C322 C 0.83587 0.81781 0.50174
 C323 C 0.82792 0.84272 0.56162
 C324 C 0.67237 0.87164 0.48113
 C325 C 0.64266 0.85287 0.46930
 C326 C 0.67935 0.79745 0.47071
 C327 C 0.70852 0.81733 0.48269
 N328 N 0.70463 0.85387 0.48698
 H329 H 0.78101 0.87721 0.56921
 H330 H 0.79397 0.83363 0.46415
 H331 H 0.85134 0.80183 0.48216
 H332 H 0.83713 0.84635 0.58901
 H333 H 0.67003 0.90065 0.48504
 H334 H 0.61735 0.86747 0.46391
 H335 H 0.68272 0.76853 0.46644
 H336 H 0.73427 0.80370 0.48797
 C337 C 0.69725 0.94220 0.60406
 C338 C 0.78530 0.94968 0.40006
 C339 C 0.64624 0.81555 0.46368
 C340 C 0.84824 0.82166 0.53707
 C341 C -0.03540 0.28601 0.43589
 H342 H -0.00931 0.29864 0.43788
 C343 C -0.06597 0.30069 0.45417
 H344 H -0.06337 0.32451 0.47052
 C345 C -0.07141 0.24121 0.41012
 H346 H -0.07387 0.21890 0.39193
 C347 C -0.10253 0.25494 0.42794
 H348 H -0.12859 0.24287 0.42365
 N349 N -0.03872 0.25705 0.41402
 C350 C 0.06817 0.20849 0.38913
 H351 H 0.06494 0.20715 0.36005
 C352 C 0.09995 0.19492 0.40472
 H353 H 0.12119 0.18285 0.38767
 C354 C 0.04439 0.22610 0.44677
 H355 H 0.02261 0.23832 0.46290
 C356 C 0.07597 0.21275 0.46357
 H357 H 0.07849 0.21457 0.49273
 Zn358 Zn 0.00125 0.24259 0.38368
 N359 N 0.04138 0.22407 0.41008
 C360 C 0.05046 0.29587 0.35998
 N361 N 0.01601 0.28414 0.35613
 C362 C -0.00837 0.30341 0.33557
 C363 C 0.00174 0.33587 0.31781
 C364 C 0.06162 0.32792 0.34272
 C365 C -0.01887 0.17238 0.37163
 C366 C -0.03070 0.14266 0.35287
 C367 C -0.02929 0.17935 0.29744
 C368 C -0.01731 0.20852 0.31732
 N369 N -0.01302 0.20464 0.35387
 H370 H 0.06921 0.28102 0.37722
 H371 H -0.03584 0.29397 0.33362
 H372 H -0.01783 0.35135 0.30182
 H373 H 0.08901 0.33714 0.34636
 H374 H -0.01496 0.17004 0.40064
 H375 H -0.03609 0.11735 0.36747
 H376 H -0.03356 0.18272 0.26852
 H377 H -0.01203 0.23427 0.30369
 C378 C 0.10406 0.19725 0.44219
 C379 C -0.09994 0.28530 0.44967
 C380 C -0.03632 0.14624 0.31554
 C381 C 0.03707 0.34824 0.32166
 C382 C 1.03344 0.79409 0.07338
 H383 H 1.00730 0.80762 0.06974
 C384 C 1.06458 0.80807 0.05609
 H385 H 1.06239 0.83229 0.03886
 C386 C 1.06883 0.74744 0.10209
 H387 H 1.07075 0.72463 0.12100
 C388 C 1.10052 0.76046 0.08533
 H389 H 1.12649 0.74733 0.09110
 N390 N 1.03616 0.76449 0.09616
 C391 C 0.92813 0.72074 0.11601
 H392 H 0.92885 0.72007 0.14539
 C393 C 0.89845 0.70693 0.09868
 H394 H 0.87624 0.69553 0.11475
 C395 C 0.95673 0.73565 0.05925
 H396 H 0.97978 0.74644 0.04415
 C397 C 0.92740 0.72192 0.04072
 H398 H 0.92782 0.72219 0.01127
 Zn399 Zn 0.99496 0.75043 0.12463
 N400 N 0.95640 0.73486 0.09628
 C401 C 0.94508 0.80534 0.14658
 N402 N 0.97908 0.79110 0.15189
 C403 C 1.00256 0.80725 0.17414
 C404 C 0.99192 0.83891 0.19232
 C405 C 0.93340 0.83674 0.16420
 C406 C 1.01499 0.67884 0.13671
 C407 C 1.02591 0.64734 0.15555
 C408 C 1.02107 0.68030 0.21156
 C409 C 1.01003 0.71136 0.19158
 N410 N 1.00791 0.71014 0.15474
 H411 H 0.92716 0.79296 0.12799
 H412 H 1.02974 0.79588 0.17724
 H413 H 1.01078 0.85186 0.20973
 H414 H 0.90639 0.84799 0.15947
 H415 H 1.01276 0.67865 0.10746
 H416 H 1.03233 0.62280 0.14078
 H417 H 1.02367 0.68151 0.24076
 H418 H 1.00374 0.73639 0.20539
 C419 C 0.89806 0.70739 0.06075
 C420 C 1.09848 0.79134 0.06256
 C421 C 1.02935 0.64813 0.19322
 C422 C 0.95701 0.85379 0.18711
 C423 C 0.53344 0.29409 0.57338
 H424 H 0.50730 0.30763 0.56975
 C425 C 0.56458 0.30807 0.55609
 H426 H 0.56240 0.33229 0.53887
 C427 C 0.56883 0.24744 0.60209
 H428 H 0.57075 0.22462 0.62101
 C429 C 0.60052 0.26046 0.58533
 H430 H 0.62649 0.24732 0.59111
 N431 N 0.53616 0.26449 0.59617
 C432 C 0.42812 0.22075 0.61601
 H433 H 0.42885 0.22008 0.64540
 C434 C 0.39845 0.20694 0.59869
 H435 H 0.37623 0.19554 0.61475
 C436 C 0.45672 0.23565 0.55926
 H437 H 0.47978 0.24644 0.54416
 C438 C 0.42740 0.22192 0.54072
 H439 H 0.42782 0.22219 0.51128
 Zn440 Zn 0.49496 0.25043 0.62463
 N441 N 0.45639 0.23487 0.59628
 C442 C 0.44508 0.30534 0.64659
 N443 N 0.47909 0.29111 0.65190
 C444 C 0.50257 0.30725 0.67415
 C445 C 0.49192 0.33891 0.69233
 C446 C 0.43341 0.33675 0.66420
 C447 C 0.51498 0.17884 0.63672
 C448 C 0.52591 0.14734 0.65556
 C449 C 0.52107 0.18030 0.71157
 C450 C 0.51003 0.21136 0.69158
 N451 N 0.50791 0.21014 0.65475
 H452 H 0.42716 0.29296 0.62799
 H453 H 0.52974 0.29588 0.67725
 H454 H 0.51078 0.35186 0.70973
 H455 H 0.40639 0.34800 0.65947
 H456 H 0.51275 0.17865 0.60746
 H457 H 0.53232 0.12280 0.64078
 H458 H 0.52367 0.18151 0.74076
 H459 H 0.50374 0.23639 0.70540
 C460 C 0.39805 0.20740 0.56075
 C461 C 0.59849 0.29134 0.56256
 C462 C 0.52935 0.14813 0.69322
 C463 C 0.45701 0.35380 0.68712
 C464 C 0.46460 0.78601 0.93590
 H465 H 0.49069 0.79865 0.93789
 C466 C 0.43403 0.80069 0.95418
 H467 H 0.43663 0.82452 0.97053
 C468 C 0.42859 0.74121 0.91013
 H469 H 0.42613 0.71891 0.89194
 C470 C 0.39747 0.75495 0.92794
 H471 H 0.37141 0.74287 0.92366
 N472 N 0.46129 0.75705 0.91403
 C473 C 0.56817 0.70849 0.88914
 H474 H 0.56494 0.70715 0.86006
 C475 C 0.59995 0.69492 0.90473
 H476 H 0.62119 0.68285 0.88767
 C477 C 0.54440 0.72610 0.94678
 H478 H 0.52262 0.73832 0.96291
 C479 C 0.57597 0.71275 0.96358
 H480 H 0.57849 0.71457 0.99274
 Zn481 Zn 0.50125 0.74259 0.88369
 N482 N 0.54138 0.72407 0.91009
 C483 C 0.55046 0.79587 0.85999
 N484 N 0.51601 0.78414 0.85614
 C485 C 0.49163 0.80342 0.83558
 C486 C 0.50174 0.83587 0.81782
 C487 C 0.56163 0.82792 0.84273
 C488 C 0.48113 0.67238 0.87164
 C489 C 0.46930 0.64266 0.85288
 C490 C 0.47071 0.67935 0.79745
 C491 C 0.48269 0.70853 0.81733
 N492 N 0.48698 0.70464 0.85388
 H493 H 0.56921 0.78102 0.87723
 H494 H 0.46416 0.79397 0.83363
 H495 H 0.48217 0.85135 0.80183
 H496 H 0.58901 0.83714 0.84636
 H497 H 0.48504 0.67004 0.90065
 H498 H 0.46391 0.61735 0.86748
 H499 H 0.46645 0.68273 0.76853
 H500 H 0.48798 0.73427 0.80370
 C501 C 0.60406 0.69725 0.94220
 C502 C 0.40006 0.78531 0.94968
 C503 C 0.46368 0.64624 0.81555
 C504 C 0.53708 0.84824 0.82167
 C505 C 0.49535 -0.21912 0.35365
 C506 C 0.48646 -0.19225 0.33624
 C507 C 0.47516 -0.16012 0.31747
 C508 C 0.46436 -0.13255 0.30244
 C509 C 0.99535 0.28088 0.85365
 C510 C 0.98647 0.30775 0.83624
 C511 C 0.97517 0.33988 0.81748
 C512 C 0.96437 0.36745 0.80244
 C513 C 0.01704 1.21822 0.85512
 C514 C 0.02645 1.19137 0.83886
 C515 C 0.03788 1.15915 0.82138
 C516 C 0.04845 1.13142 0.80737
 C517 C 0.51704 0.71823 0.35511
 C518 C 0.52646 0.69137 0.33885
 C519 C 0.53789 0.65916 0.32138
 C520 C 0.54846 0.63142 0.30736
 C521 C 0.50928 0.28755 0.13939
 C522 C 0.51841 0.31269 0.15720
 C523 C 0.53078 0.34258 0.17633
 C524 C 0.54322 0.36809 0.19126
 C525 C 0.00928 0.78755 0.63937
 C526 C 0.01841 0.81269 0.65718
 C527 C 0.03078 0.84258 0.67631
 C528 C 0.04322 0.86809 0.69124
 C529 C 0.98936 0.72558 0.63745
 C530 C 0.98056 0.69800 0.65336
 C531 C 0.96919 0.66513 0.67010
 C532 C 0.95798 0.63705 0.68308
 C533 C 0.48936 0.22559 0.13747
 C534 C 0.48056 0.19800 0.15338
 C535 C 0.46919 0.16514 0.17011
 C536 C 0.45798 0.13705 0.18309
 C537 C 0.35365 0.49535 -0.21911
 C538 C 0.33624 0.48647 -0.19224
 C539 C 0.31748 0.47516 -0.16011
 C540 C 0.30244 0.46437 -0.13254
 C541 C 0.85365 0.99535 0.28089
 C542 C 0.83624 0.98646 0.30776
 C543 C 0.81748 0.97517 0.33989
 C544 C 0.80244 0.96437 0.36745
 C545 C 0.85511 0.01704 1.21823
 C546 C 0.83885 0.02646 1.19137
 C547 C 0.82138 0.03788 1.15916
 C548 C 0.80737 0.04846 1.13143
 C549 C 0.35511 0.51704 0.71823
 C550 C 0.33886 0.52646 0.69138
 C551 C 0.32138 0.53789 0.65916
 C552 C 0.30737 0.54846 0.63143
 C553 C 0.13938 0.50929 0.28755
 C554 C 0.15719 0.51841 0.31269
 C555 C 0.17632 0.53078 0.34258
 C556 C 0.19125 0.54322 0.36810
 C557 C 0.63938 0.00929 0.78755
 C558 C 0.65719 0.01842 0.81269
 C559 C 0.67632 0.03079 0.84258
 C560 C 0.69125 0.04323 0.86810
 C561 C 0.63746 0.98936 0.72559
 C562 C 0.65337 0.98056 0.69801
 C563 C 0.67011 0.96919 0.66514
 C564 C 0.68309 0.95798 0.63706
 C565 C 0.13746 0.48936 0.22559
 C566 C 0.15337 0.48056 0.19801
 C567 C 0.17011 0.46919 0.16514
 C568 C 0.18309 0.45798 0.13706
 C569 C -0.21911 0.35364 0.49534
 C570 C -0.19225 0.33623 0.48646
 C571 C -0.16012 0.31747 0.47516
 C572 C -0.13255 0.30243 0.46437
 C573 C 0.28088 0.85365 0.99534
 C574 C 0.30775 0.83625 0.98646
 C575 C 0.33988 0.81748 0.97516
 C576 C 0.36745 0.80244 0.96437
 C577 C 1.21822 0.85512 0.01703
 C578 C 1.19137 0.83886 0.02645
 C579 C 1.15915 0.82138 0.03788
 C580 C 1.13142 0.80737 0.04845
 C581 C 0.71823 0.35511 0.51703
 C582 C 0.69137 0.33885 0.52645
 C583 C 0.65916 0.32138 0.53788
 C584 C 0.63142 0.30737 0.54845
 C585 C 0.28755 0.13938 0.50928
 C586 C 0.31269 0.15719 0.51841
 C587 C 0.34258 0.17632 0.53078
 C588 C 0.36810 0.19126 0.54322
 C589 C 0.78755 0.63938 0.00928
 C590 C 0.81269 0.65719 0.01841
 C591 C 0.84258 0.67632 0.03078
 C592 C 0.86810 0.69125 0.04322
 C593 C 0.72559 0.63746 0.98936
 C594 C 0.69801 0.65337 0.98056
 C595 C 0.66514 0.67011 0.96919
 C596 C 0.63706 0.68309 0.95798
 C597 C 0.22559 0.13746 0.48936
 C598 C 0.19801 0.15338 0.48056
 C599 C 0.16514 0.17011 0.46919
 C600 C 0.13706 0.18309 0.45797
 C601 C 0.59264 0.03104 0.74828
 C602 C 0.57544 0.05774 0.73872
 C603 C 0.55743 0.08941 0.72543
 C604 C 0.54374 0.11642 0.71198
 C605 C 1.09264 0.53104 0.24828
 C606 C 1.07545 0.55774 0.23872
 C607 C 1.05744 0.58941 0.22542
 C608 C 1.04374 0.61642 0.21198
 C609 C 0.89953 0.97393 0.23913
 C610 C 0.91604 0.94704 0.22937
 C611 C 0.93290 0.91488 0.21641
 C612 C 0.94512 0.88707 0.20390
 C613 C 0.39953 0.47393 0.73913
 C614 C 0.41604 0.44705 0.72937
 C615 C 0.43290 0.41488 0.71641
 C616 C 0.44513 0.38707 0.70390
 C617 C 0.39959 0.53564 0.75979
 C618 C 0.41656 0.56100 0.76977
 C619 C 0.43461 0.59096 0.78340
 C620 C 0.44861 0.61642 0.79693
 C621 C -0.10041 0.03563 0.25979
 C622 C -0.08344 0.06099 0.26977
 C623 C -0.06539 0.09095 0.28340
 C624 C -0.05140 0.11642 0.29693
 C625 C 0.09378 0.46863 0.26988
 C626 C 0.07746 0.44214 0.28019
 C627 C 0.06070 0.41013 0.29318
 C628 C 0.04859 0.38213 0.30540
 C629 C 0.59378 0.96863 0.76988
 C630 C 0.57747 0.94214 0.78020
 C631 C 0.56070 0.91013 0.79319
 C632 C 0.54859 0.88213 0.80541
 C633 C 0.74828 0.59264 0.03103
 C634 C 0.73872 0.57544 0.05773
 C635 C 0.72543 0.55743 0.08940
 C636 C 0.71198 0.54373 0.11642
 C637 C 0.24827 1.09264 0.53103
 C638 C 0.23872 1.07545 0.55773
 C639 C 0.22542 1.05744 0.58940
 C640 C 0.21197 1.04374 0.61642
 C641 C 0.23912 0.89953 0.97392
 C642 C 0.22936 0.91604 0.94703
 C643 C 0.21640 0.93290 0.91487
 C644 C 0.20389 0.94513 0.88706
 C645 C 0.73913 0.39952 0.47393
 C646 C 0.72937 0.41604 0.44704
 C647 C 0.71641 0.43290 0.41488
 C648 C 0.70390 0.44512 0.38706
 C649 C 0.75979 0.39959 0.53563
 C650 C 0.76977 0.41655 0.56099
 C651 C 0.78340 0.43460 0.59095
 C652 C 0.79693 0.44860 0.61642
 C653 C 0.25978 -0.10040 0.03563
 C654 C 0.26976 -0.08344 0.06099
 C655 C 0.28339 -0.06539 0.09095
 C656 C 0.29692 -0.05140 0.11641
 C657 C 0.26988 0.09378 0.46862
 C658 C 0.28019 0.07747 0.44213
 C659 C 0.29318 0.06070 0.41012
 C660 C 0.30540 0.04859 0.38213
 C661 C 0.76988 0.59378 0.96862
 C662 C 0.78020 0.57747 0.94213
 C663 C 0.79318 0.56070 0.91012
 C664 C 0.80541 0.54859 0.88212
 C665 C 0.03103 0.74827 0.59263
 C666 C 0.05773 0.73872 0.57544
 C667 C 0.08940 0.72542 0.55743
 C668 C 0.11642 0.71198 0.54373
 C669 C 0.53103 0.24827 1.09265
 C670 C 0.55773 0.23872 1.07545
 C671 C 0.58940 0.22542 1.05744
 C672 C 0.61642 0.21198 1.04375
 C673 C 0.97393 0.23912 0.89953
 C674 C 0.94704 0.22936 0.91605
 C675 C 0.91488 0.21641 0.93291
 C676 C 0.88707 0.20390 0.94513
 C677 C 0.47393 0.73912 0.39953
 C678 C 0.44705 0.72936 0.41604
 C679 C 0.41488 0.71641 0.43290
 C680 C 0.38707 0.70389 0.44512
 C681 C 0.53564 0.75979 0.39959
 C682 C 0.56100 0.76977 0.41656
 C683 C 0.59095 0.78340 0.43461
 C684 C 0.61642 0.79693 0.44860
 C685 C 0.03564 0.25978 -0.10041
 C686 C 0.06100 0.26977 -0.08344
 C687 C 0.09096 0.28339 -0.06539
 C688 C 0.11642 0.29693 -0.05139
 C689 C 0.46862 0.26987 0.09379
 C690 C 0.44213 0.28019 0.07748
 C691 C 0.41012 0.29318 0.06071
 C692 C 0.38213 0.30540 0.04860
 C693 C 0.96862 0.76987 0.59377
 C694 C 0.94213 0.78019 0.57746
 C695 C 0.91012 0.79318 0.56069
 C696 C 0.88213 0.80540 0.54859
   
