data_POSCAR
  _audit_creation_date              2014-09-24
  _audit_creation_method            'ToBaCCo'
  _symmetry_space_group_name_H-M    'P1'
  _symmetry_Int_Tables_number       1
  _symmetry_cell_setting            triclinic
  loop_
  _symmetry_equiv_pos_as_xyz
 x,y,z
_cell_length_a 35.7471
_cell_length_b 35.8472
_cell_length_c 35.8293
_cell_angle_alpha 103.089200
_cell_angle_beta 76.515900
_cell_angle_gamma 76.907700
loop_
  _atom_site_label
  _atom_site_type_symbol
  _atom_site_fract_x
  _atom_site_fract_y
  _atom_site_fract_z
C1 C 0.50654 0.47959 0.00261
 C2 C 0.47763 0.50835 -0.00253
 C3 C 0.43744 0.50360 -0.00289
 C4 C 0.48441 0.54660 -0.00749
 C5 C 0.54501 0.48631 0.00717
 C6 C 0.50179 0.43958 0.00326
 C7 C 0.42235 0.51011 -0.03447
 C8 C 0.38365 0.50823 -0.03411
 C9 C 0.35941 0.50005 -0.00200
 C10 C 0.37434 0.49331 0.02956
 C11 C 0.41310 0.49521 0.02918
 C12 C 0.51710 0.54678 -0.03811
 C13 C 0.52269 0.58308 -0.04263
 C14 C 0.49548 0.61948 -0.01685
 C15 C 0.46268 0.61943 0.01341
 C16 C 0.45709 0.58322 0.01799
 C17 C 0.54529 0.51886 0.03749
 C18 C 0.58181 0.52429 0.04171
 C19 C 0.61832 0.49708 0.01591
 C20 C 0.61818 0.46444 -0.01408
 C21 C 0.58176 0.45901 -0.01835
 C22 C 0.50833 0.42453 0.03489
 C23 C 0.50654 0.38597 0.03471
 C24 C 0.49842 0.36189 0.00279
 C25 C 0.49164 0.37672 -0.02877
 C26 C 0.49343 0.41534 -0.02863
 H27 H 0.44051 0.51690 -0.05931
 H28 H 0.37258 0.51368 -0.05869
 H29 H 0.35592 0.48721 0.05479
 H30 H 0.42382 0.49093 0.05424
 H31 H 0.53808 0.51885 -0.05855
 H32 H 0.54806 0.58278 -0.06628
 H33 H 0.43158 0.58372 0.04160
 H34 H 0.51728 0.53982 0.05797
 H35 H 0.58157 0.54953 0.06516
 H36 H 0.64624 0.44315 -0.03414
 H37 H 0.58221 0.43361 -0.04174
 H38 H 0.51512 0.44260 0.05960
 H39 H 0.51202 0.37473 0.05918
 H40 H 0.48562 0.35823 -0.05377
 H41 H 0.48915 0.42602 -0.05374
 H42 H 0.44139 0.64741 0.03346
 C43 C -0.00206 0.52458 0.52765
 C44 C -0.00674 0.49557 0.49875
 C45 C -0.00772 0.45580 0.50387
 C46 C -0.01078 0.50170 0.46010
 C47 C 0.00209 0.56312 0.52118
 C48 C -0.00129 0.51959 0.56752
 C49 C 0.02424 0.43137 0.51203
 C50 C 0.02377 0.39312 0.51462
 C51 C -0.00848 0.37889 0.50882
 C52 C -0.04041 0.40314 0.50081
 C53 C -0.03998 0.44133 0.49823
 C54 C 0.01533 0.47413 0.42385
 C55 C 0.01117 0.47850 0.38719
 C56 C -0.01929 0.51032 0.38631
 C57 C -0.04557 0.53794 0.42232
 C58 C -0.04144 0.53358 0.45912
 C59 C -0.02400 0.59937 0.54863
 C60 C -0.02022 0.63592 0.54344
 C61 C 0.00985 0.63667 0.51090
 C62 C 0.03625 0.60066 0.48355
 C63 C 0.03252 0.56400 0.48874
 C64 C -0.03322 0.51101 0.59189
 C65 C -0.03256 0.50760 0.62986
 C66 C -0.00017 0.51305 0.64390
 C67 C 0.03160 0.52178 0.61983
 C68 C 0.03099 0.52516 0.58189
 H69 H 0.04978 0.44165 0.51567
 H70 H 0.04878 0.37444 0.52053
 H71 H -0.06539 0.39234 0.49608
 H72 H -0.06474 0.45961 0.49163
 H73 H 0.03897 0.44923 0.42401
 H74 H 0.03159 0.45692 0.35950
 H75 H -0.06235 0.55471 0.48678
 H76 H -0.04747 0.59932 0.57395
 H77 H -0.04073 0.66361 0.56483
 H78 H 0.05976 0.60093 0.45838
 H79 H 0.05343 0.53636 0.46767
 H80 H -0.05878 0.50742 0.58168
 H81 H -0.05745 0.50115 0.64840
 H82 H 0.05669 0.52625 0.63051
 H83 H 0.05573 0.53208 0.56366
 H84 H -0.06936 0.56256 0.42195
 C85 C 0.52577 -0.00302 0.47235
 C86 C 0.49654 -0.00723 0.50176
 C87 C 0.50247 -0.01047 0.54075
 C88 C 0.45664 -0.00832 0.49693
 C89 C 0.52091 -0.00283 0.43228
 C90 C 0.56436 0.00144 0.47854
 C91 C 0.53445 -0.04061 0.54237
 C92 C 0.53850 -0.04409 0.57947
 C93 C 0.51045 -0.01766 0.61525
 C94 C 0.47855 0.01234 0.61372
 C95 C 0.47452 0.01583 0.57673
 C96 C 0.44200 -0.04025 0.50335
 C97 C 0.40371 -0.04079 0.50091
 C98 C 0.37955 -0.00931 0.49225
 C99 C 0.39394 0.02262 0.48573
 C100 C 0.43229 0.02322 0.48819
 C101 C 0.52685 0.02889 0.41703
 C102 C 0.52360 0.02898 0.37893
 C103 C 0.51463 -0.00274 0.35552
 C104 C 0.50882 -0.03458 0.37042
 C105 C 0.51209 -0.03473 0.40856
 C106 C 0.56502 0.03225 0.51040
 C107 C 0.60172 0.03624 0.51542
 C108 C 0.63803 0.00968 0.48844
 C109 C 0.63748 -0.02078 0.45642
 C110 C 0.60087 -0.02478 0.45143
 H111 H 0.55590 -0.06167 0.51496
 H112 H 0.56324 -0.06758 0.58019
 H113 H 0.45656 0.03294 0.64111
 H114 H 0.44953 0.03909 0.57612
 H115 H 0.46022 -0.06467 0.51042
 H116 H 0.39276 -0.06552 0.50621
 H117 H 0.44271 0.04850 0.48394
 H118 H 0.53394 0.05361 0.43471
 H119 H 0.52834 0.05367 0.36764
 H120 H 0.50215 -0.05944 0.35244
 H121 H 0.50821 -0.05988 0.41940
 H122 H 0.53718 0.05326 0.53116
 H123 H 0.60171 0.06007 0.54021
 H124 H 0.66534 -0.04148 0.43526
 H125 H 0.60096 -0.04854 0.42655
 H126 H 0.37534 0.04728 0.47931
 O127 O 0.47955 -0.01214 -0.06038
 O128 O 0.47682 -0.00028 0.04526
 O129 O 0.47629 0.04669 -0.00092
 O130 O 0.47914 -0.05882 -0.01397
 O131 O 0.54569 -0.07681 -0.03217
 O132 O 0.54282 0.02898 -0.01924
 O133 O 0.54335 -0.01806 0.02695
 O134 O 0.54609 -0.03005 -0.07860
 Cu135 Cu 0.47125 -0.00435 -0.00567
 Cu136 Cu 0.55120 -0.02577 -0.02759
 C137 C 0.51327 -0.02277 -0.08726
 C138 C 0.50969 -0.00753 0.05387
 C139 C 0.50904 0.05564 -0.00823
 C140 C 0.51280 -0.08558 -0.02490
 O141 O -0.07656 0.54551 1.03103
 O142 O 0.02951 0.54263 1.01908
 O143 O -0.01668 0.54278 0.97222
 O144 O -0.03064 0.54620 1.07811
 O145 O -0.01276 0.47996 1.06059
 O146 O 0.00110 0.47654 0.95462
 O147 O 0.04723 0.47639 1.00148
 O148 O -0.05860 0.47927 1.01354
 Cu149 Cu -0.02537 0.55097 1.02687
 Cu150 Cu -0.00396 0.47136 1.00580
 C151 C -0.08539 0.51278 1.02395
 C152 C 0.05622 0.50901 1.00858
 C153 C -0.00583 0.50915 0.94561
 C154 C -0.02371 0.51364 1.08717
 O155 O 0.01946 -0.05701 0.46546
 O156 O 0.00718 0.04869 0.46882
 O157 O 0.06620 -0.01061 0.46541
 O158 O -0.03960 0.00232 0.46840
 O159 O -0.05784 0.01981 0.53478
 O160 O 0.04813 0.00698 0.53180
 O161 O -0.01102 0.06615 0.53521
 O162 O 0.00136 -0.03938 0.53185
 Cu163 Cu 0.01510 -0.00593 0.46031
 Cu164 Cu -0.00669 0.01513 0.54012
 C165 C 0.01224 -0.06596 0.49817
 C166 C -0.00359 0.07518 0.50257
 C167 C 0.07497 -0.00361 0.49810
 C168 C -0.06653 0.01296 0.50202
 C169 C -0.27167 0.50789 1.02443
 C170 C -0.27041 0.52840 1.06649
 C171 C -0.23299 0.53030 1.06769
 C172 C -0.20057 0.51151 1.02669
 C173 C -0.21656 0.53310 0.99862
 C174 C -0.25392 0.53119 0.99743
 C175 C -0.24011 0.46669 1.01101
 C176 C -0.20278 0.46859 1.01220
 C177 C -0.31164 0.50533 1.02261
 C178 C -0.34390 0.50215 1.02008
 C179 C -0.16005 0.51309 1.02736
 C180 C -0.12622 0.51344 1.02657
 H181 H -0.29657 0.54038 1.09296
 H182 H -0.22709 0.54391 1.09518
 H183 H -0.20001 0.54859 0.98126
 H184 H -0.26937 0.54505 0.97905
 H185 H -0.24654 0.43847 1.00145
 H186 H -0.17725 0.44200 1.00366
 C187 C 0.24694 0.50196 1.00079
 C188 C 0.23041 0.52687 0.97534
 C189 C 0.19174 0.52839 0.97630
 C190 C 0.17336 0.50485 1.00261
 C191 C 0.17811 0.52189 1.04402
 C192 C 0.21677 0.52037 1.04306
 C193 C 0.24128 0.46067 0.98524
 C194 C 0.20260 0.46219 0.98620
 C195 C 0.28853 0.50054 0.99982
 C196 C 0.32260 0.49998 0.99901
 C197 C 0.13164 0.50651 1.00388
 C198 C 0.09725 0.50778 1.00559
 H199 H 0.24760 0.54198 0.95807
 H200 H 0.17581 0.54479 0.95986
 H201 H 0.15328 0.53408 1.07168
 H202 H 0.22504 0.53125 1.06989
 H203 H 0.26550 0.43272 0.97443
 H204 H 0.19370 0.43553 0.97620
 C205 C 0.01629 -0.25283 0.50111
 C206 C -0.01755 -0.23185 0.48664
 C207 C -0.01719 -0.19429 0.48519
 C208 C 0.01699 -0.18136 0.49836
 C209 C 0.05570 -0.21418 0.47134
 C210 C 0.05534 -0.25181 0.47279
 C211 C 0.01164 -0.22401 0.54190
 C212 C 0.01200 -0.18646 0.54046
 C213 C 0.01535 -0.29300 0.50320
 C214 C 0.01343 -0.32541 0.50608
 C215 C 0.01679 -0.14067 0.49726
 C216 C 0.01539 -0.10677 0.49724
 H217 H -0.03981 -0.24534 0.47820
 H218 H -0.03914 -0.17561 0.47551
 H219 H 0.08112 -0.20839 0.45274
 H220 H 0.08044 -0.27827 0.45543
 H221 H 0.00839 -0.23239 0.56951
 H222 H 0.00907 -0.16268 0.56682
 C223 C -0.00826 0.26419 0.50853
 C224 C 0.01359 0.23370 0.46696
 C225 C 0.01371 0.19544 0.46582
 C226 C -0.00804 0.19140 0.50636
 C227 C -0.05045 0.22080 0.51885
 C228 C -0.05057 0.25910 0.51998
 C229 C 0.01232 0.24800 0.53711
 C230 C 0.01244 0.20972 0.53597
 C231 C -0.00829 0.30529 0.50949
 C232 C -0.00830 0.33893 0.50960
 C233 C -0.00759 0.15012 0.50504
 C234 C -0.00633 0.11599 0.50388
 H235 H 0.02773 0.24149 0.44071
 H236 H 0.02793 0.17045 0.43860
 H237 H -0.07795 0.21231 0.52615
 H238 H -0.07817 0.28343 0.52827
 H239 H 0.02562 0.26510 0.55654
 H240 H 0.02584 0.19402 0.55444
 C241 C 0.51543 -0.02474 -0.27515
 C242 C 0.48815 0.01371 -0.24234
 C243 C 0.48807 0.01295 -0.20451
 C244 C 0.51528 -0.02619 -0.20308
 C245 C 0.55702 -0.03105 -0.23086
 C246 C 0.55710 -0.03029 -0.26876
 C247 C 0.50096 -0.05873 -0.26308
 C248 C 0.50088 -0.05949 -0.22517
 C249 C 0.51502 -0.02339 -0.31569
 C250 C 0.51351 -0.02120 -0.34843
 C251 C 0.51493 -0.02644 -0.16209
 C252 C 0.51428 -0.02544 -0.12807
 H253 H 0.47042 0.03933 -0.24831
 H254 H 0.47028 0.03792 -0.17809
 H255 H 0.58413 -0.03481 -0.22160
 H256 H 0.58426 -0.03340 -0.29196
 H257 H 0.49166 -0.08032 -0.28260
 H258 H 0.49151 -0.08173 -0.21223
 C259 C 0.51021 -0.00296 0.24176
 C260 C 0.50801 0.03782 0.23408
 C261 C 0.50743 0.03772 0.19614
 C262 C 0.50911 -0.00314 0.16960
 C263 C 0.47370 -0.01434 0.19309
 C264 C 0.47428 -0.01425 0.23102
 C265 C 0.54754 -0.03256 0.20883
 C266 C 0.54696 -0.03265 0.17093
 C267 C 0.51110 -0.00295 0.28252
 C268 C 0.51240 -0.00295 0.31586
 C269 C 0.50873 -0.00357 0.12861
 C270 C 0.50891 -0.00480 0.09464
 H271 H 0.50697 0.06443 0.25648
 H272 H 0.50589 0.06424 0.18605
 H273 H 0.45023 -0.02168 0.18100
 H274 H 0.45132 -0.02151 0.25142
 H275 H 0.57226 -0.05177 0.21476
 H276 H 0.57120 -0.05194 0.14441
 C277 C 0.50703 -0.27113 -0.02577
 C278 C 0.48395 -0.25408 -0.05229
 C279 C 0.48611 -0.21687 -0.05351
 C280 C 0.51113 -0.20036 -0.02808
 C281 C 0.55234 -0.23234 -0.04339
 C282 C 0.55018 -0.26959 -0.04218
 C283 C 0.48992 -0.23939 0.01548
 C284 C 0.49208 -0.20224 0.01427
 C285 C 0.50420 -0.31089 -0.02390
 C286 C 0.50079 -0.34297 -0.02124
 C287 C 0.51295 -0.16001 -0.02872
 C288 C 0.51342 -0.12630 -0.02780
 H289 H 0.46744 -0.26988 -0.06874
 H290 H 0.47145 -0.20080 -0.07099
 H291 H 0.58067 -0.22629 -0.05427
 H292 H 0.57666 -0.29544 -0.05201
 H293 H 0.47724 -0.24556 0.04324
 H294 H 0.48123 -0.17660 0.04100
 C295 C 0.50110 0.24600 0.00015
 C296 C 0.53435 0.21480 -0.03583
 C297 C 0.53613 0.17620 -0.03684
 C298 C 0.50448 0.17254 -0.00176
 C299 C 0.46394 0.19709 -0.00330
 C300 C 0.46217 0.23570 -0.00229
 C301 C 0.50917 0.23523 0.03724
 C302 C 0.51094 0.19660 0.03624
 C303 C 0.49938 0.28752 0.00113
 C304 C 0.49855 0.32150 0.00186
 C305 C 0.50638 0.13089 -0.00312
 C306 C 0.50778 0.09657 -0.00498
 H307 H 0.55473 0.22236 -0.05854
 H308 H 0.55803 0.15072 -0.06040
 H309 H 0.43883 0.18519 -0.00500
 H310 H 0.43555 0.25686 -0.00314
 H311 H 0.51312 0.25611 0.06211
 H312 H 0.51642 0.18440 0.06023
 C313 C -0.25352 0.01659 0.49820
 C314 C -0.25060 0.02805 0.54116
 C315 C -0.21298 0.02859 0.54280
 C316 C -0.18206 0.01761 0.50131
 C317 C -0.20034 0.04697 0.48056
 C318 C -0.23793 0.04643 0.47892
 C319 C -0.22124 -0.02394 0.47676
 C320 C -0.18371 -0.02341 0.47840
 C321 C -0.29367 0.01542 0.49592
 C322 C -0.32605 0.01326 0.49294
 C323 C -0.14136 0.01757 0.50261
 C324 C -0.10742 0.01619 0.50279
 H325 H -0.27583 0.03516 0.56790
 H326 H -0.20597 0.03616 0.57095
 H327 H -0.18513 0.06650 0.46831
 H328 H -0.25495 0.06550 0.46527
 H329 H -0.22733 -0.05075 0.46163
 H330 H -0.15766 -0.04976 0.46466
 C331 C 0.26458 -0.00911 0.49253
 C332 C 0.23265 0.02947 0.52087
 C333 C 0.19426 0.02972 0.52196
 C334 C 0.19154 -0.00865 0.49460
 C335 C 0.21381 -0.04293 0.50768
 C336 C 0.25223 -0.04318 0.50659
 C337 C 0.25692 -0.01332 0.45159
 C338 C 0.21850 -0.01308 0.45267
 C339 C 0.30580 -0.00924 0.49161
 C340 C 0.33952 -0.00924 0.49150
 C341 C 0.15013 -0.00802 0.49585
 C342 C 0.11589 -0.00658 0.49693
 H343 H 0.23959 0.05441 0.53853
 H344 H 0.16830 0.05488 0.54056
 H345 H 0.20059 -0.06506 0.51694
 H346 H 0.27195 -0.06553 0.51492
 H347 H 0.27966 -0.01626 0.42417
 H348 H 0.20831 -0.01581 0.42618
 C349 C -0.02720 0.51606 1.27519
 C350 C -0.02611 0.47538 1.24875
 C351 C -0.02675 0.47534 1.21089
 C352 C -0.02842 0.51599 1.20316
 C353 C 0.00781 0.52671 1.21369
 C354 C 0.00845 0.52675 1.25154
 C355 C -0.06487 0.54603 1.27407
 C356 C -0.06551 0.54600 1.23614
 C357 C -0.02588 0.51558 1.31565
 C358 C -0.02352 0.51392 1.34826
 C359 C -0.02844 0.51563 1.16218
 C360 C -0.02705 0.51488 1.12809
 H361 H -0.02501 0.44894 1.25891
 H362 H -0.02620 0.44888 1.18861
 H363 H 0.03093 0.53373 1.19321
 H364 H 0.03211 0.53380 1.26349
 H365 H -0.08887 0.56553 1.30068
 H366 H -0.09007 0.56545 1.23023
 C367 C 0.00016 0.50878 0.75744
 C368 C 0.02639 0.46927 0.75925
 C369 C 0.02618 0.46882 0.79725
 C370 C -0.00024 0.50794 0.82966
 C371 C -0.04203 0.51454 0.82342
 C372 C -0.04181 0.51499 0.78546
 C373 C 0.01566 0.54146 0.77895
 C374 C 0.01544 0.54101 0.81692
 C375 C 0.00020 0.50955 0.71670
 C376 C 0.00004 0.51081 0.68342
 C377 C -0.00088 0.50774 0.87067
 C378 C -0.00248 0.50811 0.90472
 H379 H 0.04361 0.44390 0.73302
 H380 H 0.04322 0.44308 0.80359
 H381 H -0.06939 0.51850 0.84677
 H382 H -0.06898 0.51932 0.77630
 H383 H 0.02593 0.56302 0.76552
 H384 H 0.02554 0.56219 0.83602
   
