data_POSCAR
  _audit_creation_date              2014-09-24
  _audit_creation_method            'ToBaCCo'
  _symmetry_space_group_name_H-M    'P1'
  _symmetry_Int_Tables_number       1
  _symmetry_cell_setting            triclinic
  loop_
  _symmetry_equiv_pos_as_xyz
 x,y,z
_cell_length_a 41.1733
_cell_length_b 42.1078
_cell_length_c 40.8278
_cell_angle_alpha 90.409100
_cell_angle_beta 89.364800
_cell_angle_gamma 90.514600
loop_
  _atom_site_label
  _atom_site_type_symbol
  _atom_site_fract_x
  _atom_site_fract_y
  _atom_site_fract_z
C1 C 0.33848 0.37216 1.36922
 C2 C 0.34950 0.38646 1.34000
 C3 C 0.37728 0.37545 1.32341
 C4 C 0.39398 0.34927 1.33587
 C5 C 0.38277 0.33339 1.36415
 C6 C 0.35543 0.34568 1.38090
 H7 H 0.33700 0.40682 1.33037
 H8 H 0.41484 0.34045 1.32237
 H9 H 0.34694 0.33417 1.40302
 C10 C 1.17439 0.63356 0.88173
 C11 C 1.15951 0.61869 0.85455
 C12 C 1.13163 0.63123 0.84018
 C13 C 1.11803 0.65904 0.85322
 C14 C 1.13203 0.67443 0.88027
 C15 C 1.15982 0.66135 0.89455
 H16 H 1.16862 0.59642 0.84500
 H17 H 1.09724 0.66940 0.84142
 H18 H 1.17070 0.67392 0.91487
 C19 C 0.64527 -0.12784 0.11364
 C20 C 0.62947 -0.15551 0.10195
 C21 C 0.60180 -0.16802 0.11791
 C22 C 0.58895 -0.15213 0.14533
 C23 C 0.60389 -0.12444 0.15730
 C24 C 0.63161 -0.11236 0.14127
 H25 H 0.63952 -0.16870 0.08148
 H26 H 0.56834 -0.16223 0.15842
 H27 H 0.64181 -0.09021 0.15019
 C28 C -0.17073 1.12934 -0.36634
 C29 C -0.15475 1.15613 -0.37986
 C30 C -0.12619 1.16835 -0.36609
 C31 C -0.11349 1.15423 -0.33819
 C32 C -0.12943 1.12845 -0.32332
 C33 C -0.15758 1.11580 -0.33783
 H34 H -0.16332 1.16690 -0.40211
 H35 H -0.09150 1.16397 -0.32758
 H36 H -0.17037 1.09677 -0.32538
 C37 C 0.68538 0.65184 0.62098
 C38 C 0.67104 0.67950 0.60894
 C39 C 0.64316 0.69285 0.62394
 C40 C 0.62897 0.67651 0.65071
 C41 C 0.64270 0.64857 0.66280
 C42 C 0.67103 0.63665 0.64806
 H43 H 0.68115 0.68975 0.58684
 H44 H 0.60834 0.68625 0.66382
 H45 H 0.68194 0.61548 0.65785
 C46 C 0.82641 0.36176 0.13486
 C47 C 0.84195 0.33426 0.12337
 C48 C 0.87177 0.32442 0.13643
 C49 C 0.88564 0.34303 0.16165
 C50 C 0.86977 0.37003 0.17430
 C51 C 0.84043 0.37950 0.16032
 H52 H 0.83132 0.32151 0.10296
 H53 H 0.90805 0.33576 0.17284
 H54 H 0.82774 0.39995 0.17014
 C55 C 0.31266 0.13806 0.87457
 C56 C 0.32507 0.12195 0.84668
 C57 C 0.35310 0.13288 0.83022
 C58 C 0.36945 0.15979 0.84221
 C59 C 0.35789 0.17614 0.86984
 C60 C 0.32962 0.16527 0.88584
 H61 H 0.31186 0.10209 0.83618
 H62 H 0.39161 0.16788 0.83024
 H63 H 0.32148 0.17789 0.90755
 C64 C 0.17902 0.85691 0.37030
 C65 C 0.16530 0.86972 0.34180
 C66 C 0.13678 0.85718 0.32834
 C67 C 0.12104 0.83168 0.34371
 C68 C 0.13378 0.81837 0.37220
 C69 C 0.16247 0.83132 0.38555
 H70 H 0.17590 0.89051 0.33034
 H71 H 0.09959 0.82134 0.33261
 H72 H 0.17242 0.82032 0.40704
 Zn73 Zn -0.03091 1.00073 0.04920
 Zn74 Zn 0.02779 0.97513 0.01604
 Zn75 Zn -0.03675 0.96935 -0.01647
 Zn76 Zn -0.00361 1.03321 -0.00935
 O77 O -0.01094 0.99459 0.00972
 O78 O -0.00846 0.98565 0.08286
 O79 O 0.03025 0.93781 -0.00454
 O80 O -0.07485 0.95854 0.00300
 O81 O 0.03542 0.96689 0.05815
 O82 O -0.06938 0.98166 0.05141
 O83 O -0.01746 0.93260 -0.02839
 O84 O -0.02305 1.03584 -0.04815
 O85 O 0.06171 0.99774 0.00125
 O86 O -0.04704 0.98886 -0.05390
 O87 O 0.03862 1.04117 -0.01726
 O88 O -0.01841 1.06609 0.01476
 O89 O -0.03891 1.04152 0.05807
 C90 C 0.01873 0.97180 0.08398
 C91 C 0.01062 0.92203 -0.02215
 C92 C -0.08582 0.96506 0.03146
 C93 C -0.04023 1.01642 -0.06464
 C94 C 0.06376 1.02472 -0.01228
 C95 C -0.03310 1.06681 0.04226
 Zn96 Zn 0.53811 -0.00903 0.49199
 Zn97 Zn 0.47436 -0.01450 0.52769
 Zn98 Zn 0.50501 0.04940 0.51528
 Zn99 Zn 0.47737 0.01225 0.46010
 O100 O 0.49868 0.00947 0.49883
 O101 O 0.54177 -0.04542 0.51363
 O102 O 0.46280 0.00759 0.56377
 O103 O 0.54682 0.05877 0.52241
 O104 O 0.49538 -0.04927 0.54120
 O105 O 0.57148 0.01513 0.50552
 O106 O 0.48489 0.05471 0.55376
 O107 O 0.46747 0.05215 0.44937
 O108 O 0.43714 -0.02918 0.51020
 O109 O 0.48995 0.07999 0.48939
 O110 O 0.44001 -0.00942 0.46024
 O111 O 0.50035 -0.00329 0.42638
 O112 O 0.54580 -0.01846 0.44973
 C113 C 0.52315 -0.06011 0.53345
 C114 C 0.46815 0.03633 0.57194
 C115 C 0.57251 0.04280 0.51800
 C116 C 0.47416 0.07860 0.46290
 C117 C 0.42536 -0.02586 0.48183
 C118 C 0.52841 -0.01542 0.42447
 Zn119 Zn 1.01308 0.45342 0.48908
 Zn120 Zn 1.04923 0.50940 0.51387
 Zn121 Zn 0.98517 0.51843 0.48049
 Zn122 Zn 0.98835 0.48870 0.54720
 O123 O 1.00883 0.49262 0.50757
 O124 O 1.05410 0.44359 0.47900
 O125 O 1.05438 0.54623 0.49346
 O126 O 0.97270 0.49829 0.44308
 O127 O 1.08138 0.48486 0.49847
 O128 O 0.99223 0.45031 0.45148
 O129 O 1.00760 0.55371 0.46854
 O130 O 0.95080 0.50920 0.54851
 O131 O 1.05772 0.51766 0.55593
 O132 O 0.94813 0.53206 0.49993
 O133 O 1.01185 0.50386 0.58082
 O134 O 0.97807 0.44848 0.55695
 O135 O 0.99724 0.42202 0.51408
 C136 C 1.08066 0.45832 0.48360
 C137 C 1.03629 0.56281 0.47549
 C138 C 0.97664 0.46957 0.43401
 C139 C 0.93606 0.52629 0.52809
 C140 C 1.04051 0.51519 0.58179
 C141 C 0.98266 0.42256 0.54162
 Zn142 Zn 0.49107 0.49147 0.94444
 Zn143 Zn 0.54768 0.51607 0.98135
 Zn144 Zn 0.48112 0.51919 1.01188
 Zn145 Zn 0.51504 0.45688 1.00270
 O146 O 0.50858 0.49597 0.98516
 O147 O 0.51590 0.50835 0.91238
 O148 O 0.54852 0.55249 1.00336
 O149 O 0.44436 0.53034 0.99135
 O150 O 0.55827 0.52594 0.94010
 O151 O 0.45257 0.51030 0.94173
 O152 O 0.49955 0.55581 1.02592
 O153 O 0.49349 0.45190 1.04026
 O154 O 0.58070 0.49370 0.99685
 O155 O 0.46864 0.49772 1.04823
 O156 O 0.55671 0.44906 1.01216
 O157 O 0.50118 0.42530 0.97689
 O158 O 0.48365 0.45077 0.93343
 C159 C 0.54343 0.52216 0.91327
 C160 C 0.52786 0.56717 1.02088
 C161 C 0.43505 0.52552 0.96212
 C162 C 0.47521 0.46971 1.05738
 C163 C 0.58205 0.46626 1.00932
 C164 C 0.48816 0.42513 0.94887
 C165 C 1.30815 0.38170 0.42068
 C166 C 1.28037 0.39221 0.43730
 C167 C 1.25402 0.40382 0.41997
 C168 C 1.25616 0.40606 0.38575
 C169 C 1.28429 0.39652 0.36908
 C170 C 1.31063 0.38354 0.38618
 N171 N 1.22533 0.41316 0.43750
 N172 N 1.19773 0.41297 0.42381
 C173 C 1.16885 0.42314 0.44047
 C174 C 1.13871 0.41409 0.42785
 C175 C 1.11001 0.42453 0.44274
 C176 C 1.11106 0.44496 0.47009
 C177 C 1.14137 0.45395 0.48287
 C178 C 1.17009 0.44283 0.46838
 H179 H 1.32808 0.37317 0.43517
 H180 H 1.27914 0.39078 0.46376
 H181 H 1.23606 0.41522 0.37190
 H182 H 1.28447 0.39781 0.34262
 H183 H 1.13750 0.39901 0.40629
 H184 H 1.08701 0.41749 0.43217
 H185 H 1.14283 0.46973 0.50388
 H186 H 1.19320 0.45028 0.47839
 C187 C 0.21221 0.62737 0.92812
 C188 C 0.24129 0.61593 0.94080
 C189 C 0.26258 0.59834 0.92111
 C190 C 0.25431 0.59201 0.88846
 C191 C 0.22531 0.60329 0.87569
 C192 C 0.20355 0.62139 0.89516
 N193 N 0.29251 0.58742 0.93455
 N194 N 0.31271 0.57167 0.91725
 C195 C 0.34296 0.56045 0.92949
 C196 C 0.36326 0.54342 0.90823
 C197 C 0.39307 0.53215 0.91889
 C198 C 0.40326 0.53771 0.95123
 C199 C 0.38278 0.55484 0.97266
 C200 C 0.35283 0.56615 0.96188
 H201 H 0.19621 0.63992 0.94481
 H202 H 0.24721 0.62077 0.96614
 H203 H 0.27047 0.57866 0.87256
 H204 H 0.22106 0.59889 0.84996
 H205 H 0.35592 0.53891 0.88322
 H206 H 0.40814 0.51906 0.90170
 H207 H 0.38990 0.55952 0.99770
 H208 H 0.33750 0.57931 0.97876
 C209 C -0.31694 0.87627 0.06610
 C210 C -0.28701 0.88580 0.05267
 C211 C -0.26443 0.90229 0.07176
 C212 C -0.27237 0.90973 0.10441
 C213 C -0.30217 0.90037 0.11789
 C214 C -0.32511 0.88312 0.09917
 N215 N -0.23345 0.91088 0.05791
 N216 N -0.21217 0.92495 0.07524
 C217 C -0.18073 0.93409 0.06324
 C218 C -0.15987 0.94984 0.08474
 C219 C -0.12905 0.95955 0.07437
 C220 C -0.11837 0.95363 0.04207
 C221 C -0.13928 0.93750 0.02043
 C222 C -0.17034 0.92779 0.03093
 H223 H -0.33384 0.86432 0.04999
 H224 H -0.28134 0.88020 0.02733
 H225 H -0.25529 0.92235 0.11984
 H226 H -0.30607 0.90536 0.14364
 H227 H -0.16764 0.95472 0.10969
 H228 H -0.11364 0.97184 0.09175
 H229 H -0.13176 0.93263 -0.00460
 H230 H -0.18616 0.91555 0.01392
 C231 C 0.79226 0.08418 0.62246
 C232 C 0.76411 0.07176 0.60824
 C233 C 0.74320 0.09137 0.59106
 C234 C 0.75097 0.12369 0.58776
 C235 C 0.77934 0.13615 0.60150
 C236 C 0.80056 0.11669 0.61934
 N237 N 0.71419 0.07797 0.57746
 N238 N 0.69189 0.09517 0.56580
 C239 C 0.66284 0.08176 0.55232
 C240 C 0.63663 0.10170 0.54620
 C241 C 0.60734 0.08915 0.53461
 C242 C 0.60404 0.05640 0.52838
 C243 C 0.63075 0.03656 0.53358
 C244 C 0.65985 0.04908 0.54568
 H245 H 0.80803 0.06778 0.63475
 H246 H 0.75849 0.04671 0.61073
 H247 H 0.73507 0.13939 0.57467
 H248 H 0.78360 0.16142 0.59919
 H249 H 0.63869 0.12694 0.55111
 H250 H 0.58724 0.10504 0.53071
 H251 H 0.62890 0.01122 0.52911
 H252 H 0.67987 0.03323 0.55003
 C253 C 0.43136 0.29995 0.37032
 C254 C 0.44574 0.27192 0.38103
 C255 C 0.42684 0.24796 0.39545
 C256 C 0.39341 0.25260 0.39984
 C257 C 0.37910 0.28086 0.39007
 C258 C 0.39773 0.30511 0.37490
 N259 N 0.44189 0.21928 0.40595
 N260 N 0.42548 0.19373 0.40930
 C261 C 0.43924 0.16507 0.42139
 C262 C 0.42302 0.13626 0.41565
 C263 C 0.43491 0.10799 0.42838
 C264 C 0.46281 0.10826 0.44788
 C265 C 0.47909 0.13722 0.45366
 C266 C 0.46760 0.16540 0.44021
 H267 H 0.44698 0.31802 0.35968
 H268 H 0.47165 0.26873 0.37779
 H269 H 0.37831 0.23441 0.41104
 H270 H 0.35306 0.28282 0.39311
 H271 H 0.40102 0.13577 0.40136
 H272 H 0.42177 0.08604 0.42373
 H273 H 0.50068 0.13805 0.46857
 H274 H 0.48032 0.18749 0.44519
 C275 C 0.92307 0.19637 0.61168
 C276 C 0.93849 0.22377 0.59985
 C277 C 0.92119 0.25205 0.59694
 C278 C 0.88791 0.25242 0.60498
 C279 C 0.87232 0.22488 0.61612
 C280 C 0.88988 0.19676 0.61994
 N281 N 0.93782 0.28008 0.58594
 N282 N 0.92606 0.30757 0.59082
 C283 C 0.94179 0.33587 0.57930
 C284 C 0.93092 0.36525 0.59098
 C285 C 0.94493 0.39342 0.57949
 C286 C 0.96972 0.39265 0.55555
 C287 C 0.98077 0.36308 0.54397
 C288 C 0.96709 0.33487 0.55594
 H289 H 0.93699 0.17486 0.61439
 H290 H 0.96411 0.22316 0.59359
 H291 H 0.87399 0.27396 0.60264
 H292 H 0.84674 0.22569 0.62254
 H293 H 0.91138 0.36629 0.60893
 H294 H 0.93574 0.41583 0.58870
 H295 H 0.99983 0.36176 0.52553
 H296 H 0.97577 0.31239 0.54646
 C297 C 0.13963 0.72987 -0.09779
 C298 C 0.12723 0.75873 -0.08646
 C299 C 0.09371 0.76361 -0.08480
 C300 C 0.07247 0.73909 -0.09449
 C301 C 0.08485 0.71002 -0.10563
 C302 C 0.11862 0.70506 -0.10740
 N303 N 0.08220 0.79359 -0.07290
 N304 N 0.05239 0.80139 -0.07291
 C305 C 0.04212 0.83163 -0.06031
 C306 C 0.00966 0.84074 -0.06345
 C307 C -0.00079 0.87021 -0.05131
 C308 C 0.02114 0.89090 -0.03554
 C309 C 0.05367 0.88156 -0.03239
 C310 C 0.06407 0.85234 -0.04470
 H311 H 0.16572 0.72721 -0.09950
 H312 H 0.14383 0.77751 -0.07916
 H313 H 0.04643 0.74229 -0.09324
 H314 H 0.06801 0.69131 -0.11254
 H315 H -0.00753 0.82501 -0.07540
 H316 H -0.02600 0.87668 -0.05406
 H317 H 0.07125 0.89690 -0.02048
 H318 H 0.08927 0.84591 -0.04185
 C319 C 0.55431 0.79569 1.10627
 C320 C 0.54177 0.76598 1.09696
 C321 C 0.56274 0.74104 1.08893
 C322 C 0.59649 0.74611 1.09048
 C323 C 0.60898 0.77563 1.09978
 C324 C 0.58808 0.80083 1.10759
 N325 N 0.54958 0.71093 1.07888
 N326 N 0.56831 0.68847 1.07020
 C327 C 0.55709 0.65797 1.05942
 C328 C 0.58014 0.63638 1.04791
 C329 C 0.57053 0.60680 1.03585
 C330 C 0.53749 0.59809 1.03533
 C331 C 0.51428 0.61951 1.04767
 C332 C 0.52400 0.64942 1.05951
 H333 H 0.53765 0.81472 1.11211
 H334 H 0.51573 0.76242 1.09583
 H335 H 0.61329 0.72723 1.08460
 H336 H 0.63507 0.77860 1.10133
 H337 H 0.60569 0.64275 1.04785
 H338 H 0.58905 0.59079 1.02675
 H339 H 0.48867 0.61343 1.04752
 H340 H 0.50579 0.66582 1.06844
 C341 C 0.38811 0.42392 1.28905
 C342 C 0.39778 0.43805 1.25954
 C343 C 0.40775 0.41931 1.23290
 C344 C 0.40790 0.38607 1.23611
 C345 C 0.39817 0.37193 1.26551
 C346 C 0.38818 0.39066 1.29236
 N347 N 0.41774 0.43435 1.20297
 N348 N 0.42833 0.41816 1.17875
 C349 C 0.43882 0.43197 1.14844
 C350 C 0.45252 0.41207 1.12465
 C351 C 0.46397 0.42440 1.09506
 C352 C 0.46170 0.45706 1.08851
 C353 C 0.44732 0.47706 1.11220
 C354 C 0.43607 0.46462 1.14208
 H355 H 0.38087 0.43901 1.30938
 H356 H 0.39764 0.46367 1.25746
 H357 H 0.41537 0.37098 1.21587
 H358 H 0.39795 0.34627 1.26704
 H359 H 0.45466 0.38687 1.12924
 H360 H 0.47471 0.40827 1.07732
 H361 H 0.44528 0.50230 1.10788
 H362 H 0.42543 0.48045 1.16016
 C363 C 0.55841 -0.10452 0.19321
 C364 C 0.54725 -0.09082 0.22250
 C365 C 0.56918 -0.08191 0.24693
 C366 C 0.60260 -0.08639 0.24159
 C367 C 0.61379 -0.09982 0.21227
 C368 C 0.59181 -0.10916 0.18784
 N369 N 0.55698 -0.06883 0.27705
 N370 N 0.57542 -0.06315 0.30125
 C371 C 0.56341 -0.05028 0.33153
 C372 C 0.58434 -0.04797 0.35821
 C373 C 0.57313 -0.03644 0.38842
 C374 C 0.54072 -0.02671 0.39230
 C375 C 0.51989 -0.02855 0.36525
 C376 C 0.53109 -0.04034 0.33516
 H377 H 0.54101 -0.11134 0.17469
 H378 H 0.52145 -0.08744 0.22633
 H379 H 0.62004 -0.07970 0.26010
 H380 H 0.63962 -0.10351 0.20894
 H381 H 0.60933 -0.05552 0.35566
 H382 H 0.58979 -0.03524 0.40874
 H383 H 0.49479 -0.02130 0.36744
 H384 H 0.51447 -0.04180 0.31483
 C385 C -0.10631 1.13733 -0.26742
 C386 C -0.09558 1.12612 -0.23739
 C387 C -0.09629 1.09365 -0.23065
 C388 C -0.10777 1.07221 -0.25449
 C389 C -0.11838 1.08339 -0.28474
 C390 C -0.11773 1.11612 -0.29155
 N391 N -0.08511 1.08335 -0.19945
 N392 N -0.08681 1.05461 -0.19013
 C393 C -0.07511 1.04537 -0.15869
 C394 C -0.05922 1.06721 -0.13804
 C395 C -0.04794 1.05772 -0.10755
 C396 C -0.05243 1.02627 -0.09698
 C397 C -0.06843 1.00448 -0.11769
 C398 C -0.07956 1.01400 -0.14834
 H399 H -0.10613 1.16270 -0.27153
 H400 H -0.08690 1.14285 -0.21914
 H401 H -0.10841 1.04694 -0.24981
 H402 H -0.12677 1.06644 -0.30290
 H403 H -0.05540 1.09160 -0.14545
 H404 H -0.03576 1.07511 -0.09223
 H405 H -0.07220 0.98007 -0.11030
 H406 H -0.09175 0.99694 -0.16402
 C407 C 1.08353 0.61182 0.80801
 C408 C 1.07027 0.59735 0.78016
 C409 C 1.09048 0.58675 0.75462
 C410 C 1.12430 0.59054 0.75736
 C411 C 1.13758 0.60480 0.78523
 C412 C 1.11735 0.61568 0.81083
 N413 N 1.07620 0.57271 0.72603
 N414 N 1.09333 0.56478 0.70120
 C415 C 1.07964 0.55106 0.67220
 C416 C 1.09985 0.54629 0.64489
 C417 C 1.08723 0.53422 0.61568
 C418 C 1.05406 0.52637 0.61335
 C419 C 1.03390 0.53048 0.64109
 C420 C 1.04654 0.54287 0.67026
 H421 H 1.06738 0.61973 0.82747
 H422 H 1.04418 0.59457 0.77838
 H423 H 1.14048 0.58261 0.73795
 H424 H 1.16368 0.60780 0.78653
 H425 H 1.12541 0.55245 0.64612
 H426 H 1.10345 0.53125 0.59484
 H427 H 1.00824 0.52473 0.64007
 H428 H 1.03046 0.54625 0.69112
 C429 C 0.73972 0.65991 0.59311
 C430 C 0.76838 0.64805 0.57922
 C431 C 0.77385 0.61535 0.57797
 C432 C 0.74982 0.59443 0.58998
 C433 C 0.72090 0.60621 0.60337
 C434 C 0.71561 0.63914 0.60549
 N435 N 0.80422 0.60397 0.56529
 N436 N 0.81329 0.57561 0.57020
 C437 C 0.84362 0.56358 0.55826
 C438 C 0.85503 0.53525 0.57128
 C439 C 0.88508 0.52328 0.56139
 C440 C 0.90401 0.53913 0.53764
 C441 C 0.89217 0.56717 0.52383
 C442 C 0.86228 0.57955 0.53433
 H443 H 0.73682 0.68540 0.59478
 H444 H 0.78676 0.66443 0.57017
 H445 H 0.75334 0.56900 0.58897
 H446 H 0.70267 0.58946 0.61193
 H447 H 0.84082 0.52272 0.58963
 H448 H 0.89345 0.50147 0.57224
 H449 H 0.90630 0.57983 0.50551
 H450 H 0.85377 0.60143 0.52380
 C451 C 0.77058 0.34919 1.11423
 C452 C 0.74157 0.35832 1.09971
 C453 C 0.73686 0.38991 1.09065
 C454 C 0.76142 0.41254 1.09680
 C455 C 0.79033 0.40349 1.11163
 C456 C 0.79530 0.37167 1.12025
 N457 N 0.70700 0.39837 1.07543
 N458 N 0.70249 0.42588 1.06369
 C459 C 0.67254 0.43473 1.04890
 C460 C 0.67013 0.46493 1.03518
 C461 C 0.64097 0.47486 1.02159
 C462 C 0.61351 0.45472 1.02164
 C463 C 0.61614 0.42415 1.03500
 C464 C 0.64543 0.41420 1.04847
 H465 H 0.77363 0.32457 1.12096
 H466 H 0.72278 0.34071 1.09527
 H467 H 0.75829 0.43715 1.09015
 H468 H 0.80908 0.42122 1.11579
 H469 H 0.69085 0.48095 1.03536
 H470 H 0.63981 0.49857 1.01159
 H471 H 0.59546 0.40808 1.03545
 H472 H 0.64671 0.39070 1.05895
 C473 C 0.26288 1.14929 -0.09325
 C474 C 0.23380 1.13907 -0.07866
 C475 C 0.22485 1.10703 -0.07940
 C476 C 0.24530 1.08510 -0.09514
 C477 C 0.27414 1.09525 -0.11027
 C478 C 0.28358 1.12761 -0.10967
 N479 N 0.19456 1.09746 -0.06482
 N480 N 0.18738 1.06837 -0.06022
 C481 C 0.15669 1.05848 -0.04682
 C482 C 0.15240 1.02673 -0.03784
 C483 C 0.12241 1.01594 -0.02585
 C484 C 0.09596 1.03673 -0.02313
 C485 C 0.10037 1.06871 -0.03198
 C486 C 0.13056 1.07956 -0.04355
 H487 H 0.26806 1.17451 -0.09292
 H488 H 0.21804 1.15626 -0.06687
 H489 H 0.23889 1.06012 -0.09600
 H490 H 0.28944 1.07733 -0.12140
 H491 H 0.17234 1.01026 -0.04035
 H492 H 0.11975 0.99114 -0.01940
 H493 H 0.08046 1.08528 -0.03012
 H494 H 0.13328 1.10421 -0.05051
 C495 C 0.23147 -0.11567 0.36139
 C496 C 0.26016 -0.10241 0.37323
 C497 C 0.26741 -0.10377 0.40643
 C498 C 0.24578 -0.11921 0.42795
 C499 C 0.21685 -0.13266 0.41617
 C500 C 0.20880 -0.13069 0.38261
 N501 N 0.29674 -0.08876 0.41721
 N502 N 0.30627 -0.08864 0.44675
 C503 C 0.33584 -0.07260 0.45556
 C504 C 0.34720 -0.07445 0.48770
 C505 C 0.37623 -0.05917 0.49653
 C506 C 0.39424 -0.04163 0.47326
 C507 C 0.38252 -0.03962 0.44114
 C508 C 0.35372 -0.05494 0.43238
 H509 H 0.22791 -0.11488 0.33521
 H510 H 0.27695 -0.09096 0.35635
 H511 H 0.25096 -0.12045 0.45384
 H512 H 0.20032 -0.14317 0.43386
 H513 H 0.33365 -0.08791 0.50584
 H514 H 0.38460 -0.06115 0.52147
 H515 H 0.39572 -0.02637 0.42258
 H516 H 0.34550 -0.05297 0.40738
 C517 C 0.65047 -0.25553 0.59630
 C518 C 0.63822 -0.22667 0.58562
 C519 C 0.60576 -0.21893 0.59113
 C520 C 0.58533 -0.24055 0.60749
 C521 C 0.59744 -0.26962 0.61820
 C522 C 0.63037 -0.27784 0.61280
 N523 N 0.59443 -0.18903 0.57960
 N524 N 0.56567 -0.17913 0.58461
 C525 C 0.55546 -0.14907 0.57224
 C526 C 0.52396 -0.13845 0.57910
 C527 C 0.51338 -0.10936 0.56687
 C528 C 0.53422 -0.09050 0.54741
 C529 C 0.56588 -0.10122 0.54076
 C530 C 0.57641 -0.13014 0.55306
 H531 H 0.67618 -0.25938 0.59264
 H532 H 0.65428 -0.21000 0.57326
 H533 H 0.55997 -0.23515 0.61174
 H534 H 0.58038 -0.28592 0.62958
 H535 H 0.50756 -0.15280 0.59385
 H536 H 0.48884 -0.10180 0.57239
 H537 H 0.58259 -0.08730 0.52592
 H538 H 0.60088 -0.13774 0.54736
 C539 C 1.08414 0.78655 0.38822
 C540 C 1.06957 0.75854 0.39963
 C541 C 1.08867 0.73316 0.40968
 C542 C 1.12270 0.73630 0.40863
 C543 C 1.13728 0.76421 0.39714
 C544 C 1.11819 0.78960 0.38657
 N545 N 1.07316 0.70432 0.42028
 N546 N 1.08966 0.68106 0.43048
 C547 C 1.07534 0.65170 0.44098
 C548 C 1.09555 0.62890 0.45447
 C549 C 1.08278 0.60005 0.46539
 C550 C 1.04939 0.59325 0.46277
 C551 C 1.02908 0.61601 0.44872
 C552 C 1.04194 0.64514 0.43801
 H553 H 1.06877 0.80580 0.38056
 H554 H 1.04333 0.75649 0.40042
 H555 H 1.13807 0.71701 0.41616
 H556 H 1.16353 0.76553 0.39564
 H557 H 1.12133 0.63365 0.45674
 H558 H 1.09917 0.58303 0.47592
 H559 H 1.00327 0.61148 0.44643
 H560 H 1.02588 0.66244 0.42748
 C561 C -0.07892 1.29288 0.12518
 C562 C -0.06425 1.26496 0.11380
 C563 C -0.08319 1.23935 0.10296
 C564 C -0.11710 1.24221 0.10277
 C565 C -0.13181 1.27031 0.11325
 C566 C -0.11306 1.29620 0.12497
 N567 N -0.06773 1.21070 0.09216
 N568 N -0.08312 1.18435 0.09186
 C569 C -0.06904 1.15537 0.08020
 C570 C -0.08372 1.12661 0.08915
 C571 C -0.07143 1.09784 0.07748
 C572 C -0.04463 1.09739 0.05585
 C573 C -0.02993 1.12632 0.04672
 C574 C -0.04183 1.15514 0.05911
 H575 H -0.06322 1.31221 0.13287
 H576 H -0.03803 1.26316 0.11379
 H577 H -0.13226 1.22272 0.09440
 H578 H -0.15808 1.27094 0.11349
 H579 H -0.10481 1.12652 0.10524
 H580 H -0.08342 1.07595 0.08472
 H581 H -0.00927 1.12664 0.03008
 H582 H -0.03030 1.17718 0.05166
 C583 C 0.38190 0.20898 0.91516
 C584 C 0.39868 0.23597 0.92611
 C585 C 0.40886 0.25931 0.90393
 C586 C 0.40227 0.25532 0.87046
 C587 C 0.38573 0.22825 0.85945
 C588 C 0.37532 0.20485 0.88170
 N589 N 0.42543 0.28695 0.91605
 N590 N 0.43296 0.31022 0.89767
 C591 C 0.44910 0.33798 0.91007
 C592 C 0.45200 0.36475 0.89010
 C593 C 0.46553 0.39296 0.90232
 C594 C 0.47675 0.39464 0.93470
 C595 C 0.47492 0.36730 0.95426
 C596 C 0.46108 0.33927 0.94213
 H597 H 0.37443 0.19115 0.93275
 H598 H 0.40364 0.23880 0.95196
 H599 H 0.40986 0.27307 0.85285
 H600 H 0.38070 0.22576 0.83357
 H601 H 0.44294 0.36399 0.86531
 H602 H 0.46666 0.41357 0.88663
 H603 H 0.48328 0.36782 0.97932
 H604 H 0.45930 0.31880 0.95796
 C605 C 0.59408 0.62717 0.69337
 C606 C 0.58016 0.61154 0.72027
 C607 C 0.59963 0.60094 0.74579
 C608 C 0.63340 0.60599 0.74402
 C609 C 0.64737 0.62140 0.71705
 C610 C 0.62785 0.63220 0.69145
 N611 N 0.58459 0.58547 0.77329
 N612 N 0.60075 0.57761 0.79832
 C613 C 0.58611 0.56240 0.82615
 C614 C 0.60475 0.55827 0.85419
 C615 C 0.59102 0.54478 0.88233
 C616 C 0.55832 0.53479 0.88278
 C617 C 0.53983 0.53821 0.85427
 C618 C 0.55355 0.55206 0.82621
 H619 H 0.57851 0.63500 0.67386
 H620 H 0.55412 0.60779 0.72132
 H621 H 0.64900 0.59808 0.76345
 H622 H 0.67340 0.62526 0.71640
 H623 H 0.62989 0.56606 0.85441
 H624 H 0.60596 0.54238 0.90381
 H625 H 0.51457 0.53082 0.85387
 H626 H 0.53869 0.55488 0.80474
 C627 C 0.36477 0.08371 0.79674
 C628 C 0.37658 0.06912 0.76813
 C629 C 0.38865 0.08752 0.74221
 C630 C 0.38828 0.12080 0.74499
 C631 C 0.37639 0.13536 0.77339
 C632 C 0.36480 0.11702 0.79975
 N633 N 0.40145 0.07217 0.71347
 N634 N 0.41517 0.08820 0.69084
 C635 C 0.42830 0.07424 0.66160
 C636 C 0.44455 0.09399 0.63937
 C637 C 0.45766 0.08158 0.61042
 C638 C 0.45456 0.04903 0.60304
 C639 C 0.43816 0.02914 0.62545
 C640 C 0.42517 0.04164 0.65460
 H641 H 0.35620 0.06896 0.81671
 H642 H 0.37670 0.04346 0.76629
 H643 H 0.39716 0.13562 0.72521
 H644 H 0.37608 0.16105 0.77463
 H645 H 0.44706 0.11915 0.64454
 H646 H 0.47004 0.09760 0.59372
 H647 H 0.43538 0.00397 0.62046
 H648 H 0.41261 0.02595 0.67149
 C649 C 0.14560 0.87610 0.27106
 C650 C 0.13425 0.88929 0.24215
 C651 C 0.10154 0.89725 0.23923
 C652 C 0.07995 0.89135 0.26546
 C653 C 0.09124 0.87782 0.29435
 C654 C 0.12425 0.87037 0.29749
 N655 N 0.09103 0.91114 0.20933
 N656 N 0.06256 0.92198 0.20578
 C657 C 0.05250 0.93540 0.17545
 C658 C 0.02156 0.94864 0.17344
 C659 C 0.01078 0.96116 0.14390
 C660 C 0.03081 0.96041 0.11576
 C661 C 0.06204 0.94743 0.11799
 C662 C 0.07283 0.93511 0.14756
 H663 H 0.17108 0.87022 0.27274
 H664 H 0.15104 0.89357 0.22202
 H665 H 0.05449 0.89718 0.26364
 H666 H 0.07436 0.87373 0.31445
 H667 H 0.00569 0.94901 0.19476
 H668 H -0.01345 0.97089 0.14297
 H669 H 0.07807 0.94652 0.09680
 H670 H 0.09689 0.92501 0.14848
 C671 C 0.88175 0.42030 0.20621
 C672 C 0.89291 0.43579 0.23450
 C673 C 0.90511 0.41829 0.26062
 C674 C 0.90615 0.38498 0.25799
 C675 C 0.89501 0.36954 0.22987
 C676 C 0.88267 0.38695 0.20361
 N677 N 0.91613 0.43445 0.28960
 N678 N 0.92774 0.41885 0.31328
 C679 C 0.93924 0.43285 0.34308
 C680 C 0.95266 0.41274 0.36620
 C681 C 0.96453 0.42484 0.39558
 C682 C 0.96314 0.45756 0.40267
 C683 C 0.94931 0.47789 0.37952
 C684 C 0.93748 0.46562 0.34979
 H685 H 0.87255 0.43439 0.18633
 H686 H 0.89199 0.46144 0.23611
 H687 H 0.91529 0.37077 0.27780
 H688 H 0.89542 0.34384 0.22901
 H689 H 0.95405 0.38747 0.36132
 H690 H 0.97485 0.40838 0.41279
 H691 H 0.94790 0.50318 0.38424
 H692 H 0.92707 0.48160 0.33218
   
