data_POSCAR
  _audit_creation_date              2014-09-24
  _audit_creation_method            'ToBaCCo'
  _symmetry_space_group_name_H-M    'P1'
  _symmetry_Int_Tables_number       1
  _symmetry_cell_setting            triclinic
  loop_
  _symmetry_equiv_pos_as_xyz
 x,y,z
_cell_length_a 47.3034
_cell_length_b 47.4513
_cell_length_c 47.9403
_cell_angle_alpha 86.698100
_cell_angle_beta 91.605700
_cell_angle_gamma 89.273600
loop_
  _atom_site_label
  _atom_site_type_symbol
  _atom_site_fract_x
  _atom_site_fract_y
  _atom_site_fract_z
C1 C 0.26635 0.48816 1.01288
 C2 C 0.25275 0.51303 1.00259
 C3 C 0.26825 0.53763 0.99780
 C4 C 0.29773 0.53795 1.00308
 C5 C 0.31115 0.51252 1.01344
 C6 C 0.29567 0.48763 1.01802
 C7 C 0.22240 0.51345 0.99530
 C8 C 0.20248 0.51697 1.01589
 C9 C 0.17364 0.52158 1.00852
 C10 C 0.16537 0.52151 0.97998
 C11 C 0.18513 0.51688 0.95930
 C12 C 0.21372 0.51312 0.96722
 H13 H 0.25425 0.46901 1.01577
 H14 H 0.25669 0.55668 0.99076
 H15 H 0.21001 0.51816 1.03733
 H16 H 0.22941 0.50994 0.95162
 H17 H 0.33386 0.51143 1.01682
 H18 H 0.14334 0.52442 0.97369
 C19 C 0.72925 0.46722 -0.01167
 C20 C 0.74409 0.49242 -0.01514
 C21 C 0.72922 0.51789 -0.02062
 C22 C 0.69953 0.51848 -0.02261
 C23 C 0.68478 0.49296 -0.01912
 C24 C 0.69961 0.46717 -0.01414
 C25 C 0.77525 0.49188 -0.01462
 C26 C 0.78970 0.50247 -0.03793
 C27 C 0.81943 0.50056 -0.03879
 C28 C 0.83442 0.48845 -0.01504
 C29 C 0.82010 0.47894 0.00904
 C30 C 0.79044 0.48023 0.00875
 H31 H 0.74090 0.44751 -0.00778
 H32 H 0.74093 0.53732 -0.02301
 H33 H 0.77729 0.51046 -0.05608
 H34 H 0.77902 0.47314 0.02708
 H35 H 0.66194 0.49302 -0.02151
 H36 H 0.85731 0.48743 -0.01469
 C37 C 0.03494 0.21269 0.50353
 C38 C 0.00973 0.22837 0.50368
 C39 C -0.01562 0.21456 0.50921
 C40 C -0.01611 0.18523 0.51511
 C41 C 0.00937 0.16955 0.51470
 C42 C 0.03506 0.18333 0.50946
 C43 C 0.01013 0.25950 0.50136
 C44 C 0.01954 0.27414 0.47722
 C45 C 0.01894 0.30405 0.47470
 C46 C 0.00981 0.31863 0.49790
 C47 C 0.00061 0.30397 0.52220
 C48 C 0.00057 0.27448 0.52358
 H49 H 0.05468 0.22354 0.50009
 H50 H -0.03502 0.22695 0.50941
 H51 H 0.02547 0.26181 0.45997
 H52 H -0.00630 0.26301 0.54235
 H53 H 0.00950 0.14708 0.52019
 H54 H 0.01018 0.34143 0.49758
 C55 C 1.01737 0.77340 0.48292
 C56 C 0.98920 0.76467 0.48400
 C57 C 0.96833 0.78265 0.49348
 C58 C 0.97547 0.80959 0.50172
 C59 C 1.00366 0.81843 0.49984
 C60 C 1.02517 0.80045 0.49087
 C61 C 0.98199 0.73623 0.47572
 C62 C 0.98250 0.71359 0.49589
 C63 C 0.97937 0.68556 0.48800
 C64 C 0.97420 0.68134 0.45939
 C65 C 0.97395 0.70380 0.43899
 C66 C 0.97789 0.73131 0.44739
 H67 H 1.03285 0.75913 0.47499
 H68 H 0.94676 0.77542 0.49494
 H69 H 0.98755 0.71805 0.51733
 H70 H 0.97839 0.74886 0.43192
 H71 H 1.00880 0.83908 0.50675
 H72 H 0.97074 0.66034 0.45258
 C73 C 0.50345 0.00973 0.21771
 C74 C 0.51028 -0.01306 0.23672
 C75 C 0.51671 -0.03963 0.22695
 C76 C 0.51644 -0.04364 0.19814
 C77 C 0.50994 -0.02052 0.17932
 C78 C 0.50297 0.00606 0.18886
 C79 C 0.50875 -0.00976 0.26694
 C80 C 0.48314 -0.01404 0.28024
 C81 C 0.48146 -0.01283 0.30941
 C82 C 0.50599 -0.00605 0.32494
 C83 C 0.53177 -0.00090 0.31158
 C84 C 0.53293 -0.00329 0.28253
 H85 H 0.49765 0.02997 0.22543
 H86 H 0.52100 -0.05728 0.24188
 H87 H 0.46454 -0.01838 0.26760
 H88 H 0.55272 -0.00045 0.27194
 H89 H 0.51031 -0.02313 0.15704
 H90 H 0.50510 -0.00483 0.34737
 C91 C 0.49200 0.04417 0.79288
 C92 C 0.49195 0.01615 0.78520
 C93 C 0.48882 -0.00593 0.80551
 C94 C 0.48552 -0.00036 0.83382
 C95 C 0.48609 0.02803 0.84113
 C96 C 0.48912 0.05046 0.82095
 C97 C 0.49494 0.00987 0.75572
 C98 C 0.52143 0.01177 0.74347
 C99 C 0.52477 0.00492 0.71559
 C100 C 0.50085 -0.00264 0.69975
 C101 C 0.47424 -0.00464 0.71193
 C102 C 0.47150 0.00129 0.74005
 H103 H 0.49382 0.06096 0.77678
 H104 H 0.48793 -0.02731 0.79879
 H105 H 0.53951 0.01811 0.75588
 H106 H 0.45106 -0.00041 0.74965
 H107 H 0.48583 0.03270 0.86294
 H108 H 0.50307 -0.00834 0.67834
 C109 C 0.29524 0.00521 0.46134
 H110 H 0.29330 0.02405 0.47286
 C111 C 0.31387 0.00459 0.43920
 H112 H 0.32553 0.02339 0.43337
 C113 C 0.28268 -0.04227 0.45544
 H114 H 0.27126 -0.06081 0.46246
 C115 C 0.30133 -0.04397 0.43357
 H116 H 0.30384 -0.06399 0.42414
 N117 N 0.27999 -0.01797 0.46887
 C118 C 0.22103 0.01601 0.52751
 H119 H 0.22527 0.00073 0.54480
 C120 C 0.20191 0.03815 0.53047
 H121 H 0.19170 0.04017 0.55022
 C122 C 0.22879 0.03169 0.48052
 H123 H 0.23896 0.02871 0.46098
 C124 C 0.20922 0.05386 0.48240
 H125 H 0.20478 0.06831 0.46445
 Zn126 Zn 0.25836 -0.01872 0.50151
 N127 N 0.23445 0.01347 0.50304
 C128 C 0.28874 0.00101 0.54845
 N129 N 0.28452 -0.02133 0.53230
 C130 C 0.30009 -0.04556 0.53670
 C131 C 0.31964 -0.04866 0.55906
 C132 C 0.30857 -0.00095 0.57066
 C133 C 0.21478 -0.04996 0.48011
 C134 C 0.19514 -0.07150 0.47849
 C135 C 0.21522 -0.09311 0.52155
 C136 C 0.23430 -0.07090 0.52255
 N137 N 0.23393 -0.05006 0.50180
 H138 H 0.27703 0.02051 0.54394
 H139 H 0.29712 -0.06262 0.52293
 H140 H 0.33154 -0.06824 0.56265
 H141 H 0.31161 0.01687 0.58351
 H142 H 0.21477 -0.03297 0.46406
 H143 H 0.18009 -0.07111 0.46101
 H144 H 0.21556 -0.10946 0.53829
 H145 H 0.24900 -0.07019 0.54012
 C146 C 0.19580 0.05728 0.50772
 C147 C 0.31737 -0.02039 0.42512
 C148 C 0.19524 -0.09345 0.49937
 C149 C 0.32396 -0.02617 0.57634
 C150 C 0.70591 0.02552 0.55643
 H151 H 0.70805 0.04434 0.54286
 C152 C 0.68678 0.02528 0.57815
 H153 H 0.67440 0.04410 0.58140
 C154 C 0.71943 -0.02193 0.56869
 H155 H 0.73144 -0.04062 0.56441
 C156 C 0.70083 -0.02299 0.59078
 H157 H 0.69903 -0.04242 0.60357
 N158 N 0.72219 0.00232 0.55248
 C159 C 0.78887 0.04156 0.50320
 H160 H 0.78650 0.02996 0.48451
 C161 C 0.80983 0.06189 0.50491
 H162 H 0.82286 0.06636 0.48704
 C163 C 0.77488 0.04921 0.54923
 H164 H 0.76191 0.04343 0.56681
 C165 C 0.79583 0.06946 0.55199
 H166 H 0.79850 0.07916 0.57176
 Zn167 Zn 0.74782 0.00430 0.52271
 N168 N 0.77184 0.03571 0.52511
 C169 C 0.72217 0.03231 0.47481
 N170 N 0.72592 0.00687 0.48904
 C171 C 0.71186 -0.01632 0.48116
 C172 C 0.69337 -0.01452 0.45783
 C173 C 0.70374 0.03512 0.45154
 C174 C 0.78577 -0.03309 0.55017
 C175 C 0.80772 -0.05290 0.55321
 C176 C 0.80375 -0.05949 0.50369
 C177 C 0.78108 -0.04012 0.50177
 N178 N 0.77279 -0.02719 0.52485
 H179 H 0.73273 0.05070 0.48206
 H180 H 0.71477 -0.03617 0.49322
 H181 H 0.68266 -0.03332 0.45173
 H182 H 0.70048 0.05578 0.44108
 H183 H 0.77957 -0.02173 0.56799
 H184 H 0.81720 -0.05739 0.57381
 H185 H 0.81100 -0.06831 0.48479
 H186 H 0.77124 -0.03422 0.48161
 C187 C 0.81386 0.07593 0.52971
 C188 C 0.68441 0.00090 0.59588
 C189 C 0.81783 -0.06570 0.52964
 C190 C 0.68893 0.01154 0.44276
 C191 C 0.46090 0.21610 1.04282
 H192 H 0.44291 0.22545 1.03121
 C193 C 0.45753 0.19128 1.05926
 H194 H 0.43684 0.18183 1.06012
 C195 C 0.50937 0.21756 1.05623
 H196 H 0.52955 0.22780 1.05511
 C197 C 0.50702 0.19245 1.07278
 H198 H 0.52566 0.18344 1.08367
 N199 N 0.48669 0.22825 1.04079
 C200 C 0.44358 0.29577 0.99548
 H201 H 0.44942 0.29096 0.97461
 C202 C 0.42194 0.31539 0.99919
 H203 H 0.41087 0.32532 0.98106
 C204 C 0.45135 0.28926 1.04453
 H205 H 0.46334 0.27930 1.06204
 C206 C 0.42971 0.30851 1.04920
 H207 H 0.42516 0.31338 1.07041
 Zn208 Zn 0.48884 0.25882 1.01349
 N209 N 0.45783 0.28332 1.01803
 C210 C 0.46260 0.22998 0.96996
 N211 N 0.48650 0.24362 0.97753
 C212 C 0.50916 0.24472 0.96066
 C213 C 0.50913 0.23007 0.93623
 C214 C 0.46149 0.21540 0.94546
 C215 C 0.51999 0.30843 1.01720
 C216 C 0.54368 0.32555 1.01521
 C217 C 0.57301 0.28362 1.01451
 C218 C 0.54866 0.26729 1.01607
 N219 N 0.52271 0.27986 1.01692
 H220 H 0.44449 0.22996 0.98316
 H221 H 0.52780 0.25606 0.96651
 H222 H 0.52814 0.22994 0.92420
 H223 H 0.44233 0.20446 0.94010
 H224 H 0.49928 0.31821 1.01747
 H225 H 0.54059 0.34822 1.01377
 H226 H 0.59335 0.27310 1.01349
 H227 H 0.55044 0.24464 1.01508
 C228 C 0.41491 0.32204 1.02634
 C229 C 0.48099 0.17851 1.07372
 C230 C 0.57066 0.31326 1.01320
 C231 C 0.48532 0.21452 0.92863
 C232 C 0.47570 0.78616 -0.02539
 H233 H 0.45860 0.77406 -0.01651
 C234 C 0.46967 0.81150 -0.04070
 H235 H 0.44788 0.81849 -0.04397
 C236 C 0.52494 0.79302 -0.03006
 H237 H 0.54644 0.78627 -0.02475
 C238 C 0.51983 0.81834 -0.04591
 H239 H 0.53747 0.83091 -0.05300
 N240 N 0.50296 0.77746 -0.02028
 C241 C 0.46497 0.71206 0.02792
 H242 H 0.47249 0.71763 0.04835
 C243 C 0.44192 0.69409 0.02550
 H244 H 0.43143 0.68625 0.04412
 C245 C 0.46967 0.71493 -0.02128
 H246 H 0.48085 0.72297 -0.03937
 C247 C 0.44660 0.69740 -0.02467
 H248 H 0.44011 0.69189 -0.04548
 Zn249 Zn 0.50942 0.74635 0.00570
 N250 N 0.47803 0.72233 0.00461
 C251 C 0.49105 0.77403 0.05167
 N252 N 0.51422 0.76191 0.04093
 C253 C 0.54040 0.76467 0.05286
 C254 C 0.54402 0.78050 0.07639
 C255 C 0.49366 0.78978 0.07525
 C256 C 0.55048 0.72426 -0.02958
 C257 C 0.57117 0.70478 -0.03652
 C258 C 0.57187 0.68536 0.01120
 C259 C 0.55098 0.70496 0.01712
 N260 N 0.54095 0.72407 -0.00308
 H261 H 0.47060 0.77221 0.04132
 H262 H 0.55871 0.75590 0.04331
 H263 H 0.56517 0.78351 0.08479
 H264 H 0.47490 0.79936 0.08330
 H265 H 0.54122 0.73870 -0.04565
 H266 H 0.57780 0.70473 -0.05794
 H267 H 0.57977 0.67064 0.02776
 H268 H 0.54233 0.70462 0.03778
 C269 C 0.43234 0.68690 -0.00111
 C270 C 0.49189 0.82806 -0.05084
 C271 C 0.58201 0.68480 -0.01604
 C272 C 0.52050 0.79380 0.08756
 C273 C 1.04041 0.48840 0.20424
 H274 H 1.03456 0.46697 0.21020
 C275 C 1.05734 0.49372 0.18116
 H276 H 1.06474 0.47626 0.16958
 C277 C 1.03546 0.53746 0.21022
 H278 H 1.02575 0.55453 0.22062
 C279 C 1.05194 0.54371 0.18708
 H280 H 1.05538 0.56555 0.18035
 N281 N 1.02973 0.51017 0.21814
 C282 C 0.98986 0.46438 0.28804
 H283 H 0.96895 0.47385 0.28555
 C284 C 0.99533 0.44312 0.30889
 H285 H 0.97829 0.43604 0.32205
 C286 C 1.03721 0.46204 0.27342
 H287 H 1.05361 0.46993 0.25994
 C288 C 1.04366 0.44076 0.29412
 H289 H 1.06507 0.43242 0.29626
 Zn290 Zn 1.00073 0.50273 0.24376
 N291 N 1.01057 0.47318 0.27063
 C292 C 0.96118 0.46569 0.22007
 N293 N 0.96933 0.49298 0.22132
 C294 C 0.95838 0.51357 0.20315
 C295 C 0.93844 0.50712 0.18262
 C296 C 0.94157 0.45819 0.19951
 C297 C 1.01608 0.54681 0.27610
 C298 C 1.01333 0.57204 0.28933
 C299 C 0.96327 0.57253 0.27769
 C300 C 0.96708 0.54747 0.26414
 N301 N 0.99331 0.53548 0.26319
 H302 H 0.97099 0.44947 0.23400
 H303 H 0.96587 0.53496 0.20405
 H304 H 0.92998 0.52398 0.16853
 H305 H 0.93638 0.43616 0.19809
 H306 H 1.03658 0.53656 0.27540
 H307 H 1.03177 0.58101 0.29915
 H308 H 0.94239 0.58210 0.27815
 H309 H 0.94914 0.53770 0.25437
 C310 C 1.02255 0.43098 0.31220
 C311 C 1.06253 0.52171 0.17192
 C312 C 0.98674 0.58532 0.28998
 C313 C 0.93027 0.47898 0.18007
 C314 C -0.04636 0.48341 0.76730
 H315 H -0.04308 0.46245 0.76017
 C316 C -0.06530 0.48758 0.78856
 H317 H -0.07708 0.46989 0.79725
 C318 C -0.03397 0.53173 0.76584
 H319 H -0.02093 0.54859 0.75751
 C320 C -0.05307 0.53695 0.78667
 H321 H -0.05496 0.55799 0.79411
 N322 N -0.03127 0.50540 0.75634
 C323 C 0.01457 0.44701 0.70943
 H324 H 0.03519 0.45126 0.71840
 C325 C 0.01135 0.42465 0.69190
 H326 H 0.02941 0.41132 0.68807
 C327 C -0.03359 0.46043 0.70164
 H328 H -0.05066 0.47525 0.70461
 C329 C -0.03783 0.43816 0.68430
 H330 H -0.05834 0.43582 0.67417
 Zn331 Zn -0.00254 0.49892 0.73084
 N332 N -0.00772 0.46447 0.71372
 C333 C 0.03731 0.47747 0.77077
 N334 N 0.03197 0.49906 0.75141
 C335 C 0.04926 0.52169 0.74905
 C336 C 0.07288 0.52338 0.76695
 C337 C 0.06081 0.47818 0.78895
 C338 C -0.02436 0.54498 0.69468
 C339 C -0.02491 0.56147 0.66948
 C340 C 0.01961 0.53995 0.65819
 C341 C 0.01926 0.52392 0.68338
 N342 N -0.00258 0.52646 0.70090
 H343 H 0.02288 0.45999 0.77250
 H344 H 0.04406 0.53907 0.73415
 H345 H 0.08565 0.54214 0.76552
 H346 H 0.06462 0.46082 0.80430
 H347 H -0.04200 0.54595 0.70844
 H348 H -0.04291 0.57524 0.66416
 H349 H 0.03705 0.53728 0.64438
 H350 H 0.03599 0.50862 0.68862
 C351 C -0.01504 0.42031 0.67879
 C352 C -0.06879 0.51463 0.79843
 C353 C -0.00304 0.55845 0.65059
 C354 C 0.07866 0.50164 0.78755
 C355 C 0.09506 0.13055 0.50321
 C356 C 0.11482 0.14125 0.52122
 C357 C 0.10977 0.16508 0.53596
 C358 C 0.08336 0.17860 0.53184
 C359 C 0.06250 0.16805 0.51346
 C360 C 0.06837 0.14348 0.49910
 O361 O 0.10431 0.10773 0.49121
 C362 C 0.13040 0.10396 0.50198
 C363 C 0.13775 0.12386 0.52055
 C364 C 0.16373 0.12353 0.53490
 C365 C 0.18286 0.10163 0.53011
 C366 C 0.17590 0.08095 0.51098
 C367 C 0.14937 0.08224 0.49652
 H368 H 0.12566 0.17305 0.55004
 H369 H 0.07901 0.19723 0.54313
 H370 H 0.05286 0.13506 0.48490
 H371 H 0.16891 0.13932 0.54957
 H372 H 0.20306 0.10059 0.54137
 H373 H 0.14346 0.06639 0.48215
 C374 C 0.64728 0.57916 -0.01920
 C375 C 0.65876 0.59867 -0.03782
 C376 C 0.68258 0.59293 -0.05294
 C377 C 0.69534 0.56615 -0.04837
 C378 C 0.68433 0.54579 -0.02877
 C379 C 0.65963 0.55239 -0.01431
 O380 O 0.62495 0.58908 -0.00655
 C381 C 0.62237 0.61542 -0.01734
 C382 C 0.64254 0.62237 -0.03653
 C383 C 0.64423 0.64915 -0.04971
 C384 C 0.62427 0.66961 -0.04284
 C385 C 0.60307 0.66298 -0.02317
 C386 C 0.60220 0.63530 -0.01039
 H387 H 0.69121 0.60859 -0.06751
 H388 H 0.71393 0.56134 -0.05998
 H389 H 0.65089 0.53754 0.00102
 H390 H 0.66053 0.65423 -0.06451
 H391 H 0.62569 0.69070 -0.05251
 H392 H 0.58622 0.62925 0.00443
 C393 C 0.90799 -0.14844 0.51090
 C394 C 0.91610 -0.13290 0.53301
 C395 C 0.94237 -0.13605 0.54654
 C396 C 0.96134 -0.15574 0.53659
 C397 C 0.95399 -0.17152 0.51321
 C398 C 0.92664 -0.16811 0.50051
 O399 O 0.88223 -0.14158 0.50071
 C400 C 0.87405 -0.12115 0.51668
 C401 C 0.89411 -0.11505 0.53664
 C402 C 0.89079 -0.09348 0.55463
 C403 C 0.86569 -0.07749 0.55205
 C404 C 0.84410 -0.08352 0.53204
 C405 C 0.84856 -0.10585 0.51408
 H406 H 0.94817 -0.12359 0.56398
 H407 H 0.98188 -0.15851 0.54700
 H408 H 0.92047 -0.17959 0.48249
 H409 H 0.90723 -0.08867 0.56971
 H410 H 0.86358 -0.05993 0.56529
 H411 H 0.83283 -0.11116 0.49851
 C412 C 0.34671 0.42595 1.01856
 C413 C 0.33597 0.40841 1.03940
 C414 C 0.31255 0.41575 1.05450
 C415 C 0.29958 0.44214 1.04764
 C416 C 0.31032 0.46056 1.02621
 C417 C 0.33436 0.45231 1.01163
 O418 O 0.36866 0.41484 1.00630
 C419 C 0.37191 0.38972 1.01969
 C420 C 0.35253 0.38473 1.04020
 C421 C 0.35221 0.35966 1.05672
 C422 C 0.37278 0.33900 1.05196
 C423 C 0.39294 0.34367 1.03084
 C424 C 0.39234 0.36945 1.01447
 H425 H 0.30438 0.40156 1.07073
 H426 H 0.28118 0.44825 1.05894
 H427 H 0.34270 0.46567 0.99482
 H428 H 0.33672 0.35614 1.07270
 H429 H 0.37288 0.31929 1.06453
 H430 H 0.40763 0.37381 0.99845
 C431 C 0.92163 0.13567 0.52009
 C432 C 0.90442 0.15028 0.53706
 C433 C 0.91237 0.17532 0.54846
 C434 C 0.93895 0.18603 0.54174
 C435 C 0.95694 0.17189 0.52361
 C436 C 0.94825 0.14599 0.51306
 O437 O 0.90972 0.11249 0.51116
 C438 C 0.88446 0.11263 0.52266
 C439 C 0.88017 0.13534 0.53862
 C440 C 0.85493 0.14011 0.55188
 C441 C 0.83321 0.12058 0.54866
 C442 C 0.83705 0.09666 0.53257
 C443 C 0.86325 0.09277 0.51941
 H444 H 0.89850 0.18636 0.56187
 H445 H 0.94543 0.20553 0.55053
 H446 H 0.96135 0.13479 0.49906
 H447 H 0.85195 0.15839 0.56403
 H448 H 0.81327 0.12442 0.55842
 H449 H 0.86721 0.07472 0.50721
 C450 C 0.35320 0.59316 0.00705
 C451 C 0.34305 0.61263 -0.01318
 C452 C 0.31848 0.60873 -0.02883
 C453 C 0.30357 0.58379 -0.02332
 C454 C 0.31330 0.56298 -0.00237
 C455 C 0.33888 0.56806 0.01281
 O456 O 0.37702 0.60102 0.01952
 C457 C 0.38201 0.62596 0.00674
 C458 C 0.36186 0.63397 -0.01350
 C459 C 0.36315 0.65905 -0.02985
 C460 C 0.38633 0.67649 -0.02531
 C461 C 0.40750 0.66870 -0.00463
 C462 C 0.40511 0.64314 0.01181
 H463 H 0.31112 0.62426 -0.04491
 H464 H 0.28506 0.58050 -0.03640
 H465 H 0.34705 0.55361 0.02946
 H466 H 0.34704 0.66485 -0.04568
 H467 H 0.38782 0.69610 -0.03788
 H468 H 0.42110 0.63651 0.02751
 C469 C 0.08877 -0.15373 0.48950
 C470 C 0.10999 -0.17353 0.49456
 C471 C 0.10476 -0.20228 0.49734
 C472 C 0.07651 -0.21093 0.49523
 C473 C 0.05383 -0.19085 0.49082
 C474 C 0.06063 -0.16174 0.48749
 O475 O 0.09802 -0.12745 0.48762
 C476 C 0.12572 -0.13068 0.49182
 C477 C 0.13420 -0.15844 0.49631
 C478 C 0.16229 -0.16640 0.50206
 C479 C 0.18236 -0.14485 0.50318
 C480 C 0.17406 -0.11609 0.49831
 C481 C 0.14528 -0.10904 0.49250
 H482 H 0.12180 -0.21752 0.50146
 H483 H 0.07254 -0.23323 0.49867
 H484 H 0.04469 -0.14547 0.48290
 H485 H 0.16849 -0.18836 0.50575
 H486 H 0.20435 -0.15052 0.50755
 H487 H 0.13824 -0.08727 0.48914
 C488 C 0.64705 0.40958 1.00285
 C489 C 0.65778 0.38823 0.98785
 C490 C 0.68168 0.39133 0.97184
 C491 C 0.69519 0.41746 0.97137
 C492 C 0.68463 0.43991 0.98668
 C493 C 0.66005 0.43588 1.00253
 O494 O 0.62390 0.40228 1.01639
 C495 C 0.61991 0.37582 1.00966
 C496 C 0.64005 0.36627 0.99224
 C497 C 0.63945 0.33953 0.98189
 C498 C 0.61694 0.32200 0.98949
 C499 C 0.59565 0.33127 1.00739
 C500 C 0.59757 0.35860 1.01785
 H501 H 0.68959 0.37427 0.96005
 H502 H 0.71372 0.42035 0.95881
 H503 H 0.65154 0.45257 1.01444
 H504 H 0.65538 0.33263 0.96791
 H505 H 0.61568 0.30162 0.98056
 H506 H 0.58196 0.36647 1.03165
 C507 C 0.49587 0.07781 1.15018
 C508 C 0.47754 0.07155 1.12871
 C509 C 0.46642 0.04486 1.12605
 C510 C 0.47470 0.02361 1.14624
 C511 C 0.49383 0.02932 1.16851
 C512 C 0.50431 0.05698 1.17064
 O513 O 0.50445 0.10440 1.14833
 C514 C 0.49126 0.11508 1.12517
 C515 C 0.47453 0.09580 1.11247
 C516 C 0.45935 0.10212 1.08765
 C517 C 0.46149 0.12947 1.07534
 C518 C 0.47853 0.14999 1.08793
 C519 C 0.49363 0.14253 1.11332
 H520 H 0.45205 0.04048 1.10892
 H521 H 0.46619 0.00269 1.14454
 H522 H 0.51912 0.06191 1.18722
 H523 H 0.44662 0.08643 1.07790
 H524 H 0.45035 0.13440 1.05559
 H525 H 0.50681 0.15757 1.12353
 C526 C -0.01765 0.64101 0.55521
 C527 C -0.00879 0.61575 0.54568
 C528 C -0.00349 0.61208 0.51787
 C529 C -0.00753 0.63539 0.49892
 C530 C -0.01704 0.66212 0.50773
 C531 C -0.02196 0.66462 0.53671
 O532 O -0.02104 0.63991 0.58270
 C533 C -0.01404 0.61335 0.59055
 C534 C -0.00639 0.59777 0.56860
 C535 C 0.00202 0.56962 0.57186
 C536 C 0.00280 0.55697 0.59897
 C537 C -0.00466 0.57253 0.62219
 C538 C -0.01349 0.60114 0.61781
 H539 H 0.00402 0.59204 0.51103
 H540 H -0.00174 0.63248 0.47762
 H541 H -0.02972 0.68396 0.54481
 H542 H 0.00783 0.55783 0.55417
 H543 H 0.00902 0.53493 0.60183
 H544 H -0.01918 0.61358 0.63508
 C545 C 0.49020 0.92931 -0.12685
 C546 C 0.47428 0.93465 -0.10418
 C547 C 0.46156 0.96067 -0.10076
 C548 C 0.46549 0.98221 -0.12149
 C549 C 0.48170 0.97749 -0.14552
 C550 C 0.49394 0.95022 -0.14808
 O551 O 0.50126 0.90337 -0.12556
 C552 C 0.49193 0.89208 -0.10160
 C553 C 0.47514 0.91032 -0.08784
 C554 C 0.46299 0.90290 -0.06245
 C555 C 0.46837 0.87554 -0.05072
 C556 C 0.48593 0.85642 -0.06426
 C557 C 0.49795 0.86488 -0.09007
 H558 H 0.44909 0.96433 -0.08270
 H559 H 0.45489 1.00222 -0.11909
 H560 H 0.50718 0.94557 -0.16532
 H561 H 0.44987 0.91765 -0.05203
 H562 H 0.45930 0.86938 -0.03083
 H563 H 0.51138 0.85066 -0.10084
 C564 C 1.02077 0.35943 0.41600
 C565 C 1.03835 0.34671 0.39805
 C566 C 1.05090 0.32045 0.40444
 C567 C 1.04485 0.30658 0.43023
 C568 C 1.02631 0.31892 0.44933
 C569 C 1.01452 0.34618 0.44176
 O570 O 1.01016 0.38399 0.40564
 C571 C 1.02132 0.38685 0.38057
 C572 C 1.03877 0.36465 0.37486
 C573 C 1.05195 0.36303 0.34941
 C574 C 1.04682 0.38513 0.32901
 C575 C 1.02873 0.40826 0.33432
 C576 C 1.01603 0.40904 0.36070
 H577 H 1.06480 0.31086 0.39002
 H578 H 1.05537 0.28651 0.43530
 H579 H 0.99945 0.35639 0.45453
 H580 H 1.06537 0.34521 0.34525
 H581 H 1.05639 0.38384 0.30887
 H582 H 1.00231 0.42638 0.36566
 C583 C 0.51182 0.89303 0.15396
 C584 C 0.53229 0.87545 0.16664
 C585 C 0.54816 0.88285 0.18993
 C586 C 0.54275 0.90944 0.20041
 C587 C 0.52176 0.92798 0.18754
 C588 C 0.50597 0.91929 0.16409
 O589 O 0.49956 0.88257 0.13169
 C590 C 0.51255 0.85782 0.13020
 C591 C 0.53273 0.85231 0.15107
 C592 C 0.54916 0.82769 0.15289
 C593 C 0.54470 0.80815 0.13226
 C594 C 0.52415 0.81357 0.11032
 C595 C 0.50784 0.83885 0.10956
 H596 H 0.56435 0.86883 0.19948
 H597 H 0.55529 0.91577 0.21816
 H598 H 0.48951 0.93257 0.15393
 H599 H 0.56498 0.82375 0.16946
 H600 H 0.55725 0.78886 0.13338
 H601 H 0.49249 0.84415 0.09285
 C602 C -0.00062 0.35290 0.58161
 C603 C -0.02525 0.34477 0.59417
 C604 C -0.04272 0.32422 0.58381
 C605 C -0.03425 0.31129 0.55974
 C606 C -0.00883 0.31918 0.54648
 C607 C 0.00805 0.34054 0.55749
 O608 O 0.01308 0.37256 0.59498
 C609 C -0.00328 0.37694 0.61642
 C610 C -0.02702 0.36052 0.61687
 C611 C -0.04715 0.36195 0.63736
 C612 C -0.04278 0.38136 0.65805
 C613 C -0.01849 0.39863 0.65798
 C614 C 0.00163 0.39613 0.63692
 H615 H -0.06201 0.31816 0.59405
 H616 H -0.04742 0.29505 0.55144
 H617 H 0.02771 0.34673 0.54804
 H618 H -0.06568 0.34881 0.63728
 H619 H -0.05830 0.38300 0.67408
 H620 H 0.02013 0.40933 0.63604
 C621 C 0.47721 0.11546 0.86178
 C622 C 0.49384 0.13477 0.84774
 C623 C 0.50890 0.12823 0.82440
 C624 C 0.50693 0.10062 0.81538
 C625 C 0.48983 0.08021 0.82953
 C626 C 0.47438 0.08823 0.85281
 O627 O 0.46626 0.12508 0.88461
 C628 C 0.47618 0.15107 0.88504
 C629 C 0.49297 0.15819 0.86285
 C630 C 0.50633 0.18409 0.85991
 C631 C 0.50264 0.20315 0.88095
 C632 C 0.48622 0.19588 0.90466
 C633 C 0.47246 0.16949 0.90627
 H634 H 0.52238 0.14356 0.81401
 H635 H 0.51949 0.09502 0.79796
 H636 H 0.46084 0.07362 0.86409
 H637 H 0.51949 0.18927 0.84228
 H638 H 0.51295 0.22335 0.87890
 H639 H 0.46041 0.16270 0.92423
 C640 C 0.96092 0.66514 0.37351
 C641 C 0.98109 0.67705 0.35659
 C642 C 0.99711 0.69995 0.36414
 C643 C 0.99293 0.71028 0.39061
 C644 C 0.97312 0.69753 0.40896
 C645 C 0.95605 0.67543 0.39960
 O646 O 0.95045 0.64153 0.36418
 C647 C 0.96449 0.63824 0.34101
 C648 C 0.98349 0.65942 0.33537
 C649 C 1.00279 0.65837 0.31407
 C650 C 1.00283 0.63434 0.29832
 C651 C 0.98377 0.61203 0.30409
 C652 C 0.96386 0.61439 0.32530
 H653 H 1.01342 0.70848 0.35083
 H654 H 1.00659 0.72679 0.39752
 H655 H 0.94096 0.66500 0.41311
 H656 H 1.01807 0.67488 0.31049
 H657 H 1.01824 0.63265 0.28219
 H658 H 0.94978 0.59725 0.33076
 C659 C 1.13656 0.51991 0.07627
 C660 C 1.11395 0.53756 0.06919
 C661 C 1.10973 0.55040 0.04265
 C662 C 1.12962 0.54481 0.02247
 C663 C 1.15362 0.52687 0.02910
 C664 C 1.15698 0.51451 0.05677
 O665 O 1.13596 0.50887 0.10234
 C666 C 1.11250 0.51998 0.11194
 C667 C 1.09841 0.53789 0.09252
 C668 C 1.07331 0.55175 0.09803
 C669 C 1.06215 0.54681 0.12462
 C670 C 1.07596 0.52800 0.14487
 C671 C 1.10156 0.51443 0.13841
 H672 H 1.09168 0.56418 0.03758
 H673 H 1.12667 0.55552 0.00205
 H674 H 1.17420 0.49999 0.06279
 H675 H 1.06259 0.56568 0.08236
 H676 H 1.04234 0.55700 0.12921
 H677 H 1.11246 0.49993 0.15345
 C678 C 0.58483 0.01009 0.66495
 C679 C 0.60660 -0.00185 0.68140
 C680 C 0.60328 -0.01120 0.70910
 C681 C 0.57638 -0.00830 0.72028
 C682 C 0.55340 0.00372 0.70373
 C683 C 0.55787 0.01317 0.67563
 O684 O 0.59232 0.01697 0.63897
 C685 C 0.61937 0.00910 0.63902
 C686 C 0.62909 -0.00260 0.66446
 C687 C 0.65650 -0.01315 0.66895
 C688 C 0.67460 -0.01169 0.64623
 C689 C 0.66512 0.00027 0.61973
 C690 C 0.63710 0.01101 0.61621
 H691 H 0.62068 -0.02077 0.72155
 H692 H 0.57329 -0.01617 0.74161
 H693 H 0.54086 0.02245 0.66243
 H694 H 0.66361 -0.02240 0.68913
 H695 H 0.69604 -0.01977 0.64929
 H696 H 0.62914 0.01988 0.59615
 C697 C -0.12995 0.50461 0.90289
 C698 C -0.14159 0.52678 0.88658
 C699 C -0.16530 0.54171 0.89415
 C700 C -0.17787 0.53315 0.91933
 C701 C -0.16650 0.51011 0.93679
 C702 C -0.14160 0.49618 0.92843
 O703 O -0.10836 0.49222 0.89110
 C704 C -0.10631 0.50700 0.86688
 C705 C -0.12601 0.52855 0.86319
 C706 C -0.12788 0.54644 0.83916
 C707 C -0.10864 0.54191 0.81804
 C708 C -0.08844 0.51952 0.82115
 C709 C -0.08728 0.50186 0.84599
 H710 H -0.17413 0.55906 0.88091
 H711 H -0.19616 0.54503 0.92536
 H712 H -0.13256 0.47802 0.94033
 H713 H -0.14366 0.56318 0.83670
 H714 H -0.10978 0.55545 0.79906
 H715 H -0.07197 0.48470 0.84894
 C716 C 0.41965 -0.01071 0.35845
 C717 C 0.40183 -0.02955 0.34651
 C718 C 0.40902 -0.04431 0.32352
 C719 C 0.43553 -0.03917 0.31206
 C720 C 0.45414 -0.01904 0.32321
 C721 C 0.44599 -0.00483 0.34706
 O722 O 0.40895 0.00043 0.38075
 C723 C 0.38379 -0.01159 0.38278
 C724 C 0.37837 -0.02991 0.36218
 C725 C 0.35323 -0.04453 0.36006
 C726 C 0.33295 -0.04047 0.38029
 C727 C 0.33824 -0.02245 0.40252
 C728 C 0.36409 -0.00756 0.40342
 H729 H 0.39483 -0.05945 0.31483
 H730 H 0.44150 -0.05111 0.29454
 H731 H 0.45938 0.01072 0.35618
 H732 H 0.34932 -0.05855 0.34339
 H733 H 0.31314 -0.05147 0.37855
 H734 H 0.36920 0.00611 0.42010
 C735 C 0.14149 0.50409 0.89408
 C736 C 0.15815 0.51612 0.87370
 C737 C 0.18387 0.52859 0.87979
 C738 C 0.19271 0.52868 0.90801
 C739 C 0.17589 0.51628 0.92945
 C740 C 0.14998 0.50365 0.92213
 O741 O 0.11732 0.49436 0.88414
 C742 C 0.11870 0.50037 0.85687
 C743 C 0.14326 0.51359 0.84931
 C744 C 0.14860 0.52236 0.82180
 C745 C 0.12760 0.51761 0.80135
 C746 C 0.10180 0.50448 0.80874
 C747 C 0.09759 0.49554 0.83699
 H748 H 0.19646 0.53830 0.86346
 H749 H 0.21234 0.53892 0.91314
 H750 H 0.13669 0.49375 0.93778
 H751 H 0.16807 0.53276 0.81631
 H752 H 0.13137 0.52433 0.77983
 H753 H 0.07799 0.48610 0.84361
 C754 C 0.58982 0.00065 0.36773
 C755 C 0.60765 0.02005 0.35543
 C756 C 0.60159 0.03391 0.32961
 C757 C 0.57627 0.02727 0.31571
 C758 C 0.55765 0.00687 0.32758
 C759 C 0.56454 -0.00639 0.35421
 O760 O 0.59962 -0.01008 0.39238
 C761 C 0.62418 0.00279 0.39563
 C762 C 0.63011 0.02136 0.37358
 C763 C 0.65486 0.03679 0.37246
 C764 C 0.67425 0.03311 0.39513
 C765 C 0.66856 0.01439 0.41847
 C766 C 0.64306 -0.00106 0.41849
 H767 H 0.61587 0.04925 0.32045
 H768 H 0.57117 0.03809 0.29566
 H769 H 0.55106 -0.02223 0.36379
 H770 H 0.65917 0.05108 0.35472
 H771 H 0.69379 0.04471 0.39433
 H772 H 0.63776 -0.01528 0.43597
 C773 C 0.87131 0.47818 0.07095
 C774 C 0.86058 0.45669 0.08781
 C775 C 0.83807 0.44034 0.07936
 C776 C 0.82572 0.44685 0.05274
 C777 C 0.83583 0.46956 0.03527
 C778 C 0.85939 0.48501 0.04445
 O779 O 0.89200 0.49191 0.08325
 C780 C 0.89429 0.47893 0.10848
 C781 C 0.87554 0.45728 0.11243
 C782 C 0.87348 0.44188 0.13787
 C783 C 0.89152 0.44910 0.16008
 C784 C 0.91122 0.47132 0.15650
 C785 C 0.91259 0.48620 0.13007
 H786 H 0.82990 0.42357 0.09299
 H787 H 0.80790 0.43461 0.04597
 H788 H 0.86724 0.50287 0.03204
 H789 H 0.85822 0.42523 0.14067
 H790 H 0.88970 0.43772 0.18015
 H791 H 0.92748 0.50302 0.12625
 C792 C 0.41758 -0.00828 0.65537
 C793 C 0.40311 -0.03169 0.66501
 C794 C 0.41063 -0.04694 0.68983
 C795 C 0.43401 -0.03766 0.70532
 C796 C 0.44950 -0.01387 0.69555
 C797 C 0.44120 0.00096 0.67017
 O798 O 0.40664 0.00357 0.63167
 C799 C 0.38487 -0.01279 0.62613
 C800 C 0.38191 -0.03480 0.64575
 C801 C 0.36079 -0.05479 0.64372
 C802 C 0.34195 -0.05193 0.62052
 C803 C 0.34430 -0.02912 0.60030
 C804 C 0.36606 -0.00925 0.60322
 H805 H 0.39883 -0.06520 0.69708
 H806 H 0.44030 -0.04915 0.72473
 H807 H 0.45257 0.01933 0.66242
 H808 H 0.35896 -0.07201 0.65934
 H809 H 0.32530 -0.06719 0.61846
 H810 H 0.36842 0.00820 0.58793
   
