data_POSCAR
  _audit_creation_date              2014-09-24
  _audit_creation_method            'ToBaCCo'
  _symmetry_space_group_name_H-M    'P1'
  _symmetry_Int_Tables_number       1
  _symmetry_cell_setting            triclinic
  loop_
  _symmetry_equiv_pos_as_xyz
 x,y,z
_cell_length_a 31.0133
_cell_length_b 10.5900
_cell_length_c 12.8389
_cell_angle_alpha 90.628100
_cell_angle_beta 91.358900
_cell_angle_gamma 105.359100
loop_
  _atom_site_label
  _atom_site_type_symbol
  _atom_site_fract_x
  _atom_site_fract_y
  _atom_site_fract_z
C1 C 0.68015 0.30562 0.65578
 C2 C 0.65762 0.35655 0.57854
 C3 C 0.66585 0.34283 0.47313
 C4 C 0.69939 0.28118 0.44382
 C5 C 0.72349 0.23336 0.52284
 C6 C 0.71415 0.24752 0.62907
 C7 C 0.73829 0.20054 0.70656
 C8 C 0.77012 0.13620 0.68008
 C9 C 0.77876 0.11631 0.57517
 C10 C 0.75598 0.16731 0.49594
 C11 C 0.71019 0.26758 0.33923
 C12 C 0.74219 0.20224 0.31281
 C13 C 0.76493 0.14954 0.39011
 C14 C 0.79628 0.07910 0.36458
 C15 C 0.81750 0.02562 0.44339
 C16 C 0.80887 0.04359 0.54801
 H17 H 0.73234 0.21210 0.78846
 H18 H 0.78740 0.10013 0.74261
 H19 H 0.69459 0.30852 0.27671
 H20 H 0.74893 0.19291 0.23113
 H21 H 0.63088 0.39930 0.59998
 H22 H 0.84060 -0.03118 0.42311
 C23 C 0.35363 0.90633 0.37445
 C24 C 0.38506 0.92363 0.45739
 C25 C 0.37236 0.92443 0.56127
 C26 C 0.32757 0.91397 0.58367
 C27 C 0.29565 0.90548 0.50139
 C28 C 0.30857 0.90195 0.39621
 C29 C 0.27624 0.89614 0.31641
 C30 C 0.23225 0.89683 0.33973
 C31 C 0.21849 0.89481 0.44373
 C32 C 0.25051 0.89643 0.52500
 C33 C 0.31378 0.90538 0.68731
 C34 C 0.26933 0.89070 0.71026
 C35 C 0.23737 0.88697 0.63043
 C36 C 0.19240 0.87236 0.65383
 C37 C 0.16191 0.88133 0.57501
 C38 C 0.17402 0.89243 0.47082
 H39 H 0.28532 0.89589 0.23549
 H40 H 0.20921 0.89799 0.27551
 H41 H 0.33735 0.90993 0.75175
 H42 H 0.26024 0.88450 0.79135
 H43 H 0.41898 0.92091 0.44163
 H44 H 0.12741 0.87313 0.59417
 C45 C 0.30515 0.22585 -0.60193
 C46 C 0.32833 0.21309 -0.50947
 C47 C 0.31170 0.23278 -0.41211
 C48 C 0.26931 0.25708 -0.40658
 C49 C 0.24439 0.26311 -0.49955
 C50 C 0.26225 0.24593 -0.59736
 C51 C 0.23794 0.25636 -0.68905
 C52 C 0.19699 0.28694 -0.68477
 C53 C 0.17970 0.31114 -0.58859
 C54 C 0.20353 0.29852 -0.49521
 C55 C 0.25221 0.28133 -0.31044
 C56 C 0.21178 0.31500 -0.30595
 C57 C 0.18749 0.32661 -0.39771
 C58 C 0.14793 0.36788 -0.39480
 C59 C 0.12446 0.37896 -0.48675
 C60 C 0.13981 0.35101 -0.58314
 H61 H 0.25067 0.24136 -0.76475
 H62 H 0.17946 0.29468 -0.75740
 H63 H 0.27031 0.27557 -0.23821
 H64 H 0.20008 0.33455 -0.23018
 H65 H 0.36276 0.20853 -0.51345
 H66 H 0.09384 0.40991 -0.48319
 C67 C -0.30070 0.81628 -0.41609
 C68 C -0.31559 0.85546 -0.51048
 C69 C -0.30298 0.81235 -0.60517
 C70 C -0.27495 0.72657 -0.60673
 C71 C -0.25958 0.68621 -0.51113
 C72 C -0.27269 0.73088 -0.41529
 C73 C -0.25651 0.69194 -0.32128
 C74 C -0.22596 0.61653 -0.32154
 C75 C -0.21140 0.57524 -0.41562
 C76 C -0.22942 0.60611 -0.51118
 C77 C -0.26105 0.68257 -0.70078
 C78 C -0.23136 0.60364 -0.70067
 C79 C -0.21450 0.56638 -0.60651
 C80 C -0.18175 0.49512 -0.60481
 C81 C -0.16359 0.46798 -0.50918
 C82 C -0.17639 0.51378 -0.41503
 H83 H -0.26627 0.72311 -0.24688
 H84 H -0.21320 0.59195 -0.24735
 H85 H -0.27251 0.71083 -0.77509
 H86 H -0.22101 0.57389 -0.77492
 H87 H -0.33676 0.92229 -0.51028
 H88 H -0.13534 0.42574 -0.50907
 N89 N -0.03517 0.64903 -0.12064
 N90 N -0.06551 0.53800 -0.14653
 N91 N 0.05787 0.85599 -0.14710
 N92 N 0.09655 0.88263 -0.19369
 N93 N 0.05641 0.77012 -0.07325
 N94 N 0.09475 0.73810 -0.06575
 N95 N -0.03093 0.73260 -0.19701
 N96 N -0.05757 0.68214 -0.27611
 C97 C -0.07843 0.56121 -0.24486
 C98 C 0.11913 0.80927 -0.14132
 N99 N 0.02519 1.18790 -0.10640
 N100 N 0.05059 1.30890 -0.11357
 N101 N -0.05039 0.97912 -0.21735
 N102 N -0.08114 0.92765 -0.28947
 N103 N -0.06500 1.05451 -0.15274
 N104 N -0.10635 1.05569 -0.17949
 N105 N 0.03902 1.10777 -0.16784
 N106 N 0.07379 1.17203 -0.22036
 Mn107 Mn 0.00433 0.91945 -0.18277
 C108 C 0.08074 1.29660 -0.18425
 C109 C -0.11512 0.97920 -0.26684
 N110 N 0.03814 0.77044 0.14338
 N111 N 0.07591 0.74415 0.17251
 N112 N -0.06290 0.73513 0.16902
 N113 N -0.09742 0.67767 0.22538
 N114 N -0.05352 0.65125 0.10256
 N115 N -0.08155 0.53384 0.11226
 N116 N 0.02880 0.85741 0.20667
 N117 N 0.06005 0.89255 0.28108
 Mn118 Mn 0.00116 0.70789 0.01307
 C119 C 0.08910 0.82113 0.25794
 C120 C -0.10874 0.55279 0.18868
 N121 N -0.08284 1.05917 0.06694
 N122 N -0.12074 1.09322 0.06209
 N123 N 0.01051 1.11135 0.18622
 N124 N 0.04279 1.16913 0.25366
 N125 N 0.00763 1.19030 0.10955
 N126 N 0.03791 1.30358 0.12248
 N127 N -0.08105 0.98747 0.14900
 N128 N -0.11774 0.97213 0.20347
 Mn129 Mn -0.02922 1.12362 -0.02086
 Mn130 Mn -0.02605 0.92304 0.17929
 Cl131 Cl -0.01259 0.91808 -0.00263
 C132 C -0.14208 1.03776 0.14709
 C133 C 0.05900 1.28931 0.21286
 N134 N 0.57590 0.79329 -0.11668
 N135 N 0.61290 0.88738 -0.13036
 N136 N 0.48381 0.66146 -0.21458
 N137 N 0.46174 0.66626 -0.30233
 N138 N 0.48360 0.76088 -0.15241
 N139 N 0.46099 0.83682 -0.19730
 N140 N 0.57470 0.69227 -0.17806
 N141 N 0.61029 0.71484 -0.23621
 C142 C 0.63384 0.83600 -0.20455
 C143 C 0.44758 0.77452 -0.29030
 N144 N 0.45672 0.30208 -0.11529
 N145 N 0.41759 0.21623 -0.13561
 N146 N 0.55838 0.41426 -0.15563
 N147 N 0.59583 0.40945 -0.19981
 N148 N 0.54937 0.33222 -0.07832
 N149 N 0.58104 0.27089 -0.06601
 N150 N 0.46675 0.38643 -0.19105
 N151 N 0.43481 0.36337 -0.26325
 Mn152 Mn 0.52107 0.53807 -0.18529
 C153 C 0.40470 0.25745 -0.22819
 C154 C 0.60927 0.31956 -0.14299
 N155 N 0.47283 0.79126 0.07412
 N156 N 0.44955 0.87857 0.08844
 N157 N 0.55769 0.73832 0.18015
 N158 N 0.59360 0.75534 0.24163
 N159 N 0.56560 0.82105 0.10282
 N160 N 0.60709 0.89591 0.10948
 N161 N 0.46426 0.70403 0.14807
 N162 N 0.43382 0.72570 0.21058
 Mn163 Mn 0.52426 0.79333 -0.02313
 C164 C 0.42400 0.83278 0.17168
 C165 C 0.62366 0.85515 0.19717
 N166 N 0.53873 0.35799 0.13999
 N167 N 0.56658 0.28991 0.17121
 N168 N 0.44903 0.42963 0.16903
 N169 N 0.41595 0.40543 0.23425
 N170 N 0.44677 0.32718 0.10849
 N171 N 0.41289 0.22802 0.13422
 N172 N 0.54164 0.45915 0.20238
 N173 N 0.57150 0.46278 0.27825
 Mn174 Mn 0.49754 0.32817 0.01349
 Mn175 Mn 0.50323 0.58324 0.17581
 Cl176 Cl 0.51132 0.56101 -0.00473
 C177 C 0.58681 0.35711 0.25697
 C178 C 0.39333 0.28089 0.21036
 N179 N 0.33096 0.26500 0.30775
 N180 N 0.35983 0.20878 0.27645
 N181 N -0.16302 0.47102 0.30919
 N182 N -0.14403 0.45112 0.22969
 N183 N 0.68319 0.85647 0.30905
 N184 N 0.66949 0.89993 0.23008
 N185 N 0.11756 1.36807 0.33266
 N186 N 0.09679 1.38672 0.25401
 N187 N 0.66469 0.29488 -0.24999
 N188 N 0.64856 0.27937 -0.16300
 N189 N 0.17763 0.83817 -0.25316
 N190 N 0.16272 0.80150 -0.16740
 N191 N 0.40212 0.90516 -0.35718
 N192 N 0.42060 0.81271 -0.36840
 N193 N -0.17363 0.98453 -0.37996
 N194 N -0.15882 0.92731 -0.31064
 N195 N 0.68719 0.86201 -0.32957
 N196 N 0.67471 0.90504 -0.24952
 N197 N 0.13101 1.38961 -0.30646
 N198 N 0.11319 1.40484 -0.22458
 N199 N 0.34393 0.27309 -0.32871
 N200 N 0.36471 0.19753 -0.28636
 N201 N -0.14393 0.54856 -0.33157
 N202 N -0.11645 0.48489 -0.30235
 N203 N 0.36596 0.85695 0.27784
 N204 N 0.40312 0.91000 0.23567
 N205 N -0.19375 1.06423 0.26757
 N206 N -0.18440 1.05446 0.17575
 N207 N 0.63668 0.38428 0.40057
 N208 N 0.61836 0.31548 0.32169
 N209 N 0.13918 0.89850 0.39747
 N210 N 0.12749 0.81904 0.32084
   
