data_POSCAR
  _audit_creation_date              2014-09-24
  _audit_creation_method            'ToBaCCo'
  _symmetry_space_group_name_H-M    'P1'
  _symmetry_Int_Tables_number       1
  _symmetry_cell_setting            triclinic
  loop_
  _symmetry_equiv_pos_as_xyz
 x,y,z
_cell_length_a 48.5759
_cell_length_b 29.8941
_cell_length_c 19.5466
_cell_angle_alpha 90.197400
_cell_angle_beta 89.984300
_cell_angle_gamma 89.962600
loop_
  _atom_site_label
  _atom_site_type_symbol
  _atom_site_fract_x
  _atom_site_fract_y
  _atom_site_fract_z
O1 O 0.71398 0.23743 0.43227
 O2 O 0.76016 0.19053 0.56315
 O3 O 0.71329 0.23333 0.56560
 O4 O 0.76101 0.19446 0.43159
 O5 O 0.78317 0.25881 0.43702
 O6 O 0.73480 0.29816 0.56925
 O7 O 0.78196 0.25510 0.57019
 O8 O 0.73635 0.30154 0.43792
 Cu9 Cu 0.73482 0.20756 0.49756
 Cu10 Cu 0.76136 0.28477 0.50431
 C11 C 0.71707 0.27774 0.41333
 C12 C 0.77921 0.21457 0.58832
 C13 C 0.71546 0.27280 0.58944
 C14 C 0.78052 0.21970 0.41225
 O15 O 0.26654 0.70138 0.56407
 O16 O 0.21800 0.74600 0.43596
 O17 O 0.26511 0.70355 0.43272
 O18 O 0.21884 0.74273 0.56931
 O19 O 0.23974 0.80825 0.56961
 O20 O 0.28712 0.76809 0.43554
 O21 O 0.24008 0.81047 0.43806
 O22 O 0.28713 0.76697 0.56887
 Cu23 Cu 0.23986 0.71697 0.50037
 Cu24 Cu 0.26575 0.79486 0.50327
 C25 C 0.28543 0.72643 0.58783
 C26 C 0.22064 0.78614 0.41564
 C27 C 0.28439 0.72869 0.41183
 C28 C 0.22097 0.78251 0.59176
 O29 O 0.26114 0.30686 -0.56729
 O30 O 0.21484 0.25992 -0.43664
 O31 O 0.26138 0.30446 -0.43584
 O32 O 0.21475 0.26237 -0.57028
 O33 O 0.23741 0.19850 -0.57184
 O34 O 0.28425 0.24065 -0.43882
 O35 O 0.23792 0.19638 -0.44024
 O36 O 0.28364 0.24288 -0.57210
 Cu37 Cu 0.23562 0.28970 -0.50212
 Cu38 Cu 0.26316 0.21332 -0.50604
 C39 C 0.28060 0.28315 -0.59152
 C40 C 0.21826 0.21987 -0.41675
 C41 C 0.28110 0.28000 -0.41536
 C42 C 0.21783 0.22285 -0.59345
 O43 O -0.23764 0.80237 -0.56233
 O44 O -0.28308 0.75564 -0.43026
 O45 O -0.23683 0.80022 -0.43069
 O46 O -0.28362 0.75669 -0.56376
 O47 O -0.25986 0.69378 -0.56682
 O48 O -0.21419 0.73618 -0.43165
 O49 O -0.26055 0.69172 -0.43529
 O50 O -0.21395 0.73938 -0.56486
 Cu51 Cu -0.26271 0.78500 -0.49653
 Cu52 Cu -0.23473 0.70899 -0.49994
 C53 C -0.21767 0.77929 -0.58512
 C54 C -0.28002 0.71537 -0.41097
 C55 C -0.21734 0.77572 -0.40898
 C56 C -0.27989 0.71748 -0.58740
 N57 N 0.02909 1.07904 -0.07714
 N58 N 0.05002 1.10637 -0.08801
 N59 N -0.02872 1.04563 -0.12206
 N60 N -0.05000 1.04866 -0.16358
 N61 N -0.02885 1.07853 -0.07739
 N62 N -0.05016 1.10518 -0.08788
 N63 N 0.02927 1.04612 -0.12177
 N64 N 0.05042 1.04978 -0.16360
 C65 C 0.06317 1.08749 -0.14211
 C66 C -0.06316 1.08597 -0.14187
 N67 N -0.02827 0.91917 -0.06917
 N68 N -0.04921 0.89144 -0.07712
 N69 N 0.02961 0.95027 -0.11686
 N70 N 0.05086 0.94497 -0.15806
 N71 N 0.02964 0.91963 -0.06891
 N72 N 0.05081 0.89227 -0.07670
 N73 N -0.02840 0.94979 -0.11715
 N74 N -0.04952 0.94407 -0.15857
 Mn75 Mn 0.00044 0.99794 -0.12020
 C76 C -0.06231 0.90756 -0.13311
 C77 C 0.06388 0.90867 -0.13255
 N78 N -0.02896 1.08211 0.07035
 N79 N -0.05003 1.10964 0.07846
 N80 N 0.02907 1.05180 0.11843
 N81 N 0.05034 1.05705 0.15946
 N82 N 0.02891 1.08265 0.07078
 N83 N 0.04992 1.11028 0.07886
 N84 N -0.02895 1.05142 0.11822
 N85 N -0.05010 1.05684 0.15966
 Mn86 Mn 0.00005 1.08124 -0.00340
 C87 C -0.06305 1.09326 0.13438
 C88 C 0.06309 1.09368 0.13441
 N89 N 0.02946 0.92308 0.07879
 N90 N 0.05046 0.89593 0.08999
 N91 N -0.02865 0.95557 0.12312
 N92 N -0.04979 0.95179 0.16498
 N93 N -0.02842 0.92267 0.07847
 N94 N -0.04930 0.89524 0.08932
 N95 N 0.02934 0.95597 0.12345
 N96 N 0.05037 0.95248 0.16567
 Mn97 Mn 0.00060 0.92050 0.00481
 Mn98 Mn 0.00020 1.00372 0.12153
 Cl99 Cl 0.00033 1.00086 0.00069
 C100 C 0.06334 0.91489 0.14436
 C101 C -0.06246 0.91402 0.14345
 N102 N 0.47026 0.42050 -0.07266
 N103 N 0.44916 0.39333 -0.08209
 N104 N 0.52885 0.44896 -0.11877
 N105 N 0.54993 0.44248 -0.16014
 N106 N 0.52804 0.41793 -0.07144
 N107 N 0.54834 0.38900 -0.08002
 N108 N 0.47078 0.45151 -0.12004
 N109 N 0.44992 0.44658 -0.16258
 C110 C 0.43661 0.41016 -0.13831
 C111 C 0.56187 0.40496 -0.13544
 N112 N 0.53084 0.57718 -0.07600
 N113 N 0.55217 0.60377 -0.08609
 N114 N 0.47237 0.54763 -0.12275
 N115 N 0.45144 0.55309 -0.16496
 N116 N 0.47309 0.58003 -0.07726
 N117 N 0.45288 0.60873 -0.08778
 N118 N 0.53049 0.54480 -0.12155
 N119 N 0.55177 0.54800 -0.16314
 Mn120 Mn 0.50060 0.49822 -0.12161
 C121 C 0.56507 0.58494 -0.14052
 C122 C 0.43951 0.59139 -0.14255
 N123 N 0.52755 0.42021 0.07645
 N124 N 0.54837 0.39251 0.08678
 N125 N 0.46975 0.45523 0.12008
 N126 N 0.44843 0.45188 0.16151
 N127 N 0.46970 0.42263 0.07492
 N128 N 0.44850 0.39578 0.08502
 N129 N 0.52775 0.45259 0.12198
 N130 N 0.54880 0.44822 0.16389
 Mn131 Mn 0.49890 0.41970 0.00183
 C132 C 0.56144 0.41059 0.14159
 C133 C 0.43539 0.41464 0.13910
 N134 N 0.47242 0.58224 0.07021
 N135 N 0.45203 0.61105 0.07850
 N136 N 0.52944 0.54834 0.11918
 N137 N 0.55037 0.55251 0.16154
 N138 N 0.53025 0.57940 0.07192
 N139 N 0.55163 0.60605 0.08150
 N140 N 0.47148 0.55110 0.11732
 N141 N 0.45033 0.55750 0.15844
 Mn142 Mn 0.50169 0.58031 -0.00282
 Mn143 Mn 0.49957 0.50182 0.12037
 Cl144 Cl 0.50020 0.50001 -0.00058
 C145 C 0.43839 0.59500 0.13372
 C146 C 0.56400 0.58865 0.13760
 C147 C 0.34057 0.34204 0.27980
 C148 C 0.33992 0.29512 0.28855
 C149 C 0.31974 0.27558 0.33035
 C150 C 0.29934 0.30200 0.36198
 C151 C 0.29884 0.34817 0.34834
 C152 C 0.31923 0.36798 0.30830
 C153 C 0.36408 0.36203 0.24086
 C154 C 0.36898 0.40847 0.23858
 C155 C 0.39203 0.42536 0.20483
 C156 C 0.41038 0.39654 0.17128
 C157 C 0.40552 0.35035 0.17211
 C158 C 0.38303 0.33284 0.20839
 C159 C 0.35945 0.26803 0.25571
 C160 C 0.38014 0.28644 0.21511
 H161 H 0.35870 0.23199 0.26132
 H162 H 0.39472 0.26405 0.19067
 H163 H 0.32008 0.23970 0.33842
 H164 H 0.28319 0.36958 0.37062
 H165 H 0.39558 0.46114 0.20508
 H166 H 0.42005 0.32793 0.14748
 H167 H 0.31797 0.40362 0.30050
 H168 H 0.35577 0.43218 0.26431
 C169 C -0.15681 0.84096 0.28594
 C170 C -0.15913 0.79378 0.28795
 C171 C -0.17941 0.77363 0.32891
 C172 C -0.19795 0.79994 0.36676
 C173 C -0.19662 0.84665 0.36123
 C174 C -0.17635 0.86696 0.32154
 C175 C -0.13343 0.86112 0.24669
 C176 C -0.12737 0.90720 0.24869
 C177 C -0.10451 0.92411 0.21431
 C178 C -0.08737 0.89577 0.17613
 C179 C -0.09344 0.84998 0.17249
 C180 C -0.11592 0.83232 0.20883
 C181 C -0.14110 0.76709 0.24948
 C182 C -0.12028 0.78600 0.20979
 H183 H -0.14309 0.73099 0.25014
 H184 H -0.10685 0.76389 0.18107
 H185 H -0.18059 0.73747 0.33183
 H186 H -0.21081 0.86776 0.38939
 H187 H -0.10014 0.95957 0.21787
 H188 H -0.07997 0.82784 0.14390
 H189 H -0.17625 0.90301 0.31988
 H190 H -0.13953 0.93061 0.27795
 C191 C 0.65910 0.65897 0.28032
 C192 C 0.66136 0.70607 0.28534
 C193 C 0.68168 0.72530 0.32743
 C194 C 0.70034 0.69814 0.36318
 C195 C 0.69913 0.65161 0.35428
 C196 C 0.67881 0.63221 0.31358
 C197 C 0.63558 0.63963 0.24054
 C198 C 0.62938 0.59360 0.24072
 C199 C 0.60634 0.57738 0.20627
 C200 C 0.58919 0.60635 0.16966
 C201 C 0.59538 0.65212 0.16772
 C202 C 0.61800 0.66912 0.20448
 C203 C 0.64324 0.73352 0.24870
 C204 C 0.62239 0.71540 0.20801
 H205 H 0.64520 0.76959 0.25154
 H206 H 0.60890 0.73807 0.18075
 H207 H 0.68280 0.76136 0.33286
 H208 H 0.71344 0.62986 0.38063
 H209 H 0.60181 0.54195 0.20858
 H210 H 0.58182 0.67474 0.14052
 H211 H 0.67883 0.59625 0.30927
 H212 H 0.64152 0.56970 0.26884
 C213 C 0.15813 1.16665 0.27375
 C214 C 0.15789 1.21310 0.28760
 C215 C 0.17799 1.23195 0.33070
 C216 C 0.19907 1.20529 0.35869
 C217 C 0.20036 1.15986 0.33989
 C218 C 0.18017 1.14076 0.29842
 C219 C 0.13471 1.14695 0.23400
 C220 C 0.13078 1.10044 0.22738
 C221 C 0.10770 1.08354 0.19383
 C222 C 0.08833 1.11241 0.16462
 C223 C 0.09224 1.15876 0.16932
 C224 C 0.11482 1.17621 0.20574
 C225 C 0.13752 1.24033 0.25859
 C226 C 0.11683 1.22239 0.21717
 H227 H 0.13756 1.27607 0.26803
 H228 H 0.10156 1.24486 0.19599
 H229 H 0.17701 1.26734 0.34280
 H230 H 0.21656 1.13835 0.35906
 H231 H 0.10485 1.04764 0.19107
 H232 H 0.07689 1.18113 0.14815
 H233 H 0.18215 1.10565 0.28655
 H234 H 0.14473 1.07656 0.24985
 C235 C 0.65356 0.32312 -0.27782
 C236 C 0.67336 0.35217 -0.30668
 C237 C 0.69479 0.33486 -0.34707
 C238 C 0.69587 0.28902 -0.36360
 C239 C 0.67586 0.26042 -0.33565
 C240 C 0.65521 0.27707 -0.29278
 C241 C 0.63073 0.34308 -0.23602
 C242 C 0.61145 0.31702 -0.19979
 C243 C 0.58958 0.33730 -0.16501
 C244 C 0.58623 0.38381 -0.16657
 C245 C 0.60589 0.41017 -0.19995
 C246 C 0.62839 0.39026 -0.23324
 C247 C 0.67089 0.39855 -0.29800
 C248 C 0.64852 0.41723 -0.26354
 H249 H 0.68594 0.42088 -0.32044
 H250 H 0.64701 0.45336 -0.26033
 H251 H 0.70970 0.35773 -0.36890
 H252 H 0.67595 0.22495 -0.34724
 H253 H 0.57475 0.31649 -0.13869
 H254 H 0.60371 0.44628 -0.19969
 H255 H 0.64022 0.25358 -0.27381
 H256 H 0.61290 0.28104 -0.19777
 C257 C 0.15817 0.83270 -0.27266
 C258 C 0.17421 0.86237 -0.31253
 C259 C 0.19563 0.84582 -0.35360
 C260 C 0.20068 0.79971 -0.35829
 C261 C 0.18476 0.77029 -0.31903
 C262 C 0.16393 0.78651 -0.27625
 C263 C 0.13484 0.85167 -0.23137
 C264 C 0.11846 0.82560 -0.18717
 C265 C 0.09589 0.84445 -0.15321
 C266 C 0.08900 0.88946 -0.16314
 C267 C 0.10580 0.91610 -0.20465
 C268 C 0.12879 0.89779 -0.23793
 C269 C 0.16804 0.90813 -0.31362
 C270 C 0.14555 0.92534 -0.27801
 H271 H 0.18029 0.93081 -0.34423
 H272 H 0.14114 0.96079 -0.28215
 H273 H 0.20750 0.86878 -0.38471
 H274 H 0.18821 0.73454 -0.32202
 H275 H 0.08332 0.82345 -0.12072
 H276 H 0.10090 0.95122 -0.21130
 H277 H 0.15208 0.76226 -0.24807
 H278 H 0.12263 0.79064 -0.17846
 C279 C 0.34775 0.67361 -0.28368
 C280 C 0.32864 0.64479 -0.31610
 C281 C 0.30704 0.66265 -0.35527
 C282 C 0.30510 0.70903 -0.36667
 C283 C 0.32442 0.73737 -0.33508
 C284 C 0.34522 0.72005 -0.29368
 C285 C 0.37073 0.65324 -0.24319
 C286 C 0.38932 0.67891 -0.20403
 C287 C 0.41123 0.65850 -0.17001
 C288 C 0.41535 0.61224 -0.17500
 C289 C 0.39645 0.58613 -0.21174
 C290 C 0.37389 0.60617 -0.24455
 C291 C 0.33197 0.59831 -0.31194
 C292 C 0.35444 0.57945 -0.27826
 H293 H 0.31747 0.57615 -0.33709
 H294 H 0.35656 0.54337 -0.27830
 H295 H 0.29267 0.64003 -0.38000
 H296 H 0.32367 0.77324 -0.34264
 H297 H 0.42541 0.67915 -0.14109
 H298 H 0.39917 0.55015 -0.21424
 H299 H 0.35964 0.74351 -0.27182
 H300 H 0.38727 0.71469 -0.19885
 C301 C -0.15913 1.15498 -0.28271
 C302 C -0.16251 1.20200 -0.28360
 C303 C -0.18313 1.22139 -0.32436
 C304 C -0.20092 1.19446 -0.36332
 C305 C -0.19857 1.14780 -0.35890
 C306 C -0.17797 1.12825 -0.31929
 C307 C -0.13534 1.13578 -0.24374
 C308 C -0.12829 1.09009 -0.24661
 C309 C -0.10505 1.07418 -0.21262
 C310 C -0.08850 1.10314 -0.17400
 C311 C -0.09559 1.14851 -0.16938
 C312 C -0.11848 1.16520 -0.20525
 C313 C -0.14514 1.22932 -0.24438
 C314 C -0.12390 1.21124 -0.20512
 H315 H -0.14795 1.26529 -0.24419
 H316 H -0.11099 1.23384 -0.17588
 H317 H -0.18509 1.25750 -0.32643
 H318 H -0.21216 1.12620 -0.38792
 H319 H -0.09993 1.03901 -0.21691
 H320 H -0.08260 1.17116 -0.14038
 H321 H -0.17704 1.09222 -0.31857
 H322 H -0.13995 1.06624 -0.27624
 C323 C 0.66000 0.65672 -0.28194
 C324 C 0.66080 0.70364 -0.29055
 C325 C 0.68097 0.72306 -0.33250
 C326 C 0.70123 0.69652 -0.36442
 C327 C 0.70161 0.65032 -0.35098
 C328 C 0.68120 0.63063 -0.31080
 C329 C 0.63648 0.63691 -0.24276
 C330 C 0.63141 0.59051 -0.24051
 C331 C 0.60833 0.57383 -0.20658
 C332 C 0.59014 0.60280 -0.17282
 C333 C 0.59518 0.64893 -0.17356
 C334 C 0.61769 0.66625 -0.21002
 C335 C 0.64142 0.73088 -0.25741
 C336 C 0.62073 0.71262 -0.21665
 H337 H 0.64230 0.76691 -0.26292
 H338 H 0.60628 0.73513 -0.19200
 H339 H 0.68073 0.75895 -0.34041
 H340 H 0.71715 0.62883 -0.37351
 H341 H 0.60464 0.53808 -0.20689
 H342 H 0.58077 0.67148 -0.14875
 H343 H 0.68233 0.59495 -0.30316
 H344 H 0.64450 0.56670 -0.26638
 C345 C 0.15754 1.15927 -0.28609
 C346 C 0.15994 1.20642 -0.28883
 C347 C 0.18017 1.22621 -0.33035
 C348 C 0.19857 1.19959 -0.36813
 C349 C 0.19715 1.15292 -0.36192
 C350 C 0.17694 1.13296 -0.32162
 C351 C 0.13420 1.13947 -0.24622
 C352 C 0.12809 1.09340 -0.24737
 C353 C 0.10524 1.07682 -0.21260
 C354 C 0.08815 1.10548 -0.17484
 C355 C 0.09429 1.15126 -0.17192
 C356 C 0.11677 1.16858 -0.20868
 C357 C 0.14202 1.23343 -0.25056
 C358 C 0.12121 1.21488 -0.21040
 H359 H 0.14406 1.26952 -0.25178
 H360 H 0.10785 1.23724 -0.18191
 H361 H 0.18140 1.26235 -0.33378
 H362 H 0.21124 1.13156 -0.38997
 H363 H 0.10082 1.04135 -0.21559
 H364 H 0.08086 1.17364 -0.14366
 H365 H 0.17678 1.09693 -0.31946
 H366 H 0.14020 1.06973 -0.27628
 C367 C 0.34356 0.33243 -0.28119
 C368 C 0.32785 0.36141 -0.32303
 C369 C 0.30648 0.34424 -0.36369
 C370 C 0.30129 0.29813 -0.36608
 C371 C 0.31699 0.26937 -0.32519
 C372 C 0.33769 0.28624 -0.28273
 C373 C 0.36666 0.35199 -0.23991
 C374 C 0.38247 0.32671 -0.19345
 C375 C 0.40474 0.34600 -0.15907
 C376 C 0.41192 0.39070 -0.17068
 C377 C 0.39574 0.41662 -0.21478
 C378 C 0.37301 0.39784 -0.24856
 C379 C 0.33431 0.40700 -0.32641
 C380 C 0.35671 0.42466 -0.29096
 H381 H 0.32237 0.42916 -0.35866
 H382 H 0.36136 0.45987 -0.29691
 H383 H 0.29481 0.36659 -0.39627
 H384 H 0.31343 0.23361 -0.32656
 H385 H 0.41679 0.32555 -0.12460
 H386 H 0.40085 0.45153 -0.22279
 H387 H 0.34935 0.26246 -0.25316
 H388 H 0.37803 0.29204 -0.18308
 C389 C -0.15551 0.82869 -0.27346
 C390 C -0.17167 0.85763 -0.31431
 C391 C -0.19283 0.84024 -0.35540
 C392 C -0.19741 0.79398 -0.35912
 C393 C -0.18136 0.76529 -0.31892
 C394 C -0.16084 0.78235 -0.27612
 C395 C -0.13249 0.84849 -0.23217
 C396 C -0.11609 0.82315 -0.18702
 C397 C -0.09378 0.84270 -0.15310
 C398 C -0.08717 0.88771 -0.16394
 C399 C -0.10401 0.91367 -0.20640
 C400 C -0.12675 0.89464 -0.23971
 C401 C -0.16585 0.90349 -0.31635
 C402 C -0.14360 0.92147 -0.28074
 H403 H -0.17818 0.92563 -0.34771
 H404 H -0.13945 0.95695 -0.28563
 H405 H -0.20480 0.86259 -0.38729
 H406 H -0.18447 0.72944 -0.32117
 H407 H -0.08119 0.82223 -0.11984
 H408 H -0.09934 0.94880 -0.21376
 H409 H -0.14887 0.75862 -0.24722
 H410 H -0.12005 0.78822 -0.17751
 C411 C 0.34630 0.67622 0.27573
 C412 C 0.32918 0.64716 0.31380
 C413 C 0.30815 0.66465 0.35513
 C414 C 0.30453 0.71100 0.36189
 C415 C 0.32155 0.73985 0.32455
 C416 C 0.34204 0.72277 0.28149
 C417 C 0.36911 0.65611 0.23394
 C418 C 0.38645 0.68159 0.19122
 C419 C 0.40847 0.66148 0.15671
 C420 C 0.41383 0.61576 0.16465
 C421 C 0.39606 0.58980 0.20462
 C422 C 0.37362 0.60941 0.23839
 C423 C 0.33384 0.60094 0.31282
 C424 C 0.35586 0.58254 0.27684
 H425 H 0.32075 0.57873 0.34209
 H426 H 0.35909 0.54669 0.27935
 H427 H 0.29542 0.64207 0.38474
 H428 H 0.31921 0.77577 0.32919
 H429 H 0.42182 0.68198 0.12542
 H430 H 0.39979 0.55418 0.20968
 H431 H 0.35478 0.74653 0.25479
 H432 H 0.38346 0.71703 0.18413
 C433 C -0.15663 1.16975 0.27663
 C434 C -0.17303 1.13997 0.31537
 C435 C -0.19440 1.15651 0.35661
 C436 C -0.19901 1.20267 0.36265
 C437 C -0.18265 1.23222 0.32477
 C438 C -0.16188 1.21604 0.28177
 C439 C -0.13348 1.15073 0.23480
 C440 C -0.11690 1.17693 0.19124
 C441 C -0.09452 1.15794 0.15668
 C442 C -0.08802 1.11268 0.16541
 C443 C -0.10504 1.08595 0.20624
 C444 C -0.12785 1.10440 0.24004
 C445 C -0.16729 1.09406 0.31514
 C446 C -0.14490 1.07676 0.27924
 H447 H -0.17980 1.07129 0.34494
 H448 H -0.14082 1.04116 0.28235
 H449 H -0.20661 1.13346 0.38674
 H450 H -0.18576 1.26801 0.32888
 H451 H -0.08177 1.17901 0.12472
 H452 H -0.10044 1.05064 0.21191
 H453 H -0.14969 1.24035 0.25462
 H454 H -0.12078 1.21207 0.18346
 C455 C 0.65625 0.33834 0.28308
 C456 C 0.65872 0.29120 0.28554
 C457 C 0.67903 0.27137 0.32682
 C458 C 0.69740 0.29799 0.36463
 C459 C 0.69594 0.34466 0.35852
 C460 C 0.67568 0.36463 0.31844
 C461 C 0.63278 0.35818 0.24378
 C462 C 0.62657 0.40420 0.24563
 C463 C 0.60360 0.42085 0.21148
 C464 C 0.58649 0.39235 0.17364
 C465 C 0.59271 0.34660 0.17003
 C466 C 0.61532 0.32917 0.20624
 C467 C 0.64078 0.26426 0.24730
 C468 C 0.61986 0.28288 0.20751
 H469 H 0.64289 0.22817 0.24827
 H470 H 0.60649 0.26058 0.17904
 H471 H 0.68031 0.23523 0.33013
 H472 H 0.71002 0.36601 0.38652
 H473 H 0.59911 0.45628 0.21504
 H474 H 0.57925 0.32433 0.14173
 H475 H 0.67550 0.40066 0.31634
 H476 H 0.63866 0.42777 0.27468
 C477 C 0.15848 0.84488 0.28724
 C478 C 0.16128 0.79779 0.29020
 C479 C 0.18192 0.77853 0.33112
 C480 C 0.20034 0.80567 0.36788
 C481 C 0.19847 0.85229 0.36139
 C482 C 0.17786 0.87169 0.32179
 C483 C 0.13481 0.86414 0.24802
 C484 C 0.12830 0.91007 0.24933
 C485 C 0.10527 0.92620 0.21485
 C486 C 0.08838 0.89724 0.17723
 C487 C 0.09483 0.85155 0.17439
 C488 C 0.11751 0.83465 0.21090
 C489 C 0.14340 0.77036 0.25260
 C490 C 0.12231 0.78844 0.21278
 H491 H 0.14575 0.73431 0.25396
 H492 H 0.10904 0.76578 0.18468
 H493 H 0.18351 0.74243 0.33476
 H494 H 0.21255 0.87406 0.38862
 H495 H 0.10058 0.96159 0.21789
 H496 H 0.08152 0.82891 0.14629
 H497 H 0.17742 0.90771 0.31928
 H498 H 0.14025 0.93397 0.27813
   
