data_POSCAR
  _audit_creation_date              2014-09-24
  _audit_creation_method            'ToBaCCo'
  _symmetry_space_group_name_H-M    'P1'
  _symmetry_Int_Tables_number       1
  _symmetry_cell_setting            triclinic
  loop_
  _symmetry_equiv_pos_as_xyz
 x,y,z
_cell_length_a 28.3473
_cell_length_b 29.9344
_cell_length_c 30.5130
_cell_angle_alpha 90.016200
_cell_angle_beta 89.426100
_cell_angle_gamma 89.733300
loop_
  _atom_site_label
  _atom_site_type_symbol
  _atom_site_fract_x
  _atom_site_fract_y
  _atom_site_fract_z
C1 C 0.30504 0.30604 -0.02522
 C2 C 0.30968 0.30680 0.01934
 C3 C 0.28344 0.33987 0.04697
 C4 C 0.34410 0.27813 0.04289
 C5 C 0.33366 0.27591 -0.05439
 C6 C 0.27645 0.34088 -0.04740
 C7 C 0.30841 0.36700 0.07618
 C8 C 0.28488 0.39892 0.10168
 C9 C 0.23591 0.40478 0.09811
 C10 C 0.21073 0.37733 0.06930
 C11 C 0.23420 0.34468 0.04445
 C12 C 0.39237 0.27850 0.03179
 C13 C 0.42445 0.25280 0.05560
 C14 C 0.40891 0.22768 0.09165
 C15 C 0.36106 0.22792 0.10343
 C16 C 0.32881 0.25280 0.07906
 C17 C 0.34156 0.23057 -0.04450
 C18 C 0.37446 0.20537 -0.06876
 C19 C 0.39836 0.22425 -0.10506
 C20 C 0.38645 0.26829 -0.11734
 C21 C 0.35527 0.29377 -0.09206
 C22 C 0.23534 0.32941 -0.06999
 C23 C 0.20971 0.36223 -0.09235
 C24 C 0.22579 0.40645 -0.09323
 C25 C 0.26693 0.41783 -0.07081
 C26 C 0.29186 0.38537 -0.04767
 H27 H 0.34636 0.36388 0.07882
 H28 H 0.30516 0.41963 0.12360
 H29 H 0.17284 0.38076 0.06640
 H30 H 0.21398 0.32333 0.02311
 H31 H 0.40519 0.29895 0.00497
 H32 H 0.46154 0.25350 0.04673
 H33 H 0.29191 0.25273 0.08864
 H34 H 0.32375 0.21511 -0.01691
 H35 H 0.38138 0.17127 -0.05870
 H36 H 0.40307 0.28432 -0.14530
 H37 H 0.34962 0.32828 -0.10127
 H38 H 0.22330 0.29513 -0.07033
 H39 H 0.17829 0.35295 -0.11002
 H40 H 0.27992 0.45180 -0.07158
 H41 H 0.32383 0.39460 -0.03083
 H42 H 0.34880 0.20907 0.13160
 C43 C 0.68704 0.68931 -0.01774
 C44 C 0.68892 0.68811 0.02689
 C45 C 0.71680 0.65375 0.04997
 C46 C 0.65935 0.71757 0.05539
 C47 C 0.65392 0.71964 -0.04107
 C48 C 0.71460 0.65727 -0.04555
 C49 C 0.70035 0.60970 0.05278
 C50 C 0.72400 0.57847 0.07863
 C51 C 0.76500 0.59075 0.10085
 C52 C 0.78213 0.63445 0.09713
 C53 C 0.75755 0.66607 0.07254
 C54 C 0.63119 0.69833 0.08844
 C55 C 0.60084 0.72463 0.11380
 C56 C 0.59762 0.77080 0.10649
 C57 C 0.62699 0.79047 0.07455
 C58 C 0.65809 0.76412 0.04959
 C59 C 0.67094 0.74777 -0.07445
 C60 C 0.63985 0.77467 -0.09821
 C61 C 0.59140 0.77394 -0.08871
 C62 C 0.57423 0.74603 -0.05538
 C63 C 0.60519 0.71875 -0.03198
 C64 C 0.76367 0.65186 -0.04122
 C65 C 0.78833 0.62068 -0.06712
 C66 C 0.76453 0.59514 -0.09856
 C67 C 0.71570 0.60149 -0.10351
 C68 C 0.69108 0.63204 -0.07727
 H69 H 0.66855 0.59998 0.03591
 H70 H 0.71077 0.54464 0.08085
 H71 H 0.81390 0.64424 0.11399
 H72 H 0.77024 0.70011 0.07098
 H73 H 0.63142 0.66260 0.09379
 H74 H 0.57859 0.70848 0.13805
 H75 H 0.68029 0.77988 0.02505
 H76 H 0.70826 0.74844 -0.08241
 H77 H 0.65340 0.79536 -0.12456
 H78 H 0.53671 0.74431 -0.04850
 H79 H 0.59107 0.69634 -0.00733
 H80 H 0.78293 0.67183 -0.01793
 H81 H 0.82601 0.61685 -0.06284
 H82 H 0.69624 0.58231 -0.12733
 H83 H 0.65334 0.63561 -0.08140
 H84 H 0.62549 0.82609 0.06848
 C85 C 0.68728 0.32004 1.01979
 C86 C 0.68575 0.31725 0.97497
 C87 C 0.71430 0.34602 0.94541
 C88 C 0.65180 0.28741 0.95241
 C89 C 0.65658 0.29059 1.04715
 C90 C 0.71791 0.35217 1.04464
 C91 C 0.69089 0.37316 0.91497
 C92 C 0.71583 0.40405 0.88980
 C93 C 0.76472 0.40868 0.89474
 C94 C 0.78862 0.38006 0.92369
 C95 C 0.76366 0.34835 0.94833
 C96 C 0.60292 0.29151 0.95982
 C97 C 0.57140 0.26467 0.93680
 C98 C 0.58833 0.23397 0.90568
 C99 C 0.63695 0.22998 0.89797
 C100 C 0.66850 0.25654 0.92118
 C101 C 0.65846 0.24385 1.04309
 C102 C 0.62870 0.21696 1.06853
 C103 C 0.59763 0.23633 1.09936
 C104 C 0.59699 0.28296 1.10438
 C105 C 0.62593 0.30982 1.07831
 C106 C 0.73479 0.33955 1.08619
 C107 C 0.75933 0.36966 1.11227
 C108 C 0.77194 0.41165 1.09579
 C109 C 0.75716 0.42409 1.05381
 C110 C 0.72773 0.39590 1.02991
 H111 H 0.65289 0.37165 0.91190
 H112 H 0.69653 0.42545 0.86760
 H113 H 0.82644 0.38251 0.92760
 H114 H 0.78243 0.32709 0.97103
 H115 H 0.58921 0.31593 0.98289
 H116 H 0.53382 0.26845 0.94260
 H117 H 0.70598 0.25329 0.91461
 H118 H 0.68260 0.22828 1.01991
 H119 H 0.62999 0.18107 1.06415
 H120 H 0.57312 0.29881 1.12762
 H121 H 0.62414 0.34577 1.08214
 H122 H 0.72788 0.30659 1.09929
 H123 H 0.76997 0.35948 1.14481
 H124 H 0.76466 0.45720 1.04123
 H125 H 0.71214 0.40911 1.00048
 H126 H 0.65037 0.20666 0.87365
 C127 C 0.31643 0.68341 1.02517
 C128 C 0.31214 0.68408 0.98044
 C129 C 0.28354 0.65034 0.95722
 C130 C 0.33945 0.71425 0.95120
 C131 C 0.34914 0.71354 1.05004
 C132 C 0.28873 0.65063 1.05199
 C133 C 0.29767 0.60534 0.95642
 C134 C 0.27252 0.57429 0.93184
 C135 C 0.23252 0.58779 0.90859
 C136 C 0.21787 0.63253 0.90993
 C137 C 0.24373 0.66382 0.93358
 C138 C 0.36826 0.69523 0.91841
 C139 C 0.39819 0.72177 0.89322
 C140 C 0.40030 0.76800 0.90040
 C141 C 0.36981 0.78754 0.93173
 C142 C 0.33899 0.76088 0.95652
 C143 C 0.33600 0.72814 1.09240
 C144 C 0.36680 0.75330 1.11781
 C145 C 0.40968 0.76830 1.09998
 C146 C 0.42259 0.75510 1.05738
 C147 C 0.39420 0.72555 1.03405
 C148 C 0.23980 0.64562 1.04680
 C149 C 0.21495 0.61363 1.07098
 C150 C 0.23785 0.58796 1.10311
 C151 C 0.28635 0.59479 1.10991
 C152 C 0.31160 0.62496 1.08398
 H153 H 0.32872 0.59461 0.97402
 H154 H 0.28425 0.53981 0.93085
 H155 H 0.18721 0.64334 0.89180
 H156 H 0.23275 0.69852 0.93359
 H157 H 0.36912 0.65941 0.91345
 H158 H 0.42111 0.70572 0.86930
 H159 H 0.31641 0.77628 0.98111
 H160 H 0.30204 0.71932 1.10638
 H161 H 0.35604 0.76284 1.15070
 H162 H 0.45640 0.76471 1.04350
 H163 H 0.40812 0.71202 1.00375
 H164 H 0.22075 0.66633 1.02386
 H165 H 0.17751 0.60995 1.06530
 H166 H 0.30535 0.57565 1.13422
 H167 H 0.34920 0.62833 1.08894
 H168 H 0.37038 0.82321 0.93758
 C169 C -0.02447 0.32100 0.32039
 C170 C 0.02387 0.31795 0.32066
 C171 C 0.04911 0.29079 0.35392
 C172 C 0.05481 0.34405 0.29061
 C173 C -0.05077 0.35334 0.29183
 C174 C -0.05357 0.29175 0.34969
 C175 C 0.04067 0.29728 0.39899
 C176 C 0.06494 0.27175 0.42984
 C177 C 0.09856 0.24024 0.41598
 C178 C 0.10781 0.23429 0.37120
 C179 C 0.08321 0.25942 0.34032
 C180 C 0.09009 0.37091 0.30869
 C181 C 0.11585 0.40006 0.28232
 C182 C 0.10653 0.40337 0.23737
 C183 C 0.07298 0.37487 0.21868
 C184 C 0.04797 0.34465 0.24502
 C185 C -0.09476 0.34118 0.27447
 C186 C -0.12042 0.37106 0.24876
 C187 C -0.10065 0.41208 0.23631
 C188 C -0.05669 0.42432 0.25300
 C189 C -0.03384 0.39667 0.28296
 C190 C -0.04476 0.24560 0.35238
 C191 C -0.06879 0.21940 0.38304
 C192 C -0.10447 0.23812 0.40984
 C193 C -0.11586 0.28363 0.40459
 C194 C -0.09002 0.31029 0.37549
 H195 H 0.01538 0.32210 0.41018
 H196 H 0.05793 0.27689 0.46445
 H197 H 0.13400 0.21018 0.36023
 H198 H 0.09058 0.25433 0.30577
 H199 H 0.09631 0.37079 0.34366
 H200 H 0.14166 0.42149 0.29754
 H201 H 0.02162 0.32347 0.23030
 H202 H -0.10965 0.30860 0.28112
 H203 H -0.15469 0.36118 0.23678
 H204 H -0.04179 0.45678 0.24561
 H205 H -0.00269 0.40934 0.29875
 H206 H -0.01822 0.23003 0.33160
 H207 H -0.05968 0.18430 0.38534
 H208 H -0.14320 0.29925 0.42445
 H209 H -0.09791 0.34568 0.37370
 H210 H 0.06575 0.37637 0.18392
 C211 C -0.01867 0.67706 0.67525
 C212 C 0.02964 0.67996 0.67760
 C213 C 0.05737 0.70645 0.64546
 C214 C 0.05854 0.65401 0.70927
 C215 C -0.04688 0.64526 0.70327
 C216 C -0.04591 0.70576 0.64381
 C217 C 0.05722 0.69537 0.60075
 C218 C 0.08394 0.72019 0.57082
 C219 C 0.11078 0.75643 0.58527
 C220 C 0.11147 0.76722 0.62992
 C221 C 0.08554 0.74184 0.65999
 C222 C 0.09545 0.62697 0.69314
 C223 C 0.11975 0.59826 0.72097
 C224 C 0.10746 0.59559 0.76555
 C225 C 0.07226 0.62433 0.78233
 C226 C 0.04859 0.65400 0.75452
 C227 C -0.09197 0.65787 0.71899
 C228 C -0.11905 0.62855 0.74447
 C229 C -0.09984 0.58772 0.75838
 C230 C -0.05493 0.57499 0.74305
 C231 C -0.03045 0.60198 0.71335
 C232 C -0.03697 0.75178 0.63947
 C233 C -0.06195 0.77778 0.60938
 C234 C -0.09896 0.75922 0.58500
 C235 C -0.10945 0.71366 0.59095
 C236 C -0.08255 0.68714 0.61912
 H237 H 0.03624 0.66770 0.58916
 H238 H 0.08260 0.71202 0.53626
 H239 H 0.13161 0.79553 0.64134
 H240 H 0.08636 0.75046 0.69445
 H241 H 0.10413 0.62656 0.65850
 H242 H 0.14677 0.57664 0.70711
 H243 H 0.02097 0.67529 0.76782
 H244 H -0.10650 0.69044 0.71139
 H245 H -0.15389 0.63896 0.75543
 H246 H -0.04015 0.54273 0.75164
 H247 H 0.00173 0.58895 0.69889
 H248 H -0.01068 0.76782 0.65945
 H249 H -0.05327 0.81286 0.60640
 H250 H -0.13750 0.69798 0.57274
 H251 H -0.09059 0.65191 0.62183
 H252 H 0.06252 0.62331 0.81672
 C253 C 1.02397 0.67640 0.32273
 C254 C 0.97566 0.67875 0.31992
 C255 C 0.94595 0.70951 0.34695
 C256 C 0.94870 0.64698 0.29264
 C257 C 1.05191 0.64522 0.29378
 C258 C 1.05144 0.70408 0.35469
 C259 C 0.90956 0.69136 0.37281
 C260 C 0.88423 0.71805 0.40213
 C261 C 0.89494 0.76353 0.40668
 C262 C 0.92981 0.78240 0.37941
 C263 C 0.95454 0.75571 0.34907
 C264 C 0.94812 0.60125 0.30278
 C265 C 0.92121 0.57183 0.27785
 C266 C 0.89521 0.58778 0.24223
 C267 C 0.89565 0.63341 0.23211
 C268 C 0.92153 0.66301 0.25774
 C269 C 1.04318 0.64196 0.24859
 C270 C 1.06788 0.61119 0.22252
 C271 C 1.10454 0.58516 0.24020
 C272 C 1.11543 0.59057 0.28481
 C273 C 1.08869 0.61938 0.31142
 C274 C 1.09585 0.72128 0.34242
 C275 C 1.12208 0.74691 0.37169
 C276 C 1.10262 0.75935 0.41241
 C277 C 1.05847 0.74228 0.42490
 C278 C 1.03491 0.71250 0.39764
 H279 H 0.90197 0.65596 0.37169
 H280 H 0.85750 0.70256 0.42259
 H281 H 0.93831 0.81753 0.38191
 H282 H 0.98180 0.77058 0.32878
 H283 H 0.96833 0.58852 0.33004
 H284 H 0.92157 0.53651 0.28562
 H285 H 0.92126 0.69829 0.24987
 H286 H 1.01704 0.66309 0.23331
 H287 H 1.05907 0.60880 0.18814
 H288 H 1.14335 0.57116 0.29972
 H289 H 1.09670 0.62141 0.34600
 H290 H 1.11042 0.71485 0.31008
 H291 H 1.15634 0.75921 0.36141
 H292 H 1.04357 0.74967 0.45696
 H293 H 1.00329 0.69678 0.41014
 H294 H 0.87601 0.64602 0.20443
 C295 C 1.02495 0.32096 0.68127
 C296 C 0.97674 0.32087 0.67841
 C297 C 0.95126 0.29272 0.64615
 C298 C 0.94676 0.35009 0.70680
 C299 C 1.05003 0.35331 0.70990
 C300 C 1.05538 0.29073 0.65412
 C301 C 0.96347 0.29311 0.60134
 C302 C 0.94011 0.26533 0.57190
 C303 C 0.90303 0.23817 0.58652
 C304 C 0.88944 0.23897 0.63076
 C305 C 0.91363 0.26580 0.66044
 C306 C 0.91318 0.37848 0.68767
 C307 C 0.88707 0.40839 0.71349
 C308 C 0.89433 0.41060 0.75889
 C309 C 0.92658 0.38093 0.77823
 C310 C 0.95206 0.35050 0.75250
 C311 C 1.08431 0.33786 0.73929
 C312 C 1.10857 0.36789 0.76587
 C313 C 1.09863 0.41370 0.76359
 C314 C 1.06488 0.42940 0.73405
 C315 C 1.04123 0.39950 0.70690
 C316 C 1.04529 0.24504 0.64954
 C317 C 1.07031 0.21891 0.61920
 C318 C 1.10787 0.23725 0.59467
 C319 C 1.12071 0.28190 0.60253
 C320 C 1.09432 0.30843 0.63137
 H321 H 0.99134 0.31460 0.58928
 H322 H 0.95027 0.26567 0.53757
 H323 H 0.86040 0.21856 0.64230
 H324 H 0.90319 0.26538 0.69468
 H325 H 0.90822 0.37843 0.65252
 H326 H 0.86241 0.43082 0.69775
 H327 H 0.97683 0.32806 0.76809
 H328 H 1.09208 0.30249 0.74173
 H329 H 1.13483 0.35543 0.78841
 H330 H 1.05732 0.46483 0.73165
 H331 H 1.01605 0.41236 0.68357
 H332 H 1.01678 0.23000 0.66813
 H333 H 1.06007 0.18437 0.61492
 H334 H 1.14964 0.29722 0.58469
 H335 H 1.10340 0.34336 0.63476
 H336 H 0.93240 0.38150 0.81325
 C337 C 0.29952 -0.01818 0.30534
 C338 C 0.30408 0.02725 0.30556
 C339 C 0.33923 0.05072 0.27751
 C340 C 0.27804 0.05548 0.33807
 C341 C 0.27134 -0.04079 0.33997
 C342 C 0.32890 -0.04794 0.27655
 C343 C 0.38726 0.03882 0.27840
 C344 C 0.41995 0.06144 0.25219
 C345 C 0.40541 0.09741 0.22622
 C346 C 0.35789 0.11043 0.22629
 C347 C 0.32491 0.08700 0.25158
 C348 C 0.30329 0.08511 0.36459
 C349 C 0.28033 0.10959 0.39740
 C350 C 0.23167 0.10460 0.40473
 C351 C 0.20606 0.07584 0.37753
 C352 C 0.22895 0.05200 0.34403
 C353 C 0.23138 -0.06579 0.32907
 C354 C 0.20720 -0.08993 0.36145
 C355 C 0.22364 -0.09013 0.40462
 C356 C 0.26337 -0.06497 0.41555
 C357 C 0.28683 -0.04009 0.38352
 C358 C 0.33673 -0.03895 0.23177
 C359 C 0.37049 -0.06341 0.20777
 C360 C 0.39525 -0.09889 0.22752
 C361 C 0.38403 -0.11016 0.27116
 C362 C 0.35189 -0.08478 0.29536
 H363 H 0.39939 0.01205 0.29938
 H364 H 0.45676 0.05166 0.25302
 H365 H 0.34645 0.13869 0.20687
 H366 H 0.28822 0.09726 0.25116
 H367 H 0.34113 0.08845 0.36067
 H368 H 0.30095 0.13155 0.41783
 H369 H 0.20851 0.03023 0.32327
 H370 H 0.21939 -0.06697 0.29551
 H371 H 0.17690 -0.10977 0.35255
 H372 H 0.27663 -0.06524 0.44873
 H373 H 0.31804 -0.02148 0.39226
 H374 H 0.31824 -0.01180 0.21586
 H375 H 0.37734 -0.05433 0.17395
 H376 H 0.40172 -0.13746 0.28765
 H377 H 0.34660 -0.09313 0.32956
 H378 H 0.16837 0.07191 0.38209
 C379 C 0.68796 -0.02190 0.68920
 C380 C 0.69404 0.02352 0.68963
 C381 C 0.66753 0.05413 0.71946
 C382 C 0.72263 0.04596 0.65502
 C383 C 0.71495 -0.04978 0.65696
 C384 C 0.65402 -0.04651 0.71875
 C385 C 0.64054 0.08862 0.70098
 C386 C 0.60969 0.11382 0.72680
 C387 C 0.60464 0.10489 0.77174
 C388 C 0.63381 0.07237 0.79100
 C389 C 0.66582 0.04774 0.76513
 C390 C 0.70711 0.04629 0.61145
 C391 C 0.73157 0.07068 0.57957
 C392 C 0.77233 0.09429 0.59065
 C393 C 0.78858 0.09320 0.63389
 C394 C 0.76343 0.06966 0.66607
 C395 C 0.76444 -0.04789 0.65432
 C396 C 0.78907 -0.07324 0.62306
 C397 C 0.76477 -0.10205 0.59492
 C398 C 0.71546 -0.10507 0.59859
 C399 C 0.69077 -0.07891 0.62908
 C400 C 0.66547 -0.09006 0.73283
 C401 C 0.63362 -0.11513 0.75782
 C402 C 0.59116 -0.09592 0.77277
 C403 C 0.57983 -0.05223 0.75975
 C404 C 0.60935 -0.02916 0.73066
 H405 H 0.64134 0.09462 0.66599
 H406 H 0.58792 0.13878 0.71100
 H407 H 0.63104 0.06526 0.82572
 H408 H 0.68705 0.02192 0.78021
 H409 H 0.67532 0.02869 0.60253
 H410 H 0.71854 0.07143 0.54632
 H411 H 0.77555 0.07006 0.69962
 H412 H 0.78394 -0.02655 0.67625
 H413 H 0.82712 -0.07061 0.62112
 H414 H 0.69587 -0.12684 0.57712
 H415 H 0.65266 -0.08106 0.63070
 H416 H 0.69896 -0.10521 0.72386
 H417 H 0.64315 -0.14892 0.76704
 H418 H 0.54635 -0.03725 0.76919
 H419 H 0.59669 0.00209 0.71746
 H420 H 0.81981 0.11164 0.64291
 C421 C 0.32194 1.01986 0.67736
 C422 C 0.31877 0.97435 0.67737
 C423 C 0.34579 0.94575 0.70802
 C424 C 0.29042 0.95054 0.64423
 C425 C 0.29397 1.04727 0.64628
 C426 C 0.35409 1.04481 0.70705
 C427 C 0.37452 0.91129 0.69128
 C428 C 0.40333 0.88648 0.71904
 C429 C 0.40412 0.89578 0.76411
 C430 C 0.37376 0.92890 0.78119
 C431 C 0.34439 0.95331 0.75344
 C432 C 0.30691 0.94668 0.60089
 C433 C 0.28144 0.92204 0.57031
 C434 C 0.23852 0.90216 0.58242
 C435 C 0.22151 0.90680 0.62549
 C436 C 0.24784 0.93011 0.65648
 C437 C 0.24466 1.04354 0.64449
 C438 C 0.21898 1.06888 0.61455
 C439 C 0.24199 1.09950 0.58689
 C440 C 0.29111 1.10435 0.58975
 C441 C 0.31689 1.07829 0.61905
 C442 C 0.33691 1.08240 0.72995
 C443 C 0.36667 1.10726 0.75677
 C444 C 0.41389 1.09448 0.76174
 C445 C 0.43140 1.05717 0.73895
 C446 C 0.40199 1.03306 0.71108
 H447 H 0.37604 0.90461 0.65642
 H448 H 0.42629 0.86115 0.70495
 H449 H 0.37326 0.93644 0.81591
 H450 H 0.32165 0.97901 0.76717
 H451 H 0.33992 0.96199 0.59111
 H452 H 0.29498 0.91872 0.53714
 H453 H 0.23491 0.93259 0.68992
 H454 H 0.22604 1.02111 0.66635
 H455 H 0.18104 1.06502 0.61346
 H456 H 0.30969 1.12774 0.56880
 H457 H 0.35484 1.08202 0.62025
 H458 H 0.30036 1.09256 0.72698
 H459 H 0.35281 1.13623 0.77393
 H460 H 0.46807 1.04739 0.74194
 H461 H 0.41672 1.00539 0.69255
 H462 H 0.18858 0.89137 0.63534
 C463 C 0.68383 1.02454 0.32026
 C464 C 0.68202 0.97897 0.32195
 C465 C 0.65030 0.95286 0.29296
 C466 C 0.70904 0.95280 0.35475
 C467 C 0.71343 1.05157 0.35041
 C468 C 0.65229 1.05013 0.29091
 C469 C 0.61956 0.92137 0.31164
 C470 C 0.58881 0.89709 0.28544
 C471 C 0.58774 0.90406 0.23994
 C472 C 0.61886 0.93513 0.22103
 C473 C 0.65040 0.95880 0.24723
 C474 C 0.70277 0.96020 0.39994
 C475 C 0.72843 0.93517 0.43029
 C476 C 0.76012 0.90211 0.41582
 C477 C 0.76581 0.89406 0.37086
 C478 C 0.74029 0.91915 0.34050
 C479 C 0.76101 1.04106 0.35816
 C480 C 0.78671 1.06505 0.38915
 C481 C 0.76603 1.10148 0.41158
 C482 C 0.71922 1.11341 0.40180
 C483 C 0.69321 1.08850 0.37205
 C484 C 0.67131 1.07502 0.25603
 C485 C 0.64165 1.09974 0.22871
 C486 C 0.59295 1.10084 0.23694
 C487 C 0.57403 1.07670 0.27227
 C488 C 0.60348 1.05119 0.29893
 H489 H 0.61890 0.91600 0.34675
 H490 H 0.56519 0.87340 0.30095
 H491 H 0.61921 0.94072 0.18596
 H492 H 0.67477 0.98182 0.23181
 H493 H 0.67809 0.98535 0.41161
 H494 H 0.72345 0.94139 0.46501
 H495 H 0.74516 0.91263 0.30583
 H496 H 0.77813 1.01386 0.34075
 H497 H 0.82292 1.05528 0.39514
 H498 H 0.70194 1.14126 0.41811
 H499 H 0.65675 1.09770 0.36665
 H500 H 0.70898 1.07478 0.24973
 H501 H 0.65662 1.11825 0.20147
 H502 H 0.53644 1.07732 0.27893
 H503 H 0.58840 1.03263 0.32609
 H504 H 0.78995 0.86837 0.35933
 O505 O 0.88925 0.82529 0.45608
 O506 O 0.82929 0.88667 0.54578
 O507 O 0.89160 0.82281 0.54233
 O508 O 0.82633 0.88918 0.46072
 O509 O 0.76925 0.83907 0.46149
 O510 O 0.83605 0.77158 0.54088
 O511 O 0.77257 0.83637 0.54625
 O512 O 0.83183 0.77575 0.45668
 Cu513 Cu 0.86495 0.86092 0.50115
 Cu514 Cu 0.79672 0.80070 0.50163
 C515 C 0.87069 0.78988 0.44117
 C516 C 0.79032 0.87223 0.56086
 C517 C 0.87534 0.78544 0.55520
 C518 C 0.78657 0.87548 0.44758
 O519 O 0.17521 0.11202 0.54216
 O520 O 0.10698 0.17894 0.46388
 O521 O 0.16929 0.11525 0.45665
 O522 O 0.11339 0.17559 0.54897
 O523 O 0.16849 0.22713 0.54418
 O524 O 0.22752 0.16396 0.45610
 O525 O 0.16540 0.22753 0.45948
 O526 O 0.23152 0.16271 0.54088
 Cu527 Cu 0.13552 0.14035 0.50314
 Cu528 Cu 0.20402 0.20034 0.50014
 C529 C 0.21489 0.12609 0.55511
 C530 C 0.12487 0.21432 0.44813
 C531 C 0.20819 0.12917 0.44085
 C532 C 0.13086 0.21232 0.56179
 O533 O 0.11329 0.82274 0.54454
 O534 O 0.16163 0.88876 0.45302
 O535 O 0.10521 0.81535 0.46436
 O536 O 0.17004 0.88620 0.54136
 O537 O 0.23266 0.84288 0.53171
 O538 O 0.17169 0.78224 0.44455
 O539 O 0.22629 0.84723 0.45085
 O540 O 0.17079 0.77374 0.53318
 Cu541 Cu 0.13219 0.85913 0.49956
 Cu542 Cu 0.20557 0.80554 0.49086
 C543 C 0.13322 0.78589 0.55317
 C544 C 0.20253 0.88044 0.43758
 C545 C 0.12736 0.78679 0.44104
 C546 C 0.21235 0.87574 0.55035
 O547 O 0.83079 0.11102 0.45654
 O548 O 0.89628 0.17691 0.53786
 O549 O 0.83625 0.10996 0.54248
 O550 O 0.89075 0.17489 0.45304
 O551 O 0.83516 0.22619 0.46037
 O552 O 0.77574 0.15680 0.54372
 O553 O 0.83537 0.22282 0.54510
 O554 O 0.77357 0.16108 0.45924
 Cu555 Cu 0.86937 0.13813 0.49750
 Cu556 Cu 0.79905 0.19657 0.50246
 C557 C 0.79107 0.12532 0.44338
 C558 C 0.87689 0.21107 0.55514
 C559 C 0.79615 0.12177 0.55747
 C560 C 0.87288 0.21216 0.44195
 O561 O 0.44734 0.88914 0.83000
 O562 O 0.54162 0.83560 0.89430
 O563 O 0.53427 0.89798 0.82733
 O564 O 0.44690 0.83333 0.89033
 O565 O 0.45671 0.77799 0.84325
 O566 O 0.55408 0.83787 0.78961
 O567 O 0.54538 0.77892 0.84795
 O568 O 0.46000 0.83816 0.77887
 Cu569 Cu 0.49413 0.86870 0.86652
 Cu570 Cu 0.50374 0.80353 0.80906
 C571 C 0.43845 0.87294 0.79255
 C572 C 0.55810 0.79763 0.88307
 C573 C 0.55913 0.87915 0.79768
 C574 C 0.43606 0.79468 0.87666
 O575 O 0.55229 0.17054 0.10984
 O576 O 0.45943 0.10712 0.16742
 O577 O 0.46124 0.16747 0.10482
 O578 O 0.55053 0.10990 0.17141
 O579 O 0.54344 0.16257 0.22192
 O580 O 0.45464 0.22030 0.15524
 O581 O 0.45259 0.16110 0.21664
 O582 O 0.54554 0.22388 0.15952
 Cu583 Cu 0.50647 0.13338 0.13332
 Cu584 Cu 0.49888 0.19739 0.19338
 C585 C 0.56395 0.20862 0.12443
 C586 C 0.44056 0.12328 0.20191
 C587 C 0.44310 0.20376 0.11863
 C588 C 0.56127 0.12603 0.20841
 O589 O 0.44802 0.16436 0.88707
 O590 O 0.55133 0.11120 0.83257
 O591 O 0.53983 0.17102 0.89398
 O592 O 0.46044 0.10428 0.82498
 O593 O 0.45720 0.15977 0.77730
 O594 O 0.54274 0.22294 0.84249
 O595 O 0.54854 0.16304 0.78125
 O596 O 0.45188 0.21951 0.83947
 Cu597 Cu 0.49969 0.13238 0.86477
 Cu598 Cu 0.50000 0.19662 0.80512
 C599 C 0.43310 0.20197 0.87327
 C600 C 0.56677 0.12773 0.79687
 C601 C 0.55530 0.20798 0.87949
 C602 C 0.44526 0.12086 0.78948
 O603 O 0.46347 0.82552 0.10734
 O604 O 0.54214 0.89369 0.17538
 O605 O 0.54983 0.83561 0.11586
 O606 O 0.44682 0.89096 0.16820
 O607 O 0.44926 0.84351 0.22329
 O608 O 0.54072 0.78083 0.16353
 O609 O 0.53700 0.84266 0.22737
 O610 O 0.44536 0.78503 0.16536
 Cu611 Cu 0.49904 0.86774 0.13736
 Cu612 Cu 0.49422 0.80671 0.19905
 C613 C 0.44023 0.79399 0.12504
 C614 C 0.55412 0.87889 0.21276
 C615 C 0.56145 0.79734 0.13012
 C616 C 0.43139 0.87777 0.20535
 O617 O 0.89517 0.53752 0.81556
 O618 O 0.82981 0.45753 0.88374
 O619 O 0.88740 0.45575 0.82245
 O620 O 0.83089 0.54820 0.88395
 O621 O 0.76941 0.54619 0.84038
 O622 O 0.83312 0.46421 0.77164
 O623 O 0.77134 0.46110 0.83661
 O624 O 0.83076 0.55321 0.77868
 Cu625 Cu 0.86567 0.50184 0.85740
 Cu626 Cu 0.79572 0.50610 0.80147
 C627 C 0.87443 0.55893 0.78535
 C628 C 0.79000 0.44407 0.87048
 C629 C 0.87017 0.44497 0.78571
 C630 C 0.78972 0.56168 0.87391
 O631 O 0.17195 0.45471 0.11207
 O632 O 0.11148 0.54115 0.17803
 O633 O 0.17309 0.54228 0.11481
 O634 O 0.11197 0.45340 0.17677
 O635 O 0.17046 0.45205 0.22400
 O636 O 0.23146 0.53957 0.16192
 O637 O 0.16833 0.53797 0.22669
 O638 O 0.23028 0.45342 0.15945
 Cu639 Cu 0.13630 0.49811 0.14064
 Cu640 Cu 0.20600 0.49594 0.19774
 C641 C 0.21144 0.43930 0.12451
 C642 C 0.12905 0.55389 0.21406
 C643 C 0.21321 0.55570 0.12749
 C644 C 0.13095 0.43766 0.21108
 O645 O 0.89471 0.46376 0.18030
 O646 O 0.83398 0.55030 0.11706
 O647 O 0.88808 0.54903 0.17567
 O648 O 0.82961 0.46450 0.10818
 O649 O 0.77874 0.44865 0.16104
 O650 O 0.83472 0.53550 0.22729
 O651 O 0.77017 0.53589 0.15671
 O652 O 0.83078 0.44861 0.21929
 Cu653 Cu 0.86763 0.50361 0.14028
 Cu654 Cu 0.79736 0.49534 0.19582
 C655 C 0.87407 0.44204 0.21075
 C656 C 0.79098 0.55755 0.12634
 C657 C 0.87109 0.55625 0.21359
 C658 C 0.79454 0.44231 0.12255
 O659 O 0.16641 0.54277 0.89343
 O660 O 0.10375 0.46106 0.82531
 O661 O 0.16199 0.45550 0.89145
 O662 O 0.10893 0.54775 0.82794
 O663 O 0.16872 0.54382 0.78117
 O664 O 0.22350 0.45498 0.84629
 O665 O 0.16542 0.45703 0.78050
 O666 O 0.22684 0.54066 0.84703
 Cu667 Cu 0.12917 0.50182 0.86425
 Cu668 Cu 0.20210 0.49891 0.80900
 C669 C 0.20725 0.55553 0.88167
 C670 C 0.12395 0.44532 0.79132
 C671 C 0.20223 0.44034 0.88005
 C672 C 0.12967 0.56106 0.79326
   
