data_POSCAR
  _audit_creation_date              2014-09-24
  _audit_creation_method            'ToBaCCo'
  _symmetry_space_group_name_H-M    'P1'
  _symmetry_Int_Tables_number       1
  _symmetry_cell_setting            triclinic
  loop_
  _symmetry_equiv_pos_as_xyz
 x,y,z
_cell_length_a 34.1478
_cell_length_b 34.0738
_cell_length_c 33.8342
_cell_angle_alpha 90.000300
_cell_angle_beta 89.999300
_cell_angle_gamma 91.856100
loop_
  _atom_site_label
  _atom_site_type_symbol
  _atom_site_fract_x
  _atom_site_fract_y
  _atom_site_fract_z
Zn1 Zn 0.81545 0.72721 0.80536
 Zn2 Zn 0.80965 0.78874 0.74311
 Zn3 Zn 0.75355 0.71933 0.74317
 Zn4 Zn 0.74776 0.78094 0.80531
 O5 O 0.78160 0.75405 0.77424
 O6 O 0.86576 0.74115 0.79682
 O7 O 0.80286 0.77927 0.69140
 O8 O 0.76668 0.66945 0.75096
 O9 O 0.86139 0.78776 0.75163
 O10 O 0.81202 0.67519 0.79756
 O11 O 0.76028 0.72879 0.69148
 O12 O 0.69745 0.76702 0.79677
 O13 O 0.79657 0.83864 0.75090
 O14 O 0.70182 0.72028 0.75172
 O15 O 0.75124 0.83294 0.79751
 O16 O 0.75609 0.77338 0.85700
 O17 O 0.80707 0.73475 0.85707
 C18 C 0.88165 0.76671 0.77417
 C19 C 0.78151 0.75408 0.67315
 C20 C 0.79108 0.65426 0.77426
 C21 C 0.68156 0.74140 0.77419
 C22 C 0.77219 0.85386 0.77421
 C23 C 0.78153 0.75400 0.87533
 Zn24 Zn 0.25356 0.71934 0.74317
 Zn25 Zn 0.24776 0.78094 0.80530
 Zn26 Zn 0.31545 0.72721 0.80536
 Zn27 Zn 0.30965 0.78874 0.74310
 O28 O 0.28160 0.75406 0.77423
 O29 O 0.20182 0.72028 0.75171
 O30 O 0.25609 0.77338 0.85699
 O31 O 0.31202 0.67520 0.79755
 O32 O 0.19745 0.76703 0.79676
 O33 O 0.26668 0.66946 0.75096
 O34 O 0.30707 0.73476 0.85706
 O35 O 0.36139 0.78777 0.75163
 O36 O 0.25124 0.83295 0.79750
 O37 O 0.36576 0.74115 0.79682
 O38 O 0.29657 0.83864 0.75090
 O39 O 0.30286 0.77927 0.69140
 O40 O 0.26028 0.72879 0.69148
 C41 C 0.18156 0.74140 0.77419
 C42 C 0.28153 0.75401 0.87532
 C43 C 0.29108 0.65426 0.77426
 C44 C 0.38165 0.76672 0.77417
 C45 C 0.27219 0.85386 0.77420
 C46 C 0.28151 0.75408 0.67314
 Zn47 Zn 0.75355 0.21933 0.75683
 Zn48 Zn 0.81545 0.22721 0.69464
 Zn49 Zn 0.74776 0.28094 0.69469
 Zn50 Zn 0.80965 0.28874 0.75689
 O51 O 0.78160 0.25405 0.72576
 O52 O 0.76668 0.16945 0.74904
 O53 O 0.80707 0.23475 0.64293
 O54 O 0.69745 0.26702 0.70323
 O55 O 0.81202 0.17519 0.70244
 O56 O 0.70182 0.22028 0.74829
 O57 O 0.75609 0.27338 0.64300
 O58 O 0.79657 0.33864 0.74910
 O59 O 0.86576 0.24115 0.70318
 O60 O 0.75124 0.33294 0.70249
 O61 O 0.86139 0.28776 0.74837
 O62 O 0.80286 0.27927 0.80860
 O63 O 0.76028 0.22879 0.80852
 C64 C 0.79108 0.15426 0.72574
 C65 C 0.78153 0.25400 0.62467
 C66 C 0.68156 0.24140 0.72581
 C67 C 0.77219 0.35386 0.72579
 C68 C 0.88165 0.26671 0.72583
 C69 C 0.78151 0.25408 0.82685
 Zn70 Zn 0.31545 0.22721 0.69464
 Zn71 Zn 0.25355 0.21934 0.75683
 Zn72 Zn 0.30965 0.28874 0.75690
 Zn73 Zn 0.24776 0.28094 0.69470
 O74 O 0.28160 0.25406 0.72577
 O75 O 0.31202 0.17520 0.70245
 O76 O 0.26028 0.22879 0.80852
 O77 O 0.36139 0.28777 0.74837
 O78 O 0.26668 0.16946 0.74904
 O79 O 0.36576 0.24115 0.70318
 O80 O 0.30286 0.27927 0.80860
 O81 O 0.25124 0.33295 0.70250
 O82 O 0.20182 0.22028 0.74829
 O83 O 0.29657 0.33864 0.74910
 O84 O 0.19745 0.26703 0.70324
 O85 O 0.25609 0.27338 0.64301
 O86 O 0.30707 0.23476 0.64293
 C87 C 0.29108 0.15426 0.72574
 C88 C 0.28151 0.25408 0.82686
 C89 C 0.38165 0.26672 0.72583
 C90 C 0.27219 0.35386 0.72580
 C91 C 0.18156 0.24140 0.72582
 C92 C 0.28153 0.25400 0.62468
 Zn93 Zn 0.69035 0.71126 0.24311
 Zn94 Zn 0.74645 0.78067 0.24317
 Zn95 Zn 0.68455 0.77279 0.30536
 Zn96 Zn 0.75224 0.71906 0.30531
 O97 O 0.71840 0.74595 0.27424
 O98 O 0.69714 0.72073 0.19140
 O99 O 0.73332 0.83055 0.25097
 O100 O 0.63425 0.75885 0.29682
 O101 O 0.73973 0.77121 0.19148
 O102 O 0.63861 0.71224 0.25163
 O103 O 0.68798 0.82481 0.29756
 O104 O 0.74391 0.72662 0.35700
 O105 O 0.79818 0.77972 0.25172
 O106 O 0.69294 0.76525 0.35707
 O107 O 0.80255 0.73298 0.29677
 O108 O 0.74876 0.66706 0.29751
 O109 O 0.70343 0.66136 0.25090
 C110 C 0.71849 0.74592 0.17315
 C111 C 0.70892 0.84574 0.27426
 C112 C 0.61835 0.73329 0.27417
 C113 C 0.71847 0.74600 0.37533
 C114 C 0.81844 0.75860 0.27419
 C115 C 0.72781 0.64614 0.27421
 Zn116 Zn 0.24645 0.78066 0.24317
 Zn117 Zn 0.19035 0.71126 0.24310
 Zn118 Zn 0.25224 0.71906 0.30531
 Zn119 Zn 0.18455 0.77279 0.30536
 O120 O 0.21840 0.74594 0.27423
 O121 O 0.23972 0.77120 0.19148
 O122 O 0.20343 0.66136 0.25090
 O123 O 0.30255 0.73297 0.29676
 O124 O 0.19714 0.72073 0.19140
 O125 O 0.29818 0.77972 0.25171
 O126 O 0.24877 0.66705 0.29750
 O127 O 0.19294 0.76525 0.35707
 O128 O 0.13861 0.71223 0.25163
 O129 O 0.24391 0.72662 0.35699
 O130 O 0.13425 0.75885 0.29682
 O131 O 0.18798 0.82480 0.29755
 O132 O 0.23332 0.83054 0.25096
 C133 C 0.21849 0.74592 0.17315
 C134 C 0.22781 0.64614 0.27420
 C135 C 0.31844 0.75860 0.27418
 C136 C 0.21847 0.74600 0.37532
 C137 C 0.11835 0.73329 0.27417
 C138 C 0.20892 0.84574 0.27425
 Zn139 Zn 0.68455 0.27279 0.19464
 Zn140 Zn 0.75224 0.21906 0.19469
 Zn141 Zn 0.74645 0.28067 0.25683
 Zn142 Zn 0.69035 0.21126 0.25689
 O143 O 0.71840 0.24595 0.22576
 O144 O 0.69294 0.26525 0.14293
 O145 O 0.80255 0.23297 0.20323
 O146 O 0.73332 0.33055 0.24904
 O147 O 0.74391 0.22662 0.14300
 O148 O 0.68798 0.32481 0.20244
 O149 O 0.79818 0.27972 0.24828
 O150 O 0.69714 0.22073 0.30860
 O151 O 0.74877 0.16706 0.20249
 O152 O 0.73973 0.27121 0.30852
 O153 O 0.70343 0.16136 0.24910
 O154 O 0.63861 0.21224 0.24837
 O155 O 0.63425 0.25885 0.20318
 C156 C 0.71847 0.24600 0.12467
 C157 C 0.81844 0.25860 0.22581
 C158 C 0.70892 0.34574 0.22574
 C159 C 0.71849 0.24592 0.32685
 C160 C 0.72781 0.14614 0.22579
 C161 C 0.61836 0.23329 0.22583
 Zn162 Zn 0.18455 0.27279 0.19464
 Zn163 Zn 0.25224 0.21906 0.19470
 Zn164 Zn 0.24645 0.28066 0.25683
 Zn165 Zn 0.19035 0.21126 0.25690
 O166 O 0.21840 0.24594 0.22577
 O167 O 0.19294 0.26525 0.14294
 O168 O 0.30255 0.23297 0.20324
 O169 O 0.23332 0.33054 0.24904
 O170 O 0.24392 0.22662 0.14301
 O171 O 0.18798 0.32480 0.20245
 O172 O 0.29818 0.27972 0.24829
 O173 O 0.19714 0.22073 0.30860
 O174 O 0.24877 0.16705 0.20250
 O175 O 0.23972 0.27120 0.30852
 O176 O 0.20343 0.16136 0.24910
 O177 O 0.13861 0.21223 0.24837
 O178 O 0.13425 0.25885 0.20318
 C179 C 0.21848 0.24600 0.12468
 C180 C 0.31844 0.25860 0.22582
 C181 C 0.20892 0.34574 0.22575
 C182 C 0.21849 0.24592 0.32686
 C183 C 0.22781 0.14614 0.22580
 C184 C 0.11835 0.23328 0.22583
 C185 C -0.07554 0.77252 0.77398
 C186 C -0.05081 0.74352 0.78709
 C187 C -0.00797 0.74920 0.78678
 N188 N 0.01521 0.71762 0.78705
 N189 N 0.05409 0.72237 0.78682
 C190 C 0.07118 0.75893 0.78677
 N191 N 0.04800 0.79052 0.78699
 N192 N 0.00912 0.78576 0.78677
 C193 C 0.11402 0.76462 0.78706
 C194 C 0.13875 0.73559 0.77400
 H195 H -0.06309 0.71521 0.79613
 H196 H 0.12630 0.79294 0.79606
 H197 H -0.06317 0.79949 0.76159
 H198 H 0.12637 0.70860 0.76166
 C199 C 0.76779 -0.10335 0.77456
 C200 C 0.78969 -0.07830 0.74986
 C201 C 0.78533 -0.03548 0.75012
 N202 N 0.80739 -0.01247 0.72545
 N203 N 0.80381 0.02635 0.72530
 C204 C 0.77800 0.04360 0.74985
 N205 N 0.75594 0.02059 0.77452
 N206 N 0.75953 -0.01823 0.77467
 C207 C 0.77364 0.08641 0.75010
 C208 C 0.79552 0.11147 0.72540
 H209 H 0.81074 -0.09037 0.72963
 H210 H 0.75258 0.09848 0.77033
 H211 H 0.74672 -0.09133 0.79480
 H212 H 0.81660 0.09946 0.70515
 C213 C 0.78187 0.75384 -0.08126
 C214 C 0.74881 0.76267 -0.05927
 C215 C 0.74904 0.76238 -0.01585
 N216 N 0.71482 0.75827 0.00434
 N217 N 0.71463 0.75801 0.04372
 C218 C 0.74863 0.76231 0.06433
 N219 N 0.78280 0.76691 0.04414
 N220 N 0.78304 0.76673 0.00476
 C221 C 0.74880 0.76263 0.10775
 C222 C 0.71819 0.74569 0.12974
 H223 H 0.72150 0.76818 -0.07427
 H224 H 0.77443 0.77488 0.12275
 H225 H 0.80816 0.74486 -0.06630
 H226 H 0.69420 0.73031 0.11477
 C227 C 0.63875 0.73559 0.77401
 C228 C 0.61402 0.76462 0.78707
 C229 C 0.57118 0.75893 0.78677
 N230 N 0.54800 0.79052 0.78699
 N231 N 0.50912 0.78576 0.78676
 C232 C 0.49203 0.74921 0.78677
 N233 N 0.51521 0.71762 0.78705
 N234 N 0.55409 0.72238 0.78682
 C235 C 0.44919 0.74352 0.78708
 C236 C 0.42446 0.77252 0.77397
 H237 H 0.62630 0.79294 0.79606
 H238 H 0.43691 0.71521 0.79613
 H239 H 0.62637 0.70860 0.76167
 H240 H 0.43683 0.79949 0.76158
 C241 C 0.26778 -0.10335 0.77455
 C242 C 0.28968 -0.07830 0.74986
 C243 C 0.28533 -0.03548 0.75011
 N244 N 0.30739 -0.01247 0.72544
 N245 N 0.30381 0.02635 0.72530
 C246 C 0.27800 0.04360 0.74984
 N247 N 0.25594 0.02059 0.77452
 N248 N 0.25953 -0.01823 0.77466
 C249 C 0.27364 0.08642 0.75010
 C250 C 0.29552 0.11147 0.72540
 H251 H 0.31074 -0.09037 0.72963
 H252 H 0.25258 0.09848 0.77033
 H253 H 0.24672 -0.09133 0.79480
 H254 H 0.31660 0.09947 0.70515
 C255 C 0.28187 0.75385 -0.08126
 C256 C 0.24881 0.76267 -0.05928
 C257 C 0.24904 0.76238 -0.01585
 N258 N 0.21482 0.75827 0.00434
 N259 N 0.21462 0.75800 0.04372
 C260 C 0.24863 0.76231 0.06432
 N261 N 0.28280 0.76692 0.04413
 N262 N 0.28304 0.76673 0.00475
 C263 C 0.24880 0.76263 0.10775
 C264 C 0.21819 0.74569 0.12973
 H265 H 0.22150 0.76819 -0.07428
 H266 H 0.27443 0.77488 0.12275
 H267 H 0.30816 0.74486 -0.06630
 H268 H 0.19420 0.73031 0.11476
 C269 C -0.07554 0.27252 0.72602
 C270 C -0.05081 0.24352 0.71291
 C271 C -0.00797 0.24920 0.71322
 N272 N 0.01521 0.21762 0.71295
 N273 N 0.05409 0.22237 0.71318
 C274 C 0.07118 0.25893 0.71323
 N275 N 0.04800 0.29052 0.71301
 N276 N 0.00912 0.28576 0.71323
 C277 C 0.11402 0.26461 0.71294
 C278 C 0.13875 0.23559 0.72600
 H279 H -0.06309 0.21521 0.70387
 H280 H 0.12630 0.29294 0.70394
 H281 H -0.06317 0.29949 0.73841
 H282 H 0.12637 0.20860 0.73834
 C283 C 0.79552 0.61147 0.77460
 C284 C 0.77364 0.58641 0.74990
 C285 C 0.77800 0.54360 0.75015
 N286 N 0.75595 0.52059 0.72548
 N287 N 0.75953 0.48177 0.72533
 C288 C 0.78533 0.46452 0.74988
 N289 N 0.80739 0.48753 0.77455
 N290 N 0.80381 0.52635 0.77470
 C291 C 0.78969 0.42170 0.75013
 C292 C 0.76779 0.39665 0.72544
 H293 H 0.75258 0.59848 0.72967
 H294 H 0.81074 0.40963 0.77036
 H295 H 0.81660 0.59946 0.79485
 H296 H 0.74672 0.40867 0.70520
 C297 C 0.78181 0.25431 -0.12973
 C298 C 0.75120 0.23737 -0.10775
 C299 C 0.75137 0.23769 -0.06433
 N300 N 0.71720 0.23309 -0.04414
 N301 N 0.71696 0.23328 -0.00476
 C302 C 0.75096 0.23762 0.01585
 N303 N 0.78518 0.24173 -0.00434
 N304 N 0.78537 0.24199 -0.04372
 C305 C 0.75119 0.23733 0.05927
 C306 C 0.71813 0.24616 0.08126
 H307 H 0.72557 0.22512 -0.12275
 H308 H 0.77850 0.23181 0.07427
 H309 H 0.80580 0.26968 -0.11477
 H310 H 0.69184 0.25515 0.06630
 C311 C 0.63875 0.23559 0.72600
 C312 C 0.61402 0.26462 0.71293
 C313 C 0.57118 0.25893 0.71323
 N314 N 0.54800 0.29052 0.71301
 N315 N 0.50912 0.28576 0.71324
 C316 C 0.49203 0.24921 0.71323
 N317 N 0.51521 0.21762 0.71295
 N318 N 0.55409 0.22238 0.71318
 C319 C 0.44919 0.24352 0.71292
 C320 C 0.42446 0.27252 0.72603
 H321 H 0.62630 0.29294 0.70394
 H322 H 0.43691 0.21521 0.70387
 H323 H 0.62637 0.20860 0.73833
 H324 H 0.43683 0.29949 0.73842
 C325 C 0.29552 0.61147 0.77460
 C326 C 0.27364 0.58642 0.74990
 C327 C 0.27800 0.54360 0.75016
 N328 N 0.25594 0.52059 0.72548
 N329 N 0.25953 0.48177 0.72534
 C330 C 0.28533 0.46452 0.74989
 N331 N 0.30739 0.48753 0.77456
 N332 N 0.30381 0.52635 0.77470
 C333 C 0.28968 0.42170 0.75014
 C334 C 0.26778 0.39665 0.72545
 H335 H 0.25258 0.59848 0.72967
 H336 H 0.31074 0.40963 0.77037
 H337 H 0.31660 0.59947 0.79485
 H338 H 0.24672 0.40867 0.70520
 C339 C 0.28181 0.25431 -0.12973
 C340 C 0.25120 0.23737 -0.10775
 C341 C 0.25137 0.23769 -0.06432
 N342 N 0.21720 0.23308 -0.04413
 N343 N 0.21696 0.23327 -0.00475
 C344 C 0.25097 0.23762 0.01585
 N345 N 0.28518 0.24173 -0.00434
 N346 N 0.28538 0.24199 -0.04372
 C347 C 0.25119 0.23733 0.05928
 C348 C 0.21813 0.24616 0.08126
 H349 H 0.22557 0.22512 -0.12275
 H350 H 0.27850 0.23181 0.07428
 H351 H 0.30580 0.26968 -0.11476
 H352 H 0.19184 0.25514 0.06630
 C353 C -0.13875 0.76441 0.27401
 C354 C -0.11402 0.73538 0.28707
 C355 C -0.07118 0.74107 0.28677
 N356 N -0.04800 0.70948 0.28699
 N357 N -0.00911 0.71424 0.28677
 C358 C 0.00798 0.75079 0.28678
 N359 N -0.01521 0.78238 0.28706
 N360 N -0.05409 0.77762 0.28682
 C361 C 0.05081 0.75648 0.28709
 C362 C 0.07554 0.72748 0.27398
 H363 H -0.12630 0.70706 0.29606
 H364 H 0.06309 0.78479 0.29613
 H365 H -0.12637 0.79140 0.26167
 H366 H 0.06317 0.70051 0.26159
 C367 C 0.70448 -0.11147 0.27460
 C368 C 0.72636 -0.08641 0.24990
 C369 C 0.72200 -0.04360 0.25015
 N370 N 0.74406 -0.02059 0.22548
 N371 N 0.74047 0.01823 0.22533
 C372 C 0.71467 0.03548 0.24988
 N373 N 0.69261 0.01247 0.27455
 N374 N 0.69619 -0.02635 0.27470
 C375 C 0.71032 0.07830 0.25014
 C376 C 0.73222 0.10335 0.22544
 H377 H 0.74742 -0.09848 0.22967
 H378 H 0.68926 0.09037 0.27037
 H379 H 0.68341 -0.09946 0.29485
 H380 H 0.75328 0.09133 0.20520
 C381 C 0.78182 0.75431 0.62973
 C382 C 0.75120 0.73737 0.60775
 C383 C 0.75137 0.73769 0.56433
 N384 N 0.71720 0.73309 0.54414
 N385 N 0.71696 0.73328 0.50476
 C386 C 0.75096 0.73762 0.48415
 N387 N 0.78518 0.74173 0.50434
 N388 N 0.78537 0.74199 0.54372
 C389 C 0.75119 0.73733 0.44073
 C390 C 0.71813 0.74616 0.41874
 H391 H 0.72557 0.72512 0.62276
 H392 H 0.77850 0.73182 0.42573
 H393 H 0.80580 0.76968 0.61477
 H394 H 0.69184 0.75515 0.43371
 C395 C 0.57554 0.72748 0.27398
 C396 C 0.55081 0.75648 0.28709
 C397 C 0.50798 0.75080 0.28677
 N398 N 0.48479 0.78238 0.28705
 N399 N 0.44591 0.77763 0.28682
 C400 C 0.42882 0.74107 0.28676
 N401 N 0.45200 0.70948 0.28699
 N402 N 0.49089 0.71424 0.28677
 C403 C 0.38598 0.73539 0.28706
 C404 C 0.36125 0.76441 0.27400
 H405 H 0.56309 0.78479 0.29613
 H406 H 0.37370 0.70706 0.29606
 H407 H 0.56317 0.70051 0.26159
 H408 H 0.37363 0.79140 0.26166
 C409 C 0.20448 -0.11147 0.27460
 C410 C 0.22636 -0.08642 0.24990
 C411 C 0.22200 -0.04360 0.25015
 N412 N 0.24405 -0.02059 0.22548
 N413 N 0.24047 0.01823 0.22533
 C414 C 0.21467 0.03548 0.24988
 N415 N 0.19261 0.01247 0.27455
 N416 N 0.19619 -0.02635 0.27470
 C417 C 0.21031 0.07830 0.25014
 C418 C 0.23222 0.10335 0.22545
 H419 H 0.24742 -0.09848 0.22967
 H420 H 0.18926 0.09037 0.27037
 H421 H 0.18340 -0.09947 0.29484
 H422 H 0.25328 0.09133 0.20520
 C423 C 0.28182 0.75431 0.62973
 C424 C 0.25120 0.73737 0.60775
 C425 C 0.25137 0.73769 0.56432
 N426 N 0.21720 0.73309 0.54413
 N427 N 0.21696 0.73327 0.50475
 C428 C 0.25096 0.73762 0.48415
 N429 N 0.28518 0.74173 0.50434
 N430 N 0.28538 0.74199 0.54372
 C431 C 0.25119 0.73733 0.44072
 C432 C 0.21813 0.74616 0.41874
 H433 H 0.22557 0.72512 0.62275
 H434 H 0.27850 0.73181 0.42572
 H435 H 0.30580 0.76968 0.61476
 H436 H 0.19184 0.75514 0.43370
 C437 C -0.13875 0.26441 0.22599
 C438 C -0.11402 0.23538 0.21293
 C439 C -0.07118 0.24107 0.21323
 N440 N -0.04800 0.20948 0.21301
 N441 N -0.00911 0.21424 0.21324
 C442 C 0.00798 0.25079 0.21323
 N443 N -0.01521 0.28238 0.21294
 N444 N -0.05409 0.27762 0.21318
 C445 C 0.05081 0.25648 0.21292
 C446 C 0.07554 0.22748 0.22603
 H447 H -0.12630 0.20706 0.20394
 H448 H 0.06310 0.28479 0.20387
 H449 H -0.12637 0.29140 0.23833
 H450 H 0.06317 0.20051 0.23842
 C451 C 0.73221 0.60335 0.27456
 C452 C 0.71031 0.57830 0.24987
 C453 C 0.71467 0.53548 0.25012
 N454 N 0.69261 0.51247 0.22545
 N455 N 0.69619 0.47365 0.22530
 C456 C 0.72200 0.45640 0.24985
 N457 N 0.74406 0.47941 0.27452
 N458 N 0.74047 0.51823 0.27467
 C459 C 0.72636 0.41359 0.25010
 C460 C 0.70448 0.38853 0.22540
 H461 H 0.68926 0.59037 0.22964
 H462 H 0.74742 0.40152 0.27033
 H463 H 0.75328 0.59133 0.29480
 H464 H 0.68341 0.40054 0.20515
 C465 C 0.78187 0.25384 0.58126
 C466 C 0.74881 0.26267 0.55927
 C467 C 0.74904 0.26238 0.51585
 N468 N 0.71482 0.25827 0.49566
 N469 N 0.71463 0.25801 0.45628
 C470 C 0.74863 0.26231 0.43567
 N471 N 0.78280 0.26691 0.45586
 N472 N 0.78304 0.26672 0.49524
 C473 C 0.74881 0.26263 0.39225
 C474 C 0.71819 0.24569 0.37027
 H475 H 0.72150 0.26818 0.57427
 H476 H 0.77443 0.27488 0.37725
 H477 H 0.80816 0.24485 0.56629
 H478 H 0.69420 0.23032 0.38523
 C479 C 0.57554 0.22748 0.22603
 C480 C 0.55081 0.25648 0.21292
 C481 C 0.50798 0.25080 0.21323
 N482 N 0.48479 0.28238 0.21295
 N483 N 0.44591 0.27763 0.21318
 C484 C 0.42882 0.24107 0.21324
 N485 N 0.45200 0.20948 0.21301
 N486 N 0.49089 0.21424 0.21324
 C487 C 0.38598 0.23538 0.21294
 C488 C 0.36125 0.26441 0.22600
 H489 H 0.56309 0.28479 0.20387
 H490 H 0.37370 0.20706 0.20394
 H491 H 0.56317 0.20051 0.23841
 H492 H 0.37363 0.29140 0.23834
 C493 C 0.23221 0.60335 0.27455
 C494 C 0.21031 0.57830 0.24986
 C495 C 0.21467 0.53548 0.25012
 N496 N 0.19261 0.51247 0.22545
 N497 N 0.19619 0.47365 0.22531
 C498 C 0.22199 0.45640 0.24985
 N499 N 0.24405 0.47941 0.27452
 N500 N 0.24047 0.51823 0.27467
 C501 C 0.22636 0.41358 0.25010
 C502 C 0.20447 0.38853 0.22540
 H503 H 0.18926 0.59037 0.22963
 H504 H 0.24741 0.40152 0.27034
 H505 H 0.25328 0.59133 0.29480
 H506 H 0.18340 0.40053 0.20516
 C507 C 0.28187 0.25385 0.58126
 C508 C 0.24881 0.26267 0.55928
 C509 C 0.24904 0.26238 0.51585
 N510 N 0.21482 0.25827 0.49567
 N511 N 0.21463 0.25800 0.45629
 C512 C 0.24863 0.26231 0.43568
 N513 N 0.28280 0.26692 0.45587
 N514 N 0.28304 0.26673 0.49525
 C515 C 0.24880 0.26263 0.39225
 C516 C 0.21819 0.24569 0.37027
 H517 H 0.22150 0.26819 0.57428
 H518 H 0.27443 0.27488 0.37725
 H519 H 0.30816 0.24486 0.56630
 H520 H 0.19420 0.23031 0.38524
   
