data_POSCAR
  _audit_creation_date              2014-09-24
  _audit_creation_method            'ToBaCCo'
  _symmetry_space_group_name_H-M    'P1'
  _symmetry_Int_Tables_number       1
  _symmetry_cell_setting            triclinic
  loop_
  _symmetry_equiv_pos_as_xyz
 x,y,z
_cell_length_a 48.9428
_cell_length_b 48.9863
_cell_length_c 49.1370
_cell_angle_alpha 90.045000
_cell_angle_beta 89.988300
_cell_angle_gamma 90.008600
loop_
  _atom_site_label
  _atom_site_type_symbol
  _atom_site_fract_x
  _atom_site_fract_y
  _atom_site_fract_z
C1 C 0.33114 0.36206 1.36396
 C2 C 0.34163 0.37474 1.34041
 C3 C 0.36466 0.36441 1.32694
 C4 C 0.37770 0.34110 1.33719
 C5 C 0.36810 0.32776 1.36074
 C6 C 0.34480 0.33865 1.37387
 H7 H 0.33101 0.39177 1.33125
 H8 H 0.39623 0.33432 1.32727
 H9 H 0.33712 0.32873 1.39188
 C10 C 1.17196 0.63870 0.86867
 C11 C 1.16127 0.62552 0.84538
 C12 C 1.13819 0.63569 0.83176
 C13 C 1.12535 0.65929 0.84159
 C14 C 1.13537 0.67284 0.86465
 C15 C 1.15849 0.66244 0.87803
 H16 H 1.17129 0.60776 0.83696
 H17 H 1.10803 0.66766 0.83070
 H18 H 1.16502 0.67240 0.89657
 C19 C 0.67031 -0.13466 0.13253
 C20 C 0.65683 -0.15819 0.12265
 C21 C 0.63356 -0.16872 0.13570
 C22 C 0.62332 -0.15546 0.15883
 C23 C 0.63612 -0.13202 0.16911
 C24 C 0.65939 -0.12176 0.15586
 H25 H 0.66481 -0.16920 0.10532
 H26 H 0.60589 -0.16397 0.16943
 H27 H 0.66806 -0.10287 0.16330
 C28 C -0.17533 1.13531 -0.36542
 C29 C -0.16151 1.15851 -0.37560
 C30 C -0.13830 1.16910 -0.36250
 C31 C -0.12854 1.15628 -0.33895
 C32 C -0.14171 1.13324 -0.32831
 C33 C -0.16489 1.12287 -0.34162
 H34 H -0.16958 1.16964 -0.39281
 H35 H -0.11030 1.16400 -0.32910
 H36 H -0.17430 1.10469 -0.33344
 C37 C 0.67431 0.63818 0.63527
 C38 C 0.66106 0.66112 0.62433
 C39 C 0.63745 0.67223 0.63667
 C40 C 0.62736 0.65932 0.66034
 C41 C 0.64038 0.63640 0.67154
 C42 C 0.66378 0.62593 0.65883
 H43 H 0.67043 0.67114 0.60709
 H44 H 0.60852 0.66612 0.66964
 H45 H 0.67396 0.60831 0.66743
 C46 C 0.83000 0.36469 0.13797
 C47 C 0.84023 0.37693 0.16165
 C48 C 0.86338 0.36636 0.17472
 C49 C 0.87644 0.34331 0.16373
 C50 C 0.86667 0.33045 0.13988
 C51 C 0.84331 0.34168 0.12720
 H52 H 0.82959 0.39420 0.17046
 H53 H 0.89506 0.33637 0.17332
 H54 H 0.83459 0.33213 0.10937
 C55 C 0.32732 0.13932 0.86292
 C56 C 0.34088 0.16273 0.87298
 C57 C 0.36417 0.17330 0.86001
 C58 C 0.37423 0.16031 0.83666
 C59 C 0.36130 0.13706 0.82613
 C60 C 0.33806 0.12670 0.83933
 H61 H 0.33387 0.17270 0.89132
 H62 H 0.39252 0.16805 0.82692
 H63 H 0.32753 0.10971 0.82997
 C64 C 0.16885 0.85999 0.36323
 C65 C 0.15517 0.83685 0.37370
 C66 C 0.13166 0.82631 0.36109
 C67 C 0.12148 0.83910 0.33767
 C68 C 0.13451 0.86210 0.32678
 C69 C 0.15795 0.87242 0.33967
 H70 H 0.16357 0.82574 0.39077
 H71 H 0.10344 0.83098 0.32778
 H72 H 0.16676 0.89105 0.33177
 Zn73 Zn -0.01688 1.00741 0.03282
 Zn74 Zn -0.02208 0.98063 -0.02171
 Zn75 Zn 0.00436 1.03552 -0.01652
 Zn76 Zn 0.03268 0.98621 0.00483
 O77 O -0.00051 1.00241 -0.00018
 O78 O -0.04904 0.99039 0.03515
 O79 O -0.03248 0.99734 -0.05256
 O80 O -0.00801 1.06343 0.00358
 O81 O -0.05307 0.97031 -0.00497
 O82 O -0.02367 1.04254 0.04025
 O83 O -0.01296 1.03785 -0.04843
 O84 O 0.06054 1.00637 -0.00761
 O85 O -0.00515 0.94969 -0.03197
 O86 O 0.03948 1.04287 -0.02362
 O87 O 0.03524 0.95419 -0.01231
 O88 O 0.03995 0.97912 0.03982
 O89 O 0.00307 0.99472 0.06060
 C90 C -0.06233 0.97555 0.01863
 C91 C -0.02763 1.02112 -0.06168
 C92 C -0.01934 1.06423 0.02681
 C93 C 0.06124 1.02949 -0.01923
 C94 C 0.01868 0.94071 -0.02696
 C95 C 0.02630 0.98322 0.06141
 Zn96 Zn 0.51305 -0.00726 0.53190
 Zn97 Zn 0.51872 0.01929 0.47737
 Zn98 Zn 0.49203 -0.03545 0.48249
 Zn99 Zn 0.46372 0.01406 0.50354
 O100 O 0.49691 -0.00230 0.49879
 O101 O 0.54507 0.00995 0.53451
 O102 O 0.52907 0.00252 0.44649
 O103 O 0.50475 -0.06328 0.50243
 O104 O 0.54965 0.02958 0.49426
 O105 O 0.52017 -0.04234 0.53918
 O106 O 0.50912 -0.03778 0.45047
 O107 O 0.43588 -0.00615 0.49110
 O108 O 0.50200 0.05025 0.46703
 O109 O 0.45690 -0.04295 0.47565
 O110 O 0.46139 0.04609 0.48632
 O111 O 0.45622 0.02115 0.53850
 O112 O 0.49276 0.00522 0.55958
 C113 C 0.55860 0.02460 0.51802
 C114 C 0.52391 -0.02115 0.43724
 C115 C 0.51617 -0.06402 0.52560
 C116 C 0.43516 -0.02947 0.47985
 C117 C 0.47819 0.05941 0.47181
 C118 C 0.46958 0.01681 0.56021
 Zn119 Zn 0.98727 0.49170 0.53683
 Zn120 Zn 1.00859 0.46372 0.48738
 Zn121 Zn 0.98179 0.51838 0.48235
 Zn122 Zn 1.03667 0.51325 0.50871
 O123 O 1.00356 0.49679 0.50379
 O124 O 0.98024 0.45655 0.54397
 O125 O 0.99136 0.46134 0.45544
 O126 O 0.95088 0.52868 0.49922
 O127 O 0.99609 0.43577 0.50729
 O128 O 0.95519 0.50887 0.53941
 O129 O 0.97136 0.50161 0.45151
 O130 O 1.03896 0.54536 0.49165
 O131 O 1.04376 0.45652 0.48031
 O132 O 0.99850 0.54934 0.47203
 O133 O 1.06460 0.49328 0.49609
 O134 O 1.04406 0.52020 0.54374
 O135 O 1.00743 0.50414 0.56461
 C136 C 0.98450 0.43491 0.53039
 C137 C 0.97648 0.47793 0.44227
 C138 C 0.94181 0.52364 0.52292
 C139 C 1.02223 0.55861 0.47699
 C140 C 1.06543 0.47011 0.48453
 C141 C 1.03060 0.51578 0.56538
 Zn142 Zn 0.50670 0.46747 1.01513
 Zn143 Zn 0.47988 0.52209 1.02088
 Zn144 Zn 0.53473 0.51717 0.99436
 Zn145 Zn 0.48534 0.49595 0.96605
 O146 O 0.50163 0.50071 0.99914
 O147 O 0.48943 0.46473 1.04699
 O148 O 0.49655 0.55309 1.03136
 O149 O 0.56265 0.49723 1.00697
 O150 O 0.46958 0.50502 1.05162
 O151 O 0.54184 0.46027 1.02226
 O152 O 0.53693 0.54921 1.01152
 O153 O 0.50553 0.50858 0.93837
 O154 O 0.44888 0.53240 1.00418
 O155 O 0.54225 0.52420 0.95940
 O156 O 0.45322 0.51308 0.96372
 O157 O 0.47842 0.46087 0.95846
 O158 O 0.49437 0.43970 0.99483
 C159 C 0.47465 0.48119 1.06048
 C160 C 0.52024 0.56241 1.02629
 C161 C 0.56349 0.47397 1.01830
 C162 C 0.52881 0.51999 0.93771
 C163 C 0.43978 0.52758 0.98044
 C164 C 0.48283 0.43908 0.97171
 C165 C 1.27624 0.41011 0.38759
 C166 C 1.25920 0.39249 0.40212
 C167 C 1.26600 0.36491 0.40431
 C168 C 1.28968 0.35486 0.39196
 C169 C 1.30721 0.37227 0.37698
 C170 C 1.29994 0.40019 0.37515
 C171 C 1.23446 0.40260 0.41435
 C172 C 1.21358 0.41095 0.42436
 C173 C 1.18895 0.42065 0.43577
 C174 C 1.16777 0.42890 0.44519
 C175 C 1.14229 0.43878 0.45602
 C176 C 1.14123 0.46392 0.46952
 C177 C 1.11629 0.47397 0.47917
 C178 C 1.09205 0.45897 0.47540
 C179 C 1.09340 0.43354 0.46209
 C180 C 1.11836 0.42356 0.45247
 H181 H 1.27125 0.43159 0.38591
 H182 H 1.25276 0.35101 0.41529
 H183 H 1.29324 0.33313 0.39325
 H184 H 1.31292 0.41484 0.36496
 H185 H 1.15963 0.47589 0.47235
 H186 H 1.11598 0.49360 0.48931
 H187 H 1.07514 0.42149 0.45884
 H188 H 1.11894 0.40408 0.44202
 C189 C 0.23689 0.63640 0.90936
 C190 C 0.24391 0.60885 0.90721
 C191 C 0.22691 0.59103 0.89289
 C192 C 0.20312 0.60070 0.88045
 C193 C 0.19574 0.62860 0.88203
 C194 C 0.21310 0.64620 0.89701
 C195 C 0.26896 0.59897 0.91897
 C196 C 0.29012 0.59053 0.92828
 C197 C 0.31509 0.58039 0.93849
 C198 C 0.33657 0.57149 0.94657
 C199 C 0.36239 0.56052 0.95536
 C200 C 0.37770 0.54437 0.93750
 C201 C 0.40283 0.53368 0.94569
 C202 C 0.41307 0.53899 0.97194
 C203 C 0.39751 0.55524 0.98980
 C204 C 0.37232 0.56593 0.98153
 H205 H 0.25007 0.65046 0.92021
 H206 H 0.23205 0.56957 0.89127
 H207 H 0.19025 0.58585 0.87041
 H208 H 0.20932 0.66791 0.89826
 H209 H 0.37021 0.54006 0.91720
 H210 H 0.41424 0.52126 0.93142
 H211 H 0.40480 0.55971 1.01013
 H212 H 0.36063 0.57843 0.99552
 C213 C -0.26227 0.90029 0.12198
 C214 C -0.25740 0.89504 0.09447
 C215 C -0.27650 0.88023 0.07937
 C216 C -0.30035 0.87055 0.09175
 C217 C -0.30567 0.87551 0.11965
 C218 C -0.28605 0.89072 0.13445
 C219 C -0.23264 0.90474 0.08196
 C220 C -0.21167 0.91305 0.07213
 C221 C -0.18686 0.92305 0.06142
 C222 C -0.16546 0.93188 0.05304
 C223 C -0.13971 0.94283 0.04405
 C224 C -0.12455 0.95943 0.06161
 C225 C -0.09943 0.97006 0.05329
 C226 C -0.08906 0.96423 0.02721
 C227 C -0.10446 0.94753 0.00963
 C228 C -0.12964 0.93690 0.01803
 H229 H -0.24747 0.91156 0.13394
 H230 H -0.27304 0.87625 0.05795
 H231 H -0.31491 0.86007 0.07891
 H232 H -0.28816 0.89435 0.15606
 H233 H -0.13214 0.96414 0.08180
 H234 H -0.08814 0.98283 0.06735
 H235 H -0.09706 0.94266 -0.01056
 H236 H -0.14122 0.92404 0.00427
 C237 C 0.77222 0.11987 0.58087
 C238 C 0.75271 0.10557 0.59591
 C239 C 0.75702 0.10087 0.62360
 C240 C 0.78067 0.11047 0.63631
 C241 C 0.80072 0.12515 0.62157
 C242 C 0.79594 0.12957 0.59348
 C243 C 0.72810 0.09581 0.58314
 C244 C 0.70725 0.08746 0.57307
 C245 C 0.68258 0.07741 0.56208
 C246 C 0.66129 0.06853 0.55346
 C247 C 0.63566 0.05752 0.54419
 C248 C 0.62024 0.04109 0.56168
 C249 C 0.59524 0.03040 0.55312
 C250 C 0.58522 0.03599 0.52685
 C251 C 0.60088 0.05251 0.50935
 C252 C 0.62595 0.06321 0.51800
 H253 H 0.76919 0.12342 0.55932
 H254 H 0.74189 0.09001 0.63552
 H255 H 0.78233 0.10729 0.65801
 H256 H 0.81084 0.13964 0.58071
 H257 H 0.62755 0.03657 0.58200
 H258 H 0.58375 0.01777 0.56712
 H259 H 0.59375 0.05719 0.48902
 H260 H 0.63773 0.07592 0.50430
 C261 C 0.40793 0.26226 0.36283
 C262 C 0.40612 0.25548 0.39037
 C263 C 0.39236 0.27284 0.40827
 C264 C 0.38012 0.29675 0.39868
 C265 C 0.38131 0.30389 0.37079
 C266 C 0.39578 0.28618 0.35311
 C267 C 0.41764 0.23031 0.40020
 C268 C 0.42675 0.20907 0.40864
 C269 C 0.43674 0.18404 0.41879
 C270 C 0.44466 0.16253 0.42771
 C271 C 0.45333 0.13671 0.43871
 C272 C 0.43531 0.12154 0.45481
 C273 C 0.44342 0.09643 0.46556
 C274 C 0.46974 0.08608 0.46034
 C275 C 0.48775 0.10150 0.44412
 C276 C 0.47956 0.12666 0.43338
 H277 H 0.41835 0.24881 0.34873
 H278 H 0.39104 0.26790 0.42972
 H279 H 0.37059 0.30992 0.41358
 H280 H 0.39672 0.28982 0.33143
 H281 H 0.41496 0.12912 0.45907
 H282 H 0.42905 0.08513 0.47795
 H283 H 0.50814 0.09412 0.43972
 H284 H 0.49367 0.13824 0.42092
 C285 C 0.89690 0.23812 0.63514
 C286 C 0.90066 0.24165 0.60714
 C287 C 0.89187 0.22142 0.58902
 C288 C 0.87928 0.19776 0.59885
 C289 C 0.87535 0.19405 0.62698
 C290 C 0.88434 0.21449 0.64502
 C291 C 0.91314 0.26625 0.59705
 C292 C 0.92337 0.28703 0.58876
 C293 C 0.93502 0.31156 0.57919
 C294 C 0.94465 0.33269 0.57106
 C295 C 0.95569 0.35812 0.56135
 C296 C 0.96928 0.35920 0.53631
 C297 C 0.97907 0.38411 0.52641
 C298 C 0.97533 0.40830 0.54144
 C299 C 0.96197 0.40692 0.56677
 C300 C 0.95221 0.38199 0.57662
 H301 H 0.90351 0.25371 0.64934
 H302 H 0.89469 0.22394 0.56729
 H303 H 0.87284 0.18226 0.58449
 H304 H 0.88126 0.21242 0.66674
 H305 H 0.97205 0.34084 0.52431
 H306 H 0.98925 0.38445 0.50684
 H307 H 0.95874 0.42514 0.57884
 H308 H 0.94169 0.38139 0.59601
 C309 C 0.12511 0.74437 -0.10747
 C310 C 0.09659 0.74632 -0.10694
 C311 C 0.08067 0.72423 -0.11562
 C312 C 0.09323 0.70029 -0.12482
 C313 C 0.12190 0.69814 -0.12542
 C314 C 0.13770 0.72048 -0.11664
 C315 C 0.08384 0.77101 -0.09739
 C316 C 0.07376 0.79191 -0.08919
 C317 C 0.06276 0.81663 -0.07929
 C318 C 0.05413 0.83795 -0.07053
 C319 C 0.04487 0.86362 -0.05964
 C320 C 0.01859 0.87335 -0.06538
 C321 C 0.00993 0.89844 -0.05476
 C322 C 0.02751 0.91408 -0.03828
 C323 C 0.05386 0.90404 -0.03266
 C324 C 0.06243 0.87902 -0.04327
 H325 H 0.13763 0.76137 -0.10086
 H326 H 0.05857 0.72549 -0.11522
 H327 H 0.08053 0.68334 -0.13117
 H328 H 0.15980 0.71960 -0.11722
 H329 H 0.00483 0.86158 -0.07805
 H330 H -0.01046 0.90558 -0.05947
 H331 H 0.06793 0.91552 -0.02006
 H332 H 0.08281 0.87170 -0.03871
 C333 C 0.57949 0.77963 1.11502
 C334 C 0.59565 0.75746 1.10704
 C335 C 0.62414 0.75942 1.10837
 C336 C 0.63647 0.78342 1.11762
 C337 C 0.62043 0.80585 1.12567
 C338 C 0.59178 0.80368 1.12432
 C339 C 0.58319 0.73267 1.09737
 C340 C 0.57339 0.71167 1.08907
 C341 C 0.56273 0.68685 1.07907
 C342 C 0.55439 0.66545 1.07022
 C343 C 0.54547 0.63970 1.05924
 C344 C 0.56321 0.62461 1.04277
 C345 C 0.55496 0.59951 1.03207
 C346 C 0.52876 0.58909 1.03771
 C347 C 0.51100 0.60443 1.05429
 C348 C 0.51933 0.62959 1.06499
 H349 H 0.55741 0.77836 1.11402
 H350 H 0.63685 0.74235 1.10232
 H351 H 0.65854 0.78429 1.11885
 H352 H 0.57892 0.82070 1.13016
 H353 H 0.58348 0.63223 1.03820
 H354 H 0.56915 0.58828 1.01940
 H355 H 0.49071 0.59699 1.05902
 H356 H 0.50544 0.64112 1.07775
 C357 C 0.38545 0.41884 1.27591
 C358 C 0.39378 0.40286 1.25380
 C359 C 0.39269 0.37437 1.25561
 C360 C 0.38331 0.36188 1.27940
 C361 C 0.37486 0.37774 1.30175
 C362 C 0.37603 0.40639 1.29975
 C363 C 0.40352 0.41552 1.22921
 C364 C 0.41186 0.42557 1.20842
 C365 C 0.42189 0.43658 1.18383
 C366 C 0.43074 0.44526 1.16263
 C367 C 0.44172 0.45463 1.13712
 C368 C 0.45824 0.43718 1.12172
 C369 C 0.46893 0.44587 1.09685
 C370 C 0.46325 0.47222 1.08695
 C371 C 0.44663 0.48968 1.10258
 C372 C 0.43593 0.48091 1.12752
 H373 H 0.38629 0.44091 1.27476
 H374 H 0.39902 0.36180 1.23859
 H375 H 0.38229 0.33981 1.28018
 H376 H 0.36995 0.41913 1.31672
 H377 H 0.46284 0.41680 1.12894
 H378 H 0.48163 0.43189 1.08538
 H379 H 0.44187 0.51008 1.09554
 H380 H 0.42315 0.49459 1.13928
 C381 C 0.58729 -0.10325 0.22191
 C382 C 0.60546 -0.09410 0.24193
 C383 C 0.63363 -0.09692 0.23797
 C384 C 0.64361 -0.10902 0.21418
 C385 C 0.62550 -0.11850 0.19403
 C386 C 0.59722 -0.11537 0.19811
 C387 C 0.59521 -0.08256 0.26686
 C388 C 0.58658 -0.07336 0.28794
 C389 C 0.57637 -0.06320 0.31283
 C390 C 0.56747 -0.05513 0.33425
 C391 C 0.55656 -0.04631 0.35999
 C392 C 0.56237 -0.02021 0.37009
 C393 C 0.55178 -0.01192 0.39524
 C394 C 0.53524 -0.02968 0.41059
 C395 C 0.52954 -0.05586 0.40020
 C396 C 0.54013 -0.06407 0.37510
 H397 H 0.56543 -0.10117 0.22478
 H398 H 0.64788 -0.09005 0.25339
 H399 H 0.66547 -0.11146 0.21180
 H400 H 0.58279 -0.12219 0.18284
 H401 H 0.57509 -0.00630 0.35855
 H402 H 0.55655 0.00835 0.40265
 H403 H 0.51689 -0.07005 0.41145
 H404 H 0.53552 -0.08432 0.36749
 C405 C -0.11327 1.12429 -0.25708
 C406 C -0.11169 1.09584 -0.25503
 C407 C -0.11995 1.07952 -0.27694
 C408 C -0.12974 1.09162 -0.30081
 C409 C -0.13135 1.12022 -0.30305
 C410 C -0.12303 1.13641 -0.28089
 C411 C -0.10142 1.08360 -0.23046
 C412 C -0.09262 1.07398 -0.20966
 C413 C -0.08206 1.06350 -0.18507
 C414 C -0.07279 1.05527 -0.16388
 C415 C -0.06139 1.04635 -0.13839
 C416 C -0.06685 1.02015 -0.12840
 C417 C -0.05584 1.01182 -0.10345
 C418 C -0.03925 1.02964 -0.08820
 C419 C -0.03387 1.05590 -0.09851
 C420 C -0.04488 1.06416 -0.12340
 H421 H -0.10699 1.13711 -0.24023
 H422 H -0.11872 1.05748 -0.27561
 H423 H -0.13569 1.07864 -0.31764
 H424 H -0.12436 1.15845 -0.28188
 H425 H -0.07963 1.00621 -0.13984
 H426 H -0.06037 0.99148 -0.09610
 H427 H -0.02120 1.07014 -0.08733
 H428 H -0.04054 1.08449 -0.13093
 C429 C 1.13657 0.60064 0.76284
 C430 C 1.10847 0.59723 0.75885
 C431 C 1.09007 0.60612 0.77878
 C432 C 1.09972 0.61849 0.80257
 C433 C 1.12793 0.62210 0.80672
 C434 C 1.14626 0.61299 0.78661
 C435 C 1.09853 0.58506 0.73408
 C436 C 1.09026 0.57514 0.71319
 C437 C 1.08059 0.56385 0.68857
 C438 C 1.07231 0.55453 0.66741
 C439 C 1.06233 0.54383 0.64199
 C440 C 1.03722 0.53021 0.64097
 C441 C 1.02705 0.52071 0.61611
 C442 C 1.04189 0.52476 0.59190
 C443 C 1.06729 0.53818 0.59321
 C444 C 1.07740 0.54766 0.61810
 H445 H 1.15098 0.59396 0.74747
 H446 H 1.06827 0.60358 0.77590
 H447 H 1.08514 0.62507 0.81781
 H448 H 1.16806 0.61586 0.78902
 H449 H 1.02536 0.52718 0.65935
 H450 H 1.00744 0.51048 0.61583
 H451 H 1.07923 0.54164 0.57498
 H452 H 1.09685 0.55821 0.61865
 C453 C 0.72585 0.61542 0.58207
 C454 C 0.74785 0.60743 0.59842
 C455 C 0.74582 0.60947 0.62676
 C456 C 0.72192 0.61942 0.63874
 C457 C 0.69966 0.62749 0.62250
 C458 C 0.70190 0.62541 0.59402
 C459 C 0.77253 0.59706 0.58630
 C460 C 0.79341 0.58822 0.57670
 C461 C 0.81807 0.57766 0.56616
 C462 C 0.83931 0.56843 0.55782
 C463 C 0.86487 0.55711 0.54872
 C464 C 0.87999 0.54047 0.56626
 C465 C 0.90495 0.52956 0.55781
 C466 C 0.91520 0.53514 0.53163
 C467 C 0.89981 0.55185 0.51408
 C468 C 0.87480 0.56276 0.52260
 H469 H 0.72718 0.61387 0.56011
 H470 H 0.76276 0.60341 0.63961
 H471 H 0.72098 0.62116 0.66069
 H472 H 0.68501 0.63121 0.58101
 H473 H 0.87251 0.53597 0.58652
 H474 H 0.91624 0.51679 0.57185
 H475 H 0.90712 0.55654 0.49381
 H476 H 0.86325 0.57564 0.50887
 C477 C 0.77723 0.41385 1.10965
 C478 C 0.75701 0.39582 1.10051
 C479 C 0.76068 0.36766 1.10349
 C480 C 0.78444 0.35752 1.11559
 C481 C 0.80488 0.37546 1.12487
 C482 C 0.80102 0.40375 1.12177
 C483 C 0.73232 0.40617 1.08842
 C484 C 0.71147 0.41466 1.07849
 C485 C 0.68688 0.42446 1.06714
 C486 C 0.66572 0.43276 1.05773
 C487 C 0.64027 0.44267 1.04690
 C488 C 0.61638 0.42734 1.05018
 C489 C 0.59144 0.43732 1.04053
 C490 C 0.59008 0.46285 1.02747
 C491 C 0.61430 0.47796 1.02397
 C492 C 0.63921 0.46792 1.03365
 H493 H 0.77459 0.43569 1.10743
 H494 H 0.74510 0.35353 1.09663
 H495 H 0.78662 0.33567 1.11809
 H496 H 0.81650 0.41803 1.12850
 H497 H 0.61697 0.40777 1.06044
 H498 H 0.57321 0.42518 1.04357
 H499 H 0.61397 0.49767 1.01402
 H500 H 0.65759 0.47997 1.03103
 C501 C 0.26228 1.13618 -0.09663
 C502 C 0.25525 1.10870 -0.09940
 C503 C 0.27214 1.09123 -0.11427
 C504 C 0.29590 1.10118 -0.12653
 C505 C 0.30338 1.12901 -0.12420
 C506 C 0.28604 1.14627 -0.10880
 C507 C 0.23042 1.09854 -0.08742
 C508 C 0.20947 1.09008 -0.07766
 C509 C 0.18478 1.08019 -0.06657
 C510 C 0.16356 1.07173 -0.05744
 C511 C 0.13806 1.06157 -0.04695
 C512 C 0.11401 1.07651 -0.05081
 C513 C 0.08905 1.06626 -0.04148
 C514 C 0.08782 1.04085 -0.02817
 C515 C 0.11218 1.02612 -0.02412
 C516 C 0.13711 1.03643 -0.03348
 H517 H 0.24917 1.14997 -0.08535
 H518 H 0.26698 1.06982 -0.11637
 H519 H 0.30874 1.08660 -0.13700
 H520 H 0.28982 1.16793 -0.10702
 H521 H 0.11451 1.09598 -0.06125
 H522 H 0.07070 1.07812 -0.04493
 H523 H 0.11195 1.00651 -0.01398
 H524 H 0.15561 1.02467 -0.03043
 C525 C 0.23646 -0.10514 0.37284
 C526 C 0.24132 -0.10973 0.40045
 C527 C 0.22223 -0.12419 0.41588
 C528 C 0.19836 -0.13413 0.40375
 C529 C 0.19300 -0.12976 0.37576
 C530 C 0.21266 -0.11497 0.36060
 C531 C 0.26604 -0.09972 0.41278
 C532 C 0.28692 -0.09125 0.42267
 C533 C 0.31157 -0.08123 0.43373
 C534 C 0.33278 -0.07260 0.44275
 C535 C 0.35829 -0.06221 0.45300
 C536 C 0.38236 -0.07718 0.44931
 C537 C 0.40733 -0.06669 0.45833
 C538 C 0.40857 -0.04101 0.47115
 C539 C 0.38420 -0.02625 0.47502
 C540 C 0.35925 -0.03679 0.46598
 H541 H 0.25127 -0.09417 0.36062
 H542 H 0.22570 -0.12768 0.43737
 H543 H 0.18380 -0.14431 0.41681
 H544 H 0.21053 -0.11184 0.33893
 H545 H 0.38185 -0.09686 0.43924
 H546 H 0.42568 -0.07859 0.45503
 H547 H 0.38443 -0.00643 0.48480
 H548 H 0.34074 -0.02501 0.46888
 C549 C 0.59660 -0.26306 0.63216
 C550 C 0.59931 -0.25662 0.60463
 C551 C 0.61435 -0.27377 0.58756
 C552 C 0.62680 -0.29723 0.59797
 C553 C 0.62447 -0.30412 0.62586
 C554 C 0.60896 -0.28649 0.64270
 C555 C 0.58704 -0.23213 0.59405
 C556 C 0.57697 -0.21144 0.58539
 C557 C 0.56547 -0.18699 0.57544
 C558 C 0.55596 -0.16593 0.56704
 C559 C 0.54502 -0.14057 0.55706
 C560 C 0.53171 -0.13964 0.53189
 C561 C 0.52194 -0.11480 0.52179
 C562 C 0.52541 -0.09054 0.53678
 C563 C 0.53853 -0.09178 0.56224
 C564 C 0.54827 -0.11663 0.57228
 H565 H 0.58521 -0.24975 0.64564
 H566 H 0.61641 -0.26906 0.56611
 H567 H 0.63739 -0.31030 0.58371
 H568 H 0.60721 -0.28982 0.66438
 H569 H 0.52911 -0.15805 0.51993
 H570 H 0.51195 -0.11456 0.50213
 H571 H 0.54155 -0.07351 0.57429
 H572 H 0.55857 -0.11713 0.59179
 C573 C 1.09726 0.75693 0.36460
 C574 C 1.09424 0.75351 0.39271
 C575 C 1.10298 0.77408 0.41048
 C576 C 1.11491 0.79787 0.40020
 C577 C 1.11826 0.80140 0.37198
 C578 C 1.10916 0.78071 0.35427
 C579 C 1.08293 0.72859 0.40336
 C580 C 1.07392 0.70755 0.41237
 C581 C 1.06395 0.68273 0.42304
 C582 C 1.05600 0.66139 0.43232
 C583 C 1.04723 0.63574 0.44362
 C584 C 1.06509 0.62078 0.46007
 C585 C 1.05692 0.59574 0.47095
 C586 C 1.03069 0.58527 0.46552
 C587 C 1.01282 0.60049 0.44899
 C588 C 1.02107 0.62557 0.43811
 H589 H 1.09070 0.74107 0.35067
 H590 H 1.10075 0.77164 0.43228
 H591 H 1.12144 0.81357 0.41431
 H592 H 1.11179 0.78265 0.33248
 H593 H 1.08538 0.62845 0.46445
 H594 H 1.07118 0.58458 0.48359
 H595 H 0.99251 0.59301 0.44441
 H596 H 1.00708 0.63699 0.42537
 C597 C -0.11009 1.27626 0.09098
 C598 C -0.09576 1.25876 0.10826
 C599 C -0.09332 1.26517 0.13584
 C600 C -0.10536 1.28887 0.14623
 C601 C -0.12032 1.30675 0.12919
 C602 C -0.12222 1.29995 0.10123
 C603 C -0.08413 1.23389 0.09779
 C604 C -0.07476 1.21290 0.08903
 C605 C -0.06421 1.18814 0.07876
 C606 C -0.05556 1.16684 0.06999
 C607 C -0.04568 1.14124 0.05950
 C608 C -0.04960 1.11722 0.07438
 C609 C -0.04079 1.09219 0.06389
 C610 C -0.02793 1.09086 0.03829
 C611 C -0.02385 1.11518 0.02359
 C612 C -0.03269 1.14019 0.03414
 H613 H -0.11191 1.27159 0.06949
 H614 H -0.08245 1.25161 0.14948
 H615 H -0.10390 1.29218 0.16793
 H616 H -0.13226 1.31324 0.08680
 H617 H -0.05966 1.11780 0.09402
 H618 H -0.04424 1.07388 0.07573
 H619 H -0.01404 1.11487 0.00384
 H620 H -0.02960 1.15866 0.02243
 C621 C 0.39901 0.24244 0.86297
 C622 C 0.40285 0.24573 0.89100
 C623 C 0.39441 0.22520 0.90892
 C624 C 0.38200 0.20153 0.89888
 C625 C 0.37787 0.19812 0.87074
 C626 C 0.38663 0.21879 0.85288
 C627 C 0.41492 0.27042 0.90138
 C628 C 0.42473 0.29126 0.91002
 C629 C 0.43583 0.31584 0.92012
 C630 C 0.44495 0.33700 0.92876
 C631 C 0.45538 0.36244 0.93910
 C632 C 0.46875 0.36328 0.96426
 C633 C 0.47802 0.38816 0.97474
 C634 C 0.47399 0.41256 0.96017
 C635 C 0.46081 0.41143 0.93474
 C636 C 0.45157 0.38653 0.92431
 H637 H 0.40537 0.25825 0.84892
 H638 H 0.39731 0.22753 0.93066
 H639 H 0.37581 0.18582 0.91309
 H640 H 0.38344 0.21688 0.83116
 H641 H 0.47177 0.34475 0.97590
 H642 H 0.48808 0.38830 0.99437
 H643 H 0.45737 0.42981 0.92300
 H644 H 0.44121 0.38611 0.90483
 C645 C 0.61852 0.58305 0.72324
 C646 C 0.60950 0.59951 0.74474
 C647 C 0.61049 0.62794 0.74229
 C648 C 0.62046 0.63991 0.71847
 C649 C 0.62961 0.62357 0.69674
 C650 C 0.62853 0.59498 0.69939
 C651 C 0.59929 0.58734 0.76938
 C652 C 0.59070 0.57755 0.79019
 C653 C 0.58060 0.56653 0.81474
 C654 C 0.57193 0.55752 0.83586
 C655 C 0.56151 0.54723 0.86125
 C656 C 0.57644 0.55097 0.88524
 C657 C 0.56596 0.54184 0.91009
 C658 C 0.54033 0.52884 0.91126
 C659 C 0.52561 0.52492 0.88696
 C660 C 0.53614 0.53408 0.86214
 H661 H 0.61778 0.56101 0.72490
 H662 H 0.60364 0.64088 0.75884
 H663 H 0.62139 0.66196 0.71720
 H664 H 0.63513 0.58188 0.68289
 H665 H 0.59608 0.56117 0.88479
 H666 H 0.57782 0.54519 0.92839
 H667 H 0.50583 0.51501 0.88714
 H668 H 0.52439 0.53112 0.84368
 C669 C 0.38242 0.08301 0.77481
 C670 C 0.39102 0.09915 0.75293
 C671 C 0.39003 0.12762 0.75500
 C672 C 0.38045 0.13995 0.77881
 C673 C 0.37171 0.12393 0.80092
 C674 C 0.37280 0.09531 0.79866
 C675 C 0.40081 0.08660 0.72830
 C676 C 0.40905 0.07644 0.70752
 C677 C 0.41877 0.06497 0.68300
 C678 C 0.42716 0.05557 0.66193
 C679 C 0.43730 0.04483 0.63659
 C680 C 0.42236 0.04858 0.61261
 C681 C 0.43266 0.03913 0.58780
 C682 C 0.45812 0.02581 0.58665
 C683 C 0.47282 0.02183 0.61094
 C684 C 0.46246 0.03131 0.63573
 H685 H 0.38316 0.06095 0.77344
 H686 H 0.39657 0.14030 0.73815
 H687 H 0.37949 0.16201 0.77979
 H688 H 0.36649 0.08245 0.81544
 H689 H 0.40287 0.05906 0.61305
 H690 H 0.42082 0.04253 0.56950
 H691 H 0.49247 0.01167 0.61078
 H692 H 0.47422 0.02834 0.65418
 C693 C 0.08564 0.89137 0.27434
 C694 C 0.10379 0.90003 0.25409
 C695 C 0.13192 0.89642 0.25763
 C696 C 0.14189 0.88417 0.28130
 C697 C 0.12383 0.87533 0.30176
 C698 C 0.09557 0.87909 0.29804
 C699 C 0.09360 0.91229 0.22950
 C700 C 0.08523 0.92236 0.20874
 C701 C 0.07556 0.93387 0.18426
 C702 C 0.06734 0.94341 0.16319
 C703 C 0.05751 0.95438 0.13786
 C704 C 0.07282 0.95096 0.11405
 C705 C 0.06288 0.96071 0.08922
 C706 C 0.03742 0.97400 0.08789
 C707 C 0.02234 0.97765 0.11202
 C708 C 0.03234 0.96787 0.13683
 H709 H 0.06382 0.89409 0.27180
 H710 H 0.14614 0.90294 0.24203
 H711 H 0.16372 0.88123 0.28342
 H712 H 0.08119 0.87279 0.31356
 H713 H 0.09233 0.94052 0.11462
 H714 H 0.07499 0.95756 0.07104
 H715 H 0.00268 0.98777 0.11172
 H716 H 0.02031 0.97060 0.15514
 C717 C 0.88454 0.41966 0.22685
 C718 C 0.89331 0.40317 0.24840
 C719 C 0.89231 0.37474 0.24588
 C720 C 0.88261 0.36279 0.22193
 C721 C 0.87377 0.37915 0.20012
 C722 C 0.87480 0.40774 0.20286
 C723 C 0.90346 0.41526 0.27312
 C724 C 0.91214 0.42482 0.29402
 C725 C 0.92256 0.43528 0.31869
 C726 C 0.93171 0.44353 0.33994
 C727 C 0.94298 0.45249 0.36548
 C728 C 0.95968 0.43483 0.38041
 C729 C 0.97058 0.44315 0.40533
 C730 C 0.96493 0.46933 0.41573
 C731 C 0.94815 0.48701 0.40055
 C732 C 0.93724 0.47861 0.37557
 H733 H 0.88530 0.44169 0.22857
 H734 H 0.89898 0.36178 0.26246
 H735 H 0.88170 0.34074 0.22059
 H736 H 0.86841 0.42086 0.18632
 H737 H 0.96424 0.41457 0.37280
 H738 H 0.98341 0.42903 0.41646
 H739 H 0.94341 0.50728 0.40798
 H740 H 0.92432 0.49244 0.36418
   
