data_POSCAR
  _audit_creation_date              2014-09-24
  _audit_creation_method            'ToBaCCo'
  _symmetry_space_group_name_H-M    'P1'
  _symmetry_Int_Tables_number       1
  _symmetry_cell_setting            triclinic
  loop_
  _symmetry_equiv_pos_as_xyz
 x,y,z
_cell_length_a 51.7783
_cell_length_b 51.0934
_cell_length_c 8.9534
_cell_angle_alpha 89.655500
_cell_angle_beta 89.998700
_cell_angle_gamma 89.944500
loop_
  _atom_site_label
  _atom_site_type_symbol
  _atom_site_fract_x
  _atom_site_fract_y
  _atom_site_fract_z
O1 O 0.27096 0.27510 0.40055
 O2 O 0.22180 0.22393 0.34715
 O3 O 0.27134 0.22413 0.39821
 O4 O 0.22147 0.27490 0.34831
 O5 O 0.22889 0.27543 0.10536
 O6 O 0.27874 0.22470 0.15532
 O7 O 0.22923 0.22447 0.10418
 O8 O 0.27836 0.27562 0.15756
 Cu9 Cu 0.24562 0.24946 0.39772
 Cu10 Cu 0.25457 0.25011 0.10650
 C11 C 0.28304 0.28405 0.28788
 C12 C 0.21714 0.21551 0.21679
 C13 C 0.28359 0.21577 0.28506
 C14 C 0.21669 0.28379 0.21850
 O15 O 0.77819 0.27495 0.34517
 O16 O 0.72879 0.22393 0.39717
 O17 O 0.77833 0.22400 0.34601
 O18 O 0.72867 0.27490 0.39543
 O19 O 0.72139 0.27491 0.15233
 O20 O 0.77103 0.22404 0.10292
 O21 O 0.72149 0.22396 0.15419
 O22 O 0.77093 0.27502 0.10205
 Cu23 Cu 0.75425 0.24943 0.39505
 Cu24 Cu 0.74546 0.24948 0.10370
 C25 C 0.78297 0.28367 0.21503
 C26 C 0.71667 0.21526 0.28447
 C27 C 0.78315 0.21539 0.21623
 C28 C 0.71658 0.28356 0.28201
 O29 O 0.77114 0.77514 0.89992
 O30 O 0.72176 0.72411 0.84901
 O31 O 0.77134 0.72416 0.89881
 O32 O 0.72161 0.77508 0.84857
 O33 O 0.72890 0.77540 0.60548
 O34 O 0.77858 0.72452 0.65576
 O35 O 0.72904 0.72443 0.60589
 O36 O 0.77840 0.77545 0.65680
 Cu37 Cu 0.74571 0.74959 0.89825
 Cu38 Cu 0.75448 0.74998 0.60687
 C39 C 0.78318 0.78396 0.78682
 C40 C 0.71699 0.71560 0.71898
 C41 C 0.78347 0.71567 0.78559
 C42 C 0.71679 0.78389 0.71863
 O43 O 0.22884 0.72476 0.89551
 O44 O 0.27821 0.77590 0.84387
 O45 O 0.22876 0.77571 0.89729
 O46 O 0.27838 0.72495 0.84561
 O47 O 0.27100 0.72512 0.60259
 O48 O 0.22132 0.77597 0.65446
 O49 O 0.27078 0.77611 0.60092
 O50 O 0.22144 0.72503 0.65250
 Cu51 Cu 0.25432 0.75031 0.89468
 Cu52 Cu 0.24537 0.75059 0.60345
 C53 C 0.21672 0.71622 0.78251
 C54 C 0.28291 0.78468 0.71371
 C55 C 0.21654 0.78450 0.78461
 C56 C 0.28315 0.71640 0.71568
 C57 C 0.98743 0.07530 0.15888
 C58 C 1.01392 0.07523 0.15826
 C59 C 1.02147 0.05290 0.08264
 N60 N 1.00053 0.03935 0.03701
 C61 C 0.97969 0.05303 0.08348
 C62 C 1.04725 0.04605 0.04915
 C63 C 1.05423 0.02106 -0.00451
 C64 C 1.07762 0.01509 -0.07179
 C65 C 1.07755 -0.01141 -0.09757
 C66 C 1.05413 -0.02091 -0.04539
 N67 N 1.03997 -0.00098 0.01063
 C68 C 1.04699 -0.04761 -0.04243
 C69 C 1.02114 -0.05587 -0.02503
 C70 C 1.01338 -0.08141 0.00230
 C71 C 0.98688 -0.08128 0.00155
 C72 C 0.97935 -0.05567 -0.02620
 N73 N 1.00032 -0.04016 -0.04227
 C74 C 0.95359 -0.04716 -0.04474
 C75 C 0.94664 -0.02039 -0.04706
 C76 C 0.92330 -0.01063 -0.09928
 C77 C 0.92337 0.01582 -0.07211
 C78 C 0.94675 0.02151 -0.00412
 N79 N 0.96088 -0.00065 0.01014
 C80 C 0.95385 0.04636 0.05081
 H81 H 0.97531 0.09005 0.20955
 H82 H 1.02616 0.08992 0.20826
 H83 H 0.97789 -0.00268 0.07096
 H84 H 1.09317 0.02840 -0.09932
 H85 H 1.09304 -0.02239 -0.14888
 H86 H 1.02548 -0.09836 0.02181
 H87 H 0.97463 -0.09812 0.02045
 H88 H 0.90791 0.02930 -0.09935
 H89 H 1.02291 -0.00280 0.07119
 H90 H 0.90778 -0.02141 -0.15142
 C91 C 0.51348 0.57531 0.66461
 C92 C 0.48699 0.57536 0.66591
 C93 C 0.47922 0.55326 0.58901
 N94 N 0.50002 0.53973 0.54085
 C95 C 0.52100 0.55319 0.58689
 C96 C 0.45336 0.54667 0.55641
 C97 C 0.44618 0.52186 0.50106
 C98 C 0.42268 0.51622 0.43430
 C99 C 0.42261 0.48980 0.40603
 C100 C 0.44607 0.48002 0.45614
 N101 N 0.46038 0.49970 0.51342
 C102 C 0.45311 0.45328 0.45622
 C103 C 0.47895 0.44482 0.47148
 C104 C 0.48664 0.41917 0.49643
 C105 C 0.51313 0.41914 0.49463
 C106 C 0.52074 0.44477 0.46866
 N107 N 0.49982 0.46044 0.45462
 C108 C 0.54653 0.45317 0.45010
 C109 C 0.55357 0.47989 0.44916
 C110 C 0.57688 0.48962 0.39663
 C111 C 0.57695 0.51602 0.42541
 C112 C 0.55368 0.52171 0.49477
 N113 N 0.53949 0.49960 0.50824
 C114 C 0.54674 0.54650 0.55167
 H115 H 0.52575 0.58990 0.71534
 H116 H 0.47489 0.58998 0.71790
 H117 H 0.52255 0.49754 0.56973
 H118 H 0.40715 0.52969 0.40856
 H119 H 0.40701 0.47906 0.35441
 H120 H 0.47450 0.40225 0.51515
 H121 H 0.52534 0.40218 0.51169
 H122 H 0.59243 0.52946 0.39848
 H123 H 0.47754 0.49761 0.57285
 H124 H 0.59230 0.47884 0.34330
 C125 C 0.01301 0.57588 -0.16536
 C126 C -0.01348 0.57594 -0.16569
 C127 C -0.02118 0.55367 -0.08870
 N128 N -0.00033 0.54000 -0.04151
 C129 C 0.02060 0.55356 -0.08822
 C130 C -0.04700 0.54701 -0.05506
 C131 C -0.05411 0.52213 0.00118
 C132 C -0.07749 0.51640 0.06941
 C133 C -0.07755 0.48993 0.09805
 C134 C -0.05419 0.48021 0.04663
 N135 N -0.03996 0.49998 -0.01171
 C136 C -0.04720 0.45346 0.04620
 C137 C -0.02141 0.44499 0.02893
 C138 C -0.01381 0.41939 0.00322
 C139 C 0.01268 0.41931 0.00310
 C140 C 0.02038 0.44486 0.02870
 N141 N -0.00048 0.46054 0.04435
 C142 C 0.04621 0.45317 0.04583
 C143 C 0.05331 0.47987 0.04658
 C144 C 0.07670 0.48944 0.09814
 C145 C 0.07675 0.51592 0.06991
 C146 C 0.05338 0.52182 0.00178
 N147 N 0.03915 0.49975 -0.01149
 C148 C 0.04638 0.54677 -0.05411
 H149 H 0.02523 0.59058 -0.21640
 H150 H -0.02563 0.59070 -0.21709
 H151 H 0.02212 0.49786 -0.07209
 H152 H -0.09297 0.52985 0.09582
 H153 H -0.09307 0.47911 0.15070
 H154 H -0.02603 0.40253 -0.01473
 H155 H 0.02482 0.40237 -0.01488
 H156 H 0.09227 0.52926 0.09648
 H157 H -0.02292 0.49797 -0.07222
 H158 H 0.09219 0.47851 0.15057
 C159 C 0.48667 0.91988 0.49546
 C160 C 0.51317 0.91980 0.49668
 C161 C 0.52083 0.94529 0.52480
 N162 N 0.49994 0.96092 0.54056
 C163 C 0.47904 0.94542 0.52281
 C164 C 0.54662 0.95354 0.54429
 C165 C 0.55370 0.98025 0.54761
 C166 C 0.57700 0.98970 0.60129
 C167 C 0.57710 1.01623 0.57502
 C168 C 0.55385 1.02229 0.50603
 N169 N 0.53964 1.00026 0.49030
 C170 C 0.54695 1.04735 0.45134
 C171 C 0.52122 1.05426 0.41670
 C172 C 0.51375 1.07675 0.34082
 C173 C 0.48726 1.07681 0.33906
 C174 C 0.47944 1.05436 0.41393
 N175 N 0.50022 1.04059 0.46128
 C176 C 0.45356 1.04760 0.44537
 C177 C 0.44638 1.02260 0.49935
 C178 C 0.42289 1.01672 0.56599
 C179 C 0.42280 0.99020 0.59271
 C180 C 0.44623 0.98058 0.54164
 N181 N 0.46054 1.00048 0.48544
 C182 C 0.45323 0.95384 0.53982
 H183 H 0.47448 0.90307 0.47562
 H184 H 0.52534 0.90291 0.47803
 H185 H 0.47767 0.99861 0.42567
 H186 H 0.59240 0.97865 0.65382
 H187 H 0.59257 1.02952 0.60342
 H188 H 0.52605 1.09156 0.29139
 H189 H 0.47520 1.09168 0.28804
 H190 H 0.40721 0.97928 0.64398
 H191 H 0.52272 0.99852 0.42848
 H192 H 0.40738 1.03011 0.59266
 N193 N 1.16627 0.16711 0.29637
 C194 C 1.16090 0.15792 0.15808
 N195 N 1.17406 0.16761 0.03907
 N196 N 1.19204 0.18594 0.05777
 C197 C 1.19745 0.19520 0.19614
 N198 N 1.18425 0.18544 0.31511
 C199 C 1.14138 0.13834 0.13790
 C200 C 1.12490 0.12197 0.12139
 C201 C 1.10518 0.10257 0.10219
 N202 N 1.10832 0.07810 0.15883
 N203 N 1.08992 0.06014 0.14180
 C204 C 1.06776 0.06604 0.06764
 N205 N 1.06473 0.09057 0.01076
 N206 N 1.08312 0.10853 0.02786
 N207 N 0.66604 0.66739 0.80073
 C208 C 0.66058 0.65811 0.66277
 N209 N 0.67370 0.66767 0.54329
 N210 N 0.69173 0.68598 0.56121
 C211 C 0.69724 0.69533 0.69923
 N212 N 0.68408 0.68570 0.81869
 C213 C 0.64100 0.63857 0.64331
 C214 C 0.62447 0.62224 0.62698
 C215 C 0.60470 0.60290 0.60750
 N216 N 0.60796 0.57827 0.66139
 N217 N 0.58955 0.56034 0.64356
 C218 C 0.56725 0.56646 0.57131
 N219 N 0.56410 0.59116 0.51720
 N220 N 0.58250 0.60907 0.53510
 N221 N -0.16628 0.33185 0.29743
 C222 C -0.16076 0.34144 0.15959
 N223 N -0.17377 0.33207 0.03985
 N224 N -0.19175 0.31366 0.05742
 C225 C -0.19730 0.30400 0.19536
 N226 N -0.18425 0.31345 0.31504
 C227 C -0.14128 0.36112 0.14063
 C228 C -0.12483 0.37759 0.12488
 C229 C -0.10516 0.39708 0.10601
 N230 N -0.10824 0.41673 0.00515
 N231 N -0.08985 0.43467 -0.01356
 C232 C -0.06773 0.43356 0.06791
 N233 N -0.06477 0.41389 0.16929
 N234 N -0.08317 0.39595 0.18793
 N235 N 0.33399 0.83264 0.79411
 C236 C 0.33937 0.84219 0.65599
 N237 N 0.32615 0.83289 0.53686
 N238 N 0.30810 0.81459 0.55528
 C239 C 0.30267 0.80497 0.69347
 N240 N 0.31593 0.81434 0.81256
 C241 C 0.35896 0.86174 0.63601
 C242 C 0.37549 0.87809 0.61929
 C243 C 0.39525 0.89747 0.59947
 N244 N 0.39214 0.91716 0.49890
 N245 N 0.41056 0.93506 0.47996
 C246 C 0.43273 0.93388 0.56091
 N247 N 0.43573 0.91414 0.66186
 N248 N 0.41731 0.89624 0.68072
 N249 N -0.17384 0.66844 -0.04160
 C250 C -0.16075 0.65928 -0.16159
 N251 N -0.16634 0.66895 -0.29916
 N252 N -0.18448 0.68724 -0.31625
 C253 C -0.19765 0.69649 -0.19633
 N254 N -0.19199 0.68673 -0.05863
 C255 C -0.14112 0.63969 -0.14321
 C256 C -0.12456 0.62329 -0.12792
 C257 C -0.10478 0.60385 -0.10970
 N258 N -0.08260 0.60968 -0.03680
 N259 N -0.06423 0.59164 -0.01963
 C260 C -0.06740 0.56715 -0.07497
 N261 N -0.08967 0.56139 -0.14796
 N262 N -0.10804 0.57943 -0.16507
 N263 N 0.32639 1.16868 0.45803
 C264 C 0.33963 1.15966 0.33818
 N265 N 0.33408 1.16938 0.20065
 N266 N 0.31586 1.18757 0.18344
 C267 C 0.30254 1.19668 0.30321
 N268 N 0.30816 1.18687 0.44088
 C269 C 0.35933 1.14015 0.35666
 C270 C 0.37593 1.12380 0.37201
 C271 C 0.39574 1.10439 0.39031
 N272 N 0.41775 1.11014 0.46519
 N273 N 0.43614 1.09212 0.48248
 C274 C 0.43316 1.06774 0.42530
 N275 N 0.41106 1.06206 0.35037
 N276 N 0.39267 1.08008 0.33314
 N277 N 1.17406 -0.16887 -0.03917
 C278 C 1.16078 -0.15934 -0.15815
 N279 N 1.16620 -0.16855 -0.29636
 N280 N 1.18434 -0.18676 -0.31504
 C281 C 1.19769 -0.19639 -0.19607
 N282 N 1.19220 -0.18708 -0.05778
 C283 C 1.14113 -0.13987 -0.13790
 C284 C 1.12456 -0.12356 -0.12090
 C285 C 1.10479 -0.10420 -0.10087
 N286 N 1.08274 -0.10518 -0.18227
 N287 N 1.06437 -0.08722 -0.16368
 C288 C 1.06741 -0.06768 -0.06294
 N289 N 1.08956 -0.06675 0.01821
 N290 N 1.10794 -0.08471 -0.00044
 N291 N 0.66556 0.33166 0.19773
 C292 C 0.66004 0.34113 0.33523
 N293 N 0.67313 0.33171 0.45524
 N294 N 0.69119 0.31336 0.43830
 C295 C 0.69675 0.30383 0.30075
 N296 N 0.68362 0.31332 0.18075
 C297 C 0.64049 0.36076 0.35370
 C298 C 0.62402 0.37720 0.36953
 C299 C 0.60436 0.39670 0.38891
 N300 N 0.60753 0.41612 0.48974
 N301 N 0.58918 0.43409 0.50886
 C302 C 0.56701 0.43324 0.42785
 N303 N 0.56395 0.41379 0.32651
 N304 N 0.58231 0.39582 0.30745
 N305 N 0.82659 -0.16813 -0.03817
 C306 C 0.83965 -0.15859 -0.15787
 N307 N 0.83412 -0.16787 -0.29570
 N308 N 0.81607 -0.18616 -0.31333
 C309 C 0.80295 -0.19578 -0.19367
 N310 N 0.80853 -0.18642 -0.05576
 C311 C 0.85924 -0.13904 -0.13881
 C312 C 0.87577 -0.12270 -0.12290
 C313 C 0.89552 -0.10333 -0.10386
 N314 N 0.91763 -0.10451 -0.18473
 N315 N 0.93606 -0.08665 -0.16618
 C316 C 0.93304 -0.06702 -0.06593
 N317 N 0.91083 -0.06588 0.01455
 N318 N 0.89239 -0.08373 -0.00408
 N319 N 0.32620 0.33200 0.46461
 C320 C 0.33929 0.34166 0.34527
 N321 N 0.33384 0.33244 0.20717
 N322 N 0.31586 0.31410 0.18892
 C323 C 0.30273 0.30437 0.30819
 N324 N 0.30821 0.31366 0.44639
 C325 C 0.35881 0.36125 0.36487
 C326 C 0.37531 0.37763 0.38078
 C327 C 0.39506 0.39702 0.39932
 N328 N 0.41690 0.39610 0.31605
 N329 N 0.43533 0.41399 0.33390
 C330 C 0.43256 0.43339 0.43580
 N331 N 0.41060 0.43428 0.51867
 N332 N 0.39216 0.41639 0.50075
 N333 N 0.16572 0.66828 -0.29969
 C334 C 0.16025 0.65867 -0.16186
 N335 N 0.17337 0.66791 -0.04224
 N336 N 0.19143 0.68624 -0.05992
 C337 C 0.19696 0.69592 -0.19783
 N338 N 0.18378 0.68660 -0.31740
 C339 C 0.14065 0.63910 -0.14276
 C340 C 0.12410 0.62274 -0.12701
 C341 C 0.10431 0.60335 -0.10841
 N342 N 0.10752 0.57892 -0.16373
 N343 N 0.08911 0.56095 -0.14657
 C344 C 0.06685 0.56681 -0.07360
 N345 N 0.06373 0.59131 -0.01822
 N346 N 0.08214 0.60928 -0.03544
 N347 N 0.67423 1.16833 0.46100
 C348 C 0.66107 1.15894 0.34194
 N349 N 0.66656 1.16833 0.20361
 N350 N 0.68465 1.18658 0.18488
 C351 C 0.69788 1.19608 0.30391
 N352 N 0.69233 1.18658 0.44234
 C353 C 0.64143 1.13944 0.36212
 C354 C 0.62487 1.12311 0.37873
 C355 C 0.60507 1.10376 0.39804
 N356 N 0.58295 1.10972 0.47135
 N357 N 0.56450 1.09179 0.48856
 C358 C 0.56752 1.06731 0.43282
 N359 N 0.58975 1.06141 0.35969
 N360 N 0.60821 1.07933 0.34254
 N361 N 0.16534 0.33146 0.30076
 C362 C 0.15991 0.34115 0.16297
 N363 N 0.17317 0.33202 0.04350
 N364 N 0.19131 0.31375 0.06124
 C365 C 0.19678 0.30399 0.19907
 N366 N 0.18348 0.31319 0.31854
 C367 C 0.14028 0.36072 0.14362
 C368 C 0.12375 0.37711 0.12705
 C369 C 0.10404 0.39657 0.10697
 N370 N 0.10716 0.41611 0.00552
 N371 N 0.08879 0.43410 -0.01378
 C372 C 0.06667 0.43314 0.06768
 N373 N 0.06366 0.41356 0.16954
 N374 N 0.08203 0.39557 0.18878
 N375 N 0.67329 0.83208 0.54309
 C376 C 0.66011 0.84134 0.66251
 N377 N 0.66559 0.83176 0.80047
 N378 N 0.68370 0.81346 0.81845
 C379 C 0.69692 0.80413 0.69902
 N380 N 0.69139 0.81378 0.56103
 C381 C 0.64051 0.86094 0.64292
 C382 C 0.62401 0.87735 0.62612
 C383 C 0.60432 0.89683 0.60579
 N384 N 0.58211 0.89563 0.68568
 N385 N 0.56378 0.91365 0.66627
 C386 C 0.56702 0.93347 0.56614
 N387 N 0.58934 0.93462 0.48657
 N388 N 0.60767 0.91660 0.50604
 N389 N 0.83446 0.16754 0.29929
 C390 C 0.83998 0.15816 0.16159
 N391 N 0.82679 0.16754 0.04187
 N392 N 0.80863 0.18577 0.05928
 C393 C 0.80305 0.19521 0.19705
 N394 N 0.81630 0.18577 0.31674
 C395 C 0.85964 0.13865 0.14267
 C396 C 0.87621 0.12232 0.12665
 C397 C 0.89599 0.10295 0.10740
 N398 N 0.89287 0.07842 0.16305
 N399 N 0.91126 0.06045 0.14513
 C400 C 0.93341 0.06640 0.07100
 N401 N 0.93643 0.09100 0.01524
 N402 N 0.91804 0.10897 0.03322
 N403 N 0.32674 0.66842 0.54176
 C404 C 0.33984 0.65900 0.66178
 N405 N 0.33428 0.66842 0.79932
 N406 N 0.31618 0.68670 0.81638
 C407 C 0.30302 0.69619 0.69645
 N408 N 0.30863 0.68672 0.55879
 C409 C 0.35943 0.63940 0.64351
 C410 C 0.37596 0.62299 0.62849
 C411 C 0.39570 0.60354 0.61061
 N412 N 0.41785 0.60942 0.53703
 N413 N 0.43618 0.59137 0.52009
 C414 C 0.43301 0.56682 0.57633
 N415 N 0.41079 0.56101 0.65005
 N416 N 0.39245 0.57907 0.66693
   
