data_POSCAR
  _audit_creation_date              2014-09-24
  _audit_creation_method            'ToBaCCo'
  _symmetry_space_group_name_H-M    'P1'
  _symmetry_Int_Tables_number       1
  _symmetry_cell_setting            triclinic
  loop_
  _symmetry_equiv_pos_as_xyz
 x,y,z
_cell_length_a 57.0376
_cell_length_b 56.7653
_cell_length_c 56.5892
_cell_angle_alpha 89.908000
_cell_angle_beta 90.059400
_cell_angle_gamma 89.877200
loop_
  _atom_site_label
  _atom_site_type_symbol
  _atom_site_fract_x
  _atom_site_fract_y
  _atom_site_fract_z
N1 N 0.17694 1.22272 0.16093
 N2 N 0.16284 1.22504 0.17916
 C3 C 0.14849 1.24357 0.17541
 C4 C 0.15395 1.25330 0.15368
 C5 C 0.17204 1.23961 0.14495
 H6 H 0.13519 1.24965 0.18758
 H7 H 0.18124 1.24205 0.12842
 Cu8 Cu 0.16480 1.20353 0.20589
 Cu9 Cu 0.20167 1.19902 0.15989
 Cu10 Cu 0.20730 1.16260 0.20890
 N11 N 0.16722 1.18219 0.23271
 N12 N 0.18394 1.16624 0.23373
 C13 C 0.18092 1.15288 0.25316
 C14 C 0.16122 1.16088 0.26490
 C15 C 0.15301 1.17960 0.25155
 H16 H 0.19179 1.13799 0.25798
 H17 H 0.13742 1.18994 0.25488
 N18 N 0.22893 1.16150 0.18178
 N19 N 0.22579 1.17422 0.16247
 C20 C 0.24220 1.16821 0.14647
 C21 C 0.25654 1.15124 0.15636
 C22 C 0.24775 1.14743 0.17875
 H23 H 0.24394 1.17586 0.12905
 H24 H 0.25428 1.13489 0.19158
 H25 H 0.18594 1.17473 0.18207
 H26 H 0.20583 1.19674 0.19608
 N27 N 0.82261 0.77401 0.16151
 N28 N 0.83882 0.77497 0.17802
 C29 C 0.85398 0.75699 0.17493
 C30 C 0.84676 0.74413 0.15554
 C31 C 0.82682 0.75538 0.14745
 H32 H 0.86909 0.75344 0.18594
 H33 H 0.81626 0.75042 0.13237
 Cu34 Cu 0.83829 0.79953 0.20198
 Cu35 Cu 0.79740 0.79707 0.15928
 Cu36 Cu 0.79613 0.84104 0.20173
 N37 N 0.83738 0.82426 0.22573
 N38 N 0.82096 0.84056 0.22542
 C39 C 0.82453 0.85560 0.24344
 C40 C 0.84422 0.84826 0.25573
 C41 C 0.85193 0.82831 0.24405
 H42 H 0.81365 0.87073 0.24734
 H43 H 0.86707 0.81770 0.24851
 N44 N 0.77259 0.83851 0.17631
 N45 N 0.77329 0.82194 0.15998
 C46 C 0.75527 0.82516 0.14490
 C47 C 0.74260 0.84456 0.15220
 C48 C 0.75399 0.85260 0.17215
 H49 H 0.75154 0.81423 0.12974
 H50 H 0.74916 0.86775 0.18265
 H51 H 0.81514 0.82438 0.17556
 H52 H 0.79652 0.80538 0.19483
 N53 N 0.82461 1.22457 -0.15786
 N54 N 0.84022 1.22485 -0.17494
 C55 C 0.85509 1.24293 -0.17138
 C56 C 0.84840 1.25446 -0.15096
 C57 C 0.82905 1.24235 -0.14282
 H58 H 0.86964 1.24746 -0.18272
 H59 H 0.81882 1.24636 -0.12725
 Cu60 Cu 0.83944 1.20150 -0.20008
 Cu61 Cu 0.79920 1.20180 -0.15679
 Cu62 Cu 0.79614 1.16138 -0.20256
 N63 N 0.83772 1.17851 -0.22549
 N64 N 0.82058 1.16309 -0.22654
 C65 C 0.82368 1.14922 -0.24558
 C66 C 0.84394 1.15629 -0.25697
 C67 C 0.85238 1.17494 -0.24379
 H68 H 0.81233 1.13480 -0.25052
 H69 H 0.86815 1.18494 -0.24719
 N70 N 0.77319 1.16245 -0.17653
 N71 N 0.77471 1.17752 -0.15884
 C72 C 0.75700 1.17352 -0.14365
 C73 C 0.74369 1.15516 -0.15223
 C74 C 0.75437 1.14854 -0.17308
 H75 H 0.75389 1.18327 -0.12755
 H76 H 0.74890 1.13449 -0.18472
 H77 H 0.81594 1.17530 -0.17548
 H78 H 0.79762 1.19639 -0.19291
 N79 N 0.17532 0.77692 -0.16173
 N80 N 0.15949 0.77654 -0.17864
 C81 C 0.14410 0.75910 -0.17423
 C82 C 0.15075 0.74796 -0.15355
 C83 C 0.17060 0.75970 -0.14606
 H84 H 0.12943 0.75449 -0.18542
 H85 H 0.18101 0.75575 -0.13056
 Cu86 Cu 0.16119 0.79824 -0.20523
 Cu87 Cu 0.20144 0.79896 -0.16187
 Cu88 Cu 0.20614 0.83617 -0.21034
 N89 N 0.16330 0.82011 -0.23162
 N90 N 0.18121 0.83449 -0.23385
 C91 C 0.17817 0.84786 -0.25331
 C92 C 0.15715 0.84156 -0.26372
 C93 C 0.14820 0.82387 -0.24956
 H94 H 0.19000 0.86158 -0.25907
 H95 H 0.13174 0.81475 -0.25195
 N96 N 0.22935 0.83540 -0.18450
 N97 N 0.22673 0.82230 -0.16538
 C98 C 0.24404 0.82734 -0.15000
 C99 C 0.25838 0.84410 -0.16010
 C100 C 0.24869 0.84878 -0.18197
 H101 H 0.24615 0.81944 -0.13273
 H102 H 0.25480 0.86166 -0.19463
 H103 H 0.18582 0.82488 -0.18238
 H104 H 0.20320 0.80194 -0.19822
 C105 C 0.53496 1.03235 -0.00580
 H106 H 0.53563 1.03008 0.01318
 C107 C 0.55152 1.04650 -0.01707
 H108 H 0.56474 1.05525 -0.00654
 C109 C 0.51758 1.02260 -0.04255
 H110 H 0.50459 1.01286 -0.05241
 C111 C 0.53397 1.03638 -0.05458
 H112 H 0.53324 1.03730 -0.07368
 N113 N 0.51848 1.02072 -0.01860
 C114 C 0.46013 1.00200 0.02681
 H115 H 0.45854 0.98369 0.02180
 C116 C 0.44259 1.01260 0.04026
 H117 H 0.42755 1.00233 0.04572
 C118 C 0.48116 1.03794 0.02482
 H119 H 0.49581 1.04794 0.01816
 C120 C 0.46433 1.04907 0.03892
 H121 H 0.46622 1.06758 0.04310
 Zn122 Zn 0.49888 0.99923 -0.00253
 N123 N 0.47868 1.01482 0.01897
 C124 C 0.51754 0.97637 0.03782
 N125 N 0.51870 0.97810 0.01388
 C126 C 0.53551 0.96656 0.00139
 C127 C 0.55210 0.95260 0.01300
 C128 C 0.53397 0.96282 0.05018
 C129 C 0.46058 0.99577 -0.03241
 C130 C 0.44332 0.98481 -0.04592
 C131 C 0.46575 0.94868 -0.04413
 C132 C 0.48227 0.96017 -0.02999
 N133 N 0.47931 0.98328 -0.02430
 H134 H 0.50431 0.98604 0.04744
 H135 H 0.53640 0.96873 -0.01758
 H136 H 0.56557 0.94390 0.00273
 H137 H 0.53301 0.96201 0.06927
 H138 H 0.45858 1.01408 -0.02752
 H139 H 0.42810 0.99479 -0.05154
 H140 H 0.46800 0.93017 -0.04813
 H141 H 0.49706 0.95043 -0.02311
 C142 C 0.44451 1.03645 0.04627
 C143 C 0.55141 1.04834 -0.04183
 C144 C 0.44572 0.96094 -0.05171
 C145 C 0.55169 0.95090 0.03776
 C146 C -0.00400 0.53433 1.03642
 H147 H 0.01494 0.53341 1.03717
 C148 C -0.01597 0.55083 1.05013
 H149 H -0.00605 0.56246 1.06149
 C150 C -0.03967 0.52082 1.01983
 H151 H -0.04878 0.50953 1.00754
 C152 C -0.05236 0.53721 1.03310
 H153 H -0.07123 0.53805 1.03111
 N154 N -0.01592 0.51972 1.02170
 C155 C 0.03658 0.46572 1.00740
 H156 H 0.03738 0.46712 0.98835
 C157 C 0.04999 0.44873 1.01909
 H158 H 0.06120 0.43724 1.00882
 C159 C 0.02004 0.47840 1.04362
 H160 H 0.00785 0.48955 1.05302
 C161 C 0.03303 0.46152 1.05603
 H162 H 0.03092 0.46015 1.07499
 Zn163 Zn 0.00222 0.50010 1.00184
 N164 N 0.02198 0.48011 1.01972
 C165 C 0.04350 0.52233 0.98428
 N166 N 0.01981 0.52049 0.98229
 C167 C 0.00742 0.53493 0.96770
 C168 C 0.01884 0.55201 0.95424
 C169 C 0.05564 0.53937 0.97130
 C170 C -0.03150 0.46534 0.99581
 C171 C -0.04478 0.44852 0.98390
 C172 C -0.02786 0.46188 0.94713
 C173 C -0.01505 0.47866 0.95976
 N174 N -0.01707 0.48003 0.98367
 H175 H 0.05295 0.51112 0.99648
 H176 H -0.01147 0.53342 0.96687
 H177 H 0.00854 0.56348 0.94298
 H178 H 0.07445 0.54082 0.97339
 H179 H -0.03236 0.46648 1.01487
 H180 H -0.05596 0.43687 0.99401
 H181 H -0.02575 0.46081 0.92815
 H182 H -0.00297 0.49003 0.95050
 C183 C 0.04807 0.44623 1.04371
 C184 C -0.04047 0.55264 1.04835
 C185 C -0.04285 0.44640 0.95926
 C186 C 0.04325 0.55461 0.95616
 C187 C 1.04060 -0.01485 0.52030
 H188 H 1.04943 -0.00202 0.50939
 C189 C 1.05359 -0.02837 0.53631
 H190 H 1.07240 -0.02603 0.53721
 C191 C 1.00532 -0.03261 0.53326
 H192 H 0.98641 -0.03377 0.53225
 C193 C 1.01761 -0.04658 0.54939
 H194 H 1.00795 -0.05856 0.56065
 N195 N 1.01691 -0.01725 0.51903
 C196 C 1.01508 0.04512 0.47891
 H197 H 1.00239 0.05384 0.49006
 C198 C 1.02848 0.05838 0.46309
 H199 H 1.02616 0.07731 0.46249
 C200 C 1.03273 0.00981 0.46535
 H201 H 1.03393 -0.00920 0.46608
 C202 C 1.04665 0.02238 0.44951
 H203 H 1.05859 0.01283 0.43814
 Zn204 Zn 0.99841 0.00240 0.49941
 N205 N 1.01752 0.02129 0.47981
 C206 C 0.99180 0.03594 0.53453
 N207 N 0.98005 0.02119 0.51982
 C208 C 0.95636 0.01876 0.52118
 C209 C 0.94356 0.03159 0.53785
 C210 C 0.97971 0.04924 0.55127
 C211 C 0.96414 -0.00365 0.46485
 C212 C 0.95071 -0.01557 0.44809
 C213 C 0.96913 -0.05197 0.46033
 C214 C 0.98204 -0.03936 0.47705
 N215 N 0.97932 -0.01563 0.47899
 H216 H 1.01070 0.03714 0.53339
 H217 H 0.94742 0.00643 0.50981
 H218 H 0.92476 0.02922 0.53884
 H219 H 0.98950 0.06073 0.56289
 H220 H 0.96271 0.01529 0.46642
 H221 H 0.93888 -0.00560 0.43690
 H222 H 0.97176 -0.07080 0.45886
 H223 H 0.99470 -0.04847 0.48797
 C224 C 1.04452 0.04699 0.44811
 C225 C 1.04207 -0.04443 0.55122
 C226 C 0.95329 -0.04004 0.44548
 C227 C 0.95527 0.04700 0.55326
 C228 C 0.12423 0.31147 1.12234
 N229 N 0.14145 0.29922 1.11125
 N230 N 0.15107 0.28035 1.12141
 C231 C 0.14378 0.27297 1.14303
 N232 N 0.12652 0.28522 1.15411
 N233 N 0.11693 0.30413 1.14396
 C234 C 0.11360 0.33223 1.11106
 N235 N 0.09718 0.34520 1.12256
 N236 N 0.08743 0.36393 1.11223
 C237 C 0.09373 0.37034 1.09000
 N238 N 0.11017 0.35738 1.07851
 N239 N 0.11996 0.33869 1.08887
 C240 C 0.08255 0.39059 1.07833
 N241 N 0.08746 0.39574 1.05545
 N242 N 0.07676 0.41361 1.04458
 C243 C 0.06079 0.42710 1.05618
 N244 N 0.05605 0.42201 1.07916
 N245 N 0.06670 0.40409 1.09002
 C246 C -0.12129 0.68442 1.12659
 N247 N -0.11106 0.69612 1.14478
 N248 N -0.12129 0.71508 1.15410
 C249 C -0.14206 0.72307 1.14550
 N250 N -0.15229 0.71137 1.12732
 N251 N -0.14210 0.69237 1.11805
 C252 C -0.10983 0.66379 1.11602
 N253 N -0.12069 0.65129 1.09877
 N254 N -0.11008 0.63288 1.08881
 C255 C -0.08821 0.62633 1.09570
 N256 N -0.07738 0.63880 1.11300
 N257 N -0.08801 0.65716 1.12301
 C258 C -0.07617 0.60658 1.08413
 N259 N -0.05345 0.60164 1.08928
 N260 N -0.04223 0.58431 1.07816
 C261 C -0.05330 0.57117 1.06150
 N262 N -0.07613 0.57603 1.05653
 N263 N -0.08733 0.59341 1.06760
 C264 C -0.12073 0.31364 0.87996
 N265 N -0.13873 0.30235 0.89077
 N266 N -0.14857 0.28354 0.88087
 C267 C -0.14072 0.27527 0.85982
 N268 N -0.12272 0.28654 0.84898
 N269 N -0.11291 0.30542 0.85886
 C270 C -0.10978 0.33421 0.89112
 N271 N -0.09269 0.34649 0.87987
 N272 N -0.08261 0.36495 0.89024
 C273 C -0.08923 0.37176 0.91224
 N274 N -0.10633 0.35949 0.92346
 N275 N -0.11645 0.34109 0.91307
 C276 C -0.07774 0.39166 0.92405
 N277 N -0.08297 0.39692 0.94682
 N278 N -0.07210 0.41448 0.95786
 C279 C -0.05562 0.42756 0.94656
 N280 N -0.05054 0.42238 0.92368
 N281 N -0.06136 0.40475 0.91265
 C282 C 0.11953 0.68909 0.87778
 N283 N 0.10939 0.69978 0.85887
 N284 N 0.11931 0.71856 0.84891
 C285 C 0.13967 0.72740 0.85757
 N286 N 0.14977 0.71676 0.87653
 N287 N 0.13990 0.69792 0.88643
 C288 C 0.10862 0.66836 0.88876
 N289 N 0.11971 0.65649 0.90638
 N290 N 0.10973 0.63780 0.91646
 C291 C 0.08827 0.63034 0.90932
 N292 N 0.07718 0.64220 0.89169
 N293 N 0.08720 0.66083 0.88155
 C294 C 0.07696 0.61014 0.92086
 N295 N 0.05458 0.60421 0.91535
 N296 N 0.04401 0.58640 0.92634
 C297 C 0.05542 0.57373 0.94322
 N298 N 0.07790 0.57957 0.94856
 N299 N 0.08846 0.59745 0.93762
 C300 C 1.13023 0.13105 0.32315
 N301 N 1.12106 0.15080 0.31319
 N302 N 1.13125 0.16064 0.29444
 C303 C 1.15101 0.15114 0.28501
 N304 N 1.16029 0.13153 0.29517
 N305 N 1.15006 0.12164 0.31384
 C306 C 1.11844 0.11948 0.34308
 N307 N 1.12596 0.09816 0.35093
 N308 N 1.11478 0.08717 0.36840
 C309 C 1.09574 0.09714 0.37873
 N310 N 1.08831 0.11855 0.37101
 N311 N 1.09943 0.12951 0.35346
 C312 C 1.08296 0.08453 0.39735
 N313 N 1.06493 0.09498 0.40898
 N314 N 1.05292 0.08318 0.42534
 C315 C 1.05841 0.06046 0.43063
 N316 N 1.07652 0.05011 0.41900
 N317 N 1.08859 0.06192 0.40273
 C318 C 1.12563 -0.12824 0.67834
 N319 N 1.14711 -0.12093 0.68560
 N320 N 1.15743 -0.13083 0.70429
 C321 C 1.14667 -0.14844 0.71639
 N322 N 1.12525 -0.15583 0.70901
 N323 N 1.11491 -0.14589 0.69037
 C324 C 1.11386 -0.11682 0.65826
 N325 N 1.09163 -0.12292 0.65229
 N326 N 1.08062 -0.11209 0.63456
 C327 C 1.09145 -0.09480 0.62210
 N328 N 1.11374 -0.08880 0.62798
 N329 N 1.12474 -0.09960 0.64575
 C330 C 1.07897 -0.08235 0.60310
 N331 N 1.08980 -0.06527 0.59036
 N332 N 1.07819 -0.05345 0.57366
 C333 C 1.05528 -0.05820 0.56910
 N334 N 1.04454 -0.07539 0.58181
 N335 N 1.05615 -0.08725 0.59846
 C336 C 0.87411 -0.12046 0.31381
 N337 N 0.85484 -0.11090 0.30343
 N338 N 0.84507 -0.12110 0.28467
 C339 C 0.85427 -0.14120 0.27551
 N340 N 0.87354 -0.15076 0.28592
 N341 N 0.88326 -0.14060 0.30473
 C342 C 0.88508 -0.10904 0.33429
 N343 N 0.90347 -0.11934 0.34556
 N344 N 0.91368 -0.10879 0.36389
 C345 C 0.90591 -0.08752 0.37157
 N346 N 0.88749 -0.07724 0.36033
 N347 N 0.87723 -0.08782 0.34206
 C348 C 0.91761 -0.07554 0.39130
 N349 N 0.91161 -0.05317 0.39722
 N350 N 0.92275 -0.04201 0.41459
 C351 C 0.94028 -0.05280 0.42681
 N352 N 0.94612 -0.07527 0.42097
 N353 N 0.93504 -0.08641 0.40354
 C354 C 0.87438 0.12652 0.68445
 N355 N 0.88471 0.14493 0.69561
 N356 N 0.87473 0.15469 0.71449
 C357 C 0.85409 0.14635 0.72299
 N358 N 0.84374 0.12795 0.71178
 N359 N 0.85368 0.11823 0.69284
 C360 C 0.88572 0.11549 0.66395
 N361 N 0.87493 0.09792 0.65187
 N362 N 0.88550 0.08765 0.63358
 C363 C 0.90726 0.09453 0.62675
 N364 N 0.91800 0.11213 0.63881
 N365 N 0.90741 0.12245 0.65704
 C366 C 0.91931 0.08276 0.60711
 N367 N 0.94190 0.08816 0.60197
 N368 N 0.95319 0.07698 0.58471
 C369 C 0.94233 0.06002 0.57182
 N370 N 0.91963 0.05479 0.57687
 N371 N 0.90835 0.06591 0.59421
 C372 C 0.31356 1.11758 0.12458
 N373 N 0.31222 1.11931 0.14847
 N374 N 0.29398 1.12993 0.15863
 C375 C 0.27662 1.13950 0.14524
 N376 N 0.27807 1.13794 0.12136
 N377 N 0.29612 1.12701 0.11122
 C378 C 0.33334 1.10547 0.11332
 N379 N 0.33080 1.09575 0.09159
 N380 N 0.34862 1.08454 0.08136
 C381 C 0.36974 1.08298 0.09233
 N382 N 0.37236 1.09287 0.11400
 N383 N 0.35441 1.10377 0.12439
 C384 C 0.38929 1.07068 0.08086
 N385 N 0.41187 1.07610 0.08617
 N386 N 0.42952 1.06524 0.07521
 C387 C 0.42520 1.04831 0.05884
 N388 N 0.40261 1.04279 0.05372
 N389 N 0.38499 1.05388 0.06441
 C390 C 0.68417 1.12582 -0.12079
 N391 N 0.69111 1.11881 -0.14263
 N392 N 0.71008 1.12813 -0.15268
 C393 C 0.72273 1.14486 -0.14127
 N394 N 0.71575 1.15191 -0.11947
 N395 N 0.69685 1.14252 -0.10939
 C396 C 0.66349 1.11533 -0.10951
 N397 N 0.65809 1.12057 -0.08676
 N398 N 0.63960 1.11074 -0.07631
 C399 C 0.62577 1.09540 -0.08828
 N400 N 0.63110 1.09025 -0.11108
 N401 N 0.64964 1.10001 -0.12150
 C402 C 0.60583 1.08404 -0.07650
 N403 N 0.59105 1.06987 -0.08876
 N404 N 0.57348 1.05891 -0.07784
 C405 C 0.57006 1.06162 -0.05423
 N406 N 0.58481 1.07593 -0.04205
 N407 N 0.60231 1.08697 -0.05298
 C408 C 0.31588 0.87743 -0.12899
 N409 N 0.31405 0.87605 -0.15288
 N410 N 0.29571 0.86544 -0.16283
 C411 C 0.27876 0.85553 -0.14925
 N412 N 0.28074 0.85671 -0.12538
 N413 N 0.29887 0.86762 -0.11544
 C414 C 0.33560 0.88976 -0.11791
 N415 N 0.33319 0.89919 -0.09604
 N416 N 0.35089 0.91069 -0.08596
 C417 C 0.37176 0.91285 -0.09723
 N418 N 0.37427 0.90324 -0.11905
 N419 N 0.35642 0.89204 -0.12929
 C420 C 0.39111 0.92554 -0.08594
 N421 N 0.41378 0.92057 -0.09137
 N422 N 0.43125 0.93180 -0.08053
 C423 C 0.42664 0.94867 -0.06416
 N424 N 0.40396 0.95374 -0.05893
 N425 N 0.38654 0.94228 -0.06949
 C426 C 0.68331 0.87352 0.11962
 N427 N 0.69544 0.85578 0.10915
 N428 N 0.71424 0.84647 0.11962
 C429 C 0.72167 0.85464 0.14087
 N430 N 0.70955 0.87238 0.15134
 N431 N 0.69068 0.88162 0.14093
 C432 C 0.66281 0.88401 0.10788
 N433 N 0.64928 0.90011 0.11923
 N434 N 0.63093 0.90992 0.10840
 C435 C 0.62550 0.90406 0.08580
 N436 N 0.63902 0.88794 0.07446
 N437 N 0.65730 0.87805 0.08533
 C438 C 0.60577 0.91545 0.07357
 N439 N 0.60235 0.91205 0.05009
 N440 N 0.58499 0.92305 0.03879
 C441 C 0.57027 0.93778 0.05055
 N442 N 0.57360 0.94097 0.07411
 N443 N 0.59103 0.93006 0.08539
   
