data_POSCAR
  _audit_creation_date              2014-09-24
  _audit_creation_method            'ToBaCCo'
  _symmetry_space_group_name_H-M    'P1'
  _symmetry_Int_Tables_number       1
  _symmetry_cell_setting            triclinic
  loop_
  _symmetry_equiv_pos_as_xyz
 x,y,z
_cell_length_a 57.4631
_cell_length_b 57.5462
_cell_length_c 57.7487
_cell_angle_alpha 90.067600
_cell_angle_beta 90.024200
_cell_angle_gamma 90.013100
loop_
  _atom_site_label
  _atom_site_type_symbol
  _atom_site_fract_x
  _atom_site_fract_y
  _atom_site_fract_z
N1 N 0.28248 0.23922 0.21639
 N2 N 0.27163 0.25752 0.20803
 C3 C 0.28318 0.26524 0.18924
 C4 C 0.30213 0.25098 0.18579
 C5 C 0.30127 0.23467 0.20322
 H6 H 0.27826 0.28007 0.17885
 H7 H 0.31340 0.22060 0.20609
 Cu8 Cu 0.24343 0.26933 0.22247
 Cu9 Cu 0.27150 0.22270 0.24369
 Cu10 Cu 0.22082 0.24304 0.26928
 N11 N 0.21481 0.28032 0.23675
 N12 N 0.20597 0.26993 0.25502
 C13 C 0.18628 0.28095 0.26136
 C14 C 0.18273 0.29911 0.24621
 C15 C 0.20105 0.29833 0.23084
 H16 H 0.17545 0.27622 0.27592
 H17 H 0.20412 0.31007 0.21656
 N18 N 0.23833 0.21607 0.28117
 N19 N 0.25764 0.20833 0.27143
 C20 C 0.26547 0.18988 0.28351
 C21 C 0.25034 0.18595 0.30158
 C22 C 0.23337 0.20274 0.29970
 H23 H 0.28100 0.18005 0.27956
 H24 H 0.21859 0.20505 0.31105
 H25 H 0.23688 0.23118 0.23954
 H26 H 0.25447 0.25053 0.25872
 N27 N 0.71701 -0.23955 0.21558
 N28 N 0.72818 -0.25747 0.20681
 C29 C 0.71679 -0.26501 0.18781
 C30 C 0.69758 -0.25102 0.18472
 C31 C 0.69811 -0.23506 0.20253
 H32 H 0.72205 -0.27948 0.17705
 H33 H 0.68577 -0.22124 0.20572
 Cu34 Cu 0.75661 -0.26897 0.22103
 Cu35 Cu 0.72785 -0.22326 0.24317
 Cu36 Cu 0.77854 -0.24366 0.26872
 N37 N 0.78502 -0.28030 0.23542
 N38 N 0.79352 -0.27033 0.25410
 C39 C 0.81310 -0.28147 0.26054
 C40 C 0.81693 -0.29925 0.24497
 C41 C 0.79891 -0.29815 0.22926
 H42 H 0.82365 -0.27704 0.27542
 H43 H 0.79609 -0.30950 0.21459
 N44 N 0.76088 -0.21690 0.28089
 N45 N 0.74158 -0.20911 0.27115
 C46 C 0.73371 -0.19076 0.28338
 C47 C 0.74879 -0.18694 0.30153
 C48 C 0.76579 -0.20369 0.29955
 H49 H 0.71820 -0.18087 0.27945
 H50 H 0.78059 -0.20600 0.31090
 H51 H 0.76269 -0.23117 0.23909
 H52 H 0.74517 -0.25117 0.25757
 N53 N 0.71771 0.23955 0.78239
 N54 N 0.72806 0.25833 0.79034
 C55 C 0.71669 0.26579 0.80937
 C56 C 0.69835 0.25087 0.81336
 C57 C 0.69940 0.23445 0.79602
 H58 H 0.72135 0.28086 0.81957
 H59 H 0.68773 0.21991 0.79352
 Cu60 Cu 0.75543 0.27108 0.77508
 Cu61 Cu 0.72871 0.22309 0.75503
 Cu62 Cu 0.77793 0.24496 0.72798
 N63 N 0.78336 0.28282 0.76003
 N64 N 0.79207 0.27256 0.74159
 C65 C 0.81124 0.28414 0.73468
 C66 C 0.81458 0.30250 0.74966
 C67 C 0.79671 0.30128 0.76553
 H68 H 0.82187 0.27960 0.71989
 H69 H 0.79369 0.31295 0.77991
 N70 N 0.76117 0.21721 0.71683
 N71 N 0.74244 0.20887 0.72716
 C72 C 0.73504 0.18995 0.71550
 C73 C 0.74983 0.18635 0.69709
 C74 C 0.76617 0.20382 0.69833
 H75 H 0.71999 0.17960 0.71996
 H76 H 0.78054 0.20656 0.68657
 H77 H 0.76319 0.23296 0.75835
 H78 H 0.74442 0.25131 0.73932
 N79 N 0.28265 -0.23980 0.78249
 N80 N 0.27171 -0.25802 0.79090
 C81 C 0.28308 -0.26553 0.80992
 C82 C 0.30200 -0.25121 0.81341
 C83 C 0.30129 -0.23509 0.79581
 H84 H 0.27809 -0.28028 0.82040
 H85 H 0.31340 -0.22100 0.79295
 Cu86 Cu 0.24381 -0.27002 0.77595
 Cu87 Cu 0.27198 -0.22345 0.75492
 Cu88 Cu 0.22251 -0.24494 0.72788
 N89 N 0.21617 -0.28210 0.76055
 N90 N 0.20797 -0.27222 0.74169
 C91 C 0.18897 -0.28390 0.73449
 C92 C 0.18523 -0.30198 0.74965
 C93 C 0.20265 -0.30046 0.76600
 H94 H 0.17868 -0.27955 0.71943
 H95 H 0.20527 -0.31187 0.78064
 N96 N 0.23965 -0.21751 0.71657
 N97 N 0.25848 -0.20933 0.72688
 C98 C 0.26606 -0.19052 0.71519
 C99 C 0.25126 -0.18681 0.69681
 C100 C 0.23475 -0.20412 0.69806
 H101 H 0.28115 -0.18025 0.71969
 H102 H 0.22027 -0.20669 0.68637
 H103 H 0.23726 -0.23223 0.75806
 H104 H 0.25578 -0.25172 0.73989
 N105 N 0.72078 -0.23438 0.78671
 N106 N 0.73033 -0.25350 0.79482
 C107 C 0.71852 -0.26042 0.81375
 C108 C 0.70077 -0.24477 0.81755
 C109 C 0.70259 -0.22849 0.80017
 H110 H 0.72239 -0.27571 0.82392
 H111 H 0.69144 -0.21361 0.79746
 Cu112 Cu 0.75715 -0.26748 0.77970
 Cu113 Cu 0.73255 -0.21860 0.75929
 Cu114 Cu 0.78039 -0.24323 0.73215
 N115 N 0.78396 -0.28115 0.76429
 N116 N 0.79297 -0.27155 0.74566
 C117 C 0.81143 -0.28414 0.73865
 C118 C 0.81398 -0.30248 0.75374
 C119 C 0.79641 -0.30021 0.76981
 H120 H 0.82224 -0.28016 0.72385
 H121 H 0.79311 -0.31145 0.78445
 N122 N 0.76526 -0.21463 0.72108
 N123 N 0.74700 -0.20524 0.73138
 C124 C 0.74069 -0.18598 0.71969
 C125 C 0.75573 -0.18326 0.70135
 C126 C 0.77105 -0.20158 0.70261
 H127 H 0.72621 -0.17482 0.72409
 H128 H 0.78525 -0.20515 0.69086
 H129 H 0.74666 -0.24777 0.74388
 H130 H 0.76646 -0.23001 0.76248
 N131 N 0.28003 0.23454 0.78625
 N132 N 0.27108 0.25402 0.79419
 C133 C 0.28313 0.26080 0.81306
 C134 C 0.30036 0.24466 0.81701
 C135 C 0.29804 0.22825 0.79978
 H136 H 0.27974 0.27629 0.82313
 H137 H 0.30871 0.21298 0.79722
 Cu138 Cu 0.24448 0.26859 0.77927
 Cu139 Cu 0.26771 0.21886 0.75901
 Cu140 Cu 0.21957 0.24355 0.73266
 N141 N 0.21698 0.28172 0.76469
 N142 N 0.20731 0.27184 0.74652
 C143 C 0.18840 0.28412 0.74025
 C144 C 0.18624 0.30260 0.75528
 C145 C 0.20454 0.30068 0.77058
 H146 H 0.17700 0.27983 0.72597
 H147 H 0.20832 0.31211 0.78498
 N148 N 0.23447 0.21495 0.72124
 N149 N 0.25282 0.20551 0.73130
 C150 C 0.25889 0.18620 0.71953
 C151 C 0.24360 0.18351 0.70138
 C152 C 0.22836 0.20189 0.70284
 H153 H 0.27338 0.17498 0.72373
 H154 H 0.21400 0.20545 0.69127
 H155 H 0.25360 0.24810 0.74342
 H156 H 0.23400 0.23103 0.76286
 N157 N 0.27956 -0.23370 0.21477
 N158 N 0.26990 -0.25275 0.20658
 C159 C 0.28166 -0.25964 0.18758
 C160 C 0.29946 -0.24404 0.18385
 C161 C 0.29775 -0.22783 0.20132
 H162 H 0.27768 -0.27485 0.17729
 H163 H 0.30895 -0.21297 0.20406
 Cu164 Cu 0.24299 -0.26665 0.22170
 Cu165 Cu 0.26787 -0.21791 0.24220
 Cu166 Cu 0.21998 -0.24234 0.26942
 N167 N 0.21610 -0.28017 0.23717
 N168 N 0.20726 -0.27057 0.25590
 C169 C 0.18877 -0.28306 0.26296
 C170 C 0.18598 -0.30136 0.24783
 C171 C 0.20348 -0.29914 0.23168
 H172 H 0.17807 -0.27906 0.27784
 H173 H 0.20663 -0.31039 0.21699
 N174 N 0.23528 -0.21380 0.28050
 N175 N 0.25353 -0.20448 0.27015
 C176 C 0.25994 -0.18522 0.28183
 C177 C 0.24497 -0.18243 0.30023
 C178 C 0.22959 -0.20072 0.29901
 H179 H 0.27443 -0.17410 0.27739
 H180 H 0.21541 -0.20422 0.31079
 H181 H 0.25363 -0.24704 0.25758
 H182 H 0.23385 -0.22917 0.23910
 N183 N 0.72114 0.23311 0.21466
 N184 N 0.73085 0.25215 0.20657
 C185 C 0.71925 0.25902 0.18747
 C186 C 0.70150 0.24339 0.18355
 C187 C 0.70308 0.22720 0.20101
 H188 H 0.72332 0.27419 0.17721
 H189 H 0.69192 0.21228 0.20359
 Cu190 Cu 0.75772 0.26598 0.22182
 Cu191 Cu 0.73259 0.21734 0.24220
 Cu192 Cu 0.77991 0.24211 0.27014
 N193 N 0.78397 0.27994 0.23797
 N194 N 0.79255 0.27049 0.25687
 C195 C 0.81065 0.28330 0.26438
 C196 C 0.81346 0.30167 0.24938
 C197 C 0.79635 0.29915 0.23282
 H198 H 0.82109 0.27948 0.27949
 H199 H 0.79331 0.31037 0.21812
 N200 N 0.76473 0.21343 0.28090
 N201 N 0.74668 0.20397 0.27029
 C202 C 0.74032 0.18461 0.28177
 C203 C 0.75512 0.18190 0.30033
 C204 C 0.77033 0.20033 0.29940
 H205 H 0.72601 0.17335 0.27708
 H206 H 0.78436 0.20392 0.31137
 H207 H 0.74649 0.24667 0.25764
 H208 H 0.76663 0.22865 0.23969
 C209 C 0.25218 0.01279 0.50068
 C210 C 0.25231 -0.01084 0.50033
 C211 C 0.25260 -0.02489 0.52191
 C212 C 0.25190 -0.02419 0.47834
 C213 C 0.25256 0.02683 0.47909
 C214 C 0.25140 0.02612 0.52267
 C215 C 0.27058 -0.02261 0.53828
 C216 C 0.27131 -0.03720 0.55766
 C217 C 0.25414 -0.05422 0.56077
 C218 C 0.23611 -0.05637 0.54463
 C219 C 0.23537 -0.04185 0.52530
 C220 C 0.26921 -0.04087 0.47418
 C221 C 0.26827 -0.05485 0.45445
 C222 C 0.24994 -0.05240 0.43870
 C223 C 0.23268 -0.03565 0.44258
 C224 C 0.23362 -0.02161 0.46236
 C225 C 0.23521 0.04361 0.47545
 C226 C 0.23594 0.05798 0.45600
 C227 C 0.25409 0.05586 0.44000
 C228 C 0.27142 0.03907 0.44340
 C229 C 0.27070 0.02463 0.46290
 C230 C 0.23301 0.02328 0.53846
 C231 C 0.23176 0.03723 0.55829
 C232 C 0.24880 0.05415 0.56241
 C233 C 0.26723 0.05687 0.54683
 C234 C 0.26849 0.04299 0.52704
 H235 H 0.28425 -0.00991 0.53579
 H236 H 0.28544 -0.03550 0.56996
 H237 H 0.22280 -0.06953 0.54679
 H238 H 0.22143 -0.04395 0.51283
 H239 H 0.28334 -0.04320 0.48639
 H240 H 0.28163 -0.06783 0.45168
 H241 H 0.21987 -0.00914 0.46550
 H242 H 0.22118 0.04568 0.48780
 H243 H 0.22250 0.07096 0.45361
 H244 H 0.28563 0.03739 0.43120
 H245 H 0.28449 0.01211 0.46562
 H246 H 0.21942 0.01068 0.53514
 H247 H 0.21732 0.03512 0.57016
 H248 H 0.28044 0.06998 0.54980
 H249 H 0.28270 0.04552 0.51498
 H250 H 0.21832 -0.03376 0.43057
 C251 C 0.74757 0.01049 0.50007
 C252 C 0.74758 -0.01314 0.50047
 C253 C 0.74830 -0.02637 0.52249
 C254 C 0.74710 -0.02726 0.47892
 C255 C 0.74798 0.02374 0.47806
 C256 C 0.74741 0.02462 0.52162
 C257 C 0.76673 -0.02361 0.53827
 C258 C 0.76789 -0.03746 0.55813
 C259 C 0.75070 -0.05422 0.56229
 C260 C 0.73223 -0.05686 0.54673
 C261 C 0.73106 -0.04307 0.52691
 C262 C 0.76435 -0.04417 0.47534
 C263 C 0.76353 -0.05863 0.45594
 C264 C 0.74539 -0.05648 0.43991
 C265 C 0.72816 -0.03958 0.44326
 C266 C 0.72897 -0.02505 0.46272
 C267 C 0.73072 0.04048 0.47390
 C268 C 0.73168 0.05436 0.45413
 C269 C 0.74997 0.05177 0.43836
 C270 C 0.76717 0.03496 0.44226
 C271 C 0.76622 0.02102 0.46207
 C272 C 0.72943 0.02252 0.53798
 C273 C 0.72884 0.03715 0.55736
 C274 C 0.74615 0.05403 0.56048
 C275 C 0.76417 0.05603 0.54432
 C276 C 0.76477 0.04147 0.52499
 H277 H 0.78042 -0.01113 0.53492
 H278 H 0.78236 -0.03542 0.56999
 H279 H 0.71893 -0.06986 0.54972
 H280 H 0.71683 -0.04556 0.51485
 H281 H 0.77837 -0.04625 0.48771
 H282 H 0.77688 -0.07172 0.45361
 H283 H 0.71525 -0.01243 0.46541
 H284 H 0.71664 0.04293 0.48612
 H285 H 0.71838 0.06740 0.45136
 H286 H 0.78151 0.03297 0.43025
 H287 H 0.77993 0.00851 0.46522
 H288 H 0.71564 0.00993 0.53547
 H289 H 0.71471 0.03558 0.56968
 H290 H 0.77758 0.06909 0.54648
 H291 H 0.77868 0.04345 0.51249
 H292 H 0.71394 -0.03789 0.43107
 C293 C 0.50080 0.25260 -0.01130
 C294 C 0.50112 0.25255 0.01225
 C295 C 0.52321 0.25168 0.02555
 C296 C 0.47942 0.25312 0.02622
 C297 C 0.47873 0.25227 -0.02465
 C298 C 0.52252 0.25266 -0.02526
 C299 C 0.53897 0.23321 0.02277
 C300 C 0.55896 0.23196 0.03656
 C301 C 0.56328 0.24908 0.05329
 C302 C 0.54769 0.26755 0.05601
 C303 C 0.52774 0.26881 0.04229
 C304 C 0.47564 0.23590 0.04301
 C305 C 0.45610 0.23683 0.05732
 C306 C 0.44014 0.25505 0.05514
 C307 C 0.44368 0.27225 0.03836
 C308 C 0.46328 0.27134 0.02397
 C309 C 0.47468 0.26948 -0.04137
 C310 C 0.45488 0.26857 -0.05533
 C311 C 0.43894 0.25036 -0.05284
 C312 C 0.44271 0.23321 -0.03606
 C313 C 0.46257 0.23412 -0.02203
 C314 C 0.53906 0.27053 -0.02305
 C315 C 0.55865 0.27098 -0.03747
 C316 C 0.56179 0.25363 -0.05424
 C317 C 0.54544 0.23573 -0.05634
 C318 C 0.52591 0.23527 -0.04199
 H319 H 0.53552 0.21957 0.01029
 H320 H 0.57081 0.21747 0.03445
 H321 H 0.55079 0.28080 0.06901
 H322 H 0.51569 0.28307 0.04483
 H323 H 0.48795 0.22181 0.04513
 H324 H 0.45359 0.22349 0.07031
 H325 H 0.46611 0.28503 0.01144
 H326 H 0.48702 0.28351 -0.04378
 H327 H 0.45220 0.28187 -0.06833
 H328 H 0.43057 0.21895 -0.03410
 H329 H 0.46563 0.22044 -0.00953
 H330 H 0.53655 0.28431 -0.01051
 H331 H 0.57110 0.28501 -0.03579
 H332 H 0.54761 0.22227 -0.06930
 H333 H 0.51331 0.22142 -0.04405
 H334 H 0.43152 0.28653 0.03664
 C335 C 0.49958 0.74692 0.01208
 C336 C 0.49983 0.74695 -0.01148
 C337 C 0.52187 0.74736 -0.02487
 C338 C 0.47809 0.74681 -0.02540
 C339 C 0.47754 0.74762 0.02545
 C340 C 0.52133 0.74645 0.02598
 C341 C 0.53803 0.76551 -0.02217
 C342 C 0.55793 0.76640 -0.03611
 C343 C 0.56175 0.74924 -0.05291
 C344 C 0.54580 0.73107 -0.05554
 C345 C 0.52594 0.73016 -0.04165
 C346 C 0.47463 0.76416 -0.04211
 C347 C 0.45513 0.76359 -0.05649
 C348 C 0.43888 0.74560 -0.05446
 C349 C 0.44209 0.72826 -0.03773
 C350 C 0.46167 0.72882 -0.02326
 C351 C 0.47321 0.73043 0.04214
 C352 C 0.45342 0.73164 0.05608
 C353 C 0.43777 0.75010 0.05359
 C354 C 0.44185 0.76722 0.03684
 C355 C 0.46168 0.76602 0.02285
 C356 C 0.53756 0.72833 0.02363
 C357 C 0.55728 0.72758 0.03787
 C358 C 0.56084 0.74486 0.05462
 C359 C 0.54476 0.76297 0.05694
 C360 C 0.52511 0.76373 0.04276
 H361 H 0.53499 0.77919 -0.00964
 H362 H 0.57007 0.78065 -0.03410
 H363 H 0.54856 0.71780 -0.06858
 H364 H 0.51361 0.71611 -0.04407
 H365 H 0.48717 0.77806 -0.04415
 H366 H 0.45288 0.77704 -0.06940
 H367 H 0.46427 0.71505 -0.01077
 H368 H 0.48532 0.71621 0.04452
 H369 H 0.45055 0.71839 0.06909
 H370 H 0.42999 0.78171 0.03491
 H371 H 0.46494 0.77969 0.01039
 H372 H 0.53476 0.71461 0.01107
 H373 H 0.56955 0.71342 0.03604
 H374 H 0.54728 0.77637 0.06988
 H375 H 0.51275 0.77777 0.04495
 H376 H 0.42969 0.71418 -0.03609
 C377 C -0.01249 0.50082 0.25018
 C378 C 0.01117 0.50019 0.25012
 C379 C 0.02436 0.47798 0.25006
 C380 C 0.02541 0.52170 0.25005
 C381 C -0.02568 0.52302 0.24964
 C382 C -0.02673 0.47932 0.25072
 C383 C 0.04109 0.47401 0.26734
 C384 C 0.05484 0.45402 0.26682
 C385 C 0.05214 0.43779 0.24895
 C386 C 0.03538 0.44153 0.23171
 C387 C 0.02156 0.46157 0.23222
 C388 C 0.02352 0.53824 0.26788
 C389 C 0.03810 0.55772 0.26813
 C390 C 0.05472 0.56074 0.25064
 C391 C 0.05658 0.54435 0.23283
 C392 C 0.04206 0.52491 0.23256
 C393 C -0.02296 0.53898 0.23142
 C394 C -0.03672 0.55904 0.23053
 C395 C -0.05336 0.56325 0.24777
 C396 C -0.05600 0.54748 0.26600
 C397 C -0.04231 0.52747 0.26690
 C398 C -0.04352 0.47568 0.23343
 C399 C -0.05801 0.45625 0.23421
 C400 C -0.05600 0.44029 0.25235
 C401 C -0.03923 0.44373 0.26965
 C402 C -0.02467 0.46321 0.26888
 H403 H 0.04361 0.48653 0.28114
 H404 H 0.06781 0.45139 0.28018
 H405 H 0.03326 0.42916 0.21771
 H406 H 0.00908 0.46452 0.21850
 H407 H 0.01109 0.53583 0.28176
 H408 H 0.03664 0.57023 0.28208
 H409 H 0.04387 0.51227 0.21877
 H410 H -0.01056 0.53565 0.21769
 H411 H -0.03465 0.57105 0.21626
 H412 H -0.06887 0.55049 0.27937
 H413 H -0.04478 0.51531 0.28100
 H414 H -0.04547 0.48799 0.21939
 H415 H -0.07100 0.45383 0.22081
 H416 H -0.03766 0.43156 0.28386
 H417 H -0.01212 0.46596 0.28261
 H418 H 0.06944 0.54646 0.21927
 C419 C -0.01204 0.50024 0.74898
 C420 C 0.01154 0.50048 0.74973
 C421 C 0.02504 0.47865 0.75051
 C422 C 0.02525 0.52232 0.74965
 C423 C -0.02608 0.52183 0.74874
 C424 C -0.02525 0.47816 0.74906
 C425 C 0.02723 0.46613 0.77121
 C426 C 0.04170 0.44661 0.77222
 C427 C 0.05388 0.43942 0.75249
 C428 C 0.05131 0.45158 0.73170
 C429 C 0.03703 0.47120 0.73074
 C430 C 0.04094 0.52672 0.76777
 C431 C 0.05506 0.54648 0.76736
 C432 C 0.05379 0.56194 0.74870
 C433 C 0.03807 0.55776 0.73060
 C434 C 0.02383 0.53800 0.73108
 C435 C -0.04252 0.52523 0.73107
 C436 C -0.05699 0.54470 0.73133
 C437 C -0.05531 0.56090 0.74935
 C438 C -0.03882 0.55774 0.76695
 C439 C -0.02428 0.53825 0.76668
 C440 C -0.02582 0.46379 0.72942
 C441 C -0.04011 0.44410 0.72903
 C442 C -0.05382 0.43860 0.74831
 C443 C -0.05291 0.45267 0.76806
 C444 C -0.03877 0.47241 0.76840
 H445 H 0.01820 0.47187 0.78661
 H446 H 0.04375 0.43735 0.78839
 H447 H 0.06072 0.44611 0.71641
 H448 H 0.03546 0.48079 0.71470
 H449 H 0.04229 0.51475 0.78217
 H450 H 0.06715 0.54957 0.78146
 H451 H 0.01208 0.53463 0.71680
 H452 H -0.04422 0.51269 0.71716
 H453 H -0.06976 0.54692 0.71770
 H454 H -0.03751 0.57008 0.78107
 H455 H -0.01198 0.53570 0.78066
 H456 H -0.01571 0.46825 0.71426
 H457 H -0.04086 0.43344 0.71359
 H458 H -0.06350 0.44858 0.78302
 H459 H -0.03852 0.48344 0.78359
 H460 H 0.03706 0.56956 0.71601
 C461 C 0.31936 0.25281 0.16788
 C462 C 0.33397 0.25422 0.15297
 C463 C 0.35167 0.25568 0.13540
 C464 C 0.34643 0.25016 0.11233
 C465 C 0.36389 0.25090 0.09545
 C466 C 0.38664 0.25718 0.10159
 C467 C 0.39180 0.26289 0.12462
 C468 C 0.37436 0.26215 0.14148
 C469 C 0.40493 0.25693 0.08457
 C470 C 0.42071 0.25633 0.07082
 H471 H 0.32895 0.24509 0.10744
 H472 H 0.35973 0.24635 0.07772
 H473 H 0.40935 0.26765 0.12959
 H474 H 0.37861 0.26639 0.15927
 C475 C 0.68145 0.74744 0.16756
 C476 C 0.66706 0.74619 0.15240
 C477 C 0.64973 0.74486 0.13444
 C478 C 0.65001 0.76082 0.11613
 C479 C 0.63269 0.76004 0.09911
 C480 C 0.61503 0.74330 0.10032
 C481 C 0.61489 0.72719 0.11850
 C482 C 0.63220 0.72797 0.13552
 C483 C 0.59645 0.74336 0.08360
 C484 C 0.58047 0.74380 0.07007
 H485 H 0.66344 0.77400 0.11515
 H486 H 0.63288 0.77267 0.08521
 H487 H 0.60123 0.71427 0.11968
 H488 H 0.63177 0.71558 0.14963
 C489 C 0.68150 0.25209 -0.16830
 C490 C 0.66713 0.25277 -0.15311
 C491 C 0.64964 0.25315 -0.13526
 C492 C 0.63158 0.23681 -0.13568
 C493 C 0.61436 0.23722 -0.11861
 C494 C 0.61507 0.25397 -0.10099
 C495 C 0.63320 0.27027 -0.10047
 C496 C 0.65046 0.26985 -0.11758
 C497 C 0.59691 0.25450 -0.08382
 C498 C 0.58120 0.25442 -0.06998
 H499 H 0.63077 0.22382 -0.14926
 H500 H 0.60042 0.22455 -0.11921
 H501 H 0.63392 0.28332 -0.08695
 H502 H 0.66435 0.28257 -0.11708
 C503 C 0.31902 0.74738 -0.16841
 C504 C 0.33352 0.74655 -0.15334
 C505 C 0.35117 0.74595 -0.13566
 C506 C 0.34828 0.73216 -0.11586
 C507 C 0.36561 0.73166 -0.09881
 C508 C 0.38586 0.74495 -0.10151
 C509 C 0.38871 0.75872 -0.12130
 C510 C 0.37143 0.75922 -0.13831
 C511 C 0.40387 0.74456 -0.08418
 C512 C 0.41951 0.74472 -0.07025
 H513 H 0.33269 0.72181 -0.11365
 H514 H 0.36322 0.72098 -0.08355
 H515 H 0.40427 0.76910 -0.12356
 H516 H 0.37387 0.76993 -0.15354
 C517 C 0.16416 0.31585 0.24662
 C518 C 0.14882 0.33016 0.24691
 C519 C 0.13084 0.34759 0.24730
 C520 C 0.12779 0.36142 0.26705
 C521 C 0.11097 0.37897 0.26722
 C522 C 0.09708 0.38280 0.24764
 C523 C 0.09995 0.36883 0.22795
 C524 C 0.11679 0.35125 0.22779
 C525 C 0.08057 0.40164 0.24762
 C526 C 0.06728 0.41786 0.24800
 H527 H 0.13859 0.35880 0.28221
 H528 H 0.10897 0.38971 0.28250
 H529 H 0.08937 0.37167 0.21269
 H530 H 0.11903 0.34070 0.21240
 C531 C 0.16782 0.68202 0.74880
 C532 C 0.15245 0.66775 0.74828
 C533 C 0.13427 0.65052 0.74801
 C534 C 0.12547 0.64186 0.76891
 C535 C 0.10831 0.62462 0.76874
 C536 C 0.09984 0.61596 0.74767
 C537 C 0.10853 0.62473 0.72676
 C538 C 0.12570 0.64199 0.72692
 C539 C 0.08295 0.59748 0.74761
 C540 C 0.06932 0.58155 0.74790
 H541 H 0.13201 0.64826 0.78532
 H542 H 0.10178 0.61789 0.78500
 H543 H 0.10218 0.61811 0.71037
 H544 H 0.13243 0.64850 0.71065
 C545 C -0.16544 0.68498 0.24524
 C546 C -0.14999 0.67078 0.24535
 C547 C -0.13187 0.65350 0.24536
 C548 C -0.12122 0.64694 0.26618
 C549 C -0.10434 0.62943 0.26629
 C550 C -0.09801 0.61841 0.24557
 C551 C -0.10845 0.62517 0.22472
 C552 C -0.12533 0.64269 0.22461
 C553 C -0.08163 0.59948 0.24592
 C554 C -0.06842 0.58320 0.24653
 H555 H -0.12616 0.65515 0.28234
 H556 H -0.09646 0.62427 0.28253
 H557 H -0.10377 0.61669 0.20862
 H558 H -0.13346 0.64758 0.20840
 C559 C -0.16823 0.31873 0.74887
 C560 C -0.15316 0.33331 0.74837
 C561 C -0.13547 0.35103 0.74805
 C562 C -0.11371 0.34662 0.73800
 C563 C -0.09661 0.36396 0.73776
 C564 C -0.10123 0.38576 0.74757
 C565 C -0.12299 0.39013 0.75762
 C566 C -0.14005 0.37282 0.75786
 C567 C -0.08382 0.40376 0.74738
 C568 C -0.06979 0.41934 0.74757
 H569 H -0.10996 0.32983 0.73037
 H570 H -0.07986 0.36036 0.72995
 H571 H -0.12675 0.40693 0.76526
 H572 H -0.15682 0.37641 0.76567
 C573 C 0.25201 0.16822 0.31900
 C574 C 0.25326 0.15350 0.33379
 C575 C 0.25452 0.13615 0.35170
 C576 C 0.25440 0.11246 0.34599
 C577 C 0.25505 0.09568 0.36351
 C578 C 0.25584 0.10252 0.38680
 C579 C 0.25613 0.12620 0.39247
 C580 C 0.25547 0.14296 0.37497
 C581 C 0.25571 0.08542 0.40498
 C582 C 0.25521 0.07161 0.42067
 H583 H 0.25362 0.10699 0.32805
 H584 H 0.25473 0.07742 0.35892
 H585 H 0.25665 0.13171 0.41041
 H586 H 0.25553 0.16121 0.37960
 C587 C 0.74836 0.16834 0.67990
 C588 C 0.74724 0.15336 0.66531
 C589 C 0.74605 0.13571 0.64766
 C590 C 0.74479 0.14214 0.62430
 C591 C 0.74408 0.12508 0.60705
 C592 C 0.74462 0.10150 0.61305
 C593 C 0.74575 0.09505 0.63642
 C594 C 0.74646 0.11213 0.65369
 C595 C 0.74467 0.08411 0.59511
 C596 C 0.74511 0.07006 0.57961
 H597 H 0.74452 0.16031 0.61943
 H598 H 0.74328 0.13027 0.58904
 H599 H 0.74624 0.07687 0.64125
 H600 H 0.74747 0.10696 0.67169
 C601 C 0.25276 -0.16871 0.67976
 C602 C 0.25392 -0.15366 0.66529
 C603 C 0.25509 -0.13595 0.64774
 C604 C 0.25277 -0.11245 0.65373
 C605 C 0.25334 -0.09534 0.63653
 C606 C 0.25625 -0.10167 0.61327
 C607 C 0.25873 -0.12516 0.60731
 C608 C 0.25816 -0.14224 0.62450
 C609 C 0.25599 -0.08428 0.59536
 C610 C 0.25538 -0.07023 0.57988
 H611 H 0.25037 -0.10740 0.67165
 H612 H 0.25135 -0.07725 0.64132
 H613 H 0.26092 -0.13027 0.58939
 H614 H 0.25993 -0.16034 0.61964
 C615 C 0.74715 -0.16922 0.31900
 C616 C 0.74595 -0.15448 0.33380
 C617 C 0.74475 -0.13712 0.35172
 C618 C 0.74595 -0.14381 0.37500
 C619 C 0.74536 -0.12701 0.39248
 C620 C 0.74355 -0.10341 0.38681
 C621 C 0.74221 -0.09670 0.36352
 C622 C 0.74280 -0.11354 0.34600
 C623 C 0.74368 -0.08622 0.40495
 C624 C 0.74421 -0.07233 0.42062
 H625 H 0.74749 -0.16199 0.37960
 H626 H 0.74650 -0.13241 0.41041
 H627 H 0.74090 -0.07851 0.35891
 H628 H 0.74190 -0.10818 0.32804
 C629 C 0.68354 0.75444 -0.16447
 C630 C 0.66891 0.75378 -0.14953
 C631 C 0.65121 0.75290 -0.13194
 C632 C 0.63372 0.73600 -0.13317
 C633 C 0.61613 0.73543 -0.11647
 C634 C 0.61594 0.75176 -0.09846
 C635 C 0.63352 0.76860 -0.09713
 C636 C 0.65113 0.76916 -0.11385
 C637 C 0.59741 0.75138 -0.08173
 C638 C 0.58142 0.75064 -0.06824
 H639 H 0.63357 0.72340 -0.14712
 H640 H 0.60259 0.72238 -0.11770
 H641 H 0.63351 0.78135 -0.08331
 H642 H 0.66454 0.78235 -0.11278
 C643 C 0.31765 0.24521 -0.16505
 C644 C 0.33231 0.24578 -0.15014
 C645 C 0.35005 0.24656 -0.13259
 C646 C 0.34801 0.23296 -0.11256
 C647 C 0.36556 0.23352 -0.09572
 C648 C 0.38514 0.24768 -0.09890
 C649 C 0.38706 0.26133 -0.11887
 C650 C 0.36958 0.26078 -0.13565
 C651 C 0.40350 0.24814 -0.08196
 C652 C 0.41938 0.24893 -0.06833
 H653 H 0.33294 0.22194 -0.11008
 H654 H 0.36395 0.22289 -0.08033
 H655 H 0.40212 0.27232 -0.12155
 H656 H 0.37138 0.27137 -0.15104
 C657 C 0.31660 0.75534 0.16578
 C658 C 0.33124 0.75503 0.15085
 C659 C 0.34905 0.75485 0.13337
 C660 C 0.34387 0.74780 0.11071
 C661 C 0.36139 0.74744 0.09387
 C662 C 0.38410 0.75416 0.09966
 C663 C 0.38920 0.76132 0.12229
 C664 C 0.37173 0.76167 0.13909
 C665 C 0.40242 0.75307 0.08272
 C666 C 0.41825 0.75189 0.06909
 H667 H 0.32638 0.74249 0.10611
 H668 H 0.35727 0.74180 0.07643
 H669 H 0.40672 0.76646 0.12699
 H670 H 0.37594 0.76714 0.15656
 C671 C 0.68464 0.24390 0.16521
 C672 C 0.67027 0.24413 0.15002
 C673 C 0.65280 0.24421 0.13217
 C674 C 0.65301 0.26137 0.11497
 C675 C 0.63555 0.26179 0.09808
 C676 C 0.61785 0.24503 0.09833
 C677 C 0.61779 0.22775 0.11539
 C678 C 0.63523 0.22733 0.13226
 C679 C 0.59917 0.24616 0.08178
 C680 C 0.58306 0.24733 0.06845
 H681 H 0.66649 0.27453 0.11477
 H682 H 0.63570 0.27531 0.08504
 H683 H 0.60412 0.21479 0.11582
 H684 H 0.63489 0.21403 0.14552
 C685 C -0.16925 0.68089 0.75322
 C686 C -0.15434 0.66618 0.75279
 C687 C -0.13655 0.64862 0.75226
 C688 C -0.12617 0.64111 0.77290
 C689 C -0.10905 0.62385 0.77238
 C690 C -0.10222 0.61406 0.75123
 C691 C -0.11253 0.62164 0.73059
 C692 C -0.12965 0.63889 0.73110
 C693 C -0.08518 0.59578 0.75073
 C694 C -0.07128 0.58011 0.75019
 H695 H -0.13139 0.64849 0.78936
 H696 H -0.10127 0.61804 0.78845
 H697 H -0.10745 0.61410 0.71415
 H698 H -0.13759 0.64457 0.71505
 C699 C -0.16904 0.31944 0.25052
 C700 C -0.15429 0.33429 0.25151
 C701 C -0.13671 0.35205 0.25267
 C702 C -0.11428 0.34763 0.24421
 C703 C -0.09731 0.36506 0.24494
 C704 C -0.10271 0.38693 0.25417
 C705 C -0.12508 0.39127 0.26278
 C706 C -0.14204 0.37386 0.26205
 C707 C -0.08566 0.40523 0.25399
 C708 C -0.07183 0.42096 0.25348
 H709 H -0.10998 0.33082 0.23693
 H710 H -0.08011 0.36156 0.23811
 H711 H -0.12947 0.40816 0.26983
 H712 H -0.15932 0.37746 0.26864
 C713 C 0.16836 0.32000 0.75530
 C714 C 0.15334 0.33461 0.75533
 C715 C 0.13542 0.35203 0.75536
 C716 C 0.13332 0.36735 0.77412
 C717 C 0.11610 0.38451 0.77398
 C718 C 0.10093 0.38642 0.75508
 C719 C 0.10293 0.37101 0.73639
 C720 C 0.12015 0.35385 0.73653
 C721 C 0.08386 0.40468 0.75449
 C722 C 0.06992 0.42030 0.75374
 H723 H 0.14507 0.36614 0.78874
 H724 H 0.11479 0.39638 0.78850
 H725 H 0.09134 0.37240 0.72165
 H726 H 0.12168 0.34212 0.72192
 C727 C 0.16811 0.68123 0.24848
 C728 C 0.15306 0.66666 0.24904
 C729 C 0.13514 0.64924 0.24964
 C730 C 0.12703 0.64079 0.27090
 C731 C 0.10995 0.62347 0.27144
 C732 C 0.10092 0.61458 0.25071
 C733 C 0.10891 0.62317 0.22946
 C734 C 0.12597 0.64047 0.22892
 C735 C 0.08411 0.59606 0.25114
 C736 C 0.07044 0.58019 0.25115
 H737 H 0.13400 0.64747 0.28703
 H738 H 0.10398 0.61688 0.28796
 H739 H 0.10212 0.61633 0.21332
 H740 H 0.13212 0.64689 0.21239
 C741 C 0.75531 -0.16536 0.68407
 C742 C 0.75513 -0.15059 0.66930
 C743 C 0.75503 -0.13331 0.65133
 C744 C 0.75108 -0.10989 0.65671
 C745 C 0.75078 -0.09323 0.63909
 C746 C 0.75445 -0.09995 0.61605
 C747 C 0.75850 -0.12335 0.61071
 C748 C 0.75880 -0.13999 0.62831
 C749 C 0.75349 -0.08310 0.59771
 C750 C 0.75241 -0.06956 0.58185
 H751 H 0.74814 -0.10456 0.67447
 H752 H 0.74755 -0.07518 0.64339
 H753 H 0.76128 -0.12875 0.59295
 H754 H 0.76186 -0.15805 0.62395
 C755 C 0.24551 -0.16448 0.31748
 C756 C 0.24585 -0.14964 0.33222
 C757 C 0.24619 -0.13229 0.35015
 C758 C 0.24713 -0.13911 0.37339
 C759 C 0.24746 -0.12236 0.39092
 C760 C 0.24682 -0.09870 0.38529
 C761 C 0.24585 -0.09184 0.36204
 C762 C 0.24552 -0.10862 0.34448
 C763 C 0.24755 -0.08164 0.40348
 C764 C 0.24845 -0.06793 0.41924
 H765 H 0.24765 -0.15736 0.37796
 H766 H 0.24828 -0.12784 0.40885
 H767 H 0.24541 -0.07358 0.35752
 H768 H 0.24479 -0.10317 0.32655
 C769 C 0.75460 0.16387 0.31747
 C770 C 0.75431 0.14899 0.33212
 C771 C 0.75406 0.13159 0.34997
 C772 C 0.75256 0.10797 0.34421
 C773 C 0.75220 0.09117 0.36171
 C774 C 0.75336 0.09796 0.38499
 C775 C 0.75494 0.12157 0.39070
 C776 C 0.75529 0.13834 0.37324
 C777 C 0.75251 0.08092 0.40315
 C778 C 0.75153 0.06725 0.41890
 H779 H 0.75161 0.10257 0.32626
 H780 H 0.75093 0.07296 0.35711
 H781 H 0.75579 0.12701 0.40865
 H782 H 0.75647 0.15655 0.37787
 C783 C 0.24383 0.16566 0.68403
 C784 C 0.24396 0.15091 0.66922
 C785 C 0.24408 0.13363 0.65125
 C786 C 0.24170 0.14042 0.62810
 C787 C 0.24204 0.12373 0.61051
 C788 C 0.24476 0.10018 0.61600
 C789 C 0.24706 0.09336 0.63917
 C790 C 0.24671 0.11008 0.65678
 C791 C 0.24578 0.08322 0.59772
 C792 C 0.24696 0.06959 0.58191
 H793 H 0.23970 0.15860 0.62366
 H794 H 0.24034 0.12920 0.59264
 H795 H 0.24925 0.07521 0.64360
 H796 H 0.24860 0.10467 0.67464
   
