data_POSCAR
  _audit_creation_date              2014-09-24
  _audit_creation_method            'ToBaCCo'
  _symmetry_space_group_name_H-M    'P1'
  _symmetry_Int_Tables_number       1
  _symmetry_cell_setting            triclinic
  loop_
  _symmetry_equiv_pos_as_xyz
 x,y,z
_cell_length_a 25.6306
_cell_length_b 25.6149
_cell_length_c 25.6006
_cell_angle_alpha 89.989700
_cell_angle_beta 89.938800
_cell_angle_gamma 90.024700
loop_
  _atom_site_label
  _atom_site_type_symbol
  _atom_site_fract_x
  _atom_site_fract_y
  _atom_site_fract_z
C1 C 0.16989 0.54088 1.06374
 H2 H 0.16997 0.57110 1.03421
 C3 C 0.13287 0.54194 1.10372
 H4 H 0.10446 0.57325 1.10506
 C5 C 0.20529 0.46185 1.09655
 H6 H 0.23265 0.43002 1.09277
 C7 C 0.16882 0.46136 1.13722
 H8 H 0.16857 0.42931 1.16487
 N9 N 0.20505 0.50123 1.06080
 C10 C 0.32853 0.56211 0.96068
 H11 H 0.32850 0.53243 0.93061
 C12 C 0.36549 0.60209 0.95935
 H13 H 0.39397 0.60337 0.92807
 C14 C 0.29301 0.59535 1.03957
 H15 H 0.26560 0.59177 1.07144
 C16 C 0.32944 0.63602 1.03975
 H17 H 0.32974 0.66389 1.07157
 Zn18 Zn 0.24918 0.50021 1.00155
 N19 N 0.29331 0.55940 1.00038
 C20 C 0.20566 0.53819 0.90628
 N21 N 0.20517 0.49907 0.94232
 C22 C 0.17000 0.45939 0.93952
 C23 C 0.13331 0.45799 0.89933
 C24 C 0.16951 0.53830 0.86541
 C25 C 0.32840 0.43812 1.04221
 C26 C 0.36532 0.39813 1.04328
 C27 C 0.32931 0.36461 0.96276
 C28 C 0.29292 0.40527 0.96320
 N29 N 0.29323 0.44103 1.00256
 H30 H 0.23303 0.57006 0.90993
 H31 H 0.16988 0.42937 0.96925
 H32 H 0.10486 0.42672 0.89795
 H33 H 0.16937 0.57006 0.83745
 H34 H 0.32839 0.46766 1.07242
 H35 H 0.39380 0.39670 1.07450
 H36 H 0.32962 0.33691 0.93079
 H37 H 0.26558 0.40903 0.93136
 C38 C 0.36621 0.63913 0.99944
 C39 C 0.13203 0.50160 1.14057
 C40 C 0.36604 0.36131 1.00299
 C41 C 0.13282 0.49799 0.86217
 C42 C 0.82916 0.54124 -0.06135
 H43 H 0.82929 0.57126 -0.03163
 C44 C 0.86604 0.54246 -0.10145
 H45 H 0.89463 0.57361 -0.10278
 C46 C 0.79337 0.46254 -0.09457
 H47 H 0.76592 0.43074 -0.09092
 C48 C 0.82971 0.46224 -0.13535
 H49 H 0.82989 0.43044 -0.16324
 N50 N 0.79386 0.50167 -0.05857
 C51 C 0.67091 0.56238 0.04214
 H52 H 0.67096 0.53267 0.07218
 C53 C 0.63397 0.60234 0.04353
 H54 H 0.60553 0.60359 0.07485
 C55 C 0.70627 0.59566 -0.03683
 H56 H 0.73357 0.59207 -0.06879
 C57 C 0.66986 0.63630 -0.03695
 H58 H 0.66949 0.66417 -0.06878
 Zn59 Zn 0.74992 0.50039 0.00078
 N60 N 0.70601 0.55968 0.00234
 C61 C 0.79405 0.53770 0.09602
 N62 N 0.79414 0.49874 0.05983
 C63 C 0.82921 0.45896 0.06219
 C64 C 0.86625 0.45733 0.10205
 C65 C 0.83057 0.53758 0.13657
 C66 C 0.67041 0.43894 -0.04018
 C67 C 0.63345 0.39898 -0.04165
 C68 C 0.66958 0.36449 0.03841
 C69 C 0.70600 0.40514 0.03838
 N70 N 0.70567 0.44135 -0.00058
 H71 H 0.76676 0.56964 0.09270
 H72 H 0.82901 0.42908 0.03233
 H73 H 0.89464 0.42602 0.10304
 H74 H 0.83106 0.56923 0.16462
 H75 H 0.67043 0.46881 -0.07006
 H76 H 0.60493 0.39791 -0.07284
 H77 H 0.66931 0.33639 0.07004
 H78 H 0.73345 0.40850 0.07019
 C79 C 0.63316 0.63937 0.00342
 C80 C 0.86659 0.50240 -0.13852
 C81 C 0.63278 0.36166 -0.00181
 C82 C 0.86720 0.49720 0.13931
 C83 C -0.04072 0.33011 0.43684
 H84 H -0.07073 0.33014 0.46660
 C85 C -0.04200 0.36707 0.39681
 H86 H -0.07324 0.39556 0.39568
 C87 C 0.03797 0.29450 0.40346
 H88 H 0.06976 0.26707 0.40702
 C89 C 0.03824 0.33089 0.36274
 H90 H 0.07009 0.33102 0.33485
 N91 N -0.00113 0.29487 0.43951
 C92 C -0.06105 0.17120 0.54003
 H93 H -0.03104 0.17111 0.56971
 C94 C -0.10105 0.13427 0.54176
 H95 H -0.10197 0.10567 0.57293
 C96 C -0.09519 0.20700 0.46171
 H97 H -0.09197 0.23452 0.42990
 C98 C -0.13588 0.17061 0.46194
 H99 H -0.16412 0.17042 0.43049
 Zn100 Zn 0.00031 0.25074 0.49875
 N101 N -0.05879 0.20654 0.50041
 C102 C -0.03725 0.29408 0.59425
 N103 N 0.00173 0.29474 0.55805
 C104 C 0.04128 0.33007 0.56076
 C105 C 0.04265 0.36676 0.60101
 C106 C -0.03737 0.33021 0.63518
 C107 C 0.06197 0.17141 0.45751
 C108 C 0.10196 0.13450 0.45600
 C109 C 0.13635 0.17080 0.53604
 C110 C 0.09567 0.20716 0.53604
 N111 N 0.05947 0.20669 0.49714
 H112 H -0.06902 0.26661 0.59068
 H113 H 0.07118 0.33033 0.53090
 H114 H 0.07379 0.39536 0.60231
 H115 H -0.06904 0.33022 0.66324
 H116 H 0.03211 0.17131 0.42768
 H117 H 0.10305 0.10590 0.42484
 H118 H 0.16438 0.17059 0.56767
 H119 H 0.09226 0.23461 0.56787
 C120 C -0.13856 0.13372 0.50217
 C121 C -0.00193 0.36776 0.35965
 C122 C 0.13923 0.13393 0.49583
 C123 C 0.00278 0.36708 0.63832
 C124 C 0.95896 0.67060 0.56165
 H125 H 0.92912 0.67038 0.53180
 C126 C 0.95759 0.63375 0.60178
 H127 H 0.92650 0.60510 0.60300
 C128 C 1.03741 0.70656 0.59518
 H129 H 1.06917 0.73405 0.59164
 C130 C 1.03754 0.67027 0.63598
 H131 H 1.06919 0.67018 0.66400
 N132 N 0.99849 0.70596 0.55901
 C133 C 0.93869 0.82907 0.45806
 H134 H 0.96871 0.82909 0.42831
 C135 C 0.89873 0.86599 0.45634
 H136 H 0.89781 0.89452 0.42510
 C137 C 0.90457 0.79348 0.53657
 H138 H 0.90781 0.76609 0.56847
 C139 C 0.86391 0.82986 0.53635
 H140 H 0.83571 0.83015 0.56790
 Zn141 Zn 1.00013 0.74987 0.49968
 N142 N 0.94097 0.79386 0.49778
 C143 C 0.96309 0.70590 0.40435
 N144 N 1.00195 0.70563 0.44059
 C145 C 1.04156 0.67038 0.43823
 C146 C 1.04310 0.63332 0.39833
 C147 C 0.96313 0.66938 0.36376
 C148 C 1.06126 0.82947 0.54094
 C149 C 1.10123 0.86642 0.54265
 C150 C 1.13637 0.82995 0.46297
 C151 C 1.09570 0.79355 0.46275
 N152 N 1.05916 0.79407 0.50139
 H153 H 0.93126 0.73331 0.40767
 H154 H 1.07136 0.67044 0.46813
 H155 H 1.07427 0.60477 0.39733
 H156 H 0.93154 0.66903 0.33568
 H157 H 1.03113 0.82959 0.57057
 H158 H 1.10202 0.89508 0.57376
 H159 H 1.16472 0.83009 0.43155
 H160 H 1.09261 0.76598 0.43099
 C161 C 0.86126 0.86665 0.49605
 C162 C 0.99745 0.63333 0.63901
 C163 C 1.13887 0.86691 0.50311
 C164 C 1.00332 0.63255 0.36102
 C165 C 0.43852 -0.04222 0.32874
 H166 H 0.46841 -0.07203 0.32888
 C167 C 0.39848 -0.04367 0.36568
 H168 H 0.39739 -0.07476 0.39436
 C169 C 0.40479 0.03619 0.29280
 H170 H 0.40821 0.06796 0.26526
 C171 C 0.36408 0.03625 0.32918
 H172 H 0.33601 0.06786 0.32933
 N173 N 0.44102 -0.00268 0.29334
 C174 C 0.54133 -0.06296 0.16984
 H175 H 0.57128 -0.03318 0.16974
 C176 C 0.54263 -0.10295 0.13285
 H177 H 0.57385 -0.10404 0.10428
 C178 C 0.46270 -0.09640 0.20564
 H179 H 0.43091 -0.09286 0.23314
 C180 C 0.46246 -0.13707 0.16923
 H181 H 0.43065 -0.16496 0.16915
 Zn182 Zn 0.50019 -0.00110 0.24923
 N183 N 0.50175 -0.06033 0.20518
 C184 C 0.59578 -0.03786 0.29287
 N185 N 0.55925 0.00072 0.29336
 C186 C 0.56141 0.04036 0.32866
 C187 C 0.60142 0.04224 0.36551
 C188 C 0.63650 -0.03748 0.32918
 C189 C 0.45913 0.06062 0.16980
 C190 C 0.45762 0.10082 0.13306
 C191 C 0.53749 0.13525 0.16953
 C192 C 0.53750 0.09436 0.20572
 N193 N 0.49866 0.05808 0.20512
 H194 H 0.59265 -0.06969 0.26538
 H195 H 0.53129 0.06994 0.32875
 H196 H 0.60226 0.07343 0.39408
 H197 H 0.66484 -0.06883 0.32935
 H198 H 0.42933 0.03069 0.16960
 H199 H 0.42649 0.10201 0.10448
 H200 H 0.56904 0.16341 0.16948
 H201 H 0.56926 0.09091 0.23319
 C202 C 0.50261 -0.14010 0.13224
 C203 C 0.36119 -0.00387 0.36616
 C204 C 0.49735 0.13823 0.13269
 C205 C 0.63906 0.00278 0.36602
 C206 C 0.56184 -0.04153 0.67058
 H207 H 0.53192 -0.07133 0.67053
 C208 C 0.60189 -0.04312 0.63365
 H209 H 0.60296 -0.07431 0.60510
 C210 C 0.59564 0.03700 0.70622
 H211 H 0.59225 0.06886 0.73364
 C212 C 0.63637 0.03692 0.66984
 H213 H 0.66447 0.06852 0.66958
 N214 N 0.55937 -0.00186 0.70582
 C215 C 0.45878 -0.06168 0.82944
 H216 H 0.42892 -0.03184 0.82942
 C217 C 0.45730 -0.10158 0.86652
 H218 H 0.42612 -0.10264 0.89511
 C219 C 0.53735 -0.09539 0.79384
 H220 H 0.56919 -0.09202 0.76638
 C221 C 0.53738 -0.13598 0.83037
 H222 H 0.56903 -0.16399 0.83069
 Zn223 Zn 0.50013 -0.00013 0.74988
 N224 N 0.49841 -0.05923 0.79414
 C225 C 0.40457 -0.03706 0.70629
 N226 N 0.44110 0.00155 0.70570
 C227 C 0.43894 0.04111 0.67030
 C228 C 0.39892 0.04288 0.63345
 C229 C 0.36384 -0.03678 0.66999
 C230 C 0.54110 0.06186 0.82919
 C231 C 0.54238 0.10200 0.86601
 C232 C 0.46241 0.13608 0.82949
 C233 C 0.46263 0.09528 0.79323
 N234 N 0.50161 0.05917 0.79383
 H235 H 0.40770 -0.06882 0.73386
 H236 H 0.46905 0.07072 0.67012
 H237 H 0.39807 0.07401 0.60480
 H238 H 0.33549 -0.06816 0.66991
 H239 H 0.57099 0.03206 0.82941
 H240 H 0.57345 0.10326 0.89465
 H241 H 0.43072 0.16406 0.82957
 H242 H 0.43089 0.09170 0.76574
 C243 C 0.49717 -0.13881 0.86726
 C244 C 0.63923 -0.00333 0.63302
 C245 C 0.50247 0.13918 0.86642
 C246 C 0.36127 0.00339 0.63306
 Si247 Si 0.25007 0.00030 0.49973
 Si248 Si 0.75031 0.00019 0.49932
 Si249 Si 0.49951 0.25030 0.99993
 Si250 Si 0.49964 0.75039 0.00118
 Si251 Si 1.00091 0.49884 0.25009
 Si252 Si 0.00009 0.49993 0.75028
 C253 C 0.17777 0.09314 0.49718
 C254 C 0.20818 0.05731 0.49825
 C255 C 0.59239 0.67793 0.00211
 C256 C 0.55657 0.70838 0.00139
 C257 C 0.82274 -0.09255 0.49719
 C258 C 0.79231 -0.05672 0.49807
 C259 C 0.40676 0.32270 1.00137
 C260 C 0.44255 0.29224 1.00042
 C261 C 0.82281 0.09297 0.50113
 C262 C 0.79232 0.05716 0.50037
 C263 C 0.40692 0.67780 0.00070
 C264 C 0.44271 0.70832 0.00128
 C265 C 0.17747 -0.09234 0.50200
 C266 C 0.20796 -0.05655 0.50111
 C267 C 0.59211 0.32298 0.99934
 C268 C 0.55636 0.29243 0.99991
 C269 C 0.49852 0.17718 1.09223
 C270 C 0.49921 0.20794 1.05664
 C271 C -0.00114 0.59266 0.67773
 C272 C -0.00030 0.55690 0.70827
 C273 C 0.49844 0.82267 -0.09185
 C274 C 0.49921 0.79227 -0.05594
 C275 C 0.99949 0.40632 0.32303
 C276 C 1.00042 0.44199 0.29233
 C277 C 0.50119 0.82334 0.09366
 C278 C 0.50023 0.79267 0.05798
 C279 C 0.00144 0.40753 0.67727
 C280 C 0.00061 0.44313 0.70801
 C281 C 0.50097 0.17790 0.90707
 C282 C 0.50005 0.20842 0.94286
 C283 C 1.00210 0.59170 0.32250
 C284 C 1.00136 0.55583 0.29207
 C285 C 1.09344 0.50006 0.17715
 C286 C 1.05774 0.49913 0.20783
 C287 C 0.67784 -0.00207 0.59221
 C288 C 0.70832 -0.00110 0.55636
 C289 C -0.09272 0.50091 0.82278
 C290 C -0.05692 0.50011 0.79226
 C291 C 0.32259 -0.00244 0.40695
 C292 C 0.29211 -0.00129 0.44278
 C293 C 0.09240 0.49919 0.82325
 C294 C 0.05682 0.49980 0.79253
 C295 C 0.67772 0.00189 0.40670
 C296 C 0.70824 0.00121 0.44245
 C297 C 0.90804 0.49824 0.17781
 C298 C 0.94391 0.49876 0.20819
 C299 C 0.32259 0.00236 0.59239
 C300 C 0.29208 0.00155 0.55664
   
