data_POSCAR
  _audit_creation_date              2014-09-24
  _audit_creation_method            'ToBaCCo'
  _symmetry_space_group_name_H-M    'P1'
  _symmetry_Int_Tables_number       1
  _symmetry_cell_setting            triclinic
  loop_
  _symmetry_equiv_pos_as_xyz
 x,y,z
_cell_length_a 59.6354
_cell_length_b 59.6750
_cell_length_c 16.8173
_cell_angle_alpha 90.072800
_cell_angle_beta 89.996900
_cell_angle_gamma 119.901500
loop_
  _atom_site_label
  _atom_site_type_symbol
  _atom_site_fract_x
  _atom_site_fract_y
  _atom_site_fract_z
C1 C 0.22362 0.48880 0.46042
 C2 C 0.22407 0.48934 0.54449
 C3 C 0.24465 0.48953 0.58549
 C4 C 0.26478 0.48914 0.54370
 C5 C 0.26433 0.48864 0.45982
 C6 C 0.24381 0.48849 0.41877
 H7 H 0.24356 0.48802 0.35424
 H8 H 0.24493 0.48987 0.65007
 C9 C 0.51081 -0.26503 0.45804
 C10 C 0.51123 -0.26457 0.54195
 C11 C 0.51134 -0.24405 0.58291
 C12 C 0.51108 -0.22389 0.54106
 C13 C 0.51063 -0.22438 0.45716
 C14 C 0.51047 -0.24492 0.41621
 H15 H 0.51020 -0.24514 0.35167
 H16 H 0.51175 -0.24376 0.64744
 C17 C 1.26481 0.77674 0.45463
 C18 C 1.26468 0.77663 0.53857
 C19 C 1.24434 0.75622 0.57974
 C20 C 1.22404 0.73591 0.53812
 C21 C 1.22414 0.73602 0.45434
 C22 C 1.24450 0.75637 0.41304
 H23 H 1.24443 0.75636 0.34850
 H24 H 1.24425 0.75621 0.64425
 C25 C 0.77587 0.51093 0.46203
 C26 C 0.77580 0.51081 0.54595
 C27 C 0.75540 0.51083 0.58740
 C28 C 0.73508 0.51096 0.54594
 C29 C 0.73512 0.51096 0.46202
 C30 C 0.75550 0.51094 0.42067
 H31 H 0.75556 0.51106 0.35616
 H32 H 0.75541 0.51085 0.65198
 C33 C 0.48862 0.26479 0.46263
 C34 C 0.48916 0.26509 0.54653
 C35 C 0.48945 0.24487 0.58801
 C36 C 0.48916 0.22432 0.54660
 C37 C 0.48865 0.22407 0.46269
 C38 C 0.48841 0.24430 0.42131
 H39 H 0.48794 0.24403 0.35682
 H40 H 0.48979 0.24507 0.65258
 C41 C 0.73603 0.22393 0.45932
 C42 C 0.73613 0.22406 0.54310
 C43 C 0.75653 0.24442 0.58437
 C44 C 0.77689 0.26470 0.54275
 C45 C 0.77673 0.26460 0.45882
 C46 C 0.75630 0.24422 0.41767
 H47 H 0.75623 0.24411 0.35317
 H48 H 0.75658 0.24439 0.64891
 N49 N 0.97277 0.52589 0.08381
 N50 N 0.95342 0.53036 0.09513
 N51 N 1.02732 0.53777 0.13867
 N52 N 1.04668 0.55061 0.18858
 N53 N 1.02718 0.55323 0.08337
 N54 N 1.04644 0.57703 0.09406
 N55 N 0.97292 0.51044 0.13909
 N56 N 0.95370 0.50396 0.18958
 C57 C 0.94176 0.51649 0.16111
 C58 C 1.05836 0.57497 0.15970
 N59 N 1.02773 0.47407 0.08416
 N60 N 1.04701 0.46952 0.09571
 N61 N 0.97324 0.46233 0.13949
 N62 N 0.95392 0.44964 0.18962
 N63 N 0.97327 0.44672 0.08441
 N64 N 0.95397 0.42296 0.09547
 N65 N 1.02767 0.48968 0.13922
 N66 N 1.04691 0.49618 0.18977
 Mn67 Mn 1.00029 0.50006 0.14003
 C68 C 1.05876 0.48351 0.16157
 C69 C 0.94216 0.42520 0.16115
 N70 N 1.02710 0.55309 -0.08796
 N71 N 1.04633 0.57688 -0.09930
 N72 N 0.97268 0.51010 -0.14261
 N73 N 0.95322 0.50330 -0.19243
 N74 N 0.97264 0.52570 -0.08751
 N75 N 0.95315 0.52996 -0.09824
 N76 N 1.02713 0.53748 -0.14305
 N77 N 1.04637 0.55020 -0.19342
 Mn78 Mn 0.99992 0.53974 -0.00207
 C79 C 1.05813 0.57468 -0.16513
 C80 C 0.94129 0.51584 -0.16373
 N81 N 0.97308 0.44649 -0.08692
 N82 N 0.95386 0.42267 -0.09784
 N83 N 1.02735 0.48932 -0.14249
 N84 N 1.04683 0.49615 -0.19214
 N85 N 1.02750 0.47387 -0.08717
 N86 N 1.04710 0.46976 -0.09759
 N87 N 0.97295 0.46196 -0.14221
 N88 N 0.95363 0.44909 -0.19231
 Mn89 Mn 1.00040 0.46003 -0.00139
 Mn90 Mn 1.00002 0.49971 -0.14352
 Cl91 Cl 1.00016 0.49988 -0.00174
 C92 C 0.94195 0.42470 -0.16360
 C93 C 1.05888 0.48380 -0.16314
 N94 N 0.52576 0.55325 0.08658
 N95 N 0.53020 0.57703 0.09794
 N96 N 0.53735 0.51038 0.14165
 N97 N 0.54999 0.50369 0.19187
 N98 N 0.55302 0.52598 0.08682
 N99 N 0.57678 0.53035 0.09815
 N100 N 0.51009 0.53763 0.14138
 N101 N 0.50343 0.55033 0.19159
 C102 C 0.51609 0.57480 0.16349
 C103 C 0.57447 0.51628 0.16372
 N104 N 0.47369 0.44666 0.08492
 N105 N 0.46914 0.42285 0.09603
 N106 N 0.46191 0.48938 0.14010
 N107 N 0.44905 0.49585 0.19021
 N108 N 0.44645 0.47388 0.08456
 N109 N 0.42262 0.46936 0.09527
 N110 N 0.48915 0.46217 0.14046
 N111 N 0.49555 0.44936 0.19092
 Mn112 Mn 0.49962 0.49989 0.14181
 C113 C 0.48296 0.42495 0.16216
 C114 C 0.42468 0.48326 0.16117
 N115 N 0.55334 0.52612 -0.08451
 N116 N 0.57716 0.53058 -0.09519
 N117 N 0.51063 0.53786 -0.14030
 N118 N 0.50413 0.55065 -0.19044
 N119 N 0.52609 0.55334 -0.08474
 N120 N 0.53054 0.57713 -0.09546
 N121 N 0.53788 0.51063 -0.14008
 N122 N 0.55073 0.50412 -0.19011
 Mn123 Mn 0.53982 0.53994 0.00103
 C124 C 0.57512 0.51667 -0.16108
 C125 C 0.51667 0.57502 -0.16140
 N126 N 0.44668 0.47407 -0.08676
 N127 N 0.42291 0.46970 -0.09811
 N128 N 0.48963 0.46245 -0.14127
 N129 N 0.49646 0.44979 -0.19106
 N130 N 0.47398 0.44684 -0.08642
 N131 N 0.46971 0.42311 -0.09730
 N132 N 0.46235 0.48969 -0.14159
 N133 N 0.44968 0.49638 -0.19180
 Mn134 Mn 0.45994 0.46010 -0.00093
 Mn135 Mn 0.50012 0.50016 -0.14174
 Cl136 Cl 0.49987 0.50002 0.00004
 C137 C 0.42518 0.48377 -0.16370
 C138 C 0.48389 0.42537 -0.16264
 N139 N 0.44660 -0.02705 0.08473
 N140 N 0.42279 -0.04631 0.09568
 N141 N 0.48949 0.02726 0.14045
 N142 N 0.49601 0.04647 0.19104
 N143 N 0.47395 0.02737 0.08532
 N144 N 0.46945 0.04667 0.09681
 N145 N 0.46215 -0.02715 0.13988
 N146 N 0.44936 -0.04647 0.18989
 C147 C 0.42491 -0.05820 0.16132
 C148 C 0.48340 0.05835 0.16275
 N149 N 0.55327 0.02703 0.08498
 N150 N 0.57708 0.04625 0.09629
 N151 N 0.51038 -0.02729 0.13954
 N152 N 0.50357 -0.04676 0.18912
 N153 N 0.52592 -0.02735 0.08431
 N154 N 0.53014 -0.04686 0.09471
 N155 N 0.53770 0.02707 0.14020
 N156 N 0.55048 0.04630 0.19064
 Mn157 Mn 0.49994 -0.00003 0.14093
 C158 C 0.57493 0.05804 0.16221
 C159 C 0.51604 -0.05870 0.16014
 N160 N 0.47404 0.02755 -0.08600
 N161 N 0.46975 0.04702 -0.09657
 N162 N 0.46228 -0.02686 -0.14184
 N163 N 0.44953 -0.04614 -0.19210
 N164 N 0.44672 -0.02683 -0.08659
 N165 N 0.42293 -0.04609 -0.09767
 N166 N 0.48960 0.02750 -0.14125
 N167 N 0.49632 0.04694 -0.19096
 Mn168 Mn 0.46007 0.00026 -0.00065
 C169 C 0.48381 0.05886 -0.16210
 C170 C 0.42511 -0.05789 -0.16349
 N171 N 0.52596 -0.02731 -0.08702
 N172 N 0.53045 -0.04663 -0.09853
 N173 N 0.53776 0.02722 -0.14150
 N174 N 0.55053 0.04660 -0.19129
 N175 N 0.55330 0.02712 -0.08635
 N176 N 0.57709 0.04642 -0.09703
 N177 N 0.51043 -0.02719 -0.14217
 N178 N 0.50390 -0.04642 -0.19276
 Mn179 Mn 0.53988 -0.00013 -0.00101
 Mn180 Mn 0.50001 0.00017 -0.14261
 Cl181 Cl 0.49997 0.00007 -0.00084
 C182 C 0.51650 -0.05833 -0.16451
 C183 C 0.57494 0.05833 -0.16254
 C184 C 1.20364 0.48831 0.41877
 C185 C 1.18568 0.48779 0.38402
 C186 C 1.16386 0.48704 0.34461
 C187 C 1.16565 0.49452 0.26484
 C188 C 1.14440 0.49384 0.22705
 C189 C 1.12127 0.48569 0.26888
 C190 C 1.11951 0.47822 0.34865
 C191 C 1.14074 0.47888 0.38638
 C192 C 1.09936 0.48499 0.23023
 C193 C 1.08089 0.48434 0.19853
 H194 H 1.18344 0.50088 0.23197
 H195 H 1.14600 0.49967 0.16537
 H196 H 1.10175 0.47190 0.38162
 H197 H 1.13912 0.47303 0.44805
 C198 C 0.51095 0.71524 0.41685
 C199 C 0.51115 0.69759 0.38241
 C200 C 0.51150 0.67628 0.34324
 C201 C 0.50236 0.65270 0.38309
 C202 C 0.50313 0.63210 0.34597
 C203 C 0.51303 0.63495 0.26874
 C204 C 0.52208 0.65851 0.22874
 C205 C 0.52133 0.67913 0.26593
 C206 C 0.51407 0.61380 0.23097
 C207 C 0.51498 0.59603 0.19988
 H208 H 0.49474 0.65028 0.44290
 H209 H 0.49610 0.61400 0.37753
 H210 H 0.52979 0.66095 0.16906
 H211 H 0.52849 0.69728 0.23460
 C212 C 0.28442 -0.20344 0.41327
 C213 C 0.30201 -0.18562 0.37881
 C214 C 0.32330 -0.16400 0.33980
 C215 C 0.34703 -0.14987 0.37931
 C216 C 0.36763 -0.12855 0.34239
 C217 C 0.36464 -0.12125 0.26570
 C218 C 0.34093 -0.13544 0.22604
 C219 C 0.32031 -0.15676 0.26302
 C220 C 0.38581 -0.09910 0.22816
 C221 C 0.40362 -0.08047 0.19734
 H222 H 0.34957 -0.15527 0.43871
 H223 H 0.38585 -0.11772 0.37369
 H224 H 0.33838 -0.12997 0.16677
 H225 H 0.30204 -0.16752 0.23196
 C226 C 0.79685 0.51135 0.41772
 C227 C 0.81477 0.51186 0.38295
 C228 C 0.83658 0.51265 0.34358
 C229 C 0.85994 0.52161 0.38473
 C230 C 0.88119 0.52233 0.34703
 C231 C 0.87919 0.51412 0.26795
 C232 C 0.85582 0.50517 0.22673
 C233 C 0.83455 0.50443 0.26449
 C234 C 0.90111 0.51489 0.22940
 C235 C 0.91961 0.51559 0.19784
 H236 H 0.86173 0.52803 0.44588
 H237 H 0.89915 0.52928 0.37949
 H238 H 0.85406 0.49877 0.16557
 H239 H 0.81656 0.49745 0.23214
 C240 C 0.48801 0.28522 0.41830
 C241 C 0.48740 0.30256 0.38352
 C242 C 0.48654 0.32351 0.34414
 C243 C 0.47762 0.33797 0.38533
 C244 C 0.47691 0.35848 0.34769
 C245 C 0.48509 0.36463 0.26864
 C246 C 0.49400 0.35016 0.22737
 C247 C 0.49473 0.32964 0.26507
 C248 C 0.48439 0.38582 0.23020
 C249 C 0.48376 0.40363 0.19874
 H250 H 0.47123 0.33339 0.44647
 H251 H 0.47000 0.36954 0.38019
 H252 H 0.50039 0.35476 0.16624
 H253 H 0.50168 0.31860 0.23271
 C254 C 0.71536 0.20293 0.41566
 C255 C 0.69784 0.18499 0.38140
 C256 C 0.67669 0.16319 0.34262
 C257 C 0.66216 0.14004 0.38448
 C258 C 0.64152 0.11880 0.34733
 C259 C 0.63532 0.12058 0.26810
 C260 C 0.64986 0.14372 0.22618
 C261 C 0.67051 0.16500 0.26339
 C262 C 0.61407 0.09865 0.23004
 C263 C 0.59623 0.08017 0.19877
 H264 H 0.66679 0.13842 0.44574
 H265 H 0.63041 0.10101 0.38032
 H266 H 0.64523 0.14531 0.16489
 H267 H 0.68161 0.18281 0.23049
 C268 C 0.48915 0.20465 -0.41185
 C269 C 0.48905 0.18689 -0.37735
 C270 C 0.48880 0.16530 -0.33848
 C271 C 0.47855 0.15801 -0.26178
 C272 C 0.47778 0.13660 -0.22512
 C273 C 0.48723 0.12238 -0.26507
 C274 C 0.49758 0.12975 -0.34165
 C275 C 0.49837 0.15116 -0.37825
 C276 C 0.48608 0.10009 -0.22805
 C277 C 0.48506 0.08132 -0.19765
 H278 H 0.47104 0.16877 -0.23059
 H279 H 0.46971 0.13106 -0.16593
 H280 H 0.50491 0.11889 -0.37314
 H281 H 0.50630 0.15660 -0.43762
 C282 C 0.71558 0.51138 -0.41257
 C283 C 0.69809 0.51190 -0.37820
 C284 C 0.67697 0.51271 -0.33960
 C285 C 0.67073 0.50475 -0.26041
 C286 C 0.65007 0.50550 -0.22348
 C287 C 0.63560 0.51420 -0.26565
 C288 C 0.64187 0.52215 -0.34484
 C289 C 0.66251 0.52142 -0.38170
 C290 C 0.61433 0.51499 -0.22795
 C291 C 0.59646 0.51573 -0.19707
 H292 H 0.68178 0.49797 -0.22734
 H293 H 0.64539 0.49931 -0.16223
 H294 H 0.63081 0.52890 -0.37803
 H295 H 0.66719 0.52764 -0.44294
 C296 C 0.79679 0.28421 -0.41589
 C297 C 0.81475 0.30170 -0.38154
 C298 C 0.83660 0.32282 -0.34284
 C299 C 0.85971 0.33737 -0.38497
 C300 C 0.88099 0.35802 -0.34798
 C301 C 0.87929 0.36420 -0.26864
 C302 C 0.85618 0.34964 -0.22644
 C303 C 0.83487 0.32899 -0.26349
 C304 C 0.90125 0.38548 -0.23080
 C305 C 0.91977 0.40335 -0.19978
 H306 H 0.86126 0.33276 -0.44633
 H307 H 0.89875 0.36914 -0.38119
 H308 H 0.85465 0.35426 -0.16507
 H309 H 0.81709 0.31787 -0.23040
 C310 C 0.51153 -0.20386 -0.41785
 C311 C 0.51202 -0.18582 -0.38366
 C312 C 0.51274 -0.16391 -0.34497
 C313 C 0.52061 -0.14103 -0.38765
 C314 C 0.52127 -0.11970 -0.35061
 C315 C 0.51408 -0.12113 -0.27062
 C316 C 0.50621 -0.14402 -0.22790
 C317 C 0.50553 -0.16537 -0.26500
 C318 C 0.51484 -0.09909 -0.23260
 C319 C 0.51556 -0.08054 -0.20126
 H320 H 0.52624 -0.13967 -0.44949
 H321 H 0.52738 -0.10213 -0.38427
 H322 H 0.50061 -0.14535 -0.16604
 H323 H 0.49940 -0.18296 -0.23142
 C324 C 0.28453 0.48904 -0.41512
 C325 C 0.30221 0.48886 -0.38082
 C326 C 0.32358 0.48853 -0.34197
 C327 C 0.34712 0.49759 -0.38221
 C328 C 0.36776 0.49681 -0.34545
 C329 C 0.36500 0.48699 -0.26820
 C330 C 0.34150 0.47803 -0.22781
 C331 C 0.32083 0.47878 -0.26463
 C332 C 0.38620 0.48591 -0.23081
 C333 C 0.40397 0.48496 -0.19996
 H334 H 0.34946 0.50515 -0.44205
 H335 H 0.38582 0.50377 -0.37732
 H336 H 0.33913 0.47037 -0.16811
 H337 H 0.30271 0.47168 -0.23300
 C338 C 1.20311 0.71516 -0.41820
 C339 C 1.18530 0.69754 -0.38384
 C340 C 1.16371 0.67624 -0.34474
 C341 C 1.14973 0.65243 -0.38390
 C342 C 1.12845 0.63182 -0.34683
 C343 C 1.12103 0.63490 -0.27034
 C344 C 1.13506 0.65868 -0.23105
 C345 C 1.15634 0.67931 -0.26817
 C346 C 1.09893 0.61372 -0.23262
 C347 C 1.08035 0.59593 -0.20155
 H348 H 1.15523 0.64983 -0.44313
 H349 H 1.11775 0.61354 -0.37785
 H350 H 1.12950 0.66130 -0.17194
 H351 H 1.16697 0.69764 -0.23738
 C352 C 0.79551 0.51086 -0.41253
 C353 C 0.81327 0.51094 -0.37812
 C354 C 0.83486 0.51111 -0.33946
 C355 C 0.84887 0.50143 -0.37945
 C356 C 0.87027 0.50213 -0.34304
 C357 C 0.87775 0.51248 -0.26646
 C358 C 0.86367 0.52204 -0.22629
 C359 C 0.84226 0.52136 -0.26275
 C360 C 0.90005 0.51356 -0.22966
 C361 C 0.91883 0.51456 -0.19934
 H362 H 0.84332 0.49349 -0.43883
 H363 H 0.88105 0.49472 -0.37468
 H364 H 0.86932 0.53012 -0.16709
 H365 H 0.83159 0.52895 -0.23142
 C366 C 0.48919 0.28480 -0.41196
 C367 C 0.48913 0.30249 -0.37751
 C368 C 0.48894 0.32388 -0.33876
 C369 C 0.49828 0.34742 -0.37896
 C370 C 0.49753 0.36809 -0.34247
 C371 C 0.48743 0.36531 -0.26558
 C372 C 0.47821 0.34181 -0.22518
 C373 C 0.47895 0.32112 -0.26173
 C374 C 0.48627 0.38647 -0.22868
 C375 C 0.48522 0.40422 -0.19830
 H376 H 0.50602 0.34974 -0.43859
 H377 H 0.50468 0.38616 -0.37427
 H378 H 0.47034 0.33945 -0.16574
 H379 H 0.47162 0.30297 -0.23024
 C380 C 0.71547 0.20330 -0.41284
 C381 C 0.69785 0.18559 -0.37835
 C382 C 0.67653 0.16409 -0.33944
 C383 C 0.65271 0.15033 -0.37863
 C384 C 0.63206 0.12904 -0.34191
 C385 C 0.63515 0.12143 -0.26581
 C386 C 0.65894 0.13526 -0.22643
 C387 C 0.67961 0.15656 -0.26321
 C388 C 0.61398 0.09929 -0.22867
 C389 C 0.59619 0.08063 -0.19818
 H390 H 0.65014 0.15598 -0.43763
 H391 H 0.61376 0.11846 -0.37292
 H392 H 0.66153 0.12952 -0.16760
 H393 H 0.69797 0.16704 -0.23249
 C394 C 1.20458 0.48946 -0.41319
 C395 C 1.18698 0.48947 -0.37817
 C396 C 1.16553 0.48934 -0.33894
 C397 C 1.15792 0.47854 -0.26303
 C398 C 1.13650 0.47774 -0.22628
 C399 C 1.12265 0.48772 -0.26541
 C400 C 1.13036 0.49866 -0.34113
 C401 C 1.15177 0.49947 -0.37782
 C402 C 1.10029 0.48642 -0.22858
 C403 C 1.08143 0.48525 -0.19839
 H404 H 1.16841 0.47058 -0.23263
 H405 H 1.13066 0.46921 -0.16774
 H406 H 1.11974 0.50639 -0.37192
 H407 H 1.15748 0.50782 -0.43663
 C408 C 0.51180 0.71510 -0.41340
 C409 C 0.51238 0.69776 -0.37871
 C410 C 0.51321 0.67676 -0.33992
 C411 C 0.52260 0.66273 -0.38119
 C412 C 0.52322 0.64210 -0.34428
 C413 C 0.51447 0.63542 -0.26592
 C414 C 0.50510 0.64946 -0.22455
 C415 C 0.50446 0.67011 -0.26154
 C416 C 0.51512 0.61416 -0.22827
 C417 C 0.51577 0.59630 -0.19741
 H418 H 0.52940 0.66774 -0.44184
 H419 H 0.53049 0.63135 -0.37677
 H420 H 0.49829 0.64443 -0.16392
 H421 H 0.49713 0.68083 -0.22921
 C422 C 0.28514 -0.20252 -0.41694
 C423 C 0.30254 -0.18465 -0.38225
 C424 C 0.32357 -0.16290 -0.34331
 C425 C 0.33763 -0.13955 -0.38448
 C426 C 0.35824 -0.11833 -0.34732
 C427 C 0.36484 -0.12038 -0.26881
 C428 C 0.35077 -0.14372 -0.22756
 C429 C 0.33015 -0.16498 -0.26480
 C430 C 0.38605 -0.09850 -0.23087
 C431 C 0.40387 -0.08002 -0.19976
 H432 H 0.33266 -0.13776 -0.44522
 H433 H 0.36901 -0.10036 -0.37971
 H434 H 0.35574 -0.14549 -0.16682
 H435 H 0.31939 -0.18297 -0.23254
 C436 C 0.51055 -0.20381 0.41236
 C437 C 0.51059 -0.18623 0.37725
 C438 C 0.51076 -0.16484 0.33767
 C439 C 0.50035 -0.15120 0.37581
 C440 C 0.50115 -0.12989 0.33867
 C441 C 0.51235 -0.12216 0.26325
 C442 C 0.52262 -0.13589 0.22487
 C443 C 0.52184 -0.15721 0.26207
 C444 C 0.51360 -0.09992 0.22597
 C445 C 0.51471 -0.08115 0.19551
 H446 H 0.49178 -0.15694 0.43435
 H447 H 0.49319 -0.11937 0.36887
 H448 H 0.53136 -0.13003 0.16658
 H449 H 0.53001 -0.16761 0.23225
 C450 C 0.28467 0.48802 0.41517
 C451 C 0.30199 0.48742 0.38032
 C452 C 0.32295 0.48657 0.34115
 C453 C 0.33704 0.47721 0.38209
 C454 C 0.35764 0.47658 0.34478
 C455 C 0.36421 0.48529 0.26637
 C456 C 0.35010 0.49462 0.22532
 C457 C 0.32949 0.49528 0.26271
 C458 C 0.38547 0.48467 0.22836
 C459 C 0.40334 0.48407 0.19729
 H460 H 0.33211 0.47043 0.44278
 H461 H 0.36845 0.46934 0.37701
 H462 H 0.35506 0.50141 0.16466
 H463 H 0.31871 0.50258 0.23064
 C464 C 1.20327 0.71547 0.41031
 C465 C 1.18538 0.69799 0.37599
 C466 C 1.16359 0.67686 0.33751
 C467 C 1.16547 0.67037 0.25869
 C468 C 1.14418 0.64967 0.22188
 C469 C 1.12099 0.63542 0.26386
 C470 C 1.11913 0.64193 0.34268
 C471 C 1.14039 0.66262 0.37942
 C472 C 1.09906 0.61414 0.22633
 C473 C 1.08054 0.59627 0.19557
 H474 H 1.18335 0.68127 0.22586
 H475 H 1.14579 0.64477 0.16089
 H476 H 1.10128 0.63103 0.37563
 H477 H 1.13875 0.66752 0.44040
 C478 C 0.48813 0.20305 0.41841
 C479 C 0.48760 0.18512 0.38373
 C480 C 0.48685 0.16334 0.34454
 C481 C 0.47803 0.14007 0.38591
 C482 C 0.47742 0.11886 0.34843
 C483 C 0.48560 0.12080 0.26938
 C484 C 0.49440 0.14407 0.22794
 C485 C 0.49504 0.16531 0.26548
 C486 C 0.48493 0.09892 0.23104
 C487 C 0.48427 0.08046 0.19955
 H488 H 0.47165 0.13835 0.44705
 H489 H 0.47058 0.10096 0.38102
 H490 H 0.50078 0.14577 0.16680
 H491 H 0.50192 0.18323 0.23302
 C492 C 0.71447 0.51115 0.41766
 C493 C 0.69692 0.51135 0.38285
 C494 C 0.67567 0.51163 0.34343
 C495 C 0.67892 0.52233 0.26731
 C496 C 0.65833 0.52305 0.22998
 C497 C 0.63444 0.51309 0.26871
 C498 C 0.63118 0.50232 0.34471
 C499 C 0.65175 0.50158 0.38198
 C500 C 0.61335 0.51416 0.23100
 C501 C 0.59563 0.51511 0.19999
 H502 H 0.69736 0.53020 0.23708
 H503 H 0.66105 0.53145 0.17124
 H504 H 0.61280 0.49459 0.37522
 H505 H 0.64905 0.49329 0.44089
 C506 C 0.79745 0.28520 0.41430
 C507 C 0.81513 0.30273 0.37945
 C508 C 0.83659 0.32397 0.34009
 C509 C 0.84410 0.32072 0.26398
 C510 C 0.86535 0.34131 0.22677
 C511 C 0.87916 0.36519 0.26560
 C512 C 0.87158 0.36845 0.34159
 C513 C 0.85033 0.34789 0.37874
 C514 C 0.90127 0.38628 0.22803
 C515 C 0.91989 0.40402 0.19719
 H516 H 0.83363 0.30228 0.23368
 H517 H 0.87108 0.33858 0.16804
 H518 H 0.88214 0.38683 0.37218
 H519 H 0.84469 0.35059 0.43764
   
