data_POSCAR
  _audit_creation_date              2014-09-24
  _audit_creation_method            'ToBaCCo'
  _symmetry_space_group_name_H-M    'P1'
  _symmetry_Int_Tables_number       1
  _symmetry_cell_setting            triclinic
  loop_
  _symmetry_equiv_pos_as_xyz
 x,y,z
_cell_length_a 27.9378
_cell_length_b 38.1908
_cell_length_c 26.0953
_cell_angle_alpha 89.972800
_cell_angle_beta 90.437400
_cell_angle_gamma 90.437800
loop_
  _atom_site_label
  _atom_site_type_symbol
  _atom_site_fract_x
  _atom_site_fract_y
  _atom_site_fract_z
B1 B -0.03691 -0.03592 0.01403
 B2 B 0.01539 -0.02908 0.04397
 B3 B 0.01390 -0.03565 -0.01934
 B4 B -0.03552 -0.01667 -0.04408
 B5 B -0.06461 0.00255 0.00598
 B6 B -0.03279 -0.00576 0.06105
 B7 B 0.02367 0.03311 -0.00227
 B8 B -0.02870 0.02641 -0.03221
 B9 B -0.02713 0.03290 0.03113
 B10 B 0.02216 0.01388 0.05584
 B11 B 0.05119 -0.00515 0.00574
 B12 B 0.01937 0.00299 -0.04936
 B13 B 0.52105 0.48678 0.56545
 B14 B 0.46942 0.47337 0.53912
 B15 B 0.47450 0.51392 0.56275
 B16 B 0.53012 0.52927 0.55089
 B17 B 0.55959 0.49712 0.51860
 B18 B 0.52145 0.46215 0.51186
 B19 B 0.48293 0.51733 0.46044
 B20 B 0.53455 0.53070 0.48679
 B21 B 0.52948 0.49014 0.46313
 B22 B 0.47385 0.47481 0.47497
 B23 B 0.44440 0.50695 0.50723
 B24 B 0.48252 0.54192 0.51405
 B25 B 0.52159 0.03620 0.51840
 B26 B 0.47019 0.02568 0.54706
 B27 B 0.47064 0.03536 0.48461
 B28 B 0.52117 0.01983 0.45835
 B29 B 0.55225 -0.00037 0.50655
 B30 B 0.52040 0.00366 0.56206
 B31 B 0.46658 -0.03435 0.49426
 B32 B 0.51795 -0.02382 0.46557
 B33 B 0.51754 -0.03351 0.52803
 B34 B 0.46700 -0.01797 0.55430
 B35 B 0.43586 0.00221 0.50606
 B36 B 0.46779 -0.00182 0.45057
 B37 B -0.01677 0.52109 0.05907
 B38 B 0.03662 0.52322 0.03062
 B39 B 0.01855 0.48602 0.05835
 B40 B -0.04082 0.48104 0.04903
 B41 B -0.05950 0.51630 0.01411
 B42 B -0.01099 0.54276 0.00318
 B43 B 0.00481 0.47998 -0.04321
 B44 B -0.04851 0.47777 -0.01465
 B45 B -0.03062 0.51507 -0.04237
 B46 B 0.02886 0.52000 -0.03318
 B47 B 0.04759 0.48473 0.00186
 B48 B -0.00087 0.45829 0.01275
 B49 B 0.02697 0.46269 0.48771
 B50 B -0.02803 0.47272 0.46677
 B51 B -0.01886 0.46342 0.52883
 B52 B 0.03513 0.47937 0.54702
 B53 B 0.05924 0.49934 0.49443
 B54 B 0.01954 0.49509 0.44434
 B55 B -0.02316 0.53315 0.51876
 B56 B 0.03162 0.52290 0.53975
 B57 B 0.02241 0.53230 0.47795
 B58 B -0.03161 0.51647 0.45971
 B59 B -0.05582 0.49630 0.51209
 B60 B -0.01630 0.50096 0.56230
 B61 B 0.49161 -0.02063 -0.05364
 B62 B 0.54852 -0.01998 -0.03349
 B63 B 0.52260 0.01690 -0.05384
 B64 B 0.46491 0.01671 -0.03557
 B65 B 0.45552 -0.02139 -0.00268
 B66 B 0.50780 -0.04433 -0.00177
 B67 B 0.52332 0.01718 0.04891
 B68 B 0.46630 0.01633 0.02876
 B69 B 0.49221 -0.02049 0.04918
 B70 B 0.54999 -0.02025 0.03087
 B71 B 0.55941 0.01781 -0.00228
 B72 B 0.50710 0.04074 -0.00294
 B73 B 0.47175 0.53130 -0.02305
 B74 B 0.52503 0.52652 -0.05087
 B75 B 0.52194 0.53479 0.01187
 B76 B 0.47381 0.51384 0.03622
 B77 B 0.44711 0.49166 -0.01356
 B78 B 0.47918 0.50018 -0.06795
 B79 B 0.53759 0.46626 -0.00048
 B80 B 0.48430 0.47101 0.02732
 B81 B 0.48747 0.46283 -0.03550
 B82 B 0.53560 0.48377 -0.05974
 B83 B 0.56224 0.50585 -0.00990
 B84 B 0.53014 0.49739 0.04444
 B85 B 0.02562 0.01643 0.43579
 B86 B -0.02753 0.02661 0.46057
 B87 B -0.01854 -0.01323 0.43624
 B88 B 0.03805 -0.02558 0.44974
 B89 B 0.06423 0.00778 0.48372
 B90 B 0.02302 0.04045 0.48986
 B91 B -0.01136 -0.01740 0.53876
 B92 B 0.04169 -0.02752 0.51393
 B93 B 0.03271 0.01242 0.53829
 B94 B -0.02391 0.02467 0.52484
 B95 B -0.05003 -0.00873 0.49089
 B96 B -0.00894 -0.04132 0.48456
 B97 B 0.76450 0.28082 0.27442
 B98 B 0.70768 0.27894 0.29377
 B99 B 0.72007 0.28147 0.23120
 B100 B 0.76969 0.25829 0.21919
 B101 B 0.78787 0.24050 0.27623
 B102 B 0.74923 0.25386 0.32280
 B103 B 0.69871 0.21469 0.25358
 B104 B 0.75560 0.21669 0.23402
 B105 B 0.74343 0.21397 0.29646
 B106 B 0.69364 0.23725 0.30876
 B107 B 0.67532 0.25507 0.25161
 B108 B 0.71407 0.24153 0.20502
 B109 B 0.75486 0.78339 0.78485
 B110 B 0.74045 0.78296 0.72248
 B111 B 0.79751 0.78787 0.74084
 B112 B 0.80783 0.76309 0.79320
 B113 B 0.75501 0.74229 0.80711
 B114 B 0.71290 0.75516 0.76289
 B115 B 0.78357 0.72127 0.71210
 B116 B 0.79816 0.72156 0.77425
 B117 B 0.74086 0.71683 0.75625
 B118 B 0.73083 0.74140 0.70374
 B119 B 0.78353 0.76250 0.68992
 B120 B 0.82566 0.74955 0.73387
 B121 B 0.25488 0.21835 0.73363
 B122 B 0.19693 0.22607 0.72282
 B123 B 0.21692 0.21942 0.78279
 B124 B 0.27172 0.23743 0.78924
 B125 B 0.28541 0.25620 0.73166
 B126 B 0.23875 0.24888 0.69024
 B127 B 0.20596 0.28836 0.76938
 B128 B 0.26408 0.28044 0.78009
 B129 B 0.24414 0.28743 0.72059
 B130 B 0.18923 0.26928 0.71367
 B131 B 0.17529 0.25037 0.77128
 B132 B 0.22226 0.25804 0.81278
 B133 B 0.24031 0.78056 0.22534
 B134 B 0.29854 0.77426 0.21468
 B135 B 0.27845 0.77744 0.27470
 B136 B 0.22404 0.75831 0.27825
 B137 B 0.21083 0.74247 0.21843
 B138 B 0.25734 0.75298 0.17878
 B139 B 0.29101 0.70950 0.25336
 B140 B 0.23289 0.71601 0.26408
 B141 B 0.25292 0.71286 0.20404
 B142 B 0.30741 0.73189 0.20048
 B143 B 0.32080 0.74767 0.26043
 B144 B 0.27413 0.73716 0.30012
 B145 B 0.27006 0.72133 0.77636
 B146 B 0.29175 0.72599 0.71714
 B147 B 0.23270 0.72307 0.72602
 B148 B 0.21863 0.74368 0.78096
 B149 B 0.27102 0.76040 0.80581
 B150 B 0.31670 0.74873 0.76585
 B151 B 0.25534 0.79069 0.71246
 B152 B 0.23373 0.78585 0.77155
 B153 B 0.29289 0.78886 0.76237
 B154 B 0.30685 0.76813 0.70750
 B155 B 0.25455 0.75183 0.68289
 B156 B 0.20880 0.76314 0.72281
 B157 B 0.21753 0.21326 0.24080
 B158 B 0.27349 0.21870 0.26254
 B159 B 0.26236 0.21790 0.19946
 B160 B 0.20967 0.23771 0.18763
 B161 B 0.18834 0.25131 0.24556
 B162 B 0.22839 0.23895 0.29220
 B163 B 0.27370 0.28467 0.22799
 B164 B 0.21763 0.27933 0.20672
 B165 B 0.22896 0.27998 0.26972
 B166 B 0.28154 0.26040 0.28131
 B167 B 0.30280 0.24657 0.22348
 B168 B 0.26281 0.25886 0.17683
 B169 B 0.77980 0.71399 0.24090
 B170 B 0.72083 0.72056 0.23570
 B171 B 0.74647 0.71676 0.29341
 B172 B 0.80097 0.73588 0.29258
 B173 B 0.80882 0.75221 0.23204
 B174 B 0.75860 0.74200 0.19652
 B175 B 0.73197 0.78478 0.27491
 B176 B 0.79087 0.77838 0.28019
 B177 B 0.76531 0.78204 0.22213
 B178 B 0.71079 0.76298 0.22324
 B179 B 0.70318 0.74662 0.28367
 B180 B 0.75312 0.75661 0.31920
 B181 B 0.72266 0.22005 0.73063
 B182 B 0.69954 0.22408 0.78914
 B183 B 0.75751 0.21464 0.78229
 B184 B 0.77896 0.23626 0.73088
 B185 B 0.73247 0.26010 0.70613
 B186 B 0.68275 0.25201 0.74249
 B187 B 0.75043 0.28279 0.80375
 B188 B 0.77358 0.27886 0.74516
 B189 B 0.71573 0.28836 0.75214
 B190 B 0.69415 0.26668 0.80345
 B191 B 0.74060 0.24289 0.82813
 B192 B 0.79031 0.25099 0.79181
 C193 C 0.01500 0.45782 0.90689
 C194 C 0.06149 0.45337 0.88885
 C195 C 0.07684 0.42361 0.85649
 C196 C 0.12318 0.42444 0.83611
 C197 C 0.14196 0.39513 0.81156
 C198 C 0.11483 0.36407 0.80728
 C199 C 0.06763 0.36376 0.82529
 C200 C 0.04883 0.39308 0.84999
 C201 C 0.13507 0.33150 0.78571
 C202 C 0.18391 0.32415 0.78785
 H203 H 0.08932 0.47088 0.90294
 H204 H 0.14547 0.44761 0.84033
 H205 H 0.17786 0.39686 0.79649
 H206 H 0.04589 0.34024 0.82215
 H207 H 0.01328 0.39096 0.86577
 H208 H 0.11051 0.31156 0.77161
 H209 H -0.01422 0.44247 0.89114
 H210 H 0.20849 0.34293 0.80471
 C211 C 0.46559 0.53476 0.40870
 C212 C 0.41873 0.54654 0.40265
 C213 C 0.40466 0.57535 0.36785
 C214 C 0.43799 0.59990 0.34894
 C215 C 0.42237 0.62969 0.32259
 C216 C 0.37338 0.63547 0.31436
 C217 C 0.34019 0.61054 0.33246
 C218 C 0.35576 0.58088 0.35884
 C219 C 0.35778 0.66887 0.29088
 C220 C 0.31293 0.67285 0.26798
 H221 H 0.39144 0.53650 0.42815
 H222 H 0.47590 0.59723 0.35643
 H223 H 0.44860 0.64872 0.30969
 H224 H 0.30204 0.61451 0.32863
 H225 H 0.32932 0.56276 0.37386
 H226 H 0.38192 0.69117 0.29290
 H227 H 0.49279 0.54221 0.38144
 H228 H 0.28997 0.65022 0.26271
 C229 C 0.97230 0.96378 0.58968
 C230 C 0.92515 0.95273 0.59702
 C231 C 0.91183 0.92326 0.63105
 C232 C 0.86395 0.91951 0.64601
 C233 C 0.84854 0.88944 0.67185
 C234 C 0.88082 0.86228 0.68283
 C235 C 0.92889 0.86631 0.66873
 C236 C 0.94440 0.89654 0.64335
 C237 C 0.86436 0.82820 0.70345
 C238 C 0.82303 0.82444 0.73256
 H239 H 0.89703 0.96402 0.57361
 H240 H 0.83801 0.93940 0.63614
 H241 H 0.81090 0.88681 0.68063
 H242 H 0.95422 0.84552 0.67604
 H243 H 0.98125 0.89790 0.63103
 H244 H 0.88430 0.80507 0.69307
 H245 H 1.00018 0.95502 0.61556
 H246 H 0.80487 0.84745 0.74642
 C247 C 0.54023 0.03724 0.09910
 C248 C 0.52535 0.07151 0.10865
 C249 C 0.54945 0.09647 0.14385
 C250 C 0.52586 0.12774 0.15554
 C251 C 0.54973 0.15476 0.18139
 C252 C 0.59778 0.15118 0.19619
 C253 C 0.62107 0.11933 0.18616
 C254 C 0.59708 0.09220 0.16033
 C255 C 0.62333 0.18228 0.21702
 C256 C 0.66740 0.18082 0.24232
 H257 H 0.49647 0.08208 0.08568
 H258 H 0.48931 0.13186 0.14288
 H259 H 0.53099 0.17901 0.18835
 H260 H 0.65847 0.11579 0.19557
 H261 H 0.61687 0.06889 0.15086
 H262 H 0.60735 0.20765 0.21027
 H263 H 0.56766 0.02530 0.12257
 H264 H 0.68260 0.15577 0.25203
 C265 C 0.94067 0.05528 0.43389
 C266 C 0.89111 0.05728 0.43855
 C267 C 0.86474 0.08861 0.42113
 C268 C 0.81778 0.08531 0.40221
 C269 C 0.79307 0.11479 0.38443
 C270 C 0.81492 0.14813 0.38604
 C271 C 0.86102 0.15147 0.40712
 C272 C 0.88574 0.12211 0.42436
 C273 C 0.79174 0.18001 0.36567
 C274 C 0.75671 0.17962 0.32726
 H275 H 0.87128 0.03556 0.45491
 H276 H 0.80055 0.05983 0.40036
 H277 H 0.75701 0.11135 0.36985
 H278 H 0.87840 0.17689 0.40949
 H279 H 0.92117 0.12579 0.44063
 H280 H 0.80702 0.20500 0.37715
 H281 H 0.95967 0.07596 0.41401
 H282 H 0.74275 0.15497 0.31323
 C283 C 0.43968 0.44323 0.56490
 C284 C 0.39105 0.44518 0.57559
 C285 C 0.36442 0.41424 0.59430
 C286 C 0.32642 0.41846 0.62842
 C287 C 0.30240 0.38919 0.64821
 C288 C 0.31567 0.35513 0.63335
 C289 C 0.35253 0.35122 0.59769
 C290 C 0.37657 0.38036 0.57827
 C291 C 0.29418 0.32291 0.65519
 C292 C 0.25790 0.32224 0.69154
 H293 H 0.37255 0.46985 0.57152
 H294 H 0.31619 0.44440 0.64083
 H295 H 0.27428 0.39363 0.67554
 H296 H 0.36327 0.32541 0.58520
 H297 H 0.40459 0.37627 0.55054
 H298 H 0.30975 0.29819 0.64390
 H299 H 0.45885 0.41934 0.57326
 H300 H 0.24035 0.34594 0.70333
 C301 C 0.58753 0.96162 0.93295
 C302 C 0.61475 0.93370 0.95085
 C303 C 0.63809 0.90897 0.91562
 C304 C 0.67736 0.88937 0.93281
 C305 C 0.69730 0.86367 0.90144
 C306 C 0.67758 0.85689 0.85268
 C307 C 0.63845 0.87653 0.83559
 C308 C 0.61899 0.90238 0.86651
 C309 C 0.69408 0.82805 0.82000
 C310 C 0.74028 0.81449 0.82124
 H311 H 0.61663 0.92843 0.99161
 H312 H 0.69213 0.89361 0.97083
 H313 H 0.72675 0.84834 0.91621
 H314 H 0.62231 0.87143 0.79841
 H315 H 0.58779 0.91607 0.85247
 H316 H 0.66856 0.81775 0.79230
 H317 H 0.58827 0.96824 0.89270
 H318 H 0.76721 0.82534 0.84678
 C319 C 0.07826 0.54582 0.05518
 C320 C 0.10084 0.57284 0.02841
 C321 C 0.13261 0.59911 0.05309
 C322 C 0.13865 0.63169 0.02906
 C323 C 0.16478 0.65842 0.05301
 C324 C 0.18602 0.65300 0.10119
 C325 C 0.18161 0.61991 0.12451
 C326 C 0.15540 0.59316 0.10053
 C327 C 0.20856 0.68321 0.12760
 C328 C 0.23928 0.68020 0.16973
 H329 H 0.09097 0.57715 -0.01133
 H330 H 0.12173 0.63689 -0.00763
 H331 H 0.16752 0.68368 0.03431
 H332 H 0.19667 0.61480 0.16202
 H333 H 0.15275 0.56813 0.11969
 H334 H 0.19878 0.70912 0.11443
 H335 H 0.08541 0.54184 0.09549
 H336 H 0.25211 0.65484 0.18156
 C337 C 0.47723 0.95904 0.09951
 C338 C 0.42932 0.95032 0.10855
 C339 C 0.41284 0.92004 0.13960
 C340 C 0.36533 0.90867 0.13279
 C341 C 0.34868 0.87831 0.15661
 C342 C 0.37918 0.85848 0.18810
 C343 C 0.42594 0.87075 0.19744
 C344 C 0.44287 0.90115 0.17311
 C345 C 0.36204 0.82556 0.21203
 C346 C 0.32814 0.80424 0.18755
 H347 H 0.40221 0.96334 0.08574
 H348 H 0.34114 0.92287 0.10781
 H349 H 0.31179 0.87046 0.15032
 H350 H 0.44972 0.85630 0.22253
 H351 H 0.47937 0.90941 0.18039
 H352 H 0.37592 0.81825 0.24937
 H353 H 0.50562 0.94672 0.12110
 H354 H 0.31782 0.81009 0.14841
 C355 C 0.55538 0.47588 0.41365
 C356 C 0.59868 0.45789 0.41790
 C357 C 0.61387 0.42912 0.38351
 C358 C 0.65896 0.41414 0.39215
 C359 C 0.67257 0.38385 0.36622
 C360 C 0.64110 0.36756 0.33114
 C361 C 0.59695 0.38342 0.32050
 C362 C 0.58320 0.41374 0.34665
 C363 C 0.65387 0.33464 0.30455
 C364 C 0.68654 0.31074 0.32491
 H365 H 0.62012 0.46191 0.45221
 H366 H 0.68344 0.42545 0.42009
 H367 H 0.70775 0.37332 0.37385
 H368 H 0.57239 0.37169 0.29303
 H369 H 0.54796 0.42406 0.33904
 H370 H 0.63651 0.32888 0.26824
 H371 H 0.53434 0.47446 0.37879
 H372 H 0.70091 0.31473 0.36308
 C373 C 0.94502 0.53171 0.90857
 C374 C 0.89628 0.53977 0.90849
 C375 C 0.87513 0.57078 0.88291
 C376 C 0.90298 0.59663 0.85843
 C377 C 0.88208 0.62779 0.84139
 C378 C 0.83292 0.63378 0.84850
 C379 C 0.80516 0.60774 0.87213
 C380 C 0.82593 0.57658 0.88885
 C381 C 0.80936 0.66684 0.83311
 C382 C 0.82799 0.69010 0.79700
 H383 H 0.87333 0.52570 0.93488
 H384 H 0.94113 0.59376 0.85389
 H385 H 0.90505 0.64745 0.82444
 H386 H 0.76730 0.61167 0.87835
 H387 H 0.80362 0.55737 0.90802
 H388 H 0.77421 0.67190 0.84857
 H389 H 0.96872 0.54308 0.88049
 H390 H 0.86216 0.68515 0.77943
 C391 C 0.05642 0.02755 0.58904
 C392 C 0.09817 0.04793 0.58664
 C393 C 0.11076 0.07695 0.62228
 C394 C 0.14876 0.09923 0.60859
 C395 C 0.15941 0.12917 0.63719
 C396 C 0.13224 0.13770 0.68048
 C397 C 0.09559 0.11470 0.69574
 C398 C 0.08459 0.08471 0.66677
 C399 C 0.14355 0.16925 0.71153
 C400 C 0.16653 0.19853 0.69074
 H401 H 0.11964 0.04600 0.55237
 H402 H 0.16988 0.09386 0.57487
 H403 H 0.18930 0.14537 0.62542
 H404 H 0.07488 0.12026 0.72968
 H405 H 0.05538 0.06817 0.67921
 H406 H 0.13466 0.16885 0.75175
 H407 H 0.03438 0.02770 0.62285
 H408 H 0.16984 0.20052 0.64955
 C409 C 0.05367 0.42823 0.47147
 C410 C 0.08066 0.42748 0.42668
 C411 C 0.10511 0.39649 0.40619
 C412 C 0.13527 0.40143 0.36405
 C413 C 0.15805 0.37316 0.34149
 C414 C 0.15147 0.33920 0.36100
 C415 C 0.12096 0.33407 0.40284
 C416 C 0.09792 0.36246 0.42540
 C417 C 0.17318 0.30856 0.33626
 C418 C 0.21303 0.31117 0.30462
 H419 H 0.08450 0.45139 0.40471
 H420 H 0.14077 0.42730 0.34794
 H421 H 0.17953 0.37806 0.30790
 H422 H 0.11466 0.30799 0.41781
 H423 H 0.07407 0.35738 0.45698
 H424 H 0.15612 0.28327 0.34179
 H425 H 0.05089 0.40561 0.49610
 H426 H 0.23286 0.33547 0.30185
 C427 C 0.43977 0.56428 0.96528
 C428 C 0.40052 0.56241 0.93188
 C429 C 0.37435 0.59348 0.91330
 C430 C 0.35008 0.59140 0.86611
 C431 C 0.32718 0.62069 0.84561
 C432 C 0.32751 0.65262 0.87247
 C433 C 0.35062 0.65437 0.92038
 C434 C 0.37364 0.62510 0.94078
 C435 C 0.30812 0.68524 0.85014
 C436 C 0.27777 0.68634 0.80741
 H437 H 0.39113 0.53734 0.91496
 H438 H 0.35013 0.56731 0.84420
 H439 H 0.31096 0.61834 0.80803
 H440 H 0.35144 0.67866 0.94181
 H441 H 0.39081 0.62744 0.97792
 H442 H 0.32077 0.70973 0.86648
 H443 H 0.45169 0.58917 0.98062
 H444 H 0.26226 0.66261 0.79178
 C445 C 0.54752 0.07184 0.53219
 C446 C 0.59583 0.07336 0.54612
 C447 C 0.61875 0.10447 0.56982
 C448 C 0.59955 0.13829 0.56528
 C449 C 0.62078 0.16643 0.59128
 C450 C 0.66142 0.16142 0.62226
 C451 C 0.68194 0.12796 0.62477
 C452 C 0.66075 0.09983 0.59877
 C453 C 0.68088 0.19151 0.65157
 C454 C 0.70882 0.18784 0.69577
 H455 H 0.61675 0.04963 0.54432
 H456 H 0.56826 0.14327 0.54186
 H457 H 0.60482 0.19211 0.58796
 H458 H 0.71430 0.12326 0.64659
 H459 H 0.67672 0.07416 0.60217
 H460 H 0.66943 0.21748 0.64037
 H461 H 0.52506 0.09454 0.53633
 H462 H 0.71839 0.16219 0.70977
 C463 C 0.93414 0.92919 0.02393
 C464 C 0.88611 0.92949 0.03833
 C465 C 0.86133 0.89872 0.06031
 C466 C 0.82214 0.90424 0.09255
 C467 C 0.80036 0.87619 0.11787
 C468 C 0.81743 0.84198 0.11119
 C469 C 0.85478 0.83625 0.07660
 C470 C 0.87660 0.86430 0.05136
 C471 C 0.79849 0.81178 0.14028
 C472 C 0.77457 0.81485 0.18684
 H473 H 0.86743 0.95423 0.03920
 H474 H 0.80917 0.93049 0.09931
 H475 H 0.77051 0.88157 0.14269
 H476 H 0.86800 0.81005 0.07007
 H477 H 0.90547 0.85884 0.02525
 H478 H 0.80825 0.78590 0.12714
 H479 H 0.95445 0.90525 0.02557
 H480 H 0.76615 0.84026 0.20234
 C481 C 0.95091 0.05565 0.93112
 C482 C 0.90902 0.05153 0.90226
 C483 C 0.88834 0.08030 0.87127
 C484 C 0.83903 0.08008 0.86066
 C485 C 0.81783 0.10795 0.83434
 C486 C 0.84575 0.13664 0.81799
 C487 C 0.89542 0.13587 0.82615
 C488 C 0.91657 0.10805 0.85242
 C489 C 0.82469 0.16809 0.79359
 C490 C 0.77686 0.17756 0.79907
 H491 H 0.88888 0.02727 0.90543
 H492 H 0.81664 0.05864 0.87379
 H493 H 0.77970 0.10678 0.82711
 H494 H 0.91790 0.15728 0.81310
 H495 H 0.95499 0.10848 0.85780
 H496 H 0.84883 0.18628 0.77482
 H497 H 0.96952 0.08054 0.93128
 H498 H 0.75246 0.16076 0.81973
 C499 C 0.06030 0.54887 0.57594
 C500 C 0.10623 0.56073 0.56386
 C501 C 0.13095 0.58998 0.59042
 C502 C 0.16789 0.60742 0.56454
 C503 C 0.19119 0.63606 0.58684
 C504 C 0.17848 0.64777 0.63580
 C505 C 0.14204 0.62997 0.66236
 C506 C 0.11855 0.60124 0.63990
 C507 C 0.20310 0.67926 0.65624
 C508 C 0.20326 0.68974 0.70756
 H509 H 0.12337 0.55024 0.53014
 H510 H 0.17819 0.59928 0.52643
 H511 H 0.21915 0.64926 0.56553
 H512 H 0.13082 0.63842 0.69989
 H513 H 0.09092 0.58804 0.66151
 H514 H 0.22363 0.69450 0.62904
 H515 H 0.04129 0.55969 0.60810
 H516 H 0.18462 0.67462 0.73628
 C517 C 0.53954 0.95029 0.42485
 C518 C 0.58702 0.93926 0.42637
 C519 C 0.60571 0.91084 0.39369
 C520 C 0.65538 0.90788 0.38763
 C521 C 0.67464 0.88013 0.35979
 C522 C 0.64445 0.85460 0.33749
 C523 C 0.59479 0.85757 0.34358
 C524 C 0.57553 0.88534 0.37132
 C525 C 0.66331 0.82320 0.31139
 C526 C 0.70989 0.82069 0.29291
 H527 H 0.61163 0.95167 0.45313
 H528 H 0.67944 0.92683 0.40519
 H529 H 0.71314 0.87828 0.35750
 H530 H 0.57079 0.83796 0.32756
 H531 H 0.53719 0.88589 0.37649
 H532 H 0.63957 0.80076 0.30766
 H533 H 0.51511 0.94010 0.39610
 H534 H 0.73323 0.84338 0.29291
 C535 C 0.46605 0.44174 0.06534
 C536 C 0.42353 0.44409 0.09274
 C537 C 0.40448 0.41468 0.12386
 C538 C 0.35510 0.41265 0.13291
 C539 C 0.33538 0.38390 0.15871
 C540 C 0.36492 0.35671 0.17654
 C541 C 0.41448 0.35940 0.16912
 C542 C 0.43418 0.38818 0.14353
 C543 C 0.34515 0.32396 0.19859
 C544 C 0.29943 0.32121 0.21938
 H545 H 0.40158 0.46715 0.08795
 H546 H 0.33145 0.43276 0.11837
 H547 H 0.29691 0.38251 0.16258
 H548 H 0.43802 0.33889 0.18261
 H549 H 0.47261 0.38934 0.13913
 H550 H 0.36691 0.30067 0.19611
 H551 H 0.48672 0.41797 0.06691
 H552 H 0.27832 0.34448 0.22500
 C553 C 0.54055 0.57099 0.03383
 C554 C 0.55229 0.57531 0.08555
 C555 C 0.58060 0.60524 0.10587
 C556 C 0.60480 0.60099 0.15273
 C557 C 0.63395 0.62767 0.17249
 C558 C 0.63897 0.65960 0.14607
 C559 C 0.61436 0.66403 0.09945
 C560 C 0.58524 0.63725 0.07957
 C561 C 0.67062 0.68817 0.16504
 C562 C 0.68556 0.69097 0.21601
 H563 H 0.54457 0.55403 0.11176
 H564 H 0.60209 0.57653 0.17362
 H565 H 0.65331 0.62263 0.20772
 H566 H 0.61761 0.68836 0.07834
 H567 H 0.56643 0.64191 0.04390
 H568 H 0.68175 0.70814 0.13803
 H569 H 0.54913 0.59117 0.00630
 H570 H 0.67223 0.67286 0.24442
 C571 C 0.03487 0.93001 0.95566
 C572 C 0.08167 0.92926 0.93709
 C573 C 0.10425 0.89876 0.91224
 C574 C 0.14747 0.90427 0.88630
 C575 C 0.17077 0.87661 0.86241
 C576 C 0.15123 0.84259 0.86377
 C577 C 0.10859 0.83681 0.89073
 C578 C 0.08513 0.86460 0.91466
 C579 C 0.17527 0.81272 0.83882
 C580 C 0.20603 0.81701 0.79735
 H581 H 0.10303 0.95302 0.93945
 H582 H 0.16343 0.93019 0.88452
 H583 H 0.20451 0.88198 0.84383
 H584 H 0.09324 0.81072 0.89305
 H585 H 0.05262 0.85901 0.93539
 H586 H 0.16737 0.78655 0.85255
 H587 H 0.01150 0.90748 0.95206
 H588 H 0.21153 0.84273 0.78102
 C589 C 0.44812 0.07008 0.46280
 C590 C 0.40170 0.07085 0.44280
 C591 C 0.38089 0.10188 0.41755
 C592 C 0.34302 0.09688 0.38271
 C593 C 0.32310 0.12527 0.35679
 C594 C 0.34070 0.15938 0.36537
 C595 C 0.37729 0.16459 0.40173
 C596 C 0.39738 0.13612 0.42756
 C597 C 0.32066 0.18994 0.33814
 C598 C 0.29925 0.18717 0.28989
 H599 H 0.38068 0.04688 0.44239
 H600 H 0.32907 0.07083 0.37510
 H601 H 0.29355 0.12037 0.33069
 H602 H 0.39068 0.19073 0.40978
 H603 H 0.42532 0.14112 0.45558
 H604 H 0.32401 0.21542 0.35609
 H605 H 0.47101 0.09295 0.46064
 H606 H 0.29827 0.16220 0.27043
 C607 C 0.96053 0.42894 0.55438
 C608 C 0.92022 0.42956 0.58566
 C609 C 0.89828 0.39804 0.60902
 C610 C 0.86912 0.40229 0.65206
 C611 C 0.84585 0.37358 0.67411
 C612 C 0.85109 0.33987 0.65332
 C613 C 0.87974 0.33563 0.60984
 C614 C 0.90337 0.36438 0.58795
 C615 C 0.82460 0.30937 0.67415
 C616 C 0.80978 0.30757 0.72502
 H617 H 0.90435 0.45462 0.59462
 H618 H 0.86396 0.42803 0.66847
 H619 H 0.82265 0.37815 0.70639
 H620 H 0.88359 0.31003 0.59256
 H621 H 0.92433 0.36026 0.55382
 H622 H 0.81607 0.28788 0.64848
 H623 H 0.97913 0.40465 0.54799
 H624 H 0.82126 0.32752 0.75193
 C625 C 0.97266 0.54359 0.10848
 C626 C 0.92671 0.54480 0.12906
 C627 C 0.90774 0.57574 0.15623
 C628 C 0.85824 0.58140 0.15443
 C629 C 0.83867 0.61196 0.17441
 C630 C 0.86822 0.63751 0.19771
 C631 C 0.91767 0.63133 0.20096
 C632 C 0.93732 0.60074 0.18061
 C633 C 0.84922 0.67129 0.21678
 C634 C 0.80057 0.67751 0.22392
 H635 H 0.90094 0.52506 0.11691
 H636 H 0.83464 0.56269 0.13561
 H637 H 0.80061 0.61564 0.16969
 H638 H 0.94130 0.65045 0.21880
 H639 H 0.97555 0.59702 0.18379
 H640 H 0.87458 0.69211 0.22549
 H641 H 0.99896 0.56330 0.11872
 H642 H 0.77469 0.65666 0.21878
 C643 C 0.53857 0.46951 0.61723
 C644 C 0.58601 0.45911 0.62367
 C645 C 0.60158 0.42967 0.65664
 C646 C 0.65064 0.42232 0.65910
 C647 C 0.66710 0.39189 0.68271
 C648 C 0.63471 0.36806 0.70508
 C649 C 0.58571 0.37595 0.70417
 C650 C 0.56918 0.40639 0.68023
 C651 C 0.65026 0.33383 0.72602
 C652 C 0.69791 0.32607 0.73709
 H653 H 0.61277 0.47033 0.59857
 H654 H 0.67635 0.43950 0.64072
 H655 H 0.70499 0.38669 0.68102
 H656 H 0.55995 0.35797 0.72077
 H657 H 0.53099 0.41056 0.67860
 H658 H 0.62326 0.31373 0.73183
 H659 H 0.51130 0.46102 0.64370
 H660 H 0.72504 0.34630 0.73522
 C661 C 0.04244 0.03494 0.38480
 C662 C 0.08948 0.04652 0.37846
 C663 C 0.10284 0.07611 0.34476
 C664 C 0.15101 0.08050 0.33131
 C665 C 0.16641 0.11086 0.30630
 C666 C 0.13382 0.13768 0.29460
 C667 C 0.08546 0.13299 0.30705
 C668 C 0.06996 0.10245 0.33165
 C669 C 0.15011 0.17206 0.27488
 C670 C 0.19246 0.17643 0.24771
 H671 H 0.11736 0.03575 0.40273
 H672 H 0.17715 0.06090 0.34183
 H673 H 0.20423 0.11395 0.29879
 H674 H 0.05985 0.15349 0.29914
 H675 H 0.03282 0.10055 0.34281
 H676 H 0.12921 0.19489 0.28448
 H677 H 0.01499 0.04298 0.35792
 H678 H 0.21180 0.15371 0.23469
 C679 C 0.47405 0.96062 0.89571
 C680 C 0.48466 0.92566 0.88578
 C681 C 0.45654 0.90332 0.85028
 C682 C 0.47658 0.87190 0.83317
 C683 C 0.44883 0.84765 0.80575
 C684 C 0.40025 0.85404 0.79589
 C685 C 0.38064 0.88618 0.81099
 C686 C 0.40849 0.91057 0.83806
 C687 C 0.37085 0.82620 0.77167
 C688 C 0.32206 0.82198 0.78132
 H689 H 0.51250 0.91304 0.90805
 H690 H 0.51345 0.86566 0.84229
 H691 H 0.46483 0.82319 0.79411
 H692 H 0.34364 0.89236 0.80272
 H693 H 0.39151 0.93421 0.85133
 H694 H 0.38917 0.80628 0.74988
 H695 H 0.44859 0.97442 0.87185
 H696 H 0.30376 0.84026 0.80582
 C697 C 0.07356 0.94340 0.53938
 C698 C 0.12004 0.94851 0.55774
 C699 C 0.14850 0.91852 0.57638
 C700 C 0.17948 0.92246 0.61855
 C701 C 0.20333 0.89339 0.63902
 C702 C 0.19708 0.85997 0.61688
 C703 C 0.16803 0.85667 0.57304
 C704 C 0.14412 0.88553 0.55293
 C705 C 0.21656 0.82746 0.63977
 C706 C 0.24710 0.82610 0.68229
 H707 H 0.13495 0.97471 0.56030
 H708 H 0.18374 0.94775 0.63686
 H709 H 0.22516 0.89724 0.67292
 H710 H 0.16284 0.83140 0.55487
 H711 H 0.12179 0.88189 0.51923
 H712 H 0.20341 0.80290 0.62406
 H713 H 0.05768 0.91748 0.54127
 H714 H 0.26267 0.84968 0.69828
 C715 C 0.56422 0.56095 0.46130
 C716 C 0.61268 0.55898 0.44982
 C717 C 0.63868 0.59007 0.43076
 C718 C 0.67400 0.58635 0.39340
 C719 C 0.69588 0.61597 0.37196
 C720 C 0.68328 0.64980 0.38849
 C721 C 0.64959 0.65318 0.42768
 C722 C 0.62761 0.62370 0.44872
 C723 C 0.70111 0.68219 0.36374
 C724 C 0.73732 0.68324 0.32736
 H725 H 0.63113 0.53422 0.45280
 H726 H 0.68325 0.56061 0.37934
 H727 H 0.72117 0.61201 0.34146
 H728 H 0.63942 0.67883 0.44137
 H729 H 0.60159 0.62730 0.47877
 H730 H 0.68290 0.70635 0.37281
 H731 H 0.54519 0.58505 0.45386
 H732 H 0.75825 0.66029 0.31921
 C733 C 0.42684 0.03453 0.06181
 C734 C 0.40021 0.06251 0.04316
 C735 C 0.37714 0.08812 0.07715
 C736 C 0.34105 0.10965 0.05720
 C737 C 0.32225 0.13671 0.08674
 C738 C 0.33990 0.14291 0.13650
 C739 C 0.37569 0.12129 0.15655
 C740 C 0.39395 0.09399 0.12741
 C741 C 0.32412 0.17283 0.16736
 C742 C 0.27829 0.18676 0.16411
 H743 H 0.39928 0.06757 0.00230
 H744 H 0.32812 0.10597 0.01832
 H745 H 0.29542 0.15352 0.06982
 H746 H 0.39008 0.12586 0.19466
 H747 H 0.42267 0.07871 0.14376
 H748 H 0.34909 0.18311 0.19565
 H749 H 0.42552 0.02772 0.10200
 H750 H 0.25201 0.17564 0.13803
 C751 C 0.91016 0.45477 0.96105
 C752 C 0.89192 0.42527 0.98598
 C753 C 0.86324 0.39788 0.95972
 C754 C 0.86288 0.36397 0.98041
 C755 C 0.84006 0.33651 0.95448
 C756 C 0.81653 0.34245 0.90766
 C757 C 0.81538 0.37670 0.88774
 C758 C 0.83822 0.40418 0.91371
 C759 C 0.79687 0.31206 0.87919
 C760 C 0.76400 0.31491 0.83900
 H761 H 0.90391 0.41986 1.02477
 H762 H 0.88170 0.35844 1.01593
 H763 H 0.84157 0.31038 0.97059
 H764 H 0.79843 0.38237 0.85134
 H765 H 0.83656 0.43010 0.89718
 H766 H 0.80979 0.28632 0.88967
 H767 H 0.90090 0.46005 0.92155
 H768 H 0.74797 0.33982 0.82995
 C769 C 0.54030 0.03619 0.89618
 C770 C 0.52049 0.06773 0.87973
 C771 C 0.54838 0.09425 0.85099
 C772 C 0.59845 0.09661 0.85633
 C773 C 0.62369 0.12443 0.83450
 C774 C 0.59949 0.15064 0.80708
 C775 C 0.54984 0.14760 0.79980
 C776 C 0.52437 0.11989 0.82226
 C777 C 0.62575 0.18117 0.78631
 C778 C 0.66481 0.19569 0.81252
 H779 H 0.48516 0.07493 0.89276
 H780 H 0.61818 0.07790 0.87918
 H781 H 0.66218 0.12555 0.83953
 H782 H 0.53057 0.16734 0.77830
 H783 H 0.48579 0.11879 0.81795
 H784 H 0.61375 0.19264 0.75053
 H785 H 0.57393 0.02784 0.88027
 H786 H 0.67394 0.18600 0.85032
 C787 C 0.44851 0.52822 0.61212
 C788 C 0.40375 0.54418 0.60791
 C789 C 0.38763 0.57406 0.63969
 C790 C 0.34557 0.59127 0.62458
 C791 C 0.33169 0.62227 0.64832
 C792 C 0.35972 0.63698 0.68787
 C793 C 0.40031 0.61886 0.70509
 C794 C 0.41445 0.58783 0.68107
 C795 C 0.34623 0.67027 0.71284
 C796 C 0.31820 0.69542 0.68824
 H797 H 0.38217 0.53829 0.57429
 H798 H 0.32385 0.58118 0.59325
 H799 H 0.29891 0.63453 0.63558
 H800 H 0.42180 0.62922 0.73641
 H801 H 0.44677 0.57538 0.69452
 H802 H 0.35838 0.67489 0.75175
 H803 H 0.47059 0.53199 0.64583
 H804 H 0.31056 0.69280 0.64772
 C805 C 0.04168 0.46975 0.10822
 C806 C 0.08948 0.45932 0.10902
 C807 C 0.10755 0.42861 0.13793
 C808 C 0.15334 0.41624 0.12610
 C809 C 0.16988 0.38477 0.14658
 C810 C 0.14077 0.36477 0.17936
 C811 C 0.09616 0.37806 0.19367
 C812 C 0.07950 0.40958 0.17307
 C813 C 0.15658 0.33078 0.20053
 C814 C 0.19238 0.31070 0.17823
 H815 H 0.11328 0.47058 0.08072
 H816 H 0.17603 0.43050 0.09970
 H817 H 0.20545 0.37634 0.13654
 H818 H 0.07363 0.36360 0.21998
 H819 H 0.04441 0.41825 0.18424
 H820 H 0.13939 0.32130 0.23492
 H821 H 0.01693 0.46055 0.13688
 H822 H 0.20681 0.31801 0.14139
 C823 C 0.95752 0.97187 0.38553
 C824 C 0.91038 0.95940 0.38535
 C825 C 0.89325 0.92936 0.35394
 C826 C 0.85195 0.91152 0.37011
 C827 C 0.83696 0.88071 0.34599
 C828 C 0.86291 0.86692 0.30481
 C829 C 0.90267 0.88569 0.28657
 C830 C 0.91800 0.91654 0.31106
 C831 C 0.84763 0.83390 0.27949
 C832 C 0.82291 0.80781 0.30609
 H833 H 0.88711 0.96786 0.41590
 H834 H 0.83177 0.92093 0.40255
 H835 H 0.80486 0.86785 0.35966
 H836 H 0.92249 0.87607 0.25403
 H837 H 0.94927 0.92990 0.29644
 H838 H 0.85523 0.83049 0.23922
 H839 H 0.98180 0.96451 0.35546
 H840 H 0.82034 0.80971 0.34736
 C841 C 0.95363 0.56887 0.53443
 C842 C 0.90444 0.57437 0.53226
 C843 C 0.88262 0.60612 0.55356
 C844 C 0.83714 0.60361 0.57558
 C845 C 0.81747 0.63237 0.60052
 C846 C 0.84297 0.66419 0.60337
 C847 C 0.88699 0.66736 0.57833
 C848 C 0.90684 0.63852 0.55375
 C849 C 0.82521 0.69414 0.63300
 C850 C 0.79781 0.68968 0.67693
 H851 H 0.88089 0.55339 0.51955
 H852 H 0.81750 0.57904 0.57496
 H853 H 0.78255 0.62953 0.61777
 H854 H 0.90675 0.69187 0.57919
 H855 H 0.94120 0.64160 0.53535
 H856 H 0.83785 0.72010 0.62279
 H857 H 0.97719 0.58885 0.55004
 H858 H 0.78850 0.66362 0.68978
 C859 C 0.56918 0.43321 0.01200
 C860 C 0.60720 0.43518 0.04699
 C861 C 0.62811 0.40425 0.07256
 C862 C 0.65028 0.40882 0.12056
 C863 C 0.66736 0.38010 0.14812
 C864 C 0.66322 0.34614 0.12771
 C865 C 0.64213 0.34167 0.07913
 C866 C 0.62493 0.37041 0.05162
 C867 C 0.67789 0.31470 0.15679
 C868 C 0.70900 0.31543 0.19892
 H869 H 0.61807 0.46070 0.06127
 H870 H 0.65300 0.43463 0.13761
 H871 H 0.68222 0.38467 0.18591
 H872 H 0.63860 0.31577 0.06253
 H873 H 0.60918 0.36590 0.01420
 H874 H 0.66333 0.28973 0.14424
 H875 H 0.55612 0.40816 -0.00158
 H876 H 0.72613 0.33956 0.21080
 C877 C 0.44100 0.92986 0.48064
 C878 C 0.39448 0.92845 0.46085
 C879 C 0.37314 0.89681 0.43687
 C880 C 0.39153 0.86304 0.44488
 C881 C 0.37222 0.83438 0.41842
 C882 C 0.33423 0.83876 0.38358
 C883 C 0.31433 0.87224 0.37750
 C884 C 0.33369 0.90090 0.40387
 C885 C 0.31685 0.80796 0.35429
 C886 C 0.29085 0.81047 0.30859
 H887 H 0.37435 0.95255 0.45822
 H888 H 0.42076 0.85843 0.47132
 H889 H 0.38762 0.80875 0.42451
 H890 H 0.28388 0.87660 0.35259
 H891 H 0.31832 0.92653 0.39766
 H892 H 0.32807 0.78232 0.36726
 H893 H 0.46302 0.90675 0.48133
 H894 H 0.28155 0.83573 0.29300
 C895 C 0.05362 0.06756 0.98786
 C896 C 0.09715 0.06638 0.96206
 C897 C 0.11904 0.09728 0.93759
 C898 C 0.14641 0.09228 0.89345
 C899 C 0.16464 0.12087 0.86648
 C900 C 0.15653 0.15516 0.88387
 C901 C 0.13035 0.16006 0.92898
 C902 C 0.11180 0.13142 0.95575
 C903 C 0.17245 0.18639 0.85507
 C904 C 0.20479 0.18558 0.81461
 H905 H 0.11236 0.04111 0.95307
 H906 H 0.15229 0.06615 0.87872
 H907 H 0.18365 0.11576 0.83142
 H908 H 0.12374 0.18620 0.94328
 H909 H 0.09184 0.13613 0.99040
 H910 H 0.15740 0.21134 0.86607
 H911 H 0.03645 0.09234 0.99482
 H912 H 0.22251 0.16167 0.80400
 C913 C 0.03624 0.94256 0.08184
 C914 C 0.08421 0.93262 0.08094
 C915 C 0.10475 0.90458 0.11328
 C916 C 0.15472 0.90241 0.11766
 C917 C 0.17600 0.87524 0.14522
 C918 C 0.14755 0.84952 0.16912
 C919 C 0.09756 0.85177 0.16492
 C920 C 0.07626 0.87897 0.13734
 C921 C 0.16850 0.81858 0.19476
 C922 C 0.21640 0.81642 0.20996
 H923 H 0.10834 0.94616 0.05521
 H924 H 0.17749 0.92153 0.09893
 H925 H 0.21462 0.87397 0.14597
 H926 H 0.07486 0.83199 0.18225
 H927 H 0.03770 0.87902 0.13377
 H928 H 0.14537 0.79600 0.20019
 H929 H 0.01167 0.93095 0.10885
 H930 H 0.23945 0.83923 0.20834
 C931 C 0.94178 0.44845 0.42917
 C932 C 0.94497 0.41200 0.42957
 C933 C 0.91951 0.38848 0.39335
 C934 C 0.93658 0.35430 0.38747
 C935 C 0.91241 0.33034 0.35614
 C936 C 0.87019 0.33978 0.33036
 C937 C 0.85363 0.37438 0.33506
 C938 C 0.87801 0.39847 0.36640
 C939 C 0.84376 0.31214 0.30173
 C940 C 0.79570 0.31447 0.28716
 H941 H 0.96864 0.39964 0.45686
 H942 H 0.96856 0.34595 0.40769
 H943 H 0.92610 0.30395 0.35322
 H944 H 0.82177 0.38305 0.31524
 H945 H 0.86337 0.42444 0.37044
 H946 H 0.86147 0.28719 0.29738
 H947 H 0.91969 0.46143 0.40090
 H948 H 0.77658 0.33873 0.29150
 C949 C 0.44826 0.05158 0.58760
 C950 C 0.40154 0.06403 0.58374
 C951 C 0.38252 0.09240 0.61627
 C952 C 0.33277 0.09644 0.61952
 C953 C 0.31329 0.12424 0.64701
 C954 C 0.34334 0.14880 0.67173
 C955 C 0.39310 0.14478 0.66843
 C956 C 0.41259 0.11688 0.64111
 C957 C 0.32427 0.18018 0.69774
 C958 C 0.27721 0.18275 0.71477
 H959 H 0.37776 0.05283 0.55503
 H960 H 0.30883 0.07828 0.60006
 H961 H 0.27481 0.12693 0.64714
 H962 H 0.41704 0.16364 0.68641
 H963 H 0.45111 0.11543 0.63818
 H964 H 0.34825 0.20235 0.70289
 H965 H 0.47179 0.06066 0.61795
 H966 H 0.25367 0.16018 0.71326
 C967 C 0.54333 0.55519 0.91035
 C968 C 0.59133 0.55888 0.89694
 C969 C 0.60983 0.58903 0.86718
 C970 C 0.65441 0.58640 0.84309
 C971 C 0.67445 0.61522 0.81771
 C972 C 0.65027 0.64741 0.81636
 C973 C 0.60553 0.64986 0.84007
 C974 C 0.58550 0.62112 0.86526
 C975 C 0.67180 0.67981 0.79519
 C976 C 0.71312 0.68111 0.76541
 H977 H 0.61661 0.53919 0.90938
 H978 H 0.67418 0.56212 0.84464
 H979 H 0.70945 0.61232 0.80097
 H980 H 0.58645 0.67446 0.84030
 H981 H 0.55191 0.62473 0.88477
 H982 H 0.65534 0.70426 0.80614
 H983 H 0.51689 0.57295 0.89504
 H984 H 0.72933 0.65731 0.75194
 C985 C 0.46877 0.42697 0.94173
 C986 C 0.46243 0.42217 0.88907
 C987 C 0.43343 0.39354 0.86612
 C988 C 0.40031 0.37384 0.89479
 C989 C 0.37055 0.34919 0.87075
 C990 C 0.37285 0.34400 0.81748
 C991 C 0.40663 0.36305 0.78913
 C992 C 0.43639 0.38771 0.81314
 C993 C 0.34119 0.31880 0.79040
 C994 C 0.29709 0.30758 0.80944
 H995 H 0.47740 0.44148 0.86315
 H996 H 0.39610 0.37788 0.93548
 H997 H 0.34595 0.33430 0.89417
 H998 H 0.40934 0.35936 0.74808
 H999 H 0.46137 0.40265 0.79010
 H1000 H 0.35225 0.30991 0.75293
 H1001 H 0.45731 0.40712 0.96856
 H1002 H 0.28388 0.31768 0.84530
 C1003 C 0.95282 0.06726 0.05667
 C1004 C 0.90743 0.06799 0.07869
 C1005 C 0.88775 0.09829 0.10672
 C1006 C 0.84790 0.09265 0.13815
 C1007 C 0.82758 0.12026 0.16520
 C1008 C 0.84639 0.15437 0.16085
 C1009 C 0.88652 0.16004 0.12982
 C1010 C 0.90689 0.13236 0.10268
 C1011 C 0.82552 0.18430 0.18868
 C1012 C 0.77793 0.18481 0.20446
 H1013 H 0.88571 0.04436 0.07750
 H1014 H 0.83260 0.06665 0.14219
 H1015 H 0.79769 0.11454 0.19000
 H1016 H 0.90173 0.18608 0.12597
 H1017 H 0.93697 0.13803 0.07815
 H1018 H 0.84779 0.20727 0.19502
 H1019 H 0.97656 0.08961 0.05954
 H1020 H 0.75425 0.16321 0.19511
 C1021 C 0.54028 0.93182 0.54992
 C1022 C 0.58902 0.92953 0.56141
 C1023 C 0.61174 0.89854 0.58490
 C1024 C 0.65686 0.90278 0.60807
 C1025 C 0.67963 0.87455 0.63147
 C1026 C 0.65760 0.84133 0.63223
 C1027 C 0.61322 0.83674 0.60757
 C1028 C 0.59034 0.86506 0.58415
 C1029 C 0.68065 0.81098 0.65711
 C1030 C 0.71348 0.81473 0.69723
 H1031 H 0.61160 0.95231 0.55528
 H1032 H 0.67453 0.92814 0.60830
 H1033 H 0.71475 0.87883 0.64816
 H1034 H 0.59602 0.81122 0.60679
 H1035 H 0.55637 0.86041 0.56513
 H1036 H 0.67024 0.78497 0.64453
 H1037 H 0.51622 0.91037 0.55850
 H1038 H 0.72137 0.84043 0.71260
 C1039 C 0.04387 0.56687 0.45357
 C1040 C 0.08347 0.56565 0.42127
 C1041 C 0.10826 0.59675 0.40015
 C1042 C 0.13816 0.59209 0.35782
 C1043 C 0.16356 0.62027 0.33719
 C1044 C 0.15961 0.65391 0.35855
 C1045 C 0.13067 0.65848 0.40174
 C1046 C 0.10502 0.63021 0.42236
 C1047 C 0.18662 0.68412 0.33762
 C1048 C 0.20043 0.68580 0.28643
 H1049 H 0.09702 0.54027 0.41017
 H1050 H 0.14207 0.56644 0.34069
 H1051 H 0.18703 0.61536 0.30524
 H1052 H 0.12782 0.68401 0.41948
 H1053 H 0.08368 0.63457 0.45612
 H1054 H 0.19496 0.70588 0.36287
 H1055 H 0.02785 0.59159 0.46354
 H1056 H 0.18896 0.66556 0.26001
   
