data_POSCAR
  _audit_creation_date              2014-09-24
  _audit_creation_method            'ToBaCCo'
  _symmetry_space_group_name_H-M    'P1'
  _symmetry_Int_Tables_number       1
  _symmetry_cell_setting            triclinic
  loop_
  _symmetry_equiv_pos_as_xyz
 x,y,z
_cell_length_a 56.5032
_cell_length_b 56.5766
_cell_length_c 56.5496
_cell_angle_alpha 90.117900
_cell_angle_beta 90.021000
_cell_angle_gamma 90.095300
loop_
  _atom_site_label
  _atom_site_type_symbol
  _atom_site_fract_x
  _atom_site_fract_y
  _atom_site_fract_z
C1 C 0.31362 0.31307 -0.01325
 C2 C 0.31360 0.31321 0.01087
 C3 C 0.29894 0.33016 0.02458
 C4 C 0.32885 0.29696 0.02478
 C5 C 0.33068 0.29849 -0.02692
 C6 C 0.29714 0.32809 -0.02713
 C7 C 0.30096 0.35464 0.02085
 C8 C 0.28705 0.37041 0.03382
 C9 C 0.27116 0.36191 0.05081
 C10 C 0.26935 0.33757 0.05487
 C11 C 0.28324 0.32178 0.04189
 C12 C 0.34441 0.30625 0.04181
 C13 C 0.35941 0.29131 0.05449
 C14 C 0.35891 0.26690 0.05042
 C15 C 0.34308 0.25744 0.03383
 C16 C 0.32802 0.27238 0.02115
 C17 C 0.32237 0.28245 -0.04399
 C18 C 0.33825 0.26836 -0.05666
 C19 C 0.36265 0.27031 -0.05252
 C20 C 0.37106 0.28664 -0.03581
 C21 C 0.35517 0.30073 -0.02318
 C22 C 0.27256 0.32714 -0.02333
 C23 C 0.25740 0.34218 -0.03576
 C24 C 0.26663 0.35813 -0.05229
 C25 C 0.29102 0.35869 -0.05661
 C26 C 0.30618 0.34370 -0.04417
 H27 H 0.31333 0.36149 0.00793
 H28 H 0.28870 0.38922 0.03065
 H29 H 0.25718 0.33081 0.06804
 H30 H 0.28158 0.30298 0.04514
 H31 H 0.34525 0.32513 0.04494
 H32 H 0.37155 0.29882 0.06730
 H33 H 0.31586 0.26482 0.00840
 H34 H 0.30356 0.28062 -0.04724
 H35 H 0.33143 0.25590 -0.06958
 H36 H 0.38988 0.28850 -0.03248
 H37 H 0.36195 0.31335 -0.01043
 H38 H 0.26518 0.31493 -0.01056
 H39 H 0.23855 0.34153 -0.03234
 H40 H 0.29835 0.37093 -0.06938
 H41 H 0.32504 0.34465 -0.04745
 H42 H 0.34248 0.23856 0.03062
 C43 C 0.68778 0.68792 -0.01184
 C44 C 0.68771 0.68755 0.01227
 C45 C 0.70217 0.67033 0.02577
 C46 C 0.67248 0.70374 0.02631
 C47 C 0.67094 0.70273 -0.02544
 C48 C 0.70403 0.67277 -0.02589
 C49 C 0.69986 0.64591 0.02171
 C50 C 0.71375 0.62987 0.03433
 C51 C 0.72987 0.63805 0.05129
 C52 C 0.73192 0.66232 0.05573
 C53 C 0.71806 0.67839 0.04310
 C54 C 0.65672 0.69435 0.04305
 C55 C 0.64154 0.70922 0.05565
 C56 C 0.64205 0.73364 0.05179
 C57 C 0.65811 0.74320 0.03554
 C58 C 0.67336 0.72834 0.02294
 C59 C 0.67950 0.71858 -0.04250
 C60 C 0.66379 0.73239 -0.05561
 C61 C 0.63938 0.73036 -0.05192
 C62 C 0.63071 0.71439 -0.03513
 C63 C 0.64640 0.70054 -0.02202
 C64 C 0.72863 0.67339 -0.02219
 C65 C 0.74355 0.65846 -0.03509
 C66 C 0.73403 0.64297 -0.05196
 C67 C 0.70960 0.64267 -0.05608
 C68 C 0.69470 0.65753 -0.04318
 H69 H 0.68735 0.63932 0.00876
 H70 H 0.71191 0.61112 0.03087
 H71 H 0.74427 0.66883 0.06888
 H72 H 0.71993 0.69713 0.04660
 H73 H 0.65582 0.67546 0.04597
 H74 H 0.62921 0.70163 0.06820
 H75 H 0.68566 0.73597 0.01040
 H76 H 0.69835 0.72034 -0.04552
 H77 H 0.67067 0.74462 -0.06864
 H78 H 0.61184 0.71256 -0.03225
 H79 H 0.63943 0.68805 -0.00931
 H80 H 0.73622 0.68531 -0.00922
 H81 H 0.76244 0.65889 -0.03183
 H82 H 0.70206 0.63077 -0.06910
 H83 H 0.67580 0.65685 -0.04637
 H84 H 0.65872 0.76209 0.03248
 C85 C 0.68815 0.31234 1.01292
 C86 C 0.68837 0.31273 0.98881
 C87 C 0.70307 0.32992 0.97547
 C88 C 0.67322 0.29660 0.97456
 C89 C 0.67116 0.29740 1.02627
 C90 C 0.70427 0.32747 1.02720
 C91 C 0.70086 0.35435 0.97946
 C92 C 0.71472 0.37035 0.96671
 C93 C 0.73073 0.36212 0.94970
 C94 C 0.73275 0.33783 0.94540
 C95 C 0.71891 0.32181 0.95815
 C96 C 0.65770 0.30605 0.95766
 C97 C 0.64269 0.29124 0.94474
 C98 C 0.64314 0.26679 0.94843
 C99 C 0.65896 0.25715 0.96485
 C100 C 0.67404 0.27197 0.97778
 C101 C 0.67954 0.28141 1.04326
 C102 C 0.66370 0.26730 1.05595
 C103 C 0.63933 0.26918 1.05191
 C104 C 0.63084 0.28535 1.03523
 C105 C 0.64665 0.29948 1.02255
 C106 C 0.72891 0.32692 1.02377
 C107 C 0.74371 0.34187 1.03685
 C108 C 0.73405 0.35733 1.05366
 C109 C 0.70957 0.35753 1.05752
 C110 C 0.69478 0.34264 1.04444
 H111 H 0.68837 0.36098 0.99238
 H112 H 0.71291 0.38912 0.97006
 H113 H 0.74500 0.33128 0.93220
 H114 H 0.72070 0.30306 0.95469
 H115 H 0.65686 0.32496 0.95484
 H116 H 0.63053 0.29887 0.93206
 H117 H 0.68617 0.26429 0.99043
 H118 H 0.69836 0.27971 1.04650
 H119 H 0.67045 0.25492 1.06888
 H120 H 0.61201 0.28706 1.03208
 H121 H 0.63982 0.31207 1.00988
 H122 H 0.73661 0.31505 1.01085
 H123 H 0.76263 0.34146 1.03372
 H124 H 0.70184 0.36937 1.07048
 H125 H 0.67586 0.34326 1.04742
 H126 H 0.65952 0.23825 0.96779
 C127 C 0.31326 0.68676 1.01347
 C128 C 0.31319 0.68667 0.98935
 C129 C 0.29669 0.67144 0.97561
 C130 C 0.33014 0.70119 0.97546
 C131 C 0.32857 0.70317 1.02723
 C132 C 0.29862 0.66991 1.02733
 C133 C 0.30573 0.65576 0.95859
 C134 C 0.29055 0.64076 0.94608
 C135 C 0.26616 0.64137 0.95031
 C136 C 0.25694 0.65732 0.96688
 C137 C 0.27212 0.67238 0.97939
 C138 C 0.35468 0.69915 0.97903
 C139 C 0.37044 0.71282 0.96578
 C140 C 0.36187 0.72848 0.94866
 C141 C 0.33747 0.73034 0.94478
 C142 C 0.32169 0.71669 0.95804
 C143 C 0.32777 0.72772 1.02346
 C144 C 0.34284 0.74282 1.03606
 C145 C 0.35866 0.73355 1.05272
 C146 C 0.35913 0.70916 1.05691
 C147 C 0.34411 0.69408 1.04430
 C148 C 0.28301 0.67844 1.04467
 C149 C 0.26916 0.66276 1.05783
 C150 C 0.27093 0.63835 1.05394
 C151 C 0.28673 0.62972 1.03690
 C152 C 0.30059 0.64540 1.02375
 H153 H 0.32460 0.65482 0.95534
 H154 H 0.29787 0.62852 0.93328
 H155 H 0.23807 0.65801 0.97022
 H156 H 0.26475 0.68464 0.99214
 H157 H 0.36158 0.68693 0.99202
 H158 H 0.38929 0.71113 0.96882
 H159 H 0.30286 0.71836 0.95489
 H160 H 0.31561 0.73512 1.01067
 H161 H 0.34221 0.76166 1.03270
 H162 H 0.37124 0.70174 1.06976
 H163 H 0.34493 0.67524 1.04754
 H164 H 0.28139 0.69726 1.04781
 H165 H 0.25709 0.66969 1.07101
 H166 H 0.28840 0.61089 1.03379
 H167 H 0.31290 0.63845 1.01082
 H168 H 0.33065 0.74233 0.93151
 C169 C -0.01287 0.31340 0.31316
 C170 C 0.01127 0.31331 0.31313
 C171 C 0.02499 0.29859 0.32995
 C172 C 0.02523 0.32862 0.29695
 C173 C -0.02652 0.33049 0.29868
 C174 C -0.02678 0.29704 0.32831
 C175 C 0.02150 0.30067 0.35447
 C176 C 0.03466 0.28685 0.37012
 C177 C 0.05159 0.27102 0.36144
 C178 C 0.05538 0.26910 0.33705
 C179 C 0.04221 0.28289 0.32138
 C180 C 0.04242 0.34395 0.30632
 C181 C 0.05532 0.35885 0.29147
 C182 C 0.05133 0.35850 0.26704
 C183 C 0.03452 0.34295 0.25749
 C184 C 0.02160 0.32798 0.27235
 C185 C -0.04370 0.32225 0.28272
 C186 C -0.05643 0.33817 0.26879
 C187 C -0.05224 0.36251 0.27083
 C188 C -0.03543 0.37085 0.28706
 C189 C -0.02272 0.35494 0.30100
 C190 C -0.02314 0.27247 0.32740
 C191 C -0.03565 0.25743 0.34253
 C192 C -0.05211 0.26677 0.35855
 C193 C -0.05623 0.29118 0.35909
 C194 C -0.04371 0.30620 0.34401
 H195 H 0.00866 0.31304 0.36144
 H196 H 0.03170 0.28858 0.38898
 H197 H 0.06851 0.25697 0.33016
 H198 H 0.04529 0.28121 0.30254
 H199 H 0.04555 0.34465 0.32521
 H200 H 0.06830 0.37079 0.29905
 H201 H 0.00872 0.31599 0.26473
 H202 H -0.04699 0.30347 0.28084
 H203 H -0.06945 0.33146 0.25638
 H204 H -0.03210 0.38964 0.28895
 H205 H -0.00989 0.36166 0.31357
 H206 H -0.01046 0.26501 0.31513
 H207 H -0.03235 0.23858 0.34183
 H208 H -0.06892 0.29867 0.37135
 H209 H -0.04684 0.32506 0.34493
 H210 H 0.03135 0.34247 0.23860
 C211 C -0.01203 0.68699 0.68720
 C212 C 0.01211 0.68715 0.68729
 C213 C 0.02583 0.70170 0.67029
 C214 C 0.02597 0.67211 0.70378
 C215 C -0.02575 0.67000 0.70175
 C216 C -0.02592 0.70320 0.67189
 C217 C 0.02220 0.69937 0.64580
 C218 C 0.03493 0.71342 0.62997
 C219 C 0.05157 0.72974 0.63842
 C220 C 0.05561 0.73179 0.66277
 C221 C 0.04287 0.71776 0.67863
 C222 C 0.04309 0.65655 0.69476
 C223 C 0.05553 0.64156 0.70991
 C224 C 0.05115 0.64208 0.73427
 C225 C 0.03452 0.65797 0.74348
 C226 C 0.02208 0.67301 0.72833
 C227 C -0.04307 0.67833 0.71748
 C228 C -0.05601 0.66249 0.73133
 C229 C -0.05190 0.63815 0.72945
 C230 C -0.03491 0.62971 0.71350
 C231 C -0.02199 0.64554 0.69963
 C232 C -0.02232 0.72778 0.67267
 C233 C -0.03500 0.74269 0.65757
 C234 C -0.05156 0.73318 0.64171
 C235 C -0.05558 0.70874 0.64126
 C236 C -0.04291 0.69386 0.65632
 H237 H 0.00948 0.68673 0.63900
 H238 H 0.03177 0.71159 0.61115
 H239 H 0.06852 0.74430 0.66949
 H240 H 0.04604 0.71966 0.69743
 H241 H 0.04642 0.65564 0.67592
 H242 H 0.06837 0.62937 0.70260
 H243 H 0.00925 0.68517 0.73569
 H244 H -0.04634 0.69712 0.71920
 H245 H -0.06917 0.66927 0.74353
 H246 H -0.03165 0.61091 0.71175
 H247 H -0.00905 0.63875 0.68724
 H248 H -0.00960 0.73538 0.68485
 H249 H -0.03176 0.76156 0.65819
 H250 H -0.06836 0.70112 0.62913
 H251 H -0.04601 0.67498 0.65551
 H252 H 0.03105 0.65859 0.76231
 C253 C 1.01257 0.68672 0.31279
 C254 C 0.98844 0.68701 0.31312
 C255 C 0.97508 0.70189 0.33018
 C256 C 0.97415 0.67189 0.29701
 C257 C 1.02596 0.66959 0.29803
 C258 C 1.02681 0.70298 0.32782
 C259 C 0.97895 0.69988 0.35465
 C260 C 0.96623 0.71395 0.37051
 C261 C 0.94937 0.72998 0.36211
 C262 C 0.94518 0.73180 0.33778
 C263 C 0.95790 0.71776 0.32189
 C264 C 0.95695 0.65666 0.30647
 C265 C 0.94383 0.64183 0.29166
 C266 C 0.94761 0.64216 0.26721
 C267 C 0.96438 0.65765 0.25757
 C268 C 0.97751 0.67254 0.27238
 C269 C 1.04324 0.67777 0.28219
 C270 C 1.05603 0.66181 0.26829
 C271 C 1.05180 0.63748 0.27022
 C272 C 1.03480 0.62919 0.28624
 C273 C 1.02203 0.64514 0.30016
 C274 C 1.02342 0.72758 0.32695
 C275 C 1.03628 0.74253 0.34195
 C276 C 1.05282 0.73305 0.35776
 C277 C 1.05670 0.70861 0.35825
 C278 C 1.04383 0.69368 0.34330
 H279 H 0.99176 0.68739 0.36142
 H280 H 0.96951 0.71228 0.38931
 H281 H 0.93210 0.74407 0.33109
 H282 H 0.95453 0.71941 0.30311
 H283 H 0.95402 0.65595 0.32538
 H284 H 0.93089 0.62993 0.29930
 H285 H 0.99039 0.68446 0.26469
 H286 H 1.04665 0.69653 0.28045
 H287 H 1.06919 0.66849 0.25605
 H288 H 1.03144 0.61041 0.28806
 H289 H 1.00914 0.63845 0.31265
 H290 H 1.01067 0.73513 0.31484
 H291 H 1.03315 0.76141 0.34131
 H292 H 1.06946 0.70103 0.37036
 H293 H 1.04678 0.67478 0.34417
 H294 H 0.96739 0.65810 0.23865
 C295 C 1.01189 0.31281 0.68669
 C296 C 0.98776 0.31272 0.68656
 C297 C 0.97401 0.29638 0.67117
 C298 C 0.97386 0.32955 0.70119
 C299 C 1.02560 0.32807 0.70320
 C300 C 1.02582 0.29836 0.66974
 C301 C 0.95692 0.30555 0.65568
 C302 C 0.94427 0.29054 0.64064
 C303 C 0.94844 0.26616 0.64101
 C304 C 0.96511 0.25681 0.65674
 C305 C 0.97777 0.27183 0.67185
 C306 C 0.97740 0.35406 0.69919
 C307 C 0.96423 0.36972 0.71306
 C308 C 0.94724 0.36106 0.72886
 C309 C 0.94338 0.33668 0.73065
 C310 C 0.95655 0.32100 0.71681
 C311 C 1.02177 0.32714 0.72775
 C312 C 1.03420 0.34227 0.74292
 C313 C 1.05072 0.35828 0.73373
 C314 C 1.05500 0.35887 0.70936
 C315 C 1.04258 0.34380 0.69419
 C316 C 1.04321 0.28280 0.67816
 C317 C 1.05651 0.26920 0.66238
 C318 C 1.05269 0.27115 0.63798
 C319 C 1.03559 0.28689 0.62944
 C320 C 1.02231 0.30052 0.64523
 H321 H 0.95368 0.32440 0.65495
 H322 H 0.93139 0.29796 0.62856
 H323 H 0.96841 0.23796 0.65724
 H324 H 0.99057 0.26436 0.68396
 H325 H 0.99031 0.36102 0.68688
 H326 H 0.96726 0.38856 0.71143
 H327 H 0.95345 0.30217 0.71843
 H328 H 1.00905 0.31484 0.73509
 H329 H 1.03081 0.34160 0.76177
 H330 H 1.06776 0.37117 0.70206
 H331 H 1.04586 0.34473 0.67534
 H332 H 1.04631 0.28106 0.69698
 H333 H 1.06974 0.25717 0.66923
 H334 H 1.03254 0.28871 0.61061
 H335 H 1.00934 0.31279 0.63836
 H336 H 0.93022 0.32980 0.74276
 C337 C 0.31186 -0.01257 0.31140
 C338 C 0.31160 0.01153 0.31153
 C339 C 0.32668 0.02554 0.29522
 C340 C 0.29696 0.02513 0.32860
 C341 C 0.29556 -0.02658 0.32651
 C342 C 0.32904 -0.02608 0.29681
 C343 C 0.34217 0.04266 0.30446
 C344 C 0.35710 0.05537 0.28947
 C345 C 0.35659 0.05125 0.26506
 C346 C 0.34081 0.03460 0.25564
 C347 C 0.32582 0.02188 0.27063
 C348 C 0.29919 0.02146 0.35307
 C349 C 0.28552 0.03456 0.36897
 C350 C 0.26968 0.05160 0.36059
 C351 C 0.26760 0.05555 0.33625
 C352 C 0.28124 0.04244 0.32033
 C353 C 0.27096 -0.02300 0.32566
 C354 C 0.25598 -0.03554 0.34082
 C355 C 0.26542 -0.05193 0.35675
 C356 C 0.28984 -0.05602 0.35720
 C357 C 0.30483 -0.04348 0.34210
 C358 C 0.32089 -0.04338 0.28093
 C359 C 0.33690 -0.05607 0.26699
 C360 C 0.36125 -0.05172 0.26894
 C361 C 0.36951 -0.03477 0.28507
 C362 C 0.35350 -0.02211 0.29902
 H363 H 0.34304 0.04581 0.32334
 H364 H 0.36923 0.06823 0.29693
 H365 H 0.34023 0.03134 0.23676
 H366 H 0.31371 0.00904 0.26313
 H367 H 0.31159 0.00855 0.35983
 H368 H 0.28739 0.03147 0.38778
 H369 H 0.27943 0.04567 0.30154
 H370 H 0.26343 -0.01033 0.31347
 H371 H 0.23709 -0.03232 0.34027
 H372 H 0.29733 -0.06868 0.36944
 H373 H 0.32373 -0.04656 0.34296
 H374 H 0.30211 -0.04682 0.27913
 H375 H 0.33025 -0.06919 0.25467
 H376 H 0.38830 -0.03132 0.28689
 H377 H 0.36017 -0.00919 0.31153
 H378 H 0.25547 0.06877 0.32958
 C379 C 0.68631 -0.01169 0.68709
 C380 C 0.68640 0.01242 0.68679
 C381 C 0.67132 0.02645 0.70312
 C382 C 0.70104 0.02592 0.66963
 C383 C 0.70270 -0.02572 0.67208
 C384 C 0.66931 -0.02529 0.70182
 C385 C 0.65569 0.04336 0.69392
 C386 C 0.64066 0.05596 0.70894
 C387 C 0.64121 0.05192 0.73335
 C388 C 0.65717 0.03551 0.74273
 C389 C 0.67226 0.02291 0.72771
 C390 C 0.69896 0.02185 0.64518
 C391 C 0.71303 0.03443 0.62922
 C392 C 0.72913 0.05138 0.63750
 C393 C 0.73096 0.05583 0.66180
 C394 C 0.71691 0.04324 0.67778
 C395 C 0.72730 -0.02204 0.67301
 C396 C 0.74238 -0.03484 0.65815
 C397 C 0.73303 -0.05160 0.64244
 C398 C 0.70860 -0.05572 0.64186
 C399 C 0.69353 -0.04292 0.65665
 C400 C 0.67768 -0.04256 0.71752
 C401 C 0.66185 -0.05564 0.73128
 C402 C 0.63744 -0.05172 0.72935
 C403 C 0.62896 -0.03470 0.71351
 C404 C 0.64479 -0.02163 0.69973
 H405 H 0.65477 0.04642 0.67504
 H406 H 0.62841 0.06864 0.70150
 H407 H 0.65782 0.03231 0.76161
 H408 H 0.68448 0.01024 0.73520
 H409 H 0.68647 0.00892 0.63850
 H410 H 0.71135 0.03095 0.61045
 H411 H 0.71864 0.04675 0.69654
 H412 H 0.73475 -0.00914 0.68508
 H413 H 0.76126 -0.03157 0.65881
 H414 H 0.70119 -0.06866 0.62979
 H415 H 0.67464 -0.04610 0.65574
 H416 H 0.69650 -0.04577 0.71922
 H417 H 0.66867 -0.06881 0.74338
 H418 H 0.61013 -0.03157 0.71171
 H419 H 0.63795 -0.00875 0.68736
 H420 H 0.74329 0.06897 0.66839
 C421 C 0.31245 1.01215 0.68748
 C422 C 0.31225 0.98804 0.68730
 C423 C 0.32907 0.97410 0.70182
 C424 C 0.29588 0.97438 0.67185
 C425 C 0.29798 1.02608 0.67062
 C426 C 0.32785 1.02583 0.70389
 C427 C 0.35362 0.97753 0.69971
 C428 C 0.36928 0.96423 0.71340
 C429 C 0.36058 0.94724 0.72913
 C430 C 0.33616 0.94350 0.73105
 C431 C 0.32047 0.95680 0.71738
 C432 C 0.30506 0.95737 0.65625
 C433 C 0.29003 0.94484 0.64111
 C434 C 0.26563 0.94905 0.64150
 C435 C 0.25626 0.96564 0.65734
 C436 C 0.27130 0.97817 0.67254
 C437 C 0.28234 1.04336 0.67915
 C438 C 0.26871 1.05665 0.66343
 C439 C 0.27074 1.05291 0.63903
 C440 C 0.28655 1.03593 0.63040
 C441 C 0.30021 1.02265 0.64610
 C442 C 0.32708 1.02207 0.72845
 C443 C 0.34217 1.03470 0.74352
 C444 C 0.35797 1.05136 0.73421
 C445 C 0.35846 1.05550 0.70982
 C446 C 0.34344 1.04289 0.69476
 H447 H 0.36061 0.99043 0.68743
 H448 H 0.38815 0.96716 0.71167
 H449 H 0.32925 0.93032 0.74310
 H450 H 0.30162 0.95378 0.71908
 H451 H 0.32393 0.95411 0.65550
 H452 H 0.29746 0.93203 0.62896
 H453 H 0.26381 0.99092 0.68472
 H454 H 0.28056 1.04638 0.69798
 H455 H 0.25660 1.06981 0.67028
 H456 H 0.28836 1.03301 0.61155
 H457 H 0.31255 1.00976 0.63916
 H458 H 0.31490 1.00930 0.73589
 H459 H 0.34158 1.03142 0.76238
 H460 H 0.37059 1.06836 0.70242
 H461 H 0.34425 1.04612 0.67590
 H462 H 0.23739 0.96897 0.65785
 C463 C 0.68738 1.01161 0.31283
 C464 C 0.68780 0.98751 0.31322
 C465 C 0.67281 0.97317 0.29703
 C466 C 0.70267 0.97426 0.33035
 C467 C 0.70358 1.02598 0.32778
 C468 C 0.67022 1.02485 0.29797
 C469 C 0.65735 0.95615 0.30641
 C470 C 0.64242 0.94323 0.29152
 C471 C 0.64290 0.94705 0.26708
 C472 C 0.65868 0.96358 0.25752
 C473 C 0.67367 0.97650 0.27241
 C474 C 0.70066 0.97831 0.35481
 C475 C 0.71470 0.96568 0.37074
 C476 C 0.73070 0.94871 0.36242
 C477 C 0.73252 0.94435 0.33811
 C478 C 0.71851 0.95699 0.32216
 C479 C 0.72822 1.02266 0.32691
 C480 C 0.74313 1.03573 0.34176
 C481 C 0.73357 1.05239 0.35742
 C482 C 0.70908 1.05617 0.35791
 C483 C 0.69419 1.04310 0.34312
 C484 C 0.67841 1.04205 0.28206
 C485 C 0.66243 1.05464 0.26803
 C486 C 0.63810 1.05030 0.26990
 C487 C 0.62979 1.03341 0.28597
 C488 C 0.64574 1.02083 0.30002
 H489 H 0.65649 0.95325 0.32532
 H490 H 0.63029 0.93047 0.29909
 H491 H 0.65925 0.96661 0.23862
 H492 H 0.68576 0.98926 0.26480
 H493 H 0.68819 0.99119 0.36153
 H494 H 0.71303 0.96909 0.38952
 H495 H 0.72017 0.95347 0.30340
 H496 H 0.73584 1.00983 0.31490
 H497 H 0.76205 1.03268 0.34112
 H498 H 0.70144 1.06902 0.36992
 H499 H 0.67526 1.04599 0.34397
 H500 H 0.69718 1.04553 0.28036
 H501 H 0.66905 1.06773 0.25573
 H502 H 0.61099 1.03002 0.28767
 H503 H 0.63903 1.00800 0.31254
 H504 H 0.74476 0.93119 0.33148
 O505 O 0.87382 0.84035 0.47810
 O506 O 0.84198 0.87358 0.52427
 O507 O 0.87450 0.84101 0.52413
 O508 O 0.84115 0.87304 0.47824
 O509 O 0.81345 0.84540 0.47898
 O510 O 0.84676 0.81340 0.52482
 O511 O 0.81427 0.84593 0.52496
 O512 O 0.84608 0.81274 0.47884
 Cu513 Cu 0.86066 0.85978 0.50107
 Cu514 Cu 0.82735 0.82658 0.50193
 C515 C 0.86539 0.82086 0.47079
 C516 C 0.82275 0.86535 0.53240
 C517 C 0.86624 0.82179 0.53222
 C518 C 0.82159 0.86469 0.47097
 O519 O 0.13018 0.16332 0.47713
 O520 O 0.16285 0.13100 0.52317
 O521 O 0.13031 0.16366 0.52309
 O522 O 0.16270 0.13064 0.47720
 O523 O 0.19048 0.15823 0.47698
 O524 O 0.15808 0.19125 0.52286
 O525 O 0.19062 0.15860 0.52294
 O526 O 0.15796 0.19090 0.47692
 Cu527 Cu 0.14370 0.14437 0.50017
 Cu528 Cu 0.17709 0.17753 0.49990
 C529 C 0.13850 0.18263 0.46935
 C530 C 0.18230 0.13929 0.53074
 C531 C 0.13867 0.18309 0.53063
 C532 C 0.18211 0.13881 0.46942
 O533 O 0.15674 0.87494 0.47646
 O534 O 0.12480 0.84114 0.52210
 O535 O 0.15668 0.87458 0.52258
 O536 O 0.12474 0.84176 0.47608
 O537 O 0.15299 0.81474 0.47577
 O538 O 0.18490 0.84755 0.52224
 O539 O 0.15308 0.81415 0.52174
 O540 O 0.18494 0.84788 0.47619
 Cu541 Cu 0.13790 0.86085 0.49936
 Cu542 Cu 0.17184 0.82838 0.49898
 C543 C 0.17622 0.86705 0.46859
 C544 C 0.13352 0.82188 0.52953
 C545 C 0.17621 0.86662 0.53023
 C546 C 0.13347 0.82270 0.46810
 O547 O 0.87410 0.15735 0.52215
 O548 O 0.84175 0.12548 0.47531
 O549 O 0.87473 0.15772 0.47604
 O550 O 0.84079 0.12530 0.52133
 O551 O 0.81358 0.15335 0.52105
 O552 O 0.84744 0.18570 0.47584
 O553 O 0.81450 0.15350 0.47508
 O554 O 0.84684 0.18535 0.52189
 Cu555 Cu 0.86061 0.13865 0.49875
 Cu556 Cu 0.82786 0.17231 0.49846
 C557 C 0.86595 0.17676 0.52989
 C558 C 0.82265 0.13410 0.46732
 C559 C 0.86677 0.17719 0.46828
 C560 C 0.82140 0.13382 0.52875
 O561 O 0.47670 0.86949 0.83698
 O562 O 0.52311 0.83754 0.86950
 O563 O 0.52270 0.87004 0.83682
 O564 O 0.47712 0.83698 0.86965
 O565 O 0.47730 0.80925 0.84202
 O566 O 0.52288 0.84231 0.80920
 O567 O 0.52329 0.80981 0.84188
 O568 O 0.47689 0.84175 0.80936
 Cu569 Cu 0.49989 0.85631 0.85602
 Cu570 Cu 0.50011 0.82298 0.82283
 C571 C 0.46905 0.86107 0.81762
 C572 C 0.53094 0.81821 0.86124
 C573 C 0.53040 0.86181 0.81741
 C574 C 0.46960 0.81748 0.86143
 O575 O 0.47653 0.12535 0.15764
 O576 O 0.52309 0.15856 0.12642
 O577 O 0.52260 0.12580 0.15896
 O578 O 0.47704 0.15802 0.12530
 O579 O 0.47613 0.18555 0.15310
 O580 O 0.52163 0.15337 0.18672
 O581 O 0.52213 0.18609 0.15422
 O582 O 0.47562 0.15292 0.18541
 Cu583 Cu 0.49996 0.13915 0.13928
 Cu584 Cu 0.49882 0.17226 0.17267
 C585 C 0.46821 0.13356 0.17680
 C586 C 0.53035 0.17801 0.13497
 C587 C 0.52970 0.13409 0.17859
 C588 C 0.46889 0.17723 0.13354
 O589 O 0.47712 0.15958 0.87524
 O590 O 0.52254 0.12563 0.84301
 O591 O 0.52319 0.15862 0.87519
 O592 O 0.47640 0.12621 0.84327
 O593 O 0.47679 0.15335 0.81519
 O594 O 0.52356 0.18576 0.84710
 O595 O 0.52286 0.15281 0.81496
 O596 O 0.47755 0.18667 0.84711
 Cu597 Cu 0.49974 0.13976 0.86201
 Cu598 Cu 0.50020 0.17237 0.82825
 C599 C 0.46975 0.17892 0.86665
 C600 C 0.53038 0.13354 0.82355
 C601 C 0.53126 0.17767 0.86654
 C602 C 0.46874 0.13427 0.82381
 O603 O 0.47636 0.84241 0.12590
 O604 O 0.52309 0.87442 0.15832
 O605 O 0.52250 0.84222 0.12536
 O606 O 0.47702 0.87456 0.15910
 O607 O 0.47730 0.84655 0.18632
 O608 O 0.52271 0.81427 0.15264
 O609 O 0.52331 0.84643 0.18556
 O610 O 0.47662 0.81445 0.15317
 Cu611 Cu 0.49969 0.86122 0.13940
 Cu612 Cu 0.49998 0.82759 0.17215
 C613 C 0.46864 0.82300 0.13405
 C614 C 0.53108 0.86582 0.17742
 C615 C 0.53031 0.82280 0.13335
 C616 C 0.46957 0.86605 0.17846
 O617 O 0.83970 0.47796 0.87182
 O618 O 0.87261 0.52311 0.83833
 O619 O 0.84085 0.52397 0.87172
 O620 O 0.87169 0.47718 0.83851
 O621 O 0.84340 0.47763 0.81147
 O622 O 0.81257 0.52440 0.84468
 O623 O 0.84430 0.52352 0.81132
 O624 O 0.81143 0.47842 0.84476
 Cu625 Cu 0.85906 0.50049 0.85784
 Cu626 Cu 0.82505 0.50101 0.82535
 C627 C 0.81996 0.47064 0.86397
 C628 C 0.86403 0.53087 0.81913
 C629 C 0.82149 0.53207 0.86381
 C630 C 0.86283 0.46963 0.81930
 O631 O 0.16172 0.47755 0.12812
 O632 O 0.12858 0.52283 0.16130
 O633 O 0.16177 0.52349 0.12915
 O634 O 0.12844 0.47681 0.16005
 O635 O 0.15564 0.47619 0.18817
 O636 O 0.18897 0.52285 0.15727
 O637 O 0.15580 0.52217 0.18940
 O638 O 0.18890 0.47695 0.15626
 Cu639 Cu 0.14237 0.50025 0.14183
 Cu640 Cu 0.17506 0.49949 0.17562
 C641 C 0.18096 0.46969 0.13656
 C642 C 0.13656 0.53007 0.18101
 C643 C 0.18108 0.53092 0.13790
 C644 C 0.13640 0.46865 0.17935
 O645 O 0.87325 0.47718 0.16066
 O646 O 0.83988 0.52177 0.12693
 O647 O 0.87258 0.52317 0.15946
 O648 O 0.84092 0.47577 0.12776
 O649 O 0.81315 0.47587 0.15531
 O650 O 0.84483 0.52327 0.18702
 O651 O 0.81215 0.52183 0.15452
 O652 O 0.84544 0.47733 0.18818
 Cu653 Cu 0.85946 0.49946 0.14092
 Cu654 Cu 0.82609 0.49959 0.17403
 C655 C 0.86498 0.46979 0.18016
 C656 C 0.82034 0.52928 0.13504
 C657 C 0.86409 0.53117 0.17862
 C658 C 0.82167 0.46786 0.13615
 O659 O 0.12314 0.47706 0.84415
 O660 O 0.15578 0.52308 0.87698
 O661 O 0.12315 0.52315 0.84435
 O662 O 0.15589 0.47700 0.87665
 O663 O 0.18348 0.47723 0.84893
 O664 O 0.15081 0.52329 0.81670
 O665 O 0.18339 0.52323 0.84927
 O666 O 0.15079 0.47727 0.81648
 Cu667 Cu 0.13670 0.50006 0.86333
 Cu668 Cu 0.16990 0.50027 0.83006
 C669 C 0.13147 0.46941 0.82476
 C670 C 0.17512 0.53090 0.86867
 C671 C 0.13147 0.53099 0.82505
 C672 C 0.17523 0.46934 0.86822
 C673 C 0.25681 0.37817 0.06413
 C674 C 0.24483 0.39183 0.07527
 C675 C 0.23091 0.40794 0.08829
 C676 C 0.21915 0.42181 0.09940
 C677 C 0.20557 0.43825 0.11238
 C678 C 0.19420 0.45248 0.12344
 C679 C 0.74427 0.62153 0.06415
 C680 C 0.75630 0.60763 0.07489
 C681 C 0.77029 0.59128 0.08747
 C682 C 0.78210 0.57723 0.09824
 C683 C 0.79572 0.56067 0.11094
 C684 C 0.80712 0.54641 0.12188
 C685 C 0.74494 0.37860 0.93652
 C686 C 0.75679 0.39243 0.92545
 C687 C 0.77056 0.40868 0.91246
 C688 C 0.78218 0.42265 0.90135
 C689 C 0.79560 0.43916 0.88832
 C690 C 0.80686 0.45343 0.87720
 C691 C 0.25076 0.62529 0.93789
 C692 C 0.23829 0.61146 0.92745
 C693 C 0.22415 0.59492 0.91516
 C694 C 0.21243 0.58053 0.90461
 C695 C 0.19908 0.56343 0.89218
 C696 C 0.18799 0.54866 0.88149
 C697 C 0.06520 0.25688 0.37758
 C698 C 0.07659 0.24512 0.39117
 C699 C 0.08990 0.23148 0.40722
 C700 C 0.10120 0.21998 0.42110
 C701 C 0.11434 0.20671 0.43759
 C702 C 0.12545 0.19558 0.45193
 C703 C 0.06443 0.74439 0.62210
 C704 C 0.07510 0.75664 0.60831
 C705 C 0.08750 0.77088 0.59203
 C706 C 0.09805 0.78291 0.57798
 C707 C 0.11038 0.79679 0.56132
 C708 C 0.12093 0.80841 0.54692
 C709 C 0.93627 0.74445 0.37846
 C710 C 0.92532 0.75652 0.39220
 C711 C 0.91251 0.77055 0.40840
 C712 C 0.90161 0.78240 0.42238
 C713 C 0.88890 0.79607 0.43896
 C714 C 0.87812 0.80754 0.45334
 C715 C 0.93582 0.25095 0.62492
 C716 C 0.92519 0.23867 0.61107
 C717 C 0.91269 0.22477 0.59448
 C718 C 0.90198 0.21329 0.58003
 C719 C 0.88942 0.20023 0.56281
 C720 C 0.87869 0.18937 0.54788
 C721 C 0.37270 0.06379 0.24990
 C722 C 0.38660 0.07433 0.23768
 C723 C 0.40329 0.08672 0.22390
 C724 C 0.41785 0.09736 0.21255
 C725 C 0.43518 0.10988 0.19971
 C726 C 0.45018 0.12065 0.18909
 C727 C 0.62500 0.06428 0.74859
 C728 C 0.61107 0.07463 0.76097
 C729 C 0.59442 0.08680 0.77503
 C730 C 0.57997 0.09728 0.78668
 C731 C 0.56282 0.10969 0.79992
 C732 C 0.54805 0.12046 0.81088
 C733 C 0.37672 0.93358 0.74322
 C734 C 0.39035 0.92220 0.75496
 C735 C 0.40648 0.90896 0.76859
 C736 C 0.42043 0.89776 0.78011
 C737 C 0.43704 0.88479 0.79342
 C738 C 0.45149 0.87386 0.80459
 C739 C 0.62672 0.93440 0.25199
 C740 C 0.61278 0.92386 0.23975
 C741 C 0.59605 0.91156 0.22584
 C742 C 0.58148 0.90108 0.21430
 C743 C 0.56413 0.88882 0.20115
 C744 C 0.54912 0.87833 0.19018
 C745 C 0.37751 0.25692 0.93587
 C746 C 0.39129 0.24460 0.92523
 C747 C 0.40754 0.23025 0.91285
 C748 C 0.42154 0.21813 0.90230
 C749 C 0.43812 0.20416 0.88993
 C750 C 0.45246 0.19247 0.87933
 C751 C 0.62320 0.74447 0.93449
 C752 C 0.60957 0.75619 0.92310
 C753 C 0.59345 0.76976 0.90979
 C754 C 0.57951 0.78119 0.89848
 C755 C 0.56292 0.79436 0.88535
 C756 C 0.54848 0.80539 0.87425
 C757 C 0.37388 0.74804 0.06458
 C758 C 0.38769 0.76047 0.07512
 C759 C 0.40423 0.77453 0.08751
 C760 C 0.41864 0.78615 0.09813
 C761 C 0.43581 0.79935 0.11061
 C762 C 0.45070 0.81031 0.12130
 C763 C 0.62303 0.25463 0.06494
 C764 C 0.60930 0.24250 0.07582
 C765 C 0.59308 0.22841 0.08851
 C766 C 0.57906 0.21653 0.09929
 C767 C 0.56241 0.20282 0.11184
 C768 C 0.54793 0.19134 0.12246
 C769 C 0.25669 0.06654 0.62285
 C770 C 0.24497 0.07792 0.60920
 C771 C 0.23135 0.09116 0.59308
 C772 C 0.21984 0.10239 0.57914
 C773 C 0.20654 0.11541 0.56258
 C774 C 0.19535 0.12640 0.54819
 C775 C 0.74788 0.06457 0.37254
 C776 C 0.76018 0.07531 0.38629
 C777 C 0.77413 0.08785 0.40280
 C778 C 0.78569 0.09852 0.41721
 C779 C 0.79887 0.11096 0.43441
 C780 C 0.80986 0.12155 0.44933
 C781 C 0.74831 0.93572 0.62653
 C782 C 0.76067 0.92506 0.61283
 C783 C 0.77465 0.91253 0.59639
 C784 C 0.78620 0.90179 0.58206
 C785 C 0.79931 0.88916 0.56499
 C786 C 0.81017 0.87831 0.55020
 C787 C 0.25026 0.93580 0.37307
 C788 C 0.23798 0.92553 0.38712
 C789 C 0.22407 0.91346 0.40394
 C790 C 0.21257 0.90306 0.41854
 C791 C 0.19953 0.89074 0.43586
 C792 C 0.18872 0.88004 0.45077
 C793 C 0.06300 0.37448 0.74911
 C794 C 0.07332 0.38840 0.76157
 C795 C 0.08546 0.40507 0.77570
 C796 C 0.09589 0.41955 0.78741
 C797 C 0.10818 0.43675 0.80075
 C798 C 0.11876 0.45160 0.81185
 C799 C 0.06428 0.62194 0.25669
 C800 C 0.07535 0.60816 0.24475
 C801 C 0.08832 0.59195 0.23087
 C802 C 0.09940 0.57802 0.21915
 C803 C 0.11238 0.56154 0.20560
 C804 C 0.12344 0.54729 0.19424
 C805 C 0.93555 0.37802 0.25708
 C806 C 0.92480 0.39180 0.24494
 C807 C 0.91224 0.40803 0.23080
 C808 C 0.90150 0.42200 0.21886
 C809 C 0.88888 0.43848 0.20508
 C810 C 0.87802 0.45269 0.19354
 C811 C 0.93559 0.62271 0.74304
 C812 C 0.92455 0.60899 0.75503
 C813 C 0.91168 0.59281 0.76897
 C814 C 0.90072 0.57887 0.78076
 C815 C 0.88792 0.56236 0.79438
 C816 C 0.87700 0.54809 0.80581
 C817 C 0.74910 0.62700 0.93519
 C818 C 0.76122 0.61322 0.92435
 C819 C 0.77485 0.59668 0.91158
 C820 C 0.78608 0.58224 0.90064
 C821 C 0.79878 0.56502 0.88781
 C822 C 0.80930 0.55008 0.87684
 C823 C 0.25126 0.37433 0.93553
 C824 C 0.23876 0.38826 0.92536
 C825 C 0.22454 0.40494 0.91344
 C826 C 0.21275 0.41942 0.90322
 C827 C 0.19931 0.43664 0.89117
 C828 C 0.18815 0.45150 0.88077
 C829 C 0.25736 0.62306 0.06669
 C830 C 0.24539 0.60945 0.07792
 C831 C 0.23144 0.59337 0.09096
 C832 C 0.21964 0.57946 0.10198
 C833 C 0.20598 0.56289 0.11472
 C834 C 0.19449 0.54848 0.12542
 C835 C 0.74824 0.37251 0.06592
 C836 C 0.76037 0.38631 0.07679
 C837 C 0.77409 0.40289 0.08950
 C838 C 0.78544 0.41737 0.10032
 C839 C 0.79835 0.43467 0.11292
 C840 C 0.80912 0.44970 0.12359
 C841 C 0.93651 0.74748 0.62647
 C842 C 0.92591 0.75975 0.61265
 C843 C 0.91343 0.77366 0.59613
 C844 C 0.90271 0.78518 0.58178
 C845 C 0.89008 0.79827 0.56471
 C846 C 0.87924 0.80916 0.54996
 C847 C 0.93621 0.25233 0.37390
 C848 C 0.92584 0.23993 0.38781
 C849 C 0.91364 0.22585 0.40443
 C850 C 0.90312 0.21419 0.41884
 C851 C 0.89066 0.20093 0.43594
 C852 C 0.87986 0.18992 0.45066
 C853 C 0.06562 0.25787 0.62259
 C854 C 0.07703 0.24615 0.60891
 C855 C 0.09033 0.23250 0.59278
 C856 C 0.10160 0.22094 0.57886
 C857 C 0.11468 0.20756 0.56235
 C858 C 0.12572 0.19628 0.54801
 C859 C 0.06478 0.74740 0.37304
 C860 C 0.07533 0.75974 0.38691
 C861 C 0.08765 0.77375 0.40354
 C862 C 0.09816 0.78539 0.41801
 C863 C 0.11046 0.79868 0.43525
 C864 C 0.12096 0.80977 0.45016
 C865 C 0.62201 0.93545 0.74270
 C866 C 0.60832 0.92408 0.75445
 C867 C 0.59222 0.91076 0.76812
 C868 C 0.57835 0.89941 0.77967
 C869 C 0.56191 0.88619 0.79304
 C870 C 0.54767 0.87499 0.80428
 C871 C 0.37685 0.93605 0.25524
 C872 C 0.39074 0.92529 0.24315
 C873 C 0.40710 0.91273 0.22908
 C874 C 0.42118 0.90203 0.21718
 C875 C 0.43784 0.88951 0.20343
 C876 C 0.45223 0.87880 0.19189
 C877 C 0.62166 0.06327 0.25542
 C878 C 0.60788 0.07414 0.24334
 C879 C 0.59167 0.08687 0.22926
 C880 C 0.57773 0.09774 0.21736
 C881 C 0.56124 0.11045 0.20360
 C882 C 0.54697 0.12127 0.19204
 C883 C 0.37402 0.06400 0.74947
 C884 C 0.38782 0.07468 0.76178
 C885 C 0.40435 0.08726 0.77570
 C886 C 0.41875 0.09804 0.78720
 C887 C 0.43591 0.11069 0.80028
 C888 C 0.45079 0.12147 0.81116
 C889 C 0.62568 0.74870 0.06416
 C890 C 0.61161 0.76090 0.07454
 C891 C 0.59479 0.77474 0.08673
 C892 C 0.58021 0.78622 0.09722
 C893 C 0.56293 0.79929 0.10963
 C894 C 0.54807 0.81016 0.12036
 C895 C 0.37497 0.25174 0.06304
 C896 C 0.38877 0.23946 0.07365
 C897 C 0.40525 0.22553 0.08615
 C898 C 0.41957 0.21398 0.09689
 C899 C 0.43658 0.20084 0.10956
 C900 C 0.45126 0.18991 0.12046
 C901 C 0.62694 0.25178 0.93570
 C902 C 0.61298 0.23963 0.92505
 C903 C 0.59624 0.22584 0.91261
 C904 C 0.58167 0.21440 0.90201
 C905 C 0.56432 0.20134 0.88962
 C906 C 0.54931 0.19043 0.87907
 C907 C 0.37812 0.74255 0.93499
 C908 C 0.39176 0.75429 0.92356
 C909 C 0.40783 0.76797 0.91021
 C910 C 0.42168 0.77955 0.89887
 C911 C 0.43810 0.79297 0.88568
 C912 C 0.45234 0.80427 0.87453
 C913 C 0.74514 0.93567 0.37884
 C914 C 0.75719 0.92475 0.39261
 C915 C 0.77120 0.91195 0.40882
 C916 C 0.78305 0.90105 0.42277
 C917 C 0.79674 0.88831 0.43930
 C918 C 0.80823 0.87748 0.45362
 C919 C 0.25040 0.93654 0.62531
 C920 C 0.23812 0.92599 0.61139
 C921 C 0.22422 0.91354 0.59474
 C922 C 0.21274 0.90285 0.58026
 C923 C 0.19968 0.89027 0.56304
 C924 C 0.18882 0.87949 0.54815
 C925 C 0.25573 0.06520 0.37698
 C926 C 0.24412 0.07659 0.39077
 C927 C 0.23065 0.08993 0.40701
 C928 C 0.21927 0.10127 0.42101
 C929 C 0.20611 0.11448 0.43761
 C930 C 0.19505 0.12567 0.45200
 C931 C 0.74377 0.06417 0.62105
 C932 C 0.75600 0.07483 0.60721
 C933 C 0.77025 0.08729 0.59092
 C934 C 0.78230 0.09791 0.57690
 C935 C 0.79621 0.11037 0.56032
 C936 C 0.80786 0.12105 0.54601
 C937 C 0.93457 0.62621 0.25220
 C938 C 0.92365 0.61246 0.24007
 C939 C 0.91087 0.59594 0.22634
 C940 C 0.90001 0.58152 0.21496
 C941 C 0.88736 0.56428 0.20200
 C942 C 0.87667 0.54930 0.19120
 C943 C 0.93377 0.37720 0.74320
 C944 C 0.92257 0.39083 0.75517
 C945 C 0.90958 0.40695 0.76909
 C946 C 0.89860 0.42091 0.78087
 C947 C 0.88592 0.43754 0.79450
 C948 C 0.87527 0.45201 0.80595
 C949 C 0.06337 0.62591 0.74963
 C950 C 0.07362 0.61200 0.76208
 C951 C 0.08565 0.59534 0.77623
 C952 C 0.09599 0.58087 0.78794
 C953 C 0.10820 0.56367 0.80126
 C954 C 0.11874 0.54882 0.81230
 C955 C 0.06428 0.37441 0.25199
 C956 C 0.07524 0.38811 0.23988
 C957 C 0.08815 0.40453 0.22622
 C958 C 0.09922 0.41884 0.21496
 C959 C 0.11220 0.43592 0.20220
 C960 C 0.12327 0.45074 0.19161
   
