data_POSCAR
  _audit_creation_date              2014-09-24
  _audit_creation_method            'ToBaCCo'
  _symmetry_space_group_name_H-M    'P1'
  _symmetry_Int_Tables_number       1
  _symmetry_cell_setting            triclinic
  loop_
  _symmetry_equiv_pos_as_xyz
 x,y,z
_cell_length_a 41.4175
_cell_length_b 41.2360
_cell_length_c 41.2360
_cell_angle_alpha 90.001800
_cell_angle_beta 90.002100
_cell_angle_gamma 90.001500
loop_
  _atom_site_label
  _atom_site_type_symbol
  _atom_site_fract_x
  _atom_site_fract_y
  _atom_site_fract_z
C1 C 0.20871 1.23365 0.18582
 C2 C 0.23264 1.20960 0.18602
 C3 C 0.23250 1.18590 0.20986
 C4 C 0.20843 1.18598 0.23377
 C5 C 0.18477 1.20976 0.23357
 C6 C 0.18491 1.23373 0.20946
 C7 C 0.20174 1.25839 0.16448
 N8 N 0.17446 1.27328 0.17480
 C9 C 0.16383 1.25852 0.20213
 C10 C 0.16350 1.20271 0.25827
 N11 N 0.17388 1.17540 0.27326
 C12 C 0.20118 1.16483 0.25859
 C13 C 0.25721 1.16466 0.20291
 N14 N 0.27216 1.17506 0.17562
 C15 C 0.25744 1.20238 0.16497
 H16 H 0.21494 1.26449 0.14264
 H17 H 0.14197 1.26474 0.21513
 H18 H 0.14167 1.21587 0.26428
 H19 H 0.21422 1.14295 0.26490
 H20 H 0.26330 1.14281 0.21612
 H21 H 0.26373 1.21542 0.14308
 C22 C 0.79178 0.76596 0.18586
 C23 C 0.76773 0.78990 0.18590
 C24 C 0.76767 0.81368 0.20965
 C25 C 0.79166 0.81381 0.23365
 C26 C 0.81544 0.79015 0.23361
 C27 C 0.81550 0.76609 0.20958
 C28 C 0.79895 0.74119 0.16463
 N29 N 0.82627 0.72648 0.17509
 C30 C 0.83672 0.74139 0.20241
 C31 C 0.83658 0.79739 0.25836
 N32 N 0.82603 0.82470 0.27321
 C33 C 0.79872 0.83508 0.25842
 C34 C 0.74287 0.83476 0.20255
 N35 N 0.72807 0.82419 0.17524
 C36 C 0.74296 0.79691 0.16474
 H37 H 0.78585 0.73495 0.14276
 H38 H 0.85858 0.73533 0.21550
 H39 H 0.85846 0.78436 0.26449
 H40 H 0.78555 0.85692 0.26461
 H41 H 0.73662 0.85663 0.21566
 H42 H 0.73681 0.78376 0.14287
 C43 C 0.79125 1.23366 -0.18557
 C44 C 0.76724 1.20969 -0.18557
 C45 C 0.76717 1.18591 -0.20933
 C46 C 0.79112 1.18583 -0.23337
 C47 C 0.81487 1.20952 -0.23337
 C48 C 0.81493 1.23358 -0.20933
 C49 C 0.79842 1.25844 -0.16435
 N50 N 0.82569 1.27320 -0.17485
 C51 C 0.83613 1.25831 -0.20219
 C52 C 0.83598 1.20232 -0.25815
 N53 N 0.82543 1.17500 -0.27300
 C54 C 0.79816 1.16458 -0.25815
 C55 C 0.74242 1.16479 -0.20219
 N56 N 0.72765 1.17533 -0.17485
 C57 C 0.74252 1.20263 -0.16437
 H58 H 0.78534 1.26466 -0.14247
 H59 H 0.85796 1.26442 -0.21532
 H60 H 0.85782 1.21538 -0.26433
 H61 H 0.78501 1.14272 -0.26433
 H62 H 0.73618 1.14291 -0.21530
 H63 H 0.73639 1.21577 -0.14249
 C64 C 0.20850 0.76658 -0.18626
 C65 C 0.23250 0.79056 -0.18627
 C66 C 0.23252 0.81437 -0.20998
 C67 C 0.20853 0.81449 -0.23398
 C68 C 0.18479 0.79079 -0.23398
 C69 C 0.18478 0.76669 -0.20998
 C70 C 0.20137 0.74176 -0.16508
 N71 N 0.17408 0.72701 -0.17556
 C72 C 0.16360 0.74194 -0.20286
 C73 C 0.16363 0.79803 -0.25871
 N74 N 0.17414 0.82538 -0.27353
 C75 C 0.20144 0.83579 -0.25871
 C76 C 0.25728 0.83550 -0.20285
 N77 N 0.27210 0.82492 -0.17556
 C78 C 0.25725 0.79760 -0.16510
 H79 H 0.21448 0.73551 -0.14322
 H80 H 0.14175 0.73586 -0.21596
 H81 H 0.14178 0.78497 -0.26487
 H82 H 0.21456 0.85766 -0.26487
 H83 H 0.26348 0.85740 -0.21594
 H84 H 0.26344 0.78443 -0.14324
 C85 C 0.54936 1.04456 -0.00986
 H86 H 0.55020 1.04453 0.01636
 C87 C 0.57121 1.06339 -0.02747
 H88 H 0.58889 1.07804 -0.01481
 C89 C 0.52589 1.02482 -0.05850
 H90 H 0.50865 1.00927 -0.07050
 C91 C 0.54733 1.04329 -0.07703
 H92 H 0.54634 1.04214 -0.10326
 N93 N 0.52717 1.02592 -0.02552
 C94 C 0.45064 1.00987 0.04532
 H95 H 0.44981 0.98364 0.04530
 C96 C 0.42878 1.02747 0.06414
 H97 H 0.41111 1.01481 0.07880
 C98 C 0.47407 1.05850 0.02554
 H99 H 0.49129 1.07050 0.00997
 C100 C 0.45262 1.07703 0.04400
 H101 H 0.45360 1.10326 0.04283
 Zn102 Zn 0.49998 0.99964 0.00036
 N103 N 0.47281 1.02552 0.02666
 C104 C 0.52595 0.97446 0.05919
 N105 N 0.52718 0.97335 0.02621
 C106 C 0.54935 0.95471 0.01053
 C107 C 0.57122 0.93588 0.02811
 C108 C 0.54742 0.95600 0.07770
 C109 C 0.45059 0.98947 -0.04454
 C110 C 0.42872 0.97189 -0.06338
 C111 C 0.45255 0.92230 -0.04330
 C112 C 0.47401 0.94081 -0.02483
 N113 N 0.47276 0.97379 -0.02592
 H114 H 0.50873 0.99002 0.07121
 H115 H 0.55015 0.95473 -0.01570
 H116 H 0.58889 0.92124 0.01542
 H117 H 0.54647 0.95716 0.10393
 H118 H 0.44977 1.01569 -0.04450
 H119 H 0.41104 0.98457 -0.07801
 H120 H 0.45352 0.89607 -0.04216
 H121 H 0.49125 0.92879 -0.00929
 C122 C 0.42975 1.06136 0.06342
 C123 C 0.57021 1.06269 -0.06135
 C124 C 0.42968 0.93801 -0.06269
 C125 C 0.57028 0.93659 0.06199
 C126 C -0.00986 0.54959 1.04454
 H127 H 0.01625 0.55047 1.04452
 C128 C -0.02742 0.57150 1.06340
 H129 H -0.01484 0.58926 1.07807
 C130 C -0.05824 0.52598 1.02477
 H131 H -0.07017 0.50866 1.00921
 C132 C -0.07673 0.54747 1.04326
 H133 H -0.10284 0.54643 1.04211
 N134 N -0.02541 0.52730 1.02588
 C135 C 0.04516 0.45045 1.00992
 H136 H 0.04517 0.44960 0.98370
 C137 C 0.06391 0.42854 1.02756
 H138 H 0.07854 0.41079 1.01493
 C139 C 0.02541 0.47402 1.05851
 H140 H 0.00989 0.49131 1.07049
 C141 C 0.04380 0.45251 1.07709
 H142 H 0.04262 0.45352 1.10331
 Zn143 Zn 0.00039 0.50001 0.99963
 N144 N 0.02656 0.47272 1.02554
 C145 C 0.05899 0.52607 0.97449
 N146 N 0.02616 0.52733 0.97336
 C147 C 0.01057 0.54960 0.95470
 C148 C 0.02809 0.57154 0.93586
 C149 C 0.07744 0.54760 0.95600
 C150 C -0.04429 0.45038 0.98938
 C151 C -0.06305 0.42845 0.97176
 C152 C -0.04302 0.45244 0.92221
 C153 C -0.02462 0.47396 0.94076
 N154 N -0.02573 0.47267 0.97374
 H155 H 0.07094 0.50877 0.99005
 H156 H -0.01554 0.55042 0.95472
 H157 H 0.01548 0.58928 0.92119
 H158 H 0.10355 0.54662 0.95716
 H159 H -0.04427 0.44954 1.01560
 H160 H -0.07765 0.41069 0.98442
 H161 H -0.04188 0.45344 0.89598
 H162 H -0.00914 0.49127 0.92876
 C163 C 0.06317 0.42955 1.06144
 C164 C -0.06115 0.57045 1.06270
 C165 C -0.06236 0.42946 0.93788
 C166 C 0.06183 0.57056 0.93657
 C167 C 1.04434 -0.00992 0.54954
 H168 H 1.04433 0.01630 0.55041
 C169 C 1.06310 -0.02757 0.57144
 H170 H 1.07771 -0.01494 0.58920
 C171 C 1.02464 -0.05852 0.52593
 H172 H 1.00913 -0.07049 0.50861
 C173 C 1.04304 -0.07709 0.54742
 H174 H 1.04188 -0.10332 0.54639
 N175 N 1.02576 -0.02554 0.52724
 C176 C 1.00985 0.04533 0.45039
 H177 H 0.98374 0.04533 0.44954
 C178 C 1.02740 0.06418 0.42848
 H179 H 1.01482 0.07886 0.41073
 C180 C 1.05824 0.02552 0.47395
 H181 H 1.07017 0.00994 0.49125
 C182 C 1.07672 0.04400 0.45245
 H183 H 1.10283 0.04283 0.45346
 Zn184 Zn 0.99962 0.00038 0.49995
 N185 N 1.02541 0.02666 0.47266
 C186 C 0.97460 0.05924 0.52601
 N187 N 0.97347 0.02626 0.52728
 C188 C 0.95489 0.01061 0.54954
 C189 C 0.93614 0.02822 0.57149
 C190 C 0.95622 0.07778 0.54755
 C191 C 0.98942 -0.04451 0.45033
 C192 C 0.97189 -0.06336 0.42840
 C193 C 0.92255 -0.04326 0.45239
 C194 C 0.94101 -0.02477 0.47391
 N195 N 0.97384 -0.02587 0.47262
 H196 H 0.99010 0.07124 0.50871
 H197 H 0.95490 -0.01561 0.55037
 H198 H 0.92154 0.01557 0.58923
 H199 H 0.95739 0.10401 0.54657
 H200 H 1.01553 -0.04447 0.44948
 H201 H 0.98449 -0.07802 0.41065
 H202 H 0.89643 -0.04213 0.45341
 H203 H 0.92906 -0.00922 0.49123
 C204 C 1.06114 0.06345 0.42949
 C205 C 1.06239 -0.06145 0.57040
 C206 C 0.93815 -0.06268 0.42942
 C207 C 0.93687 0.06211 0.57051
 C208 C 0.15922 0.29690 1.15924
 C209 C 0.14518 0.31813 1.14492
 C210 C 0.12844 0.34257 1.12784
 C211 C 0.11388 0.36307 1.11301
 C212 C 0.09654 0.38665 1.09535
 C213 C 0.08147 0.40642 1.08002
 C214 C -0.15831 0.70290 1.15966
 C215 C -0.14411 0.68169 1.14546
 C216 C -0.12716 0.65729 1.12853
 C217 C -0.11244 0.63682 1.11383
 C218 C -0.09489 0.61327 1.09632
 C219 C -0.07965 0.59354 1.08113
 C220 C -0.15891 0.29682 0.84056
 C221 C -0.14475 0.31805 0.85476
 C222 C -0.12788 0.34249 0.87172
 C223 C -0.11324 0.36299 0.88647
 C224 C -0.09581 0.38657 0.90405
 C225 C -0.08069 0.40633 0.91933
 C226 C 0.15871 0.70336 0.83982
 C227 C 0.14455 0.68210 0.85399
 C228 C 0.12767 0.65763 0.87087
 C229 C 0.11298 0.63710 0.88554
 C230 C 0.09548 0.61349 0.90301
 C231 C 0.08028 0.59371 0.91817
 C232 C 1.15841 0.16007 0.29687
 C233 C 1.14416 0.14594 0.31810
 C234 C 1.12718 0.12910 0.34253
 C235 C 1.11244 0.11446 0.36303
 C236 C 1.09487 0.09700 0.38661
 C237 C 1.07963 0.08185 0.40637
 C238 C 1.15880 -0.15911 0.70288
 C239 C 1.14468 -0.14483 0.68168
 C240 C 1.12785 -0.12780 0.65727
 C241 C 1.11324 -0.11299 0.63679
 C242 C 1.09583 -0.09535 0.61324
 C243 C 1.08072 -0.08003 0.59350
 C244 C 0.84135 -0.15981 0.29682
 C245 C 0.85547 -0.14556 0.31805
 C246 C 0.87233 -0.12859 0.34248
 C247 C 0.88700 -0.11386 0.36298
 C248 C 0.90449 -0.09632 0.38655
 C249 C 0.91969 -0.08111 0.40630
 C250 C 0.84071 0.15954 0.70335
 C251 C 0.85479 0.14529 0.68209
 C252 C 0.87156 0.12830 0.65761
 C253 C 0.88614 0.11354 0.63708
 C254 C 0.90350 0.09594 0.61346
 C255 C 0.91858 0.08065 0.59367
 C256 C 0.29715 1.15874 0.15955
 C257 C 0.31839 1.14451 0.14552
 C258 C 0.34284 1.12752 0.12878
 C259 C 0.36334 1.11276 0.11421
 C260 C 0.38691 1.09517 0.09685
 C261 C 0.40666 1.07990 0.08175
 C262 C 0.70268 1.15916 -0.15859
 C263 C 0.68146 1.14505 -0.14440
 C264 C 0.65704 1.12823 -0.12746
 C265 C 0.63656 1.11361 -0.11273
 C266 C 0.61301 1.09619 -0.09516
 C267 C 0.59329 1.08106 -0.07989
 C268 C 0.29709 0.84109 -0.15933
 C269 C 0.31833 0.85521 -0.14518
 C270 C 0.34277 0.87207 -0.12831
 C271 C 0.36327 0.88675 -0.11366
 C272 C 0.38684 0.90427 -0.09621
 C273 C 0.40659 0.91950 -0.08107
 C274 C 0.70304 0.84032 0.15902
 C275 C 0.68177 0.85439 0.14487
 C276 C 0.65730 0.87117 0.12797
 C277 C 0.63677 0.88576 0.11327
 C278 C 0.61317 0.90315 0.09574
 C279 C 0.59340 0.91825 0.08050
   
