data_POSCAR
  _audit_creation_date              2014-09-24
  _audit_creation_method            'ToBaCCo'
  _symmetry_space_group_name_H-M    'P1'
  _symmetry_Int_Tables_number       1
  _symmetry_cell_setting            triclinic
  loop_
  _symmetry_equiv_pos_as_xyz
 x,y,z
_cell_length_a 25.5164
_cell_length_b 26.7117
_cell_length_c 24.9947
_cell_angle_alpha 88.309400
_cell_angle_beta 89.272400
_cell_angle_gamma 90.080800
loop_
  _atom_site_label
  _atom_site_type_symbol
  _atom_site_fract_x
  _atom_site_fract_y
  _atom_site_fract_z
C1 C 0.20716 0.19928 0.26757
 C2 C 0.25241 0.17776 0.24412
 C3 C 0.27472 0.19813 0.19632
 C4 C 0.25291 0.24178 0.17379
 C5 C 0.20763 0.26336 0.19500
 C6 C 0.18498 0.24213 0.24209
 H7 H 0.26839 0.14375 0.26091
 H8 H 0.26965 0.25769 0.13692
 H9 H 0.14916 0.25772 0.25809
 C10 C -0.12072 0.87049 0.17988
 C11 C -0.16203 0.88906 0.14874
 C12 C -0.18179 0.86177 0.10674
 C13 C -0.15830 0.81660 0.09299
 C14 C -0.11471 0.79868 0.12173
 C15 C -0.09680 0.82520 0.16572
 H16 H -0.18050 0.92434 0.15833
 H17 H -0.17240 0.79720 0.05855
 H18 H -0.06296 0.81127 0.18716
 C19 C -0.19699 0.17573 -0.25301
 C20 C -0.17126 0.20576 -0.21628
 C21 C -0.19192 0.21287 -0.16504
 C22 C -0.24006 0.19138 -0.15044
 C23 C -0.26885 0.16318 -0.18707
 C24 C -0.24616 0.15454 -0.23798
 H25 H -0.13332 0.22203 -0.22653
 H26 H -0.25353 0.19601 -0.10972
 H27 H -0.26723 0.13150 -0.26534
 C28 C 0.13549 0.81584 -0.22598
 C29 C 0.16967 0.84740 -0.19919
 C30 C 0.20272 0.82900 -0.15903
 C31 C 0.19994 0.77782 -0.14424
 C32 C 0.16560 0.74523 -0.16976
 C33 C 0.13406 0.76435 -0.21183
 H34 H 0.17191 0.88670 -0.21130
 H35 H 0.22298 0.76296 -0.11145
 H36 H 0.10696 0.74027 -0.23191
 C37 C 0.19449 1.18522 0.75263
 C38 C 0.17345 1.23278 0.76194
 C39 C 0.19507 1.26337 0.80107
 C40 C 0.23954 1.24617 0.82893
 C41 C 0.26179 1.19916 0.81913
 C42 C 0.23838 1.16864 0.78124
 H43 H 0.13759 1.24332 0.74201
 H44 H 0.25578 1.26871 0.86009
 H45 H 0.25225 1.13079 0.77589
 C46 C 0.87037 0.86754 0.81792
 C47 C 0.89088 0.81949 0.82752
 C48 C 0.87174 0.78853 0.86974
 C49 C 0.83063 0.80600 0.90255
 C50 C 0.81229 0.85514 0.89491
 C51 C 0.83302 0.88587 0.85369
 H52 H 0.92277 0.80608 0.80282
 H53 H 0.81496 0.78335 0.93563
 H54 H 0.81765 0.92349 0.84785
 C55 C 0.14647 0.83199 1.21466
 C56 C 0.19511 0.83728 1.18838
 C57 C 0.21561 0.79921 1.15702
 C58 C 0.18637 0.75548 1.15020
 C59 C 0.13751 0.74875 1.17657
 C60 C 0.11791 0.78718 1.20863
 H61 H 0.21747 0.87158 1.19205
 H62 H 0.20152 0.72751 1.12368
 H63 H 0.07953 0.78235 1.22694
 C64 C 0.78953 1.17467 1.26073
 C65 C 0.82306 1.20950 1.23407
 C66 C 0.81082 1.23069 1.18384
 C67 C 0.76369 1.21670 1.15971
 C68 C 0.73044 1.18042 1.18402
 C69 C 0.74377 1.15953 1.23461
 H70 H 0.86053 1.21891 1.25085
 H71 H 0.75409 1.23122 1.12019
 H72 H 0.71938 1.13096 1.25373
 O73 O 0.54114 0.91246 0.93731
 O74 O 0.43972 0.90344 1.08308
 O75 O 0.59901 0.96140 1.05004
 O76 O 0.38721 0.96218 0.94433
 O77 O 0.54162 0.90453 1.07302
 O78 O 0.44852 0.91053 0.93134
 O79 O 0.38089 0.95026 1.04195
 O80 O 0.59929 0.96682 0.95377
 C81 C 0.58787 0.92284 0.94271
 C82 C 0.39330 0.91153 1.06908
 C83 C 0.58820 0.91692 1.06445
 C84 C 0.40116 0.91866 0.93489
 O85 O 0.44867 1.00765 0.89106
 O86 O 0.54019 0.99570 1.11464
 O87 O 0.55073 1.05741 0.95752
 O88 O 0.40522 1.04451 1.05585
 O89 O 0.44325 0.99547 1.11566
 O90 O 0.54349 1.00730 0.89342
 O91 O 0.42299 1.05516 0.95499
 O92 O 0.55693 1.05320 1.05492
 Co93 Co 0.49499 0.96148 0.92053
 Co94 Co 0.49170 0.95244 1.08726
 Co95 Co 0.56940 1.00743 1.00358
 Co96 Co 0.40782 1.00131 0.99909
 O97 O 0.49071 0.98084 1.00312
 C98 C 0.42917 1.04839 0.90616
 C99 C 0.55610 1.03914 1.10271
 C100 C 0.55627 1.04959 0.90918
 C101 C 0.41517 1.03287 1.10363
 O102 O 0.01261 0.44804 0.10450
 O103 O 0.02232 0.52546 -0.12907
 O104 O 0.06988 0.41152 -0.05145
 O105 O 0.07998 0.54779 0.02767
 O106 O 0.02287 0.43473 -0.11958
 O107 O 0.02230 0.54044 0.09119
 O108 O 0.07842 0.53490 -0.06851
 O109 O 0.05755 0.40282 0.04895
 C110 C 0.04762 0.41617 0.09548
 C111 C 0.06710 0.53914 -0.11651
 C112 C 0.06488 0.41658 -0.10073
 C113 C 0.06791 0.55241 0.07543
 O114 O -0.07534 0.54433 0.05106
 O115 O -0.07874 0.44103 -0.07931
 O116 O -0.04345 0.38600 0.03565
 O117 O -0.01486 0.58387 -0.07270
 O118 O -0.07455 0.52941 -0.08371
 O119 O -0.08406 0.44975 0.07221
 O120 O -0.01343 0.59395 0.02273
 O121 O -0.02837 0.38053 -0.06225
 Co122 Co -0.02858 0.49517 0.07051
 Co123 Co -0.02466 0.48253 -0.09565
 Co124 Co 0.01252 0.40403 -0.00823
 Co125 Co 0.02980 0.55853 -0.02232
 O126 O -0.00232 0.48487 -0.01325
 C127 C -0.05949 0.58741 0.04024
 C128 C -0.07136 0.39579 -0.07895
 C129 C -0.08179 0.40425 0.06124
 C130 C -0.06219 0.57386 -0.07901
 O131 O 1.10092 0.03781 0.44057
 O132 O 0.87972 0.01838 0.53709
 O133 O 0.94221 0.07625 0.43079
 O134 O 1.03333 0.08048 0.58185
 O135 O 0.88623 0.01737 0.44120
 O136 O 1.09908 0.04518 0.53935
 O137 O 0.93376 0.07587 0.56202
 O138 O 1.03580 0.08549 0.42630
 C139 C 1.08360 0.07937 0.42466
 C140 C 0.88773 0.06088 0.55654
 C141 C 0.89613 0.06195 0.42798
 C142 C 1.08106 0.07830 0.56956
 O143 O 1.08212 -0.05172 0.55243
 O144 O 0.94154 -0.07070 0.44765
 O145 O 1.04472 -0.00928 0.38673
 O146 O 0.93555 -0.01655 0.60149
 O147 O 0.93080 -0.07253 0.54354
 O148 O 1.07191 -0.05805 0.45143
 O149 O 1.03110 -0.01455 0.61051
 O150 O 0.95070 -0.01465 0.38617
 Co151 Co 1.07939 -0.00549 0.49547
 Co152 Co 0.91659 -0.02390 0.49253
 Co153 Co 0.99340 0.03238 0.41460
 Co154 Co 0.98410 0.02951 0.57987
 O155 O 0.99406 0.00806 0.49619
 C156 C 1.06379 -0.04819 0.59895
 C157 C 0.94523 -0.05978 0.39933
 C158 C 1.06133 -0.05149 0.40331
 C159 C 0.93255 -0.06164 0.59119
 C160 C 1.18046 0.17712 0.31249
 C161 C 1.19814 0.13772 0.34225
 C162 C 1.16653 0.10785 0.38210
 C163 C 1.11650 0.11691 0.39557
 H164 H 1.23720 0.12346 0.33626
 H165 H 1.18484 0.07401 0.39780
 H166 H 1.14249 0.19247 0.32221
 H167 H 1.09691 0.15030 0.38090
 C168 C 0.89545 -0.10099 0.22289
 C169 C 0.92379 -0.11801 0.26432
 C170 C 0.93573 -0.08318 0.30678
 C171 C 0.93935 -0.09764 0.35823
 H172 H 0.93481 -0.15698 0.26902
 H173 H 0.93761 -0.04363 0.29571
 H174 H 0.88101 -0.06279 0.22440
 H175 H 0.93549 -0.13680 0.37021
 C176 C 0.82984 0.16670 0.69843
 C177 C 0.81449 0.13649 0.65958
 C178 C 0.85284 0.12337 0.61734
 C179 C 0.84389 0.08677 0.58321
 H180 H 0.77686 0.11784 0.66104
 H181 H 0.89185 0.13940 0.61898
 H182 H 0.86827 0.18385 0.69325
 H183 H 0.80529 0.06987 0.58198
 C184 C 1.10345 -0.16231 0.73001
 C185 C 1.08129 -0.11697 0.73478
 C186 C 1.05995 -0.08609 0.69021
 C187 C 1.08058 -0.08505 0.64059
 H188 H 1.08006 -0.10017 0.77371
 H189 H 1.03072 -0.05860 0.70072
 H190 H 1.10084 -0.18202 0.69290
 H191 H 1.11167 -0.11083 0.63050
 C192 C 0.31457 1.17472 1.16646
 C193 C 0.33740 1.13076 1.17864
 C194 C 0.36898 1.10597 1.13742
 C195 C 0.39201 1.06188 1.14708
 H196 H 0.33039 1.11093 1.21633
 H197 H 0.37052 1.12258 1.09729
 H198 H 0.32550 1.19233 1.12818
 H199 H 0.39180 1.04560 1.18732
 C200 C 0.23691 0.86305 0.86457
 C201 C 0.27793 0.85035 0.89489
 C202 C 0.31347 0.88951 0.91288
 C203 C 0.36348 0.87917 0.92307
 H204 H 0.28852 0.81167 0.90270
 H205 H 0.29964 0.92786 0.91384
 H206 H 0.23170 0.90261 0.85474
 H207 H 0.37789 0.84123 0.91948
 C208 C 0.77397 0.88285 1.07704
 C209 C 0.72568 0.86413 1.08326
 C210 C 0.68086 0.89536 1.06745
 C211 C 0.63104 0.88143 1.07602
 H212 H 0.71930 0.82872 1.10470
 H213 H 0.68923 0.93246 1.05069
 H214 H 0.77948 0.91970 1.05841
 H215 H 0.62189 0.84462 1.09302
 C216 C 0.68227 1.14095 0.82704
 C217 C 0.65312 1.15437 0.86970
 C218 C 0.60839 1.12583 0.89357
 C219 C 0.58753 1.08408 0.87424
 H220 H 0.66377 1.18681 0.89196
 H221 H 0.59566 1.13780 0.93269
 H222 H 0.66811 1.11152 0.80214
 H223 H 0.59850 1.07143 0.83498
 C224 C 0.18313 0.30382 0.16182
 C225 C 0.14081 0.33074 0.17451
 C226 C 0.11692 0.36256 0.13212
 C227 C 0.07593 0.39248 0.14076
 H228 H 0.12245 0.32754 0.21370
 H229 H 0.13186 0.35923 0.09155
 H230 H 0.20008 0.31025 0.12214
 H231 H 0.06115 0.39728 0.18112
 C232 C -0.16195 0.24115 -0.12577
 C233 C -0.14195 0.28604 -0.13889
 C234 C -0.10976 0.31439 -0.10191
 C235 C -0.10806 0.36412 -0.10737
 H236 H -0.15007 0.30279 -0.17799
 H237 H -0.08671 0.29489 -0.07174
 H238 H -0.15794 0.22579 -0.08541
 H239 H -0.13389 0.38284 -0.13569
 C240 C 0.16127 0.69328 -0.14675
 C241 C 0.13846 0.65434 -0.16973
 C242 C 0.12894 0.60760 -0.13760
 C243 C 0.09696 0.57190 -0.15463
 H244 H 0.12320 0.65797 -0.20986
 H245 H 0.14168 0.60604 -0.09638
 H246 H 0.17664 0.68718 -0.10679
 H247 H 0.08324 0.57431 -0.19550
 C248 C -0.08439 0.75487 0.10440
 C249 C -0.10551 0.71659 0.07908
 C250 C -0.07237 0.67474 0.06271
 C251 C -0.09300 0.63019 0.05261
 H252 H -0.14729 0.71510 0.07209
 H253 H -0.03016 0.67980 0.06143
 H254 H -0.04311 0.75349 0.11427
 H255 H -0.13488 0.62417 0.05700
 C256 C 1.16496 0.14906 0.72128
 C257 C 1.15052 0.15813 0.67072
 C258 C 1.11525 0.12282 0.64483
 C259 C 1.11704 0.11482 0.59231
 H260 H 1.16393 0.19157 0.64903
 H261 H 1.08799 0.10133 0.67009
 H262 H 1.15444 0.11368 0.74099
 H263 H 1.14715 0.13226 0.56711
 C264 C 0.88555 -0.10214 0.77377
 C265 C 0.90851 -0.11924 0.72942
 C266 C 0.91936 -0.08423 0.68474
 C267 C 0.92550 -0.09921 0.63455
 H268 H 0.91584 -0.15865 0.72399
 H269 H 0.91990 -0.04460 0.69310
 H270 H 0.87434 -0.06293 0.77388
 H271 H 0.92354 -0.13856 0.62537
 C272 C 1.12855 -0.12762 0.24497
 C273 C 1.09009 -0.13027 0.28184
 C274 C 1.07851 -0.08666 0.31467
 C275 C 1.07010 -0.09312 0.36714
 H276 H 1.07089 -0.16538 0.29239
 H277 H 1.08089 -0.04925 0.29678
 H278 H 1.14981 -0.09242 0.24085
 H279 H 1.07198 -0.13057 0.38498
 C280 C 0.80328 0.15137 0.31012
 C281 C 0.84044 0.16941 0.34231
 C282 C 0.86763 0.14044 0.38489
 C283 C 0.85678 0.09307 0.40015
 H284 H 0.85621 0.20657 0.33502
 H285 H 0.90259 0.15793 0.40003
 H286 H 0.78353 0.11676 0.32153
 H287 H 0.82150 0.07474 0.38734
 C288 C 0.16821 0.30923 -0.17984
 C289 C 0.12879 0.33313 -0.20532
 C290 C 0.09418 0.37073 -0.17989
 C291 C 0.10550 0.39384 -0.13457
 H292 H 0.11724 0.32161 -0.24452
 H293 H 0.05565 0.37577 -0.19695
 H294 H 0.17946 0.32098 -0.14064
 H295 H 0.14374 0.38970 -0.11693
 C296 C -0.15179 0.26254 0.15856
 C297 C -0.16073 0.29318 0.11633
 C298 C -0.11763 0.32404 0.09384
 C299 C -0.12545 0.37167 0.07877
 H300 H -0.19965 0.29859 0.10054
 H301 H -0.07823 0.30882 0.09382
 H302 H -0.11295 0.26383 0.17578
 H303 H -0.16397 0.38816 0.08356
 C304 C -0.10272 0.74279 -0.12138
 C305 C -0.12046 0.70432 -0.09101
 C306 C -0.08516 0.66174 -0.08315
 C307 C -0.10107 0.61422 -0.08373
 H308 H -0.15953 0.70334 -0.07367
 H309 H -0.04366 0.67016 -0.08048
 H310 H -0.06537 0.73776 -0.14197
 H311 H -0.14213 0.60519 -0.08847
 C312 C 0.10388 0.70422 0.16798
 C313 C 0.12217 0.65988 0.15235
 C314 C 0.08591 0.62007 0.13611
 C315 C 0.10354 0.58114 0.10865
 H316 H 0.16393 0.65381 0.14804
 H317 H 0.04401 0.62610 0.14008
 H318 H 0.06194 0.70863 0.17362
 H319 H 0.14527 0.57754 0.10103
 C320 C 0.30437 1.18004 0.85431
 C321 C 0.33876 1.14481 0.83995
 C322 C 0.37339 1.12028 0.87981
 C323 C 0.40564 1.08308 0.86611
 H324 H 0.33924 1.13162 0.79938
 H325 H 0.36855 1.12933 0.92159
 H326 H 0.30623 1.19442 0.89437
 H327 H 0.40967 1.07380 0.82432
 C328 C 0.26625 0.80742 1.12889
 C329 C 0.30803 0.82373 1.15533
 C330 C 0.35486 0.84604 1.12887
 C331 C 0.35094 0.87685 1.08590
 H332 H 0.30677 0.82381 1.19868
 H333 H 0.39119 0.84456 1.15081
 H334 H 0.26806 0.80325 1.08593
 H335 H 0.31326 0.88203 1.06700
 C336 C 0.68535 1.16273 1.15224
 C337 C 0.64921 1.12917 1.16911
 C338 C 0.61245 1.10814 1.13046
 C339 C 0.58180 1.06891 1.14370
 H340 H 0.64853 1.11449 1.20986
 H341 H 0.61445 1.12167 1.08914
 H342 H 0.68343 1.17640 1.11100
 H343 H 0.58090 1.05447 1.18469
 C344 C 0.77091 0.87612 0.92848
 C345 C 0.72118 0.86212 0.92296
 C346 C 0.67913 0.89609 0.93923
 C347 C 0.62871 0.88569 0.93156
 H348 H 0.71181 0.82914 0.90064
 H349 H 0.68996 0.93198 0.95504
 H350 H 0.77961 0.91087 0.94795
 H351 H 0.61736 0.84996 0.91578
   
