data_POSCAR
  _audit_creation_date              2014-09-24
  _audit_creation_method            'ToBaCCo'
  _symmetry_space_group_name_H-M    'P1'
  _symmetry_Int_Tables_number       1
  _symmetry_cell_setting            triclinic
  loop_
  _symmetry_equiv_pos_as_xyz
 x,y,z
_cell_length_a 53.1585
_cell_length_b 51.6116
_cell_length_c 52.6062
_cell_angle_alpha 89.707700
_cell_angle_beta 89.946400
_cell_angle_gamma 89.831500
loop_
  _atom_site_label
  _atom_site_type_symbol
  _atom_site_fract_x
  _atom_site_fract_y
  _atom_site_fract_z
N1 N 0.59748 0.66661 0.61109
 N2 N 0.58746 0.65580 0.63141
 C3 C 0.56697 0.66949 0.63835
 C4 C 0.56418 0.68979 0.62148
 C5 C 0.58373 0.68752 0.60442
 H6 H 0.55498 0.66510 0.65441
 H7 H 0.58764 0.70009 0.58840
 Cu8 Cu 0.60222 0.62492 0.64671
 Cu9 Cu 0.62754 0.65277 0.59482
 Cu10 Cu 0.65413 0.59768 0.62184
 N11 N 0.61727 0.59405 0.66172
 N12 N 0.63762 0.58349 0.65188
 C13 C 0.64416 0.56255 0.66579
 C14 C 0.62696 0.56002 0.68524
 C15 C 0.61015 0.58017 0.68226
 H16 H 0.66018 0.55017 0.66206
 H17 H 0.59405 0.58436 0.69414
 N18 N 0.66805 0.61489 0.59142
 N19 N 0.65794 0.63589 0.58114
 C20 C 0.67169 0.64295 0.56072
 C21 C 0.69121 0.62558 0.55818
 C22 C 0.68849 0.60806 0.57780
 H23 H 0.66783 0.65946 0.54858
 H24 H 0.70050 0.59159 0.58178
 H25 H 0.62243 0.61480 0.60632
 H26 H 0.64246 0.63553 0.62702
 N27 N 0.90337 0.33436 0.11054
 N28 N 0.91373 0.34536 0.13046
 C29 C 0.93425 0.33164 0.13738
 C30 C 0.93669 0.31116 0.12086
 C31 C 0.91692 0.31331 0.10406
 H32 H 0.94646 0.33614 0.15318
 H33 H 0.91271 0.30056 0.08839
 Cu34 Cu 0.89937 0.37645 0.14546
 Cu35 Cu 0.87310 0.34811 0.09455
 Cu36 Cu 0.84649 0.40290 0.12151
 N37 N 0.88386 0.40682 0.16071
 N38 N 0.86318 0.41707 0.15126
 C39 C 0.85646 0.43769 0.16533
 C40 C 0.87388 0.44037 0.18451
 C41 C 0.89100 0.42059 0.18116
 H42 H 0.84016 0.44980 0.16192
 H43 H 0.90734 0.41657 0.19278
 N44 N 0.83238 0.38576 0.09136
 N45 N 0.84250 0.36486 0.08110
 C46 C 0.82864 0.35783 0.06085
 C47 C 0.80902 0.37512 0.05840
 C48 C 0.81182 0.39257 0.07789
 H49 H 0.83249 0.34141 0.04875
 H50 H 0.79977 0.40898 0.08189
 H51 H 0.87806 0.38616 0.10545
 H52 H 0.85882 0.36523 0.12698
 N53 N 0.40345 0.16584 -0.11047
 N54 N 0.41373 0.15486 -0.13048
 C55 C 0.43424 0.16845 -0.13742
 C56 C 0.43680 0.18885 -0.12084
 C57 C 0.41707 0.18675 -0.10397
 H58 H 0.44639 0.16396 -0.15331
 H59 H 0.41293 0.19947 -0.08823
 Cu60 Cu 0.39924 0.12398 -0.14558
 Cu61 Cu 0.37318 0.15229 -0.09440
 Cu62 Cu 0.34634 0.09789 -0.12153
 N63 N 0.38362 0.09383 -0.16091
 N64 N 0.36291 0.08373 -0.15143
 C65 C 0.35611 0.06324 -0.16557
 C66 C 0.37348 0.06048 -0.18482
 C67 C 0.39068 0.08008 -0.18144
 H68 H 0.33977 0.05127 -0.16214
 H69 H 0.40702 0.08398 -0.19309
 N70 N 0.33236 0.11500 -0.09123
 N71 N 0.34257 0.13574 -0.08090
 C72 C 0.32877 0.14279 -0.06056
 C73 C 0.30909 0.12568 -0.05814
 C74 C 0.31179 0.10832 -0.07773
 H75 H 0.33270 0.15910 -0.04839
 H76 H 0.29968 0.09206 -0.08178
 H77 H 0.37801 0.11424 -0.10552
 H78 H 0.35877 0.13546 -0.12685
 N79 N 0.09727 0.83175 0.38885
 N80 N 0.08763 0.84215 0.36814
 C81 C 0.06730 0.82840 0.36110
 C82 C 0.06426 0.80847 0.37835
 C83 C 0.08346 0.81102 0.39572
 H84 H 0.05559 0.83253 0.34477
 H85 H 0.08708 0.79880 0.41208
 Cu86 Cu 0.10251 0.87269 0.35244
 Cu87 Cu 0.12692 0.84589 0.40541
 Cu88 Cu 0.15325 0.90093 0.37840
 N89 N 0.11719 0.90388 0.33783
 N90 N 0.13705 0.91482 0.34807
 C91 C 0.14332 0.93593 0.33433
 C92 C 0.12646 0.93821 0.31456
 C93 C 0.11012 0.91770 0.31722
 H94 H 0.15893 0.94865 0.33838
 H95 H 0.09435 0.91325 0.30505
 N96 N 0.16695 0.88401 0.40908
 N97 N 0.15693 0.86302 0.41936
 C98 C 0.17050 0.85613 0.43995
 C99 C 0.18982 0.87362 0.44260
 C100 C 0.18714 0.89102 0.42287
 H101 H 0.16670 0.83965 0.45211
 H102 H 0.19906 0.90749 0.41889
 H103 H 0.12137 0.88363 0.39322
 H104 H 0.14239 0.86288 0.37337
 C105 C 0.10385 0.12544 0.14445
 C106 C 0.08477 0.14426 0.14368
 C107 C 0.08455 0.16309 0.12441
 C108 C 0.10337 0.16327 0.10576
 C109 C 0.12259 0.14460 0.10624
 C110 C 0.12287 0.12558 0.12567
 C111 C 0.10427 0.10648 0.16366
 C112 C 0.12345 0.08782 0.16426
 C113 C 0.14233 0.08792 0.14567
 C114 C 0.14219 0.10671 0.12631
 C115 C 0.16099 0.10699 0.10759
 C116 C 0.16066 0.12586 0.08836
 C117 C 0.14155 0.14459 0.08767
 H118 H 0.07010 0.14431 0.15804
 H119 H 0.10301 0.17794 0.09092
 H120 H 0.08974 0.10622 0.17815
 H121 H 0.15710 0.07337 0.14631
 H122 H 0.17588 0.09257 0.10794
 H123 H 0.14148 0.15912 0.07270
 C124 C 0.39488 0.87524 0.64494
 C125 C 0.41409 0.85657 0.64412
 C126 C 0.41429 0.83780 0.62498
 C127 C 0.39533 0.83753 0.60652
 C128 C 0.37599 0.85607 0.60705
 C129 C 0.37572 0.87503 0.62634
 C130 C 0.39447 0.89412 0.66403
 C131 C 0.37518 0.91266 0.66466
 C132 C 0.35617 0.91250 0.64625
 C133 C 0.35630 0.89377 0.62702
 C134 C 0.33737 0.89343 0.60847
 C135 C 0.33769 0.87461 0.58937
 C136 C 0.35690 0.85600 0.58865
 H137 H 0.42887 0.85659 0.65833
 H138 H 0.39567 0.82290 0.59179
 H139 H 0.40910 0.89443 0.67839
 H140 H 0.34133 0.92696 0.64692
 H141 H 0.32240 0.90775 0.60883
 H142 H 0.35696 0.84152 0.57378
 C143 C 0.89610 0.62502 0.35521
 C144 C 0.91528 0.64361 0.35602
 C145 C 0.91556 0.66224 0.37529
 C146 C 0.89671 0.66244 0.39391
 C147 C 0.87740 0.64398 0.39340
 C148 C 0.87706 0.62517 0.37398
 C149 C 0.89560 0.60628 0.33599
 C150 C 0.87635 0.58783 0.33538
 C151 C 0.85745 0.58792 0.35396
 C152 C 0.85766 0.60651 0.37332
 C153 C 0.83885 0.60679 0.39203
 C154 C 0.83924 0.62545 0.41126
 C155 C 0.85843 0.64399 0.41195
 H156 H 0.92997 0.64364 0.34169
 H157 H 0.89711 0.67696 0.40873
 H158 H 0.91014 0.60603 0.32151
 H159 H 0.84263 0.57353 0.35330
 H160 H 0.82390 0.59253 0.39168
 H161 H 0.85854 0.65836 0.42693
 C162 C 0.60478 0.37475 -0.14484
 C163 C 0.58578 0.35595 -0.14405
 C164 C 0.58548 0.33728 -0.12463
 C165 C 0.60415 0.33723 -0.10586
 C166 C 0.62330 0.35587 -0.10636
 C167 C 0.62365 0.37473 -0.12593
 C168 C 0.60527 0.39355 -0.16418
 C169 C 0.62434 0.41221 -0.16479
 C170 C 0.64308 0.41223 -0.14608
 C171 C 0.64287 0.39359 -0.12659
 C172 C 0.66152 0.39344 -0.10774
 C173 C 0.66112 0.37472 -0.08837
 C174 C 0.64210 0.35600 -0.08767
 H175 H 0.57123 0.35581 -0.15850
 H176 H 0.60374 0.32268 -0.09091
 H177 H 0.59085 0.39371 -0.17876
 H178 H 0.65777 0.42677 -0.14673
 H179 H 0.67634 0.40784 -0.10810
 H180 H 0.64198 0.34159 -0.07259
 C181 C 0.02885 0.21808 0.12279
 C182 C 0.01303 0.22145 0.14420
 C183 C -0.00618 0.24067 0.14373
 C184 C -0.00946 0.25640 0.12184
 C185 C 0.00630 0.25297 0.10040
 C186 C 0.02552 0.23376 0.10088
 C187 C 0.04107 0.23072 0.07923
 C188 C 0.03771 0.24620 0.05771
 C189 C 0.01891 0.26496 0.05723
 C190 C 0.00334 0.26840 0.07828
 C191 C -0.02174 0.24368 0.16536
 C192 C -0.01843 0.22814 0.18685
 C193 C 0.00035 0.20935 0.18731
 C194 C 0.01596 0.20596 0.16629
 C195 C -0.02897 0.27616 0.12143
 C196 C -0.04513 0.29260 0.12114
 C197 C 0.04857 0.19855 0.12334
 C198 C 0.06496 0.18237 0.12382
 H199 H 0.05595 0.21638 0.07869
 H200 H 0.04976 0.24360 0.04131
 H201 H 0.01637 0.27693 0.04047
 H202 H -0.01103 0.28325 0.07699
 H203 H -0.03661 0.25803 0.16592
 H204 H -0.03051 0.23070 0.20323
 H205 H 0.00284 0.19733 0.20405
 H206 H 0.03029 0.19108 0.16756
 C207 C 0.47037 0.78325 0.62315
 C208 C 0.46853 0.76196 0.60639
 C209 C 0.48786 0.74288 0.60591
 C210 C 0.50893 0.74520 0.62219
 C211 C 0.51081 0.76654 0.63888
 C212 C 0.49148 0.78562 0.63936
 C213 C 0.49377 0.80677 0.65623
 C214 C 0.51457 0.80900 0.67216
 C215 C 0.53347 0.79035 0.67169
 C216 C 0.53172 0.76932 0.65528
 C217 C 0.48558 0.72175 0.58901
 C218 C 0.46480 0.71955 0.57305
 C219 C 0.44590 0.73821 0.57352
 C220 C 0.44764 0.75921 0.58996
 C221 C 0.52857 0.72559 0.62185
 C222 C 0.54485 0.70927 0.62164
 C223 C 0.45053 0.80263 0.62378
 C224 C 0.43402 0.81868 0.62432
 H225 H 0.47955 0.82177 0.65729
 H226 H 0.51602 0.82530 0.68494
 H227 H 0.54959 0.79218 0.68410
 H228 H 0.54690 0.75532 0.65560
 H229 H 0.49980 0.70675 0.58795
 H230 H 0.46336 0.70327 0.56025
 H231 H 0.42980 0.73641 0.56108
 H232 H 0.43246 0.77323 0.58962
 C233 C 0.97158 0.71652 0.37703
 C234 C 0.96926 0.73836 0.39306
 C235 C 0.98859 0.75734 0.39347
 C236 C 1.01012 0.75436 0.37788
 C237 C 1.01248 0.73245 0.36194
 C238 C 0.99316 0.71348 0.36152
 C239 C 0.99594 0.69176 0.34542
 C240 C 1.01721 0.68886 0.33018
 C241 C 1.03610 0.70741 0.33060
 C242 C 1.03387 0.72900 0.34625
 C243 C 0.98583 0.77901 0.40963
 C244 C 0.96460 0.78186 0.42493
 C245 C 0.94572 0.76330 0.42453
 C246 C 0.94792 0.74176 0.40881
 C247 C 1.02974 0.77387 0.37812
 C248 C 1.04599 0.79012 0.37826
 C249 C 0.95175 0.69724 0.37645
 C250 C 0.93526 0.68127 0.37593
 H251 H 0.98175 0.67681 0.34444
 H252 H 1.01903 0.67212 0.31799
 H253 H 1.05259 0.70507 0.31873
 H254 H 1.04907 0.74289 0.34592
 H255 H 1.00002 0.79396 0.41062
 H256 H 0.96281 0.79856 0.43718
 H257 H 0.92927 0.76560 0.43646
 H258 H 0.93273 0.72785 0.40916
 C259 C 0.52994 0.28246 -0.12298
 C260 C 0.52390 0.26972 -0.09988
 C261 C 0.50471 0.25059 -0.09937
 C262 C 0.49169 0.24431 -0.12198
 C263 C 0.49771 0.25708 -0.14507
 C264 C 0.51688 0.27622 -0.14557
 C265 C 0.52257 0.28872 -0.16888
 C266 C 0.50969 0.28248 -0.19108
 C267 C 0.49096 0.26376 -0.19059
 C268 C 0.48495 0.25115 -0.16791
 C269 C 0.49900 0.23812 -0.07605
 C270 C 0.51190 0.24435 -0.05387
 C271 C 0.53066 0.26304 -0.05436
 C272 C 0.53668 0.27564 -0.07705
 C273 C 0.47218 0.22466 -0.12150
 C274 C 0.45602 0.20833 -0.12117
 C275 C 0.54961 0.30192 -0.12352
 C276 C 0.56596 0.31805 -0.12401
 H277 H 0.53699 0.30342 -0.17022
 H278 H 0.51429 0.29223 -0.20874
 H279 H 0.48101 0.25898 -0.20789
 H280 H 0.47023 0.23673 -0.16850
 H281 H 0.48455 0.22345 -0.07471
 H282 H 0.50730 0.23462 -0.03620
 H283 H 0.54063 0.26781 -0.03708
 H284 H 0.55142 0.29004 -0.07647
 C285 C 0.12445 0.03258 0.22045
 C286 C 0.10191 0.01991 0.22757
 C287 C 0.10231 0.00062 0.24695
 C288 C 0.12525 -0.00588 0.25911
 C289 C 0.14777 0.00684 0.25204
 C290 C 0.14738 0.02612 0.23264
 C291 C 0.17014 0.03854 0.22587
 C292 C 0.19266 0.03212 0.23794
 C293 C 0.19304 0.01329 0.25691
 C294 C 0.17092 0.00073 0.26396
 C295 C 0.07954 -0.01180 0.25372
 C296 C 0.05702 -0.00534 0.24169
 C297 C 0.05662 0.01353 0.22275
 C298 C 0.07875 0.02608 0.21569
 C299 C 0.12568 -0.02568 0.27882
 C300 C 0.12604 -0.04215 0.29515
 C301 C 0.12406 0.05220 0.20056
 C302 C 0.12376 0.06845 0.18402
 H303 H 0.17080 0.05332 0.21122
 H304 H 0.20989 0.04182 0.23253
 H305 H 0.21058 0.00838 0.26623
 H306 H 0.17218 -0.01378 0.27883
 H307 H 0.07889 -0.02660 0.26834
 H308 H 0.03978 -0.01502 0.24711
 H309 H 0.03908 0.01849 0.21347
 H310 H 0.07749 0.04062 0.20086
 C311 C 0.62530 0.46709 -0.22130
 C312 C 0.60267 0.47953 -0.22870
 C313 C 0.60303 0.49874 -0.24816
 C314 C 0.62601 0.50538 -0.26012
 C315 C 0.64863 0.49289 -0.25278
 C316 C 0.64828 0.47369 -0.23330
 C317 C 0.67114 0.46149 -0.22627
 C318 C 0.69370 0.46805 -0.23814
 C319 C 0.69404 0.48681 -0.25719
 C320 C 0.67183 0.49915 -0.26450
 C321 C 0.58017 0.51093 -0.25520
 C322 C 0.55760 0.50431 -0.24338
 C323 C 0.55724 0.48551 -0.22438
 C324 C 0.57946 0.47320 -0.21704
 C325 C 0.62639 0.52510 -0.27992
 C326 C 0.62667 0.54150 -0.29632
 C327 C 0.62496 0.44760 -0.20130
 C328 C 0.62468 0.43144 -0.18467
 H329 H 0.67183 0.44677 -0.21156
 H330 H 0.71100 0.45851 -0.23254
 H331 H 0.71161 0.49183 -0.26636
 H332 H 0.67305 0.51362 -0.27941
 H333 H 0.57948 0.52567 -0.26989
 H334 H 0.54029 0.51383 -0.24901
 H335 H 0.53966 0.48043 -0.21526
 H336 H 0.57823 0.45870 -0.20217
 C337 C 0.37443 0.96752 0.72064
 C338 C 0.35296 0.98343 0.72404
 C339 C 0.35273 1.00247 0.74347
 C340 C 0.37398 1.00550 0.75938
 C341 C 0.39545 0.98958 0.75599
 C342 C 0.39567 0.97053 0.73657
 C343 C 0.41735 0.95483 0.73355
 C344 C 0.43821 0.95788 0.74926
 C345 C 0.43799 0.97650 0.76825
 C346 C 0.41691 0.99223 0.77166
 C347 C 0.33104 1.01813 0.74651
 C348 C 0.31018 1.01508 0.73079
 C349 C 0.31041 0.99647 0.71179
 C350 C 0.33150 0.98077 0.70836
 C351 C 0.37377 1.02500 0.77919
 C352 C 0.37362 1.04119 0.79562
 C353 C 0.37468 0.94808 0.70079
 C354 C 0.37490 0.93193 0.68431
 H355 H 0.41842 0.94007 0.71905
 H356 H 0.45462 0.94571 0.74669
 H357 H 0.45424 0.97879 0.78041
 H358 H 0.41764 1.00644 0.78669
 H359 H 0.32996 1.03287 0.76102
 H360 H 0.29375 1.02723 0.73338
 H361 H 0.29416 0.99418 0.69962
 H362 H 0.33079 0.96657 0.69332
 C363 C 0.87527 0.53333 0.27905
 C364 C 0.85380 0.51753 0.27580
 C365 C 0.85346 0.49854 0.25632
 C366 C 0.87462 0.49545 0.24022
 C367 C 0.89607 0.51129 0.24345
 C368 C 0.89640 0.53029 0.26292
 C369 C 0.91806 0.54590 0.26577
 C370 C 0.93881 0.54281 0.24985
 C371 C 0.93850 0.52423 0.23083
 C372 C 0.91743 0.50860 0.22757
 C373 C 0.83178 0.48298 0.25343
 C374 C 0.81102 0.48609 0.26933
 C375 C 0.81135 0.50465 0.28838
 C376 C 0.83244 0.52025 0.29166
 C377 C 0.87433 0.47594 0.22042
 C378 C 0.87411 0.45972 0.20401
 C379 C 0.87565 0.55267 0.29901
 C380 C 0.87597 0.56870 0.31559
 H381 H 0.91920 0.56062 0.28029
 H382 H 0.95522 0.55491 0.25230
 H383 H 0.95466 0.52191 0.21851
 H384 H 0.91808 0.49442 0.21250
 H385 H 0.83062 0.46828 0.23889
 H386 H 0.79459 0.47402 0.26686
 H387 H 0.79517 0.50699 0.30068
 H388 H 0.83180 0.53442 0.30674
 C389 C 0.21584 0.12602 0.03397
 C390 C 0.21869 0.14769 0.01762
 C391 C 0.23784 0.14767 -0.00127
 C392 C 0.25402 0.12597 -0.00370
 C393 C 0.25116 0.10430 0.01266
 C394 C 0.23202 0.10433 0.03156
 C395 C 0.22954 0.08245 0.04770
 C396 C 0.24550 0.06115 0.04523
 C397 C 0.26421 0.06111 0.02675
 C398 C 0.26709 0.08238 0.01060
 C399 C 0.24033 0.16956 -0.01739
 C400 C 0.22436 0.19086 -0.01493
 C401 C 0.20564 0.19088 0.00353
 C402 C 0.20275 0.16960 0.01967
 C403 C 0.27356 0.12592 -0.02301
 C404 C 0.28978 0.12583 -0.03905
 C405 C 0.19627 0.12602 0.05324
 C406 C 0.18002 0.12598 0.06925
 H407 H 0.21528 0.08157 0.06236
 H408 H 0.24334 0.04458 0.05773
 H409 H 0.27655 0.04451 0.02491
 H410 H 0.28192 0.08144 -0.00347
 H411 H 0.25461 0.17045 -0.03204
 H412 H 0.22653 0.20744 -0.02742
 H413 H 0.19328 0.20747 0.00536
 H414 H 0.18791 0.17052 0.03373
 C415 C 0.78412 0.62570 0.46571
 C416 C 0.78124 0.64737 0.48187
 C417 C 0.76214 0.64740 0.50080
 C418 C 0.74604 0.62574 0.50348
 C419 C 0.74891 0.60408 0.48731
 C420 C 0.76800 0.60406 0.46837
 C421 C 0.77049 0.58219 0.45242
 C422 C 0.75459 0.56094 0.45512
 C423 C 0.73593 0.56095 0.47364
 C424 C 0.73303 0.58222 0.48961
 C425 C 0.75962 0.66929 0.51671
 C426 C 0.77552 0.69055 0.51400
 C427 C 0.79420 0.69052 0.49550
 C428 C 0.79712 0.66923 0.47956
 C429 C 0.72658 0.62572 0.52288
 C430 C 0.71043 0.62567 0.53899
 C431 C 0.80366 0.62565 0.44641
 C432 C 0.81988 0.62558 0.43038
 H433 H 0.78473 0.58127 0.43773
 H434 H 0.75676 0.54437 0.44276
 H435 H 0.72362 0.54439 0.47566
 H436 H 0.71824 0.58132 0.50373
 H437 H 0.74537 0.67023 0.53138
 H438 H 0.77333 0.70713 0.52633
 H439 H 0.80651 0.70708 0.49347
 H440 H 0.81192 0.67012 0.46545
 C441 C 0.71590 0.37485 -0.03367
 C442 C 0.73190 0.39657 -0.03122
 C443 C 0.75098 0.39663 -0.01230
 C444 C 0.75395 0.37496 0.00406
 C445 C 0.73793 0.35324 0.00161
 C446 C 0.71884 0.35319 -0.01730
 C447 C 0.70305 0.33126 -0.01937
 C448 C 0.70604 0.30999 -0.00322
 C449 C 0.72471 0.31003 0.01525
 C450 C 0.74053 0.33135 0.01774
 C451 C 0.76675 0.41857 -0.01022
 C452 C 0.76377 0.43983 -0.02638
 C453 C 0.74512 0.43977 -0.04488
 C454 C 0.72932 0.41845 -0.04736
 C455 C 0.77347 0.37501 0.02336
 C456 C 0.78969 0.37505 0.03936
 C457 C 0.69645 0.37477 -0.05303
 C458 C 0.68033 0.37473 -0.06914
 H459 H 0.68826 0.33032 -0.03344
 H460 H 0.69381 0.29338 -0.00507
 H461 H 0.72696 0.29345 0.02774
 H462 H 0.75477 0.33048 0.03240
 H463 H 0.78153 0.41953 0.00387
 H464 H 0.77600 0.45645 -0.02453
 H465 H 0.74288 0.45634 -0.05738
 H466 H 0.71509 0.41931 -0.06204
 C467 C 0.28238 0.87406 0.53523
 C468 C 0.26613 0.89568 0.53246
 C469 C 0.24706 0.89554 0.51354
 C470 C 0.24434 0.87377 0.49750
 C471 C 0.26054 0.85212 0.50032
 C472 C 0.27962 0.85227 0.51924
 C473 C 0.29561 0.83042 0.52167
 C474 C 0.29282 0.80902 0.50589
 C475 C 0.27416 0.80887 0.48741
 C476 C 0.25815 0.83012 0.48457
 C477 C 0.23106 0.91738 0.51112
 C478 C 0.23381 0.93875 0.52695
 C479 C 0.25246 0.93889 0.54545
 C480 C 0.26849 0.91766 0.54827
 C481 C 0.22495 0.87369 0.47806
 C482 C 0.20890 0.87365 0.46190
 C483 C 0.30195 0.87427 0.55446
 C484 C 0.31823 0.87443 0.57039
 H485 H 0.31041 0.82962 0.53577
 H486 H 0.30521 0.79247 0.50802
 H487 H 0.27206 0.79220 0.47520
 H488 H 0.24392 0.82908 0.46992
 H489 H 0.21627 0.91819 0.49702
 H490 H 0.22141 0.95529 0.52484
 H491 H 0.25452 0.95553 0.55771
 H492 H 0.28270 0.91867 0.56294
   
