data_POSCAR
  _audit_creation_date              2014-09-24
  _audit_creation_method            'ToBaCCo'
  _symmetry_space_group_name_H-M    'P1'
  _symmetry_Int_Tables_number       1
  _symmetry_cell_setting            triclinic
  loop_
  _symmetry_equiv_pos_as_xyz
 x,y,z
_cell_length_a 36.6765
_cell_length_b 36.7743
_cell_length_c 36.9159
_cell_angle_alpha 90.023200
_cell_angle_beta 90.009900
_cell_angle_gamma 90.024500
loop_
  _atom_site_label
  _atom_site_type_symbol
  _atom_site_fract_x
  _atom_site_fract_y
  _atom_site_fract_z
N1 N 0.30890 0.23791 0.20744
 N2 N 0.29416 0.26744 0.19377
 C3 C 0.31278 0.27710 0.16381
 C4 C 0.34045 0.25210 0.15835
 C5 C 0.33713 0.22761 0.18657
 H6 H 0.30620 0.29997 0.14662
 H7 H 0.35389 0.20395 0.19148
 Cu8 Cu 0.25114 0.28934 0.21564
 Cu9 Cu 0.29017 0.21454 0.25086
 Cu10 Cu 0.21298 0.25212 0.28984
 N11 N 0.20712 0.30945 0.23724
 N12 N 0.19293 0.29524 0.26668
 C13 C 0.16314 0.31432 0.27611
 C14 C 0.15811 0.34198 0.25116
 C15 C 0.18648 0.33786 0.22670
 H16 H 0.14586 0.30784 0.29892
 H17 H 0.19163 0.35413 0.20290
 N18 N 0.23739 0.20854 0.30927
 N19 N 0.26725 0.19477 0.29485
 C20 C 0.27739 0.16540 0.31411
 C21 C 0.25264 0.16018 0.34193
 C22 C 0.22753 0.18800 0.33785
 H23 H 0.30046 0.14834 0.30766
 H24 H 0.20364 0.19278 0.35423
 H25 H 0.23666 0.23105 0.24361
 H26 H 0.26599 0.26018 0.27312
 N27 N 0.68854 -0.23789 0.20780
 N28 N 0.70269 -0.26779 0.19431
 C29 C 0.68331 -0.27785 0.16495
 C30 C 0.65580 -0.25254 0.15937
 C31 C 0.66003 -0.22763 0.18731
 H32 H 0.68972 -0.30090 0.14795
 H33 H 0.64392 -0.20355 0.19231
 Cu34 Cu 0.74685 -0.28858 0.21498
 Cu35 Cu 0.70880 -0.21354 0.25019
 Cu36 Cu 0.78592 -0.25202 0.28882
 N37 N 0.79069 -0.30947 0.23615
 N38 N 0.80450 -0.29626 0.26627
 C39 C 0.83379 -0.31609 0.27579
 C40 C 0.83934 -0.34265 0.24970
 C41 C 0.81143 -0.33751 0.22486
 H42 H 0.85097 -0.31039 0.29893
 H43 H 0.80635 -0.35319 0.20062
 N44 N 0.76296 -0.20725 0.30751
 N45 N 0.73325 -0.19299 0.29317
 C46 C 0.72424 -0.16286 0.31191
 C47 C 0.74962 -0.15770 0.33914
 C48 C 0.77382 -0.18632 0.33548
 H49 H 0.70135 -0.14540 0.30580
 H50 H 0.79758 -0.19147 0.35202
 H51 H 0.76215 -0.23040 0.24280
 H52 H 0.73272 -0.25914 0.27248
 N53 N 0.68948 0.23856 0.79102
 N54 N 0.70448 0.26790 0.80483
 C55 C 0.68524 0.27832 0.83412
 C56 C 0.65676 0.25404 0.83912
 C57 C 0.66049 0.22907 0.81126
 H58 H 0.69215 0.30112 0.85127
 H59 H 0.64372 0.20547 0.80621
 Cu60 Cu 0.74892 0.28803 0.78419
 Cu61 Cu 0.70887 0.21454 0.74808
 Cu62 Cu 0.78718 0.25166 0.71004
 N63 N 0.79342 0.30814 0.76365
 N64 N 0.80722 0.29493 0.73356
 C65 C 0.83586 0.31551 0.72349
 C66 C 0.84087 0.34282 0.74906
 C67 C 0.81339 0.33697 0.77428
 H68 H 0.85167 0.31082 0.69927
 H69 H 0.80728 0.35342 0.79776
 N70 N 0.76271 0.20790 0.69047
 N71 N 0.73260 0.19429 0.70459
 C72 C 0.72250 0.16490 0.68527
 C73 C 0.74751 0.15946 0.65771
 C74 C 0.77276 0.18719 0.66205
 H75 H 0.69916 0.14808 0.69141
 H76 H 0.79685 0.19181 0.64590
 H77 H 0.76264 0.22985 0.75558
 H78 H 0.73402 0.25968 0.72630
 N79 N 0.30990 -0.23756 0.79103
 N80 N 0.29533 -0.26722 0.80467
 C81 C 0.31437 -0.27714 0.83429
 C82 C 0.34211 -0.25217 0.83965
 C83 C 0.33842 -0.22743 0.81165
 H84 H 0.30794 -0.30010 0.85144
 H85 H 0.35507 -0.20367 0.80676
 Cu86 Cu 0.25157 -0.28832 0.78335
 Cu87 Cu 0.29054 -0.21379 0.74790
 Cu88 Cu 0.21359 -0.25248 0.70887
 N89 N 0.20778 -0.30942 0.76201
 N90 N 0.19410 -0.29608 0.73192
 C91 C 0.16564 -0.31664 0.72143
 C92 C 0.16072 -0.34421 0.74661
 C93 C 0.18788 -0.33851 0.77219
 H94 H 0.14951 -0.31151 0.69747
 H95 H 0.19356 -0.35518 0.79563
 N96 N 0.23727 -0.20832 0.68964
 N97 N 0.26686 -0.19393 0.70415
 C98 C 0.27624 -0.16413 0.68507
 C99 C 0.25121 -0.15933 0.65747
 C100 C 0.22688 -0.18782 0.66121
 H101 H 0.29901 -0.14653 0.69131
 H102 H 0.20325 -0.19309 0.64452
 H103 H 0.23714 -0.23026 0.75484
 H104 H 0.26676 -0.25940 0.72584
 N105 N 0.69137 -0.23799 0.79155
 N106 N 0.70688 -0.26690 0.80568
 C107 C 0.68809 -0.27703 0.83536
 C108 C 0.65936 -0.25303 0.84024
 C109 C 0.66250 -0.22851 0.81194
 H110 H 0.69529 -0.29964 0.85262
 H111 H 0.64534 -0.20528 0.80661
 Cu112 Cu 0.75055 -0.28755 0.78396
 Cu113 Cu 0.70975 -0.21446 0.74792
 Cu114 Cu 0.78659 -0.25250 0.70824
 N115 N 0.79412 -0.30842 0.76221
 N116 N 0.80667 -0.29570 0.73139
 C117 C 0.83568 -0.31548 0.72110
 C118 C 0.84233 -0.34182 0.74720
 C119 C 0.81535 -0.33628 0.77305
 H120 H 0.85155 -0.30992 0.69709
 H121 H 0.81136 -0.35133 0.79784
 N122 N 0.76225 -0.20875 0.68907
 N123 N 0.73258 -0.19478 0.70371
 C124 C 0.72257 -0.16528 0.68456
 C125 C 0.74725 -0.16018 0.65665
 C126 C 0.77216 -0.18819 0.66053
 H127 H 0.69966 -0.14805 0.69114
 H128 H 0.79596 -0.19308 0.64405
 H129 H 0.73388 -0.26017 0.72619
 H130 H 0.76351 -0.22992 0.75412
 N131 N 0.30992 0.23754 0.79015
 N132 N 0.29560 0.26759 0.80310
 C133 C 0.31437 0.27780 0.83273
 C134 C 0.34187 0.25272 0.83880
 C135 C 0.33803 0.22743 0.81127
 H136 H 0.30785 0.30115 0.84925
 H137 H 0.35422 0.20330 0.80694
 Cu138 Cu 0.25291 0.28961 0.78095
 Cu139 Cu 0.29115 0.21374 0.74696
 Cu140 Cu 0.21489 0.25215 0.70692
 N141 N 0.20909 0.30975 0.75914
 N142 N 0.19497 0.29545 0.72969
 C143 C 0.16511 0.31438 0.72024
 C144 C 0.15996 0.34202 0.74519
 C145 C 0.18836 0.33809 0.76964
 H146 H 0.14779 0.30771 0.69751
 H147 H 0.19336 0.35429 0.79352
 N148 N 0.23900 0.20833 0.68794
 N149 N 0.26817 0.19383 0.70304
 C150 C 0.27781 0.16401 0.68419
 C151 C 0.25346 0.15937 0.65589
 C152 C 0.22920 0.18798 0.65924
 H153 H 0.30048 0.14659 0.69103
 H154 H 0.20566 0.19315 0.64244
 H155 H 0.26805 0.25944 0.72407
 H156 H 0.23796 0.23113 0.75361
 N157 N 0.30996 -0.23813 0.20697
 N158 N 0.29547 -0.26796 0.19366
 C159 C 0.31441 -0.27813 0.16412
 C160 C 0.34221 -0.25325 0.15849
 C161 C 0.33835 -0.22811 0.18617
 H162 H 0.30776 -0.30125 0.14730
 H163 H 0.35465 -0.20411 0.19080
 Cu164 Cu 0.25198 -0.28891 0.21523
 Cu165 Cu 0.29086 -0.21433 0.25015
 Cu166 Cu 0.21332 -0.25211 0.28892
 N167 N 0.20831 -0.30979 0.23646
 N168 N 0.19363 -0.29542 0.26563
 C169 C 0.16355 -0.31435 0.27450
 C170 C 0.15894 -0.34187 0.24939
 C171 C 0.18783 -0.33817 0.22559
 H172 H 0.14570 -0.30791 0.29691
 H173 H 0.19330 -0.35471 0.20200
 N174 N 0.23758 -0.20839 0.30829
 N175 N 0.26743 -0.19447 0.29393
 C176 C 0.27742 -0.16509 0.31327
 C177 C 0.25261 -0.16005 0.34105
 C178 C 0.22759 -0.18794 0.33689
 H179 H 0.30050 -0.14797 0.30697
 H180 H 0.20373 -0.19289 0.35327
 H181 H 0.26650 -0.25968 0.27263
 H182 H 0.23729 -0.23065 0.24309
 N183 N 0.68946 0.23662 0.20703
 N184 N 0.70389 0.26645 0.19372
 C185 C 0.68485 0.27667 0.16428
 C186 C 0.65703 0.25185 0.15868
 C187 C 0.66098 0.22665 0.18630
 H188 H 0.69141 0.29986 0.14754
 H189 H 0.64460 0.20270 0.19095
 Cu190 Cu 0.74711 0.28816 0.21498
 Cu191 Cu 0.70867 0.21315 0.25021
 Cu192 Cu 0.78619 0.25103 0.28868
 N193 N 0.79142 0.30797 0.23584
 N194 N 0.80615 0.29397 0.26511
 C195 C 0.83534 0.31401 0.27463
 C196 C 0.83937 0.34189 0.24971
 C197 C 0.81097 0.33711 0.22550
 H198 H 0.85205 0.30882 0.29815
 H199 H 0.80432 0.35429 0.20270
 N200 N 0.76186 0.20756 0.30838
 N201 N 0.73210 0.19348 0.29400
 C202 C 0.72215 0.16415 0.31343
 C203 C 0.74690 0.15933 0.34133
 C204 C 0.77180 0.18732 0.33712
 H205 H 0.69911 0.14699 0.30712
 H206 H 0.79565 0.19239 0.35351
 H207 H 0.73287 0.25879 0.27248
 H208 H 0.76208 0.22990 0.24266
 O209 O 0.22127 0.03493 0.46324
 O210 O 0.22031 -0.03547 0.53393
 O211 O 0.22131 0.03544 0.53337
 O212 O 0.22138 -0.03572 0.46341
 O213 O 0.28158 -0.03568 0.46351
 O214 O 0.28152 0.03421 0.53487
 O215 O 0.28048 -0.03604 0.53456
 O216 O 0.28147 0.03476 0.46379
 Cu217 Cu 0.21505 -0.00023 0.49848
 Cu218 Cu 0.28733 -0.00075 0.49921
 C219 C 0.25149 0.04670 0.45125
 C220 C 0.25014 -0.04757 0.54659
 C221 C 0.25137 0.04665 0.54631
 C222 C 0.25151 -0.04745 0.45112
 O223 O 0.71830 0.03470 0.53479
 O224 O 0.71961 -0.03541 0.46309
 O225 O 0.71823 -0.03574 0.53427
 O226 O 0.71818 0.03490 0.46368
 O227 O 0.77838 0.03576 0.46449
 O228 O 0.77841 -0.03534 0.53463
 O229 O 0.77976 -0.03496 0.46406
 O230 O 0.77849 0.03540 0.53487
 Cu231 Cu 0.71253 -0.00047 0.49892
 Cu232 Cu 0.78476 0.00024 0.49957
 C233 C 0.74828 0.04683 0.54720
 C234 C 0.75000 -0.04688 0.45109
 C235 C 0.74831 -0.04734 0.54676
 C236 C 0.74827 0.04715 0.45181
 O237 O 0.46377 0.22150 0.03424
 O238 O 0.53445 0.22259 -0.03635
 O239 O 0.53460 0.22182 0.03405
 O240 O 0.46366 0.22202 -0.03617
 O241 O 0.46309 0.28206 -0.03552
 O242 O 0.53452 0.28187 0.03451
 O243 O 0.53452 0.28263 -0.03557
 O244 O 0.46304 0.28150 0.03461
 Cu245 Cu 0.49915 0.21597 -0.00110
 Cu246 Cu 0.49874 0.28807 -0.00042
 C247 C 0.45103 0.25127 0.04623
 C248 C 0.54683 0.25274 -0.04776
 C249 C 0.54696 0.25177 0.04599
 C250 C 0.45102 0.25203 -0.04761
 O251 O 0.53624 0.71829 0.03454
 O252 O 0.46496 0.71850 -0.03624
 O253 O 0.53661 0.71767 -0.03561
 O254 O 0.46469 0.71765 0.03397
 O255 O 0.46475 0.77769 0.03409
 O256 O 0.53632 0.77771 -0.03565
 O257 O 0.46548 0.77850 -0.03625
 O258 O 0.53541 0.77830 0.03492
 Cu259 Cu 0.50062 0.71198 -0.00087
 Cu260 Cu 0.50055 0.78404 -0.00074
 C261 C 0.54798 0.74843 0.04675
 C262 C 0.45288 0.74863 -0.04811
 C263 C 0.54892 0.74773 -0.04729
 C264 C 0.45228 0.74766 0.04570
 O265 O 0.03318 0.46430 0.21866
 O266 O -0.03673 0.53602 0.21784
 O267 O 0.03422 0.53510 0.21764
 O268 O -0.03798 0.46580 0.21915
 O269 O -0.03740 0.46653 0.27897
 O270 O 0.03427 0.53635 0.27741
 O271 O -0.03624 0.53727 0.27762
 O272 O 0.03328 0.46499 0.27846
 Cu273 Cu -0.00171 0.50013 0.21231
 Cu274 Cu -0.00133 0.50132 0.28414
 C275 C 0.04490 0.45214 0.24867
 C276 C -0.04842 0.54894 0.24757
 C277 C 0.04618 0.54798 0.24727
 C278 C -0.05020 0.45455 0.24932
 O279 O 0.03629 0.53426 0.71720
 O280 O -0.03676 0.46572 0.71806
 O281 O -0.03436 0.53675 0.71838
 O282 O 0.03385 0.46332 0.71800
 O283 O 0.03459 0.46381 0.77780
 O284 O -0.03389 0.53680 0.77819
 O285 O -0.03670 0.46621 0.77786
 O286 O 0.03744 0.53431 0.77696
 Cu287 Cu -0.00032 0.49999 0.71193
 Cu288 Cu 0.00040 0.50031 0.78370
 C289 C 0.04950 0.54591 0.74681
 C290 C -0.04932 0.45433 0.74804
 C291 C -0.04572 0.54933 0.74838
 C292 C 0.04584 0.45104 0.74787
 C293 C 0.37336 0.28157 0.10668
 C294 C 0.36641 0.25074 0.12779
 C295 C 0.38458 0.21828 0.11834
 C296 C 0.41150 0.21813 0.09112
 C297 C 0.42123 0.25055 0.07312
 C298 C 0.40027 0.28155 0.08024
 C299 C 0.41178 0.31944 0.08917
 C300 C 0.38228 0.31949 0.11810
 H301 H 0.37889 0.19323 0.13263
 H302 H 0.42578 0.19301 0.08544
 H303 H 0.40614 0.33865 0.06662
 H304 H 0.43986 0.32079 0.10046
 H305 H 0.35969 0.33872 0.11215
 H306 H 0.39322 0.32092 0.14617
 C307 C 0.62792 0.72018 0.10543
 C308 C 0.63093 0.74888 0.13037
 C309 C 0.60877 0.77976 0.12419
 C310 C 0.58255 0.78000 0.09633
 C311 C 0.57708 0.74913 0.07437
 C312 C 0.60150 0.72021 0.07844
 C313 C 0.59466 0.68042 0.08204
 C314 C 0.62350 0.68023 0.11161
 H315 H 0.61090 0.80365 0.14113
 H316 H 0.56541 0.80375 0.09317
 H317 H 0.60301 0.66518 0.05739
 H318 H 0.56681 0.67418 0.09220
 H319 H 0.64832 0.66471 0.10391
 H320 H 0.61241 0.67383 0.13891
 C321 C 0.61019 0.22197 -0.12242
 C322 C 0.63020 0.25340 -0.13061
 C323 C 0.62534 0.28383 -0.10775
 C324 C 0.59860 0.28364 -0.08034
 C325 C 0.57643 0.25282 -0.07480
 C326 C 0.58428 0.22162 -0.09500
 C327 C 0.55909 0.19778 -0.11602
 C328 C 0.58727 0.19823 -0.14614
 H329 H 0.64091 0.30846 -0.11197
 H330 H 0.59461 0.30793 -0.06423
 H331 H 0.53324 0.21170 -0.12340
 H332 H 0.55577 0.17060 -0.10327
 H333 H 0.57769 0.21242 -0.17098
 H334 H 0.60000 0.17120 -0.15082
 C335 C 0.37535 0.71820 -0.10889
 C336 C 0.36827 0.74909 -0.12988
 C337 C 0.38634 0.78156 -0.12026
 C338 C 0.41326 0.78169 -0.09301
 C339 C 0.42314 0.74923 -0.07513
 C340 C 0.40225 0.71820 -0.08240
 C341 C 0.41384 0.68038 -0.09143
 C342 C 0.38437 0.68034 -0.12041
 H343 H 0.38053 0.80668 -0.13438
 H344 H 0.42738 0.80687 -0.08715
 H345 H 0.40822 0.66109 -0.06894
 H346 H 0.44195 0.67915 -0.10267
 H347 H 0.36182 0.66102 -0.11456
 H348 H 0.39535 0.67906 -0.14846
 C349 C 0.11954 0.38809 0.21843
 C350 C 0.12764 0.36843 0.24995
 C351 C 0.10457 0.37366 0.28016
 C352 C 0.07712 0.40043 0.27967
 C353 C 0.07172 0.42228 0.24879
 C354 C 0.09204 0.41406 0.21780
 C355 C 0.11335 0.43884 0.19384
 C356 C 0.14356 0.41062 0.19462
 H357 H 0.10872 0.35845 0.30487
 H358 H 0.06096 0.40475 0.30384
 H359 H 0.12085 0.46479 0.20742
 H360 H 0.10058 0.44188 0.16670
 H361 H 0.16857 0.42022 0.20874
 H362 H 0.14828 0.39763 0.16784
 C363 C 0.12937 0.60478 0.77579
 C364 C 0.13509 0.62732 0.74564
 C365 C 0.11467 0.61953 0.71406
 C366 C 0.08771 0.59225 0.71409
 C367 C 0.07961 0.57266 0.74590
 C368 C 0.10204 0.57851 0.77603
 C369 C 0.09202 0.58632 0.81440
 C370 C 0.12184 0.61499 0.81429
 H371 H 0.11899 0.63464 0.68930
 H372 H 0.07209 0.58774 0.68960
 H373 H 0.09805 0.56302 0.83260
 H374 H 0.06416 0.59794 0.81713
 H375 H 0.14497 0.60816 0.83251
 H376 H 0.11129 0.64320 0.81706
 C377 C -0.10985 0.62571 0.27848
 C378 C -0.13180 0.63233 0.24807
 C379 C -0.12301 0.61354 0.21580
 C380 C -0.09502 0.58733 0.21523
 C381 C -0.07587 0.57834 0.24711
 C382 C -0.08296 0.59906 0.27811
 C383 C -0.09187 0.58677 0.31559
 C384 C -0.12120 0.61586 0.31613
 H385 H -0.13778 0.61871 0.19096
 H386 H -0.08954 0.57301 0.19018
 H387 H -0.06928 0.59221 0.33493
 H388 H -0.10301 0.55864 0.31637
 H389 H -0.11550 0.63800 0.33583
 H390 H -0.14934 0.60459 0.31732
 C391 C -0.11246 0.37891 0.71763
 C392 C -0.13363 0.37153 0.74847
 C393 C -0.12933 0.39547 0.77828
 C394 C -0.10223 0.42272 0.77815
 C395 C -0.07927 0.42746 0.74794
 C396 C -0.08653 0.40643 0.71722
 C397 C -0.06115 0.38506 0.69394
 C398 C -0.08939 0.35480 0.69445
 H399 H -0.14534 0.39222 0.80264
 H400 H -0.09861 0.43934 0.80211
 H401 H -0.03537 0.37781 0.70806
 H402 H -0.05764 0.39756 0.66675
 H403 H -0.08001 0.33001 0.70895
 H404 H -0.10187 0.34988 0.66745
 C405 C 0.22033 0.12113 0.38776
 C406 C 0.25198 0.12982 0.36833
 C407 C 0.28276 0.10734 0.37363
 C408 C 0.28262 0.07987 0.40024
 C409 C 0.25153 0.07386 0.42184
 C410 C 0.22004 0.09362 0.41354
 C411 C 0.19540 0.11438 0.43812
 C412 C 0.19582 0.14459 0.41010
 H413 H 0.30761 0.11194 0.35854
 H414 H 0.30717 0.06411 0.40455
 H415 H 0.20880 0.12206 0.46402
 H416 H 0.16830 0.10116 0.44100
 H417 H 0.20955 0.16975 0.41982
 H418 H 0.16886 0.14887 0.39703
 C419 C 0.77953 0.12101 0.61110
 C420 C 0.74811 0.12918 0.63111
 C421 C 0.71748 0.10638 0.62600
 C422 C 0.71750 0.07918 0.59906
 C423 C 0.74830 0.07375 0.57690
 C424 C 0.77969 0.09380 0.58497
 C425 C 0.80372 0.11510 0.56026
 C426 C 0.80348 0.14497 0.58867
 H427 H 0.69283 0.11049 0.64153
 H428 H 0.69306 0.06316 0.59495
 H429 H 0.78981 0.12293 0.53466
 H430 H 0.83089 0.10218 0.55679
 H431 H 0.78938 0.17011 0.57951
 H432 H 0.83060 0.14933 0.60139
 C433 C 0.28044 -0.10746 0.62442
 C434 C 0.24972 -0.12899 0.63121
 C435 C 0.21724 -0.12002 0.61277
 C436 C 0.21702 -0.09286 0.58583
 C437 C 0.24941 -0.07445 0.57633
 C438 C 0.28036 -0.08110 0.59751
 C439 C 0.31858 -0.08958 0.58655
 C440 C 0.31870 -0.11844 0.61604
 H441 H 0.19223 -0.13460 0.61831
 H442 H 0.19190 -0.08752 0.57137
 H443 H 0.33747 -0.06663 0.59224
 H444 H 0.32040 -0.10106 0.55873
 H445 H 0.33767 -0.11205 0.63865
 H446 H 0.32062 -0.14665 0.60535
 C447 C 0.72030 -0.10591 0.37226
 C448 C 0.75108 -0.12732 0.36539
 C449 C 0.78345 -0.11840 0.38406
 C450 C 0.78343 -0.09155 0.41136
 C451 C 0.75092 -0.07341 0.42099
 C452 C 0.72014 -0.07987 0.39949
 C453 C 0.68182 -0.08853 0.40999
 C454 C 0.68196 -0.11701 0.38011
 H455 H 0.80852 -0.13285 0.37848
 H456 H 0.80847 -0.08628 0.42599
 H457 H 0.66296 -0.06554 0.40444
 H458 H 0.67975 -0.10038 0.43762
 H459 H 0.66322 -0.11034 0.35740
 H460 H 0.67995 -0.14537 0.39037
 C461 C 0.61137 0.77848 -0.12262
 C462 C 0.63276 0.74765 -0.12954
 C463 C 0.62905 0.71791 -0.10563
 C464 C 0.60214 0.71798 -0.07839
 C465 C 0.57872 0.74803 -0.07405
 C466 C 0.58533 0.77877 -0.09531
 C467 C 0.55918 0.80053 -0.11735
 C468 C 0.58746 0.80009 -0.14736
 H469 H 0.64563 0.69382 -0.10887
 H470 H 0.59902 0.69413 -0.06147
 H471 H 0.55462 0.82805 -0.10575
 H472 H 0.53395 0.78519 -0.12419
 H473 H 0.59893 0.82746 -0.15318
 H474 H 0.57865 0.78439 -0.17160
 C475 C 0.38745 0.22052 -0.12175
 C476 C 0.36797 0.25208 -0.13059
 C477 C 0.37308 0.28283 -0.10823
 C478 C 0.39965 0.28278 -0.08070
 C479 C 0.42140 0.25182 -0.07457
 C480 C 0.41322 0.22034 -0.09420
 C481 C 0.43813 0.19572 -0.11462
 C482 C 0.41011 0.19600 -0.14490
 H483 H 0.35795 0.30760 -0.11299
 H484 H 0.40392 0.30734 -0.06505
 H485 H 0.44095 0.16874 -0.10135
 H486 H 0.46425 0.20909 -0.12213
 H487 H 0.39699 0.16908 -0.14916
 H488 H 0.42004 0.20959 -0.16995
 C489 C 0.38812 0.77902 0.11942
 C490 C 0.36852 0.74746 0.12805
 C491 C 0.37377 0.71676 0.10565
 C492 C 0.40059 0.71685 0.07835
 C493 C 0.42245 0.74782 0.07246
 C494 C 0.41413 0.77925 0.09210
 C495 C 0.43887 0.80386 0.11279
 C496 C 0.41057 0.80355 0.14280
 H497 H 0.35854 0.69200 0.11022
 H498 H 0.40495 0.69233 0.06268
 H499 H 0.44181 0.83085 0.09957
 H500 H 0.46494 0.79051 0.12052
 H501 H 0.39739 0.83045 0.14693
 H502 H 0.42025 0.78996 0.16794
 C503 C 0.61091 0.21991 0.11962
 C504 C 0.63063 0.25136 0.12835
 C505 C 0.62549 0.28217 0.10609
 C506 C 0.59867 0.28228 0.07880
 C507 C 0.57671 0.25142 0.07279
 C508 C 0.58490 0.21987 0.09228
 C509 C 0.56002 0.19537 0.11290
 C510 C 0.58831 0.19550 0.14294
 H511 H 0.64080 0.30687 0.11074
 H512 H 0.59442 0.30686 0.06321
 H513 H 0.55696 0.16841 0.09961
 H514 H 0.53402 0.20885 0.12062
 H515 H 0.60132 0.16853 0.14705
 H516 H 0.57869 0.20914 0.16808
 C517 C -0.12082 0.61254 0.77917
 C518 C -0.12870 0.63307 0.74804
 C519 C -0.10510 0.62844 0.71801
 C520 C -0.07769 0.60163 0.71823
 C521 C -0.07248 0.57924 0.74871
 C522 C -0.09313 0.58680 0.77962
 C523 C -0.11422 0.56163 0.80334
 C524 C -0.14468 0.58961 0.80277
 H525 H -0.10877 0.64391 0.69339
 H526 H -0.06141 0.59768 0.69408
 H527 H -0.10142 0.55849 0.83046
 H528 H -0.12147 0.53572 0.78955
 H529 H -0.14947 0.60229 0.82970
 H530 H -0.16961 0.57995 0.78857
 C531 C -0.11370 0.38033 0.28128
 C532 C -0.13390 0.37203 0.25012
 C533 C -0.12920 0.39475 0.21964
 C534 C -0.10244 0.42215 0.21950
 C535 C -0.08007 0.42782 0.24999
 C536 C -0.08767 0.40779 0.28128
 C537 C -0.06233 0.38665 0.30482
 C538 C -0.09063 0.35650 0.30472
 H539 H -0.14485 0.39040 0.19519
 H540 H -0.09852 0.43808 0.19514
 H541 H -0.05872 0.39950 0.33184
 H542 H -0.03660 0.37913 0.29074
 H543 H -0.10311 0.35190 0.33178
 H544 H -0.08132 0.33150 0.29051
 C545 C 0.12161 0.38829 0.77789
 C546 C 0.12925 0.36814 0.74655
 C547 C 0.10552 0.37254 0.71673
 C548 C 0.07776 0.39895 0.71731
 C549 C 0.07273 0.42128 0.74791
 C550 C 0.09384 0.41397 0.77861
 C551 C 0.11547 0.43951 0.80152
 C552 C 0.14594 0.41159 0.80066
 H553 H 0.10935 0.35696 0.69218
 H554 H 0.06111 0.40268 0.69338
 H555 H 0.10334 0.44307 0.82888
 H556 H 0.12239 0.46522 0.78720
 H557 H 0.15141 0.39926 0.82760
 H558 H 0.17053 0.42109 0.78579
 C559 C 0.10614 0.62585 0.27756
 C560 C 0.12838 0.63208 0.24743
 C561 C 0.11991 0.61332 0.21515
 C562 C 0.09245 0.58652 0.21468
 C563 C 0.07333 0.57754 0.24661
 C564 C 0.07951 0.59909 0.27725
 C565 C 0.08713 0.58847 0.31552
 C566 C 0.11630 0.61784 0.31591
 H567 H 0.13510 0.61847 0.19056
 H568 H 0.08744 0.57173 0.18979
 H569 H 0.09837 0.56048 0.31789
 H570 H 0.06380 0.59457 0.33375
 H571 H 0.14446 0.60693 0.31853
 H572 H 0.10970 0.64081 0.33435
 C573 C 0.77974 -0.12097 0.61103
 C574 C 0.74798 -0.12985 0.63023
 C575 C 0.71707 -0.10767 0.62458
 C576 C 0.71719 -0.08038 0.59781
 C577 C 0.74840 -0.07425 0.57638
 C578 C 0.78001 -0.09362 0.58509
 C579 C 0.80514 -0.11422 0.56088
 C580 C 0.80476 -0.14427 0.58908
 H581 H 0.69213 -0.11242 0.63948
 H582 H 0.69252 -0.06489 0.59319
 H583 H 0.83211 -0.10069 0.55825
 H584 H 0.79212 -0.12218 0.53484
 H585 H 0.83162 -0.14814 0.60250
 H586 H 0.79145 -0.16965 0.57937
 C587 C 0.22013 -0.12109 0.38683
 C588 C 0.25190 -0.12988 0.36762
 C589 C 0.28280 -0.10767 0.37331
 C590 C 0.28265 -0.08039 0.40007
 C591 C 0.25143 -0.07430 0.42146
 C592 C 0.21983 -0.09374 0.41278
 C593 C 0.19477 -0.11440 0.43702
 C594 C 0.19522 -0.14448 0.40882
 H595 H 0.30776 -0.11238 0.35842
 H596 H 0.30731 -0.06487 0.40471
 H597 H 0.16776 -0.10096 0.43965
 H598 H 0.20782 -0.12227 0.46306
 H599 H 0.16835 -0.14850 0.39546
 H600 H 0.20863 -0.16978 0.41854
 C601 C 0.77885 0.12247 0.38914
 C602 C 0.74779 0.12927 0.36806
 C603 C 0.71792 0.10537 0.37221
 C604 C 0.71813 0.07827 0.39913
 C605 C 0.74840 0.07407 0.42226
 C606 C 0.77923 0.09532 0.41532
 C607 C 0.80119 0.11777 0.44094
 C608 C 0.80074 0.14753 0.41246
 H609 H 0.69363 0.10848 0.35589
 H610 H 0.69422 0.06131 0.40245
 H611 H 0.82876 0.10615 0.44559
 H612 H 0.78586 0.12501 0.46590
 H613 H 0.82814 0.15311 0.40086
 H614 H 0.78515 0.17204 0.42095
 C615 C 0.22415 0.12722 0.60346
 C616 C 0.25200 0.12911 0.62942
 C617 C 0.27777 0.10058 0.63001
 C618 C 0.27743 0.07339 0.60317
 C619 C 0.25101 0.07378 0.57553
 C620 C 0.22353 0.10000 0.57731
 C621 C 0.21122 0.12559 0.54845
 C622 C 0.21183 0.15533 0.57692
 H623 H 0.29905 0.09979 0.65025
 H624 H 0.29828 0.05254 0.60359
 H625 H 0.18335 0.11911 0.53855
 H626 H 0.23206 0.12945 0.52690
 H627 H 0.18422 0.16597 0.58337
 H628 H 0.23289 0.17650 0.57180
   
