data_POSCAR
  _audit_creation_date              2014-09-24
  _audit_creation_method            'ToBaCCo'
  _symmetry_space_group_name_H-M    'P1'
  _symmetry_Int_Tables_number       1
  _symmetry_cell_setting            triclinic
  loop_
  _symmetry_equiv_pos_as_xyz
 x,y,z
_cell_length_a 34.5995
_cell_length_b 35.9990
_cell_length_c 19.6408
_cell_angle_alpha 89.633700
_cell_angle_beta 90.325400
_cell_angle_gamma 119.058800
loop_
  _atom_site_label
  _atom_site_type_symbol
  _atom_site_fract_x
  _atom_site_fract_y
  _atom_site_fract_z
O1 O 0.02978 0.50006 -0.04291
 O2 O -0.03580 0.55460 -0.06742
 O3 O 0.04848 0.57901 -0.04611
 O4 O -0.05178 0.47605 -0.06839
 O5 O -0.06632 0.47454 0.04125
 O6 O 0.03675 0.57612 0.06477
 O7 O -0.04526 0.55504 0.04370
 O8 O 0.01706 0.49705 0.06769
 Cu9 Cu -0.00117 0.52805 -0.06743
 Cu10 Cu -0.01595 0.52515 0.06550
 C11 C 0.03453 0.48929 0.01690
 C12 C -0.05131 0.56439 -0.01630
 C13 C 0.06031 0.59456 0.01306
 C14 C -0.07618 0.45769 -0.01754
 O15 O 0.46285 0.42226 -0.06805
 O16 O 0.47467 0.52884 -0.04471
 O17 O 0.52952 0.49925 -0.06816
 O18 O 0.40892 0.45213 -0.04440
 O19 O 0.41839 0.45166 0.06688
 O20 O 0.53720 0.49038 0.04149
 O21 O 0.48900 0.52618 0.06448
 O22 O 0.46857 0.41677 0.04323
 Cu23 Cu 0.46819 0.47615 -0.06755
 Cu24 Cu 0.47886 0.47073 0.06523
 C25 C 0.46402 0.40155 -0.01625
 C26 C 0.48405 0.54560 0.01395
 C27 C 0.55365 0.50139 -0.01765
 C28 C 0.39339 0.44507 0.01561
 O29 O 0.55682 0.96635 0.07155
 O30 O 0.52500 1.04958 0.05162
 O31 O 0.48305 0.96629 0.06995
 O32 O 0.60063 1.04691 0.05044
 O33 O 0.59081 1.04453 -0.06089
 O34 O 0.47975 0.95328 -0.04032
 O35 O 0.51225 1.03450 -0.05781
 O36 O 0.55891 0.96197 -0.04045
 Cu37 Cu 0.54185 1.00899 0.07217
 Cu38 Cu 0.53508 0.99753 -0.06114
 C39 C 0.56389 0.95042 0.01883
 C40 C 0.51231 1.05557 -0.00623
 C41 C 0.46224 0.94457 0.01828
 C42 C 0.61526 1.06035 -0.00902
 O43 O 0.95308 0.55453 0.45068
 O44 O 1.02080 0.50194 0.42893
 O45 O 0.93620 0.47474 0.45514
 O46 O 1.03563 0.57949 0.43238
 O47 O 1.04592 0.58390 0.54388
 O48 O 0.95178 0.47665 0.56467
 O49 O 1.03698 0.51005 0.53877
 O50 O 0.96160 0.55363 0.56217
 Cu51 Cu 0.98455 0.52666 0.43062
 Cu52 Cu 0.99954 0.53079 0.56375
 C53 C 0.94612 0.56320 0.51028
 C54 C 1.04286 0.50004 0.47939
 C55 C 0.92743 0.45777 0.51400
 C56 C 1.05791 0.59932 0.48453
 O57 O 0.40761 0.44862 0.53722
 O58 O 0.52789 0.49510 0.56005
 O59 O 0.47614 0.52691 0.53786
 O60 O 0.46213 0.41939 0.55970
 O61 O 0.46981 0.41567 0.44868
 O62 O 0.48384 0.52316 0.42694
 O63 O 0.53554 0.49067 0.44914
 O64 O 0.41578 0.44644 0.42609
 Cu65 Cu 0.46707 0.47299 0.55981
 Cu66 Cu 0.47648 0.46861 0.42636
 C67 C 0.39128 0.43934 0.47772
 C68 C 0.55192 0.49962 0.50868
 C69 C 0.48373 0.54379 0.47901
 C70 C 0.46529 0.39999 0.50812
 O71 O 0.55248 -0.04488 0.54216
 O72 O 0.51127 0.03086 0.56824
 O73 O 0.47521 -0.05053 0.54718
 O74 O 0.58884 0.03651 0.56986
 O75 O 0.59418 0.04740 0.45877
 O76 O 0.47842 -0.03702 0.43676
 O77 O 0.51190 0.04102 0.45699
 O78 O 0.55041 -0.03657 0.43081
 Cu79 Cu 0.53193 -0.00795 0.56807
 Cu80 Cu 0.53644 0.00683 0.43542
 C81 C 0.55662 -0.05492 0.48175
 C82 C 0.50349 0.04785 0.51697
 C83 C 0.45744 -0.05877 0.48841
 C84 C 0.61101 0.05639 0.51806
 C85 C 0.28348 0.38539 0.21066
 C86 C 0.28199 0.38215 0.28028
 C87 C 0.25762 0.40094 0.30263
 N88 N 0.24412 0.41547 0.24902
 C89 C 0.26003 0.40611 0.19277
 C90 C 0.25178 0.40781 0.37163
 C91 C 0.22207 0.42189 0.39357
 C92 C 0.22159 0.43668 0.45835
 C93 C 0.18816 0.44670 0.45958
 C94 C 0.16985 0.43959 0.39468
 N95 N 0.18974 0.42284 0.35554
 C96 C 0.13462 0.44704 0.37406
 C97 C 0.11694 0.43821 0.30734
 C98 C 0.07491 0.43024 0.28844
 C99 C 0.07307 0.42793 0.21874
 C100 C 0.11424 0.43534 0.19709
 N101 N 0.14083 0.44124 0.25130
 C102 C 0.12849 0.44090 0.12874
 C103 C 0.16953 0.44419 0.11062
 C104 C 0.19363 0.46453 0.05294
 C105 C 0.22994 0.45853 0.05243
 C106 C 0.22698 0.43454 0.10968
 N107 N 0.19026 0.42631 0.14531
 C108 C 0.25658 0.41919 0.12622
 H109 H 0.30019 0.37400 0.17723
 H110 H 0.29745 0.36792 0.31100
 H111 H 0.17743 0.40583 0.18688
 H112 H 0.24299 0.44027 0.50096
 H113 H 0.17825 0.45693 0.50459
 H114 H 0.04770 0.42546 0.32070
 H115 H 0.04458 0.42170 0.18787
 H116 H 0.25574 0.47087 0.01440
 H117 H 0.18023 0.41040 0.30698
 H118 H 0.18626 0.48241 0.01552
 C119 C 0.53581 0.63754 0.28109
 C120 C 0.53560 0.63756 0.21132
 C121 C 0.52916 0.67110 0.19056
 N122 N 0.52496 0.69115 0.24570
 C123 C 0.52858 0.67046 0.30109
 C124 C 0.52241 0.68034 0.12272
 C125 C 0.53071 0.72159 0.10243
 C126 C 0.52235 0.73261 0.03825
 C127 C 0.53643 0.77539 0.03900
 C128 C 0.55453 0.79013 0.10275
 N129 N 0.55129 0.75721 0.14087
 C130 C 0.57449 0.83320 0.12354
 C131 C 0.58352 0.84556 0.19242
 C132 C 0.60841 0.88710 0.21474
 C133 C 0.60538 0.88591 0.28440
 C134 C 0.57866 0.84369 0.30227
 N135 N 0.56546 0.81906 0.24604
 C136 C 0.56364 0.82869 0.36865
 C137 C 0.54118 0.78487 0.38448
 C138 C 0.51357 0.76667 0.43993
 C139 C 0.50125 0.72414 0.43968
 C140 C 0.52194 0.71763 0.38437
 N141 N 0.54558 0.75466 0.35028
 C142 C 0.52162 0.67922 0.36864
 H143 H 0.54112 0.61577 0.31280
 H144 H 0.54076 0.61564 0.18055
 H145 H 0.56765 0.75992 0.31071
 H146 H 0.50882 0.71279 -0.00605
 H147 H 0.53358 0.79330 -0.00326
 H148 H 0.62660 0.91539 0.18401
 H149 H 0.62079 0.91309 0.31785
 H150 H 0.47941 0.70076 0.47604
 H151 H 0.56572 0.75957 0.18837
 H152 H 0.50318 0.78230 0.47666
 C153 C 0.38663 0.85798 0.28830
 C154 C 0.38720 0.85788 0.21836
 C155 C 0.34359 0.84052 0.19710
 N156 N 0.31652 0.82995 0.25147
 C157 C 0.34268 0.84080 0.30728
 C158 C 0.32875 0.83657 0.12913
 C159 C 0.28384 0.80959 0.11257
 C160 C 0.26244 0.81225 0.05435
 C161 C 0.22129 0.77665 0.05377
 C162 C 0.21881 0.75337 0.11166
 N163 N 0.25662 0.77418 0.14800
 C164 C 0.18462 0.71206 0.12730
 C165 C 0.17694 0.69741 0.19532
 C166 C 0.15156 0.65561 0.21652
 C167 C 0.15067 0.65629 0.28642
 C168 C 0.17549 0.69851 0.30551
 N169 N 0.19168 0.72345 0.24977
 C170 C 0.18133 0.71461 0.37240
 C171 C 0.21546 0.75615 0.38695
 C172 C 0.21674 0.78097 0.44156
 C173 C 0.25841 0.81586 0.44244
 C174 C 0.28118 0.81143 0.38807
 N175 N 0.25443 0.77557 0.35355
 C176 C 0.32660 0.83741 0.37421
 H177 H 0.41536 0.86882 0.32087
 H178 H 0.41641 0.86865 0.18720
 H179 H 0.26425 0.76222 0.31489
 H180 H 0.27527 0.83691 0.01582
 H181 H 0.19631 0.76865 0.01474
 H182 H 0.13598 0.62736 0.18542
 H183 H 0.13435 0.62860 0.31890
 H184 H 0.27061 0.84133 0.47925
 H185 H 0.26558 0.76198 0.18983
 H186 H 0.19064 0.77444 0.47759
 C187 C 0.63891 0.50566 0.71148
 C188 C 0.63889 0.50568 0.78132
 C189 C 0.68007 0.53774 0.80158
 N190 N 0.70521 0.55721 0.74647
 C191 C 0.68011 0.53769 0.69133
 C192 C 0.69361 0.55005 0.86953
 C193 C 0.73877 0.57608 0.88688
 C194 C 0.75430 0.59760 0.94780
 C195 C 0.79926 0.61303 0.94895
 C196 C 0.81042 0.60196 0.88757
 N197 N 0.77335 0.57975 0.84984
 C198 C 0.85272 0.60809 0.86994
 C199 C 0.86602 0.60975 0.80156
 C200 C 0.90684 0.61530 0.78129
 C201 C 0.90673 0.61544 0.71170
 C202 C 0.86587 0.61003 0.69140
 N203 N 0.84149 0.60777 0.74646
 C204 C 0.85235 0.60863 0.62301
 C205 C 0.81007 0.60263 0.60536
 C206 C 0.79849 0.61326 0.54345
 C207 C 0.75351 0.59741 0.54445
 C208 C 0.73852 0.57629 0.60598
 N209 N 0.77330 0.58044 0.64339
 C210 C 0.69363 0.54988 0.62334
 H211 H 0.61188 0.48389 0.67954
 H212 H 0.61185 0.48387 0.81316
 H213 H 0.77127 0.56353 0.68764
 H214 H 0.73530 0.60128 0.98815
 H215 H 0.82062 0.63039 0.99071
 H216 H 0.93446 0.61980 0.81294
 H217 H 0.93418 0.62001 0.68001
 H218 H 0.73407 0.60028 0.50351
 H219 H 0.77108 0.56277 0.80591
 H220 H 0.81953 0.63035 0.50126
 C221 C 0.50302 0.12220 0.71887
 C222 C 0.50589 0.12487 0.78844
 C223 C 0.48393 0.14652 0.80838
 N224 N 0.46877 0.15802 0.75296
 C225 C 0.48053 0.14342 0.69800
 C226 C 0.47507 0.15318 0.87612
 C227 C 0.45813 0.18096 0.88978
 C228 C 0.43341 0.17914 0.94619
 C229 C 0.42889 0.21509 0.94410
 C230 C 0.45136 0.23792 0.88678
 N231 N 0.46799 0.21627 0.85299
 C232 C 0.46103 0.27985 0.87050
 C233 C 0.47077 0.29496 0.80278
 C234 C 0.49020 0.33711 0.78222
 C235 C 0.49154 0.33710 0.71234
 C236 C 0.47284 0.29495 0.69252
 N237 N 0.46033 0.26932 0.74789
 C238 C 0.46532 0.28009 0.62471
 C239 C 0.45486 0.23789 0.60887
 C240 C 0.43586 0.21716 0.54860
 C241 C 0.43730 0.17970 0.54938
 C242 C 0.45591 0.17768 0.61122
 N243 N 0.46641 0.21341 0.64712
 C244 C 0.46759 0.14631 0.63051
 H245 H 0.51689 0.10678 0.68838
 H246 H 0.52278 0.11243 0.81971
 H247 H 0.48568 0.22322 0.69110
 H248 H 0.42052 0.15480 0.98525
 H249 H 0.41185 0.22382 0.98138
 H250 H 0.50315 0.36515 0.81376
 H251 H 0.50557 0.36512 0.68027
 H252 H 0.42711 0.15780 0.50734
 H253 H 0.49029 0.22792 0.81262
 H254 H 0.42319 0.22820 0.50726
 C255 C 0.70308 0.11687 0.78908
 C256 C 0.70219 0.11668 0.71956
 C257 C 0.72928 0.15821 0.69838
 N258 N 0.74743 0.18362 0.75322
 C259 C 0.73045 0.15859 0.80900
 C260 C 0.73810 0.17110 0.62922
 C261 C 0.76770 0.21338 0.60862
 C262 C 0.78628 0.22558 0.54438
 C263 C 0.81111 0.26905 0.54445
 C264 C 0.80594 0.28275 0.60780
 N265 N 0.77970 0.24856 0.64679
 C266 C 0.82285 0.32591 0.62636
 C267 C 0.82304 0.33901 0.69411
 C268 C 0.83173 0.37939 0.71291
 C269 C 0.83098 0.37977 0.78264
 C270 C 0.82203 0.33965 0.80432
 N271 N 0.81712 0.31474 0.75009
 C272 C 0.82130 0.32750 0.87307
 C273 C 0.80589 0.28471 0.89349
 C274 C 0.81311 0.27234 0.95699
 C275 C 0.78950 0.22888 0.95930
 C276 C 0.76949 0.21515 0.89611
 N277 N 0.77966 0.24967 0.85637
 C278 C 0.74026 0.17220 0.87776
 H279 H 0.68632 0.08885 0.82076
 H280 H 0.68455 0.08863 0.68849
 H281 H 0.76511 0.24955 0.80990
 H282 H 0.78287 0.20594 0.50114
 H283 H 0.83030 0.28819 0.50188
 H284 H 0.83761 0.40580 0.67992
 H285 H 0.83624 0.40657 0.81365
 H286 H 0.78827 0.21069 1.00355
 H287 H 0.76631 0.24935 0.69357
 H288 H 0.83313 0.29231 0.99818
 C289 C 0.06112 0.46811 0.02762
 C290 C 0.07048 0.44682 -0.02205
 C291 C 0.09630 0.43280 0.00928
 C292 C 0.10142 0.44728 0.07549
 O293 O 0.07976 0.46848 0.08666
 H294 H 0.05953 0.44191 -0.07456
 H295 H 0.10996 0.41441 -0.01345
 C296 C 0.48711 0.58709 0.02488
 C297 C 0.45683 0.59810 -0.00007
 C298 C 0.46621 0.63485 0.03250
 C299 C 0.50269 0.64450 0.07309
 O300 O 0.51464 0.61481 0.06933
 H301 H 0.42912 0.57975 -0.03356
 H302 H 0.44710 0.65130 0.02972
 C303 C 0.41804 0.90788 0.02685
 C304 C 0.39620 0.87769 -0.02247
 C305 C 0.35929 0.84701 0.00865
 C306 C 0.36098 0.86104 0.07453
 O307 O 0.39686 0.89795 0.08556
 H308 H 0.40694 0.87720 -0.07394
 H309 H 0.33497 0.81723 -0.01343
 C310 C 0.92018 0.58489 0.52026
 C311 C 0.92183 0.61679 0.47922
 C312 C 0.89678 0.63108 0.51184
 C313 C 0.88089 0.60590 0.56935
 O314 O 0.89562 0.57833 0.57467
 H315 H 0.94096 0.62962 0.43324
 H316 H 0.89264 0.65789 0.49691
 C317 C 0.46633 0.36010 0.51816
 C318 C 0.48283 0.34319 0.47125
 C319 C 0.48454 0.31067 0.50442
 C320 C 0.46809 0.30956 0.56887
 O321 O 0.45745 0.33992 0.57727
 H322 H 0.49459 0.35474 0.42038
 H323 H 0.49772 0.29113 0.48466
 C324 C 0.65667 0.09010 0.52801
 C325 C 0.69240 0.09469 0.49093
 C326 C 0.72859 0.12583 0.52348
 C327 C 0.71199 0.13878 0.57666
 O328 O 0.66839 0.11647 0.57995
 H329 H 0.69218 0.07581 0.44813
 H330 H 0.76285 0.13629 0.51156
 C331 C 0.49946 0.08859 0.98483
 C332 C 0.50690 0.11963 1.03178
 C333 C 0.49719 0.14745 0.99841
 C334 C 0.48401 0.13105 0.93364
 O335 O 0.48530 0.09522 0.92585
 H336 H 0.52043 0.12298 1.08260
 H337 H 0.50167 0.17734 1.01790
 C338 C 0.59834 0.51461 0.97260
 C339 C 0.62551 0.51151 1.02134
 C340 C 0.66473 0.52390 0.98940
 C341 C 0.65924 0.53498 0.92395
 O342 O 0.61865 0.52884 0.91361
 H343 H 0.61712 0.49978 1.07303
 H344 H 0.69356 0.52387 1.01098
 C345 C 0.88619 0.41852 0.97276
 C346 C 0.85366 0.39707 1.02056
 C347 C 0.82372 0.36049 0.98915
 C348 C 0.84082 0.36184 0.92514
 O349 O 0.87838 0.39735 0.91499
 H350 H 0.85178 0.40704 1.07174
 H351 H 0.79339 0.33553 1.01063
 C352 C 0.56653 0.91037 0.47031
 C353 C 0.57940 0.89151 0.52021
 C354 C 0.58118 0.85873 0.48864
 C355 C 0.56876 0.85983 0.42202
 O356 O 0.56013 0.89132 0.41079
 H357 H 0.58593 0.90018 0.57336
 H358 H 0.58973 0.83625 0.51155
 C359 C 0.34350 0.42066 0.46773
 C360 C 0.31183 0.39665 0.51523
 C361 C 0.27236 0.38649 0.48478
 C362 C 0.28319 0.40598 0.42165
 O363 O 0.32630 0.42615 0.41099
 H364 H 0.31695 0.38763 0.56575
 H365 H 0.23972 0.36812 0.50651
 C366 C 0.09700 0.63739 0.47620
 C367 C 0.12720 0.65794 0.52750
 C368 C 0.16290 0.68994 0.49596
 C369 C 0.15149 0.68739 0.42782
 O370 O 0.11145 0.65529 0.41603
 H371 H 0.12462 0.64911 0.58075
 H372 H 0.19417 0.71129 0.51969
 C373 C 0.92304 0.58639 0.97248
 C374 C 0.92452 0.61821 1.01286
 C375 C 0.89839 0.63161 0.98035
 C376 C 0.88202 0.60599 0.92364
 O377 O 0.89746 0.57897 0.91871
 H378 H 0.94398 0.63138 1.05853
 H379 H 0.89379 0.65811 0.99483
 C380 C 0.46254 0.36047 0.97451
 C381 C 0.47458 0.34080 1.02407
 C382 C 0.47509 0.30757 0.99228
 C383 C 0.46248 0.30882 0.92569
 O384 O 0.45519 0.34126 0.91493
 H385 H 0.48426 0.35091 1.07610
 H386 H 0.48535 0.28616 1.01450
 C387 C 0.65852 0.09242 0.98135
 C388 C 0.69336 0.10170 1.02489
 C389 C 0.72988 0.13163 0.99133
 C390 C 0.71422 0.14034 0.93168
 O391 O 0.67099 0.11570 0.92535
 H392 H 0.69270 0.08617 1.07258
 H393 H 0.76375 0.14345 1.00733
 C394 C 0.07917 0.49092 0.46809
 C395 C 0.12102 0.51699 0.49256
 C396 C 0.14716 0.50408 0.46081
 C397 C 0.11913 0.46956 0.42138
 O398 O 0.07783 0.46259 0.42420
 H399 H 0.13169 0.54443 0.52512
 H400 H 0.18286 0.51959 0.46353
 C401 C 0.49468 0.58844 0.47106
 C402 C 0.51137 0.61802 0.52243
 C403 C 0.52352 0.65610 0.49148
 C404 C 0.51249 0.64694 0.42347
 O405 O 0.49522 0.60576 0.41127
 H406 H 0.51649 0.61275 0.57524
 H407 H 0.54009 0.68699 0.51540
 C408 C 0.41503 0.90729 0.47963
 C409 C 0.39050 0.87858 0.52976
 C410 C 0.35354 0.84864 0.49750
 C411 C 0.35783 0.86166 0.43023
 O412 O 0.39522 0.89728 0.41961
 H413 H 0.39937 0.87846 0.58267
 H414 H 0.32744 0.81993 0.51998
 C415 C 0.57637 0.91716 0.02771
 C416 C 0.59592 0.90427 -0.02083
 C417 C 0.59960 0.87167 0.00894
 C418 C 0.58117 0.86670 0.07286
 O419 O 0.56757 0.89461 0.08437
 H420 H 0.60606 0.91698 -0.07165
 H421 H 0.61324 0.85322 -0.01361
 C422 C 0.34613 0.43033 0.02614
 C423 C 0.31432 0.41417 -0.02420
 C424 C 0.27597 0.40676 0.00663
 C425 C 0.28741 0.41957 0.07330
 O426 O 0.32995 0.43355 0.08526
 H427 H 0.31867 0.40873 -0.07704
 H428 H 0.24365 0.39405 -0.01676
 C429 C 0.10260 0.63356 0.02250
 C430 C 0.13521 0.65108 -0.02614
 C431 C 0.17037 0.68336 0.00602
 C432 C 0.15639 0.68360 0.07179
 O433 O 0.11524 0.65313 0.08170
 H434 H 0.13416 0.64033 -0.07779
 H435 H 0.20283 0.70324 -0.01535
 C436 C 0.48254 0.07406 0.52808
 C437 C 0.44061 0.06310 0.50575
 C438 C 0.42934 0.08924 0.54010
 C439 C 0.46581 0.11507 0.57943
 O440 O 0.49774 0.10519 0.57284
 H441 H 0.41949 0.03683 0.47307
 H442 H 0.39735 0.08774 0.53964
 C443 C 0.59896 0.51379 0.51891
 C444 C 0.62533 0.50834 0.47225
 C445 C 0.66461 0.52116 0.50483
 C446 C 0.65952 0.53427 0.56858
 O447 O 0.61944 0.52935 0.57728
 H448 H 0.61633 0.49488 0.42176
 H449 H 0.69316 0.52004 0.48507
 C450 C 0.88840 0.41598 0.52462
 C451 C 0.85437 0.39570 0.47854
 C452 C 0.82463 0.35912 0.51038
 C453 C 0.84313 0.35955 0.57311
 O454 O 0.88161 0.39429 0.58198
 H455 H 0.85127 0.40667 0.42844
 H456 H 0.79315 0.33511 0.49049
   
