data_POSCAR
  _audit_creation_date              2014-09-24
  _audit_creation_method            'ToBaCCo'
  _symmetry_space_group_name_H-M    'P1'
  _symmetry_Int_Tables_number       1
  _symmetry_cell_setting            triclinic
  loop_
  _symmetry_equiv_pos_as_xyz
 x,y,z
_cell_length_a 64.9263
_cell_length_b 65.5370
_cell_length_c 20.6379
_cell_angle_alpha 90.261400
_cell_angle_beta 90.351100
_cell_angle_gamma 120.184800
loop_
  _atom_site_label
  _atom_site_type_symbol
  _atom_site_fract_x
  _atom_site_fract_y
  _atom_site_fract_z
C1 C 0.24620 0.50140 0.51983
 C2 C 0.24481 0.49616 0.45537
 C3 C 0.22309 0.49015 0.41691
 C4 C 0.26499 0.49660 0.42033
 C5 C 0.26623 0.50406 0.56090
 C6 C 0.22721 0.50375 0.55307
 C7 C 0.20078 0.47149 0.43511
 C8 C 0.18013 0.46747 0.40255
 C9 C 0.18123 0.48192 0.35068
 C10 C 0.20402 0.50004 0.33098
 C11 C 0.22461 0.50394 0.36364
 C12 C 0.26115 0.47706 0.38284
 C13 C 0.28002 0.47719 0.35012
 C14 C 0.30314 0.49698 0.35416
 C15 C 0.30677 0.51676 0.39028
 C16 C 0.28791 0.51659 0.42305
 C17 C 0.27909 0.52431 0.59968
 C18 C 0.29764 0.52671 0.63960
 C19 C 0.30364 0.50893 0.64143
 C20 C 0.29034 0.48838 0.60357
 C21 C 0.27181 0.48600 0.56370
 C22 C 0.21978 0.51915 0.52984
 C23 C 0.20114 0.52030 0.55981
 C24 C 0.19003 0.50657 0.61448
 C25 C 0.19789 0.49158 0.63863
 C26 C 0.21637 0.49027 0.60828
 H27 H 0.19932 0.46042 0.47566
 H28 H 0.16316 0.45323 0.41917
 H29 H 0.20654 0.51184 0.29171
 H30 H 0.24174 0.51835 0.34881
 H31 H 0.24353 0.46160 0.37931
 H32 H 0.27628 0.46194 0.32098
 H33 H 0.29117 0.53209 0.45042
 H34 H 0.27482 0.53830 0.59871
 H35 H 0.30742 0.54256 0.66889
 H36 H 0.29378 0.47387 0.60563
 H37 H 0.26158 0.46991 0.53563
 H38 H 0.22823 0.53007 0.48807
 H39 H 0.19538 0.53196 0.54028
 H40 H 0.18937 0.48030 0.67967
 H41 H 0.22182 0.47827 0.62693
 H42 H 0.32430 0.53237 0.39339
 C43 C 0.51440 -0.24168 0.53774
 C44 C 0.51130 -0.24219 0.47213
 C45 C 0.51309 -0.25992 0.43127
 C46 C 0.50652 -0.22489 0.43851
 C47 C 0.51735 -0.22150 0.57785
 C48 C 0.51483 -0.26141 0.57201
 C49 C 0.53376 -0.26155 0.43390
 C50 C 0.53552 -0.27888 0.39943
 C51 C 0.51555 -0.29667 0.35777
 C52 C 0.49439 -0.29297 0.35559
 C53 C 0.49395 -0.27512 0.39125
 C54 C 0.51989 -0.21275 0.38413
 C55 C 0.51631 -0.19565 0.35423
 C56 C 0.49920 -0.19045 0.37813
 C57 C 0.48548 -0.20298 0.43153
 C58 C 0.48881 -0.22031 0.46079
 C59 C 0.50215 -0.22566 0.63009
 C60 C 0.50310 -0.20711 0.66569
 C61 C 0.52055 -0.18164 0.65001
 C62 C 0.53683 -0.17903 0.59567
 C63 C 0.53488 -0.19844 0.56235
 C64 C 0.49618 -0.28472 0.56349
 C65 C 0.49685 -0.30335 0.59412
 C66 C 0.51619 -0.29903 0.63504
 C67 C 0.53464 -0.27550 0.64410
 C68 C 0.53390 -0.25691 0.61328
 H69 H 0.54869 -0.24935 0.46403
 H70 H 0.55168 -0.27976 0.40380
 H71 H 0.47898 -0.30464 0.32631
 H72 H 0.47814 -0.27353 0.38900
 H73 H 0.53358 -0.21602 0.36596
 H74 H 0.52753 -0.18598 0.31395
 H75 H 0.47782 -0.22988 0.50155
 H76 H 0.48880 -0.24357 0.64219
 H77 H 0.49059 -0.21118 0.70465
 H78 H 0.55024 -0.16149 0.58093
 H79 H 0.54693 -0.19542 0.52274
 H80 H 0.48108 -0.28853 0.53264
 H81 H 0.48221 -0.32089 0.58436
 H82 H 0.54979 -0.27138 0.67512
 H83 H 0.54843 -0.23902 0.62077
 H84 H 0.47217 -0.19932 0.45075
 C85 C 1.24882 0.75010 0.53766
 C86 C 1.25093 0.74778 0.47274
 C87 C 1.27091 0.76637 0.43506
 C88 C 1.23269 0.72698 0.43533
 C89 C 1.22662 0.73360 0.57220
 C90 C 1.26849 0.76910 0.57692
 C91 C 1.27566 0.78972 0.43674
 C92 C 1.29335 0.80686 0.39781
 C93 C 1.30671 0.80096 0.35572
 C94 C 1.30180 0.77744 0.35457
 C95 C 1.28407 0.76035 0.39357
 C96 C 1.22206 0.73035 0.38015
 C97 C 1.20488 0.71101 0.34457
 C98 C 1.19796 0.68786 0.36364
 C99 C 1.20906 0.68455 0.41793
 C100 C 1.22627 0.70392 0.45352
 C101 C 1.22762 0.72116 0.62595
 C102 C 1.20672 0.70459 0.65647
 C103 C 1.18422 0.70011 0.63370
 C104 C 1.18353 0.71351 0.58150
 C105 C 1.20447 0.73007 0.55120
 C106 C 1.29158 0.77243 0.57521
 C107 C 1.30991 0.79023 0.61251
 C108 C 1.30566 0.80516 0.65256
 C109 C 1.28225 0.80139 0.65498
 C110 C 1.26394 0.78352 0.61770
 H111 H 1.26527 0.79459 0.46726
 H112 H 1.29585 0.82440 0.40071
 H113 H 1.31156 0.77213 0.32291
 H114 H 1.28050 0.74235 0.39116
 H115 H 1.22698 0.74800 0.36486
 H116 H 1.19738 0.71433 0.30173
 H117 H 1.23462 0.70096 0.49519
 H118 H 1.24461 0.72394 0.64350
 H119 H 1.20868 0.69564 0.69772
 H120 H 1.16669 0.71090 0.56312
 H121 H 1.20337 0.73994 0.51066
 H122 H 1.29540 0.76117 0.54517
 H123 H 1.32754 0.79233 0.60976
 H124 H 1.27759 0.81175 0.68589
 H125 H 1.24617 0.78104 0.62033
 H126 H 1.20428 0.66692 0.43312
 C127 C 0.74476 0.49624 0.52870
 C128 C 0.74496 0.49755 0.46274
 C129 C 0.76656 0.50269 0.42552
 C130 C 0.72401 0.49423 0.42433
 C131 C 0.72439 0.49341 0.56798
 C132 C 0.76568 0.49872 0.56528
 C133 C 0.78821 0.52376 0.43575
 C134 C 0.80865 0.52790 0.40260
 C135 C 0.80780 0.51122 0.35802
 C136 C 0.78593 0.49024 0.34722
 C137 C 0.76549 0.48616 0.38030
 C138 C 0.72714 0.51073 0.37669
 C139 C 0.70787 0.50788 0.33931
 C140 C 0.68490 0.48846 0.34911
 C141 C 0.68190 0.47162 0.39563
 C142 C 0.70127 0.47441 0.43277
 C143 C 0.71400 0.47520 0.61333
 C144 C 0.69554 0.47290 0.65276
 C145 C 0.68705 0.48883 0.64823
 C146 C 0.69780 0.50731 0.60275
 C147 C 0.71624 0.50951 0.56325
 C148 C 0.77438 0.48333 0.55387
 C149 C 0.79505 0.48682 0.58528
 C150 C 0.80737 0.50576 0.62959
 C151 C 0.79806 0.52069 0.64191
 C152 C 0.77742 0.51715 0.61037
 H153 H 0.78930 0.53686 0.46996
 H154 H 0.82522 0.54416 0.41204
 H155 H 0.78452 0.47661 0.31477
 H156 H 0.74894 0.46978 0.37196
 H157 H 0.74459 0.52592 0.36845
 H158 H 0.71124 0.52076 0.30225
 H159 H 0.69854 0.46105 0.46780
 H160 H 0.72018 0.46270 0.61811
 H161 H 0.68792 0.45855 0.68712
 H162 H 0.69265 0.52051 0.59760
 H163 H 0.72445 0.52405 0.52963
 H164 H 0.76534 0.46881 0.51972
 H165 H 0.80116 0.47472 0.57333
 H166 H 0.80689 0.53536 0.67573
 H167 H 0.77092 0.52919 0.61991
 H168 H 0.66450 0.45630 0.40341
 C169 C 0.51065 0.26067 0.52815
 C170 C 0.51211 0.26089 0.46217
 C171 C 0.51515 0.28108 0.42240
 C172 C 0.50961 0.24006 0.42610
 C173 C 0.50579 0.23937 0.56569
 C174 C 0.51383 0.28128 0.56684
 C175 C 0.49969 0.29011 0.42861
 C176 C 0.50209 0.30832 0.38847
 C177 C 0.51998 0.31779 0.34104
 C178 C 0.53513 0.30844 0.33436
 C179 C 0.53276 0.29031 0.37459
 C180 C 0.49096 0.22828 0.38109
 C181 C 0.48703 0.20741 0.35137
 C182 C 0.50178 0.19802 0.36562
 C183 C 0.52089 0.21025 0.40963
 C184 C 0.52490 0.23122 0.43891
 C185 C 0.52272 0.24110 0.61092
 C186 C 0.51967 0.22156 0.64518
 C187 C 0.49768 0.19714 0.63571
 C188 C 0.48017 0.19745 0.58763
 C189 C 0.48462 0.21791 0.55552
 C190 C 0.53386 0.30384 0.55976
 C191 C 0.53690 0.32259 0.59933
 C192 C 0.52027 0.31915 0.64781
 C193 C 0.50016 0.29636 0.65431
 C194 C 0.49709 0.27779 0.61441
 H195 H 0.48544 0.28270 0.46358
 H196 H 0.48943 0.31433 0.39357
 H197 H 0.54884 0.31518 0.29777
 H198 H 0.54466 0.28338 0.36825
 H199 H 0.47898 0.23485 0.37053
 H200 H 0.47219 0.19839 0.31778
 H201 H 0.53954 0.24021 0.47310
 H202 H 0.53890 0.25788 0.61881
 H203 H 0.53356 0.22387 0.67875
 H204 H 0.46372 0.18120 0.57729
 H205 H 0.47142 0.21694 0.52135
 H206 H 0.54731 0.30688 0.52429
 H207 H 0.55256 0.33979 0.59259
 H208 H 0.48635 0.29240 0.68906
 H209 H 0.48148 0.26053 0.62070
 H210 H 0.53245 0.20354 0.42325
 C211 C 0.75505 0.23845 0.55241
 C212 C 0.75511 0.24014 0.48663
 C213 C 0.73411 0.22347 0.44670
 C214 C 0.77607 0.25881 0.45178
 C215 C 0.77292 0.25824 0.59347
 C216 C 0.73674 0.21695 0.58571
 C217 C 0.73696 0.21186 0.39324
 C218 C 0.71730 0.19639 0.35519
 C219 C 0.69439 0.19230 0.36998
 C220 C 0.69171 0.20443 0.42248
 C221 C 0.71137 0.21987 0.46048
 C222 C 0.79884 0.26223 0.46408
 C223 C 0.81876 0.27934 0.43164
 C224 C 0.81697 0.29473 0.38115
 C225 C 0.79182 0.28969 0.37063
 C226 C 0.77276 0.27237 0.40521
 C227 C 0.77657 0.28108 0.58605
 C228 C 0.79363 0.29983 0.62363
 C229 C 0.80741 0.29611 0.67024
 C230 C 0.80339 0.27304 0.67787
 C231 C 0.78621 0.25430 0.64031
 C232 C 0.72313 0.21879 0.63532
 C233 C 0.70511 0.19853 0.66468
 C234 C 0.70055 0.17593 0.64539
 C235 C 0.71464 0.17428 0.59659
 C236 C 0.73260 0.19455 0.56725
 H237 H 0.75442 0.21472 0.38115
 H238 H 0.72023 0.18802 0.31381
 H239 H 0.67433 0.20183 0.43437
 H240 H 0.70887 0.22913 0.50051
 H241 H 0.80123 0.25136 0.49924
 H242 H 0.83603 0.28144 0.44291
 H243 H 0.75510 0.26960 0.39578
 H244 H 0.76624 0.28443 0.55072
 H245 H 0.79599 0.31707 0.61441
 H246 H 0.81356 0.26942 0.71311
 H247 H 0.78358 0.23676 0.64700
 H248 H 0.72604 0.23593 0.65016
 H249 H 0.69473 0.20095 0.70130
 H250 H 0.71164 0.15720 0.58076
 H251 H 0.74316 0.19276 0.52962
 H252 H 0.78834 0.29982 0.33550
 O253 O 1.02481 0.55350 0.12007
 O254 O 1.05390 0.55110 0.06397
 C255 C 1.04692 0.56042 0.10799
 O256 O 0.96521 0.44694 0.10264
 O257 O 0.93820 0.45198 0.03635
 C258 C 0.94233 0.43949 0.08205
 O259 O 1.03149 0.48545 0.11887
 O260 O 1.05711 0.51881 0.06300
 C261 C 1.05267 0.50277 0.10573
 O262 O 0.95858 0.51833 0.09897
 O263 O 0.93566 0.48557 0.03564
 C264 C 0.93815 0.50137 0.07790
 Zr265 Zr 0.99356 0.52609 0.07593
 O266 O 0.98835 0.52343 0.17737
 O267 O 0.99312 0.55816 0.07486
 Zr268 Zr 0.99803 0.47683 0.07700
 O269 O 0.99319 0.47495 0.17864
 O270 O 1.00311 0.44735 0.07772
 O271 O 1.01664 0.51318 0.09348
 O272 O 0.97488 0.48975 0.08395
 O273 O 0.96400 0.52055 -0.12545
 O274 O 0.93844 0.48656 -0.07172
 C275 C 0.94285 0.50303 -0.11301
 O276 O 1.03687 0.48887 -0.11693
 O277 O 1.05993 0.52007 -0.04867
 C278 C 1.05733 0.50559 -0.09518
 O279 O 0.97019 0.44913 -0.12375
 O280 O 0.94126 0.45279 -0.07075
 C281 C 0.94809 0.44230 -0.11140
 O282 O 1.03125 0.55595 -0.11810
 O283 O 1.05700 0.55214 -0.04923
 C284 C 1.05250 0.56238 -0.09609
 Zr285 Zr 0.99759 0.52801 -0.08718
 O286 O 0.99754 0.52878 -0.18970
 O287 O 0.99610 0.55943 -0.08073
 Zr288 Zr 1.00179 0.47847 -0.08629
 O289 O 1.00145 0.47724 -0.18881
 O290 O 1.00738 0.44931 -0.08301
 Zr291 Zr 1.03300 0.52208 0.00203
 Zr292 Zr 0.96256 0.48263 -0.01252
 O293 O 0.97949 0.49189 -0.10294
 O294 O 1.02103 0.51512 -0.09516
 O295 O 0.97407 0.51894 -0.01016
 O296 O 1.02083 0.48565 -0.00060
 O297 O 1.01600 0.54220 -0.00142
 O298 O 0.97899 0.46194 -0.00871
 H299 H 0.96313 0.48330 0.11939
 H300 H 1.03260 0.48026 0.00131
 H301 H 0.96975 0.48629 -0.14318
 H302 H 1.02586 0.55964 0.00060
 H303 H 0.99082 0.43511 0.04896
 H304 H 0.99342 0.43620 -0.06171
 H305 H 1.01343 0.49312 -0.20397
 H306 H 1.01063 0.52634 -0.20441
 H307 H 0.99674 0.56478 -0.12588
 H308 H 0.98263 0.55712 0.03846
 H309 H 1.00124 0.52153 0.19683
 H310 H 1.00651 0.48947 0.19806
 O311 O 0.51168 0.54872 -0.13543
 O312 O 0.47868 0.54140 -0.07703
 C313 C 0.49433 0.55246 -0.12154
 O314 O 0.47854 0.44407 -0.11779
 O315 O 0.51206 0.45396 -0.05709
 C316 C 0.49564 0.44069 -0.09879
 O317 O 0.44388 0.47502 -0.13606
 O318 O 0.44629 0.50608 -0.07793
 C319 C 0.43700 0.49001 -0.12298
 O320 O 0.55088 0.52217 -0.11988
 O321 O 0.54629 0.49087 -0.05912
 C322 C 0.55739 0.50733 -0.10176
 Zr323 Zr 0.52101 0.52484 -0.09335
 O324 O 0.52407 0.52379 -0.19520
 O325 O 0.55148 0.55886 -0.08579
 Zr326 Zr 0.47111 0.47098 -0.09244
 O327 O 0.47288 0.46773 -0.19406
 O328 O 0.43819 0.43882 -0.09027
 O329 O 0.48431 0.50681 -0.10896
 O330 O 0.50768 0.48884 -0.10186
 O331 O 0.54934 0.52460 0.10631
 O332 O 0.54561 0.49227 0.05177
 C333 C 0.55614 0.50951 0.09325
 O334 O 0.44194 0.47853 0.10266
 O335 O 0.44547 0.50800 0.03577
 C336 C 0.43531 0.49313 0.08231
 O337 O 0.47736 0.44748 0.10666
 O338 O 0.51133 0.45535 0.05226
 C339 C 0.49460 0.44355 0.09392
 O340 O 0.51011 0.55111 0.10353
 O341 O 0.47845 0.54296 0.03669
 C342 C 0.49326 0.55475 0.08321
 Zr343 Zr 0.52022 0.52700 0.06876
 O344 O 0.52338 0.53139 0.17055
 O345 O 0.55085 0.56047 0.05545
 Zr346 Zr 0.47001 0.47331 0.07043
 O347 O 0.47045 0.47338 0.17303
 O348 O 0.43723 0.44097 0.06930
 Zr349 Zr 0.47566 0.51425 -0.01691
 Zr350 Zr 0.51543 0.48353 -0.00631
 O351 O 0.50654 0.49136 0.08478
 O352 O 0.48329 0.50944 0.07944
 O353 O 0.53637 0.52064 -0.00924
 O354 O 0.45529 0.47721 -0.01419
 O355 O 0.51239 0.53878 -0.01525
 O356 O 0.47858 0.45874 -0.00764
 H357 H 0.51378 0.48369 -0.13860
 H358 H 0.43769 0.46956 -0.01579
 H359 H 0.51222 0.48727 0.12463
 H360 H 0.51771 0.55584 -0.01681
 H361 H 0.44049 0.42760 -0.06365
 H362 H 0.43989 0.42910 0.04701
 H363 H 0.47134 0.48819 0.18784
 H364 H 0.51049 0.51666 0.18916
 H365 H 0.55593 0.56749 0.09933
 H366 H 0.55669 0.56397 -0.13079
 H367 H 0.50823 0.51900 -0.21418
 H368 H 0.47547 0.48259 -0.21345
 O369 O 0.48284 0.03716 0.13974
 O370 O 0.51636 0.06054 0.08057
 C371 C 0.50123 0.05745 0.12538
 O372 O 0.50862 -0.03990 0.12461
 O373 O 0.47482 -0.06181 0.06330
 C374 C 0.49067 -0.05985 0.10519
 O375 O 0.54772 0.02532 0.13931
 O376 O 0.54725 0.05482 0.08128
 C377 C 0.55608 0.04735 0.12550
 O378 O 0.43969 -0.02796 0.12444
 O379 O 0.44190 -0.05630 0.06378
 C380 C 0.43174 -0.04966 0.10631
 Zr381 Zr 0.47093 0.00329 0.09754
 O382 O 0.46724 -0.00001 0.19934
 O383 O 0.44222 0.00968 0.08840
 Zr384 Zr 0.51837 -0.00506 0.09817
 O385 O 0.51564 -0.00906 0.20008
 O386 O 0.54934 -0.00806 0.09799
 O387 O 0.50761 0.01966 0.11358
 O388 O 0.48182 -0.02135 0.10726
 O389 O 0.44159 -0.02529 -0.10206
 O390 O 0.44288 -0.05486 -0.04629
 C391 C 0.43333 -0.04737 -0.08840
 O392 O 0.54929 0.02948 -0.09827
 O393 O 0.54787 0.05680 -0.03134
 C394 C 0.55726 0.05099 -0.07769
 O395 O 0.51051 -0.03684 -0.09877
 O396 O 0.47564 -0.06033 -0.04488
 C397 C 0.49230 -0.05726 -0.08467
 O398 O 0.48408 0.03957 -0.10065
 O399 O 0.51743 0.06233 -0.03206
 C400 C 0.50269 0.06109 -0.08128
 Zr401 Zr 0.47201 0.00524 -0.06466
 O402 O 0.46947 0.00640 -0.16662
 O403 O 0.44287 0.01072 -0.05195
 Zr404 Zr 0.51971 -0.00266 -0.06522
 O405 O 0.51944 -0.00373 -0.16779
 O406 O 0.55023 -0.00629 -0.05958
 Zr407 Zr 0.51716 0.03493 0.02114
 Zr408 Zr 0.47340 -0.03478 0.01198
 O409 O 0.48328 -0.01889 -0.07957
 O410 O 0.50890 0.02223 -0.07504
 O411 O 0.45467 -0.01622 0.01375
 O412 O 0.53528 0.01592 0.01916
 O413 O 0.48113 0.02554 0.01879
 O414 O 0.50957 -0.02534 0.01370
 H415 H 0.47501 -0.03235 0.14408
 H416 H 0.55294 0.02466 0.02045
 H417 H 0.47713 -0.02894 -0.11896
 H418 H 0.47720 0.03833 0.01974
 H419 H 0.54750 -0.01889 0.06197
 H420 H 0.55519 -0.00632 -0.10487
 H421 H 0.51929 0.01047 -0.18318
 H422 H 0.48040 0.00157 -0.18486
 H423 H 0.43800 0.01266 -0.09601
 H424 H 0.43706 0.01021 0.13315
 H425 H 0.48346 0.00871 0.21831
 H426 H 0.51668 0.00536 0.21874
 C427 C 1.16052 0.47821 0.32365
 C428 C 1.15866 0.49125 0.27251
 C429 C 1.13580 0.48851 0.24871
 C430 C 1.13544 0.49768 0.18771
 C431 C 1.11485 0.49692 0.16448
 C432 C 1.09412 0.48715 0.20215
 C433 C 1.09418 0.47741 0.26244
 C434 C 1.11489 0.47829 0.28598
 C435 C 1.07231 0.48671 0.17878
 C436 C 1.07351 0.50428 0.13851
 H437 H 1.17431 0.50399 0.24708
 H438 H 1.15121 0.50555 0.15784
 H439 H 1.11520 0.50383 0.11671
 H440 H 1.07836 0.46967 0.29208
 H441 H 1.11449 0.47153 0.33390
 H442 H 1.05512 0.47251 0.19403
 H443 H 1.14406 0.46416 0.34321
 H444 H 1.09072 0.51936 0.12736
 C445 C 0.51759 0.68184 0.31937
 C446 C 0.49859 0.66343 0.28644
 C447 C 0.50069 0.64427 0.25498
 C448 C 0.48062 0.62572 0.22433
 C449 C 0.48197 0.60725 0.19456
 C450 C 0.50357 0.60710 0.19439
 C451 C 0.52356 0.62551 0.22579
 C452 C 0.52220 0.64397 0.25563
 C453 C 0.50582 0.58793 0.16328
 C454 C 0.49050 0.57344 0.11423
 H455 H 0.48156 0.66274 0.28475
 H456 H 0.46379 0.62543 0.22378
 H457 H 0.46593 0.59300 0.17287
 H458 H 0.54034 0.62571 0.22680
 H459 H 0.53800 0.65793 0.27917
 H460 H 0.52077 0.58588 0.17755
 H461 H 0.51556 0.69229 0.33762
 H462 H 0.47638 0.57614 0.09624
 C463 C 0.32437 -0.18270 0.31405
 C464 C 0.33169 -0.15865 0.31125
 C465 C 0.35008 -0.14201 0.26627
 C466 C 0.36232 -0.11794 0.28251
 C467 C 0.37955 -0.10144 0.24142
 C468 C 0.38467 -0.10863 0.18224
 C469 C 0.37257 -0.13273 0.16604
 C470 C 0.35528 -0.14930 0.20735
 C471 C 0.40318 -0.09150 0.13829
 C472 C 0.41025 -0.06758 0.13894
 H473 H 0.32489 -0.15096 0.34520
 H474 H 0.35874 -0.11187 0.32771
 H475 H 0.38912 -0.08319 0.25712
 H476 H 0.37632 -0.13872 0.12098
 H477 H 0.34582 -0.16763 0.19228
 H478 H 0.41180 -0.09782 0.10561
 H479 H 0.33319 -0.18917 0.28273
 H480 H 0.40084 -0.06130 0.16850
 C481 C 0.83019 0.51587 0.32624
 C482 C 0.83086 0.50384 0.27085
 C483 C 0.85319 0.50735 0.24129
 C484 C 0.85228 0.49925 0.17766
 C485 C 0.87266 0.50143 0.14846
 C486 C 0.89443 0.51157 0.18270
 C487 C 0.89543 0.51990 0.24607
 C488 C 0.87503 0.51766 0.27537
 C489 C 0.91639 0.51392 0.15396
 C490 C 0.91618 0.49953 0.10352
 H491 H 0.81436 0.49180 0.24618
 H492 H 0.83572 0.49124 0.15026
 H493 H 0.87125 0.49540 0.09892
 H494 H 0.91198 0.52778 0.27350
 H495 H 0.87646 0.52358 0.32502
 H496 H 0.93331 0.52655 0.17596
 H497 H 0.84671 0.52988 0.34652
 H498 H 0.89942 0.48572 0.08377
 C499 C 0.52263 0.33647 0.29570
 C500 C 0.51447 0.35211 0.30931
 C501 C 0.51543 0.37003 0.26355
 C502 C 0.50309 0.38176 0.28005
 C503 C 0.50273 0.39832 0.23850
 C504 C 0.51464 0.40352 0.17886
 C505 C 0.52770 0.39247 0.16312
 C506 C 0.52804 0.37580 0.20477
 C507 C 0.51404 0.42071 0.13347
 C508 C 0.49487 0.42470 0.13155
 H509 H 0.50647 0.35103 0.35593
 H510 H 0.49353 0.37801 0.32531
 H511 H 0.49332 0.40720 0.25382
 H512 H 0.53739 0.39650 0.11803
 H513 H 0.53829 0.36773 0.19044
 H514 H 0.52876 0.43012 0.10057
 H515 H 0.53163 0.33789 0.25069
 H516 H 0.47948 0.41416 0.16138
 C517 C 0.67307 0.17601 0.33111
 C518 C 0.67156 0.15723 0.29495
 C519 C 0.64988 0.14015 0.25865
 C520 C 0.64651 0.11770 0.24485
 C521 C 0.62623 0.10094 0.21123
 C522 C 0.60887 0.10636 0.19046
 C523 C 0.61257 0.12905 0.20241
 C524 C 0.63284 0.14582 0.23634
 C525 C 0.58718 0.08896 0.15483
 C526 C 0.57723 0.06466 0.16212
 H527 H 0.68613 0.15370 0.29720
 H528 H 0.65958 0.11305 0.26049
 H529 H 0.62446 0.08394 0.20077
 H530 H 0.59965 0.13377 0.18586
 H531 H 0.63522 0.16321 0.24404
 H532 H 0.57823 0.09551 0.12402
 H533 H 0.65749 0.17787 0.33524
 H534 H 0.58487 0.05791 0.19672
 C535 C 0.49277 0.17347 -0.32950
 C536 C 0.50859 0.17264 -0.28535
 C537 C 0.50406 0.15041 -0.25466
 C538 C 0.52069 0.15111 -0.20965
 C539 C 0.51712 0.13046 -0.18002
 C540 C 0.49678 0.10861 -0.19495
 C541 C 0.48015 0.10789 -0.24004
 C542 C 0.48370 0.12857 -0.26960
 C543 C 0.49249 0.08644 -0.16432
 C544 C 0.50770 0.08623 -0.11708
 H545 H 0.52498 0.18871 -0.27296
 H546 H 0.53653 0.16769 -0.19736
 H547 H 0.53034 0.13168 -0.14559
 H548 H 0.46434 0.09128 -0.25238
 H549 H 0.47053 0.12740 -0.30419
 H550 H 0.47685 0.06994 -0.17858
 H551 H 0.49615 0.18607 -0.34594
 H552 H 0.50481 0.07352 -0.10021
 C553 C 0.66854 0.48575 -0.31005
 C554 C 0.65733 0.49927 -0.31134
 C555 C 0.63826 0.49614 -0.26604
 C556 C 0.62424 0.50607 -0.28284
 C557 C 0.60666 0.50451 -0.24127
 C558 C 0.60283 0.49323 -0.18106
 C559 C 0.61640 0.48276 -0.16464
 C560 C 0.63413 0.48437 -0.20634
 C561 C 0.58454 0.49197 -0.13587
 C562 C 0.57838 0.50952 -0.13474
 H563 H 0.66168 0.51225 -0.34871
 H564 H 0.62684 0.51508 -0.32856
 H565 H 0.59593 0.51197 -0.25698
 H566 H 0.61363 0.47377 -0.11884
 H567 H 0.64478 0.47684 -0.19069
 H568 H 0.57577 0.47706 -0.10361
 H569 H 0.66225 0.47153 -0.27552
 H570 H 0.58837 0.52511 -0.16394
 C571 C 0.82525 0.31445 -0.29150
 C572 C 0.82971 0.33772 -0.28952
 C573 C 0.84933 0.35672 -0.25085
 C574 C 0.84708 0.37591 -0.22994
 C575 C 0.86541 0.39446 -0.19468
 C576 C 0.88660 0.39451 -0.18072
 C577 C 0.88892 0.37530 -0.20157
 C578 C 0.87049 0.35662 -0.23651
 C579 C 0.90560 0.41465 -0.14365
 C580 C 0.92969 0.42142 -0.14671
 H581 H 0.81782 0.34230 -0.31370
 H582 H 0.83104 0.37649 -0.24069
 H583 H 0.86314 0.40900 -0.17894
 H584 H 0.90479 0.37447 -0.19054
 H585 H 0.87309 0.34241 -0.25317
 H586 H 0.90052 0.42547 -0.11583
 H587 H 0.83588 0.31009 -0.26011
 H588 H 0.93546 0.41199 -0.17795
 C589 C 0.52217 -0.15801 -0.31328
 C590 C 0.50692 -0.15972 -0.26407
 C591 C 0.50776 -0.13863 -0.23517
 C592 C 0.49217 -0.14153 -0.18472
 C593 C 0.49217 -0.12202 -0.15719
 C594 C 0.50768 -0.09912 -0.18016
 C595 C 0.52350 -0.09622 -0.23005
 C596 C 0.52353 -0.11574 -0.25746
 C597 C 0.50843 -0.07786 -0.15238
 C598 C 0.49027 -0.07856 -0.11481
 H599 H 0.49362 -0.17699 -0.24708
 H600 H 0.47997 -0.15897 -0.16641
 H601 H 0.48023 -0.12506 -0.11744
 H602 H 0.53578 -0.07879 -0.24825
 H603 H 0.53582 -0.11285 -0.29629
 H604 H 0.52387 -0.06086 -0.16275
 H605 H 0.52058 -0.17055 -0.33009
 H606 H 0.47418 -0.09513 -0.10585
 C607 C 0.32320 0.51196 -0.31512
 C608 C 0.33596 0.50033 -0.32547
 C609 C 0.35499 0.50231 -0.28153
 C610 C 0.37063 0.49512 -0.30470
 C611 C 0.38830 0.49578 -0.26446
 C612 C 0.39053 0.50343 -0.19970
 C613 C 0.37522 0.51104 -0.17671
 C614 C 0.35745 0.51031 -0.21695
 C615 C 0.40884 0.50396 -0.15571
 C616 C 0.41762 0.48858 -0.16326
 H617 H 0.33259 0.48995 -0.36931
 H618 H 0.36921 0.48899 -0.35427
 H619 H 0.40032 0.49055 -0.28457
 H620 H 0.37669 0.51711 -0.12707
 H621 H 0.34546 0.51551 -0.19663
 H622 H 0.41498 0.51625 -0.11516
 H623 H 0.32838 0.52467 -0.27594
 H624 H 0.41028 0.47505 -0.20059
 C625 C 1.16245 0.68283 -0.33959
 C626 C 1.16026 0.66650 -0.29268
 C627 C 1.13715 0.64801 -0.26665
 C628 C 1.13622 0.62823 -0.23788
 C629 C 1.11518 0.61063 -0.21072
 C630 C 1.09458 0.61259 -0.21066
 C631 C 1.09525 0.63208 -0.24058
 C632 C 1.11640 0.64979 -0.26791
 C633 C 1.07245 0.59448 -0.17950
 C634 C 1.07339 0.58232 -0.12543
 H635 H 1.17576 0.66583 -0.27666
 H636 H 1.15185 0.62632 -0.23652
 H637 H 1.11508 0.59542 -0.19018
 H638 H 1.07957 0.63391 -0.24129
 H639 H 1.11649 0.66499 -0.28831
 H640 H 1.05539 0.59115 -0.19815
 H641 H 1.14626 0.68142 -0.35903
 H642 H 1.09054 0.58724 -0.10384
 C643 C 0.82862 0.51062 -0.33838
 C644 C 0.83950 0.49687 -0.34317
 C645 C 0.86146 0.50252 -0.30679
 C646 C 0.86505 0.48395 -0.28867
 C647 C 0.88520 0.48839 -0.25290
 C648 C 0.90236 0.51161 -0.23497
 C649 C 0.89936 0.53032 -0.25551
 C650 C 0.87900 0.52585 -0.29084
 C651 C 0.92349 0.51646 -0.19568
 C652 C 0.92214 0.50062 -0.14882
 H653 H 0.83104 0.48042 -0.36989
 H654 H 0.85203 0.46588 -0.30142
 H655 H 0.88741 0.47362 -0.23987
 H656 H 0.91258 0.54838 -0.24327
 H657 H 0.87721 0.54065 -0.30613
 H658 H 0.94001 0.53294 -0.20231
 H659 H 0.83686 0.52585 -0.30629
 H660 H 0.90504 0.48524 -0.13855
 C661 C 0.52424 0.33857 -0.31309
 C662 C 0.51018 0.33717 -0.26006
 C663 C 0.51281 0.35792 -0.22371
 C664 C 0.49303 0.35534 -0.18954
 C665 C 0.49404 0.37444 -0.15660
 C666 C 0.51497 0.39661 -0.15674
 C667 C 0.53519 0.39902 -0.18804
 C668 C 0.53413 0.37987 -0.22165
 C669 C 0.51569 0.41730 -0.12542
 C670 C 0.49585 0.42022 -0.12708
 H671 H 0.49555 0.32034 -0.24539
 H672 H 0.47652 0.33854 -0.18931
 H673 H 0.47840 0.37182 -0.13102
 H674 H 0.55164 0.41587 -0.18782
 H675 H 0.55001 0.38235 -0.24541
 H676 H 0.53241 0.43121 -0.10553
 H677 H 0.53902 0.35572 -0.32553
 H678 H 0.48003 0.40755 -0.15353
 C679 C 0.68110 0.15369 -0.32694
 C680 C 0.66709 0.15280 -0.27470
 C681 C 0.64681 0.13070 -0.24985
 C682 C 0.62923 0.13231 -0.21496
 C683 C 0.61013 0.11226 -0.18846
 C684 C 0.60839 0.09007 -0.19494
 C685 C 0.62563 0.08826 -0.23120
 C686 C 0.64478 0.10841 -0.25820
 C687 C 0.58882 0.06883 -0.16412
 C688 C 0.57821 0.07067 -0.10760
 H689 H 0.67022 0.16894 -0.25175
 H690 H 0.63022 0.14920 -0.20836
 H691 H 0.59668 0.11428 -0.16330
 H692 H 0.62458 0.07134 -0.23725
 H693 H 0.65817 0.10648 -0.28388
 H694 H 0.58312 0.05160 -0.18515
 H695 H 0.67735 0.13734 -0.35022
 H696 H 0.58517 0.08773 -0.08420
 C697 C 1.16959 0.50733 -0.35683
 C698 C 1.16309 0.50195 -0.29207
 C699 C 1.14169 0.50108 -0.26439
 C700 C 1.14104 0.50467 -0.19755
 C701 C 1.12086 0.50333 -0.16950
 C702 C 1.10079 0.49811 -0.20785
 C703 C 1.10123 0.49399 -0.27444
 C704 C 1.12151 0.49558 -0.30262
 C705 C 1.07891 0.49590 -0.17943
 C706 C 1.07923 0.50834 -0.12405
 H707 H 1.17463 0.49927 -0.25948
 H708 H 1.15620 0.50849 -0.16691
 H709 H 1.12085 0.50583 -0.11764
 H710 H 1.08584 0.48956 -0.30477
 H711 H 1.12108 0.49192 -0.35395
 H712 H 1.06214 0.48490 -0.20456
 H713 H 1.15993 0.51316 -0.38728
 H714 H 1.09607 0.52099 -0.10184
 C715 C 0.51801 0.68289 -0.33325
 C716 C 0.50050 0.65889 -0.33444
 C717 C 0.50320 0.64046 -0.30052
 C718 C 0.48260 0.61953 -0.28282
 C719 C 0.48427 0.60169 -0.25069
 C720 C 0.50668 0.60436 -0.23576
 C721 C 0.52728 0.62494 -0.25539
 C722 C 0.52561 0.64286 -0.28730
 C723 C 0.50905 0.58590 -0.20096
 C724 C 0.49190 0.57043 -0.15775
 H725 H 0.48344 0.65313 -0.35732
 H726 H 0.46511 0.61701 -0.29355
 H727 H 0.46797 0.58572 -0.23856
 H728 H 0.54473 0.62724 -0.24549
 H729 H 0.54188 0.65833 -0.30235
 H730 H 0.52538 0.58542 -0.20654
 H731 H 0.53391 0.68807 -0.30446
 H732 H 0.47645 0.57207 -0.14766
 C733 C 0.32488 -0.17712 -0.31108
 C734 C 0.32401 -0.15968 -0.27353
 C735 C 0.34463 -0.14175 -0.23495
 C736 C 0.34600 -0.12016 -0.22022
 C737 C 0.36503 -0.10289 -0.18351
 C738 C 0.38311 -0.10692 -0.16043
 C739 C 0.38138 -0.12876 -0.17361
 C740 C 0.36241 -0.14599 -0.21058
 C741 C 0.40362 -0.08908 -0.12149
 C742 C 0.41196 -0.06486 -0.12439
 H743 H 0.30839 -0.15785 -0.27482
 H744 H 0.33232 -0.11660 -0.23742
 H745 H 0.36525 -0.08663 -0.17251
 H746 H 0.39484 -0.13247 -0.15549
 H747 H 0.36154 -0.16272 -0.21885
 H748 H 0.41344 -0.09514 -0.09246
 H749 H 0.34182 -0.17653 -0.31401
 H750 H 0.40354 -0.05824 -0.15679
 C751 C 0.49628 -0.17117 0.35112
 C752 C 0.50124 -0.16390 0.28681
 C753 C 0.50016 -0.14332 0.26188
 C754 C 0.49500 -0.14261 0.19608
 C755 C 0.49476 -0.12296 0.17075
 C756 C 0.50006 -0.10346 0.21078
 C757 C 0.50555 -0.10404 0.27634
 C758 C 0.50546 -0.12381 0.30184
 C759 C 0.50139 -0.08181 0.18499
 C760 C 0.48806 -0.08184 0.13167
 H761 H 0.50515 -0.17412 0.25287
 H762 H 0.49121 -0.15729 0.16416
 H763 H 0.49113 -0.12282 0.11956
 H764 H 0.51003 -0.08909 0.30789
 H765 H 0.51022 -0.12346 0.35235
 H766 H 0.51271 -0.06533 0.21042
 H767 H 0.48920 -0.16296 0.38261
 H768 H 0.47501 -0.09839 0.10938
 C769 C 0.32361 0.49797 0.31975
 C770 C 0.32445 0.47790 0.30065
 C771 C 0.34488 0.47889 0.26591
 C772 C 0.34806 0.45924 0.26790
 C773 C 0.36695 0.45940 0.23526
 C774 C 0.38289 0.47906 0.19899
 C775 C 0.37974 0.49880 0.19695
 C776 C 0.36086 0.49865 0.22967
 C777 C 0.40280 0.47857 0.16547
 C778 C 0.41502 0.49319 0.11357
 H779 H 0.31020 0.46068 0.31471
 H780 H 0.33596 0.44375 0.29518
 H781 H 0.36903 0.44402 0.23800
 H782 H 0.39192 0.51455 0.17097
 H783 H 0.35876 0.51394 0.22561
 H784 H 0.40757 0.46572 0.18120
 H785 H 0.33910 0.51522 0.31271
 H786 H 0.40965 0.50517 0.09447
 C787 C 1.17976 0.66693 0.32717
 C788 C 1.16193 0.66726 0.28969
 C789 C 1.14345 0.64648 0.25338
 C790 C 1.12212 0.64576 0.23677
 C791 C 1.10433 0.62671 0.20162
 C792 C 1.10757 0.60794 0.18209
 C793 C 1.12913 0.60888 0.19741
 C794 C 1.14690 0.62792 0.23287
 C795 C 1.08922 0.58766 0.14397
 C796 C 1.06501 0.58035 0.14674
 H797 H 1.16044 0.68298 0.28992
 H798 H 1.11918 0.66002 0.25107
 H799 H 1.08833 0.62704 0.18877
 H800 H 1.13219 0.59481 0.18202
 H801 H 1.16342 0.62821 0.24288
 H802 H 1.09486 0.57756 0.11488
 H803 H 1.17953 0.65044 0.33360
 H804 H 1.05886 0.58896 0.17982
 C805 C 0.49604 0.17514 0.33546
 C806 C 0.51162 0.16627 0.33505
 C807 C 0.50567 0.14345 0.30445
 C808 C 0.52437 0.13996 0.28535
 C809 C 0.51965 0.11894 0.25505
 C810 C 0.49604 0.10090 0.24317
 C811 C 0.47730 0.10392 0.26482
 C812 C 0.48202 0.12501 0.29509
 C813 C 0.49062 0.07892 0.20842
 C814 C 0.50585 0.07869 0.16151
 H815 H 0.52955 0.17702 0.35374
 H816 H 0.54273 0.15366 0.29324
 H817 H 0.53457 0.11686 0.24146
 H818 H 0.45897 0.09008 0.25732
 H819 H 0.46714 0.12666 0.31148
 H820 H 0.47371 0.06304 0.21693
 H821 H 0.47911 0.16537 0.31024
 H822 H 0.52176 0.09501 0.14904
 C823 C 0.66395 0.48498 0.31071
 C824 C 0.66318 0.50344 0.27924
 C825 C 0.64265 0.50069 0.24025
 C826 C 0.64196 0.52109 0.22388
 C827 C 0.62318 0.51963 0.18692
 C828 C 0.60450 0.49759 0.16558
 C829 C 0.60544 0.47719 0.18040
 C830 C 0.62430 0.47866 0.21739
 C831 C 0.58412 0.49538 0.12709
 C832 C 0.57698 0.51222 0.12931
 H833 H 0.67791 0.52124 0.28593
 H834 H 0.65607 0.53832 0.23976
 H835 H 0.62365 0.53586 0.17447
 H836 H 0.59145 0.46004 0.16365
 H837 H 0.62447 0.46256 0.22702
 H838 H 0.57357 0.47933 0.09907
 H839 H 0.64830 0.46756 0.31049
 H840 H 0.58608 0.52741 0.16115
 C841 C 0.84099 0.31522 0.34191
 C842 C 0.83924 0.32735 0.28921
 C843 C 0.86046 0.34587 0.25596
 C844 C 0.85727 0.35712 0.20243
 C845 C 0.87690 0.37523 0.17103
 C846 C 0.90019 0.38249 0.19277
 C847 C 0.90341 0.37100 0.24572
 C848 C 0.88375 0.35285 0.27711
 C849 C 0.92124 0.40240 0.16255
 C850 C 0.91886 0.41531 0.11304
 H851 H 0.82179 0.32328 0.27184
 H852 H 0.83952 0.35205 0.18518
 H853 H 0.87375 0.38366 0.13024
 H854 H 0.92116 0.37628 0.26338
 H855 H 0.88682 0.34451 0.31828
 H856 H 0.93887 0.40768 0.18149
 H857 H 0.82842 0.30507 0.36058
 H858 H 0.93091 0.42716 0.09887
   
