data_POSCAR
  _audit_creation_date              2014-09-24
  _audit_creation_method            'ToBaCCo'
  _symmetry_space_group_name_H-M    'P1'
  _symmetry_Int_Tables_number       1
  _symmetry_cell_setting            triclinic
  loop_
  _symmetry_equiv_pos_as_xyz
 x,y,z
_cell_length_a 49.4751
_cell_length_b 48.7649
_cell_length_c 49.3867
_cell_angle_alpha 89.988200
_cell_angle_beta 90.000500
_cell_angle_gamma 90.000700
loop_
  _atom_site_label
  _atom_site_type_symbol
  _atom_site_fract_x
  _atom_site_fract_y
  _atom_site_fract_z
N1 N 0.62428 0.62507 0.62502
 N2 N 0.87561 0.37489 0.12503
 N3 N 0.37563 0.12504 -0.12520
 N4 N 0.12426 0.87485 0.37484
 N5 N 0.09386 0.16841 0.11229
 N6 N 0.08327 0.15722 0.13404
 C7 C 0.06135 0.17176 0.14147
 C8 C 0.05797 0.19325 0.12339
 C9 C 0.07906 0.19039 0.10513
 H10 H 0.04869 0.16692 0.15863
 H11 H 0.08352 0.20342 0.08800
 Cu12 Cu 0.09920 0.12473 0.15043
 Cu13 Cu 0.12608 0.15371 0.09486
 Cu14 Cu 0.15482 0.09582 0.12378
 N15 N 0.11550 0.09224 0.16646
 N16 N 0.13727 0.08109 0.15595
 C17 C 0.14436 0.05911 0.17082
 C18 C 0.12603 0.05622 0.19186
 C19 C 0.10798 0.07769 0.18838
 H20 H 0.16149 0.04610 0.16643
 H21 H 0.09078 0.08252 0.20098
 N22 N 0.16959 0.11376 0.09121
 N23 N 0.15868 0.13581 0.08024
 C24 C 0.17333 0.14312 0.05842
 C25 C 0.19453 0.12480 0.05543
 C26 C 0.19144 0.10647 0.07664
 H27 H 0.16875 0.16040 0.04552
 H28 H 0.20430 0.08920 0.08129
 H29 H 0.12065 0.11364 0.10736
 H30 H 0.14230 0.13588 0.12918
 N31 N 0.40669 0.83225 0.61161
 N32 N 0.41764 0.84378 0.63300
 C33 C 0.43956 0.82923 0.64042
 C34 C 0.44258 0.80739 0.62270
 C35 C 0.42126 0.81004 0.60468
 H36 H 0.45245 0.83430 0.65735
 H37 H 0.41649 0.79672 0.58787
 Cu38 Cu 0.40219 0.87666 0.64910
 Cu39 Cu 0.37433 0.84679 0.59439
 Cu40 Cu 0.34561 0.90464 0.62328
 N41 N 0.38536 0.90868 0.66548
 N42 N 0.36330 0.91953 0.65527
 C43 C 0.35600 0.94129 0.67034
 C44 C 0.37447 0.94433 0.69124
 C45 C 0.39282 0.92318 0.68745
 H46 H 0.33840 0.95379 0.66643
 H47 H 0.41041 0.91875 0.69965
 N48 N 0.33069 0.88658 0.59087
 N49 N 0.34159 0.86453 0.57990
 C50 C 0.32685 0.85713 0.55818
 C51 C 0.30560 0.87539 0.55524
 C52 C 0.30874 0.89378 0.57639
 H53 H 0.33143 0.83985 0.54530
 H54 H 0.29589 0.91105 0.58105
 H55 H 0.37965 0.88704 0.60636
 H56 H 0.35876 0.86479 0.62895
 N57 N 0.90667 0.66767 0.38820
 N58 N 0.91759 0.65616 0.36679
 C59 C 0.93948 0.67074 0.35933
 C60 C 0.94251 0.69258 0.37705
 C61 C 0.92123 0.68990 0.39512
 H62 H 0.95235 0.66569 0.34238
 H63 H 0.91647 0.70321 0.41194
 Cu64 Cu 0.90217 0.62326 0.35072
 Cu65 Cu 0.87435 0.65309 0.40547
 Cu66 Cu 0.84551 0.59537 0.37647
 N67 N 0.88533 0.59124 0.33435
 N68 N 0.86318 0.58048 0.34447
 C69 C 0.85584 0.55877 0.32935
 C70 C 0.87439 0.55565 0.30854
 C71 C 0.89282 0.57670 0.31242
 H72 H 0.83838 0.54611 0.33340
 H73 H 0.91027 0.58128 0.30006
 N74 N 0.83063 0.61340 0.40891
 N75 N 0.84164 0.63533 0.41998
 C76 C 0.82697 0.64266 0.44178
 C77 C 0.80563 0.62449 0.44463
 C78 C 0.80865 0.60622 0.42336
 H79 H 0.83140 0.66010 0.45452
 H80 H 0.79595 0.58880 0.41887
 H81 H 0.87959 0.61285 0.39342
 H82 H 0.85876 0.63520 0.37087
 N83 N 0.59320 0.33223 -0.11175
 N84 N 0.58225 0.34377 -0.13314
 C85 C 0.56036 0.32920 -0.14059
 C86 C 0.55735 0.30734 -0.12288
 C87 C 0.57864 0.31000 -0.10483
 H88 H 0.54747 0.33427 -0.15752
 H89 H 0.58342 0.29667 -0.08802
 Cu90 Cu 0.59767 0.37668 -0.14921
 Cu91 Cu 0.62554 0.34680 -0.09450
 Cu92 Cu 0.65421 0.40470 -0.12335
 N93 N 0.61448 0.40873 -0.16557
 N94 N 0.63652 0.41961 -0.15533
 C95 C 0.64380 0.44139 -0.17039
 C96 C 0.62535 0.44441 -0.19131
 C97 C 0.60703 0.42323 -0.18755
 H98 H 0.66139 0.45391 -0.16648
 H99 H 0.58945 0.41879 -0.19977
 N100 N 0.66913 0.38663 -0.09094
 N101 N 0.65825 0.36456 -0.07999
 C102 C 0.67299 0.35715 -0.05827
 C103 C 0.69423 0.37543 -0.05532
 C104 C 0.69106 0.39384 -0.07645
 H105 H 0.66843 0.33985 -0.04540
 H106 H 0.70391 0.41112 -0.08110
 H107 H 0.62018 0.38704 -0.10646
 H108 H 0.64110 0.36484 -0.12905
 C109 C -0.06302 0.31371 0.12440
 C110 C -0.07521 0.32139 0.14882
 C111 C -0.09536 0.34147 0.14905
 C112 C -0.10357 0.35412 0.12481
 C113 C -0.09122 0.34628 0.10037
 C114 C -0.07107 0.32619 0.10017
 C115 C -0.04226 0.29304 0.12419
 C116 C -0.02488 0.27573 0.12403
 C117 C -0.00412 0.25505 0.12387
 C118 C 0.01279 0.25218 0.10135
 C119 C 0.03298 0.23211 0.10117
 C120 C 0.03653 0.21458 0.12355
 C121 C 0.01937 0.21768 0.14610
 C122 C -0.00079 0.23777 0.14622
 H123 H -0.06916 0.31183 0.16768
 H124 H -0.10473 0.34704 0.16808
 H125 H -0.09707 0.35589 0.08149
 H126 H -0.06174 0.32043 0.08116
 H127 H 0.01035 0.26543 0.08390
 H128 H 0.04558 0.23029 0.08337
 H129 H 0.02155 0.20480 0.16378
 H130 H -0.01375 0.23986 0.16379
 C131 C 0.56305 0.68639 0.62418
 C132 C 0.58994 0.69347 0.61880
 C133 C 0.61005 0.67334 0.61906
 C134 C 0.60350 0.64588 0.62472
 C135 C 0.57644 0.63894 0.63010
 C136 C 0.55634 0.65909 0.62983
 C137 C 0.54235 0.70712 0.62392
 C138 C 0.52503 0.72450 0.62371
 C139 C 0.50435 0.74526 0.62347
 C140 C 0.50151 0.76306 0.64549
 C141 C 0.48145 0.78325 0.64527
 C142 C 0.46390 0.78593 0.62298
 C143 C 0.46696 0.76787 0.60094
 C144 C 0.48704 0.74771 0.60121
 H145 H 0.59535 0.71454 0.61445
 H146 H 0.63078 0.67919 0.61507
 H147 H 0.57090 0.61789 0.63430
 H148 H 0.53559 0.65338 0.63398
 H149 H 0.51478 0.76131 0.66286
 H150 H 0.47966 0.79655 0.66269
 H151 H 0.45404 0.76936 0.58334
 H152 H 0.48910 0.73405 0.58403
 C153 C 1.06295 0.81360 0.37553
 C154 C 1.07100 0.82610 0.39974
 C155 C 1.09112 0.84622 0.39953
 C156 C 1.10344 0.85408 0.37507
 C157 C 1.09524 0.84142 0.35085
 C158 C 1.07511 0.82131 0.35109
 C159 C 1.04226 0.79287 0.37577
 C160 C 1.02492 0.77550 0.37597
 C161 C 1.00425 0.75474 0.37622
 C162 C 0.98704 0.75221 0.39855
 C163 C 0.96696 0.73203 0.39884
 C164 C 0.96381 0.71405 0.37675
 C165 C 0.98126 0.71682 0.35439
 C166 C 1.00131 0.73703 0.35415
 H167 H 1.06169 0.82031 0.41876
 H168 H 1.09697 0.85583 0.41840
 H169 H 1.10459 0.84700 0.33181
 H170 H 1.06907 0.81174 0.33224
 H171 H 0.98917 0.76580 0.41578
 H172 H 0.95413 0.73048 0.41649
 H173 H 0.97939 0.70359 0.33692
 H174 H 1.01450 0.73884 0.33673
 C175 C 0.43694 0.18628 -0.12445
 C176 C 0.42887 0.17378 -0.10025
 C177 C 0.40875 0.15366 -0.10048
 C178 C 0.39645 0.14581 -0.12495
 C179 C 0.40468 0.15847 -0.14917
 C180 C 0.42481 0.17859 -0.14890
 C181 C 0.45763 0.20702 -0.12419
 C182 C 0.47496 0.22440 -0.12398
 C183 C 0.49563 0.24516 -0.12372
 C184 C 0.51284 0.24769 -0.10139
 C185 C 0.53291 0.26786 -0.10110
 C186 C 0.53605 0.28586 -0.12318
 C187 C 0.51860 0.28310 -0.14554
 C188 C 0.49856 0.26289 -0.14578
 H189 H 0.43816 0.17956 -0.08122
 H190 H 0.40287 0.14404 -0.08162
 H191 H 0.39535 0.15290 -0.16822
 H192 H 0.43087 0.18817 -0.16775
 H193 H 0.51071 0.23408 -0.08417
 H194 H 0.54574 0.26942 -0.08344
 H195 H 0.52046 0.29635 -0.16300
 H196 H 0.48536 0.26108 -0.16320
 C197 C 0.12479 -0.06412 0.31320
 C198 C 0.14899 -0.07653 0.32130
 C199 C 0.14883 -0.09657 0.34154
 C200 C 0.12444 -0.10444 0.35392
 C201 C 0.10023 -0.09187 0.34566
 C202 C 0.10041 -0.07183 0.32542
 C203 C 0.12497 -0.04348 0.29237
 C204 C 0.12514 -0.02619 0.27493
 C205 C 0.12535 -0.00555 0.25410
 C206 C 0.14789 -0.00266 0.23725
 C207 C 0.14814 0.01739 0.21701
 C208 C 0.12579 0.03489 0.21334
 C209 C 0.10321 0.03177 0.23044
 C210 C 0.10303 0.01169 0.25065
 H211 H 0.16796 -0.07074 0.31195
 H212 H 0.16769 -0.10612 0.34743
 H213 H 0.08124 -0.09745 0.35506
 H214 H 0.08157 -0.06232 0.31934
 H215 H 0.16531 -0.01588 0.23978
 H216 H 0.16595 0.01924 0.20446
 H217 H 0.08556 0.04463 0.22817
 H218 H 0.08544 0.00960 0.26356
 C219 C 0.62465 0.56418 -0.31321
 C220 C 0.61911 0.59154 -0.30670
 C221 C 0.61899 0.61155 -0.32698
 C222 C 0.62440 0.60440 -0.35402
 C223 C 0.62994 0.57686 -0.36038
 C224 C 0.63006 0.55688 -0.34008
 C225 C 0.62478 0.54360 -0.29232
 C226 C 0.62489 0.52637 -0.27481
 C227 C 0.62502 0.50581 -0.25390
 C228 C 0.60791 0.48307 -0.25579
 C229 C 0.60799 0.46310 -0.23547
 C230 C 0.62525 0.46559 -0.21293
 C231 C 0.64240 0.48858 -0.21127
 C232 C 0.64226 0.50853 -0.23161
 H233 H 0.61494 0.59742 -0.28596
 H234 H 0.61487 0.63266 -0.32158
 H235 H 0.63397 0.57086 -0.38109
 H236 H 0.63433 0.53575 -0.34534
 H237 H 0.59451 0.48074 -0.27299
 H238 H 0.59467 0.44566 -0.23764
 H239 H 0.65580 0.49140 -0.19421
 H240 H 0.65556 0.52609 -0.22993
 C241 C 0.37519 1.06407 0.81312
 C242 C 0.35098 1.07648 0.82118
 C243 C 0.35111 1.09650 0.84144
 C244 C 0.37548 1.10434 0.85388
 C245 C 0.39970 1.09176 0.84566
 C246 C 0.39954 1.07175 0.82539
 C247 C 0.37505 1.04350 0.79224
 C248 C 0.37493 1.02627 0.77473
 C249 C 0.37479 1.00572 0.75383
 C250 C 0.35736 1.00829 0.73168
 C251 C 0.35722 0.98836 0.71134
 C252 C 0.37457 0.96551 0.71286
 C253 C 0.39202 0.96315 0.73527
 C254 C 0.39211 0.98311 0.75558
 H255 H 0.33202 1.07072 0.81178
 H256 H 0.33224 1.10605 0.84730
 H257 H 0.41867 1.09733 0.85509
 H258 H 0.41839 1.06225 0.81933
 H259 H 0.34390 1.02574 0.73010
 H260 H 0.34365 0.99106 0.69439
 H261 H 0.40551 0.94583 0.73733
 H262 H 0.40566 0.98090 0.77268
 C263 C 0.87511 0.43588 0.18670
 C264 C 0.85091 0.42347 0.17861
 C265 C 0.85106 0.40345 0.15836
 C266 C 0.87544 0.39560 0.14595
 C267 C 0.89965 0.40818 0.15418
 C268 C 0.89948 0.42820 0.17444
 C269 C 0.87495 0.45646 0.20757
 C270 C 0.87483 0.47369 0.22507
 C271 C 0.87471 0.49425 0.24596
 C272 C 0.85198 0.49752 0.26250
 C273 C 0.85185 0.51746 0.28284
 C274 C 0.87449 0.53447 0.28692
 C275 C 0.89724 0.53099 0.27013
 C276 C 0.89732 0.51102 0.24982
 H277 H 0.83195 0.42923 0.18799
 H278 H 0.83220 0.39389 0.15248
 H279 H 0.91864 0.40261 0.14477
 H280 H 0.91832 0.43770 0.18052
 H281 H 0.83434 0.48467 0.25966
 H282 H 0.83390 0.51960 0.29514
 H283 H 0.91512 0.54346 0.27272
 H284 H 0.91504 0.50862 0.23716
 C285 C 0.31467 0.12491 -0.06437
 C286 C 0.32658 0.10023 -0.07257
 C287 C 0.34660 0.10026 -0.09255
 C288 C 0.35494 0.12499 -0.10456
 C289 C 0.34287 0.14969 -0.09620
 C290 C 0.32286 0.14963 -0.07622
 C291 C 0.29406 0.12487 -0.04381
 C292 C 0.27680 0.12484 -0.02659
 C293 C 0.25618 0.12484 -0.00603
 C294 C 0.25297 0.10205 0.01086
 C295 C 0.23295 0.10201 0.03085
 C296 C 0.21581 0.12482 0.03422
 C297 C 0.21925 0.14763 0.01707
 C298 C 0.23930 0.14761 -0.00288
 H299 H 0.32042 0.08099 -0.06351
 H300 H 0.35575 0.08102 -0.09852
 H301 H 0.34883 0.16895 -0.10531
 H302 H 0.31374 0.16884 -0.07005
 H303 H 0.26591 0.08427 0.00857
 H304 H 0.23085 0.08399 0.04343
 H305 H 0.20667 0.16565 0.01912
 H306 H 0.24165 0.16540 -0.01583
 C307 C 0.68528 0.62480 0.56422
 C308 C 0.69212 0.61978 0.59127
 C309 C 0.67210 0.61986 0.61124
 C310 C 0.64498 0.62496 0.60438
 C311 C 0.63829 0.62997 0.57715
 C312 C 0.65833 0.62989 0.55720
 C313 C 0.70590 0.62474 0.54367
 C314 C 0.72319 0.62470 0.52647
 C315 C 0.74384 0.62466 0.50595
 C316 C 0.76672 0.64123 0.50886
 C317 C 0.78681 0.64121 0.48895
 C318 C 0.78429 0.62456 0.46579
 C319 C 0.76116 0.60796 0.46310
 C320 C 0.74110 0.60804 0.48304
 H321 H 0.71292 0.61586 0.59693
 H322 H 0.67775 0.61615 0.63210
 H323 H 0.61751 0.63375 0.57137
 H324 H 0.65280 0.63376 0.53632
 H325 H 0.76907 0.65415 0.52655
 H326 H 0.80435 0.65409 0.49191
 H327 H 0.75833 0.59504 0.44553
 H328 H 0.72343 0.59515 0.48056
 C329 C 0.81467 0.37502 0.06418
 C330 C 0.82657 0.39970 0.07239
 C331 C 0.84660 0.39967 0.09236
 C332 C 0.85495 0.37493 0.10437
 C333 C 0.84289 0.35024 0.09600
 C334 C 0.82287 0.35029 0.07602
 C335 C 0.79404 0.37507 0.04365
 C336 C 0.77674 0.37511 0.02645
 C337 C 0.75608 0.37518 0.00594
 C338 C 0.75285 0.39800 -0.01091
 C339 C 0.73278 0.39811 -0.03083
 C340 C 0.71559 0.37534 -0.03418
 C341 C 0.71905 0.35248 -0.01709
 C342 C 0.73915 0.35243 0.00280
 H343 H 0.82041 0.41894 0.06333
 H344 H 0.85574 0.41890 0.09834
 H345 H 0.84885 0.33097 0.10511
 H346 H 0.81376 0.33108 0.06985
 H347 H 0.76583 0.41575 -0.00862
 H348 H 0.73067 0.41615 -0.04338
 H349 H 0.70643 0.33449 -0.01913
 H350 H 0.74151 0.33463 0.01572
 C351 C 0.18519 0.87499 0.43571
 C352 C 0.17326 0.89966 0.42751
 C353 C 0.15324 0.89963 0.40754
 C354 C 0.14492 0.87489 0.39551
 C355 C 0.15701 0.85021 0.40387
 C356 C 0.17702 0.85027 0.42386
 C357 C 0.20581 0.87504 0.45625
 C358 C 0.22310 0.87509 0.47345
 C359 C 0.24375 0.87515 0.49397
 C360 C 0.24695 0.89796 0.51084
 C361 C 0.26702 0.89806 0.53077
 C362 C 0.28423 0.87530 0.53411
 C363 C 0.28080 0.85247 0.51700
 C364 C 0.26070 0.85242 0.49710
 H365 H 0.17940 0.91891 0.43659
 H366 H 0.14407 0.91886 0.40156
 H367 H 0.15106 0.83094 0.39475
 H368 H 0.18615 0.83106 0.43002
 H369 H 0.23396 0.91569 0.50857
 H370 H 0.26911 0.91609 0.54334
 H371 H 0.29344 0.83449 0.51902
 H372 H 0.25837 0.83463 0.48417
   
