data_POSCAR
  _audit_creation_date              2014-09-24
  _audit_creation_method            'ToBaCCo'
  _symmetry_space_group_name_H-M    'P1'
  _symmetry_Int_Tables_number       1
  _symmetry_cell_setting            triclinic
  loop_
  _symmetry_equiv_pos_as_xyz
 x,y,z
_cell_length_a 40.7332
_cell_length_b 38.3446
_cell_length_c 38.8851
_cell_angle_alpha 85.011300
_cell_angle_beta 93.907200
_cell_angle_gamma 94.034200
loop_
  _atom_site_label
  _atom_site_type_symbol
  _atom_site_fract_x
  _atom_site_fract_y
  _atom_site_fract_z
C1 C 0.29519 0.30475 0.23964
 H2 H 0.29780 0.30481 0.26751
 C3 C 0.31684 0.32594 0.21921
 H4 H 0.33613 0.34251 0.23131
 C5 C 0.26750 0.28237 0.18975
 H6 H 0.24876 0.26483 0.17837
 C7 C 0.28862 0.30313 0.16839
 H8 H 0.28583 0.30176 0.14062
 N9 N 0.27098 0.28371 0.22470
 C10 C 0.19684 0.26334 0.30125
 H11 H 0.19473 0.23496 0.30321
 C12 C 0.17725 0.28171 0.32059
 H13 H 0.16006 0.26749 0.33763
 C14 C 0.22152 0.31666 0.27635
 H15 H 0.23841 0.33021 0.25872
 C16 C 0.20239 0.33603 0.29521
 H17 H 0.20485 0.36443 0.29231
 Zn18 Zn 0.24400 0.25415 0.25432
 N19 N 0.21871 0.28096 0.27999
 C20 C 0.27263 0.22644 0.31917
 N21 N 0.27254 0.22663 0.28413
 C22 C 0.29391 0.20794 0.26894
 C23 C 0.31599 0.18732 0.28916
 C24 C 0.29436 0.20613 0.34037
 C25 C 0.19119 0.24057 0.20618
 C26 C 0.16923 0.22037 0.18562
 C27 C 0.19423 0.16832 0.21168
 C28 C 0.21574 0.18948 0.23171
 N29 N 0.21426 0.22498 0.22817
 H30 H 0.25605 0.24210 0.33077
 H31 H 0.29366 0.20902 0.24103
 H32 H 0.33275 0.17234 0.27683
 H33 H 0.29421 0.20594 0.36824
 H34 H 0.19024 0.26881 0.20426
 H35 H 0.15135 0.23302 0.16769
 H36 H 0.19590 0.14012 0.21425
 H37 H 0.23364 0.17746 0.24992
 C38 C 0.18015 0.31838 0.31761
 C39 C 0.31352 0.32506 0.18326
 C40 C 0.17098 0.18393 0.18822
 C41 C 0.31613 0.18633 0.32519
 C42 C 0.79589 0.80616 0.23884
 H43 H 0.79854 0.80630 0.26671
 C44 C 0.81744 0.82738 0.21831
 H45 H 0.83667 0.84404 0.23041
 C46 C 0.76820 0.78351 0.18909
 H47 H 0.74950 0.76586 0.17780
 C48 C 0.78921 0.80429 0.16761
 H49 H 0.78629 0.80277 0.13985
 N50 N 0.77173 0.78497 0.22401
 C51 C 0.69770 0.76439 0.30068
 H52 H 0.69567 0.73601 0.30262
 C53 C 0.67807 0.78267 0.32005
 H54 H 0.66092 0.76838 0.33710
 C55 C 0.72223 0.81780 0.27580
 H56 H 0.73910 0.83141 0.25817
 C57 C 0.70305 0.83709 0.29469
 H58 H 0.70544 0.86549 0.29181
 Zn59 Zn 0.74489 0.75536 0.25374
 N60 N 0.71952 0.78209 0.27941
 C61 C 0.77358 0.72775 0.31860
 N62 N 0.77353 0.72797 0.28356
 C63 C 0.79495 0.70933 0.26838
 C64 C 0.81699 0.68867 0.28861
 C65 C 0.79526 0.70741 0.33981
 C66 C 0.69205 0.74148 0.20570
 C67 C 0.67013 0.72114 0.18523
 C68 C 0.69536 0.66926 0.21137
 C69 C 0.71681 0.69054 0.23132
 N70 N 0.71521 0.72603 0.22770
 H71 H 0.75696 0.74336 0.33019
 H72 H 0.79473 0.71043 0.24047
 H73 H 0.83377 0.67369 0.27630
 H74 H 0.79505 0.70715 0.36768
 H75 H 0.69099 0.76971 0.20373
 H76 H 0.65218 0.73368 0.16730
 H77 H 0.69713 0.64108 0.21400
 H78 H 0.73477 0.67864 0.24953
 C79 C 0.68087 0.81935 0.31709
 C80 C 0.81408 0.82639 0.18235
 C81 C 0.67202 0.68472 0.18791
 C82 C 0.81705 0.68760 0.32464
 C83 C 0.79643 0.30426 0.74079
 H84 H 0.79912 0.30432 0.76866
 C85 C 0.81796 0.32552 0.72027
 H86 H 0.83723 0.34215 0.73231
 C87 C 0.76865 0.28180 0.69098
 H88 H 0.74992 0.26420 0.67965
 C89 C 0.78965 0.30263 0.66954
 H90 H 0.78677 0.30127 0.64177
 N91 N 0.77222 0.28315 0.72592
 C92 C 0.69821 0.26270 0.80262
 H93 H 0.69615 0.23432 0.80463
 C94 C 0.67856 0.28107 0.82189
 H95 H 0.66137 0.26685 0.83893
 C96 C 0.72279 0.31603 0.77761
 H97 H 0.73966 0.32958 0.75996
 C98 C 0.70359 0.33540 0.79640
 H99 H 0.70597 0.36380 0.79341
 Zn100 Zn 0.74534 0.25354 0.75561
 N101 N 0.72005 0.28033 0.78132
 C102 C 0.77404 0.22570 0.82039
 N103 N 0.77394 0.22601 0.78534
 C104 C 0.79529 0.20739 0.77006
 C105 C 0.81736 0.18667 0.79017
 C106 C 0.79573 0.20530 0.84153
 C107 C 0.69245 0.23996 0.70757
 C108 C 0.67049 0.21976 0.68700
 C109 C 0.69560 0.16772 0.71291
 C110 C 0.71710 0.18887 0.73297
 N111 N 0.71557 0.22437 0.72950
 H112 H 0.75745 0.24130 0.83204
 H113 H 0.79502 0.20858 0.74214
 H114 H 0.83405 0.17177 0.77761
 H115 H 0.79546 0.20509 0.86942
 H116 H 0.69146 0.26819 0.70571
 H117 H 0.65258 0.23242 0.66912
 H118 H 0.69732 0.13954 0.71542
 H119 H 0.73504 0.17685 0.75112
 C120 C 0.68136 0.31775 0.81880
 C121 C 0.81453 0.32465 0.68433
 C122 C 0.67230 0.18334 0.68951
 C123 C 0.81752 0.18549 0.82627
 C124 C 0.29537 0.80543 0.74008
 H125 H 0.29797 0.80555 0.76794
 C126 C 0.31701 0.82660 0.71961
 H127 H 0.33627 0.84321 0.73168
 C128 C 0.26774 0.78289 0.69024
 H129 H 0.24903 0.76529 0.67888
 C130 C 0.28885 0.80363 0.66884
 H131 H 0.28607 0.80219 0.64108
 N132 N 0.27119 0.78431 0.72517
 C133 C 0.19707 0.76378 0.80175
 H134 H 0.19504 0.73540 0.80374
 C135 C 0.17737 0.78209 0.82101
 H136 H 0.16017 0.76783 0.83802
 C137 C 0.22162 0.81715 0.77682
 H138 H 0.23850 0.83074 0.75920
 C139 C 0.20237 0.83647 0.79560
 H140 H 0.20473 0.86488 0.79264
 Zn141 Zn 0.24427 0.75470 0.75482
 N142 N 0.21892 0.78145 0.78049
 C143 C 0.27293 0.72688 0.81965
 N144 N 0.27287 0.72721 0.78459
 C145 C 0.29428 0.70862 0.76934
 C146 C 0.31634 0.68793 0.78950
 C147 C 0.29464 0.70650 0.84079
 C148 C 0.19149 0.74100 0.70667
 C149 C 0.16959 0.72074 0.68610
 C150 C 0.19470 0.66877 0.71219
 C151 C 0.21614 0.68998 0.73224
 N152 N 0.21459 0.72547 0.72869
 H153 H 0.25631 0.74245 0.83129
 H154 H 0.29405 0.70981 0.74142
 H155 H 0.33311 0.67301 0.77712
 H156 H 0.29445 0.70616 0.86866
 H157 H 0.19047 0.76923 0.70475
 H158 H 0.15169 0.73334 0.66816
 H159 H 0.19644 0.64058 0.71477
 H160 H 0.23406 0.67801 0.75046
 C161 C 0.18013 0.81877 0.81796
 C162 C 0.31372 0.82562 0.68367
 C163 C 0.17143 0.68432 0.68871
 C164 C 0.31643 0.68677 0.82553
 C165 C 0.02998 -0.03053 -0.03123
 C166 C 0.05095 -0.00690 -0.00724
 C167 C 0.03266 0.01204 0.01155
 C168 C -0.00480 0.00577 0.00477
 C169 C 0.00690 -0.05325 -0.00758
 C170 C -0.01125 -0.03415 0.01121
 C171 C 0.00755 -0.00586 -0.05352
 C172 C -0.01061 0.01308 -0.03457
 H173 H 0.07774 -0.00535 -0.00522
 H174 H -0.01962 0.02127 0.02013
 H175 H 0.00494 -0.08175 -0.00599
 H176 H 0.00594 -0.00379 -0.08162
 C177 C 0.03109 0.46932 0.46930
 C178 C 0.05206 0.49296 0.49329
 C179 C 0.03377 0.51189 0.51209
 C180 C -0.00369 0.50559 0.50532
 C181 C 0.00804 0.44658 0.49298
 C182 C -0.01012 0.46567 0.51177
 C183 C 0.00863 0.49397 0.44703
 C184 C -0.00953 0.51289 0.46598
 H185 H 0.07885 0.49454 0.49528
 H186 H -0.01852 0.52108 0.52069
 H187 H 0.00611 0.41809 0.49459
 H188 H 0.00704 0.49607 0.41893
 C189 C 0.53154 -0.03061 0.46939
 C190 C 0.55252 -0.00703 0.49342
 C191 C 0.53424 0.01186 0.51227
 C192 C 0.49678 0.00559 0.50551
 C193 C 0.50848 -0.05339 0.49303
 C194 C 0.49034 -0.03434 0.51187
 C195 C 0.50908 -0.00591 0.44718
 C196 C 0.49093 0.01297 0.46618
 H197 H 0.57931 -0.00549 0.49543
 H198 H 0.48197 0.02105 0.52092
 H199 H 0.50651 -0.08189 0.49453
 H200 H 0.50741 -0.00383 0.41907
 C201 C 0.53148 0.46899 -0.03064
 C202 C 0.55244 0.49267 -0.00669
 C203 C 0.53415 0.51162 0.01208
 C204 C 0.49669 0.50530 0.00533
 C205 C 0.50844 0.44627 -0.00694
 C206 C 0.49028 0.46539 0.01182
 C207 C 0.50901 0.49360 -0.05294
 C208 C 0.49084 0.51255 -0.03402
 H209 H 0.57924 0.49429 -0.00473
 H210 H 0.48187 0.52081 0.02068
 H211 H 0.50646 0.41778 -0.00536
 H212 H 0.50736 0.49561 -0.08105
 C213 C 0.16014 -0.16179 -0.16241
 C214 C 0.14347 -0.14541 -0.14598
 C215 C 0.12367 -0.12573 -0.12636
 C216 C 0.10274 -0.14320 -0.10239
 C217 C 0.08363 -0.12403 -0.08323
 C218 C 0.08537 -0.08732 -0.08796
 C219 C 0.10626 -0.06986 -0.11195
 C220 C 0.12537 -0.08902 -0.13112
 C221 C 0.06586 -0.06756 -0.06812
 C222 C 0.04962 -0.05091 -0.05149
 H223 H 0.10125 -0.17158 -0.09851
 H224 H 0.06756 -0.13780 -0.06472
 H225 H 0.10780 -0.04148 -0.11580
 H226 H 0.14148 -0.07525 -0.14957
 C227 C 0.16035 0.33787 0.33738
 C228 C 0.14384 0.35430 0.35395
 C229 C 0.12426 0.37403 0.37374
 C230 C 0.09954 0.35681 0.39349
 C231 C 0.08059 0.37602 0.41280
 C232 C 0.08630 0.41251 0.41243
 C233 C 0.11100 0.42972 0.39266
 C234 C 0.12994 0.41052 0.37335
 C235 C 0.06689 0.43229 0.43234
 C236 C 0.05070 0.44894 0.44902
 H237 H 0.09495 0.32860 0.39398
 H238 H 0.06155 0.36245 0.42800
 H239 H 0.11562 0.45793 0.39219
 H240 H 0.14900 0.42409 0.35818
 C241 C 0.66102 -0.16126 0.33692
 C242 C 0.64448 -0.14493 0.35355
 C243 C 0.62485 -0.12534 0.37341
 C244 C 0.60024 -0.14271 0.39322
 C245 C 0.58125 -0.12364 0.41262
 C246 C 0.58680 -0.08713 0.41228
 C247 C 0.61139 -0.06977 0.39246
 C248 C 0.63037 -0.08883 0.37306
 C249 C 0.56735 -0.06749 0.43229
 C250 C 0.55115 -0.05092 0.44904
 H251 H 0.59576 -0.17093 0.39368
 H252 H 0.56230 -0.13732 0.42787
 H253 H 0.61589 -0.04155 0.39202
 H254 H 0.64935 -0.07515 0.35785
 C255 C 0.66141 0.33724 -0.16158
 C256 C 0.64478 0.35369 -0.14516
 C257 C 0.62503 0.37345 -0.12558
 C258 C 0.60396 0.35606 -0.10172
 C259 C 0.58488 0.37532 -0.08259
 C260 C 0.58682 0.41204 -0.08726
 C261 C 0.60786 0.42942 -0.11115
 C262 C 0.62693 0.41017 -0.13027
 C263 C 0.56734 0.43188 -0.06747
 C264 C 0.55112 0.44858 -0.05087
 H265 H 0.60231 0.32768 -0.09788
 H266 H 0.56870 0.36162 -0.06417
 H267 H 0.60956 0.45780 -0.11495
 H268 H 0.64316 0.42388 -0.14865
 C269 C -0.16212 0.16597 -0.15457
 C270 C -0.14322 0.14772 -0.13736
 C271 C -0.12052 0.12559 -0.11749
 C272 C -0.13216 0.09405 -0.10013
 C273 C -0.10994 0.07178 -0.08213
 C274 C -0.07600 0.08096 -0.08142
 C275 C -0.06440 0.11267 -0.09847
 C276 C -0.08662 0.13494 -0.11647
 C277 C -0.05304 0.05732 -0.06425
 C278 C -0.03374 0.03729 -0.05044
 H279 H -0.15832 0.08651 -0.10086
 H280 H -0.11917 0.04726 -0.06913
 H281 H -0.03821 0.11996 -0.09819
 H282 H -0.07735 0.15919 -0.12991
 C283 C -0.16059 0.66614 0.34581
 C284 C -0.14175 0.64784 0.36303
 C285 C -0.11912 0.62565 0.38292
 C286 C -0.08521 0.63497 0.38410
 C287 C -0.06307 0.61265 0.40214
 C288 C -0.07475 0.58092 0.41909
 C289 C -0.10869 0.57178 0.41824
 C290 C -0.13084 0.59410 0.40019
 C291 C -0.05186 0.55723 0.43629
 C292 C -0.03261 0.53715 0.45012
 H293 H -0.07587 0.65925 0.37073
 H294 H -0.03686 0.61992 0.40254
 H295 H -0.11798 0.54724 0.43115
 H296 H -0.15700 0.58658 0.39934
 C297 C 0.33862 0.16501 0.34634
 C298 C 0.35761 0.14686 0.36353
 C299 C 0.38044 0.12488 0.38338
 C300 C 0.41434 0.13429 0.38415
 C301 C 0.43667 0.11217 0.40215
 C302 C 0.42521 0.08054 0.41945
 C303 C 0.39129 0.07130 0.41901
 C304 C 0.36895 0.09343 0.40100
 C305 C 0.44829 0.05703 0.43660
 C306 C 0.46769 0.03709 0.45038
 H307 H 0.42350 0.15849 0.37051
 H308 H 0.46285 0.11950 0.40222
 H309 H 0.38217 0.04685 0.43220
 H310 H 0.34281 0.08584 0.40047
 C311 C 0.33885 0.66530 -0.15339
 C312 C 0.35777 0.64700 -0.13629
 C313 C 0.38051 0.62482 -0.11654
 C314 C 0.36910 0.59249 -0.10057
 C315 C 0.39139 0.57022 -0.08269
 C316 C 0.42518 0.58020 -0.08071
 C317 C 0.43655 0.61270 -0.09637
 C318 C 0.41426 0.63496 -0.11425
 C319 C 0.44825 0.55664 -0.06364
 C320 C 0.46764 0.53667 -0.04988
 H321 H 0.34306 0.58433 -0.10229
 H322 H 0.38234 0.54510 -0.07077
 H323 H 0.46263 0.62062 -0.09510
 H324 H 0.42336 0.65985 -0.12661
 C325 C -0.16459 -0.15400 0.16184
 C326 C -0.14560 -0.13707 0.14347
 C327 C -0.12281 -0.11745 0.12127
 C328 C -0.13308 -0.10645 0.08717
 C329 C -0.11063 -0.08853 0.06517
 C330 C -0.07781 -0.08153 0.07719
 C331 C -0.06761 -0.09224 0.11138
 C332 C -0.09007 -0.11016 0.13338
 C333 C -0.05443 -0.06428 0.05416
 C334 C -0.03479 -0.05031 0.03469
 H335 H -0.15831 -0.11204 0.07751
 H336 H -0.11875 -0.08045 0.03875
 H337 H -0.04227 -0.08705 0.12091
 H338 H -0.08185 -0.11864 0.15967
 C339 C -0.16299 0.34545 0.66267
 C340 C -0.14405 0.36243 0.64428
 C341 C -0.12133 0.38212 0.62206
 C342 C -0.08848 0.38910 0.63399
 C343 C -0.06610 0.40709 0.61196
 C344 C -0.07647 0.41818 0.57791
 C345 C -0.10939 0.41149 0.56609
 C346 C -0.13177 0.39349 0.58812
 C347 C -0.05318 0.43548 0.55483
 C348 C -0.03359 0.44949 0.53531
 H349 H -0.08012 0.38033 0.66016
 H350 H -0.04068 0.41204 0.62133
 H351 H -0.11765 0.41986 0.53978
 H352 H -0.15709 0.38815 0.57860
 C353 C 0.33637 -0.15374 0.66208
 C354 C 0.35548 -0.13693 0.64376
 C355 C 0.37840 -0.11743 0.62164
 C356 C 0.36806 -0.10564 0.58778
 C357 C 0.39062 -0.08781 0.56584
 C358 C 0.42362 -0.08170 0.57768
 C359 C 0.43390 -0.09322 0.61164
 C360 C 0.41134 -0.11105 0.63357
 C361 C 0.44707 -0.06450 0.55471
 C362 C 0.46676 -0.05054 0.53529
 H363 H 0.34268 -0.11052 0.57825
 H364 H 0.38243 -0.07910 0.53961
 H365 H 0.45937 -0.08872 0.62102
 H366 H 0.41961 -0.12014 0.65968
 C367 C 0.33618 0.34575 0.16170
 C368 C 0.35528 0.36262 0.14343
 C369 C 0.37821 0.38219 0.12137
 C370 C 0.36792 0.39399 0.08749
 C371 C 0.39049 0.41188 0.06562
 C372 C 0.42346 0.41805 0.07753
 C373 C 0.43369 0.40654 0.11151
 C374 C 0.41111 0.38864 0.13338
 C375 C 0.44694 0.43528 0.05461
 C376 C 0.46666 0.44923 0.03522
 H377 H 0.34256 0.38905 0.07791
 H378 H 0.38234 0.42058 0.03937
 H379 H 0.45915 0.41108 0.12095
 H380 H 0.41936 0.37955 0.15949
 C381 C 0.14968 0.16262 0.16625
 C382 C 0.13247 0.14447 0.14758
 C383 C 0.11268 0.12246 0.12498
 C384 C 0.10395 0.08753 0.13621
 C385 C 0.08628 0.06557 0.11362
 C386 C 0.07726 0.07844 0.07972
 C387 C 0.08560 0.11350 0.06863
 C388 C 0.10328 0.13547 0.09122
 C389 C 0.06073 0.05531 0.05591
 C390 C 0.04758 0.03571 0.03579
 H391 H 0.11123 0.07717 0.16221
 H392 H 0.08008 0.03846 0.12241
 H393 H 0.07887 0.12368 0.04242
 H394 H 0.11002 0.16239 0.08222
 C395 C 0.15022 0.66295 0.66672
 C396 C 0.13309 0.64474 0.64803
 C397 C 0.11342 0.62266 0.62542
 C398 C 0.10462 0.58777 0.63673
 C399 C 0.08705 0.56572 0.61415
 C400 C 0.07821 0.57847 0.58016
 C401 C 0.08663 0.61349 0.56898
 C402 C 0.10420 0.63554 0.59156
 C403 C 0.06177 0.55527 0.55638
 C404 C 0.04866 0.53561 0.53628
 H405 H 0.11175 0.57750 0.66280
 H406 H 0.08079 0.53865 0.62301
 H407 H 0.08004 0.62357 0.54270
 H408 H 0.11100 0.66242 0.58250
 C409 C 0.65105 0.16205 0.66749
 C410 C 0.63386 0.14393 0.64876
 C411 C 0.61413 0.12196 0.62609
 C412 C 0.60556 0.08695 0.63716
 C413 C 0.58793 0.06504 0.61449
 C414 C 0.57879 0.07804 0.58066
 C415 C 0.58697 0.11318 0.56973
 C416 C 0.60460 0.13510 0.59240
 C417 C 0.56230 0.05499 0.55677
 C418 C 0.54916 0.03545 0.53658
 H419 H 0.61293 0.07648 0.66310
 H420 H 0.58186 0.03787 0.62316
 H421 H 0.58015 0.12347 0.54358
 H422 H 0.61122 0.16208 0.58353
 C423 C 0.65078 0.66327 0.16602
 C424 C 0.63362 0.64499 0.14743
 C425 C 0.61391 0.62281 0.12493
 C426 C 0.60522 0.58792 0.13635
 C427 C 0.58762 0.56579 0.11387
 C428 C 0.57864 0.57845 0.07989
 C429 C 0.58694 0.61346 0.06861
 C430 C 0.60455 0.63560 0.09109
 C431 C 0.56217 0.55515 0.05621
 C432 C 0.54905 0.53543 0.03619
 H433 H 0.61246 0.57772 0.16241
 H434 H 0.58144 0.53872 0.12281
 H435 H 0.58024 0.62348 0.04235
 H436 H 0.61126 0.66249 0.08195
   
