data_POSCAR
  _audit_creation_date              2014-09-24
  _audit_creation_method            'ToBaCCo'
  _symmetry_space_group_name_H-M    'P1'
  _symmetry_Int_Tables_number       1
  _symmetry_cell_setting            triclinic
  loop_
  _symmetry_equiv_pos_as_xyz
 x,y,z
_cell_length_a 34.8534
_cell_length_b 34.3525
_cell_length_c 34.4402
_cell_angle_alpha 107.948600
_cell_angle_beta 83.863200
_cell_angle_gamma 99.072700
loop_
  _atom_site_label
  _atom_site_type_symbol
  _atom_site_fract_x
  _atom_site_fract_y
  _atom_site_fract_z
C1 C 0.48969 0.46665 0.02078
 C2 C 0.46620 0.49385 0.01862
 C3 C 0.42319 0.48329 0.01732
 C4 C 0.48243 0.53555 0.01592
 C5 C 0.53246 0.47787 0.02319
 C6 C 0.47430 0.42351 0.01929
 C7 C 0.40407 0.49176 -0.01237
 C8 C 0.36355 0.48513 -0.01247
 C9 C 0.34078 0.46959 0.01735
 C10 C 0.36030 0.45984 0.04626
 C11 C 0.40090 0.46733 0.04672
 C12 C 0.50039 0.54076 -0.02092
 C13 C 0.51097 0.58042 -0.02496
 C14 C 0.50436 0.61534 0.00810
 C15 C 0.48806 0.61000 0.04545
 C16 C 0.47649 0.57037 0.04910
 C17 C 0.54846 0.51076 0.05528
 C18 C 0.58879 0.51898 0.05865
 C19 C 0.61365 0.49395 0.03053
 C20 C 0.59759 0.46166 -0.00212
 C21 C 0.55739 0.45363 -0.00558
 C22 C 0.47524 0.41036 0.05385
 C23 C 0.46382 0.36897 0.05191
 C24 C 0.45277 0.33986 0.01497
 C25 C 0.45135 0.35313 -0.01956
 C26 C 0.46174 0.39479 -0.01729
 H27 H 0.42058 0.50375 -0.03563
 H28 H 0.35090 0.49174 -0.03663
 H29 H 0.34412 0.44775 0.06967
 H30 H 0.41478 0.46157 0.07070
 H31 H 0.50487 0.51411 -0.04689
 H32 H 0.52403 0.58382 -0.05390
 H33 H 0.46240 0.56677 0.07762
 H34 H 0.52971 0.52939 0.07826
 H35 H 0.60051 0.54416 0.08392
 H36 H 0.61594 0.44262 -0.02517
 H37 H 0.54568 0.42826 -0.03070
 H38 H 0.48511 0.43216 0.08222
 H39 H 0.46506 0.35937 0.07886
 H40 H 0.44240 0.33128 -0.04826
 H41 H 0.46117 0.40447 -0.04430
 H42 H 0.48285 0.63652 0.07131
 C43 C 0.01114 0.56136 0.56038
 C44 C 0.01188 0.52843 0.52613
 C45 C 0.01352 0.48629 0.52846
 C46 C 0.01056 0.53213 0.48452
 C47 C 0.00752 0.60350 0.55924
 C48 C 0.01428 0.55667 0.60115
 C49 C 0.04339 0.46412 0.50637
 C50 C 0.04443 0.42378 0.50677
 C51 C 0.01532 0.40481 0.52908
 C52 C -0.01428 0.42723 0.55156
 C53 C -0.01549 0.46744 0.55084
 C54 C 0.03794 0.55960 0.46966
 C55 C 0.03642 0.56177 0.42995
 C56 C 0.00810 0.53590 0.40427
 C57 C -0.01945 0.50871 0.41943
 C58 C -0.01804 0.50672 0.45905
 C59 C -0.02189 0.61066 0.53834
 C60 C -0.02397 0.65044 0.53674
 C61 C 0.00278 0.68382 0.55687
 C62 C 0.03093 0.67692 0.57930
 C63 C 0.03346 0.63712 0.58026
 C64 C -0.01797 0.56058 0.62941
 C65 C -0.01571 0.55516 0.66758
 C66 C 0.01919 0.54671 0.67832
 C67 C 0.05183 0.54415 0.65048
 C68 C 0.04927 0.54857 0.61187
 H69 H 0.06599 0.47816 0.48888
 H70 H 0.06826 0.40782 0.49001
 H71 H -0.03699 0.41326 0.56901
 H72 H -0.03934 0.48364 0.56726
 H73 H 0.06055 0.57911 0.48868
 H74 H 0.05779 0.58312 0.41900
 H75 H -0.03955 0.48551 0.47005
 H76 H -0.04316 0.58547 0.52319
 H77 H -0.04680 0.65510 0.52030
 H78 H 0.05156 0.70229 0.59539
 H79 H 0.05609 0.63248 0.59700
 H80 H -0.04504 0.56717 0.62158
 H81 H -0.04102 0.55822 0.68892
 H82 H 0.07907 0.53805 0.65840
 H83 H 0.07450 0.54588 0.59039
 H84 H -0.04248 0.48930 0.40103
 C85 C 0.53442 0.00801 0.46087
 C86 C 0.50426 0.00405 0.48844
 C87 C 0.51036 -0.00023 0.52869
 C88 C 0.46354 0.00385 0.47997
 C89 C 0.52849 0.01148 0.41998
 C90 C 0.57528 0.00829 0.46968
 C91 C 0.51479 -0.03861 0.53267
 C92 C 0.51861 -0.04274 0.57124
 C93 C 0.51869 -0.00815 0.60651
 C94 C 0.51526 0.03042 0.60183
 C95 C 0.51032 0.03414 0.56349
 C96 C 0.43762 -0.03285 0.47329
 C97 C 0.39905 -0.03350 0.46534
 C98 C 0.38544 0.00279 0.46528
 C99 C 0.41140 0.03968 0.47224
 C100 C 0.45030 0.04011 0.47929
 C101 C 0.54977 0.04405 0.40717
 C102 C 0.54727 0.04609 0.36765
 C103 C 0.52328 0.01577 0.34014
 C104 C 0.50177 -0.01684 0.35299
 C105 C 0.50457 -0.01907 0.39248
 C106 C 0.59308 0.03913 0.50208
 C107 C 0.63234 0.04041 0.50820
 C108 C 0.65500 0.01156 0.48142
 C109 C 0.63666 -0.01967 0.44915
 C110 C 0.59735 -0.02108 0.44341
 H111 H 0.51490 -0.06542 0.50595
 H112 H 0.52230 -0.07285 0.57281
 H113 H 0.51534 0.05771 0.62810
 H114 H 0.50673 0.06396 0.56084
 H115 H 0.44746 -0.06109 0.47371
 H116 H 0.37959 -0.06228 0.45986
 H117 H 0.47004 0.06867 0.48447
 H118 H 0.56880 0.06765 0.42767
 H119 H 0.56443 0.07128 0.35841
 H120 H 0.48398 -0.04152 0.33222
 H121 H 0.48906 -0.04534 0.40108
 H122 H 0.57692 0.06287 0.52201
 H123 H 0.64527 0.06487 0.53334
 H124 H 0.65195 -0.04345 0.42817
 H125 H 0.58409 -0.04508 0.41815
 H126 H 0.40183 0.06795 0.47160
 O127 O 0.45368 -0.05441 -0.09461
 O128 O 0.44560 -0.03283 0.01731
 O129 O 0.44981 0.01211 -0.03256
 O130 O 0.45061 -0.09848 -0.04489
 O131 O 0.51461 -0.08759 -0.04251
 O132 O 0.51401 0.02207 -0.03285
 O133 O 0.50968 -0.02114 0.01853
 O134 O 0.51782 -0.04387 -0.09382
 Cu135 Cu 0.44350 -0.04436 -0.03872
 Cu136 Cu 0.52045 -0.03165 -0.03755
 C137 C 0.48704 -0.05251 -0.11322
 C138 C 0.47619 -0.02362 0.03696
 C139 C 0.48195 0.03574 -0.03126
 C140 C 0.48271 -0.11168 -0.04523
 O141 O -0.07437 0.50358 1.03661
 O142 O 0.03280 0.51518 1.02992
 O143 O -0.01948 0.50982 0.98030
 O144 O -0.02104 0.50885 1.08689
 O145 O -0.02373 0.44095 1.06584
 O146 O -0.02196 0.44190 0.95911
 O147 O 0.03084 0.44732 1.00967
 O148 O -0.07620 0.43575 1.01542
 Cu149 Cu -0.02049 0.51620 1.03571
 Cu150 Cu -0.02297 0.43465 1.01044
 C151 C -0.09350 0.46763 1.02673
 C152 C 0.05002 0.48325 1.01863
 C153 C -0.02023 0.47607 0.95158
 C154 C -0.02235 0.47474 1.09447
 O155 O 0.02342 -0.04368 0.43871
 O156 O 0.03359 0.06339 0.43438
 O157 O 0.08109 0.01561 0.44361
 O158 O -0.02381 0.00360 0.42952
 O159 O -0.03568 0.02530 0.49649
 O160 O 0.06952 0.03900 0.51050
 O161 O 0.02096 0.08509 0.50121
 O162 O 0.01260 -0.02124 0.50577
 Cu163 Cu 0.02983 0.00759 0.42981
 Cu164 Cu 0.01573 0.03422 0.51023
 C165 C 0.01622 -0.05061 0.47306
 C166 C 0.02870 0.09241 0.46708
 C167 C 0.09318 0.02946 0.47945
 C168 C -0.04761 0.01216 0.46056
 C169 C -0.34397 0.50189 1.03591
 C170 C -0.32043 0.47039 1.02297
 C171 C -0.27832 0.47744 1.02801
 N172 N -0.25800 0.44474 1.01693
 N173 N -0.21972 0.45027 1.02049
 C174 C -0.20026 0.48877 1.03524
 N175 N -0.22058 0.52154 1.04638
 N176 N -0.25894 0.51600 1.04287
 C177 C -0.15776 0.49519 1.03818
 C178 C -0.13620 0.46210 1.02748
 H179 H -0.33333 0.43889 1.00940
 H180 H -0.14312 0.52653 1.04801
 H181 H -0.33147 0.53272 1.05255
 H182 H -0.15100 0.43080 1.01805
 C183 C 0.30134 0.46405 1.01958
 C184 C 0.27826 0.47818 0.99718
 C185 C 0.23554 0.47227 1.00195
 N186 N 0.21515 0.49722 0.99083
 N187 N 0.17643 0.49254 0.99496
 C188 C 0.15663 0.46243 1.01000
 N189 N 0.17697 0.43709 1.02065
 N190 N 0.21577 0.44205 1.01690
 C191 C 0.11387 0.45689 1.01428
 C192 C 0.09273 0.48848 1.01550
 H193 H 0.29094 0.49720 0.97810
 H194 H 0.09884 0.42797 1.01784
 H195 H 0.28617 0.44947 1.04173
 H196 H 0.10794 0.51848 1.01533
 C197 C 0.00192 -0.27386 0.55549
 C198 C -0.00869 -0.26553 0.52126
 C199 C -0.00539 -0.22310 0.51902
 N200 N -0.00762 -0.21627 0.48262
 N201 N -0.00358 -0.17790 0.48005
 C202 C 0.00265 -0.14500 0.51385
 N203 N 0.00445 -0.15185 0.55030
 N204 N 0.00063 -0.19019 0.55283
 C205 C 0.00737 -0.10249 0.51168
 C206 C 0.01180 -0.09333 0.47463
 H207 H -0.01702 -0.29067 0.49439
 H208 H 0.00823 -0.07764 0.54016
 H209 H 0.01354 -0.24847 0.58067
 H210 H 0.01239 -0.11800 0.44607
 C211 C 0.01516 0.36202 0.52982
 C212 C 0.03129 0.33208 0.49768
 C213 C 0.02952 0.28931 0.49844
 N214 N 0.04142 0.26009 0.46465
 N215 N 0.03967 0.22111 0.46482
 C216 C 0.02605 0.21002 0.49887
 N217 N 0.01437 0.23928 0.53270
 N218 N 0.01601 0.27820 0.53249
 C219 C 0.02373 0.16727 0.49978
 C220 C 0.03199 0.13498 0.46524
 H221 H 0.04417 0.33951 0.47040
 H222 H 0.01449 0.16100 0.52856
 H223 H -0.00036 0.35317 0.55543
 H224 H 0.04038 0.14083 0.43615
 C225 C 0.52208 -0.01038 -0.35388
 C226 C 0.51713 -0.04693 -0.34293
 C227 C 0.51919 -0.04612 -0.30020
 N228 N 0.49875 -0.07672 -0.28632
 N229 N 0.49933 -0.07553 -0.24733
 C230 C 0.52081 -0.04395 -0.22093
 N231 N 0.54184 -0.01378 -0.23500
 N232 N 0.54088 -0.01470 -0.27386
 C233 C 0.52084 -0.04148 -0.17751
 C234 C 0.48955 -0.05985 -0.15772
 H235 H 0.50779 -0.07632 -0.36465
 H236 H 0.54414 -0.02148 -0.15983
 H237 H 0.52636 0.01841 -0.32942
 H238 H 0.46443 -0.07641 -0.17455
 C239 C 0.52355 0.01772 0.29773
 C240 C 0.49341 -0.00123 0.27185
 C241 C 0.49604 -0.00086 0.22896
 N242 N 0.46454 -0.01560 0.20618
 N243 N 0.46683 -0.01651 0.16703
 C244 C 0.50078 -0.00286 0.14914
 N245 N 0.53228 0.01183 0.17192
 N246 N 0.52995 0.01290 0.21110
 C247 C 0.50428 -0.00524 0.10549
 C248 C 0.47225 -0.01689 0.08145
 H249 H 0.46697 -0.01641 0.28318
 H250 H 0.53300 0.00162 0.09177
 H251 H 0.54832 0.03564 0.28673
 H252 H 0.44337 -0.02245 0.09542
 C253 C 0.51319 -0.34255 0.00408
 C254 C 0.50393 -0.33348 -0.03032
 C255 C 0.50718 -0.29079 -0.03202
 N256 N 0.48572 -0.28173 -0.05796
 N257 N 0.48738 -0.24301 -0.05894
 C258 C 0.51091 -0.21198 -0.03430
 N259 N 0.53285 -0.22114 -0.00883
 N260 N 0.53087 -0.25979 -0.00753
 C261 C 0.51259 -0.16896 -0.03451
 C262 C 0.48249 -0.15540 -0.04840
 H263 H 0.49051 -0.35797 -0.05509
 H264 H 0.53673 -0.14682 -0.02068
 H265 H 0.52240 -0.31747 0.03068
 H266 H 0.45674 -0.17678 -0.05892
 C267 C 0.44407 0.29580 0.01290
 C268 C 0.45832 0.26517 -0.01992
 C269 C 0.45535 0.22207 -0.01960
 N270 N 0.48107 0.19749 -0.04329
 N271 N 0.47954 0.15868 -0.04272
 C272 C 0.45197 0.14283 -0.01874
 N273 N 0.42582 0.16720 0.00450
 N274 N 0.42764 0.20622 0.00430
 C275 C 0.45016 0.09990 -0.01812
 C276 C 0.48286 0.07927 -0.02916
 H277 H 0.47554 0.27377 -0.04482
 H278 H 0.42316 0.08479 -0.00765
 H279 H 0.43083 0.28791 0.03988
 H280 H 0.51054 0.09581 -0.03619
 C281 C -0.30509 0.01551 0.48771
 C282 C -0.27805 -0.00703 0.46046
 C283 C -0.23633 -0.00024 0.46773
 N284 N -0.21071 -0.01785 0.43733
 N285 N -0.17278 -0.01182 0.44305
 C286 C -0.15904 0.01193 0.47948
 N287 N -0.18468 0.02932 0.51003
 N288 N -0.22263 0.02344 0.50424
 C289 C -0.11719 0.01872 0.48618
 C290 C -0.08943 0.00622 0.45422
 H291 H -0.28649 -0.02882 0.43169
 H292 H -0.10803 0.03446 0.51681
 H293 H -0.29412 0.03893 0.51471
 H294 H -0.09850 -0.00812 0.42334
 C295 C 0.34435 0.00097 0.45717
 C296 C 0.32243 0.03304 0.47640
 C297 C 0.28071 0.02923 0.47021
 N298 N 0.25783 0.05496 0.49726
 N299 N 0.21986 0.05125 0.49239
 C300 C 0.20345 0.02184 0.46009
 N301 N 0.22643 -0.00354 0.43278
 N302 N 0.26432 -0.00005 0.43783
 C303 C 0.16161 0.01723 0.45421
 C304 C 0.13505 0.03483 0.48545
 H305 H 0.33542 0.06046 0.49861
 H306 H 0.15126 -0.00194 0.42494
 H307 H 0.32998 -0.02794 0.43831
 H308 H 0.14498 0.05184 0.51552
 C309 C 0.00749 0.53811 1.36215
 C310 C -0.00682 0.50426 1.33040
 C311 C -0.00845 0.50617 1.28863
 N312 N -0.01949 0.47115 1.25858
 N313 N -0.02154 0.47214 1.22053
 C314 C -0.01278 0.50826 1.21115
 N315 N -0.00188 0.54336 1.24124
 N316 N 0.00028 0.54235 1.27932
 C317 C -0.01478 0.50965 1.16920
 C318 C -0.02199 0.47381 1.13674
 H319 H -0.01641 0.47477 1.33586
 H320 H -0.00944 0.53945 1.16360
 H321 H 0.02023 0.56645 1.35560
 H322 H -0.02614 0.44395 1.14215
 C323 C 0.02223 0.54169 0.71879
 C324 C -0.00811 0.52080 0.73733
 C325 C -0.00613 0.51765 0.77857
 N326 N -0.03026 0.48820 0.79110
 N327 N -0.02948 0.48575 0.82885
 C328 C -0.00483 0.51299 0.85555
 N329 N 0.01906 0.54265 0.84313
 N330 N 0.01858 0.54482 0.80524
 C331 C -0.00468 0.51166 0.89769
 C332 C -0.01936 0.47634 0.90899
 H333 H -0.03369 0.50546 0.72076
 H334 H 0.00832 0.53886 0.92020
 H335 H 0.04958 0.55279 0.73332
 H336 H -0.02914 0.44794 0.88595
   
