data_POSCAR
  _audit_creation_date              2014-09-24
  _audit_creation_method            'ToBaCCo'
  _symmetry_space_group_name_H-M    'P1'
  _symmetry_Int_Tables_number       1
  _symmetry_cell_setting            triclinic
  loop_
  _symmetry_equiv_pos_as_xyz
 x,y,z
_cell_length_a 27.2397
_cell_length_b 26.8836
_cell_length_c 27.7735
_cell_angle_alpha 90.010800
_cell_angle_beta 89.930500
_cell_angle_gamma 89.408300
loop_
  _atom_site_label
  _atom_site_type_symbol
  _atom_site_fract_x
  _atom_site_fract_y
  _atom_site_fract_z
C1 C 0.52081 1.01282 -0.50832
 C2 C 0.47089 1.01398 -0.50891
 C3 C 0.44230 1.01440 -0.55451
 C4 C 0.44178 1.01595 -0.46373
 C5 C 0.54903 1.00823 -0.46270
 C6 C 0.55022 1.01738 -0.55311
 C7 C 0.40542 1.05040 -0.56136
 C8 C 0.37509 1.04904 -0.60183
 C9 C 0.38049 1.01090 -0.63664
 C10 C 0.41875 0.97572 -0.63006
 C11 C 0.44898 0.97723 -0.58938
 C12 C 0.44440 1.05731 -0.43305
 C13 C 0.41300 1.06132 -0.39330
 C14 C 0.37917 1.02368 -0.38314
 C15 C 0.37729 0.98184 -0.41348
 C16 C 0.40808 0.97827 -0.45363
 C17 C 0.54154 0.96825 -0.43108
 C18 C 0.57062 0.96278 -0.38987
 C19 C 0.60819 0.99667 -0.37993
 C20 C 0.61484 1.03730 -0.41112
 C21 C 0.58578 1.04275 -0.45221
 C22 C 0.58445 0.98009 -0.56515
 C23 C 0.61559 0.98588 -0.60472
 C24 C 0.61346 1.02951 -0.63263
 C25 C 0.57911 1.06678 -0.62053
 C26 C 0.54745 1.06063 -0.58131
 H27 H 0.39980 1.07959 -0.53496
 H28 H 0.34785 1.07826 -0.60474
 H29 H 0.42467 0.94594 -0.65582
 H30 H 0.47674 0.94855 -0.58451
 H31 H 0.46963 1.08714 -0.44081
 H32 H 0.41472 1.09412 -0.37073
 H33 H 0.40514 0.94646 -0.47736
 H34 H 0.51390 0.94072 -0.43883
 H35 H 0.56451 0.93137 -0.36627
 H36 H 0.64216 1.06522 -0.40386
 H37 H 0.59199 1.07401 -0.47598
 H38 H 0.58757 0.94680 -0.54334
 H39 H 0.64252 0.95702 -0.61221
 H40 H 0.57717 1.10093 -0.64117
 H41 H 0.52187 1.09022 -0.57199
 H42 H 0.35076 0.95282 -0.40740
 C43 C -0.50428 1.52262 0.04807
 C44 C -0.49556 1.47293 0.04747
 C45 C -0.53563 1.43624 0.04947
 C46 C -0.44528 1.45240 0.04263
 C47 C -0.46379 1.55869 0.04494
 C48 C -0.55454 1.54400 0.05010
 C49 C -0.56753 1.43395 0.08911
 C50 C -0.60399 1.39770 0.09093
 C51 C -0.60934 1.36370 0.05295
 C52 C -0.57694 1.36585 0.01359
 C53 C -0.54042 1.40173 0.01198
 C54 C -0.42405 1.42652 0.08123
 C55 C -0.37864 1.40267 0.07563
 C56 C -0.35456 1.40320 0.03097
 C57 C -0.37524 1.43042 -0.00735
 C58 C -0.42029 1.45504 -0.00145
 C59 C -0.46045 1.58977 0.00461
 C60 C -0.42412 1.62588 0.00211
 C61 C -0.39082 1.63180 0.04027
 C62 C -0.39448 1.60085 0.08080
 C63 C -0.43049 1.56421 0.08299
 C64 C -0.58844 1.53533 0.01322
 C65 C -0.63379 1.56017 0.01313
 C66 C -0.64608 1.59450 0.04968
 C67 C -0.61235 1.60132 0.08768
 C68 C -0.56704 1.57665 0.08748
 H69 H -0.56377 1.45978 0.11878
 H70 H -0.62817 1.39632 0.12187
 H71 H -0.57897 1.33922 -0.01553
 H72 H -0.51576 1.40258 -0.01864
 H73 H -0.44309 1.42412 0.11540
 H74 H -0.36321 1.38212 0.10566
 H75 H -0.43645 1.47481 -0.03159
 H76 H -0.48632 1.58627 -0.02476
 H77 H -0.42315 1.65004 -0.02903
 H78 H -0.36951 1.60513 0.11080
 H79 H -0.43312 1.54090 0.11467
 H80 H -0.57914 1.51060 -0.01628
 H81 H -0.65870 1.55358 -0.01654
 H82 H -0.61949 1.62607 0.11747
 H83 H -0.54124 1.58363 0.11630
 H84 H -0.35687 1.43231 -0.04187
 C85 C 0.00802 0.51964 0.49306
 C86 C 0.00892 0.46932 0.49330
 C87 C 0.00746 0.44022 0.44826
 C88 C 0.01086 0.43990 0.53814
 C89 C 0.01156 0.54901 0.53789
 C90 C 0.00484 0.54809 0.44747
 C91 C -0.03522 0.41461 0.43607
 C92 C -0.03605 0.38383 0.39562
 C93 C 0.00644 0.37726 0.36706
 C94 C 0.04911 0.40339 0.37962
 C95 C 0.04947 0.43496 0.41960
 C96 C -0.03113 0.43479 0.56673
 C97 C -0.03221 0.39909 0.60334
 C98 C 0.00882 0.36811 0.61232
 C99 C 0.05172 0.37529 0.58467
 C100 C 0.05242 0.41056 0.54781
 C101 C 0.05600 0.55173 0.56300
 C102 C 0.06093 0.58487 0.60150
 C103 C 0.02126 0.61533 0.61619
 C104 C -0.02377 0.61122 0.59138
 C105 C -0.02825 0.57872 0.55243
 C106 C 0.04296 0.58005 0.43458
 C107 C 0.04020 0.60775 0.39214
 C108 C -0.00129 0.60455 0.36215
 C109 C -0.03911 0.57196 0.37486
 C110 C -0.03627 0.54420 0.41735
 H111 H -0.06774 0.41797 0.45837
 H112 H -0.06946 0.36379 0.38868
 H113 H 0.08249 0.39912 0.35868
 H114 H 0.08286 0.45420 0.42901
 H115 H -0.06383 0.45666 0.55911
 H116 H -0.06580 0.39480 0.62381
 H117 H 0.08486 0.41362 0.52544
 H118 H 0.08735 0.52952 0.55165
 H119 H 0.09612 0.58704 0.61949
 H120 H -0.05517 0.63443 0.59993
 H121 H -0.06256 0.57754 0.53279
 H122 H 0.07512 0.58319 0.45724
 H123 H 0.07089 0.63106 0.38282
 H124 H -0.07131 0.56862 0.35229
 H125 H -0.06632 0.52011 0.42703
 H126 H 0.08416 0.35236 0.58908
 O127 O -0.05187 0.98698 -0.13884
 O128 O -0.08561 1.00854 0.10611
 O129 O -0.12633 0.92880 -0.02025
 O130 O -0.12955 1.06365 -0.02674
 O131 O -0.07100 1.12494 -0.02359
 O132 O -0.06543 0.86966 -0.00876
 O133 O -0.13693 1.00184 0.04038
 O134 O -0.11923 0.99019 -0.08837
 Zr135 Zr -0.08845 0.99699 -0.01886
 O136 O -0.05386 1.04606 0.02655
 O137 O -0.04001 0.94970 -0.05341
 C138 C -0.09876 0.98677 -0.13053
 C139 C -0.12867 1.00645 0.08615
 C140 C -0.11061 0.88324 -0.01596
 C141 C -0.11591 1.10976 -0.02699
 H142 H -0.07450 0.93615 0.05215
 O143 O -0.05163 0.95638 0.03285
 H144 H -0.05990 1.05895 -0.08419
 O145 O -0.04169 1.03939 -0.05978
 O146 O 0.04651 1.00794 0.12324
 O147 O 0.07995 0.99299 -0.12213
 O148 O -0.00643 0.87624 0.06638
 O149 O -0.01632 1.13114 0.04692
 O150 O 0.00686 1.12134 -0.08028
 O151 O 0.00563 0.86632 -0.06303
 O152 O 0.12332 0.93421 0.01555
 O153 O 0.12131 1.06827 0.00206
 O154 O 0.06526 0.87247 0.01168
 O155 O 0.06051 1.12730 -0.01027
 O156 O -0.01589 0.94136 0.11986
 O157 O 0.01306 0.92195 -0.12588
 O158 O 0.01467 1.05710 -0.13502
 O159 O -0.02188 1.07529 0.10969
 O160 O 0.11384 1.00456 0.07276
 O161 O 0.13141 0.99727 -0.05628
 Zr162 Zr -0.01424 1.00524 0.07602
 Zr163 Zr 0.00876 0.99239 -0.09185
 Zr164 Zr -0.00093 0.91163 -0.00141
 Zr165 Zr -0.00447 1.08561 -0.01394
 Zr166 Zr 0.08296 1.00034 0.00315
 O167 O 0.04640 1.04111 -0.04853
 O168 O 0.03636 0.95809 0.04432
 C169 C 0.09344 1.00703 0.11499
 C170 C 0.12300 0.99525 -0.10221
 C171 C -0.01138 0.89455 0.10943
 C172 C -0.02209 1.11995 0.09194
 C173 C 0.01410 1.10390 -0.12317
 C174 C 0.00993 0.87729 -0.10827
 C175 C 0.10967 0.88821 0.01799
 C176 C 0.10583 1.11367 -0.00407
 H177 H 0.07189 0.92892 -0.05821
 O178 O 0.04807 0.95143 -0.04211
 H179 H 0.05203 1.07082 0.05905
 O180 O 0.03453 1.04758 0.03767
 C181 C 0.35051 1.00612 0.32464
 C182 C 0.30866 1.03560 0.31533
 C183 C 0.27557 1.02772 0.27368
 C184 C 0.22694 1.04525 0.27678
 C185 C 0.19443 1.03926 0.23839
 C186 C 0.20992 1.01556 0.19577
 C187 C 0.25885 0.99900 0.19220
 C188 C 0.29139 1.00488 0.23071
 C189 C 0.17683 1.00951 0.15384
 C190 C 0.12563 1.01026 0.15742
 H191 H 0.29667 1.06355 0.34074
 H192 H 0.21398 1.06373 0.30912
 H193 H 0.15764 1.05425 0.24206
 H194 H 0.27198 0.98146 0.15943
 H195 H 0.32899 0.99244 0.22617
 H196 H 0.19356 1.00316 0.11893
 H197 H 0.35814 0.97588 0.29987
 H198 H 0.10817 1.01316 0.19231
 C199 C -0.35111 1.03837 0.32791
 C200 C -0.33018 0.99982 0.30087
 C201 C -0.29083 1.00774 0.26499
 C202 C -0.28614 0.97462 0.22618
 C203 C -0.24772 0.97940 0.19313
 C204 C -0.21268 1.01700 0.19878
 C205 C -0.21699 1.04975 0.23792
 C206 C -0.25594 1.04551 0.27053
 C207 C -0.16993 1.02083 0.16609
 C208 C -0.17217 1.00744 0.11762
 H209 H -0.34413 0.96248 0.30503
 H210 H -0.31212 0.94475 0.22162
 H211 H -0.24465 0.95263 0.16414
 H212 H -0.19002 1.07855 0.24338
 H213 H -0.25772 1.07077 0.30085
 H214 H -0.13612 1.03575 0.18035
 H215 H -0.34216 1.07649 0.31920
 H216 H -0.20710 0.99741 0.10198
 C217 C -0.36049 0.98888 -0.33686
 C218 C -0.31259 1.00688 -0.33380
 C219 C -0.27985 0.99982 -0.29163
 C220 C -0.22956 1.00904 -0.29736
 C221 C -0.19728 1.00460 -0.25852
 C222 C -0.21460 0.99066 -0.21277
 C223 C -0.26498 0.98186 -0.20687
 C224 C -0.29734 0.98633 -0.24580
 C225 C -0.18191 0.98765 -0.17010
 C226 C -0.13078 0.98392 -0.17311
 H227 H -0.29707 1.02526 -0.36487
 H228 H -0.21516 1.02021 -0.33205
 H229 H -0.15916 1.01348 -0.26451
 H230 H -0.27945 0.97185 -0.17188
 H231 H -0.33596 0.98026 -0.23938
 H232 H -0.19894 0.98862 -0.13482
 H233 H -0.37459 0.96547 -0.30848
 H234 H -0.11305 0.97995 -0.20777
 C235 C 0.34382 1.03052 -0.34315
 C236 C 0.32391 0.99069 -0.31780
 C237 C 0.28431 0.99704 -0.28178
 C238 C 0.28110 0.96339 -0.24333
 C239 C 0.24256 0.96700 -0.21014
 C240 C 0.20593 1.00382 -0.21545
 C241 C 0.20876 1.03702 -0.25428
 C242 C 0.24783 1.03404 -0.28692
 C243 C 0.16319 1.00656 -0.18267
 C244 C 0.16626 0.99426 -0.13397
 H245 H 0.33876 0.95361 -0.32349
 H246 H 0.30839 0.93412 -0.23910
 H247 H 0.24068 0.94004 -0.18127
 H248 H 0.18058 1.06526 -0.25942
 H249 H 0.24855 1.05966 -0.31696
 H250 H 0.12877 1.02083 -0.19685
 H251 H 0.33394 1.06816 -0.33276
 H252 H 0.20163 0.98535 -0.11824
 C253 C 0.35237 1.32527 0.05573
 C254 C 0.33060 1.30556 0.01456
 C255 C 0.29408 1.26542 0.01592
 C256 C 0.26030 1.26175 -0.02192
 C257 C 0.22595 1.22361 -0.02258
 C258 C 0.22517 1.18799 0.01443
 C259 C 0.25980 1.19079 0.05163
 C260 C 0.29380 1.22940 0.05263
 C261 C 0.18932 1.14719 0.01430
 C262 C 0.14205 1.15366 -0.00391
 H263 H 0.33878 1.32188 -0.02015
 H264 H 0.26042 1.28858 -0.05103
 H265 H 0.20069 1.22155 -0.05255
 H266 H 0.26026 1.16328 0.08014
 H267 H 0.32040 1.23031 0.08152
 H268 H 0.19928 1.11241 0.03162
 H269 H 0.33944 1.31409 0.09094
 H270 H 0.13026 1.19000 -0.01646
 C271 C 0.30973 0.62197 0.04544
 C272 C 0.29491 0.66032 0.07662
 C273 C 0.25332 0.69449 0.06621
 C274 C 0.25438 0.74260 0.08570
 C275 C 0.21741 0.77714 0.07503
 C276 C 0.17833 0.76415 0.04469
 C277 C 0.17592 0.71535 0.02700
 C278 C 0.21317 0.68077 0.03745
 C279 C 0.13947 0.80051 0.03172
 C280 C 0.14831 0.85149 0.02907
 H281 H 0.31692 0.66983 0.10745
 H282 H 0.28444 0.75385 0.10864
 H283 H 0.21943 0.81381 0.09093
 H284 H 0.14557 0.70421 0.00440
 H285 H 0.21012 0.64348 0.02324
 H286 H 0.10365 0.78657 0.02195
 H287 H 0.28736 0.61507 0.01400
 H288 H 0.18499 0.86528 0.03509
 C289 C -0.35387 0.67160 0.03959
 C290 C -0.33300 0.68894 -0.00303
 C291 C -0.29811 0.73054 -0.00403
 C292 C -0.26108 0.73098 -0.03913
 C293 C -0.22765 0.76999 -0.04098
 C294 C -0.23139 0.80975 -0.00827
 C295 C -0.26946 0.81019 0.02574
 C296 C -0.30232 0.77068 0.02821
 C297 C -0.19623 0.85109 -0.00916
 C298 C -0.14659 0.84313 -0.01881
 H299 H -0.34027 0.66968 -0.03648
 H300 H -0.25771 0.70079 -0.06480
 H301 H -0.19934 0.76936 -0.06838
 H302 H -0.27330 0.84080 0.05090
 H303 H -0.33143 0.77201 0.05476
 H304 H -0.20871 0.88758 0.00244
 H305 H -0.34130 0.68621 0.07372
 H306 H -0.13302 0.80563 -0.02493
 C307 C -0.30899 1.37371 0.02505
 C308 C -0.29827 1.34806 -0.01743
 C309 C -0.25783 1.31120 -0.02060
 C310 C -0.26322 1.26957 -0.05052
 C311 C -0.22684 1.23254 -0.05213
 C312 C -0.18411 1.23696 -0.02419
 C313 C -0.17776 1.27971 0.00400
 C314 C -0.21437 1.31641 0.00605
 C315 C -0.14534 1.19817 -0.02396
 C316 C -0.15479 1.14782 -0.03155
 H317 H -0.32385 1.35036 -0.04720
 H318 H -0.29613 1.26516 -0.07189
 H319 H -0.23214 1.20082 -0.07546
 H320 H -0.14475 1.28428 0.02520
 H321 H -0.20850 1.34884 0.02834
 H322 H -0.10870 1.20920 -0.01355
 H323 H -0.28712 1.36643 0.05687
 H324 H -0.19192 1.13556 -0.03805
 C325 C 0.00862 1.34363 0.32833
 C326 C -0.03220 1.32041 0.30814
 C327 C -0.02710 1.27970 0.27282
 C328 C -0.06221 1.27477 0.23630
 C329 C -0.05892 1.23547 0.20346
 C330 C -0.02100 1.19986 0.20742
 C331 C 0.01338 1.20412 0.24466
 C332 C 0.01071 1.24399 0.27684
 C333 C -0.01731 1.15736 0.17405
 C334 C -0.02869 1.16176 0.12535
 H335 H -0.06897 1.33343 0.31625
 H336 H -0.09209 1.30147 0.23310
 H337 H -0.08662 1.23235 0.17572
 H338 H 0.04254 1.17672 0.24862
 H339 H 0.03746 1.24614 0.30555
 H340 H -0.00133 1.12289 0.18726
 H341 H 0.04427 1.33527 0.31272
 H342 H -0.03925 1.19765 0.11073
 C343 C 0.00442 1.32961 -0.35359
 C344 C 0.04313 1.29882 -0.33831
 C345 C 0.03542 1.25591 -0.30609
 C346 C 0.07162 1.24365 -0.27217
 C347 C 0.06519 1.20355 -0.24095
 C348 C 0.02285 1.17428 -0.24388
 C349 C -0.01237 1.18505 -0.27922
 C350 C -0.00644 1.22594 -0.30982
 C351 C 0.01452 1.13368 -0.20918
 C352 C 0.02321 1.14132 -0.16041
 H353 H 0.08068 1.30771 -0.34702
 H354 H 0.10453 1.26574 -0.26924
 H355 H 0.09332 1.19532 -0.21452
 H356 H -0.04505 1.16265 -0.28226
 H357 H -0.03426 1.23373 -0.33666
 H358 H -0.00287 1.09979 -0.22113
 H359 H -0.03144 1.32333 -0.33785
 H360 H 0.03476 1.17776 -0.14846
 C361 C 0.02874 0.65022 -0.34672
 C362 C -0.00876 0.67778 -0.32440
 C363 C 0.00106 0.71763 -0.28913
 C364 C -0.03263 0.72610 -0.25176
 C365 C -0.02557 0.76481 -0.21903
 C366 C 0.01492 0.79647 -0.22365
 C367 C 0.04811 0.78873 -0.26164
 C368 C 0.04160 0.74927 -0.29386
 C369 C 0.02168 0.83871 -0.19029
 C370 C 0.00980 0.83486 -0.14164
 H371 H -0.04677 0.66835 -0.33016
 H372 H -0.06453 0.70269 -0.24790
 H373 H -0.05253 0.77072 -0.19087
 H374 H 0.07918 0.81312 -0.26623
 H375 H 0.06744 0.74443 -0.32317
 H376 H 0.03729 0.87281 -0.20398
 H377 H 0.06589 0.65555 -0.33389
 H378 H -0.00082 0.79905 -0.12730
 C379 C -0.00611 0.63443 0.31756
 C380 C 0.01785 0.67967 0.31121
 C381 C 0.01186 0.71173 0.26825
 C382 C 0.02417 0.76208 0.27213
 C383 C 0.01928 0.79396 0.23277
 C384 C 0.00189 0.77610 0.18842
 C385 C -0.00907 0.72543 0.18400
 C386 C -0.00432 0.69346 0.22355
 C387 C -0.00332 0.80915 0.14605
 C388 C -0.01150 0.86025 0.15059
 H389 H 0.03937 0.69437 0.34057
 H390 H 0.03758 0.77692 0.30587
 H391 H 0.03009 0.83229 0.23711
 H392 H -0.02157 0.71060 0.14993
 H393 H -0.01258 0.65454 0.21865
 H394 H -0.00135 0.79268 0.11048
 H395 H -0.03225 0.62226 0.29085
 H396 H -0.01703 0.87638 0.18591
   
