data_POSCAR
  _audit_creation_date              2014-09-24
  _audit_creation_method            'ToBaCCo'
  _symmetry_space_group_name_H-M    'P1'
  _symmetry_Int_Tables_number       1
  _symmetry_cell_setting            triclinic
  loop_
  _symmetry_equiv_pos_as_xyz
 x,y,z
_cell_length_a 43.5252
_cell_length_b 44.8779
_cell_length_c 43.0066
_cell_angle_alpha 87.751700
_cell_angle_beta 89.302600
_cell_angle_gamma 89.598000
loop_
  _atom_site_label
  _atom_site_type_symbol
  _atom_site_fract_x
  _atom_site_fract_y
  _atom_site_fract_z
C1 C 0.24241 0.20495 0.25980
 C2 C 0.22509 0.19427 0.28547
 C3 C 0.19646 0.20723 0.29319
 C4 C 0.18663 0.23262 0.27534
 C5 C 0.20417 0.24391 0.24993
 C6 C 0.23201 0.22978 0.24192
 C7 C 0.26910 0.18983 0.25079
 C8 C 0.28531 0.19823 0.22322
 C9 C 0.27555 0.22431 0.20645
 C10 C 0.24896 0.23986 0.21545
 C11 C 0.23810 0.26435 0.19736
 C12 C 0.21029 0.27861 0.20508
 C13 C 0.19362 0.26836 0.23160
 H14 H 0.23298 0.17411 0.29760
 H15 H 0.16546 0.24401 0.28122
 H16 H 0.27695 0.17121 0.26543
 H17 H 0.28691 0.23138 0.18492
 H18 H 0.25112 0.27210 0.17702
 H19 H 0.17180 0.27870 0.23730
 C20 C -0.20844 0.81089 0.19365
 C21 C -0.19551 0.82389 0.21947
 C22 C -0.16736 0.81353 0.23201
 C23 C -0.15312 0.78861 0.21851
 C24 C -0.16582 0.77548 0.19245
 C25 C -0.19343 0.78689 0.17979
 C26 C -0.23595 0.82215 0.18118
 C27 C -0.24852 0.81055 0.15409
 C28 C -0.23296 0.78664 0.14018
 C29 C -0.20586 0.77456 0.15306
 C30 C -0.19075 0.75058 0.13934
 C31 C -0.16321 0.73898 0.15175
 C32 C -0.15092 0.75156 0.17834
 H33 H -0.20813 0.84174 0.23017
 H34 H -0.13123 0.78029 0.22693
 H35 H -0.24642 0.84132 0.19171
 H36 H -0.24237 0.77659 0.11991
 H37 H -0.20003 0.74140 0.11851
 H38 H -0.12974 0.74268 0.18806
 C39 C -0.23257 0.19281 -0.22853
 C40 C -0.21866 0.17831 -0.25336
 C41 C -0.18913 0.18638 -0.26416
 C42 C -0.17353 0.20947 -0.24986
 C43 C -0.18719 0.22430 -0.22499
 C44 C -0.21682 0.21584 -0.21430
 C45 C -0.26155 0.18383 -0.21709
 C46 C -0.27526 0.19735 -0.19114
 C47 C -0.25951 0.22112 -0.17794
 C48 C -0.23050 0.23007 -0.18901
 C49 C -0.21467 0.25262 -0.17451
 C50 C -0.18503 0.26091 -0.18453
 C51 C -0.17152 0.24695 -0.21011
 H52 H -0.23054 0.16014 -0.26381
 H53 H -0.15081 0.21590 -0.25814
 H54 H -0.27228 0.16500 -0.22745
 H55 H -0.26981 0.23326 -0.15917
 H56 H -0.22531 0.26356 -0.15505
 H57 H -0.14853 0.25310 -0.21779
 C58 C 0.22610 0.82202 -0.21609
 C59 C 0.21423 0.83411 -0.24396
 C60 C 0.19081 0.81956 -0.25998
 C61 C 0.17996 0.79192 -0.24722
 C62 C 0.19182 0.77942 -0.21932
 C63 C 0.21487 0.79466 -0.20368
 C64 C 0.24851 0.83739 -0.19995
 C65 C 0.25973 0.82575 -0.17145
 C66 C 0.24878 0.79827 -0.15946
 C67 C 0.22643 0.78276 -0.17530
 C68 C 0.21508 0.75580 -0.16278
 C69 C 0.19191 0.74052 -0.17788
 C70 C 0.18062 0.75221 -0.20641
 H71 H 0.22227 0.85588 -0.25194
 H72 H 0.16281 0.77950 -0.25921
 H73 H 0.25671 0.85875 -0.20917
 H74 H 0.25767 0.78897 -0.13770
 H75 H 0.22417 0.74671 -0.14101
 H76 H 0.16253 0.74061 -0.21801
 C77 C 0.18131 1.20938 0.76171
 C78 C 0.16241 1.19686 0.73964
 C79 C 0.17196 1.17177 0.72312
 C80 C 0.20192 1.16034 0.72851
 C81 C 0.22112 1.17281 0.75054
 C82 C 0.21073 1.19743 0.76721
 C83 C 0.17066 1.23331 0.77886
 C84 C 0.18865 1.24546 0.80230
 C85 C 0.21852 1.23367 0.80703
 C86 C 0.22946 1.20969 0.78990
 C87 C 0.25831 1.19685 0.79619
 C88 C 0.26860 1.17176 0.78033
 C89 C 0.25005 1.16020 0.75715
 H90 H 0.14033 1.20730 0.73513
 H91 H 0.20989 1.14058 0.71715
 H92 H 0.14832 1.24270 0.77330
 H93 H 0.23278 1.24173 0.82532
 H94 H 0.27215 1.20555 0.81451
 H95 H 0.25790 1.14098 0.74470
 C96 C 0.81798 0.77818 0.79057
 C97 C 0.82547 0.78925 0.76058
 C98 C 0.80796 0.81215 0.74566
 C99 C 0.78155 0.82269 0.76149
 C100 C 0.77352 0.81137 0.79143
 C101 C 0.79189 0.78908 0.80604
 C102 C 0.83668 0.75659 0.80538
 C103 C 0.83004 0.74558 0.83591
 C104 C 0.80322 0.75616 0.85085
 C105 C 0.78441 0.77794 0.83627
 C106 C 0.75871 0.78937 0.85186
 C107 C 0.74051 0.81202 0.83781
 C108 C 0.74794 0.82271 0.80744
 H109 H 0.84484 0.77925 0.74881
 H110 H 0.76789 0.84082 0.75154
 H111 H 0.85612 0.74795 0.79254
 H112 H 0.79770 0.74891 0.87455
 H113 H 0.75294 0.78072 0.87507
 H114 H 0.73432 0.84047 0.79660
 C115 C 0.17997 0.76620 1.23079
 C116 C 0.16464 0.77999 1.25525
 C117 C 0.17428 0.80775 1.26540
 C118 C 0.20024 0.82131 1.25124
 C119 C 0.21592 0.80766 1.22676
 C120 C 0.20561 0.78005 1.21637
 C121 C 0.16928 0.73917 1.22005
 C122 C 0.18344 0.72544 1.19450
 C123 C 0.20949 0.73950 1.18052
 C124 C 0.22059 0.76655 1.19126
 C125 C 0.24609 0.78064 1.17688
 C126 C 0.25648 0.80826 1.18695
 C127 C 0.24130 0.82150 1.21205
 H128 H 0.14502 0.76909 1.26638
 H129 H 0.20771 0.84287 1.25865
 H130 H 0.14853 0.73007 1.23064
 H131 H 0.22179 0.72925 1.16166
 H132 H 0.25733 0.77053 1.15724
 H133 H 0.24927 0.84263 1.22015
 C134 C 0.79085 1.24574 1.23662
 C135 C 0.80264 1.23323 1.26440
 C136 C 0.78836 1.20860 1.28002
 C137 C 0.76089 1.19774 1.26745
 C138 C 0.74878 1.21018 1.23972
 C139 C 0.76392 1.23411 1.22409
 C140 C 0.80625 1.26915 1.22068
 C141 C 0.79542 1.28086 1.19204
 C142 C 0.76832 1.26931 1.17978
 C143 C 0.75254 1.24596 1.19556
 C144 C 0.72609 1.23369 1.18287
 C145 C 0.71097 1.20957 1.19820
 C146 C 0.72241 1.19814 1.22674
 H147 H 0.82283 1.24327 1.27391
 H148 H 0.74965 1.17831 1.27787
 H149 H 0.82744 1.27746 1.22998
 H150 H 0.75967 1.27833 1.15781
 H151 H 0.71740 1.24275 1.16094
 H152 H 0.71136 1.17914 1.23838
 O153 O 0.52507 0.96494 0.96467
 O154 O 0.47290 0.97260 1.05819
 O155 O 0.56350 1.00124 1.03157
 O156 O 0.43623 0.99162 0.99582
 O157 O 0.52860 0.97131 1.04954
 O158 O 0.46690 0.97165 0.96021
 O159 O 0.43844 0.98955 1.02616
 O160 O 0.56191 0.99508 0.97712
 C161 C 0.55305 0.96949 0.96935
 C162 C 0.44610 0.97160 1.04838
 C163 C 0.55605 0.97594 1.04273
 C164 C 0.44110 0.97342 0.97348
 O165 O 0.47552 1.02757 0.94120
 O166 O 0.53166 1.02855 1.06454
 O167 O 0.53397 1.05161 0.97050
 O168 O 0.43238 1.04052 1.03618
 O169 O 0.47447 1.03234 1.06565
 O170 O 0.53162 1.01808 0.93833
 O171 O 0.43924 1.03445 0.97599
 O172 O 0.53414 1.05611 1.02391
 Co173 Co 0.49992 0.99645 0.95593
 Co174 Co 0.50203 1.00184 1.05431
 Co175 Co 0.54514 1.02487 1.00097
 Co176 Co 0.45947 1.02314 1.01199
 O177 O 0.50136 1.00844 1.00402
 C178 C 0.44934 1.03748 0.94860
 C179 C 0.53672 1.05366 1.05235
 C180 C 0.53691 1.04451 0.94334
 C181 C 0.44782 1.04444 1.06182
 O182 O 0.05469 0.47110 0.03866
 O183 O 0.04786 0.51427 -0.06982
 O184 O 0.02328 0.42553 -0.03257
 O185 O 0.05739 0.52409 0.02713
 O186 O 0.04633 0.45796 -0.06482
 O187 O 0.03086 0.51284 0.06866
 O188 O 0.06932 0.52224 -0.02672
 O189 O 0.03163 0.43142 0.02361
 C190 C 0.05456 0.44340 0.03591
 C191 C 0.07061 0.52296 -0.05547
 C192 C 0.04308 0.43169 -0.05385
 C193 C 0.05163 0.52967 0.05528
 O194 O -0.01897 0.50980 0.03812
 O195 O -0.01222 0.46016 -0.06861
 O196 O -0.02786 0.45490 0.02676
 O197 O 0.01427 0.54835 -0.04155
 O198 O -0.01222 0.51584 -0.06596
 O199 O 0.00217 0.46186 0.06280
 O200 O 0.00087 0.54732 0.01342
 O201 O -0.03448 0.44830 -0.02554
 Co202 Co 0.01817 0.49129 0.03642
 Co203 Co 0.01734 0.48730 -0.06184
 Co204 Co -0.00029 0.44368 -0.00227
 Co205 Co 0.03374 0.53152 -0.00716
 O206 O 0.01609 0.48713 -0.01062
 C207 C -0.02065 0.53654 0.02969
 C208 C -0.03441 0.44886 -0.05424
 C209 C -0.02235 0.45096 0.05472
 C210 C -0.00869 0.54195 -0.05762
 O211 O 1.05115 0.00505 0.46248
 O212 O 0.92485 0.02214 0.52034
 O213 O 0.96517 0.04655 0.45405
 O214 O 1.00740 0.00729 0.55334
 O215 O 0.92247 0.02471 0.46187
 O216 O 1.03086 0.02455 0.51277
 O217 O 0.95196 -0.00268 0.55561
 O218 O 1.01681 0.03712 0.45779
 C219 C 1.04391 0.03034 0.45255
 C220 C 0.93323 0.01811 0.54805
 C221 C 0.93685 0.04773 0.45431
 C222 C 1.02452 0.02661 0.54072
 O223 O 1.05890 -0.02524 0.51548
 O224 O 0.92612 -0.03275 0.46055
 O225 O 1.00969 -0.01893 0.43258
 O226 O 0.96381 -0.05700 0.53158
 O227 O 0.92138 -0.03544 0.51954
 O228 O 1.02547 -0.04497 0.47325
 O229 O 1.01736 -0.04801 0.53027
 O230 O 0.95523 -0.00713 0.42743
 Co231 Co 1.02625 -0.01044 0.49398
 Co232 Co 0.92909 -0.00535 0.49068
 Co233 Co 0.98643 0.01279 0.44658
 Co234 Co 0.98480 -0.02330 0.53841
 O235 O 0.97975 -0.00543 0.49134
 C236 C 1.04580 -0.04434 0.53465
 C237 C 0.93643 -0.02811 0.43341
 C238 C 1.02108 -0.04285 0.44445
 C239 C 0.93543 -0.05750 0.53100
 C240 C 1.14501 0.19559 0.31507
 C241 C 1.12631 0.17879 0.33565
 C242 C 1.13919 0.15954 0.35848
 C243 C 1.17123 0.15903 0.36180
 C244 C 1.19000 0.17570 0.34121
 C245 C 1.17737 0.19354 0.31665
 C246 C 1.11845 0.14021 0.37790
 C247 C 1.12748 0.11440 0.39202
 C248 C 1.10611 0.09355 0.40885
 C249 C 1.11523 0.06366 0.41410
 C250 C 1.09529 0.04300 0.42873
 C251 C 1.06584 0.05190 0.43832
 C252 C 1.05701 0.08191 0.43391
 C253 C 1.07697 0.10257 0.41963
 H254 H 1.13373 0.20839 0.29664
 H255 H 1.10162 0.17994 0.33286
 H256 H 1.18202 0.14579 0.38023
 H257 H 1.21451 0.17475 0.34504
 H258 H 1.09442 0.14643 0.37815
 H259 H 1.15103 0.10698 0.38936
 H260 H 1.13765 0.05615 0.40637
 H261 H 1.10269 0.02001 0.43203
 H262 H 1.03458 0.08948 0.44156
 H263 H 1.06936 0.12551 0.41734
 C264 C 0.86585 -0.18693 0.27846
 C265 C 0.87868 -0.17217 0.30327
 C266 C 0.87304 -0.14173 0.30701
 C267 C 0.85374 -0.12640 0.28585
 C268 C 0.84065 -0.14107 0.26133
 C269 C 0.84628 -0.17172 0.25706
 C270 C 0.88643 -0.12663 0.33370
 C271 C 0.89383 -0.09763 0.33215
 C272 C 0.90573 -0.08135 0.35873
 C273 C 0.92350 -0.05579 0.35255
 C274 C 0.93370 -0.03873 0.37681
 C275 C 0.92589 -0.04656 0.40785
 C276 C 0.90809 -0.07218 0.41411
 C277 C 0.89813 -0.08945 0.38981
 H278 H 0.87034 -0.21058 0.27711
 H279 H 0.89312 -0.18459 0.31959
 H280 H 0.84832 -0.10303 0.28837
 H281 H 0.82697 -0.12773 0.24516
 H282 H 0.89116 -0.13999 0.35463
 H283 H 0.89197 -0.08523 0.31012
 H284 H 0.92945 -0.04895 0.32881
 H285 H 0.94741 -0.01917 0.37117
 H286 H 0.90172 -0.07881 0.43779
 H287 H 0.88381 -0.10858 0.39538
 C288 C 0.80805 0.16223 0.68438
 C289 C 0.82095 0.14498 0.66120
 C290 C 0.85144 0.13478 0.66327
 C291 C 0.86924 0.14330 0.68855
 C292 C 0.85630 0.16066 0.71176
 C293 C 0.82543 0.16993 0.71015
 C294 C 0.86361 0.11574 0.63841
 C295 C 0.88783 0.09723 0.64190
 C296 C 0.89889 0.07721 0.61733
 C297 C 0.91753 0.05262 0.62590
 C298 C 0.92848 0.03322 0.60354
 C299 C 0.92106 0.03803 0.57203
 C300 C 0.90270 0.06281 0.56337
 C301 C 0.89191 0.08228 0.58566
 H302 H 0.78437 0.16948 0.68220
 H303 H 0.80684 0.13915 0.64180
 H304 H 0.89311 0.13678 0.69054
 H305 H 0.87025 0.16622 0.73136
 H306 H 0.85063 0.11577 0.61713
 H307 H 0.89914 0.09528 0.66415
 H308 H 0.92354 0.04832 0.65003
 H309 H 0.94282 0.01451 0.61095
 H310 H 0.89699 0.06747 0.53921
 H311 H 0.87865 0.10148 0.57771
 C312 C 1.19492 -0.14632 0.69362
 C313 C 1.18147 -0.13093 0.66837
 C314 C 1.15074 -0.13567 0.66084
 C315 C 1.13381 -0.15679 0.67886
 C316 C 1.14724 -0.17230 0.70415
 C317 C 1.17792 -0.16687 0.71261
 C318 C 1.13687 -0.11667 0.63557
 C319 C 1.11102 -0.12352 0.62084
 C320 C 1.09559 -0.10319 0.59772
 C321 C 1.06422 -0.10740 0.59241
 C322 C 1.04823 -0.08838 0.57179
 C323 C 1.06333 -0.06479 0.55569
 C324 C 1.09489 -0.06088 0.56028
 C325 C 1.11094 -0.07993 0.58105
 H326 H 1.21897 -0.14225 0.69765
 H327 H 1.19517 -0.11501 0.65475
 H328 H 1.10976 -0.16056 0.67456
 H329 H 1.13259 -0.18700 0.71815
 H330 H 1.14835 -0.09589 0.62962
 H331 H 1.09963 -0.14436 0.62674
 H332 H 1.05185 -0.12522 0.60470
 H333 H 1.02394 -0.09211 0.56858
 H334 H 1.10712 -0.04301 0.54798
 H335 H 1.13530 -0.07643 0.58365
 C336 C 0.30856 1.14844 1.21821
 C337 C 0.32916 1.12937 1.20379
 C338 C 0.35115 1.14053 1.18253
 C339 C 0.35296 1.17149 1.17669
 C340 C 0.33210 1.19074 1.19092
 C341 C 0.30893 1.17954 1.21145
 C342 C 0.36872 1.11900 1.16411
 C343 C 0.39564 1.12483 1.14984
 C344 C 0.40921 1.10366 1.12799
 C345 C 0.44112 1.09904 1.12669
 C346 C 0.45388 1.07915 1.10570
 C347 C 0.43489 1.06431 1.08519
 C348 C 0.40306 1.06931 1.08630
 C349 C 0.39035 1.08869 1.10750
 H350 H 0.29089 1.13806 1.23272
 H351 H 0.32708 1.10554 1.20837
 H352 H 0.36946 1.18083 1.16008
 H353 H 0.33440 1.21439 1.18568
 H354 H 0.35853 1.09723 1.16175
 H355 H 0.40790 1.14514 1.15414
 H356 H 0.45607 1.11062 1.14207
 H357 H 0.47856 1.07585 1.10504
 H358 H 0.38790 1.05821 1.07073
 H359 H 0.36574 1.09242 1.10739
 C360 C 0.30800 0.85559 0.83083
 C361 C 0.32988 0.87065 0.84764
 C362 C 0.32658 0.87315 0.87994
 C363 C 0.30110 0.85993 0.89527
 C364 C 0.27930 0.84476 0.87849
 C365 C 0.28257 0.84240 0.84613
 C366 C 0.35070 0.88868 0.89684
 C367 C 0.34596 0.90134 0.92424
 C368 C 0.37043 0.91785 0.93955
 C369 C 0.36266 0.94289 0.95661
 C370 C 0.38566 0.96048 0.96878
 C371 C 0.41674 0.95292 0.96453
 C372 C 0.42440 0.92694 0.94894
 C373 C 0.40149 0.90948 0.93670
 H374 H 0.31127 0.85377 0.80597
 H375 H 0.34946 0.88041 0.83535
 H376 H 0.29819 0.86069 0.92024
 H377 H 0.25981 0.83491 0.89082
 H378 H 0.37283 0.89116 0.88526
 H379 H 0.32316 0.90180 0.93452
 H380 H 0.33885 0.94959 0.95931
 H381 H 0.37919 0.98068 0.98024
 H382 H 0.44819 0.92044 0.94561
 H383 H 0.40817 0.88966 0.92467
 C384 C 0.70200 0.83682 1.15987
 C385 C 0.67654 0.85141 1.14687
 C386 C 0.67304 0.85369 1.11458
 C387 C 0.69453 0.83952 1.09543
 C388 C 0.71975 0.82427 1.10843
 C389 C 0.72449 0.82342 1.14091
 C390 C 0.64698 0.87136 1.10182
 C391 C 0.64928 0.88835 1.07557
 C392 C 0.62485 0.90969 1.06575
 C393 C 0.63316 0.93684 1.05082
 C394 C 0.61084 0.95840 1.04333
 C395 C 0.57966 0.95292 1.05000
 C396 C 0.57123 0.92523 1.06384
 C397 C 0.59359 0.90384 1.07170
 H398 H 0.70353 0.83560 1.18499
 H399 H 0.65991 0.86167 1.16213
 H400 H 0.69199 0.84038 1.07040
 H401 H 0.73636 0.81480 1.09265
 H402 H 0.62661 0.87309 1.11638
 H403 H 0.67089 0.88910 1.06279
 H404 H 0.65709 0.94174 1.04578
 H405 H 0.61803 0.97946 1.03255
 H406 H 0.54735 0.92019 1.06892
 H407 H 0.58636 0.88277 1.08239
 C408 C 0.69009 1.18973 0.85422
 C409 C 0.66380 1.17728 0.86804
 C410 C 0.64326 1.16100 0.85069
 C411 C 0.64877 1.15866 0.81860
 C412 C 0.67517 1.17111 0.80464
 C413 C 0.69675 1.18647 0.82228
 C414 C 0.61732 1.14611 0.86751
 C415 C 0.60214 1.12267 0.85699
 C416 C 0.58122 1.10423 0.87715
 C417 C 0.57728 1.07413 0.87046
 C418 C 0.56149 1.05488 0.89128
 C419 C 0.54941 1.06543 0.91921
 C420 C 0.55139 1.09593 0.92490
 C421 C 0.56684 1.11523 0.90393
 H422 H 0.70595 1.20023 0.86946
 H423 H 0.66015 1.17946 0.89282
 H424 H 0.63284 1.14735 0.80408
 H425 H 0.67803 1.16915 0.77979
 H426 H 0.61316 1.15277 0.89109
 H427 H 0.60793 1.11433 0.83440
 H428 H 0.58771 1.06515 0.84980
 H429 H 0.56002 1.03148 0.88622
 H430 H 0.54167 1.10473 0.94598
 H431 H 0.56797 1.13855 0.90923
 C432 C 0.18297 0.32786 0.19728
 C433 C 0.16937 0.34985 0.17795
 C434 C 0.16991 0.34752 0.14549
 C435 C 0.18568 0.32332 0.13266
 C436 C 0.19927 0.30132 0.15199
 C437 C 0.19769 0.30309 0.18455
 C438 C 0.15337 0.37041 0.12607
 C439 C 0.14266 0.36534 0.09761
 C440 C 0.12239 0.38657 0.08006
 C441 C 0.10196 0.37521 0.05855
 C442 C 0.08065 0.39389 0.04337
 C443 C 0.07954 0.42448 0.04909
 C444 C 0.10111 0.43623 0.06928
 C445 C 0.12236 0.41747 0.08463
 H446 H 0.18183 0.33016 0.22224
 H447 H 0.15774 0.36843 0.18847
 H448 H 0.18756 0.32116 0.10775
 H449 H 0.21032 0.28248 0.14141
 H450 H 0.14743 0.39106 0.13691
 H451 H 0.14613 0.34368 0.08792
 H452 H 0.10177 0.35158 0.05426
 H453 H 0.06454 0.38422 0.02768
 H454 H 0.10097 0.45977 0.07395
 H455 H 0.13848 0.42724 0.10017
 C456 C -0.16831 0.28184 -0.13450
 C457 C -0.15335 0.30334 -0.11781
 C458 C -0.13808 0.32708 -0.13331
 C459 C -0.13731 0.32840 -0.16612
 C460 C -0.15216 0.30668 -0.18287
 C461 C -0.16808 0.28338 -0.16720
 C462 C -0.12223 0.34901 -0.11432
 C463 C -0.11538 0.37686 -0.12441
 C464 C -0.09767 0.39753 -0.10556
 C465 C -0.07870 0.41862 -0.12097
 C466 C -0.05920 0.43640 -0.10415
 C467 C -0.05859 0.43374 -0.07148
 C468 C -0.07914 0.41412 -0.05592
 C469 C -0.09852 0.39617 -0.07278
 H470 H -0.17994 0.26382 -0.12181
 H471 H -0.15391 0.30153 -0.09261
 H472 H -0.12491 0.34577 -0.17896
 H473 H -0.15158 0.30832 -0.20807
 H474 H -0.11596 0.34159 -0.09098
 H475 H -0.12130 0.38439 -0.14779
 H476 H -0.07797 0.42042 -0.14617
 H477 H -0.04381 0.45151 -0.11681
 H478 H -0.07938 0.41177 -0.03075
 H479 H -0.11378 0.38102 -0.06008
 C480 C 0.17242 0.71222 -0.13069
 C481 C 0.16212 0.68609 -0.11555
 C482 C 0.15830 0.65999 -0.13193
 C483 C 0.16431 0.66085 -0.16426
 C484 C 0.17459 0.68719 -0.17949
 C485 C 0.17911 0.71300 -0.16272
 C486 C 0.14693 0.63316 -0.11422
 C487 C 0.14684 0.60540 -0.12473
 C488 C 0.13229 0.58054 -0.10647
 C489 C 0.11524 0.55949 -0.12204
 C490 C 0.09682 0.53902 -0.10525
 C491 C 0.09553 0.53898 -0.07256
 C492 C 0.11502 0.55805 -0.05693
 C493 C 0.13323 0.57870 -0.07374
 H494 H 0.17516 0.73193 -0.11726
 H495 H 0.15728 0.68627 -0.09078
 H496 H 0.16095 0.64153 -0.17800
 H497 H 0.17959 0.68724 -0.20422
 H498 H 0.13751 0.63678 -0.09123
 H499 H 0.15508 0.60104 -0.14793
 H500 H 0.11457 0.56018 -0.14723
 H501 H 0.08226 0.52436 -0.11792
 H502 H 0.11474 0.55836 -0.03176
 H503 H 0.14712 0.59393 -0.06109
 C504 C -0.11476 0.71585 0.13147
 C505 C -0.09927 0.69352 0.11572
 C506 C -0.11521 0.66910 0.10459
 C507 C -0.14721 0.66756 0.10942
 C508 C -0.16277 0.69006 0.12504
 C509 C -0.14671 0.71447 0.13618
 C510 C -0.09771 0.64670 0.08696
 C511 C -0.10684 0.61854 0.08330
 C512 C -0.08740 0.59681 0.06676
 C513 C -0.08736 0.56664 0.07676
 C514 C -0.06672 0.54641 0.06366
 C515 C -0.04600 0.55605 0.04010
 C516 C -0.04765 0.58577 0.02862
 C517 C -0.06816 0.60590 0.04171
 H518 H -0.10182 0.73459 0.13932
 H519 H -0.07467 0.69541 0.11209
 H520 H -0.16042 0.64948 0.10059
 H521 H -0.18740 0.68839 0.12840
 H522 H -0.07534 0.65345 0.07801
 H523 H -0.12763 0.61045 0.09470
 H524 H -0.10232 0.55901 0.09571
 H525 H -0.06606 0.52361 0.07288
 H526 H -0.03232 0.59378 0.01015
 H527 H -0.06849 0.62871 0.03254
 C528 C 1.11934 0.15982 0.70708
 C529 C 1.09919 0.14577 0.68746
 C530 C 1.11031 0.12972 0.66243
 C531 C 1.14224 0.12762 0.65758
 C532 C 1.16254 0.14151 0.67733
 C533 C 1.15154 0.15799 0.70253
 C534 C 1.08803 0.11397 0.64325
 C535 C 1.09381 0.10666 0.61382
 C536 C 1.07268 0.08877 0.59533
 C537 C 1.07667 0.08905 0.56289
 C538 C 1.05970 0.07001 0.54486
 C539 C 1.03849 0.05010 0.55897
 C540 C 1.03350 0.05065 0.59126
 C541 C 1.05049 0.06967 0.60931
 H542 H 1.10930 0.17078 0.72675
 H543 H 1.07471 0.14722 0.69210
 H544 H 1.15176 0.11477 0.63897
 H545 H 1.18683 0.13985 0.67202
 H546 H 1.06583 0.10903 0.65373
 H547 H 1.11486 0.11420 0.60248
 H548 H 1.09363 0.10344 0.55153
 H549 H 1.06412 0.07005 0.52001
 H550 H 1.01745 0.03541 0.60279
 H551 H 1.04714 0.06814 0.63426
 C552 C 0.79628 -0.16093 0.69562
 C553 C 0.80607 -0.14812 0.66701
 C554 C 0.83699 -0.14959 0.65775
 C555 C 0.85812 -0.16376 0.67788
 C556 C 0.84852 -0.17639 0.70645
 C557 C 0.81734 -0.17536 0.71610
 C558 C 0.84718 -0.13383 0.62853
 C559 C 0.87250 -0.14179 0.61265
 C560 C 0.88698 -0.12275 0.58771
 C561 C 0.91874 -0.12572 0.58249
 C562 C 0.93435 -0.10551 0.56259
 C563 C 0.91842 -0.08204 0.54724
 C564 C 0.88627 -0.08046 0.55053
 C565 C 0.87066 -0.10063 0.57054
 H566 H 0.77197 -0.16005 0.70099
 H567 H 0.78936 -0.13705 0.65199
 H568 H 0.88244 -0.16401 0.67236
 H569 H 0.86629 -0.18537 0.72153
 H570 H 0.83418 -0.11422 0.62120
 H571 H 0.88494 -0.16173 0.62011
 H572 H 0.93181 -0.14278 0.59512
 H573 H 0.95910 -0.10745 0.56038
 H574 H 0.87330 -0.06284 0.53869
 H575 H 0.84602 -0.09833 0.57295
 C576 C 1.17149 -0.16202 0.31345
 C577 C 1.15452 -0.14800 0.33661
 C578 C 1.12226 -0.14863 0.33683
 C579 C 1.10728 -0.16422 0.31371
 C580 C 1.12422 -0.17813 0.29055
 C581 C 1.15651 -0.17720 0.29010
 C582 C 1.10518 -0.13299 0.36153
 C583 C 1.07594 -0.12364 0.35863
 C584 C 1.06006 -0.10540 0.38198
 C585 C 1.03706 -0.08535 0.37189
 C586 C 1.02338 -0.06586 0.39256
 C587 C 1.03211 -0.06638 0.42391
 C588 C 1.05369 -0.08775 0.43452
 C589 C 1.06760 -0.10709 0.41375
 H590 H 1.19634 -0.16127 0.31403
 H591 H 1.16667 -0.13641 0.35430
 H592 H 1.08254 -0.16608 0.31347
 H593 H 1.11194 -0.18943 0.27276
 H594 H 1.11799 -0.12712 0.38180
 H595 H 1.06393 -0.12690 0.33717
 H596 H 1.03049 -0.08393 0.34765
 H597 H 1.00659 -0.04981 0.38379
 H598 H 1.06072 -0.08876 0.45862
 H599 H 1.08443 -0.12303 0.42256
 C600 C 0.78425 0.17731 0.32859
 C601 C 0.79812 0.16121 0.35316
 C602 C 0.83002 0.16174 0.35697
 C603 C 0.84783 0.17924 0.33593
 C604 C 0.83407 0.19532 0.31131
 C605 C 0.80198 0.19428 0.30665
 C606 C 0.84401 0.14148 0.38099
 C607 C 0.87228 0.14511 0.39238
 C608 C 0.88816 0.12197 0.41198
 C609 C 0.92043 0.12145 0.41188
 C610 C 0.93643 0.09800 0.42686
 C611 C 0.92041 0.07464 0.44233
 C612 C 0.88820 0.07617 0.44421
 C613 C 0.87221 0.09966 0.42937
 H614 H 0.75947 0.17661 0.32735
 H615 H 0.78383 0.14796 0.36911
 H616 H 0.87262 0.17943 0.33726
 H617 H 0.84927 0.20678 0.29485
 H618 H 0.83075 0.12206 0.38815
 H619 H 0.88540 0.16463 0.38522
 H620 H 0.93331 0.13854 0.39903
 H621 H 0.96128 0.09755 0.42521
 H622 H 0.87526 0.05876 0.45651
 H623 H 0.84743 0.09989 0.43127
 C624 C 0.19579 0.28912 -0.16514
 C625 C 0.18344 0.31167 -0.14709
 C626 C 0.15170 0.31363 -0.14169
 C627 C 0.13239 0.29297 -0.15518
 C628 C 0.14456 0.27066 -0.17339
 C629 C 0.17654 0.26825 -0.17895
 C630 C 0.13902 0.33835 -0.12356
 C631 C 0.11259 0.33592 -0.10731
 C632 C 0.09728 0.36114 -0.09207
 C633 C 0.07549 0.35490 -0.06844
 C634 C 0.05839 0.37786 -0.05547
 C635 C 0.06249 0.40757 -0.06616
 C636 C 0.08470 0.41389 -0.08945
 C637 C 0.10188 0.39094 -0.10234
 H638 H 0.22035 0.28911 -0.16928
 H639 H 0.19875 0.32771 -0.13737
 H640 H 0.10770 0.29422 -0.15221
 H641 H 0.12858 0.25473 -0.18212
 H642 H 0.15204 0.35880 -0.12345
 H643 H 0.10143 0.31444 -0.10497
 H644 H 0.07135 0.33211 -0.06030
 H645 H 0.04151 0.37224 -0.03751
 H646 H 0.08837 0.43655 -0.09825
 H647 H 0.11781 0.39661 -0.12110
 C648 C -0.18192 0.30181 0.14201
 C649 C -0.16317 0.32220 0.12553
 C650 C -0.14830 0.34501 0.14083
 C651 C -0.15346 0.34762 0.17299
 C652 C -0.17225 0.32719 0.18949
 C653 C -0.18643 0.30387 0.17424
 C654 C -0.12821 0.36564 0.12215
 C655 C -0.10633 0.38269 0.13406
 C656 C -0.08569 0.40188 0.11425
 C657 C -0.05653 0.40931 0.12526
 C658 C -0.03596 0.42600 0.10637
 C659 C -0.04431 0.43556 0.07616
 C660 C -0.07389 0.42919 0.06567
 C661 C -0.09443 0.41281 0.08454
 H662 H -0.19218 0.28392 0.12962
 H663 H -0.15982 0.31978 0.10075
 H664 H -0.14333 0.36545 0.18550
 H665 H -0.17576 0.32967 0.21423
 H666 H -0.13051 0.36521 0.09715
 H667 H -0.10185 0.38121 0.15876
 H668 H -0.04937 0.40153 0.14823
 H669 H -0.01333 0.43074 0.11504
 H670 H -0.08114 0.43670 0.04265
 H671 H -0.11712 0.40885 0.07565
 C672 C -0.11809 0.72460 -0.15614
 C673 C -0.09823 0.70408 -0.14157
 C674 C -0.10940 0.68284 -0.11971
 C675 C -0.14077 0.68318 -0.11165
 C676 C -0.16070 0.70399 -0.12588
 C677 C -0.14984 0.72485 -0.14884
 C678 C -0.08763 0.66088 -0.10577
 C679 C -0.09578 0.63302 -0.09715
 C680 C -0.07324 0.61018 -0.08641
 C681 C -0.07875 0.58021 -0.09235
 C682 C -0.05759 0.55810 -0.08336
 C683 C -0.03062 0.56551 -0.06784
 C684 C -0.02542 0.59546 -0.06124
 C685 C -0.04652 0.61760 -0.07041
 H686 H -0.10802 0.74093 -0.17231
 H687 H -0.07402 0.70460 -0.14773
 H688 H -0.14998 0.66746 -0.09429
 H689 H -0.18482 0.70264 -0.11969
 H690 H -0.06364 0.66709 -0.10535
 H691 H -0.11916 0.62587 -0.10065
 H692 H -0.09930 0.57394 -0.10440
 H693 H -0.06244 0.53517 -0.08842
 H694 H -0.00510 0.60179 -0.04887
 H695 H -0.04204 0.64039 -0.06459
 C696 C 0.15285 0.67938 0.20166
 C697 C 0.13787 0.65519 0.18931
 C698 C 0.14061 0.64942 0.15766
 C699 C 0.15928 0.66814 0.13858
 C700 C 0.17431 0.69241 0.15086
 C701 C 0.17081 0.69906 0.18257
 C702 C 0.12190 0.62521 0.14512
 C703 C 0.12902 0.61159 0.11875
 C704 C 0.10911 0.58947 0.10406
 C705 C 0.11517 0.58311 0.07290
 C706 C 0.09663 0.56350 0.05732
 C707 C 0.07158 0.54955 0.07258
 C708 C 0.06575 0.55522 0.10397
 C709 C 0.08437 0.57493 0.11965
 H710 H 0.15053 0.68211 0.22644
 H711 H 0.12385 0.64098 0.20460
 H712 H 0.16125 0.66510 0.11381
 H713 H 0.18687 0.70697 0.13470
 H714 H 0.10135 0.61906 0.15812
 H715 H 0.15002 0.61763 0.10641
 H716 H 0.13410 0.59376 0.06032
 H717 H 0.10186 0.55944 0.03317
 H718 H 0.04670 0.54458 0.11633
 H719 H 0.07923 0.57844 0.14387
 C720 C 0.32341 1.17224 0.79834
 C721 C 0.34875 1.15757 0.81177
 C722 C 0.34827 1.12661 0.81768
 C723 C 0.32303 1.11028 0.80763
 C724 C 0.29779 1.12489 0.79413
 C725 C 0.29729 1.15612 0.79020
 C726 C 0.37312 1.11220 0.83627
 C727 C 0.36699 1.09006 0.85719
 C728 C 0.38936 1.07774 0.87999
 C729 C 0.37787 1.06617 0.90849
 C730 C 0.39759 1.05380 0.93079
 C731 C 0.42937 1.05217 0.92494
 C732 C 0.44106 1.06348 0.89626
 C733 C 0.42121 1.07640 0.87397
 H734 H 0.32389 1.19628 0.79509
 H735 H 0.36810 1.17058 0.81896
 H736 H 0.32238 1.08625 0.81097
 H737 H 0.27805 1.11181 0.78819
 H738 H 0.39569 1.12224 0.83542
 H739 H 0.34351 1.08244 0.85999
 H740 H 0.35344 1.06677 0.91361
 H741 H 0.38778 1.04491 0.95245
 H742 H 0.46545 1.06229 0.89108
 H743 H 0.43067 1.08464 0.85192
 C744 C 0.30898 0.80808 1.16153
 C745 C 0.33333 0.82294 1.14614
 C746 C 0.33157 0.85372 1.13912
 C747 C 0.30524 0.86951 1.14862
 C748 C 0.28102 0.85471 1.16409
 C749 C 0.28252 0.82382 1.17066
 C750 C 0.35774 0.86895 1.12280
 C751 C 0.35387 0.89354 1.10441
 C752 C 0.37905 0.91074 1.08860
 C753 C 0.37096 0.93219 1.06549
 C754 C 0.39299 0.95110 1.05183
 C755 C 0.42389 0.94905 1.06076
 C756 C 0.43233 0.92714 1.08338
 C757 C 0.41015 0.90815 1.09723
 H758 H 0.31099 0.78433 1.16664
 H759 H 0.35349 0.81031 1.13946
 H760 H 0.30340 0.89340 1.14460
 H761 H 0.26092 0.86747 1.17066
 H762 H 0.38029 0.85893 1.12522
 H763 H 0.33072 0.90154 1.10014
 H764 H 0.34724 0.93491 1.05850
 H765 H 0.38551 0.96817 1.03511
 H766 H 0.45591 0.92525 1.09102
 H767 H 0.41735 0.89238 1.11538
 C768 C 0.65924 1.18492 1.20211
 C769 C 0.63546 1.16903 1.18894
 C770 C 0.63597 1.16314 1.15713
 C771 C 0.66078 1.17382 1.13862
 C772 C 0.68456 1.18969 1.15180
 C773 C 0.68429 1.19510 1.18377
 C774 C 0.61177 1.14382 1.14470
 C775 C 0.60484 1.14333 1.11439
 C776 C 0.58366 1.12157 1.10086
 C777 C 0.57407 1.12682 1.07006
 C778 C 0.55745 1.10536 1.05480
 C779 C 0.55007 1.07801 1.06999
 C780 C 0.55835 1.07320 1.10126
 C781 C 0.57510 1.09465 1.11653
 H782 H 0.65819 1.18897 1.22675
 H783 H 0.61677 1.16095 1.20378
 H784 H 0.66271 1.16894 1.11425
 H785 H 0.70383 1.19666 1.13716
 H786 H 0.59938 1.12965 1.16138
 H787 H 0.61539 1.15947 1.09832
 H788 H 0.58033 1.14725 1.05736
 H789 H 0.55136 1.10976 1.03070
 H790 H 0.55309 1.05229 1.11352
 H791 H 0.58241 1.08927 1.14001
 C792 C 0.68674 0.83272 0.84047
 C793 C 0.66281 0.84632 0.85676
 C794 C 0.66615 0.85304 0.88815
 C795 C 0.69355 0.84473 0.90331
 C796 C 0.71747 0.83116 0.88702
 C797 C 0.71449 0.82529 0.85533
 C798 C 0.64084 0.86905 0.90398
 C799 C 0.64526 0.88619 0.92840
 C800 C 0.62097 0.90561 0.94129
 C801 C 0.62976 0.93203 0.95500
 C802 C 0.60765 0.95235 0.96491
 C803 C 0.57619 0.94643 0.96191
 C804 C 0.56734 0.91919 0.94979
 C805 C 0.58950 0.89895 0.93954
 H806 H 0.68353 0.82800 0.81623
 H807 H 0.64183 0.85216 0.84461
 H808 H 0.69670 0.84860 0.92772
 H809 H 0.73859 0.82583 0.89914
 H810 H 0.61847 0.86887 0.89326
 H811 H 0.66821 0.88872 0.93729
 H812 H 0.65384 0.93753 0.95695
 H813 H 0.61528 0.97311 0.97414
 H814 H 0.54327 0.91384 0.94744
 H815 H 0.58192 0.87831 0.93007
   
