data_POSCAR
  _audit_creation_date              2014-09-24
  _audit_creation_method            'ToBaCCo'
  _symmetry_space_group_name_H-M    'P1'
  _symmetry_Int_Tables_number       1
  _symmetry_cell_setting            triclinic
  loop_
  _symmetry_equiv_pos_as_xyz
 x,y,z
_cell_length_a 25.1726
_cell_length_b 25.1975
_cell_length_c 25.1583
_cell_angle_alpha 89.975600
_cell_angle_beta 89.853500
_cell_angle_gamma 90.060800
loop_
  _atom_site_label
  _atom_site_type_symbol
  _atom_site_fract_x
  _atom_site_fract_y
  _atom_site_fract_z
C1 C 0.52881 1.02841 -0.66136
 C2 C 0.47442 1.02934 -0.66196
 C3 C 0.45746 1.00973 -0.61320
 N4 N 0.49987 0.99812 -0.58240
 C5 C 0.54346 1.00974 -0.61174
 C6 C 0.40371 1.00120 -0.59825
 C7 C 0.38908 0.99072 -0.54468
 C8 C 0.34120 0.96831 -0.52868
 C9 C 0.34111 0.96780 -0.47413
 C10 C 0.38941 0.98874 -0.45808
 N11 N 0.41846 1.00260 -0.50127
 C12 C 0.40361 0.99892 -0.40479
 C13 C 0.45630 1.00891 -0.38872
 C14 C 0.47097 1.02723 -0.33898
 C15 C 0.52536 1.02820 -0.33837
 C16 C 0.54230 1.00895 -0.38725
 N17 N 0.49987 0.99753 -0.41812
 C18 C 0.59604 1.00061 -0.40226
 C19 C 0.61066 0.99051 -0.45590
 C20 C 0.65851 0.96827 -0.47203
 C21 C 0.65860 0.96814 -0.52658
 C22 C 0.61032 0.98913 -0.54251
 N23 N 0.58128 1.00267 -0.49924
 C24 C 0.59613 0.99965 -0.59574
 H25 H 0.55446 1.04024 -0.69383
 H26 H 0.45027 1.04298 -0.69473
 H27 H 0.54625 1.02455 -0.49949
 H28 H 0.30933 0.95399 -0.55367
 H29 H 0.30882 0.95391 -0.44932
 H30 H 0.44534 1.03882 -0.30643
 H31 H 0.54953 1.04163 -0.30551
 H32 H 0.69088 0.95445 -0.55148
 H33 H 0.45351 1.02452 -0.50088
 H34 H 0.69037 0.95383 -0.44713
 C35 C -0.65855 1.52721 0.03446
 C36 C -0.65846 1.47290 0.03441
 C37 C -0.61176 1.45724 0.00965
 N38 N -0.58285 1.50031 -0.00476
 C39 C -0.61181 1.54316 0.00990
 C40 C -0.59696 1.40391 -0.00054
 C41 C -0.54335 1.39024 -0.01133
 C42 C -0.52671 1.34391 -0.03615
 C43 C -0.47215 1.34413 -0.03532
 C44 C -0.45687 1.39092 -0.01078
 N45 N -0.50044 1.41904 0.00340
 C46 C -0.40377 1.40499 0.00059
 C47 C -0.38818 1.45760 0.01166
 C48 C -0.33798 1.47297 0.02813
 C49 C -0.33791 1.52741 0.02902
 C50 C -0.38827 1.54337 0.01360
 N51 N -0.41880 1.50065 0.00277
 C52 C -0.40383 1.59632 0.00443
 C53 C -0.45676 1.61080 -0.00732
 C54 C -0.47199 1.65890 -0.02925
 C55 C -0.52648 1.65865 -0.03134
 C56 C -0.54334 1.61103 -0.00916
 N57 N -0.50049 1.58181 0.00478
 C58 C -0.59709 1.59665 0.00030
 H59 H -0.68913 1.55213 0.05154
 H60 H -0.68898 1.44782 0.05148
 H61 H -0.50129 1.54681 0.02678
 H62 H -0.55131 1.31297 -0.05299
 H63 H -0.44661 1.31334 -0.05104
 H64 H -0.30454 1.44769 0.03747
 H65 H -0.30424 1.55224 0.03879
 H66 H -0.55085 1.69033 -0.04699
 H67 H -0.50105 1.45296 0.02705
 H68 H -0.44673 1.69111 -0.04235
 C69 C 0.03492 0.52941 0.34192
 C70 C 0.03677 0.47503 0.34115
 C71 C 0.01360 0.45771 0.38821
 N72 N -0.00114 0.49970 0.41820
 C73 C 0.01167 0.54344 0.38980
 C74 C 0.00363 0.40416 0.40218
 C75 C -0.00896 0.39012 0.45536
 C76 C -0.03665 0.34488 0.47045
 C77 C -0.03832 0.34468 0.52500
 C78 C -0.01147 0.38971 0.54191
 N79 N 0.00542 0.41780 0.49918
 C80 C -0.00098 0.40281 0.59567
 C81 C 0.01005 0.45584 0.61066
 C82 C 0.03574 0.47105 0.65690
 C83 C 0.03569 0.52539 0.65758
 C84 C 0.00985 0.54169 0.61178
 N85 N -0.00516 0.49907 0.58268
 C86 C -0.00092 0.59510 0.59785
 C87 C -0.01305 0.60896 0.54463
 C88 C -0.03878 0.65501 0.52870
 C89 C -0.03871 0.65511 0.47406
 C90 C -0.01359 0.60884 0.45818
 N91 N 0.00142 0.58063 0.50133
 C92 C -0.00117 0.59561 0.40514
 H93 H 0.04915 0.55563 0.31091
 H94 H 0.05323 0.45107 0.30947
 H95 H 0.02559 0.54707 0.50119
 H96 H -0.05424 0.31526 0.44479
 H97 H -0.05733 0.31480 0.54943
 H98 H 0.05331 0.44562 0.68673
 H99 H 0.05333 0.55006 0.68800
 H100 H -0.05491 0.68592 0.44890
 H101 H 0.03005 0.45109 0.50005
 H102 H -0.05553 0.68561 0.55381
 O103 O -0.13646 1.00184 -0.07219
 O104 O 0.13673 0.99852 -0.07208
 O105 O -0.00159 1.07103 -0.13726
 O106 O 0.00154 0.92743 -0.13653
 O107 O 0.00156 0.86303 -0.07144
 O108 O -0.00131 1.13601 -0.07278
 O109 O 0.07205 0.99659 -0.13688
 O110 O -0.07161 1.00101 -0.13698
 Zr111 Zr 0.00008 0.99940 -0.09367
 O112 O 0.04810 0.95142 -0.04820
 O113 O -0.04806 1.04794 -0.04871
 C114 C -0.12081 1.00220 -0.12141
 C115 C 0.12114 0.99670 -0.12119
 C116 C -0.00228 1.12024 -0.12191
 C117 C 0.00237 0.87837 -0.12074
 H118 H 0.07076 1.07008 -0.07130
 O119 O 0.04803 1.04754 -0.04847
 H120 H -0.07078 0.92903 -0.07052
 O121 O -0.04810 0.95177 -0.04796
 O122 O 0.13627 1.00198 0.07164
 O123 O -0.13699 0.99933 0.07156
 O124 O 0.07209 1.13630 0.00102
 O125 O 0.07143 0.86329 -0.00115
 O126 O -0.07236 0.86357 0.00315
 O127 O -0.07166 1.13654 -0.00269
 O128 O 0.00131 1.07208 0.13620
 O129 O -0.00237 0.92863 0.13682
 O130 O 0.00212 1.13658 0.07119
 O131 O -0.00245 0.86369 0.07238
 O132 O 0.13666 1.07153 0.00114
 O133 O -0.13649 1.07189 -0.00243
 O134 O -0.13699 0.92843 0.00125
 O135 O 0.13630 0.92792 -0.00193
 O136 O 0.07140 1.00203 0.13645
 O137 O -0.07233 0.99780 0.13639
 Zr138 Zr 0.09327 0.99981 -0.00025
 Zr139 Zr -0.09350 1.00010 -0.00028
 Zr140 Zr 0.00012 1.09322 -0.00062
 Zr141 Zr -0.00034 0.90654 0.00028
 Zr142 Zr -0.00035 1.00019 0.09321
 O143 O -0.04860 0.95202 0.04819
 O144 O 0.04808 1.04817 0.04780
 C145 C 0.12062 1.00289 0.12086
 C146 C -0.12141 0.99782 0.12069
 C147 C 0.12124 1.12069 0.00180
 C148 C 0.12065 0.87878 -0.00226
 C149 C -0.12145 0.87936 0.00314
 C150 C -0.12088 1.12101 -0.00346
 C151 C 0.00263 1.12116 0.12047
 C152 C -0.00341 0.87944 0.12151
 H153 H -0.07071 1.07088 0.07019
 O154 O -0.04807 1.04809 0.04758
 H155 H 0.07025 0.92950 0.07080
 O156 O 0.04767 0.95207 0.04800
 C157 C 0.28358 1.00323 0.28319
 C158 C 0.27670 1.03107 0.33108
 C159 C 0.31612 1.03029 0.37007
 C160 C 0.36362 1.00179 0.36214
 C161 C 0.37013 0.97366 0.31417
 C162 C 0.33068 0.97442 0.27526
 C163 C 0.24174 1.00404 0.24169
 C164 C 0.25550 1.00760 0.18764
 C165 C 0.21625 1.00758 0.14850
 C166 C 0.16222 1.00403 0.16248
 C167 C 0.14845 1.00092 0.21662
 C168 C 0.18776 1.00090 0.25574
 H169 H 0.31000 1.05316 0.40602
 H170 H 0.40533 0.94992 0.30723
 H171 H 0.22835 1.01035 0.10725
 H172 H 0.10729 0.99796 0.22889
 H173 H 0.33667 0.95164 0.23926
 H174 H 0.29670 1.01090 0.17558
 H175 H 0.24118 1.05426 0.33806
 H176 H 0.17591 0.99745 0.29700
 C177 C -0.28272 0.99780 0.28379
 C178 C -0.30201 0.95001 0.30510
 C179 C -0.34172 0.95058 0.34402
 C180 C -0.36166 0.99897 0.36304
 C181 C -0.34187 1.04677 0.34232
 C182 C -0.30308 1.04619 0.30251
 C183 C -0.24161 0.99725 0.24187
 C184 C -0.25028 1.02373 0.19359
 C185 C -0.21149 1.02314 0.15378
 C186 C -0.16291 0.99708 0.16214
 C187 C -0.15412 0.97091 0.21064
 C188 C -0.19345 0.97047 0.24996
 H189 H -0.35681 0.91339 0.35954
 H190 H -0.35694 1.08440 0.35665
 H191 H -0.21906 1.04386 0.11683
 H192 H -0.11706 0.95035 0.21789
 H193 H -0.28848 1.08345 0.28670
 H194 H -0.28730 1.04443 0.18658
 H195 H -0.28696 0.91231 0.29093
 H196 H -0.18602 0.94995 0.28704
 C197 C -0.28376 1.00221 -0.28377
 C198 C -0.27694 1.03038 -0.33150
 C199 C -0.31637 1.02973 -0.37048
 C200 C -0.36385 1.00104 -0.36268
 C201 C -0.37030 0.97258 -0.31487
 C202 C -0.33082 0.97320 -0.27598
 C203 C -0.24193 1.00296 -0.24225
 C204 C -0.25571 1.00609 -0.18819
 C205 C -0.21646 1.00615 -0.14904
 C206 C -0.16241 1.00312 -0.16303
 C207 C -0.14863 1.00038 -0.21718
 C208 C -0.18793 1.00027 -0.25631
 H209 H -0.31030 1.05286 -0.40630
 H210 H -0.40548 0.94869 -0.30805
 H211 H -0.22860 1.00858 -0.10779
 H212 H -0.10744 0.99784 -0.22946
 H213 H -0.33678 0.95016 -0.24011
 H214 H -0.29693 1.00903 -0.17612
 H215 H -0.24146 1.05375 -0.33837
 H216 H -0.17605 0.99715 -0.29758
 C217 C 0.28242 0.99664 -0.28435
 C218 C 0.30156 0.94891 -0.30584
 C219 C 0.34127 0.94962 -0.34477
 C220 C 0.36137 0.99808 -0.36360
 C221 C 0.34173 1.04580 -0.34271
 C222 C 0.30293 1.04508 -0.30290
 C223 C 0.24136 0.99596 -0.24237
 C224 C 0.25015 1.02233 -0.19407
 C225 C 0.21136 1.02174 -0.15426
 C226 C 0.16266 0.99581 -0.16262
 C227 C 0.15377 0.96971 -0.21114
 C228 C 0.19310 0.96926 -0.25047
 H229 H 0.35624 0.91249 -0.36042
 H230 H 0.35692 1.08348 -0.35689
 H231 H 0.21903 1.04242 -0.11731
 H232 H 0.11662 0.94924 -0.21840
 H233 H 0.28846 1.08229 -0.28695
 H234 H 0.28724 1.04296 -0.18705
 H235 H 0.28639 0.91117 -0.29180
 H236 H 0.18558 0.94883 -0.28757
 C237 C 0.28421 1.28351 0.00117
 C238 C 0.27497 1.33222 -0.02433
 C239 C 0.31398 1.37168 -0.02502
 C240 C 0.36350 1.36357 -0.00027
 C241 C 0.37267 1.31445 0.02495
 C242 C 0.33355 1.27506 0.02573
 C243 C 0.24253 1.24169 0.00207
 C244 C 0.25608 1.18797 -0.00435
 C245 C 0.21682 1.14871 -0.00404
 C246 C 0.16301 1.16224 0.00255
 C247 C 0.14950 1.21597 0.00924
 C248 C 0.18879 1.25519 0.00907
 H249 H 0.30581 1.40821 -0.04619
 H250 H 0.40964 1.30702 0.04558
 H251 H 0.22869 1.10778 -0.00960
 H252 H 0.10853 1.22784 0.01480
 H253 H 0.34159 1.23831 0.04650
 H254 H 0.29702 1.17631 -0.01055
 H255 H 0.23780 1.33957 -0.04460
 H256 H 0.17712 1.29611 0.01497
 C257 C 0.28330 0.71595 -0.00153
 C258 C 0.27531 0.66731 -0.02757
 C259 C 0.31447 0.62808 -0.02677
 C260 C 0.36295 0.63647 -0.00010
 C261 C 0.37065 0.68530 0.02611
 C262 C 0.33138 0.72443 0.02541
 C263 C 0.24158 0.75765 -0.00234
 C264 C 0.25539 0.81147 -0.00760
 C265 C 0.21620 0.85071 -0.00786
 C266 C 0.16221 0.83708 -0.00297
 C267 C 0.14841 0.78319 0.00192
 C268 C 0.18762 0.74398 0.00230
 H269 H 0.30739 0.59161 -0.04843
 H270 H 0.40664 0.69277 0.04843
 H271 H 0.22833 0.89176 -0.01198
 H272 H 0.10728 0.77118 0.00600
 H273 H 0.33833 0.76105 0.04681
 H274 H 0.29653 0.82325 -0.01209
 H275 H 0.23908 0.65987 -0.04946
 H276 H 0.17570 0.70296 0.00713
 C277 C -0.28319 0.71703 0.00504
 C278 C -0.30444 0.69888 -0.04320
 C279 C -0.34325 0.65920 -0.04345
 C280 C -0.36231 0.63814 0.00458
 C281 C -0.34129 0.65639 0.05282
 C282 C -0.30159 0.69522 0.05304
 C283 C -0.24197 0.75878 0.00519
 C284 C -0.19355 0.75053 0.03147
 C285 C -0.15412 0.78964 0.03054
 C286 C -0.16302 0.83808 0.00437
 C287 C -0.21185 0.84658 -0.02117
 C288 C -0.25076 0.80700 -0.02127
 H289 H -0.35878 0.64513 -0.08101
 H290 H -0.35548 0.64030 0.09019
 H291 H -0.11688 0.78227 0.05074
 H292 H -0.21955 0.88347 -0.04187
 H293 H -0.28577 0.70884 0.09064
 H294 H -0.18600 0.71349 0.05195
 H295 H -0.29045 0.71496 -0.08065
 H296 H -0.28796 0.81415 -0.04158
 C297 C -0.28388 1.28328 -0.00408
 C298 C -0.28161 1.32644 -0.03948
 C299 C -0.32067 1.36579 -0.03823
 C300 C -0.36248 1.36291 -0.00132
 C301 C -0.36507 1.31977 0.03383
 C302 C -0.32616 1.28028 0.03246
 C303 C -0.24217 1.24169 -0.00497
 C304 C -0.25583 1.18788 0.00038
 C305 C -0.21655 1.14875 0.00042
 C306 C -0.16260 1.16253 -0.00469
 C307 C -0.14899 1.21640 -0.01037
 C308 C -0.18835 1.25550 -0.01061
 H309 H -0.31837 1.39857 -0.06601
 H310 H -0.39705 1.31696 0.06259
 H311 H -0.22856 1.10770 0.00482
 H312 H -0.10789 1.22849 -0.01445
 H313 H -0.32865 1.24785 0.06061
 H314 H -0.29702 1.17597 0.00412
 H315 H -0.24994 1.32942 -0.06854
 H316 H -0.17657 1.29669 -0.01425
 C317 C 0.00474 1.28426 0.28299
 C318 C -0.01977 1.33340 0.27350
 C319 C -0.02015 1.37279 0.31254
 C320 C 0.00400 1.36422 0.36230
 C321 C 0.02809 1.31464 0.37177
 C322 C 0.02862 1.27533 0.33260
 C323 C 0.00500 1.24238 0.24139
 C324 C -0.00247 1.18881 0.25510
 C325 C -0.00287 1.14950 0.21596
 C326 C 0.00399 1.16282 0.16207
 C327 C 0.01173 1.21639 0.14838
 C328 C 0.01230 1.25567 0.18758
 H329 H -0.04087 1.40952 0.30424
 H330 H 0.04791 1.30672 0.40912
 H331 H -0.00918 1.10870 0.22797
 H332 H 0.01756 1.22808 0.10735
 H333 H 0.04855 1.23820 0.34091
 H334 H -0.00896 1.17731 0.29608
 H335 H -0.03963 1.34110 0.23616
 H336 H 0.01901 1.29647 0.17577
 C337 C -0.00410 1.28235 -0.28556
 C338 C 0.01988 1.27291 -0.33515
 C339 C 0.02064 1.31229 -0.37428
 C340 C -0.00235 1.36243 -0.36485
 C341 C -0.02664 1.37149 -0.31511
 C342 C -0.02757 1.33202 -0.27613
 C343 C -0.00422 1.24077 -0.24362
 C344 C 0.00365 1.25445 -0.19005
 C345 C 0.00393 1.21544 -0.15059
 C346 C -0.00341 1.16170 -0.16375
 C347 C -0.01141 1.14801 -0.21733
 C348 C -0.01189 1.18710 -0.25677
 H349 H 0.04086 1.30401 -0.41141
 H350 H -0.04624 1.40882 -0.30672
 H351 H 0.01050 1.22743 -0.10980
 H352 H -0.01758 1.10707 -0.22888
 H353 H -0.04739 1.34020 -0.23878
 H354 H 0.01049 1.29532 -0.17865
 H355 H 0.03916 1.23540 -0.34336
 H356 H -0.01887 1.17532 -0.29754
 C357 C 0.00230 0.71499 -0.28299
 C358 C -0.02213 0.66582 -0.27303
 C359 C -0.02317 0.62644 -0.31207
 C360 C 0.00006 0.63513 -0.36238
 C361 C 0.02436 0.68463 -0.37220
 C362 C 0.02558 0.72389 -0.33303
 C363 C 0.00319 0.75694 -0.24146
 C364 C -0.00411 0.81052 -0.25516
 C365 C -0.00391 0.84990 -0.21609
 C366 C 0.00335 0.83666 -0.16229
 C367 C 0.01094 0.78308 -0.14861
 C368 C 0.01095 0.74373 -0.18773
 H369 H -0.04360 0.58958 -0.30334
 H370 H 0.04390 0.69250 -0.40980
 H371 H -0.01015 0.89070 -0.22809
 H372 H 0.01706 0.77147 -0.10763
 H373 H 0.04559 0.76096 -0.34167
 H374 H -0.01095 0.82197 -0.29605
 H375 H -0.04142 0.65808 -0.23529
 H376 H 0.01756 0.70294 -0.17594
 C377 C -0.00507 0.71746 0.28512
 C378 C -0.03763 0.67228 0.28080
 C379 C -0.03652 0.63289 0.31988
 C380 C -0.00276 0.63783 0.36390
 C381 C 0.02962 0.68294 0.36848
 C382 C 0.02845 0.72242 0.32949
 C383 C -0.00568 0.75900 0.24326
 C384 C -0.00388 0.81302 0.25694
 C385 C -0.00358 0.85209 0.21751
 C386 C -0.00492 0.83803 0.16341
 C387 C -0.00715 0.78393 0.14980
 C388 C -0.00756 0.74490 0.18927
 H389 H -0.06209 0.59852 0.31591
 H390 H 0.05610 0.68728 0.40207
 H391 H -0.00208 0.89332 0.22953
 H392 H -0.00825 0.77158 0.10859
 H393 H 0.05447 0.75641 0.33357
 H394 H -0.00315 0.82512 0.29823
 H395 H -0.06437 0.66769 0.24748
 H396 H -0.00837 0.70358 0.17747
   
