data_POSCAR
  _audit_creation_date              2014-09-24
  _audit_creation_method            'ToBaCCo'
  _symmetry_space_group_name_H-M    'P1'
  _symmetry_Int_Tables_number       1
  _symmetry_cell_setting            triclinic
  loop_
  _symmetry_equiv_pos_as_xyz
 x,y,z
_cell_length_a 12.3182
_cell_length_b 43.9165
_cell_length_c 30.9712
_cell_angle_alpha 90.000400
_cell_angle_beta 90.001700
_cell_angle_gamma 90.000700
loop_
  _atom_site_label
  _atom_site_type_symbol
  _atom_site_fract_x
  _atom_site_fract_y
  _atom_site_fract_z
B1 B -0.07375 -0.02592 0.01934
 B2 B 0.06112 -0.02617 0.02385
 B3 B 0.00340 -0.03151 -0.02408
 B4 B -0.10818 -0.00959 -0.02772
 B5 B -0.11779 0.01006 0.01999
 B6 B -0.01199 -0.00082 0.05212
 B7 B 0.07235 0.02585 -0.01947
 B8 B -0.06251 0.02609 -0.02398
 B9 B -0.00479 0.03144 0.02395
 B10 B 0.10679 0.00952 0.02759
 B11 B 0.11640 -0.01013 -0.02012
 B12 B 0.01060 0.00074 -0.05225
 B13 B 0.55249 0.48334 0.53991
 B14 B 0.41829 0.48556 0.53301
 B15 B 0.48957 0.51681 0.54508
 B16 B 0.61118 0.51484 0.52005
 B17 B 0.61332 0.48141 0.49148
 B18 B 0.49267 0.46337 0.50019
 B19 B 0.44882 0.51672 0.46011
 B20 B 0.58302 0.51449 0.46701
 B21 B 0.51172 0.48325 0.45494
 B22 B 0.39013 0.48522 0.47997
 B23 B 0.38798 0.51865 0.50853
 B24 B 0.50863 0.53669 0.49983
 B25 B 0.57264 0.02587 0.51944
 B26 B 0.43777 0.02613 0.52394
 B27 B 0.49550 0.03147 0.47601
 B28 B 0.60706 0.00954 0.47237
 B29 B 0.61664 -0.01011 0.52009
 B30 B 0.51085 0.00077 0.55221
 B31 B 0.42649 -0.02589 0.48062
 B32 B 0.56135 -0.02615 0.47611
 B33 B 0.50362 -0.03148 0.52405
 B34 B 0.39206 -0.00956 0.52768
 B35 B 0.38248 0.01009 0.47996
 B36 B 0.48827 -0.00079 0.44784
 B37 B -0.05151 0.51672 0.03989
 B38 B 0.08270 0.51450 0.03299
 B39 B 0.01141 0.48325 0.04506
 B40 B -0.11019 0.48522 0.02002
 B41 B -0.11233 0.51865 -0.00854
 B42 B 0.00831 0.53669 0.00017
 B43 B 0.05220 0.48334 -0.03990
 B44 B -0.08201 0.48556 -0.03301
 B45 B -0.01073 0.51681 -0.04508
 B46 B 0.11087 0.51484 -0.02004
 B47 B 0.11301 0.48141 0.00853
 B48 B -0.00763 0.46337 -0.00019
 B49 B 0.07377 0.47407 0.48066
 B50 B -0.06108 0.47384 0.47610
 B51 B -0.00350 0.46850 0.52406
 B52 B 0.10810 0.49041 0.52773
 B53 B 0.11786 0.51005 0.48002
 B54 B 0.01213 0.49918 0.44785
 B55 B -0.07237 0.52587 0.51940
 B56 B 0.06249 0.52610 0.52396
 B57 B 0.00490 0.53144 0.47600
 B58 B -0.10670 0.50953 0.47233
 B59 B -0.11645 0.48989 0.52004
 B60 B -0.01073 0.50076 0.55221
 B61 B 0.44747 -0.01666 -0.03992
 B62 B 0.58169 -0.01443 -0.03306
 B63 B 0.51035 0.01682 -0.04512
 B64 B 0.38880 0.01484 -0.02005
 B65 B 0.38674 -0.01859 0.00852
 B66 B 0.50739 -0.03662 -0.00022
 B67 B 0.55128 0.01673 0.03984
 B68 B 0.41706 0.01450 0.03298
 B69 B 0.48841 -0.01674 0.04504
 B70 B 0.60996 -0.01477 0.01996
 B71 B 0.61202 0.01866 -0.00861
 B72 B 0.49137 0.03669 0.00014
 B73 B 0.42734 0.52588 -0.01940
 B74 B 0.56220 0.52613 -0.02394
 B75 B 0.50457 0.53147 0.02400
 B76 B 0.39299 0.50955 0.02767
 B77 B 0.38330 0.48990 -0.02004
 B78 B 0.48904 0.50078 -0.05220
 B79 B 0.57351 0.47410 0.01937
 B80 B 0.43866 0.47386 0.02392
 B81 B 0.49629 0.46852 -0.02403
 B82 B 0.60786 0.49044 -0.02770
 B83 B 0.61756 0.51009 0.02001
 B84 B 0.51182 0.49921 0.05217
 B85 B 0.05158 0.01673 0.46016
 B86 B -0.08265 0.01449 0.46700
 B87 B -0.01129 -0.01675 0.45495
 B88 B 0.11023 -0.01477 0.48004
 B89 B 0.11227 0.01865 0.50862
 B90 B -0.00837 0.03669 0.49985
 B91 B -0.05230 -0.01667 0.53990
 B92 B 0.08192 -0.01444 0.53306
 B93 B 0.01057 0.01681 0.54511
 B94 B -0.11096 0.01483 0.52002
 B95 B -0.11300 -0.01860 0.49145
 B96 B 0.00764 -0.03663 0.50021
 B97 B 0.78107 0.27498 0.27545
 B98 B 0.64591 0.27399 0.27302
 B99 B 0.71856 0.27792 0.22805
 B100 B 0.83330 0.25748 0.23215
 B101 B 0.82998 0.23978 0.28158
 B102 B 0.71255 0.25048 0.30714
 B103 B 0.65739 0.21993 0.23410
 B104 B 0.79244 0.22142 0.23649
 B105 B 0.72001 0.21701 0.28144
 B106 B 0.60460 0.23763 0.27753
 B107 B 0.60817 0.25526 0.22798
 B108 B 0.72544 0.24457 0.20254
 B109 B 0.77970 0.78300 0.78146
 B110 B 0.70740 0.77856 0.73648
 B111 B 0.84243 0.78011 0.73414
 B112 B 0.89525 0.76243 0.77759
 B113 B 0.78731 0.74953 0.80716
 B114 B 0.66987 0.76018 0.78156
 B115 B 0.78163 0.72209 0.72806
 B116 B 0.85416 0.72605 0.77306
 B117 B 0.71900 0.72500 0.77544
 B118 B 0.66676 0.74248 0.73212
 B119 B 0.77460 0.75544 0.70256
 B120 B 0.89189 0.74481 0.72803
 B121 B 0.28055 0.22503 0.72453
 B122 B 0.14539 0.22608 0.72689
 B123 B 0.21789 0.22212 0.77190
 B124 B 0.33277 0.24251 0.76785
 B125 B 0.32969 0.26021 0.71842
 B126 B 0.21226 0.24956 0.69281
 B127 B 0.15709 0.28013 0.76582
 B128 B 0.29213 0.27858 0.76349
 B129 B 0.21985 0.28303 0.71851
 B130 B 0.10430 0.26245 0.72237
 B131 B 0.10764 0.24483 0.77192
 B132 B 0.22490 0.25547 0.79741
 B133 B 0.21941 0.77497 0.22449
 B134 B 0.35456 0.77398 0.22692
 B135 B 0.28189 0.77791 0.27189
 B136 B 0.16715 0.75747 0.26779
 B137 B 0.17048 0.73977 0.21836
 B138 B 0.28793 0.75047 0.19280
 B139 B 0.34305 0.71992 0.26585
 B140 B 0.20801 0.72141 0.26345
 B141 B 0.28046 0.71700 0.21850
 B142 B 0.39587 0.73762 0.22242
 B143 B 0.39228 0.75525 0.27197
 B144 B 0.27500 0.74456 0.29740
 B145 B 0.28159 0.72208 0.77193
 B146 B 0.35420 0.72604 0.72695
 B147 B 0.21904 0.72500 0.72454
 B148 B 0.16673 0.74248 0.76784
 B149 B 0.27453 0.75544 0.79743
 B150 B 0.39185 0.74479 0.77199
 B151 B 0.27977 0.78299 0.71853
 B152 B 0.20738 0.77855 0.76349
 B153 B 0.34242 0.78010 0.76587
 B154 B 0.39530 0.76242 0.72243
 B155 B 0.28741 0.74952 0.69284
 B156 B 0.16993 0.76017 0.71840
 B157 B 0.15739 0.21994 0.26590
 B158 B 0.29244 0.22143 0.26348
 B159 B 0.21994 0.21700 0.21855
 B160 B 0.10453 0.23763 0.22247
 B161 B 0.10816 0.25526 0.27202
 B162 B 0.22548 0.24458 0.29743
 B163 B 0.28099 0.27497 0.22450
 B164 B 0.14583 0.27399 0.22696
 B165 B 0.21855 0.27792 0.27191
 B166 B 0.33329 0.25749 0.26780
 B167 B 0.32991 0.23978 0.21837
 B168 B 0.21243 0.25047 0.19284
 B169 B 0.84302 0.71993 0.23416
 B170 B 0.70798 0.72142 0.23655
 B171 B 0.78042 0.71699 0.28150
 B172 B 0.89585 0.73761 0.27760
 B173 B 0.89228 0.75525 0.22805
 B174 B 0.77499 0.74457 0.20262
 B175 B 0.71940 0.77497 0.27553
 B176 B 0.85456 0.77398 0.27310
 B177 B 0.78190 0.77792 0.22814
 B178 B 0.66714 0.75748 0.23223
 B179 B 0.67046 0.73977 0.28165
 B180 B 0.78791 0.75046 0.30721
 B181 B 0.71799 0.22211 0.72809
 B182 B 0.64539 0.22607 0.77307
 B183 B 0.78055 0.22502 0.77548
 B184 B 0.83285 0.24250 0.73218
 B185 B 0.72505 0.25546 0.70258
 B186 B 0.60773 0.24482 0.72803
 B187 B 0.71983 0.28302 0.78148
 B188 B 0.79220 0.27857 0.73652
 B189 B 0.65717 0.28012 0.73415
 B190 B 0.60429 0.26244 0.77758
 B191 B 0.71219 0.24955 0.80718
 B192 B 0.82967 0.26020 0.78161
 C193 C 0.09167 0.46379 0.92231
 C194 C 0.10211 0.44350 0.89659
 C195 C 0.09789 0.41641 0.87075
 C196 C 0.02891 0.39284 0.88419
 C197 C 0.02241 0.36585 0.86061
 C198 C 0.08536 0.36224 0.82350
 C199 C 0.15445 0.38579 0.80992
 C200 C 0.16041 0.41298 0.83339
 C201 C 0.09116 0.33312 0.80272
 C202 C 0.10883 0.30890 0.78609
 H203 H -0.01871 0.39518 0.91341
 H204 H -0.02916 0.34755 0.87199
 H205 H 0.20604 0.38272 0.78201
 H206 H 0.21478 0.43091 0.82295
 C207 C 0.40940 0.53627 0.42232
 C208 C 0.39899 0.55657 0.39659
 C209 C 0.40317 0.58365 0.37074
 C210 C 0.34048 0.58708 0.33342
 C211 C 0.34625 0.61428 0.30997
 C212 C 0.41534 0.63784 0.32351
 C213 C 0.47850 0.63422 0.36057
 C214 C 0.47218 0.60723 0.38414
 C215 C 0.40932 0.66697 0.30276
 C216 C 0.39147 0.69118 0.28614
 H217 H 0.28610 0.56914 0.32301
 H218 H 0.29450 0.61735 0.28210
 H219 H 0.53010 0.65253 0.37191
 H220 H 0.51994 0.60489 0.41332
 C221 C 0.90817 0.96378 0.57767
 C222 C 0.89769 0.94348 0.60338
 C223 C 0.90187 0.91638 0.62922
 C224 C 0.97078 0.89280 0.61577
 C225 C 0.97721 0.86581 0.63934
 C226 C 0.91425 0.86221 0.67646
 C227 C 0.84524 0.88578 0.69004
 C228 C 0.83935 0.91297 0.66658
 C229 C 0.90839 0.83309 0.69724
 C230 C 0.89069 0.80887 0.71387
 H231 H 1.01839 0.89513 0.58654
 H232 H 1.02872 0.84750 0.62796
 H233 H 0.79366 0.88271 0.71796
 H234 H 0.78505 0.93091 0.67703
 C235 C 0.59077 0.03629 0.07762
 C236 C 0.60123 0.05659 0.10334
 C237 C 0.59710 0.08367 0.12920
 C238 C 0.52809 0.10725 0.11582
 C239 C 0.52181 0.13424 0.13939
 C240 C 0.58502 0.13785 0.17644
 C241 C 0.65410 0.11428 0.18997
 C242 C 0.65983 0.08709 0.16650
 C243 C 0.59109 0.16698 0.19719
 C244 C 0.60897 0.19119 0.21381
 H245 H 0.48028 0.10491 0.08664
 H246 H 0.47020 0.15255 0.12806
 H247 H 0.70588 0.11735 0.21783
 H248 H 0.71422 0.06915 0.17690
 C249 C 0.84518 0.03245 0.43547
 C250 C 0.80264 0.05172 0.41350
 C251 C 0.76510 0.07807 0.39022
 C252 C 0.77083 0.07905 0.34507
 C253 C 0.75523 0.10666 0.32329
 C254 C 0.73421 0.13343 0.34652
 C255 C 0.72665 0.13231 0.39159
 C256 C 0.74192 0.10474 0.41334
 C257 C 0.72649 0.16228 0.32449
 C258 C 0.72231 0.18646 0.30604
 H259 H 0.79202 0.05883 0.32689
 H260 H 0.76334 0.10731 0.28855
 H261 H 0.71136 0.15286 0.40997
 H262 H 0.73983 0.10445 0.44832
 C263 C 0.34608 0.46759 0.56451
 C264 C 0.30352 0.44831 0.58647
 C265 C 0.26593 0.42197 0.60976
 C266 C 0.27183 0.42097 0.65490
 C267 C 0.25610 0.39336 0.67667
 C268 C 0.23479 0.36660 0.65343
 C269 C 0.22715 0.36774 0.60837
 C270 C 0.24254 0.39532 0.58663
 C271 C 0.22683 0.33776 0.67546
 C272 C 0.22243 0.31358 0.69390
 H273 H 0.29322 0.44117 0.67308
 H274 H 0.26435 0.39269 0.71141
 H275 H 0.21166 0.34721 0.58998
 H276 H 0.24035 0.39562 0.55164
 C277 C 0.65385 0.96760 0.93541
 C278 C 0.69635 0.94832 0.91345
 C279 C 0.73384 0.92196 0.89017
 C280 C 0.72794 0.92096 0.84503
 C281 C 0.74358 0.89334 0.82327
 C282 C 0.76481 0.86658 0.84652
 C283 C 0.77245 0.86773 0.89158
 C284 C 0.75715 0.89531 0.91331
 C285 C 0.77274 0.83773 0.82451
 C286 C 0.77713 0.81355 0.80607
 H287 H 0.70662 0.94116 0.82684
 H288 H 0.73533 0.89267 0.78853
 H289 H 0.78788 0.84720 0.90998
 H290 H 0.75934 0.89562 0.94830
 C291 C 0.15495 0.53246 0.06449
 C292 C 0.19759 0.55173 0.08643
 C293 C 0.23524 0.57807 0.10971
 C294 C 0.25835 0.60474 0.08658
 C295 C 0.27366 0.63231 0.10833
 C296 C 0.26624 0.63343 0.15340
 C297 C 0.24532 0.60665 0.17664
 C298 C 0.22967 0.57904 0.15486
 C299 C 0.27397 0.66227 0.17544
 C300 C 0.27816 0.68645 0.19390
 H301 H 0.26032 0.60445 0.05160
 H302 H 0.28889 0.65286 0.08995
 H303 H 0.23731 0.60729 0.21139
 H304 H 0.20855 0.55882 0.17304
 C305 C 0.48086 0.96273 0.08553
 C306 C 0.47905 0.94149 0.11047
 C307 C 0.47930 0.91306 0.13424
 C308 C 0.44262 0.91117 0.17702
 C309 C 0.43640 0.88273 0.19772
 C310 C 0.46706 0.85604 0.17584
 C311 C 0.50534 0.85809 0.13339
 C312 C 0.51151 0.88640 0.11277
 C313 C 0.44478 0.82647 0.19451
 C314 C 0.41504 0.80231 0.20914
 H315 H 0.41632 0.93145 0.19392
 H316 H 0.40432 0.88145 0.23024
 H317 H 0.52739 0.83770 0.11575
 H318 H 0.53932 0.88742 0.07961
 C319 C 0.51936 0.46273 0.41445
 C320 C 0.52123 0.44149 0.38950
 C321 C 0.52101 0.41306 0.36572
 C322 C 0.55777 0.41118 0.32295
 C323 C 0.56403 0.38274 0.30225
 C324 C 0.53335 0.35604 0.32411
 C325 C 0.49498 0.35809 0.36655
 C326 C 0.48877 0.38639 0.38717
 C327 C 0.55567 0.32647 0.30544
 C328 C 0.58544 0.30232 0.29081
 H329 H 0.58408 0.43146 0.30605
 H330 H 0.59617 0.38146 0.26973
 H331 H 0.47290 0.33770 0.38418
 H332 H 0.46090 0.38741 0.42032
 C333 C 0.98161 0.53734 0.91443
 C334 C 0.97968 0.55858 0.88950
 C335 C 0.97978 0.58701 0.86572
 C336 C 0.94272 0.58890 0.82299
 C337 C 0.93632 0.61734 0.80230
 C338 C 0.96715 0.64404 0.82413
 C339 C 1.00583 0.64199 0.86653
 C340 C 1.01219 0.61368 0.88714
 C341 C 0.94468 0.67360 0.80549
 C342 C 0.91478 0.69775 0.79087
 H343 H 0.91627 0.56862 0.80612
 H344 H 0.90395 0.61862 0.76982
 H345 H 1.02805 0.66237 0.88414
 H346 H 1.04030 0.61266 0.92026
 C347 C 0.01811 0.03733 0.58560
 C348 C 0.01998 0.05858 0.61053
 C349 C 0.01984 0.08702 0.63429
 C350 C -0.01250 0.11368 0.61284
 C351 C -0.00615 0.14199 0.63343
 C352 C 0.03245 0.14405 0.67584
 C353 C 0.06322 0.11736 0.69770
 C354 C 0.05682 0.08892 0.67703
 C355 C 0.05491 0.17363 0.69447
 C356 C 0.08479 0.19778 0.70909
 H357 H -0.04055 0.11265 0.57971
 H358 H -0.02830 0.16237 0.61580
 H359 H 0.09553 0.11865 0.73019
 H360 H 0.08322 0.06864 0.69392
 C361 C 0.13756 0.44820 0.45915
 C362 C 0.17357 0.42755 0.43804
 C363 C 0.20315 0.40278 0.41019
 C364 C 0.22401 0.40839 0.36639
 C365 C 0.23232 0.38411 0.33734
 C366 C 0.21960 0.35418 0.35207
 C367 C 0.20202 0.34856 0.39605
 C368 C 0.19350 0.37281 0.42503
 C369 C 0.22045 0.32912 0.32228
 C370 C 0.21964 0.30726 0.29884
 H371 H 0.22957 0.43153 0.35446
 H372 H 0.24589 0.38868 0.30339
 H373 H 0.19186 0.32548 0.40771
 H374 H 0.17513 0.36826 0.45864
 C375 C 0.36355 0.55175 0.95907
 C376 C 0.32751 0.57240 0.93797
 C377 C 0.29784 0.59718 0.91014
 C378 C 0.27675 0.59158 0.86635
 C379 C 0.26826 0.61588 0.83733
 C380 C 0.28105 0.64581 0.85207
 C381 C 0.29884 0.65140 0.89603
 C382 C 0.30754 0.62714 0.92500
 C383 C 0.28002 0.67088 0.82229
 C384 C 0.28069 0.69275 0.79887
 H385 H 0.27111 0.56845 0.85441
 H386 H 0.25449 0.61132 0.80339
 H387 H 0.30902 0.67449 0.90771
 H388 H 0.32604 0.63169 0.95859
 C389 C 0.63641 0.05174 0.54098
 C390 C 0.67240 0.07240 0.56209
 C391 C 0.70198 0.09718 0.58991
 C392 C 0.69223 0.12714 0.57505
 C393 C 0.70085 0.15141 0.60400
 C394 C 0.71862 0.14582 0.64797
 C395 C 0.73145 0.11590 0.66272
 C396 C 0.72303 0.09160 0.63370
 C397 C 0.71959 0.17090 0.67774
 C398 C 0.71889 0.19277 0.70116
 H399 H 0.67374 0.13168 0.54145
 H400 H 0.69063 0.17449 0.59232
 H401 H 0.74520 0.11135 0.69667
 H402 H 0.72870 0.06847 0.64566
 C403 C 0.86251 0.94821 0.04089
 C404 C 0.82656 0.92756 0.06201
 C405 C 0.79705 0.90279 0.08987
 C406 C 0.77621 0.90839 0.13367
 C407 C 0.76795 0.88411 0.16272
 C408 C 0.78073 0.85418 0.14799
 C409 C 0.79828 0.84857 0.10401
 C410 C 0.80675 0.87282 0.07502
 C411 C 0.77995 0.82911 0.17778
 C412 C 0.78081 0.80725 0.20121
 H413 H 0.77061 0.93153 0.14561
 H414 H 0.75438 0.88867 0.19667
 H415 H 0.80846 0.82548 0.09235
 H416 H 0.82510 0.86827 0.04142
 C417 C 0.88687 0.05208 0.95070
 C418 C 0.86584 0.07302 0.92743
 C419 C 0.85636 0.09797 0.89827
 C420 C 0.78563 0.12196 0.90727
 C421 C 0.78575 0.14758 0.88078
 C422 C 0.85674 0.14923 0.84549
 C423 C 0.92666 0.12510 0.83614
 C424 C 0.92659 0.09945 0.86269
 C425 C 0.85085 0.17521 0.81805
 C426 C 0.83139 0.19746 0.79716
 H427 H 0.73181 0.12103 0.93491
 H428 H 0.73040 0.16613 0.88774
 H429 H 0.98086 0.12614 0.80862
 H430 H 0.98228 0.08096 0.85591
 C431 C 0.11307 0.55208 0.54930
 C432 C 0.13403 0.57301 0.57258
 C433 C 0.14342 0.59797 0.60174
 C434 C 0.21408 0.62197 0.59275
 C435 C 0.21387 0.64759 0.61924
 C436 C 0.14285 0.64922 0.65452
 C437 C 0.07299 0.62507 0.66386
 C438 C 0.07317 0.59942 0.63731
 C439 C 0.14871 0.67519 0.68197
 C440 C 0.16818 0.69744 0.70286
 H441 H 0.26792 0.62105 0.56511
 H442 H 0.26917 0.66615 0.61229
 H443 H 0.01877 0.62610 0.69138
 H444 H 0.01753 0.58091 0.64409
 C445 C 0.61197 0.94785 0.45081
 C446 C 0.63306 0.92691 0.42756
 C447 C 0.64268 0.90195 0.39842
 C448 C 0.57251 0.90045 0.36282
 C449 C 0.57264 0.87480 0.33626
 C450 C 0.64272 0.85070 0.34562
 C451 C 0.71365 0.85238 0.38093
 C452 C 0.71356 0.87800 0.40742
 C453 C 0.64883 0.82474 0.31816
 C454 C 0.66844 0.80250 0.29725
 H455 H 0.51671 0.91891 0.35603
 H456 H 0.51849 0.87373 0.30873
 H457 H 0.76912 0.83386 0.38789
 H458 H 0.76735 0.87896 0.43508
 C459 C 0.38808 0.44787 0.04924
 C460 C 0.36703 0.42693 0.07249
 C461 C 0.35748 0.40196 0.10163
 C462 C 0.42771 0.40046 0.13721
 C463 C 0.42764 0.37481 0.16377
 C464 C 0.35759 0.35071 0.15442
 C465 C 0.28662 0.35238 0.11913
 C466 C 0.28663 0.37800 0.09263
 C467 C 0.35153 0.32474 0.18188
 C468 C 0.33195 0.30251 0.20279
 H469 H 0.48349 0.41893 0.14399
 H470 H 0.48183 0.37375 0.19129
 H471 H 0.23116 0.33386 0.11217
 H472 H 0.23281 0.37896 0.06499
 C473 C 0.51049 0.56122 0.04955
 C474 C 0.51840 0.58264 0.07352
 C475 C 0.53028 0.60673 0.10443
 C476 C 0.54205 0.63685 0.09061
 C477 C 0.55961 0.65991 0.12085
 C478 C 0.56579 0.65290 0.16493
 C479 C 0.55152 0.62287 0.17888
 C480 C 0.53349 0.59980 0.14862
 C481 C 0.60203 0.67589 0.19440
 C482 C 0.64209 0.69572 0.21586
 H483 H 0.53964 0.64240 0.05654
 H484 H 0.57219 0.68305 0.10977
 H485 H 0.55789 0.61717 0.21283
 H486 H 0.52449 0.57651 0.15955
 C487 C 0.00926 0.93873 0.95037
 C488 C 0.01713 0.91732 0.92640
 C489 C 0.02901 0.89322 0.89550
 C490 C 0.03222 0.90013 0.85131
 C491 C 0.05038 0.87706 0.82107
 C492 C 0.06478 0.84704 0.83503
 C493 C 0.05857 0.84004 0.87911
 C494 C 0.04087 0.86310 0.90934
 C495 C 0.10119 0.82405 0.80559
 C496 C 0.14137 0.80424 0.78416
 H497 H 0.02314 0.92343 0.84036
 H498 H 0.05677 0.88275 0.78712
 H499 H 0.07124 0.81691 0.89021
 H500 H 0.03846 0.85756 0.94341
 C501 C 0.48968 0.06122 0.45046
 C502 C 0.48185 0.08264 0.42649
 C503 C 0.47006 0.10673 0.39558
 C504 C 0.46701 0.09981 0.35139
 C505 C 0.44903 0.12288 0.32113
 C506 C 0.43463 0.15291 0.33508
 C507 C 0.44065 0.15991 0.37916
 C508 C 0.45818 0.13685 0.40941
 C509 C 0.39840 0.17590 0.30561
 C510 C 0.35834 0.19572 0.28416
 H511 H 0.47610 0.07652 0.34045
 H512 H 0.44278 0.11719 0.28717
 H513 H 0.42797 0.18304 0.39025
 H514 H 0.46045 0.14239 0.44348
 C515 C 0.99054 0.43875 0.54961
 C516 C 0.98258 0.41733 0.57358
 C517 C 0.97062 0.39324 0.60448
 C518 C 0.96737 0.40015 0.64867
 C519 C 0.94920 0.37709 0.67891
 C520 C 0.93481 0.34706 0.66495
 C521 C 0.94105 0.34006 0.62087
 C522 C 0.95876 0.36312 0.59064
 C523 C 0.89840 0.32407 0.69439
 C524 C 0.85821 0.30426 0.71583
 H525 H 0.97644 0.42345 0.65962
 H526 H 0.94278 0.38278 0.71286
 H527 H 0.92840 0.31693 0.60977
 H528 H 0.96121 0.35757 0.55657
 C529 C 0.90907 0.53627 0.07767
 C530 C 0.89866 0.55657 0.10340
 C531 C 0.90287 0.58366 0.12925
 C532 C 0.97186 0.60723 0.11583
 C533 C 0.97825 0.63423 0.13939
 C534 C 0.91517 0.63784 0.17648
 C535 C 0.84611 0.61428 0.19004
 C536 C 0.84027 0.58709 0.16658
 C537 C 0.90921 0.66697 0.19723
 C538 C 0.89140 0.69118 0.21386
 H539 H 1.01954 0.60489 0.08662
 H540 H 1.02980 0.65254 0.12803
 H541 H 0.79446 0.61735 0.21794
 H542 H 0.78592 0.56915 0.17702
 C543 C 0.59193 0.46379 0.57769
 C544 C 0.60234 0.44349 0.60341
 C545 C 0.59807 0.41640 0.62923
 C546 C 0.66062 0.41295 0.66659
 C547 C 0.65464 0.38576 0.69004
 C548 C 0.58550 0.36222 0.67646
 C549 C 0.52252 0.36585 0.63935
 C550 C 0.52905 0.39284 0.61578
 C551 C 0.59127 0.33310 0.69722
 C552 C 0.60892 0.30888 0.71386
 H553 H 0.71502 0.43088 0.67703
 H554 H 0.70625 0.38267 0.71794
 H555 H 0.47091 0.34755 0.62797
 H556 H 0.48143 0.39519 0.58656
 C557 C 0.09111 0.03629 0.42240
 C558 C 0.10161 0.05659 0.39669
 C559 C 0.09749 0.08369 0.37086
 C560 C 0.16013 0.08711 0.33353
 C561 C 0.15432 0.11430 0.31007
 C562 C 0.08528 0.13787 0.32363
 C563 C 0.02219 0.13426 0.36071
 C564 C 0.02853 0.10727 0.38428
 C565 C 0.09123 0.16699 0.30286
 C566 C 0.10903 0.19120 0.28621
 H567 H 0.21446 0.06916 0.32310
 H568 H 0.20599 0.11737 0.28218
 H569 H -0.02937 0.15257 0.37206
 H570 H -0.01918 0.10493 0.41347
 C571 C 0.40797 0.96379 0.92231
 C572 C 0.39749 0.94348 0.89660
 C573 C 0.40167 0.91638 0.87079
 C574 C 0.33912 0.91295 0.83343
 C575 C 0.34503 0.88575 0.80998
 C576 C 0.41409 0.86220 0.82357
 C577 C 0.47706 0.86581 0.86069
 C578 C 0.47061 0.89281 0.88425
 C579 C 0.40830 0.83308 0.80279
 C580 C 0.39064 0.80886 0.78616
 H581 H 0.28480 0.93089 0.82297
 H582 H 0.29343 0.88267 0.78207
 H583 H 0.52859 0.84750 0.87207
 H584 H 0.51823 0.89515 0.91347
 C585 C 0.15406 0.96759 0.56459
 C586 C 0.19657 0.94831 0.58654
 C587 C 0.23407 0.92195 0.60981
 C588 C 0.25725 0.89529 0.58667
 C589 C 0.27257 0.86771 0.60840
 C590 C 0.26507 0.86657 0.65346
 C591 C 0.24396 0.89333 0.67671
 C592 C 0.22831 0.92095 0.65496
 C593 C 0.27295 0.83772 0.67548
 C594 C 0.27728 0.81354 0.69392
 H595 H 0.25932 0.89560 0.55168
 H596 H 0.28788 0.84717 0.59000
 H597 H 0.23583 0.89267 0.71146
 H598 H 0.20708 0.94115 0.67315
 C599 C 0.65526 0.53245 0.43551
 C600 C 0.69784 0.55171 0.41355
 C601 C 0.73540 0.57806 0.39027
 C602 C 0.72964 0.57903 0.34512
 C603 C 0.74520 0.60665 0.32334
 C604 C 0.76621 0.63342 0.34657
 C605 C 0.77376 0.63230 0.39164
 C606 C 0.75854 0.60473 0.41339
 C607 C 0.77391 0.66226 0.32454
 C608 C 0.77810 0.68645 0.30609
 H609 H 0.70846 0.55882 0.32695
 H610 H 0.73706 0.60729 0.28860
 H611 H 0.78901 0.65285 0.41002
 H612 H 0.76061 0.60444 0.44838
 C613 C 0.34487 0.03245 0.06450
 C614 C 0.30233 0.05172 0.08647
 C615 C 0.26482 0.07806 0.10976
 C616 C 0.24177 0.10475 0.08664
 C617 C 0.22656 0.13232 0.10840
 C618 C 0.23403 0.13343 0.15347
 C619 C 0.25494 0.10665 0.17669
 C620 C 0.27051 0.07904 0.15491
 C621 C 0.22635 0.16227 0.17550
 C622 C 0.22220 0.18645 0.19395
 H623 H 0.23976 0.10446 0.05165
 H624 H 0.21137 0.15287 0.09002
 H625 H 0.26301 0.10729 0.21144
 H626 H 0.29162 0.05881 0.17308
 C627 C 0.84578 0.46759 0.93548
 C628 C 0.80322 0.44831 0.91352
 C629 C 0.76565 0.42196 0.89024
 C630 C 0.74242 0.39530 0.91337
 C631 C 0.72708 0.36773 0.89163
 C632 C 0.73458 0.36660 0.84656
 C633 C 0.75571 0.39336 0.82332
 C634 C 0.77139 0.42097 0.84510
 C635 C 0.72668 0.33775 0.82453
 C636 C 0.72233 0.31357 0.80608
 H637 H 0.74034 0.39560 0.94836
 H638 H 0.71174 0.34719 0.91001
 H639 H 0.76384 0.39271 0.78858
 H640 H 0.79264 0.44118 0.82692
 C641 C 0.51792 0.03734 0.91440
 C642 C 0.51980 0.05859 0.88946
 C643 C 0.51967 0.08702 0.86568
 C644 C 0.55674 0.08891 0.82296
 C645 C 0.56317 0.11735 0.80227
 C646 C 0.53233 0.14405 0.82410
 C647 C 0.49363 0.14199 0.86649
 C648 C 0.48726 0.11368 0.88710
 C649 C 0.55484 0.17361 0.80546
 C650 C 0.58475 0.19776 0.79086
 H651 H 0.58319 0.06862 0.80609
 H652 H 0.59555 0.11863 0.76979
 H653 H 0.47142 0.16238 0.88410
 H654 H 0.45912 0.11266 0.92022
 C655 C 0.48190 0.53734 0.58556
 C656 C 0.47996 0.55858 0.61050
 C657 C 0.48004 0.58701 0.63430
 C658 C 0.51253 0.61368 0.61291
 C659 C 0.50612 0.64198 0.63353
 C660 C 0.46731 0.64403 0.67590
 C661 C 0.43641 0.61732 0.69771
 C662 C 0.44285 0.58889 0.67700
 C663 C 0.44478 0.67359 0.69455
 C664 C 0.41484 0.69773 0.70916
 H665 H 0.54076 0.61266 0.57980
 H666 H 0.52841 0.66237 0.61594
 H667 H 0.40395 0.61860 0.73017
 H668 H 0.41634 0.56860 0.69385
 C669 C 0.01903 0.46272 0.08555
 C670 C 0.02089 0.44148 0.11049
 C671 C 0.02071 0.41305 0.13428
 C672 C -0.01164 0.38639 0.11285
 C673 C -0.00536 0.35808 0.13347
 C674 C 0.03316 0.35603 0.17589
 C675 C 0.06394 0.38273 0.19773
 C676 C 0.05762 0.41117 0.17702
 C677 C 0.05553 0.32647 0.19455
 C678 C 0.08533 0.30231 0.20917
 H679 H -0.03966 0.38740 0.07971
 H680 H -0.02754 0.33770 0.11585
 H681 H 0.09620 0.38146 0.23022
 H682 H 0.08401 0.43146 0.19390
 C683 C 0.98120 0.96273 0.41446
 C684 C 0.97939 0.94148 0.38952
 C685 C 0.97961 0.91305 0.36575
 C686 C 1.01187 0.88639 0.38722
 C687 C 1.00562 0.85808 0.36661
 C688 C 0.96721 0.85602 0.32418
 C689 C 0.93653 0.88272 0.30231
 C690 C 0.94282 0.91116 0.32299
 C691 C 0.94486 0.82645 0.30552
 C692 C 0.91506 0.80230 0.29090
 H693 H 1.03979 0.88741 0.42037
 H694 H 1.02771 0.83770 0.38425
 H695 H 0.90435 0.88143 0.26979
 H696 H 0.91650 0.93144 0.30609
 C697 C 0.86389 0.55175 0.54092
 C698 C 0.82790 0.57241 0.56202
 C699 C 0.79827 0.59719 0.58985
 C700 C 0.80795 0.62715 0.57500
 C701 C 0.79920 0.65141 0.60396
 C702 C 0.78137 0.64581 0.64793
 C703 C 0.76864 0.61589 0.66266
 C704 C 0.77718 0.59159 0.63364
 C705 C 0.78024 0.67089 0.67770
 C706 C 0.78082 0.69276 0.70112
 H707 H 0.82649 0.63170 0.54141
 H708 H 0.80936 0.67450 0.59229
 H709 H 0.75486 0.61133 0.69660
 H710 H 0.77158 0.56846 0.64558
 C711 C 0.63731 0.44824 0.04090
 C712 C 0.67335 0.42759 0.06200
 C713 C 0.70297 0.40282 0.08984
 C714 C 0.69328 0.37285 0.07498
 C715 C 0.70185 0.34859 0.10394
 C716 C 0.71951 0.35419 0.14792
 C717 C 0.73230 0.38412 0.16266
 C718 C 0.72394 0.40841 0.13363
 C719 C 0.72040 0.32912 0.17769
 C720 C 0.71961 0.30725 0.20112
 H721 H 0.67486 0.36831 0.04138
 H722 H 0.69166 0.32551 0.09227
 H723 H 0.74598 0.38867 0.19661
 H724 H 0.72958 0.43154 0.14558
 C725 C 0.36272 0.94824 0.45907
 C726 C 0.32674 0.92759 0.43795
 C727 C 0.29719 0.90281 0.41011
 C728 C 0.30690 0.87285 0.42498
 C729 C 0.29839 0.84859 0.39601
 C730 C 0.28078 0.85418 0.35203
 C731 C 0.26796 0.88410 0.33728
 C732 C 0.27626 0.90840 0.36632
 C733 C 0.27997 0.82911 0.32225
 C734 C 0.28081 0.80724 0.29883
 H735 H 0.32530 0.86830 0.45858
 H736 H 0.30860 0.82551 0.40769
 H737 H 0.25431 0.88866 0.30334
 H738 H 0.27062 0.93153 0.35437
 C739 C 0.13607 0.05173 0.95898
 C740 C 0.17203 0.07239 0.93787
 C741 C 0.20160 0.09718 0.91005
 C742 C 0.19187 0.12714 0.92492
 C743 C 0.20054 0.15141 0.89598
 C744 C 0.21832 0.14582 0.85200
 C745 C 0.23111 0.11590 0.83725
 C746 C 0.22266 0.09160 0.86626
 C747 C 0.21936 0.17091 0.82225
 C748 C 0.21872 0.19278 0.79883
 H749 H 0.17337 0.13167 0.95852
 H750 H 0.19034 0.17448 0.90766
 H751 H 0.24487 0.11135 0.80330
 H752 H 0.22830 0.06847 0.85430
 C753 C 0.11172 0.94783 0.04917
 C754 C 0.13281 0.92690 0.07243
 C755 C 0.14247 0.90194 0.10159
 C756 C 0.21339 0.87800 0.09259
 C757 C 0.21356 0.85239 0.11910
 C758 C 0.14265 0.85071 0.15442
 C759 C 0.07253 0.87480 0.16376
 C760 C 0.07233 0.90044 0.13719
 C761 C 0.14881 0.82474 0.18188
 C762 C 0.16843 0.80251 0.20278
 H763 H 0.26715 0.87896 0.06493
 H764 H 0.26906 0.83388 0.11214
 H765 H 0.01839 0.87373 0.19130
 H766 H 0.01650 0.91889 0.14397
 C767 C 0.88835 0.44784 0.45076
 C768 C 0.86730 0.42691 0.42750
 C769 C 0.85772 0.40195 0.39834
 C770 C 0.78687 0.37799 0.40734
 C771 C 0.78680 0.35238 0.38082
 C772 C 0.85774 0.35072 0.34552
 C773 C 0.92780 0.37482 0.33618
 C774 C 0.92790 0.40046 0.36275
 C775 C 0.85166 0.32475 0.31805
 C776 C 0.83206 0.30251 0.29715
 H777 H 0.73309 0.37894 0.43499
 H778 H 0.73134 0.33386 0.38778
 H779 H 0.98197 0.37376 0.30865
 H780 H 0.98369 0.41893 0.35597
 C781 C 0.38717 0.05213 0.54926
 C782 C 0.36614 0.07306 0.57252
 C783 C 0.35663 0.09801 0.60169
 C784 C 0.42678 0.09947 0.63730
 C785 C 0.42680 0.12511 0.66386
 C786 C 0.35690 0.14925 0.65451
 C787 C 0.28598 0.14761 0.61919
 C788 C 0.28592 0.12200 0.59268
 C789 C 0.35094 0.17522 0.68197
 C790 C 0.33143 0.19747 0.70286
 H791 H 0.48246 0.08098 0.64408
 H792 H 0.48095 0.12615 0.69140
 H793 H 0.23064 0.16616 0.61222
 H794 H 0.23215 0.12108 0.56502
 C795 C 0.61278 0.55212 0.95073
 C796 C 0.63377 0.57305 0.92746
 C797 C 0.64319 0.59800 0.89830
 C798 C 0.71384 0.62200 0.90729
 C799 C 0.71368 0.64762 0.88079
 C800 C 0.64273 0.64923 0.84548
 C801 C 0.57287 0.62509 0.83614
 C802 C 0.57299 0.59945 0.86270
 C803 C 0.64864 0.67520 0.81801
 C804 C 0.66813 0.69744 0.79711
 H805 H 0.76764 0.62109 0.93494
 H806 H 0.76898 0.66618 0.88774
 H807 H 0.51870 0.62611 0.80861
 H808 H 0.51735 0.58094 0.85593
 C809 C 0.49037 0.43876 0.95042
 C810 C 0.48243 0.41734 0.92646
 C811 C 0.47046 0.39325 0.89556
 C812 C 0.45875 0.36312 0.90939
 C813 C 0.44101 0.34006 0.87917
 C814 C 0.43461 0.34707 0.83510
 C815 C 0.44883 0.37710 0.82114
 C816 C 0.46703 0.40017 0.85138
 C817 C 0.39823 0.32408 0.80565
 C818 C 0.35809 0.30426 0.78420
 H819 H 0.46133 0.35757 0.94346
 H820 H 0.42847 0.31693 0.89026
 H821 H 0.44226 0.38280 0.78719
 H822 H 0.47596 0.42347 0.84043
 C823 C 0.98938 0.06119 0.04950
 C824 C 0.98160 0.08261 0.07347
 C825 C 0.96987 0.10671 0.10438
 C826 C 0.95810 0.13683 0.09056
 C827 C 0.94063 0.15989 0.12080
 C828 C 0.93455 0.15289 0.16488
 C829 C 0.94883 0.12286 0.17883
 C830 C 0.96677 0.09979 0.14857
 C831 C 0.89835 0.17588 0.19435
 C832 C 0.85831 0.19571 0.21580
 H833 H 0.96042 0.14238 0.05649
 H834 H 0.92804 0.18303 0.10972
 H835 H 0.94253 0.11717 0.21278
 H836 H 0.97577 0.07649 0.15951
 C837 C 0.50945 0.93876 0.54959
 C838 C 0.51733 0.91734 0.57355
 C839 C 0.52924 0.89324 0.60445
 C840 C 0.54096 0.86312 0.59061
 C841 C 0.55866 0.84006 0.62083
 C842 C 0.56499 0.84706 0.66491
 C843 C 0.55078 0.87709 0.67888
 C844 C 0.53263 0.90016 0.64864
 C845 C 0.60132 0.82406 0.69435
 C846 C 0.64144 0.80424 0.71579
 H847 H 0.53843 0.85758 0.55654
 H848 H 0.57122 0.81693 0.60973
 H849 H 0.55732 0.88278 0.71282
 H850 H 0.52369 0.92346 0.65958
 C851 C 0.01082 0.56119 0.45044
 C852 C 0.01866 0.58261 0.42647
 C853 C 0.03044 0.60670 0.39556
 C854 C 0.04237 0.63682 0.40939
 C855 C 0.05988 0.65988 0.37915
 C856 C 0.06584 0.65288 0.33506
 C857 C 0.05137 0.62286 0.32110
 C858 C 0.03339 0.59979 0.35136
 C859 C 0.10207 0.67588 0.30559
 C860 C 0.14213 0.69570 0.28414
 H861 H 0.04015 0.64236 0.44346
 H862 H 0.07260 0.68301 0.39024
 H863 H 0.05756 0.61718 0.28715
 H864 H 0.02425 0.57650 0.34042
   
