data_POSCAR
  _audit_creation_date              2014-09-24
  _audit_creation_method            'ToBaCCo'
  _symmetry_space_group_name_H-M    'P1'
  _symmetry_Int_Tables_number       1
  _symmetry_cell_setting            triclinic
  loop_
  _symmetry_equiv_pos_as_xyz
 x,y,z
_cell_length_a 53.3156
_cell_length_b 53.4578
_cell_length_c 53.5672
_cell_angle_alpha 90.044400
_cell_angle_beta 90.030100
_cell_angle_gamma 89.954600
loop_
  _atom_site_label
  _atom_site_type_symbol
  _atom_site_fract_x
  _atom_site_fract_y
  _atom_site_fract_z
C1 C 0.33388 0.36991 1.35413
 C2 C 0.35164 0.37102 1.33487
 C3 C 0.37043 0.35315 1.33342
 C4 C 0.37169 0.33397 1.35121
 C5 C 0.35413 0.33287 1.37025
 C6 C 0.33511 0.35095 1.37172
 C7 C 0.31322 0.38434 1.35975
 N8 N 0.30211 0.37451 1.38024
 C9 C 0.31518 0.35413 1.38777
 C10 C 0.35950 0.31201 1.38436
 N11 N 0.37982 0.30065 1.37426
 C12 C 0.38748 0.31375 1.35403
 C13 C 0.38454 0.35847 1.31256
 N14 N 0.37470 0.37904 1.30153
 C15 C 0.35462 0.38692 1.31487
 H16 H 0.30661 0.40056 1.34956
 H17 H 0.31038 0.34238 1.40352
 H18 H 0.34926 0.30544 1.40054
 H19 H 0.40314 0.30879 1.34213
 H20 H 0.40055 0.34803 1.30573
 H21 H 0.34293 0.40281 1.31017
 C22 C 1.16777 0.63025 0.85348
 C23 C 1.14995 0.62900 0.83426
 C24 C 1.13099 0.64670 0.83290
 C25 C 1.12963 0.66586 0.85073
 C26 C 1.14725 0.66710 0.86974
 C27 C 1.16642 0.64919 0.87112
 C28 C 1.18857 0.61600 0.85903
 N29 N 1.19966 0.62592 0.87952
 C30 C 1.18643 0.64617 0.88713
 C31 C 1.14174 0.68790 0.88390
 N32 N 1.12129 0.69911 0.87387
 C33 C 1.11368 0.68594 0.85363
 C34 C 1.11686 0.64128 0.81206
 N35 N 1.12684 0.62080 0.80095
 C36 C 1.14703 0.61309 0.81423
 H37 H 1.19530 0.59985 0.84879
 H38 H 1.19118 0.65796 0.90289
 H39 H 1.15198 0.69456 0.90006
 H40 H 1.09794 0.69078 0.84177
 H41 H 1.10074 0.65158 0.80530
 H42 H 1.15884 0.59730 0.80947
 C43 C 0.66595 -0.13025 0.14667
 C44 C 0.64812 -0.12914 0.16588
 C45 C 0.62912 -0.14677 0.16702
 C46 C 0.62772 -0.16573 0.14896
 C47 C 0.64534 -0.16683 0.12997
 C48 C 0.66457 -0.14898 0.12882
 C49 C 0.68682 -0.11605 0.14135
 N50 N 0.69791 -0.12580 0.12078
 C51 C 0.68461 -0.14590 0.11291
 C52 C 0.63980 -0.18746 0.11558
 N53 N 0.61933 -0.19869 0.12546
 C54 C 0.61173 -0.18572 0.14583
 C55 C 0.61501 -0.14154 0.18791
 N56 N 0.62506 -0.12125 0.19927
 C57 C 0.64527 -0.11346 0.18610
 H58 H 0.69360 -0.10007 0.15180
 H59 H 0.68935 -0.15754 0.09703
 H60 H 0.65004 -0.19398 0.09937
 H61 H 0.59598 -0.19064 0.15762
 H62 H 0.59888 -0.15187 0.19455
 H63 H 0.65713 -0.09780 0.19107
 C64 C -0.16736 1.13141 -0.35424
 C65 C -0.14945 1.13022 -0.33510
 C66 C -0.13047 1.14788 -0.33390
 C67 C -0.12917 1.16693 -0.35182
 C68 C -0.14687 1.16811 -0.37075
 C69 C -0.16608 1.15025 -0.37197
 C70 C -0.18813 1.11711 -0.35969
 N71 N -0.19927 1.12689 -0.38021
 C72 C -0.18610 1.14711 -0.38793
 C73 C -0.14133 1.18875 -0.38510
 N74 N -0.12078 1.19990 -0.37525
 C75 C -0.11313 1.18687 -0.35494
 C76 C -0.11617 1.14246 -0.31318
 N77 N -0.12608 1.12203 -0.30198
 C78 C -0.14639 1.11435 -0.31509
 H79 H -0.19476 1.10098 -0.34940
 H80 H -0.19087 1.15875 -0.40378
 H81 H -0.15158 1.19530 -0.40129
 H82 H -0.09727 1.19168 -0.34323
 H83 H -0.09994 1.15269 -0.30658
 H84 H -0.15814 1.09856 -0.31026
 C85 C 0.66701 0.63144 0.64749
 C86 C 0.64912 0.63035 0.66663
 C87 C 0.63026 0.64817 0.66789
 C88 C 0.62907 0.66728 0.65002
 C89 C 0.64676 0.66835 0.63109
 C90 C 0.66584 0.65033 0.62982
 C91 C 0.68775 0.61707 0.64206
 N92 N 0.69899 0.62685 0.62162
 C93 C 0.68589 0.64714 0.61393
 C94 C 0.64143 0.68915 0.61687
 N95 N 0.62102 0.70050 0.62680
 C96 C 0.61325 0.68745 0.64702
 C97 C 0.61604 0.64290 0.68868
 N98 N 0.62587 0.62240 0.69986
 C99 C 0.64606 0.61453 0.68668
 H100 H 0.69437 0.60093 0.65234
 H101 H 0.69079 0.65884 0.59817
 H102 H 0.65177 0.69570 0.60075
 H103 H 0.59751 0.69242 0.65880
 H104 H 0.59996 0.65331 0.69536
 H105 H 0.65776 0.59869 0.69151
 C106 C 0.83338 0.36877 0.14659
 C107 C 0.85127 0.36969 0.16576
 C108 C 0.86998 0.35173 0.16699
 C109 C 0.87103 0.33262 0.14907
 C110 C 0.85334 0.33171 0.13011
 C111 C 0.83440 0.34988 0.12887
 C112 C 0.81278 0.38335 0.14116
 N113 N 0.80149 0.37368 0.12066
 C114 C 0.81439 0.35327 0.11293
 C115 C 0.85853 0.31090 0.11583
 N116 N 0.87887 0.29940 0.12574
 C117 C 0.88672 0.31236 0.14602
 C118 C 0.88427 0.35689 0.18779
 N119 N 0.87461 0.37746 0.19900
 C120 C 0.85448 0.38549 0.18583
 H121 H 0.80632 0.39955 0.15148
 H122 H 0.80944 0.34163 0.09711
 H123 H 0.84817 0.30447 0.09966
 H124 H 0.90243 0.30727 0.15780
 H125 H 0.90028 0.34635 0.19445
 H126 H 0.84291 0.40143 0.19067
 C127 C 0.33149 0.13004 0.85385
 C128 C 0.34942 0.12899 0.83473
 C129 C 0.36823 0.14683 0.83355
 C130 C 0.36934 0.16592 0.85147
 C131 C 0.35162 0.16697 0.87037
 C132 C 0.33259 0.14892 0.87157
 C133 C 0.31083 0.11558 0.85926
 N134 N 0.29957 0.12532 0.87974
 C135 C 0.31256 0.14566 0.88748
 C136 C 0.35693 0.18772 0.88467
 N137 N 0.37735 0.19909 0.87484
 C138 C 0.38514 0.18605 0.85458
 C139 C 0.38256 0.14155 0.81283
 N140 N 0.37284 0.12103 0.80160
 C141 C 0.35262 0.11314 0.81469
 H142 H 0.30432 0.09940 0.84895
 H143 H 0.30766 0.15732 0.90330
 H144 H 0.34661 0.19425 0.90082
 H145 H 0.40092 0.19103 0.84288
 H146 H 0.39866 0.15195 0.80624
 H147 H 0.34101 0.09725 0.80983
 C148 C 0.16728 0.87019 0.35228
 C149 C 0.14935 0.87124 0.33314
 C150 C 0.13050 0.85344 0.33196
 C151 C 0.12935 0.83438 0.34989
 C152 C 0.14707 0.83335 0.36880
 C153 C 0.16614 0.85135 0.37001
 C154 C 0.18804 0.88455 0.35763
 N155 N 0.19931 0.87480 0.37809
 C156 C 0.18623 0.85454 0.38587
 C157 C 0.14179 0.81259 0.38306
 N158 N 0.12138 0.80120 0.37320
 C159 C 0.11357 0.81423 0.35296
 C160 C 0.11623 0.85865 0.31116
 N161 N 0.12603 0.87910 0.29990
 C162 C 0.14624 0.88700 0.31304
 H163 H 0.19463 0.90065 0.34726
 H164 H 0.19115 0.84286 0.40165
 H165 H 0.15215 0.80606 0.39919
 H166 H 0.09782 0.80921 0.34121
 H167 H 0.10015 0.84823 0.30453
 H168 H 0.15793 0.90280 0.30815
 Zn169 Zn 0.01359 0.99475 -0.03150
 Zn170 Zn -0.00574 0.96848 0.01377
 Zn171 Zn 0.01841 1.01882 0.01878
 Zn172 Zn -0.03203 1.01397 -0.00540
 O173 O -0.00143 0.99902 -0.00107
 O174 O 0.02014 0.96261 -0.03846
 O175 O 0.01023 0.96612 0.04306
 O176 O 0.04667 1.02856 0.00345
 O177 O 0.00579 0.94312 -0.00488
 O178 O 0.04301 1.01067 -0.03372
 O179 O 0.02814 1.00334 0.04688
 O180 O -0.03440 1.04328 0.01058
 O181 O -0.03797 0.96159 0.02023
 O182 O 0.00289 1.04698 0.02853
 O183 O -0.05748 0.99532 0.00599
 O184 O -0.03891 1.02053 -0.03748
 O185 O -0.00506 1.00628 -0.05683
 C186 C 0.01622 0.94277 -0.02613
 C187 C 0.02368 0.98154 0.05505
 C188 C 0.05497 1.02410 -0.01828
 C189 C -0.01896 1.05522 0.02405
 C190 C -0.05785 0.97401 0.01634
 C191 C -0.02643 1.01668 -0.05723
 Zn192 Zn 0.49537 -0.03028 0.48577
 Zn193 Zn 0.51461 -0.00379 0.53101
 Zn194 Zn 0.51957 0.02000 0.48065
 Zn195 Zn 0.46906 0.01532 0.50467
 O196 O 0.49967 0.00033 0.50051
 O197 O 0.50682 -0.05555 0.50456
 O198 O 0.54400 0.01218 0.53331
 O199 O 0.52940 0.00436 0.45265
 O200 O 0.52115 -0.03589 0.53809
 O201 O 0.51145 -0.03282 0.45658
 O202 O 0.54779 0.02983 0.49606
 O203 O 0.46678 0.04458 0.48864
 O204 O 0.49585 0.00780 0.55624
 O205 O 0.50410 0.04813 0.47075
 O206 O 0.46205 0.02195 0.53670
 O207 O 0.44364 -0.00334 0.49319
 O208 O 0.46317 -0.03717 0.47918
 C209 C 0.51723 -0.05579 0.52583
 C210 C 0.55601 0.02551 0.51785
 C211 C 0.52496 -0.01749 0.44458
 C212 C 0.48227 0.05644 0.47517
 C213 C 0.47445 0.01814 0.55653
 C214 C 0.44329 -0.02471 0.48292
 Zn215 Zn 0.97007 0.48489 0.49544
 Zn216 Zn 1.02049 0.48006 0.51966
 Zn217 Zn 1.01568 0.50408 0.46938
 Zn218 Zn 0.99626 0.53038 0.51466
 O219 O 1.00064 0.49984 0.49980
 O220 O 0.96775 0.45557 0.51135
 O221 O 1.04882 0.47036 0.50437
 O222 O 0.99708 0.49250 0.44402
 O223 O 1.00503 0.45186 0.52932
 O224 O 0.96322 0.47831 0.46335
 O225 O 1.04515 0.48820 0.46719
 O226 O 1.00774 0.55574 0.49603
 O227 O 1.03013 0.49554 0.54781
 O228 O 1.02213 0.53622 0.46244
 O229 O 1.01219 0.53277 0.54398
 O230 O 0.96401 0.53728 0.52109
 O231 O 0.94457 0.50353 0.50682
 C232 C 0.98321 0.44361 0.52479
 C233 C 1.05713 0.47482 0.48265
 C234 C 0.97572 0.48213 0.44360
 C235 C 1.01816 0.55607 0.47478
 C236 C 1.02562 0.51735 0.55598
 C237 C 0.94416 0.52485 0.51717
 Zn238 Zn 0.48542 0.49572 0.97010
 Zn239 Zn 0.53096 0.51509 0.99625
 Zn240 Zn 0.48049 0.51985 1.02035
 Zn241 Zn 0.50486 0.46957 1.01544
 O242 O 0.50042 0.50007 1.00055
 O243 O 0.50405 0.50722 0.94476
 O244 O 0.53319 0.54445 1.01215
 O245 O 0.45217 0.52947 1.00497
 O246 O 0.53782 0.52161 0.96417
 O247 O 0.45596 0.51159 0.96781
 O248 O 0.49586 0.54809 1.03002
 O249 O 0.48896 0.46724 1.04475
 O250 O 0.55649 0.49651 1.00765
 O251 O 0.47085 0.50441 1.04849
 O252 O 0.53712 0.46272 1.02186
 O253 O 0.49335 0.44416 0.99686
 O254 O 0.47895 0.46357 0.96322
 C255 C 0.52538 0.51767 0.94439
 C256 C 0.51767 0.55639 1.02554
 C257 C 0.44392 0.52498 0.98322
 C258 C 0.47545 0.48264 1.05671
 C259 C 0.55695 0.47518 1.01796
 C260 C 0.48290 0.44376 0.97561
 C261 C 1.28127 0.38302 0.39076
 C262 C 1.26226 0.39076 0.40020
 C263 C 1.23946 0.40002 0.41122
 C264 C 1.23371 0.42553 0.41004
 C265 C 1.21131 0.43449 0.42024
 C266 C 1.19431 0.41800 0.43175
 C267 C 1.20034 0.39240 0.43298
 C268 C 1.22277 0.38348 0.42278
 C269 C 1.17022 0.42744 0.44202
 C270 C 1.14790 0.41382 0.43858
 C271 C 1.12510 0.42307 0.44758
 C272 C 1.12428 0.44600 0.46018
 C273 C 1.14641 0.45956 0.46393
 C274 C 1.16923 0.45036 0.45492
 C275 C 1.10066 0.45594 0.46859
 C276 C 1.08081 0.46445 0.47524
 H277 H 1.24645 0.43848 0.40104
 H278 H 1.20706 0.45423 0.41869
 H279 H 1.18779 0.37929 0.44198
 H280 H 1.22706 0.36370 0.42383
 H281 H 1.14798 0.39629 0.42844
 H282 H 1.10806 0.41248 0.44446
 H283 H 1.14599 0.47733 0.47366
 H284 H 1.18613 0.46112 0.45814
 C285 C 0.22061 0.61759 0.88997
 C286 C 0.23973 0.61005 0.89937
 C287 C 0.26266 0.60105 0.91036
 C288 C 0.26196 0.58310 0.92934
 C289 C 0.28428 0.57407 0.93970
 C290 C 0.30761 0.58291 0.93119
 C291 C 0.30809 0.60108 0.91219
 C292 C 0.28576 0.61006 0.90186
 C293 C 0.33137 0.57296 0.94175
 C294 C 0.35181 0.58896 0.94637
 C295 C 0.37441 0.57943 0.95560
 C296 C 0.37689 0.55381 0.96037
 C297 C 0.35660 0.53778 0.95608
 C298 C 0.33398 0.54726 0.94686
 C299 C 0.40045 0.54385 0.96894
 C300 C 0.42026 0.53533 0.97571
 H301 H 0.24417 0.57603 0.93610
 H302 H 0.28328 0.56032 0.95450
 H303 H 0.32574 0.60799 0.90499
 H304 H 0.28652 0.62389 0.88711
 H305 H 0.35028 0.60886 0.94293
 H306 H 0.39000 0.59201 0.95887
 H307 H 0.35836 0.51789 0.95958
 H308 H 0.31873 0.53442 0.94319
 C309 C -0.28108 0.88251 0.11050
 C310 C -0.26190 0.89003 0.10126
 C311 C -0.23888 0.89897 0.09045
 C312 C -0.23944 0.91437 0.06934
 C313 C -0.21707 0.92328 0.05904
 C314 C -0.19382 0.91686 0.06974
 C315 C -0.19348 0.90128 0.09091
 C316 C -0.21587 0.89242 0.10117
 C317 C -0.17004 0.92661 0.05911
 C318 C -0.14867 0.91122 0.05754
 C319 C -0.12611 0.92061 0.04814
 C320 C -0.12459 0.94549 0.04016
 C321 C -0.14579 0.96089 0.04144
 C322 C -0.16838 0.95153 0.05082
 C323 C -0.10114 0.95539 0.03131
 C324 C -0.08141 0.96381 0.02426
 H325 H -0.25716 0.91951 0.06086
 H326 H -0.21793 0.93499 0.04258
 H327 H -0.17593 0.89630 0.09979
 H328 H -0.21523 0.88058 0.11757
 H329 H -0.14943 0.89187 0.06347
 H330 H -0.10982 0.90852 0.04722
 H331 H -0.14479 0.98021 0.03543
 H332 H -0.18439 0.96394 0.05208
 C333 C 0.77986 0.11837 0.60934
 C334 C 0.76083 0.11061 0.59996
 C335 C 0.73802 0.10127 0.58903
 C336 C 0.72083 0.11783 0.57821
 C337 C 0.69840 0.10881 0.56809
 C338 C 0.69289 0.08308 0.56867
 C339 C 0.71039 0.06657 0.57944
 C340 C 0.73279 0.07564 0.58956
 C341 C 0.66881 0.07350 0.55849
 C342 C 0.66806 0.05094 0.54495
 C343 C 0.64527 0.04160 0.53600
 C344 C 0.62296 0.05467 0.54044
 C345 C 0.62353 0.07723 0.55369
 C346 C 0.64630 0.08661 0.56264
 C347 C 0.59940 0.04459 0.53202
 C348 C 0.57962 0.03597 0.52533
 H349 H 0.72471 0.13771 0.57766
 H350 H 0.68545 0.12194 0.55966
 H351 H 0.70655 0.04672 0.58049
 H352 H 0.74592 0.06267 0.59799
 H353 H 0.68510 0.04058 0.54118
 H354 H 0.64504 0.02412 0.52575
 H355 H 0.60635 0.08743 0.55734
 H356 H 0.64620 0.10384 0.57328
 C357 C 0.39008 0.27959 0.38244
 C358 C 0.39928 0.26037 0.38987
 C359 C 0.41001 0.23733 0.39876
 C360 C 0.43191 0.23764 0.41317
 C361 C 0.44210 0.21526 0.42211
 C362 C 0.43049 0.19224 0.41672
 C363 C 0.40854 0.19213 0.40210
 C364 C 0.39839 0.21453 0.39321
 C365 C 0.44096 0.16846 0.42659
 C366 C 0.44128 0.14675 0.41172
 C367 C 0.45046 0.12420 0.42129
 C368 C 0.45945 0.12305 0.44581
 C369 C 0.45944 0.14459 0.46067
 C370 C 0.45028 0.16716 0.45114
 C371 C 0.46799 0.09962 0.45597
 C372 C 0.47474 0.07993 0.46464
 H373 H 0.44109 0.25519 0.41753
 H374 H 0.45916 0.21593 0.43305
 H375 H 0.39897 0.17477 0.39793
 H376 H 0.38138 0.21409 0.38214
 H377 H 0.43454 0.14722 0.39266
 H378 H 0.45039 0.10764 0.40962
 H379 H 0.46623 0.14388 0.47972
 H380 H 0.44999 0.18346 0.46315
 C381 C 0.88977 0.22067 0.61625
 C382 C 0.89927 0.23961 0.60853
 C383 C 0.91039 0.26231 0.59931
 C384 C 0.90886 0.26820 0.57391
 C385 C 0.91923 0.29048 0.56498
 C386 C 0.93125 0.30719 0.58139
 C387 C 0.93282 0.30102 0.60688
 C388 C 0.92245 0.27872 0.61576
 C389 C 0.94173 0.33114 0.57198
 C390 C 0.93879 0.35337 0.58578
 C391 C 0.94799 0.37604 0.57657
 C392 C 0.96029 0.37681 0.55352
 C393 C 0.96355 0.35477 0.53978
 C394 C 0.95434 0.33208 0.54893
 C395 C 0.96888 0.40031 0.54362
 C396 C 0.97566 0.42005 0.53514
 H397 H 0.89948 0.25567 0.56103
 H398 H 0.91740 0.29485 0.54533
 H399 H 0.94222 0.31335 0.61991
 H400 H 0.92378 0.27431 0.63545
 H401 H 0.92888 0.35333 0.60342
 H402 H 0.94525 0.39301 0.58730
 H403 H 0.97305 0.35515 0.52190
 H404 H 0.95719 0.31525 0.53803
 C405 C 0.11090 0.72009 -0.11790
 C406 C 0.10156 0.73923 -0.11043
 C407 C 0.09065 0.76218 -0.10150
 C408 C 0.10115 0.78515 -0.10834
 C409 C 0.09083 0.80748 -0.09945
 C410 C 0.06982 0.80714 -0.08355
 C411 C 0.05933 0.78394 -0.07686
 C412 C 0.06969 0.76162 -0.08580
 C413 C 0.05916 0.83086 -0.07374
 C414 C 0.05124 0.83262 -0.04874
 C415 C 0.04184 0.85515 -0.03933
 C416 C 0.04018 0.87620 -0.05476
 C417 C 0.04777 0.87459 -0.07971
 C418 C 0.05720 0.85208 -0.08916
 C419 C 0.03129 0.89960 -0.04482
 C420 C 0.02420 0.91928 -0.03636
 H421 H 0.11743 0.78580 -0.12042
 H422 H 0.09955 0.82500 -0.10466
 H423 H 0.04299 0.78306 -0.06490
 H424 H 0.06138 0.74394 -0.08043
 H425 H 0.05282 0.81673 -0.03631
 H426 H 0.03612 0.85623 -0.01995
 H427 H 0.04655 0.89077 -0.09182
 H428 H 0.06283 0.85124 -0.10856
 C429 C 0.60890 0.78045 1.11699
 C430 C 0.59954 0.76142 1.10929
 C431 C 0.58862 0.73860 1.10008
 C432 C 0.58970 0.73294 1.07459
 C433 C 0.57960 0.71053 1.06566
 C434 C 0.56830 0.69343 1.08215
 C435 C 0.56718 0.69936 1.10773
 C436 C 0.57728 0.72181 1.11661
 C437 C 0.55814 0.66933 1.07274
 C438 C 0.56188 0.64707 1.08625
 C439 C 0.55294 0.62428 1.07704
 C440 C 0.54013 0.62342 1.05425
 C441 C 0.53609 0.64549 1.04079
 C442 C 0.54502 0.66830 1.04996
 C443 C 0.53175 0.59983 1.04435
 C444 C 0.52511 0.58001 1.03588
 H445 H 0.59853 0.74576 1.06164
 H446 H 0.58107 0.70635 1.04594
 H447 H 0.55834 0.68673 1.12084
 H448 H 0.57631 0.72602 1.13637
 H449 H 0.57219 0.64719 1.10367
 H450 H 0.55629 0.60729 1.08755
 H451 H 0.52618 0.64504 1.02313
 H452 H 0.54157 0.68515 1.03928
 C453 C 0.38340 0.38992 1.27938
 C454 C 0.39087 0.39915 1.26025
 C455 C 0.39976 0.40994 1.23730
 C456 C 0.41512 0.43115 1.23777
 C457 C 0.42403 0.44140 1.21546
 C458 C 0.41765 0.43055 1.19236
 C459 C 0.40210 0.40929 1.19211
 C460 C 0.39324 0.39907 1.21443
 C461 C 0.42746 0.44109 1.16865
 C462 C 0.41207 0.44249 1.14734
 C463 C 0.42155 0.45174 1.12483
 C464 C 0.44649 0.45971 1.12332
 C465 C 0.46188 0.45862 1.14446
 C466 C 0.45244 0.44940 1.16699
 C467 C 0.45651 0.46830 1.09991
 C468 C 0.46507 0.47509 1.08022
 H469 H 0.42024 0.43975 1.25537
 H470 H 0.43571 0.45794 1.21625
 H471 H 0.39715 0.40029 1.17468
 H472 H 0.38143 0.38259 1.21386
 H473 H 0.39268 0.43655 1.14810
 H474 H 0.40947 0.45251 1.10858
 H475 H 0.48126 0.46462 1.14346
 H476 H 0.46484 0.44826 1.18296
 C477 C 0.61644 -0.11059 0.22158
 C478 C 0.60904 -0.10156 0.24085
 C479 C 0.60021 -0.09106 0.26398
 C480 C 0.59419 -0.06561 0.26553
 C481 C 0.58550 -0.05550 0.28801
 C482 C 0.58273 -0.07073 0.30925
 C483 C 0.58887 -0.09628 0.30748
 C484 C 0.59754 -0.10635 0.28499
 C485 C 0.57328 -0.06014 0.33310
 C486 C 0.58376 -0.06763 0.35602
 C487 C 0.57439 -0.05820 0.37851
 C488 C 0.55447 -0.04115 0.37841
 C489 C 0.54408 -0.03338 0.35571
 C490 C 0.55343 -0.04277 0.33319
 C491 C 0.54425 -0.03225 0.40164
 C492 C 0.53553 -0.02525 0.42120
 H493 H 0.59625 -0.05359 0.24939
 H494 H 0.58120 -0.03571 0.28886
 H495 H 0.58661 -0.10857 0.32337
 H496 H 0.60206 -0.12609 0.28397
 H497 H 0.59927 -0.08071 0.35656
 H498 H 0.58259 -0.06434 0.39598
 H499 H 0.52856 -0.02028 0.35543
 H500 H 0.54476 -0.03687 0.31588
 C501 C -0.11713 1.11102 -0.27998
 C502 C -0.10944 1.10165 -0.26100
 C503 C -0.10024 1.09065 -0.23825
 C504 C -0.11673 1.07824 -0.22215
 C505 C -0.10787 1.06794 -0.19984
 C506 C -0.08237 1.06992 -0.19333
 C507 C -0.06593 1.08232 -0.20972
 C508 C -0.07483 1.09262 -0.23201
 C509 C -0.07299 1.05941 -0.16942
 C510 C -0.04962 1.04720 -0.16833
 C511 C -0.04055 1.03787 -0.14568
 C512 C -0.05468 1.04061 -0.12384
 C513 C -0.07803 1.05255 -0.12476
 C514 C -0.08715 1.06187 -0.14739
 C515 C -0.04493 1.03175 -0.10039
 C516 C -0.03659 1.02467 -0.08071
 H517 H -0.13643 1.07657 -0.22682
 H518 H -0.12092 1.05825 -0.18776
 H519 H -0.04628 1.08446 -0.20510
 H520 H -0.06193 1.10227 -0.24430
 H521 H -0.03843 1.04473 -0.18501
 H522 H -0.02245 1.02865 -0.14518
 H523 H -0.08906 1.05488 -0.10794
 H524 H -0.10505 1.07147 -0.14755
 C525 C 1.11813 0.60987 0.77881
 C526 C 1.11065 0.60060 0.75968
 C527 C 1.10171 0.58978 0.73673
 C528 C 1.08528 0.56939 0.73723
 C529 C 1.07629 0.55917 0.71492
 C530 C 1.08365 0.56923 0.69178
 C531 C 1.10029 0.58965 0.69150
 C532 C 1.10923 0.59985 0.71383
 C533 C 1.07375 0.55876 0.66805
 C534 C 1.08942 0.55617 0.64707
 C535 C 1.07989 0.54699 0.62454
 C536 C 1.05459 0.54027 0.62267
 C537 C 1.03890 0.54255 0.64348
 C538 C 1.04840 0.55171 0.66604
 C539 C 1.04457 0.53171 0.59922
 C540 C 1.03601 0.52493 0.57951
 H541 H 1.07937 0.56142 0.75487
 H542 H 1.06375 0.54327 0.71575
 H543 H 1.10603 0.59805 0.67402
 H544 H 1.12188 0.61569 0.71322
 H545 H 1.10908 0.56113 0.64812
 H546 H 1.09220 0.54528 0.60855
 H547 H 1.01926 0.53753 0.64220
 H548 H 1.03578 0.55379 0.68173
 C549 C 0.72112 0.61789 0.61070
 C550 C 0.74023 0.61021 0.60142
 C551 C 0.76316 0.60106 0.59058
 C552 C 0.76246 0.58291 0.57174
 C553 C 0.78477 0.57377 0.56149
 C554 C 0.80811 0.58269 0.56996
 C555 C 0.80859 0.60103 0.58881
 C556 C 0.78626 0.61013 0.59904
 C557 C 0.83186 0.57268 0.55945
 C558 C 0.85225 0.58868 0.55467
 C559 C 0.87481 0.57912 0.54539
 C560 C 0.87731 0.55348 0.54076
 C561 C 0.85709 0.53743 0.54526
 C562 C 0.83450 0.54695 0.55451
 C563 C 0.90081 0.54353 0.53201
 C564 C 0.92057 0.53507 0.52503
 H565 H 0.74467 0.57580 0.56502
 H566 H 0.78378 0.55988 0.54680
 H567 H 0.82625 0.60802 0.59597
 H568 H 0.78702 0.62411 0.61367
 H569 H 0.85070 0.60861 0.55798
 H570 H 0.89035 0.59171 0.54196
 H571 H 0.85887 0.51753 0.54185
 H572 H 0.81928 0.53410 0.55831
 C573 C 0.78066 0.38240 1.11028
 C574 C 0.76166 0.39033 1.10097
 C575 C 0.73887 0.39982 1.09010
 C576 C 0.72258 0.38367 1.07745
 C577 C 0.70018 0.39278 1.06736
 C578 C 0.69379 0.41822 1.06978
 C579 C 0.71039 0.43433 1.08239
 C580 C 0.73276 0.42517 1.09249
 C581 C 0.66975 0.42786 1.05956
 C582 C 0.66869 0.45136 1.04778
 C583 C 0.64592 0.46067 1.03872
 C584 C 0.62393 0.44663 1.04129
 C585 C 0.62482 0.42315 1.05279
 C586 C 0.64757 0.41380 1.06185
 C587 C 0.60038 0.45655 1.03267
 C588 C 0.58058 0.46499 1.02577
 H589 H 0.72715 0.36401 1.07547
 H590 H 0.68795 0.37998 1.05749
 H591 H 0.70585 0.45392 1.08487
 H592 H 0.74519 0.43781 1.10233
 H593 H 0.68549 0.46248 1.04545
 H594 H 0.64545 0.47886 1.02983
 H595 H 0.60789 0.41218 1.05499
 H596 H 0.64770 0.39580 1.07111
 C597 C 0.27873 1.11671 -0.10988
 C598 C 0.25972 1.10888 -0.10054
 C599 C 0.23692 1.09953 -0.08963
 C600 C 0.22024 1.11594 -0.07784
 C601 C 0.19784 1.10693 -0.06770
 C602 C 0.19184 1.08134 -0.06923
 C603 C 0.20883 1.06497 -0.08098
 C604 C 0.23121 1.07403 -0.09112
 C605 C 0.16780 1.07179 -0.05899
 C606 C 0.16690 1.04873 -0.04637
 C607 C 0.14412 1.03945 -0.03736
 C608 C 0.12197 1.05307 -0.04083
 C609 C 0.12270 1.07613 -0.05316
 C610 C 0.14545 1.08546 -0.06216
 C611 C 0.09840 1.04306 -0.03240
 C612 C 0.07860 1.03451 -0.02572
 H613 H 0.22451 1.13571 -0.07655
 H614 H 0.18530 1.11994 -0.05851
 H615 H 0.20460 1.04525 -0.08277
 H616 H 0.24394 1.06118 -0.10030
 H617 H 0.18382 1.03793 -0.04335
 H618 H 0.14377 1.02158 -0.02784
 H619 H 0.10564 1.08676 -0.05606
 H620 H 0.14547 1.10310 -0.07208
 C621 C 0.22029 -0.11676 0.38836
 C622 C 0.23945 -0.10913 0.39760
 C623 C 0.26243 -0.10008 0.40841
 C624 C 0.26181 -0.08442 0.42935
 C625 C 0.28416 -0.07543 0.43968
 C626 C 0.30744 -0.08203 0.42917
 C627 C 0.30784 -0.09787 0.40818
 C628 C 0.28548 -0.10681 0.39788
 C629 C 0.33120 -0.07223 0.43985
 C630 C 0.35251 -0.08767 0.44171
 C631 C 0.37504 -0.07824 0.45117
 C632 C 0.37659 -0.05328 0.45890
 C633 C 0.35546 -0.03782 0.45733
 C634 C 0.33289 -0.04722 0.44789
 C635 C 0.40003 -0.04335 0.46781
 C636 C 0.41974 -0.03491 0.47492
 H637 H 0.24407 -0.07914 0.43769
 H638 H 0.28324 -0.06353 0.45601
 H639 H 0.32542 -0.10300 0.39945
 H640 H 0.28617 -0.11886 0.38162
 H641 H 0.35171 -0.10709 0.43599
 H642 H 0.39129 -0.09037 0.45232
 H643 H 0.35649 -0.01843 0.46314
 H644 H 0.31693 -0.03478 0.44640
 C645 C 0.61078 -0.27848 0.61849
 C646 C 0.60159 -0.25930 0.61095
 C647 C 0.59085 -0.23631 0.60194
 C648 C 0.60218 -0.21345 0.60780
 C649 C 0.59200 -0.19109 0.59884
 C650 C 0.57032 -0.19131 0.58384
 C651 C 0.55901 -0.21440 0.57812
 C652 C 0.56922 -0.23674 0.58713
 C653 C 0.55978 -0.16757 0.57395
 C654 C 0.55083 -0.16619 0.54927
 C655 C 0.54153 -0.14367 0.53977
 C656 C 0.54100 -0.12225 0.55479
 C657 C 0.54963 -0.12347 0.57944
 C658 C 0.55896 -0.14597 0.58897
 C659 C 0.53219 -0.09888 0.54474
 C660 C 0.52516 -0.07924 0.53618
 H661 H 0.61898 -0.21291 0.61918
 H662 H 0.60134 -0.17367 0.60327
 H663 H 0.54215 -0.21515 0.56687
 H664 H 0.56027 -0.25434 0.58252
 H665 H 0.55152 -0.18239 0.53714
 H666 H 0.53500 -0.14289 0.52063
 H667 H 0.54929 -0.10700 0.59124
 H668 H 0.56540 -0.14651 0.60814
 C669 C 1.11062 0.77901 0.38203
 C670 C 1.10150 0.75984 0.38962
 C671 C 1.09087 0.73684 0.39868
 C672 C 1.06994 0.73730 0.41443
 C673 C 1.05985 0.71494 0.42349
 C674 C 1.07059 0.69180 0.41689
 C675 C 1.09156 0.69155 0.40095
 C676 C 1.10162 0.71393 0.39193
 C677 C 1.06020 0.66803 0.42682
 C678 C 1.05844 0.64671 0.41149
 C679 C 1.04924 0.62418 0.42104
 C680 C 1.04168 0.62265 0.44600
 C681 C 1.04316 0.64379 0.46135
 C682 C 1.05233 0.66635 0.45184
 C683 C 1.03298 0.59924 0.45602
 C684 C 1.02602 0.57956 0.46452
 H685 H 1.06143 0.75493 0.41973
 H686 H 1.04352 0.71573 0.43548
 H687 H 1.10047 0.67409 0.39581
 H688 H 1.11788 0.71336 0.37982
 H689 H 1.06403 0.64750 0.39208
 H690 H 1.04815 0.60793 0.40899
 H691 H 1.03747 0.64278 0.48074
 H692 H 1.05376 0.68232 0.46420
 C693 C -0.11100 1.27835 0.11736
 C694 C -0.10189 1.25915 0.10976
 C695 C -0.09124 1.23613 0.10069
 C696 C -0.10245 1.21327 0.10677
 C697 C -0.09235 1.19089 0.09776
 C698 C -0.07087 1.19106 0.08250
 C699 C -0.05967 1.21414 0.07658
 C700 C -0.06980 1.23651 0.08563
 C701 C -0.06043 1.16728 0.07257
 C702 C -0.05179 1.16581 0.04779
 C703 C -0.04263 1.14324 0.03823
 C704 C -0.04193 1.12187 0.05329
 C705 C -0.05024 1.12320 0.07803
 C706 C -0.05942 1.14574 0.08763
 C707 C -0.03335 1.09844 0.04315
 C708 C -0.02655 1.07874 0.03452
 H709 H -0.11911 1.21277 0.11834
 H710 H -0.10162 1.17347 0.10236
 H711 H -0.04295 1.21487 0.06514
 H712 H -0.06093 1.25410 0.08087
 H713 H -0.05263 1.18196 0.03563
 H714 H -0.03636 1.14238 0.01901
 H715 H -0.04976 1.10677 0.08986
 H716 H -0.06562 1.14636 0.10686
 C717 C 0.38821 0.22122 0.88374
 C718 C 0.39746 0.24034 0.89136
 C719 C 0.40831 0.26326 0.90041
 C720 C 0.42894 0.26262 0.91656
 C721 C 0.43929 0.28492 0.92554
 C722 C 0.42913 0.30815 0.91844
 C723 C 0.40844 0.30857 0.90211
 C724 C 0.39812 0.28627 0.89318
 C725 C 0.43982 0.33186 0.92824
 C726 C 0.44229 0.35290 0.91266
 C727 C 0.45176 0.37539 0.92208
 C728 C 0.45889 0.37716 0.94716
 C729 C 0.45671 0.35629 0.96276
 C730 C 0.44727 0.33378 0.95338
 C731 C 0.46781 0.40056 0.95704
 C732 C 0.47492 0.42025 0.96544
 H733 H 0.43701 0.24491 0.92222
 H734 H 0.45538 0.28399 0.93784
 H735 H 0.39997 0.32613 0.89658
 H736 H 0.38210 0.28697 0.88074
 H737 H 0.43703 0.35192 0.89316
 H738 H 0.45338 0.39143 0.90983
 H739 H 0.46207 0.35750 0.98224
 H740 H 0.44530 0.31803 0.96592
 C741 C 0.61706 0.61159 0.72200
 C742 C 0.60951 0.60240 0.74112
 C743 C 0.60053 0.59164 0.76405
 C744 C 0.60738 0.60225 0.78694
 C745 C 0.59848 0.59203 0.80925
 C746 C 0.58257 0.57104 0.80895
 C747 C 0.57587 0.56045 0.78583
 C748 C 0.58481 0.57070 0.76353
 C749 C 0.57279 0.56045 0.83265
 C750 C 0.54770 0.55249 0.83443
 C751 C 0.53833 0.54314 0.85694
 C752 C 0.55388 0.54156 0.87792
 C753 C 0.57892 0.54921 0.87629
 C754 C 0.58833 0.55859 0.85382
 C755 C 0.54399 0.53270 0.90129
 C756 C 0.53557 0.52563 0.92093
 H757 H 0.61947 0.61852 0.78755
 H758 H 0.60370 0.60082 0.82672
 H759 H 0.56390 0.54412 0.78500
 H760 H 0.57944 0.56231 0.74591
 H761 H 0.53518 0.55399 0.81858
 H762 H 0.51888 0.53738 0.85803
 H763 H 0.59113 0.54806 0.89242
 H764 H 0.60781 0.56426 0.85295
 C765 C 0.38186 0.11015 0.77956
 C766 C 0.38964 0.10092 0.76053
 C767 C 0.39898 0.09015 0.73772
 C768 C 0.42475 0.09010 0.73280
 C769 C 0.43382 0.08010 0.71043
 C770 C 0.41720 0.07001 0.69266
 C771 C 0.39133 0.07002 0.69787
 C772 C 0.38230 0.08003 0.72025
 C773 C 0.42680 0.05988 0.66867
 C774 C 0.41401 0.06465 0.64618
 C775 C 0.42338 0.05562 0.62353
 C776 C 0.44561 0.04170 0.62303
 C777 C 0.45837 0.03668 0.64531
 C778 C 0.44904 0.04570 0.66799
 C779 C 0.45560 0.03304 0.59961
 C780 C 0.46412 0.02607 0.57996
 H781 H 0.43781 0.09798 0.74615
 H782 H 0.45379 0.08068 0.70684
 H783 H 0.37809 0.06212 0.68471
 H784 H 0.36231 0.07993 0.72390
 H785 H 0.39704 0.07578 0.64604
 H786 H 0.41341 0.05972 0.60637
 H787 H 0.47558 0.02589 0.64514
 H788 H 0.45914 0.04144 0.68501
 C789 C 0.11717 0.88985 0.27774
 C790 C 0.10956 0.89897 0.25860
 C791 C 0.10048 0.90963 0.23564
 C792 C 0.10769 0.89925 0.21276
 C793 C 0.09864 0.90933 0.19043
 C794 C 0.08221 0.92994 0.19069
 C795 C 0.07515 0.94031 0.21381
 C796 C 0.08424 0.93021 0.23613
 C797 C 0.07221 0.94031 0.16697
 C798 C 0.04692 0.94766 0.16512
 C799 C 0.03734 0.95676 0.14258
 C800 C 0.05288 0.95869 0.12163
 C801 C 0.07811 0.95166 0.12333
 C802 C 0.08773 0.94253 0.14585
 C803 C 0.04277 0.96721 0.09822
 C804 C 0.03414 0.97398 0.07854
 H805 H 0.12018 0.88327 0.21217
 H806 H 0.10414 0.90070 0.17297
 H807 H 0.06277 0.95635 0.21462
 H808 H 0.07858 0.93842 0.25375
 H809 H 0.03442 0.94587 0.18093
 H810 H 0.01775 0.96204 0.14143
 H811 H 0.09031 0.95308 0.10723
 H812 H 0.10734 0.93734 0.14677
 C813 C 0.88354 0.38822 0.22114
 C814 C 0.89118 0.39737 0.24026
 C815 C 0.90026 0.40810 0.26320
 C816 C 0.89323 0.39768 0.28610
 C817 C 0.90221 0.40788 0.30841
 C818 C 0.91838 0.42867 0.30811
 C819 C 0.92528 0.43906 0.28498
 C820 C 0.91626 0.42883 0.26268
 C821 C 0.92822 0.43924 0.33182
 C822 C 0.95339 0.44693 0.33368
 C823 C 0.96280 0.45629 0.35619
 C824 C 0.94720 0.45815 0.37710
 C825 C 0.92208 0.45077 0.37539
 C826 C 0.91263 0.44139 0.35291
 C827 C 0.95712 0.46703 0.40047
 C828 C 0.96554 0.47413 0.42013
 H829 H 0.88092 0.38157 0.28671
 H830 H 0.89683 0.39923 0.32588
 H831 H 0.93745 0.45524 0.28414
 H832 H 0.92178 0.43708 0.24505
 H833 H 0.96594 0.44521 0.31788
 H834 H 0.98231 0.46184 0.35734
 H835 H 0.90983 0.45215 0.39147
 H836 H 0.89309 0.43594 0.35198
   
