data_POSCAR
  _audit_creation_date              2014-09-24
  _audit_creation_method            'ToBaCCo'
  _symmetry_space_group_name_H-M    'P1'
  _symmetry_Int_Tables_number       1
  _symmetry_cell_setting            triclinic
  loop_
  _symmetry_equiv_pos_as_xyz
 x,y,z
_cell_length_a 38.0211
_cell_length_b 37.3762
_cell_length_c 37.6743
_cell_angle_alpha 90.183100
_cell_angle_beta 90.053900
_cell_angle_gamma 90.571900
loop_
  _atom_site_label
  _atom_site_type_symbol
  _atom_site_fract_x
  _atom_site_fract_y
  _atom_site_fract_z
Si1 Si 1.25199 0.25106 0.25171
 Si2 Si 0.75035 -0.24974 0.25322
 Si3 Si 0.75088 0.25004 -0.24733
 Si4 Si 1.25062 -0.24978 -0.24800
 Si5 Si 0.24904 0.24961 0.74785
 Si6 Si 0.74970 0.75041 0.74675
 Si7 Si 0.74803 0.25003 0.24740
 Si8 Si 0.24974 0.74931 0.24790
 N9 N 0.96390 -0.03983 0.06430
 N10 N 0.94062 -0.04741 0.08922
 N11 N 1.03747 -0.06455 0.03903
 N12 N 1.06034 -0.08987 0.04637
 N13 N 1.03786 -0.03981 0.06390
 N14 N 1.06101 -0.04769 0.08880
 N15 N 0.96352 -0.06460 0.03947
 N16 N 0.93997 -0.08969 0.04685
 C17 C 0.92561 -0.07822 0.07760
 C18 C 1.07516 -0.07864 0.07714
 N19 N 1.03680 -0.03911 -0.06214
 N20 N 1.05972 -0.04656 -0.08735
 N21 N 0.96291 -0.06431 -0.03719
 N22 N 0.93964 -0.08964 -0.04491
 N23 N 0.96290 -0.03934 -0.06167
 N24 N 0.93962 -0.04704 -0.08666
 N25 N 1.03681 -0.06408 -0.03767
 N26 N 1.05974 -0.08918 -0.04559
 Mn27 Mn 1.00017 -0.06467 0.00090
 C28 C 1.07414 -0.07750 -0.07628
 C29 C 0.92498 -0.07811 -0.07546
 N30 N 1.03836 0.03754 0.06431
 N31 N 1.06180 0.04507 0.08919
 N32 N 0.96440 0.06240 0.04036
 N33 N 0.94154 0.08755 0.04831
 N34 N 0.96446 0.03747 0.06490
 N35 N 0.94162 0.04505 0.09017
 N36 N 1.03832 0.06257 0.03988
 N37 N 1.06174 0.08778 0.04752
 Mn38 Mn 1.00115 -0.00115 0.06464
 C39 C 1.07649 0.07610 0.07797
 C40 C 0.92721 0.07601 0.07909
 N41 N 0.96341 0.03796 -0.06120
 N42 N 0.94023 0.04564 -0.08610
 N43 N 1.03772 0.06296 -0.03682
 N44 N 1.06092 0.08832 -0.04445
 N45 N 1.03736 0.03819 -0.06166
 N46 N 1.06031 0.04606 -0.08682
 N47 N 0.96375 0.06278 -0.03641
 N48 N 0.94080 0.08800 -0.04384
 Mn49 Mn 1.00012 -0.00058 -0.06195
 Mn50 Mn 1.00105 0.06297 0.00176
 Cl51 Cl 1.00062 -0.00085 0.00134
 C52 C 0.92599 0.07656 -0.07456
 C53 C 1.07514 0.07703 -0.07534
 N54 N 1.03690 0.53819 0.56296
 N55 N 1.05923 0.54597 0.58877
 N56 N 0.96388 0.56351 0.53722
 N57 N 0.94110 0.58889 0.54467
 N58 N 0.96309 0.53854 0.56168
 N59 N 0.93976 0.54627 0.58642
 N60 N 1.03770 0.56314 0.53847
 N61 N 1.06059 0.58854 0.54698
 C62 C 1.07418 0.57703 0.57801
 C63 C 0.92593 0.57737 0.57504
 N64 N 0.96516 0.53901 0.43583
 N65 N 0.94228 0.54672 0.41068
 N66 N 1.03902 0.56355 0.46181
 N67 N 1.06202 0.58915 0.45432
 N68 N 1.03905 0.53879 0.43697
 N69 N 1.06208 0.54693 0.41195
 N70 N 0.96515 0.56375 0.46069
 N71 N 0.94227 0.58893 0.45314
 Mn72 Mn 1.00145 0.56377 0.49955
 C73 C 0.92792 0.57756 0.42224
 C74 C 1.07659 0.57802 0.42353
 N75 N 0.96196 0.46134 0.56127
 N76 N 0.93884 0.45342 0.58623
 N77 N 1.03585 0.43621 0.53769
 N78 N 1.05856 0.41091 0.54548
 N79 N 1.03582 0.46101 0.56249
 N80 N 1.05851 0.45325 0.58780
 N81 N 0.96197 0.43650 0.53650
 N82 N 0.93885 0.41102 0.54402
 Mn83 Mn 0.99944 0.49977 0.56237
 C84 C 0.92426 0.42237 0.57472
 C85 C 1.07282 0.42230 0.57645
 N86 N 1.03787 0.46149 0.43664
 N87 N 1.06140 0.45390 0.41207
 N88 N 0.96324 0.43683 0.45980
 N89 N 0.94013 0.41156 0.45146
 N90 N 0.96404 0.46175 0.43527
 N91 N 0.94149 0.45407 0.40961
 N92 N 1.03707 0.43653 0.46112
 N93 N 1.06004 0.41129 0.45385
 Mn94 Mn 1.00154 0.50026 0.43588
 Mn95 Mn 0.99952 0.43622 0.49877
 Cl96 Cl 1.00049 0.50000 0.49914
 C97 C 1.07533 0.42289 0.42357
 C98 C 0.92643 0.42307 0.42046
 N99 N 0.56091 0.03960 0.53751
 N100 N 0.58618 0.06270 0.54569
 N101 N 0.53818 -0.03595 0.56291
 N102 N 0.54635 -0.05902 0.58800
 N103 N 0.56239 -0.03547 0.53806
 N104 N 0.58767 -0.05819 0.54555
 N105 N 0.53665 0.03913 0.56233
 N106 N 0.54481 0.06189 0.58800
 C107 C 0.57533 0.07685 0.57681
 C108 C 0.57693 -0.07300 0.57641
 N109 N 0.43779 -0.03952 0.53875
 N110 N 0.41363 -0.06380 0.54665
 N111 N 0.46069 0.03668 0.56260
 N112 N 0.45265 0.06015 0.58750
 N113 N 0.43615 0.03553 0.53803
 N114 N 0.41079 0.05818 0.54555
 N115 N 0.46237 -0.03838 0.56328
 N116 N 0.45558 -0.06186 0.58851
 Mn117 Mn 0.49945 0.00038 0.56307
 C118 C 0.42550 -0.07784 0.57736
 C119 C 0.42182 0.07369 0.57608
 N120 N 0.56179 -0.03648 0.46162
 N121 N 0.58693 -0.05945 0.45435
 N122 N 0.53573 0.03739 0.43624
 N123 N 0.54294 0.06045 0.41071
 N124 N 0.56023 0.03858 0.46086
 N125 N 0.58471 0.06245 0.45273
 N126 N 0.53722 -0.03769 0.43708
 N127 N 0.54501 -0.06150 0.41244
 Mn128 Mn 0.56160 0.00158 0.49949
 C129 C 0.57572 -0.07517 0.42400
 C130 C 0.57316 0.07624 0.42178
 N131 N 0.43560 0.03450 0.46152
 N132 N 0.41037 0.05726 0.45399
 N133 N 0.46125 -0.04017 0.43733
 N134 N 0.45337 -0.06355 0.41210
 N135 N 0.43706 -0.04059 0.46222
 N136 N 0.41214 -0.06426 0.45457
 N137 N 0.45985 0.03495 0.43670
 N138 N 0.45177 0.05803 0.41161
 Mn139 Mn 0.43637 -0.00253 0.50015
 Mn140 Mn 0.49852 -0.00139 0.43653
 Cl141 Cl 0.49899 -0.00047 0.49981
 C142 C 0.42120 0.07205 0.42315
 C143 C 0.42308 -0.07877 0.42364
 N144 N 0.46296 0.56495 -0.03785
 N145 N 0.45600 0.59014 -0.06123
 N146 N 0.43726 0.54013 0.03624
 N147 N 0.41160 0.54832 0.05833
 N148 N 0.46185 0.56509 0.03667
 N149 N 0.45350 0.59092 0.05907
 N150 N 0.43832 0.54006 -0.03828
 N151 N 0.41392 0.54766 -0.06196
 C152 C 0.42573 0.57857 -0.07639
 C153 C 0.42247 0.57966 0.07280
 N154 N 0.46099 0.43807 0.03616
 N155 N 0.45325 0.41314 0.05970
 N156 N 0.43756 0.46292 -0.03852
 N157 N 0.41255 0.45497 -0.06164
 N158 N 0.46171 0.43800 -0.03834
 N159 N 0.45372 0.41244 -0.06134
 N160 N 0.43681 0.46295 0.03596
 N161 N 0.41198 0.45562 0.05936
 Mn162 Mn 0.43721 0.50150 -0.00116
 C163 C 0.42298 0.42485 0.07425
 C164 C 0.42340 0.42383 -0.07604
 N165 N 0.53784 0.56490 0.03762
 N166 N 0.54546 0.59015 0.06104
 N167 N 0.56291 0.54009 -0.03672
 N168 N 0.58804 0.54771 -0.05971
 N169 N 0.53878 0.56501 -0.03688
 N170 N 0.54687 0.59025 -0.06000
 N171 N 0.56203 0.54003 0.03775
 N172 N 0.58673 0.54769 0.06128
 Mn173 Mn 0.50037 0.56528 -0.00010
 C174 C 0.57562 0.57862 0.07592
 C175 C 0.57729 0.57869 -0.07435
 N176 N 0.53769 0.43799 -0.03750
 N177 N 0.54557 0.41257 -0.06050
 N178 N 0.56145 0.46293 0.03745
 N179 N 0.58612 0.45518 0.06078
 N180 N 0.53686 0.43798 0.03706
 N181 N 0.54418 0.41258 0.06013
 N182 N 0.56230 0.46293 -0.03708
 N183 N 0.58754 0.45514 -0.05980
 Mn184 Mn 0.49930 0.43770 -0.00066
 Mn185 Mn 0.56245 0.50150 0.00035
 Cl186 Cl 0.49983 0.50150 -0.00039
 C187 C 0.57636 0.42405 -0.07457
 C188 C 0.57460 0.42410 0.07508
 C189 C 1.21918 0.17126 0.18241
 C190 C 1.18286 0.17661 0.17993
 C191 C 1.16720 0.20411 0.19948
 C192 C 1.18776 0.22631 0.22126
 C193 C 1.22417 0.22119 0.22361
 C194 C 1.23975 0.19347 0.20421
 C195 C 1.16156 0.15414 0.15722
 C196 C 1.14318 0.13568 0.13839
 C197 C 1.12090 0.11449 0.11671
 C198 C 1.10111 0.09675 0.09867
 H199 H 1.23158 0.15007 0.16743
 H200 H 1.13912 0.20849 0.19775
 H201 H 1.17518 0.24760 0.23587
 H202 H 1.26784 0.18918 0.20575
 C203 C 1.20052 0.66243 0.70617
 C204 C 1.17694 0.67827 0.68256
 C205 C 1.17454 0.71558 0.68101
 C206 C 1.19617 0.73698 0.70251
 C207 C 1.22058 0.72122 0.72541
 C208 C 1.22216 0.68380 0.72764
 C209 C 1.15550 0.65621 0.65974
 C210 C 1.13756 0.63770 0.64060
 C211 C 1.11628 0.61618 0.61837
 C212 C 1.09752 0.59807 0.59968
 H213 H 1.20235 0.63357 0.70781
 H214 H 1.15621 0.72811 0.66299
 H215 H 1.19433 0.76582 0.70078
 H216 H 1.24013 0.67094 0.74567
 C217 C 0.66385 0.20782 0.70021
 C218 C 0.67784 0.17887 0.68146
 C219 C 0.71357 0.17077 0.68495
 C220 C 0.73528 0.19176 0.70683
 C221 C 0.72140 0.22097 0.72539
 C222 C 0.68553 0.22879 0.72206
 C223 C 0.65555 0.15773 0.65846
 C224 C 0.63684 0.14001 0.63927
 C225 C 0.61503 0.11890 0.61702
 C226 C 0.59667 0.10022 0.59838
 H227 H 0.63627 0.21436 0.69769
 H228 H 0.72469 0.14844 0.67056
 H229 H 0.76294 0.18547 0.70896
 H230 H 0.67426 0.25140 0.73579
 C231 C 0.68152 0.71527 0.17495
 C232 C 0.67792 0.67864 0.18176
 C233 C 0.69694 0.66314 0.20941
 C234 C 0.71905 0.68428 0.23060
 C235 C 0.72204 0.72124 0.22457
 C236 C 0.70363 0.73642 0.19615
 C237 C 0.65508 0.65687 0.16011
 C238 C 0.63614 0.63863 0.14176
 C239 C 0.61437 0.61741 0.11977
 C240 C 0.59629 0.59950 0.10025
 H241 H 0.66732 0.72743 0.15324
 H242 H 0.69468 0.63471 0.21460
 H243 H 0.73357 0.67147 0.25153
 H244 H 0.70656 0.76456 0.19005
 C245 C 0.79902 -0.16222 0.20601
 C246 C 0.81785 -0.17778 0.17811
 C247 C 0.81617 -0.21486 0.17280
 C248 C 0.79584 -0.23629 0.19535
 C249 C 0.77710 -0.22082 0.22343
 C250 C 0.77869 -0.18365 0.22857
 C251 C 0.83959 -0.15584 0.15553
 C252 C 0.85828 -0.13761 0.13696
 C253 C 0.88086 -0.11652 0.11568
 C254 C 0.90084 -0.09882 0.09799
 H255 H 0.80024 -0.13358 0.21045
 H256 H 0.83070 -0.22720 0.15136
 H257 H 0.79484 -0.26494 0.19100
 H258 H 0.76454 -0.17114 0.25012
 C259 C 0.82201 0.32567 0.71450
 C260 C 0.81952 0.32172 0.67761
 C261 C 0.79645 0.29612 0.66318
 C262 C 0.77601 0.27453 0.68551
 C263 C 0.77857 0.27819 0.72253
 C264 C 0.80159 0.30407 0.73684
 C265 C 0.84080 0.34374 0.65461
 C266 C 0.85896 0.36205 0.63556
 C267 C 0.88081 0.38331 0.61365
 C268 C 0.90016 0.40127 0.59549
 H269 H 0.83971 0.34544 0.72599
 H270 H 0.79423 0.29288 0.63468
 H271 H 0.75822 0.25518 0.67365
 H272 H 0.80360 0.30768 0.76530
 C273 C 0.32802 -0.18050 0.71614
 C274 C 0.32580 -0.18374 0.67918
 C275 C 0.30094 -0.20699 0.66393
 C276 C 0.27820 -0.22677 0.68555
 C277 C 0.27994 -0.22319 0.72260
 C278 C 0.30528 -0.20029 0.73777
 C279 C 0.34851 -0.16268 0.65688
 C280 C 0.36707 -0.14449 0.63823
 C281 C 0.38818 -0.12239 0.61659
 C282 C 0.40560 -0.10261 0.59843
 H283 H 0.34723 -0.16262 0.72820
 H284 H 0.29913 -0.20979 0.63536
 H285 H 0.25955 -0.24491 0.67317
 H286 H 0.30736 -0.19766 0.76634
 C287 C 0.30057 0.29915 0.16518
 C288 C 0.32249 0.32488 0.18112
 C289 C 0.32283 0.32871 0.21806
 C290 C 0.30154 0.30665 0.23901
 C291 C 0.27988 0.28044 0.22322
 C292 C 0.27926 0.27707 0.18613
 C293 C 0.34467 0.34722 0.15951
 C294 C 0.36316 0.36565 0.14100
 C295 C 0.38451 0.38680 0.11869
 C296 C 0.40237 0.40444 0.09888
 H297 H 0.30001 0.29611 0.13657
 H298 H 0.33958 0.34866 0.23065
 H299 H 0.30201 0.30996 0.26757
 H300 H 0.26247 0.25749 0.17321
 C301 C 0.78361 0.17069 -0.17796
 C302 C 0.81999 0.17640 -0.17553
 C303 C 0.83580 0.20379 -0.19534
 C304 C 0.81535 0.22565 -0.21705
 C305 C 0.77875 0.22065 -0.21896
 C306 C 0.76314 0.19258 -0.19968
 C307 C 0.84126 0.15415 -0.15300
 C308 C 0.85964 0.13589 -0.13435
 C309 C 0.88189 0.11487 -0.11289
 C310 C 0.90157 0.09723 -0.09505
 H311 H 0.77108 0.14929 -0.16315
 H312 H 0.86397 0.20827 -0.19400
 H313 H 0.82840 0.24632 -0.23220
 H314 H 0.73521 0.18723 -0.20171
 C315 C 0.78552 0.67866 0.32874
 C316 C 0.82203 0.67931 0.32423
 C317 C 0.83724 0.70178 0.29872
 C318 C 0.81597 0.72331 0.27753
 C319 C 0.77930 0.72235 0.28159
 C320 C 0.76427 0.70015 0.30758
 C321 C 0.84387 0.65687 0.34571
 C322 C 0.86235 0.63812 0.36358
 C323 C 0.88441 0.61644 0.38429
 C324 C 0.90385 0.59835 0.40177
 H325 H 0.77349 0.66150 0.34853
 H326 H 0.86551 0.70260 0.29515
 H327 H 0.82829 0.74050 0.25805
 H328 H 0.73605 0.69939 0.31142
 C329 C 0.28570 0.17170 0.32000
 C330 C 0.32185 0.17844 0.32303
 C331 C 0.33729 0.20652 0.30398
 C332 C 0.31662 0.22813 0.28235
 C333 C 0.28018 0.22213 0.27988
 C334 C 0.26500 0.19334 0.29836
 C335 C 0.34324 0.15630 0.34527
 C336 C 0.36131 0.13768 0.36369
 C337 C 0.38245 0.11556 0.38491
 C338 C 0.40034 0.09611 0.40264
 H339 H 0.27356 0.14967 0.33422
 H340 H 0.36533 0.21167 0.30579
 H341 H 0.32940 0.24931 0.26771
 H342 H 0.23724 0.18723 0.29577
 C343 C 0.30259 0.70340 -0.16345
 C344 C 0.32598 0.68030 -0.18047
 C345 C 0.32703 0.67880 -0.21756
 C346 C 0.30447 0.70006 -0.23755
 C347 C 0.28050 0.72271 -0.22060
 C348 C 0.28001 0.72465 -0.18344
 C349 C 0.34858 0.65793 -0.15978
 C350 C 0.36709 0.63923 -0.14191
 C351 C 0.38819 0.61760 -0.12019
 C352 C 0.40567 0.59948 -0.10075
 H353 H 0.30175 0.70489 -0.13473
 H354 H 0.34513 0.66112 -0.23099
 H355 H 0.30548 0.69859 -0.26625
 H356 H 0.26234 0.74246 -0.16974
 C357 C 1.20369 -0.16168 -0.20096
 C358 C 1.18005 -0.17741 -0.17704
 C359 C 1.17736 -0.21474 -0.17496
 C360 C 1.19845 -0.23622 -0.19648
 C361 C 1.22260 -0.22057 -0.22003
 C362 C 1.22480 -0.18316 -0.22247
 C363 C 1.15831 -0.15531 -0.15490
 C364 C 1.13985 -0.13696 -0.13645
 C365 C 1.11775 -0.11577 -0.11507
 C366 C 1.09827 -0.09804 -0.09713
 H367 H 1.20577 -0.13283 -0.20301
 H368 H 1.15899 -0.22722 -0.15673
 H369 H 1.19610 -0.26505 -0.19457
 H370 H 1.24264 -0.17041 -0.24094
 C371 C 1.19977 0.33778 0.29538
 C372 C 1.18160 0.32262 0.32398
 C373 C 1.18405 0.28590 0.33050
 C374 C 1.20490 0.26447 0.30871
 C375 C 1.22372 0.27960 0.28037
 C376 C 1.22061 0.31637 0.27360
 C377 C 1.15995 0.34463 0.34622
 C378 C 1.14149 0.36300 0.36460
 C379 C 1.11932 0.38428 0.38572
 C380 C 1.09970 0.40215 0.40331
 H381 H 1.19771 0.36611 0.28983
 H382 H 1.16979 0.27382 0.35235
 H383 H 1.20616 0.23618 0.31413
 H384 H 1.23391 0.32867 0.25135
 C385 C 0.67173 -0.18238 0.28863
 C386 C 0.67790 -0.18020 0.32518
 C387 C 0.70639 -0.19818 0.34010
 C388 C 0.72837 -0.21868 0.31859
 C389 C 0.72187 -0.22159 0.28199
 C390 C 0.69369 -0.20286 0.26712
 C391 C 0.65532 -0.15902 0.34720
 C392 C 0.63648 -0.14089 0.36537
 C393 C 0.61472 -0.11900 0.38625
 C394 C 0.59657 -0.09951 0.40372
 H395 H 0.64997 -0.16823 0.27675
 H396 H 0.71165 -0.19629 0.36831
 H397 H 0.75048 -0.23190 0.33068
 H398 H 0.68851 -0.20393 0.23897
 C399 C 0.69922 0.33814 -0.20525
 C400 C 0.67896 0.32320 -0.17798
 C401 C 0.68071 0.28646 -0.17125
 C402 C 0.70259 0.26476 -0.19170
 C403 C 0.72316 0.27958 -0.21896
 C404 C 0.72111 0.31644 -0.22573
 C405 C 0.65627 0.34545 -0.15697
 C406 C 0.63738 0.36388 -0.13905
 C407 C 0.61554 0.38519 -0.11748
 C408 C 0.59733 0.40311 -0.09837
 H409 H 0.69791 0.36651 -0.21088
 H410 H 0.66500 0.27454 -0.15033
 H411 H 0.70298 0.23641 -0.18639
 H412 H 0.73581 0.32855 -0.24716
 C413 C 1.16453 0.19798 -0.20415
 C414 C 1.18050 0.17851 -0.17694
 C415 C 1.21701 0.18073 -0.17223
 C416 C 1.23742 0.20221 -0.19472
 C417 C 1.22151 0.22157 -0.22213
 C418 C 1.18493 0.21944 -0.22664
 C419 C 1.15934 0.15615 -0.15410
 C420 C 1.14110 0.13757 -0.13537
 C421 C 1.11902 0.11605 -0.11390
 C422 C 1.09945 0.09800 -0.09602
 H423 H 1.13632 0.19647 -0.20807
 H424 H 1.22968 0.16582 -0.15127
 H425 H 1.26564 0.20360 -0.19086
 H426 H 1.17207 0.23405 -0.24765
 C427 C 1.21827 0.67882 0.32361
 C428 C 1.18154 0.68067 0.32231
 C429 C 1.16550 0.70425 0.29861
 C430 C 1.18599 0.72551 0.27598
 C431 C 1.22288 0.72312 0.27647
 C432 C 1.23880 0.70006 0.30101
 C433 C 1.16025 0.65825 0.34503
 C434 C 1.14203 0.63950 0.36368
 C435 C 1.12009 0.61769 0.38508
 C436 C 1.10069 0.59936 0.40290
 H437 H 1.23104 0.66086 0.34197
 H438 H 1.13710 0.70619 0.29760
 H439 H 1.17271 0.74370 0.25836
 H440 H 1.26719 0.69812 0.30246
 C441 C 0.66110 0.21105 0.30225
 C442 C 0.67434 0.18125 0.32000
 C443 C 0.70971 0.17207 0.31595
 C444 C 0.73172 0.19252 0.29410
 C445 C 0.71851 0.22217 0.27586
 C446 C 0.68309 0.23149 0.28041
 C447 C 0.65167 0.16004 0.34230
 C448 C 0.63290 0.14190 0.36086
 C449 C 0.61135 0.12001 0.38237
 C450 C 0.59351 0.10055 0.40053
 H451 H 0.63382 0.21855 0.30539
 H452 H 0.72030 0.14916 0.32972
 H453 H 0.75898 0.18510 0.29167
 H454 H 0.67235 0.25478 0.26755
 C455 C 0.71451 0.68120 -0.17481
 C456 C 0.67830 0.67858 -0.18122
 C457 C 0.66333 0.69800 -0.20896
 C458 C 0.68449 0.71964 -0.23048
 C459 C 0.72096 0.72178 -0.22474
 C460 C 0.73569 0.70284 -0.19636
 C461 C 0.65637 0.65649 -0.15903
 C462 C 0.63788 0.63820 -0.14035
 C463 C 0.61634 0.61709 -0.11811
 C464 C 0.59824 0.59936 -0.09855
 H465 H 0.72631 0.66669 -0.15306
 H466 H 0.63527 0.69653 -0.21388
 H467 H 0.67203 0.73463 -0.25133
 H468 H 0.76347 0.70517 -0.19044
 C469 C 0.78235 -0.18091 -0.17296
 C470 C 0.81884 -0.17878 -0.17778
 C471 C 0.83461 -0.19818 -0.20526
 C472 C 0.81404 -0.21950 -0.22789
 C473 C 0.77748 -0.22157 -0.22324
 C474 C 0.76177 -0.20225 -0.19559
 C475 C 0.84018 -0.15663 -0.15475
 C476 C 0.85855 -0.13821 -0.13585
 C477 C 0.88079 -0.11688 -0.11419
 C478 C 0.90049 -0.09896 -0.09620
 H479 H 0.76984 -0.16604 -0.15180
 H480 H 0.86280 -0.19673 -0.20927
 H481 H 0.82673 -0.23408 -0.24908
 H482 H 0.73358 -0.20359 -0.19161
 C483 C 0.79275 0.30187 0.33415
 C484 C 0.82050 0.32139 0.31899
 C485 C 0.82674 0.31893 0.28242
 C486 C 0.80518 0.29721 0.26111
 C487 C 0.77721 0.27784 0.27620
 C488 C 0.77120 0.28018 0.31286
 C489 C 0.84251 0.34390 0.34096
 C490 C 0.86105 0.36260 0.35940
 C491 C 0.88310 0.38420 0.38094
 C492 C 0.90247 0.40223 0.39914
 H493 H 0.78769 0.30355 0.36240
 H494 H 0.84817 0.33386 0.27040
 H495 H 0.81016 0.29572 0.23285
 H496 H 0.74969 0.26563 0.32510
 C497 C 0.28432 -0.18178 0.32423
 C498 C 0.32094 -0.18505 0.32261
 C499 C 0.33587 -0.20898 0.29845
 C500 C 0.31442 -0.22919 0.27568
 C501 C 0.27765 -0.22538 0.27644
 C502 C 0.26279 -0.20201 0.30148
 C503 C 0.34326 -0.16348 0.34526
 C504 C 0.36202 -0.14507 0.36378
 C505 C 0.38385 -0.12288 0.38504
 C506 C 0.40210 -0.10324 0.40284
 H507 H 0.27241 -0.16350 0.34297
 H508 H 0.36416 -0.21199 0.29717
 H509 H 0.32693 -0.24779 0.25782
 H510 H 0.23452 -0.19908 0.30322
 C511 C 0.28521 0.31934 -0.17404
 C512 C 0.32133 0.32194 -0.18088
 C513 C 0.33595 0.30223 -0.20870
 C514 C 0.31454 0.28037 -0.22992
 C515 C 0.27814 0.27830 -0.22381
 C516 C 0.26376 0.29747 -0.19529
 C517 C 0.34353 0.34438 -0.15913
 C518 C 0.36226 0.36300 -0.14085
 C519 C 0.38407 0.38454 -0.11909
 C520 C 0.40235 0.40266 -0.09991
 H521 H 0.27368 0.33407 -0.15223
 H522 H 0.36395 0.30368 -0.21395
 H523 H 0.32675 0.26522 -0.25087
 H524 H 0.23605 0.29520 -0.18909
 C525 C 1.20701 -0.16383 0.19911
 C526 C 1.18312 -0.17956 0.17528
 C527 C 1.18038 -0.21690 0.17326
 C528 C 1.20100 -0.23835 0.19527
 C529 C 1.22433 -0.22275 0.21998
 C530 C 1.22763 -0.18523 0.22116
 C531 C 1.16106 -0.15740 0.15338
 C532 C 1.14220 -0.13894 0.13539
 C533 C 1.11956 -0.11750 0.11469
 C534 C 1.09969 -0.09952 0.09736
 H535 H 1.20963 -0.13498 0.20073
 H536 H 1.16216 -0.22946 0.15481
 H537 H 1.19836 -0.26718 0.19326
 H538 H 1.24608 -0.17214 0.23887
 C539 C 1.19529 0.29220 0.66190
 C540 C 1.17801 0.32156 0.67670
 C541 C 1.18149 0.32890 0.71299
 C542 C 1.20250 0.30722 0.73431
 C543 C 1.22045 0.27814 0.71951
 C544 C 1.21628 0.27053 0.68320
 C545 C 1.15635 0.34382 0.65474
 C546 C 1.13800 0.36229 0.63640
 C547 C 1.11606 0.38363 0.61511
 C548 C 1.09673 0.40152 0.59723
 H549 H 1.19246 0.28601 0.63392
 H550 H 1.16796 0.35134 0.72481
 H551 H 1.20458 0.31331 0.76225
 H552 H 1.22891 0.24772 0.67118
 C553 C 0.70115 -0.16227 0.70022
 C554 C 0.67933 -0.17830 0.67464
 C555 C 0.67926 -0.21548 0.67031
 C556 C 0.70063 -0.23658 0.69176
 C557 C 0.72212 -0.22074 0.71787
 C558 C 0.72255 -0.18339 0.72169
 C559 C 0.65687 -0.15662 0.65300
 C560 C 0.63806 -0.13827 0.63506
 C561 C 0.61624 -0.11634 0.61431
 C562 C 0.59798 -0.09699 0.59684
 H563 H 0.70151 -0.13348 0.70366
 H564 H 0.66260 -0.22816 0.65050
 H565 H 0.70025 -0.26534 0.68813
 H566 H 0.73919 -0.17042 0.74124
 C567 C 0.70155 0.33858 0.20093
 C568 C 0.67578 0.32312 0.17902
 C569 C 0.67214 0.28585 0.17734
 C570 C 0.69413 0.26415 0.19752
 C571 C 0.72011 0.27948 0.21944
 C572 C 0.72356 0.31687 0.22115
 C573 C 0.65322 0.34541 0.15807
 C574 C 0.63450 0.36386 0.14013
 C575 C 0.61295 0.38520 0.11845
 C576 C 0.59506 0.40314 0.09916
 H577 H 0.70455 0.36740 0.20248
 H578 H 0.65224 0.27359 0.16053
 H579 H 0.69068 0.23537 0.19629
 H580 H 0.74297 0.32945 0.23820
 C581 C 0.79277 0.19641 0.16177
 C582 C 0.81989 0.17707 0.17763
 C583 C 0.82564 0.18013 0.21424
 C584 C 0.80416 0.20210 0.23489
 C585 C 0.77647 0.22100 0.21925
 C586 C 0.77130 0.21839 0.18241
 C587 C 0.84212 0.15458 0.15629
 C588 C 0.86092 0.13597 0.13840
 C589 C 0.88333 0.11451 0.11753
 C590 C 0.90298 0.09663 0.09985
 H591 H 0.78829 0.19459 0.13341
 H592 H 0.84684 0.16569 0.22678
 H593 H 0.80952 0.20465 0.26300
 H594 H 0.75085 0.23325 0.16934
 C595 C 0.80246 0.70734 0.66022
 C596 C 0.82022 0.67831 0.67491
 C597 C 0.81732 0.67132 0.71127
 C598 C 0.79644 0.69304 0.73277
 C599 C 0.77803 0.72180 0.71810
 C600 C 0.78159 0.72905 0.68171
 C601 C 0.84185 0.65607 0.65282
 C602 C 0.86023 0.63758 0.63444
 C603 C 0.88229 0.61620 0.61322
 C604 C 0.90176 0.59825 0.59550
 H605 H 0.80484 0.71326 0.63219
 H606 H 0.83123 0.64914 0.72301
 H607 H 0.79482 0.68723 0.76076
 H608 H 0.76860 0.75162 0.66976
 C609 C 0.29765 0.16245 0.70059
 C610 C 0.31908 0.17855 0.67486
 C611 C 0.31878 0.21571 0.67060
 C612 C 0.29746 0.23672 0.69228
 C613 C 0.27639 0.22081 0.71856
 C614 C 0.27630 0.18348 0.72230
 C615 C 0.34159 0.15700 0.65307
 C616 C 0.36047 0.13876 0.63500
 C617 C 0.38239 0.11696 0.61413
 C618 C 0.40072 0.09768 0.59658
 H619 H 0.29758 0.13367 0.70398
 H620 H 0.33514 0.22845 0.65069
 H621 H 0.29759 0.26547 0.68873
 H622 H 0.25999 0.17046 0.74198
 C623 C 0.29395 0.66357 0.19840
 C624 C 0.31771 0.67990 0.17500
 C625 C 0.31926 0.71726 0.17282
 C626 C 0.29779 0.73818 0.19454
 C627 C 0.27484 0.72199 0.21909
 C628 C 0.27248 0.68443 0.22016
 C629 C 0.34067 0.65833 0.15352
 C630 C 0.35993 0.64023 0.13561
 C631 C 0.38229 0.61902 0.11442
 C632 C 0.40098 0.60099 0.09584
 H633 H 0.29220 0.63467 0.20000
 H634 H 0.33731 0.73024 0.15460
 H635 H 0.29974 0.76706 0.19270
 H636 H 0.25435 0.67089 0.23775
   
