data_POSCAR
  _audit_creation_date              2014-09-24
  _audit_creation_method            'ToBaCCo'
  _symmetry_space_group_name_H-M    'P1'
  _symmetry_Int_Tables_number       1
  _symmetry_cell_setting            triclinic
  loop_
  _symmetry_equiv_pos_as_xyz
 x,y,z
_cell_length_a 23.9959
_cell_length_b 23.9956
_cell_length_c 23.9754
_cell_angle_alpha 89.936200
_cell_angle_beta 90.188900
_cell_angle_gamma 90.000000
loop_
  _atom_site_label
  _atom_site_type_symbol
  _atom_site_fract_x
  _atom_site_fract_y
  _atom_site_fract_z
O1 O -0.14410 0.07525 0.00129
 O2 O 0.14276 0.07528 -0.00232
 O3 O -0.00252 0.14329 0.07479
 O4 O 0.00107 0.14356 -0.07618
 O5 O 0.00095 0.07561 -0.14426
 O6 O -0.00244 0.07518 0.14298
 O7 O 0.07475 0.14338 -0.00246
 O8 O -0.07600 0.14330 0.00134
 Zr9 Zr -0.00066 0.09801 -0.00066
 O10 O 0.04981 0.05057 -0.05119
 O11 O -0.05109 0.05034 0.04988
 C12 C -0.12734 0.12659 0.00236
 C13 C 0.12611 0.12667 -0.00333
 C14 C -0.00345 0.12656 0.12621
 C15 C 0.00194 0.12704 -0.12766
 H16 H 0.07353 0.07393 0.07371
 O17 O 0.04968 0.05017 0.04989
 H18 H -0.07499 0.07411 -0.07489
 O19 O -0.05118 0.05029 -0.05103
 O20 O 0.14259 -0.07544 0.00168
 O21 O -0.14435 -0.07559 -0.00255
 O22 O 0.07490 -0.00234 0.14307
 O23 O 0.07451 0.00187 -0.14408
 O24 O -0.07635 -0.00195 -0.14422
 O25 O -0.07584 0.00189 0.14294
 O26 O 0.00116 -0.14377 0.07528
 O27 O -0.00306 -0.14344 -0.07571
 O28 O 0.00134 -0.07576 0.14330
 O29 O -0.00304 -0.07534 -0.14393
 O30 O 0.14279 -0.00221 0.07498
 O31 O -0.14403 0.00193 0.07472
 O32 O -0.14427 -0.00214 -0.07622
 O33 O 0.14263 0.00176 -0.07582
 O34 O 0.07452 -0.14353 0.00180
 O35 O -0.07638 -0.14366 -0.00231
 Zr36 Zr 0.09730 -0.00009 -0.00046
 Zr37 Zr -0.09884 -0.00016 -0.00067
 Zr38 Zr -0.00058 -0.00025 0.09769
 Zr39 Zr -0.00088 0.00007 -0.09875
 Zr40 Zr -0.00089 -0.09825 -0.00030
 O41 O -0.05134 -0.05059 -0.05113
 O42 O 0.04986 -0.05071 0.05017
 C43 C 0.12587 -0.12678 0.00278
 C44 C -0.12780 -0.12703 -0.00336
 C45 C 0.12619 -0.00332 0.12635
 C46 C 0.12593 0.00274 -0.12729
 C47 C -0.12770 -0.00306 -0.12762
 C48 C -0.12722 0.00295 0.12614
 C49 C 0.00221 -0.12722 0.12676
 C50 C -0.00409 -0.12667 -0.12710
 H51 H -0.07486 -0.07432 0.07373
 O52 O -0.05111 -0.05053 0.04993
 H53 H 0.07312 -0.07419 -0.07449
 O54 O 0.04937 -0.05042 -0.05075
 O55 O 0.35682 0.57596 0.00220
 O56 O 0.64346 0.57625 -0.00128
 O57 O 0.49825 0.64417 0.07607
 O58 O 0.50213 0.64400 -0.07475
 O59 O 0.50194 0.57601 -0.14291
 O60 O 0.49836 0.57613 0.14421
 O61 O 0.57554 0.64413 -0.00127
 O62 O 0.42469 0.64391 0.00242
 Zr63 Zr 0.50012 0.59870 0.00063
 O64 O 0.55043 0.55120 -0.05000
 O65 O 0.44958 0.55115 0.05103
 C66 C 0.37312 0.62753 0.00327
 C67 C 0.62718 0.62788 -0.00225
 C68 C 0.49736 0.62757 0.12756
 C69 C 0.50312 0.62728 -0.12609
 H70 H 0.57441 0.57485 0.07489
 O71 O 0.55057 0.55105 0.05110
 H72 H 0.42585 0.57483 -0.07379
 O73 O 0.44969 0.55102 -0.04996
 O74 O 0.64330 0.42534 0.00276
 O75 O 0.35669 0.42522 -0.00171
 O76 O 0.57582 0.49860 0.14422
 O77 O 0.57522 0.50263 -0.14297
 O78 O 0.42421 0.49887 -0.14330
 O79 O 0.42479 0.50261 0.14391
 O80 O 0.50218 0.35726 0.07582
 O81 O 0.49801 0.35718 -0.07486
 O82 O 0.50234 0.42519 0.14403
 O83 O 0.49786 0.42519 -0.14310
 O84 O 0.64369 0.49866 0.07617
 O85 O 0.35669 0.50256 0.07557
 O86 O 0.35634 0.49885 -0.07528
 O87 O 0.64339 0.50278 -0.07471
 O88 O 0.57533 0.35749 0.00264
 O89 O 0.42461 0.35735 -0.00154
 Zr90 Zr 0.59811 0.50078 0.00068
 Zr91 Zr 0.40202 0.50062 0.00026
 Zr92 Zr 0.50023 0.50069 0.09878
 Zr93 Zr 0.49982 0.50062 -0.09773
 Zr94 Zr 0.49999 0.40272 0.00048
 O95 O 0.44930 0.45007 -0.05029
 O96 O 0.55062 0.45021 0.05116
 C97 C 0.62692 0.37377 0.00370
 C98 C 0.37300 0.37362 -0.00261
 C99 C 0.62719 0.49761 0.12760
 C100 C 0.62663 0.50369 -0.12617
 C101 C 0.37279 0.49794 -0.12675
 C102 C 0.37341 0.50356 0.12703
 C103 C 0.50332 0.37388 0.12722
 C104 C 0.49697 0.37380 -0.12633
 H105 H 0.42604 0.42652 0.07456
 O106 O 0.44981 0.45036 0.05084
 H107 H 0.57405 0.42661 -0.07353
 O108 O 0.55031 0.45041 -0.04980
 O109 O -0.14378 0.57570 0.50171
 O110 O 0.14315 0.57544 0.49821
 O111 O -0.00228 0.64329 0.57523
 O112 O 0.00149 0.64366 0.42416
 O113 O 0.00145 0.57575 0.35629
 O114 O -0.00213 0.57532 0.64325
 O115 O 0.07508 0.64353 0.49790
 O116 O -0.07575 0.64373 0.50166
 Zr117 Zr -0.00032 0.59824 0.49977
 O118 O 0.05026 0.55073 0.44948
 O119 O -0.05064 0.55065 0.55043
 C120 C -0.12718 0.62714 0.50265
 C121 C 0.12643 0.62678 0.49704
 C122 C -0.00326 0.62689 0.62684
 C123 C 0.00239 0.62740 0.37249
 H124 H 0.07393 0.57423 0.57425
 O125 O 0.05012 0.55046 0.55038
 H126 H -0.07458 0.57442 0.42551
 O127 O -0.05077 0.55062 0.44939
 O128 O 0.14327 0.42472 0.50228
 O129 O -0.14362 0.42486 0.49775
 O130 O 0.07547 0.49820 0.64374
 O131 O 0.07495 0.50234 0.35672
 O132 O -0.07588 0.49824 0.35639
 O133 O -0.07531 0.50202 0.64337
 O134 O 0.00172 0.35666 0.57567
 O135 O -0.00229 0.35697 0.42459
 O136 O 0.00189 0.42449 0.64362
 O137 O -0.00245 0.42494 0.35660
 O138 O 0.14330 0.49830 0.57593
 O139 O -0.14338 0.50221 0.57533
 O140 O -0.14369 0.49826 0.42423
 O141 O 0.14295 0.50215 0.42483
 O142 O 0.07520 0.35666 0.50216
 O143 O -0.07552 0.35680 0.49789
 Zr144 Zr 0.09783 0.50010 0.50026
 Zr145 Zr -0.09831 0.50026 0.49983
 Zr146 Zr -0.00002 0.49998 0.59809
 Zr147 Zr -0.00040 0.50031 0.40190
 Zr148 Zr -0.00017 0.40211 0.50011
 O149 O -0.05081 0.44972 0.44942
 O150 O 0.05052 0.44944 0.55082
 C151 C 0.12659 0.37333 0.50320
 C152 C -0.12687 0.37351 0.49677
 C153 C 0.12710 0.49736 0.62758
 C154 C 0.12656 0.50325 0.37316
 C155 C -0.12746 0.49726 0.37261
 C156 C -0.12695 0.50312 0.62700
 C157 C 0.00271 0.37286 0.62735
 C158 C -0.00338 0.37333 0.37294
 H159 H -0.07425 0.42601 0.57413
 O160 O -0.05051 0.44979 0.55031
 H161 H 0.07377 0.42612 0.42598
 O162 O 0.05003 0.44988 0.44976
 O163 O 0.35723 0.07476 0.50173
 O164 O 0.64377 0.07472 0.49810
 O165 O 0.49866 0.14272 0.57537
 O166 O 0.50245 0.14260 0.42462
 O167 O 0.50237 0.07477 0.35664
 O168 O 0.49874 0.07483 0.64340
 O169 O 0.57579 0.14258 0.49797
 O170 O 0.42511 0.14268 0.50180
 Zr171 Zr 0.50048 0.09730 0.50001
 O172 O 0.55095 0.04987 0.44954
 O173 O 0.44998 0.05000 0.55055
 C174 C 0.37351 0.12637 0.50274
 C175 C 0.62737 0.12629 0.49699
 C176 C 0.49772 0.12644 0.62704
 C177 C 0.50343 0.12633 0.37301
 H178 H 0.57480 0.07352 0.57427
 O179 O 0.55101 0.04972 0.55043
 H180 H 0.42628 0.07353 0.42564
 O181 O 0.45012 0.04973 0.44949
 O182 O 0.64401 -0.07612 0.50218
 O183 O 0.35740 -0.07592 0.49780
 O184 O 0.57607 -0.00258 0.64351
 O185 O 0.57563 0.00154 0.35673
 O186 O 0.42497 -0.00267 0.35656
 O187 O 0.42528 0.00128 0.64331
 O188 O 0.50289 -0.14376 0.57538
 O189 O 0.49857 -0.14399 0.42443
 O190 O 0.50287 -0.07581 0.64326
 O191 O 0.49841 -0.07601 0.35647
 O192 O 0.64391 -0.00272 0.57569
 O193 O 0.35733 0.00125 0.57518
 O194 O 0.35722 -0.00263 0.42446
 O195 O 0.64370 0.00150 0.42477
 O196 O 0.57612 -0.14404 0.50202
 O197 O 0.42527 -0.14388 0.49785
 Zr198 Zr 0.59855 -0.00069 0.50015
 Zr199 Zr 0.40264 -0.00060 0.49988
 Zr200 Zr 0.50065 -0.00054 0.59801
 Zr201 Zr 0.50040 -0.00065 0.40195
 Zr202 Zr 0.50068 -0.09863 0.49991
 O203 O 0.44995 -0.05117 0.44935
 O204 O 0.55115 -0.05116 0.55066
 C205 C 0.62775 -0.12777 0.50308
 C206 C 0.37369 -0.12750 0.49680
 C207 C 0.62764 -0.00365 0.62728
 C208 C 0.62724 0.00259 0.37312
 C209 C 0.37344 -0.00367 0.37286
 C210 C 0.37364 0.00222 0.62687
 C211 C 0.50396 -0.12735 0.62695
 C212 C 0.49750 -0.12766 0.37275
 H213 H 0.42662 -0.07477 0.57405
 O214 O 0.45039 -0.05099 0.55026
 H215 H 0.57468 -0.07477 0.42585
 O216 O 0.55093 -0.05101 0.44962
 C217 C 0.24630 0.24683 -0.00551
 C218 C 0.23128 0.30316 -0.00546
 C219 C 0.27241 0.34443 -0.00481
 C220 C 0.16838 0.16889 -0.00455
 C221 C 0.34388 0.27301 -0.00451
 C222 C 0.30264 0.23185 -0.00516
 C223 C 0.20390 0.20441 -0.00520
 C224 C 0.32929 0.32988 -0.00414
 H225 H 0.18777 0.31521 -0.00570
 H226 H 0.25957 0.38769 -0.00460
 H227 H 0.38714 0.26020 -0.00406
 H228 H 0.31472 0.18834 -0.00516
 C229 C 0.24675 -0.25365 0.49406
 C230 C 0.23190 -0.19730 0.49384
 C231 C 0.27315 -0.15623 0.49438
 C232 C 0.16865 -0.33113 0.49555
 C233 C 0.34438 -0.22793 0.49502
 C234 C 0.30301 -0.26890 0.49448
 C235 C 0.20425 -0.29580 0.49464
 C236 C 0.32995 -0.17105 0.49521
 H237 H 0.18842 -0.18510 0.49353
 H238 H 0.26045 -0.11292 0.49441
 H239 H 0.38761 -0.24090 0.49557
 H240 H 0.31489 -0.31247 0.49467
 C241 C 0.75407 0.75487 -0.00525
 C242 C 0.76901 0.69849 -0.00498
 C243 C 0.72785 0.65720 -0.00428
 C244 C 0.83213 0.83294 -0.00446
 C245 C 0.65641 0.72859 -0.00433
 C246 C 0.69768 0.76978 -0.00504
 C247 C 0.79655 0.79737 -0.00504
 C248 C 0.67095 0.67169 -0.00377
 H249 H 0.81252 0.68643 -0.00511
 H250 H 0.74070 0.61394 -0.00391
 H251 H 0.61315 0.74140 -0.00401
 H252 H 0.68559 0.81328 -0.00520
 C253 C 0.75352 0.25322 0.49391
 C254 C 0.76877 0.19696 0.49442
 C255 C 0.72780 0.15559 0.49508
 C256 C 0.83103 0.33130 0.49526
 C257 C 0.65610 0.22683 0.49440
 C258 C 0.69717 0.26808 0.49374
 C259 C 0.79568 0.29571 0.49440
 C260 C 0.67091 0.17004 0.49532
 H261 H 0.81233 0.18507 0.49458
 H262 H 0.74076 0.11237 0.49569
 H263 H 0.61279 0.23953 0.49446
 H264 H 0.68498 0.31156 0.49336
 C265 C 0.75309 0.24685 0.00580
 C266 C 0.76833 0.30310 0.00575
 C267 C 0.72736 0.34447 0.00544
 C268 C 0.83058 0.16879 0.00396
 C269 C 0.65567 0.27322 0.00560
 C270 C 0.69675 0.23198 0.00590
 C271 C 0.79524 0.20437 0.00501
 C272 C 0.67047 0.33002 0.00514
 H273 H 0.81189 0.31500 0.00566
 H274 H 0.74031 0.38769 0.00515
 H275 H 0.61237 0.26051 0.00543
 H276 H 0.68456 0.18849 0.00593
 C277 C 0.75471 -0.25472 0.50538
 C278 C 0.76964 -0.19834 0.50543
 C279 C 0.72846 -0.15704 0.50503
 C280 C 0.83278 -0.33281 0.50395
 C281 C 0.65704 -0.22846 0.50484
 C282 C 0.69833 -0.26965 0.50524
 C283 C 0.79721 -0.29722 0.50480
 C284 C 0.67156 -0.17156 0.50452
 H285 H 0.81315 -0.18625 0.50552
 H286 H 0.74128 -0.11378 0.50486
 H287 H 0.61378 -0.24129 0.50453
 H288 H 0.68625 -0.31315 0.50520
 C289 C 0.24677 0.25312 0.50562
 C290 C 0.30311 0.26810 0.50550
 C291 C 0.34437 0.22696 0.50485
 C292 C 0.16884 0.33107 0.50454
 C293 C 0.27292 0.15551 0.50474
 C294 C 0.23178 0.19677 0.50538
 C295 C 0.20436 0.29554 0.50526
 C296 C 0.32979 0.17009 0.50426
 H297 H 0.31518 0.31162 0.50566
 H298 H 0.38763 0.23979 0.50459
 H299 H 0.26009 0.11225 0.50439
 H300 H 0.18827 0.18471 0.50546
 C301 C 0.24619 0.75367 0.00577
 C302 C 0.30244 0.76893 0.00566
 C303 C 0.34381 0.72796 0.00517
 C304 C 0.16808 0.83113 0.00430
 C305 C 0.27258 0.65626 0.00519
 C306 C 0.23133 0.69733 0.00569
 C307 C 0.20369 0.79581 0.00520
 C308 C 0.32937 0.67108 0.00472
 H309 H 0.31432 0.81249 0.00570
 H310 H 0.38703 0.74093 0.00488
 H311 H 0.25988 0.61296 0.00493
 H312 H 0.18785 0.68513 0.00574
 C313 C -0.00609 0.24670 0.24624
 C314 C -0.00655 0.30304 0.23117
 C315 C -0.00600 0.34428 0.27231
 C316 C -0.00482 0.16879 0.16841
 C317 C -0.00484 0.27280 0.34386
 C318 C -0.00539 0.23168 0.30262
 C319 C -0.00561 0.20431 0.20387
 C320 C -0.00493 0.32966 0.32923
 H321 H -0.00707 0.31511 0.18761
 H322 H -0.00617 0.38755 0.25944
 H323 H -0.00408 0.25994 0.38717
 H324 H -0.00501 0.18816 0.31472
 C325 C 0.49474 0.25336 0.75365
 C326 C 0.49476 0.26826 0.69722
 C327 C 0.49544 0.22706 0.65602
 C328 C 0.49570 0.33147 0.83146
 C329 C 0.49580 0.15571 0.72768
 C330 C 0.49512 0.19703 0.76877
 C331 C 0.49504 0.29587 0.79601
 C332 C 0.49617 0.17021 0.67073
 H333 H 0.49448 0.31176 0.68503
 H334 H 0.49562 0.23985 0.61269
 H335 H 0.49628 0.11246 0.74062
 H336 H 0.49513 0.18502 0.81235
 C337 C -0.00669 0.75336 0.75320
 C338 C -0.00605 0.76843 0.69687
 C339 C -0.00524 0.72732 0.65570
 C340 C -0.00555 0.83119 0.83082
 C341 C -0.00603 0.65586 0.72732
 C342 C -0.00684 0.69708 0.76839
 C343 C -0.00633 0.79569 0.79544
 C344 C -0.00500 0.67050 0.67044
 H345 H -0.00589 0.81195 0.68476
 H346 H -0.00453 0.74015 0.61239
 H347 H -0.00598 0.61259 0.74022
 H348 H -0.00730 0.68507 0.81196
 C349 C 0.49491 -0.25442 0.24570
 C350 C 0.49486 -0.19802 0.23076
 C351 C 0.49538 -0.15679 0.27198
 C352 C 0.49613 -0.33240 0.16759
 C353 C 0.49569 -0.22831 0.34345
 C354 C 0.49518 -0.26943 0.30213
 C355 C 0.49537 -0.29686 0.20317
 C356 C 0.49600 -0.17139 0.32892
 H357 H 0.49467 -0.18589 0.18722
 H358 H 0.49553 -0.11351 0.25915
 H359 H 0.49610 -0.24119 0.38675
 H360 H 0.49524 -0.31295 0.31421
 C361 C 0.00464 0.75447 0.24518
 C362 C 0.00501 0.69806 0.23034
 C363 C 0.00457 0.65674 0.27162
 C364 C 0.00344 0.83267 0.16692
 C365 C 0.00367 0.72815 0.34299
 C366 C 0.00411 0.76935 0.30161
 C367 C 0.00419 0.79703 0.20256
 C368 C 0.00372 0.67123 0.32856
 H369 H 0.00541 0.68597 0.18681
 H370 H 0.00470 0.61348 0.25883
 H371 H 0.00306 0.74098 0.38626
 H372 H 0.00380 0.81285 0.31366
 C373 C 0.50672 -0.25329 0.75381
 C374 C 0.50633 -0.26860 0.69758
 C375 C 0.50584 -0.22766 0.65618
 C376 C 0.50483 -0.33067 0.83180
 C377 C 0.50651 -0.15596 0.72747
 C378 C 0.50700 -0.19701 0.76873
 C379 C 0.50593 -0.29536 0.79625
 C380 C 0.50565 -0.17082 0.67067
 H381 H 0.50609 -0.31217 0.68573
 H382 H 0.50528 -0.24060 0.61293
 H383 H 0.50649 -0.11266 0.74015
 H384 H 0.50729 -0.18486 0.81225
 C385 C 0.50632 0.25336 0.24679
 C386 C 0.50588 0.19713 0.23151
 C387 C 0.50528 0.15572 0.27251
 C388 C 0.50486 0.33158 0.16930
 C389 C 0.50590 0.22688 0.34428
 C390 C 0.50650 0.26816 0.30318
 C391 C 0.50577 0.29591 0.20462
 C392 C 0.50505 0.17010 0.32944
 H393 H 0.50572 0.18530 0.18791
 H394 H 0.50472 0.11251 0.25954
 H395 H 0.50585 0.23953 0.38762
 H396 H 0.50683 0.31163 0.31539
 C397 C 0.00460 0.24555 0.75430
 C398 C 0.00418 0.23080 0.69784
 C399 C 0.00389 0.27209 0.65658
 C400 C 0.00318 0.16718 0.83228
 C401 C 0.00472 0.34333 0.72815
 C402 C 0.00501 0.30191 0.76931
 C403 C 0.00401 0.20290 0.79675
 C404 C 0.00397 0.32897 0.67118
 H405 H 0.00385 0.18732 0.68567
 H406 H 0.00335 0.25936 0.61327
 H407 H 0.00486 0.38656 0.74104
 H408 H 0.00533 0.31388 0.81287
 C409 C 0.24653 -0.00644 0.24630
 C410 C 0.23166 -0.00647 0.30264
 C411 C 0.27290 -0.00593 0.34387
 C412 C 0.16846 -0.00488 0.16852
 C413 C 0.34413 -0.00565 0.27231
 C414 C 0.30276 -0.00620 0.23119
 C415 C 0.20406 -0.00583 0.20398
 C416 C 0.32969 -0.00527 0.32920
 H417 H 0.18818 -0.00664 0.31470
 H418 H 0.26022 -0.00575 0.38717
 H419 H 0.38735 -0.00524 0.25947
 H420 H 0.31464 -0.00615 0.18763
 C421 C 0.25430 0.49541 0.75492
 C422 C 0.26911 0.49590 0.69851
 C423 C 0.22786 0.49623 0.65711
 C424 C 0.33261 0.49673 0.83314
 C425 C 0.15656 0.49530 0.72845
 C426 C 0.19793 0.49497 0.76975
 C427 C 0.29691 0.49595 0.79752
 C428 C 0.17097 0.49611 0.67153
 H429 H 0.31260 0.49626 0.68648
 H430 H 0.24062 0.49682 0.61384
 H431 H 0.11332 0.49513 0.74122
 H432 H 0.18592 0.49459 0.81327
 C433 C 0.75437 -0.00610 0.75429
 C434 C 0.76935 -0.00602 0.69796
 C435 C 0.72819 -0.00559 0.65660
 C436 C 0.83231 -0.00449 0.83236
 C437 C 0.65680 -0.00565 0.72796
 C438 C 0.69807 -0.00609 0.76921
 C439 C 0.79677 -0.00544 0.79678
 C440 C 0.67135 -0.00516 0.67109
 H441 H 0.81286 -0.00602 0.68600
 H442 H 0.74097 -0.00530 0.61333
 H443 H 0.61355 -0.00542 0.74070
 H444 H 0.68607 -0.00614 0.81274
 C445 C -0.25450 0.49475 0.24561
 C446 C -0.26935 0.49534 0.30198
 C447 C -0.22811 0.49582 0.34330
 C448 C -0.33271 0.49622 0.16761
 C449 C -0.15683 0.49481 0.27188
 C450 C -0.19819 0.49433 0.23066
 C451 C -0.29704 0.49532 0.20314
 C452 C -0.17127 0.49577 0.32878
 H453 H -0.31283 0.49570 0.31401
 H454 H -0.24085 0.49650 0.38658
 H455 H -0.11359 0.49467 0.25910
 H456 H -0.18623 0.49389 0.18712
 C457 C 0.24650 0.00496 0.75304
 C458 C 0.30282 0.00456 0.76838
 C459 C 0.34423 0.00396 0.72745
 C460 C 0.16823 0.00396 0.83055
 C461 C 0.27299 0.00443 0.65552
 C462 C 0.23171 0.00503 0.69655
 C463 C 0.20389 0.00462 0.79522
 C464 C 0.32983 0.00369 0.67044
 H465 H 0.31476 0.00448 0.81201
 H466 H 0.38746 0.00347 0.74054
 H467 H 0.26027 0.00432 0.61215
 H468 H 0.18824 0.00532 0.68419
 C469 C 0.25321 0.50610 0.24675
 C470 C 0.19687 0.50648 0.23154
 C471 C 0.15562 0.50587 0.27259
 C472 C 0.33117 0.50492 0.16912
 C473 C 0.22710 0.50480 0.34430
 C474 C 0.26822 0.50541 0.30316
 C475 C 0.29561 0.50568 0.20449
 C476 C 0.17023 0.50482 0.32953
 H477 H 0.18481 0.50700 0.18795
 H478 H 0.11235 0.50600 0.25962
 H479 H 0.23995 0.50405 0.38763
 H480 H 0.31174 0.50509 0.31536
 C481 C 0.75328 0.00574 0.24633
 C482 C 0.69691 0.00576 0.23134
 C483 C 0.65587 0.00508 0.27254
 C484 C 0.83073 0.00443 0.16832
 C485 C 0.72765 0.00471 0.34399
 C486 C 0.76858 0.00538 0.30267
 C487 C 0.79541 0.00527 0.20388
 C488 C 0.67074 0.00431 0.32942
 H489 H 0.68467 0.00602 0.18780
 H490 H 0.61256 0.00490 0.25973
 H491 H 0.74066 0.00421 0.38728
 H492 H 0.81215 0.00534 0.31468
 C493 C -0.25337 0.50610 0.75376
 C494 C -0.19698 0.50635 0.76881
 C495 C -0.15583 0.50569 0.72765
 C496 C -0.33117 0.50503 0.83165
 C497 C -0.22746 0.50480 0.65611
 C498 C -0.26850 0.50547 0.69737
 C499 C -0.29569 0.50574 0.79617
 C500 C -0.17055 0.50470 0.67073
 H501 H -0.18481 0.50682 0.81236
 H502 H -0.11253 0.50572 0.74052
 H503 H -0.24041 0.50411 0.61281
 H504 H -0.31204 0.50524 0.68527
   
