data_POSCAR
  _audit_creation_date              2014-09-24
  _audit_creation_method            'ToBaCCo'
  _symmetry_space_group_name_H-M    'P1'
  _symmetry_Int_Tables_number       1
  _symmetry_cell_setting            triclinic
  loop_
  _symmetry_equiv_pos_as_xyz
 x,y,z
_cell_length_a 46.0078
_cell_length_b 45.8725
_cell_length_c 46.0933
_cell_angle_alpha 90.011400
_cell_angle_beta 89.661500
_cell_angle_gamma 88.719000
loop_
  _atom_site_label
  _atom_site_type_symbol
  _atom_site_fract_x
  _atom_site_fract_y
  _atom_site_fract_z
C1 C 0.60501 0.64763 0.62765
 C2 C 0.60294 0.62484 0.64782
 C3 C 0.62420 0.60216 0.64886
 C4 C 0.64703 0.60250 0.62824
 C5 C 0.64887 0.62476 0.60745
 C6 C 0.62806 0.64753 0.60765
 H7 H 0.58558 0.62604 0.66374
 H8 H 0.66307 0.58489 0.62749
 H9 H 0.62918 0.66471 0.59156
 C10 C 0.89614 0.35077 0.12639
 C11 C 0.89552 0.37288 0.14772
 C12 C 0.87480 0.39579 0.14693
 C13 C 0.85401 0.39650 0.12485
 C14 C 0.85399 0.37482 0.10341
 C15 C 0.87511 0.35223 0.10420
 H16 H 0.91179 0.37313 0.16458
 H17 H 0.83789 0.41408 0.12428
 H18 H 0.87440 0.33538 0.08780
 C19 C 0.40112 0.14561 -0.12443
 C20 C 0.40025 0.12519 -0.14711
 C21 C 0.37815 0.10456 -0.14821
 C22 C 0.35682 0.10454 -0.12626
 C23 C 0.35723 0.12499 -0.10363
 C24 C 0.37948 0.14539 -0.10284
 H25 H 0.41675 0.12545 -0.16397
 H26 H 0.33969 0.08872 -0.12688
 H27 H 0.37987 0.16125 -0.08542
 C28 C 0.10081 0.84982 0.37390
 C29 C 0.12124 0.84960 0.39667
 C30 C 0.14361 0.86992 0.39761
 C31 C 0.14550 0.89104 0.37574
 C32 C 0.12539 0.89199 0.35305
 C33 C 0.10332 0.87136 0.35218
 H34 H 0.12058 0.83305 0.41336
 H35 H 0.16269 0.90679 0.37637
 H36 H 0.08765 0.87290 0.33481
 N37 N 0.08832 0.16443 0.11131
 N38 N 0.07841 0.15296 0.13545
 C39 C 0.05493 0.16858 0.14450
 C40 C 0.04970 0.19082 0.12481
 C41 C 0.07129 0.18748 0.10398
 H42 H 0.04236 0.16400 0.16379
 H43 H 0.07476 0.20122 0.08528
 Cu44 Cu 0.09701 0.11848 0.15226
 Cu45 Cu 0.12334 0.14953 0.09195
 Cu46 Cu 0.15759 0.08881 0.12245
 N47 N 0.11623 0.08440 0.16915
 N48 N 0.14003 0.07300 0.15752
 C49 C 0.14882 0.04983 0.17339
 C50 C 0.12938 0.04638 0.19614
 C51 C 0.10899 0.06876 0.19272
 H52 H 0.16770 0.03623 0.16845
 H53 H 0.09040 0.07344 0.20653
 N54 N 0.17191 0.10804 0.08702
 N55 N 0.15902 0.13132 0.07565
 C56 C 0.17441 0.13991 0.05236
 C57 C 0.19805 0.12108 0.04875
 C58 C 0.19571 0.10108 0.07107
 H59 H 0.16880 0.15848 0.03892
 H60 H 0.21067 0.08321 0.07574
 H61 H 0.11981 0.10684 0.10567
 H62 H 0.14240 0.13114 0.12838
 N63 N 0.40951 0.83159 0.61307
 N64 N 0.42467 0.84869 0.62980
 C65 C 0.44961 0.83479 0.63722
 C66 C 0.44999 0.80738 0.62462
 C67 C 0.42415 0.80610 0.60950
 H68 H 0.46609 0.84382 0.65098
 H69 H 0.41693 0.78825 0.59621
 Cu70 Cu 0.41043 0.88736 0.64073
 Cu71 Cu 0.37304 0.84448 0.59549
 Cu72 Cu 0.34310 0.90942 0.62077
 N73 N 0.39027 0.91991 0.65963
 N74 N 0.36402 0.92840 0.65181
 C75 C 0.35504 0.95069 0.66883
 C76 C 0.37682 0.95655 0.68852
 C77 C 0.39891 0.93652 0.68193
 H78 H 0.33410 0.96167 0.66704
 H79 H 0.41946 0.93366 0.69293
 N80 N 0.32542 0.88666 0.58954
 N81 N 0.33652 0.86155 0.58030
 C82 C 0.31981 0.85148 0.55877
 C83 C 0.29714 0.87128 0.55413
 C84 C 0.30144 0.89330 0.57409
 H85 H 0.32433 0.83166 0.54672
 H86 H 0.28813 0.91278 0.57711
 H87 H 0.37781 0.88907 0.59929
 H88 H 0.36216 0.86959 0.63136
 N89 N 0.90707 0.67267 0.38504
 N90 N 0.91662 0.66259 0.35997
 C91 C 0.93931 0.67845 0.35121
 C92 C 0.94438 0.69951 0.37195
 C93 C 0.92352 0.69514 0.39318
 H94 H 0.95158 0.67469 0.33144
 H95 H 0.92026 0.70767 0.41285
 Cu96 Cu 0.89920 0.62926 0.34133
 Cu97 Cu 0.87360 0.65637 0.40474
 Cu98 Cu 0.84249 0.59628 0.37283
 N99 N 0.88245 0.59446 0.32485
 N100 N 0.86002 0.58192 0.33694
 C101 C 0.85301 0.55842 0.32118
 C102 C 0.87224 0.55592 0.29805
 C103 C 0.89064 0.57918 0.30112
 H104 H 0.83568 0.54379 0.32657
 H105 H 0.90863 0.58457 0.28707
 N106 N 0.82782 0.61392 0.40916
 N107 N 0.83954 0.63688 0.42129
 C108 C 0.82449 0.64379 0.44560
 C109 C 0.80233 0.62414 0.44903
 C110 C 0.80516 0.60552 0.42551
 H111 H 0.82947 0.66163 0.45992
 H112 H 0.79145 0.58741 0.42046
 H113 H 0.88003 0.61470 0.38844
 H114 H 0.85430 0.63935 0.36833
 N115 N 0.59325 0.32654 -0.11134
 N116 N 0.58052 0.33857 -0.13394
 C117 C 0.55744 0.32264 -0.14129
 C118 C 0.55549 0.29948 -0.12214
 C119 C 0.57861 0.30273 -0.10340
 H120 H 0.54293 0.32768 -0.15904
 H121 H 0.58460 0.28859 -0.08555
 Cu122 Cu 0.59514 0.37392 -0.15165
 Cu123 Cu 0.62800 0.34232 -0.09406
 Cu124 Cu 0.65684 0.40313 -0.12686
 N125 N 0.61230 0.40768 -0.17010
 N126 N 0.63683 0.41838 -0.16084
 C127 C 0.64418 0.44094 -0.17781
 C128 C 0.62302 0.44477 -0.19874
 C129 C 0.60306 0.42331 -0.19316
 H130 H 0.66322 0.45397 -0.17481
 H131 H 0.58353 0.41917 -0.20527
 N132 N 0.67395 0.38469 -0.09221
 N133 N 0.66305 0.36143 -0.07976
 C134 C 0.67932 0.35425 -0.05653
 C135 C 0.70146 0.37404 -0.05411
 C136 C 0.69732 0.39303 -0.07712
 H137 H 0.67502 0.33630 -0.04206
 H138 H 0.71045 0.41152 -0.08254
 H139 H 0.62104 0.38504 -0.10705
 H140 H 0.64280 0.36090 -0.13209
 C141 C -0.03971 0.28216 0.12889
 C142 C -0.05055 0.29247 0.10206
 C143 C -0.07210 0.31464 0.10139
 C144 C -0.08258 0.32786 0.12716
 C145 C -0.07098 0.31789 0.15370
 C146 C -0.05010 0.29537 0.15459
 C147 C -0.01708 0.25810 0.12867
 C148 C -0.00656 0.24473 0.15419
 C149 C 0.01484 0.22270 0.15282
 C150 C 0.02650 0.21363 0.12606
 C151 C 0.01588 0.22645 0.10050
 C152 C -0.00607 0.24820 0.10158
 C153 C -0.03933 0.28111 0.07598
 C154 C -0.01726 0.25979 0.07575
 H155 H -0.04743 0.28914 0.05538
 H156 H -0.00903 0.25204 0.05499
 H157 H -0.07941 0.32257 0.08048
 H158 H -0.07876 0.32660 0.17421
 H159 H 0.02263 0.21310 0.17285
 H160 H 0.02433 0.21912 0.07968
 H161 H -0.04228 0.28880 0.17565
 H162 H -0.01465 0.25080 0.17539
 C163 C 0.54124 0.71786 0.62751
 C164 C 0.53245 0.68849 0.62631
 C165 C 0.55334 0.66571 0.62684
 C166 C 0.58307 0.67171 0.62757
 C167 C 0.59181 0.70077 0.62791
 C168 C 0.57122 0.72360 0.62804
 C169 C 0.51821 0.74153 0.62752
 C170 C 0.52447 0.77128 0.63093
 C171 C 0.50225 0.79251 0.63038
 C172 C 0.47331 0.78472 0.62612
 C173 C 0.46676 0.75515 0.62318
 C174 C 0.48885 0.73356 0.62431
 C175 C 0.50294 0.68205 0.62404
 C176 C 0.48166 0.70410 0.62259
 H177 H 0.49622 0.65958 0.62291
 H178 H 0.45916 0.69797 0.62040
 H179 H 0.54654 0.64324 0.62604
 H180 H 0.61469 0.70580 0.62839
 H181 H 0.50786 0.81518 0.63276
 H182 H 0.44436 0.74887 0.62051
 H183 H 0.57924 0.74550 0.62824
 H184 H 0.54631 0.77860 0.63422
 C185 C 1.03413 0.78666 0.37006
 C186 C 1.04475 0.79608 0.39712
 C187 C 1.06690 0.81664 0.39828
 C188 C 1.07849 0.82891 0.37273
 C189 C 1.06713 0.81982 0.34595
 C190 C 1.04550 0.79904 0.34461
 C191 C 1.01096 0.76416 0.36975
 C192 C 1.00034 0.75195 0.34395
 C193 C 0.97883 0.73100 0.34481
 C194 C 0.96714 0.72180 0.37133
 C195 C 0.97758 0.73375 0.39718
 C196 C 0.99960 0.75448 0.39660
 C197 C 1.03289 0.78529 0.42295
 C198 C 1.01058 0.76520 0.42269
 H199 H 1.04083 0.79265 0.44373
 H200 H 1.00203 0.75770 0.44326
 H201 H 1.07401 0.82399 0.41936
 H202 H 1.07573 0.82769 0.32558
 H203 H 0.97111 0.72222 0.32453
 H204 H 0.96905 0.72642 0.41783
 H205 H 1.03803 0.79302 0.32336
 H206 H 1.00848 0.75803 0.32287
 C207 C 0.46827 0.20964 -0.12067
 C208 C 0.45363 0.20429 -0.14703
 C209 C 0.43210 0.18310 -0.14822
 C210 C 0.42445 0.16736 -0.12333
 C211 C 0.43879 0.17282 -0.09722
 C212 C 0.46046 0.19359 -0.09585
 C213 C 0.49115 0.23244 -0.12034
 C214 C 0.50758 0.23880 -0.09552
 C215 C 0.52846 0.26041 -0.09625
 C216 C 0.53348 0.27638 -0.12166
 C217 C 0.51738 0.27009 -0.14657
 C218 C 0.49650 0.24821 -0.14616
 C219 C 0.46029 0.22035 -0.17194
 C220 C 0.48111 0.24196 -0.17147
 H221 H 0.44904 0.21632 -0.19209
 H222 H 0.48529 0.25392 -0.19128
 H223 H 0.42078 0.17929 -0.16839
 H224 H 0.43336 0.16079 -0.07778
 H225 H 0.54041 0.26484 -0.07665
 H226 H 0.52134 0.28193 -0.16649
 H227 H 0.47062 0.19681 -0.07512
 H228 H 0.50474 0.22737 -0.07530
 C229 C 0.13067 -0.04250 0.28617
 C230 C 0.10379 -0.04825 0.29991
 C231 C 0.10226 -0.06963 0.32161
 C232 C 0.12725 -0.08533 0.33023
 C233 C 0.15395 -0.07929 0.31700
 C234 C 0.15570 -0.05822 0.29521
 C235 C 0.13122 -0.01977 0.26275
 C236 C 0.15654 -0.01313 0.24694
 C237 C 0.15586 0.00821 0.22532
 C238 C 0.13001 0.02362 0.21897
 C239 C 0.10465 0.01707 0.23450
 C240 C 0.10501 -0.00452 0.25608
 C241 C 0.07860 -0.03255 0.29207
 C242 C 0.07923 -0.01103 0.27077
 H243 H 0.05805 -0.03688 0.30267
 H244 H 0.05915 0.00058 0.26560
 H245 H 0.08162 -0.07383 0.33212
 H246 H 0.17351 -0.09122 0.32325
 H247 H 0.17580 0.01286 0.21380
 H248 H 0.08440 0.02843 0.22952
 H249 H 0.17683 -0.05461 0.28581
 H250 H 0.17708 -0.02419 0.25081
 C251 C 0.62020 0.53488 -0.28732
 C252 C 0.64729 0.54422 -0.29805
 C253 C 0.64840 0.56602 -0.31936
 C254 C 0.62283 0.57978 -0.32990
 C255 C 0.59600 0.57085 -0.31837
 C256 C 0.59467 0.54870 -0.29764
 C257 C 0.62002 0.51114 -0.26492
 C258 C 0.59425 0.49875 -0.25435
 C259 C 0.59530 0.47696 -0.23317
 C260 C 0.62198 0.46719 -0.22180
 C261 C 0.64775 0.47902 -0.23250
 C262 C 0.64700 0.50052 -0.25416
 C263 C 0.67322 0.53222 -0.28703
 C264 C 0.67308 0.51116 -0.26527
 H265 H 0.69402 0.53953 -0.29507
 H266 H 0.69375 0.50286 -0.25721
 H267 H 0.66953 0.57323 -0.32650
 H268 H 0.57563 0.58006 -0.32612
 H269 H 0.57510 0.46812 -0.22531
 H270 H 0.66852 0.47115 -0.22430
 H271 H 0.57342 0.54286 -0.28989
 H272 H 0.57311 0.50543 -0.26222
 C273 C 0.37460 1.04253 0.78148
 C274 C 0.40145 1.04865 0.79481
 C275 C 0.40249 1.06893 0.81760
 C276 C 0.37707 1.08328 0.82757
 C277 C 0.35053 1.07720 0.81431
 C278 C 0.34924 1.05716 0.79160
 C279 C 0.37442 1.02065 0.75728
 C280 C 0.34892 1.01312 0.74253
 C281 C 0.34984 0.99250 0.72027
 C282 C 0.37615 0.97872 0.71202
 C283 C 0.40171 0.98617 0.72652
 C284 C 0.40105 1.00694 0.74894
 C285 C 0.42706 1.03441 0.78543
 C286 C 0.42686 1.01400 0.76302
 H287 H 0.44761 1.03907 0.79562
 H288 H 0.44727 1.00354 0.75663
 H289 H 0.42307 1.07323 0.82793
 H290 H 0.33067 1.08826 0.82132
 H291 H 0.32968 0.98716 0.70979
 H292 H 0.42228 0.97600 0.72028
 H293 H 0.32818 1.05351 0.78233
 H294 H 0.32800 1.02279 0.74784
 C295 C 0.87669 0.46460 0.21057
 C296 C 0.85034 0.45056 0.20434
 C297 C 0.84980 0.42834 0.18339
 C298 C 0.87534 0.41936 0.16887
 C299 C 0.90149 0.43293 0.17541
 C300 C 0.90223 0.45529 0.19589
 C301 C 0.87626 0.48852 0.23278
 C302 C 0.90094 0.50483 0.23948
 C303 C 0.89947 0.52675 0.26047
 C304 C 0.87346 0.53292 0.27549
 C305 C 0.84868 0.51699 0.26882
 C306 C 0.84981 0.49514 0.24746
 C307 C 0.82478 0.45851 0.21929
 C308 C 0.82459 0.48011 0.24057
 H309 H 0.80464 0.44768 0.21464
 H310 H 0.80429 0.48528 0.25169
 H311 H 0.82959 0.41762 0.17871
 H312 H 0.92143 0.42642 0.16433
 H313 H 0.91896 0.53859 0.26522
 H314 H 0.82833 0.52189 0.27992
 H315 H 0.92301 0.46483 0.19997
 H316 H 0.92156 0.50114 0.22874
 C317 C 0.28933 0.12648 -0.03872
 C318 C 0.30373 0.09992 -0.04625
 C319 C 0.32573 0.09954 -0.06753
 C320 C 0.33410 0.12542 -0.08112
 C321 C 0.32025 0.15178 -0.07321
 C322 C 0.29811 0.15237 -0.05237
 C323 C 0.26554 0.12585 -0.01633
 C324 C 0.24884 0.15077 -0.00846
 C325 C 0.22694 0.14906 0.01251
 C326 C 0.22118 0.12258 0.02635
 C327 C 0.23757 0.09759 0.01858
 C328 C 0.25940 0.09896 -0.00280
 C329 C 0.29631 0.07396 -0.03234
 C330 C 0.27483 0.07354 -0.01089
 H331 H 0.30744 0.05365 -0.03799
 H332 H 0.27005 0.05291 -0.00065
 H333 H 0.33669 0.07915 -0.07324
 H334 H 0.32629 0.17199 -0.08352
 H335 H 0.21476 0.16873 0.01815
 H336 H 0.23301 0.07689 0.02877
 H337 H 0.28831 0.17331 -0.04724
 H338 H 0.25218 0.17176 -0.01828
 C339 C 0.71488 0.62115 0.54057
 C340 C 0.70889 0.64750 0.55570
 C341 C 0.68743 0.64856 0.57752
 C342 C 0.67192 0.62358 0.58481
 C343 C 0.67817 0.59743 0.57007
 C344 C 0.69930 0.59616 0.54825
 C345 C 0.73752 0.62108 0.51700
 C346 C 0.74435 0.59629 0.50001
 C347 C 0.76536 0.59740 0.47812
 C348 C 0.78028 0.62316 0.47258
 C349 C 0.77375 0.64796 0.48946
 C350 C 0.75242 0.64717 0.51138
 C351 C 0.72436 0.67260 0.54901
 C352 C 0.74575 0.67240 0.52744
 H353 H 0.71988 0.69275 0.56065
 H354 H 0.75711 0.69240 0.52313
 H355 H 0.68296 0.66878 0.58906
 H356 H 0.66627 0.57794 0.57509
 H357 H 0.77007 0.57784 0.46568
 H358 H 0.78483 0.66812 0.48520
 H359 H 0.70299 0.57543 0.53770
 H360 H 0.73367 0.57584 0.50312
 C361 C 0.78973 0.37764 0.03560
 C362 C 0.79594 0.35131 0.05060
 C363 C 0.81699 0.35052 0.07253
 C364 C 0.83187 0.37574 0.08014
 C365 C 0.82546 0.40187 0.06553
 C366 C 0.80474 0.40287 0.04352
 C367 C 0.76726 0.37747 0.01213
 C368 C 0.76012 0.40223 -0.00470
 C369 C 0.73894 0.40098 -0.02620
 C370 C 0.72418 0.37510 -0.03148
 C371 C 0.73125 0.35026 -0.01496
 C372 C 0.75269 0.35120 0.00657
 C373 C 0.78096 0.32598 0.04380
 C374 C 0.75970 0.32597 0.02239
 H375 H 0.78564 0.30585 0.05534
 H376 H 0.74863 0.30582 0.01808
 H377 H 0.82149 0.33033 0.08406
 H378 H 0.83680 0.42157 0.07092
 H379 H 0.73388 0.42055 -0.03843
 H380 H 0.72036 0.32999 -0.01907
 H381 H 0.80082 0.42361 0.03310
 H382 H 0.77062 0.42278 -0.00169
 C383 C 0.20799 0.86682 0.46533
 C384 C 0.19451 0.89366 0.45729
 C385 C 0.17349 0.89447 0.43533
 C386 C 0.16538 0.86883 0.42122
 C387 C 0.17840 0.84221 0.42950
 C388 C 0.19943 0.84115 0.45122
 C389 C 0.23083 0.86704 0.48845
 C390 C 0.24626 0.84173 0.49735
 C391 C 0.26762 0.84317 0.51868
 C392 C 0.27410 0.86980 0.53184
 C393 C 0.25873 0.89510 0.52324
 C394 C 0.23740 0.89396 0.50163
 C395 C 0.20205 0.91953 0.47119
 C396 C 0.22293 0.91966 0.49297
 H397 H 0.19165 0.94006 0.46513
 H398 H 0.22798 0.94028 0.50303
 H399 H 0.16322 0.91509 0.42934
 H400 H 0.17265 0.82216 0.41876
 H401 H 0.27892 0.82325 0.52499
 H402 H 0.26374 0.91591 0.53290
 H403 H 0.20873 0.82005 0.45650
 H404 H 0.24235 0.82062 0.48805
   
