data_POSCAR
  _audit_creation_date              2014-09-24
  _audit_creation_method            'ToBaCCo'
  _symmetry_space_group_name_H-M    'P1'
  _symmetry_Int_Tables_number       1
  _symmetry_cell_setting            triclinic
  loop_
  _symmetry_equiv_pos_as_xyz
 x,y,z
_cell_length_a 26.9416
_cell_length_b 26.6840
_cell_length_c 26.6378
_cell_angle_alpha 89.870000
_cell_angle_beta 89.945900
_cell_angle_gamma 90.068800
loop_
  _atom_site_label
  _atom_site_type_symbol
  _atom_site_fract_x
  _atom_site_fract_y
  _atom_site_fract_z
C1 C 0.22435 0.95374 -0.02960
 C2 C 0.22893 0.95523 0.02313
 C3 C 0.22853 1.00232 0.04712
 C4 C 0.22755 1.04858 0.02065
 C5 C 0.21837 1.04628 -0.03209
 C6 C 0.21329 0.99896 -0.05468
 H7 H 0.20262 0.99759 -0.09387
 H8 H 0.22606 1.00247 0.08758
 C9 C 0.72482 0.54485 0.52658
 C10 C 0.72516 0.54297 0.47354
 C11 C 0.71858 0.49625 0.45012
 C12 C 0.71788 0.45086 0.47720
 C13 C 0.71399 0.45351 0.53010
 C14 C 0.71580 0.50037 0.55352
 H15 H 0.71159 0.50186 0.59399
 H16 H 0.71348 0.49502 0.40992
 C17 C 0.77414 1.01835 1.04794
 C18 C 0.77821 0.96527 1.04305
 C19 C 0.78222 0.94528 0.99438
 C20 C 0.77560 0.97432 0.95090
 C21 C 0.77344 1.02686 0.95541
 C22 C 0.77623 1.04769 1.00374
 H23 H 0.78062 1.08776 1.00739
 H24 H 0.78723 0.90517 0.98986
 C25 C 0.28086 0.52268 0.54540
 C26 C 0.28247 0.46975 0.54330
 C27 C 0.28888 0.44683 0.49637
 C28 C 0.28412 0.47364 0.45121
 C29 C 0.28190 0.52625 0.45288
 C30 C 0.28400 0.54991 0.50002
 H31 H 0.28713 0.59033 0.50141
 H32 H 0.29571 0.40692 0.49457
 C33 C 0.94885 0.26639 -0.02946
 C34 C 0.94824 0.25311 0.02225
 C35 C 0.99404 0.24647 0.04719
 C36 C 1.04031 0.25843 0.02529
 C37 C 1.04063 0.27276 -0.02545
 C38 C 0.99528 0.27951 -0.05069
 H39 H 0.99719 0.29632 -0.08756
 H40 H 0.99335 0.22887 0.08375
 C41 C 0.45473 0.71502 0.52740
 C42 C 0.45462 0.71564 0.47451
 C43 C 0.50015 0.71081 0.44904
 C44 C 0.54599 0.71242 0.47444
 C45 C 0.54618 0.71314 0.52720
 C46 C 0.50050 0.71106 0.55279
 H47 H 0.50078 0.70760 0.59330
 H48 H 0.49991 0.70725 0.40855
 C49 C 0.02556 0.75687 -0.04738
 C50 C -0.02727 0.75567 -0.04581
 C51 C -0.05050 0.75367 0.00215
 C52 C -0.02413 0.75684 0.04779
 C53 C 0.02800 0.75948 0.04590
 C54 C 0.05123 0.76228 -0.00135
 H55 H 0.09019 0.77185 -0.00216
 H56 H -0.08975 0.74591 0.00478
 C57 C 0.52120 0.26814 0.45399
 C58 C 0.46889 0.26866 0.45463
 C59 C 0.44422 0.26926 0.50163
 C60 C 0.47028 0.26587 0.54752
 C61 C 0.52247 0.26564 0.54629
 C62 C 0.54685 0.26987 0.49984
 H63 H 0.58689 0.27359 0.49937
 H64 H 0.40418 0.27255 0.50271
 C65 C 1.04706 0.02699 0.24494
 C66 C 1.04829 -0.02535 0.25226
 C67 C 1.00310 -0.05094 0.25973
 C68 C 0.95638 -0.02672 0.25759
 C69 C 0.95532 0.02465 0.24487
 C70 C 1.00043 0.04985 0.23707
 H71 H 0.99874 0.08808 0.22352
 H72 H 1.00508 -0.09073 0.26645
 C73 C 0.45553 0.47534 0.71742
 C74 C 0.45685 0.52795 0.72057
 C75 C 0.50339 0.55197 0.71920
 C76 C 0.54852 0.52510 0.72059
 C77 C 0.54718 0.47227 0.71612
 C78 C 0.50039 0.44886 0.71170
 H79 H 0.49836 0.40900 0.70457
 H80 H 0.50466 0.59246 0.71738
 C81 C 1.02771 0.95263 0.76080
 C82 C 0.97566 0.95297 0.76543
 C83 C 0.95161 0.99928 0.77024
 C84 C 0.97606 1.04573 0.76345
 C85 C 1.02867 1.04570 0.76189
 C86 C 1.05341 0.99892 0.76057
 H87 H 1.09345 0.99843 0.75822
 H88 H 0.91285 0.99876 0.78075
 C89 C 0.52647 0.45282 0.25653
 C90 C 0.47451 0.45479 0.26214
 C91 C 0.45171 0.50204 0.26577
 C92 C 0.47807 0.54726 0.25916
 C93 C 0.53022 0.54581 0.25417
 C94 C 0.55344 0.49823 0.25285
 H95 H 0.59312 0.49601 0.24827
 H96 H 0.41242 0.50380 0.27415
 O97 O 0.24794 0.12463 0.17668
 O98 O 0.29895 0.10726 0.24691
 O99 O 0.11849 0.18635 0.25623
 O100 O 0.10045 0.25178 0.30240
 O101 O 0.17250 0.25519 0.11937
 O102 O 0.24392 0.31002 0.10346
 O103 O 0.24934 0.31993 0.37710
 O104 O 0.19048 0.25247 0.39000
 O105 O 0.37524 0.25263 0.31709
 O106 O 0.38739 0.19493 0.24069
 O107 O 0.31564 0.38155 0.24440
 O108 O 0.24517 0.39994 0.19529
 O109 O 0.25422 0.38130 0.31782
 O110 O 0.19142 0.39606 0.24742
 O111 O 0.37580 0.32207 0.24866
 O112 O 0.39210 0.25385 0.19304
 O113 O 0.31513 0.24940 0.37702
 O114 O 0.25135 0.19804 0.39471
 O115 O 0.24192 0.18376 0.11534
 O116 O 0.29753 0.25219 0.10079
 O117 O 0.11646 0.25507 0.18332
 O118 O 0.10864 0.31423 0.25216
 O119 O 0.17533 0.12401 0.24679
 O120 O 0.24509 0.10762 0.30167
 Zr121 Zr 0.24358 0.16328 0.24504
 O122 O 0.29133 0.20510 0.29136
 Zr123 Zr 0.15833 0.25283 0.24862
 O124 O 0.20177 0.29840 0.29485
 Zr125 Zr 0.24210 0.25140 0.15699
 O126 O 0.29031 0.29722 0.19990
 Zr127 Zr 0.24908 0.25278 0.33702
 O128 O 0.20126 0.20647 0.29537
 Zr129 Zr 0.33537 0.25387 0.24800
 O130 O 0.29136 0.20742 0.20037
 Zr131 Zr 0.24886 0.34196 0.24944
 O132 O 0.20063 0.30049 0.20244
 O133 O 0.19667 0.20557 0.20005
 O134 O 0.29563 0.30039 0.29603
 C135 C 0.24626 0.13812 0.13043
 C136 C 0.13076 0.14014 0.25314
 C137 C 0.12779 0.25665 0.13681
 C138 C 0.25230 0.36590 0.36351
 C139 C 0.36048 0.24976 0.36312
 C140 C 0.36113 0.36788 0.24582
 H141 H 0.31176 0.18168 0.31134
 H142 H 0.31047 0.31788 0.17672
 H143 H 0.17470 0.18435 0.17921
 H144 H 0.18007 0.31894 0.31651
 H145 H 0.16728 0.22533 0.38027
 H146 H 0.11282 0.26886 0.33283
 H147 H 0.37991 0.27359 0.16413
 H148 H 0.32408 0.22940 0.11256
 H149 H 0.26490 0.16701 0.37994
 H150 H 0.21980 0.11715 0.32690
 H151 H 0.26441 0.38878 0.16574
 H152 H 0.21908 0.33507 0.11435
 H153 H 0.32683 0.11992 0.22625
 H154 H 0.38477 0.17352 0.27095
 H155 H 0.11788 0.33765 0.22482
 H156 H 0.17231 0.39341 0.27905
 O157 O 0.75504 0.89591 0.20802
 O158 O 0.70243 0.90200 0.27652
 O159 O 0.88201 0.82044 0.27543
 O160 O 0.90459 0.74805 0.30350
 O161 O 0.82170 0.77449 0.12840
 O162 O 0.75440 0.72463 0.10427
 O163 O 0.74709 0.67376 0.38010
 O164 O 0.80262 0.73435 0.40416
 O165 O 0.62322 0.75149 0.32185
 O166 O 0.60579 0.80518 0.25632
 O167 O 0.68813 0.62558 0.25003
 O168 O 0.74877 0.61350 0.19154
 O169 O 0.75586 0.62100 0.31379
 O170 O 0.81363 0.61844 0.23487
 O171 O 0.62640 0.68336 0.25503
 O172 O 0.61657 0.76148 0.19403
 O173 O 0.68010 0.73874 0.38370
 O174 O 0.75162 0.79820 0.40537
 O175 O 0.75509 0.84433 0.14018
 O176 O 0.69632 0.77446 0.11704
 O177 O 0.88225 0.76445 0.18703
 O178 O 0.88993 0.69327 0.25247
 O179 O 0.82468 0.88305 0.27597
 O180 O 0.75304 0.88783 0.33486
 Zr181 Zr 0.75629 0.84508 0.26814
 O182 O 0.70725 0.79700 0.30641
 Zr183 Zr 0.84243 0.75633 0.25595
 O184 O 0.79938 0.70642 0.29920
 Zr185 Zr 0.75547 0.77025 0.16903
 O186 O 0.71053 0.71595 0.20487
 Zr187 Zr 0.74954 0.74464 0.34670
 O188 O 0.79925 0.79445 0.31042
 Zr189 Zr 0.66498 0.75328 0.25614
 O190 O 0.70764 0.80837 0.21794
 Zr191 Zr 0.75353 0.66733 0.24938
 O192 O 0.79899 0.71520 0.20535
 O193 O 0.80231 0.80979 0.21651
 O194 O 0.70522 0.70233 0.29906
 C195 C 0.75531 0.88819 0.16062
 C196 C 0.86933 0.86639 0.27963
 C197 C 0.86730 0.77097 0.14144
 C198 C 0.75106 0.62995 0.36098
 C199 C 0.63533 0.74406 0.36763
 C200 C 0.64238 0.63779 0.25382
 H201 H 0.68589 0.81762 0.32834
 H202 H 0.69096 0.69700 0.17990
 H203 H 0.82425 0.83390 0.19892
 H204 H 0.82168 0.68420 0.31858
 H205 H 0.83188 0.75467 0.39454
 H206 H 0.89127 0.74109 0.33741
 H207 H 0.61350 0.72856 0.17729
 H208 H 0.67433 0.80192 0.12835
 H209 H 0.72057 0.81791 0.40426
 H210 H 0.78054 0.87625 0.35659
 H211 H 0.74513 0.63238 0.15982
 H212 H 0.77607 0.69560 0.11160
 H213 H 0.67473 0.89322 0.25379
 H214 H 0.61721 0.83449 0.27583
 H215 H 0.88678 0.67899 0.21834
 H216 H 0.83254 0.61461 0.26647
 O217 O 0.75342 0.12185 0.82565
 O218 O 0.69550 0.09964 0.76317
 O219 O 0.87905 0.17580 0.74466
 O220 O 0.89499 0.23477 0.68757
 O221 O 0.82086 0.25869 0.87078
 O222 O 0.75355 0.31574 0.87892
 O223 O 0.74595 0.29211 0.60197
 O224 O 0.80028 0.22686 0.59639
 O225 O 0.61875 0.24026 0.67612
 O226 O 0.60653 0.18698 0.75412
 O227 O 0.67836 0.37207 0.72675
 O228 O 0.74896 0.39679 0.77279
 O229 O 0.73997 0.35966 0.65360
 O230 O 0.80399 0.38505 0.72224
 O231 O 0.62049 0.31136 0.73974
 O232 O 0.60632 0.24561 0.80077
 O233 O 0.67700 0.22823 0.61539
 O234 O 0.74629 0.16681 0.60764
 O235 O 0.75044 0.18869 0.87851
 O236 O 0.69689 0.26200 0.88602
 O237 O 0.87790 0.25331 0.80802
 O238 O 0.88708 0.30381 0.73054
 O239 O 0.81866 0.11627 0.75061
 O240 O 0.74538 0.09363 0.70430
 Zr241 Zr 0.75118 0.15482 0.75427
 O242 O 0.70283 0.19079 0.70418
 Zr243 Zr 0.83768 0.24288 0.74129
 O244 O 0.79332 0.28220 0.68922
 Zr245 Zr 0.75305 0.25242 0.83137
 O246 O 0.70545 0.29351 0.78379
 Zr247 Zr 0.74519 0.23231 0.65273
 O248 O 0.79398 0.19211 0.69968
 Zr249 Zr 0.66028 0.24397 0.74303
 O250 O 0.70411 0.20306 0.79472
 Zr251 Zr 0.74602 0.33164 0.72785
 O252 O 0.79443 0.29597 0.78007
 O253 O 0.79838 0.20169 0.79426
 O254 O 0.69903 0.28419 0.68840
 C255 C 0.75166 0.14131 0.86959
 C256 C 0.86416 0.13004 0.74698
 C257 C 0.86576 0.25851 0.85438
 C258 C 0.74181 0.33917 0.60980
 C259 C 0.63207 0.23337 0.63032
 C260 C 0.63333 0.35719 0.73309
 H261 H 0.68166 0.16564 0.68746
 H262 H 0.68585 0.31683 0.80466
 H263 H 0.82051 0.18274 0.81706
 H264 H 0.81480 0.29988 0.66483
 H265 H 0.82743 0.20619 0.61047
 H266 H 0.88284 0.24925 0.65568
 H267 H 0.61571 0.27272 0.82421
 H268 H 0.67170 0.23571 0.87976
 H269 H 0.71658 0.14641 0.61543
 H270 H 0.76743 0.10119 0.67551
 H271 H 0.73222 0.38859 0.80482
 H272 H 0.77603 0.34056 0.86309
 H273 H 0.66848 0.11546 0.78270
 H274 H 0.60951 0.16260 0.72637
 H275 H 0.87749 0.33014 0.75479
 H276 H 0.82153 0.37944 0.69010
 O277 O 0.24719 0.87942 0.81297
 O278 O 0.30213 0.89392 0.74417
 O279 O 0.12006 0.81549 0.74390
 O280 O 0.10394 0.74794 0.69579
 O281 O 0.18172 0.74523 0.87769
 O282 O 0.25261 0.69885 0.89610
 O283 O 0.25059 0.67673 0.62053
 O284 O 0.19860 0.74187 0.60228
 O285 O 0.37950 0.75052 0.68206
 O286 O 0.39237 0.80776 0.75266
 O287 O 0.32355 0.62092 0.74734
 O288 O 0.25213 0.60523 0.80764
 O289 O 0.25587 0.61698 0.68132
 O290 O 0.20017 0.60152 0.75301
 O291 O 0.38057 0.68362 0.75209
 O292 O 0.39297 0.75612 0.80617
 O293 O 0.32198 0.74045 0.62041
 O294 O 0.25227 0.80194 0.60342
 O295 O 0.24555 0.82231 0.87661
 O296 O 0.30595 0.75538 0.89194
 O297 O 0.12080 0.74733 0.81866
 O298 O 0.11171 0.68637 0.75034
 O299 O 0.17983 0.87564 0.73815
 O300 O 0.25028 0.89092 0.68811
 Zr301 Zr 0.24697 0.83752 0.74676
 O302 O 0.29514 0.79498 0.70231
 Zr303 Zr 0.16115 0.74811 0.75014
 O304 O 0.20569 0.70153 0.70424
 Zr305 Zr 0.24827 0.75292 0.83820
 O306 O 0.29567 0.70542 0.79713
 Zr307 Zr 0.25340 0.74478 0.65897
 O308 O 0.20424 0.79136 0.69970
 Zr309 Zr 0.33893 0.74964 0.74888
 O310 O 0.29539 0.79741 0.79376
 Zr311 Zr 0.25446 0.65878 0.74888
 O312 O 0.20631 0.70182 0.79534
 O313 O 0.20110 0.79703 0.79499
 O314 O 0.30070 0.70028 0.70193
 C315 C 0.24638 0.86754 0.85962
 C316 C 0.13449 0.86123 0.73827
 C317 C 0.13606 0.74445 0.86438
 C318 C 0.25283 0.63105 0.63518
 C319 C 0.36692 0.74522 0.63607
 C320 C 0.36846 0.63728 0.74976
 H321 H 0.31551 0.81773 0.68145
 H322 H 0.31630 0.68577 0.82066
 H323 H 0.17874 0.81847 0.81516
 H324 H 0.18381 0.68015 0.68360
 H325 H 0.17076 0.76316 0.61379
 H326 H 0.11589 0.72816 0.66687
 H327 H 0.38481 0.73139 0.83263
 H328 H 0.32901 0.78227 0.88121
 H329 H 0.28336 0.82154 0.60573
 H330 H 0.23113 0.87673 0.65982
 H331 H 0.28176 0.61023 0.82895
 H332 H 0.23687 0.66812 0.88274
 H333 H 0.32810 0.88408 0.76853
 H334 H 0.38480 0.83219 0.72577
 H335 H 0.12295 0.66337 0.77722
 H336 H 0.17477 0.60874 0.72722
 O337 O 0.25490 0.37674 0.67277
 O338 O 0.19891 0.40005 0.73569
 O339 O 0.37924 0.32293 0.75788
 O340 O 0.40112 0.25924 0.80489
 O341 O 0.31985 0.23546 0.62835
 O342 O 0.25288 0.18539 0.61610
 O343 O 0.24820 0.20881 0.89795
 O344 O 0.29772 0.27559 0.90478
 O345 O 0.12030 0.25667 0.81928
 O346 O 0.10283 0.30226 0.74785
 O347 O 0.18504 0.12599 0.77803
 O348 O 0.25320 0.09977 0.73072
 O349 O 0.24645 0.14042 0.84723
 O350 O 0.31147 0.11680 0.77687
 O351 O 0.12393 0.18228 0.76147
 O352 O 0.11457 0.25024 0.69178
 O353 O 0.17615 0.26774 0.88237
 O354 O 0.24613 0.33576 0.88602
 O355 O 0.25306 0.30956 0.62027
 O356 O 0.19471 0.23536 0.61605
 O357 O 0.37992 0.24900 0.68677
 O358 O 0.38734 0.19351 0.76688
 O359 O 0.32173 0.38334 0.74203
 O360 O 0.24878 0.40257 0.79687
 Zr361 Zr 0.25349 0.34379 0.74392
 O362 O 0.20387 0.30684 0.79282
 Zr363 Zr 0.33981 0.25563 0.75567
 O364 O 0.29638 0.21831 0.81013
 Zr365 Zr 0.25361 0.24552 0.66753
 O366 O 0.20871 0.20212 0.71561
 Zr367 Zr 0.24611 0.26731 0.84568
 O368 O 0.29624 0.30623 0.79822
 Zr369 Zr 0.16265 0.25150 0.75456
 O370 O 0.20549 0.29518 0.70411
 Zr371 Zr 0.25093 0.16711 0.77231
 O372 O 0.29669 0.20230 0.71771
 O373 O 0.29978 0.29648 0.70340
 O374 O 0.20216 0.21370 0.81016
 C375 C 0.25431 0.35705 0.62899
 C376 C 0.36652 0.36846 0.74988
 C377 C 0.36527 0.23995 0.64149
 C378 C 0.24609 0.16149 0.89083
 C379 C 0.13170 0.26219 0.86541
 C380 C 0.13935 0.13781 0.77216
 H381 H 0.18175 0.33157 0.80895
 H382 H 0.18971 0.17756 0.69556
 H383 H 0.32179 0.31529 0.68031
 H384 H 0.31839 0.20191 0.83490
 H385 H 0.32754 0.29141 0.88988
 H386 H 0.38714 0.26103 0.83917
 H387 H 0.11637 0.21641 0.67677
 H388 H 0.17367 0.26571 0.61778
 H389 H 0.21241 0.35032 0.88455
 H390 H 0.27669 0.39812 0.82061
 H391 H 0.23766 0.10689 0.69787
 H392 H 0.26789 0.15656 0.63390
 H393 H 0.17244 0.38557 0.71442
 H394 H 0.11594 0.33586 0.75604
 H395 H 0.38344 0.17133 0.73739
 H396 H 0.32706 0.12094 0.81023
 O397 O 0.75617 0.61957 0.68239
 O398 O 0.80664 0.60669 0.75601
 O399 O 0.62291 0.67861 0.75511
 O400 O 0.60222 0.74588 0.80003
 O401 O 0.68058 0.74497 0.61852
 O402 O 0.74976 0.80314 0.60431
 O403 O 0.74178 0.82205 0.87588
 O404 O 0.69000 0.74915 0.89056
 O405 O 0.87669 0.75508 0.82193
 O406 O 0.89208 0.69457 0.75056
 O407 O 0.81698 0.87908 0.74471
 O408 O 0.74475 0.89262 0.68944
 O409 O 0.75164 0.88134 0.81515
 O410 O 0.69398 0.89482 0.74403
 O411 O 0.87791 0.82056 0.75172
 O412 O 0.89514 0.74920 0.69765
 O413 O 0.81464 0.76217 0.87934
 O414 O 0.75910 0.70218 0.89823
 O415 O 0.75060 0.67753 0.61983
 O416 O 0.80546 0.74641 0.60486
 O417 O 0.62166 0.74789 0.67976
 O418 O 0.60825 0.80564 0.74816
 O419 O 0.68213 0.61817 0.74841
 O420 O 0.74944 0.60536 0.80745
 Zr421 Zr 0.74891 0.65992 0.74970
 O422 O 0.79378 0.70468 0.79654
 Zr423 Zr 0.66097 0.74687 0.74735
 O424 O 0.70191 0.79575 0.79288
 Zr425 Zr 0.74824 0.74578 0.65920
 O426 O 0.79418 0.79380 0.70177
 Zr427 Zr 0.74926 0.75356 0.83850
 O428 O 0.70399 0.70379 0.79729
 Zr429 Zr 0.83825 0.75230 0.75240
 O430 O 0.79689 0.70363 0.70498
 Zr431 Zr 0.74985 0.83921 0.74806
 O432 O 0.70367 0.79476 0.70154
 O433 O 0.70255 0.69974 0.70187
 O434 O 0.79600 0.80019 0.79704
 C435 C 0.75471 0.63232 0.63590
 C436 C 0.63682 0.63265 0.75289
 C437 C 0.63518 0.74681 0.63370
 C438 C 0.74589 0.86764 0.86110
 C439 C 0.86056 0.76054 0.86714
 C440 C 0.86272 0.86599 0.74749
 H441 H 0.81380 0.68308 0.81892
 H442 H 0.81469 0.81396 0.67848
 H443 H 0.68175 0.67755 0.68084
 H444 H 0.67860 0.81630 0.81275
 H445 H 0.67073 0.71856 0.88249
 H446 H 0.61523 0.76042 0.83148
 H447 H 0.88595 0.77235 0.67017
 H448 H 0.83211 0.72456 0.61808
 H449 H 0.75284 0.66857 0.88421
 H450 H 0.72114 0.61290 0.82994
 H451 H 0.77041 0.88430 0.66423
 H452 H 0.72364 0.82745 0.61367
 H453 H 0.83353 0.61810 0.73336
 H454 H 0.88730 0.67336 0.78069
 H455 H 0.61956 0.83080 0.72329
 H456 H 0.66998 0.88841 0.77142
 O457 O 0.25840 0.62191 0.32042
 O458 O 0.19610 0.61116 0.25016
 O459 O 0.38401 0.68253 0.24877
 O460 O 0.40081 0.74735 0.19734
 O461 O 0.32292 0.74841 0.38070
 O462 O 0.25496 0.80923 0.39190
 O463 O 0.25114 0.82185 0.11959
 O464 O 0.31221 0.75937 0.10652
 O465 O 0.12655 0.74915 0.17823
 O466 O 0.11287 0.69270 0.25139
 O467 O 0.18366 0.87995 0.24560
 O468 O 0.25430 0.89389 0.30727
 O469 O 0.25583 0.88083 0.18100
 O470 O 0.30530 0.89862 0.25296
 O471 O 0.12602 0.81781 0.24097
 O472 O 0.10993 0.74882 0.30244
 O473 O 0.18757 0.74972 0.11910
 O474 O 0.25304 0.69647 0.10455
 O475 O 0.24865 0.68272 0.37935
 O476 O 0.20024 0.75353 0.39528
 O477 O 0.38214 0.75318 0.31984
 O478 O 0.39494 0.81022 0.25064
 O479 O 0.32341 0.62364 0.24050
 O480 O 0.25538 0.59991 0.20234
 Zr481 Zr 0.25662 0.66183 0.25164
 O482 O 0.21124 0.70398 0.20329
 Zr483 Zr 0.34344 0.75015 0.25161
 O484 O 0.30078 0.79709 0.20487
 Zr485 Zr 0.25581 0.74990 0.33940
 O486 O 0.20840 0.79545 0.29582
 Zr487 Zr 0.25400 0.75350 0.15963
 O488 O 0.30038 0.70592 0.20256
 Zr489 Zr 0.16602 0.75101 0.24668
 O490 O 0.20820 0.70510 0.29560
 Zr491 Zr 0.25190 0.84060 0.24851
 O492 O 0.29960 0.79845 0.29570
 O493 O 0.30247 0.70329 0.29830
 O494 O 0.20648 0.79928 0.20054
 C495 C 0.25267 0.63682 0.36599
 C496 C 0.36902 0.63721 0.24229
 C497 C 0.36836 0.75114 0.36589
 C498 C 0.25405 0.86749 0.13485
 C499 C 0.14185 0.74819 0.13253
 C500 C 0.13874 0.86404 0.24137
 H501 H 0.19187 0.68076 0.18207
 H502 H 0.18710 0.81578 0.31804
 H503 H 0.32396 0.68146 0.31905
 H504 H 0.32320 0.81807 0.18424
 H505 H 0.33723 0.73386 0.11584
 H506 H 0.39104 0.76928 0.16905
 H507 H 0.11381 0.77864 0.32407
 H508 H 0.17064 0.73690 0.38092
 H509 H 0.27742 0.67092 0.11533
 H510 H 0.24740 0.61332 0.16868
 H511 H 0.22462 0.88892 0.32860
 H512 H 0.28135 0.83297 0.38161
 H513 H 0.17534 0.61842 0.27996
 H514 H 0.11998 0.66861 0.22416
 H515 H 0.38397 0.83457 0.27633
 H516 H 0.33343 0.88910 0.23108
 O517 O 0.74252 0.37314 0.32159
 O518 O 0.80273 0.38511 0.24884
 O519 O 0.61601 0.31214 0.24520
 O520 O 0.60103 0.24473 0.19653
 O521 O 0.67471 0.23907 0.38012
 O522 O 0.74724 0.18984 0.39682
 O523 O 0.74842 0.17264 0.12428
 O524 O 0.69109 0.23696 0.10851
 O525 O 0.87327 0.25001 0.18363
 O526 O 0.88308 0.30847 0.25958
 O527 O 0.82031 0.11825 0.25303
 O528 O 0.74678 0.10278 0.31157
 O529 O 0.75277 0.11287 0.18516
 O530 O 0.69836 0.09609 0.25374
 O531 O 0.87652 0.18182 0.25551
 O532 O 0.89266 0.24892 0.30444
 O533 O 0.81589 0.24344 0.12140
 O534 O 0.75198 0.29751 0.10585
 O535 O 0.73902 0.31434 0.38346
 O536 O 0.79800 0.24891 0.39798
 O537 O 0.61531 0.24484 0.31974
 O538 O 0.60639 0.18377 0.25291
 O539 O 0.67611 0.37192 0.24007
 O540 O 0.74314 0.39683 0.20450
 Zr541 Zr 0.74262 0.33400 0.25291
 O542 O 0.78947 0.29228 0.20606
 Zr543 Zr 0.65683 0.24472 0.25244
 O544 O 0.70169 0.19783 0.20728
 Zr545 Zr 0.74231 0.24716 0.34211
 O546 O 0.79124 0.20211 0.30024
 Zr547 Zr 0.74878 0.24157 0.16219
 O548 O 0.70073 0.28881 0.20358
 Zr549 Zr 0.83401 0.24694 0.25180
 O550 O 0.79031 0.29252 0.29922
 Zr551 Zr 0.75071 0.15524 0.25192
 O552 O 0.70100 0.19724 0.29760
 O553 O 0.69594 0.29272 0.29931
 O554 O 0.79670 0.19715 0.20464
 C555 C 0.74143 0.35987 0.36801
 C556 C 0.63076 0.35768 0.23904
 C557 C 0.62940 0.24047 0.36563
 C558 C 0.75007 0.12681 0.13909
 C559 C 0.86062 0.24881 0.13717
 C560 C 0.86495 0.13533 0.25553
 H561 H 0.80885 0.31566 0.18483
 H562 H 0.81234 0.18288 0.32371
 H563 H 0.67340 0.31425 0.31919
 H564 H 0.68012 0.17616 0.18662
 H565 H 0.66614 0.26250 0.11784
 H566 H 0.61207 0.22230 0.16922
 H567 H 0.87928 0.23550 0.33633
 H568 H 0.82224 0.27488 0.38761
 H569 H 0.72824 0.32391 0.11587
 H570 H 0.74853 0.38372 0.17025
 H571 H 0.77638 0.10750 0.33300
 H572 H 0.72572 0.16213 0.38518
 H573 H 0.82248 0.38092 0.27990
 H574 H 0.88120 0.32870 0.22847
 H575 H 0.61767 0.16028 0.27935
 H576 H 0.67004 0.10619 0.23244
 C577 C 0.22934 0.09420 0.04841
 C578 C 0.25051 0.09661 0.09427
 H579 H 0.21236 0.12768 0.03321
 H580 H 0.27077 0.06471 0.10871
 C581 C 0.73279 0.59196 0.55533
 C582 C 0.75633 0.59105 0.59973
 H583 H 0.71637 0.62653 0.54206
 H584 H 0.77302 0.55651 0.61287
 C585 C 0.77748 0.92890 0.08170
 C586 C 0.75767 0.93283 0.12761
 H587 H 0.79071 0.89184 0.07156
 H588 H 0.74179 0.96733 0.14116
 C589 C 0.27590 0.43757 0.58853
 C590 C 0.25707 0.39081 0.58561
 H591 H 0.28678 0.45221 0.62474
 H592 H 0.24476 0.37562 0.55012
 C593 C 0.76899 0.06010 0.91059
 C594 C 0.75222 0.10753 0.91316
 H595 H 0.78039 0.04554 0.87450
 H596 H 0.73948 0.12321 0.94824
 C597 C 0.27688 0.55710 0.40657
 C598 C 0.25155 0.60024 0.40706
 H599 H 0.29535 0.54529 0.37248
 H600 H 0.23260 0.61187 0.44097
 C601 C 0.23129 0.90904 0.94242
 C602 C 0.24467 0.91043 0.89378
 H603 H 0.22810 0.87280 0.96036
 H604 H 0.25409 0.94573 0.87608
 C605 C 0.71969 0.40284 0.44850
 C606 C 0.74397 0.40098 0.40435
 H607 H 0.70004 0.37019 0.46239
 H608 H 0.76464 0.43339 0.39151
 C609 C 0.08479 0.25589 0.05368
 C610 C 0.08447 0.25963 0.10377
 H611 H 0.12042 0.25383 0.03505
 H612 H 0.05003 0.26679 0.12340
 C613 C 0.59299 0.71838 0.55639
 C614 C 0.59432 0.74709 0.59747
 H615 H 0.62575 0.69778 0.54512
 H616 H 0.56136 0.76752 0.60858
 C617 C 0.05342 0.75536 0.90707
 C618 C 0.10096 0.73979 0.90642
 H619 H 0.03677 0.76664 0.87192
 H620 H 0.11730 0.72396 0.94000
 C621 C 0.55044 0.26414 0.40671
 C622 C 0.59245 0.23731 0.40579
 H623 H 0.53915 0.28505 0.37377
 H624 H 0.60346 0.21622 0.43876
 C625 C 0.94780 0.75585 0.09641
 C626 C 0.90287 0.77724 0.09977
 H627 H 0.96306 0.73615 0.12845
 H628 H 0.88871 0.79773 0.06766
 C629 C 0.44249 0.26294 0.59592
 C630 C 0.40096 0.23570 0.59982
 H631 H 0.45501 0.28490 0.62763
 H632 H 0.38886 0.21403 0.56769
 C633 C 0.90543 0.26531 0.93996
 C634 C 0.90791 0.26269 0.88934
 H635 H 0.86918 0.26305 0.95725
 H636 H 0.94334 0.25951 0.87068
 C637 C 0.40830 0.72307 0.44488
 C638 C 0.40889 0.75046 0.40263
 H639 H 0.37435 0.70466 0.45656
 H640 H 0.44294 0.76894 0.39123
 C641 C 0.09068 0.05645 0.24487
 C642 C 0.08909 0.10533 0.25630
 H643 H 0.12644 0.03938 0.23789
 H644 H 0.05474 0.12231 0.26874
 C645 C 0.59570 0.55368 0.72688
 C646 C 0.59673 0.59549 0.75482
 H647 H 0.62843 0.54250 0.70618
 H648 H 0.56397 0.60645 0.77567
 C649 C 0.94746 0.09024 0.75962
 C650 C 0.89963 0.08866 0.74507
 H651 H 0.96407 0.12631 0.76753
 H652 H 0.88342 0.05393 0.73205
 C653 C 0.44958 0.59501 0.25825
 C654 C 0.40492 0.59651 0.23628
 H655 H 0.46396 0.62768 0.27745
 H656 H 0.39141 0.56368 0.21664
 C657 C 0.05615 0.90483 0.75835
 C658 C 0.09809 0.90150 0.73170
 H659 H 0.04462 0.87344 0.78141
 H660 H 0.10980 0.93288 0.70867
 C661 C 0.55364 0.40416 0.25672
 C662 C 0.59482 0.39775 0.22948
 H663 H 0.54219 0.37501 0.28262
 H664 H 0.60665 0.42690 0.20376
 C665 C 0.91194 0.94603 0.26496
 C666 C 0.91040 0.90106 0.28720
 H667 H 0.87749 0.96061 0.25020
 H668 H 0.94233 0.88566 0.30625
 C669 C 0.40849 0.44655 0.72234
 C670 C 0.40765 0.40438 0.74957
 H671 H 0.37545 0.45889 0.70281
 H672 H 0.44097 0.39277 0.76920
 C673 C 0.08736 0.27833 0.94544
 C674 C 0.08941 0.25908 0.89938
 H675 H 0.11954 0.29657 0.96151
 H676 H 0.05702 0.24017 0.88432
 C677 C 0.59265 0.71629 0.44500
 C678 C 0.59368 0.74312 0.40267
 H679 H 0.62569 0.69689 0.45753
 H680 H 0.56075 0.76316 0.39074
 C681 C 0.94326 0.75373 0.90982
 C682 C 0.89497 0.76642 0.90956
 H683 H 0.95960 0.74226 0.87461
 H684 H 0.87795 0.78213 0.94274
 C685 C 0.43964 0.26851 0.40709
 C686 C 0.39603 0.24483 0.40455
 H687 H 0.45306 0.28910 0.37474
 H688 H 0.38290 0.22398 0.43689
 C689 C 0.05930 0.76067 0.09218
 C690 C 0.10603 0.74319 0.09146
 H691 H 0.04454 0.77677 0.12635
 H692 H 0.12048 0.72574 0.05785
 C693 C 0.55281 0.25932 0.59231
 C694 C 0.59451 0.23213 0.59089
 H695 H 0.54238 0.27875 0.62637
 H696 H 0.60449 0.21236 0.55685
 C697 C 0.90170 0.24558 0.05231
 C698 C 0.90146 0.25697 0.10150
 H699 H 0.86859 0.23046 0.03507
 H700 H 0.93413 0.27386 0.11806
 C701 C 0.40820 0.72012 0.55699
 C702 C 0.40821 0.74519 0.60040
 H703 H 0.37450 0.70220 0.54407
 H704 H 0.44177 0.76380 0.61282
 C705 C 0.21635 0.08676 0.93370
 C706 C 0.24302 0.12903 0.93572
 H707 H 0.19726 0.07993 0.89843
 H708 H 0.26546 0.13856 0.96791
 C709 C 0.73163 0.58863 0.44188
 C710 C 0.74994 0.58655 0.39489
 H711 H 0.71986 0.62441 0.45672
 H712 H 0.76323 0.55155 0.37952
 C713 C 0.77214 0.04626 0.09652
 C714 C 0.74596 0.08910 0.09927
 H715 H 0.79516 0.03450 0.12769
 H716 H 0.72322 0.10025 0.06762
 C717 C 0.27593 0.55091 0.59348
 C718 C 0.25027 0.59391 0.59471
 H719 H 0.29589 0.53848 0.62649
 H720 H 0.23013 0.60575 0.56156
 C721 C 0.76985 0.94746 0.90230
 C722 C 0.74290 0.90522 0.90092
 H723 H 0.79075 0.95945 0.86967
 H724 H 0.72225 0.89398 0.93406
 C725 C 0.27832 0.44497 0.40390
 C726 C 0.25262 0.40202 0.40442
 H727 H 0.29622 0.45770 0.36977
 H728 H 0.23418 0.38999 0.43858
 C729 C 0.23259 0.90877 0.05435
 C730 C 0.25676 0.90855 0.09826
 H731 H 0.21276 0.87541 0.04285
 H732 H 0.27673 0.94163 0.11031
 C733 C 0.70816 0.41030 0.56426
 C734 C 0.73977 0.37199 0.56547
 H735 H 0.68292 0.41505 0.59569
 H736 H 0.76612 0.36617 0.53533
 C737 C 0.05862 0.09306 0.75872
 C738 C 0.10394 0.09615 0.77938
 H739 H 0.04429 0.12471 0.73780
 H740 H 0.11783 0.06482 0.80110
 C741 C 0.56025 0.59311 0.24873
 C742 C 0.60854 0.59483 0.26077
 H743 H 0.54275 0.62666 0.23426
 H744 H 0.62613 0.56213 0.27676
 C745 C 0.09557 0.94551 0.25424
 C746 C 0.09764 0.89940 0.23465
 H747 H 0.12765 0.96080 0.27330
 H748 H 0.06558 0.88468 0.21502
 C749 C 0.59321 0.44068 0.71692
 C750 C 0.59212 0.39347 0.73463
 H751 H 0.62772 0.45573 0.70251
 H752 H 0.55812 0.37909 0.75090
 C753 C 0.90840 0.05431 0.24232
 C754 C 0.90704 0.10098 0.26051
 H755 H 0.87567 0.03886 0.22462
 H756 H 0.93985 0.11645 0.27822
 C757 C 0.41054 0.55827 0.72554
 C758 C 0.41022 0.60195 0.75028
 H759 H 0.37681 0.54547 0.70760
 H760 H 0.44362 0.61488 0.76877
 C761 C 0.94482 0.90631 0.76402
 C762 C 0.89878 0.90723 0.74462
 H763 H 0.95909 0.87178 0.77971
 H764 H 0.88499 0.94138 0.72760
 C765 C 0.44300 0.40855 0.26241
 C766 C 0.39726 0.40910 0.24260
 H767 H 0.45691 0.37428 0.27898
 H768 H 0.38369 0.44302 0.22496
   
