data_POSCAR
  _audit_creation_date              2014-09-24
  _audit_creation_method            'ToBaCCo'
  _symmetry_space_group_name_H-M    'P1'
  _symmetry_Int_Tables_number       1
  _symmetry_cell_setting            triclinic
  loop_
  _symmetry_equiv_pos_as_xyz
 x,y,z
_cell_length_a 22.7218
_cell_length_b 23.1336
_cell_length_c 23.3713
_cell_angle_alpha 98.222000
_cell_angle_beta 135.511100
_cell_angle_gamma 109.292500
loop_
  _atom_site_label
  _atom_site_type_symbol
  _atom_site_fract_x
  _atom_site_fract_y
  _atom_site_fract_z
O1 O 0.63355 0.54415 0.04919
 O2 O 0.52407 0.54069 0.11122
 O3 O 0.58890 0.46990 0.10181
 O4 O 0.57165 0.61395 0.05976
 O5 O 0.40732 0.52479 -0.09779
 O6 O 0.42570 0.38070 -0.05637
 O7 O 0.36181 0.44948 -0.04601
 O8 O 0.47071 0.45492 -0.10908
 Cu9 Cu 0.59614 0.55077 0.09676
 Cu10 Cu 0.39965 0.44356 -0.09334
 C11 C 0.57153 0.50122 -0.04000
 C12 C 0.42326 0.49427 0.04249
 C13 C 0.51131 0.40110 0.03035
 C14 C 0.48611 0.59367 -0.02690
 O15 O -0.07386 0.55090 0.46345
 O16 O -0.10355 0.37785 0.40899
 O17 O -0.07024 0.46709 0.52682
 O18 O -0.10660 0.46237 0.34615
 O19 O 0.06890 0.53086 0.46738
 O20 O 0.10499 0.53423 0.64731
 O21 O 0.07174 0.44551 0.52940
 O22 O 0.10156 0.61844 0.58522
 Cu23 Cu -0.10605 0.45776 0.42468
 Cu24 Cu 0.10417 0.53865 0.56874
 C25 C 0.01869 0.61439 0.53377
 C26 C -0.02063 0.38215 0.46012
 C27 C 0.02282 0.50205 0.61763
 C28 C -0.02392 0.49640 0.37667
 O29 O 0.60020 0.06132 0.65185
 O30 O 0.52051 0.05652 0.44555
 O31 O 0.45912 0.06717 0.50868
 O32 O 0.66065 0.05003 0.59011
 O33 O 0.54044 -0.07280 0.49329
 O34 O 0.33831 -0.05567 0.41020
 O35 O 0.40090 -0.06609 0.35047
 O36 O 0.47869 -0.06098 0.55615
 Cu37 Cu 0.57162 0.07076 0.55813
 Cu38 Cu 0.42814 -0.07594 0.44353
 C39 C 0.54995 0.00170 0.63821
 C40 C 0.45006 -0.00613 0.36393
 C41 C 0.36562 0.00861 0.44863
 C42 C 0.63347 -0.01433 0.55227
 C43 C 0.51178 -0.01638 -0.05226
 C44 C 0.51676 -0.05480 -0.00875
 C45 C 0.50473 -0.04109 0.04179
 C46 C 0.48875 0.01094 0.05175
 C47 C 0.48438 0.04968 0.00880
 C48 C 0.49588 0.03572 -0.04218
 H49 H 0.49121 0.06558 -0.07545
 H50 H 0.50949 -0.07085 0.07520
 C51 C 0.02335 0.52881 1.07682
 C52 C -0.04738 0.53622 0.99970
 C53 C -0.06444 0.52185 0.92741
 C54 C -0.01140 0.50074 0.93135
 C55 C 0.05854 0.49251 1.00790
 C56 C 0.07687 0.50809 1.08111
 H57 H 0.12947 0.50101 1.13923
 H58 H -0.11821 0.52798 0.86858
 C59 C 0.05998 0.02412 0.49450
 C60 C 0.01455 0.05692 0.48867
 C61 C -0.04669 0.02851 0.49279
 C62 C -0.06446 -0.03125 0.50235
 C63 C -0.01874 -0.06394 0.50849
 C64 C 0.04196 -0.03575 0.50374
 H65 H 0.07579 -0.06126 0.50680
 H66 H -0.08065 0.05401 0.48948
 C67 C -0.43795 0.44426 0.85213
 C68 C -0.38125 0.50473 0.93823
 C69 C -0.27503 0.56688 1.00831
 C70 C -0.22246 0.56606 0.99734
 C71 C -0.27773 0.50287 0.91375
 C72 C -0.38644 0.44342 0.83984
 C73 C -0.22118 0.49769 0.90962
 C74 C -0.10983 0.55327 0.98997
 C75 C -0.05702 0.61846 1.06882
 C76 C -0.11334 0.62509 1.07220
 H77 H -0.23135 0.61430 1.07419
 H78 H -0.42997 0.39480 0.77514
 H79 H -0.26134 0.44726 0.84912
 H80 H -0.07024 0.67410 1.13625
 H81 H -0.52032 0.39610 0.79684
 H82 H 0.02902 0.66172 1.13087
 C83 C 0.44007 0.55197 1.15389
 C84 C 0.37824 0.49391 1.06266
 C85 C 0.26780 0.43810 0.98835
 C86 C 0.21793 0.44397 1.00072
 C87 C 0.27905 0.50621 1.08896
 C88 C 0.39056 0.55833 1.16658
 C89 C 0.22659 0.51794 1.09497
 C90 C 0.11415 0.46905 1.01289
 C91 C 0.05497 0.40352 0.92966
 C92 C 0.10661 0.39111 0.92341
 H93 H 0.21917 0.39170 0.91857
 H94 H 0.43871 0.60580 1.23523
 H95 H 0.27208 0.56828 1.15946
 H96 H 0.05894 0.34251 0.85596
 H97 H 0.52565 0.59513 1.21333
 H98 H -0.03188 0.36480 0.86667
 C99 C 0.13139 -0.24906 0.63307
 C100 C 0.02915 -0.31984 0.55350
 C101 C -0.06249 -0.32329 0.49200
 C102 C -0.05241 -0.25783 0.50539
 C103 C 0.05058 -0.18758 0.58347
 C104 C 0.14199 -0.18369 0.64849
 C105 C 0.06028 -0.12286 0.59109
 C106 C -0.03148 -0.12766 0.51821
 C107 C -0.13340 -0.19753 0.44301
 C108 C -0.14380 -0.26174 0.43815
 H109 H -0.14215 -0.37695 0.43044
 H110 H 0.22171 -0.13022 0.70896
 H111 H 0.13942 -0.06932 0.64878
 H112 H -0.22351 -0.31516 0.37765
 H113 H 0.20363 -0.24400 0.68260
 H114 H -0.20512 -0.20390 0.38339
 C115 C -0.13322 0.24243 0.35872
 C116 C -0.03120 0.31302 0.44043
 C117 C 0.06071 0.31701 0.50596
 C118 C 0.05076 0.25168 0.49346
 C119 C -0.05232 0.18117 0.41275
 C120 C -0.14374 0.17709 0.34442
 C121 C -0.06238 0.11638 0.40548
 C122 C 0.02883 0.12128 0.48046
 C123 C 0.13091 0.19144 0.55854
 C124 C 0.14197 0.25585 0.56374
 H125 H 0.13997 0.37097 0.56943
 H126 H -0.22350 0.12350 0.28202
 H127 H -0.14168 0.06260 0.34586
 H128 H 0.22164 0.30946 0.62636
 H129 H -0.20513 0.23773 0.30692
 H130 H 0.20182 0.19765 0.61974
 C131 C 0.64723 0.07639 -0.19826
 C132 C 0.56900 0.00637 -0.28814
 C133 C 0.50412 -0.05667 -0.30586
 C134 C 0.51268 -0.04875 -0.23856
 C135 C 0.58871 0.02255 -0.15118
 C136 C 0.65714 0.08425 -0.13075
 C137 C 0.59221 0.03165 -0.08764
 C138 C 0.51984 -0.02940 -0.11038
 C139 C 0.44650 -0.10049 -0.19606
 C140 C 0.44338 -0.11019 -0.25910
 H141 H 0.44318 -0.11125 -0.37421
 H142 H 0.71633 0.13931 -0.06383
 H143 H 0.64861 0.08688 -0.02223
 H144 H 0.38404 -0.16537 -0.32589
 H145 H 0.69932 0.12619 -0.18093
 H146 H 0.38804 -0.14805 -0.21696
 C147 C 0.34992 -0.08017 0.19559
 C148 C 0.43009 -0.01063 0.28644
 C149 C 0.49799 0.05187 0.30632
 C150 C 0.48927 0.04398 0.23895
 C151 C 0.41095 -0.02699 0.15007
 C152 C 0.34028 -0.08821 0.12822
 C153 C 0.40735 -0.03628 0.08645
 C154 C 0.48132 0.02432 0.11029
 C155 C 0.55661 0.09519 0.19718
 C156 C 0.56034 0.10502 0.26067
 H157 H 0.56073 0.10584 0.37607
 H158 H 0.27944 -0.14300 0.06025
 H159 H 0.34945 -0.09131 0.02001
 H160 H 0.62121 0.15992 0.32848
 H161 H 0.29640 -0.12932 0.17775
 H162 H 0.61586 0.14236 0.21844
 C163 C 0.37486 -0.36939 -0.12741
 C164 C 0.47690 -0.34945 -0.04515
 C165 C 0.56876 -0.27473 0.02091
 C166 C 0.55800 -0.22019 0.00644
 C167 C 0.45425 -0.24081 -0.07419
 C168 C 0.36370 -0.31526 -0.14086
 C169 C 0.44214 -0.18621 -0.08417
 C170 C 0.53223 -0.11099 -0.01448
 C171 C 0.63552 -0.09047 0.06328
 C172 C 0.64848 -0.14493 0.07338
 H173 H 0.64809 -0.25886 0.08424
 H174 H 0.28418 -0.33117 -0.20263
 H175 H 0.36257 -0.20144 -0.14202
 H176 H 0.72876 -0.12785 0.13585
 H177 H 0.30331 -0.42672 -0.17975
 H178 H 0.70565 -0.03206 0.11934
 C179 C 0.62524 0.36404 0.12379
 C180 C 0.52262 0.34459 0.04777
 C181 C 0.43198 0.27055 -0.01386
 C182 C 0.44421 0.21615 -0.00082
 C183 C 0.54808 0.23623 0.07370
 C184 C 0.63771 0.31006 0.13583
 C185 C 0.56066 0.18159 0.08194
 C186 C 0.47096 0.10685 0.01648
 C187 C 0.36803 0.08695 -0.05495
 C188 C 0.35466 0.14149 -0.06326
 H189 H 0.35237 0.25519 -0.07258
 H190 H 0.71735 0.32562 0.19307
 H191 H 0.63962 0.19621 0.13498
 H192 H 0.27432 0.12486 -0.12096
 H193 H 0.69581 0.42082 0.17209
 H194 H 0.29795 0.02884 -0.10761
 C195 C -0.18083 0.03545 0.65902
 C196 C -0.29262 -0.02058 0.56979
 C197 C -0.33420 -0.07633 0.49093
 C198 C -0.26577 -0.07283 0.49830
 C199 C -0.15359 -0.01519 0.58764
 C200 C -0.11181 0.03732 0.66855
 C201 C -0.08616 -0.00763 0.59192
 C202 C -0.12979 -0.05482 0.50677
 C203 C -0.24136 -0.11186 0.41860
 C204 C -0.30833 -0.12225 0.41518
 H205 H -0.42046 -0.11874 0.42089
 H206 H -0.02615 0.08219 0.73746
 H207 H -0.00079 0.03874 0.65880
 H208 H -0.39429 -0.16574 0.34540
 H209 H -0.14704 0.07923 0.72042
 H210 H -0.27780 -0.14535 0.35029
 C211 C 0.17940 -0.04190 0.34090
 C212 C 0.29108 0.01454 0.43028
 C213 C 0.33185 0.07040 0.50843
 C214 C 0.26276 0.06662 0.50026
 C215 C 0.15075 0.00850 0.41084
 C216 C 0.10975 -0.04412 0.33059
 C217 C 0.08275 0.00061 0.40589
 C218 C 0.12565 0.04797 0.49047
 C219 C 0.23703 0.10560 0.57864
 C220 C 0.30455 0.11625 0.58271
 H221 H 0.41800 0.11316 0.57858
 H222 H 0.02422 -0.08933 0.26163
 H223 H -0.00245 -0.04614 0.33901
 H224 H 0.39038 0.16013 0.65254
 H225 H 0.14620 -0.08574 0.28000
 H226 H 0.27303 0.13927 0.64661
 C227 C -0.13383 0.44239 1.20380
 C228 C -0.03451 0.49554 1.30680
 C229 C 0.05664 0.54644 1.34364
 C230 C 0.04920 0.54328 1.27846
 C231 C -0.05090 0.48857 1.17498
 C232 C -0.14212 0.43897 1.13819
 C233 C -0.05791 0.48384 1.11003
 C234 C 0.03314 0.53409 1.14683
 C235 C 0.13238 0.58839 1.24932
 C236 C 0.14043 0.59308 1.31506
 H237 H 0.13364 0.58803 1.42308
 H238 H -0.21939 0.39693 1.05898
 H239 H -0.13404 0.44107 1.03075
 H240 H 0.21769 0.63531 1.39419
 H241 H -0.20455 0.40210 1.17390
 H242 H 0.20305 0.62722 1.27802
 C243 C 0.13632 0.55946 0.79189
 C244 C 0.03496 0.50714 0.68923
 C245 C -0.05615 0.46293 0.65487
 C246 C -0.04635 0.47213 0.72227
 C247 C 0.05605 0.52601 0.82538
 C248 C 0.14697 0.56876 0.85961
 C249 C 0.06589 0.53650 0.89268
 C250 C -0.02467 0.49229 0.85867
 C251 C -0.12636 0.43916 0.75648
 C252 C -0.13724 0.42910 0.68838
 H253 H -0.13486 0.42223 0.57572
 H254 H 0.22595 0.61007 0.93849
 H255 H 0.14411 0.57831 0.97178
 H256 H -0.21626 0.38762 0.60959
 H257 H 0.20712 0.59487 0.82001
 H258 H -0.19669 0.40482 0.72986
   
