data_POSCAR
  _audit_creation_date              2014-09-24
  _audit_creation_method            'ToBaCCo'
  _symmetry_space_group_name_H-M    'P1'
  _symmetry_Int_Tables_number       1
  _symmetry_cell_setting            triclinic
  loop_
  _symmetry_equiv_pos_as_xyz
 x,y,z
_cell_length_a 31.0157
_cell_length_b 30.7544
_cell_length_c 15.9056
_cell_angle_alpha 90.214200
_cell_angle_beta 90.350400
_cell_angle_gamma 90.038100
loop_
  _atom_site_label
  _atom_site_type_symbol
  _atom_site_fract_x
  _atom_site_fract_y
  _atom_site_fract_z
C1 C 0.81949 0.18038 0.45163
 C2 C 0.82481 0.16389 0.53322
 C3 C 0.79977 0.17769 0.60101
 C4 C 0.76869 0.21077 0.58843
 C5 C 0.76128 0.22714 0.50629
 C6 C 0.78742 0.21291 0.43805
 C7 C 0.78307 0.23445 0.36040
 C8 C 0.75064 0.26454 0.34653
 C9 C 0.72266 0.27658 0.41111
 C10 C 0.72855 0.25898 0.49277
 C11 C 0.74507 0.22816 0.65567
 C12 C 0.71439 0.26051 0.64282
 C13 C 0.70329 0.27466 0.56139
 C14 C 0.67041 0.30641 0.54604
 C15 C 0.66435 0.32082 0.46286
 C16 C 0.69032 0.30761 0.39687
 H17 H 0.80528 0.22969 0.30939
 H18 H 0.74845 0.27920 0.28487
 H19 H 0.75077 0.21756 0.71958
 H20 H 0.70070 0.27483 0.69844
 H21 H 0.84928 0.13954 0.54504
 H22 H 0.63841 0.34319 0.44784
 C23 C 0.31507 0.68212 0.43723
 C24 C 0.32743 0.66810 0.51735
 C25 C 0.31133 0.68745 0.59028
 C26 C 0.28324 0.72346 0.58387
 C27 C 0.27021 0.73841 0.50347
 C28 C 0.28589 0.71745 0.42981
 C29 C 0.27177 0.73228 0.35099
 C30 C 0.24514 0.76836 0.34414
 C31 C 0.22969 0.78996 0.41592
 C32 C 0.24165 0.77454 0.49667
 C33 C 0.26845 0.74531 0.65570
 C34 C 0.24155 0.78130 0.64905
 C35 C 0.22617 0.79580 0.57046
 C36 C 0.19829 0.83263 0.56279
 C37 C 0.18855 0.84786 0.48157
 C38 C 0.20340 0.82719 0.40892
 H39 H 0.28124 0.71645 0.29329
 H40 H 0.23713 0.77918 0.28142
 H41 H 0.27827 0.73534 0.71811
 H42 H 0.23417 0.79813 0.70679
 H43 H 0.35095 0.64221 0.52310
 H44 H 0.16658 0.87496 0.47362
 C45 C 0.16986 0.19591 -0.44082
 C46 C 0.16517 0.17659 -0.52049
 C47 C 0.18809 0.19043 -0.59070
 C48 C 0.21617 0.22651 -0.58275
 C49 C 0.22316 0.24589 -0.50254
 C50 C 0.19979 0.23093 -0.43127
 C51 C 0.20454 0.25397 -0.35497
 C52 C 0.23417 0.28757 -0.34626
 C53 C 0.25897 0.30133 -0.41448
 C54 C 0.25269 0.28127 -0.49416
 C55 C 0.23762 0.24357 -0.65277
 C56 C 0.26487 0.27919 -0.64499
 C57 C 0.27482 0.29737 -0.56590
 C58 C 0.30384 0.33310 -0.55684
 C59 C 0.30987 0.35135 -0.47669
 C60 C 0.28838 0.33612 -0.40591
 H61 H 0.18471 0.24754 -0.30105
 H62 H 0.23638 0.30374 -0.28582
 H63 H 0.23302 0.23004 -0.71504
 H64 H 0.27724 0.29255 -0.70262
 H65 H 0.14228 0.15035 -0.52897
 H66 H 0.33403 0.37639 -0.46759
 C67 C -0.29917 0.66792 -0.43818
 C68 C -0.30524 0.64888 -0.51757
 C69 C -0.29041 0.66789 -0.59205
 C70 C -0.26680 0.70746 -0.58682
 C71 C -0.25753 0.72607 -0.50679
 C72 C -0.27359 0.70623 -0.43240
 C73 C -0.26136 0.72377 -0.35411
 C74 C -0.23717 0.76161 -0.34849
 C75 C -0.22177 0.78236 -0.42083
 C76 C -0.23148 0.76432 -0.50095
 C77 C -0.25042 0.72791 -0.65879
 C78 C -0.22737 0.76649 -0.65327
 C79 C -0.21556 0.78456 -0.57511
 C80 C -0.19029 0.82336 -0.56870
 C81 C -0.18269 0.84097 -0.48822
 C82 C -0.19717 0.82090 -0.41495
 H83 H -0.26966 0.70807 -0.29574
 H84 H -0.23069 0.77425 -0.28621
 H85 H -0.25493 0.71449 -0.72099
 H86 H -0.21940 0.78180 -0.71199
 H87 H -0.32678 0.62137 -0.52312
 H88 H -0.16225 0.86940 -0.48126
 N89 N 0.05393 1.04718 0.13797
 N90 N 0.08633 1.05601 0.18932
 N91 N -0.04127 1.07515 0.10236
 N92 N -0.06861 1.10503 0.12871
 N93 N -0.03572 1.04511 0.15989
 N94 N -0.05853 1.05415 0.22740
 N95 N 0.04873 1.07854 0.08317
 N96 N 0.07719 1.10984 0.09650
 C97 C 0.10088 1.09495 0.16217
 C98 C -0.07961 1.09097 0.20613
 N99 N -0.05529 1.04638 -0.13524
 N100 N -0.08849 1.05366 -0.18538
 N101 N 0.03791 1.07930 -0.09629
 N102 N 0.06333 1.11140 -0.11976
 N103 N 0.03453 1.04990 -0.15610
 N104 N 0.05690 1.06174 -0.22249
 N105 N -0.05220 1.07693 -0.07772
 N106 N -0.08290 1.10627 -0.08818
 Mn107 Mn -0.00177 1.07787 0.00290
 C108 C -0.10572 1.09087 -0.15489
 C109 C 0.07553 1.09953 -0.19795
 N110 N -0.03404 0.95159 0.15563
 N111 N -0.06203 0.94486 0.21627
 N112 N 0.05275 0.92315 0.07766
 N113 N 0.08333 0.89377 0.08900
 N114 N 0.05600 0.95413 0.13436
 N115 N 0.08916 0.94724 0.18460
 N116 N -0.03700 0.92100 0.09798
 N117 N -0.06676 0.89220 0.11870
 Mn118 Mn 0.01011 0.99941 0.14760
 C119 C -0.08222 0.90776 0.19254
 C120 C 0.10615 0.90980 0.15516
 N121 N 0.03771 0.95585 -0.15891
 N122 N 0.06594 0.95093 -0.21994
 N123 N -0.04812 0.92199 -0.08363
 N124 N -0.07764 0.89162 -0.09662
 N125 N -0.05245 0.95342 -0.13868
 N126 N -0.08536 0.94583 -0.18932
 N127 N 0.04168 0.92452 -0.10343
 N128 N 0.07249 0.89722 -0.12577
 Mn129 Mn -0.00885 1.00132 -0.14798
 Mn130 Mn 0.00230 0.92207 -0.00288
 Cl131 Cl 0.00045 1.00015 -0.00014
 C132 C 0.08747 0.91429 -0.19844
 C133 C -0.10100 0.90744 -0.16203
 N134 N 0.54612 0.57536 -0.09641
 N135 N 0.57593 0.60371 -0.11888
 N136 N 0.45124 0.55030 -0.13524
 N137 N 0.41919 0.56025 -0.18637
 N138 N 0.45664 0.58078 -0.07815
 N139 N 0.42892 0.61280 -0.09015
 N140 N 0.54163 0.54482 -0.15380
 N141 N 0.56879 0.55120 -0.21613
 C142 C 0.59018 0.58784 -0.19320
 C143 C 0.40526 0.59902 -0.15700
 N144 N 0.44621 0.42579 -0.08262
 N145 N 0.41342 0.39886 -0.09417
 N146 N 0.53486 0.45100 -0.15719
 N147 N 0.55663 0.43988 -0.22471
 N148 N 0.53575 0.41943 -0.10175
 N149 N 0.55797 0.38590 -0.13075
 N150 N 0.44498 0.45731 -0.13808
 N151 N 0.41110 0.45309 -0.18789
 Mn152 Mn 0.49322 0.50089 -0.14677
 C153 C 0.39151 0.41673 -0.15953
 C154 C 0.57143 0.39956 -0.20706
 N155 N 0.46659 0.57884 0.10282
 N156 N 0.43791 0.60859 0.12422
 N157 N 0.55785 0.54184 0.13950
 N158 N 0.59107 0.54691 0.19061
 N159 N 0.55631 0.57339 0.08423
 N160 N 0.58824 0.60116 0.09700
 N161 N 0.46772 0.54747 0.15854
 N162 N 0.43946 0.55464 0.21868
 Mn163 Mn 0.50643 0.57756 0.00319
 C164 C 0.42110 0.59285 0.19646
 C165 C 0.60996 0.58377 0.16295
 N166 N 0.54663 0.41824 0.07905
 N167 N 0.57584 0.38729 0.08806
 N168 N 0.46206 0.45440 0.15552
 N169 N 0.43561 0.44819 0.21881
 N170 N 0.45709 0.42386 0.09838
 N171 N 0.42758 0.39550 0.12215
 N172 N 0.55210 0.44869 0.13626
 N173 N 0.58543 0.43965 0.18488
 Mn174 Mn 0.49638 0.42136 -0.00168
 Mn175 Mn 0.50999 0.49808 0.14821
 Cl176 Cl 0.50156 0.49945 0.00062
 C177 C 0.60013 0.40146 0.15384
 C178 C 0.41410 0.41161 0.19686
 C179 C 0.33466 0.39581 0.36995
 C180 C 0.32821 0.35091 0.37664
 C181 C 0.35122 0.32514 0.31733
 C182 C 0.37787 0.34463 0.25539
 C183 C 0.38315 0.39028 0.25246
 C184 C 0.36025 0.41418 0.31115
 C185 C 0.35153 0.45942 0.33948
 C186 C 0.32214 0.43892 0.40608
 H187 H 0.35056 0.29001 0.32109
 H188 H 0.39570 0.32396 0.21272
 H189 H 0.33373 0.47847 0.29127
 H190 H 0.38068 0.47541 0.36639
 H191 H 0.28737 0.44616 0.39617
 H192 H 0.33422 0.44417 0.47121
 C193 C -0.15076 0.82182 0.29598
 C194 C -0.17100 0.84468 0.36156
 C195 C -0.16726 0.89064 0.35926
 C196 C -0.14031 0.91139 0.30089
 C197 C -0.11644 0.88701 0.24238
 C198 C -0.12468 0.84239 0.23738
 C199 C -0.09385 0.80517 0.23479
 C200 C -0.12231 0.78270 0.29890
 H201 H -0.18379 0.91069 0.40497
 H202 H -0.13641 0.94635 0.30465
 H203 H -0.06139 0.81385 0.25978
 H204 H -0.09391 0.78867 0.17249
 H205 H -0.10643 0.77843 0.36120
 H206 H -0.13855 0.75320 0.27340
 C207 C 0.67738 0.67066 0.26573
 C208 C 0.69734 0.64754 0.33136
 C209 C 0.69726 0.60163 0.32423
 C210 C 0.67209 0.58049 0.26277
 C211 C 0.64638 0.60468 0.20682
 C212 C 0.65263 0.64972 0.20461
 C213 C 0.62027 0.68563 0.20248
 C214 C 0.64728 0.70852 0.26925
 H215 H 0.71369 0.58193 0.37081
 H216 H 0.66962 0.54537 0.26443
 H217 H 0.58803 0.67535 0.22536
 H218 H 0.62005 0.70284 0.14115
 H219 H 0.63075 0.71146 0.33086
 H220 H 0.66253 0.73892 0.24628
 C221 C 0.18528 1.12428 0.32225
 C222 C 0.17944 1.16927 0.33240
 C223 C 0.15617 1.19072 0.26788
 C224 C 0.13364 1.16653 0.20565
 C225 C 0.13397 1.12059 0.20712
 C226 C 0.16364 1.10095 0.26133
 C227 C 0.16482 1.05995 0.31119
 C228 C 0.18973 1.08548 0.37820
 H229 H 0.15101 1.22552 0.27123
 H230 H 0.11240 1.18361 0.16280
 H231 H 0.18444 1.03425 0.28044
 H232 H 0.13242 1.04949 0.33274
 H233 H 0.22384 1.07485 0.38442
 H234 H 0.17203 1.08756 0.43837
 C235 C 0.63014 0.36922 -0.40339
 C236 C 0.64379 0.32615 -0.39182
 C237 C 0.62605 0.30446 -0.32125
 C238 C 0.60226 0.32775 -0.25970
 C239 C 0.59430 0.37268 -0.26938
 C240 C 0.60595 0.39137 -0.34530
 C241 C 0.62755 0.43347 -0.36382
 C242 C 0.65459 0.40904 -0.42772
 H243 H 0.62998 0.26976 -0.31344
 H244 H 0.59068 0.31081 -0.20473
 H245 H 0.64650 0.44600 -0.30937
 H246 H 0.60474 0.45678 -0.39327
 H247 H 0.68932 0.40719 -0.41031
 H248 H 0.64784 0.41907 -0.49358
 C249 C 0.16138 0.83160 -0.29922
 C250 C 0.17868 0.85425 -0.36787
 C251 C 0.17135 0.89980 -0.36894
 C252 C 0.14355 0.91982 -0.31081
 C253 C 0.12236 0.89511 -0.24928
 C254 C 0.13435 0.85150 -0.24113
 C255 C 0.10686 0.81188 -0.23346
 C256 C 0.13633 0.79013 -0.29701
 H257 H 0.18567 0.91994 -0.41702
 H258 H 0.13690 0.95423 -0.31707
 H259 H 0.07349 0.81699 -0.25744
 H260 H 0.10908 0.79727 -0.16977
 H261 H 0.12013 0.78269 -0.35795
 H262 H 0.15536 0.76293 -0.26977
 C263 C 0.31395 0.62818 -0.30173
 C264 C 0.32604 0.66979 -0.32811
 C265 C 0.35720 0.69204 -0.27929
 C266 C 0.38018 0.67013 -0.21529
 C267 C 0.37289 0.62550 -0.20095
 C268 C 0.33707 0.60651 -0.24040
 C269 C 0.32939 0.56317 -0.28037
 C270 C 0.30351 0.58695 -0.34768
 H271 H 0.36660 0.72482 -0.29581
 H272 H 0.40678 0.68663 -0.18436
 H273 H 0.30925 0.54169 -0.24056
 H274 H 0.35924 0.54802 -0.30534
 H275 H 0.26851 0.57930 -0.34588
 H276 H 0.31831 0.58450 -0.41085
 C277 C -0.19563 1.11408 -0.30689
 C278 C -0.19137 1.15900 -0.32019
 C279 C -0.16757 1.18250 -0.25889
 C280 C -0.14270 1.16032 -0.19752
 C281 C -0.14116 1.11440 -0.19698
 C282 C -0.17142 1.09265 -0.24718
 C283 C -0.17155 1.05107 -0.29592
 C284 C -0.19912 1.07443 -0.36141
 H285 H -0.16368 1.21737 -0.26482
 H286 H -0.12104 1.17894 -0.15767
 H287 H -0.18915 1.02475 -0.26292
 H288 H -0.13918 1.04205 -0.31997
 H289 H -0.23270 1.06185 -0.36458
 H290 H -0.18293 1.07692 -0.42313
 C291 C 0.67303 0.60442 -0.36114
 C292 C 0.67828 0.64944 -0.36942
 C293 C 0.65464 0.67490 -0.31036
 C294 C 0.62740 0.65516 -0.24948
 C295 C 0.62229 0.60946 -0.24671
 C296 C 0.64700 0.58589 -0.30295
 C297 C 0.65528 0.54089 -0.33199
 C298 C 0.68533 0.56123 -0.39746
 H299 H 0.65474 0.71003 -0.31432
 H300 H 0.60872 0.67572 -0.20801
 H301 H 0.62579 0.52626 -0.35985
 H302 H 0.67232 0.52122 -0.28369
 H303 H 0.67359 0.55583 -0.46274
 H304 H 0.71994 0.55357 -0.38672
 C305 C 0.16012 1.17174 -0.29352
 C306 C 0.14399 1.17921 -0.37497
 C307 C 0.10114 1.16510 -0.39111
 C308 C 0.07863 1.13986 -0.33262
 C309 C 0.09777 1.12883 -0.25549
 C310 C 0.13725 1.14791 -0.23454
 C311 C 0.17728 1.12719 -0.20097
 C312 C 0.20228 1.15320 -0.26558
 H313 H 0.08540 1.17214 -0.45049
 H314 H 0.04681 1.12778 -0.34883
 H315 H 0.17818 1.09151 -0.21240
 H316 H 0.18425 1.13735 -0.13513
 H317 H 0.21756 1.13265 -0.31474
 H318 H 0.22370 1.17819 -0.23676
 C319 C 0.32018 0.33218 -0.26033
 C320 C 0.30006 0.35638 -0.32389
 C321 C 0.30076 0.40207 -0.31567
 C322 C 0.32752 0.42221 -0.25525
 C323 C 0.35370 0.39702 -0.20153
 C324 C 0.34630 0.35209 -0.20000
 C325 C 0.37767 0.31525 -0.20076
 C326 C 0.34908 0.29356 -0.26660
 H327 H 0.28479 0.42213 -0.36221
 H328 H 0.33098 0.45725 -0.25653
 H329 H 0.37834 0.29758 -0.13993
 H330 H 0.40982 0.32482 -0.22518
 H331 H 0.33322 0.26348 -0.24363
 H332 H 0.36463 0.29060 -0.32919
 C333 C -0.15845 0.81741 -0.27567
 C334 C -0.18378 0.84053 -0.33342
 C335 C -0.19006 0.88523 -0.31800
 C336 C -0.16598 0.90676 -0.25519
 C337 C -0.13559 0.88384 -0.20622
 C338 C -0.13521 0.83848 -0.21270
 C339 C -0.09808 0.80787 -0.22152
 C340 C -0.12369 0.78485 -0.29030
 H341 H -0.21022 0.90423 -0.35981
 H342 H -0.16820 0.94182 -0.25038
 H343 H -0.09338 0.78765 -0.16443
 H344 H -0.06845 0.82410 -0.24495
 H345 H -0.13388 0.75146 -0.27268
 H346 H -0.10900 0.78778 -0.35364
 C347 C 0.35623 0.68144 0.30057
 C348 C 0.33413 0.65910 0.36372
 C349 C 0.33499 0.61323 0.36038
 C350 C 0.36166 0.59134 0.30264
 C351 C 0.38754 0.61483 0.24614
 C352 C 0.38174 0.65988 0.24234
 C353 C 0.41439 0.69563 0.24268
 C354 C 0.38629 0.71915 0.30639
 H355 H 0.31752 0.59437 0.40640
 H356 H 0.36392 0.55627 0.30561
 H357 H 0.41593 0.71248 0.18107
 H358 H 0.44608 0.68523 0.26878
 H359 H 0.37157 0.74943 0.28134
 H360 H 0.40159 0.72231 0.36953
 C361 C -0.16920 1.15487 0.30548
 C362 C -0.15376 1.16327 0.38723
 C363 C -0.11038 1.15128 0.40389
 C364 C -0.08610 1.12818 0.34437
 C365 C -0.10406 1.11717 0.26591
 C366 C -0.14471 1.13340 0.24560
 C367 C -0.18315 1.10998 0.21106
 C368 C -0.20994 1.13349 0.27676
 H369 H -0.09518 1.15899 0.46357
 H370 H -0.05361 1.11810 0.36036
 H371 H -0.18143 1.07424 0.22091
 H372 H -0.19086 1.12011 0.14567
 H373 H -0.22366 1.11146 0.32500
 H374 H -0.23312 1.15704 0.24900
 C375 C 0.65945 0.30754 0.25066
 C376 C 0.68260 0.32870 0.31467
 C377 C 0.68830 0.37399 0.30777
 C378 C 0.66472 0.39780 0.24785
 C379 C 0.63524 0.37661 0.19376
 C380 C 0.63634 0.33108 0.19091
 C381 C 0.60011 0.29903 0.19097
 C382 C 0.62540 0.27340 0.25619
 H383 H 0.70659 0.39148 0.35528
 H384 H 0.66605 0.43298 0.25019
 H385 H 0.59693 0.28175 0.12975
 H386 H 0.56963 0.31300 0.21575
 H387 H 0.63683 0.24141 0.23247
 H388 H 0.60958 0.27255 0.31873
 C389 C 0.16441 0.82149 0.27009
 C390 C 0.18967 0.84553 0.32690
 C391 C 0.19584 0.89002 0.30988
 C392 C 0.17163 0.91062 0.24650
 C393 C 0.14127 0.88692 0.19855
 C394 C 0.14103 0.84164 0.20652
 C395 C 0.10399 0.81101 0.21666
 C396 C 0.12976 0.78901 0.28608
 H397 H 0.21599 0.90965 0.35096
 H398 H 0.17364 0.94565 0.24063
 H399 H 0.09925 0.79002 0.16032
 H400 H 0.07436 0.82743 0.23968
 H401 H 0.14001 0.75543 0.26959
 H402 H 0.11516 0.79273 0.34939
   
