data_POSCAR
  _audit_creation_date              2014-09-24
  _audit_creation_method            'ToBaCCo'
  _symmetry_space_group_name_H-M    'P1'
  _symmetry_Int_Tables_number       1
  _symmetry_cell_setting            triclinic
  loop_
  _symmetry_equiv_pos_as_xyz
 x,y,z
_cell_length_a 27.4098
_cell_length_b 27.4458
_cell_length_c 71.9802
_cell_angle_alpha 86.286000
_cell_angle_beta 91.885900
_cell_angle_gamma 120.082100
loop_
  _atom_site_label
  _atom_site_type_symbol
  _atom_site_fract_x
  _atom_site_fract_y
  _atom_site_fract_z
C1 C 0.00882 0.10502 0.52407
 H2 H 0.04990 0.10850 0.52383
 C3 C -0.00073 0.13841 0.53554
 H4 H 0.03304 0.16767 0.54422
 C5 C -0.08564 0.06206 0.51321
 H6 H -0.11848 0.03235 0.50445
 C7 C -0.09704 0.09471 0.52455
 H8 H -0.13878 0.08981 0.52461
 N9 N -0.03359 0.06711 0.51345
 C10 C 0.00619 -0.06640 0.50768
 H11 H 0.00880 -0.06639 0.49271
 C12 C 0.01168 -0.10658 0.51912
 H13 H 0.01881 -0.13749 0.51299
 C14 C -0.00849 -0.02766 0.53402
 H15 H -0.01772 0.00213 0.53981
 C16 C -0.00322 -0.06694 0.54591
 H17 H -0.00785 -0.06679 0.56080
 Zn18 Zn -0.01572 0.02255 0.49922
 N19 N -0.00355 -0.02788 0.51527
 C20 C 0.09671 0.06725 0.48574
 N21 N 0.04986 0.07254 0.48533
 C22 C 0.04796 0.11460 0.47483
 C23 C 0.09359 0.15225 0.46364
 C24 C 0.14339 0.10410 0.47469
 C25 C -0.12516 -0.06305 0.49021
 C26 C -0.16838 -0.09927 0.47856
 C27 C -0.10825 -0.04910 0.45203
 C28 C -0.06628 -0.01403 0.46417
 N29 N -0.07532 -0.02147 0.48288
 H30 H 0.09778 0.03420 0.49442
 H31 H 0.01040 0.11814 0.47494
 H32 H 0.09120 0.18488 0.45503
 H33 H 0.18015 0.09906 0.47477
 H34 H -0.13083 -0.06879 0.50516
 H35 H -0.20754 -0.13279 0.48458
 H36 H -0.10002 -0.04314 0.43718
 H37 H -0.02604 0.01813 0.45859
 C38 C 0.00670 -0.10688 0.53841
 C39 C -0.05424 0.13286 0.53592
 C40 C -0.15965 -0.09239 0.45927
 C41 C 0.14151 0.14664 0.46343
 C42 C 1.13384 0.05070 0.14223
 H43 H 1.13753 0.09186 0.14211
 C44 C 1.16915 0.04212 0.13105
 H45 H 1.20009 0.07672 0.12223
 C46 C 1.08839 -0.04495 0.15366
 H47 H 1.05695 -0.07866 0.16253
 C48 C 1.12291 -0.05538 0.14264
 H49 H 1.11770 -0.09724 0.14292
 N50 N 1.09378 0.00724 0.15298
 C51 C 0.95882 0.04617 0.15752
 H52 H 0.95589 0.04678 0.17245
 C53 C 0.92039 0.05252 0.14580
 H54 H 0.88789 0.05830 0.15169
 C55 C 1.00304 0.03537 0.13157
 H56 H 1.03423 0.02722 0.12605
 C57 C 0.96562 0.04160 0.11941
 H58 H 0.96858 0.03877 0.10458
 Zn59 Zn 1.04648 0.02352 0.16672
 N60 N 0.99914 0.03782 0.15025
 C61 C 1.08839 0.13392 0.17980
 N62 N 1.09381 0.08715 0.18047
 C63 C 1.13390 0.08380 0.19122
 C64 C 1.16921 0.12771 0.20242
 C65 C 1.12292 0.17890 0.19085
 C66 C 0.95880 -0.08688 0.17591
 C67 C 0.92040 -0.13168 0.18762
 C68 C 0.96570 -0.07545 0.21402
 C69 C 1.00308 -0.03177 0.20186
 N70 N 0.99914 -0.03816 0.18318
 H71 H 1.05693 0.13616 0.17094
 H72 H 1.13760 0.04634 0.19133
 H73 H 1.20017 0.12409 0.21123
 H74 H 1.11769 0.21553 0.19058
 H75 H 0.95583 -0.09044 0.16098
 H76 H 0.88788 -0.17001 0.18174
 H77 H 0.96869 -0.06962 0.22885
 H78 H 1.03428 0.00761 0.20739
 C79 C 0.92374 0.04990 0.12658
 C80 C 1.16327 -0.01150 0.13111
 C81 C 0.92380 -0.12569 0.20685
 C82 C 1.16330 0.17543 0.20238
 C83 C 0.04768 0.93289 0.85839
 H84 H 0.01013 0.89174 0.85826
 C85 C 0.09325 0.94092 0.86964
 H86 H 0.09083 0.90590 0.87825
 C87 C 0.09647 1.02905 0.84752
 H88 H 0.09757 1.06317 0.83883
 C89 C 0.14308 1.03893 0.85861
 H90 H 0.17983 1.08078 0.85857
 N91 N 0.04963 0.97686 0.84789
 C92 C -0.12534 0.93732 0.84283
 H93 H -0.13093 0.93744 0.82788
 C94 C -0.16862 0.93025 0.85445
 H95 H -0.20775 0.92462 0.84843
 C96 C -0.06663 0.94712 0.86894
 H97 H -0.02643 0.95521 0.87456
 C98 C -0.10867 0.94015 0.88102
 H99 H -0.10065 0.94236 0.89588
 Zn100 Zn -0.01588 0.96122 0.83393
 N101 N -0.07556 0.94556 0.85022
 C102 C -0.08579 0.85176 0.81988
 N103 N -0.03372 0.89876 0.81970
 C104 C 0.00874 0.90326 0.80913
 C105 C -0.00080 0.86031 0.79766
 C106 C -0.09718 0.80770 0.80855
 C107 C 0.00604 1.07210 0.82547
 C108 C 0.01156 1.11778 0.81403
 C109 C -0.00311 1.06330 0.78723
 C110 C -0.00843 1.01873 0.79913
 N111 N -0.00362 1.02386 0.81788
 H112 H -0.11868 0.84863 0.82861
 H113 H 0.04985 0.94087 0.80940
 H114 H 0.03301 0.86481 0.78902
 H115 H -0.13896 0.77085 0.80845
 H116 H 0.00854 1.07467 0.84044
 H117 H 0.01862 1.15581 0.82017
 H118 H -0.00765 1.05854 0.77234
 H119 H -0.01759 0.97972 0.79334
 C120 C -0.15999 0.93203 0.87374
 C121 C 0.14115 0.99451 0.86989
 C122 C 0.00671 1.11314 0.79474
 C123 C -0.05434 0.81235 0.79722
 C124 C 0.38494 -0.01013 0.00028
 C125 C 0.41356 -0.00042 -0.01647
 C126 C 0.46500 0.00031 -0.01657
 C127 C 0.48763 -0.01033 0.00008
 C128 C 0.45766 -0.02088 0.01683
 C129 C 0.40706 -0.01994 0.01693
 C130 C 0.54214 -0.01036 -0.00002
 C131 C 0.57840 0.00635 0.01557
 C132 C 0.62908 0.00556 0.01554
 C133 C 0.64497 -0.01029 -0.00021
 C134 C 0.61005 -0.02617 -0.01587
 C135 C 0.55855 -0.02703 -0.01571
 H136 H 0.34542 -0.01003 0.00035
 H137 H 0.48725 0.00962 -0.02963
 H138 H 0.47310 -0.03024 0.02983
 H139 H 0.56782 0.02045 0.02772
 H140 H 0.68456 -0.01026 -0.00028
 H141 H 0.53142 -0.04112 -0.02779
 C142 C -0.04349 0.60790 0.66666
 C143 C -0.05666 0.57318 0.68294
 C144 C -0.05800 0.52152 0.68287
 C145 C -0.04449 0.50475 0.66657
 C146 C -0.03052 0.54079 0.65032
 C147 C -0.03080 0.59166 0.65033
 C148 C -0.04451 0.45029 0.66657
 C149 C -0.05800 0.42002 0.65027
 C150 C -0.05667 0.36969 0.65019
 C151 C -0.04353 0.34814 0.66648
 C152 C -0.03085 0.37707 0.68281
 C153 C -0.03055 0.42823 0.68283
 H154 H -0.04287 0.64773 0.66671
 H155 H -0.06980 0.49462 0.69552
 H156 H -0.01875 0.52997 0.63766
 H157 H -0.06978 0.43512 0.63761
 H158 H -0.04292 0.30892 0.66643
 H159 H -0.01879 0.45082 0.69549
 C160 C 0.64583 0.65588 0.33371
 C161 C 0.62979 0.62407 0.31797
 C162 C 0.57904 0.57261 0.31795
 C163 C 0.54286 0.55314 0.33354
 C164 C 0.55942 0.58629 0.34923
 C165 C 0.61099 0.63693 0.34938
 C166 C 0.48826 0.49864 0.33345
 C167 C 0.46566 0.46537 0.35010
 C168 C 0.41415 0.41467 0.35000
 C169 C 0.38543 0.39578 0.33326
 C170 C 0.40750 0.42771 0.31661
 C171 C 0.45818 0.47923 0.31670
 H172 H 0.68547 0.69544 0.33378
 H173 H 0.56832 0.54787 0.30580
 H174 H 0.53234 0.57330 0.36132
 H175 H 0.48799 0.47830 0.36316
 H176 H 0.34585 0.35615 0.33318
 H177 H 0.47361 0.50404 0.30371
 C178 C -0.06501 0.16491 0.54856
 C179 C -0.07186 0.19183 0.55973
 C180 C -0.07742 0.22390 0.57371
 C181 C -0.04328 0.28273 0.57298
 C182 C -0.04351 0.31338 0.58773
 C183 C -0.07789 0.28531 0.60328
 C184 C -0.11329 0.22666 0.60376
 C185 C -0.11305 0.19601 0.58900
 C186 C -0.07285 0.31583 0.61942
 C187 C -0.06657 0.34077 0.63329
 H188 H -0.01516 0.30467 0.56131
 H189 H -0.01558 0.35865 0.58729
 H190 H -0.13963 0.20446 0.61578
 H191 H -0.13922 0.15048 0.58980
 C192 C 0.88294 0.83070 0.21928
 C193 C 0.84900 0.79622 0.23025
 C194 C 0.80898 0.75762 0.24396
 C195 C 0.82777 0.74000 0.25996
 C196 C 0.78995 0.70784 0.27431
 C197 C 0.73317 0.69316 0.27273
 C198 C 0.71405 0.70943 0.25651
 C199 C 0.75188 0.74160 0.24216
 C200 C 0.69580 0.66589 0.28835
 C201 C 0.66527 0.64549 0.30172
 H202 H 0.87192 0.75258 0.26158
 H203 H 0.80529 0.69592 0.28686
 H204 H 0.67035 0.69874 0.25521
 H205 H 0.73699 0.75542 0.22993
 C206 C 0.18684 0.00377 -0.11769
 C207 C 0.22334 0.00973 -0.10670
 C208 C 0.26461 0.01468 -0.09293
 C209 C 0.28088 0.05419 -0.07929
 C210 C 0.31604 0.05478 -0.06467
 C211 C 0.33507 0.01587 -0.06363
 C212 C 0.32007 -0.02260 -0.07755
 C213 C 0.28491 -0.02319 -0.09218
 C214 C 0.36564 0.01212 -0.04748
 C215 C 0.38883 0.00730 -0.03355
 H216 H 0.26504 0.08333 -0.07964
 H217 H 0.32696 0.08437 -0.05389
 H218 H 0.33413 -0.05320 -0.07680
 H219 H 0.27220 -0.05424 -0.10256
 C220 C 0.00912 0.85072 0.55061
 C221 C 0.00960 0.81556 0.56144
 C222 C 0.00833 0.77418 0.57505
 C223 C -0.03578 0.71815 0.57495
 C224 C -0.04069 0.67932 0.58939
 C225 C -0.00151 0.69637 0.60400
 C226 C 0.04348 0.75200 0.60384
 C227 C 0.04839 0.79083 0.58939
 C228 C -0.01020 0.65832 0.61990
 C229 C -0.01886 0.62739 0.63359
 H230 H -0.06728 0.70494 0.56402
 H231 H -0.07591 0.63654 0.58946
 H232 H 0.07374 0.76576 0.61514
 H233 H 0.08237 0.83415 0.58970
 C234 C 0.19714 0.21917 0.21480
 C235 C 0.22538 0.25386 0.22582
 C236 C 0.25884 0.29280 0.23966
 C237 C 0.31708 0.31351 0.24056
 C238 C 0.34866 0.34607 0.25528
 C239 C 0.32213 0.35804 0.26915
 C240 C 0.26418 0.33867 0.26795
 C241 C 0.23260 0.30612 0.25324
 C242 C 0.35319 0.38564 0.28540
 C243 C 0.37842 0.40622 0.29943
 H244 H 0.33771 0.30304 0.23023
 H245 H 0.39334 0.36039 0.25615
 H246 H 0.24314 0.34724 0.27869
 H247 H 0.18752 0.28990 0.25277
 C248 C 0.80037 -0.07097 -0.11458
 C249 C 0.76732 -0.07196 -0.10370
 C250 C 0.73065 -0.07097 -0.09006
 C251 C 0.71527 -0.10779 -0.07417
 C252 C 0.68540 -0.10239 -0.05982
 C253 C 0.67079 -0.06014 -0.06130
 C254 C 0.68473 -0.02438 -0.07743
 C255 C 0.71460 -0.02978 -0.09179
 C256 C 0.64628 -0.05018 -0.04564
 C257 C 0.62834 -0.04015 -0.03221
 H258 H 0.72792 -0.13943 -0.07260
 H259 H 0.67530 -0.12993 -0.04733
 H260 H 0.67410 0.00877 -0.07866
 H261 H 0.72674 -0.00073 -0.10393
 C262 C 0.19710 -0.02139 0.11869
 C263 C 0.22532 -0.02784 0.10769
 C264 C 0.25872 -0.03334 0.09385
 C265 C 0.31697 0.00417 0.09296
 C266 C 0.34850 0.00315 0.07825
 C267 C 0.32190 -0.03539 0.06438
 C268 C 0.26393 -0.07396 0.06556
 C269 C 0.23241 -0.07294 0.08027
 C270 C 0.35291 -0.03199 0.04813
 C271 C 0.37808 -0.02741 0.03411
 H272 H 0.33767 0.03530 0.10330
 H273 H 0.39320 0.03350 0.07739
 H274 H 0.24284 -0.10359 0.05482
 H275 H 0.18732 -0.10179 0.08072
 C276 C 0.80232 0.87244 0.44803
 C277 C 0.76914 0.84033 0.43716
 C278 C 0.73233 0.80262 0.42353
 C279 C 0.71627 0.74536 0.42524
 C280 C 0.68625 0.71004 0.41090
 C281 C 0.67218 0.73184 0.39479
 C282 C 0.68680 0.78872 0.39332
 C283 C 0.71682 0.82404 0.40766
 C284 C 0.64750 0.69731 0.37913
 C285 C 0.62943 0.66928 0.36571
 H286 H 0.72851 0.72847 0.43737
 H287 H 0.67561 0.66625 0.41211
 H288 H 0.67660 0.80614 0.38085
 H289 H 0.72948 0.86835 0.40611
 C290 C 0.00913 0.15795 0.78254
 C291 C 0.00960 0.19358 0.77171
 C292 C 0.00831 0.23370 0.75809
 C293 C -0.03579 0.24557 0.75819
 C294 C -0.04071 0.27948 0.74375
 C295 C -0.00156 0.30165 0.72915
 C296 C 0.04343 0.29105 0.72932
 C297 C 0.04835 0.25714 0.74376
 C298 C -0.01026 0.33101 0.71325
 C299 C -0.01892 0.35328 0.69956
 H300 H -0.06727 0.22725 0.76911
 H301 H -0.07594 0.28700 0.74367
 H302 H 0.07367 0.30757 0.71802
 H303 H 0.08233 0.24783 0.74345
 C304 C 0.88282 0.05254 0.11415
 C305 C 0.84883 0.05300 0.10318
 C306 C 0.80873 0.05146 0.08947
 C307 C 0.82745 0.08780 0.07346
 C308 C 0.78953 0.08206 0.05912
 C309 C 0.73275 0.03994 0.06073
 C310 C 0.71372 0.00462 0.07697
 C311 C 0.75163 0.01037 0.09131
 C312 C 0.69527 0.02980 0.04514
 C313 C 0.66466 0.01964 0.03178
 H314 H 0.87159 0.11938 0.07182
 H315 H 0.80481 0.10927 0.04657
 H316 H 0.67001 -0.02841 0.07829
 H317 H 0.73680 -0.01830 0.10355
 C318 C 0.18727 0.18320 0.45105
 C319 C 0.22382 0.21384 0.44010
 C320 C 0.26514 0.25028 0.42637
 C321 C 0.28159 0.22715 0.41276
 C322 C 0.31680 0.26182 0.39817
 C323 C 0.33569 0.31975 0.39713
 C324 C 0.32052 0.34312 0.41103
 C325 C 0.28531 0.30845 0.42562
 C326 C 0.36627 0.35415 0.38101
 C327 C 0.38945 0.38220 0.36708
 H328 H 0.26585 0.18216 0.41311
 H329 H 0.32785 0.24323 0.38740
 H330 H 0.33447 0.38777 0.41028
 H331 H 0.27246 0.32670 0.43599
 C332 C -0.06510 0.76951 0.78458
 C333 C -0.07194 0.73574 0.77341
 C334 C -0.07749 0.69812 0.75942
 C335 C -0.11316 0.69029 0.74413
 C336 C -0.11338 0.65943 0.72937
 C337 C -0.07792 0.63629 0.72985
 C338 C -0.04350 0.64267 0.74540
 C339 C -0.04329 0.67353 0.76015
 C340 C -0.07287 0.61083 0.71370
 C341 C -0.06658 0.59219 0.69984
 H342 H -0.13937 0.70957 0.74333
 H343 H -0.13976 0.65522 0.71734
 H344 H -0.01553 0.62542 0.74583
 H345 H -0.01513 0.67978 0.77182
   
