data_POSCAR
  _audit_creation_date              2014-09-24
  _audit_creation_method            'ToBaCCo'
  _symmetry_space_group_name_H-M    'P1'
  _symmetry_Int_Tables_number       1
  _symmetry_cell_setting            triclinic
  loop_
  _symmetry_equiv_pos_as_xyz
 x,y,z
_cell_length_a 37.1367
_cell_length_b 37.3222
_cell_length_c 37.2903
_cell_angle_alpha 90.023600
_cell_angle_beta 90.113400
_cell_angle_gamma 90.060800
loop_
  _atom_site_label
  _atom_site_type_symbol
  _atom_site_fract_x
  _atom_site_fract_y
  _atom_site_fract_z
N1 N 0.30609 0.23690 0.20478
 N2 N 0.29077 0.26574 0.19158
 C3 C 0.30772 0.27517 0.16112
 C4 C 0.33526 0.25099 0.15497
 C5 C 0.33330 0.22700 0.18316
 H6 H 0.29951 0.29700 0.14395
 H7 H 0.34974 0.20340 0.18688
 Cu8 Cu 0.24832 0.28688 0.21333
 Cu9 Cu 0.28790 0.21280 0.24727
 Cu10 Cu 0.21042 0.24721 0.28529
 N11 N 0.20366 0.30423 0.23408
 N12 N 0.18922 0.28899 0.26236
 C13 C 0.15820 0.30576 0.27035
 C14 C 0.15289 0.33308 0.24577
 C15 C 0.18215 0.33108 0.22298
 H16 H 0.14034 0.29781 0.29176
 H17 H 0.18694 0.34763 0.19967
 N18 N 0.23574 0.20510 0.30476
 N19 N 0.26543 0.19212 0.29040
 C20 C 0.27517 0.16238 0.30843
 C21 C 0.25042 0.15630 0.33551
 C22 C 0.22577 0.18387 0.33223
 H23 H 0.29766 0.14552 0.30128
 H24 H 0.20163 0.18730 0.34801
 H25 H 0.23499 0.22829 0.23910
 H26 H 0.26292 0.25677 0.26967
 N27 N 0.69174 -0.23995 0.20641
 N28 N 0.70831 -0.26739 0.19184
 C29 C 0.69224 -0.27559 0.16053
 C30 C 0.66369 -0.25225 0.15532
 C31 C 0.66451 -0.22972 0.18488
 H32 H 0.70149 -0.29623 0.14244
 H33 H 0.64705 -0.20709 0.18991
 Cu34 Cu 0.75011 -0.28938 0.21404
 Cu35 Cu 0.70700 -0.21950 0.25191
 Cu36 Cu 0.78963 -0.24784 0.28423
 N37 N 0.79611 -0.30513 0.23316
 N38 N 0.81135 -0.28905 0.26062
 C39 C 0.84294 -0.30514 0.26789
 C40 C 0.84770 -0.33310 0.24380
 C41 C 0.81758 -0.33189 0.22186
 H42 H 0.86132 -0.29651 0.28866
 H43 H 0.81202 -0.34906 0.19914
 N44 N 0.76332 -0.20674 0.30467
 N45 N 0.73179 -0.19604 0.29237
 C46 C 0.72162 -0.16640 0.31031
 C47 C 0.74800 -0.15802 0.33531
 C48 C 0.77394 -0.18426 0.33094
 H49 H 0.69752 -0.15130 0.30447
 H50 H 0.79926 -0.18597 0.34518
 H51 H 0.75995 -0.23043 0.24022
 H52 H 0.73764 -0.26161 0.27244
 N53 N 0.69380 0.23783 0.79410
 N54 N 0.70822 0.26754 0.80645
 C55 C 0.69109 0.27724 0.83672
 C56 C 0.66439 0.25228 0.84368
 C57 C 0.66696 0.22766 0.81605
 H58 H 0.69864 0.29988 0.85316
 H59 H 0.65124 0.20344 0.81302
 Cu60 Cu 0.74944 0.28980 0.78349
 Cu61 Cu 0.71260 0.21317 0.75219
 Cu62 Cu 0.79026 0.24773 0.71453
 N63 N 0.79522 0.30618 0.76446
 N64 N 0.81074 0.29017 0.73719
 C65 C 0.84196 0.30693 0.72980
 C66 C 0.84622 0.33518 0.75367
 C67 C 0.81618 0.33349 0.77557
 H68 H 0.86062 0.29838 0.70932
 H69 H 0.81044 0.35054 0.79830
 N70 N 0.76550 0.20499 0.69540
 N71 N 0.73574 0.19200 0.70966
 C72 C 0.72620 0.16204 0.69184
 C73 C 0.75110 0.15582 0.66494
 C74 C 0.77569 0.18355 0.66815
 H75 H 0.70361 0.14526 0.69893
 H76 H 0.79982 0.18705 0.65236
 H77 H 0.76480 0.23052 0.76088
 H78 H 0.73705 0.25669 0.72821
 N79 N 0.30625 -0.23827 0.79528
 N80 N 0.29092 -0.26716 0.80838
 C81 C 0.30808 -0.27678 0.83871
 C82 C 0.33577 -0.25269 0.84487
 C83 C 0.33368 -0.22855 0.81681
 H84 H 0.29989 -0.29865 0.85584
 H85 H 0.35016 -0.20493 0.81318
 Cu86 Cu 0.24826 -0.28816 0.78666
 Cu87 Cu 0.28771 -0.21382 0.75312
 Cu88 Cu 0.20956 -0.24764 0.71545
 N89 N 0.20327 -0.30520 0.76612
 N90 N 0.18843 -0.28964 0.73817
 C91 C 0.15727 -0.30636 0.73029
 C92 C 0.15235 -0.33415 0.75453
 C93 C 0.18192 -0.33221 0.77714
 H94 H 0.13909 -0.29805 0.70923
 H95 H 0.18700 -0.34886 0.80034
 N96 N 0.23488 -0.20537 0.69615
 N97 N 0.26487 -0.19270 0.71036
 C98 C 0.27469 -0.16290 0.69248
 C99 C 0.24969 -0.15641 0.66565
 C100 C 0.22482 -0.18386 0.66890
 H101 H 0.29748 -0.14633 0.69955
 H102 H 0.20053 -0.18707 0.65319
 H103 H 0.23480 -0.22924 0.76165
 H104 H 0.26217 -0.25746 0.73051
 N105 N 0.69795 -0.23181 0.79651
 N106 N 0.71260 -0.26100 0.80977
 C107 C 0.69545 -0.26981 0.84030
 C108 C 0.66852 -0.24483 0.84642
 C109 C 0.67105 -0.22109 0.81810
 H110 H 0.70294 -0.29192 0.85742
 H111 H 0.65505 -0.19722 0.81415
 Cu112 Cu 0.75417 -0.28291 0.78677
 Cu113 Cu 0.71657 -0.20825 0.75384
 Cu114 Cu 0.79100 -0.24688 0.71307
 N115 N 0.79574 -0.30479 0.76377
 N116 N 0.80971 -0.29053 0.73472
 C117 C 0.83931 -0.30898 0.72538
 C118 C 0.84420 -0.33662 0.74973
 C119 C 0.81616 -0.33284 0.77395
 H120 H 0.85699 -0.30147 0.70367
 H121 H 0.81211 -0.34836 0.79809
 N122 N 0.76798 -0.20280 0.69531
 N123 N 0.73938 -0.18845 0.71057
 C124 C 0.73085 -0.15802 0.69323
 C125 C 0.75523 -0.15294 0.66571
 C126 C 0.77847 -0.18173 0.66795
 H127 H 0.70939 -0.14017 0.70104
 H128 H 0.80185 -0.18632 0.65134
 H129 H 0.73901 -0.25324 0.73067
 H130 H 0.76936 -0.22554 0.75940
 N131 N 0.30468 0.23485 0.79395
 N132 N 0.28821 0.26206 0.80912
 C133 C 0.30453 0.26951 0.84054
 C134 C 0.33292 0.24582 0.84513
 C135 C 0.33199 0.22409 0.81509
 H136 H 0.29573 0.28994 0.85906
 H137 H 0.34959 0.20174 0.80934
 Cu138 Cu 0.24617 0.28370 0.78666
 Cu139 Cu 0.28914 0.21504 0.74817
 Cu140 Cu 0.20837 0.24701 0.71370
 N141 N 0.20425 0.30538 0.76403
 N142 N 0.18977 0.29069 0.73538
 C143 C 0.15995 0.30890 0.72626
 C144 C 0.15534 0.33665 0.75042
 C145 C 0.18385 0.33345 0.77420
 H146 H 0.14197 0.30123 0.70476
 H147 H 0.18833 0.34945 0.79798
 N148 N 0.23219 0.20355 0.69567
 N149 N 0.26322 0.19185 0.70835
 C150 C 0.27196 0.16123 0.69143
 C151 C 0.24517 0.15335 0.66680
 C152 C 0.22041 0.18071 0.67029
 H153 H 0.29548 0.14538 0.69757
 H154 H 0.19534 0.18325 0.65572
 H155 H 0.25958 0.25845 0.72796
 H156 H 0.23534 0.22647 0.75802
 N157 N 0.30434 -0.23162 0.20401
 N158 N 0.28944 -0.26065 0.19058
 C159 C 0.30680 -0.26969 0.16024
 C160 C 0.33420 -0.24509 0.15447
 C161 C 0.33166 -0.22126 0.18274
 H162 H 0.29916 -0.29170 0.14302
 H163 H 0.34793 -0.19756 0.18687
 Cu164 Cu 0.24746 -0.28225 0.21314
 Cu165 Cu 0.28565 -0.20795 0.24660
 Cu166 Cu 0.21104 -0.24658 0.28718
 N167 N 0.20563 -0.30390 0.23593
 N168 N 0.19208 -0.29002 0.26534
 C169 C 0.16252 -0.30850 0.27478
 C170 C 0.15705 -0.33554 0.24995
 C171 C 0.18484 -0.33166 0.22552
 H172 H 0.14523 -0.30140 0.29692
 H173 H 0.18854 -0.34701 0.20121
 N174 N 0.23417 -0.20263 0.30509
 N175 N 0.26270 -0.18811 0.28981
 C176 C 0.27096 -0.15751 0.30704
 C177 C 0.24648 -0.15254 0.33450
 C178 C 0.22346 -0.18153 0.33233
 H179 H 0.29224 -0.13944 0.29915
 H180 H 0.19999 -0.18615 0.34881
 H181 H 0.26298 -0.25288 0.26932
 H182 H 0.23269 -0.22491 0.24079
 N183 N 0.69518 0.23350 0.20607
 N184 N 0.71238 0.25975 0.18999
 C185 C 0.69668 0.26622 0.15811
 C186 C 0.66772 0.24306 0.15411
 C187 C 0.66777 0.22251 0.18504
 H188 H 0.70610 0.28582 0.13899
 H189 H 0.64939 0.20101 0.19164
 Cu190 Cu 0.75429 0.28202 0.21213
 Cu191 Cu 0.70983 0.21625 0.25333
 Cu192 Cu 0.79761 0.23904 0.27728
 N193 N 0.79461 0.30448 0.23692
 N194 N 0.81156 0.28712 0.26252
 C195 C 0.84088 0.30581 0.27241
 C196 C 0.84225 0.33699 0.25235
 C197 C 0.81261 0.33501 0.22976
 H198 H 0.86105 0.29613 0.29096
 H199 H 0.80626 0.35315 0.20806
 N200 N 0.77085 0.19953 0.29968
 N201 N 0.73735 0.19129 0.29110
 C202 C 0.72714 0.16243 0.31016
 C203 C 0.75558 0.15214 0.33194
 C204 C 0.78271 0.17642 0.32469
 H205 H 0.70132 0.14937 0.30732
 H206 H 0.80940 0.17664 0.33633
 H207 H 0.74651 0.25525 0.27115
 H208 H 0.76166 0.22202 0.23701
 C209 C 0.23434 0.00151 0.40516
 C210 C 0.23567 0.03408 0.42376
 C211 C 0.23542 0.03317 0.46152
 C212 C 0.22960 0.00073 0.48049
 C213 C 0.22538 -0.03100 0.46032
 C214 C 0.23039 -0.03127 0.42301
 C215 C 0.22960 -0.00039 0.52103
 C216 C 0.23554 -0.03280 0.53999
 C217 C 0.23569 -0.03377 0.57774
 C218 C 0.23427 -0.00122 0.59639
 C219 C 0.23016 0.03157 0.57856
 C220 C 0.22522 0.03129 0.54120
 H221 H 0.23725 0.00158 0.37623
 H222 H 0.24104 0.05749 0.47588
 H223 H 0.21851 -0.05550 0.47367
 H224 H 0.24133 -0.05706 0.52563
 H225 H 0.23714 -0.00132 0.62533
 H226 H 0.21829 0.05574 0.52780
 C227 C 0.76621 0.00111 0.59475
 C228 C 0.76476 0.03370 0.57618
 C229 C 0.76454 0.03277 0.53841
 C230 C 0.76995 0.00031 0.51935
 C231 C 0.77439 -0.03142 0.53947
 C232 C 0.76995 -0.03169 0.57686
 C233 C 0.76939 -0.00088 0.47880
 C234 C 0.76288 -0.03330 0.46000
 C235 C 0.76238 -0.03449 0.42226
 C236 C 0.76399 -0.00202 0.40347
 C237 C 0.76884 0.03083 0.42111
 C238 C 0.77393 0.03070 0.45848
 H239 H 0.76361 0.00120 0.62371
 H240 H 0.75887 0.05709 0.52410
 H241 H 0.78096 -0.05593 0.52600
 H242 H 0.75692 -0.05741 0.47453
 H243 H 0.76087 -0.00225 0.37456
 H244 H 0.78099 0.05517 0.47180
 C245 C 0.40413 0.23430 -0.00035
 C246 C 0.42270 0.23647 0.03232
 C247 C 0.46054 0.23709 0.03168
 C248 C 0.47984 0.23111 -0.00037
 C249 C 0.45994 0.22667 -0.03247
 C250 C 0.42229 0.23083 -0.03310
 C251 C 0.52051 0.23106 -0.00051
 C252 C 0.53979 0.23771 -0.03244
 C253 C 0.57760 0.23689 -0.03321
 C254 C 0.59624 0.23400 -0.00062
 C255 C 0.57814 0.22981 0.03210
 C256 C 0.54045 0.22581 0.03145
 H257 H 0.37501 0.23640 -0.00041
 H258 H 0.47488 0.24351 0.05588
 H259 H 0.47371 0.22027 -0.05693
 H260 H 0.52546 0.24478 -0.05645
 H261 H 0.62537 0.23602 -0.00059
 H262 H 0.52665 0.21896 0.05577
 C263 C 0.59727 0.76592 0.00080
 C264 C 0.57865 0.76364 0.03336
 C265 C 0.54086 0.76255 0.03247
 C266 C 0.52154 0.76844 0.00037
 C267 C 0.54143 0.77316 -0.03161
 C268 C 0.57912 0.76931 -0.03204
 C269 C 0.48090 0.76800 0.00015
 C270 C 0.46157 0.76147 -0.03187
 C271 C 0.42374 0.76164 -0.03254
 C272 C 0.40525 0.76379 0.00010
 C273 C 0.42345 0.76799 0.03280
 C274 C 0.46103 0.77264 0.03216
 H275 H 0.62640 0.76391 0.00089
 H276 H 0.52662 0.75571 0.05655
 H277 H 0.52761 0.77942 -0.05612
 H278 H 0.47586 0.75505 -0.05602
 H279 H 0.37616 0.76133 0.00015
 H280 H 0.47477 0.77960 0.05654
 C281 C -0.00181 0.40511 0.23534
 C282 C 0.03126 0.42274 0.23115
 C283 C 0.03108 0.46011 0.22609
 C284 C -0.00089 0.48040 0.22986
 C285 C -0.03343 0.46152 0.23578
 C286 C -0.03447 0.42387 0.23629
 C287 C -0.00006 0.52096 0.22919
 C288 C -0.03204 0.54111 0.22480
 C289 C -0.03222 0.57863 0.22876
 C290 C 0.00085 0.59638 0.23251
 C291 C 0.03351 0.57767 0.23404
 C292 C 0.03250 0.54001 0.23454
 H293 H -0.00206 0.37625 0.23854
 H294 H 0.05581 0.47337 0.21953
 H295 H -0.05782 0.47588 0.24137
 H296 H -0.05682 0.52762 0.21885
 H297 H 0.00108 0.62531 0.23514
 H298 H 0.05690 0.52581 0.24060
 C299 C -0.00120 0.59645 0.76726
 C300 C 0.03169 0.57847 0.77103
 C301 C 0.03114 0.54103 0.77565
 C302 C -0.00111 0.52108 0.77177
 C303 C -0.03344 0.54035 0.76627
 C304 C -0.03406 0.57801 0.76634
 C305 C -0.00081 0.48048 0.77178
 C306 C -0.03305 0.46051 0.77549
 C307 C -0.03353 0.42305 0.77103
 C308 C -0.00060 0.40508 0.76763
 C309 C 0.03222 0.42356 0.76660
 C310 C 0.03155 0.46122 0.76643
 H311 H -0.00114 0.62533 0.76420
 H312 H 0.05582 0.52749 0.78176
 H313 H -0.05803 0.52635 0.76043
 H314 H -0.05778 0.47404 0.78135
 H315 H -0.00060 0.37617 0.76480
 H316 H 0.05609 0.47527 0.76063
 C317 C 0.35930 0.24796 0.12262
 C318 C 0.34956 0.21566 0.09904
 C319 C 0.37128 0.21155 0.07003
 C320 C 0.40085 0.24035 0.06668
 C321 C 0.38059 0.27624 0.06797
 C322 C 0.35894 0.28027 0.09703
 C323 C 0.39920 0.24256 0.13204
 C324 C 0.42097 0.23831 0.10297
 H325 H 0.32770 0.19726 0.10494
 H326 H 0.36804 0.18941 0.05141
 H327 H 0.38355 0.29707 0.04786
 H328 H 0.34377 0.30465 0.10149
 H329 H 0.40930 0.24080 0.15932
 H330 H 0.44920 0.23193 0.10637
 C331 C 0.64108 0.75120 0.12444
 C332 C 0.65201 0.78298 0.10069
 C333 C 0.63067 0.78746 0.07137
 C334 C 0.60025 0.75956 0.06790
 C335 C 0.61928 0.72308 0.06971
 C336 C 0.64047 0.71858 0.09910
 C337 C 0.60122 0.75791 0.13331
 C338 C 0.57990 0.76260 0.10392
 H339 H 0.67423 0.80093 0.10677
 H340 H 0.63465 0.80940 0.05268
 H341 H 0.61557 0.70208 0.04988
 H342 H 0.65424 0.69348 0.10415
 H343 H 0.59082 0.76023 0.16041
 H344 H 0.55186 0.76995 0.10685
 C345 C 0.64052 0.24917 -0.12382
 C346 C 0.60056 0.24374 -0.13304
 C347 C 0.57897 0.23927 -0.10387
 C348 C 0.59930 0.24114 -0.06766
 C349 C 0.62882 0.21243 -0.07140
 C350 C 0.65038 0.21676 -0.10049
 C351 C 0.64101 0.28134 -0.09803
 C352 C 0.61953 0.27709 -0.06883
 H353 H 0.59030 0.24216 -0.16028
 H354 H 0.55071 0.23287 -0.10714
 H355 H 0.63208 0.19010 -0.05303
 H356 H 0.67214 0.19838 -0.10667
 H357 H 0.65604 0.30584 -0.10249
 H358 H 0.61654 0.29785 -0.04866
 C359 C 0.35998 0.75023 -0.12281
 C360 C 0.35969 0.71784 -0.09732
 C361 C 0.38148 0.72180 -0.06825
 C362 C 0.40179 0.75770 -0.06689
 C363 C 0.42176 0.75983 -0.10318
 C364 C 0.39985 0.75567 -0.13225
 C365 C 0.35040 0.78245 -0.09915
 C366 C 0.37225 0.78649 -0.07015
 H367 H 0.34450 0.69344 -0.10187
 H368 H 0.38452 0.70091 -0.04821
 H369 H 0.45001 0.76611 -0.10658
 H370 H 0.40983 0.75752 -0.15953
 H371 H 0.32854 0.80086 -0.10497
 H372 H 0.36910 0.80855 -0.05143
 C373 C 0.12097 0.35781 0.24220
 C374 C 0.09620 0.35924 0.27511
 C375 C 0.06755 0.38147 0.27108
 C376 C 0.06563 0.40045 0.23443
 C377 C 0.10254 0.41945 0.23121
 C378 C 0.13127 0.39709 0.23536
 C379 C 0.09621 0.34776 0.21077
 C380 C 0.06746 0.36999 0.20665
 H381 H 0.10121 0.34522 0.30009
 H382 H 0.04841 0.38601 0.29257
 H383 H 0.10666 0.44771 0.22631
 H384 H 0.15888 0.40659 0.23399
 H385 H 0.10105 0.32521 0.19304
 H386 H 0.04794 0.36647 0.18522
 C387 C 0.12191 0.64260 0.75835
 C388 C 0.13190 0.60337 0.76623
 C389 C 0.10300 0.58131 0.77098
 C390 C 0.06625 0.60044 0.76726
 C391 C 0.06841 0.63163 0.79420
 C392 C 0.09726 0.65361 0.78948
 C393 C 0.09699 0.64031 0.72542
 C394 C 0.06817 0.61839 0.73011
 H395 H 0.15940 0.59359 0.76759
 H396 H 0.10690 0.55313 0.77647
 H397 H 0.04891 0.63593 0.81541
 H398 H 0.10214 0.67673 0.80652
 H399 H 0.10213 0.65324 0.69990
 H400 H 0.04899 0.61320 0.70870
 C401 C -0.12199 0.64346 0.24021
 C402 C -0.13224 0.60417 0.23281
 C403 C -0.10349 0.58192 0.22839
 C404 C -0.06660 0.60089 0.23202
 C405 C -0.06847 0.63170 0.20465
 C406 C -0.09721 0.65389 0.20897
 C407 C -0.09715 0.64150 0.27322
 C408 C -0.06850 0.61937 0.26891
 H409 H -0.15980 0.59456 0.23108
 H410 H -0.10760 0.55381 0.22265
 H411 H -0.04904 0.63541 0.18325
 H412 H -0.10207 0.67659 0.19142
 H413 H -0.10221 0.65486 0.29855
 H414 H -0.04941 0.61442 0.29043
 C415 C -0.12350 0.35864 0.75776
 C416 C -0.13368 0.39793 0.76514
 C417 C -0.10487 0.42011 0.77006
 C418 C -0.06804 0.40103 0.76702
 C419 C -0.07039 0.37011 0.79422
 C420 C -0.09914 0.34802 0.78933
 C421 C -0.09829 0.36069 0.72514
 C422 C -0.06957 0.38273 0.73001
 H423 H -0.16122 0.40765 0.76597
 H424 H -0.10887 0.44837 0.77510
 H425 H -0.05112 0.36614 0.81578
 H426 H -0.10420 0.32514 0.80659
 H427 H -0.10321 0.34759 0.69963
 H428 H -0.05027 0.38784 0.70878
 C429 C 0.24730 0.12420 0.36000
 C430 C 0.28026 0.09929 0.36094
 C431 C 0.27619 0.07038 0.38275
 C432 C 0.23960 0.06848 0.40190
 C433 C 0.23632 0.10486 0.42145
 C434 C 0.24055 0.13383 0.39952
 C435 C 0.21562 0.09986 0.34970
 C436 C 0.21143 0.07104 0.37157
 H437 H 0.30516 0.10421 0.34664
 H438 H 0.29753 0.05091 0.38673
 H439 H 0.22950 0.10824 0.44947
 H440 H 0.23807 0.16114 0.40921
 H441 H 0.19763 0.10512 0.32732
 H442 H 0.18962 0.05198 0.36792
 C443 C 0.75400 0.12375 0.64031
 C444 C 0.72117 0.09859 0.63994
 C445 C 0.72495 0.06974 0.61800
 C446 C 0.76117 0.06810 0.59816
 C447 C 0.76391 0.10453 0.57861
 C448 C 0.75994 0.13346 0.60068
 C449 C 0.78600 0.09962 0.64995
 C450 C 0.78989 0.07084 0.62795
 H451 H 0.69655 0.10320 0.65480
 H452 H 0.70367 0.05007 0.61449
 H453 H 0.77022 0.10798 0.55049
 H454 H 0.76206 0.16080 0.59099
 H455 H 0.80438 0.10500 0.67199
 H456 H 0.81186 0.05192 0.63115
 C457 C 0.24678 -0.12417 0.64127
 C458 C 0.21512 -0.09984 0.65140
 C459 C 0.21114 -0.07092 0.62961
 C460 C 0.23945 -0.06826 0.59954
 C461 C 0.27594 -0.07026 0.61898
 C462 C 0.27981 -0.09927 0.64071
 C463 C 0.24019 -0.13363 0.60166
 C464 C 0.23615 -0.10457 0.57981
 H465 H 0.19702 -0.10516 0.67360
 H466 H 0.18937 -0.05184 0.63315
 H467 H 0.29735 -0.05078 0.61528
 H468 H 0.30463 -0.10422 0.65522
 H469 H 0.23769 -0.16090 0.59183
 H470 H 0.22943 -0.10785 0.55173
 C471 C 0.75084 -0.12545 0.35934
 C472 C 0.75730 -0.13456 0.39904
 C473 C 0.76146 -0.10531 0.42066
 C474 C 0.75839 -0.06915 0.40067
 C475 C 0.78675 -0.07218 0.37068
 C476 C 0.78263 -0.10127 0.34909
 C477 C 0.71794 -0.10042 0.35962
 C478 C 0.72193 -0.07122 0.38114
 H479 H 0.75954 -0.16175 0.40911
 H480 H 0.76811 -0.10840 0.44877
 H481 H 0.80871 -0.05330 0.36711
 H482 H 0.80078 -0.10687 0.32700
 H483 H 0.69320 -0.10532 0.34494
 H484 H 0.70065 -0.05160 0.38457
 C485 C 0.64383 0.75849 -0.12165
 C486 C 0.60401 0.76355 -0.13174
 C487 C 0.58164 0.76752 -0.10303
 C488 C 0.60122 0.76609 -0.06639
 C489 C 0.62162 0.73019 -0.06748
 C490 C 0.64385 0.72624 -0.09607
 C491 C 0.65293 0.79090 -0.09792
 C492 C 0.63072 0.79492 -0.06923
 H493 H 0.59413 0.76335 -0.15916
 H494 H 0.55292 0.77043 -0.10692
 H495 H 0.61797 0.70904 -0.04783
 H496 H 0.65874 0.70168 -0.10047
 H497 H 0.67494 0.80927 -0.10336
 H498 H 0.63368 0.81688 -0.05034
 C499 C 0.35771 0.24210 -0.12299
 C500 C 0.34872 0.20943 -0.09968
 C501 C 0.37088 0.20527 -0.07087
 C502 C 0.40024 0.23421 -0.06755
 C503 C 0.41991 0.23321 -0.10409
 C504 C 0.39758 0.23737 -0.13290
 C505 C 0.35748 0.27411 -0.09710
 C506 C 0.37967 0.27004 -0.06843
 H507 H 0.32685 0.19097 -0.10548
 H508 H 0.36802 0.18310 -0.05225
 H509 H 0.44865 0.23041 -0.10781
 H510 H 0.40754 0.23789 -0.16025
 H511 H 0.34252 0.29866 -0.10142
 H512 H 0.38321 0.29107 -0.04861
 C513 C 0.35899 0.75799 0.12262
 C514 C 0.35911 0.72536 0.09749
 C515 C 0.38129 0.72904 0.06885
 C516 C 0.40150 0.76507 0.06724
 C517 C 0.37189 0.79375 0.06973
 C518 C 0.34973 0.78999 0.09849
 C519 C 0.39880 0.76343 0.13263
 C520 C 0.42113 0.76715 0.10383
 H521 H 0.34447 0.70071 0.10232
 H522 H 0.38511 0.70759 0.04954
 H523 H 0.36887 0.81548 0.05061
 H524 H 0.32772 0.80837 0.10376
 H525 H 0.40872 0.76360 0.16004
 H526 H 0.44985 0.77027 0.10761
 C527 C 0.64281 0.23950 0.12223
 C528 C 0.64261 0.27215 0.09714
 C529 C 0.62044 0.26851 0.06840
 C530 C 0.60025 0.23249 0.06663
 C531 C 0.62991 0.20383 0.06917
 C532 C 0.65209 0.20754 0.09807
 C533 C 0.60300 0.23402 0.13206
 C534 C 0.58066 0.23033 0.10317
 H535 H 0.65725 0.29681 0.10210
 H536 H 0.61662 0.29001 0.04915
 H537 H 0.63294 0.18214 0.05000
 H538 H 0.67414 0.18920 0.10339
 H539 H 0.59308 0.23364 0.15943
 H540 H 0.55197 0.22702 0.10687
 C541 C -0.12512 0.64050 0.75346
 C542 C -0.13435 0.60146 0.76303
 C543 C -0.10494 0.58011 0.76792
 C544 C -0.06864 0.59963 0.76226
 C545 C -0.07168 0.61631 0.72473
 C546 C -0.10104 0.63748 0.72001
 C547 C -0.09982 0.65295 0.78362
 C548 C -0.07060 0.63157 0.78839
 H549 H -0.16161 0.59171 0.76703
 H550 H -0.10785 0.55274 0.77712
 H551 H -0.05278 0.61094 0.70321
 H552 H -0.10699 0.64957 0.69424
 H553 H -0.10493 0.67611 0.80050
 H554 H -0.05112 0.63642 0.80959
 C555 C -0.12579 0.36154 0.24845
 C556 C -0.13504 0.40076 0.23995
 C557 C -0.10560 0.42222 0.23540
 C558 C -0.06928 0.40248 0.24027
 C559 C -0.07202 0.38486 0.27742
 C560 C -0.10142 0.36361 0.28175
 C561 C -0.10096 0.34980 0.21783
 C562 C -0.07171 0.37121 0.21337
 H563 H -0.16235 0.41060 0.23669
 H564 H -0.10855 0.44990 0.22723
 H565 H -0.05288 0.38963 0.29895
 H566 H -0.10730 0.35053 0.30705
 H567 H -0.10646 0.32709 0.20044
 H568 H -0.05249 0.36683 0.19190
 C569 C 0.12310 0.36084 0.75423
 C570 C 0.09852 0.34935 0.78519
 C571 C 0.06933 0.37081 0.78975
 C572 C 0.06679 0.40189 0.76265
 C573 C 0.10320 0.42160 0.76706
 C574 C 0.13251 0.40011 0.76237
 C575 C 0.09834 0.36260 0.72117
 C576 C 0.06907 0.38393 0.72565
 H577 H 0.10400 0.32662 0.80251
 H578 H 0.05014 0.36646 0.81125
 H579 H 0.10635 0.44922 0.77544
 H580 H 0.15986 0.40987 0.76569
 H581 H 0.10359 0.34914 0.69595
 H582 H 0.04952 0.38822 0.70440
 C583 C 0.12473 0.64024 0.24632
 C584 C 0.13400 0.60088 0.23858
 C585 C 0.10460 0.57936 0.23398
 C586 C 0.06826 0.59918 0.23802
 C587 C 0.07062 0.61743 0.27490
 C588 C 0.09996 0.63876 0.27931
 C589 C 0.10019 0.65147 0.21518
 C590 C 0.07095 0.63001 0.21067
 H591 H 0.16134 0.59102 0.23575
 H592 H 0.10763 0.55155 0.22626
 H593 H 0.05124 0.61305 0.29622
 H594 H 0.10541 0.65212 0.30456
 H595 H 0.10574 0.67403 0.19766
 H596 H 0.05182 0.63418 0.18901
 C597 C 0.75872 -0.12115 0.64114
 C598 C 0.72598 -0.09602 0.64043
 C599 C 0.73007 -0.06742 0.61834
 C600 C 0.76657 -0.06594 0.59885
 C601 C 0.79496 -0.06839 0.62884
 C602 C 0.79080 -0.09709 0.65090
 C603 C 0.76471 -0.13124 0.60167
 C604 C 0.76885 -0.10255 0.57945
 H605 H 0.70101 -0.10079 0.65465
 H606 H 0.70862 -0.04810 0.61412
 H607 H 0.81673 -0.04924 0.63224
 H608 H 0.80883 -0.10228 0.67325
 H609 H 0.76502 -0.15864 0.59189
 H610 H 0.77248 -0.10650 0.55096
 C611 C 0.24262 -0.12072 0.35896
 C612 C 0.23680 -0.13076 0.39846
 C613 C 0.23236 -0.10206 0.42061
 C614 C 0.23415 -0.06551 0.40111
 C615 C 0.27065 -0.06654 0.38158
 C616 C 0.27506 -0.09515 0.35957
 C617 C 0.21024 -0.09714 0.34917
 C618 C 0.20576 -0.06842 0.37116
 H619 H 0.23697 -0.15812 0.40834
 H620 H 0.22907 -0.10594 0.44916
 H621 H 0.29185 -0.04689 0.38571
 H622 H 0.30009 -0.09963 0.34537
 H623 H 0.19221 -0.10268 0.32689
 H624 H 0.18377 -0.04958 0.36774
 C625 C 0.75848 0.12021 0.35645
 C626 C 0.78893 0.09465 0.34554
 C627 C 0.79296 0.06606 0.36776
 C628 C 0.76594 0.06505 0.39895
 C629 C 0.77085 0.10170 0.41781
 C630 C 0.76691 0.13034 0.39548
 C631 C 0.72475 0.09647 0.35881
 C632 C 0.72865 0.06789 0.38101
 H633 H 0.80623 0.09897 0.32250
 H634 H 0.81390 0.04618 0.36379
 H635 H 0.77662 0.10574 0.44596
 H636 H 0.76924 0.15778 0.40487
 H637 H 0.69951 0.10181 0.34522
 H638 H 0.70672 0.04932 0.38612
 C639 C 0.24172 0.12121 0.64264
 C640 C 0.20972 0.09712 0.65255
 C641 C 0.20544 0.06835 0.63055
 C642 C 0.23365 0.06584 0.60052
 C643 C 0.23125 0.10236 0.58103
 C644 C 0.23547 0.13111 0.60316
 C645 C 0.27446 0.09607 0.64198
 C646 C 0.27025 0.06739 0.61997
 H647 H 0.19181 0.10236 0.67492
 H648 H 0.18373 0.04917 0.63406
 H649 H 0.22756 0.10623 0.55252
 H650 H 0.23509 0.15847 0.59329
 H651 H 0.29940 0.10066 0.65640
 H652 H 0.29157 0.04790 0.61596
   
