data_POSCAR
  _audit_creation_date              2014-09-24
  _audit_creation_method            'ToBaCCo'
  _symmetry_space_group_name_H-M    'P1'
  _symmetry_Int_Tables_number       1
  _symmetry_cell_setting            triclinic
  loop_
  _symmetry_equiv_pos_as_xyz
 x,y,z
_cell_length_a 39.4582
_cell_length_b 34.1602
_cell_length_c 30.0381
_cell_angle_alpha 90.123700
_cell_angle_beta 89.842900
_cell_angle_gamma 90.026400
loop_
  _atom_site_label
  _atom_site_type_symbol
  _atom_site_fract_x
  _atom_site_fract_y
  _atom_site_fract_z
C1 C 1.24619 0.24868 0.25195
 C2 C 0.75217 -0.25204 0.25199
 C3 C 0.75343 0.25116 -0.24904
 C4 C 1.24828 -0.25062 -0.25351
 C5 C 0.24569 0.24960 0.74825
 C6 C 0.75136 0.74856 0.74741
 C7 C 0.75336 0.25227 0.24949
 C8 C 0.24785 0.75134 0.25329
 O9 O 1.04699 0.06580 0.08172
 O10 O 1.08455 0.02995 0.03962
 C11 C 1.07738 0.05573 0.06985
 O12 O 0.95167 -0.07505 0.07569
 O13 O 0.91450 -0.03681 0.03631
 C14 C 0.92142 -0.06480 0.06380
 O15 O 1.04624 -0.07185 0.08080
 O16 O 1.08420 -0.03635 0.03906
 C17 C 1.07676 -0.06215 0.06909
 O18 O 0.95263 0.07098 0.07591
 O19 O 0.91491 0.03293 0.03697
 C20 C 0.92221 0.06097 0.06439
 Zr21 Zr 0.99968 0.04614 0.05743
 O22 O 0.99779 0.03849 0.12716
 O23 O 1.00123 0.10760 0.06571
 Zr24 Zr 0.99910 -0.05189 0.05617
 O25 O 0.99509 -0.05010 0.12648
 O26 O 1.00251 -0.11372 0.05749
 O27 O 1.02993 -0.00309 0.06558
 O28 O 0.96933 -0.00262 0.06465
 O29 O 0.95341 0.07097 -0.07562
 O30 O 0.91533 0.03323 -0.03680
 C31 C 0.92289 0.06111 -0.06422
 O32 O 1.04734 -0.07089 -0.08047
 O33 O 1.08476 -0.03560 -0.03778
 C34 C 1.07768 -0.06115 -0.06824
 O35 O 0.95261 -0.07425 -0.07688
 O36 O 0.91495 -0.03627 -0.03752
 C37 C 0.92220 -0.06399 -0.06539
 O38 O 1.04797 0.06669 -0.07911
 O39 O 1.08505 0.03050 -0.03713
 C40 C 1.07823 0.05650 -0.06711
 Zr41 Zr 1.00035 0.04718 -0.05537
 O42 O 0.99699 0.04538 -0.12570
 O43 O 1.00398 0.10899 -0.05660
 Zr44 Zr 0.99982 -0.05109 -0.05654
 O45 O 0.99623 -0.04782 -0.12679
 O46 O 1.00332 -0.11282 -0.06021
 Zr47 Zr 1.05040 -0.00270 0.00067
 Zr48 Zr 0.94888 -0.00201 0.00003
 O49 O 0.97029 -0.00170 -0.06421
 O50 O 1.03065 -0.00211 -0.06449
 O51 O 0.97010 0.05471 0.00090
 O52 O 1.02870 -0.05902 -0.00006
 O53 O 1.02934 0.05386 0.00128
 O54 O 0.96935 -0.05909 -0.00048
 H55 H 0.95348 -0.00256 0.09030
 H56 H 1.04352 -0.08241 -0.00018
 H57 H 0.95485 -0.00142 -0.09017
 H58 H 1.04448 0.07698 0.00153
 H59 H 0.98529 -0.12410 0.03672
 H60 H 0.98703 -0.12365 -0.03842
 H61 H 1.01750 -0.03613 -0.13810
 H62 H 1.01739 0.03176 -0.13706
 H63 H 0.98707 0.11931 -0.03522
 H64 H 1.00573 0.11895 0.03608
 H65 H 0.99561 0.06508 0.14005
 H66 H 1.01462 -0.03491 0.13784
 O67 O 1.05950 0.44660 0.58060
 O68 O 1.02876 0.40232 0.53942
 C69 C 1.05128 0.41128 0.56925
 O70 O 0.93602 0.55546 0.57282
 O71 O 0.96959 0.59921 0.53489
 C72 C 0.94479 0.59062 0.56168
 O73 O 0.93909 0.44721 0.57918
 O74 O 0.97014 0.40258 0.53877
 C75 C 0.94722 0.41179 0.56809
 O76 O 1.06364 0.55472 0.57431
 O77 O 1.03125 0.59882 0.53543
 C78 C 1.05546 0.58995 0.56281
 Zr79 Zr 1.04200 0.50066 0.55611
 O80 O 1.03512 0.50298 0.62584
 O81 O 1.09522 0.49935 0.56414
 Zr82 Zr 0.95768 0.50123 0.55550
 O83 O 0.96200 0.50595 0.62561
 O84 O 0.90442 0.49938 0.56260
 O85 O 0.99961 0.46535 0.56469
 O86 O 1.00000 0.53605 0.56352
 O87 O 1.06399 0.55337 0.42311
 O88 O 1.03183 0.59811 0.46180
 C89 C 1.05605 0.58880 0.43434
 O90 O 0.94054 0.44581 0.41902
 O91 O 0.97075 0.40192 0.46109
 C92 C 0.94841 0.41062 0.43101
 O93 O 0.93829 0.55434 0.42204
 O94 O 0.97040 0.59859 0.46131
 C95 C 0.94650 0.58962 0.43347
 O96 O 1.06034 0.44492 0.42009
 O97 O 1.02899 0.40149 0.46161
 C98 C 1.05187 0.40985 0.43198
 Zr99 Zr 1.04294 0.49958 0.44349
 O100 O 1.04088 0.50335 0.37316
 O101 O 1.09646 0.49557 0.44153
 Zr102 Zr 0.95826 0.50019 0.44279
 O103 O 0.96138 0.50396 0.37251
 O104 O 0.90475 0.49665 0.43965
 Zr105 Zr 0.99987 0.44133 0.49990
 Zr106 Zr 1.00054 0.55948 0.49882
 O107 O 1.00086 0.53451 0.43475
 O108 O 1.00046 0.46432 0.43474
 O109 O 1.04950 0.53469 0.49950
 O110 O 0.95132 0.46690 0.49938
 O111 O 1.04870 0.46615 0.50016
 O112 O 0.95127 0.53534 0.49872
 H113 H 0.99991 0.55465 0.58890
 H114 H 0.93089 0.45003 0.49924
 H115 H 1.00117 0.55236 0.40879
 H116 H 1.06885 0.44888 0.50037
 H117 H 0.89494 0.49868 0.53223
 H118 H 0.89546 0.51644 0.46045
 H119 H 0.97171 0.47942 0.36138
 H120 H 1.03052 0.47891 0.36185
 H121 H 1.10543 0.51428 0.46377
 H122 H 1.10509 0.49261 0.53487
 H123 H 1.05816 0.50401 0.63881
 H124 H 0.97130 0.48095 0.63684
 O125 O 0.54773 0.07113 0.57974
 O126 O 0.58580 0.03518 0.53846
 C127 C 0.57827 0.06129 0.56833
 O128 O 0.45402 -0.07123 0.57583
 O129 O 0.41622 -0.03423 0.53591
 C130 C 0.42361 -0.06169 0.56397
 O131 O 0.54831 -0.06678 0.58035
 O132 O 0.58610 -0.03116 0.53839
 C133 C 0.57876 -0.05696 0.56855
 O134 O 0.45345 0.07469 0.57440
 O135 O 0.41591 0.03595 0.53595
 C136 C 0.42307 0.06424 0.56320
 Zr137 Zr 0.50066 0.05059 0.55563
 O138 O 0.49903 0.04384 0.62550
 O139 O 0.50106 0.11222 0.56252
 Zr140 Zr 0.50104 -0.04754 0.55575
 O141 O 0.49730 -0.04488 0.62603
 O142 O 0.50491 -0.10928 0.55815
 O143 O 0.53138 0.00179 0.56444
 O144 O 0.47081 0.00142 0.56367
 O145 O 0.45411 0.07334 0.42258
 O146 O 0.41628 0.03576 0.46211
 C147 C 0.42368 0.06336 0.43418
 O148 O 0.54912 -0.06735 0.41921
 O149 O 0.58649 -0.03129 0.46120
 C150 C 0.57945 -0.05731 0.43113
 O151 O 0.45459 -0.07143 0.42251
 O152 O 0.41645 -0.03307 0.46062
 C153 C 0.42403 -0.06118 0.43325
 O154 O 0.54858 0.07037 0.41895
 O155 O 0.58621 0.03496 0.46101
 C156 C 0.57899 0.06072 0.43084
 Zr157 Zr 0.50125 0.05040 0.44308
 O158 O 0.49791 0.04809 0.37277
 O159 O 0.50416 0.11226 0.44146
 Zr160 Zr 0.50158 -0.04792 0.44313
 O161 O 0.49803 -0.04590 0.37282
 O162 O 0.50560 -0.10968 0.44107
 Zr163 Zr 0.55187 0.00172 0.49956
 Zr164 Zr 0.45019 0.00099 0.49917
 O165 O 0.47168 0.00108 0.43493
 O166 O 0.53196 0.00139 0.43449
 O167 O 0.47086 0.05802 0.49919
 O168 O 0.53066 -0.05485 0.49959
 O169 O 0.53032 0.05801 0.49947
 O170 O 0.47118 -0.05580 0.49929
 H171 H 0.45501 0.00147 0.58938
 H172 H 0.54568 -0.07808 0.49971
 H173 H 0.45636 0.00105 0.40884
 H174 H 0.54533 0.08125 0.49939
 H175 H 0.48861 -0.12001 0.53636
 H176 H 0.48828 -0.12039 0.46154
 H177 H 0.51881 -0.03316 0.36137
 H178 H 0.51839 0.03455 0.36154
 H179 H 0.48722 0.12242 0.46291
 H180 H 0.50804 0.12319 0.53352
 H181 H 0.49857 0.07068 0.63805
 H182 H 0.51658 -0.02903 0.63696
 O183 O 0.54540 0.56856 0.08239
 O184 O 0.58321 0.53311 0.04015
 C185 C 0.57589 0.55855 0.07084
 O186 O 0.45088 0.42804 0.07812
 O187 O 0.41317 0.46530 0.03829
 C188 C 0.42043 0.43799 0.06666
 O189 O 0.54550 0.43178 0.08206
 O190 O 0.58328 0.46712 0.03975
 C191 C 0.57599 0.44167 0.07036
 O192 O 0.45104 0.57291 0.07757
 O193 O 0.41318 0.53503 0.03856
 C194 C 0.42052 0.56269 0.06665
 Zr195 Zr 0.49817 0.54890 0.05776
 O196 O 0.49667 0.54182 0.12760
 O197 O 0.49972 0.61046 0.06477
 Zr198 Zr 0.49815 0.45082 0.05706
 O199 O 0.49478 0.45197 0.12741
 O200 O 0.50181 0.38899 0.05722
 O201 O 0.52871 0.49991 0.06580
 O202 O 0.46820 0.49992 0.06548
 O203 O 0.45104 0.57173 -0.07624
 O204 O 0.41321 0.53458 -0.03618
 C205 C 0.42056 0.56166 -0.06484
 O206 O 0.54571 0.43175 -0.08053
 O207 O 0.58337 0.46691 -0.03807
 C208 C 0.57616 0.44157 -0.06885
 O209 O 0.45118 0.42839 -0.07666
 O210 O 0.41327 0.46543 -0.03647
 C211 C 0.42067 0.43827 -0.06516
 O212 O 0.54559 0.56899 -0.07988
 O213 O 0.58330 0.53391 -0.03764
 C214 C 0.57605 0.55924 -0.06830
 Zr215 Zr 0.49832 0.54953 -0.05483
 O216 O 0.49480 0.54874 -0.12517
 O217 O 0.50161 0.61141 -0.05473
 Zr218 Zr 0.49836 0.45096 -0.05536
 O219 O 0.49466 0.45193 -0.12567
 O220 O 0.50213 0.38912 -0.05578
 Zr221 Zr 0.54912 0.50018 0.00083
 Zr222 Zr 0.44730 0.50011 0.00112
 O223 O 0.46870 0.50023 -0.06316
 O224 O 0.52879 0.50030 -0.06400
 O225 O 0.46809 0.55706 0.00151
 O226 O 0.52776 0.44371 0.00077
 O227 O 0.52770 0.55658 0.00145
 O228 O 0.46797 0.44314 0.00083
 H229 H 0.45264 0.49999 0.09143
 H230 H 0.54290 0.42058 0.00071
 H231 H 0.45345 0.50019 -0.08931
 H232 H 0.54282 0.57974 0.00159
 H233 H 0.48359 0.37872 0.03792
 H234 H 0.48324 0.37872 -0.03761
 H235 H 0.51440 0.46662 -0.13725
 H236 H 0.51428 0.53358 -0.13674
 H237 H 0.48238 0.62156 -0.03692
 H238 H 0.50119 0.62138 0.03443
 H239 H 0.49520 0.56854 0.14032
 H240 H 0.51308 0.46926 0.13844
 C241 C 1.22933 0.22169 0.22141
 C242 C 1.21450 0.19871 0.19810
 C243 C 1.19552 0.17094 0.17241
 C244 C 1.18931 0.13356 0.18974
 C245 C 1.16767 0.10785 0.16740
 C246 C 1.15225 0.11948 0.12766
 C247 C 1.15925 0.15642 0.10966
 C248 C 1.18087 0.18215 0.13203
 C249 C 1.12708 0.09508 0.10726
 C250 C 1.10486 0.07614 0.09033
 H251 H 1.20037 0.12479 0.22115
 H252 H 1.16218 0.07946 0.18175
 H253 H 1.14719 0.16575 0.07911
 H254 H 1.18532 0.21110 0.11857
 C255 C 1.22269 0.73034 0.71864
 C256 C 1.20052 0.71616 0.69626
 C257 C 1.17321 0.70001 0.67046
 C258 C 1.14136 0.69455 0.69022
 C259 C 1.11505 0.67743 0.66595
 C260 C 1.12043 0.66588 0.62173
 C261 C 1.15205 0.67222 0.60161
 C262 C 1.17838 0.68935 0.62590
 C263 C 1.09525 0.64282 0.59917
 C264 C 1.07578 0.62048 0.58163
 H265 H 1.13710 0.70278 0.72464
 H266 H 1.09089 0.67209 0.68206
 H267 H 1.15664 0.66283 0.56764
 H268 H 1.20290 0.69353 0.61028
 C269 C 0.73162 0.22658 0.72308
 C270 C 0.71402 0.20502 0.70125
 C271 C 0.69312 0.17831 0.67638
 C272 C 0.68545 0.14141 0.69406
 C273 C 0.66423 0.11577 0.67081
 C274 C 0.65066 0.12689 0.62970
 C275 C 0.65872 0.16359 0.61171
 C276 C 0.67994 0.18923 0.63499
 C277 C 0.62665 0.10193 0.60746
 C278 C 0.60531 0.08234 0.58935
 H279 H 0.69551 0.13267 0.72607
 H280 H 0.65794 0.08763 0.68520
 H281 H 0.64814 0.17261 0.58011
 H282 H 0.68571 0.21769 0.62103
 C283 C 0.73179 0.71824 0.22898
 C284 C 0.71473 0.69469 0.20906
 C285 C 0.69387 0.66767 0.18440
 C286 C 0.67577 0.63823 0.20654
 C287 C 0.65383 0.61373 0.18275
 C288 C 0.64991 0.61853 0.13670
 C289 C 0.66851 0.64750 0.11446
 C290 C 0.69044 0.67197 0.13824
 C291 C 0.62507 0.59577 0.11288
 C292 C 0.60323 0.57799 0.09333
 H293 H 0.67811 0.63471 0.24223
 H294 H 0.63939 0.59164 0.20036
 H295 H 0.66551 0.65172 0.07895
 H296 H 0.70420 0.69473 0.12079
 C297 C 0.76903 -0.22712 0.21925
 C298 C 0.78380 -0.20568 0.19407
 C299 C 0.80271 -0.17947 0.16625
 C300 C 0.80507 -0.13985 0.17793
 C301 C 0.82681 -0.11509 0.15439
 C302 C 0.84618 -0.12992 0.11908
 C303 C 0.84299 -0.16926 0.10646
 C304 C 0.82127 -0.19404 0.13005
 C305 C 0.87150 -0.10580 0.09848
 C306 C 0.89380 -0.08645 0.08229
 H307 H 0.79099 -0.12843 0.20612
 H308 H 0.82936 -0.08480 0.16462
 H309 H 0.85809 -0.18103 0.07939
 H310 H 0.81978 -0.22472 0.12104
 C311 C 0.77948 0.27000 0.72343
 C312 C 0.80205 0.28435 0.70171
 C313 C 0.82978 0.30097 0.67685
 C314 C 0.82655 0.30803 0.63113
 C315 C 0.85313 0.32562 0.60757
 C316 C 0.88311 0.33606 0.62957
 C317 C 0.88660 0.32818 0.67508
 C318 C 0.86004 0.31059 0.69862
 C319 C 0.90829 0.35921 0.60688
 C320 C 0.92753 0.38146 0.58863
 H321 H 0.80330 0.30066 0.61393
 H322 H 0.84993 0.33210 0.57254
 H323 H 0.90943 0.33664 0.69260
 H324 H 0.86284 0.30520 0.73395
 C325 C 0.27079 -0.22709 0.71852
 C326 C 0.28860 -0.20612 0.69632
 C327 C 0.30942 -0.17979 0.67097
 C328 C 0.32388 -0.19184 0.63058
 C329 C 0.34486 -0.16629 0.60681
 C330 C 0.35131 -0.12861 0.62332
 C331 C 0.33643 -0.11641 0.66336
 C332 C 0.31547 -0.14193 0.68711
 C333 C 0.37521 -0.10363 0.60104
 C334 C 0.39653 -0.08368 0.58349
 H335 H 0.31930 -0.22105 0.61782
 H336 H 0.35650 -0.17611 0.57605
 H337 H 0.34150 -0.08747 0.67660
 H338 H 0.30435 -0.13234 0.71830
 C339 C 0.26583 0.27753 0.22653
 C340 C 0.28252 0.30028 0.20491
 C341 C 0.30315 0.32633 0.17861
 C342 C 0.31116 0.36384 0.19441
 C343 C 0.33286 0.38811 0.16990
 C344 C 0.34663 0.37500 0.12945
 C345 C 0.33813 0.33776 0.11330
 C346 C 0.31645 0.31352 0.13779
 C347 C 0.37130 0.39846 0.10614
 C348 C 0.39307 0.41713 0.08750
 H349 H 0.30114 0.37402 0.22599
 H350 H 0.33945 0.41672 0.18289
 H351 H 0.34881 0.32717 0.08227
 H352 H 0.31055 0.28453 0.12531
 C353 C 0.77052 0.22580 -0.21699
 C354 C 0.78565 0.20407 -0.19256
 C355 C 0.80503 0.17760 -0.16568
 C356 C 0.80698 0.13799 -0.17760
 C357 C 0.82882 0.11293 -0.15475
 C358 C 0.84873 0.12743 -0.11990
 C359 C 0.84608 0.16680 -0.10718
 C360 C 0.82426 0.19187 -0.13006
 C361 C 0.87374 0.10283 -0.09949
 C362 C 0.89571 0.08315 -0.08315
 H363 H 0.79242 0.12676 -0.20537
 H364 H 0.83088 0.08260 -0.16504
 H365 H 0.86157 0.17833 -0.08046
 H366 H 0.82314 0.22253 -0.12087
 C367 C 0.77829 0.72969 0.27960
 C368 C 0.80088 0.71588 0.30151
 C369 C 0.82859 0.69989 0.32664
 C370 C 0.85968 0.69259 0.30556
 C371 C 0.88623 0.67533 0.32920
 C372 C 0.88186 0.66551 0.37411
 C373 C 0.85103 0.67371 0.39548
 C374 C 0.82447 0.69096 0.37182
 C375 C 0.90710 0.64242 0.39644
 C376 C 0.92648 0.62010 0.41410
 H377 H 0.86315 0.69944 0.27064
 H378 H 0.90974 0.66856 0.31214
 H379 H 0.84719 0.66567 0.42999
 H380 H 0.80055 0.69654 0.38845
 C381 C 0.26866 0.22578 0.28048
 C382 C 0.28661 0.20533 0.30297
 C383 C 0.30773 0.17961 0.32852
 C384 C 0.30990 0.13996 0.31683
 C385 C 0.33140 0.11498 0.34032
 C386 C 0.35075 0.12957 0.37566
 C387 C 0.34818 0.16910 0.38783
 C388 C 0.32667 0.19409 0.36431
 C389 C 0.37501 0.10480 0.39737
 C390 C 0.39653 0.08507 0.41465
 H391 H 0.29535 0.12850 0.28916
 H392 H 0.33341 0.08455 0.33044
 H393 H 0.36325 0.18071 0.41492
 H394 H 0.32518 0.22471 0.37358
 C395 C 0.26784 0.72042 -0.22833
 C396 C 0.28428 0.69745 -0.20684
 C397 C 0.30449 0.67101 -0.18068
 C398 C 0.30899 0.67799 -0.13506
 C399 C 0.33037 0.65387 -0.11011
 C400 C 0.34732 0.62259 -0.13062
 C401 C 0.34230 0.61517 -0.17605
 C402 C 0.32094 0.63930 -0.20101
 C403 C 0.37170 0.59995 -0.10600
 C404 C 0.39330 0.58191 -0.08643
 H405 H 0.29651 0.70250 -0.11901
 H406 H 0.33423 0.66009 -0.07511
 H407 H 0.35547 0.59127 -0.19236
 H408 H 0.31776 0.63370 -0.23627
 C409 C 1.23088 -0.22423 -0.22271
 C410 C 1.21567 -0.20179 -0.19907
 C411 C 1.19632 -0.17470 -0.17283
 C412 C 1.19062 -0.13678 -0.18880
 C413 C 1.16880 -0.11159 -0.16587
 C414 C 1.15270 -0.12428 -0.12692
 C415 C 1.15917 -0.16181 -0.11026
 C416 C 1.18095 -0.18703 -0.13322
 C417 C 1.12747 -0.10023 -0.10602
 C418 C 1.10521 -0.08149 -0.08881
 H419 H 1.20223 -0.12712 -0.21960
 H420 H 1.16373 -0.08272 -0.17914
 H421 H 1.14661 -0.17195 -0.08029
 H422 H 1.18502 -0.21642 -0.12084
 C423 C 1.22012 0.26775 0.27921
 C424 C 1.19757 0.28195 0.30109
 C425 C 1.16991 0.29817 0.32639
 C426 C 1.17554 0.31360 0.36896
 C427 C 1.14886 0.33104 0.39244
 C428 C 1.11644 0.33303 0.37355
 C429 C 1.11062 0.31669 0.33146
 C430 C 1.13730 0.29918 0.30800
 C431 C 1.09073 0.35632 0.39491
 C432 C 1.07133 0.37894 0.41225
 H433 H 1.20063 0.31290 0.38354
 H434 H 1.15373 0.34411 0.42470
 H435 H 1.08579 0.31855 0.31627
 H436 H 1.13269 0.28720 0.27514
 C437 C 0.73049 -0.22708 0.27961
 C438 C 0.71325 -0.20491 0.30118
 C439 C 0.69300 -0.17725 0.32560
 C440 C 0.68647 -0.14031 0.30733
 C441 C 0.66587 -0.11367 0.33015
 C442 C 0.65184 -0.12384 0.37138
 C443 C 0.65880 -0.16055 0.38999
 C444 C 0.67939 -0.18721 0.36716
 C445 C 0.62811 -0.09811 0.39294
 C446 C 0.60675 -0.07823 0.41059
 H447 H 0.69690 -0.13234 0.27520
 H448 H 0.66037 -0.08552 0.31528
 H449 H 0.64778 -0.16882 0.42168
 H450 H 0.68429 -0.21570 0.38156
 C451 C 0.73297 0.28057 -0.22540
 C452 C 0.71573 0.30407 -0.20549
 C453 C 0.69459 0.33123 -0.18124
 C454 C 0.67519 0.35905 -0.20408
 C455 C 0.65312 0.38375 -0.18063
 C456 C 0.65031 0.38081 -0.13421
 C457 C 0.67014 0.35345 -0.11132
 C458 C 0.69222 0.32877 -0.13476
 C459 C 0.62544 0.40384 -0.11055
 C460 C 0.60357 0.42187 -0.09118
 H461 H 0.67667 0.36116 -0.24001
 H462 H 0.63774 0.40457 -0.19874
 H463 H 0.66803 0.35066 -0.07550
 H464 H 0.70696 0.30728 -0.11674
 C465 C 1.22903 0.22264 -0.22092
 C466 C 1.21441 0.19969 -0.19731
 C467 C 1.19570 0.17195 -0.17114
 C468 C 1.18112 0.18338 -0.13061
 C469 C 1.15982 0.15763 -0.10770
 C470 C 1.15305 0.12041 -0.12527
 C471 C 1.16842 0.10857 -0.16515
 C472 C 1.18974 0.13431 -0.18804
 C473 C 1.12806 0.09595 -0.10441
 C474 C 1.10589 0.07694 -0.08735
 H475 H 1.18540 0.21252 -0.11745
 H476 H 1.14782 0.16714 -0.07705
 H477 H 1.16312 0.07998 -0.17918
 H478 H 1.20074 0.12533 -0.21953
 C479 C 1.22387 0.73241 0.27962
 C480 C 1.20184 0.71719 0.30168
 C481 C 1.17461 0.69981 0.32691
 C482 C 1.14307 0.69351 0.30674
 C483 C 1.11677 0.67563 0.33055
 C484 C 1.12179 0.66410 0.37479
 C485 C 1.15314 0.67108 0.39524
 C486 C 1.17945 0.68896 0.37140
 C487 C 1.09639 0.64108 0.39732
 C488 C 1.07667 0.61900 0.41504
 H489 H 1.13899 0.70184 0.27238
 H490 H 1.09286 0.66991 0.31415
 H491 H 1.15751 0.66180 0.42921
 H492 H 1.20368 0.69374 0.38739
 C493 C 0.73164 0.22770 0.27755
 C494 C 0.71422 0.20597 0.29942
 C495 C 0.69360 0.17889 0.32416
 C496 C 0.67988 0.18963 0.36547
 C497 C 0.65888 0.16358 0.38852
 C498 C 0.65159 0.12667 0.37041
 C499 C 0.66572 0.11572 0.32942
 C500 C 0.68672 0.14176 0.30639
 C501 C 0.62762 0.10140 0.39227
 C502 C 0.60621 0.08170 0.41010
 H503 H 0.68502 0.21826 0.37950
 H504 H 0.64784 0.17246 0.42002
 H505 H 0.66002 0.08741 0.31493
 H506 H 0.69721 0.13316 0.27446
 C507 C 0.73113 0.71914 -0.22872
 C508 C 0.71418 0.69579 -0.20826
 C509 C 0.69343 0.66890 -0.18313
 C510 C 0.68978 0.67377 -0.13701
 C511 C 0.66802 0.64931 -0.11287
 C512 C 0.64978 0.61976 -0.13467
 C513 C 0.65390 0.61442 -0.18067
 C514 C 0.67567 0.63890 -0.20483
 C515 C 0.62513 0.59685 -0.11049
 C516 C 0.60340 0.57889 -0.09079
 H517 H 0.70328 0.69692 -0.11986
 H518 H 0.66488 0.65395 -0.07740
 H519 H 0.63977 0.59188 -0.19799
 H520 H 0.67818 0.63489 -0.24047
 C521 C 0.76908 -0.22650 -0.22057
 C522 C 0.78451 -0.20504 -0.19606
 C523 C 0.80398 -0.17866 -0.16905
 C524 C 0.80780 -0.13963 -0.18239
 C525 C 0.82948 -0.11470 -0.15900
 C526 C 0.84742 -0.12876 -0.12222
 C527 C 0.84286 -0.16747 -0.10806
 C528 C 0.82118 -0.19243 -0.13149
 C529 C 0.87260 -0.10463 -0.10134
 C530 C 0.89477 -0.08542 -0.08468
 H531 H 0.79478 -0.12883 -0.21160
 H532 H 0.83301 -0.08488 -0.17033
 H533 H 0.85680 -0.17861 -0.07976
 H534 H 0.81857 -0.22263 -0.12111
 C535 C 0.77969 0.27082 0.27670
 C536 C 0.80254 0.28477 0.29816
 C537 C 0.83059 0.30080 0.32277
 C538 C 0.82795 0.30674 0.36881
 C539 C 0.85483 0.32378 0.39221
 C540 C 0.88451 0.33477 0.36972
 C541 C 0.88743 0.32798 0.32386
 C542 C 0.86058 0.31093 0.30048
 C543 C 0.90979 0.35772 0.39238
 C544 C 0.92900 0.38001 0.41060
 H545 H 0.80493 0.29895 0.38641
 H546 H 0.85205 0.32948 0.42753
 H547 H 0.91001 0.33693 0.30597
 H548 H 0.86292 0.30639 0.26489
 C549 C 0.26913 -0.22622 0.27993
 C550 C 0.28720 -0.20537 0.30212
 C551 C 0.30851 -0.17932 0.32737
 C552 C 0.32900 -0.19379 0.36160
 C553 C 0.35055 -0.16848 0.38485
 C554 C 0.35169 -0.12859 0.37404
 C555 C 0.33088 -0.11404 0.34020
 C556 C 0.30932 -0.13934 0.31696
 C557 C 0.37572 -0.10327 0.39581
 C558 C 0.39703 -0.08317 0.41332
 H559 H 0.32863 -0.22464 0.36989
 H560 H 0.36672 -0.18011 0.41075
 H561 H 0.33171 -0.08333 0.33132
 H562 H 0.29362 -0.12784 0.29051
 C563 C 0.26611 0.27802 -0.22666
 C564 C 0.28371 0.30026 -0.20555
 C565 C 0.30578 0.32546 -0.18015
 C566 C 0.29366 0.36032 -0.16114
 C567 C 0.31546 0.38433 -0.13634
 C568 C 0.34943 0.37351 -0.13042
 C569 C 0.36141 0.33863 -0.14937
 C570 C 0.33970 0.31472 -0.17409
 C571 C 0.37255 0.39809 -0.10585
 C572 C 0.39357 0.41730 -0.08644
 H573 H 0.26746 0.36891 -0.16551
 H574 H 0.30590 0.41127 -0.12196
 H575 H 0.38762 0.32998 -0.14515
 H576 H 0.34938 0.28784 -0.18852
 C577 C 1.23087 -0.22374 0.22453
 C578 C 1.21518 -0.20151 0.20121
 C579 C 1.19526 -0.17475 0.17532
 C580 C 1.18716 -0.13782 0.19274
 C581 C 1.16521 -0.11305 0.16965
 C582 C 1.15127 -0.12513 0.12906
 C583 C 1.16001 -0.16167 0.11111
 C584 C 1.18197 -0.18646 0.13422
 C585 C 1.12611 -0.10143 0.10753
 C586 C 1.10405 -0.08270 0.08993
 H587 H 1.19713 -0.12860 0.22467
 H588 H 1.15843 -0.08497 0.18396
 H589 H 1.14919 -0.17139 0.07987
 H590 H 1.18789 -0.21506 0.12062
 C591 C 1.21937 0.26925 0.72214
 C592 C 1.19660 0.28398 0.70130
 C593 C 1.16868 0.30077 0.67717
 C594 C 1.13924 0.31214 0.69998
 C595 C 1.11245 0.32955 0.67693
 C596 C 1.11487 0.33550 0.63089
 C597 C 1.14402 0.32335 0.60793
 C598 C 1.17083 0.30594 0.63099
 C599 C 1.08966 0.35854 0.60833
 C600 C 1.07054 0.38080 0.59001
 H601 H 1.13726 0.30817 0.73567
 H602 H 1.09029 0.33936 0.69517
 H603 H 1.14641 0.32835 0.57245
 H604 H 1.19341 0.29717 0.61297
 C605 C 0.72936 -0.22640 0.72048
 C606 C 0.71193 -0.20431 0.69922
 C607 C 0.69152 -0.17682 0.67493
 C608 C 0.68406 -0.14022 0.69373
 C609 C 0.66359 -0.11366 0.67083
 C610 C 0.65057 -0.12354 0.62897
 C611 C 0.65842 -0.15992 0.60988
 C612 C 0.67889 -0.18650 0.63279
 C613 C 0.62703 -0.09784 0.60716
 C614 C 0.60586 -0.07793 0.58933
 H615 H 0.69373 -0.13243 0.72629
 H616 H 0.65742 -0.08578 0.68608
 H617 H 0.64821 -0.16800 0.57768
 H618 H 0.68451 -0.21470 0.61793
 C619 C 0.73292 0.28177 0.22629
 C620 C 0.71573 0.30516 0.20639
 C621 C 0.69463 0.33200 0.18190
 C622 C 0.67792 0.36268 0.20391
 C623 C 0.65580 0.38712 0.18046
 C624 C 0.65027 0.38106 0.13487
 C625 C 0.66746 0.35082 0.11272
 C626 C 0.68958 0.32640 0.13615
 C627 C 0.62530 0.40401 0.11156
 C628 C 0.60339 0.42201 0.09246
 H629 H 0.68152 0.36725 0.23928
 H630 H 0.64249 0.41022 0.19803
 H631 H 0.66325 0.34562 0.07757
 H632 H 0.70226 0.30271 0.11879
 C633 C 0.77012 0.22688 0.21696
 C634 C 0.78497 0.20508 0.19213
 C635 C 0.80404 0.17841 0.16490
 C636 C 0.82382 0.19252 0.12965
 C637 C 0.84558 0.16720 0.10678
 C638 C 0.84763 0.12774 0.11915
 C639 C 0.82708 0.11339 0.15351
 C640 C 0.80530 0.13870 0.17634
 C641 C 0.87275 0.10294 0.09903
 C642 C 0.89485 0.08313 0.08297
 H643 H 0.82321 0.22325 0.12080
 H644 H 0.86156 0.17859 0.08042
 H645 H 0.82866 0.08299 0.16351
 H646 H 0.79028 0.12762 0.20381
 C647 C 0.77686 0.72990 0.71880
 C648 C 0.79905 0.71598 0.69603
 C649 C 0.82645 0.70011 0.66989
 C650 C 0.82125 0.68912 0.62547
 C651 C 0.84769 0.67227 0.60090
 C652 C 0.87947 0.66649 0.62059
 C653 C 0.88487 0.67836 0.66467
 C654 C 0.85845 0.69520 0.68922
 C655 C 0.90482 0.64362 0.59784
 C656 C 0.92442 0.62132 0.58029
 H657 H 0.79663 0.69282 0.61016
 H658 H 0.84306 0.66263 0.56707
 H659 H 0.90914 0.67346 0.68048
 H660 H 0.86277 0.70365 0.72353
 C661 C 0.26758 0.22653 0.71874
 C662 C 0.28530 0.20602 0.69569
 C663 C 0.30637 0.18029 0.66965
 C664 C 0.31007 0.14112 0.68250
 C665 C 0.33168 0.11628 0.65867
 C666 C 0.34965 0.13049 0.62183
 C667 C 0.34554 0.16951 0.60851
 C668 C 0.32391 0.19438 0.63238
 C669 C 0.37410 0.10592 0.59978
 C670 C 0.39575 0.08617 0.58247
 H671 H 0.29667 0.12995 0.71134
 H672 H 0.33489 0.08627 0.66947
 H673 H 0.35953 0.18087 0.58027
 H674 H 0.32128 0.22463 0.62222
 C675 C 0.26679 0.72426 0.22891
 C676 C 0.28359 0.70136 0.20736
 C677 C 0.30421 0.67478 0.18138
 C678 C 0.30977 0.68188 0.13597
 C679 C 0.33128 0.65743 0.11125
 C680 C 0.34736 0.62564 0.13174
 C681 C 0.34136 0.61818 0.17698
 C682 C 0.31986 0.64264 0.20170
 C683 C 0.37172 0.60233 0.10731
 C684 C 0.39325 0.58367 0.08794
 H685 H 0.29793 0.70669 0.11987
 H686 H 0.33586 0.66374 0.07642
 H687 H 0.35381 0.59391 0.19335
 H688 H 0.31590 0.63687 0.23678
   
