data_POSCAR
  _audit_creation_date              2014-09-24
  _audit_creation_method            'ToBaCCo'
  _symmetry_space_group_name_H-M    'P1'
  _symmetry_Int_Tables_number       1
  _symmetry_cell_setting            triclinic
  loop_
  _symmetry_equiv_pos_as_xyz
 x,y,z
_cell_length_a 36.8445
_cell_length_b 36.8551
_cell_length_c 36.8425
_cell_angle_alpha 90.172300
_cell_angle_beta 90.213200
_cell_angle_gamma 89.820900
loop_
  _atom_site_label
  _atom_site_type_symbol
  _atom_site_fract_x
  _atom_site_fract_y
  _atom_site_fract_z
N1 N 0.16716 0.16868 0.16729
 N2 N -0.16461 0.83384 0.16770
 N3 N -0.17022 0.16546 -0.16693
 N4 N 0.16688 0.83126 -0.16688
 N5 N 0.16786 1.16655 0.83526
 N6 N 0.83200 0.83361 0.82987
 N7 N 0.16683 0.83075 1.16787
 N8 N 0.83221 1.16855 1.16781
 O9 O 0.44828 0.93132 0.93901
 O10 O 0.40892 0.96599 0.97255
 C11 C 0.41575 0.94080 0.94891
 O12 O 0.55131 0.93472 1.06835
 O13 O 0.59030 0.96804 1.03351
 C14 C 0.58374 0.94455 1.05873
 O15 O 0.44884 0.93127 1.06518
 O16 O 0.40921 0.96678 1.03280
 C17 C 0.41620 0.94126 1.05593
 O18 O 0.55059 0.93504 0.93521
 O19 O 0.58996 0.96805 0.97038
 C20 C 0.58314 0.94473 0.94488
 Zr21 Zr 0.49945 0.95192 0.95592
 O22 O 0.50387 0.89464 0.95554
 O23 O 0.49497 0.95233 0.89862
 Zr24 Zr 0.49993 0.95150 1.04785
 O25 O 0.50430 0.89421 1.04666
 O26 O 0.49625 0.95072 1.10516
 O27 O 0.46741 0.94460 1.00191
 O28 O 0.53122 0.94515 1.00181
 O29 O 0.54995 1.06086 0.93603
 O30 O 0.58970 1.02768 0.97071
 C31 C 0.58259 1.05118 0.94554
 O32 O 0.44835 1.06394 1.06561
 O33 O 0.40895 1.02910 1.03226
 C34 C 0.41580 1.05431 1.05587
 O35 O 0.55079 1.06083 1.06869
 O36 O 0.59009 1.02833 1.03301
 C37 C 0.58333 1.05156 1.05860
 O38 O 0.44756 1.06403 0.93950
 O39 O 0.40856 1.02840 0.97194
 C40 C 0.41511 1.05397 0.94882
 Zr41 Zr 0.49896 1.04387 0.95659
 O42 O 0.50278 1.10118 0.95749
 O43 O 0.49462 1.04438 0.89929
 Zr44 Zr 0.49953 1.04354 1.04847
 O45 O 0.50330 1.10084 1.04897
 O46 O 0.49579 1.04299 1.10580
 Zr47 Zr 0.44580 0.99762 1.00231
 Zr48 Zr 0.55314 0.99777 1.00217
 O49 O 0.53066 1.05033 1.00249
 O50 O 0.46689 1.05073 1.00262
 O51 O 0.53142 0.99798 0.94914
 O52 O 0.46838 0.99749 1.05485
 O53 O 0.46776 0.99783 0.94968
 O54 O 0.53203 0.99756 1.05525
 H55 H 0.54796 0.92406 1.00166
 H56 H 0.45202 0.99752 1.07613
 H57 H 0.54705 1.07159 1.00247
 H58 H 0.45114 0.99775 0.92848
 H59 H 0.51555 0.96674 1.11474
 H60 H 0.51668 1.02887 1.11513
 H61 H 0.48330 1.11033 1.03371
 H62 H 0.48190 1.11055 0.97152
 H63 H 0.51443 1.02903 0.88964
 H64 H 0.51527 0.96700 0.88918
 H65 H 0.48407 0.88508 0.97078
 H66 H 0.48310 0.88481 1.03306
 O67 O -0.06855 0.44903 0.06036
 O68 O -0.03387 0.40931 0.02728
 C69 C -0.05903 0.41639 0.05076
 O70 O -0.06575 0.55070 -0.06923
 O71 O -0.03281 0.59003 -0.03393
 C72 C -0.05625 0.58324 -0.05934
 O73 O -0.06903 0.44823 -0.06572
 O74 O -0.03333 0.40894 -0.03313
 C75 C -0.05900 0.41571 -0.05629
 O76 O -0.06495 0.55140 0.06326
 O77 O -0.03252 0.59035 0.02753
 C78 C -0.05560 0.58382 0.05313
 Zr79 Zr -0.04799 0.49998 0.04315
 O80 O -0.10529 0.50429 0.04344
 O81 O -0.04726 0.49628 0.10049
 Zr82 Zr -0.04852 0.49947 -0.04885
 O83 O -0.10583 0.50374 -0.04877
 O84 O -0.04863 0.49511 -0.10616
 O85 O -0.05541 0.46748 -0.00273
 O86 O -0.05478 0.53110 -0.00294
 O87 O 0.06112 0.55075 0.06327
 O88 O 0.02781 0.59008 0.02833
 C89 C 0.05141 0.58328 0.05360
 O90 O 0.06355 0.44753 -0.06598
 O91 O 0.02808 0.40859 -0.03325
 C92 C 0.05354 0.41510 -0.05650
 O93 O 0.06068 0.54995 -0.06948
 O94 O 0.02839 0.58966 -0.03403
 C95 C 0.05148 0.58258 -0.05954
 O96 O 0.06446 0.44847 0.06011
 O97 O 0.02929 0.40903 0.02719
 C98 C 0.05473 0.41592 0.05057
 Zr99 Zr 0.04392 0.49955 0.04298
 O100 O 0.10123 0.50337 0.04288
 O101 O 0.04401 0.49580 0.10030
 Zr102 Zr 0.04335 0.49898 -0.04909
 O103 O 0.10067 0.50263 -0.04943
 O104 O 0.04256 0.49461 -0.10640
 Zr105 Zr -0.00239 0.44583 -0.00267
 Zr106 Zr -0.00214 0.55316 -0.00316
 O107 O 0.05037 0.53060 -0.00315
 O108 O 0.05069 0.46698 -0.00296
 O109 O -0.00195 0.53213 0.05000
 O110 O -0.00268 0.46778 -0.05537
 O111 O -0.00205 0.46834 0.04984
 O112 O -0.00255 0.53155 -0.05619
 H113 H -0.07609 0.54756 -0.00295
 H114 H -0.00283 0.45127 -0.07665
 H115 H 0.07166 0.54697 -0.00312
 H116 H -0.00197 0.45185 0.07104
 H117 H -0.03408 0.51545 -0.11568
 H118 H 0.02826 0.51531 -0.11584
 H119 H 0.11020 0.48261 -0.03429
 H120 H 0.11060 0.48318 0.02782
 H121 H 0.02927 0.51620 0.10972
 H122 H -0.03293 0.51697 0.10983
 H123 H -0.11490 0.48435 0.02822
 H124 H -0.11525 0.48357 -0.03390
 O125 O 1.06649 -0.06297 0.44937
 O126 O 1.03308 -0.02814 0.41000
 C127 C 1.05668 -0.05338 0.41681
 O128 O 0.93728 -0.06048 0.55107
 O129 O 0.97234 -0.02778 0.59084
 C130 C 0.94708 -0.05116 0.58374
 O131 O 0.94061 -0.06329 0.44872
 O132 O 0.97282 -0.02744 0.40972
 C133 C 0.94985 -0.05313 0.41628
 O134 O 1.06961 -0.05982 0.55186
 O135 O 1.03383 -0.02743 0.59117
 C136 C 1.05944 -0.05062 0.58439
 Zr137 Zr 1.04958 -0.04238 0.50059
 O138 O 1.05099 -0.09966 0.50427
 O139 O 1.10689 -0.04099 0.49682
 Zr140 Zr 0.95755 -0.04307 0.50009
 O141 O 0.95827 -0.10039 0.50377
 O142 O 0.90025 -0.04338 0.49577
 O143 O 1.00367 -0.04977 0.46805
 O144 O 1.00354 -0.04941 0.53164
 O145 O 1.06891 0.06637 0.55259
 O146 O 1.03417 0.03287 0.59152
 C147 C 1.05928 0.05649 0.58503
 O148 O 0.93962 0.06939 0.44937
 O149 O 0.97335 0.03490 0.41002
 C150 C 0.94956 0.05996 0.41682
 O151 O 0.93604 0.06579 0.55172
 O152 O 0.97178 0.03340 0.59111
 C153 C 0.94604 0.05644 0.58427
 O154 O 1.06577 0.06992 0.45009
 O155 O 1.03360 0.03426 0.41042
 C156 C 1.05657 0.05991 0.41745
 Zr157 Zr 1.04868 0.04941 0.50112
 O158 O 1.04798 0.10670 0.50546
 O159 O 1.10600 0.04969 0.49743
 Zr160 Zr 0.95661 0.04883 0.50057
 O161 O 0.95589 0.10611 0.50491
 O162 O 0.89931 0.04811 0.49613
 Zr163 Zr 1.00318 0.00331 0.44693
 Zr164 Zr 1.00291 0.00310 0.55428
 O165 O 1.00253 0.05570 0.53227
 O166 O 1.00266 0.05630 0.46862
 O167 O 1.05606 0.00346 0.53327
 O168 O 0.95054 0.00294 0.46887
 O169 O 1.05576 0.00359 0.46940
 O170 O 0.94988 0.00276 0.53264
 H171 H 1.00367 -0.07081 0.54785
 H172 H 0.92934 0.00298 0.45225
 H173 H 1.00240 0.07689 0.54890
 H174 H 1.07699 0.00359 0.45297
 H175 H 0.89061 -0.02864 0.51607
 H176 H 0.88995 0.03360 0.51658
 H177 H 0.97123 0.11572 0.48520
 H178 H 1.03340 0.11611 0.48494
 H179 H 1.11553 0.03456 0.51746
 H180 H 1.11613 -0.02775 0.51832
 H181 H 1.03475 -0.10928 0.48512
 H182 H 0.97274 -0.10971 0.48318
 C183 C 1.07843 0.08563 0.32060
 C184 C 1.10570 0.11146 0.32551
 C185 C 1.11678 0.12104 0.36066
 C186 C 1.10068 0.10457 0.39080
 C187 C 1.15730 0.15984 0.20245
 C188 C 1.06240 0.06916 0.35052
 C189 C 1.12221 0.12737 0.29404
 C190 C 1.13468 0.13913 0.26628
 C191 C 1.14765 0.15109 0.23240
 C192 C 1.07340 0.07828 0.38602
 H193 H 1.06963 0.07802 0.29353
 H194 H 1.13791 0.14103 0.36474
 H195 H 1.10977 0.11220 0.41774
 H196 H 1.04144 0.04916 0.34571
 C197 C 0.92744 -0.07870 0.31917
 C198 C 0.90054 -0.10490 0.32394
 C199 C 0.88990 -0.11467 0.35901
 C200 C 0.90605 -0.09808 0.38924
 C201 C 0.84654 -0.15604 0.20224
 C202 C 0.94355 -0.06210 0.34921
 C203 C 0.88389 -0.12112 0.29250
 C204 C 0.87098 -0.13342 0.26502
 C205 C 0.85716 -0.14631 0.23166
 C206 C 0.93298 -0.07146 0.38464
 H207 H 0.93588 -0.07095 0.29214
 H208 H 0.86907 -0.13494 0.36298
 H209 H 0.89729 -0.10591 0.41611
 H210 H 0.96422 -0.04182 0.34458
 C211 C 0.88335 0.11561 0.64111
 C212 C 0.89305 0.10478 0.67624
 C213 C 0.91968 0.07814 0.68116
 C214 C 0.93672 0.06242 0.65124
 C215 C 0.84019 0.15550 0.79831
 C216 C 0.90040 0.09985 0.61099
 C217 C 0.87625 0.12081 0.70763
 C218 C 0.86352 0.13303 0.73517
 C219 C 0.85022 0.14585 0.76870
 C220 C 0.92739 0.07312 0.61576
 H221 H 0.86274 0.13624 0.63702
 H222 H 0.92738 0.06954 0.70823
 H223 H 0.95727 0.04189 0.65602
 H224 H 0.89257 0.10870 0.58407
 C225 C 1.08434 -0.07388 0.68136
 C226 C 1.10999 -0.10148 0.67645
 C227 C 1.11977 -0.11219 0.64132
 C228 C 1.10367 -0.09546 0.61117
 C229 C 1.15780 -0.15737 0.79841
 C230 C 1.06824 -0.05721 0.65141
 C231 C 1.12547 -0.11881 0.70785
 C232 C 1.13704 -0.13221 0.73537
 C233 C 1.14896 -0.14647 0.76885
 C234 C 1.07754 -0.06790 0.61591
 H235 H 1.07659 -0.06538 0.70843
 H236 H 1.13960 -0.13356 0.63724
 H237 H 1.11143 -0.10434 0.58424
 H238 H 1.04833 -0.03606 0.65616
 C239 C 0.31891 1.08055 1.07784
 C240 C 0.32385 1.10632 1.10532
 C241 C 0.35898 1.11559 1.11651
 C242 C 0.38910 1.09893 1.10033
 C243 C 0.20188 1.15819 1.15731
 C244 C 0.34883 1.06389 1.06170
 C245 C 0.29247 1.12268 1.12182
 C246 C 0.26495 1.13511 1.13439
 C247 C 0.23146 1.14820 1.14752
 C248 C 0.38432 1.07276 1.07281
 H249 H 0.29183 1.07320 1.06895
 H250 H 0.36308 1.13554 1.13778
 H251 H 0.41602 1.10637 1.10951
 H252 H 0.34404 1.04396 1.04057
 C253 C 0.35878 0.88021 0.88767
 C254 C 0.32371 0.88891 0.89943
 C255 C 0.31889 0.91390 0.92763
 C256 C 0.34885 0.93044 0.94385
 C257 C 0.20161 0.84032 0.84447
 C258 C 0.38894 0.89673 0.90394
 C259 C 0.29227 0.87312 0.88245
 C260 C 0.26471 0.86134 0.86931
 C261 C 0.23119 0.84924 0.85527
 C262 C 0.38426 0.92224 0.93210
 H263 H 0.36278 0.86090 0.86580
 H264 H 0.29187 0.92084 0.93694
 H265 H 0.34416 0.94983 0.96549
 H266 H 0.41580 0.88982 0.89425
 C267 C 0.64168 0.88393 1.11911
 C268 C 0.67659 0.89583 1.11023
 C269 C 0.68097 0.92387 1.08518
 C270 C 0.65076 0.93979 1.06876
 C271 C 0.80023 0.84393 1.15863
 C272 C 0.61124 0.89992 1.10269
 C273 C 0.70836 0.87934 1.12601
 C274 C 0.73627 0.86682 1.13774
 C275 C 0.77025 0.85374 1.14976
 C276 C 0.61549 0.92793 1.07714
 H277 H 0.63801 0.86220 1.13848
 H278 H 0.70786 0.93330 1.07813
 H279 H 0.65514 0.96133 1.04935
 H280 H 0.58450 0.89015 1.10973
 C281 C 0.63874 1.11190 0.88445
 C282 C 0.67397 1.10073 0.89350
 C283 C 0.67920 1.07316 0.91898
 C284 C 0.64946 1.05695 0.93562
 C285 C 0.79522 1.15461 0.84294
 C286 C 0.60881 1.09565 0.90108
 C287 C 0.70516 1.11752 0.87736
 C288 C 0.73251 1.13046 0.86518
 C289 C 0.76580 1.14418 0.85248
 C290 C 0.61388 1.06808 0.92702
 H291 H 0.63442 1.13326 0.86475
 H292 H 0.70636 1.06429 0.92617
 H293 H 0.65446 1.03578 0.95536
 H294 H 0.58181 1.10485 0.89385
 C295 C 0.11553 0.35942 0.11200
 C296 C 0.10652 0.32425 0.10077
 C297 C 0.08123 0.31917 0.07284
 C298 C 0.06472 0.34900 0.05636
 C299 C 0.15701 0.20313 0.15608
 C300 C 0.09902 0.38944 0.09548
 C301 C 0.12249 0.29301 0.11790
 C302 C 0.13461 0.26568 0.13117
 C303 C 0.14733 0.23246 0.14530
 C304 C 0.07324 0.38453 0.06759
 H305 H 0.13508 0.36362 0.13363
 H306 H 0.07409 0.29206 0.06393
 H307 H 0.04511 0.34414 0.03493
 H308 H 0.10619 0.41639 0.10477
 C309 C -0.08477 0.31869 -0.07805
 C310 C -0.11111 0.32340 -0.10504
 C311 C -0.12092 0.35845 -0.11601
 C312 C -0.10422 0.38870 -0.10007
 C313 C -0.16096 0.20048 -0.15673
 C314 C -0.06808 0.34872 -0.06217
 C315 C -0.12735 0.29185 -0.12137
 C316 C -0.13945 0.26411 -0.13381
 C317 C -0.15185 0.23032 -0.14687
 C318 C -0.07747 0.38413 -0.07305
 H319 H -0.07698 0.29169 -0.06935
 H320 H -0.14129 0.36238 -0.13691
 H321 H -0.11207 0.41555 -0.10906
 H322 H -0.04770 0.34408 -0.04143
 C323 C 0.11271 0.63904 -0.11989
 C324 C 0.10150 0.67422 -0.11069
 C325 C 0.07372 0.67927 -0.08544
 C326 C 0.05735 0.64945 -0.06914
 C327 C 0.15592 0.79640 -0.15821
 C328 C 0.09628 0.60900 -0.10359
 C329 C 0.11853 0.70555 -0.12630
 C330 C 0.13159 0.73311 -0.13786
 C331 C 0.14541 0.76671 -0.14962
 C332 C 0.06853 0.61392 -0.07784
 H333 H 0.13425 0.63485 -0.13941
 H334 H 0.06482 0.70638 -0.07813
 H335 H 0.03601 0.65434 -0.04956
 H336 H 0.10553 0.58204 -0.11088
 C337 C -0.11468 0.64141 0.11522
 C338 C -0.10413 0.67641 0.10513
 C339 C -0.07772 0.68102 0.07841
 C340 C -0.06195 0.65090 0.06168
 C341 C -0.15474 0.79900 0.15734
 C342 C -0.09887 0.61109 0.09848
 C343 C -0.12016 0.70799 0.12168
 C344 C -0.13236 0.73566 0.13423
 C345 C -0.14514 0.76931 0.14739
 C346 C -0.07236 0.61553 0.07143
 H347 H -0.13513 0.63756 0.13590
 H348 H -0.06934 0.70799 0.07042
 H349 H -0.04161 0.65544 0.04105
 H350 H -0.10749 0.58427 0.10662
 C351 C 1.08522 0.07751 0.68242
 C352 C 1.11053 0.10534 0.67811
 C353 C 1.11967 0.11704 0.64319
 C354 C 1.10331 0.10104 0.61269
 C355 C 1.15922 0.15705 0.80194
 C356 C 1.06887 0.06158 0.65214
 C357 C 1.12635 0.12177 0.70995
 C358 C 1.13815 0.13425 0.73788
 C359 C 1.15029 0.14730 0.77190
 C360 C 1.07756 0.07321 0.61686
 H361 H 1.07794 0.06822 0.70930
 H362 H 1.13923 0.13859 0.63954
 H363 H 1.11061 0.11065 0.58596
 H364 H 1.04928 0.04019 0.65649
 C365 C 0.92134 -0.07437 0.68038
 C366 C 0.89512 -0.10123 0.67504
 C367 C 0.88550 -0.11165 0.63972
 C368 C 0.90220 -0.09532 0.60985
 C369 C 0.84253 -0.15532 0.79554
 C370 C 0.93804 -0.05807 0.65070
 C371 C 0.87862 -0.11794 0.70613
 C372 C 0.86600 -0.13088 0.73331
 C373 C 0.85266 -0.14472 0.76635
 C374 C 0.92877 -0.06839 0.61502
 H375 H 0.92899 -0.06607 0.70759
 H376 H 0.86522 -0.13243 0.63527
 H377 H 0.89442 -0.10389 0.58279
 H378 H 0.95829 -0.03741 0.65579
 C379 C 1.11668 -0.11526 0.35980
 C380 C 1.10540 -0.10602 0.32467
 C381 C 1.07812 -0.08001 0.31981
 C382 C 1.06226 -0.06313 0.34978
 C383 C 1.15682 -0.15873 0.20261
 C384 C 1.10077 -0.09838 0.38996
 C385 C 1.12163 -0.12265 0.29322
 C386 C 1.13402 -0.13530 0.26569
 C387 C 1.14705 -0.14863 0.23219
 C388 C 1.07343 -0.07199 0.38527
 H389 H 1.13779 -0.13538 0.36386
 H390 H 1.06915 -0.07265 0.29276
 H391 H 1.04127 -0.04304 0.34504
 H392 H 1.11001 -0.10583 0.41687
 C393 C 0.88779 0.12005 0.35973
 C394 C 0.89941 0.11123 0.32463
 C395 C 0.92774 0.08636 0.31985
 C396 C 0.94419 0.07006 0.34984
 C397 C 0.84365 0.15948 0.20254
 C398 C 0.90429 0.10376 0.38992
 C399 C 0.88220 0.12682 0.29315
 C400 C 0.86886 0.13850 0.26560
 C401 C 0.85459 0.15056 0.23211
 C402 C 0.93257 0.07837 0.38528
 H403 H 0.86584 0.13926 0.36374
 H404 H 0.93697 0.07933 0.29283
 H405 H 0.96591 0.05075 0.34516
 H406 H 0.89467 0.11076 0.41679
 C407 C 0.07889 0.31781 -0.07857
 C408 C 0.10563 0.32236 -0.10498
 C409 C 0.11567 0.35738 -0.11557
 C410 C 0.09889 0.38773 -0.09981
 C411 C 0.15809 0.19959 -0.15542
 C412 C 0.06212 0.34796 -0.06285
 C413 C 0.12227 0.29073 -0.12094
 C414 C 0.13490 0.26304 -0.13310
 C415 C 0.14814 0.22935 -0.14586
 C416 C 0.07183 0.38334 -0.07329
 H417 H 0.07091 0.29085 -0.07013
 H418 H 0.13636 0.36122 -0.13600
 H419 H 0.10702 0.41455 -0.10847
 H420 H 0.04149 0.34344 -0.04251
 C421 C -0.11910 0.35998 0.11240
 C422 C -0.11035 0.32478 0.10091
 C423 C -0.08552 0.31970 0.07272
 C424 C -0.06920 0.34951 0.05628
 C425 C -0.15869 0.20320 0.15645
 C426 C -0.10279 0.38999 0.09590
 C427 C -0.12598 0.29348 0.11808
 C428 C -0.13767 0.26606 0.13138
 C429 C -0.14975 0.23268 0.14557
 C430 C -0.07744 0.38505 0.06778
 H431 H -0.13828 0.36422 0.13423
 H432 H -0.07854 0.29259 0.06359
 H433 H -0.04994 0.34459 0.03467
 H434 H -0.10973 0.41695 0.10541
 C435 C -0.07850 0.68032 -0.08480
 C436 C -0.10578 0.67563 -0.11085
 C437 C -0.11678 0.64057 -0.12055
 C438 C -0.10061 0.61030 -0.10407
 C439 C -0.15789 0.79858 -0.16070
 C440 C -0.06237 0.65028 -0.06832
 C441 C -0.12230 0.70722 -0.12695
 C442 C -0.13486 0.73496 -0.13900
 C443 C -0.14802 0.76874 -0.15146
 C444 C -0.07328 0.61485 -0.07762
 H445 H -0.06974 0.70732 -0.07707
 H446 H -0.13791 0.63662 -0.14070
 H447 H -0.10964 0.58344 -0.11185
 H448 H -0.04140 0.65492 -0.04817
 C449 C 0.07364 0.68019 0.07993
 C450 C 0.10121 0.67519 0.10563
 C451 C 0.11232 0.64003 0.11484
 C452 C 0.09601 0.60996 0.09819
 C453 C 0.15571 0.79631 0.15748
 C454 C 0.05736 0.65030 0.06327
 C455 C 0.11803 0.70650 0.12193
 C456 C 0.13108 0.73382 0.13437
 C457 C 0.14503 0.76701 0.14750
 C458 C 0.06842 0.61478 0.07206
 H459 H 0.06480 0.70727 0.07260
 H460 H 0.13366 0.63586 0.13472
 H461 H 0.10517 0.58302 0.10559
 H462 H 0.03618 0.65511 0.04338
 C463 C 0.35772 1.11546 0.88876
 C464 C 0.32264 1.10573 0.89941
 C465 C 0.31792 1.07953 0.92635
 C466 C 0.34798 1.06293 0.94247
 C467 C 0.20066 1.15702 0.84568
 C468 C 0.38797 1.09887 0.90492
 C469 C 0.29113 1.12200 0.88279
 C470 C 0.26362 1.13435 0.86993
 C471 C 0.23019 1.14730 0.85618
 C472 C 0.38343 1.07228 0.93189
 H473 H 0.36168 1.13572 0.86791
 H474 H 0.29090 1.07179 0.93483
 H475 H 0.34337 1.04268 0.96317
 H476 H 0.41484 1.10670 0.89614
 C477 C 0.31930 0.91590 1.07831
 C478 C 0.32424 0.88980 1.10535
 C479 C 0.35942 0.88001 1.11614
 C480 C 0.38955 0.89648 1.09998
 C481 C 0.20177 0.84011 1.15765
 C482 C 0.34920 0.93236 1.06222
 C483 C 0.29280 0.87373 1.12188
 C484 C 0.26518 0.86172 1.13448
 C485 C 0.23152 0.84931 1.14771
 C486 C 0.38475 0.92299 1.07291
 H487 H 0.29221 0.92368 1.06973
 H488 H 0.36356 0.85983 1.13707
 H489 H 0.41650 0.88865 1.10884
 H490 H 0.34437 0.95255 1.04145
 C491 C 0.64039 1.11264 1.11943
 C492 C 0.67553 1.10191 1.10967
 C493 C 0.68038 1.07450 1.08380
 C494 C 0.65040 1.05803 1.06750
 C495 C 0.79750 1.15722 1.15856
 C496 C 0.61021 1.09612 1.10314
 C497 C 0.70697 1.11900 1.12543
 C498 C 0.73449 1.13224 1.13726
 C499 C 0.76795 1.14638 1.14949
 C500 C 0.61490 1.06872 1.07682
 H501 H 0.63632 1.13386 1.13943
 H502 H 0.70744 1.06596 1.07603
 H503 H 0.65513 1.03702 1.04745
 H504 H 0.58329 1.10500 1.11093
 C505 C 0.68008 0.92336 0.91814
 C506 C 0.67523 0.89610 0.89212
 C507 C 0.64011 0.88488 0.88283
 C508 C 0.60996 0.90080 0.89972
 C509 C 0.79725 0.84393 0.84009
 C510 C 0.65013 0.93923 0.93504
 C511 C 0.70667 0.87975 0.87560
 C512 C 0.73419 0.86720 0.86308
 C513 C 0.76768 0.85394 0.84997
 C514 C 0.61466 0.92808 0.92617
 H515 H 0.70713 0.93228 0.92554
 H516 H 0.63604 0.86378 0.86271
 H517 H 0.58306 0.89158 0.89227
 H518 H 0.65487 0.96018 0.95516
   
