data_POSCAR
  _audit_creation_date              2014-09-24
  _audit_creation_method            'ToBaCCo'
  _symmetry_space_group_name_H-M    'P1'
  _symmetry_Int_Tables_number       1
  _symmetry_cell_setting            triclinic
  loop_
  _symmetry_equiv_pos_as_xyz
 x,y,z
_cell_length_a 33.5360
_cell_length_b 33.5972
_cell_length_c 33.4795
_cell_angle_alpha 89.934800
_cell_angle_beta 89.984600
_cell_angle_gamma 90.022500
loop_
  _atom_site_label
  _atom_site_type_symbol
  _atom_site_fract_x
  _atom_site_fract_y
  _atom_site_fract_z
N1 N 0.54235 0.08014 0.01883
 N2 N 0.57132 0.10298 0.03248
 N3 N 0.45850 0.07983 -0.02021
 N4 N 0.42947 0.10239 -0.03425
 N5 N 0.45848 0.08005 0.01902
 N6 N 0.42947 0.10277 0.03276
 N7 N 0.54238 0.07976 -0.02039
 N8 N 0.57134 0.10237 -0.03453
 C9 C 0.58921 0.11646 -0.00117
 C10 C 0.41157 0.11633 -0.00083
 N11 N 0.45822 -0.02043 -0.07996
 N12 N 0.42908 -0.03442 -0.10245
 N13 N 0.54222 0.01850 -0.08073
 N14 N 0.57084 0.03199 -0.10428
 N15 N 0.54209 -0.02055 -0.08002
 N16 N 0.57237 -0.03511 -0.10443
 N17 N 0.45834 0.01865 -0.08041
 N18 N 0.42930 0.03236 -0.10319
 Mn19 Mn 0.50038 0.04951 -0.05076
 C20 C 0.41125 -0.00110 -0.11656
 C21 C 0.58911 -0.00116 -0.11848
 N22 N 0.45860 0.01991 0.08054
 N23 N 0.42953 0.03386 0.10315
 N24 N 0.54259 -0.01897 0.08085
 N25 N 0.57118 -0.03249 0.10439
 N26 N 0.54250 0.02008 0.08016
 N27 N 0.57279 0.03461 0.10459
 N28 N 0.45873 -0.01917 0.08097
 N29 N 0.42976 -0.03292 0.10382
 Mn30 Mn 0.50046 0.05036 0.04996
 C31 C 0.41174 0.00051 0.11729
 C32 C 0.58948 0.00063 0.11862
 N33 N 0.54223 -0.08057 -0.01872
 N34 N 0.57123 -0.10323 -0.03257
 N35 N 0.45857 -0.08035 0.02076
 N36 N 0.42965 -0.10300 0.03493
 N37 N 0.45838 -0.08054 -0.01846
 N38 N 0.42936 -0.10331 -0.03208
 N39 N 0.54247 -0.08021 0.02049
 N40 N 0.57162 -0.10267 0.03444
 Mn41 Mn 0.50020 -0.05083 -0.04961
 Mn42 Mn 0.50061 -0.04999 0.05109
 Cl43 Cl 0.50040 -0.00024 0.00018
 C44 C 0.58935 -0.11665 0.00095
 C45 C 0.41162 -0.11694 0.00157
 N46 N 0.08037 0.45731 0.01910
 N47 N 0.10293 0.42819 0.03291
 N48 N 0.08110 0.54128 -0.01958
 N49 N 0.10390 0.57032 -0.03321
 N50 N 0.08091 0.54103 0.01964
 N51 N 0.10358 0.56987 0.03380
 N52 N 0.08051 0.45756 -0.02012
 N53 N 0.10317 0.42863 -0.03410
 C54 C 0.11676 0.41050 -0.00065
 C55 C 0.11755 0.58793 0.00046
 N56 N -0.01846 0.54247 -0.08102
 N57 N -0.03196 0.57116 -0.10440
 N58 N 0.02000 0.45843 -0.08125
 N59 N 0.03374 0.42938 -0.10392
 N60 N -0.01915 0.45876 -0.08145
 N61 N -0.03315 0.42993 -0.10425
 N62 N 0.02066 0.54217 -0.08056
 N63 N 0.03526 0.57243 -0.10501
 Mn64 Mn 0.05088 0.49985 -0.05071
 C65 C 0.00124 0.58933 -0.11878
 C66 C 0.00021 0.41182 -0.11789
 N67 N 0.01985 0.54098 0.08023
 N68 N 0.03375 0.56979 0.10313
 N69 N -0.01982 0.45747 0.07950
 N70 N -0.03395 0.42844 0.10205
 N71 N 0.01934 0.45727 0.07967
 N72 N 0.03295 0.42810 0.10232
 N73 N -0.01930 0.54118 0.08003
 N74 N -0.03314 0.57012 0.10277
 Mn75 Mn 0.05043 0.49915 0.04998
 C76 C 0.00031 0.58775 0.11681
 C77 C -0.00065 0.41032 0.11589
 N78 N -0.08019 0.45870 -0.02088
 N79 N -0.10293 0.42989 -0.03503
 N80 N -0.07973 0.54206 0.01891
 N81 N -0.10234 0.57101 0.03294
 N82 N -0.07953 0.54243 -0.02031
 N83 N -0.10202 0.57163 -0.03407
 N84 N -0.08028 0.45836 0.01835
 N85 N -0.10308 0.42933 0.03198
 Mn86 Mn -0.04966 0.50061 -0.05123
 Mn87 Mn -0.05010 0.49976 0.04951
 Cl88 Cl 0.00039 0.49983 -0.00061
 C89 C -0.11683 0.41179 -0.00167
 C90 C -0.11585 0.58925 -0.00048
 N91 N 0.01821 0.07910 0.45798
 N92 N 0.03212 0.10174 0.42888
 N93 N -0.02104 0.07931 0.54193
 N94 N -0.03491 0.10213 0.57084
 N95 N 0.01812 0.07926 0.54199
 N96 N 0.03198 0.10204 0.57092
 N97 N -0.02094 0.07906 0.45792
 N98 N -0.03478 0.10168 0.42879
 C99 C -0.00132 0.11543 0.41087
 C100 C -0.00146 0.11592 0.58873
 N101 N -0.08182 -0.02043 0.54227
 N102 N -0.10463 -0.03414 0.57135
 N103 N -0.08172 0.01839 0.45807
 N104 N -0.10448 0.03213 0.42900
 N105 N -0.08175 -0.02070 0.45826
 N106 N -0.10453 -0.03464 0.42932
 N107 N -0.08180 0.01866 0.54207
 N108 N -0.10458 0.03264 0.57099
 Mn109 Mn -0.05169 0.04917 0.49999
 C110 C -0.11843 -0.00066 0.58906
 C111 C -0.11832 -0.00132 0.41127
 N112 N 0.07887 0.01863 0.54226
 N113 N 0.10162 0.03250 0.57126
 N114 N 0.07897 -0.02059 0.45834
 N115 N 0.10181 -0.03442 0.42939
 N116 N 0.07895 0.01850 0.45826
 N117 N 0.10174 0.03235 0.42926
 N118 N 0.07885 -0.02046 0.54236
 N119 N 0.10157 -0.03427 0.57142
 Mn120 Mn 0.04885 0.04918 0.50013
 C121 C 0.11539 -0.00087 0.58925
 C122 C 0.11562 -0.00102 0.41144
 N123 N -0.02098 -0.08132 0.45850
 N124 N -0.03479 -0.10407 0.42950
 N125 N 0.01809 -0.08111 0.54253
 N126 N 0.03193 -0.10390 0.57152
 N127 N -0.02107 -0.08112 0.54252
 N128 N -0.03496 -0.10392 0.57150
 N129 N 0.01818 -0.08126 0.45852
 N130 N 0.03211 -0.10395 0.42955
 Mn131 Mn -0.05172 -0.05121 0.50040
 Mn132 Mn 0.04884 -0.05117 0.50044
 Cl133 Cl -0.00143 -0.00101 0.50024
 C134 C -0.00129 -0.11780 0.41165
 C135 C -0.00152 -0.11774 0.58940
 C136 C -0.31691 0.19822 -0.00178
 N137 N -0.33214 0.18456 0.03323
 N138 N -0.36180 0.15817 0.03341
 C139 C -0.37730 0.14450 -0.00141
 N140 N -0.36197 0.15798 -0.03643
 N141 N -0.33231 0.18438 -0.03661
 C142 C -0.28512 0.22831 -0.00192
 N143 N -0.27068 0.24294 -0.03687
 N144 N -0.24270 0.27111 -0.03694
 C145 C -0.22813 0.28567 -0.00205
 N146 N -0.24244 0.27090 0.03289
 N147 N -0.27042 0.24275 0.03296
 C148 C -0.19823 0.31763 -0.00204
 N149 N -0.18447 0.33278 0.03291
 N150 N -0.15822 0.36255 0.03300
 C151 C -0.14479 0.37825 -0.00187
 N152 N -0.15838 0.36301 -0.03684
 N153 N -0.18464 0.33322 -0.03693
 C154 C 0.31765 0.80142 0.00183
 N155 N 0.33310 0.81501 0.03674
 N156 N 0.36281 0.84137 0.03670
 C157 C 0.37810 0.85506 0.00175
 N158 N 0.36254 0.84165 -0.03314
 N159 N 0.33284 0.81530 -0.03310
 C160 C 0.28583 0.77138 0.00177
 N161 N 0.27118 0.75713 -0.03321
 N162 N 0.24318 0.72900 -0.03335
 C163 C 0.22880 0.71406 0.00149
 N164 N 0.24330 0.72844 0.03648
 N165 N 0.27131 0.75659 0.03662
 C166 C 0.19890 0.68212 0.00127
 N167 N 0.18518 0.66645 0.03607
 N168 N 0.15893 0.63667 0.03582
 C169 C 0.14549 0.62149 0.00076
 N170 N 0.15904 0.63724 -0.03402
 N171 N 0.18528 0.66703 -0.03377
 C172 C 0.31733 0.19759 -0.00104
 N173 N 0.33266 0.18391 0.03391
 N174 N 0.36245 0.15769 0.03395
 C175 C 0.37797 0.14421 -0.00094
 N176 N 0.36254 0.15771 -0.03589
 N177 N 0.33274 0.18394 -0.03594
 C178 C 0.28539 0.22750 -0.00104
 N179 N 0.27083 0.24209 -0.03594
 N180 N 0.24272 0.27012 -0.03591
 C181 C 0.22816 0.28457 -0.00097
 N182 N 0.24258 0.26984 0.03392
 N183 N 0.27069 0.24182 0.03389
 C184 C 0.19816 0.31642 -0.00091
 N185 N 0.18437 0.33156 0.03405
 N186 N 0.15809 0.36129 0.03413
 C187 C 0.14466 0.37694 -0.00075
 N188 N 0.15827 0.36169 -0.03571
 N189 N 0.18456 0.33196 -0.03579
 C190 C -0.31625 0.80227 0.00075
 N191 N -0.33152 0.81591 0.03572
 N192 N -0.36135 0.84210 0.03580
 C193 C -0.37698 0.85555 0.00092
 N194 N -0.36162 0.84207 -0.03404
 N195 N -0.33178 0.81590 -0.03413
 C196 C -0.28429 0.77239 0.00061
 N197 N -0.26971 0.75811 -0.03439
 N198 N -0.24160 0.73010 -0.03455
 C199 C -0.22705 0.71533 0.00028
 N200 N -0.24149 0.72976 0.03528
 N201 N -0.26960 0.75778 0.03544
 C202 C -0.19709 0.68347 0.00009
 N203 N -0.18345 0.66783 0.03491
 N204 N -0.15721 0.63806 0.03473
 C205 C -0.14368 0.62287 -0.00029
 N206 N -0.15714 0.63861 -0.03511
 N207 N -0.18338 0.66837 -0.03493
 C208 C -0.00001 -0.31833 0.19846
 N209 N 0.03492 -0.33373 0.18499
 N210 N 0.03505 -0.36344 0.15865
 C211 C 0.00025 -0.37878 0.14484
 N212 N -0.03467 -0.36328 0.15814
 N213 N -0.03480 -0.33359 0.18448
 C214 C -0.00019 -0.28647 0.22846
 N215 N -0.03515 -0.27188 0.24273
 N216 N -0.03534 -0.24382 0.27082
 C217 C -0.00059 -0.22932 0.28565
 N218 N 0.03437 -0.24377 0.27125
 N219 N 0.03457 -0.27184 0.24317
 C220 C -0.00080 -0.19933 0.31754
 N221 N 0.03397 -0.18554 0.33303
 N222 N 0.03380 -0.15923 0.36277
 C223 C -0.00115 -0.14578 0.37809
 N224 N -0.03593 -0.15940 0.36252
 N225 N -0.03575 -0.18571 0.33277
 C226 C -0.00038 0.31750 0.80091
 N227 N -0.03514 0.33320 0.81446
 N228 N -0.03494 0.36303 0.84065
 C229 C 0.00002 0.37823 0.85421
 N230 N 0.03478 0.36245 0.84083
 N231 N 0.03458 0.33262 0.81464
 C232 C -0.00059 0.28548 0.77108
 N233 N 0.03416 0.27052 0.75673
 N234 N 0.03398 0.24230 0.72880
 C235 C -0.00097 0.22801 0.71421
 N236 N -0.03573 0.24284 0.72869
 N237 N -0.03555 0.27106 0.75662
 C238 C -0.00114 0.19786 0.68248
 N239 N -0.03607 0.18428 0.66714
 N240 N -0.03619 0.15783 0.63752
 C241 C -0.00139 0.14402 0.62218
 N242 N 0.03353 0.15743 0.63761
 N243 N 0.03365 0.18388 0.66723
 C244 C -0.00111 0.31595 0.19723
 N245 N 0.03381 0.33121 0.18354
 N246 N 0.03393 0.36103 0.15727
 C247 C -0.00086 0.37666 0.14377
 N248 N -0.03579 0.36130 0.15729
 N249 N -0.03592 0.33148 0.18356
 C250 C -0.00120 0.28401 0.22722
 N251 N -0.03608 0.26944 0.24176
 N252 N -0.03611 0.24134 0.26987
 C253 C -0.00127 0.22678 0.28447
 N254 N 0.03360 0.24120 0.26978
 N255 N 0.03364 0.26930 0.24167
 C256 C -0.00129 0.19680 0.31643
 N257 N 0.03357 0.18311 0.33182
 N258 N 0.03357 0.15684 0.36167
 C259 C -0.00130 0.14333 0.37719
 N260 N -0.03616 0.15684 0.36169
 N261 N -0.03615 0.18311 0.33185
 C262 C -0.00040 -0.31949 0.80197
 N263 N -0.03501 -0.33536 0.81578
 N264 N -0.03452 -0.36516 0.84210
 C265 C 0.00060 -0.38022 0.85554
 N266 N 0.03519 -0.36413 0.84187
 N267 N 0.03469 -0.33435 0.81558
 C268 C -0.00079 -0.28748 0.77203
 N269 N 0.03393 -0.27239 0.75767
 N270 N 0.03370 -0.24417 0.72969
 C271 C -0.00126 -0.23000 0.71503
 N272 N -0.03600 -0.24496 0.72951
 N273 N -0.03578 -0.27319 0.75751
 C274 C -0.00141 -0.19982 0.68324
 N275 N -0.03630 -0.18622 0.66784
 N276 N -0.03635 -0.15972 0.63819
 C277 C -0.00152 -0.14588 0.62289
 N278 N 0.03336 -0.15931 0.63839
 N279 N 0.03342 -0.18579 0.66804
 C280 C 0.31674 -0.00120 0.80219
 N281 N 0.33228 0.03359 0.81568
 N282 N 0.36216 0.03360 0.84190
 C283 C 0.37756 -0.00119 0.85557
 N284 N 0.36192 -0.03599 0.84226
 N285 N 0.33204 -0.03600 0.81603
 C286 C 0.28471 -0.00117 0.77228
 N287 N 0.26989 -0.03594 0.75792
 N288 N 0.24169 -0.03588 0.72989
 C289 C 0.22727 -0.00106 0.71521
 N290 N 0.24194 0.03371 0.72972
 N291 N 0.27015 0.03365 0.75774
 C292 C 0.19716 -0.00099 0.68336
 N293 N 0.18352 0.03383 0.66794
 N294 N 0.15712 0.03388 0.63820
 C295 C 0.14343 -0.00089 0.62282
 N296 N 0.15690 -0.03571 0.63834
 N297 N 0.18330 -0.03576 0.66808
 C298 C -0.31950 -0.00093 0.19812
 N299 N -0.33549 -0.03549 0.18452
 N300 N -0.36523 -0.03505 0.15812
 C301 C -0.38012 -0.00000 0.14438
 N302 N -0.36392 0.03453 0.15784
 N303 N -0.33420 0.03408 0.18422
 C304 C -0.28758 -0.00124 0.22815
 N305 N -0.27244 0.03346 0.24231
 N306 N -0.24430 0.03333 0.27039
 C307 C -0.23026 -0.00151 0.28534
 N308 N -0.24526 -0.03624 0.27106
 N309 N -0.27341 -0.03611 0.24297
 C310 C -0.20017 -0.00154 0.31722
 N311 N -0.18665 -0.03631 0.33287
 N312 N -0.16023 -0.03625 0.36259
 C313 C -0.14640 -0.00142 0.37772
 N314 N -0.15974 0.03334 0.36198
 N315 N -0.18615 0.03328 0.33225
 C316 C 0.31730 0.00026 0.19869
 N317 N 0.33288 -0.03448 0.18510
 N318 N 0.36274 -0.03436 0.15884
 C319 C 0.37809 0.00049 0.14523
 N320 N 0.36242 0.03524 0.15864
 N321 N 0.33255 0.03512 0.18491
 C322 C 0.28526 0.00007 0.22861
 N323 N 0.27036 0.03476 0.24305
 N324 N 0.24213 0.03456 0.27106
 C325 C 0.22777 -0.00034 0.28565
 N326 N 0.24253 -0.03503 0.27107
 N327 N 0.27076 -0.03482 0.24306
 C328 C 0.19760 -0.00056 0.31747
 N329 N 0.18400 -0.03545 0.33282
 N330 N 0.15753 -0.03562 0.36251
 C331 C 0.14374 -0.00091 0.37792
 N332 N 0.15717 0.03397 0.36247
 N333 N 0.18363 0.03415 0.33278
 C334 C -0.31977 0.00005 0.80210
 N335 N -0.33459 -0.03488 0.81608
 N336 N -0.36434 -0.03521 0.84242
 C337 C -0.38046 -0.00061 0.85578
 N338 N -0.36546 0.03437 0.84198
 N339 N -0.33567 0.03469 0.81560
 C340 C -0.28781 0.00020 0.77211
 N341 N -0.27349 0.03498 0.75720
 N342 N -0.24530 0.03494 0.72913
 C343 C -0.23042 0.00012 0.71496
 N344 N -0.24462 -0.03464 0.73001
 N345 N -0.27279 -0.03460 0.75806
 C346 C -0.20031 -0.00003 0.68310
 N347 N -0.18643 -0.03493 0.66814
 N348 N -0.16000 -0.03513 0.63841
 C349 C -0.14652 -0.00044 0.62260
 N350 N -0.16022 0.03446 0.63766
 N351 N -0.18665 0.03466 0.66738
   
