data_POSCAR
  _audit_creation_date              2014-09-24
  _audit_creation_method            'ToBaCCo'
  _symmetry_space_group_name_H-M    'P1'
  _symmetry_Int_Tables_number       1
  _symmetry_cell_setting            triclinic
  loop_
  _symmetry_equiv_pos_as_xyz
 x,y,z
_cell_length_a 22.8827
_cell_length_b 24.3239
_cell_length_c 23.3310
_cell_angle_alpha 86.551400
_cell_angle_beta 94.669300
_cell_angle_gamma 93.797900
loop_
  _atom_site_label
  _atom_site_type_symbol
  _atom_site_fract_x
  _atom_site_fract_y
  _atom_site_fract_z
C1 C 0.20609 0.29413 0.29326
 C2 C 0.24526 0.32887 0.25288
 C3 C 0.27742 0.29807 0.22168
 C4 C 0.26772 0.23540 0.23351
 C5 C 0.16853 0.25472 0.25437
 C6 C 0.20091 0.22406 0.22318
 C7 C 0.24780 0.25738 0.33043
 C8 C 0.27995 0.22670 0.29908
 H9 H 0.24703 0.37369 0.24893
 H10 H 0.29404 0.21041 0.20804
 H11 H 0.12082 0.25106 0.25204
 H12 H 0.25088 0.25507 0.37724
 C13 C 0.70684 0.79421 0.29371
 C14 C 0.74621 0.82873 0.25337
 C15 C 0.77822 0.79774 0.22222
 C16 C 0.76820 0.73511 0.23408
 C17 C 0.66911 0.75492 0.25480
 C18 C 0.70135 0.72407 0.22368
 C19 C 0.74830 0.75727 0.33097
 C20 C 0.78030 0.72638 0.29968
 H21 H 0.74808 0.87354 0.24927
 H22 H 0.79441 0.70997 0.20867
 H23 H 0.62139 0.75148 0.25244
 H24 H 0.75116 0.75485 0.37777
 C25 C 0.70808 0.29649 0.79204
 C26 C 0.74546 0.32959 0.75419
 C27 C 0.77927 0.29739 0.72152
 C28 C 0.76979 0.23800 0.73240
 C29 C 0.67037 0.25710 0.75302
 C30 C 0.70288 0.22643 0.72182
 C31 C 0.74924 0.25920 0.82948
 C32 C 0.78151 0.22852 0.79810
 H33 H 0.74716 0.37443 0.75025
 H34 H 0.79617 0.21297 0.70698
 H35 H 0.62267 0.25325 0.75086
 H36 H 0.75173 0.25643 0.87627
 C37 C 0.20618 0.79442 0.79260
 C38 C 0.24544 0.82904 0.75224
 C39 C 0.27758 0.79816 0.72111
 C40 C 0.26774 0.73551 0.73297
 C41 C 0.16857 0.75502 0.75373
 C42 C 0.20091 0.72425 0.72262
 C43 C 0.24779 0.75762 0.82985
 C44 C 0.27990 0.72684 0.79856
 H45 H 0.24741 0.87387 0.74836
 H46 H 0.29403 0.71045 0.70754
 H47 H 0.12087 0.75130 0.75154
 H48 H 0.25078 0.75531 0.87665
 C49 C 0.08864 0.07971 0.02185
 H50 H 0.08991 0.08426 -0.02445
 C51 C 0.12236 0.11642 0.05685
 H52 H 0.14993 0.14923 0.03756
 C53 C 0.04919 0.03306 0.10362
 H54 H 0.01941 0.00169 0.12172
 C55 C 0.08216 0.06883 0.14011
 H56 H 0.07810 0.06437 0.18613
 N57 N 0.05303 0.03898 0.04562
 C58 C 0.01892 -0.08287 -0.08537
 H59 H -0.02861 -0.08583 -0.08896
 C60 C 0.04975 -0.11552 -0.11823
 H61 H 0.02599 -0.14361 -0.14745
 C62 C 0.10816 -0.04328 -0.04232
 H63 H 0.13077 -0.01573 -0.01208
 C64 C 0.14066 -0.07519 -0.07434
 H65 H 0.18821 -0.07173 -0.06908
 Zn66 Zn 0.00366 -0.00525 -0.00485
 N67 N 0.04839 -0.04723 -0.04880
 C68 C -0.04410 0.04471 -0.11142
 N69 N -0.04208 0.04373 -0.05286
 C70 C -0.07194 0.07953 -0.02547
 C71 C -0.10683 0.11729 -0.05704
 C72 C -0.07861 0.08195 -0.14473
 C73 C -0.02070 -0.09349 0.07493
 C74 C -0.05524 -0.12803 0.11051
 C75 C -0.14126 -0.08486 0.06667
 C76 C -0.10517 -0.05108 0.03207
 N77 N -0.04588 -0.05488 0.03788
 H78 H -0.01906 0.01678 -0.13239
 H79 H -0.06886 0.07837 0.02111
 H80 H -0.13090 0.14524 -0.03477
 H81 H -0.08051 0.08230 -0.19130
 H82 H 0.02648 -0.09615 0.07811
 H83 H -0.03470 -0.15730 0.14136
 H84 H -0.18823 -0.08037 0.06302
 H85 H -0.12461 -0.02124 0.00141
 C86 C 0.11116 -0.11151 -0.11271
 C87 C 0.11877 0.11106 0.11650
 C88 C -0.11598 -0.12301 0.10688
 C89 C -0.11043 0.11836 -0.11717
 C90 C 0.08791 0.57845 0.52281
 H91 H 0.08887 0.58279 0.47647
 C92 C 0.12171 0.61542 0.55743
 H93 H 0.14904 0.64821 0.53781
 C94 C 0.04913 0.53204 0.60504
 H95 H 0.01959 0.50065 0.62346
 C96 C 0.08221 0.56809 0.64117
 H97 H 0.07846 0.56384 0.68725
 N98 N 0.05259 0.53771 0.54698
 C99 C 0.01848 0.41560 0.41622
 H100 H -0.02904 0.41248 0.41271
 C101 C 0.04939 0.38321 0.38315
 H102 H 0.02569 0.35514 0.35387
 C103 C 0.10765 0.45541 0.45920
 H104 H 0.13022 0.48295 0.48946
 C105 C 0.14022 0.42376 0.42697
 H106 H 0.18778 0.42742 0.43211
 Zn107 Zn 0.00313 0.49322 0.49683
 N108 N 0.04788 0.45125 0.45284
 C109 C -0.04490 0.54298 0.39025
 N110 N -0.04278 0.54206 0.44881
 C111 C -0.07264 0.57785 0.47622
 C112 C -0.10763 0.61554 0.44467
 C113 C -0.07952 0.58015 0.35696
 C114 C -0.02120 0.40527 0.57717
 C115 C -0.05583 0.37078 0.61274
 C116 C -0.14182 0.41356 0.56829
 C117 C -0.10566 0.44728 0.53372
 N118 N -0.04634 0.44365 0.53980
 H119 H -0.01987 0.51506 0.36926
 H120 H -0.06947 0.57674 0.52280
 H121 H -0.13169 0.64348 0.46696
 H122 H -0.08151 0.58045 0.31039
 H123 H 0.02599 0.40271 0.58057
 H124 H -0.03534 0.34168 0.64381
 H125 H -0.18882 0.41790 0.56436
 H126 H -0.12507 0.47692 0.50280
 C127 C 0.11081 0.38749 0.38851
 C128 C 0.11852 0.61032 0.61713
 C129 C -0.11661 0.37562 0.60877
 C130 C -0.11133 0.61655 0.38455
 C131 C 0.59016 0.08051 0.52198
 H132 H 0.59117 0.08481 0.47564
 C133 C 0.62404 0.11743 0.55660
 H134 H 0.65146 0.15015 0.53698
 C135 C 0.55117 0.03428 0.60421
 H136 H 0.52153 0.00298 0.62261
 C137 C 0.58432 0.07028 0.64033
 H138 H 0.58051 0.06609 0.68640
 N139 N 0.55470 0.03989 0.54615
 C140 C 0.52004 -0.08249 0.41577
 H141 H 0.47252 -0.08541 0.41230
 C142 C 0.55074 -0.11531 0.38297
 H143 H 0.52688 -0.14349 0.35390
 C144 C 0.60942 -0.04284 0.45848
 H145 H 0.63213 -0.01520 0.48856
 C146 C 0.64178 -0.07491 0.42651
 H147 H 0.68935 -0.07148 0.43165
 Zn148 Zn 0.50511 -0.00452 0.49603
 N149 N 0.54964 -0.04674 0.45214
 C150 C 0.45673 0.04492 0.38941
 N151 N 0.45927 0.04433 0.44797
 C152 C 0.42958 0.08025 0.47539
 C153 C 0.39426 0.11767 0.44386
 C154 C 0.42175 0.08181 0.35613
 C155 C 0.48043 -0.09238 0.57635
 C156 C 0.44558 -0.12695 0.61163
 C157 C 0.35980 -0.08407 0.56683
 C158 C 0.39617 -0.05026 0.53256
 N159 N 0.45548 -0.05393 0.53894
 H160 H 0.48160 0.01688 0.36841
 H161 H 0.43305 0.07936 0.52196
 H162 H 0.37026 0.14566 0.46615
 H163 H 0.41935 0.08179 0.30957
 H164 H 0.52761 -0.09498 0.57996
 H165 H 0.46589 -0.15615 0.64271
 H166 H 0.31280 -0.07973 0.56264
 H167 H 0.37692 -0.02059 0.50158
 C168 C 0.61216 -0.11135 0.38834
 C169 C 0.62077 0.11241 0.61629
 C170 C 0.38479 -0.12212 0.60732
 C171 C 0.39003 0.11827 0.38374
 C172 C 0.58888 0.57990 0.02234
 H173 H 0.59015 0.58449 -0.02396
 C174 C 0.62254 0.61661 0.05737
 H175 H 0.65008 0.64946 0.03810
 C176 C 0.54948 0.53313 0.10407
 H177 H 0.51975 0.50169 0.12214
 C178 C 0.58240 0.56890 0.14059
 H179 H 0.57835 0.56439 0.18661
 N180 N 0.55334 0.53909 0.04607
 C181 C 0.51989 0.41746 -0.08525
 H182 H 0.47236 0.41430 -0.08892
 C183 C 0.55096 0.38520 -0.11830
 H184 H 0.52739 0.35719 -0.14773
 C185 C 0.60888 0.45723 -0.04188
 H186 H 0.63131 0.48470 -0.01147
 C187 C 0.64162 0.42571 -0.07408
 H188 H 0.68917 0.42939 -0.06876
 Zn189 Zn 0.50414 0.49482 -0.00450
 N190 N 0.54911 0.45303 -0.04845
 C191 C 0.45617 0.54467 -0.11106
 N192 N 0.45837 0.54377 -0.05250
 C193 C 0.42848 0.57951 -0.02505
 C194 C 0.39328 0.61705 -0.05656
 C195 C 0.42134 0.58169 -0.14432
 C196 C 0.47945 0.40663 0.07540
 C197 C 0.44468 0.37223 0.11090
 C198 C 0.35887 0.41529 0.06639
 C199 C 0.39518 0.44892 0.03189
 N200 N 0.45447 0.44513 0.03807
 H201 H 0.48122 0.51679 -0.13208
 H202 H 0.43169 0.57839 0.02152
 H203 H 0.36913 0.64489 -0.03425
 H204 H 0.41922 0.58193 -0.19088
 H205 H 0.52663 0.40396 0.07888
 H206 H 0.46504 0.34305 0.14198
 H207 H 0.31190 0.41977 0.06242
 H208 H 0.37590 0.47865 0.00100
 C209 C 0.61238 0.38952 -0.11273
 C210 C 0.61896 0.61118 0.11701
 C211 C 0.38392 0.37728 0.10690
 C212 C 0.38941 0.61796 -0.11668
 C213 C 0.17178 -0.17230 -0.17379
 C214 C 0.14393 -0.14470 -0.14603
 C215 C 0.17162 0.32724 0.32699
 C216 C 0.14368 0.35461 0.35493
 C217 C 0.67256 -0.17240 0.32731
 C218 C 0.64480 -0.14469 0.35506
 C219 C 0.67347 0.32952 -0.17422
 C220 C 0.64541 0.35678 -0.14629
 C221 C -0.17919 0.18915 -0.17480
 C222 C -0.14728 0.15660 -0.14978
 C223 C -0.18030 0.68716 0.32689
 C224 C -0.14830 0.65471 0.35195
 C225 C 0.31996 0.18798 0.32621
 C226 C 0.35248 0.15595 0.35119
 C227 C 0.31971 0.68798 -0.17425
 C228 C 0.35206 0.65582 -0.14923
 C229 C -0.18334 -0.17729 0.18081
 C230 C -0.15209 -0.15389 0.14671
 C231 C -0.18428 0.32131 0.68246
 C232 C -0.15289 0.34473 0.64848
 C233 C 0.31655 -0.17672 0.68025
 C234 C 0.34823 -0.15318 0.64663
 C235 C 0.31607 0.32317 0.18051
 C236 C 0.34753 0.34653 0.14658
 C237 C 0.17397 0.18386 0.18480
 C238 C 0.14975 0.15049 0.15329
 C239 C 0.17390 0.68371 0.68466
 C240 C 0.14959 0.65006 0.65352
 C241 C 0.67605 0.18584 0.68382
 C242 C 0.65183 0.15216 0.65267
 C243 C 0.67426 0.68391 0.18533
 C244 C 0.64997 0.65058 0.15383
   
