data_POSCAR
  _audit_creation_date              2014-09-24
  _audit_creation_method            'ToBaCCo'
  _symmetry_space_group_name_H-M    'P1'
  _symmetry_Int_Tables_number       1
  _symmetry_cell_setting            triclinic
  loop_
  _symmetry_equiv_pos_as_xyz
 x,y,z
_cell_length_a 61.7523
_cell_length_b 64.3788
_cell_length_c 26.2437
_cell_angle_alpha 90.230700
_cell_angle_beta 89.698800
_cell_angle_gamma 120.554700
loop_
  _atom_site_label
  _atom_site_type_symbol
  _atom_site_fract_x
  _atom_site_fract_y
  _atom_site_fract_z
C1 C 0.15417 0.43581 0.51509
 C2 C 0.15405 0.43583 0.46289
 C3 C 0.17041 0.42822 0.44696
 N4 N 0.18000 0.42306 0.48796
 C5 C 0.17037 0.42799 0.52954
 C6 C 0.17466 0.42424 0.39551
 C7 C 0.19167 0.41640 0.38213
 C8 C 0.19289 0.40685 0.33534
 C9 C 0.21414 0.40504 0.33584
 C10 C 0.22580 0.41417 0.38223
 N11 N 0.21182 0.42070 0.41039
 C12 C 0.25031 0.41935 0.39474
 C13 C 0.26037 0.42624 0.44427
 C14 C 0.28576 0.43796 0.45564
 C15 C 0.28765 0.44128 0.50735
 C16 C 0.26329 0.43099 0.52618
 N17 N 0.24662 0.42194 0.48737
 C18 C 0.25657 0.42981 0.57835
 C19 C 0.23194 0.42374 0.59311
 C20 C 0.22111 0.41456 0.64031
 C21 C 0.19803 0.41290 0.64062
 C22 C 0.19535 0.42104 0.59357
 N23 N 0.21599 0.42738 0.56461
 C24 C 0.17531 0.42459 0.58034
 H25 H 0.14348 0.44094 0.53951
 H26 H 0.14269 0.44040 0.43957
 H27 H 0.22043 0.43661 0.53014
 H28 H 0.18044 0.40232 0.30317
 H29 H 0.22090 0.39887 0.30449
 H30 H 0.30137 0.44408 0.42928
 H31 H 0.30508 0.45063 0.52837
 H32 H 0.18488 0.40678 0.67220
 H33 H 0.21779 0.43108 0.44337
 H34 H 0.22914 0.40977 0.67148
 C35 C 0.50812 -0.30939 0.50728
 C36 C 0.51368 -0.30750 0.55809
 C37 C 0.52652 -0.28308 0.56969
 N38 N 0.52861 -0.26998 0.52772
 C39 C 0.51763 -0.28609 0.48936
 C40 C 0.53667 -0.27313 0.61811
 C41 C 0.54221 -0.24954 0.63117
 C42 C 0.55802 -0.23553 0.67030
 C43 C 0.55655 -0.21495 0.67284
 C44 C 0.54027 -0.21676 0.63464
 N45 N 0.53176 -0.23777 0.60913
 C46 C 0.53239 -0.19999 0.62635
 C47 C 0.52189 -0.19852 0.57983
 C48 C 0.51126 -0.18438 0.57132
 C49 C 0.50573 -0.18624 0.52033
 C50 C 0.51311 -0.20151 0.49954
 N51 N 0.52297 -0.20901 0.53594
 C52 C 0.51281 -0.20662 0.44713
 C53 C 0.51708 -0.22492 0.42881
 C54 C 0.52353 -0.22674 0.37904
 C55 C 0.52497 -0.24734 0.37632
 C56 C 0.51897 -0.25778 0.42439
 N57 N 0.51439 -0.24386 0.45627
 C58 C 0.51710 -0.27998 0.43773
 H59 H 0.49798 -0.32605 0.48597
 H60 H 0.50853 -0.32244 0.58371
 H61 H 0.50746 -0.24831 0.49334
 H62 H 0.56931 -0.23975 0.69477
 H63 H 0.56633 -0.20033 0.69978
 H64 H 0.50816 -0.17356 0.59880
 H65 H 0.49753 -0.17714 0.50068
 H66 H 0.53000 -0.25377 0.34273
 H67 H 0.51742 -0.24491 0.58218
 H68 H 0.52705 -0.21439 0.34797
 C69 C 1.26382 0.85476 0.52479
 C70 C 1.26272 0.85836 0.47365
 C71 C 1.25243 0.83590 0.45057
 N72 N 1.24664 0.81861 0.48597
 C73 C 1.25404 0.83022 0.53122
 C74 C 1.25062 0.83165 0.39732
 C75 C 1.23292 0.80849 0.37799
 C76 C 1.23373 0.79945 0.33031
 C77 C 1.21270 0.77685 0.32661
 C78 C 1.19994 0.77241 0.37256
 N79 N 1.21232 0.79177 0.40357
 C80 C 1.17669 0.75157 0.38406
 C81 C 1.16763 0.74546 0.43437
 C82 C 1.14319 0.72853 0.44787
 C83 C 1.14308 0.72587 0.49971
 C84 C 1.16769 0.74055 0.51591
 N85 N 1.18258 0.75286 0.47595
 C86 C 1.17680 0.74106 0.56567
 C87 C 1.20124 0.75946 0.57993
 C88 C 1.21599 0.75714 0.61656
 C89 C 1.23796 0.77899 0.61947
 C90 C 1.23592 0.79421 0.58501
 N91 N 1.21367 0.78199 0.56027
 C92 C 1.25395 0.81891 0.57737
 H93 H 1.27124 0.86861 0.55391
 H94 H 1.26915 0.87557 0.45534
 H95 H 1.20644 0.78921 0.53452
 H96 H 1.24807 0.80802 0.30124
 H97 H 1.20754 0.76506 0.29382
 H98 H 1.12713 0.71893 0.42309
 H99 H 1.12679 0.71402 0.52257
 H100 H 1.25374 0.78302 0.64372
 H101 H 1.20595 0.79426 0.43864
 H102 H 1.21160 0.74117 0.63817
 C103 C 0.85612 0.57454 0.52102
 C104 C 0.85677 0.57528 0.46885
 C105 C 0.84355 0.58634 0.45427
 N106 N 0.83525 0.59282 0.49579
 C107 C 0.84293 0.58563 0.53676
 C108 C 0.84000 0.59101 0.40340
 C109 C 0.82342 0.59903 0.39005
 C110 C 0.82266 0.60834 0.34299
 C111 C 0.80120 0.60982 0.34256
 C112 C 0.78929 0.60098 0.38905
 N113 N 0.80321 0.59488 0.41804
 C114 C 0.76453 0.59522 0.40087
 C115 C 0.75456 0.58908 0.45067
 C116 C 0.72919 0.57695 0.46256
 C117 C 0.72752 0.57458 0.51450
 C118 C 0.75198 0.58584 0.53279
 N119 N 0.76850 0.59452 0.49355
 C120 C 0.75898 0.58847 0.58484
 C121 C 0.78346 0.59389 0.59912
 C122 C 0.79514 0.60459 0.64473
 C123 C 0.81748 0.60476 0.64566
 C124 C 0.81890 0.59414 0.60061
 N125 N 0.79830 0.58801 0.57195
 C126 C 0.83824 0.58918 0.58812
 H127 H 0.86409 0.56635 0.54451
 H128 H 0.86576 0.56824 0.44451
 H129 H 0.79321 0.57779 0.53858
 H130 H 0.83562 0.61267 0.31147
 H131 H 0.79443 0.61549 0.31063
 H132 H 0.71349 0.56993 0.43648
 H133 H 0.71019 0.56520 0.53609
 H134 H 0.83109 0.61177 0.67622
 H135 H 0.79717 0.58470 0.45123
 H136 H 0.78819 0.61143 0.67441
 C137 C 0.42727 0.15300 0.46813
 C138 C 0.42403 0.15023 0.51981
 C139 C 0.43428 0.17324 0.54033
 N140 N 0.44295 0.18988 0.50283
 C141 C 0.43877 0.17750 0.45880
 C142 C 0.43810 0.17891 0.59289
 C143 C 0.44277 0.20160 0.61128
 C144 C 0.45311 0.21154 0.65827
 C145 C 0.45387 0.23317 0.66160
 C146 C 0.44477 0.23643 0.61584
 N147 N 0.43777 0.21692 0.58567
 C148 C 0.44118 0.25602 0.60438
 C149 C 0.43719 0.26115 0.55396
 C150 C 0.43127 0.27851 0.54035
 C151 C 0.43327 0.28054 0.48837
 C152 C 0.44082 0.26475 0.47173
 N153 N 0.44306 0.25283 0.51179
 C154 C 0.44849 0.26375 0.42133
 C155 C 0.45328 0.24558 0.40446
 C156 C 0.46625 0.24655 0.36032
 C157 C 0.46629 0.22518 0.35749
 C158 C 0.45330 0.21181 0.39991
 N159 N 0.44524 0.22426 0.42799
 C160 C 0.44819 0.18834 0.41115
 H161 H 0.42215 0.13871 0.44054
 H162 H 0.41577 0.13329 0.54015
 H163 H 0.43306 0.21769 0.45909
 H164 H 0.45965 0.20418 0.68731
 H165 H 0.46032 0.24494 0.69446
 H166 H 0.42688 0.28936 0.56500
 H167 H 0.43041 0.29293 0.46563
 H168 H 0.47486 0.22008 0.32767
 H169 H 0.42796 0.21322 0.55150
 H170 H 0.47492 0.26118 0.33313
 C171 C 0.71501 0.15978 0.50907
 C172 C 0.71671 0.15934 0.45701
 C173 C 0.74194 0.17374 0.44482
 N174 N 0.75577 0.18275 0.48767
 C175 C 0.73934 0.17410 0.52717
 C176 C 0.75191 0.17781 0.39485
 C177 C 0.77630 0.19687 0.38280
 C178 C 0.78877 0.19923 0.33715
 C179 C 0.81023 0.22164 0.33776
 C180 C 0.81028 0.23228 0.38381
 N181 N 0.78965 0.21700 0.41118
 C182 C 0.82778 0.25634 0.39762
 C183 C 0.83053 0.26463 0.44839
 C184 C 0.84431 0.28855 0.46357
 C185 C 0.84319 0.28859 0.51582
 C186 C 0.82873 0.26469 0.53069
 N187 N 0.82107 0.25009 0.48948
 C188 C 0.82399 0.25645 0.58152
 C189 C 0.80537 0.23264 0.59441
 C190 C 0.80388 0.22169 0.64068
 C191 C 0.78189 0.19977 0.64013
 C192 C 0.77040 0.19801 0.59368
 N193 N 0.78506 0.21799 0.56569
 C194 C 0.74626 0.17895 0.57930
 H195 H 0.69771 0.15090 0.53087
 H196 H 0.70109 0.14991 0.43106
 H197 H 0.77993 0.22266 0.53178
 H198 H 0.78266 0.18641 0.30603
 H199 H 0.82394 0.22943 0.30730
 H200 H 0.85410 0.30434 0.43961
 H201 H 0.85196 0.30441 0.54000
 H202 H 0.77499 0.18669 0.67072
 H203 H 0.78324 0.22134 0.44395
 H204 H 0.81713 0.22889 0.67184
 O205 O 0.99105 0.52101 -0.10167
 O206 O 1.01454 0.53477 0.07292
 O207 O 0.96085 0.50787 0.02014
 O208 O 1.04536 0.54559 -0.04730
 O209 O 0.97263 0.49992 0.08811
 O210 O 1.03195 0.52432 -0.11295
 O211 O 1.04913 0.54100 0.03952
 O212 O 0.95582 0.49644 -0.06580
 C213 C 0.96889 0.51498 -0.09232
 C214 C 1.03715 0.54886 0.06375
 C215 C 0.96207 0.50946 0.06681
 C216 C 1.04312 0.54472 -0.09389
 O217 O 1.01118 0.47729 -0.09811
 O218 O 0.99091 0.47072 0.07818
 O219 O 0.95754 0.45524 -0.03898
 O220 O 1.04359 0.49558 0.02014
 O221 O 1.03306 0.50592 0.08705
 O222 O 0.96996 0.47355 -0.10833
 O223 O 1.04691 0.50352 -0.06682
 O224 O 0.95564 0.46317 0.04650
 Co225 Co 1.00111 0.49923 -0.09583
 Co226 Co 1.00269 0.50265 0.07185
 Co227 Co 0.96146 0.48257 -0.00973
 Co228 Co 1.04224 0.51956 -0.01342
 O229 O 1.00186 0.50098 -0.01189
 C230 C 1.03363 0.48403 -0.09032
 C231 C 0.96821 0.45622 0.07115
 C232 C 0.95918 0.45408 -0.08543
 C233 C 1.04307 0.49547 0.06691
 O234 O 0.48502 0.46227 -0.07392
 O235 O 0.47454 0.48989 0.09885
 O236 O 0.50755 0.45801 0.04861
 O237 O 0.46771 0.51646 -0.04765
 O238 O 0.50868 0.48156 0.10961
 O239 O 0.46535 0.48402 -0.06571
 O240 O 0.45705 0.48855 0.02771
 O241 O 0.51702 0.46193 -0.04488
 C242 C 0.49695 0.45181 -0.06897
 C243 C 0.45500 0.48166 0.07252
 C244 C 0.50322 0.46088 0.09379
 C245 C 0.45708 0.49764 -0.07287
 O246 O 0.50995 0.52684 -0.08693
 O247 O 0.54197 0.52807 0.08115
 O248 O 0.55452 0.50476 -0.03190
 O249 O 0.47518 0.53325 0.04483
 O250 O 0.50914 0.53693 0.07681
 O251 O 0.53035 0.50243 -0.09562
 O252 O 0.51171 0.54423 -0.01454
 O253 O 0.54886 0.49955 0.06296
 Co254 Co 0.49831 0.49453 -0.07398
 Co255 Co 0.50820 0.50817 0.08427
 Co256 Co 0.52944 0.48276 0.00861
 Co257 Co 0.48528 0.51582 0.00816
 O258 O 0.50569 0.49904 0.00444
 C259 C 0.51730 0.54591 -0.06094
 C260 C 0.55676 0.52044 0.07910
 C261 C 0.55190 0.50860 -0.07770
 C262 C 0.49175 0.54186 0.08081
 O263 O 0.53315 0.01523 -0.09107
 O264 O 0.50392 -0.03230 0.08263
 O265 O 0.54173 0.04364 0.04885
 O266 O 0.50490 -0.04047 -0.00494
 O267 O 0.53795 0.00998 0.07619
 O268 O 0.50442 -0.02942 -0.08197
 O269 O 0.46847 -0.06218 0.05434
 O270 O 0.53941 0.04648 -0.04461
 C271 C 0.54652 0.03710 -0.07874
 C272 C 0.48586 -0.05384 0.08955
 C273 C 0.55135 0.03218 0.06828
 C274 C 0.51061 -0.04004 -0.05058
 O275 O 0.46533 -0.02182 -0.08261
 O276 O 0.50829 0.02477 0.11079
 O277 O 0.49291 0.03998 -0.03432
 O278 O 0.45152 -0.03458 0.03383
 O279 O 0.47130 -0.01670 0.10222
 O280 O 0.49507 0.02089 -0.09952
 O281 O 0.46085 -0.05231 -0.04146
 O282 O 0.49211 0.03430 0.05293
 Co283 Co 0.49933 -0.00384 -0.08017
 Co284 Co 0.50451 -0.00341 0.08443
 Co285 Co 0.51531 0.03776 0.00637
 Co286 Co 0.47909 -0.03576 0.01488
 O287 O 0.49984 0.00014 0.00221
 C288 C 0.45314 -0.04389 -0.07497
 C289 C 0.49612 0.03436 0.09842
 C290 C 0.48935 0.03517 -0.08025
 C291 C 0.45103 -0.02765 0.07792
 C292 C 1.13816 0.44308 0.28465
 C293 C 1.15652 0.46060 0.31678
 C294 C 1.16893 0.45430 0.35211
 C295 C 1.16317 0.43028 0.35661
 C296 C 1.14518 0.41276 0.32373
 C297 C 1.13291 0.41916 0.28773
 C298 C 1.12381 0.44985 0.25046
 N299 N 1.11168 0.43646 0.20871
 N300 N 1.09855 0.44276 0.17882
 C301 C 1.09685 0.46253 0.18992
 N302 N 1.10896 0.47582 0.23163
 N303 N 1.12221 0.46966 0.26114
 C304 C 1.08203 0.46964 0.15808
 C305 C 1.07282 0.48365 0.17958
 C306 C 1.05972 0.49149 0.14995
 C307 C 1.05585 0.48584 0.09786
 C308 C 1.06472 0.47153 0.07621
 C309 C 1.07754 0.46330 0.10626
 H310 H 1.16117 0.47923 0.31500
 H311 H 1.18287 0.46820 0.37665
 H312 H 1.13988 0.39400 0.32724
 H313 H 1.11867 0.40527 0.26371
 H314 H 1.07576 0.48863 0.21949
 H315 H 1.05305 0.50242 0.16774
 H316 H 1.06187 0.46686 0.03613
 H317 H 1.08448 0.45253 0.08876
 C318 C 0.51038 0.66947 0.32472
 C319 C 0.52717 0.67550 0.36554
 C320 C 0.52950 0.69227 0.40213
 C321 C 0.51522 0.70368 0.39902
 C322 C 0.49880 0.69802 0.35737
 C323 C 0.49632 0.68103 0.32083
 C324 C 0.50748 0.65094 0.28718
 N325 N 0.48923 0.64253 0.25106
 N326 N 0.48649 0.62548 0.21824
 C327 C 0.50190 0.61618 0.22017
 N328 N 0.52016 0.62468 0.25616
 N329 N 0.52286 0.64164 0.28894
 C330 C 0.49899 0.59710 0.18417
 C331 C 0.51649 0.58927 0.18434
 C332 C 0.51399 0.57131 0.15085
 C333 C 0.49388 0.56065 0.11641
 C334 C 0.47628 0.56833 0.11613
 C335 C 0.47883 0.58644 0.14963
 H336 H 0.53844 0.66710 0.36967
 H337 H 0.54284 0.69656 0.43275
 H338 H 0.48712 0.70604 0.35403
 H339 H 0.48322 0.67681 0.28982
 H340 H 0.53228 0.59707 0.21028
 H341 H 0.52792 0.56584 0.15186
 H342 H 0.46058 0.56040 0.08995
 H343 H 0.46499 0.59200 0.14857
 C344 C 0.30352 -0.11414 0.29700
 C345 C 0.31066 -0.11716 0.34578
 C346 C 0.29327 -0.13483 0.37851
 C347 C 0.26794 -0.14982 0.36402
 C348 C 0.26070 -0.14619 0.31543
 C349 C 0.27834 -0.12875 0.28216
 C350 C 0.32280 -0.09671 0.26133
 N351 N 0.31952 -0.09952 0.21008
 N352 N 0.33808 -0.08531 0.17823
 C353 C 0.36059 -0.06761 0.19636
 N354 N 0.36356 -0.06446 0.24756
 N355 N 0.34509 -0.07871 0.27933
 C356 C 0.38245 -0.05393 0.16192
 C357 C 0.40514 -0.03493 0.18126
 C358 C 0.42717 -0.02510 0.15228
 C359 C 0.42701 -0.03407 0.10333
 C360 C 0.40397 -0.05160 0.08223
 C361 C 0.38187 -0.06145 0.11128
 H362 H 0.33001 -0.10645 0.35814
 H363 H 0.30006 -0.13738 0.41455
 H364 H 0.24132 -0.15669 0.30321
 H365 H 0.27225 -0.12667 0.24488
 H366 H 0.40620 -0.02843 0.21981
 H367 H 0.44459 -0.01136 0.16929
 H368 H 0.40328 -0.05879 0.04449
 H369 H 0.36469 -0.07594 0.09510
 C370 C 0.87367 0.56943 0.28697
 C371 C 0.88406 0.59405 0.29847
 C372 C 0.87311 0.60133 0.33611
 C373 C 0.85144 0.58409 0.36191
 C374 C 0.84059 0.55966 0.34917
 C375 C 0.85169 0.55237 0.31237
 C376 C 0.88624 0.56114 0.25112
 N377 N 0.88281 0.53870 0.25619
 N378 N 0.89466 0.53116 0.22562
 C379 C 0.91027 0.54565 0.18833
 N380 N 0.91353 0.56804 0.18267
 N381 N 0.90182 0.57570 0.21371
 C382 C 0.92409 0.53726 0.15648
 C383 C 0.93052 0.54467 0.10557
 C384 C 0.94276 0.53557 0.07571
 C385 C 0.94926 0.51948 0.09692
 C386 C 0.94329 0.51260 0.14810
 C387 C 0.93061 0.52117 0.17733
 H388 H 0.90106 0.60755 0.27962
 H389 H 0.88164 0.62027 0.34559
 H390 H 0.82378 0.54619 0.36866
 H391 H 0.84316 0.53330 0.30408
 H392 H 0.92560 0.55704 0.08867
 H393 H 0.94727 0.54118 0.03634
 H394 H 0.94805 0.50020 0.16543
 H395 H 0.92607 0.51531 0.21656
 C396 C 0.46181 0.32238 0.32249
 C397 C 0.47555 0.32674 0.36776
 C398 C 0.47163 0.30763 0.39901
 C399 C 0.45364 0.28380 0.38610
 C400 C 0.44013 0.27929 0.34061
 C401 C 0.44424 0.29841 0.30895
 C402 C 0.46586 0.34276 0.28975
 N403 N 0.45678 0.33884 0.24148
 N404 N 0.46087 0.35723 0.21178
 C405 C 0.47405 0.38031 0.22918
 N406 N 0.48294 0.38421 0.27761
 N407 N 0.47895 0.36583 0.30723
 C408 C 0.47963 0.40080 0.19526
 C409 C 0.48944 0.42427 0.21488
 C410 C 0.49629 0.44379 0.18216
 C411 C 0.49379 0.44024 0.12919
 C412 C 0.48328 0.41670 0.10977
 C413 C 0.47616 0.39721 0.14242
 H414 H 0.48938 0.34493 0.37909
 H415 H 0.48239 0.31143 0.43379
 H416 H 0.42617 0.26101 0.33007
 H417 H 0.43337 0.29444 0.27432
 H418 H 0.49215 0.42760 0.25547
 H419 H 0.50426 0.46173 0.19818
 H420 H 0.48090 0.41338 0.06912
 H421 H 0.46860 0.37939 0.12601
 C422 C 0.70230 0.13267 0.27572
 C423 C 0.70880 0.12250 0.31594
 C424 C 0.72532 0.13716 0.35407
 C425 C 0.73559 0.16224 0.35279
 C426 C 0.72960 0.17249 0.31215
 C427 C 0.71320 0.15789 0.27393
 C428 C 0.68331 0.11710 0.23736
 N429 N 0.67688 0.12700 0.19898
 N430 N 0.65855 0.11313 0.16670
 C431 C 0.64585 0.08873 0.17129
 N432 N 0.65255 0.07879 0.20917
 N433 N 0.67090 0.09268 0.24147
 C434 C 0.62370 0.07351 0.13873
 C435 C 0.60925 0.04841 0.14614
 C436 C 0.58638 0.03462 0.12078
 C437 C 0.57745 0.04566 0.08759
 C438 C 0.59268 0.07044 0.07759
 C439 C 0.61556 0.08420 0.10281
 H440 H 0.70082 0.10317 0.31848
 H441 H 0.72981 0.12894 0.38506
 H442 H 0.73728 0.19181 0.31059
 H443 H 0.70864 0.16637 0.24361
 H444 H 0.61506 0.03953 0.17315
 H445 H 0.57511 0.01554 0.12915
 H446 H 0.58644 0.07943 0.05183
 H447 H 0.62631 0.10342 0.09568
 C448 C 0.44406 0.13020 -0.30736
 C449 C 0.45528 0.13525 -0.35580
 C450 C 0.45332 0.15127 -0.38818
 C451 C 0.43970 0.16248 -0.37358
 C452 C 0.42829 0.15723 -0.32499
 C453 C 0.43058 0.14137 -0.29214
 C454 C 0.44716 0.11378 -0.27296
 N455 N 0.44336 0.11381 -0.22193
 N456 N 0.44769 0.09994 -0.19101
 C457 C 0.45585 0.08542 -0.20996
 N458 N 0.45926 0.08517 -0.26102
 N459 N 0.45505 0.09907 -0.29183
 C460 C 0.46232 0.07114 -0.17586
 C461 C 0.46802 0.05428 -0.19647
 C462 C 0.47620 0.04220 -0.16518
 C463 C 0.47899 0.04676 -0.11256
 C464 C 0.47256 0.06305 -0.09160
 C465 C 0.46424 0.07509 -0.12295
 H466 H 0.46614 0.12725 -0.36843
 H467 H 0.46317 0.15541 -0.42437
 H468 H 0.41724 0.16509 -0.31269
 H469 H 0.42163 0.13771 -0.25504
 H470 H 0.46656 0.05066 -0.23702
 H471 H 0.48083 0.02963 -0.18245
 H472 H 0.47440 0.06684 -0.05110
 H473 H 0.46000 0.08795 -0.10588
 C474 C 0.70254 0.57467 -0.30471
 C475 C 0.71986 0.56699 -0.29658
 C476 C 0.73887 0.57216 -0.33210
 C477 C 0.74116 0.58523 -0.37679
 C478 C 0.72458 0.59405 -0.38317
 C479 C 0.70541 0.58864 -0.34790
 C480 C 0.68100 0.56721 -0.26951
 N481 N 0.66090 0.56914 -0.28330
 N482 N 0.64093 0.56117 -0.25274
 C483 C 0.64027 0.55102 -0.20706
 N484 N 0.66048 0.54933 -0.19312
 N485 N 0.68037 0.55719 -0.22372
 C486 C 0.61778 0.54124 -0.17366
 C487 C 0.61886 0.53417 -0.12363
 C488 C 0.59754 0.52392 -0.09256
 C489 C 0.57449 0.52029 -0.11078
 C490 C 0.57341 0.52767 -0.16055
 C491 C 0.59488 0.53814 -0.19163
 H492 H 0.71819 0.55618 -0.26367
 H493 H 0.75092 0.56473 -0.32580
 H494 H 0.72634 0.60508 -0.41575
 H495 H 0.69267 0.59523 -0.35479
 H496 H 0.63619 0.53641 -0.10842
 H497 H 0.59908 0.51852 -0.05434
 H498 H 0.55596 0.52524 -0.17555
 H499 H 0.59342 0.54340 -0.23002
 C500 C 0.86764 0.30794 -0.30179
 C501 C 0.84121 0.29525 -0.29957
 C502 C 0.82708 0.27826 -0.33700
 C503 C 0.83908 0.27343 -0.37699
 C504 C 0.86544 0.28538 -0.37817
 C505 C 0.87959 0.30260 -0.34115
 C506 C 0.88261 0.32764 -0.26523
 N507 N 0.90685 0.34446 -0.27600
 N508 N 0.91986 0.36323 -0.24518
 C509 C 0.90924 0.36592 -0.20211
 N510 N 0.88513 0.34888 -0.19079
 N511 N 0.87206 0.33016 -0.22181
 C512 C 0.92308 0.38783 -0.17031
 C513 C 0.91548 0.38848 -0.11999
 C514 C 0.92770 0.40983 -0.09150
 C515 C 0.94734 0.43098 -0.11331
 C516 C 0.95521 0.43019 -0.16317
 C517 C 0.94338 0.40880 -0.19119
 H518 H 0.83143 0.29900 -0.26987
 H519 H 0.80675 0.26924 -0.33544
 H520 H 0.87504 0.28171 -0.40841
 H521 H 0.89991 0.31193 -0.34372
 H522 H 0.89995 0.37255 -0.10284
 H523 H 0.92133 0.41000 -0.05304
 H524 H 0.97043 0.44620 -0.18074
 H525 H 0.94966 0.40894 -0.22987
 C526 C 0.54160 -0.14971 -0.25522
 C527 C 0.52629 -0.17471 -0.24732
 C528 C 0.52361 -0.19103 -0.28555
 C529 C 0.53615 -0.18267 -0.33231
 C530 C 0.55204 -0.15782 -0.33980
 C531 C 0.55474 -0.14149 -0.30167
 C532 C 0.54263 -0.13226 -0.21686
 N533 N 0.55568 -0.10823 -0.22671
 N534 N 0.55475 -0.09262 -0.19470
 C535 C 0.54081 -0.10031 -0.15129
 N536 N 0.52822 -0.12430 -0.14076
 N537 N 0.52912 -0.13994 -0.17287
 C538 C 0.53706 -0.08325 -0.11968
 C539 C 0.54459 -0.06014 -0.13853
 C540 C 0.53718 -0.04551 -0.11399
 C541 C 0.52248 -0.05344 -0.06955
 C542 C 0.51665 -0.07564 -0.04813
 C543 C 0.52373 -0.09055 -0.07325
 H544 H 0.51592 -0.18168 -0.21207
 H545 H 0.51137 -0.21018 -0.27911
 H546 H 0.56207 -0.15110 -0.37551
 H547 H 0.56675 -0.12240 -0.30905
 H548 H 0.55499 -0.05383 -0.17394
 H549 H 0.54205 -0.02836 -0.13098
 H550 H 0.50525 -0.08214 -0.01392
 H551 H 0.51783 -0.10817 -0.05751
 C552 C 0.31281 0.44743 -0.30964
 C553 C 0.29655 0.45665 -0.30619
 C554 C 0.27764 0.45033 -0.34230
 C555 C 0.27476 0.43493 -0.38334
 C556 C 0.29068 0.42524 -0.38580
 C557 C 0.30941 0.43138 -0.34943
 C558 C 0.33351 0.45479 -0.27264
 N559 N 0.34685 0.44334 -0.27172
 N560 N 0.36583 0.45018 -0.23941
 C561 C 0.37239 0.46884 -0.20670
 N562 N 0.35904 0.48032 -0.20751
 N563 N 0.33997 0.47341 -0.23980
 C564 C 0.39380 0.47644 -0.17144
 C565 C 0.40353 0.49787 -0.14279
 C566 C 0.42418 0.50500 -0.11054
 C567 C 0.43527 0.49070 -0.10622
 C568 C 0.42538 0.46924 -0.13448
 C569 C 0.40498 0.46223 -0.16672
 H570 H 0.29857 0.46894 -0.27584
 H571 H 0.26592 0.45833 -0.33928
 H572 H 0.28851 0.41269 -0.41575
 H573 H 0.32146 0.42378 -0.35303
 H574 H 0.39537 0.50925 -0.14567
 H575 H 0.43147 0.52162 -0.08910
 H576 H 0.43354 0.45784 -0.13194
 H577 H 0.39797 0.44559 -0.18797
 C578 C 1.13417 0.68431 -0.32922
 C579 C 1.14739 0.70841 -0.31272
 C580 C 1.16128 0.72705 -0.34733
 C581 C 1.16233 0.72210 -0.39942
 C582 C 1.14931 0.69783 -0.41545
 C583 C 1.13532 0.67927 -0.38096
 C584 C 1.11945 0.66439 -0.29292
 N585 N 1.10416 0.64163 -0.31035
 N586 N 1.09122 0.62351 -0.27813
 C587 C 1.09300 0.62730 -0.22700
 N588 N 1.10822 0.65010 -0.20943
 N589 N 1.12114 0.66829 -0.24176
 C590 C 1.07916 0.60673 -0.19167
 C591 C 1.08316 0.60948 -0.13869
 C592 C 1.07108 0.58945 -0.10630
 C593 C 1.05485 0.56640 -0.12644
 C594 C 1.05030 0.56386 -0.17909
 C595 C 1.06229 0.58373 -0.21126
 H596 H 1.14688 0.71292 -0.27311
 H597 H 1.17086 0.74546 -0.33345
 H598 H 1.15055 0.69304 -0.45452
 H599 H 1.12572 0.66087 -0.39488
 H600 H 1.09599 0.62697 -0.12237
 H601 H 1.07482 0.59191 -0.06578
 H602 H 1.03768 0.54636 -0.19569
 H603 H 1.05854 0.58093 -0.25172
 C604 C 0.88090 0.57915 -0.29794
 C605 C 0.89280 0.59335 -0.34108
 C606 C 0.87896 0.59735 -0.37765
 C607 C 0.85276 0.58720 -0.37232
 C608 C 0.84115 0.57407 -0.32762
 C609 C 0.85501 0.57002 -0.29109
 C610 C 0.89509 0.57275 -0.26199
 N611 N 0.88321 0.55746 -0.22253
 N612 N 0.89552 0.55032 -0.19248
 C613 C 0.92026 0.55817 -0.20054
 N614 N 0.93222 0.57372 -0.23956
 N615 N 0.91991 0.58085 -0.26963
 C616 C 0.93346 0.54877 -0.16949
 C617 C 0.95890 0.55641 -0.17875
 C618 C 0.97068 0.54598 -0.15256
 C619 C 0.95726 0.52764 -0.11665
 C620 C 0.93214 0.52064 -0.10600
 C621 C 0.92038 0.53110 -0.13207
 H622 H 0.91277 0.60095 -0.34733
 H623 H 0.88880 0.60831 -0.41050
 H624 H 0.82103 0.56572 -0.32213
 H625 H 0.84522 0.55909 -0.25822
 H626 H 0.96959 0.57006 -0.20709
 H627 H 0.99011 0.55185 -0.16143
 H628 H 0.92136 0.50669 -0.07824
 H629 H 0.90083 0.52485 -0.12372
 C630 C 0.45293 0.30781 -0.28265
 C631 C 0.42885 0.29299 -0.30333
 C632 C 0.42478 0.27553 -0.33996
 C633 C 0.44474 0.27266 -0.35683
 C634 C 0.46877 0.28742 -0.33598
 C635 C 0.47277 0.30466 -0.29907
 C636 C 0.45769 0.32708 -0.24560
 N637 N 0.47988 0.33894 -0.22028
 N638 N 0.48480 0.35710 -0.18889
 C639 C 0.46777 0.36424 -0.18156
 N640 N 0.44546 0.35223 -0.20650
 N641 N 0.44050 0.33400 -0.23779
 C642 C 0.47404 0.38548 -0.14926
 C643 C 0.45880 0.39590 -0.14952
 C644 C 0.46592 0.41713 -0.12241
 C645 C 0.48835 0.42833 -0.09426
 C646 C 0.50309 0.41745 -0.09246
 C647 C 0.49605 0.39629 -0.11976
 H648 H 0.41315 0.29492 -0.29137
 H649 H 0.40606 0.26431 -0.35537
 H650 H 0.48458 0.28589 -0.34903
 H651 H 0.49160 0.31589 -0.28430
 H652 H 0.44172 0.38804 -0.17181
 H653 H 0.45411 0.42506 -0.12439
 H654 H 0.52042 0.42558 -0.07091
 H655 H 0.50813 0.38866 -0.11840
 C656 C 0.69292 0.13662 -0.30615
 C657 C 0.69670 0.12557 -0.34887
 C658 C 0.71436 0.13938 -0.38627
 C659 C 0.72881 0.16469 -0.38205
 C660 C 0.72539 0.17563 -0.33848
 C661 C 0.70764 0.16181 -0.30122
 C662 C 0.67328 0.12199 -0.26781
 N663 N 0.66755 0.13269 -0.22950
 N664 N 0.64916 0.11951 -0.19645
 C665 C 0.63576 0.09507 -0.20023
 N666 N 0.64168 0.08441 -0.23824
 N667 N 0.66002 0.09756 -0.27128
 C668 C 0.61431 0.08031 -0.16548
 C669 C 0.60065 0.05507 -0.17043
 C670 C 0.57918 0.04111 -0.14100
 C671 C 0.57076 0.05198 -0.10572
 C672 C 0.58493 0.07713 -0.09916
 C673 C 0.60648 0.09116 -0.12879
 H674 H 0.68582 0.10619 -0.35378
 H675 H 0.71696 0.13017 -0.41825
 H676 H 0.73585 0.19506 -0.33404
 H677 H 0.70525 0.17094 -0.26883
 H678 H 0.60618 0.04603 -0.19794
 H679 H 0.56885 0.02177 -0.14682
 H680 H 0.57897 0.08604 -0.07221
 H681 H 0.61662 0.11055 -0.12381
 C682 C 1.12971 0.43096 -0.30277
 C683 C 1.11856 0.41289 -0.34028
 C684 C 1.13337 0.41032 -0.37744
 C685 C 1.15955 0.42592 -0.37810
 C686 C 1.17076 0.44358 -0.34006
 C687 C 1.15604 0.44601 -0.30265
 C688 C 1.11408 0.43497 -0.26542
 N689 N 1.12502 0.45074 -0.22630
 N690 N 1.11132 0.45568 -0.19465
 C691 C 1.08606 0.44512 -0.20072
 N692 N 1.07502 0.42909 -0.23946
 N693 N 1.08874 0.42408 -0.27109
 C694 C 1.07137 0.45246 -0.16812
 C695 C 1.04589 0.44421 -0.17821
 C696 C 1.03309 0.45356 -0.15125
 C697 C 1.04557 0.47139 -0.11383
 C698 C 1.07056 0.47861 -0.10184
 C699 C 1.08330 0.46926 -0.12860
 H700 H 1.09837 0.40093 -0.34132
 H701 H 1.12440 0.39648 -0.40634
 H702 H 1.19092 0.45584 -0.34000
 H703 H 1.16528 0.46014 -0.27445
 H704 H 1.03607 0.43118 -0.20817
 H705 H 1.01379 0.44758 -0.16117
 H706 H 1.08060 0.49211 -0.07277
 H707 H 1.10280 0.47583 -0.11933
 C708 C 0.54758 0.68314 -0.27568
 C709 C 0.55481 0.68429 -0.32691
 C710 C 0.55168 0.69898 -0.36152
 C711 C 0.54113 0.71295 -0.34602
 C712 C 0.53460 0.71228 -0.29422
 C713 C 0.53778 0.69759 -0.25960
 C714 C 0.54894 0.66600 -0.24004
 N715 N 0.54202 0.66480 -0.19041
 N716 N 0.54141 0.64815 -0.15945
 C717 C 0.54770 0.63198 -0.17676
 N718 N 0.55503 0.63345 -0.22615
 N719 N 0.55568 0.65012 -0.25707
 C720 C 0.54421 0.61174 -0.14406
 C721 C 0.54599 0.59253 -0.16512
 C722 C 0.53872 0.57164 -0.13684
 C723 C 0.52972 0.56958 -0.08676
 C724 C 0.52974 0.58943 -0.06433
 C725 C 0.53683 0.61028 -0.09277
 H726 H 0.56265 0.67359 -0.34059
 H727 H 0.55771 0.69953 -0.40057
 H728 H 0.52596 0.72230 -0.28076
 H729 H 0.53190 0.69710 -0.22046
 H730 H 0.55180 0.59309 -0.20433
 H731 H 0.53909 0.55668 -0.15498
 H732 H 0.52287 0.58834 -0.02579
 H733 H 0.53548 0.62483 -0.07518
 C734 C 0.31133 -0.14213 -0.31268
 C735 C 0.28673 -0.15875 -0.29685
 C736 C 0.26771 -0.17132 -0.33277
 C737 C 0.27290 -0.16792 -0.38555
 C738 C 0.29774 -0.15124 -0.40086
 C739 C 0.31656 -0.13848 -0.36505
 C740 C 0.33157 -0.12824 -0.27533
 N741 N 0.35249 -0.10752 -0.28980
 N742 N 0.37086 -0.09480 -0.25680
 C743 C 0.36925 -0.10230 -0.20795
 N744 N 0.34838 -0.12314 -0.19334
 N745 N 0.32985 -0.13582 -0.22638
 C746 C 0.38989 -0.08767 -0.17189
 C747 C 0.39368 -0.09775 -0.12774
 C748 C 0.41419 -0.08366 -0.09564
 C749 C 0.43090 -0.05923 -0.10687
 C750 C 0.42662 -0.04917 -0.15035
 C751 C 0.40652 -0.06322 -0.18253
 H752 H 0.28206 -0.16172 -0.25670
 H753 H 0.24877 -0.18332 -0.31907
 H754 H 0.30296 -0.14853 -0.44078
 H755 H 0.33541 -0.12599 -0.37855
 H756 H 0.38115 -0.11659 -0.11865
 H757 H 0.41701 -0.09184 -0.06228
 H758 H 0.43910 -0.03040 -0.16015
 H759 H 0.40403 -0.05483 -0.21592
 C760 C 0.50353 -0.16140 0.33910
 C761 C 0.52397 -0.15155 0.37304
 C762 C 0.52695 -0.16625 0.40790
 C763 C 0.50958 -0.19110 0.40971
 C764 C 0.48925 -0.20107 0.37579
 C765 C 0.48622 -0.18637 0.34085
 C766 C 0.50043 -0.14564 0.30226
 N767 N 0.48047 -0.15476 0.27007
 N768 N 0.47781 -0.14051 0.23708
 C769 C 0.49500 -0.11652 0.23485
 N770 N 0.51493 -0.10744 0.26705
 N771 N 0.51757 -0.12167 0.30001
 C772 C 0.49229 -0.10054 0.19796
 C773 C 0.51076 -0.07595 0.19487
 C774 C 0.50853 -0.06086 0.15988
 C775 C 0.48775 -0.06993 0.12712
 C776 C 0.46914 -0.09443 0.13032
 C777 C 0.47139 -0.10960 0.16532
 H778 H 0.53770 -0.13244 0.37281
 H779 H 0.54286 -0.15825 0.43356
 H780 H 0.47567 -0.22023 0.37660
 H781 H 0.47030 -0.19458 0.31526
 H782 H 0.52711 -0.06831 0.21932
 H783 H 0.52322 -0.04206 0.15831
 H784 H 0.45288 -0.10193 0.10561
 H785 H 0.45678 -0.12842 0.16668
 C786 C 0.30173 0.42215 0.27955
 C787 C 0.28972 0.43563 0.27416
 C788 C 0.27268 0.43434 0.31101
 C789 C 0.26694 0.41925 0.35353
 C790 C 0.27825 0.40516 0.35817
 C791 C 0.29560 0.40670 0.32169
 C792 C 0.32167 0.42544 0.24319
 N793 N 0.33853 0.41871 0.25588
 N794 N 0.35780 0.42361 0.22517
 C795 C 0.36093 0.43529 0.18031
 N796 N 0.34376 0.44156 0.16715
 N797 N 0.32458 0.43678 0.19797
 C798 C 0.38385 0.44325 0.14895
 C799 C 0.38546 0.45224 0.09945
 C800 C 0.40831 0.46321 0.07291
 C801 C 0.43005 0.46571 0.09564
 C802 C 0.42811 0.45537 0.14371
 C803 C 0.40519 0.44411 0.16997
 H804 H 0.29415 0.44784 0.24239
 H805 H 0.26438 0.44557 0.30700
 H806 H 0.27408 0.39341 0.39073
 H807 H 0.30447 0.39604 0.32688
 H808 H 0.36931 0.45163 0.08197
 H809 H 0.40926 0.47098 0.03584
 H810 H 0.44455 0.45689 0.16197
 H811 H 0.40458 0.43728 0.20791
 C812 C 1.13533 0.69761 0.27004
 C813 C 1.12682 0.71305 0.28674
 C814 C 1.14061 0.73115 0.32269
 C815 C 1.16282 0.73377 0.34312
 C816 C 1.17139 0.71851 0.32630
 C817 C 1.15795 0.70078 0.28977
 C818 C 1.12051 0.67778 0.23356
 N819 N 1.13155 0.66733 0.20752
 N820 N 1.11814 0.64866 0.17671
 C821 C 1.09306 0.63952 0.17074
 N822 N 1.08200 0.65007 0.19650
 N823 N 1.09547 0.66888 0.22714
 C824 C 1.07811 0.61767 0.13904
 C825 C 1.05178 0.60372 0.14384
 C826 C 1.03819 0.58169 0.11795
 C827 C 1.05067 0.57332 0.08653
 C828 C 1.07679 0.58790 0.07974
 C829 C 1.09034 0.60974 0.10581
 H830 H 1.10953 0.71111 0.27208
 H831 H 1.13373 0.74278 0.33539
 H832 H 1.18842 0.72021 0.34195
 H833 H 1.16495 0.68912 0.27800
 H834 H 1.04178 0.60935 0.16906
 H835 H 1.01805 0.57089 0.12375
 H836 H 1.08696 0.58209 0.05547
 H837 H 1.11055 0.62016 0.10073
 C838 C 0.46434 0.14441 0.31261
 C839 C 0.47798 0.15423 0.35773
 C840 C 0.47342 0.16939 0.38824
 C841 C 0.45513 0.17509 0.37441
 C842 C 0.44209 0.16613 0.32852
 C843 C 0.44667 0.15091 0.29779
 C844 C 0.46804 0.12693 0.28231
 N845 N 0.45535 0.11760 0.23815
 N846 N 0.45847 0.10167 0.21145
 C847 C 0.47431 0.09426 0.22782
 N848 N 0.48695 0.10354 0.27205
 N849 N 0.48385 0.11950 0.29873
 C850 C 0.47833 0.07711 0.19706
 C851 C 0.49427 0.06889 0.21414
 C852 C 0.49935 0.05408 0.18312
 C853 C 0.48872 0.04740 0.13438
 C854 C 0.47209 0.05486 0.11819
 C855 C 0.46691 0.06946 0.14915
 H856 H 0.49184 0.14980 0.37020
 H857 H 0.48363 0.17614 0.42364
 H858 H 0.42780 0.17024 0.31748
 H859 H 0.43591 0.14376 0.26315
 H860 H 0.50325 0.07430 0.25102
 H861 H 0.51223 0.04857 0.19649
 H862 H 0.46347 0.04985 0.08089
 H863 H 0.45441 0.07525 0.13484
 C864 C 0.71219 0.58587 0.28282
 C865 C 0.71765 0.60276 0.32210
 C866 C 0.73523 0.60638 0.35965
 C867 C 0.74757 0.59313 0.35869
 C868 C 0.74260 0.57671 0.31890
 C869 C 0.72521 0.57321 0.28121
 C870 C 0.69196 0.58026 0.24559
 N871 N 0.68724 0.56431 0.20724
 N872 N 0.66780 0.55761 0.17622
 C873 C 0.65222 0.56656 0.18214
 N874 N 0.65720 0.58287 0.21991
 N875 N 0.67668 0.58960 0.25097
 C876 C 0.62915 0.55706 0.15093
 C877 C 0.61213 0.56525 0.15841
 C878 C 0.58895 0.55408 0.13333
 C879 C 0.58232 0.53443 0.10061
 C880 C 0.59982 0.52707 0.09118
 C881 C 0.62299 0.53830 0.11590
 H882 H 0.70799 0.61283 0.32444
 H883 H 0.73883 0.61913 0.39013
 H884 H 0.75176 0.56616 0.31776
 H885 H 0.72146 0.56003 0.25167
 H886 H 0.61635 0.57976 0.18488
 H887 H 0.57583 0.56017 0.14114
 H888 H 0.59534 0.51217 0.06563
 H889 H 0.63568 0.53164 0.10880
 C890 C 0.87259 0.30900 0.28351
 C891 C 0.88422 0.30350 0.32295
 C892 C 0.86973 0.28595 0.35928
 C893 C 0.84337 0.27367 0.35703
 C894 C 0.83174 0.27864 0.31700
 C895 C 0.84617 0.29607 0.28055
 C896 C 0.88775 0.32880 0.24706
 N897 N 0.87643 0.33382 0.20874
 N898 N 0.88974 0.35245 0.17777
 C899 C 0.91497 0.36691 0.18372
 N900 N 0.92637 0.36173 0.22167
 N901 N 0.91305 0.34306 0.25265
 C902 C 0.92937 0.38867 0.15146
 C903 C 0.95521 0.40462 0.15950
 C904 C 0.96813 0.42623 0.13215
 C905 C 0.95547 0.43235 0.09633
 C906 C 0.92993 0.41596 0.08680
 C907 C 0.91705 0.39438 0.11398
 H908 H 0.90450 0.31301 0.32629
 H909 H 0.87904 0.28225 0.38976
 H910 H 0.81142 0.26937 0.31466
 H911 H 0.83656 0.29977 0.25073
 H912 H 0.96534 0.40075 0.18786
 H913 H 0.98785 0.43846 0.14017
 H914 H 0.91970 0.42005 0.05907
 H915 H 0.89723 0.38247 0.10643
   
