data_POSCAR
  _audit_creation_date              2014-09-24
  _audit_creation_method            'ToBaCCo'
  _symmetry_space_group_name_H-M    'P1'
  _symmetry_Int_Tables_number       1
  _symmetry_cell_setting            triclinic
  loop_
  _symmetry_equiv_pos_as_xyz
 x,y,z
_cell_length_a 27.0476
_cell_length_b 27.6510
_cell_length_c 11.4273
_cell_angle_alpha 90.306000
_cell_angle_beta 90.254400
_cell_angle_gamma 125.248900
loop_
  _atom_site_label
  _atom_site_type_symbol
  _atom_site_fract_x
  _atom_site_fract_y
  _atom_site_fract_z
C1 C 0.50175 0.85193 0.50009
 C2 C 0.51067 0.88107 0.60809
 C3 C 0.53516 0.94195 0.60774
 C4 C 0.55399 0.97471 0.50323
 C5 C 0.54537 0.94425 0.39743
 C6 C 0.51695 0.88303 0.39471
 C7 C 0.57943 1.03952 0.50331
 C8 C 0.57412 1.06590 0.40252
 C9 C 0.60058 1.12692 0.39834
 C10 C 0.62641 1.16060 0.50160
 C11 C 0.62786 1.13477 0.60534
 C12 C 0.60772 1.07537 0.60429
 H13 H 0.47738 0.80431 0.49588
 H14 H 0.53819 0.96325 0.68975
 H15 H 0.55896 0.96729 0.31496
 H16 H 0.55014 1.03950 0.32557
 H17 H 0.64214 1.20653 0.50510
 H18 H 0.61217 1.05722 0.68393
 C19 C 0.16335 0.62530 0.50282
 C20 C 0.13260 0.61409 0.60933
 C21 C 0.06914 0.58248 0.60679
 C22 C 0.03551 0.55837 0.50152
 C23 C 0.06776 0.56599 0.39834
 C24 C 0.13111 0.60089 0.39785
 C25 C -0.03243 0.52579 0.49934
 C26 C -0.06403 0.51705 0.39350
 C27 C -0.12717 0.48764 0.39040
 C28 C -0.15889 0.47020 0.49688
 C29 C -0.12895 0.47742 0.60258
 C30 C -0.06667 0.50309 0.60278
 H31 H 0.21191 0.64791 0.50117
 H32 H 0.04673 0.57769 0.68829
 H33 H 0.04444 0.54472 0.31712
 H34 H -0.04007 0.53357 0.31192
 H35 H -0.20767 0.44573 0.49827
 H36 H -0.04588 0.50428 0.68465
 C37 C 0.36797 0.52300 0.49511
 C38 C 0.37754 0.50532 0.60331
 C39 C 0.40609 0.47592 0.60425
 C40 C 0.42963 0.46813 0.50112
 C41 C 0.42399 0.49151 0.39635
 C42 C 0.39160 0.51666 0.39217
 C43 C 0.46066 0.43695 0.50284
 C44 C 0.47088 0.41661 0.39798
 C45 C 0.50111 0.38913 0.39822
 C46 C 0.51747 0.37730 0.50524
 C47 C 0.50750 0.39630 0.61050
 C48 C 0.48147 0.42785 0.60866
 H49 H 0.34770 0.54709 0.49056
 H50 H 0.40950 0.45934 0.68697
 H51 H 0.44521 0.49149 0.31663
 H52 H 0.45599 0.42184 0.31426
 H53 H 0.54229 0.35753 0.50685
 H54 H 0.47879 0.44563 0.69079
 O55 O 0.38142 0.60180 -0.10919
 O56 O 0.44241 0.71553 -0.14256
 C57 C 0.44436 0.76159 -0.16228
 O58 O 0.41923 0.77861 -0.09665
 O59 O 0.30345 0.71701 -0.13368
 C60 C 0.25399 0.66855 -0.15973
 O61 O 0.23218 0.62143 -0.10116
 O62 O 0.28614 0.57037 -0.14483
 C63 C 0.33289 0.57263 -0.16975
 O64 O 0.39351 0.62173 0.12290
 O65 O 0.45988 0.73565 0.09335
 C66 C 0.44577 0.76452 0.15462
 O67 O 0.39920 0.76374 0.13475
 O68 O 0.28293 0.70660 0.10139
 C69 C 0.24915 0.65813 0.15605
 O70 O 0.24463 0.61123 0.12948
 O71 O 0.29436 0.55580 0.08913
 C72 C 0.34294 0.57404 0.14590
 Cr73 Cr 0.41677 0.66879 -0.00871
 Cr74 Cr 0.35077 0.73873 0.00141
 Cr75 Cr 0.26730 0.59237 -0.00671
 O76 O 0.34492 0.66659 -0.00322
 O77 O 0.53574 0.29151 -0.08990
 O78 O 0.58134 0.23259 -0.12799
 C79 C 0.62492 0.22983 -0.15422
 O80 O 0.67481 0.25715 -0.09703
 O81 O 0.74341 0.37092 -0.13788
 C82 C 0.75155 0.41994 -0.15849
 O83 O 0.72721 0.43996 -0.09853
 O84 O 0.61101 0.38532 -0.12952
 C85 C 0.55869 0.33878 -0.14923
 O86 O 0.55151 0.28477 0.14407
 O87 O 0.59198 0.22080 0.10468
 C88 C 0.64018 0.23962 0.16336
 O89 O 0.69138 0.28474 0.13546
 O90 O 0.76399 0.39673 0.09264
 C91 C 0.75078 0.42524 0.15776
 O92 O 0.70674 0.42820 0.13687
 O93 O 0.59222 0.37930 0.10248
 C94 C 0.55925 0.33357 0.16529
 Cr95 Cr 0.56791 0.25989 0.00748
 Cr96 Cr 0.71583 0.32731 -0.00173
 Cr97 Cr 0.65913 0.40569 0.00268
 O98 O 0.64752 0.33092 0.00151
 C99 C 0.49042 0.85048 -0.28503
 C100 C 0.47548 0.79549 -0.26844
 H101 H 0.48665 0.87293 -0.21110
 H102 H 0.48462 0.77350 -0.33441
 C103 C 0.16251 0.62793 -0.28145
 C104 C 0.22251 0.66647 -0.26674
 H105 H 0.13555 0.60479 -0.20498
 H106 H 0.25048 0.69661 -0.33557
 C107 C 0.36576 0.52180 -0.28894
 C108 C 0.33149 0.54221 -0.27691
 H109 H 0.38751 0.51971 -0.21098
 H110 H 0.30239 0.53817 -0.34721
 C111 C 0.64348 0.16856 -0.28338
 C112 C 0.61545 0.19443 -0.25891
 H113 H 0.67405 0.16927 -0.22071
 H114 H 0.58076 0.18765 -0.31911
 C115 C 0.83621 0.45094 -0.28909
 C116 C 0.79090 0.45474 -0.25703
 H117 H 0.84798 0.42691 -0.23470
 H118 H 0.78196 0.48268 -0.30495
 C119 C 0.53197 0.39055 -0.27905
 C120 C 0.52380 0.33985 -0.24704
 H121 H 0.55889 0.42978 -0.22427
 H122 H 0.49314 0.29936 -0.29620
 C123 C 0.84292 0.47168 0.28085
 C124 C 0.78560 0.45397 0.26573
 H125 H 0.86735 0.47286 0.20459
 H126 H 0.76203 0.45958 0.33477
 C127 C 0.59933 0.15255 0.29279
 C128 C 0.63860 0.21050 0.27148
 H129 H 0.56873 0.12404 0.22303
 H130 H 0.67542 0.23863 0.33209
 C131 C 0.52181 0.38001 0.28583
 C132 C 0.52942 0.33682 0.26929
 H133 H 0.53275 0.41098 0.21596
 H134 H 0.51428 0.30302 0.33501
 C135 C 0.16305 0.60571 0.28939
 C136 C 0.21420 0.65643 0.25620
 H137 H 0.14370 0.56624 0.23545
 H138 H 0.23106 0.69713 0.30422
 C139 C 0.49255 0.85148 0.28154
 C140 C 0.48453 0.80023 0.25469
 H141 H 0.47687 0.86978 0.22010
 H142 H 0.50381 0.78305 0.30929
 C143 C 0.38995 0.54359 0.28248
 C144 C 0.34035 0.53889 0.24492
 H145 H 0.43120 0.56855 0.23194
 H146 H 0.29773 0.51026 0.28978
   
