data_POSCAR
  _audit_creation_date              2014-09-24
  _audit_creation_method            'ToBaCCo'
  _symmetry_space_group_name_H-M    'P1'
  _symmetry_Int_Tables_number       1
  _symmetry_cell_setting            triclinic
  loop_
  _symmetry_equiv_pos_as_xyz
 x,y,z
_cell_length_a 37.6129
_cell_length_b 38.1977
_cell_length_c 34.7818
_cell_angle_alpha 90.235700
_cell_angle_beta 89.911900
_cell_angle_gamma 89.914800
loop_
  _atom_site_label
  _atom_site_type_symbol
  _atom_site_fract_x
  _atom_site_fract_y
  _atom_site_fract_z
C1 C -0.10374 0.32338 0.00009
 C2 C -0.08625 0.32586 0.03578
 C3 C -0.04877 0.32629 0.03586
 C4 C -0.02908 0.31928 0.00220
 C5 C -0.04787 0.31281 -0.03216
 C6 C -0.08518 0.31573 -0.03411
 C7 C 0.01089 0.31701 0.00298
 C8 C 0.03089 0.32081 -0.03113
 C9 C 0.06760 0.31462 -0.03177
 C10 C 0.08548 0.30877 0.00284
 C11 C 0.06669 0.30602 0.03749
 C12 C 0.02943 0.30922 0.03725
 H13 H -0.13250 0.32421 -0.00059
 H14 H -0.03493 0.33266 0.06205
 H15 H -0.03316 0.30575 -0.05746
 H16 H 0.01829 0.32818 -0.05778
 H17 H 0.11392 0.30418 0.00253
 H18 H 0.01522 0.30526 0.06386
 C19 C 0.40964 0.82385 0.49904
 C20 C 0.42840 0.82474 0.53359
 C21 C 0.46563 0.82338 0.53299
 C22 C 0.48472 0.81946 0.49801
 C23 C 0.46455 0.81661 0.46360
 C24 C 0.42731 0.81987 0.46395
 C25 C 0.52504 0.81867 0.49754
 C26 C 0.54442 0.82242 0.46275
 C27 C 0.58172 0.82289 0.46252
 C28 C 0.60018 0.82096 0.49721
 C29 C 0.58217 0.81693 0.53203
 C30 C 0.54492 0.81462 0.53197
 H31 H 0.38083 0.82385 0.49966
 H32 H 0.47894 0.82568 0.56029
 H33 H 0.47708 0.81172 0.43620
 H34 H 0.53129 0.82538 0.43543
 H35 H 0.62899 0.82042 0.49688
 H36 H 0.53217 0.80965 0.55917
 C37 C 1.10041 0.71105 -0.00198
 C38 C 1.08198 0.71035 0.03325
 C39 C 1.04463 0.71218 0.03242
 C40 C 1.02583 0.71886 -0.00190
 C41 C 1.04577 0.72362 -0.03600
 C42 C 1.08300 0.71856 -0.03685
 C43 C 0.98564 0.72000 -0.00205
 C44 C 0.96608 0.71515 -0.03642
 C45 C 0.92871 0.71526 -0.03637
 C46 C 0.91051 0.71747 -0.00129
 C47 C 0.92897 0.72249 0.03319
 C48 C 0.96620 0.72505 0.03244
 H49 H 1.12910 0.70861 -0.00187
 H50 H 1.03033 0.70663 0.05852
 H51 H 1.03213 0.72998 -0.06218
 H52 H 0.97933 0.71046 -0.06349
 H53 H 0.88170 0.71685 -0.00094
 H54 H 0.97959 0.73044 0.05921
 C55 C 0.58721 0.20212 0.50176
 C56 C 0.56913 0.19482 0.53610
 C57 C 0.53246 0.18821 0.53503
 C58 C 0.51280 0.19263 0.50096
 C59 C 0.53139 0.20183 0.46722
 C60 C 0.56849 0.20582 0.46719
 C61 C 0.47297 0.19027 0.50113
 C62 C 0.45404 0.18429 0.46683
 C63 C 0.41689 0.18726 0.46563
 C64 C 0.39795 0.19206 0.50001
 C65 C 0.41598 0.19697 0.53485
 C66 C 0.45333 0.19670 0.53502
 H67 H 0.61559 0.20702 0.50228
 H68 H 0.51947 0.18013 0.56124
 H69 H 0.51725 0.20639 0.44074
 H70 H 0.46794 0.17809 0.44046
 H71 H 0.36923 0.19437 0.49933
 H72 H 0.46681 0.20222 0.56173
 C73 C 0.70235 -0.09772 0.00063
 C74 C 0.70966 -0.08027 0.03547
 C75 C 0.71280 -0.04342 0.03479
 C76 C 0.70638 -0.02405 0.00096
 C77 C 0.69881 -0.04274 -0.03318
 C78 C 0.69860 -0.07947 -0.03393
 C79 C 0.70752 0.01543 0.00131
 C80 C 0.71410 0.03437 -0.03284
 C81 C 0.71198 0.07126 -0.03369
 C82 C 0.70565 0.08918 0.00111
 C83 C 0.70243 0.07130 0.03593
 C84 C 0.70186 0.03460 0.03567
 H85 H 0.70172 -0.12607 -0.00022
 H86 H 0.71952 -0.02955 0.06069
 H87 H 0.69268 -0.02908 -0.05946
 H88 H 0.71972 0.02029 -0.05902
 H89 H 0.70557 0.11756 0.00170
 H90 H 0.69638 0.02151 0.06248
 C91 C 0.20194 0.40283 0.50321
 C92 C 0.19874 0.42215 0.53738
 C93 C 0.19860 0.45888 0.53577
 C94 C 0.20558 0.47670 0.50111
 C95 C 0.21055 0.45641 0.46751
 C96 C 0.20804 0.41973 0.46818
 C97 C 0.20966 0.51592 0.50034
 C98 C 0.20714 0.53470 0.46556
 C99 C 0.21397 0.57077 0.46417
 C100 C 0.21997 0.58916 0.49849
 C101 C 0.22211 0.57142 0.53358
 C102 C 0.21782 0.53491 0.53414
 H103 H 0.20199 0.37447 0.50417
 H104 H 0.19339 0.47315 0.56203
 H105 H 0.21685 0.46874 0.44053
 H106 H 0.19990 0.52173 0.43909
 H107 H 0.22488 0.61711 0.49767
 H108 H 0.22110 0.52165 0.56121
 C109 C 0.30018 1.08855 -0.00094
 C110 C 0.30514 1.07058 0.03359
 C111 C 0.31086 1.03441 0.03276
 C112 C 0.30774 1.01512 -0.00170
 C113 C 0.29951 1.03358 -0.03578
 C114 C 0.29682 1.07050 -0.03612
 C115 C 0.31203 0.97590 -0.00178
 C116 C 0.32050 0.95757 -0.03591
 C117 C 0.32211 0.92068 -0.03693
 C118 C 0.31966 0.90249 -0.00192
 C119 C 0.31148 0.91984 0.03248
 C120 C 0.30688 0.95632 0.03211
 H121 H 0.29625 1.11665 0.00017
 H122 H 0.31774 1.02176 0.05944
 H123 H 0.29600 1.01922 -0.06217
 H124 H 0.32672 0.97202 -0.06157
 H125 H 0.32142 0.87418 -0.00158
 H126 H 0.29924 0.96919 0.05847
 C127 C 0.78372 0.58252 0.50264
 C128 C 0.78891 0.56427 0.53701
 C129 C 0.79563 0.52808 0.53562
 C130 C 0.79460 0.50917 0.50052
 C131 C 0.78704 0.52825 0.46664
 C132 C 0.78256 0.56479 0.46737
 C133 C 0.80135 0.47006 0.49928
 C134 C 0.80802 0.45235 0.46407
 C135 C 0.81330 0.41601 0.46276
 C136 C 0.81419 0.39709 0.49702
 C137 C 0.80795 0.41356 0.53234
 C138 C 0.80048 0.44959 0.53321
 H139 H 0.77902 0.61052 0.50347
 H140 H 0.80220 0.51538 0.56230
 H141 H 0.78487 0.51532 0.43919
 H142 H 0.80904 0.46604 0.43706
 H143 H 0.81696 0.36887 0.49592
 H144 H 0.79354 0.46095 0.56065
 O145 O 0.23509 0.28232 0.20611
 O146 O 0.29430 0.24207 0.27792
 O147 O 0.28404 0.23490 0.20425
 O148 O 0.24946 0.29347 0.27870
 O149 O 0.20768 0.25533 0.29371
 O150 O 0.24318 0.19564 0.21873
 O151 O 0.25227 0.20406 0.29261
 O152 O 0.19363 0.24371 0.22066
 Cu153 Cu 0.26981 0.26707 0.24033
 Cu154 Cu 0.21989 0.22086 0.25765
 C155 C 0.20434 0.26939 0.20079
 C156 C 0.28304 0.21663 0.29803
 C157 C 0.26956 0.20543 0.19849
 C158 C 0.22339 0.28436 0.29948
 O159 O 0.69030 0.73413 0.26657
 O160 O 0.76268 0.70358 0.20355
 O161 O 0.74181 0.68898 0.27426
 O162 O 0.71259 0.74897 0.19757
 O163 O 0.74708 0.79048 0.22137
 O164 O 0.77729 0.73020 0.29670
 O165 O 0.79763 0.74541 0.22565
 O166 O 0.72546 0.77519 0.29001
 Cu167 Cu 0.72344 0.71458 0.23340
 Cu168 Cu 0.76556 0.76418 0.26106
 C169 C 0.69548 0.75991 0.28901
 C170 C 0.79183 0.72030 0.20243
 C171 C 0.76415 0.69967 0.29901
 C172 C 0.72527 0.77978 0.19614
 O173 O 0.78325 0.26482 0.21166
 O174 O 0.72763 0.22700 0.28770
 O175 O 0.73995 0.21131 0.21508
 O176 O 0.76953 0.28045 0.28240
 O177 O 0.72516 0.31410 0.26340
 O178 O 0.69507 0.24483 0.19738
 O179 O 0.68298 0.26086 0.27010
 O180 O 0.73819 0.29745 0.19237
 Cu181 Cu 0.75944 0.24229 0.25093
 Cu182 Cu 0.70569 0.28244 0.22898
 C183 C 0.77033 0.28758 0.18916
 C184 C 0.69620 0.23826 0.29270
 C185 C 0.71277 0.21663 0.19420
 C186 C 0.75237 0.30910 0.28426
 O187 O 0.28577 0.77331 0.28651
 O188 O 0.21643 0.74375 0.21798
 O189 O 0.23119 0.73177 0.29073
 O190 O 0.26651 0.79001 0.21708
 O191 O 0.30292 0.74855 0.19649
 O192 O 0.26631 0.68910 0.27068
 O193 O 0.25293 0.70229 0.19768
 O194 O 0.32089 0.73072 0.26621
 Cu195 Cu 0.24635 0.76372 0.25523
 Cu196 Cu 0.28920 0.71334 0.23083
 C197 C 0.31518 0.75681 0.28801
 C198 C 0.22369 0.71864 0.19509
 C199 C 0.24297 0.70085 0.29398
 C200 C 0.29031 0.77943 0.19398
 O201 O 0.77183 0.27425 0.71220
 O202 O 0.74737 0.20507 0.78162
 O203 O 0.73331 0.21796 0.70882
 O204 O 0.78908 0.25889 0.78251
 O205 O 0.74368 0.29091 0.80254
 O206 O 0.68752 0.24970 0.72819
 O207 O 0.70213 0.23771 0.80075
 O208 O 0.72618 0.30596 0.73202
 Cu209 Cu 0.76484 0.23573 0.74422
 Cu210 Cu 0.71018 0.27417 0.76766
 C211 C 0.75299 0.30189 0.71032
 C212 C 0.72112 0.21043 0.80401
 C213 C 0.70113 0.22731 0.70532
 C214 C 0.77597 0.28136 0.80544
 O215 O 0.27458 0.79230 0.78199
 O216 O 0.23735 0.73443 0.70761
 O217 O 0.22072 0.74982 0.77962
 O218 O 0.29035 0.77765 0.71155
 O219 O 0.32530 0.73507 0.73182
 O220 O 0.25562 0.70705 0.79942
 O221 O 0.27223 0.69161 0.72729
 O222 O 0.30874 0.74917 0.80256
 Cu223 Cu 0.25200 0.76765 0.74314
 Cu224 Cu 0.29372 0.71615 0.76709
 C225 C 0.29779 0.78056 0.80508
 C226 C 0.24922 0.70345 0.70401
 C227 C 0.22688 0.72443 0.80214
 C228 C 0.31976 0.76130 0.71029
 O229 O 0.24415 0.29789 0.72528
 O230 O 0.27963 0.23782 0.79845
 O231 O 0.29264 0.24956 0.72527
 O232 O 0.23456 0.28846 0.79859
 O233 O 0.19255 0.25039 0.78386
 O234 O 0.25114 0.21113 0.71001
 O235 O 0.23853 0.19901 0.78309
 O236 O 0.20289 0.25913 0.71023
 Cu237 Cu 0.26704 0.27216 0.76327
 Cu238 Cu 0.21713 0.22596 0.74549
 C239 C 0.21777 0.28851 0.70491
 C240 C 0.26461 0.20844 0.80376
 C241 C 0.28169 0.22443 0.70450
 C242 C 0.20380 0.27591 0.80406
 O243 O 0.72005 0.77187 0.71195
 O244 O 0.78996 0.74424 0.78001
 O245 O 0.77378 0.72939 0.70822
 O246 O 0.73810 0.78919 0.78161
 O247 O 0.70306 0.74736 0.80336
 O248 O 0.73898 0.68705 0.72911
 O249 O 0.75460 0.70240 0.80103
 O250 O 0.68509 0.72978 0.73319
 Cu251 Cu 0.75906 0.76274 0.74330
 Cu252 Cu 0.71701 0.71237 0.76875
 C253 C 0.69074 0.75536 0.71082
 C254 C 0.78373 0.71906 0.80285
 C255 C 0.76206 0.69835 0.70545
 C256 C 0.71484 0.77853 0.80526
 C257 C 0.30371 0.14297 0.10504
 C258 C 0.28322 0.12843 0.13473
 N259 N 0.27289 0.09448 0.13226
 C260 C 0.28153 0.07459 0.10110
 C261 C 0.30082 0.08950 0.07052
 N262 N 0.31158 0.12342 0.07352
 N263 N 0.31413 0.17686 0.10745
 C264 C 0.30457 0.19710 0.13796
 C265 C 0.28289 0.18305 0.16709
 N266 N 0.27292 0.14884 0.16483
 H267 H 0.27186 0.04796 0.09940
 H268 H 0.31290 0.22420 0.13880
 C269 C 0.79081 0.63635 0.60922
 C270 C 0.77215 0.62158 0.64012
 N271 N 0.76141 0.58771 0.63784
 C272 C 0.76802 0.56810 0.60583
 C273 C 0.78561 0.58320 0.57420
 N274 N 0.79670 0.61707 0.57696
 N275 N 0.80159 0.67016 0.61138
 C276 C 0.79406 0.69013 0.64279
 C277 C 0.77418 0.67591 0.67329
 N278 N 0.76391 0.64173 0.67123
 H279 H 0.75823 0.54150 0.60450
 H280 H 0.80255 0.71719 0.64330
 C281 C 0.70568 0.84512 0.10103
 C282 C 0.72226 0.85825 0.13402
 N283 N 0.73386 0.89184 0.13454
 C284 C 0.72979 0.91301 0.10348
 C285 C 0.71377 0.89980 0.06955
 N286 N 0.70218 0.86593 0.06983
 N287 N 0.69389 0.81156 0.10039
 C288 C 0.69844 0.79030 0.13125
 C289 C 0.71610 0.80304 0.16405
 N290 N 0.72744 0.83691 0.16460
 H291 H 0.74051 0.93912 0.10537
 H292 H 0.68932 0.76347 0.12969
 C293 C 0.19018 0.35178 0.61033
 C294 C 0.21095 0.36514 0.64048
 N295 N 0.22473 0.39781 0.63775
 C296 C 0.21929 0.41756 0.60589
 C297 C 0.19972 0.40377 0.57481
 N298 N 0.18545 0.37113 0.57807
 N299 N 0.17659 0.31898 0.61302
 C300 C 0.18344 0.29865 0.64417
 C301 C 0.20560 0.31140 0.67363
 N302 N 0.21852 0.34458 0.67111
 H303 H 0.23179 0.44299 0.60413
 H304 H 0.17286 0.27234 0.64513
 C305 C 0.83584 0.32207 0.09857
 C306 C 0.85068 0.31008 0.13295
 N307 N 0.88649 0.30722 0.13607
 C308 C 0.90824 0.31477 0.10595
 C309 C 0.89341 0.32459 0.07015
 N310 N 0.85736 0.32851 0.06816
 N311 N 0.80000 0.32502 0.09533
 C312 C 0.77823 0.31573 0.12481
 C313 C 0.79297 0.30191 0.15862
 N314 N 0.82899 0.29980 0.16198
 H315 H 0.93637 0.31043 0.10970
 H316 H 0.74972 0.31773 0.12123
 C317 C 0.39526 0.79017 0.62616
 C318 C 0.36350 0.80908 0.63077
 N319 N 0.35554 0.83522 0.60593
 C320 C 0.37740 0.84264 0.57591
 C321 C 0.40846 0.82271 0.57012
 N322 N 0.41690 0.79728 0.59590
 N323 N 0.40274 0.76346 0.65049
 C324 C 0.37957 0.75434 0.67879
 C325 C 0.34715 0.77247 0.68265
 N326 N 0.34020 0.79974 0.65870
 H327 H 0.36994 0.86299 0.55590
 H328 H 0.38601 0.73259 0.69737
 C329 C 0.15667 0.70072 0.09978
 C330 C 0.14272 0.71482 0.13388
 N331 N 0.10807 0.72466 0.13504
 C332 C 0.08685 0.72166 0.10351
 C333 C 0.10124 0.70928 0.06829
 N334 N 0.13597 0.69891 0.06796
 N335 N 0.19111 0.69028 0.09853
 C336 C 0.21252 0.69396 0.12968
 C337 C 0.19924 0.70979 0.16340
 N338 N 0.16441 0.71969 0.16474
 H339 H 0.05987 0.73121 0.10568
 H340 H 0.24010 0.68605 0.12750
 C341 C 0.64165 0.19529 0.60864
 C342 C 0.62510 0.21222 0.63980
 N343 N 0.59020 0.22083 0.63755
 C344 C 0.57114 0.21378 0.60530
 C345 C 0.58788 0.19793 0.57337
 N346 N 0.62286 0.18895 0.57604
 N347 N 0.67663 0.18685 0.61087
 C348 C 0.69601 0.19520 0.64257
 C349 C 0.67986 0.21351 0.67318
 N350 N 0.64460 0.22129 0.67108
 H351 H 0.54365 0.22208 0.60403
 H352 H 0.72403 0.18876 0.64317
 C353 C 0.70505 0.14435 0.89935
 C354 C 0.72330 0.13188 0.86694
 N355 N 0.73683 0.09891 0.86729
 C356 C 0.73308 0.07788 0.89861
 C357 C 0.71569 0.09075 0.93195
 N358 N 0.70220 0.12388 0.93085
 N359 N 0.69072 0.17690 0.89912
 C360 C 0.69424 0.19789 0.86799
 C361 C 0.71369 0.18614 0.83582
 N362 N 0.72779 0.15320 0.83604
 H363 H 0.74520 0.05225 0.89770
 H364 H 0.68299 0.22397 0.86897
 C365 C 0.21316 0.64136 0.39096
 C366 C 0.23192 0.62570 0.36046
 N367 N 0.24236 0.59180 0.36339
 C368 C 0.23535 0.57299 0.39564
 C369 C 0.21763 0.58897 0.42685
 N370 N 0.20687 0.62288 0.42351
 N371 N 0.20264 0.67520 0.38812
 C372 C 0.21054 0.69435 0.35643
 C373 C 0.23054 0.67923 0.32635
 N374 N 0.24055 0.64503 0.32907
 H375 H 0.24492 0.54632 0.39750
 H376 H 0.20225 0.72147 0.35536
 C377 C 0.32634 0.84560 0.89791
 C378 C 0.31392 0.86004 0.86354
 N379 N 0.30808 0.89501 0.86140
 C380 C 0.31306 0.91618 0.89246
 C381 C 0.32321 0.90150 0.92814
 N382 N 0.33016 0.86642 0.92921
 N383 N 0.33221 0.81061 0.90021
 C384 C 0.32529 0.78922 0.86983
 C385 C 0.31084 0.80337 0.83603
 N386 N 0.30591 0.83862 0.83358
 H387 H 0.30639 0.94352 0.88947
 H388 H 0.32940 0.76131 0.87274
 C389 C 0.78016 0.38358 0.36909
 C390 C 0.80020 0.35285 0.36419
 N391 N 0.82684 0.34549 0.38915
 C392 C 0.83361 0.36689 0.41959
 C393 C 0.81239 0.39679 0.42578
 N394 N 0.78656 0.40468 0.39980
 N395 N 0.75298 0.39052 0.34467
 C396 C 0.74438 0.36775 0.31602
 C397 C 0.76350 0.33625 0.31193
 N398 N 0.79133 0.32987 0.33593
 H399 H 0.85442 0.35991 0.43962
 H400 H 0.72217 0.37373 0.29742
 C401 C 0.14136 0.31166 0.89723
 C402 C 0.12594 0.29242 0.86710
 N403 N 0.09112 0.28345 0.86915
 C404 C 0.07114 0.29225 0.90033
 C405 C 0.08685 0.31026 0.93138
 N406 N 0.12169 0.31967 0.92880
 N407 N 0.17618 0.32064 0.89520
 C408 C 0.19648 0.31076 0.86467
 C409 C 0.18150 0.29024 0.83517
 N410 N 0.14639 0.28179 0.83704
 H411 H 0.04377 0.28362 0.90164
 H412 H 0.22433 0.31784 0.86416
 C413 C 0.61697 0.78934 0.37004
 C414 C 0.64886 0.80818 0.36685
 N415 N 0.65600 0.83420 0.39233
 C416 C 0.63325 0.84148 0.42169
 C417 C 0.60215 0.82147 0.42622
 N418 N 0.59448 0.79622 0.39973
 N419 N 0.61028 0.76277 0.34505
 C420 C 0.63437 0.75367 0.31754
 C421 C 0.66698 0.77158 0.31526
 N422 N 0.67312 0.79878 0.33979
 H423 H 0.64012 0.86166 0.44232
 H424 H 0.62855 0.73196 0.29848
 C425 C 0.85471 0.70040 0.89468
 C426 C 0.86505 0.72123 0.86347
 N427 N 0.89711 0.73750 0.86428
 C428 C 0.91905 0.73441 0.89518
 C429 C 0.90815 0.71472 0.92725
 N430 N 0.87617 0.69801 0.92591
 N431 N 0.82270 0.68412 0.89398
 C432 C 0.80017 0.68824 0.86381
 C433 C 0.80970 0.71031 0.83315
 N434 N 0.84221 0.72607 0.83368
 H435 H 0.94395 0.74855 0.89542
 H436 H 0.77453 0.67543 0.86450
 C437 C 0.34497 0.18452 0.39254
 C438 C 0.36002 0.20423 0.36268
 N439 N 0.39404 0.21551 0.36571
 C440 C 0.41359 0.20854 0.39756
 C441 C 0.39822 0.18998 0.42832
 N442 N 0.36417 0.17826 0.42482
 N443 N 0.31083 0.17342 0.38952
 C444 C 0.29081 0.18176 0.35834
 C445 C 0.30534 0.20287 0.32920
 N446 N 0.33981 0.21330 0.33203
 H447 H 0.44022 0.21905 0.39957
 H448 H 0.26343 0.17317 0.35711
 C449 C 0.68865 0.84606 0.89757
 C450 C 0.70671 0.85861 0.86517
 N451 N 0.71875 0.89207 0.86488
 C452 C 0.71431 0.91342 0.89591
 C453 C 0.69762 0.90054 0.92928
 N454 N 0.68489 0.86709 0.92890
 N455 N 0.67708 0.81240 0.89806
 C456 C 0.68342 0.79045 0.86787
 C457 C 0.70291 0.80251 0.83602
 N458 N 0.71372 0.83655 0.83542
 H459 H 0.72558 0.93944 0.89518
 H460 H 0.67454 0.76356 0.86942
 C461 C 0.19960 0.34863 0.39524
 C462 C 0.22515 0.35852 0.36800
 N463 N 0.24425 0.38818 0.37347
 C464 C 0.23902 0.40855 0.40507
 C465 C 0.21357 0.39875 0.43273
 N466 N 0.19451 0.36881 0.42704
 N467 N 0.18083 0.31865 0.38978
 C468 C 0.18678 0.29789 0.35848
 C469 C 0.21294 0.30744 0.33155
 N470 N 0.23131 0.33772 0.33707
 H471 H 0.25531 0.43161 0.40893
 H472 H 0.17188 0.27385 0.35517
 C473 C 0.29232 0.14492 0.89813
 C474 C 0.27599 0.13027 0.86571
 N475 N 0.26781 0.09569 0.86553
 C476 C 0.27499 0.07503 0.89639
 C477 C 0.29037 0.08982 0.92984
 N478 N 0.29856 0.12463 0.92927
 N479 N 0.30123 0.17932 0.89824
 C480 C 0.29406 0.19995 0.86747
 C481 C 0.27640 0.18574 0.83541
 N482 N 0.26786 0.15105 0.83532
 H483 H 0.26691 0.04795 0.89502
 H484 H 0.30093 0.22744 0.86863
 C485 C 0.78676 0.63693 0.39597
 C486 C 0.76518 0.62419 0.36619
 N487 N 0.75012 0.59205 0.36950
 C488 C 0.75558 0.57208 0.40130
 C489 C 0.77684 0.58495 0.43151
 N490 N 0.79187 0.61722 0.42787
 N491 N 0.80182 0.66904 0.39278
 C492 C 0.79599 0.68924 0.36132
 C493 C 0.77372 0.67698 0.33170
 N494 N 0.75895 0.64452 0.33491
 H495 H 0.74270 0.54685 0.40331
 H496 H 0.80802 0.71492 0.35990
 C497 C 0.15768 0.70837 0.89624
 C498 C 0.14619 0.72720 0.86413
 N499 N 0.11334 0.74196 0.86450
 C500 C 0.09149 0.73899 0.89560
 C501 C 0.10334 0.72104 0.92879
 N502 N 0.13638 0.70620 0.92761
 N503 N 0.19026 0.69312 0.89594
 C504 C 0.21223 0.69635 0.86510
 C505 C 0.20150 0.71645 0.83332
 N506 N 0.16847 0.73131 0.83361
 H507 H 0.06613 0.75220 0.89464
 H508 H 0.23835 0.68445 0.86608
 C509 C 0.63852 0.20833 0.39164
 C510 C 0.62396 0.23185 0.36505
 N511 N 0.59168 0.24641 0.37208
 C512 C 0.57318 0.23847 0.40450
 C513 C 0.58768 0.21495 0.43138
 N514 N 0.62021 0.20057 0.42417
 N515 N 0.67089 0.19389 0.38468
 C516 C 0.68957 0.20217 0.35247
 C517 C 0.67534 0.22620 0.32602
 N518 N 0.64270 0.24036 0.33304
 H519 H 0.54776 0.25098 0.40952
 H520 H 0.71552 0.19056 0.34797
 C521 C 0.83986 0.31265 0.89882
 C522 C 0.85464 0.29536 0.86707
 N523 N 0.88945 0.28628 0.86751
 C524 C 0.91030 0.29332 0.89846
 C525 C 0.89546 0.30981 0.93140
 N526 N 0.86038 0.31912 0.93002
 N527 N 0.80492 0.32165 0.89849
 C528 C 0.78391 0.31350 0.86794
 C529 C 0.79842 0.29495 0.83661
 N530 N 0.83362 0.28661 0.83694
 H531 H 0.93742 0.28430 0.89727
 H532 H 0.75598 0.32033 0.86876
 C533 C 0.39117 0.78347 0.37278
 C534 C 0.35999 0.80333 0.36835
 N535 N 0.35309 0.83000 0.39311
 C536 C 0.37545 0.83714 0.42275
 C537 C 0.40597 0.81636 0.42838
 N538 N 0.41335 0.79029 0.40272
 N539 N 0.39780 0.75652 0.34826
 C540 C 0.37441 0.74815 0.31991
 C541 C 0.34257 0.76730 0.31611
 N542 N 0.33640 0.79473 0.34035
 H543 H 0.36898 0.85829 0.44237
 H544 H 0.38026 0.72620 0.30115
 C545 C 0.31764 0.84669 0.10258
 C546 C 0.29285 0.85684 0.13060
 N547 N 0.27545 0.88777 0.12707
 C548 C 0.28150 0.90908 0.09657
 C549 C 0.30607 0.89893 0.06796
 N550 N 0.32356 0.86783 0.07198
 N551 N 0.33445 0.81533 0.10576
 C552 C 0.32722 0.79340 0.13553
 C553 C 0.30182 0.80324 0.16326
 N554 N 0.28547 0.83494 0.16008
 H555 H 0.26620 0.93294 0.09418
 H556 H 0.34059 0.76834 0.13705
 C557 C 0.77428 0.37662 0.62407
 C558 C 0.79610 0.34704 0.62843
 N559 N 0.82295 0.34122 0.60315
 C560 C 0.82846 0.36316 0.57308
 C561 C 0.80577 0.39209 0.56763
 N562 N 0.77951 0.39836 0.59379
 N563 N 0.74716 0.38220 0.64912
 C564 C 0.74047 0.35922 0.67799
 C565 C 0.76162 0.32898 0.68177
 N566 N 0.78921 0.32389 0.65698
 H567 H 0.84995 0.35768 0.55321
 H568 H 0.71833 0.36414 0.69718
 C569 C 0.68957 0.14512 0.10455
 C570 C 0.71155 0.13515 0.13519
 N571 N 0.72738 0.10317 0.13445
 C572 C 0.72286 0.08102 0.10408
 C573 C 0.70225 0.09162 0.07241
 N574 N 0.68588 0.12346 0.07377
 N575 N 0.67370 0.17702 0.10516
 C576 C 0.67932 0.19977 0.13469
 C577 C 0.70262 0.19061 0.16466
 N578 N 0.71797 0.15822 0.16426
 H579 H 0.73681 0.05622 0.10376
 H580 H 0.66678 0.22527 0.13394
 C581 C 0.22144 0.64267 0.60680
 C582 C 0.24424 0.62928 0.63505
 N583 N 0.25906 0.59717 0.63007
 C584 C 0.25217 0.57779 0.59805
 C585 C 0.22958 0.59123 0.56940
 N586 N 0.21482 0.62352 0.57463
 N587 N 0.20673 0.67484 0.61170
 C588 C 0.21411 0.69447 0.64340
 C589 C 0.23759 0.68149 0.67143
 N590 N 0.25195 0.64900 0.66651
 H591 H 0.26491 0.55256 0.59466
 H592 H 0.20239 0.72025 0.64620
 C593 C 0.86053 0.70472 0.10777
 C594 C 0.86854 0.72982 0.13599
 N595 N 0.89688 0.75132 0.13091
 C596 C 0.91740 0.74907 0.09869
 C597 C 0.90886 0.72456 0.06982
 N598 N 0.88058 0.70289 0.07535
 N599 N 0.83218 0.68329 0.11264
 C600 C 0.81091 0.68629 0.14412
 C601 C 0.81792 0.71232 0.17185
 N602 N 0.84692 0.73329 0.16715
 H603 H 0.93943 0.76697 0.09516
 H604 H 0.78799 0.66934 0.14667
 C605 C 0.34436 0.19498 0.60876
 C606 C 0.35652 0.21982 0.63546
 N607 N 0.38790 0.23631 0.62933
 C608 C 0.40779 0.22915 0.59762
 C609 C 0.39565 0.20445 0.57048
 N610 N 0.36403 0.18801 0.57684
 N611 N 0.31274 0.17877 0.61484
 C612 C 0.29250 0.18661 0.64620
 C613 C 0.30428 0.21210 0.67257
 N614 N 0.33620 0.22791 0.66648
 H615 H 0.43230 0.24336 0.59323
 H616 H 0.26714 0.17371 0.64996
 C617 C 0.13972 0.30382 0.10919
 C618 C 0.12673 0.27992 0.13626
 N619 N 0.09376 0.26612 0.13168
 C620 C 0.07325 0.27487 0.10099
 C621 C 0.08652 0.29818 0.07320
 N622 N 0.11953 0.31213 0.07826
 N623 N 0.17275 0.31750 0.11361
 C624 C 0.19366 0.30798 0.14367
 C625 C 0.18118 0.28321 0.17028
 N626 N 0.14779 0.26997 0.16594
 H627 H 0.04748 0.26272 0.09766
 H628 H 0.22009 0.31892 0.14612
 C629 C 0.61646 0.78086 0.62407
 C630 C 0.64753 0.80067 0.62920
 N631 N 0.65512 0.82694 0.60444
 C632 C 0.63351 0.83380 0.57415
 C633 C 0.60305 0.81316 0.56787
 N634 N 0.59497 0.78744 0.59350
 N635 N 0.60923 0.75429 0.64867
 C636 C 0.63196 0.74624 0.67777
 C637 C 0.66367 0.76538 0.68225
 N638 N 0.67039 0.79240 0.65791
 H639 H 0.64047 0.85471 0.55463
 H640 H 0.62574 0.72457 0.69655
   
