data_POSCAR
  _audit_creation_date              2014-09-24
  _audit_creation_method            'ToBaCCo'
  _symmetry_space_group_name_H-M    'P1'
  _symmetry_Int_Tables_number       1
  _symmetry_cell_setting            triclinic
  loop_
  _symmetry_equiv_pos_as_xyz
 x,y,z
_cell_length_a 62.0865
_cell_length_b 27.2300
_cell_length_c 24.5556
_cell_angle_alpha 90.067400
_cell_angle_beta 89.909900
_cell_angle_gamma 90.023100
loop_
  _atom_site_label
  _atom_site_type_symbol
  _atom_site_fract_x
  _atom_site_fract_y
  _atom_site_fract_z
O1 O 0.73505 0.29857 0.55511
 O2 O 0.77448 0.26819 0.44821
 O3 O 0.73481 0.29967 0.44958
 O4 O 0.77471 0.26687 0.55426
 O5 O 0.76313 0.19026 0.55281
 O6 O 0.72329 0.22303 0.44810
 O7 O 0.76300 0.19160 0.44776
 O8 O 0.72347 0.22198 0.55459
 Cu9 Cu 0.75593 0.29098 0.50190
 Cu10 Cu 0.74197 0.19911 0.50072
 C11 C 0.72245 0.26556 0.57300
 C12 C 0.77571 0.22455 0.43000
 C13 C 0.72218 0.26699 0.43104
 C14 C 0.77590 0.22281 0.57099
 O15 O 0.27351 0.76599 0.44952
 O16 O 0.23397 0.79655 0.55610
 O17 O 0.27362 0.76466 0.55553
 O18 O 0.23380 0.79736 0.45059
 O19 O 0.22215 0.72082 0.44955
 O20 O 0.26212 0.68800 0.55382
 O21 O 0.22253 0.71994 0.55608
 O22 O 0.26185 0.68946 0.44877
 Cu23 Cu 0.25490 0.78880 0.50304
 Cu24 Cu 0.24090 0.69695 0.50197
 C25 C 0.27459 0.72238 0.43125
 C26 C 0.22140 0.76359 0.57438
 C27 C 0.27486 0.72055 0.57210
 C28 C 0.22110 0.76471 0.43227
 O29 O 0.26329 0.30814 -0.55282
 O30 O 0.22356 0.27737 -0.44674
 O31 O 0.26335 0.30806 -0.44769
 O32 O 0.22347 0.27745 -0.55325
 O33 O 0.23450 0.20055 -0.55269
 O34 O 0.27469 0.23130 -0.44789
 O35 O 0.23488 0.20059 -0.44720
 O36 O 0.27433 0.23125 -0.55394
 Cu37 Cu 0.24220 0.30038 -0.50011
 Cu38 Cu 0.25574 0.20826 -0.50048
 C39 C 0.27580 0.27512 -0.57128
 C40 C 0.22239 0.23367 -0.42887
 C41 C 0.27600 0.27506 -0.43016
 C42 C 0.22202 0.23366 -0.57093
 O43 O -0.23811 0.81201 -0.55117
 O44 O -0.27742 0.78132 -0.44400
 O45 O -0.23780 0.81321 -0.44612
 O46 O -0.27778 0.78055 -0.55055
 O47 O -0.26616 0.70400 -0.54984
 O48 O -0.22632 0.73655 -0.44478
 O49 O -0.26601 0.70472 -0.44431
 O50 O -0.22647 0.73547 -0.55079
 Cu51 Cu -0.25904 0.80437 -0.49799
 Cu52 Cu -0.24507 0.71253 -0.49735
 C53 C -0.22538 0.77911 -0.56886
 C54 C -0.27858 0.73765 -0.42590
 C55 C -0.22506 0.78063 -0.42803
 C56 C -0.27883 0.73668 -0.56805
 O57 O -0.03046 0.91720 0.10159
 O58 O -0.05393 0.96047 0.04802
 C59 C -0.04978 0.92998 0.08710
 O60 O 0.03016 1.08873 0.09884
 O61 O 0.05394 1.04291 0.04847
 C62 C 0.04956 1.07583 0.08504
 O63 O -0.03014 1.08414 0.10323
 O64 O -0.05379 1.04230 0.04861
 C65 C -0.04950 1.07207 0.08836
 O66 O 0.02986 0.91179 0.09720
 O67 O 0.05379 0.95798 0.04779
 C68 C 0.04931 0.92465 0.08373
 Zr69 Zr -0.00022 0.93852 0.06910
 O70 O 0.00185 0.93422 0.15497
 O71 O -0.00284 0.86108 0.06413
 Zr72 Zr 0.00001 1.06295 0.07013
 O73 O 0.00206 1.06664 0.15602
 O74 O -0.00235 1.14046 0.06611
 O75 O -0.01923 1.00083 0.08016
 O76 O 0.01845 1.00051 0.08010
 O77 O 0.03042 0.91294 -0.09530
 O78 O 0.05408 0.95833 -0.04426
 C79 C 0.04978 0.92547 -0.08095
 O80 O -0.02945 1.08514 -0.10052
 O81 O -0.05348 1.04274 -0.04742
 C82 C -0.04892 1.07283 -0.08664
 O83 O 0.03079 1.08993 -0.09371
 O84 O 0.05425 1.04332 -0.04361
 C85 C 0.05011 1.07675 -0.07966
 O86 O -0.02978 0.91864 -0.10170
 O87 O -0.05364 0.96091 -0.04795
 C88 C -0.04919 0.93109 -0.08757
 Zr89 Zr 0.00022 0.93932 -0.06762
 O90 O 0.00283 0.93564 -0.15345
 O91 O -0.00247 0.86185 -0.06376
 Zr92 Zr 0.00046 1.06375 -0.06657
 O93 O 0.00312 1.06855 -0.15230
 O94 O -0.00197 1.14120 -0.06130
 Zr95 Zr -0.03213 1.00142 0.00070
 Zr96 Zr 0.03231 1.00083 0.00176
 O97 O 0.01896 1.00142 -0.07701
 O98 O -0.01870 1.00176 -0.07830
 O99 O 0.01940 0.92917 0.00097
 O100 O -0.01873 1.07241 0.00152
 O101 O -0.01898 0.93020 0.00034
 O102 O 0.01968 1.07273 0.00218
 H103 H 0.02780 1.00023 0.11275
 H104 H -0.02868 1.10086 0.00155
 H105 H 0.02852 1.00153 -0.10935
 H106 H -0.02901 0.90189 -0.00009
 H107 H 0.01128 1.15302 0.05046
 H108 H 0.01153 1.15361 -0.04496
 H109 H -0.00644 1.04316 -0.16791
 H110 H -0.00685 0.96099 -0.16856
 H111 H 0.01098 0.84903 -0.04755
 H112 H 0.01064 0.84848 0.04774
 H113 H -0.00821 0.95887 0.17009
 H114 H -0.00765 1.04111 0.17078
 O115 O 0.46993 0.41774 0.10324
 O116 O 0.44624 0.45954 0.04885
 C117 C 0.45056 0.42977 0.08849
 O118 O 0.53002 0.59039 0.09614
 O119 O 0.55382 0.54399 0.04651
 C120 C 0.54944 0.57746 0.08246
 O121 O 0.46965 0.58498 0.10137
 O122 O 0.44612 0.54152 0.04802
 C123 C 0.45031 0.57215 0.08701
 O124 O 0.53033 0.41342 0.09814
 O125 O 0.55398 0.45923 0.04745
 C126 C 0.54971 0.42637 0.08409
 Zr127 Zr 0.50006 0.43915 0.07017
 O128 O 0.50230 0.43660 0.15610
 O129 O 0.49770 0.36159 0.06718
 Zr130 Zr 0.49984 0.56358 0.06865
 O131 O 0.50204 0.56836 0.15446
 O132 O 0.49722 0.64099 0.06345
 O133 O 0.48083 0.50128 0.08008
 O134 O 0.51851 0.50165 0.07971
 O135 O 0.53065 0.41124 -0.09357
 O136 O 0.55414 0.45821 -0.04376
 C137 C 0.54998 0.42450 -0.07958
 O138 O 0.47006 0.58246 -0.10217
 O139 O 0.44627 0.54052 -0.04794
 C140 C 0.45066 0.57010 -0.08776
 O141 O 0.53035 0.58822 -0.09596
 O142 O 0.55402 0.54309 -0.04477
 C143 C 0.54972 0.57577 -0.08157
 O144 O 0.47028 0.41538 -0.09969
 O145 O 0.44643 0.45857 -0.04685
 C146 C 0.45086 0.42789 -0.08565
 Zr147 Zr 0.50030 0.43765 -0.06678
 O148 O 0.50286 0.43347 -0.15261
 O149 O 0.49792 0.36017 -0.06213
 Zr150 Zr 0.50009 0.56206 -0.06825
 O151 O 0.50261 0.56530 -0.15410
 O152 O 0.49742 0.63955 -0.06478
 Zr153 Zr 0.46784 0.50029 0.00070
 Zr154 Zr 0.53215 0.50092 0.00117
 O155 O 0.51880 0.49992 -0.07756
 O156 O 0.48111 0.49954 -0.07847
 O157 O 0.51955 0.42900 0.00195
 O158 O 0.48100 0.57152 -0.00006
 O159 O 0.48127 0.42933 0.00167
 O160 O 0.51932 0.57260 0.00022
 H161 H 0.52797 0.50207 0.11217
 H162 H 0.47097 0.59981 -0.00051
 H163 H 0.52839 0.49964 -0.10986
 H164 H 0.47137 0.40077 0.00194
 H165 H 0.51066 0.65351 0.04680
 H166 H 0.51086 0.65246 -0.04858
 H167 H 0.49314 0.53937 -0.16897
 H168 H 0.49243 0.45708 -0.16798
 H169 H 0.51120 0.34790 -0.04454
 H170 H 0.51111 0.34894 0.05049
 H171 H 0.49205 0.46106 0.17075
 H172 H 0.49217 0.54342 0.16973
 C173 C 0.32479 0.31316 0.31588
 C174 C 0.32140 0.26387 0.33065
 C175 C 0.30510 0.25117 0.36737
 C176 C 0.29156 0.28741 0.38987
 C177 C 0.29459 0.33657 0.37381
 C178 C 0.31107 0.34927 0.33768
 C179 C 0.34292 0.32713 0.27923
 C180 C 0.34076 0.36621 0.24225
 C181 C 0.35813 0.38094 0.20992
 C182 C 0.37806 0.35659 0.21319
 C183 C 0.38007 0.31678 0.24925
 C184 C 0.36278 0.30244 0.28206
 C185 C 0.39679 0.37345 0.18017
 C186 C 0.41776 0.37216 0.20179
 C187 C 0.43528 0.38938 0.17154
 C188 C 0.43221 0.40890 0.11922
 C189 C 0.41132 0.40987 0.09732
 C190 C 0.39384 0.39206 0.12729
 H191 H 0.33136 0.23495 0.31382
 H192 H 0.30322 0.21286 0.37821
 H193 H 0.28460 0.36568 0.39018
 H194 H 0.31339 0.38769 0.32803
 H195 H 0.32563 0.38561 0.23828
 H196 H 0.35603 0.41215 0.18318
 H197 H 0.39505 0.29664 0.25227
 H198 H 0.36516 0.27261 0.31052
 H199 H 0.42063 0.35898 0.24271
 H200 H 0.45115 0.38858 0.18975
 H201 H 0.40846 0.42436 0.05691
 H202 H 0.37802 0.39277 0.10887
 C203 C -0.17576 0.81726 0.31593
 C204 C -0.18070 0.76774 0.32650
 C205 C -0.19699 0.75529 0.36337
 C206 C -0.20886 0.79205 0.39009
 C207 C -0.20427 0.84150 0.37869
 C208 C -0.18785 0.85396 0.34228
 C209 C -0.15771 0.83070 0.27884
 C210 C -0.15914 0.87228 0.24513
 C211 C -0.14178 0.88629 0.21236
 C212 C -0.12260 0.85881 0.21202
 C213 C -0.12134 0.81664 0.24484
 C214 C -0.13863 0.80288 0.27799
 C215 C -0.10384 0.87487 0.17870
 C216 C -0.08272 0.86990 0.19867
 C217 C -0.06514 0.88669 0.16836
 C218 C -0.06825 0.90930 0.11759
 C219 C -0.08931 0.91373 0.09724
 C220 C -0.10688 0.89650 0.12730
 H221 H -0.17199 0.73852 0.30622
 H222 H -0.20024 0.71684 0.37105
 H223 H -0.21302 0.87070 0.39893
 H224 H -0.18427 0.89244 0.33592
 H225 H -0.17368 0.89417 0.24411
 H226 H -0.14325 0.91932 0.18816
 H227 H -0.10695 0.79420 0.24502
 H228 H -0.13684 0.77099 0.30387
 H229 H -0.07979 0.85421 0.23846
 H230 H -0.04914 0.88311 0.18541
 H231 H -0.09226 0.93067 0.05806
 H232 H -0.12286 0.90011 0.11018
 C233 C 0.67285 0.69767 0.31381
 C234 C 0.67809 0.74722 0.32337
 C235 C 0.69383 0.75992 0.36154
 C236 C 0.70488 0.72336 0.39056
 C237 C 0.69995 0.67386 0.38041
 C238 C 0.68404 0.66117 0.34276
 C239 C 0.65544 0.68404 0.27497
 C240 C 0.65703 0.64117 0.24321
 C241 C 0.64015 0.62687 0.20913
 C242 C 0.62131 0.65533 0.20540
 C243 C 0.61998 0.69893 0.23597
 C244 C 0.63677 0.71297 0.27051
 C245 C 0.60283 0.63848 0.17160
 C246 C 0.58154 0.64554 0.18966
 C247 C 0.56419 0.62717 0.15974
 C248 C 0.56770 0.60079 0.11133
 C249 C 0.58893 0.59459 0.09258
 C250 C 0.60628 0.61346 0.12219
 H251 H 0.67009 0.77627 0.30117
 H252 H 0.69740 0.79839 0.36818
 H253 H 0.70808 0.64485 0.40242
 H254 H 0.68019 0.62271 0.33732
 H255 H 0.67131 0.61842 0.24486
 H256 H 0.64168 0.59276 0.18677
 H257 H 0.60587 0.72217 0.23352
 H258 H 0.63484 0.74592 0.29473
 H259 H 0.57825 0.66385 0.22792
 H260 H 0.54806 0.63226 0.17559
 H261 H 0.59218 0.57467 0.05528
 H262 H 0.62241 0.60815 0.10649
 C263 C 0.17391 1.19658 0.31357
 C264 C 0.18722 1.16018 0.33623
 C265 C 0.20335 1.17252 0.37340
 C266 C 0.20642 1.22161 0.38979
 C267 C 0.19322 1.25811 0.36671
 C268 C 0.17730 1.24578 0.32885
 C269 C 0.15619 1.18300 0.27552
 C270 C 0.13649 1.20850 0.27647
 C271 C 0.11950 1.19432 0.24265
 C272 C 0.12161 1.15378 0.20750
 C273 C 0.14143 1.12879 0.20586
 C274 C 0.15852 1.14342 0.23911
 C275 C 0.10300 1.13644 0.17435
 C276 C 0.10617 1.11549 0.12252
 C277 C 0.08879 1.09647 0.09308
 C278 C 0.06780 1.09866 0.11438
 C279 C 0.06451 1.12083 0.16538
 C280 C 0.08190 1.13914 0.19517
 H281 H 0.18486 1.12181 0.32634
 H282 H 0.21307 1.14322 0.39022
 H283 H 0.19515 1.29639 0.37776
 H284 H 0.16769 1.27496 0.31146
 H285 H 0.13394 1.23877 0.30435
 H286 H 0.10465 1.21505 0.24439
 H287 H 0.14363 1.09705 0.17987
 H288 H 0.17355 1.12344 0.23642
 H289 H 0.12209 1.11362 0.10465
 H290 H 0.09181 1.07989 0.05370
 H291 H 0.04856 1.12261 0.18318
 H292 H 0.07882 1.15406 0.23530
 C293 C 0.67430 0.30315 -0.30752
 C294 C 0.68563 0.33996 -0.33574
 C295 C 0.70150 0.32768 -0.37375
 C296 C 0.70626 0.27828 -0.38502
 C297 C 0.69509 0.24140 -0.35669
 C298 C 0.67937 0.25369 -0.31815
 C299 C 0.65686 0.31648 -0.26852
 C300 C 0.63804 0.28791 -0.26486
 C301 C 0.62113 0.30202 -0.23062
 C302 C 0.62249 0.34535 -0.19958
 C303 C 0.64151 0.37331 -0.20231
 C304 C 0.65851 0.35891 -0.23608
 C305 C 0.60383 0.36258 -0.16654
 C306 C 0.60698 0.38733 -0.11685
 C307 C 0.58948 0.40661 -0.08799
 C308 C 0.56839 0.40107 -0.10782
 C309 C 0.56516 0.37500 -0.15653
 C310 C 0.58266 0.35625 -0.18568
 H311 H 0.68189 0.37838 -0.32951
 H312 H 0.70971 0.35695 -0.39521
 H313 H 0.69852 0.20299 -0.36423
 H314 H 0.67125 0.22439 -0.29656
 H315 H 0.63607 0.25528 -0.28958
 H316 H 0.60688 0.27913 -0.22888
 H317 H 0.64308 0.40717 -0.17953
 H318 H 0.67290 0.38134 -0.23707
 H319 H 0.62300 0.39209 -0.10033
 H320 H 0.59250 0.42621 -0.05038
 H321 H 0.54915 0.37042 -0.17317
 H322 H 0.57960 0.33820 -0.22420
 C323 C 0.17395 0.80093 -0.30816
 C324 C 0.18738 0.83716 -0.33086
 C325 C 0.20331 0.82469 -0.36864
 C326 C 0.20604 0.77567 -0.38564
 C327 C 0.19275 0.73932 -0.36247
 C328 C 0.17705 0.75176 -0.32397
 C329 C 0.15635 0.81475 -0.26971
 C330 C 0.13653 0.78973 -0.27053
 C331 C 0.11961 0.80438 -0.23667
 C332 C 0.12189 0.84496 -0.20164
 C333 C 0.14185 0.86934 -0.19997
 C334 C 0.15890 0.85421 -0.23324
 C335 C 0.10328 0.86308 -0.16890
 C336 C 0.10636 0.88429 -0.11717
 C337 C 0.08897 0.90397 -0.08818
 C338 C 0.06806 0.90221 -0.10983
 C339 C 0.06486 0.87987 -0.16076
 C340 C 0.08225 0.86091 -0.19009
 H341 H 0.18526 0.87552 -0.32059
 H342 H 0.21312 0.85389 -0.38550
 H343 H 0.19443 0.70109 -0.37395
 H344 H 0.16734 0.72270 -0.30657
 H345 H 0.13382 0.75955 -0.29841
 H346 H 0.10463 0.78406 -0.23838
 H347 H 0.14420 0.90105 -0.17403
 H348 H 0.17403 0.87379 -0.23061
 H349 H 0.12222 0.88582 -0.09905
 H350 H 0.09192 0.92070 -0.04886
 H351 H 0.04897 0.87840 -0.17885
 H352 H 0.07924 0.84588 -0.23019
 C353 C 0.32529 0.67948 -0.31722
 C354 C 0.31377 0.64351 -0.34599
 C355 C 0.29700 0.65686 -0.38079
 C356 C 0.29162 0.70654 -0.38813
 C357 C 0.30298 0.74251 -0.35876
 C358 C 0.31956 0.72905 -0.32328
 C359 C 0.34369 0.66527 -0.28241
 C360 C 0.34568 0.68378 -0.22923
 C361 C 0.36305 0.66982 -0.19649
 C362 C 0.37891 0.63786 -0.21680
 C363 C 0.37699 0.61973 -0.27012
 C364 C 0.35948 0.63304 -0.30248
 C365 C 0.39736 0.62297 -0.18254
 C366 C 0.41840 0.62451 -0.20355
 C367 C 0.43578 0.60858 -0.17216
 C368 C 0.43243 0.59011 -0.11941
 C369 C 0.41138 0.58908 -0.09819
 C370 C 0.39403 0.60573 -0.12934
 H371 H 0.31778 0.60501 -0.34161
 H372 H 0.28859 0.62829 -0.40292
 H373 H 0.29916 0.78107 -0.36353
 H374 H 0.32831 0.75745 -0.30171
 H375 H 0.33364 0.70852 -0.21284
 H376 H 0.36425 0.68438 -0.15555
 H377 H 0.38893 0.59473 -0.28651
 H378 H 0.35838 0.61860 -0.34350
 H379 H 0.42136 0.63797 -0.24437
 H380 H 0.45178 0.60963 -0.18974
 H381 H 0.40830 0.57512 -0.05763
 H382 H 0.37793 0.60392 -0.11242
 C383 C -0.17378 1.18214 -0.31778
 C384 C -0.18520 1.14606 -0.34668
 C385 C -0.20193 1.15927 -0.38168
 C386 C -0.20737 1.20890 -0.38910
 C387 C -0.19612 1.24498 -0.35963
 C388 C -0.17958 1.23166 -0.32394
 C389 C -0.15544 1.16811 -0.28269
 C390 C -0.15361 1.18667 -0.22949
 C391 C -0.13629 1.17293 -0.19649
 C392 C -0.12031 1.14114 -0.21654
 C393 C -0.12206 1.12297 -0.26988
 C394 C -0.13954 1.13605 -0.30250
 C395 C -0.10193 1.12639 -0.18195
 C396 C -0.08083 1.12808 -0.20255
 C397 C -0.06353 1.11207 -0.17092
 C398 C -0.06703 1.09334 -0.11834
 C399 C -0.08814 1.09226 -0.09748
 C400 C -0.10540 1.10901 -0.12885
 H401 H -0.18113 1.10760 -0.34223
 H402 H -0.21027 1.13064 -0.40390
 H403 H -0.19999 1.28350 -0.36444
 H404 H -0.17092 1.26014 -0.30228
 H405 H -0.16574 1.21128 -0.21330
 H406 H -0.13522 1.18751 -0.15553
 H407 H -0.11004 1.09809 -0.28607
 H408 H -0.14051 1.12157 -0.34353
 H409 H -0.07776 1.14166 -0.24326
 H410 H -0.04748 1.11314 -0.18822
 H411 H -0.09133 1.07810 -0.05706
 H412 H -0.12155 1.10709 -0.11224
 C413 C 0.67392 0.70016 -0.30869
 C414 C 0.68735 0.66396 -0.33151
 C415 C 0.70330 0.67647 -0.36921
 C416 C 0.70605 0.72552 -0.38598
 C417 C 0.69277 0.76184 -0.36269
 C418 C 0.67704 0.74935 -0.32428
 C419 C 0.65631 0.68631 -0.27031
 C420 C 0.63650 0.71133 -0.27106
 C421 C 0.61956 0.69667 -0.23724
 C422 C 0.62183 0.65607 -0.20235
 C423 C 0.64178 0.63167 -0.20077
 C424 C 0.65883 0.64681 -0.23399
 C425 C 0.60322 0.63799 -0.16959
 C426 C 0.60631 0.61679 -0.11793
 C427 C 0.58893 0.59716 -0.08892
 C428 C 0.56800 0.59896 -0.11049
 C429 C 0.56479 0.62127 -0.16137
 C430 C 0.58219 0.64019 -0.19072
 H431 H 0.68521 0.62559 -0.32141
 H432 H 0.71310 0.64730 -0.38616
 H433 H 0.69447 0.80008 -0.37401
 H434 H 0.66734 0.77839 -0.30679
 H435 H 0.63380 0.74153 -0.29883
 H436 H 0.60460 0.71700 -0.23888
 H437 H 0.64412 0.59994 -0.17494
 H438 H 0.67396 0.62721 -0.23143
 H439 H 0.62219 0.61524 -0.09984
 H440 H 0.59189 0.58045 -0.04964
 H441 H 0.54890 0.62278 -0.17940
 H442 H 0.57917 0.65521 -0.23077
 C443 C 0.17426 1.19619 -0.30938
 C444 C 0.18535 1.15935 -0.33822
 C445 C 0.20120 1.17157 -0.37627
 C446 C 0.20619 1.22094 -0.38695
 C447 C 0.19525 1.25785 -0.35802
 C448 C 0.17955 1.24561 -0.31944
 C449 C 0.15685 1.18298 -0.27027
 C450 C 0.13819 1.21200 -0.26591
 C451 C 0.12132 1.19812 -0.23143
 C452 C 0.12256 1.15457 -0.20085
 C453 C 0.14141 1.12612 -0.20433
 C454 C 0.15837 1.14028 -0.23834
 C455 C 0.10394 1.13767 -0.16749
 C456 C 0.10716 1.11261 -0.11809
 C457 C 0.08967 1.09367 -0.08894
 C458 C 0.06853 1.09985 -0.10816
 C459 C 0.06525 1.12626 -0.15656
 C460 C 0.08274 1.14468 -0.18601
 H461 H 0.18144 1.12096 -0.33242
 H462 H 0.20924 1.14229 -0.39820
 H463 H 0.19886 1.29623 -0.36508
 H464 H 0.17162 1.27492 -0.29736
 H465 H 0.13632 1.24484 -0.29024
 H466 H 0.10722 1.22137 -0.22913
 H467 H 0.14288 1.09207 -0.18193
 H468 H 0.17264 1.11748 -0.23988
 H469 H 0.12322 1.10732 -0.10206
 H470 H 0.09275 1.07376 -0.05161
 H471 H 0.04920 1.13138 -0.17274
 H472 H 0.07962 1.16301 -0.22428
 C473 C 0.32584 0.31334 -0.31585
 C474 C 0.31372 0.35000 -0.34202
 C475 C 0.29729 0.33749 -0.37824
 C476 C 0.29269 0.28802 -0.38963
 C477 C 0.30462 0.25129 -0.36321
 C478 C 0.32095 0.26381 -0.32654
 C479 C 0.34379 0.32689 -0.27865
 C480 C 0.36293 0.29929 -0.27785
 C481 C 0.38012 0.31317 -0.24450
 C482 C 0.37868 0.35523 -0.21142
 C483 C 0.35944 0.38248 -0.21175
 C484 C 0.34220 0.36836 -0.24472
 C485 C 0.39731 0.37144 -0.17782
 C486 C 0.39405 0.39291 -0.12634
 C487 C 0.41146 0.41052 -0.09608
 C488 C 0.43258 0.40662 -0.11630
 C489 C 0.43593 0.38407 -0.16709
 C490 C 0.41849 0.36690 -0.19761
 H491 H 0.31727 0.38849 -0.33559
 H492 H 0.28849 0.36666 -0.39824
 H493 H 0.30137 0.21283 -0.37091
 H494 H 0.32969 0.23463 -0.30643
 H495 H 0.36485 0.26748 -0.30389
 H496 H 0.39457 0.29093 -0.24472
 H497 H 0.35783 0.41543 -0.18737
 H498 H 0.32760 0.39007 -0.24365
 H499 H 0.37801 0.39615 -0.10934
 H500 H 0.40834 0.42736 -0.05688
 H501 H 0.45199 0.38088 -0.18401
 H502 H 0.42159 0.35132 -0.23743
 C503 C -0.17451 0.82147 -0.31743
 C504 C -0.18031 0.77192 -0.32360
 C505 C -0.19693 0.75854 -0.35905
 C506 C -0.20827 0.79457 -0.38826
 C507 C -0.20283 0.84423 -0.38080
 C508 C -0.18602 0.85749 -0.34604
 C509 C -0.15608 0.83560 -0.28262
 C510 C -0.14028 0.86782 -0.30259
 C511 C -0.12275 0.88108 -0.27021
 C512 C -0.12084 0.86292 -0.21695
 C513 C -0.13671 0.83095 -0.19675
 C514 C -0.15410 0.81703 -0.22952
 C515 C -0.10240 0.87785 -0.18261
 C516 C -0.10577 0.89505 -0.12935
 C517 C -0.08844 0.91180 -0.09812
 C518 C -0.06739 0.91090 -0.11929
 C519 C -0.06400 0.89244 -0.17208
 C520 C -0.08136 0.87642 -0.20356
 H521 H -0.17158 0.74348 -0.30215
 H522 H -0.20080 0.72000 -0.36392
 H523 H -0.21122 0.87283 -0.40282
 H524 H -0.18196 0.89597 -0.34156
 H525 H -0.14138 0.88231 -0.34355
 H526 H -0.11081 0.90610 -0.28651
 H527 H -0.13552 0.81636 -0.15585
 H528 H -0.16614 0.79230 -0.21319
 H529 H -0.12187 0.89676 -0.11247
 H530 H -0.09155 0.92573 -0.05753
 H531 H -0.04798 0.89151 -0.18962
 H532 H -0.07836 0.86298 -0.24441
 C533 C 0.32430 0.68449 0.31611
 C534 C 0.31937 0.73398 0.32691
 C535 C 0.30304 0.74634 0.36374
 C536 C 0.29114 0.70952 0.39021
 C537 C 0.29573 0.66009 0.37858
 C538 C 0.31218 0.64772 0.34220
 C539 C 0.34238 0.67113 0.27905
 C540 C 0.34097 0.62963 0.24512
 C541 C 0.35834 0.61572 0.21232
 C542 C 0.37752 0.64322 0.21219
 C543 C 0.37877 0.68531 0.24526
 C544 C 0.36147 0.69897 0.27844
 C545 C 0.39629 0.62729 0.17878
 C546 C 0.41740 0.63222 0.19879
 C547 C 0.43499 0.61546 0.16841
 C548 C 0.43186 0.59292 0.11754
 C549 C 0.41080 0.58857 0.09714
 C550 C 0.39324 0.60577 0.12727
 H551 H 0.32810 0.76324 0.30683
 H552 H 0.29979 0.78478 0.37160
 H553 H 0.28695 0.63085 0.39862
 H554 H 0.31575 0.60926 0.33567
 H555 H 0.32642 0.60773 0.24392
 H556 H 0.35687 0.58275 0.18794
 H557 H 0.39317 0.70776 0.24562
 H558 H 0.36325 0.73079 0.30450
 H559 H 0.42034 0.64784 0.23865
 H560 H 0.45098 0.61899 0.18548
 H561 H 0.40785 0.57170 0.05789
 H562 H 0.37727 0.60222 0.11012
 C563 C -0.17538 1.18706 0.31664
 C564 C -0.18925 1.15091 0.33772
 C565 C -0.20571 1.16343 0.37400
 C566 C -0.20858 1.21244 0.39094
 C567 C -0.19489 1.24872 0.36912
 C568 C -0.17862 1.23621 0.33223
 C569 C -0.15724 1.17327 0.27991
 C570 C -0.13734 1.19779 0.28323
 C571 C -0.12004 1.18370 0.25027
 C572 C -0.12207 1.14428 0.21359
 C573 C -0.14204 1.12008 0.20986
 C574 C -0.15942 1.13458 0.24232
 C575 C -0.10333 1.12767 0.18044
 C576 C -0.10624 1.10951 0.12729
 C577 C -0.08874 1.09196 0.09718
 C578 C -0.06787 1.09277 0.11919
 C579 C -0.06484 1.11184 0.17177
 C580 C -0.08237 1.12878 0.20217
 H581 H -0.18705 1.11258 0.32742
 H582 H -0.21582 1.13430 0.38983
 H583 H -0.19665 1.28693 0.38061
 H584 H -0.16857 1.26519 0.31595
 H585 H -0.13492 1.22729 0.31215
 H586 H -0.10504 1.20374 0.25368
 H587 H -0.14416 1.08917 0.18263
 H588 H -0.17458 1.11532 0.23796
 H589 H -0.12205 1.10896 0.10878
 H590 H -0.09157 1.07779 0.05657
 H591 H -0.04898 1.11247 0.19007
 H592 H -0.07953 1.14158 0.24328
 C593 C 0.67367 0.30650 0.31373
 C594 C 0.68506 0.34288 0.34247
 C595 C 0.70104 0.33002 0.37982
 C596 C 0.70586 0.28046 0.38983
 C597 C 0.69462 0.24402 0.36094
 C598 C 0.67879 0.25689 0.32311
 C599 C 0.65615 0.32033 0.27533
 C600 C 0.63735 0.29170 0.27139
 C601 C 0.62047 0.30593 0.23729
 C602 C 0.62184 0.34941 0.20663
 C603 C 0.64079 0.37757 0.20982
 C604 C 0.65776 0.36308 0.24350
 C605 C 0.60330 0.36637 0.17319
 C606 C 0.60664 0.39091 0.12350
 C607 C 0.58924 0.40957 0.09399
 C608 C 0.56805 0.40366 0.11317
 C609 C 0.56465 0.37791 0.16198
 C610 C 0.58205 0.35974 0.19176
 H611 H 0.68130 0.38139 0.33714
 H612 H 0.70931 0.35895 0.40172
 H613 H 0.69809 0.20551 0.36749
 H614 H 0.67064 0.22793 0.30105
 H615 H 0.63541 0.25885 0.29569
 H616 H 0.60628 0.28291 0.23523
 H617 H 0.64235 0.41156 0.18735
 H618 H 0.67212 0.38561 0.24477
 H619 H 0.62274 0.39590 0.10743
 H620 H 0.59241 0.42898 0.05636
 H621 H 0.54855 0.37306 0.17815
 H622 H 0.57885 0.34182 0.23025
 C623 C 0.17264 0.80399 0.31475
 C624 C 0.18400 0.84043 0.34350
 C625 C 0.19996 0.82765 0.38093
 C626 C 0.20478 0.77812 0.39104
 C627 C 0.19357 0.74162 0.36219
 C628 C 0.17777 0.75441 0.32426
 C629 C 0.15519 0.81775 0.27614
 C630 C 0.13641 0.78909 0.27200
 C631 C 0.11960 0.80322 0.23761
 C632 C 0.12104 0.84665 0.20687
 C633 C 0.13997 0.87485 0.21031
 C634 C 0.15686 0.86045 0.24425
 C635 C 0.10257 0.86357 0.17311
 C636 C 0.10606 0.88818 0.12354
 C637 C 0.08875 0.90711 0.09390
 C638 C 0.06752 0.90138 0.11279
 C639 C 0.06396 0.87539 0.16137
 C640 C 0.08127 0.85696 0.19132
 H641 H 0.18023 0.87892 0.33808
 H642 H 0.20820 0.85663 0.40281
 H643 H 0.19705 0.70312 0.36882
 H644 H 0.16964 0.72539 0.30220
 H645 H 0.13442 0.75627 0.29633
 H646 H 0.10542 0.78020 0.23539
 H647 H 0.14157 0.90882 0.18781
 H648 H 0.17122 0.88299 0.24566
 H649 H 0.12220 0.89314 0.10774
 H650 H 0.09205 0.92667 0.05643
 H651 H 0.04782 0.87064 0.17729
 H652 H 0.07795 0.83896 0.22971
   
