data_POSCAR
  _audit_creation_date              2014-09-24
  _audit_creation_method            'ToBaCCo'
  _symmetry_space_group_name_H-M    'P1'
  _symmetry_Int_Tables_number       1
  _symmetry_cell_setting            triclinic
  loop_
  _symmetry_equiv_pos_as_xyz
 x,y,z
_cell_length_a 47.8187
_cell_length_b 47.3402
_cell_length_c 46.8959
_cell_angle_alpha 86.721400
_cell_angle_beta 86.123900
_cell_angle_gamma 89.114200
loop_
  _atom_site_label
  _atom_site_type_symbol
  _atom_site_fract_x
  _atom_site_fract_y
  _atom_site_fract_z
C1 C 0.21727 0.55118 1.02209
 H2 H 0.23254 0.56607 1.01251
 C3 C 0.19585 0.56054 1.04113
 H4 H 0.19528 0.58278 1.04519
 C5 C 0.19858 0.50509 1.02540
 H6 H 0.19965 0.48354 1.01880
 C7 C 0.17690 0.51341 1.04465
 H8 H 0.16250 0.49729 1.05337
 N9 N 0.21829 0.52385 1.01470
 C10 C 0.27358 0.55153 0.94693
 H11 H 0.26052 0.54416 0.93101
 C12 C 0.29441 0.57144 0.93894
 H13 H 0.29714 0.57935 0.91682
 C14 C 0.28693 0.54913 0.99478
 H15 H 0.28404 0.54000 1.01644
 C16 C 0.30792 0.56890 0.98777
 H17 H 0.32074 0.57533 1.00437
 Zn18 Zn 0.24502 0.51159 0.98640
 N19 N 0.27030 0.54085 0.97448
 C20 C 0.20638 0.51890 0.94421
 N21 N 0.22455 0.50002 0.95609
 C22 C 0.22558 0.47255 0.94898
 C23 C 0.20764 0.46306 0.92941
 C24 C 0.18796 0.51027 0.92459
 C25 C 0.28821 0.47225 0.98226
 C26 C 0.30619 0.45038 0.99076
 C27 C 0.28059 0.44729 1.03705
 C28 C 0.26312 0.46938 1.02767
 N29 N 0.26705 0.48113 1.00056
 H30 H 0.20563 0.54049 0.95067
 H31 H 0.23951 0.45764 0.95929
 H32 H 0.20819 0.44091 0.92473
 H33 H 0.17346 0.52552 0.91553
 H34 H 0.29102 0.48221 0.96094
 H35 H 0.32262 0.44333 0.97568
 H36 H 0.27734 0.43823 1.05872
 H37 H 0.24664 0.47723 1.04214
 C38 C 0.31209 0.58016 0.95948
 C39 C 0.17489 0.54169 1.05287
 C40 C 0.30248 0.43758 1.01846
 C41 C 0.18822 0.48190 0.91724
 C42 C 0.78838 0.49664 -0.02547
 H43 H 0.78873 0.51725 -0.01666
 C44 C 0.80887 0.48929 -0.04643
 H45 H 0.82448 0.50472 -0.05412
 C46 C 0.76741 0.45167 -0.02592
 H47 H 0.75167 0.43682 -0.01728
 C48 C 0.78768 0.44332 -0.04674
 H49 H 0.78717 0.42204 -0.05398
 N50 N 0.76806 0.47801 -0.01586
 C51 C 0.70433 0.53301 0.02358
 H52 H 0.70266 0.52346 0.04514
 C53 C 0.68635 0.55528 0.01589
 H54 H 0.67123 0.56321 0.03183
 C55 C 0.72551 0.53362 -0.02362
 H56 H 0.74002 0.52444 -0.03925
 C57 C 0.70807 0.55600 -0.03218
 H58 H 0.70962 0.56400 -0.05432
 Zn59 Zn 0.74325 0.48933 0.01458
 N60 N 0.72330 0.52258 0.00385
 C61 C 0.76931 0.51972 0.05685
 N62 N 0.76590 0.49444 0.04520
 C63 C 0.78050 0.47097 0.05375
 C64 C 0.79907 0.47211 0.07523
 C65 C 0.78808 0.52192 0.07828
 C66 C 0.69897 0.45360 0.00531
 C67 C 0.67749 0.43435 0.01270
 C68 C 0.69113 0.43222 0.06146
 C69 C 0.71241 0.45139 0.05311
 N70 N 0.71608 0.46147 0.02539
 H71 H 0.75790 0.53823 0.04923
 H72 H 0.77778 0.45131 0.04363
 H73 H 0.81069 0.45322 0.08153
 H74 H 0.79079 0.54212 0.08740
 H75 H 0.70198 0.46242 -0.01646
 H76 H 0.66443 0.42797 -0.00372
 H77 H 0.68826 0.42488 0.08374
 H78 H 0.72549 0.45871 0.06900
 C79 C 0.68792 0.56687 -0.01240
 C80 C 0.80885 0.46223 -0.05725
 C81 C 0.67333 0.42341 0.04114
 C82 C 0.80310 0.49781 0.08774
 C83 C -0.00143 0.29964 0.44317
 H84 H -0.01971 0.29729 0.45797
 C85 C 0.00080 0.32318 0.42382
 H86 H -0.01669 0.33790 0.42355
 C87 C 0.04281 0.28235 0.42594
 H88 H 0.05970 0.26706 0.42770
 C89 C 0.04592 0.30545 0.40616
 H90 H 0.06555 0.30715 0.39338
 N91 N 0.01935 0.27978 0.44383
 C92 C -0.02687 0.21516 0.49677
 H93 H -0.01534 0.21509 0.51584
 C94 C -0.04988 0.19745 0.49610
 H95 H -0.05643 0.18477 0.51523
 C96 C -0.03158 0.23143 0.44863
 H97 H -0.02366 0.24395 0.42989
 C98 C -0.05426 0.21353 0.44678
 H99 H -0.06347 0.21268 0.42641
 Zn100 Zn 0.01614 0.25082 0.47335
 N101 N -0.01835 0.23186 0.47334
 C102 C -0.00279 0.27469 0.52578
 N103 N 0.01977 0.26896 0.50769
 C104 C 0.04558 0.27907 0.51173
 C105 C 0.04962 0.29525 0.53499
 C106 C 0.00027 0.29105 0.54923
 C107 C 0.04698 0.21113 0.44222
 C108 C 0.06437 0.18760 0.43803
 C109 C 0.07492 0.18732 0.48769
 C110 C 0.05770 0.21123 0.49079
 N111 N 0.04403 0.22249 0.46823
 H112 H -0.02333 0.26742 0.52153
 H113 H 0.06295 0.27498 0.49646
 H114 H 0.07024 0.30351 0.53756
 H115 H -0.01789 0.29560 0.56337
 H116 H 0.03524 0.21998 0.42485
 H117 H 0.06647 0.17913 0.41703
 H118 H 0.08448 0.17795 0.50631
 H119 H 0.05415 0.21986 0.51159
 C120 C -0.06369 0.19598 0.47067
 C121 C 0.02483 0.32669 0.40477
 C122 C 0.07813 0.17488 0.46111
 C123 C 0.02674 0.30164 0.55395
 C124 C 0.98870 0.69082 0.54421
 H125 H 0.99214 0.68701 0.52180
 C126 C 0.98593 0.66775 0.56396
 H127 H 0.98644 0.64657 0.55634
 C128 C 0.98483 0.72267 0.58145
 H129 H 0.98522 0.74413 0.58816
 C130 C 0.98169 0.70013 0.60200
 H131 H 0.97938 0.70441 0.62448
 N132 N 0.98740 0.71773 0.55308
 C133 C 0.95744 0.79243 0.50433
 H134 H 0.97208 0.79111 0.48583
 C135 C 0.93667 0.81350 0.50467
 H136 H 0.93516 0.82762 0.48587
 C137 C 0.94165 0.77496 0.55083
 H138 H 0.94359 0.76004 0.56884
 C139 C 0.92108 0.79619 0.55242
 H140 H 0.90803 0.79736 0.57207
 Zn141 Zn 0.99099 0.74863 0.52532
 N142 N 0.95970 0.77380 0.52725
 C143 C 0.97203 0.71904 0.48047
 N144 N 0.99383 0.73451 0.48800
 C145 C 1.01709 0.73854 0.46995
 C146 C 1.02018 0.72455 0.44450
 C147 C 0.97424 0.70463 0.45524
 C148 C 1.01997 0.79509 0.54285
 C149 C 1.04322 0.81135 0.54716
 C150 C 1.07319 0.77351 0.53023
 C151 C 1.04932 0.75745 0.52757
 N152 N 1.02336 0.76898 0.53244
 H153 H 0.95343 0.71676 0.49485
 H154 H 1.03366 0.75200 0.47543
 H155 H 1.03951 0.72689 0.43123
 H156 H 0.95703 0.69164 0.45010
 H157 H 0.99917 0.80344 0.54785
 H158 H 1.03960 0.83177 0.55599
 H159 H 1.09335 0.76438 0.52393
 H160 H 1.05150 0.73619 0.52033
 C161 C 0.91836 0.81605 0.52918
 C162 C 0.98206 0.67225 0.59325
 C163 C 1.07045 0.80123 0.53967
 C164 C 0.99892 0.70664 0.43728
 C165 C 0.47388 -0.06867 0.29147
 H166 H 0.48623 -0.08723 0.28640
 C167 C 0.45245 -0.07072 0.31315
 H168 H 0.44901 -0.09082 0.32499
 C169 C 0.46364 -0.02005 0.28235
 H170 H 0.46788 -0.00033 0.27032
 C171 C 0.44197 -0.02113 0.30395
 H172 H 0.42972 -0.00220 0.30811
 N173 N 0.47967 -0.04345 0.27712
 C174 C 0.53548 -0.08998 0.22451
 H175 H 0.55366 -0.08652 0.23629
 C176 C 0.53651 -0.11069 0.20442
 H177 H 0.55592 -0.12246 0.20119
 C178 C 0.48946 -0.07671 0.21315
 H179 H 0.47129 -0.06312 0.21658
 C180 C 0.48976 -0.09675 0.19241
 H181 H 0.47110 -0.09884 0.18093
 Zn182 Zn 0.51250 -0.04210 0.25178
 N183 N 0.51238 -0.07319 0.22812
 C184 C 0.54701 -0.06774 0.29265
 N185 N 0.54416 -0.04452 0.27452
 C186 C 0.56241 -0.02267 0.27401
 C187 C 0.58332 -0.02287 0.29344
 C188 C 0.56789 -0.06901 0.31211
 C189 C 0.51589 -0.01033 0.19885
 C190 C 0.51799 0.01378 0.18035
 C191 C 0.51638 0.04239 0.22142
 C192 C 0.51404 0.01770 0.23919
 N193 N 0.51386 -0.00809 0.22774
 H194 H 0.53281 -0.08519 0.29239
 H195 H 0.56051 -0.00471 0.25905
 H196 H 0.59718 -0.00498 0.29330
 H197 H 0.56927 -0.08728 0.32696
 H198 H 0.51651 -0.03083 0.18990
 H199 H 0.52007 0.01144 0.15746
 H200 H 0.51659 0.06270 0.23090
 H201 H 0.51299 0.01909 0.26218
 C202 C 0.51374 -0.11394 0.18723
 C203 C 0.43650 -0.04661 0.32006
 C204 C 0.51845 0.04054 0.19157
 C205 C 0.58588 -0.04605 0.31312
 C206 C 0.53859 0.02537 0.71586
 H207 H 0.53704 0.00556 0.72845
 C208 C 0.55897 0.02836 0.69313
 H209 H 0.57342 0.01102 0.68893
 C210 C 0.52100 0.07154 0.70506
 H211 H 0.50566 0.08803 0.70950
 C212 C 0.54121 0.07555 0.68235
 H213 H 0.54138 0.09522 0.66937
 N214 N 0.52028 0.04693 0.72154
 C215 C 0.47563 -0.00953 0.78136
 H216 H 0.45523 -0.00648 0.77297
 C217 C 0.48055 -0.03290 0.80007
 H218 H 0.46410 -0.04814 0.80544
 C219 C 0.52161 0.00701 0.78563
 H220 H 0.53730 0.02303 0.78033
 C221 C 0.52757 -0.01620 0.80394
 H222 H 0.54800 -0.01810 0.81259
 Zn223 Zn 0.49074 0.04257 0.75041
 N224 N 0.49626 0.00958 0.77418
 C225 C 0.45295 0.01727 0.71701
 N226 N 0.45763 0.04106 0.73078
 C227 C 0.44173 0.06481 0.72670
 C228 C 0.42038 0.06534 0.70772
 C229 C 0.43139 0.01662 0.69845
 C230 C 0.51106 0.09145 0.77432
 C231 C 0.51144 0.11163 0.79486
 C232 C 0.46746 0.09349 0.81626
 C233 C 0.46790 0.07369 0.79525
 N234 N 0.48951 0.07297 0.77491
 H235 H 0.46652 -0.00103 0.71985
 H236 H 0.44658 0.08384 0.73699
 H237 H 0.40905 0.08497 0.70379
 H238 H 0.42796 -0.00279 0.68815
 H239 H 0.52856 0.08987 0.75866
 H240 H 0.52920 0.12557 0.79454
 H241 H 0.45013 0.09367 0.83235
 H242 H 0.45130 0.05839 0.79552
 C243 C 0.50693 -0.03654 0.81126
 C244 C 0.56044 0.05372 0.67608
 C245 C 0.48959 0.11263 0.81641
 C246 C 0.41513 0.04110 0.69293
 C247 C 0.22392 -0.03534 0.51665
 C248 C 0.23580 -0.00908 0.50815
 C249 C 0.21931 0.01267 0.49635
 C250 C 0.19110 0.00796 0.49194
 C251 C 0.17967 -0.01884 0.49945
 C252 C 0.19571 -0.04077 0.51220
 C253 C 0.26626 -0.00565 0.50839
 C254 C 0.28348 -0.01580 0.48594
 C255 C 0.31268 -0.01369 0.48566
 C256 C 0.32460 -0.00068 0.50812
 C257 C 0.30745 0.00929 0.53126
 C258 C 0.27814 0.00664 0.53105
 H259 H 0.23707 -0.05145 0.52637
 H260 H 0.22875 0.03283 0.48955
 H261 H 0.27398 -0.02543 0.46858
 H262 H 0.26444 0.01331 0.54881
 H263 H 0.15818 -0.02240 0.49500
 H264 H 0.34716 0.00117 0.50775
 C265 C 0.77870 -0.01190 0.50163
 C266 C 0.76516 0.01345 0.49402
 C267 C 0.78072 0.03803 0.48810
 C268 C 0.81013 0.03739 0.48860
 C269 C 0.82353 0.01178 0.49722
 C270 C 0.80779 -0.01292 0.50435
 C271 C 0.73453 0.01410 0.49244
 C272 C 0.71751 0.02770 0.51305
 C273 C 0.68820 0.02692 0.51270
 C274 C 0.67610 0.01329 0.49077
 C275 C 0.69306 0.00002 0.46970
 C276 C 0.72229 0.00015 0.47097
 H277 H 0.76627 -0.03083 0.50573
 H278 H 0.76971 0.05760 0.48283
 H279 H 0.72709 0.03783 0.53004
 H280 H 0.73561 -0.01016 0.45496
 H281 H 0.84605 0.01105 0.49840
 H282 H 0.65349 0.01277 0.49029
 C283 C 0.50991 0.28151 1.04582
 C284 C 0.48636 0.26722 1.03830
 C285 C 0.46054 0.28144 1.03742
 C286 C 0.45814 0.30998 1.04418
 C287 C 0.48218 0.32436 1.05093
 C288 C 0.50811 0.31012 1.05196
 C289 C 0.48927 0.23734 1.03142
 C290 C 0.49802 0.21738 1.05212
 C291 C 0.50397 0.18938 1.04530
 C292 C 0.50125 0.18148 1.01715
 C293 C 0.49298 0.20159 0.99588
 C294 C 0.48626 0.22934 1.00356
 H295 H 0.52991 0.27043 1.04610
 H296 H 0.44235 0.27022 1.03165
 H297 H 0.50033 0.22382 1.07364
 H298 H 0.47972 0.24512 0.98764
 H299 H 0.48057 0.34633 1.05626
 H300 H 0.50699 0.16017 1.01159
 C301 C 0.52844 0.71802 -0.03400
 C302 C 0.50334 0.73352 -0.03302
 C303 C 0.47844 0.72067 -0.03901
 C304 C 0.47838 0.69203 -0.04548
 C305 C 0.50372 0.67641 -0.04591
 C306 C 0.52893 0.68953 -0.04072
 C307 C 0.50360 0.76344 -0.02637
 C308 C 0.50601 0.78436 -0.04861
 C309 C 0.50917 0.81277 -0.04267
 C310 C 0.50951 0.82025 -0.01413
 C311 C 0.50775 0.79921 0.00839
 C312 C 0.50452 0.77084 0.00199
 H313 H 0.54768 0.72827 -0.02960
 H314 H 0.45910 0.73292 -0.03827
 H315 H 0.50640 0.77841 -0.07063
 H316 H 0.50333 0.75434 0.01903
 H317 H 0.50400 0.65446 -0.05134
 H318 H 0.51299 0.84207 -0.00965
 C319 C 1.00155 0.56070 0.27635
 C320 C 0.99918 0.53675 0.26069
 C321 C 1.00403 0.50992 0.27350
 C322 C 1.01164 0.50679 0.30191
 C323 C 1.01333 0.53096 0.31785
 C324 C 1.00866 0.55812 0.30498
 C325 C 0.99415 0.53979 0.23010
 C326 C 1.01537 0.55030 0.21059
 C327 C 1.01209 0.55101 0.18106
 C328 C 0.98682 0.54177 0.17125
 C329 C 0.96509 0.53164 0.19077
 C330 C 0.96910 0.53057 0.22024
 H331 H 0.99789 0.58140 0.26608
 H332 H 1.00275 0.49149 0.26097
 H333 H 1.03504 0.55654 0.21844
 H334 H 0.95273 0.52272 0.23564
 H335 H 1.01968 0.52873 0.33961
 H336 H 0.98434 0.54194 0.14845
 C337 C -0.00810 0.48699 0.72814
 C338 C 0.00140 0.46099 0.73971
 C339 C 0.01113 0.44003 0.72157
 C340 C 0.01092 0.44464 0.69177
 C341 C 0.00132 0.47083 0.68026
 C342 C -0.00791 0.49234 0.69834
 C343 C 0.00114 0.45563 0.77090
 C344 C -0.02433 0.45307 0.78721
 C345 C -0.02490 0.44735 0.81696
 C346 C 0.00057 0.44543 0.83044
 C347 C 0.02630 0.44790 0.81408
 C348 C 0.02633 0.45272 0.78427
 H349 H -0.01479 0.50331 0.74248
 H350 H 0.01815 0.41984 0.73076
 H351 H -0.04374 0.45530 0.77657
 H352 H 0.04599 0.45491 0.77144
 H353 H 0.00124 0.47448 0.65725
 H354 H 0.00043 0.44106 0.85338
 C355 C 0.13055 0.11482 0.47190
 C356 C 0.12091 0.09549 0.45422
 C357 C 0.09808 0.10089 0.43785
 C358 C 0.08450 0.12723 0.43991
 C359 C 0.09395 0.14774 0.45798
 C360 C 0.11760 0.14132 0.47400
 O361 O 0.15155 0.10489 0.48684
 C362 C 0.15518 0.07869 0.47843
 C363 C 0.13700 0.07194 0.45842
 C364 C 0.13632 0.04526 0.44758
 C365 C 0.15486 0.02455 0.45810
 C366 C 0.17345 0.03075 0.47922
 C367 C 0.17386 0.05844 0.48913
 H368 H 0.09054 0.08510 0.42452
 H369 H 0.06604 0.13115 0.42808
 H370 H 0.12551 0.15628 0.48801
 H371 H 0.12172 0.04042 0.43193
 H372 H 0.15453 0.00360 0.45001
 H373 H 0.18744 0.06370 0.50557
 C374 C 0.62130 0.60959 -0.02179
 C375 C 0.63129 0.63158 -0.03985
 C376 C 0.65936 0.63388 -0.04947
 C377 C 0.67789 0.61253 -0.04020
 C378 C 0.66816 0.58955 -0.02155
 C379 C 0.63937 0.58820 -0.01221
 O380 O 0.59397 0.61160 -0.01488
 C381 C 0.58655 0.63544 -0.02885
 C382 C 0.60864 0.64847 -0.04442
 C383 C 0.60581 0.67408 -0.06002
 C384 C 0.57921 0.68702 -0.05918
 C385 C 0.55611 0.67420 -0.04304
 C386 C 0.55979 0.64779 -0.02799
 H387 H 0.66674 0.65151 -0.06354
 H388 H 0.69986 0.61405 -0.04731
 H389 H 0.63120 0.57084 0.00178
 H390 H 0.62352 0.68398 -0.07202
 H391 H 0.57660 0.70717 -0.07089
 H392 H 0.54263 0.63776 -0.01519
 C393 C 0.88119 -0.11294 0.51742
 C394 C 0.85728 -0.11713 0.53495
 C395 C 0.85162 -0.14249 0.55049
 C396 C 0.87153 -0.16444 0.54805
 C397 C 0.89695 -0.16062 0.53073
 C398 C 0.90163 -0.13423 0.51519
 O399 O 0.88189 -0.08764 0.50352
 C400 C 0.85788 -0.07560 0.51260
 C401 C 0.84224 -0.09271 0.53207
 C402 C 0.81645 -0.08448 0.54443
 C403 C 0.80602 -0.05771 0.53597
 C404 C 0.82101 -0.03992 0.51491
 C405 C 0.84769 -0.04894 0.50350
 H406 H 0.83231 -0.14545 0.56369
 H407 H 0.86677 -0.18448 0.55942
 H408 H 0.92070 -0.13008 0.50197
 H409 H 0.80470 -0.09821 0.55998
 H410 H 0.78604 -0.05100 0.54574
 H411 H 0.85969 -0.03615 0.48730
 C412 C 0.36752 0.39265 1.02797
 C413 C 0.35628 0.36921 1.04293
 C414 C 0.32786 0.36704 1.05117
 C415 C 0.31030 0.38989 1.04348
 C416 C 0.32136 0.41417 1.02770
 C417 C 0.35049 0.41552 1.02007
 O418 O 0.39495 0.39043 1.02193
 C419 C 0.40119 0.36498 1.03324
 C420 C 0.37828 0.35107 1.04628
 C421 C 0.38003 0.32388 1.05895
 C422 C 0.40646 0.31050 1.05811
 C423 C 0.43044 0.32445 1.04484
 C424 C 0.42766 0.35218 1.03233
 H425 H 0.31947 0.34833 1.06285
 H426 H 0.28804 0.38839 1.04920
 H427 H 0.35965 0.43381 1.00827
 H428 H 0.36171 0.31331 1.06902
 H429 H 0.40831 0.28940 1.06804
 H430 H 0.44548 0.36324 1.02177
 C431 C 0.89086 0.13049 0.48186
 C432 C 0.87081 0.13694 0.46282
 C433 C 0.87029 0.16237 0.44652
 C434 C 0.89148 0.18189 0.44975
 C435 C 0.91308 0.17558 0.46865
 C436 C 0.91247 0.14934 0.48501
 O437 O 0.88710 0.10545 0.49582
 C438 C 0.86421 0.09586 0.48524
 C439 C 0.85361 0.11426 0.46481
 C440 C 0.83007 0.10837 0.45056
 C441 C 0.81658 0.08266 0.45798
 C442 C 0.82629 0.06356 0.47983
 C443 C 0.85083 0.07028 0.49335
 H444 H 0.85398 0.16714 0.43199
 H445 H 0.89082 0.20198 0.43759
 H446 H 0.92859 0.14333 0.49938
 H447 H 0.82238 0.12300 0.43423
 H448 H 0.79852 0.07770 0.44656
 H449 H 0.85888 0.05649 0.51016
 C450 C 0.38176 0.61732 -0.04297
 C451 C 0.37677 0.64037 -0.06118
 C452 C 0.35147 0.64468 -0.07389
 C453 C 0.33040 0.62450 -0.06740
 C454 C 0.33491 0.60066 -0.04839
 C455 C 0.36119 0.59704 -0.03627
 O456 O 0.40684 0.61755 -0.03246
 C457 C 0.41793 0.64134 -0.04420
 C458 C 0.40039 0.65611 -0.06194
 C459 C 0.40742 0.68214 -0.07555
 C460 C 0.43343 0.69352 -0.07043
 C461 C 0.45182 0.67881 -0.05201
 C462 C 0.44400 0.65213 -0.03902
 H463 H 0.34792 0.66313 -0.08795
 H464 H 0.31037 0.62783 -0.07659
 H465 H 0.36548 0.57903 -0.02188
 H466 H 0.39323 0.69347 -0.08927
 H467 H 0.43923 0.71386 -0.08069
 H468 H 0.45735 0.64064 -0.02450
 C469 C 0.11560 -0.13316 0.53605
 C470 C 0.14202 -0.14495 0.53587
 C471 C 0.14661 -0.17400 0.53870
 C472 C 0.12302 -0.19157 0.54137
 C473 C 0.09538 -0.18002 0.54013
 C474 C 0.09200 -0.15013 0.53769
 O475 O 0.11560 -0.10517 0.53289
 C476 C 0.14264 -0.09912 0.53031
 C477 C 0.15975 -0.12265 0.53161
 C478 C 0.18871 -0.12108 0.52707
 C479 C 0.20042 -0.09421 0.52075
 C480 C 0.18324 -0.06930 0.51987
 C481 C 0.15382 -0.07219 0.52534
 H482 H 0.16761 -0.18286 0.53883
 H483 H 0.12660 -0.21412 0.54420
 H484 H 0.07178 -0.13997 0.53578
 H485 H 0.20177 -0.13997 0.52738
 H486 H 0.22278 -0.09322 0.51574
 H487 H 0.13965 -0.05420 0.52554
 C488 C 0.60349 0.38624 1.04579
 C489 C 0.60845 0.36434 1.06540
 C490 C 0.63388 0.36055 1.07789
 C491 C 0.65507 0.38018 1.06986
 C492 C 0.65054 0.40305 1.04966
 C493 C 0.62420 0.40605 1.03758
 O494 O 0.57831 0.38535 1.03557
 C495 C 0.56716 0.36233 1.04897
 C496 C 0.58474 0.34874 1.06750
 C497 C 0.57781 0.32350 1.08277
 C498 C 0.55194 0.31151 1.07833
 C499 C 0.53365 0.32482 1.05891
 C500 C 0.54121 0.35091 1.04445
 H501 H 0.63743 0.34290 1.09296
 H502 H 0.67519 0.37718 1.07896
 H503 H 0.61990 0.42327 1.02224
 H504 H 0.59208 0.31309 1.09706
 H505 H 0.54633 0.29157 1.08959
 H506 H 0.52794 0.36122 1.02907
 C507 C 0.51149 0.09361 1.12899
 C508 C 0.53015 0.11378 1.13530
 C509 C 0.54521 0.11158 1.15970
 C510 C 0.54100 0.08750 1.17828
 C511 C 0.52205 0.06622 1.17215
 C512 C 0.50711 0.06943 1.14706
 O513 O 0.49855 0.10025 1.10528
 C514 C 0.50931 0.12517 1.09641
 C515 C 0.52881 0.13431 1.11400
 C516 C 0.54210 0.16020 1.10928
 C517 C 0.53454 0.17766 1.08582
 C518 C 0.51394 0.16910 1.06772
 C519 C 0.50158 0.14216 1.07282
 H520 H 0.55963 0.12786 1.16430
 H521 H 0.55281 0.08521 1.19720
 H522 H 0.49223 0.05376 1.14199
 H523 H 0.55733 0.16695 1.12345
 H524 H 0.54437 0.19811 1.08201
 H525 H 0.48552 0.13526 1.05965
 C526 C -0.00973 0.60012 0.63066
 C527 C -0.03078 0.60104 0.65208
 C528 C -0.04776 0.62483 0.65602
 C529 C -0.04301 0.64850 0.63690
 C530 C -0.02171 0.64785 0.61432
 C531 C -0.00476 0.62327 0.61139
 O532 O 0.00425 0.57570 0.63075
 C533 C -0.00830 0.56079 0.65264
 C534 C -0.02993 0.57526 0.66637
 C535 C -0.04585 0.56352 0.68987
 C536 C -0.03895 0.53591 0.69981
 C537 C -0.01634 0.52069 0.68635
 C538 C -0.00102 0.53341 0.66220
 H539 H -0.06416 0.62512 0.67308
 H540 H -0.05631 0.66705 0.63925
 H541 H 0.01186 0.62220 0.59460
 H542 H -0.06289 0.57523 0.70025
 H543 H -0.05121 0.52642 0.71804
 H544 H 0.01660 0.52269 0.65164
 C545 C 0.50230 0.90726 -0.12806
 C546 C 0.52652 0.89211 -0.13423
 C547 C 0.54494 0.89898 -0.15773
 C548 C 0.53820 0.92255 -0.17555
 C549 C 0.51327 0.93847 -0.16980
 C550 C 0.49498 0.93057 -0.14575
 O551 O 0.48783 0.89723 -0.10455
 C552 C 0.50322 0.87521 -0.09579
 C553 C 0.52703 0.87113 -0.11332
 C554 C 0.54582 0.84893 -0.10864
 C555 C 0.53971 0.83000 -0.08503
 C556 C 0.51539 0.83379 -0.06657
 C557 C 0.49698 0.85687 -0.07184
 H558 H 0.56386 0.88670 -0.16212
 H559 H 0.55226 0.92832 -0.19398
 H560 H 0.47595 0.94249 -0.14076
 H561 H 0.56433 0.84608 -0.12284
 H562 H 0.55385 0.81232 -0.08108
 H563 H 0.47814 0.85997 -0.05817
 C564 C 1.01726 0.39989 0.37099
 C565 C 1.03474 0.39786 0.34676
 C566 C 1.04927 0.37322 0.34028
 C567 C 1.04582 0.34965 0.35963
 C568 C 1.02792 0.35078 0.38522
 C569 C 1.01340 0.37671 0.39058
 O570 O 1.00510 0.42523 0.37292
 C571 C 1.01509 0.43944 0.34925
 C572 C 1.03331 0.42357 0.33253
 C573 C 1.04576 0.43389 0.30648
 C574 C 1.03886 0.46158 0.29703
 C575 C 1.01984 0.47837 0.31363
 C576 C 1.00811 0.46724 0.34038
 H577 H 1.06262 0.37206 0.32079
 H578 H 1.05642 0.33031 0.35371
 H579 H 1.00016 0.37950 0.40984
 H580 H 1.06000 0.42096 0.29369
 H581 H 1.04817 0.46993 0.27665
 H582 H 0.99334 0.47947 0.35333
 C583 C 0.50397 0.85451 0.11738
 C584 C 0.52144 0.83131 0.11937
 C585 C 0.53625 0.82452 0.14333
 C586 C 0.53324 0.84257 0.16608
 C587 C 0.51544 0.86704 0.16479
 C588 C 0.50029 0.87255 0.13987
 O589 O 0.49266 0.85782 0.09228
 C590 C 0.50319 0.83613 0.07815
 C591 C 0.52083 0.81921 0.09386
 C592 C 0.53455 0.79561 0.08310
 C593 C 0.52985 0.78915 0.05502
 C594 C 0.51179 0.80629 0.03824
 C595 C 0.49834 0.83021 0.05007
 H596 H 0.54987 0.80606 0.14440
 H597 H 0.54439 0.83682 0.18490
 H598 H 0.48726 0.89123 0.13700
 H599 H 0.54854 0.78276 0.09579
 H600 H 0.54072 0.77109 0.04614
 H601 H 0.48448 0.84369 0.03784
 C602 C 0.01561 0.36003 0.60534
 C603 C 0.03876 0.35615 0.62106
 C604 C 0.05840 0.33466 0.61636
 C605 C 0.05411 0.31658 0.59439
 C606 C 0.03042 0.32018 0.57779
 C607 C 0.01084 0.34221 0.58355
 O608 O -0.00048 0.38172 0.61318
 C609 C 0.01278 0.39173 0.63436
 C610 C 0.03689 0.37682 0.64006
 C611 C 0.05378 0.38347 0.66166
 C612 C 0.04529 0.40621 0.67828
 C613 C 0.02040 0.42181 0.67295
 C614 C 0.00409 0.41456 0.65044
 H615 H 0.07642 0.33197 0.62907
 H616 H 0.06916 0.29970 0.59039
 H617 H -0.00724 0.34575 0.57105
 H618 H 0.07265 0.37143 0.66576
 H619 H 0.05807 0.41166 0.69532
 H620 H -0.01519 0.42581 0.64612
 C621 C 0.48538 0.14314 0.88952
 C622 C 0.49526 0.16994 0.88257
 C623 C 0.50286 0.17958 0.85460
 C624 C 0.50040 0.16073 0.83289
 C625 C 0.49057 0.13280 0.83944
 C626 C 0.48274 0.12406 0.86827
 O627 O 0.47987 0.13803 0.91748
 C628 C 0.48646 0.16214 0.92841
 C629 C 0.49599 0.18230 0.90792
 C630 C 0.50473 0.20881 0.91459
 C631 C 0.50355 0.21486 0.94357
 C632 C 0.49355 0.19459 0.96530
 C633 C 0.48495 0.16775 0.95742
 H634 H 0.51060 0.20079 0.84968
 H635 H 0.50618 0.16791 0.81097
 H636 H 0.47561 0.10278 0.87412
 H637 H 0.51252 0.22419 0.89811
 H638 H 0.51100 0.23521 0.94904
 H639 H 0.47724 0.15176 0.97333
 C640 C 0.99984 0.64445 0.38998
 C641 C 1.01397 0.65582 0.36561
 C642 C 1.02289 0.68372 0.36285
 C643 C 1.01733 0.70052 0.38633
 C644 C 1.00312 0.68923 0.41195
 C645 C 0.99411 0.66075 0.41358
 O646 O 0.99304 0.61755 0.38813
 C647 C 1.00311 0.61180 0.36199
 C648 C 1.01617 0.63451 0.34738
 C649 C 1.02814 0.63327 0.31966
 C650 C 1.02618 0.60773 0.30625
 C651 C 1.01227 0.58409 0.32056
 C652 C 1.00095 0.58612 0.34906
 H653 H 1.03381 0.69223 0.34334
 H654 H 1.02405 0.72231 0.38451
 H655 H 0.98358 0.65130 0.43288
 H656 H 1.03846 0.65138 0.30868
 H657 H 1.03541 0.60641 0.28463
 H658 H 0.99005 0.56858 0.36047
 C659 C 1.10584 0.54475 0.09537
 C660 C 1.10927 0.56833 0.11040
 C661 C 1.13358 0.58415 0.10737
 C662 C 1.15526 0.57532 0.08808
 C663 C 1.15256 0.55083 0.07200
 C664 C 1.12694 0.53565 0.07595
 O665 O 1.08170 0.53182 0.10233
 C666 C 1.06968 0.54754 0.12235
 C667 C 1.08565 0.57021 0.12805
 C668 C 1.07770 0.58856 0.14935
 C669 C 1.05261 0.58289 0.16586
 C670 C 1.03612 0.55920 0.16084
 C671 C 1.04458 0.54166 0.13831
 H672 H 1.13605 0.60232 0.11993
 H673 H 1.17450 0.58710 0.08702
 H674 H 1.12280 0.51749 0.06402
 H675 H 1.09072 0.60612 0.15363
 H676 H 1.04637 0.59649 0.18302
 H677 H 1.03286 0.52302 0.13446
 C678 C 0.60651 0.03904 0.60979
 C679 C 0.62131 0.06380 0.60576
 C680 C 0.61715 0.08607 0.62375
 C681 C 0.59691 0.08266 0.64680
 C682 C 0.58155 0.05719 0.65155
 C683 C 0.58651 0.03512 0.63266
 O684 O 0.61375 0.02038 0.59048
 C685 C 0.63363 0.03358 0.57393
 C686 C 0.63915 0.06018 0.58237
 C687 C 0.65990 0.07725 0.56852
 C688 C 0.67573 0.06633 0.54522
 C689 C 0.67037 0.03895 0.53614
 C690 C 0.64881 0.02251 0.55063
 H691 H 0.62911 0.10533 0.62024
 H692 H 0.59349 0.09964 0.66121
 H693 H 0.57498 0.01554 0.63554
 H694 H 0.66403 0.09803 0.57565
 H695 H 0.69220 0.07909 0.53428
 H696 H 0.64461 0.00134 0.54453
 C697 C -0.12144 0.45592 0.89994
 C698 C -0.12866 0.43908 0.87875
 C699 C -0.15562 0.42889 0.87732
 C700 C -0.17601 0.43643 0.89859
 C701 C -0.16917 0.45382 0.92078
 C702 C -0.14129 0.46349 0.92141
 O703 O -0.09494 0.46422 0.89682
 C704 C -0.08523 0.45238 0.87308
 C705 C -0.10504 0.43672 0.86125
 C706 C -0.09967 0.42320 0.83591
 C707 C -0.07293 0.42625 0.82197
 C708 C -0.05222 0.44275 0.83338
 C709 C -0.05842 0.45563 0.85961
 H710 H -0.16088 0.41596 0.86020
 H711 H -0.19723 0.42922 0.89733
 H712 H -0.13515 0.47656 0.93806
 H713 H -0.11561 0.41104 0.82699
 H714 H -0.06841 0.41593 0.80213
 H715 H -0.04323 0.46863 0.86866
 C716 C 0.39186 -0.02845 0.38652
 C717 C 0.37583 -0.05234 0.39097
 C718 C 0.37798 -0.07462 0.37285
 C719 C 0.39769 -0.07233 0.34931
 C720 C 0.41482 -0.04806 0.34432
 C721 C 0.41162 -0.02572 0.36323
 O722 O 0.38621 -0.00956 0.40608
 C723 C 0.36615 -0.02183 0.42325
 C724 C 0.35911 -0.04806 0.41492
 C725 C 0.33834 -0.06449 0.42947
 C726 C 0.32385 -0.05323 0.45329
 C727 C 0.33024 -0.02596 0.46208
 C728 C 0.35208 -0.01025 0.44705
 H729 H 0.36492 -0.09310 0.37669
 H730 H 0.39949 -0.08943 0.33489
 H731 H 0.42448 -0.00703 0.36026
 H732 H 0.33321 -0.08508 0.42252
 H733 H 0.30740 -0.06562 0.46476
 H734 H 0.35719 0.01072 0.45304
 C735 C 0.12053 0.47017 0.88245
 C736 C 0.12929 0.45097 0.86272
 C737 C 0.15690 0.44140 0.85936
 C738 C 0.17623 0.45190 0.87724
 C739 C 0.16773 0.47167 0.89790
 C740 C 0.13939 0.48094 0.90038
 O741 O 0.09351 0.47693 0.88182
 C742 C 0.08504 0.46169 0.86119
 C743 C 0.10614 0.44543 0.84884
 C744 C 0.10212 0.42850 0.82624
 C745 C 0.07540 0.42874 0.81559
 C746 C 0.05336 0.44567 0.82765
 C747 C 0.05820 0.46201 0.85113
 H748 H 0.16334 0.42645 0.84350
 H749 H 0.19785 0.44483 0.87481
 H750 H 0.13213 0.49576 0.91608
 H751 H 0.11907 0.41598 0.81679
 H752 H 0.07192 0.41607 0.79768
 H753 H 0.04193 0.47548 0.86042
 C754 C 0.62616 -0.02242 0.37376
 C755 C 0.64271 -0.04590 0.37911
 C756 C 0.64203 -0.06993 0.36341
 C757 C 0.62341 -0.06978 0.34146
 C758 C 0.60624 -0.04572 0.33549
 C759 C 0.60783 -0.02167 0.35186
 O760 O 0.62952 -0.00200 0.39142
 C761 C 0.64867 -0.01277 0.40826
 C762 C 0.65755 -0.03952 0.40158
 C763 C 0.67774 -0.05455 0.41643
 C764 C 0.68931 -0.04139 0.43895
 C765 C 0.68035 -0.01386 0.44631
 C766 C 0.65962 0.00054 0.43075
 H767 H 0.65517 -0.08821 0.36805
 H768 H 0.62239 -0.08829 0.32906
 H769 H 0.59467 -0.00320 0.34811
 H770 H 0.68443 -0.07558 0.41080
 H771 H 0.70507 -0.05268 0.45081
 H772 H 0.65261 0.02167 0.43567
 C773 C 0.86478 0.51939 0.12742
 C774 C 0.86521 0.49784 0.14835
 C775 C 0.84525 0.47667 0.15154
 C776 C 0.82426 0.47745 0.13201
 C777 C 0.82360 0.49917 0.10988
 C778 C 0.84394 0.52072 0.10790
 O779 O 0.88628 0.53681 0.12751
 C780 C 0.90059 0.52596 0.14893
 C781 C 0.88856 0.50212 0.16236
 C782 C 0.90046 0.48688 0.18477
 C783 C 0.92572 0.49671 0.19386
 C784 C 0.93854 0.52142 0.18055
 C785 C 0.92569 0.53615 0.15764
 H786 H 0.84610 0.45987 0.16811
 H787 H 0.80873 0.46091 0.13384
 H788 H 0.84428 0.53724 0.09094
 H789 H 0.89078 0.46796 0.19475
 H790 H 0.93547 0.48483 0.21102
 H791 H 0.93482 0.55509 0.14708
 C792 C 0.37797 0.02639 0.62634
 C793 C 0.35513 0.04422 0.62905
 C794 C 0.35021 0.06105 0.65226
 C795 C 0.36972 0.05956 0.67343
 C796 C 0.39391 0.04175 0.67091
 C797 C 0.39788 0.02498 0.64677
 O798 O 0.37837 0.01146 0.60320
 C799 C 0.35528 0.02013 0.59096
 C800 C 0.34043 0.04033 0.60577
 C801 C 0.31563 0.05231 0.59666
 C802 C 0.30550 0.04274 0.57154
 C803 C 0.31989 0.02113 0.55629
 C804 C 0.34542 0.01001 0.56617
 H805 H 0.33182 0.07461 0.65419
 H806 H 0.36569 0.07210 0.69187
 H807 H 0.41613 0.01146 0.64355
 H808 H 0.30442 0.06839 0.60851
 H809 H 0.28634 0.05213 0.56413
 H810 H 0.35685 -0.00675 0.55557
   
