data_POSCAR
  _audit_creation_date              2014-09-24
  _audit_creation_method            'ToBaCCo'
  _symmetry_space_group_name_H-M    'P1'
  _symmetry_Int_Tables_number       1
  _symmetry_cell_setting            triclinic
  loop_
  _symmetry_equiv_pos_as_xyz
 x,y,z
_cell_length_a 20.7945
_cell_length_b 20.3122
_cell_length_c 32.3263
_cell_angle_alpha 82.809600
_cell_angle_beta 89.156300
_cell_angle_gamma 81.078300
loop_
  _atom_site_label
  _atom_site_type_symbol
  _atom_site_fract_x
  _atom_site_fract_y
  _atom_site_fract_z
O1 O -0.09501 0.59000 0.95266
 O2 O -0.09692 0.44982 1.03535
 O3 O -0.10642 0.58018 1.03337
 O4 O -0.07690 0.46021 0.95523
 O5 O 0.02902 0.45591 0.96344
 O6 O -0.00028 0.57123 1.04246
 O7 O 0.00945 0.44081 1.04344
 O8 O 0.01076 0.58568 0.96156
 Cu9 Cu -0.10441 0.52064 0.99345
 Cu10 Cu 0.02279 0.51281 1.00376
 C11 C -0.04232 0.61193 0.94295
 C12 C -0.04442 0.42047 1.05304
 C13 C -0.05792 0.59629 1.05105
 C14 C -0.01848 0.43817 0.94591
 O15 O 0.45708 -0.09982 0.47230
 O16 O 0.57832 -0.10063 0.55509
 O17 O 0.45254 -0.09304 0.55201
 O18 O 0.58395 -0.11442 0.47600
 O19 O 0.57852 -0.00436 0.46242
 O20 O 0.44329 0.01728 0.53784
 O21 O 0.57047 0.00946 0.54094
 O22 O 0.45262 0.01000 0.45769
 Cu23 Cu 0.51866 -0.11296 0.51523
 Cu24 Cu 0.51030 0.01921 0.49848
 C25 C 0.43464 -0.04442 0.45076
 C26 C 0.59549 -0.04548 0.56181
 C27 C 0.42508 -0.03477 0.55774
 C28 C 0.60410 -0.06350 0.45649
 C29 C 0.15624 -0.07143 0.28355
 H30 H 0.16575 -0.06276 0.25048
 C31 C 0.20812 -0.08691 0.31181
 H32 H 0.25749 -0.09024 0.30024
 C33 C 0.08035 -0.07883 0.33871
 H34 H 0.03047 -0.07576 0.34911
 C35 C 0.13082 -0.09572 0.36798
 H36 H 0.11945 -0.10491 0.40081
 N37 N 0.09372 -0.06619 0.29739
 C38 C -0.02885 -0.10922 0.19787
 H39 H -0.06840 -0.06778 0.19626
 C40 C -0.03076 -0.16007 0.17269
 H41 H -0.07076 -0.15530 0.15099
 C42 C 0.07056 -0.16571 0.22833
 H43 H 0.10970 -0.16860 0.25031
 C44 C 0.07083 -0.21732 0.20357
 H45 H 0.11070 -0.25887 0.20653
 Zn46 Zn 0.02356 -0.04181 0.25852
 N47 N 0.02168 -0.11234 0.22475
 C48 C -0.01479 0.06569 0.19558
 N49 N 0.03223 0.04034 0.22457
 C50 C 0.08256 0.07409 0.23014
 C51 C 0.08802 0.13429 0.20515
 C52 C -0.01138 0.12577 0.17006
 C53 C -0.09624 -0.07397 0.29212
 C54 C -0.15343 -0.06352 0.31516
 C55 C -0.12525 0.04230 0.32977
 C56 C -0.06859 0.02979 0.30647
 N57 N -0.05515 -0.02765 0.28834
 H58 H -0.05554 0.03975 0.19239
 H59 H 0.11827 0.05523 0.25429
 H60 H 0.12859 0.16020 0.20987
 H61 H -0.04865 0.14338 0.14655
 H62 H -0.08436 -0.11950 0.27768
 H63 H -0.18566 -0.10074 0.31705
 H64 H -0.13502 0.08808 0.34427
 H65 H -0.03493 0.06571 0.30301
 C66 C 0.01981 -0.21506 0.17535
 C67 C 0.19546 -0.09833 0.35470
 C68 C -0.16806 -0.00504 0.33490
 C69 C 0.04051 0.16114 0.17483
 C70 C -0.08900 0.16517 0.77161
 H71 H -0.12704 0.15200 0.75336
 C72 C -0.10426 0.21583 0.79728
 H73 H -0.15401 0.24102 0.79850
 C74 C 0.02152 0.14869 0.79250
 H75 H 0.07077 0.12323 0.79007
 C76 C 0.00845 0.19883 0.81862
 H77 H 0.04805 0.20882 0.83694
 N78 N -0.02705 0.13203 0.77008
 C79 C 0.09112 0.01532 0.68476
 H80 H 0.06876 -0.02968 0.68974
 C81 C 0.14567 0.01699 0.65933
 H82 H 0.16394 -0.02687 0.64436
 C83 C 0.09149 0.12793 0.69687
 H84 H 0.06947 0.17132 0.71109
 C85 C 0.14627 0.13185 0.67152
 H86 H 0.16662 0.17816 0.66674
 Zn87 Zn -0.00774 0.05980 0.73736
 N88 N 0.06567 0.06990 0.70332
 C89 C -0.07666 0.07883 0.66117
 N90 N -0.08034 0.05802 0.70268
 C91 C -0.13522 0.03717 0.71961
 C92 C -0.18837 0.03450 0.69426
 C93 C -0.12925 0.07854 0.63489
 C94 C 0.05394 -0.02892 0.80522
 C95 C 0.06624 -0.08836 0.83265
 C96 C -0.00602 -0.13687 0.79174
 C97 C -0.01671 -0.07665 0.76503
 N98 N 0.01146 -0.02327 0.77285
 H99 H -0.03314 0.09636 0.64842
 H100 H -0.13749 0.02220 0.75285
 H101 H -0.23164 0.01783 0.70822
 H102 H -0.12582 0.09563 0.60193
 H103 H 0.07795 0.01273 0.81025
 H104 H 0.09894 -0.09139 0.85883
 H105 H -0.02906 -0.17845 0.78475
 H106 H -0.04730 -0.07298 0.73791
 C107 C 0.17476 0.07552 0.65302
 C108 C -0.05537 0.23328 0.82129
 C109 C 0.03460 -0.14253 0.82678
 C110 C -0.18543 0.05517 0.65128
 C111 C -0.06866 -0.35436 0.08124
 C112 C -0.01880 -0.33675 0.10077
 C113 C -0.02818 -0.28404 0.12869
 C114 C 0.02312 -0.26908 0.14816
 H115 H 0.03045 -0.36063 0.09538
 H116 H -0.07674 -0.25777 0.13301
 H117 H -0.11801 -0.33092 0.08667
 H118 H 0.07048 -0.29867 0.14440
 C119 C -0.04755 0.36483 0.08258
 C120 C 0.00452 0.32709 0.10185
 C121 C -0.00365 0.26601 0.12999
 C122 C 0.04723 0.22473 0.14822
 H123 H 0.05292 0.33955 0.09582
 H124 H -0.05248 0.25471 0.13551
 H125 H -0.09519 0.35047 0.08905
 H126 H 0.09546 0.23851 0.14410
 C127 C 0.37127 -0.02982 0.58772
 C128 C 0.33263 0.02737 0.59325
 C129 C 0.27674 0.02500 0.62168
 C130 C 0.23326 0.07934 0.62650
 H131 H 0.34059 0.07460 0.57588
 H132 H 0.27091 -0.02309 0.63876
 H133 H 0.36144 -0.07656 0.60493
 H134 H 0.24121 0.12800 0.61118
 C135 C -0.35698 -0.04587 0.59199
 C136 C -0.33135 0.00922 0.59705
 C137 C -0.27846 0.00727 0.62715
 C138 C -0.24083 0.05544 0.62319
 H139 H -0.34728 0.05613 0.57742
 H140 H -0.26858 -0.03494 0.65143
 H141 H -0.33844 -0.09308 0.61054
 H142 H -0.24832 0.09443 0.59678
 C143 C -0.04464 -0.33155 0.90958
 C144 C 0.00592 -0.29978 0.89901
 C145 C -0.00197 -0.24221 0.86596
 C146 C 0.04430 -0.20356 0.85772
 H147 H 0.05215 -0.31512 0.91518
 H148 H -0.04805 -0.22953 0.84944
 H149 H -0.09080 -0.31453 0.89353
 H150 H 0.08854 -0.21414 0.87629
 C151 C -0.00388 0.39135 0.91465
 C152 C -0.04937 0.36538 0.89610
 C153 C -0.02988 0.31674 0.86630
 C154 C -0.07328 0.28534 0.84965
 H155 H -0.10035 0.37863 0.90357
 H156 H 0.02107 0.30672 0.85830
 H157 H 0.04696 0.37667 0.90724
 H158 H -0.12435 0.29846 0.85701
 C159 C -0.34176 -0.07471 0.42715
 C160 C -0.31411 -0.02493 0.40691
 C161 C -0.25799 -0.04017 0.37949
 C162 C -0.22695 0.00837 0.36083
 H163 H -0.33196 0.02681 0.41120
 H164 H -0.24065 -0.09224 0.37605
 H165 H -0.32299 -0.12625 0.42283
 H166 H -0.24331 0.05976 0.36658
 C167 C 0.38750 -0.04181 0.41698
 C168 C 0.34941 -0.08861 0.41527
 C169 C 0.30035 -0.08029 0.38190
 C170 C 0.24845 -0.11195 0.38604
 H171 H 0.35215 -0.13100 0.43951
 H172 H 0.30455 -0.04410 0.35472
 H173 H 0.38138 0.00236 0.39394
 H174 H 0.24178 -0.14377 0.41482
   
