data_POSCAR
  _audit_creation_date              2014-09-24
  _audit_creation_method            'ToBaCCo'
  _symmetry_space_group_name_H-M    'P1'
  _symmetry_Int_Tables_number       1
  _symmetry_cell_setting            triclinic
  loop_
  _symmetry_equiv_pos_as_xyz
 x,y,z
_cell_length_a 20.5741
_cell_length_b 20.4457
_cell_length_c 22.9235
_cell_angle_alpha 89.690300
_cell_angle_beta 90.163300
_cell_angle_gamma 90.170900
loop_
  _atom_site_label
  _atom_site_type_symbol
  _atom_site_fract_x
  _atom_site_fract_y
  _atom_site_fract_z
C1 C 1.25545 0.26025 0.24752
 C2 C 0.75041 -0.24675 0.24668
 C3 C 0.75120 0.24211 -0.25313
 C4 C 1.24949 -0.24983 -0.24931
 C5 C 0.25241 0.25235 0.74441
 C6 C 0.76022 0.74894 0.74794
 C7 C 0.74916 0.24398 0.24915
 C8 C 0.25951 0.74689 0.24565
 O9 O 1.13040 0.07437 0.03828
 O10 O 0.88047 -0.07312 0.04191
 O11 O 0.93140 0.12597 0.03865
 O12 O 1.07871 -0.12549 0.04117
 O13 O 0.89461 0.03607 0.07119
 O14 O 1.11788 -0.03555 0.07098
 O15 O 0.96985 -0.11007 0.07480
 O16 O 1.04184 0.11164 0.07209
 C17 C 1.10140 0.10506 0.07733
 C18 C 0.91086 -0.10182 0.08139
 C19 C 0.90102 0.09559 0.07708
 C20 C 1.11004 -0.09484 0.07881
 O21 O 1.12555 -0.07682 -0.04153
 O22 O 0.88214 0.07530 -0.04144
 O23 O 1.08112 0.12365 -0.04081
 O24 O 0.92706 -0.12501 -0.03606
 O25 O 0.89348 -0.03620 -0.07270
 O26 O 1.11477 0.03402 -0.07527
 O27 O 1.03508 -0.11409 -0.07088
 O28 O 0.97135 0.11288 -0.07350
 Co29 Co 1.11075 -0.00095 -0.00187
 Co30 Co 0.89915 0.00039 -0.00046
 Co31 Co 1.00617 0.10676 -0.00073
 Co32 Co 1.00304 -0.10699 0.00205
 O33 O 1.00477 -0.00020 -0.00016
 C34 C 1.09335 -0.10507 -0.08007
 C35 C 0.91234 0.10466 -0.08062
 C36 C 1.10869 0.09380 -0.08092
 C37 C 0.90043 -0.09604 -0.07746
 O38 O 1.10781 0.53563 0.57313
 O39 O 0.88751 0.46480 0.56776
 O40 O 0.96459 0.61108 0.56575
 O41 O 1.03564 0.38716 0.56794
 O42 O 0.87571 0.57535 0.53202
 O43 O 1.12400 0.42567 0.53667
 O44 O 0.92774 0.37536 0.53697
 O45 O 1.07329 0.62481 0.53724
 C46 C 1.10076 0.59535 0.57813
 C47 C 0.89568 0.40526 0.57458
 C48 C 0.90553 0.60365 0.57186
 C49 C 1.09384 0.39661 0.57595
 O50 O 1.11542 0.47083 0.42685
 O51 O 0.88941 0.53149 0.42106
 O52 O 1.03783 0.60965 0.42156
 O53 O 0.96551 0.38689 0.42342
 O54 O 0.87636 0.42230 0.45697
 O55 O 1.12586 0.57904 0.46045
 O56 O 1.07622 0.37861 0.45316
 O57 O 0.92748 0.62141 0.45207
 Co58 Co 1.10663 0.50258 0.49933
 Co59 Co 0.89411 0.49885 0.49458
 Co60 Co 1.00080 0.60552 0.49404
 Co61 Co 1.00160 0.39331 0.49533
 O62 O 1.00069 0.49990 0.49566
 C63 C 1.10756 0.41219 0.41705
 C64 C 0.89789 0.59062 0.41353
 C65 C 1.09766 0.60586 0.41856
 C66 C 0.90587 0.39111 0.41892
 O67 O 0.62292 0.07117 0.53674
 O68 O 0.37606 -0.08229 0.53899
 O69 O 0.42509 0.11697 0.53633
 O70 O 0.57491 -0.13002 0.54342
 O71 O 0.38760 0.02891 0.57186
 O72 O 0.61034 -0.03796 0.57291
 O73 O 0.46556 -0.11871 0.57149
 O74 O 0.53430 0.10613 0.57001
 C75 C 0.59319 0.09842 0.57692
 C76 C 0.40681 -0.11035 0.57853
 C77 C 0.39673 0.08834 0.57701
 C78 C 0.60568 -0.09751 0.58052
 O79 O 0.62387 -0.08245 0.46311
 O80 O 0.37422 0.06799 0.45697
 O81 O 0.57399 0.11763 0.45538
 O82 O 0.42679 -0.13201 0.45840
 O83 O 0.38739 -0.04228 0.42718
 O84 O 0.61096 0.02630 0.42663
 O85 O 0.53628 -0.11785 0.42741
 O86 O 0.46413 0.10520 0.42491
 Co87 Co 0.60557 -0.00575 0.49973
 Co88 Co 0.39311 -0.00677 0.49898
 Co89 Co 0.49976 0.10005 0.49711
 Co90 Co 0.50094 -0.11311 0.49981
 O91 O 0.49973 -0.00646 0.49878
 C92 C 0.59523 -0.10949 0.42199
 C93 C 0.40457 0.09991 0.41915
 C94 C 0.60432 0.08546 0.41831
 C95 C 0.39692 -0.10129 0.41962
 O96 O 0.62812 0.57317 0.03800
 O97 O 0.38174 0.41831 0.02739
 O98 O 0.42936 0.61854 0.03856
 O99 O 0.57953 0.37272 0.03427
 O100 O 0.38984 0.52772 0.06685
 O101 O 0.61440 0.46212 0.06941
 O102 O 0.46947 0.38203 0.06242
 O103 O 0.53850 0.60530 0.07219
 C104 C 0.59791 0.60117 0.07745
 C105 C 0.41063 0.39130 0.06843
 C106 C 0.39849 0.58676 0.07604
 C107 C 0.60751 0.40227 0.07465
 O108 O 0.63155 0.42438 -0.04237
 O109 O 0.38135 0.57396 -0.04445
 O110 O 0.57987 0.62421 -0.04081
 O111 O 0.43440 0.37464 -0.05297
 O112 O 0.39550 0.46587 -0.08112
 O113 O 0.61762 0.53551 -0.07461
 O114 O 0.54406 0.39148 -0.08064
 O115 O 0.47096 0.61377 -0.07385
 Co116 Co 0.61113 0.49865 -0.00267
 Co117 Co 0.39854 0.49663 -0.00739
 Co118 Co 0.50484 0.60397 -0.00119
 Co119 Co 0.50673 0.39163 -0.00889
 O120 O 0.50517 0.49772 -0.00506
 C121 C 0.60355 0.39733 -0.08378
 C122 C 0.41224 0.60530 -0.08196
 C123 C 0.61048 0.59533 -0.07989
 C124 C 0.40464 0.40714 -0.09057
 C125 C 1.23568 0.20348 0.14790
 C126 C 1.21435 0.21569 0.20529
 C127 C 1.15340 0.18683 0.21999
 C128 C 1.11519 0.15286 0.17846
 C129 C 1.13870 0.14164 0.12186
 C130 C 1.19922 0.16808 0.10772
 C131 C 1.25739 0.13415 0.08410
 C132 C 1.29727 0.17217 0.12794
 H133 H 1.13515 0.18890 0.26404
 H134 H 1.06864 0.13279 0.19150
 H135 H 1.26796 0.14816 0.03824
 H136 H 1.25674 0.08058 0.09285
 H137 H 1.33097 0.20785 0.10713
 H138 H 1.31919 0.13995 0.16179
 C139 C 1.19963 0.72820 0.64804
 C140 C 1.21012 0.70723 0.70621
 C141 C 1.17607 0.64916 0.72259
 C142 C 1.13960 0.61211 0.68209
 C143 C 1.13316 0.63348 0.62418
 C144 C 1.16072 0.69343 0.60926
 C145 C 1.20267 0.70698 0.55813
 C146 C 1.24734 0.74198 0.59966
 H147 H 1.17922 0.63005 0.76637
 H148 H 1.11737 0.56652 0.69587
 H149 H 1.17853 0.74028 0.52636
 H150 H 1.22439 0.66200 0.53941
 H151 H 1.25183 0.79444 0.58822
 H152 H 1.29417 0.71576 0.60544
 C153 C 0.73247 0.14844 0.67431
 C154 C 0.70525 0.19469 0.71219
 C155 C 0.63604 0.19630 0.71275
 C156 C 0.59888 0.16540 0.66907
 C157 C 0.62911 0.12742 0.62622
 C158 C 0.69595 0.11740 0.63096
 C159 C 0.72752 0.05290 0.64125
 C160 C 0.76449 0.08466 0.69027
 H161 H 0.60907 0.22050 0.74637
 H162 H 0.54654 0.17099 0.66911
 H163 H 0.75899 0.03840 0.60422
 H164 H 0.69298 0.01453 0.65645
 H165 H 0.81785 0.08460 0.68343
 H166 H 0.74901 0.06525 0.73336
 C167 C 0.72627 0.70786 0.14373
 C168 C 0.70903 0.71273 0.20301
 C169 C 0.65084 0.67991 0.21970
 C170 C 0.61237 0.64568 0.17890
 C171 C 0.63335 0.63936 0.12103
 C172 C 0.68964 0.67226 0.10439
 C173 C 0.74747 0.64705 0.07295
 C174 C 0.78816 0.68549 0.11586
 H175 H 0.63515 0.68031 0.26471
 H176 H 0.56829 0.62147 0.19326
 H177 H 0.75036 0.66620 0.02754
 H178 H 0.75351 0.59325 0.07769
 H179 H 0.81493 0.72618 0.09428
 H180 H 0.81781 0.65389 0.14520
 C181 C 0.77761 -0.14288 0.18768
 C182 C 0.79778 -0.20281 0.21177
 C183 C 0.86195 -0.22304 0.19769
 C184 C 0.90016 -0.18798 0.15775
 C185 C 0.87593 -0.13164 0.13034
 C186 C 0.81545 -0.10833 0.14835
 C187 C 0.75732 -0.08592 0.11455
 C188 C 0.71575 -0.12270 0.15866
 H189 H 0.88092 -0.26944 0.21270
 H190 H 0.94586 -0.20886 0.14396
 H191 H 0.75494 -0.10738 0.07012
 H192 H 0.75050 -0.03212 0.11626
 H193 H 0.68825 -0.16402 0.13924
 H194 H 0.68656 -0.08977 0.18667
 C195 C 0.82999 0.26148 0.65875
 C196 C 0.78912 0.28659 0.70267
 C197 C 0.78796 0.35689 0.70434
 C198 C 0.82236 0.39639 0.66345
 C199 C 0.86154 0.36779 0.62030
 C200 C 0.86436 0.30015 0.62116
 C201 C 0.89773 0.24607 0.59110
 C202 C 0.86105 0.20134 0.63328
 H203 H 0.76151 0.38306 0.73731
 H204 H 0.81847 0.44912 0.66603
 H205 H 0.95110 0.24632 0.59795
 H206 H 0.88167 0.24135 0.54495
 H207 H 0.89365 0.17593 0.66474
 H208 H 0.82760 0.16931 0.60841
 C209 C 0.28145 -0.14302 0.69418
 C210 C 0.29721 -0.20610 0.71535
 C211 C 0.35823 -0.23053 0.69680
 C212 C 0.39421 -0.19876 0.65291
 C213 C 0.37330 -0.13913 0.62883
 C214 C 0.31898 -0.11009 0.65390
 C215 C 0.26252 -0.07261 0.63036
 C216 C 0.22086 -0.10826 0.67558
 H217 H 0.37621 -0.27690 0.71214
 H218 H 0.43513 -0.22396 0.63424
 H219 H 0.25010 -0.08591 0.58472
 H220 H 0.26706 -0.01929 0.63872
 H221 H 0.18362 -0.14081 0.65595
 H222 H 0.20219 -0.07486 0.70970
 C223 C 0.36871 0.30150 0.20758
 C224 C 0.30006 0.30345 0.20864
 C225 C 0.27087 0.34744 0.16838
 C226 C 0.30715 0.37845 0.12434
 C227 C 0.37436 0.36756 0.11950
 C228 C 0.40418 0.33282 0.16443
 C229 C 0.45633 0.28299 0.16403
 C230 C 0.41884 0.24858 0.21238
 H231 H 0.21890 0.35336 0.16746
 H232 H 0.28171 0.40777 0.09215
 H233 H 0.50323 0.30425 0.17854
 H234 H 0.45773 0.25491 0.12266
 H235 H 0.44527 0.25043 0.25450
 H236 H 0.40111 0.19937 0.20031
 C237 C 0.77434 0.14786 -0.18195
 C238 C 0.79845 0.19886 -0.21721
 C239 C 0.86664 0.21073 -0.21249
 C240 C 0.90523 0.17760 -0.17037
 C241 C 0.87665 0.13321 -0.13058
 C242 C 0.81146 0.11767 -0.14000
 C243 C 0.75445 0.10450 -0.10155
 C244 C 0.71250 0.13443 -0.14968
 H245 H 0.88997 0.24880 -0.23778
 H246 H 0.95618 0.19035 -0.16632
 H247 H 0.75565 0.13448 -0.06121
 H248 H 0.74469 0.05182 -0.09449
 H249 H 0.68551 0.17805 -0.13504
 H250 H 0.68195 0.09755 -0.17247
 C251 C 0.78222 0.63857 0.29244
 C252 C 0.79000 0.70694 0.28719
 C253 C 0.84173 0.73294 0.32150
 C254 C 0.87841 0.69448 0.36015
 C255 C 0.86616 0.62715 0.36633
 C256 C 0.81913 0.60106 0.32948
 C257 C 0.78487 0.53908 0.31638
 C258 C 0.74322 0.57995 0.27421
 H259 H 0.85598 0.78329 0.31723
 H260 H 0.91589 0.71817 0.38582
 H261 H 0.75742 0.52022 0.35459
 H262 H 0.81674 0.50313 0.29430
 H263 H 0.69178 0.58193 0.28855
 H264 H 0.75067 0.56737 0.22757
 C265 C 0.28532 0.15041 0.30084
 C266 C 0.29523 0.21774 0.29166
 C267 C 0.34505 0.24482 0.32824
 C268 C 0.38157 0.20649 0.36826
 C269 C 0.36942 0.13919 0.37512
 C270 C 0.32006 0.11408 0.34040
 C271 C 0.28652 0.05214 0.32679
 C272 C 0.24670 0.09179 0.28256
 H273 H 0.35973 0.29508 0.32449
 H274 H 0.41894 0.22992 0.39421
 H275 H 0.25737 0.03441 0.36443
 H276 H 0.31984 0.01657 0.30607
 H277 H 0.19475 0.09462 0.29523
 H278 H 0.25586 0.07759 0.23659
 C279 C 0.29877 0.64086 -0.20737
 C280 C 0.29107 0.70958 -0.20529
 C281 C 0.32825 0.74214 -0.16174
 C282 C 0.36958 0.70844 -0.12340
 C283 C 0.37710 0.64080 -0.12768
 C284 C 0.33999 0.60748 -0.16899
 C285 C 0.36395 0.56339 -0.21584
 C286 C 0.31714 0.59715 -0.25702
 H287 H 0.32828 0.79440 -0.15787
 H288 H 0.39594 0.73547 -0.09034
 H289 H 0.35149 0.51149 -0.20807
 H290 H 0.41585 0.57243 -0.22683
 H291 H 0.27685 0.56414 -0.27043
 H292 H 0.34145 0.62219 -0.29397
 C293 C 1.13715 -0.22293 -0.20003
 C294 C 1.20250 -0.20619 -0.21268
 C295 C 1.22444 -0.14616 -0.18780
 C296 C 1.18693 -0.11056 -0.14830
 C297 C 1.12550 -0.13299 -0.13145
 C298 C 1.09962 -0.18646 -0.16129
 C299 C 1.06564 -0.24450 -0.13688
 C300 C 1.10686 -0.28499 -0.17738
 H301 H 1.27247 -0.12703 -0.19621
 H302 H 1.20799 -0.06763 -0.12808
 H303 H 1.01320 -0.24505 -0.14851
 H304 H 1.07673 -0.25303 -0.08995
 H305 H 1.07674 -0.31027 -0.21074
 H306 H 1.14200 -0.31633 -0.15321
 C307 C 1.14478 0.30683 0.28644
 C308 C 1.21335 0.30894 0.28382
 C309 C 1.24346 0.35787 0.31839
 C310 C 1.20914 0.39192 0.36126
 C311 C 1.14250 0.38117 0.36890
 C312 C 1.10997 0.34163 0.32892
 C313 C 1.06251 0.36703 0.28504
 C314 C 1.09888 0.32963 0.23951
 H315 H 1.29372 0.37086 0.31243
 H316 H 1.23492 0.42612 0.38894
 H317 H 1.06565 0.42099 0.27897
 H318 H 1.01265 0.34855 0.29146
 H319 H 1.12147 0.36245 0.20666
 H320 H 1.06934 0.28931 0.22070
 C321 C 0.73743 -0.16829 0.33377
 C322 C 0.70848 -0.20115 0.28619
 C323 C 0.64033 -0.19214 0.27945
 C324 C 0.60263 -0.16361 0.32361
 C325 C 0.63237 -0.13799 0.37368
 C326 C 0.70002 -0.13861 0.37684
 C327 C 0.74211 -0.07951 0.37991
 C328 C 0.78168 -0.10929 0.33193
 H329 H 0.61513 -0.20682 0.24032
 H330 H 0.55048 -0.16025 0.31792
 H331 H 0.76868 -0.07649 0.42210
 H332 H 0.71667 -0.03396 0.36634
 H333 H 0.83219 -0.11891 0.34659
 H334 H 0.77811 -0.08099 0.29057
 C335 C 0.73195 0.29244 -0.15109
 C336 C 0.71292 0.28612 -0.20988
 C337 C 0.65832 0.32411 -0.22737
 C338 C 0.62104 0.35905 -0.18658
 C339 C 0.64107 0.36271 -0.12810
 C340 C 0.69685 0.32892 -0.11146
 C341 C 0.75668 0.35433 -0.08241
 C342 C 0.79530 0.31451 -0.12570
 H343 H 0.64390 0.32602 -0.27281
 H344 H 0.57817 0.38513 -0.20112
 H345 H 0.76134 0.33626 -0.03676
 H346 H 0.76298 0.40803 -0.08818
 H347 H 0.82234 0.27376 -0.10457
 H348 H 0.82416 0.34493 -0.15661
 C349 C 1.20299 0.22836 -0.15292
 C350 C 1.21273 0.21029 -0.21140
 C351 C 1.18117 0.15047 -0.22743
 C352 C 1.14822 0.11047 -0.18556
 C353 C 1.14208 0.13106 -0.12709
 C354 C 1.16897 0.19130 -0.11415
 C355 C 1.17919 0.23535 -0.06394
 C356 C 1.21754 0.27816 -0.10667
 H357 H 1.18293 0.13389 -0.27215
 H358 H 1.12682 0.06456 -0.19916
 H359 H 1.20976 0.21280 -0.02940
 H360 H 1.13318 0.25793 -0.04884
 H361 H 1.27008 0.28081 -0.09549
 H362 H 1.19338 0.32584 -0.11509
 C363 C 1.16474 0.66897 0.27373
 C364 C 1.21801 0.71028 0.28872
 C365 C 1.22802 0.71387 0.35086
 C366 C 1.18915 0.67977 0.39154
 C367 C 1.13598 0.64145 0.37406
 C368 C 1.12567 0.63809 0.31417
 C369 C 1.08385 0.60534 0.27048
 C370 C 1.12600 0.63990 0.22430
 H371 H 1.26616 0.74275 0.37030
 H372 H 1.20081 0.68407 0.43728
 H373 H 1.03289 0.62318 0.27187
 H374 H 1.08982 0.55133 0.27128
 H375 H 1.09785 0.67616 0.19854
 H376 H 1.15388 0.60510 0.19722
 C377 C 0.64072 0.19209 0.28791
 C378 C 0.70892 0.19887 0.28982
 C379 C 0.74185 0.15781 0.33058
 C380 C 0.70781 0.11746 0.36996
 C381 C 0.63969 0.11822 0.37125
 C382 C 0.60758 0.15357 0.32799
 C383 C 0.55072 0.19776 0.33087
 C384 C 0.58599 0.24031 0.28651
 H385 H 0.79441 0.15779 0.33264
 H386 H 0.73477 0.08905 0.40182
 H387 H 0.54549 0.22139 0.37415
 H388 H 0.50619 0.17405 0.31333
 H389 H 0.59927 0.28927 0.30321
 H390 H 0.56102 0.24053 0.24371
 C391 C 0.71262 0.63810 -0.21232
 C392 C 0.71687 0.70716 -0.21064
 C393 C 0.67853 0.73816 -0.16765
 C394 C 0.64133 0.70195 -0.12733
 C395 C 0.64232 0.63303 -0.12714
 C396 C 0.67620 0.60249 -0.17207
 C397 C 0.72364 0.54770 -0.16955
 C398 C 0.76400 0.58612 -0.21329
 H399 H 0.67841 0.79085 -0.16433
 H400 H 0.61445 0.72820 -0.09438
 H401 H 0.70316 0.50166 -0.18764
 H402 H 0.74739 0.54274 -0.12612
 H403 H 0.76712 0.56114 -0.25612
 H404 H 0.81135 0.60279 -0.19528
 C405 C 0.80744 -0.13988 -0.21469
 C406 C 0.80462 -0.20893 -0.21250
 C407 C 0.84382 -0.23938 -0.16939
 C408 C 0.87800 -0.20252 -0.12765
 C409 C 0.87375 -0.13373 -0.12694
 C410 C 0.84141 -0.10372 -0.17338
 C411 C 0.79250 -0.05051 -0.17285
 C412 C 0.75512 -0.08902 -0.21815
 H413 H 0.84560 -0.29210 -0.16619
 H414 H 0.90445 -0.22835 -0.09378
 H415 H 0.81267 -0.00388 -0.19007
 H416 H 0.76679 -0.04783 -0.13044
 H417 H 0.75377 -0.06363 -0.26110
 H418 H 0.70720 -0.10651 -0.20220
 C419 C 0.76657 0.33364 0.32595
 C420 C 0.79306 0.28485 0.29017
 C421 C 0.86062 0.27271 0.29784
 C422 C 0.89757 0.30704 0.33951
 C423 C 0.86920 0.35604 0.37371
 C424 C 0.80352 0.36938 0.36479
 C425 C 0.74891 0.37359 0.40741
 C426 C 0.70805 0.33521 0.36416
 H427 H 0.88479 0.23379 0.27483
 H428 H 0.94714 0.29213 0.34763
 H429 H 0.73160 0.42450 0.41339
 H430 H 0.75890 0.34626 0.44854
 H431 H 0.66839 0.36512 0.34484
 H432 H 0.69351 0.28630 0.38107
 C433 C 0.36444 -0.22510 0.30052
 C434 C 0.30223 -0.20754 0.27851
 C435 C 0.27800 -0.14695 0.29974
 C436 C 0.30929 -0.11285 0.34489
 C437 C 0.36787 -0.13508 0.36913
 C438 C 0.39641 -0.18956 0.34332
 C439 C 0.42762 -0.24894 0.36879
 C440 C 0.39343 -0.28811 0.32135
 H441 H 0.23188 -0.12794 0.28533
 H442 H 0.28445 -0.07228 0.36446
 H443 H 0.40969 -0.26049 0.41340
 H444 H 0.48134 -0.24818 0.36402
 H445 H 0.35713 -0.32316 0.33899
 H446 H 0.42766 -0.30908 0.28908
 C447 C 0.36161 0.27950 -0.20333
 C448 C 0.29865 0.29813 -0.22088
 C449 C 0.27727 0.36037 -0.20096
 C450 C 0.31424 0.39793 -0.16214
 C451 C 0.37362 0.37470 -0.14053
 C452 C 0.39777 0.31666 -0.16413
 C453 C 0.42563 0.25784 -0.13482
 C454 C 0.38618 0.21703 -0.17728
 H455 H 0.22886 0.37786 -0.21070
 H456 H 0.29300 0.44206 -0.14461
 H457 H 0.40920 0.25207 -0.08891
 H458 H 0.47896 0.25397 -0.14159
 H459 H 0.34730 0.18795 -0.15560
 H460 H 0.41723 0.18936 -0.20808
 C461 C 1.15087 -0.20831 0.20534
 C462 C 1.21976 -0.21302 0.20400
 C463 C 1.24995 -0.17154 0.16142
 C464 C 1.21442 -0.13251 0.12218
 C465 C 1.14663 -0.13052 0.12426
 C466 C 1.11548 -0.16947 0.16589
 C467 C 1.07012 -0.14686 0.21219
 C468 C 1.10661 -0.19007 0.25462
 H469 H 1.30162 -0.16540 0.15930
 H470 H 1.24031 -0.10311 0.09032
 H471 H 1.01955 -0.16333 0.20511
 H472 H 1.07541 -0.09380 0.22164
 H473 H 1.07626 -0.23164 0.27013
 H474 H 1.13044 -0.16239 0.29019
 C475 C 1.14057 0.27769 0.69610
 C476 C 1.20577 0.29507 0.70719
 C477 C 1.22989 0.35136 0.67773
 C478 C 1.19236 0.38583 0.63736
 C479 C 1.12856 0.36647 0.62521
 C480 C 1.10268 0.31294 0.65585
 C481 C 1.04550 0.31391 0.69574
 C482 C 1.08595 0.27591 0.73915
 H483 H 1.28000 0.36659 0.68296
 H484 H 1.21426 0.42663 0.61426
 H485 H 1.00378 0.28529 0.67880
 H486 H 1.03311 0.36400 0.71070
 H487 H 1.06724 0.22552 0.74669
 H488 H 1.09695 0.30379 0.77955
 C489 C 0.65075 -0.20104 0.71143
 C490 C 0.71876 -0.20692 0.70722
 C491 C 0.74909 -0.16801 0.66346
 C492 C 0.71248 -0.12946 0.62424
 C493 C 0.64422 -0.12978 0.62642
 C494 C 0.61500 -0.16320 0.67252
 C495 C 0.55887 -0.20871 0.67304
 C496 C 0.59768 -0.25129 0.71465
 H497 H 0.80133 -0.16853 0.65875
 H498 H 0.73738 -0.10241 0.59021
 H499 H 0.55006 -0.23179 0.62993
 H500 H 0.51643 -0.18574 0.69441
 H501 H 0.61165 -0.29902 0.69554
 H502 H 0.57487 -0.25448 0.75844
 C503 C 0.66017 0.26155 0.17098
 C504 C 0.70645 0.28851 0.20931
 C505 C 0.71437 0.35781 0.20469
 C506 C 0.67938 0.39550 0.16357
 C507 C 0.63690 0.36553 0.12363
 C508 C 0.62599 0.29853 0.13078
 C509 C 0.62126 0.24355 0.08853
 C510 C 0.65896 0.20256 0.13273
 H511 H 0.75113 0.38383 0.22885
 H512 H 0.68932 0.44746 0.16040
 H513 H 0.64871 0.25324 0.04763
 H514 H 0.57038 0.22651 0.08236
 H515 H 0.70751 0.18849 0.11605
 H516 H 0.62975 0.16202 0.15187
 C517 C 0.83308 0.23201 0.16754
 C518 C 0.79063 0.20242 0.20741
 C519 C 0.78746 0.13268 0.20372
 C520 C 0.82551 0.09758 0.16321
 C521 C 0.86672 0.13047 0.12355
 C522 C 0.86920 0.19813 0.12851
 C523 C 0.89566 0.25813 0.10019
 C524 C 0.85493 0.29671 0.14443
 H525 H 0.75436 0.10422 0.23008
 H526 H 0.82109 0.04489 0.16198
 H527 H 0.87845 0.26382 0.05442
 H528 H 0.94897 0.26322 0.10682
 H529 H 0.81472 0.32463 0.12366
 H530 H 0.88464 0.32433 0.17658
 C531 C 0.86886 0.70050 0.70793
 C532 C 0.80034 0.70455 0.70737
 C533 C 0.76775 0.66534 0.66561
 C534 C 0.80205 0.62931 0.62386
 C535 C 0.87031 0.63228 0.62136
 C536 C 0.90255 0.66512 0.66629
 C537 C 0.95754 0.71257 0.66419
 C538 C 0.92113 0.75182 0.70961
 H539 H 0.71524 0.66453 0.66385
 H540 H 0.77474 0.60243 0.59137
 H541 H 0.96154 0.73803 0.62135
 H542 H 1.00350 0.69104 0.68106
 H543 H 0.90475 0.80024 0.69319
 H544 H 0.94708 0.75307 0.75217
 C545 C 0.31649 0.23204 0.64747
 C546 C 0.29324 0.20858 0.70201
 C547 C 0.31577 0.14493 0.71825
 C548 C 0.35033 0.10466 0.67899
 C549 C 0.36662 0.12796 0.62320
 C550 C 0.35245 0.19281 0.61032
 C551 C 0.32328 0.21854 0.55575
 C552 C 0.28234 0.26057 0.59458
 H553 H 0.30539 0.12486 0.76092
 H554 H 0.36312 0.05531 0.69189
 H555 H 0.29472 0.18119 0.53149
 H556 H 0.35894 0.24670 0.52922
 H557 H 0.22982 0.24765 0.59244
 H558 H 0.29390 0.31304 0.58704
 C559 C 0.28307 0.63471 0.19971
 C560 C 0.29986 0.70108 0.21026
 C561 C 0.35515 0.72405 0.17867
 C562 C 0.38650 0.68654 0.13654
 C563 C 0.36689 0.62235 0.12463
 C564 C 0.31527 0.59669 0.15739
 C565 C 0.31818 0.53797 0.19580
 C566 C 0.28606 0.57847 0.24229
 H567 H 0.37597 0.77171 0.18645
 H568 H 0.42719 0.70819 0.11349
 H569 H 0.36869 0.52318 0.20701
 H570 H 0.28648 0.49799 0.17952
 H571 H 0.31853 0.58840 0.28003
 H572 H 0.23771 0.55868 0.25460
   
