data_POSCAR
  _audit_creation_date              2014-09-24
  _audit_creation_method            'ToBaCCo'
  _symmetry_space_group_name_H-M    'P1'
  _symmetry_Int_Tables_number       1
  _symmetry_cell_setting            triclinic
  loop_
  _symmetry_equiv_pos_as_xyz
 x,y,z
_cell_length_a 14.5395
_cell_length_b 14.5395
_cell_length_c 25.6101
_cell_angle_alpha 90.000000
_cell_angle_beta 90.000000
_cell_angle_gamma 120.000000
loop_
  _atom_site_label
  _atom_site_type_symbol
  _atom_site_fract_x
  _atom_site_fract_y
  _atom_site_fract_z
Zn1 Zn 0.93388 0.07155 1.02333
 Zn2 Zn 1.13767 0.06612 1.02333
 Zn3 Zn 0.92845 -0.13768 1.02333
 Zn4 Zn 1.00000 0.00000 0.92872
 O5 O 1.00000 0.00000 0.99984
 O6 O 1.01924 0.18370 1.06310
 O7 O 1.16446 -0.01924 1.06310
 O8 O 0.81630 -0.16446 1.06310
 O9 O 1.16982 0.17981 1.06314
 O10 O 0.82019 -0.00999 1.06314
 O11 O 1.00999 -0.16982 1.06314
 O12 O 0.93219 -0.13023 0.90157
 O13 O 1.23396 0.11229 0.97143
 O14 O 0.87832 -0.23396 0.97143
 O15 O 1.13023 0.06242 0.90157
 O16 O 0.93758 0.06781 0.90157
 O17 O 0.88771 0.12168 0.97143
 C18 C 1.11492 0.22106 1.07735
 C19 C 1.10614 -0.11492 1.07735
 C20 C 0.77894 -0.10614 1.07735
 C21 C 0.88477 -0.22146 0.92230
 C22 C 1.22146 0.10623 0.92230
 C23 C 0.89377 0.11523 0.92230
 Zn24 Zn 0.07155 0.93388 0.52333
 Zn25 Zn -0.13768 0.92845 0.52333
 Zn26 Zn 0.06612 1.13768 0.52333
 Zn27 Zn -0.00000 1.00000 0.42872
 O28 O -0.00000 1.00000 0.49984
 O29 O -0.00999 0.82019 0.56314
 O30 O -0.16982 1.00999 0.56314
 O31 O 0.17981 1.16982 0.56314
 O32 O -0.16446 0.81630 0.56310
 O33 O 0.18370 1.01924 0.56310
 O34 O -0.01924 1.16446 0.56310
 O35 O 0.06242 1.13023 0.40157
 O36 O -0.23396 0.87832 0.47143
 O37 O 0.11229 1.23396 0.47143
 O38 O -0.13023 0.93219 0.40157
 O39 O 0.06781 0.93758 0.40157
 O40 O 0.12168 0.88771 0.47143
 C41 C -0.10614 0.77894 0.57735
 C42 C -0.11492 1.10614 0.57735
 C43 C 0.22106 1.11492 0.57735
 C44 C 0.10623 1.22146 0.42230
 C45 C -0.22146 0.88477 0.42230
 C46 C 0.11523 0.89377 0.42230
 O47 O 0.17764 0.51598 0.31000
 O48 O 0.17338 0.69117 0.29373
 C49 C 0.23953 0.77287 0.31897
 O50 O 0.33833 0.82236 0.31000
 O51 O 0.51779 0.82662 0.29373
 C52 C 0.53334 0.76047 0.31897
 O53 O 0.48402 0.66167 0.31000
 O54 O 0.30883 0.48221 0.29373
 C55 C 0.22713 0.46666 0.31897
 O56 O 0.17313 0.48212 0.20632
 O57 O 0.17744 0.66202 0.19006
 C58 C 0.22679 0.76095 0.18129
 O59 O 0.30900 0.82687 0.20632
 O60 O 0.48457 0.82256 0.19006
 C61 C 0.53416 0.77321 0.18129
 O62 O 0.51788 0.69100 0.20632
 O63 O 0.33798 0.51543 0.19006
 C64 C 0.23905 0.46584 0.18129
 Cr65 Cr 0.18140 0.59080 0.25000
 Cr66 Cr 0.40940 0.81860 0.25000
 Cr67 Cr 0.40920 0.59060 0.25000
 O68 O 0.33333 0.66667 0.24991
 O69 O 0.82662 0.51779 0.79373
 O70 O 0.82236 0.33833 0.81000
 C71 C 0.77287 0.23953 0.81897
 O72 O 0.69117 0.17338 0.79373
 O73 O 0.51597 0.17764 0.81000
 C74 C 0.46666 0.22713 0.81897
 O75 O 0.48221 0.30883 0.79373
 O76 O 0.66167 0.48403 0.81000
 C77 C 0.76047 0.53334 0.81897
 O78 O 0.82256 0.48457 0.69006
 O79 O 0.82687 0.30900 0.70632
 C80 C 0.76095 0.22679 0.68129
 O81 O 0.66202 0.17744 0.69006
 O82 O 0.48212 0.17313 0.70632
 C83 C 0.46584 0.23905 0.68129
 O84 O 0.51543 0.33798 0.69006
 O85 O 0.69100 0.51788 0.70632
 C86 C 0.77321 0.53416 0.68129
 Cr87 Cr 0.81860 0.40940 0.75000
 Cr88 Cr 0.59080 0.18140 0.75000
 Cr89 Cr 0.59060 0.40920 0.75000
 O90 O 0.66667 0.33333 0.74991
 C91 C 0.16122 0.31059 0.11202
 C92 C 0.19807 0.38316 0.14273
 C93 C 0.68941 0.85064 0.11202
 C94 C 0.61684 0.81491 0.14273
 C95 C 0.14936 0.83878 0.11202
 C96 C 0.18509 0.80193 0.14273
 C97 C 0.85064 0.68941 0.61202
 C98 C 0.81491 0.61684 0.64273
 C99 C 0.31059 0.16122 0.61202
 C100 C 0.38316 0.19807 0.64273
 C101 C 0.83878 0.14936 0.61202
 C102 C 0.80193 0.18509 0.64273
 C103 C 0.31228 0.15021 0.88855
 C104 C 0.38483 0.18592 0.85788
 C105 C 0.83793 0.68772 0.88855
 C106 C 0.80109 0.61517 0.85788
 C107 C 0.84979 0.16207 0.88855
 C108 C 0.81408 0.19891 0.85788
 C109 C 0.68772 0.83793 0.38855
 C110 C 0.61517 0.80109 0.35788
 C111 C 0.15021 0.31228 0.38855
 C112 C 0.18592 0.38483 0.35788
 C113 C 0.16207 0.84979 0.38855
 C114 C 0.19891 0.81408 0.35788
   
