data_POSCAR
  _audit_creation_date              2014-09-24
  _audit_creation_method            'ToBaCCo'
  _symmetry_space_group_name_H-M    'P1'
  _symmetry_Int_Tables_number       1
  _symmetry_cell_setting            triclinic
  loop_
  _symmetry_equiv_pos_as_xyz
 x,y,z
_cell_length_a 37.4967
_cell_length_b 37.3959
_cell_length_c 20.9707
_cell_angle_alpha 89.919600
_cell_angle_beta 89.919800
_cell_angle_gamma 119.995200
loop_
  _atom_site_label
  _atom_site_type_symbol
  _atom_site_fract_x
  _atom_site_fract_y
  _atom_site_fract_z
C1 C 0.45683 0.91322 0.55863
 C2 C 0.44624 0.89213 0.50055
 C3 C 0.45682 0.91345 0.44260
 C4 C 0.47864 0.95708 0.44200
 C5 C 0.48959 0.97892 0.50058
 C6 C 0.47864 0.95694 0.55923
 C7 C 0.48980 0.97926 0.61671
 C8 C 0.51123 1.02224 0.61664
 C9 C 0.52242 1.04468 0.55907
 C10 C 0.51150 1.02281 0.50048
 C11 C 0.48978 0.97941 0.38444
 C12 C 0.51127 1.02238 0.38431
 C13 C 0.52247 1.04475 0.44179
 C14 C 0.54432 1.08846 0.44227
 C15 C 0.55486 1.10963 0.50027
 C16 C 0.54422 1.08839 0.55838
 H17 H 0.48201 0.96363 0.66241
 H18 H 0.51899 1.03778 0.66229
 H19 H 0.48197 0.96380 0.33884
 H20 H 0.51906 1.03797 0.33859
 H21 H 0.42948 0.85859 0.50032
 H22 H 0.57163 1.14320 0.50019
 C23 C -0.08800 0.45584 0.44259
 C24 C -0.10926 0.44516 0.50056
 C25 C -0.08823 0.45567 0.55864
 C26 C -0.04463 0.47752 0.55925
 C27 C -0.02273 0.48850 0.50059
 C28 C -0.04449 0.47760 0.44199
 C29 C -0.02218 0.48876 0.38442
 C30 C 0.02069 0.51020 0.38435
 C31 C 0.04289 0.52132 0.44184
 C32 C 0.02101 0.51040 0.50049
 C33 C -0.02233 0.48871 0.61674
 C34 C 0.02055 0.51021 0.61662
 C35 C 0.04281 0.52135 0.55904
 C36 C 0.08633 0.54317 0.55833
 C37 C 0.10751 0.55372 0.50029
 C38 C 0.08640 0.54310 0.44235
 H39 H -0.03773 0.48097 0.33881
 H40 H 0.03633 0.51801 0.33870
 H41 H -0.03791 0.48091 0.66245
 H42 H 0.03613 0.51804 0.66220
 H43 H -0.14271 0.42841 0.50032
 H44 H 0.14094 0.57046 0.50021
 C45 C 0.45643 0.54377 0.55966
 C46 C 0.44595 0.55439 0.50153
 C47 C 0.45658 0.54376 0.44361
 C48 C 0.47828 0.52189 0.44312
 C49 C 0.48915 0.51092 0.50176
 C50 C 0.47822 0.52190 0.56036
 C51 C 0.48938 0.51070 0.61790
 C52 C 0.51080 0.48920 0.61790
 C53 C 0.52194 0.47799 0.56036
 C54 C 0.51099 0.48894 0.50176
 C55 C 0.48938 0.51070 0.38560
 C56 C 0.51074 0.48914 0.38560
 C57 C 0.52185 0.47796 0.44312
 C58 C 0.54355 0.45609 0.44362
 C59 C 0.55419 0.44548 0.50153
 C60 C 0.54373 0.45611 0.55966
 H61 H 0.48161 0.51851 0.66356
 H62 H 0.51858 0.48140 0.66356
 H63 H 0.48160 0.51853 0.33996
 H64 H 0.51851 0.48130 0.33996
 H65 H 0.42926 0.57119 0.50122
 H66 H 0.57089 0.42867 0.50122
 O67 O 0.39603 0.65786 -0.05481
 O68 O 0.39430 0.72580 -0.07385
 C69 C 0.37442 0.74405 -0.08635
 O70 O 0.34308 0.73860 -0.05501
 O71 O 0.27532 0.66892 -0.07352
 C72 C 0.25709 0.63072 -0.08578
 O73 O 0.26257 0.60477 -0.05447
 O74 O 0.33206 0.60650 -0.07337
 C75 C 0.37016 0.62644 -0.08595
 O76 O 0.39421 0.66887 0.07232
 O77 O 0.39602 0.73856 0.05327
 C78 C 0.37013 0.74401 0.08461
 O79 O 0.33205 0.72581 0.07221
 O80 O 0.26254 0.65794 0.05366
 C81 C 0.25703 0.62649 0.08503
 O82 O 0.27524 0.60654 0.07264
 O83 O 0.34296 0.60473 0.05380
 C84 C 0.37427 0.63069 0.08498
 Cr85 Cr 0.39284 0.69662 -0.00076
 Cr86 Cr 0.30440 0.69667 -0.00067
 Cr87 Cr 0.30436 0.60794 -0.00037
 O88 O 0.33387 0.66708 -0.00061
 O89 O 0.60413 0.34202 -0.05456
 O90 O 0.60587 0.27411 -0.07332
 C91 C 0.62580 0.25591 -0.08592
 O92 O 0.65710 0.26130 -0.05470
 O93 O 0.72485 0.33097 -0.07376
 C94 C 0.74305 0.36916 -0.08634
 O95 O 0.73759 0.39511 -0.05509
 O96 O 0.66810 0.39338 -0.07365
 C97 C 0.63001 0.37345 -0.08597
 O98 O 0.60591 0.33097 0.07260
 O99 O 0.60409 0.26128 0.05390
 C100 C 0.62999 0.25585 0.08518
 O101 O 0.66806 0.27401 0.07246
 O102 O 0.73756 0.34188 0.05336
 C103 C 0.74301 0.37328 0.08461
 O104 O 0.72486 0.39328 0.07212
 O105 O 0.65716 0.39510 0.05356
 C106 C 0.62584 0.36914 0.08500
 Cr107 Cr 0.60730 0.30324 -0.00036
 Cr108 Cr 0.69574 0.30319 -0.00066
 Cr109 Cr 0.69578 0.39192 -0.00076
 O110 O 0.66627 0.33278 -0.00060
 C111 C 0.44550 0.89028 -0.38652
 C112 C 0.43525 0.86943 -0.33880
 C113 C 0.42295 0.84433 -0.28370
 C114 C 0.41219 0.82228 -0.23733
 C115 C 0.39931 0.79573 -0.18385
 C116 C 0.38807 0.77247 -0.13891
 C117 C 0.11045 0.55537 -0.38384
 C118 C 0.13130 0.56596 -0.33636
 C119 C 0.15648 0.57881 -0.28162
 C120 C 0.17863 0.59015 -0.23561
 C121 C 0.20529 0.60386 -0.18256
 C122 C 0.22864 0.61593 -0.13797
 C123 C 0.44492 0.55514 -0.38554
 C124 C 0.43441 0.56543 -0.33788
 C125 C 0.42170 0.57778 -0.28286
 C126 C 0.41046 0.58857 -0.23658
 C127 C 0.39687 0.60150 -0.18321
 C128 C 0.38488 0.61276 -0.13838
 C129 C 0.55550 0.11118 -0.38677
 C130 C 0.56567 0.13182 -0.33899
 C131 C 0.57783 0.15663 -0.28375
 C132 C 0.58846 0.17842 -0.23724
 C133 C 0.60118 0.20465 -0.18359
 C134 C 0.61228 0.22769 -0.13854
 C135 C 0.88889 0.44411 -0.38649
 C136 C 0.86811 0.43357 -0.33877
 C137 C 0.84307 0.42082 -0.28367
 C138 C 0.82107 0.40956 -0.23731
 C139 C 0.79460 0.39594 -0.18383
 C140 C 0.77139 0.38392 -0.13889
 C141 C 0.55526 0.44475 -0.38554
 C142 C 0.56577 0.43447 -0.33788
 C143 C 0.57849 0.42213 -0.28287
 C144 C 0.58973 0.41134 -0.23659
 C145 C 0.60332 0.39841 -0.18322
 C146 C 0.61530 0.38714 -0.13839
 C147 C 0.88799 0.44392 0.38463
 C148 C 0.86734 0.43371 0.33694
 C149 C 0.84248 0.42148 0.28184
 C150 C 0.82064 0.41080 0.23547
 C151 C 0.79434 0.39800 0.18199
 C152 C 0.77125 0.38684 0.13708
 C153 C 0.55584 0.11130 0.38730
 C154 C 0.56629 0.13195 0.33937
 C155 C 0.57889 0.15673 0.28392
 C156 C 0.59000 0.17847 0.23720
 C157 C 0.60345 0.20465 0.18329
 C158 C 0.61533 0.22765 0.13802
 C159 C 0.55542 0.44389 0.38561
 C160 C 0.56559 0.43336 0.33786
 C161 C 0.57777 0.42064 0.28267
 C162 C 0.58842 0.40941 0.23622
 C163 C 0.60118 0.39584 0.18263
 C164 C 0.61230 0.38386 0.13761
 C165 C 0.11057 0.55507 0.38439
 C166 C 0.13142 0.56537 0.33676
 C167 C 0.15658 0.57773 0.28180
 C168 C 0.17869 0.58855 0.23557
 C169 C 0.20529 0.60151 0.18226
 C170 C 0.22860 0.61280 0.13745
 C171 C 0.44466 0.88937 0.38465
 C172 C 0.43417 0.86867 0.33696
 C173 C 0.42148 0.84374 0.28186
 C174 C 0.41028 0.82184 0.23549
 C175 C 0.39674 0.79547 0.18200
 C176 C 0.38480 0.77232 0.13709
 C177 C 0.44470 0.55595 0.38560
 C178 C 0.43452 0.56647 0.33785
 C179 C 0.42233 0.57918 0.28266
 C180 C 0.41168 0.59040 0.23620
 C181 C 0.39892 0.60398 0.18261
 C182 C 0.38780 0.61596 0.13759
   
