data_POSCAR
  _audit_creation_date              2014-09-24
  _audit_creation_method            'ToBaCCo'
  _symmetry_space_group_name_H-M    'P1'
  _symmetry_Int_Tables_number       1
  _symmetry_cell_setting            triclinic
  loop_
  _symmetry_equiv_pos_as_xyz
 x,y,z
_cell_length_a 27.0708
_cell_length_b 27.0708
_cell_length_c 27.0708
_cell_angle_alpha 89.998000
_cell_angle_beta 89.986700
_cell_angle_gamma 90.000300
loop_
  _atom_site_label
  _atom_site_type_symbol
  _atom_site_fract_x
  _atom_site_fract_y
  _atom_site_fract_z
Zn1 Zn 0.78909 0.71095 0.78906
 Zn2 Zn 0.78911 0.78911 0.71093
 Zn3 Zn 0.71097 0.71097 0.71092
 Zn4 Zn 0.71095 0.78910 0.78908
 O5 O 0.75003 0.75003 0.75000
 O6 O 0.85372 0.72107 0.77894
 O7 O 0.77901 0.77900 0.64630
 O8 O 0.72109 0.64634 0.72103
 O9 O 0.85374 0.77898 0.72105
 O10 O 0.77898 0.64632 0.77893
 O11 O 0.72110 0.72110 0.64630
 O12 O 0.64632 0.77898 0.77895
 O13 O 0.77899 0.85373 0.72106
 O14 O 0.64634 0.72108 0.72105
 O15 O 0.72108 0.85373 0.77897
 O16 O 0.72105 0.77896 0.85370
 O17 O 0.77895 0.72105 0.85369
 C18 C 0.87644 0.75003 0.75000
 C19 C 0.75005 0.75005 0.62359
 C20 C 0.75003 0.62362 0.74997
 C21 C 0.62362 0.75003 0.75000
 C22 C 0.75004 0.87644 0.75001
 C23 C 0.74999 0.75000 0.87641
 Zn24 Zn 0.21097 0.71095 0.71094
 Zn25 Zn 0.21095 0.78911 0.78906
 Zn26 Zn 0.28910 0.71097 0.78908
 Zn27 Zn 0.28911 0.78910 0.71092
 O28 O 0.25003 0.75003 0.75000
 O29 O 0.14634 0.72106 0.72106
 O30 O 0.22105 0.77900 0.85369
 O31 O 0.27898 0.64634 0.77897
 O32 O 0.14632 0.77898 0.77894
 O33 O 0.22110 0.64633 0.72107
 O34 O 0.27896 0.72110 0.85370
 O35 O 0.35374 0.77898 0.72104
 O36 O 0.22107 0.85373 0.77893
 O37 O 0.35373 0.72109 0.77895
 O38 O 0.27899 0.85373 0.72102
 O39 O 0.27900 0.77897 0.64629
 O40 O 0.22110 0.72106 0.64631
 C41 C 0.12362 0.75002 0.75000
 C42 C 0.25000 0.75005 0.87641
 C43 C 0.25004 0.62362 0.75002
 C44 C 0.37644 0.75004 0.74999
 C45 C 0.25003 0.87644 0.74997
 C46 C 0.25005 0.75001 0.62359
 Zn47 Zn 0.71095 0.21096 0.78908
 Zn48 Zn 0.78911 0.21095 0.71093
 Zn49 Zn 0.71096 0.28909 0.71092
 Zn50 Zn 0.78909 0.28911 0.78906
 O51 O 0.75003 0.25003 0.75000
 O52 O 0.72107 0.14633 0.77897
 O53 O 0.77900 0.22106 0.64630
 O54 O 0.64633 0.27897 0.72104
 O55 O 0.77899 0.14633 0.72107
 O56 O 0.64633 0.22108 0.77896
 O57 O 0.72109 0.27896 0.64629
 O58 O 0.77897 0.35374 0.77892
 O59 O 0.85373 0.22108 0.72105
 O60 O 0.72108 0.35372 0.72102
 O61 O 0.85373 0.27899 0.77894
 O62 O 0.77896 0.27900 0.85369
 O63 O 0.72106 0.22109 0.85370
 C64 C 0.75003 0.12362 0.75002
 C65 C 0.75005 0.25000 0.62359
 C66 C 0.62362 0.25002 0.75000
 C67 C 0.75002 0.37644 0.74997
 C68 C 0.87644 0.25003 0.74999
 C69 C 0.75001 0.25005 0.87641
 Zn70 Zn 0.28911 0.21097 0.71092
 Zn71 Zn 0.21095 0.21095 0.78906
 Zn72 Zn 0.28910 0.28909 0.78908
 Zn73 Zn 0.21097 0.28911 0.71094
 O74 O 0.25003 0.25003 0.75000
 O75 O 0.27898 0.14634 0.72102
 O76 O 0.22106 0.22105 0.85369
 O77 O 0.35373 0.27897 0.77896
 O78 O 0.22107 0.14633 0.77892
 O79 O 0.35373 0.22108 0.72104
 O80 O 0.27896 0.27896 0.85371
 O81 O 0.22109 0.35374 0.72107
 O82 O 0.14633 0.22107 0.77895
 O83 O 0.27898 0.35373 0.77897
 O84 O 0.14634 0.27899 0.72106
 O85 O 0.22110 0.27901 0.64631
 O86 O 0.27900 0.22110 0.64629
 C87 C 0.25002 0.12362 0.74996
 C88 C 0.25000 0.25000 0.87641
 C89 C 0.37644 0.25002 0.75000
 C90 C 0.25003 0.37644 0.75003
 C91 C 0.12362 0.25003 0.75000
 C92 C 0.25005 0.25006 0.62359
 Zn93 Zn 0.71091 0.71091 0.21093
 Zn94 Zn 0.78905 0.78905 0.21092
 Zn95 Zn 0.71090 0.78905 0.28908
 Zn96 Zn 0.78904 0.71090 0.28906
 O97 O 0.74998 0.74998 0.25000
 O98 O 0.72103 0.72103 0.14630
 O99 O 0.77893 0.85368 0.22104
 O100 O 0.64627 0.77893 0.27897
 O101 O 0.77894 0.77893 0.14629
 O102 O 0.64628 0.72103 0.22107
 O103 O 0.72102 0.85368 0.27895
 O104 O 0.77893 0.72102 0.35369
 O105 O 0.85368 0.77893 0.22103
 O106 O 0.72103 0.77893 0.35371
 O107 O 0.85367 0.72102 0.27892
 O108 O 0.77892 0.64627 0.27894
 O109 O 0.72102 0.64628 0.22105
 C110 C 0.74998 0.74998 0.12359
 C111 C 0.74998 0.87639 0.24999
 C112 C 0.62357 0.74998 0.25002
 C113 C 0.74998 0.74998 0.37641
 C114 C 0.87639 0.74997 0.24997
 C115 C 0.74997 0.62356 0.25000
 Zn116 Zn 0.28905 0.78905 0.21092
 Zn117 Zn 0.21091 0.71091 0.21093
 Zn118 Zn 0.28905 0.71090 0.28906
 Zn119 Zn 0.21090 0.78905 0.28908
 O120 O 0.24998 0.74998 0.25000
 O121 O 0.27893 0.77893 0.14629
 O122 O 0.22103 0.64628 0.22105
 O123 O 0.35367 0.72102 0.27893
 O124 O 0.22103 0.72103 0.14630
 O125 O 0.35368 0.77893 0.22103
 O126 O 0.27893 0.64627 0.27894
 O127 O 0.22103 0.77893 0.35370
 O128 O 0.14628 0.72102 0.22107
 O129 O 0.27893 0.72102 0.35369
 O130 O 0.14627 0.77892 0.27897
 O131 O 0.22102 0.85368 0.27895
 O132 O 0.27893 0.85368 0.22104
 C133 C 0.24998 0.74999 0.12359
 C134 C 0.24998 0.62356 0.24999
 C135 C 0.37639 0.74998 0.24997
 C136 C 0.24998 0.74997 0.37641
 C137 C 0.12357 0.74997 0.25002
 C138 C 0.24997 0.87639 0.24999
 Zn139 Zn 0.71090 0.28905 0.21094
 Zn140 Zn 0.78905 0.21091 0.21092
 Zn141 Zn 0.78905 0.28905 0.28906
 Zn142 Zn 0.71091 0.21090 0.28908
 O143 O 0.74998 0.24998 0.25000
 O144 O 0.72102 0.27893 0.14631
 O145 O 0.85368 0.22102 0.22102
 O146 O 0.77893 0.35368 0.27894
 O147 O 0.77893 0.22103 0.14629
 O148 O 0.72102 0.35367 0.22106
 O149 O 0.85368 0.27892 0.27892
 O150 O 0.72103 0.22102 0.35371
 O151 O 0.77892 0.14628 0.22103
 O152 O 0.77893 0.27893 0.35369
 O153 O 0.72102 0.14628 0.27895
 O154 O 0.64628 0.22102 0.27898
 O155 O 0.64628 0.27892 0.22107
 C156 C 0.74998 0.24999 0.12359
 C157 C 0.87639 0.24997 0.24997
 C158 C 0.74997 0.37639 0.25000
 C159 C 0.74999 0.24997 0.37641
 C160 C 0.74997 0.12356 0.24999
 C161 C 0.62357 0.24997 0.25003
 Zn162 Zn 0.21091 0.28905 0.21094
 Zn163 Zn 0.28905 0.21090 0.21092
 Zn164 Zn 0.28905 0.28905 0.28906
 Zn165 Zn 0.21091 0.21091 0.28908
 O166 O 0.24998 0.24998 0.25000
 O167 O 0.22103 0.27893 0.14631
 O168 O 0.35368 0.22102 0.22103
 O169 O 0.27893 0.35368 0.27894
 O170 O 0.27893 0.22103 0.14629
 O171 O 0.22102 0.35367 0.22105
 O172 O 0.35368 0.27892 0.27893
 O173 O 0.22103 0.22103 0.35371
 O174 O 0.27892 0.14628 0.22104
 O175 O 0.27893 0.27893 0.35369
 O176 O 0.22102 0.14628 0.27896
 O177 O 0.14628 0.22102 0.27897
 O178 O 0.14628 0.27892 0.22107
 C179 C 0.24998 0.24998 0.12359
 C180 C 0.37639 0.24997 0.24998
 C181 C 0.24998 0.37639 0.24999
 C182 C 0.24998 0.24998 0.37641
 C183 C 0.24997 0.12357 0.24999
 C184 C 0.12357 0.24997 0.25002
 C185 C -0.07056 0.75002 0.74999
 C186 C -0.02604 0.75002 0.74998
 C187 C 0.02610 0.75000 0.75000
 C188 C 0.07063 0.75001 0.75000
 C189 C 0.75003 -0.07056 0.75001
 C190 C 0.75002 -0.02604 0.75000
 C191 C 0.75002 0.02610 0.75002
 C192 C 0.75003 0.07063 0.75002
 C193 C 0.74996 0.74997 -0.07060
 C194 C 0.74996 0.74996 -0.02607
 C195 C 0.74996 0.74998 0.02607
 C196 C 0.74998 0.74998 0.07059
 C197 C 0.57063 0.75002 0.75000
 C198 C 0.52610 0.75000 0.74999
 C199 C 0.47396 0.75000 0.75000
 C200 C 0.42944 0.75003 0.74999
 C201 C 0.25002 -0.07056 0.74995
 C202 C 0.25000 -0.02604 0.74994
 C203 C 0.25002 0.02610 0.74993
 C204 C 0.25001 0.07063 0.74994
 C205 C 0.24997 0.75004 -0.07060
 C206 C 0.24995 0.75002 -0.02607
 C207 C 0.24995 0.75001 0.02607
 C208 C 0.24997 0.74999 0.07059
 C209 C -0.07056 0.25002 0.75000
 C210 C -0.02604 0.25004 0.74999
 C211 C 0.02610 0.25003 0.75000
 C212 C 0.07063 0.25002 0.75000
 C213 C 0.75002 0.57063 0.74997
 C214 C 0.75001 0.52610 0.74995
 C215 C 0.75002 0.47396 0.74994
 C216 C 0.75001 0.42944 0.74995
 C217 C 0.75000 0.25005 -0.07060
 C218 C 0.74999 0.25004 -0.02607
 C219 C 0.74997 0.25001 0.02607
 C220 C 0.74997 0.24999 0.07059
 C221 C 0.57063 0.25001 0.75000
 C222 C 0.52610 0.25002 0.75000
 C223 C 0.47396 0.25002 0.75001
 C224 C 0.42944 0.25001 0.75000
 C225 C 0.25003 0.57063 0.75004
 C226 C 0.25004 0.52610 0.75003
 C227 C 0.25004 0.47396 0.75004
 C228 C 0.25002 0.42944 0.75004
 C229 C 0.24999 0.24998 -0.07060
 C230 C 0.24997 0.24996 -0.02607
 C231 C 0.24996 0.24996 0.02607
 C232 C 0.24998 0.24998 0.07059
 C233 C -0.07062 0.74996 0.24997
 C234 C -0.02609 0.74994 0.24999
 C235 C 0.02605 0.74994 0.25002
 C236 C 0.07057 0.74996 0.25003
 C237 C 0.74997 -0.07062 0.24998
 C238 C 0.74995 -0.02609 0.24997
 C239 C 0.74994 0.02605 0.24998
 C240 C 0.74995 0.07057 0.24997
 C241 C 0.75006 0.75005 0.57059
 C242 C 0.75004 0.75003 0.52607
 C243 C 0.75000 0.74999 0.47393
 C244 C 0.74999 0.74997 0.42940
 C245 C 0.57057 0.74997 0.25003
 C246 C 0.52605 0.74994 0.25001
 C247 C 0.47391 0.74994 0.24999
 C248 C 0.42938 0.74997 0.24997
 C249 C 0.24995 -0.07062 0.24997
 C250 C 0.24996 -0.02609 0.24996
 C251 C 0.24996 0.02605 0.24996
 C252 C 0.24995 0.07057 0.24998
 C253 C 0.25005 0.75001 0.57059
 C254 C 0.25004 0.75000 0.52607
 C255 C 0.25001 0.74997 0.47393
 C256 C 0.24998 0.74997 0.42940
 C257 C -0.07062 0.24995 0.24997
 C258 C -0.02609 0.24993 0.24999
 C259 C 0.02605 0.24993 0.25001
 C260 C 0.07057 0.24995 0.25002
 C261 C 0.74996 0.57057 0.24999
 C262 C 0.74995 0.52605 0.24998
 C263 C 0.74996 0.47391 0.24997
 C264 C 0.74997 0.42938 0.24999
 C265 C 0.75005 0.24999 0.57059
 C266 C 0.75004 0.24998 0.52607
 C267 C 0.75002 0.24996 0.47393
 C268 C 0.74999 0.24997 0.42940
 C269 C 0.57057 0.24995 0.25002
 C270 C 0.52605 0.24992 0.25001
 C271 C 0.47391 0.24993 0.25000
 C272 C 0.42938 0.24995 0.24998
 C273 C 0.24997 0.57057 0.24999
 C274 C 0.24996 0.52605 0.24998
 C275 C 0.24996 0.47391 0.24999
 C276 C 0.24997 0.42938 0.24999
 C277 C 0.25004 0.25005 0.57059
 C278 C 0.25002 0.25003 0.52607
 C279 C 0.24999 0.25000 0.47393
 C280 C 0.24999 0.24997 0.42940
   
