data_POSCAR
  _audit_creation_date              2014-09-24
  _audit_creation_method            'ToBaCCo'
  _symmetry_space_group_name_H-M    'P1'
  _symmetry_Int_Tables_number       1
  _symmetry_cell_setting            triclinic
  loop_
  _symmetry_equiv_pos_as_xyz
 x,y,z
_cell_length_a 27.1514
_cell_length_b 27.6976
_cell_length_c 26.4934
_cell_angle_alpha 87.868300
_cell_angle_beta 90.915200
_cell_angle_gamma 90.946500
loop_
  _atom_site_label
  _atom_site_type_symbol
  _atom_site_fract_x
  _atom_site_fract_y
  _atom_site_fract_z
C1 C 0.17384 1.21482 0.22867
 C2 C 0.15623 1.25845 0.20735
 C3 C 0.17831 1.28052 0.16409
 C4 C 0.21998 1.25869 0.14420
 C5 C 0.23825 1.21520 0.16541
 C6 C 0.21492 1.19314 0.20766
 C7 C 0.14967 1.19177 0.26968
 C8 C 0.16575 1.14666 0.28989
 C9 C 0.20762 1.12614 0.26912
 C10 C 0.23201 1.14881 0.22825
 C11 C 0.27227 1.12685 0.20663
 C12 C 0.29557 1.14797 0.16410
 C13 C 0.27848 1.19264 0.14391
 H14 H 0.12481 1.27390 0.22477
 H15 H 0.23765 1.27495 0.11114
 H16 H 0.11764 1.20889 0.28411
 H17 H 0.22070 1.09156 0.28402
 H18 H 0.28484 1.09239 0.22232
 H19 H 0.29530 1.20984 0.11110
 C20 C 0.83949 0.76849 0.21417
 C21 C 0.86137 0.72830 0.19333
 C22 C 0.84170 0.70806 0.14891
 C23 C 0.79903 0.72845 0.12670
 C24 C 0.77699 0.76859 0.14707
 C25 C 0.79731 0.78881 0.19086
 C26 C 0.86016 0.78953 0.25717
 C27 C 0.83990 0.83114 0.27717
 C28 C 0.79705 0.85063 0.25372
 C29 C 0.77605 0.83000 0.21065
 C30 C 0.73491 0.85099 0.18618
 C31 C 0.71461 0.83118 0.14204
 C32 C 0.73577 0.78968 0.12325
 H33 H 0.89421 0.71423 0.21163
 H34 H 0.78330 0.71363 0.09257
 H35 H 0.89299 0.77391 0.27451
 H36 H 0.77956 0.88200 0.26786
 H37 H 0.72021 0.88348 0.20103
 H38 H 0.72074 0.77433 0.08910
 C39 C 0.85408 1.23142 -0.22444
 C40 C 0.87808 1.27133 -0.20347
 C41 C 0.85984 1.29246 -0.16029
 C42 C 0.81612 1.27356 -0.13874
 C43 C 0.79152 1.23386 -0.15963
 C44 C 0.81070 1.21247 -0.20243
 C45 C 0.87390 1.20921 -0.26603
 C46 C 0.85161 1.16765 -0.28601
 C47 C 0.80778 1.14917 -0.26381
 C48 C 0.78739 1.17127 -0.22222
 C49 C 0.74495 1.15171 -0.19902
 C50 C 0.72543 1.17293 -0.15623
 C51 C 0.74900 1.21412 -0.13714
 H52 H 0.91193 1.28529 -0.22009
 H53 H 0.80179 1.28814 -0.10477
 H54 H 0.90765 1.22392 -0.28226
 H55 H 0.78957 1.11711 -0.27738
 H56 H 0.72853 1.11921 -0.21372
 H57 H 0.73469 1.23034 -0.10385
 C58 C 0.15213 0.77270 -0.21534
 C59 C 0.13894 0.72985 -0.18864
 C60 C 0.16616 0.71380 -0.14535
 C61 C 0.20732 0.74160 -0.13002
 C62 C 0.22108 0.78438 -0.15658
 C63 C 0.19332 0.80003 -0.19934
 C64 C 0.12364 0.78946 -0.25690
 C65 C 0.13564 0.83315 -0.28275
 C66 C 0.17693 0.86023 -0.26647
 C67 C 0.20581 0.84387 -0.22513
 C68 C 0.24608 0.87154 -0.20822
 C69 C 0.27421 0.85623 -0.16583
 C70 C 0.26127 0.81251 -0.14002
 H71 H 0.10631 0.71072 -0.20124
 H72 H 0.22854 0.73023 -0.09674
 H73 H 0.09149 0.76880 -0.26878
 H74 H 0.18581 0.89494 -0.28441
 H75 H 0.25531 0.90549 -0.22780
 H76 H 0.28108 0.80091 -0.10607
 C77 C 0.58035 1.06867 -0.03050
 H78 H 0.58178 1.06902 0.01033
 C79 C 0.61598 1.09390 -0.05866
 H80 H 0.64487 1.11282 -0.03854
 C81 C 0.54266 1.03971 -0.10499
 H82 H 0.51472 1.01755 -0.12274
 C83 C 0.57751 1.06467 -0.13475
 H84 H 0.57581 1.06185 -0.17541
 N85 N 0.54472 1.04224 -0.05384
 C86 C 0.42737 1.02437 0.05551
 H87 H 0.42507 0.98534 0.05874
 C88 C 0.39398 1.05208 0.08096
 H89 H 0.36578 1.03362 0.10304
 C90 C 0.46493 1.09498 0.01924
 H91 H 0.49190 1.11149 -0.00578
 C92 C 0.43222 1.12412 0.04401
 H93 H 0.43462 1.16301 0.03821
 Zn94 Zn 0.50250 1.00529 -0.01095
 N95 N 0.46205 1.04605 0.02557
 C96 C 0.54146 0.97054 0.08425
 N97 N 0.54360 0.96816 0.03315
 C98 C 0.57807 0.94130 0.01103
 C99 C 0.61207 0.91509 0.04045
 C100 C 0.57470 0.94468 0.11522
 C101 C 0.42529 0.98553 -0.07853
 C102 C 0.38972 0.95736 -0.10291
 C103 C 0.42714 0.88602 -0.06499
 C104 C 0.46180 0.91559 -0.04116
 N105 N 0.46019 0.96441 -0.04818
 H106 H 0.51462 0.99309 0.10110
 H107 H 0.57969 0.94108 -0.02974
 H108 H 0.64004 0.89561 0.02144
 H109 H 0.57284 0.94723 0.15584
 H110 H 0.42431 1.02452 -0.08268
 H111 H 0.36205 0.97582 -0.12565
 H112 H 0.42861 0.84725 -0.05823
 H113 H 0.48908 0.89945 -0.01600
 C114 C 0.39632 1.10281 0.07557
 C115 C 0.61481 1.09227 -0.11171
 C116 C 0.39003 0.90665 -0.09592
 C117 C 0.61047 0.91629 0.09346
 C118 C -0.01900 0.53977 1.10727
 H119 H 0.00446 0.51374 1.12662
 C120 C -0.04301 0.57392 1.13509
 H121 H -0.03828 0.57344 1.17578
 C122 C -0.05180 0.57380 1.03081
 H123 H -0.05400 0.57412 0.98999
 C124 C -0.07647 0.60857 1.05712
 H125 H -0.09695 0.63581 1.03581
 N126 N -0.02412 0.54005 1.05609
 C127 C 0.09799 0.45085 1.05725
 H128 H 0.11856 0.47475 1.03187
 C129 C 0.12261 0.41573 1.08705
 H130 H 0.16228 0.41377 1.08506
 C131 C 0.02120 0.42433 1.09042
 H132 H -0.01846 0.42745 1.09081
 C133 C 0.04419 0.38923 1.12101
 H134 H 0.02194 0.36551 1.14515
 Zn135 Zn 0.01097 0.49666 1.01706
 N136 N 0.04814 0.45427 1.05945
 C137 C 0.08184 0.56824 0.99279
 N138 N 0.05104 0.53459 0.97271
 C139 C 0.04395 0.53245 0.92191
 C140 C 0.06728 0.56587 0.88925
 C141 C 0.10576 0.60262 0.96146
 C142 C -0.08237 0.46189 0.98035
 C143 C -0.11290 0.43024 0.95373
 C144 C -0.04051 0.38911 0.92712
 C145 C -0.01147 0.42154 0.95403
 N146 N -0.03260 0.45720 0.97964
 H147 H 0.08585 0.56986 1.03340
 H148 H 0.01839 0.50634 0.90662
 H149 H 0.05983 0.56453 0.84902
 H150 H 0.12776 0.63049 0.97887
 H151 H -0.09857 0.48963 1.00205
 H152 H -0.15248 0.43420 0.95486
 H153 H -0.02247 0.36026 0.90861
 H154 H 0.02815 0.41794 0.95518
 C155 C 0.09535 0.38394 1.11902
 C156 C -0.07251 0.60866 1.11015
 C157 C -0.09208 0.39348 0.92635
 C158 C 0.09795 0.60212 0.90878
 C159 C 1.07128 -0.03579 0.53170
 H160 H 1.08732 -0.01040 0.50453
 C161 C 1.10207 -0.06184 0.56498
 H162 H 1.14159 -0.05651 0.56246
 C163 C 1.00062 -0.07142 0.56997
 H164 H 0.96091 -0.07394 0.57235
 C165 C 1.03007 -0.09799 0.60430
 H166 H 1.01198 -0.12055 0.63272
 N167 N 1.02151 -0.04079 0.53488
 C168 C 1.01657 0.09130 0.45762
 H169 H 0.99419 0.10695 0.48591
 C170 C 1.04403 0.12150 0.42487
 H171 H 1.04287 0.16029 0.42849
 C172 C 1.04392 0.02210 0.41692
 H173 H 1.04288 -0.01672 0.41359
 C174 C 1.07194 0.05085 0.38354
 H175 H 1.09158 0.03359 0.35411
 Zn176 Zn 0.97956 -0.00019 0.49514
 N177 N 1.01744 0.04252 0.45339
 C178 C 0.96614 0.06052 0.57530
 N179 N 0.94140 0.03439 0.54033
 C180 C 0.89136 0.03073 0.54011
 C181 C 0.86422 0.05466 0.57564
 C182 C 0.94050 0.08505 0.61142
 C183 C 0.94046 -0.08505 0.44991
 C184 C 0.91206 -0.10965 0.41425
 C185 C 0.87995 -0.03307 0.38334
 C186 C 0.90903 -0.01002 0.41928
 N187 N 0.93851 -0.03609 0.45159
 H188 H 1.00599 0.06167 0.57550
 H189 H 0.87239 0.00861 0.51302
 H190 H 0.82442 0.05115 0.57520
 H191 H 0.96130 0.10435 0.63963
 H192 H 0.96455 -0.10501 0.47563
 H193 H 0.91382 -0.14862 0.41397
 H194 H 0.85704 -0.01159 0.35762
 H195 H 0.90871 0.02894 0.42107
 C196 C 1.07266 0.10133 0.38765
 C197 C 1.08175 -0.09300 0.60237
 C198 C 0.88184 -0.08337 0.37980
 C199 C 0.88869 0.08261 0.61161
 C200 C 0.15948 0.32220 1.13846
 C201 C 0.11792 0.34466 1.15059
 H202 H 0.17858 0.33526 1.10495
 H203 H 0.09630 0.33193 1.18229
 C204 C -0.13647 0.66965 1.12424
 C205 C -0.09581 0.64607 1.14008
 H206 H -0.15403 0.65849 1.08948
 H207 H -0.07873 0.65301 1.17619
 C208 C -0.11006 0.33134 0.86294
 C209 C -0.12504 0.35864 0.90045
 H210 H -0.07346 0.33732 0.84818
 H211 H -0.16277 0.35624 0.91278
 C212 C 0.15262 0.67270 0.88490
 C213 C 0.11620 0.64117 0.87357
 H214 H 0.17316 0.66647 0.91981
 H215 H 0.09796 0.64332 0.83709
 C216 C 1.14069 0.11974 0.32814
 C217 C 1.10010 0.13373 0.35179
 H218 H 1.15523 0.08456 0.33881
 H219 H 1.08602 0.16974 0.34593
 C220 C 1.10202 -0.14879 0.67622
 C221 C 1.11575 -0.11605 0.64031
 H222 H 1.06489 -0.16342 0.67615
 H223 H 1.15403 -0.10473 0.63857
 C224 C 0.86445 -0.14801 0.31875
 C225 C 0.85205 -0.10642 0.33963
 H226 H 0.89718 -0.16592 0.33323
 H227 H 0.82140 -0.08569 0.32495
 C228 C 0.87561 0.14562 0.67412
 C229 C 0.85950 0.10608 0.65045
 H230 H 0.91005 0.16207 0.66177
 H231 H 0.82375 0.09019 0.65825
 C232 C 0.33559 1.12034 0.14124
 C233 C 0.36013 1.13409 0.09938
 H234 H 0.34463 1.08614 0.15991
 H235 H 0.35427 1.16920 0.08146
 C236 C 0.68302 1.15176 -0.12773
 C237 C 0.65353 1.11579 -0.14361
 H238 H 0.67611 1.16697 -0.09156
 H239 H 0.65715 1.10280 -0.18129
 C240 C 0.31437 0.88870 -0.14788
 C241 C 0.35164 0.87400 -0.11742
 H242 H 0.31270 0.92596 -0.16112
 H243 H 0.35444 0.83598 -0.10711
 C244 C 0.67391 0.85406 0.11203
 C245 C 0.64728 0.89132 0.12678
 H246 H 0.66591 0.83919 0.07557
 H247 H 0.65178 0.90427 0.16455
   
