data_POSCAR
  _audit_creation_date              2014-09-24
  _audit_creation_method            'ToBaCCo'
  _symmetry_space_group_name_H-M    'P1'
  _symmetry_Int_Tables_number       1
  _symmetry_cell_setting            triclinic
  loop_
  _symmetry_equiv_pos_as_xyz
 x,y,z
_cell_length_a 40.2313
_cell_length_b 39.9292
_cell_length_c 41.2663
_cell_angle_alpha 89.918200
_cell_angle_beta 89.916300
_cell_angle_gamma 90.039400
loop_
  _atom_site_label
  _atom_site_type_symbol
  _atom_site_fract_x
  _atom_site_fract_y
  _atom_site_fract_z
C1 C 0.15389 0.15479 0.19611
 C2 C 0.18270 0.14101 0.18237
 C3 C 0.19666 0.15544 0.15448
 C4 C 0.18177 0.18361 0.14035
 C5 C 0.15300 0.19737 0.15407
 C6 C 0.13904 0.18295 0.18190
 H7 H 0.19438 0.11936 0.19350
 H8 H 0.19265 0.19500 0.11893
 H9 H 0.11690 0.19385 0.19261
 C10 C -0.15582 0.84234 0.21084
 C11 C -0.18448 0.85702 0.19777
 C12 C -0.19927 0.84330 0.17010
 C13 C -0.18538 0.81495 0.15544
 C14 C -0.15672 0.80026 0.16843
 C15 C -0.14193 0.81395 0.19613
 H16 H -0.19540 0.87889 0.20916
 H17 H -0.19694 0.80423 0.13411
 H18 H -0.11983 0.80242 0.20626
 C19 C -0.16156 0.15262 -0.20578
 C20 C -0.18877 0.13662 -0.19113
 C21 C -0.20249 0.14963 -0.16255
 C22 C -0.18895 0.17857 -0.14861
 C23 C -0.16180 0.19457 -0.16321
 C24 C -0.14810 0.18160 -0.19179
 H25 H -0.19935 0.11431 -0.20204
 H26 H -0.19965 0.18882 -0.12659
 H27 H -0.12717 0.19417 -0.20315
 C28 C 0.15900 0.84804 -0.20086
 C29 C 0.14203 0.82010 -0.18859
 C30 C 0.15368 0.80388 -0.16072
 C31 C 0.18228 0.81561 -0.14508
 C32 C 0.19930 0.84355 -0.15731
 C33 C 0.18762 0.85978 -0.18522
 H34 H 0.12005 0.81083 -0.20084
 H35 H 0.19138 0.80282 -0.12364
 H36 H 0.20086 0.88126 -0.19493
 C37 C 0.16612 1.16076 0.79518
 C38 C 0.15029 1.18891 0.80826
 C39 C 0.16196 1.20310 0.83709
 C40 C 0.18945 1.18913 0.85288
 C41 C 0.20530 1.16100 0.83983
 C42 C 0.19363 1.14678 0.81098
 H43 H 0.12909 1.19985 0.79595
 H44 H 0.19860 1.20024 0.87512
 H45 H 0.20600 1.12509 0.80077
 C46 C 0.84836 0.85292 0.79817
 C47 C 0.86223 0.82376 0.81145
 C48 C 0.84717 0.80837 0.83828
 C49 C 0.81833 0.82221 0.85184
 C50 C 0.80449 0.85133 0.83858
 C51 C 0.81950 0.86669 0.81177
 H52 H 0.88440 0.81290 0.80075
 H53 H 0.80646 0.81022 0.87245
 H54 H 0.80852 0.88907 0.80136
 C55 C 0.15665 0.83899 1.20663
 C56 C 0.14025 0.81133 1.19317
 C57 C 0.15229 0.79673 1.16464
 C58 C 0.18072 0.80975 1.14955
 C59 C 0.19712 0.83738 1.16297
 C60 C 0.18508 0.85202 1.19150
 H61 H 0.11834 0.80105 1.20490
 H62 H 0.19017 0.79830 1.12757
 H63 H 0.19793 0.87334 1.20192
 C64 C 0.84873 1.15259 1.20021
 C65 C 0.82011 1.13707 1.18794
 C66 C 0.80505 1.14944 1.15979
 C67 C 0.81859 1.17728 1.14384
 C68 C 0.84716 1.19285 1.15604
 C69 C 0.86227 1.18047 1.18422
 H70 H 0.80936 1.11569 1.20040
 H71 H 0.80664 1.18700 1.12222
 H72 H 0.88422 1.19272 1.19387
 O73 O 0.54703 0.93780 0.94490
 O74 O 0.58315 0.96769 0.97680
 C75 C 0.57668 0.94678 0.95375
 O76 O 0.45385 1.05679 0.94800
 O77 O 0.41715 1.02459 0.97723
 C78 C 0.42405 1.04789 0.95648
 O79 O 0.54741 1.05280 0.94510
 O80 O 0.58333 1.02244 0.97681
 C81 C 0.57699 1.04367 0.95396
 O82 O 0.45333 0.93411 0.94794
 O83 O 0.41695 0.96643 0.97728
 C84 C 0.42361 0.94320 0.95645
 Zr85 Zr 0.50010 0.95276 0.96361
 O86 O 0.49654 0.95184 0.91245
 O87 O 0.50405 0.89990 0.96472
 Zr88 Zr 0.50040 1.03768 0.96351
 O89 O 0.49682 1.03804 0.91233
 O90 O 0.50465 1.09053 0.96397
 O91 O 0.52975 0.99515 0.95739
 O92 O 0.47150 0.99532 0.95745
 O93 O 0.45248 0.93410 1.06071
 O94 O 0.41654 0.96643 1.03086
 C95 C 0.42289 0.94322 1.05185
 O96 O 0.54651 1.05296 1.06432
 O97 O 0.58285 1.02247 1.03316
 C98 C 0.57622 1.04384 1.05577
 O99 O 0.45287 1.05668 1.06051
 O100 O 0.41675 1.02453 1.03075
 C101 C 0.42322 1.04774 1.05164
 O102 O 0.54607 0.93760 1.06474
 O103 O 0.58270 0.96760 1.03331
 C104 C 0.57586 0.94655 1.05622
 Zr105 Zr 0.49947 0.95273 1.04554
 O106 O 0.49516 0.95183 1.09665
 O107 O 0.50335 0.89985 1.04459
 Zr108 Zr 0.49975 1.03765 1.04552
 O109 O 0.49547 1.03783 1.09666
 O110 O 0.50387 1.09051 1.04504
 Zr111 Zr 0.54916 0.99509 1.00483
 Zr112 Zr 0.45060 0.99537 1.00423
 O113 O 0.47076 0.99527 1.05127
 O114 O 0.52903 0.99511 1.05204
 O115 O 0.47011 0.94635 1.00440
 O116 O 0.52899 1.04368 1.00467
 O117 O 0.52873 0.94658 1.00475
 O118 O 0.47050 1.04426 1.00433
 H119 H 0.45655 0.99539 0.93839
 H120 H 0.54432 1.06310 1.00471
 H121 H 0.45554 0.99532 1.07016
 H122 H 0.54406 0.92717 1.00483
 H123 H 0.48573 1.09938 0.97666
 H124 H 0.48512 1.09933 1.03213
 H125 H 0.51374 1.02394 1.10537
 H126 H 0.51237 0.96702 1.10538
 H127 H 0.48405 0.89118 1.03238
 H128 H 0.48452 0.89118 0.97664
 H129 H 0.51383 0.96708 0.90386
 H130 H 0.51503 1.02393 0.90382
 O131 O 0.05344 0.45484 -0.06140
 O132 O 0.02138 0.41735 -0.03288
 C133 C 0.04449 0.42467 -0.05354
 O134 O 0.04849 0.54666 0.05655
 O135 O 0.01836 0.58358 0.02559
 C136 C 0.03933 0.57665 0.04837
 O137 O 0.05274 0.45257 0.05201
 O138 O 0.02159 0.41632 0.02136
 C139 C 0.04408 0.42275 0.04282
 O140 O 0.04911 0.54909 -0.06293
 O141 O 0.01868 0.58474 -0.03089
 C142 C 0.03987 0.57874 -0.05376
 Zr143 Zr 0.03455 0.50144 -0.04495
 O144 O 0.08697 0.50591 -0.04339
 O145 O 0.03602 0.49871 -0.09615
 Zr146 Zr 0.03413 0.49979 0.03681
 O147 O 0.08657 0.50426 0.03557
 O148 O 0.03526 0.49513 0.08789
 O149 O 0.04104 0.47070 -0.00456
 O150 O 0.04005 0.52989 -0.00354
 O151 O -0.06511 0.54798 -0.06342
 O152 O -0.03568 0.58415 -0.03107
 C153 C -0.05645 0.57780 -0.05414
 O154 O -0.06798 0.45109 0.05156
 O155 O -0.03536 0.41558 0.02149
 C156 C -0.05836 0.42146 0.04262
 O157 O -0.06569 0.54553 0.05623
 O158 O -0.03601 0.58301 0.02534
 C159 C -0.05698 0.57571 0.04806
 O160 O -0.06768 0.45336 -0.06180
 O161 O -0.03513 0.41666 -0.03299
 C162 C -0.05819 0.42338 -0.05379
 Zr163 Zr -0.04985 0.50053 -0.04535
 O164 O -0.10236 0.50393 -0.04443
 O165 O -0.05052 0.49772 -0.09656
 Zr166 Zr -0.05039 0.49888 0.03647
 O167 O -0.10288 0.50223 0.03450
 O168 O -0.05243 0.49423 0.08751
 Zr169 Zr -0.00741 0.45049 -0.00506
 Zr170 Zr -0.00836 0.54975 -0.00336
 O171 O -0.05638 0.52886 -0.00395
 O172 O -0.05626 0.46966 -0.00497
 O173 O -0.00790 0.53074 -0.05101
 O174 O -0.00786 0.47040 0.04215
 O175 O -0.00734 0.47223 -0.05159
 O176 O -0.00845 0.52879 0.04356
 H177 H 0.05916 0.54556 -0.00320
 H178 H -0.00775 0.45508 0.06106
 H179 H -0.07577 0.54416 -0.00375
 H180 H -0.00710 0.45763 -0.07098
 H181 H 0.01963 0.51187 0.09680
 H182 H -0.03660 0.51067 0.09659
 H183 H -0.11115 0.48194 0.02338
 H184 H -0.11083 0.48404 -0.03271
 H185 H -0.03574 0.51558 -0.10486
 H186 H 0.02063 0.51593 -0.10456
 H187 H 0.09571 0.48597 -0.03200
 H188 H 0.09540 0.48452 0.02394
 O189 O 1.06773 -0.05105 0.54671
 O190 O 1.03609 -0.01930 0.58135
 C191 C 1.05909 -0.04105 0.57543
 O192 O 1.06294 0.06481 0.45110
 O193 O 1.03254 0.03070 0.41754
 C194 C 1.05380 0.05435 0.42267
 O195 O 1.06779 0.06465 0.54267
 O196 O 1.03594 0.03565 0.57949
 C197 C 1.05924 0.05661 0.57203
 O198 O 1.06372 -0.05715 0.45569
 O199 O 1.03247 -0.02655 0.41976
 C200 C 1.05436 -0.04916 0.42661
 Zr201 Zr 1.04826 -0.03696 0.50084
 O202 O 1.10070 -0.03697 0.49655
 O203 O 1.04800 -0.08970 0.50622
 Zr204 Zr 1.04781 0.04795 0.49784
 O205 O 1.10020 0.04926 0.49330
 O206 O 1.04637 0.10091 0.49988
 O207 O 1.05495 0.00654 0.52797
 O208 O 1.05370 0.00451 0.47128
 O209 O 0.94758 -0.05784 0.45742
 O210 O 0.97740 -0.02677 0.42063
 C211 C 0.95602 -0.04970 0.42809
 O212 O 0.94486 0.06392 0.54451
 O213 O 0.97801 0.03533 0.58039
 C214 C 0.95423 0.05594 0.57361
 O215 O 0.94736 0.06467 0.45304
 O216 O 0.97742 0.03131 0.41847
 C217 C 0.95602 0.05466 0.42432
 O218 O 0.94598 -0.05141 0.54858
 O219 O 0.97844 -0.01943 0.58225
 C220 C 0.95534 -0.04124 0.57702
 Zr221 Zr 0.96416 -0.03743 0.50208
 O222 O 0.91162 -0.03813 0.49929
 O223 O 0.96514 -0.09016 0.50757
 Zr224 Zr 0.96378 0.04752 0.49912
 O225 O 0.91128 0.04805 0.49599
 O226 O 0.96458 0.10049 0.50129
 Zr227 Zr 1.00667 0.00698 0.54793
 Zr228 Zr 1.00528 0.00354 0.45198
 O229 O 0.95746 0.00403 0.47268
 O230 O 0.95787 0.00602 0.52938
 O231 O 1.00583 -0.04471 0.47281
 O232 O 1.00616 0.05481 0.52649
 O233 O 1.00662 -0.04225 0.52979
 O234 O 1.00536 0.05319 0.46937
 H235 H 1.07305 0.00406 0.45642
 H236 H 1.00625 0.07471 0.54081
 H237 H 0.93778 0.00349 0.45828
 H238 H 1.00689 -0.06125 0.54526
 H239 H 1.03428 0.10887 0.48049
 H240 H 0.97700 0.10862 0.48212
 H241 H 0.90270 0.03322 0.51329
 H242 H 0.90306 -0.02360 0.51680
 H243 H 0.97774 -0.09943 0.48904
 H244 H 1.03478 -0.09908 0.48819
 H245 H 1.10961 -0.02263 0.51403
 H246 H 1.10937 0.03421 0.51009
 C247 C 1.09209 0.09316 0.33899
 C248 C 1.12466 0.08467 0.32892
 C249 C 1.13689 0.09637 0.29862
 C250 C 1.11652 0.11662 0.27865
 C251 C 1.08364 0.12441 0.28837
 C252 C 1.07140 0.11268 0.31866
 C253 C 1.03845 0.12076 0.32785
 C254 C 1.01814 0.13981 0.30764
 C255 C 1.03006 0.15115 0.27796
 C256 C 1.06244 0.14370 0.26834
 C257 C 1.16943 0.08733 0.28894
 C258 C 1.18929 0.06721 0.30860
 C259 C 1.17735 0.05582 0.33825
 C260 C 1.14546 0.06443 0.34846
 C261 C 1.12965 0.13000 0.24850
 C262 C 1.14090 0.14146 0.22376
 C263 C 1.07941 0.08069 0.36966
 C264 C 1.06827 0.06941 0.39449
 H265 H 1.02799 0.11237 0.35063
 H266 H 0.99295 0.14563 0.31498
 H267 H 1.01412 0.16579 0.26229
 H268 H 1.07058 0.15304 0.24501
 H269 H 1.17980 0.09552 0.26605
 H270 H 1.21407 0.06043 0.30076
 H271 H 1.19286 0.04018 0.35342
 H272 H 1.13726 0.05489 0.37169
 C273 C 0.91270 -0.09271 0.34906
 C274 C 0.90522 -0.12728 0.34722
 C275 C 0.89123 -0.14070 0.31842
 C276 C 0.88478 -0.11944 0.29165
 C277 C 0.89229 -0.08483 0.29350
 C278 C 0.90630 -0.07142 0.32229
 C279 C 0.91367 -0.03674 0.32354
 C280 C 0.90738 -0.01593 0.29711
 C281 C 0.89365 -0.02906 0.26897
 C282 C 0.88613 -0.06309 0.26705
 C283 C 0.88404 -0.17539 0.31711
 C284 C 0.89047 -0.19619 0.34351
 C285 C 0.90413 -0.18304 0.37168
 C286 C 0.91148 -0.14899 0.37365
 C287 C 0.87032 -0.13316 0.26232
 C288 C 0.85816 -0.14464 0.23808
 C289 C 0.92748 -0.07895 0.37819
 C290 C 0.94020 -0.06641 0.40162
 H291 H 0.92435 -0.02532 0.34489
 H292 H 0.91317 0.01052 0.29849
 H293 H 0.88880 -0.01280 0.24851
 H294 H 0.87550 -0.07213 0.24463
 H295 H 0.87341 -0.18679 0.29573
 H296 H 0.88481 -0.22265 0.34210
 H297 H 0.90908 -0.19930 0.39212
 H298 H 0.92208 -0.13991 0.39607
 C299 C 0.90668 0.09367 0.65312
 C300 C 0.89436 0.07064 0.67637
 C301 C 0.87965 0.08260 0.70549
 C302 C 0.87741 0.11749 0.71119
 C303 C 0.88941 0.14050 0.68777
 C304 C 0.90407 0.12854 0.65864
 C305 C 0.91600 0.15200 0.63565
 C306 C 0.91351 0.18631 0.64126
 C307 C 0.89918 0.19802 0.66973
 C308 C 0.88723 0.17550 0.69281
 C309 C 0.86759 0.05911 0.72840
 C310 C 0.87005 0.02479 0.72275
 C311 C 0.88448 0.01310 0.69433
 C312 C 0.89653 0.03563 0.67131
 C313 C 0.86315 0.12979 0.74126
 C314 C 0.85150 0.14035 0.76618
 C315 C 0.92292 0.08138 0.62404
 C316 C 0.93692 0.07040 0.60051
 H317 H 0.92732 0.14410 0.61312
 H318 H 0.92276 0.20391 0.62341
 H319 H 0.89731 0.22470 0.67398
 H320 H 0.87629 0.18583 0.71457
 H321 H 0.85616 0.06700 0.75088
 H322 H 0.86072 0.00717 0.74054
 H323 H 0.88638 -0.01357 0.69010
 H324 H 0.90750 0.02528 0.64956
 C325 C 1.10145 -0.08030 0.65690
 C326 C 1.12430 -0.10719 0.65589
 C327 C 1.13663 -0.12110 0.68523
 C328 C 1.12606 -0.10797 0.71540
 C329 C 1.10361 -0.08069 0.71639
 C330 C 1.09118 -0.06688 0.68705
 C331 C 1.06857 -0.03976 0.68864
 C332 C 1.05866 -0.02658 0.71836
 C333 C 1.07087 -0.04004 0.74704
 C334 C 1.09307 -0.06681 0.74621
 C335 C 1.15931 -0.14813 0.68361
 C336 C 1.16953 -0.16103 0.65386
 C337 C 1.15749 -0.14740 0.62518
 C338 C 1.13512 -0.12078 0.62604
 C339 C 1.13780 -0.12299 0.74535
 C340 C 1.14748 -0.13594 0.77000
 C341 C 1.08780 -0.06686 0.62707
 C342 C 1.07541 -0.05538 0.60294
 H343 H 1.05845 -0.02834 0.66701
 H344 H 1.04143 -0.00578 0.71913
 H345 H 1.06311 -0.02970 0.77007
 H346 H 1.10190 -0.07642 0.76917
 H347 H 1.16941 -0.15956 0.70525
 H348 H 1.18690 -0.18171 0.65306
 H349 H 1.16551 -0.15751 0.60213
 H350 H 1.12646 -0.11099 0.60309
 C351 C 0.34091 1.09140 1.09141
 C352 C 0.32327 1.11629 1.07403
 C353 C 0.29313 1.12939 1.08680
 C354 C 0.28092 1.11766 1.11696
 C355 C 0.29860 1.09283 1.13437
 C356 C 0.32869 1.07966 1.12156
 C357 C 0.34589 1.05482 1.13938
 C358 C 0.33374 1.04334 1.16902
 C359 C 0.30430 1.05615 1.18151
 C360 C 0.28683 1.08062 1.16450
 C361 C 0.27579 1.15403 1.06886
 C362 C 0.28794 1.16550 1.03920
 C363 C 0.31752 1.15285 1.02682
 C364 C 0.33505 1.12847 1.04390
 C365 C 0.25032 1.13125 1.13024
 C366 C 0.22505 1.14255 1.14153
 C367 C 0.37093 1.07699 1.07776
 C368 C 0.39529 1.06419 1.06612
 H369 H 0.36891 1.04407 1.13068
 H370 H 0.34730 1.02448 1.18240
 H371 H 0.29495 1.04712 1.20454
 H372 H 0.26404 1.08981 1.17523
 H373 H 0.25268 1.16465 1.07751
 H374 H 0.27432 1.18429 1.02575
 H375 H 0.32680 1.16178 1.00374
 H376 H 0.35784 1.11927 1.03318
 C377 C 0.34199 0.89999 0.91497
 C378 C 0.31225 0.89800 0.93329
 C379 C 0.28271 0.88563 0.91869
 C380 C 0.28305 0.87548 0.88582
 C381 C 0.31292 0.87698 0.86767
 C382 C 0.34248 0.88923 0.88230
 C383 C 0.37201 0.89060 0.86364
 C384 C 0.37232 0.88016 0.83143
 C385 C 0.34342 0.86819 0.81712
 C386 C 0.31399 0.86657 0.83490
 C387 C 0.25329 0.88386 0.93748
 C388 C 0.25301 0.89419 0.96973
 C389 C 0.28182 0.90651 0.98393
 C390 C 0.31120 0.90835 0.96608
 C391 C 0.25264 0.86396 0.87051
 C392 C 0.22752 0.85444 0.85752
 C393 C 0.37169 0.91423 0.92939
 C394 C 0.39584 0.92691 0.94153
 H395 H 0.39513 0.89967 0.87372
 H396 H 0.39512 0.88135 0.81751
 H397 H 0.34379 0.86011 0.79209
 H398 H 0.29216 0.85706 0.82269
 H399 H 0.23024 0.87450 0.92748
 H400 H 0.23031 0.89263 0.98376
 H401 H 0.28147 0.91448 1.00900
 H402 H 0.33303 0.91787 0.97830
 C403 C 0.65697 0.90893 1.10325
 C404 C 0.68581 0.92921 1.10509
 C405 C 0.71512 0.91647 1.11981
 C406 C 0.71550 0.88343 1.13232
 C407 C 0.68651 0.86335 1.13090
 C408 C 0.65714 0.87616 1.11636
 C409 C 0.62850 0.85560 1.11512
 C410 C 0.62885 0.82328 1.12789
 C411 C 0.65757 0.81073 1.14210
 C412 C 0.68614 0.83041 1.14365
 C413 C 0.74359 0.93724 1.12151
 C414 C 0.74320 0.96960 1.10881
 C415 C 0.71466 0.98194 1.09412
 C416 C 0.68619 0.96214 1.09230
 C417 C 0.74586 0.86975 1.14595
 C418 C 0.77096 0.85792 1.15702
 C419 C 0.62746 0.92156 1.08720
 C420 C 0.60345 0.93250 1.07335
 H421 H 0.60556 0.86427 1.10433
 H422 H 0.60672 0.80789 1.12675
 H423 H 0.65772 0.78561 1.15199
 H424 H 0.70784 0.81955 1.15498
 H425 H 0.76640 0.92872 1.13267
 H426 H 0.76517 0.98518 1.11037
 H427 H 0.71447 1.00711 1.08432
 H428 H 0.66450 0.97299 1.08090
 C429 C 0.65862 1.08279 0.90865
 C430 C 0.67133 1.11421 0.91858
 C431 C 0.70063 1.12717 0.90392
 C432 C 0.71707 1.10860 0.87947
 C433 C 0.70458 1.07699 0.86982
 C434 C 0.67513 1.06414 0.88431
 C435 C 0.66288 1.03267 0.87402
 C436 C 0.67949 1.01422 0.85037
 C437 C 0.70848 1.02662 0.83645
 C438 C 0.72094 1.05769 0.84590
 C439 C 0.71286 1.15865 0.91425
 C440 C 0.69659 1.17681 0.93832
 C441 C 0.66791 1.16415 0.95260
 C442 C 0.65533 1.13321 0.94298
 C443 C 0.74643 1.12243 0.86396
 C444 C 0.77056 1.13480 0.85135
 C445 C 0.62906 1.06933 0.92408
 C446 C 0.60492 1.05793 0.93741
 H447 H 0.64053 1.02187 0.88428
 H448 H 0.66994 0.99004 0.84300
 H449 H 0.72138 1.01211 0.81822
 H450 H 0.74354 1.06633 0.83434
 H451 H 0.73511 1.16956 0.90391
 H452 H 0.70628 1.20084 0.94592
 H453 H 0.65527 1.17842 0.97117
 H454 H 0.63295 1.12443 0.95483
 C455 C 0.08550 0.34038 0.08546
 C456 C 0.11974 0.33900 0.09316
 C457 C 0.13325 0.30961 0.10743
 C458 C 0.11241 0.28181 0.11401
 C459 C 0.07811 0.28325 0.10647
 C460 C 0.06463 0.31258 0.09203
 C461 C 0.03034 0.31328 0.08433
 C462 C 0.00999 0.28579 0.09071
 C463 C 0.02310 0.25726 0.10515
 C464 C 0.05676 0.25586 0.11298
 C465 C 0.16761 0.30877 0.11478
 C466 C 0.18800 0.33619 0.10825
 C467 C 0.17476 0.36494 0.09432
 C468 C 0.14104 0.36647 0.08681
 C469 C 0.12637 0.25168 0.12825
 C470 C 0.13831 0.22681 0.14002
 C471 C 0.07173 0.37023 0.07056
 C472 C 0.05968 0.39461 0.05800
 H473 H 0.01890 0.33499 0.07328
 H474 H -0.01614 0.28667 0.08453
 H475 H 0.00712 0.23608 0.11026
 H476 H 0.06583 0.23308 0.12411
 H477 H 0.17907 0.28697 0.12564
 H478 H 0.21422 0.33512 0.11403
 H479 H 0.19071 0.38618 0.08930
 H480 H 0.13190 0.38938 0.07599
 C481 C -0.09933 0.34036 -0.09545
 C482 C -0.10621 0.31236 -0.07539
 C483 C -0.11897 0.28242 -0.08923
 C484 C -0.12452 0.28054 -0.12307
 C485 C -0.11744 0.30847 -0.14312
 C486 C -0.10486 0.33848 -0.12926
 C487 C -0.09798 0.36606 -0.14980
 C488 C -0.10333 0.36404 -0.18309
 C489 C -0.11558 0.33469 -0.19665
 C490 C -0.12261 0.30715 -0.17702
 C491 C -0.12582 0.25483 -0.06868
 C492 C -0.11991 0.25666 -0.03546
 C493 C -0.10711 0.28580 -0.02198
 C494 C -0.10046 0.31347 -0.04156
 C495 C -0.13750 0.24993 -0.13726
 C496 C -0.14843 0.22463 -0.14910
 C497 C -0.08576 0.37072 -0.08134
 C498 C -0.07375 0.39532 -0.06916
 H499 H -0.08841 0.38943 -0.14037
 H500 H -0.09794 0.38537 -0.19844
 H501 H -0.11968 0.33324 -0.22254
 H502 H -0.13208 0.28487 -0.18872
 H503 H -0.13569 0.23157 -0.07805
 H504 H -0.12521 0.23530 -0.02010
 H505 H -0.10232 0.28696 0.00379
 H506 H -0.09069 0.33564 -0.02988
 C507 C 0.07990 0.66092 -0.09825
 C508 C 0.06063 0.69045 -0.10117
 C509 C 0.07487 0.71975 -0.11505
 C510 C 0.10837 0.71941 -0.12564
 C511 C 0.12746 0.68973 -0.12315
 C512 C 0.11316 0.66039 -0.10945
 C513 C 0.13276 0.63105 -0.10711
 C514 C 0.16557 0.63072 -0.11798
 C515 C 0.17956 0.65941 -0.13135
 C516 C 0.16086 0.68865 -0.13397
 C517 C 0.05512 0.74892 -0.11785
 C518 C 0.02227 0.74921 -0.10706
 C519 C 0.00844 0.72067 -0.09320
 C520 C 0.02726 0.69153 -0.09030
 C521 C 0.12357 0.74970 -0.13834
 C522 C 0.13693 0.77457 -0.14863
 C523 C 0.06579 0.63137 -0.08302
 C524 C 0.05410 0.60708 -0.06992
 H525 H 0.12297 0.60809 -0.09691
 H526 H 0.18020 0.60807 -0.11602
 H527 H 0.20506 0.65904 -0.13977
 H528 H 0.17286 0.71030 -0.14459
 H529 H 0.06481 0.77174 -0.12842
 H530 H 0.00747 0.77171 -0.10945
 H531 H -0.01709 0.72101 -0.08489
 H532 H 0.01531 0.66988 -0.07959
 C533 C -0.09524 0.65695 0.09524
 C534 C -0.07730 0.67153 0.12114
 C535 C -0.08926 0.70124 0.13608
 C536 C -0.11925 0.71601 0.12524
 C537 C -0.13717 0.70143 0.09931
 C538 C -0.12510 0.67184 0.08424
 C539 C -0.14336 0.65781 0.05828
 C540 C -0.17273 0.67256 0.04755
 C541 C -0.18454 0.70149 0.06227
 C542 C -0.16708 0.71586 0.08787
 C543 C -0.07069 0.71559 0.16166
 C544 C -0.04120 0.70093 0.17225
 C545 C -0.02963 0.67175 0.15780
 C546 C -0.04736 0.65712 0.13251
 C547 C -0.13190 0.74602 0.14083
 C548 C -0.14293 0.77081 0.15354
 C549 C -0.08242 0.62731 0.07920
 C550 C -0.07127 0.60326 0.06533
 H551 H -0.13520 0.63531 0.04605
 H552 H -0.18644 0.66143 0.02776
 H553 H -0.20737 0.71285 0.05383
 H554 H -0.17727 0.73839 0.09851
 H555 H -0.07871 0.73827 0.17367
 H556 H -0.02725 0.71229 0.19177
 H557 H -0.00667 0.66051 0.16606
 H558 H -0.03725 0.63453 0.12192
 C559 C 1.10553 0.09663 0.65100
 C560 C 1.11984 0.07451 0.67394
 C561 C 1.13292 0.08731 0.70341
 C562 C 1.13171 0.12214 0.70970
 C563 C 1.11789 0.14429 0.68653
 C564 C 1.10476 0.13149 0.65709
 C565 C 1.09087 0.15408 0.63438
 C566 C 1.08999 0.18836 0.64058
 C567 C 1.10282 0.20090 0.66936
 C568 C 1.11664 0.17924 0.69216
 C569 C 1.14684 0.06471 0.72610
 C570 C 1.14796 0.03045 0.71977
 C571 C 1.13536 0.01796 0.69087
 C572 C 1.12129 0.03958 0.66819
 C573 C 1.14426 0.13524 0.74012
 C574 C 1.15437 0.14661 0.76529
 C575 C 1.09023 0.08333 0.62192
 C576 C 1.07662 0.07169 0.59852
 H577 H 1.08063 0.14553 0.61161
 H578 H 1.07929 0.20529 0.62294
 H579 H 1.10208 0.22755 0.67407
 H580 H 1.12630 0.19021 0.71419
 H581 H 1.15704 0.07327 0.74888
 H582 H 1.15875 0.01351 0.73735
 H583 H 1.13654 -0.00864 0.68599
 H584 H 1.11174 0.02863 0.64610
 C585 C 0.91393 -0.07919 0.65965
 C586 C 0.87910 -0.08137 0.66393
 C587 C 0.86587 -0.09447 0.69327
 C588 C 0.88759 -0.10541 0.71811
 C589 C 0.92243 -0.10249 0.71413
 C590 C 0.93566 -0.08930 0.68482
 C591 C 0.97059 -0.08655 0.68141
 C592 C 0.99183 -0.09658 0.70624
 C593 C 0.97888 -0.10951 0.73488
 C594 C 0.94460 -0.11252 0.73891
 C595 C 0.83094 -0.09630 0.69704
 C596 C 0.80970 -0.08544 0.67255
 C597 C 0.82265 -0.07260 0.64386
 C598 C 0.85694 -0.07055 0.63946
 C599 C 0.87400 -0.12019 0.74743
 C600 C 0.86221 -0.13273 0.77142
 C601 C 0.92751 -0.06628 0.62955
 C602 C 0.93957 -0.05522 0.60504
 H603 H 0.98187 -0.07660 0.65960
 H604 H 1.01847 -0.09436 0.70322
 H605 H 0.99549 -0.11724 0.75410
 H606 H 0.93569 -0.12267 0.76165
 H607 H 0.81967 -0.10601 0.71895
 H608 H 0.78305 -0.08698 0.67586
 H609 H 0.80605 -0.06418 0.62492
 H610 H 0.86584 -0.06031 0.61675
 C611 C 1.09660 -0.09287 0.34723
 C612 C 1.09731 -0.12805 0.34317
 C613 C 1.11031 -0.14203 0.31415
 C614 C 1.12252 -0.12071 0.28938
 C615 C 1.12217 -0.08552 0.29360
 C616 C 1.10913 -0.07155 0.32261
 C617 C 1.10879 -0.03627 0.32618
 C618 C 1.12099 -0.01543 0.30179
 C619 C 1.13387 -0.02911 0.27349
 C620 C 1.13451 -0.06373 0.26930
 C621 C 1.11065 -0.17728 0.31059
 C622 C 1.09849 -0.19812 0.33500
 C623 C 1.08577 -0.18444 0.36337
 C624 C 1.08511 -0.14982 0.36754
 C625 C 1.13502 -0.13501 0.25943
 C626 C 1.14522 -0.14711 0.23460
 C627 C 1.08216 -0.07850 0.37628
 C628 C 1.06972 -0.06575 0.39978
 H629 H 1.09910 -0.02441 0.34778
 H630 H 1.12041 0.01148 0.30483
 H631 H 1.14336 -0.01280 0.25465
 H632 H 1.14474 -0.07320 0.24685
 H633 H 1.12031 -0.18912 0.28896
 H634 H 1.09895 -0.22503 0.33188
 H635 H 1.07635 -0.20073 0.38226
 H636 H 1.07500 -0.14036 0.39005
 C637 C 0.91565 0.09501 0.34238
 C638 C 0.88528 0.11286 0.34249
 C639 C 0.87186 0.12503 0.31289
 C640 C 0.88894 0.11932 0.28336
 C641 C 0.91951 0.10176 0.28331
 C642 C 0.93284 0.08945 0.31290
 C643 C 0.96329 0.07167 0.31220
 C644 C 0.98018 0.06642 0.28315
 C645 C 0.96724 0.07866 0.25426
 C646 C 0.93724 0.09609 0.25419
 C647 C 0.84138 0.14271 0.31360
 C648 C 0.82467 0.14821 0.34271
 C649 C 0.83781 0.13631 0.37165
 C650 C 0.86777 0.11881 0.37168
 C651 C 0.87484 0.13125 0.25309
 C652 C 0.86276 0.14120 0.22815
 C653 C 0.92907 0.08185 0.37243
 C654 C 0.94086 0.07007 0.39671
 H655 H 0.97447 0.06180 0.33405
 H656 H 1.00353 0.05296 0.28310
 H657 H 0.98053 0.07462 0.23178
 H658 H 0.92815 0.10508 0.23110
 H659 H 0.83015 0.15248 0.29173
 H660 H 0.80139 0.16180 0.34282
 H661 H 0.82474 0.14065 0.39420
 H662 H 0.87702 0.11004 0.39479
 C663 C 0.08890 0.34442 -0.09688
 C664 C 0.12390 0.34087 -0.09715
 C665 C 0.13858 0.31191 -0.11109
 C666 C 0.11815 0.28670 -0.12471
 C667 C 0.08315 0.29037 -0.12465
 C668 C 0.06846 0.31932 -0.11067
 C669 C 0.03339 0.32239 -0.11077
 C670 C 0.01341 0.29757 -0.12430
 C671 C 0.02778 0.26928 -0.13800
 C672 C 0.06224 0.26558 -0.13824
 C673 C 0.17364 0.30886 -0.11098
 C674 C 0.19360 0.33372 -0.09748
 C675 C 0.17923 0.36203 -0.08384
 C676 C 0.14479 0.36571 -0.08361
 C677 C 0.13321 0.25693 -0.13848
 C678 C 0.14611 0.23231 -0.14971
 C679 C 0.07383 0.37352 -0.08188
 C680 C 0.06083 0.39724 -0.06912
 H681 H 0.02105 0.34395 -0.10042
 H682 H -0.01337 0.30032 -0.12416
 H683 H 0.01216 0.25006 -0.14849
 H684 H 0.07226 0.24312 -0.14917
 H685 H 0.18599 0.28729 -0.12129
 H686 H 0.22037 0.33098 -0.09760
 H687 H 0.19483 0.38128 -0.07338
 H688 H 0.13477 0.38819 -0.07274
 C689 C -0.09587 0.33696 0.08483
 C690 C -0.12369 0.32010 0.07166
 C691 C -0.13464 0.28945 0.08563
 C692 C -0.11782 0.27597 0.11281
 C693 C -0.08962 0.29255 0.12561
 C694 C -0.07870 0.32321 0.11166
 C695 C -0.05053 0.33940 0.12497
 C696 C -0.03351 0.32556 0.15114
 C697 C -0.04408 0.29547 0.16464
 C698 C -0.07184 0.27909 0.15218
 C699 C -0.16233 0.27288 0.07186
 C700 C -0.17872 0.28621 0.04505
 C701 C -0.16811 0.31626 0.03150
 C702 C -0.14094 0.33315 0.04458
 C703 C -0.13001 0.24558 0.12811
 C704 C -0.14050 0.22066 0.14113
 C705 C -0.08410 0.36780 0.07014
 C706 C -0.07320 0.39284 0.05775
 H707 H -0.04123 0.36276 0.11521
 H708 H -0.01189 0.33816 0.16086
 H709 H -0.03069 0.28475 0.18488
 H710 H -0.07908 0.25572 0.16349
 H711 H -0.17149 0.24941 0.08153
 H712 H -0.19977 0.27313 0.03474
 H713 H -0.18088 0.32648 0.01065
 H714 H -0.13352 0.35637 0.03311
 C715 C -0.09404 0.66142 -0.09786
 C716 C -0.12436 0.67535 -0.08682
 C717 C -0.13597 0.70604 -0.10011
 C718 C -0.11716 0.72265 -0.12432
 C719 C -0.08678 0.70877 -0.13530
 C720 C -0.07527 0.67797 -0.12215
 C721 C -0.04495 0.66446 -0.13364
 C722 C -0.02641 0.68103 -0.15730
 C723 C -0.03753 0.71128 -0.16996
 C724 C -0.06738 0.72508 -0.15922
 C725 C -0.16632 0.71950 -0.08861
 C726 C -0.18466 0.70312 -0.06470
 C727 C -0.17332 0.67309 -0.05175
 C728 C -0.14352 0.65926 -0.06255
 C729 C -0.12931 0.75381 -0.13806
 C730 C -0.14004 0.77953 -0.14926
 C731 C -0.08152 0.63084 -0.08328
 C732 C -0.07058 0.60609 -0.07043
 H733 H -0.03517 0.64109 -0.12439
 H734 H -0.00316 0.67046 -0.16566
 H735 H -0.02293 0.72415 -0.18819
 H736 H -0.07502 0.74866 -0.16981
 H737 H -0.17618 0.74281 -0.09792
 H738 H -0.20782 0.71377 -0.05620
 H739 H -0.18772 0.66039 -0.03328
 H740 H -0.13576 0.63584 -0.05174
 C741 C 0.07924 0.65678 0.09597
 C742 C 0.11284 0.65609 0.10607
 C743 C 0.12713 0.68475 0.12092
 C744 C 0.10770 0.71390 0.12567
 C745 C 0.07390 0.71437 0.11614
 C746 C 0.05965 0.68576 0.10111
 C747 C 0.02595 0.68696 0.09137
 C748 C 0.00684 0.71558 0.09643
 C749 C 0.02068 0.74344 0.11140
 C750 C 0.05384 0.74301 0.12114
 C751 C 0.16086 0.68355 0.13062
 C752 C 0.17988 0.65483 0.12581
 C753 C 0.16588 0.62679 0.11131
 C754 C 0.13276 0.62726 0.10150
 C755 C 0.12279 0.74354 0.13972
 C756 C 0.13595 0.76792 0.15115
 C757 C 0.06509 0.62799 0.07960
 C758 C 0.05344 0.60430 0.06558
 H759 H 0.01398 0.66582 0.07986
 H760 H -0.01893 0.71605 0.08891
 H761 H 0.00566 0.76553 0.11545
 H762 H 0.06354 0.76531 0.13263
 H763 H 0.17287 0.70471 0.14204
 H764 H 0.20563 0.65434 0.13339
 H765 H 0.18076 0.60453 0.10764
 H766 H 0.12299 0.60482 0.09035
 C767 C 0.34424 1.09371 0.91438
 C768 C 0.34574 1.10422 0.88163
 C769 C 0.31720 1.11833 0.86666
 C770 C 0.28736 1.12191 0.88456
 C771 C 0.28600 1.11184 0.91746
 C772 C 0.31450 1.09761 0.93240
 C773 C 0.31246 1.08742 0.96522
 C774 C 0.28309 1.09120 0.98278
 C775 C 0.25530 1.10536 0.96825
 C776 C 0.25657 1.11556 0.93596
 C777 C 0.31926 1.12851 0.83384
 C778 C 0.34868 1.12489 0.81633
 C779 C 0.37659 1.11111 0.83098
 C780 C 0.37528 1.10083 0.86325
 C781 C 0.25806 1.13567 0.86899
 C782 C 0.23391 1.14712 0.85578
 C783 C 0.37299 1.07814 0.92927
 C784 C 0.39658 1.06467 0.94161
 H785 H 0.33350 1.07651 0.97768
 H786 H 0.28198 1.08333 1.00788
 H787 H 0.23261 1.10843 0.98206
 H788 H 0.23429 1.12638 0.92569
 H789 H 0.29822 1.13938 0.82137
 H790 H 0.34982 1.13283 0.79126
 H791 H 0.39939 1.10836 0.81728
 H792 H 0.39766 1.09028 0.87358
 C793 C 0.34098 0.90044 1.09341
 C794 C 0.32169 0.87685 1.07606
 C795 C 0.29193 0.86397 1.08992
 C796 C 0.28176 0.87465 1.12111
 C797 C 0.30111 0.89818 1.13848
 C798 C 0.33082 0.91110 1.12460
 C799 C 0.34976 0.93459 1.14244
 C800 C 0.33966 0.94496 1.17314
 C801 C 0.31055 0.93242 1.18667
 C802 C 0.29140 0.90929 1.16966
 C803 C 0.27291 0.84061 1.07202
 C804 C 0.28307 0.83017 1.04135
 C805 C 0.31228 0.84259 1.02790
 C806 C 0.33143 0.86573 1.04491
 C807 C 0.25156 0.86132 1.13549
 C808 C 0.22665 0.85037 1.14783
 C809 C 0.37071 0.91454 1.07885
 C810 C 0.39493 0.92709 1.06666
 H811 H 0.37259 0.94510 1.13295
 H812 H 0.35456 0.96275 1.18653
 H813 H 0.30279 0.94060 1.21050
 H814 H 0.26896 0.90025 1.18123
 H815 H 0.25002 0.83022 1.08150
 H816 H 0.26820 0.81234 1.02796
 H817 H 0.32003 0.83446 1.00404
 H818 H 0.35386 0.87481 1.03335
 C819 C 0.65851 1.08386 1.09879
 C820 C 0.67168 1.11434 1.08679
 C821 C 0.70195 1.12708 1.09951
 C822 C 0.71891 1.10923 1.12413
 C823 C 0.70576 1.07871 1.13611
 C824 C 0.67536 1.06608 1.12352
 C825 C 0.66256 1.03566 1.13601
 C826 C 0.67944 1.01807 1.16009
 C827 C 0.70931 1.03027 1.17219
 C828 C 0.72240 1.06027 1.16048
 C829 C 0.71466 1.15759 1.08706
 C830 C 0.69793 1.17501 1.06278
 C831 C 0.66830 1.16256 1.05038
 C832 C 0.65524 1.13258 1.06211
 C833 C 0.74969 1.12253 1.13720
 C834 C 0.77506 1.13437 1.14768
 C835 C 0.62841 1.07016 1.08470
 C836 C 0.60405 1.05848 1.07206
 H837 H 0.63951 1.02507 1.12723
 H838 H 0.66942 0.99471 1.16921
 H839 H 0.72241 1.01641 1.19076
 H840 H 0.74568 1.06879 1.17067
 H841 H 0.73763 1.16830 1.09591
 H842 H 0.70799 1.19830 1.05356
 H843 H 0.65532 1.17625 1.03164
 H844 H 0.63211 1.12395 1.05169
 C845 C 0.65893 0.91140 0.90689
 C846 C 0.65976 0.87937 0.89229
 C847 C 0.68951 0.86775 0.87751
 C848 C 0.71823 0.88830 0.87731
 C849 C 0.71719 0.92064 0.89131
 C850 C 0.68752 0.93214 0.90634
 C851 C 0.68725 0.96434 0.92069
 C852 C 0.71541 0.98468 0.91997
 C853 C 0.74429 0.97358 0.90494
 C854 C 0.74534 0.94192 0.89080
 C855 C 0.68980 0.83552 0.86325
 C856 C 0.66148 0.81539 0.86355
 C857 C 0.63239 0.82678 0.87799
 C858 C 0.63139 0.85838 0.89225
 C859 C 0.74897 0.87580 0.86339
 C860 C 0.77438 0.86490 0.85203
 C861 C 0.62893 0.92292 0.92292
 C862 C 0.60458 0.93318 0.93671
 H863 H 0.66529 0.97423 0.93243
 H864 H 0.71469 1.00931 0.93088
 H865 H 0.76601 0.98958 0.90424
 H866 H 0.76840 0.93436 0.87944
 H867 H 0.71181 0.82557 0.85167
 H868 H 0.66213 0.79083 0.85251
 H869 H 0.61046 0.81106 0.87816
 H870 H 0.60819 0.86616 0.90318
   
