data_POSCAR
  _audit_creation_date              2014-09-24
  _audit_creation_method            'ToBaCCo'
  _symmetry_space_group_name_H-M    'P1'
  _symmetry_Int_Tables_number       1
  _symmetry_cell_setting            triclinic
  loop_
  _symmetry_equiv_pos_as_xyz
 x,y,z
_cell_length_a 14.7330
_cell_length_b 14.6860
_cell_length_c 14.7297
_cell_angle_alpha 85.940800
_cell_angle_beta 90.666500
_cell_angle_gamma 86.010500
loop_
  _atom_site_label
  _atom_site_type_symbol
  _atom_site_fract_x
  _atom_site_fract_y
  _atom_site_fract_z
C1 C 0.66839 0.26472 -0.05758
 C2 C 0.73130 0.32863 -0.05532
 C3 C 0.68883 0.40515 -0.01916
 N4 N 0.60052 0.39055 -0.00299
 C5 C 0.58840 0.30418 -0.02492
 C6 C 0.73097 0.48543 0.00241
 C7 C 0.67823 0.56311 0.03011
 C8 C 0.71042 0.62690 0.08543
 C9 C 0.64306 0.69521 0.08960
 C10 C 0.57054 0.67146 0.03762
 N11 N 0.59118 0.58917 0.00364
 C12 C 0.48766 0.72611 0.02447
 C13 C 0.40379 0.68441 0.02766
 C14 C 0.32291 0.72261 0.06045
 C15 C 0.26051 0.65817 0.05653
 C16 C 0.30450 0.58287 0.02022
 N17 N 0.39262 0.59835 0.00469
 C18 C 0.26301 0.50377 -0.00379
 C19 C 0.31477 0.42620 -0.03154
 C20 C 0.28075 0.36034 -0.08297
 C21 C 0.34803 0.29162 -0.08621
 C22 C 0.42172 0.31722 -0.03705
 N23 N 0.40198 0.40072 -0.00582
 C24 C 0.50441 0.26311 -0.02257
 H25 H 0.67962 0.19963 -0.08698
 H26 H 0.79925 0.31907 -0.08113
 H27 H 0.44177 0.43324 0.03924
 H28 H 0.77518 0.62384 0.12111
 H29 H 0.64611 0.75418 0.12937
 H30 H 0.31048 0.78741 0.09019
 H31 H 0.19154 0.66611 0.08044
 H32 H 0.34378 0.23114 -0.12342
 H33 H 0.55195 0.55762 -0.04273
 H34 H 0.21455 0.36178 -0.11587
 C35 C 0.07769 0.63240 0.71383
 C36 C 0.07965 0.70105 0.64605
 C37 C 0.02895 0.67481 0.57345
 N38 N -0.00200 0.59144 0.59400
 C39 C 0.02671 0.56614 0.68020
 C40 C 0.00502 0.72927 0.49229
 C41 C -0.01681 0.68650 0.41213
 C42 C -0.06606 0.72660 0.33696
 C43 C -0.06575 0.66240 0.27312
 C44 C -0.01675 0.58456 0.31098
 N45 N 0.01170 0.59968 0.39596
 C46 C 0.00669 0.50352 0.26719
 C47 C 0.03359 0.42158 0.31957
 C48 C 0.08515 0.34722 0.28967
 C49 C 0.08405 0.27841 0.35756
 C50 C 0.03210 0.31318 0.42669
 N51 N 0.00239 0.40102 0.40389
 C52 C 0.00475 0.26297 0.50575
 C53 C -0.02011 0.30848 0.58424
 C54 C -0.06769 0.27336 0.65802
 C55 C -0.06867 0.33736 0.72229
 C56 C -0.02205 0.40975 0.68573
 N57 N 0.00639 0.39187 0.60156
 C58 C 0.00010 0.48738 0.73052
 H59 H 0.11098 0.63109 0.77984
 H60 H 0.11544 0.76258 0.64987
 H61 H 0.05040 0.43020 0.56212
 H62 H -0.10044 0.79424 0.32881
 H63 H -0.09922 0.67253 0.20723
 H64 H 0.12059 0.34279 0.22604
 H65 H 0.11831 0.21093 0.35619
 H66 H -0.10035 0.33099 0.78801
 H67 H 0.05606 0.55599 0.43745
 H68 H -0.09886 0.20884 0.66537
 C69 C 0.26994 0.06112 0.64836
 C70 C 0.33426 0.06573 0.71524
 C71 C 0.41443 0.02308 0.68538
 N72 N 0.40111 -0.00600 0.60152
 C73 C 0.31232 0.01546 0.57960
 C74 C 0.49811 0.01198 0.73505
 C75 C 0.58254 0.02028 0.68955
 C76 C 0.65822 0.05570 0.72717
 C77 C 0.72321 0.05835 0.66191
 C78 C 0.68693 0.02461 0.58472
 N79 N 0.59999 0.00358 0.60162
 C80 C 0.73279 0.02044 0.50004
 C81 C 0.68314 0.03118 0.41626
 C82 C 0.71282 0.07422 0.33614
 C83 C 0.64604 0.06921 0.27171
 C84 C 0.57753 0.02292 0.31400
 N85 N 0.59952 0.00151 0.40281
 C86 C 0.49932 -0.00521 0.27008
 C87 C 0.42353 -0.03273 0.32044
 C88 C 0.35537 -0.08383 0.28918
 C89 C 0.28954 -0.08538 0.35473
 C90 C 0.31952 -0.03550 0.42427
 N91 N 0.40191 -0.00510 0.40360
 C92 C 0.26868 -0.01148 0.50078
 H93 H 0.20070 0.09069 0.64981
 H94 H 0.32343 0.10101 0.77656
 H95 H 0.43610 0.04150 0.43912
 H96 H 0.66460 0.08460 0.79220
 H97 H 0.78696 0.08941 0.66948
 H98 H 0.77407 0.10984 0.32552
 H99 H 0.64747 0.09862 0.20236
 H100 H 0.22680 -0.11921 0.35113
 H101 H 0.55742 -0.02699 0.55800
 H102 H 0.35276 -0.11647 0.22573
 O103 O 0.42251 0.00199 -0.12547
 O104 O 0.42260 0.00290 0.12482
 O105 O 0.42595 0.12502 -0.01041
 O106 O 0.41710 -0.12532 0.00975
 O107 O 0.56607 -0.14100 0.01001
 O108 O 0.57518 0.10952 -0.00507
 O109 O 0.57193 -0.01849 0.12692
 O110 O 0.57135 -0.01182 -0.12252
 Cu111 Cu 0.40695 0.00161 -0.00050
 Cu112 Cu 0.58598 -0.01770 0.00255
 C113 C 0.49720 0.00109 -0.16784
 C114 C 0.49771 -0.00720 0.16888
 C115 C 0.50202 0.16076 -0.01349
 C116 C 0.49009 -0.17687 0.01566
 O117 O -0.13701 0.56485 0.99605
 O118 O 0.11124 0.57472 0.98282
 O119 O -0.01872 0.56445 0.86667
 O120 O -0.00347 0.57560 1.11506
 O121 O -0.00037 0.42550 1.13054
 O122 O 0.00708 0.41459 0.88188
 O123 O 0.12669 0.42534 1.01174
 O124 O -0.12147 0.41498 1.00424
 Cu125 Cu -0.01444 0.58512 0.98878
 Cu126 Cu 0.00420 0.40491 1.00840
 C127 C -0.17267 0.48826 1.00076
 C128 C 0.16188 0.50148 0.99706
 C129 C -0.00467 0.48837 0.83142
 C130 C 0.00042 0.50186 1.16588
 O131 O 0.00209 -0.12378 0.41931
 O132 O -0.00622 0.12649 0.42850
 O133 O 0.12327 -0.00063 0.42361
 O134 O -0.12793 0.00839 0.42425
 O135 O -0.12433 -0.00008 0.57313
 O136 O 0.12531 -0.02500 0.57280
 O137 O 0.00584 0.11126 0.57796
 O138 O -0.00203 -0.13725 0.56853
 Cu139 Cu -0.00274 0.00328 0.40875
 Cu140 Cu 0.00088 -0.01489 0.58802
 C141 C 0.00143 -0.17406 0.49307
 C142 C 0.00099 0.16187 0.50431
 C143 C 0.16741 -0.01327 0.49866
 C144 C -0.17000 0.01054 0.49903
   
