data_POSCAR
  _audit_creation_date              2014-09-24
  _audit_creation_method            'ToBaCCo'
  _symmetry_space_group_name_H-M    'P1'
  _symmetry_Int_Tables_number       1
  _symmetry_cell_setting            triclinic
  loop_
  _symmetry_equiv_pos_as_xyz
 x,y,z
_cell_length_a 29.2120
_cell_length_b 31.0122
_cell_length_c 6.7160
_cell_angle_alpha 74.980500
_cell_angle_beta 90.008500
_cell_angle_gamma 90.088800
loop_
  _atom_site_label
  _atom_site_type_symbol
  _atom_site_fract_x
  _atom_site_fract_y
  _atom_site_fract_z
O1 O 0.20239 0.30388 0.15639
 O2 O 0.29304 0.23731 0.00266
 O3 O 0.20418 0.23212 0.02236
 O4 O 0.29119 0.30854 0.13714
 O5 O 0.29514 0.26769 0.45862
 O6 O 0.20801 0.19139 0.34371
 O7 O 0.29682 0.19616 0.32371
 O8 O 0.20633 0.26277 0.47749
 Cu9 Cu 0.24721 0.27467 0.04764
 Cu10 Cu 0.25204 0.22529 0.43283
 C11 C 0.18892 0.29496 0.34246
 C12 C 0.31043 0.20515 0.13785
 C13 C 0.19102 0.19858 0.16379
 C14 C 0.30815 0.30121 0.31700
 O15 O 0.70312 0.19704 0.32514
 O16 O 0.79396 0.26370 0.47784
 O17 O 0.70506 0.26852 0.46048
 O18 O 0.79186 0.19238 0.34385
 O19 O 0.79590 0.23338 0.02267
 O20 O 0.70879 0.30930 0.13879
 O21 O 0.79759 0.30502 0.15738
 O22 O 0.70701 0.23810 0.00393
 Cu23 Cu 0.74804 0.22621 0.43381
 Cu24 Cu 0.75279 0.27566 0.04872
 C25 C 0.68957 0.20593 0.13922
 C26 C 0.81138 0.29605 0.34312
 C27 C 0.69194 0.30195 0.31889
 C28 C 0.80885 0.19981 0.16396
 O29 O 0.72412 0.79312 0.47432
 O30 O 0.80552 0.70727 0.74057
 O31 O 0.72367 0.70580 0.58382
 O32 O 0.80573 0.79346 0.63022
 O33 O 0.77736 0.79474 0.93187
 O34 O 0.69469 0.70759 0.88406
 O35 O 0.77610 0.70755 1.04180
 O36 O 0.69510 0.79386 0.77570
 Cu37 Cu 0.76778 0.74981 0.57902
 Cu38 Cu 0.73275 0.75110 0.93645
 C39 C 0.69481 0.80751 0.58066
 C40 C 0.80557 0.69336 0.93552
 C41 C 0.69442 0.69215 0.72658
 C42 C 0.80660 0.80852 0.78890
 O43 O 0.30501 0.79348 0.77575
 O44 O 0.22366 0.70725 1.04171
 O45 O 0.30505 0.70719 0.88380
 O46 O 0.22280 0.79441 0.93206
 O47 O 0.19435 0.79321 0.63039
 O48 O 0.27598 0.70545 0.58362
 O49 O 0.19415 0.70702 0.74054
 O50 O 0.27591 0.79277 0.47441
 Cu51 Cu 0.26721 0.75073 0.93645
 Cu52 Cu 0.23207 0.74951 0.57901
 C53 C 0.30530 0.80714 0.58070
 C54 C 0.19408 0.69311 0.93551
 C55 C 0.30522 0.69177 0.72625
 C56 C 0.19360 0.80824 0.78917
 C57 C 1.04247 0.09152 0.01821
 C58 C 1.00082 0.11254 0.03297
 C59 C 0.95908 0.09168 0.01695
 C60 C 0.95860 0.04853 -0.01696
 C61 C 1.00063 0.02668 -0.03242
 C62 C 1.04276 0.04836 -0.01564
 C63 C 1.08397 0.02664 -0.03581
 C64 C 1.08394 -0.01570 -0.07105
 C65 C 1.04269 -0.03834 -0.08373
 C66 C 1.00052 -0.01682 -0.06545
 C67 C 0.91728 0.02694 -0.03813
 C68 C 0.91711 -0.01541 -0.07312
 C69 C 0.95824 -0.03820 -0.08474
 C70 C 0.95839 -0.08119 -0.12141
 C71 C 1.00031 -0.10184 -0.13846
 C72 C 1.04233 -0.08132 -0.12055
 H73 H 1.11669 0.04248 -0.02684
 H74 H 1.11672 -0.03025 -0.09016
 H75 H 0.88465 0.04292 -0.03018
 H76 H 0.88427 -0.02987 -0.09291
 H77 H 1.00089 0.14539 0.06180
 H78 H 1.00023 -0.13481 -0.16600
 C79 C 0.54167 0.57903 0.64264
 C80 C 0.49971 0.59920 0.66381
 C81 C 0.45779 0.57896 0.64161
 C82 C 0.45756 0.53667 0.59755
 C83 C 0.49979 0.51558 0.57596
 C84 C 0.54198 0.53672 0.59893
 C85 C 0.58320 0.51444 0.58288
 C86 C 0.58319 0.47285 0.53979
 C87 C 0.54195 0.45160 0.51405
 C88 C 0.49984 0.47291 0.53413
 C89 C 0.41637 0.51436 0.57983
 C90 C 0.41648 0.47278 0.53654
 C91 C 0.45777 0.45156 0.51248
 C92 C 0.45822 0.40938 0.46827
 C93 C 0.49993 0.38905 0.44747
 C94 C 0.54160 0.40945 0.46962
 H95 H 0.61598 0.52876 0.60500
 H96 H 0.61588 0.45727 0.52824
 H97 H 0.38355 0.52865 0.60075
 H98 H 0.38381 0.45720 0.52345
 H99 H 0.49969 0.63175 0.69585
 H100 H 0.49997 0.35693 0.41116
 C101 C 0.04130 0.58553 0.31531
 C102 C -0.00037 0.60821 0.27743
 C103 C -0.04212 0.58551 0.31485
 C104 C -0.04257 0.53880 0.39844
 C105 C -0.00051 0.51531 0.43773
 C106 C 0.04162 0.53883 0.39914
 C107 C 0.08286 0.51477 0.43316
 C108 C 0.08273 0.46838 0.49247
 C109 C 0.04138 0.44440 0.51680
 C110 C -0.00056 0.46795 0.49674
 C111 C -0.08387 0.51469 0.43156
 C112 C -0.08384 0.46830 0.49055
 C113 C -0.04253 0.44435 0.51579
 C114 C -0.04222 0.39747 0.54921
 C115 C -0.00063 0.37454 0.57377
 C116 C 0.04100 0.39751 0.55021
 H117 H 0.11569 0.53150 0.40913
 H118 H 0.11540 0.45136 0.51371
 H119 H -0.11666 0.53138 0.40703
 H120 H -0.11655 0.45124 0.51096
 H121 H -0.00032 0.64374 0.20306
 H122 H -0.00065 0.33897 0.58538
 C123 C 0.54175 1.10219 -0.06484
 C124 C 0.50012 1.12509 -0.09269
 C125 C 0.45850 1.10205 -0.06564
 C126 C 0.45820 1.05502 -0.02590
 C127 C 0.50015 1.03145 -0.00192
 C128 C 0.54209 1.05516 -0.02501
 C129 C 0.58341 1.03123 0.00330
 C130 C 0.58351 0.98491 0.07063
 C131 C 0.54225 0.96081 0.10858
 C132 C 0.50015 0.98413 0.06536
 C133 C 0.41688 1.03095 0.00153
 C134 C 0.41678 0.98464 0.06908
 C135 C 0.45804 0.96067 0.10796
 C136 C 0.45840 0.91426 0.20013
 C137 C 0.50012 0.89178 0.24241
 C138 C 0.54185 0.91438 0.20048
 H139 H 0.61611 1.04830 -0.02064
 H140 H 0.61633 0.96835 0.09809
 H141 H 0.38419 1.04791 -0.02324
 H142 H 0.38396 0.96797 0.09582
 H143 H 0.50010 1.16083 -0.10883
 H144 H 0.50010 0.85653 0.32208
 C145 C 1.14056 0.13377 0.28111
 C146 C 1.15710 0.16973 0.12266
 C147 C 1.13781 0.17684 -0.07585
 C148 C 1.10174 0.15012 -0.11206
 C149 C 1.08464 0.11548 0.04824
 C150 C 1.10464 0.10703 0.24403
 H151 H 1.15442 0.12692 0.43579
 H152 H 1.14985 0.20358 -0.20281
 H153 H 1.08638 0.15714 -0.26393
 H154 H 1.09138 0.08064 0.36983
 C155 C 0.65197 0.64627 0.52548
 C156 C 0.65848 0.65934 0.70918
 C157 C 0.62808 0.64307 0.87418
 C158 C 0.59134 0.61560 0.85449
 C159 C 0.58406 0.60364 0.66940
 C160 C 0.61491 0.61883 0.50560
 H161 H 0.67460 0.65836 0.39515
 H162 H 0.63198 0.65258 1.01732
 H163 H 0.56784 0.60448 0.98243
 H164 H 0.60950 0.61034 0.36092
 C165 C -0.13492 0.35817 0.25006
 C166 C -0.15394 0.32198 0.39867
 C167 C -0.13703 0.31220 0.60238
 C168 C -0.10147 0.33744 0.65452
 C169 C -0.08276 0.37316 0.50480
 C170 C -0.09971 0.38337 0.30280
 H171 H -0.14673 0.36683 0.09172
 H172 H -0.15069 0.28470 0.72118
 H173 H -0.08819 0.32886 0.81047
 H174 H -0.08484 0.41035 0.18449
 C175 C 0.37540 0.85165 0.59945
 C176 C 0.34169 0.83823 0.47873
 C177 C 0.34542 0.85195 0.26240
 C178 C 0.38296 0.87754 0.16962
 C179 C 0.41694 0.88976 0.29198
 C180 C 0.41260 0.87716 0.50697
 H181 H 0.37375 0.84134 0.76604
 H182 H 0.32002 0.84207 0.16530
 H183 H 0.38593 0.88735 0.00334
 H184 H 0.43859 0.88647 0.60335
 C185 C -0.12451 0.64890 -0.08375
 C186 C -0.15823 0.66215 0.03726
 C187 C -0.15470 0.64808 0.25361
 C188 C -0.11735 0.62229 0.34621
 C189 C -0.08336 0.61028 0.22351
 C190 C -0.08748 0.62324 0.00852
 H191 H -0.12601 0.65943 -0.25039
 H192 H -0.18013 0.65782 0.35085
 H193 H -0.11452 0.61218 0.51254
 H194 H -0.06146 0.61408 -0.08800
 C195 C 0.36457 1.18822 -0.12215
 C196 C 0.34690 1.17788 0.07981
 C197 C 0.36493 1.14140 0.22849
 C198 C 0.40019 1.11615 0.17741
 C199 C 0.41796 1.12662 -0.02341
 C200 C 0.40011 1.16286 -0.17315
 H201 H 0.35145 1.21622 -0.23969
 H202 H 0.35228 1.13267 0.38547
 H203 H 0.41442 1.08890 0.29611
 H204 H 0.41403 1.17174 -0.32793
 C205 C 1.12746 -0.14599 -0.35388
 C206 C 1.15926 -0.16105 -0.19280
 C207 C 1.15390 -0.14667 -0.01127
 C208 C 1.11670 -0.11967 0.01094
 C209 C 1.08465 -0.10582 -0.14881
 C210 C 1.09079 -0.11878 -0.33205
 H211 H 1.13015 -0.15609 -0.49614
 H212 H 1.17746 -0.15745 0.11649
 H213 H 1.11226 -0.11039 0.15440
 H214 H 1.06642 -0.10862 -0.45707
 C215 C 0.63734 0.36575 0.20026
 C216 C 0.65616 0.33218 0.36207
 C217 C 0.63917 0.32683 0.56322
 C218 C 0.60314 0.35343 0.60017
 C219 C 0.58374 0.38589 0.43703
 C220 C 0.60134 0.39226 0.23748
 H221 H 0.64953 0.37073 0.04364
 H222 H 0.65307 0.30153 0.69132
 H223 H 0.58952 0.34791 0.75479
 H224 H 0.58623 0.41682 0.10963
 C225 C 0.84650 -0.14631 -0.01211
 C226 C 0.84109 -0.16080 -0.19334
 C227 C 0.87296 -0.14586 -0.35442
 C228 C 0.90976 -0.11867 -0.33281
 C229 C 0.91595 -0.10561 -0.14982
 C230 C 0.88382 -0.11933 0.00983
 H231 H 0.82290 -0.15700 0.11564
 H232 H 0.87023 -0.15605 -0.49645
 H233 H 0.93419 -0.10861 -0.45778
 H234 H 0.88830 -0.10996 0.15308
 C235 C 0.36086 0.32627 0.56120
 C236 C 0.34390 0.33159 0.36006
 C237 C 0.36266 0.36529 0.19836
 C238 C 0.39858 0.39198 0.23574
 C239 C 0.41615 0.38565 0.43533
 C240 C 0.39681 0.35305 0.59830
 H241 H 0.34699 0.30088 0.68921
 H242 H 0.35048 0.37025 0.04173
 H243 H 0.41366 0.41666 0.10802
 H244 H 0.41041 0.34754 0.75294
 C245 C 0.15412 0.64807 0.25378
 C246 C 0.15774 0.66198 0.03742
 C247 C 0.12399 0.64866 -0.08343
 C248 C 0.08685 0.62307 0.00897
 C249 C 0.08262 0.61028 0.22394
 C250 C 0.11664 0.62236 0.34650
 H251 H 0.17956 0.65787 0.35091
 H252 H 0.12557 0.65908 -0.25004
 H253 H 0.06082 0.61383 -0.08744
 H254 H 0.11375 0.61236 0.51282
 C255 C 0.63571 1.18860 -0.12119
 C256 C 0.65313 1.17852 0.08118
 C257 C 0.63489 1.14214 0.23018
 C258 C 0.59971 1.11672 0.17899
 C259 C 0.58221 1.12693 -0.02225
 C260 C 0.60025 1.16307 -0.17230
 H261 H 0.64899 1.21651 -0.23904
 H262 H 0.64733 1.13362 0.38747
 H263 H 0.58532 1.08955 0.29790
 H264 H 0.58654 1.17173 -0.32744
 C265 C 0.13406 0.35849 0.25263
 C266 C 0.15259 0.32228 0.40125
 C267 C 0.13557 0.31225 0.60430
 C268 C 0.10002 0.33742 0.65625
 C269 C 0.08158 0.37328 0.50648
 C270 C 0.09885 0.38367 0.30483
 H271 H 0.14628 0.36704 0.09497
 H272 H 0.14924 0.28465 0.72217
 H273 H 0.08654 0.32870 0.81185
 H274 H 0.08421 0.41073 0.18647
 C275 C 0.65484 0.85242 0.26249
 C276 C 0.65848 0.83856 0.47883
 C277 C 0.62470 0.85177 0.59967
 C278 C 0.58752 0.87721 0.50730
 C279 C 0.58328 0.88996 0.29228
 C280 C 0.61733 0.87794 0.16982
 H281 H 0.68029 0.84270 0.16531
 H282 H 0.62627 0.84135 0.76628
 H283 H 0.56147 0.88633 0.60379
 H284 H 0.61442 0.88785 0.00351
 C285 C 0.86312 0.17613 -0.07848
 C286 C 0.84459 0.16952 0.12072
 C287 C 0.86181 0.13456 0.28085
 C288 C 0.89773 0.10790 0.24425
 C289 C 0.91701 0.11562 0.04715
 C290 C 0.89923 0.14953 -0.11460
 H291 H 0.85040 0.20242 -0.20548
 H292 H 0.84837 0.12852 0.43593
 H293 H 0.91153 0.08215 0.37106
 H294 H 0.91407 0.15605 -0.26733
 C295 C 0.37131 0.64257 0.87372
 C296 C 0.34103 0.65897 0.70856
 C297 C 0.34760 0.64607 0.52447
 C298 C 0.38463 0.61871 0.50437
 C299 C 0.41537 0.60340 0.66836
 C300 C 0.40800 0.61516 0.85383
 H301 H 0.36736 0.65193 1.01716
 H302 H 0.32507 0.65827 0.39402
 H303 H 0.39011 0.61038 0.35940
 H304 H 0.43142 0.60396 0.98191
   
