data_POSCAR
  _audit_creation_date              2014-09-24
  _audit_creation_method            'ToBaCCo'
  _symmetry_space_group_name_H-M    'P1'
  _symmetry_Int_Tables_number       1
  _symmetry_cell_setting            triclinic
  loop_
  _symmetry_equiv_pos_as_xyz
 x,y,z
_cell_length_a 40.0509
_cell_length_b 40.0404
_cell_length_c 37.4326
_cell_angle_alpha 89.811600
_cell_angle_beta 89.862100
_cell_angle_gamma 92.540900
loop_
  _atom_site_label
  _atom_site_type_symbol
  _atom_site_fract_x
  _atom_site_fract_y
  _atom_site_fract_z
O1 O -0.03111 0.28262 0.03378
 O2 O 0.03401 0.28105 -0.03592
 O3 O -0.03122 0.28149 -0.03573
 O4 O 0.03419 0.28213 0.03346
 O5 O 0.03113 0.22689 0.03479
 O6 O -0.03415 0.22628 -0.03407
 O7 O 0.03094 0.22586 -0.03475
 O8 O -0.03324 0.22740 0.03554
 Cu9 Cu 0.00173 0.28739 -0.00126
 Cu10 Cu -0.00164 0.22107 0.00037
 C11 C -0.04307 0.25523 0.04666
 C12 C 0.04367 0.25314 -0.04712
 C13 C -0.04389 0.25371 -0.04654
 C14 C 0.04371 0.25458 0.04591
 O15 O 0.46878 0.78280 0.53526
 O16 O 0.53309 0.78198 0.46463
 O17 O 0.46784 0.78228 0.46575
 O18 O 0.53406 0.78252 0.53416
 O19 O 0.53177 0.72729 0.53419
 O20 O 0.46479 0.72707 0.46721
 O21 O 0.52982 0.72675 0.46492
 O22 O 0.46717 0.72759 0.53685
 Cu23 Cu 0.50119 0.78797 0.49986
 Cu24 Cu 0.49806 0.72164 0.50079
 C25 C 0.45723 0.75529 0.54822
 C26 C 0.54242 0.75417 0.45283
 C27 C 0.45492 0.75457 0.45502
 C28 C 0.54428 0.75489 0.54565
 O29 O 1.03193 0.71922 0.03400
 O30 O 0.96614 0.71936 -0.03484
 O31 O 1.03139 0.71935 -0.03563
 O32 O 0.96661 0.71957 0.03446
 O33 O 0.96989 0.77479 0.03473
 O34 O 1.03352 0.77456 -0.03640
 O35 O 0.96888 0.77460 -0.03507
 O36 O 1.03489 0.77441 0.03314
 Cu37 Cu 0.99879 0.71383 -0.00044
 Cu38 Cu 1.00204 0.78012 -0.00085
 C39 C 1.04475 0.74684 0.04519
 C40 C 0.95634 0.74704 -0.04664
 C41 C 1.04339 0.74692 -0.04810
 C42 C 0.95721 0.74725 0.04647
 O43 O 0.53040 0.21834 0.53318
 O44 O 0.46432 0.21886 0.46478
 O45 O 0.52949 0.21870 0.46359
 O46 O 0.46510 0.21881 0.53406
 O47 O 0.46837 0.27404 0.53441
 O48 O 0.53189 0.27394 0.46319
 O49 O 0.46729 0.27410 0.46461
 O50 O 0.53336 0.27357 0.53265
 Cu51 Cu 0.49709 0.21312 0.49895
 Cu52 Cu 0.50047 0.27945 0.49880
 C53 C 0.54323 0.24592 0.54441
 C54 C 0.45464 0.24659 0.45303
 C55 C 0.54153 0.24631 0.45130
 C56 C 0.45576 0.24648 0.54617
 O57 O 0.71609 0.03091 -0.03496
 O58 O 0.71700 -0.03403 0.03505
 O59 O 0.71673 0.03124 0.03460
 O60 O 0.71659 -0.03437 -0.03446
 O61 O 0.77182 -0.03187 -0.03448
 O62 O 0.77193 0.03424 0.03323
 O63 O 0.77219 -0.03080 0.03472
 O64 O 0.77129 0.03265 -0.03645
 Cu65 Cu 0.71103 -0.00181 0.00015
 Cu66 Cu 0.77734 0.00142 -0.00072
 C67 C 0.74358 0.04259 -0.04781
 C68 C 0.74480 -0.04358 0.04672
 C69 C 0.74445 0.04398 0.04551
 C70 C 0.74427 -0.04435 -0.04605
 O71 O 0.21485 0.53118 0.46596
 O72 O 0.21595 0.46625 0.53599
 O73 O 0.21583 0.53154 0.53556
 O74 O 0.21531 0.46583 0.46646
 O75 O 0.27053 0.46815 0.46631
 O76 O 0.27102 0.53453 0.53383
 O77 O 0.27116 0.46949 0.53552
 O78 O 0.27005 0.53278 0.46412
 Cu79 Cu 0.20992 0.49847 0.50109
 Cu80 Cu 0.27621 0.50159 0.49992
 C81 C 0.24230 0.54281 0.45295
 C82 C 0.24378 0.45679 0.54758
 C83 C 0.24362 0.54428 0.54631
 C84 C 0.24293 0.45568 0.45485
 O85 O 0.28363 1.03619 0.03519
 O86 O 0.28480 0.97031 -0.03345
 O87 O 0.28327 1.03540 -0.03419
 O88 O 0.28469 0.97089 0.03628
 O89 O 0.22952 0.96961 0.03867
 O90 O 0.22822 1.02957 -0.03591
 O91 O 0.22975 0.96450 -0.03031
 O92 O 0.22846 1.03408 0.03359
 Cu93 Cu 0.28966 1.00352 0.00093
 Cu94 Cu 0.22345 0.99914 0.00142
 C95 C 0.25579 1.04670 0.04572
 C96 C 0.25746 0.95574 -0.04297
 C97 C 0.25545 1.04328 -0.04728
 C98 C 0.25729 0.95960 0.04975
 O99 O 0.78422 0.47001 0.46489
 O100 O 0.78388 0.53538 0.53401
 O101 O 0.78492 0.47002 0.53459
 O102 O 0.78287 0.53501 0.46474
 O103 O 0.72772 0.52998 0.46433
 O104 O 0.72974 0.46823 0.53718
 O105 O 0.72866 0.53250 0.53415
 O106 O 0.72914 0.46470 0.46816
 Cu107 Cu 0.78955 0.50293 0.49946
 Cu108 Cu 0.72325 0.49859 0.50087
 C109 C 0.75672 0.45585 0.45527
 C110 C 0.75617 0.54516 0.54566
 C111 C 0.75764 0.45834 0.54799
 C112 C 0.75490 0.54340 0.45253
 C113 C 0.24830 0.22546 0.22284
 C114 C 0.22297 0.24910 0.22423
 C115 C 0.22424 0.27396 0.25054
 C116 C 0.24997 0.27610 0.27594
 C117 C 0.27532 0.25248 0.27459
 C118 C 0.27403 0.22759 0.24829
 H119 H 0.29339 0.20949 0.24785
 H120 H 0.20487 0.29205 0.25104
 C121 C 0.75073 0.77599 0.22288
 C122 C 0.77544 0.75168 0.22329
 C123 C 0.77317 0.72574 0.24853
 C124 C 0.74720 0.72336 0.27371
 C125 C 0.72273 0.74790 0.27391
 C126 C 0.72490 0.77369 0.24836
 H127 H 0.70611 0.79237 0.24836
 H128 H 0.79201 0.70707 0.24861
 C129 C 0.77779 0.24884 0.22644
 C130 C 0.75187 0.22358 0.22511
 C131 C 0.72561 0.22460 0.24993
 C132 C 0.72441 0.24986 0.27576
 C133 C 0.75064 0.27491 0.27742
 C134 C 0.77667 0.27408 0.25219
 H135 H 0.79690 0.29298 0.25288
 H136 H 0.70551 0.20556 0.24903
 C137 C 0.22317 0.75130 0.22372
 C138 C 0.24830 0.77736 0.22604
 C139 C 0.27331 0.77575 0.25204
 C140 C 0.27419 0.74901 0.27635
 C141 C 0.24909 0.72295 0.27407
 C142 C 0.22406 0.72454 0.24805
 H143 H 0.20488 0.70459 0.24697
 H144 H 0.29250 0.79570 0.25315
 C145 C 0.72485 0.24988 0.72191
 C146 C 0.75011 0.27581 0.72387
 C147 C 0.77533 0.27418 0.74962
 C148 C 0.77624 0.24754 0.77403
 C149 C 0.75101 0.22159 0.77210
 C150 C 0.72580 0.22318 0.74630
 H151 H 0.70649 0.20333 0.74547
 H152 H 0.79461 0.29406 0.75051
 C153 C 0.27871 0.74798 0.72877
 C154 C 0.25256 0.72295 0.72726
 C155 C 0.22632 0.72409 0.75213
 C156 C 0.22533 0.74926 0.77812
 C157 C 0.25181 0.77405 0.77993
 C158 C 0.27782 0.77309 0.75471
 H159 H 0.29821 0.79182 0.75551
 H160 H 0.20604 0.70526 0.75110
 C161 C 0.25065 0.27467 0.72459
 C162 C 0.27535 0.25036 0.72464
 C163 C 0.27324 0.22429 0.74974
 C164 C 0.24745 0.22179 0.77515
 C165 C 0.22295 0.24634 0.77565
 C166 C 0.22495 0.27222 0.75019
 H167 H 0.20616 0.29091 0.75036
 H168 H 0.29206 0.20562 0.74953
 C169 C 0.74950 0.72463 0.72376
 C170 C 0.72495 0.74910 0.72344
 C171 C 0.72660 0.77448 0.74927
 C172 C 0.75200 0.77641 0.77510
 C173 C 0.77682 0.75221 0.77479
 C174 C 0.77506 0.72667 0.74927
 H175 H 0.79393 0.70804 0.74926
 H176 H 0.70774 0.79309 0.74931
 C177 C 0.25339 0.12226 0.11954
 N178 N 0.28303 0.11091 0.10816
 N179 N 0.28387 0.08639 0.08421
 C180 C 0.25509 0.07230 0.07075
 N181 N 0.22548 0.08371 0.08217
 N182 N 0.22465 0.10820 0.10610
 C183 C 0.25222 0.14919 0.14602
 N184 N 0.22242 0.16005 0.15737
 N185 N 0.22116 0.18433 0.18148
 C186 C 0.24954 0.19892 0.19514
 N187 N 0.27939 0.18781 0.18389
 N188 N 0.28073 0.16349 0.15976
 C189 C 0.75461 0.62020 0.62288
 N190 N 0.78324 0.61438 0.60488
 N191 N 0.78385 0.59030 0.58042
 C192 C 0.75577 0.57143 0.57285
 N193 N 0.72715 0.57733 0.59077
 N194 N 0.72661 0.60119 0.61544
 C195 C 0.75366 0.64692 0.64954
 N196 N 0.72726 0.64857 0.67216
 N197 N 0.72593 0.67323 0.69583
 C198 C 0.75057 0.69755 0.69723
 N199 N 0.77738 0.69547 0.67520
 N200 N 0.77887 0.67063 0.65172
 C201 C 0.74677 0.88163 0.12187
 N202 N 0.71719 0.89219 0.10946
 N203 N 0.71650 0.91666 0.08528
 C204 C 0.74536 0.93145 0.07261
 N205 N 0.77491 0.92092 0.08516
 N206 N 0.77559 0.89650 0.10935
 C207 C 0.74772 0.85434 0.14809
 N208 N 0.77737 0.84445 0.16087
 N209 N 0.77839 0.81953 0.18441
 C210 C 0.74992 0.80328 0.19592
 N211 N 0.72020 0.81348 0.18335
 N212 N 0.71911 0.83845 0.15982
 C213 C 0.24608 0.38068 0.62414
 N214 N 0.21649 0.39043 0.61093
 N215 N 0.21568 0.41492 0.58678
 C216 C 0.24445 0.43050 0.57496
 N217 N 0.27401 0.42079 0.58823
 N218 N 0.27480 0.39637 0.61241
 C219 C 0.24717 0.35335 0.65030
 N220 N 0.27678 0.34447 0.66413
 N221 N 0.27795 0.31945 0.68755
 C222 C 0.24969 0.30207 0.69783
 N223 N 0.22000 0.31128 0.68428
 N224 N 0.21876 0.33636 0.66089
 C225 C 0.88356 0.25524 0.12618
 N226 N 0.90104 0.22757 0.12000
 N227 N 0.92443 0.22765 0.09466
 C228 C 0.93141 0.25550 0.07479
 N229 N 0.91414 0.28331 0.08114
 N230 N 0.89048 0.28312 0.10626
 C231 C 0.85695 0.25452 0.15321
 N232 N 0.83349 0.27797 0.15320
 N233 N 0.80833 0.27616 0.17659
 C234 C 0.80573 0.25081 0.20073
 N235 N 0.82984 0.22806 0.20156
 N236 N 0.85480 0.22967 0.17797
 C237 C 0.38431 0.75469 0.62826
 N238 N 0.40182 0.72709 0.62182
 N239 N 0.42511 0.72735 0.59636
 C240 C 0.43196 0.75533 0.57662
 N241 N 0.41465 0.78306 0.58326
 N242 N 0.39110 0.78268 0.60849
 C243 C 0.35773 0.75380 0.65534
 N244 N 0.33435 0.77734 0.65559
 N245 N 0.30923 0.77547 0.67902
 C246 C 0.30659 0.74996 0.70298
 N247 N 0.33061 0.72710 0.70356
 N248 N 0.35553 0.72878 0.67991
 C249 C 0.11945 0.74782 0.12030
 N250 N 0.10814 0.77681 0.10706
 N251 N 0.08388 0.77644 0.08278
 C252 C 0.06994 0.74704 0.07079
 N253 N 0.08123 0.71800 0.08408
 N254 N 0.10553 0.71838 0.10839
 C255 C 0.14633 0.74852 0.14699
 N256 N 0.15804 0.71980 0.16049
 N257 N 0.18248 0.72077 0.18465
 C258 C 0.19630 0.75045 0.19618
 N259 N 0.18427 0.77903 0.18274
 N260 N 0.15989 0.77814 0.15861
 C261 C 0.61996 0.24666 0.62000
 N262 N 0.60833 0.27570 0.60724
 N263 N 0.58380 0.27539 0.58327
 C264 C 0.56997 0.24602 0.57117
 N265 N 0.58156 0.21694 0.58394
 N266 N 0.60612 0.21725 0.60794
 C267 C 0.64715 0.24730 0.64629
 N268 N 0.65928 0.21854 0.65920
 N269 N 0.68402 0.21944 0.68300
 C270 C 0.69772 0.24910 0.69472
 N271 N 0.68526 0.27771 0.68191
 N272 N 0.66059 0.27689 0.65813
 C273 C 0.74400 0.11556 0.87214
 N274 N 0.77161 0.09805 0.87856
 N275 N 0.77141 0.07477 0.90406
 C276 C 0.74350 0.06795 0.92386
 N277 N 0.71576 0.08526 0.91727
 N278 N 0.71607 0.10880 0.89199
 C279 C 0.74484 0.14214 0.84505
 N280 N 0.72144 0.16566 0.84496
 N281 N 0.72337 0.19086 0.82160
 C282 C 0.74879 0.19344 0.79756
 N283 N 0.77148 0.16927 0.79681
 N284 N 0.76975 0.14427 0.82039
 C285 C 0.24241 0.61618 0.37328
 N286 N 0.27003 0.59858 0.37941
 N287 N 0.26993 0.57517 0.40477
 C288 C 0.24210 0.56827 0.42470
 N289 N 0.21436 0.58565 0.41837
 N290 N 0.21457 0.60933 0.39324
 C291 C 0.24315 0.64295 0.34637
 N292 N 0.21976 0.66648 0.34659
 N293 N 0.22160 0.69184 0.32343
 C294 C 0.24691 0.69458 0.29927
 N295 N 0.26960 0.67042 0.29821
 N296 N 0.26796 0.64525 0.32160
 C297 C 0.25796 0.87714 0.88386
 N298 N 0.28349 0.90062 0.88448
 N299 N 0.28353 0.92555 0.90801
 C300 C 0.25776 0.92819 0.93132
 N301 N 0.23216 0.90483 0.93054
 N302 N 0.23236 0.87964 0.90739
 C303 C 0.25751 0.84992 0.85768
 N304 N 0.23933 0.82110 0.86395
 N305 N 0.23793 0.79685 0.83966
 C306 C 0.25392 0.80068 0.80777
 N307 N 0.27262 0.82938 0.80191
 N308 N 0.27447 0.85348 0.82639
 C309 C 0.75653 0.37794 0.38133
 N310 N 0.78233 0.40109 0.38228
 N311 N 0.78255 0.42585 0.40601
 C312 C 0.75670 0.42863 0.42919
 N313 N 0.73083 0.40561 0.42807
 N314 N 0.73084 0.38059 0.40471
 C315 C 0.75599 0.35082 0.35508
 N316 N 0.73738 0.32223 0.36108
 N317 N 0.73604 0.29798 0.33679
 C318 C 0.75255 0.30160 0.30518
 N319 N 0.77164 0.33010 0.29959
 N320 N 0.77341 0.35419 0.32407
 C321 C 0.11817 0.25067 0.87749
 N322 N 0.10321 0.22191 0.89012
 N323 N 0.07895 0.22274 0.91446
 C324 C 0.06865 0.25238 0.92701
 N325 N 0.08353 0.28116 0.91424
 N326 N 0.10788 0.28032 0.88997
 C327 C 0.14524 0.24959 0.85105
 N328 N 0.16209 0.27804 0.84030
 N329 N 0.18689 0.27684 0.81660
 C330 C 0.19593 0.24717 0.80285
 N331 N 0.17865 0.21890 0.81326
 N332 N 0.15393 0.22001 0.83703
 C333 C 0.61770 0.75208 0.37543
 N334 N 0.60212 0.72332 0.38723
 N335 N 0.57796 0.72405 0.41168
 C336 C 0.56842 0.75358 0.42518
 N337 N 0.58390 0.78238 0.41329
 N338 N 0.60812 0.78164 0.38886
 C339 C 0.64476 0.75107 0.34896
 N340 N 0.66165 0.77953 0.33833
 N341 N 0.68650 0.77838 0.31468
 C342 C 0.69556 0.74873 0.30091
 N343 N 0.67827 0.72043 0.31123
 N344 N 0.65349 0.72150 0.33491
 C345 C 0.88136 0.74812 0.87589
 N346 N 0.88751 0.71949 0.89379
 N347 N 0.91158 0.71904 0.91830
 C348 C 0.93014 0.74729 0.92602
 N349 N 0.92393 0.77592 0.90820
 N350 N 0.90007 0.77630 0.88348
 C351 C 0.85460 0.74885 0.84918
 N352 N 0.85247 0.77542 0.82682
 N353 N 0.82779 0.77650 0.80311
 C354 C 0.80393 0.75142 0.80140
 N355 N 0.80651 0.72447 0.82318
 N356 N 0.83136 0.72324 0.84671
 C357 C 0.37986 0.24796 0.37544
 N358 N 0.38563 0.21939 0.39361
 N359 N 0.40964 0.21886 0.41818
 C360 C 0.42849 0.24697 0.42570
 N361 N 0.42265 0.27554 0.40760
 N362 N 0.39886 0.27600 0.38282
 C363 C 0.35316 0.24877 0.34872
 N364 N 0.35151 0.27503 0.32586
 N365 N 0.32684 0.27620 0.30216
 C366 C 0.30251 0.25153 0.30099
 N367 N 0.30458 0.22490 0.32328
 N368 N 0.32943 0.22356 0.34677
 C369 C 0.74641 0.88002 0.87745
 N370 N 0.77513 0.89531 0.88940
 N371 N 0.77432 0.91945 0.91370
 C372 C 0.74475 0.92925 0.92692
 N373 N 0.71596 0.91403 0.91494
 N374 N 0.71678 0.88980 0.89063
 C375 C 0.74766 0.85323 0.85088
 N376 N 0.71932 0.83667 0.83964
 N377 N 0.72082 0.81217 0.81574
 C378 C 0.75069 0.80317 0.80233
 N379 N 0.77884 0.82013 0.81329
 N380 N 0.77743 0.84456 0.83720
 C381 C 0.24474 0.37945 0.37889
 N382 N 0.27354 0.39427 0.39126
 N383 N 0.27283 0.41860 0.41536
 C384 C 0.24329 0.42908 0.42798
 N385 N 0.21442 0.41431 0.41561
 N386 N 0.21513 0.38992 0.39147
 C387 C 0.24588 0.35255 0.35239
 N388 N 0.21742 0.33700 0.34005
 N389 N 0.21881 0.31259 0.31603
 C390 C 0.24870 0.30264 0.30355
 N391 N 0.27701 0.31852 0.31574
 N392 N 0.27569 0.34287 0.33975
 C393 C 0.25302 0.11597 0.87525
 N394 N 0.28233 0.10852 0.89088
 N395 N 0.28320 0.08459 0.91565
 C396 C 0.25473 0.06747 0.92598
 N397 N 0.22543 0.07495 0.91029
 N398 N 0.22462 0.09865 0.88527
 C399 C 0.25186 0.14293 0.84866
 N400 N 0.22443 0.14605 0.82791
 N401 N 0.22298 0.17106 0.80448
 C402 C 0.24853 0.19433 0.80154
 N403 N 0.27630 0.19072 0.82168
 N404 N 0.27792 0.16553 0.84487
 C405 C 0.75223 0.61808 0.37444
 N406 N 0.78100 0.61239 0.39209
 N407 N 0.78192 0.58832 0.41668
 C408 C 0.75403 0.56924 0.42471
 N409 N 0.72524 0.57494 0.40709
 N410 N 0.72439 0.59884 0.38230
 C411 C 0.75107 0.64505 0.34787
 N412 N 0.72428 0.64737 0.32601
 N413 N 0.72298 0.67225 0.30240
 C414 C 0.74805 0.69612 0.30031
 N415 N 0.77518 0.69337 0.32162
 N416 N 0.77663 0.66834 0.34503
 C417 C 0.11603 0.74715 0.87428
 N418 N 0.10388 0.71794 0.88877
 N419 N 0.08007 0.71781 0.91370
 C420 C 0.06772 0.74693 0.92528
 N421 N 0.07986 0.77614 0.91070
 N422 N 0.10352 0.77624 0.88562
 C423 C 0.14321 0.74739 0.84787
 N424 N 0.15293 0.77603 0.83048
 N425 N 0.17868 0.77659 0.80785
 C426 C 0.19601 0.74867 0.80223
 N427 N 0.18572 0.71985 0.81893
 N428 N 0.15984 0.71923 0.84137
 C429 C 0.61535 0.24681 0.37217
 N430 N 0.60475 0.21775 0.38819
 N431 N 0.58096 0.21752 0.41315
 C432 C 0.56708 0.24637 0.42315
 N433 N 0.57763 0.27541 0.40708
 N434 N 0.60129 0.27562 0.38199
 C435 C 0.64251 0.24725 0.34574
 N436 N 0.65130 0.27569 0.32752
 N437 N 0.67702 0.27648 0.30483
 C438 C 0.69518 0.24900 0.29996
 N439 N 0.68584 0.22035 0.31751
 N440 N 0.66002 0.21951 0.34003
 C441 C 0.88025 0.25181 0.87688
 N442 N 0.89201 0.22295 0.88997
 N443 N 0.91625 0.22361 0.91427
 C444 C 0.92968 0.25316 0.92635
 N445 N 0.91798 0.28205 0.91324
 N446 N 0.89369 0.28139 0.88893
 C447 C 0.85334 0.25085 0.85028
 N448 N 0.84080 0.27946 0.83752
 N449 N 0.81626 0.27831 0.81350
 C450 C 0.80319 0.24853 0.80140
 N451 N 0.81608 0.22007 0.81404
 N452 N 0.84056 0.22113 0.83805
 C453 C 0.37824 0.75300 0.37932
 N454 N 0.38984 0.72409 0.39247
 N455 N 0.41430 0.72465 0.41652
 C456 C 0.42812 0.75415 0.42830
 N457 N 0.41656 0.78309 0.41515
 N458 N 0.39205 0.78253 0.39108
 C459 C 0.35120 0.75212 0.35283
 N460 N 0.33909 0.78078 0.33965
 N461 N 0.31456 0.77970 0.31561
 C462 C 0.30106 0.74995 0.30388
 N463 N 0.31349 0.72144 0.31699
 N464 N 0.33796 0.72244 0.34102
 C465 C 0.25645 0.88571 0.12886
 N466 N 0.22908 0.90373 0.12296
 N467 N 0.22952 0.92748 0.09796
 C468 C 0.25745 0.93431 0.07817
 N469 N 0.28497 0.91655 0.08431
 N470 N 0.28443 0.89255 0.10910
 C471 C 0.25522 0.85841 0.15514
 N472 N 0.27851 0.83479 0.15476
 N473 N 0.27624 0.80899 0.17735
 C474 C 0.25056 0.80586 0.20102
 N475 N 0.22794 0.83008 0.20224
 N476 N 0.23001 0.85570 0.17943
 C477 C 0.75752 0.38410 0.62664
 N478 N 0.73006 0.40204 0.62102
 N479 N 0.73027 0.42586 0.59611
 C480 C 0.75805 0.43284 0.57615
 N481 N 0.78568 0.41514 0.58200
 N482 N 0.78535 0.39106 0.60669
 C483 C 0.75652 0.35680 0.65291
 N484 N 0.77978 0.33316 0.65229
 N485 N 0.77769 0.30737 0.67490
 C486 C 0.75219 0.30427 0.69881
 N487 N 0.72962 0.32852 0.70026
 N488 N 0.73152 0.35412 0.67744
 C489 C 0.74649 0.11970 0.12220
 N490 N 0.77529 0.10788 0.10910
 N491 N 0.77454 0.08371 0.08474
 C492 C 0.74497 0.07043 0.07258
 N493 N 0.71612 0.08219 0.08569
 N494 N 0.71687 0.10642 0.11007
 C495 C 0.74764 0.14651 0.14890
 N496 N 0.71917 0.15925 0.16176
 N497 N 0.72059 0.18376 0.18581
 C498 C 0.75050 0.19659 0.19782
 N499 N 0.77880 0.18347 0.18512
 N500 N 0.77747 0.15904 0.16109
 C501 C 0.24624 0.61975 0.62340
 N502 N 0.27493 0.60808 0.60985
 N503 N 0.27400 0.58403 0.58534
 C504 C 0.24434 0.57070 0.57346
 N505 N 0.21559 0.58233 0.58701
 N506 N 0.21653 0.60643 0.61154
 C507 C 0.24762 0.64640 0.65033
 N508 N 0.21927 0.65887 0.66381
 N509 N 0.22091 0.68319 0.68809
 C510 C 0.25092 0.69610 0.69974
 N511 N 0.27911 0.68326 0.68639
 N512 N 0.27756 0.65901 0.66213
 C513 C 0.88182 0.74816 0.12385
 N514 N 0.88790 0.71968 0.10585
 N515 N 0.91221 0.71929 0.08150
 C516 C 0.93111 0.74745 0.07404
 N517 N 0.92500 0.77594 0.09201
 N518 N 0.90089 0.77626 0.11658
 C519 C 0.85460 0.74881 0.15015
 N520 N 0.85232 0.77503 0.17279
 N521 N 0.82718 0.77598 0.19609
 C522 C 0.80300 0.75115 0.19707
 N523 N 0.80572 0.72455 0.17501
 N524 N 0.83101 0.72343 0.15191
 C525 C 0.38085 0.24723 0.62409
 N526 N 0.38705 0.21869 0.60624
 N527 N 0.41119 0.21836 0.58169
 C528 C 0.42980 0.24663 0.57389
 N529 N 0.42357 0.27517 0.59171
 N530 N 0.39962 0.27543 0.61647
 C531 C 0.35385 0.24779 0.65065
 N532 N 0.35134 0.27428 0.67288
 N533 N 0.32642 0.27514 0.69644
 C534 C 0.30267 0.24993 0.69811
 N535 N 0.30562 0.22308 0.67644
 N536 N 0.33070 0.22206 0.65308
 C537 C 0.11817 0.25380 0.12382
 N538 N 0.11278 0.28215 0.10507
 N539 N 0.08882 0.28255 0.08045
 C540 C 0.06964 0.25453 0.07347
 N541 N 0.07509 0.22620 0.09217
 N542 N 0.09882 0.22588 0.11701
 C543 C 0.14491 0.25302 0.15047
 N544 N 0.14620 0.22710 0.17382
 N545 N 0.17097 0.22585 0.19739
 C546 C 0.19573 0.25010 0.19794
 N547 N 0.19404 0.27642 0.17517
 N548 N 0.16910 0.27783 0.15179
 C549 C 0.62071 0.75337 0.62143
 N550 N 0.61032 0.78290 0.60855
 N551 N 0.58587 0.78350 0.58447
 C552 C 0.57098 0.75456 0.57241
 N553 N 0.58139 0.72508 0.58531
 N554 N 0.60577 0.72449 0.60938
 C555 C 0.64773 0.75242 0.64783
 N556 N 0.65723 0.72274 0.66105
 N557 N 0.68179 0.72165 0.68486
 C558 C 0.69806 0.75006 0.69622
 N559 N 0.68824 0.77982 0.68324
 N560 N 0.66362 0.78099 0.65943
   
