data_POSCAR
  _audit_creation_date              2014-09-24
  _audit_creation_method            'ToBaCCo'
  _symmetry_space_group_name_H-M    'P1'
  _symmetry_Int_Tables_number       1
  _symmetry_cell_setting            triclinic
  loop_
  _symmetry_equiv_pos_as_xyz
 x,y,z
_cell_length_a 37.5170
_cell_length_b 34.9643
_cell_length_c 44.6206
_cell_angle_alpha 90.357000
_cell_angle_beta 89.939600
_cell_angle_gamma 113.405700
loop_
  _atom_site_label
  _atom_site_type_symbol
  _atom_site_fract_x
  _atom_site_fract_y
  _atom_site_fract_z
O1 O 0.03092 0.61212 1.27585
 O2 O -0.04487 0.56934 1.21859
 O3 O -0.04364 0.56818 1.27722
 O4 O 0.02983 0.61167 1.21767
 O5 O 0.03922 0.55329 1.21737
 O6 O -0.03479 0.50952 1.27578
 O7 O -0.03584 0.51086 1.21707
 O8 O 0.03993 0.55351 1.27592
 Cu9 Cu -0.00803 0.59602 1.24745
 Cu10 Cu 0.00302 0.52594 1.24643
 C11 C 0.04845 0.59034 1.28579
 C12 C -0.05321 0.53319 1.20759
 C13 C -0.05162 0.53150 1.28681
 C14 C 0.04722 0.58973 1.20741
 O15 O 0.40498 0.43080 1.29257
 O16 O 0.45285 0.39475 1.23299
 O17 O 0.45047 0.39060 1.29156
 O18 O 0.40517 0.43195 1.23445
 O19 O 0.45590 0.49210 1.23534
 O20 O 0.50131 0.45057 1.29310
 O21 O 0.50357 0.45483 1.23460
 O22 O 0.45565 0.49083 1.29395
 Cu23 Cu 0.42344 0.40597 1.26278
 Cu24 Cu 0.48416 0.47809 1.26451
 C25 C 0.42214 0.46730 1.30343
 C26 C 0.48615 0.41871 1.22334
 C27 C 0.48350 0.41340 1.30225
 C28 C 0.42268 0.46890 1.22497
 O29 O 0.52034 0.95789 1.27028
 O30 O 0.54772 1.04204 1.21447
 O31 O 0.54937 1.03828 1.27260
 O32 O 0.52268 0.96104 1.21216
 O33 O 0.46312 0.95889 1.21221
 O34 O 0.49016 1.03699 1.27335
 O35 O 0.48812 1.03977 1.21537
 O36 O 0.46110 0.95650 1.27051
 Cu37 Cu 0.54104 1.00010 1.24218
 Cu38 Cu 0.46960 0.99770 1.24281
 C39 C 0.48578 0.94318 1.28031
 C40 C 0.52260 1.05544 1.20555
 C41 C 0.52463 1.05071 1.28367
 C42 C 0.48836 0.94650 1.20188
 O43 O 0.96591 0.54796 0.71985
 O44 O 1.03974 0.58628 0.77862
 O45 O 1.04124 0.57411 0.72096
 O46 O 0.96438 0.55576 0.77777
 O47 O 0.96139 0.49189 0.78307
 O48 O 1.03894 0.51088 0.72817
 O49 O 1.03686 0.52271 0.78553
 O50 O 0.96394 0.48443 0.72508
 Cu51 Cu 1.00320 0.57244 0.74861
 Cu52 Cu 0.99991 0.49609 0.75616
 C53 C 0.95244 0.50984 0.71220
 C54 C 1.05076 0.56125 0.79235
 C55 C 1.05328 0.54562 0.71483
 C56 C 0.94968 0.52018 0.79010
 O57 O 0.46644 0.40964 0.71339
 O58 O 0.43412 0.46732 0.76976
 O59 O 0.42483 0.45412 0.71189
 O60 O 0.46845 0.41592 0.77135
 O61 O 0.52311 0.47184 0.76778
 O62 O 0.47954 0.50941 0.70609
 O63 O 0.48852 0.52279 0.76309
 O64 O 0.52139 0.46499 0.70936
 Cu65 Cu 0.44293 0.43133 0.74206
 Cu66 Cu 0.50867 0.49761 0.73594
 C67 C 0.50003 0.42786 0.70192
 C68 C 0.45601 0.50505 0.77588
 C69 C 0.44439 0.48800 0.69871
 C70 C 0.50288 0.43711 0.78001
 O71 O 0.57108 0.02819 0.72298
 O72 O 0.53787 -0.05368 0.78141
 O73 O 0.53338 -0.05194 0.72310
 O74 O 0.58128 0.02615 0.78083
 O75 O 0.52775 0.03687 0.78747
 O76 O 0.47959 -0.04125 0.72748
 O77 O 0.48368 -0.04378 0.78633
 O78 O 0.51748 0.03882 0.72961
 Cu79 Cu 0.56115 -0.01388 0.75166
 Cu80 Cu 0.49678 -0.00138 0.75854
 C81 C 0.54946 0.04717 0.71609
 C82 C 0.50482 -0.06295 0.79366
 C83 C 0.49893 -0.05952 0.71465
 C84 C 0.56312 0.04511 0.79407
 O85 O 0.37750 0.64408 0.96645
 O86 O 0.37525 0.71778 0.96930
 C87 C 0.34938 0.72357 0.95389
 O88 O 0.31353 0.70671 0.96039
 O89 O 0.25149 0.64096 0.97417
 C90 C 0.24854 0.60664 0.96222
 O91 O 0.26844 0.58662 0.97070
 O92 O 0.33509 0.58344 0.98349
 C93 C 0.36122 0.60461 0.96518
 O94 O 0.38336 0.64316 1.02715
 O95 O 0.37695 0.71497 1.02959
 C96 C 0.35589 0.73542 1.03363
 O97 O 0.32500 0.72855 1.01879
 O98 O 0.26423 0.66223 1.03300
 C99 C 0.24941 0.62474 1.04175
 O100 O 0.25652 0.59607 1.02900
 O101 O 0.32494 0.59774 1.04130
 C102 C 0.36129 0.61607 1.04530
 Cr103 Cr 0.37624 0.67896 0.99819
 Cr104 Cr 0.28971 0.68339 0.99669
 Cr105 Cr 0.29716 0.59324 1.00589
 O106 O 0.32103 0.65204 1.00024
 O107 O 0.62532 0.35310 0.97157
 O108 O 0.62489 0.27920 0.97820
 C109 C 0.64715 0.27090 0.96030
 O110 O 0.68379 0.28591 0.96363
 O111 O 0.74961 0.34971 0.97178
 C112 C 0.75367 0.38292 0.95816
 O113 O 0.73719 0.40659 0.96660
 O114 O 0.67308 0.41531 0.98019
 C115 C 0.64325 0.39149 0.96567
 O116 O 0.62798 0.36374 1.03143
 O117 O 0.63217 0.29168 1.03782
 C118 C 0.65174 0.26953 1.04084
 O119 O 0.67917 0.27186 1.02328
 O120 O 0.74340 0.33747 1.03141
 C121 C 0.76008 0.37572 1.03865
 O122 O 0.75314 0.40428 1.02559
 O123 O 0.68809 0.41039 1.03931
 C124 C 0.65262 0.39294 1.04674
 Cr125 Cr 0.62970 0.32293 1.00465
 Cr126 Cr 0.71296 0.31261 0.99768
 Cr127 Cr 0.71184 0.40688 1.00287
 O128 O 0.68492 0.34753 1.00173
 O129 O 0.68849 0.38308 0.52474
 O130 O 0.75555 0.37874 0.53110
 C131 C 0.77594 0.35791 0.53585
 O132 O 0.77302 0.32630 0.52017
 O133 O 0.71177 0.25845 0.53001
 C134 C 0.67651 0.24127 0.53800
 O135 O 0.64943 0.24837 0.52519
 O136 O 0.64442 0.31959 0.53460
 C137 C 0.66054 0.35825 0.54018
 O138 O 0.69605 0.38069 0.46495
 O139 O 0.76497 0.38074 0.47112
 C140 C 0.77217 0.35461 0.45502
 O141 O 0.75815 0.31594 0.46058
 O142 O 0.69876 0.24662 0.47061
 C143 C 0.66705 0.24122 0.45753
 O144 O 0.64575 0.25995 0.46539
 O145 O 0.63837 0.32996 0.47491
 C146 C 0.65997 0.36174 0.46002
 Cr147 Cr 0.72537 0.37844 0.49798
 Cr148 Cr 0.73415 0.28806 0.49544
 Cr149 Cr 0.64668 0.29054 0.49993
 O150 O 0.70200 0.31894 0.49780
 O151 O 0.33070 0.62564 0.53073
 O152 O 0.26391 0.63211 0.53799
 C153 C 0.24418 0.65419 0.54088
 O154 O 0.24603 0.68215 0.52225
 O155 O 0.30841 0.74941 0.53077
 C156 C 0.34434 0.76669 0.53696
 O157 O 0.37005 0.76020 0.52167
 O158 O 0.37462 0.69063 0.53660
 C159 C 0.35972 0.65274 0.54427
 O160 O 0.31889 0.61964 0.47080
 O161 O 0.25070 0.62264 0.47795
 C162 C 0.24386 0.64728 0.46012
 O163 O 0.25958 0.68667 0.46309
 O164 O 0.31988 0.75681 0.47083
 C165 C 0.34909 0.75813 0.45580
 O166 O 0.36951 0.73839 0.46333
 O167 O 0.37716 0.67060 0.47854
 C168 C 0.35484 0.63787 0.46483
 Cr169 Cr 0.29184 0.62711 0.50425
 Cr170 Cr 0.28466 0.71768 0.49683
 Cr171 Cr 0.37079 0.71397 0.50004
 O172 O 0.31579 0.68614 0.50030
 C173 C 0.42329 0.52182 0.33856
 C174 C 0.40551 0.53651 0.36093
 C175 C 0.36777 0.51115 0.37094
 C176 C 0.34857 0.47129 0.35844
 C177 C 0.36653 0.45670 0.33626
 C178 C 0.40410 0.48177 0.32592
 C179 C 0.34994 0.52603 0.39327
 C180 C 0.36958 0.56591 0.40585
 C181 C 0.40748 0.59098 0.39585
 C182 C 0.42508 0.57624 0.37346
 C183 C 0.42735 0.63053 0.40844
 C184 C 0.41005 0.64527 0.43080
 C185 C 0.37233 0.62093 0.44105
 C186 C 0.35212 0.58115 0.42831
 H187 H 0.45224 0.54175 0.33111
 H188 H 0.31965 0.45133 0.36584
 H189 H 0.35078 0.42574 0.32714
 H190 H 0.32094 0.50660 0.40090
 H191 H 0.45411 0.59567 0.36584
 H192 H 0.45638 0.65013 0.40102
 H193 H 0.42630 0.67610 0.43994
 H194 H 0.32308 0.56200 0.43599
 C195 C 0.43712 0.89913 0.31511
 C196 C 0.42646 0.87174 0.33931
 C197 C 0.45324 0.85664 0.35120
 C198 C 0.49026 0.86911 0.33839
 C199 C 0.50101 0.89719 0.31454
 C200 C 0.47471 0.91292 0.30285
 C201 C 0.44277 0.83006 0.37603
 C202 C 0.40617 0.81923 0.38938
 C203 C 0.37952 0.83448 0.37735
 C204 C 0.38967 0.86023 0.35222
 C205 C 0.34327 0.82428 0.39092
 C206 C 0.33356 0.79955 0.41646
 C207 C 0.35978 0.78425 0.42873
 C208 C 0.39598 0.79392 0.41487
 H209 H 0.41625 0.91068 0.30651
 H210 H 0.51116 0.85780 0.34718
 H211 H 0.53011 0.90695 0.30558
 H212 H 0.46330 0.81851 0.38529
 H213 H 0.36923 0.87202 0.34309
 H214 H 0.32255 0.83571 0.38194
 H215 H 0.30535 0.79223 0.42653
 H216 H 0.41646 0.78235 0.42416
 C217 C 0.09318 0.58336 0.32551
 C218 C 0.12098 0.60088 0.34829
 C219 C 0.13500 0.64414 0.35440
 C220 C 0.12105 0.66910 0.33773
 C221 C 0.09316 0.65143 0.31544
 C222 C 0.07883 0.60847 0.30908
 C223 C 0.16247 0.66178 0.37722
 C224 C 0.17586 0.63669 0.39437
 C225 C 0.16180 0.59342 0.38840
 C226 C 0.13463 0.57582 0.36530
 C227 C 0.17497 0.56841 0.40580
 C228 C 0.20157 0.58597 0.42901
 C229 C 0.21580 0.62899 0.43524
 C230 C 0.20286 0.65419 0.41760
 H231 H 0.08226 0.55017 0.32095
 H232 H 0.13147 0.70229 0.34210
 H233 H 0.08281 0.67158 0.30310
 H234 H 0.17313 0.69497 0.38183
 H235 H 0.12387 0.54261 0.36077
 H236 H 0.16455 0.53519 0.40156
 H237 H 0.21109 0.56576 0.44207
 H238 H 0.21344 0.68737 0.42211
 C239 C 0.53920 0.41935 0.33583
 C240 C 0.55560 0.40334 0.35824
 C241 C 0.53356 0.36397 0.37088
 C242 C 0.49563 0.34116 0.36068
 C243 C 0.47960 0.35718 0.33827
 C244 C 0.50108 0.39645 0.32568
 C245 C 0.54972 0.34806 0.39349
 C246 C 0.58778 0.37092 0.40355
 C247 C 0.60993 0.41010 0.39067
 C248 C 0.59369 0.42609 0.36820
 C249 C 0.64805 0.43270 0.40049
 C250 C 0.66414 0.41679 0.42288
 C251 C 0.64241 0.37802 0.43611
 C252 C 0.60410 0.35522 0.42625
 H253 H 0.55616 0.44959 0.32627
 H254 H 0.47832 0.31091 0.37005
 H255 H 0.45017 0.33885 0.33095
 H256 H 0.53271 0.31793 0.40322
 H257 H 0.61071 0.45622 0.35846
 H258 H 0.66546 0.46272 0.39084
 H259 H 0.69368 0.43512 0.42998
 H260 H 0.58705 0.32519 0.43608
 C261 C 0.57309 0.09205 0.32012
 C262 C 0.58418 0.11927 0.34470
 C263 C 0.55786 0.13489 0.35694
 C264 C 0.52069 0.12269 0.34437
 C265 C 0.50958 0.09498 0.32006
 C266 C 0.53563 0.07927 0.30763
 C267 C 0.56908 0.16218 0.38162
 C268 C 0.60614 0.17356 0.39433
 C269 C 0.63222 0.15749 0.38217
 C270 C 0.62116 0.13067 0.35735
 C271 C 0.66900 0.16846 0.39504
 C272 C 0.68005 0.19527 0.41972
 C273 C 0.65458 0.21181 0.43192
 C274 C 0.61755 0.20072 0.41906
 H275 H 0.59368 0.08033 0.31108
 H276 H 0.50010 0.13432 0.35349
 H277 H 0.48055 0.08589 0.31105
 H278 H 0.54898 0.17434 0.39100
 H279 H 0.64125 0.11846 0.34800
 H280 H 0.68928 0.15635 0.38599
 H281 H 0.70878 0.20340 0.42906
 H282 H 0.59757 0.21315 0.42826
 C283 C 0.90946 0.47310 0.32107
 C284 C 0.88368 0.45728 0.34513
 C285 C 0.86798 0.48306 0.35974
 C286 C 0.87790 0.52397 0.34978
 C287 C 0.90354 0.53946 0.32581
 C288 C 0.91982 0.51438 0.31134
 C289 C 0.84284 0.46767 0.38417
 C290 C 0.83312 0.42677 0.39417
 C291 C 0.84838 0.40077 0.37933
 C292 C 0.87361 0.41620 0.35493
 C293 C 0.83822 0.35978 0.38922
 C294 C 0.81333 0.34469 0.41369
 C295 C 0.79834 0.37039 0.42889
 C296 C 0.80838 0.41148 0.41885
 H297 H 0.92168 0.45332 0.31011
 H298 H 0.86606 0.54412 0.36067
 H299 H 0.91098 0.57131 0.31883
 H300 H 0.83099 0.48757 0.39547
 H301 H 0.88551 0.39633 0.34366
 H302 H 0.84956 0.33938 0.37806
 H303 H 0.80607 0.31294 0.42087
 H304 H 0.79678 0.43159 0.43013
 C305 C 0.54120 0.43056 1.18726
 C306 C 0.55728 0.41796 1.16252
 C307 C 0.53615 0.37893 1.14874
 C308 C 0.49982 0.35295 1.16015
 C309 C 0.48407 0.36568 1.18468
 C310 C 0.50429 0.40468 1.19835
 C311 C 0.55140 0.36658 1.12359
 C312 C 0.58754 0.39270 1.11190
 C313 C 0.60916 0.43142 1.12583
 C314 C 0.59388 0.44386 1.15109
 C315 C 0.64558 0.45702 1.11407
 C316 C 0.66017 0.44458 1.08855
 C317 C 0.63842 0.40650 1.07421
 C318 C 0.60220 0.38065 1.08629
 H319 H 0.55719 0.46070 1.19759
 H320 H 0.48335 0.32289 1.14989
 H321 H 0.45570 0.34509 1.19269
 H322 H 0.53495 0.33675 1.11293
 H323 H 0.61026 0.47373 1.16168
 H324 H 0.66269 0.48674 1.12451
 H325 H 0.68818 0.46498 1.07980
 H326 H 0.58528 0.35088 1.07579
 C327 C 0.90818 0.47868 1.17158
 C328 C 0.88079 0.46532 1.14807
 C329 C 0.86377 0.49223 1.13747
 C330 C 0.87380 0.53152 1.15064
 C331 C 0.90074 0.54450 1.17394
 C332 C 0.91864 0.51860 1.18468
 C333 C 0.83703 0.47963 1.11379
 C334 C 0.82670 0.44027 1.10053
 C335 C 0.84309 0.41288 1.11122
 C336 C 0.87018 0.42563 1.13488
 C337 C 0.83195 0.37323 1.09803
 C338 C 0.80494 0.36093 1.07449
 C339 C 0.78889 0.38823 1.06347
 C340 C 0.80004 0.42791 1.07674
 H341 H 0.92140 0.45808 1.17946
 H342 H 0.86088 0.55241 1.14283
 H343 H 0.90777 0.57530 1.18333
 H344 H 0.82423 0.50052 1.10567
 H345 H 0.88295 0.40473 1.14299
 H346 H 0.84406 0.35169 1.10596
 H347 H 0.79681 0.33015 1.06477
 H348 H 0.78759 0.44918 1.06880
 C349 C 0.56961 0.10361 1.16927
 C350 C 0.57939 0.13509 1.14773
 C351 C 0.55274 0.15307 1.14052
 C352 C 0.51676 0.13927 1.15505
 C353 C 0.50708 0.10762 1.17628
 C354 C 0.53333 0.08942 1.18350
 C355 C 0.56229 0.18416 1.11867
 C356 C 0.59792 0.19704 1.10363
 C357 C 0.62453 0.17899 1.11090
 C358 C 0.61522 0.14839 1.13303
 C359 C 0.65988 0.19145 1.09562
 C360 C 0.66862 0.22106 1.07301
 C361 C 0.64232 0.23904 1.06540
 C362 C 0.60714 0.22721 1.08110
 H363 H 0.59005 0.08975 1.17460
 H364 H 0.49599 0.15270 1.14983
 H365 H 0.47895 0.09737 1.18703
 H366 H 0.54181 0.19788 1.11309
 H367 H 0.63563 0.13452 1.13851
 H368 H 0.68061 0.17801 1.10094
 H369 H 0.69612 0.22990 1.06146
 H370 H 0.58663 0.24081 1.07539
 C371 C 0.42585 0.52074 1.18522
 C372 C 0.40857 0.53399 1.16176
 C373 C 0.36893 0.51110 1.15476
 C374 C 0.34726 0.47554 1.17134
 C375 C 0.36477 0.46225 1.19431
 C376 C 0.40420 0.48450 1.20141
 C377 C 0.35169 0.52370 1.13105
 C378 C 0.37368 0.55856 1.11387
 C379 C 0.41329 0.58152 1.12080
 C380 C 0.43043 0.56928 1.14484
 C381 C 0.43523 0.61605 1.10331
 C382 C 0.41826 0.62741 1.07893
 C383 C 0.37894 0.60465 1.07167
 C384 C 0.35675 0.57041 1.08953
 H385 H 0.45633 0.53804 1.19036
 H386 H 0.31687 0.45766 1.16630
 H387 H 0.34736 0.43436 1.20649
 H388 H 0.32132 0.50601 1.12569
 H389 H 0.46085 0.58683 1.15009
 H390 H 0.46561 0.63406 1.10830
 H391 H 0.43603 0.65404 1.06570
 H392 H 0.32643 0.55248 1.08423
 C393 C 0.09642 0.58204 1.17279
 C394 C 0.12392 0.59666 1.14979
 C395 C 0.13241 0.63630 1.13719
 C396 C 0.11321 0.66076 1.14813
 C397 C 0.08569 0.64588 1.17109
 C398 C 0.07689 0.60630 1.18355
 C399 C 0.15965 0.65055 1.11379
 C400 C 0.17821 0.62541 1.10278
 C401 C 0.16957 0.58585 1.11569
 C402 C 0.14272 0.57187 1.13910
 C403 C 0.18764 0.56048 1.10483
 C404 C 0.21363 0.57368 1.08107
 C405 C 0.22241 0.61269 1.06762
 C406 C 0.20487 0.63877 1.07887
 H407 H 0.09006 0.55149 1.18216
 H408 H 0.11930 0.69126 1.13882
 H409 H 0.07113 0.66527 1.17895
 H410 H 0.16609 0.68090 1.10402
 H411 H 0.13616 0.54145 1.14881
 H412 H 0.18142 0.53018 1.11457
 H413 H 0.22693 0.55307 1.07321
 H414 H 0.21137 0.66889 1.06874
 C415 C 0.44234 0.90282 1.16257
 C416 C 0.43255 0.87264 1.13972
 C417 C 0.45851 0.85382 1.13213
 C418 C 0.49398 0.86583 1.14731
 C419 C 0.50364 0.89610 1.16985
 C420 C 0.47792 0.91476 1.17778
 C421 C 0.44862 0.82331 1.10955
 C422 C 0.41315 0.81150 1.09433
 C423 C 0.38740 0.83067 1.10169
 C424 C 0.39721 0.86102 1.12437
 C425 C 0.35213 0.81903 1.08631
 C426 C 0.34225 0.78846 1.06399
 C427 C 0.36739 0.76881 1.05664
 C428 C 0.40296 0.78067 1.07192
 H429 H 0.42236 0.91713 1.16837
 H430 H 0.51425 0.85180 1.14176
 H431 H 0.53123 0.90467 1.18125
 H432 H 0.46846 0.80876 1.10386
 H433 H 0.37734 0.87554 1.13009
 H434 H 0.33208 0.83343 1.09163
 H435 H 0.31459 0.77992 1.05270
 H436 H 0.42267 0.76587 1.06648
 C437 C 0.55220 0.42733 0.66756
 C438 C 0.56673 0.40832 0.64586
 C439 C 0.54385 0.36742 0.63594
 C440 C 0.50672 0.34619 0.64820
 C441 C 0.49232 0.36554 0.66983
 C442 C 0.51486 0.40636 0.67959
 C443 C 0.55835 0.34875 0.61376
 C444 C 0.59524 0.37077 0.60126
 C445 C 0.61800 0.41166 0.61143
 C446 C 0.60371 0.43002 0.63375
 C447 C 0.65456 0.43389 0.59884
 C448 C 0.66835 0.41618 0.57595
 C449 C 0.64601 0.37575 0.56534
 C450 C 0.60957 0.35294 0.57841
 H451 H 0.57002 0.45880 0.67486
 H452 H 0.48874 0.31479 0.64091
 H453 H 0.46349 0.34866 0.67878
 H454 H 0.54080 0.31742 0.60599
 H455 H 0.62119 0.46144 0.64142
 H456 H 0.67234 0.46519 0.60647
 H457 H 0.69661 0.43431 0.56647
 H458 H 0.59201 0.32178 0.57037
 C459 C 0.59595 0.08905 0.67603
 C460 C 0.60525 0.11729 0.65199
 C461 C 0.57896 0.13515 0.64345
 C462 C 0.54420 0.12503 0.65930
 C463 C 0.53522 0.09711 0.68314
 C464 C 0.56073 0.07851 0.69168
 C465 C 0.58767 0.16270 0.61914
 C466 C 0.62252 0.17294 0.60327
 C467 C 0.64911 0.15561 0.61204
 C468 C 0.64027 0.12779 0.63624
 C469 C 0.68421 0.16646 0.59647
 C470 C 0.69295 0.19423 0.57250
 C471 C 0.66662 0.21142 0.56331
 C472 C 0.63129 0.20044 0.57885
 H473 H 0.61594 0.07504 0.68232
 H474 H 0.52377 0.13851 0.65314
 H475 H 0.50789 0.08968 0.69467
 H476 H 0.56731 0.17614 0.61259
 H477 H 0.66062 0.11435 0.64279
 H478 H 0.70499 0.15358 0.60290
 H479 H 0.72035 0.20205 0.56097
 H480 H 0.61087 0.21374 0.57224
 C481 C 0.91605 0.45746 0.67293
 C482 C 0.88965 0.44475 0.64896
 C483 C 0.86984 0.46991 0.64023
 C484 C 0.87685 0.50733 0.65547
 C485 C 0.90355 0.52004 0.67897
 C486 C 0.92340 0.49533 0.68790
 C487 C 0.84357 0.45748 0.61627
 C488 C 0.83711 0.42043 0.60066
 C489 C 0.85707 0.39537 0.60916
 C490 C 0.88310 0.40758 0.63337
 C491 C 0.85067 0.35853 0.59323
 C492 C 0.82463 0.34655 0.56919
 C493 C 0.80442 0.37113 0.56071
 C494 C 0.81095 0.40813 0.57662
 H495 H 0.93143 0.43834 0.67951
 H496 H 0.86193 0.52697 0.64905
 H497 H 0.90863 0.54929 0.69022
 H498 H 0.82833 0.47676 0.60966
 H499 H 0.89838 0.38834 0.63993
 H500 H 0.86574 0.33894 0.59940
 H501 H 0.82007 0.31779 0.55741
 H502 H 0.79566 0.42747 0.57034
 C503 C 0.44022 0.54441 0.66633
 C504 C 0.42111 0.55793 0.64437
 C505 C 0.38744 0.52877 0.63025
 C506 C 0.37324 0.48678 0.63847
 C507 C 0.39202 0.47373 0.66062
 C508 C 0.42562 0.50230 0.67472
 C509 C 0.36838 0.54200 0.60820
 C510 C 0.38237 0.58410 0.60017
 C511 C 0.41571 0.61339 0.61453
 C512 C 0.43494 0.60012 0.63649
 C513 C 0.42940 0.65548 0.60654
 C514 C 0.41067 0.66834 0.58417
 C515 C 0.37788 0.63936 0.56933
 C516 C 0.36367 0.59726 0.57776
 H517 H 0.46592 0.56674 0.67727
 H518 H 0.34747 0.46405 0.62791
 H519 H 0.38027 0.44109 0.66665
 H520 H 0.34271 0.51954 0.59729
 H521 H 0.46063 0.62258 0.64739
 H522 H 0.45480 0.67841 0.61738
 H523 H 0.42227 0.70101 0.57824
 H524 H 0.33841 0.57454 0.56659
 C525 C 0.44603 0.90475 0.67860
 C526 C 0.43224 0.87888 0.65315
 C527 C 0.45578 0.86044 0.63972
 C528 C 0.49209 0.86737 0.65198
 C529 C 0.50560 0.89302 0.67700
 C530 C 0.48318 0.91257 0.69055
 C531 C 0.44296 0.83552 0.61405
 C532 C 0.40672 0.82844 0.60148
 C533 C 0.38262 0.84612 0.61491
 C534 C 0.39559 0.87140 0.64066
 C535 C 0.34597 0.83794 0.60232
 C536 C 0.33337 0.81241 0.57682
 C537 C 0.35747 0.79517 0.56319
 C538 C 0.39419 0.80355 0.57573
 H539 H 0.42817 0.91932 0.68861
 H540 H 0.51033 0.85325 0.64201
 H541 H 0.53415 0.89788 0.68545
 H542 H 0.46128 0.82165 0.60380
 H543 H 0.37726 0.88524 0.65089
 H544 H 0.32695 0.85102 0.61232
 H545 H 0.30484 0.80621 0.56774
 H546 H 0.41285 0.78989 0.56583
 C547 C 0.09727 0.58967 0.67682
 C548 C 0.12483 0.59547 0.65415
 C549 C 0.13813 0.56374 0.64765
 C550 C 0.12370 0.52675 0.66410
 C551 C 0.09594 0.52095 0.68644
 C552 C 0.08214 0.55219 0.69300
 C553 C 0.16523 0.56930 0.62459
 C554 C 0.17878 0.60602 0.60766
 C555 C 0.16536 0.63768 0.61431
 C556 C 0.13878 0.63234 0.63758
 C557 C 0.17837 0.67412 0.59734
 C558 C 0.20400 0.67907 0.57369
 C559 C 0.21747 0.64784 0.56656
 C560 C 0.20507 0.61146 0.58393
 H561 H 0.08717 0.61419 0.68142
 H562 H 0.13355 0.50207 0.65949
 H563 H 0.08516 0.49171 0.69845
 H564 H 0.17533 0.54489 0.61956
 H565 H 0.12853 0.65667 0.64251
 H566 H 0.16847 0.69870 0.60218
 H567 H 0.21340 0.70768 0.56097
 H568 H 0.21524 0.58719 0.57867
 C569 C 0.42168 0.50843 0.82312
 C570 C 0.41437 0.53162 0.84631
 C571 C 0.42900 0.57560 0.84441
 C572 C 0.45079 0.59562 0.81936
 C573 C 0.45878 0.57241 0.79677
 C574 C 0.44447 0.52874 0.79853
 C575 C 0.42209 0.59886 0.86773
 C576 C 0.40116 0.57876 0.89314
 C577 C 0.38691 0.53481 0.89510
 C578 C 0.39341 0.51154 0.87165
 C579 C 0.36618 0.51470 0.92047
 C580 C 0.35894 0.53773 0.94348
 C581 C 0.37234 0.58141 0.94168
 C582 C 0.39394 0.60182 0.91652
 H583 H 0.41102 0.47479 0.82479
 H584 H 0.46226 0.62926 0.81750
 H585 H 0.47643 0.58865 0.77793
 H586 H 0.43319 0.63255 0.86619
 H587 H 0.38238 0.47785 0.87322
 H588 H 0.35519 0.48109 0.92240
 H589 H 0.34232 0.52111 0.96262
 H590 H 0.40424 0.63542 0.91477
 C591 C 0.09588 0.55167 0.83019
 C592 C 0.12308 0.56716 0.85348
 C593 C 0.13404 0.60879 0.86344
 C594 C 0.11803 0.63429 0.84984
 C595 C 0.09122 0.61876 0.82662
 C596 C 0.07975 0.57735 0.81664
 C597 C 0.16080 0.62432 0.88686
 C598 C 0.17697 0.59890 0.90041
 C599 C 0.16646 0.55743 0.89035
 C600 C 0.13946 0.54174 0.86697
 C601 C 0.18322 0.53243 0.90386
 C602 C 0.21005 0.54836 0.92718
 C603 C 0.22032 0.58945 0.93752
 C604 C 0.20361 0.61451 0.92391
 H605 H 0.08738 0.51974 0.82262
 H606 H 0.12619 0.66627 0.85719
 H607 H 0.07922 0.63921 0.81663
 H608 H 0.16904 0.65621 0.89454
 H609 H 0.13123 0.50987 0.85929
 H610 H 0.17561 0.50060 0.89640
 H611 H 0.22253 0.52840 0.93726
 H612 H 0.21152 0.64639 0.93143
 C613 C 0.45179 0.88776 0.82624
 C614 C 0.43868 0.85703 0.84859
 C615 C 0.46506 0.84250 0.86196
 C616 C 0.50384 0.85833 0.85234
 C617 C 0.51655 0.88858 0.82993
 C618 C 0.49086 0.90394 0.81681
 C619 C 0.45236 0.81262 0.88483
 C620 C 0.41351 0.79689 0.89446
 C621 C 0.38694 0.81075 0.88065
 C622 C 0.39968 0.84077 0.85786
 C623 C 0.34808 0.79462 0.89008
 C624 C 0.33574 0.76564 0.91334
 C625 C 0.36201 0.75225 0.92782
 C626 C 0.40091 0.76784 0.91792
 H627 H 0.43152 0.89903 0.81619
 H628 H 0.52443 0.84745 0.86226
 H629 H 0.54672 0.90041 0.82315
 H630 H 0.47275 0.80183 0.89526
 H631 H 0.37932 0.85165 0.84750
 H632 H 0.32727 0.80475 0.87966
 H633 H 0.30569 0.75430 0.92039
 H634 H 0.42155 0.75771 0.92866
 C635 C 0.54974 0.44737 0.82250
 C636 C 0.56257 0.43157 0.84727
 C637 C 0.54469 0.38853 0.85386
 C638 C 0.51449 0.36206 0.83570
 C639 C 0.50154 0.37806 0.81150
 C640 C 0.51880 0.42077 0.80473
 C641 C 0.55695 0.37259 0.87866
 C642 C 0.58670 0.39908 0.89720
 C643 C 0.60462 0.44212 0.89079
 C644 C 0.59251 0.45811 0.86580
 C645 C 0.63441 0.46836 0.90949
 C646 C 0.64656 0.45208 0.93412
 C647 C 0.62904 0.40925 0.94059
 C648 C 0.59890 0.38302 0.92201
 H649 H 0.56303 0.48039 0.81758
 H650 H 0.50054 0.32903 0.84042
 H651 H 0.47778 0.35689 0.79806
 H652 H 0.54320 0.33957 0.88360
 H653 H 0.60623 0.49112 0.86088
 H654 H 0.64849 0.50143 0.90497
 H655 H 0.66993 0.47304 0.94797
 H656 H 0.58523 0.34990 0.92654
 C657 C 0.90070 0.47047 0.82417
 C658 C 0.87320 0.46136 0.84712
 C659 C 0.86333 0.49322 0.85936
 C660 C 0.88094 0.53375 0.84786
 C661 C 0.90859 0.54266 0.82492
 C662 C 0.91902 0.51117 0.81312
 C663 C 0.83655 0.48403 0.88310
 C664 C 0.81998 0.44346 0.89482
 C665 C 0.82983 0.41177 0.88209
 C666 C 0.85607 0.42084 0.85829
 C667 C 0.81379 0.37143 0.89363
 C668 C 0.78883 0.36248 0.91805
 C669 C 0.77908 0.39359 0.93142
 C670 C 0.79431 0.43405 0.91936
 H671 H 0.90822 0.44576 0.81519
 H672 H 0.87373 0.55864 0.85686
 H673 H 0.92224 0.57430 0.81677
 H674 H 0.82912 0.50847 0.89272
 H675 H 0.86370 0.39645 0.84878
 H676 H 0.82094 0.34682 0.88401
 H677 H 0.77718 0.33093 0.92654
 H678 H 0.78699 0.45827 0.92945
 C679 C 0.56615 0.10085 0.83143
 C680 C 0.58645 0.13098 0.85320
 C681 C 0.62495 0.13727 0.86095
 C682 C 0.64255 0.11348 0.84674
 C683 C 0.62229 0.08369 0.82515
 C684 C 0.58389 0.07691 0.81724
 C685 C 0.64519 0.16704 0.88287
 C686 C 0.62737 0.19055 0.89736
 C687 C 0.58890 0.18432 0.88946
 C688 C 0.56880 0.15479 0.86742
 C689 C 0.57090 0.20744 0.90398
 C690 C 0.59035 0.23581 0.92654
 C691 C 0.62842 0.24206 0.93503
 C692 C 0.64706 0.21969 0.91994
 H693 H 0.53666 0.09610 0.82555
 H694 H 0.67202 0.11782 0.85234
 H695 H 0.63683 0.06584 0.81466
 H696 H 0.67465 0.17164 0.88882
 H697 H 0.53929 0.15010 0.86155
 H698 H 0.54153 0.20324 0.89815
 H699 H 0.57536 0.25289 0.93746
 H700 H 0.67634 0.22413 0.92628
   
