data_POSCAR
  _audit_creation_date              2014-09-24
  _audit_creation_method            'ToBaCCo'
  _symmetry_space_group_name_H-M    'P1'
  _symmetry_Int_Tables_number       1
  _symmetry_cell_setting            triclinic
  loop_
  _symmetry_equiv_pos_as_xyz
 x,y,z
_cell_length_a 35.5243
_cell_length_b 35.4388
_cell_length_c 35.4156
_cell_angle_alpha 90.067900
_cell_angle_beta 89.892900
_cell_angle_gamma 89.975100
loop_
  _atom_site_label
  _atom_site_type_symbol
  _atom_site_fract_x
  _atom_site_fract_y
  _atom_site_fract_z
N1 N 0.20014 1.20306 0.19853
 N2 N 0.79626 0.79323 0.20975
 N3 N 0.79365 1.20382 -0.20159
 N4 N 0.20840 0.79576 -0.20722
 C5 C 0.55985 1.04772 -0.00532
 H6 H 0.55991 1.04670 0.02521
 C7 C 0.58649 1.06953 -0.02431
 H8 H 0.60664 1.08573 -0.00811
 C9 C 0.53356 1.02742 -0.06334
 H10 H 0.51342 1.01030 -0.07843
 C11 C 0.55974 1.04890 -0.08352
 H12 H 0.55947 1.04805 -0.11408
 N13 N 0.53408 1.02728 -0.02494
 C14 C 0.44194 1.00760 0.05399
 H15 H 0.44062 0.97710 0.05328
 C16 C 0.41525 1.02801 0.07457
 H17 H 0.39331 1.01292 0.08948
 C18 C 0.47098 1.06416 0.03346
 H19 H 0.49224 1.07820 0.01679
 C20 C 0.44493 1.08569 0.05374
 H21 H 0.44701 1.11615 0.05305
 Zn22 Zn 0.50155 0.99617 0.00365
 N23 N 0.46905 1.02583 0.03395
 C24 C 0.52985 0.96457 0.07207
 N25 N 0.53258 0.96504 0.03376
 C26 C 0.55960 0.94493 0.01541
 C27 C 0.58527 0.92313 0.03563
 C28 C 0.55498 0.94306 0.09345
 C29 C 0.44489 0.98488 -0.04971
 C30 C 0.41942 0.96457 -0.07177
 C31 C 0.44771 0.90677 -0.04942
 C32 C 0.47261 0.92820 -0.02773
 N33 N 0.47077 0.96654 -0.02826
 H34 H 0.50862 0.98128 0.08616
 H35 H 0.56155 0.94641 -0.01504
 H36 H 0.60710 0.90809 0.02044
 H37 H 0.55233 0.94291 0.12391
 H38 H 0.44359 1.01537 -0.04903
 H39 H 0.39842 0.97975 -0.08784
 H40 H 0.44966 0.87630 -0.04867
 H41 H 0.49288 0.91410 -0.00997
 C42 C 0.41632 1.06765 0.07437
 C43 C 0.58689 1.07007 -0.06396
 C44 C 0.42042 0.92494 -0.07159
 C45 C 0.58331 0.92212 0.07523
 C46 C -0.00930 0.55915 1.04799
 H47 H 0.02102 0.56004 1.04517
 C48 C -0.02770 0.58553 1.07069
 H49 H -0.01127 0.60637 1.08579
 C50 C -0.06749 0.53124 1.03099
 H51 H -0.08291 0.51061 1.01473
 C52 C -0.08707 0.55706 1.05354
 H53 H -0.11752 0.55603 1.05442
 N54 N -0.02929 0.53281 1.02861
 C55 C 0.04750 0.44070 1.00236
 H56 H 0.04444 0.43967 0.97199
 C57 C 0.06851 0.41309 1.02089
 H58 H 0.08202 0.39104 1.00456
 C59 C 0.03263 0.47014 1.06065
 H60 H 0.01778 0.49180 1.07614
 C61 C 0.05373 0.44332 1.08029
 H62 H 0.05500 0.44466 1.11081
 Zn63 Zn -0.00188 0.50141 0.99525
 N64 N 0.02986 0.46831 1.02238
 C65 C 0.06473 0.53097 0.96138
 N66 N 0.02660 0.53366 0.96379
 C67 C 0.00751 0.56167 0.94593
 C68 C 0.02682 0.58867 0.92484
 C69 C 0.08520 0.55737 0.94043
 C70 C -0.05405 0.44361 0.98466
 C71 C -0.07617 0.41800 0.96460
 C72 C -0.05852 0.44964 0.90684
 C73 C -0.03657 0.47456 0.92801
 N74 N -0.03469 0.47106 0.96620
 H75 H 0.07942 0.50893 0.97641
 H76 H -0.02277 0.56337 0.94872
 H77 H 0.01109 0.61082 0.91093
 H78 H 0.11560 0.55539 0.93954
 H79 H -0.05147 0.44106 1.01499
 H80 H -0.09034 0.39564 0.97981
 H81 H -0.05965 0.45289 0.87647
 H82 H -0.02048 0.49614 0.91378
 C83 C 0.07153 0.41404 1.06038
 C84 C -0.06714 0.58497 1.07336
 C85 C -0.07835 0.42057 0.92507
 C86 C 0.06623 0.58699 0.92224
 C87 C 1.05204 -0.00510 0.55992
 H88 H 1.04947 0.02530 0.56127
 C89 C 1.07411 -0.02409 0.58629
 H90 H 1.08897 -0.00801 0.60758
 C91 C 1.03515 -0.06287 0.53073
 H92 H 1.01921 -0.07788 0.50956
 C93 C 1.05701 -0.08304 0.55656
 H94 H 1.05766 -0.11355 0.55502
 N95 N 1.03304 -0.02460 0.53295
 C96 C 1.00968 0.05575 0.44306
 H97 H 0.97932 0.05377 0.44179
 C98 C 1.02911 0.07715 0.41630
 H99 H 1.01339 0.09143 0.39440
 C100 C 1.06699 0.03729 0.47176
 H101 H 1.08172 0.02103 0.49284
 C102 C 1.08754 0.05848 0.44567
 H103 H 1.11795 0.05892 0.44760
 Zn104 Zn 1.00068 0.00366 0.50152
 N105 N 1.02877 0.03618 0.46989
 C106 C 0.96648 0.06962 0.53270
 N107 N 0.96851 0.03131 0.53389
 C108 C 0.94971 0.01123 0.56061
 C109 C 0.92794 0.02964 0.58775
 C110 C 0.94491 0.08923 0.55934
 C111 C 0.99179 -0.04671 0.44179
 C112 C 0.97259 -0.06820 0.41500
 C113 C 0.91414 -0.05251 0.44632
 C114 C 0.93444 -0.03097 0.47232
 N115 N 0.97257 -0.02845 0.46957
 H116 H 0.98230 0.08509 0.51174
 H117 H 0.95225 -0.01919 0.56118
 H118 H 0.91324 0.01310 0.60881
 H119 H 0.94434 0.11977 0.55860
 H120 H 1.02206 -0.04383 0.44001
 H121 H 0.98830 -0.08225 0.39284
 H122 H 0.88374 -0.05360 0.44837
 H123 H 0.91958 -0.01560 0.49407
 C124 C 1.06864 0.07834 0.41708
 C125 C 1.07647 -0.06362 0.58510
 C126 C 0.93323 -0.07101 0.41690
 C127 C 0.92568 0.06920 0.58763
 C128 C 0.14638 0.29449 1.14218
 C129 C 0.12544 0.26310 1.15422
 C130 C 0.14294 0.23349 1.17336
 C131 C 0.18178 0.23454 1.18050
 C132 C 0.20272 0.26600 1.16874
 C133 C 0.18513 0.29587 1.14996
 C134 C 0.12788 0.32530 1.12092
 C135 C 0.13450 0.36326 1.13027
 C136 C 0.11630 0.39218 1.11058
 C137 C 0.09160 0.38365 1.08082
 C138 C 0.08542 0.34570 1.07118
 C139 C 0.10322 0.31682 1.09115
 H140 H 0.12637 0.20935 1.18198
 H141 H 0.23271 0.26725 1.17403
 H142 H 0.12166 0.42122 1.11844
 H143 H 0.06624 0.33833 1.04861
 H144 H 0.20193 0.31964 1.14074
 H145 H 0.15325 0.37051 1.15324
 H146 H 0.09547 0.26152 1.14887
 H147 H 0.09790 0.28780 1.08316
 C148 C -0.14593 0.70123 1.15745
 C149 C -0.12578 0.73113 1.17393
 C150 C -0.14467 0.76082 1.19165
 C151 C -0.18418 0.76125 1.19355
 C152 C -0.20434 0.73081 1.17816
 C153 C -0.18543 0.70114 1.16022
 C154 C -0.12575 0.67109 1.13633
 C155 C -0.13743 0.63323 1.13842
 C156 C -0.11845 0.60517 1.11806
 C157 C -0.08731 0.61439 1.09533
 C158 C -0.07572 0.65222 1.09322
 C159 C -0.09473 0.68021 1.11338
 H160 H -0.12838 0.78394 1.20311
 H161 H -0.23478 0.73039 1.17951
 H162 H -0.12779 0.57620 1.12047
 H163 H -0.05232 0.66031 1.07534
 H164 H -0.20181 0.67870 1.14757
 H165 H -0.16095 0.62522 1.15615
 H166 H -0.09533 0.73173 1.17291
 H167 H -0.08553 0.70918 1.11043
 C168 C -0.15543 0.30099 0.84454
 C169 C -0.19482 0.29773 0.84323
 C170 C -0.21175 0.26587 0.82732
 C171 C -0.18976 0.23631 0.81213
 C172 C -0.15022 0.24030 0.81270
 C173 C -0.13338 0.27207 0.82875
 C174 C -0.13723 0.33358 0.86366
 C175 C -0.10388 0.34932 0.84920
 C176 C -0.08527 0.37808 0.86868
 C177 C -0.09964 0.39194 0.90302
 C178 C -0.13360 0.37699 0.91690
 C179 C -0.15214 0.34811 0.89750
 H180 H -0.24219 0.26437 0.82669
 H181 H -0.13215 0.21797 0.80228
 H182 H -0.05898 0.38864 0.85736
 H183 H -0.14571 0.38737 0.94300
 H184 H -0.10296 0.27331 0.82996
 H185 H -0.09193 0.33914 0.82296
 H186 H -0.21262 0.31984 0.85452
 H187 H -0.17757 0.33641 0.90963
 C188 C 0.14836 0.70470 0.84389
 C189 C 0.12895 0.73564 0.82849
 C190 C 0.14855 0.76516 0.81136
 C191 C 0.18802 0.76434 0.80892
 C192 C 0.20744 0.73314 0.82367
 C193 C 0.18783 0.70362 0.84098
 C194 C 0.12745 0.67428 0.86376
 C195 C 0.13810 0.63624 0.85987
 C196 C 0.11831 0.60783 0.87881
 C197 C 0.08737 0.61686 0.90191
 C198 C 0.07684 0.65488 0.90588
 C199 C 0.09666 0.68323 0.88711
 H200 H 0.13289 0.78903 0.80057
 H201 H 0.23786 0.73189 0.82208
 H202 H 0.12684 0.57874 0.87496
 H203 H 0.05362 0.66280 0.92410
 H204 H 0.20365 0.68040 0.85290
 H205 H 0.16141 0.62838 0.84176
 H206 H 0.09853 0.73710 0.82976
 H207 H 0.08823 0.71228 0.89140
 C208 C 1.14789 0.15230 0.29448
 C209 C 1.16261 0.12987 0.26518
 C210 C 1.18006 0.14647 0.23399
 C211 C 1.18314 0.18587 0.23134
 C212 C 1.16855 0.20836 0.26057
 C213 C 1.15117 0.19177 0.29187
 C214 C 1.12861 0.13448 0.32721
 C215 C 1.09581 0.15056 0.34263
 C216 C 1.07675 0.13280 0.37226
 C217 C 1.09000 0.09851 0.38713
 C218 C 1.12318 0.08282 0.37213
 C219 C 1.14228 0.10062 0.34261
 H220 H 1.19055 0.12857 0.21151
 H221 H 1.17078 0.23880 0.25915
 H222 H 1.05152 0.14585 0.38345
 H223 H 1.13394 0.05622 0.38254
 H224 H 1.14055 0.20981 0.31416
 H225 H 1.08433 0.17643 0.33120
 H226 H 1.15992 0.09945 0.26592
 H227 H 1.16775 0.08775 0.33173
 C228 C 1.15817 -0.14473 0.70104
 C229 C 1.17501 -0.12503 0.73106
 C230 C 1.19212 -0.14449 0.76066
 C231 C 1.19300 -0.18412 0.76086
 C232 C 1.17716 -0.20385 0.73036
 C233 C 1.15988 -0.18438 0.70076
 C234 C 1.13769 -0.12394 0.67100
 C235 C 1.13987 -0.13539 0.63302
 C236 C 1.12008 -0.11585 0.60504
 C237 C 1.09782 -0.08441 0.61447
 C238 C 1.09561 -0.07307 0.65243
 C239 C 1.11526 -0.09260 0.68033
 H240 H 1.20391 -0.12858 0.78392
 H241 H 1.17764 -0.23440 0.72986
 H242 H 1.12259 -0.12502 0.57597
 H243 H 1.07807 -0.04946 0.66070
 H244 H 1.14689 -0.20039 0.67822
 H245 H 1.15723 -0.15918 0.62487
 H246 H 1.17471 -0.09449 0.73182
 H247 H 1.11228 -0.08356 0.70940
 C248 C 0.84978 -0.14911 0.30051
 C249 C 0.83781 -0.12927 0.26837
 C250 C 0.81931 -0.14801 0.23910
 C251 C 0.81269 -0.18698 0.24128
 C252 C 0.82408 -0.20677 0.27361
 C253 C 0.84227 -0.18795 0.30312
 C254 C 0.87116 -0.12948 0.33056
 C255 C 0.86234 -0.13507 0.36884
 C256 C 0.88246 -0.11609 0.39699
 C257 C 0.91210 -0.09166 0.38735
 C258 C 0.92111 -0.08643 0.34908
 C259 C 0.90075 -0.10500 0.32099
 H260 H 0.81100 -0.13233 0.21425
 H261 H 0.81924 -0.23686 0.27567
 H262 H 0.87509 -0.12073 0.42630
 H263 H 0.94356 -0.06745 0.34086
 H264 H 0.85145 -0.20393 0.32747
 H265 H 0.83955 -0.15368 0.37693
 H266 H 0.84296 -0.09926 0.26584
 H267 H 0.90835 -0.10049 0.29171
 C268 C 0.84481 0.14743 0.70661
 C269 C 0.82780 0.12696 0.73596
 C270 C 0.81037 0.14555 0.76604
 C271 C 0.80924 0.18536 0.76770
 C272 C 0.82566 0.20571 0.73760
 C273 C 0.84316 0.18701 0.70755
 C274 C 0.86520 0.12746 0.67584
 C275 C 0.86286 0.13992 0.63822
 C276 C 0.88243 0.12107 0.60951
 C277 C 0.90465 0.08933 0.61781
 C278 C 0.90706 0.07701 0.65543
 C279 C 0.88762 0.09585 0.68407
 H280 H 0.79898 0.12862 0.78877
 H281 H 0.82486 0.23626 0.73729
 H282 H 0.87976 0.13099 0.58073
 H283 H 0.92458 0.05314 0.66286
 H284 H 0.85620 0.20361 0.68547
 H285 H 0.84550 0.16393 0.63092
 H286 H 0.82819 0.09640 0.73584
 H287 H 0.89070 0.08603 0.71284
 C288 C 0.29584 1.15054 0.14771
 C289 C 0.29393 1.15541 0.18709
 C290 C 0.26283 1.17311 0.20369
 C291 C 0.23304 1.18632 0.18128
 C292 C 0.23516 1.18193 0.14193
 C293 C 0.26617 1.16421 0.12533
 C294 C 0.32808 1.13044 0.12998
 C295 C 0.34294 1.14272 0.09530
 C296 C 0.37191 1.12270 0.07761
 C297 C 0.38685 1.08995 0.09422
 C298 C 0.37252 1.07809 0.12928
 C299 C 0.34347 1.09809 0.14695
 H300 H 0.26190 1.17646 0.23406
 H301 H 0.21233 1.19142 0.12409
 H302 H 0.38197 1.13240 0.05043
 H303 H 0.38370 1.05323 0.14303
 H304 H 0.26643 1.16034 0.09500
 H305 H 0.33204 1.16780 0.08171
 H306 H 0.31655 1.14567 0.20506
 H307 H 0.33243 1.08766 0.17347
 C308 C 0.70274 1.15276 -0.14430
 C309 C 0.70458 1.15200 -0.18390
 C310 C 0.73424 1.16959 -0.20299
 C311 C 0.76302 1.18845 -0.18299
 C312 C 0.76022 1.19003 -0.14322
 C313 C 0.73057 1.17246 -0.12426
 C314 C 0.67275 1.13196 -0.12377
 C315 C 0.68149 1.11156 -0.09093
 C316 C 0.65362 1.09163 -0.07161
 C317 C 0.61628 1.09156 -0.08463
 C318 C 0.60748 1.11182 -0.11756
 C319 C 0.63543 1.13183 -0.13694
 H320 H 0.73475 1.16841 -0.23354
 H321 H 0.78186 1.20356 -0.12653
 H322 H 0.66147 1.07567 -0.04679
 H323 H 0.57888 1.11261 -0.12806
 H324 H 0.72964 1.17399 -0.09373
 H325 H 0.71010 1.11042 -0.08052
 H326 H 0.68362 1.13693 -0.20015
 H327 H 0.62775 1.14759 -0.16193
 C328 C 0.30340 0.84369 -0.15139
 C329 C 0.30349 0.83885 -0.19081
 C330 C 0.27269 0.82240 -0.20902
 C331 C 0.24123 0.81042 -0.18819
 C332 C 0.24138 0.81462 -0.14877
 C333 C 0.27211 0.83107 -0.13056
 C334 C 0.33507 0.86308 -0.13206
 C335 C 0.34772 0.85061 -0.09663
 C336 C 0.37588 0.87024 -0.07738
 C337 C 0.39213 0.90280 -0.09313
 C338 C 0.38010 0.91477 -0.12896
 C339 C 0.35190 0.89514 -0.14821
 H340 H 0.27316 0.81926 -0.23943
 H341 H 0.21720 0.80612 -0.13218
 H342 H 0.38420 0.86048 -0.04966
 H343 H 0.39236 0.93948 -0.14207
 H344 H 0.27085 0.83496 -0.10026
 H345 H 0.33564 0.82575 -0.08363
 H346 H 0.32736 0.84784 -0.20759
 H347 H 0.34256 0.90571 -0.17529
 C348 C 0.70112 0.84266 0.15533
 C349 C 0.73069 0.82715 0.13392
 C350 C 0.76160 0.81059 0.15169
 C351 C 0.76353 0.80888 0.19128
 C352 C 0.73381 0.82403 0.21271
 C353 C 0.70294 0.84079 0.19493
 C354 C 0.66919 0.86174 0.13627
 C355 C 0.65526 0.89625 0.15001
 C356 C 0.62684 0.91545 0.13068
 C357 C 0.61163 0.90050 0.09723
 C358 C 0.62488 0.86546 0.08409
 C359 C 0.65337 0.84634 0.10335
 H360 H 0.78445 0.79982 0.13451
 H361 H 0.73465 0.82295 0.24325
 H362 H 0.61767 0.94262 0.14126
 H363 H 0.61328 0.85284 0.05881
 H364 H 0.68041 0.85220 0.21214
 H365 H 0.66723 0.90905 0.17504
 H366 H 0.73041 0.82877 0.10339
 H367 H 0.66311 0.81949 0.09245
   
