data_POSCAR
  _audit_creation_date              2014-09-24
  _audit_creation_method            'ToBaCCo'
  _symmetry_space_group_name_H-M    'P1'
  _symmetry_Int_Tables_number       1
  _symmetry_cell_setting            triclinic
  loop_
  _symmetry_equiv_pos_as_xyz
 x,y,z
_cell_length_a 32.1050
_cell_length_b 32.0853
_cell_length_c 32.1038
_cell_angle_alpha 99.396700
_cell_angle_beta 81.227500
_cell_angle_gamma 98.991500
loop_
  _atom_site_label
  _atom_site_type_symbol
  _atom_site_fract_x
  _atom_site_fract_y
  _atom_site_fract_z
O1 O 0.56459 0.52767 0.03872
 O2 O 0.45010 0.51856 0.03010
 O3 O 0.50149 0.46608 0.04048
 O4 O 0.51333 0.57992 0.03031
 O5 O 0.52702 0.56436 -0.03969
 O6 O 0.51533 0.45011 -0.02944
 O7 O 0.46400 0.50266 -0.03981
 O8 O 0.57812 0.51194 -0.03127
 Cu9 Cu 0.50586 0.52448 0.04196
 Cu10 Cu 0.52234 0.50554 -0.04211
 C11 C 0.59066 0.52147 0.00510
 C12 C 0.43783 0.50962 -0.00647
 C13 C 0.50698 0.43892 0.00740
 C14 C 0.52225 0.59140 -0.00633
 O15 O 0.02973 0.54932 0.48250
 O16 O 0.03876 0.43480 0.47294
 O17 O 0.03095 0.48604 0.42068
 O18 O 0.03951 0.49798 0.53502
 O19 O -0.03039 0.48348 0.54910
 O20 O -0.03902 0.47169 0.43439
 O21 O -0.03121 0.42061 0.48681
 O22 O -0.04016 0.53476 0.49652
 Cu23 Cu 0.04179 0.49362 0.47655
 Cu24 Cu -0.04226 0.47635 0.49324
 C25 C -0.00689 0.56127 0.49057
 C26 C 0.00522 0.40840 0.47815
 C27 C -0.00541 0.47680 0.40820
 C28 C 0.00616 0.49219 0.56132
 O29 O 0.48800 0.03150 0.58009
 O30 O 0.49707 0.04011 0.46614
 O31 O 0.43538 0.03925 0.52882
 O32 O 0.54985 0.03039 0.51761
 O33 O 0.53531 -0.03968 0.50276
 O34 O 0.42122 -0.03090 0.51412
 O35 O 0.48260 -0.02996 0.45122
 O36 O 0.47368 -0.03863 0.56555
 Cu37 Cu 0.49416 0.04239 0.52448
 Cu38 Cu 0.47692 -0.04187 0.50679
 C39 C 0.47921 -0.00495 0.59211
 C40 C 0.49079 0.00669 0.43949
 C41 C 0.40901 0.00558 0.52346
 C42 C 0.56180 -0.00628 0.50882
 C43 C 0.50162 -0.07028 -0.07230
 C44 C 0.49075 -0.03124 -0.07764
 C45 C 0.48900 0.00189 -0.04336
 C46 C 0.50006 -0.00300 -0.00360
 C47 C 0.51192 -0.04254 0.00076
 C48 C 0.51172 -0.07614 -0.03310
 C49 C 0.49925 0.03277 0.03294
 C50 C 0.49367 0.02456 0.07552
 C51 C 0.49399 0.05806 0.10950
 C52 C 0.49783 0.10016 0.10166
 C53 C 0.50239 0.10892 0.05985
 C54 C 0.50411 0.07564 0.02574
 H55 H 0.50217 -0.09616 -0.09868
 H56 H 0.47875 0.03112 -0.04810
 H57 H 0.52157 -0.04764 0.03016
 H58 H 0.48878 -0.00774 0.08279
 H59 H 0.49730 0.12604 0.12802
 H60 H 0.50955 0.08369 -0.00625
 C61 C -0.07091 0.49866 1.07018
 C62 C -0.07655 0.50972 1.03136
 C63 C -0.04257 0.51150 0.99838
 C64 C -0.00285 0.50029 1.00319
 C65 C 0.00182 0.48829 1.04251
 C66 C -0.03172 0.48845 1.07597
 C67 C 0.03332 0.50105 0.96754
 C68 C 0.07599 0.50654 0.97578
 C69 C 0.10961 0.50618 0.94235
 C70 C 0.10130 0.50239 0.90032
 C71 C 0.05939 0.49792 0.89154
 C72 C 0.02565 0.49622 0.92473
 H73 H -0.09706 0.49806 1.09595
 H74 H -0.04752 0.52188 0.96933
 H75 H 0.03121 0.47854 1.04753
 H76 H 0.08361 0.51140 1.00805
 H77 H 0.12738 0.50291 0.87450
 H78 H -0.00644 0.49083 0.91665
 C79 C -0.09986 -0.10194 0.49871
 C80 C -0.05789 -0.11034 0.49468
 C81 C -0.02431 -0.07673 0.49406
 C82 C -0.03229 -0.03396 0.49951
 C83 C -0.07500 -0.02617 0.50458
 C84 C -0.10838 -0.05994 0.50316
 C85 C 0.00355 0.00220 0.49995
 C86 C -0.00126 0.04179 0.48856
 C87 C 0.03191 0.07578 0.49004
 C88 C 0.07090 0.07028 0.50099
 C89 C 0.07668 0.03123 0.51142
 C90 C 0.04306 -0.00232 0.51184
 H91 H -0.12580 -0.12803 0.49839
 H92 H 0.00786 -0.08442 0.48903
 H93 H -0.08283 0.00602 0.50993
 H94 H -0.03048 0.04660 0.47827
 H95 H 0.09680 0.09644 0.50139
 H96 H 0.04809 -0.03160 0.52173
 C97 C -0.36481 0.52485 1.00813
 C98 C -0.32735 0.52701 1.01019
 C99 C -0.28269 0.52860 1.01236
 C100 C -0.25565 0.51408 0.97614
 C101 C -0.21271 0.51326 0.97877
 C102 C -0.19663 0.52702 1.01762
 C103 C -0.22350 0.54223 1.05366
 C104 C -0.26644 0.54304 1.05103
 C105 C -0.15345 0.52276 1.02130
 C106 C -0.11793 0.51769 1.02529
 H107 H -0.26793 0.50270 0.94611
 H108 H -0.19229 0.50114 0.95079
 H109 H -0.21145 0.55264 1.08393
 H110 H -0.28709 0.55419 1.07926
 C111 C 0.39611 0.50858 0.98969
 C112 C 0.35944 0.50848 0.98529
 C113 C 0.31611 0.50912 0.97887
 C114 C 0.30776 0.52339 0.94237
 C115 C 0.26582 0.52392 0.93572
 C116 C 0.23196 0.51025 0.96555
 C117 C 0.24027 0.49613 1.00217
 C118 C 0.28227 0.49559 1.00883
 C119 C 0.18878 0.50972 0.95798
 C120 C 0.15269 0.50861 0.95110
 H121 H 0.33366 0.53395 0.91900
 H122 H 0.25978 0.53477 0.90723
 H123 H 0.21434 0.48535 1.02540
 H124 H 0.28834 0.48453 1.03719
 C125 C -0.01084 -0.39701 0.49178
 C126 C -0.01529 -0.36033 0.49198
 C127 C -0.02171 -0.31699 0.49146
 C128 C -0.05746 -0.30888 0.47549
 C129 C -0.06410 -0.26691 0.47505
 C130 C -0.03500 -0.23280 0.49054
 C131 C 0.00086 -0.24087 0.50637
 C132 C 0.00751 -0.28289 0.50681
 C133 C -0.04255 -0.18962 0.49112
 C134 C -0.04934 -0.15349 0.49224
 H135 H -0.08024 -0.33499 0.46351
 H136 H -0.09200 -0.26107 0.46286
 H137 H 0.02350 -0.21473 0.51855
 H138 H 0.03527 -0.28877 0.51920
 C139 C 0.00840 0.36386 0.47468
 C140 C 0.01057 0.32639 0.47246
 C141 C 0.01283 0.28172 0.47085
 C142 C 0.05159 0.26575 0.45730
 C143 C 0.05428 0.22281 0.45813
 C144 C 0.01820 0.19568 0.47246
 C145 C -0.02073 0.21149 0.48531
 C146 C -0.02342 0.25442 0.48447
 C147 C 0.02190 0.15255 0.47678
 C148 C 0.02588 0.11708 0.48194
 H149 H 0.07984 0.28661 0.44685
 H150 H 0.08461 0.21098 0.44845
 H151 H -0.04874 0.19087 0.49675
 H152 H -0.05351 0.26649 0.49515
 C153 C 0.47610 -0.00786 -0.36582
 C154 C 0.47393 -0.00997 -0.32839
 C155 C 0.47233 -0.01216 -0.28376
 C156 C 0.45799 -0.05083 -0.26802
 C157 C 0.45874 -0.05347 -0.22509
 C158 C 0.47378 -0.01744 -0.19774
 C159 C 0.48744 0.02140 -0.21333
 C160 C 0.48669 0.02404 -0.25625
 C161 C 0.47792 -0.02114 -0.15456
 C162 C 0.48289 -0.02514 -0.11903
 H163 H 0.44696 -0.07905 -0.28904
 H164 H 0.44841 -0.08375 -0.21343
 H165 H 0.49944 0.04937 -0.19253
 H166 H 0.49798 0.05407 -0.26814
 C167 C 0.49183 0.01075 0.39546
 C168 C 0.49180 0.01518 0.35887
 C169 C 0.49103 0.02155 0.31561
 C170 C 0.50694 -0.00727 0.28146
 C171 C 0.50636 -0.00063 0.23953
 C172 C 0.48983 0.03483 0.23159
 C173 C 0.47376 0.06351 0.26575
 C174 C 0.47434 0.05688 0.30764
 C175 C 0.49036 0.04244 0.18851
 C176 C 0.49150 0.04932 0.15250
 H177 H 0.51991 -0.03470 0.28724
 H178 H 0.51900 -0.02295 0.21336
 H179 H 0.46104 0.09110 0.26001
 H180 H 0.46194 0.07937 0.33379
 C181 C 0.52645 -0.36417 -0.00995
 C182 C 0.52918 -0.32675 -0.01240
 C183 C 0.53128 -0.28211 -0.01488
 C184 C 0.54188 -0.26726 -0.05432
 C185 C 0.54119 -0.22432 -0.05705
 C186 C 0.52993 -0.19610 -0.02033
 C187 C 0.52011 -0.21079 0.01923
 C188 C 0.52080 -0.25372 0.02195
 C189 C 0.52549 -0.15295 -0.02381
 C190 C 0.52014 -0.11747 -0.02751
 H191 H 0.54986 -0.28898 -0.08301
 H192 H 0.54852 -0.21334 -0.08784
 H193 H 0.51104 -0.18931 0.04775
 H194 H 0.51238 -0.26494 0.05259
 C195 C 0.50482 0.39488 0.01206
 C196 C 0.50392 0.35828 0.01698
 C197 C 0.50359 0.31500 0.02390
 C198 C 0.51305 0.28345 -0.01048
 C199 C 0.51360 0.24164 -0.00341
 C200 C 0.50477 0.23125 0.03807
 C201 C 0.49527 0.26280 0.07241
 C202 C 0.49471 0.30457 0.06534
 C203 C 0.50484 0.18820 0.04545
 C204 C 0.50423 0.15212 0.05192
 H205 H 0.52010 0.29118 -0.04264
 H206 H 0.52090 0.21747 -0.03020
 H207 H 0.48830 0.25512 0.10459
 H208 H 0.48749 0.32873 0.09218
 C209 C -0.39405 -0.01037 0.50684
 C210 C -0.35730 -0.01473 0.50610
 C211 C -0.31381 -0.02087 0.50596
 C212 C -0.28809 -0.03098 0.46737
 C213 C -0.24631 -0.03843 0.46740
 C214 C -0.23008 -0.03586 0.50601
 C215 C -0.25572 -0.02548 0.54459
 C216 C -0.29750 -0.01803 0.54456
 C217 C -0.18731 -0.04424 0.50591
 C218 C -0.15141 -0.05140 0.50516
 H219 H -0.30041 -0.03342 0.43734
 H220 H -0.22676 -0.04644 0.43737
 H221 H -0.24351 -0.02342 0.57462
 H222 H -0.31717 -0.01039 0.57460
 C223 C 0.36450 0.00870 0.52748
 C224 C 0.32704 0.01081 0.53005
 C225 C 0.28240 0.01301 0.53195
 C226 C 0.25480 -0.02370 0.51935
 C227 C 0.21188 -0.02111 0.51846
 C228 C 0.19641 0.01818 0.53022
 C229 C 0.22384 0.05473 0.54360
 C230 C 0.26676 0.05215 0.54449
 C231 C 0.15333 0.02169 0.52555
 C232 C 0.11791 0.02547 0.52002
 H233 H 0.26662 -0.05409 0.50943
 H234 H 0.19101 -0.04949 0.50773
 H235 H 0.21226 0.08534 0.55243
 H236 H 0.28787 0.08075 0.55412
 C237 C -0.00847 0.47263 1.36361
 C238 C -0.01058 0.46996 1.32610
 C239 C -0.01284 0.46798 1.28143
 C240 C -0.05186 0.45531 1.26556
 C241 C -0.05456 0.45616 1.22266
 C242 C -0.01824 0.46965 1.19547
 C243 C 0.02094 0.48152 1.21115
 C244 C 0.02364 0.48066 1.25405
 C245 C -0.02191 0.47431 1.15245
 C246 C -0.02583 0.47983 1.11710
 H247 H -0.08028 0.44561 1.28650
 H248 H -0.08508 0.44725 1.21092
 H249 H 0.04914 0.49233 1.19047
 H250 H 0.05394 0.49069 1.26606
 C251 C 0.01017 0.49437 0.60555
 C252 C 0.01446 0.49527 0.64237
 C253 C 0.02054 0.49557 0.68593
 C254 C 0.01380 0.45728 0.70318
 C255 C 0.02123 0.45724 0.74499
 C256 C 0.03549 0.49548 0.76972
 C257 C 0.04196 0.53380 0.75257
 C258 C 0.03453 0.53384 0.71076
 C259 C 0.04381 0.49549 0.81253
 C260 C 0.05092 0.49611 0.84846
 H261 H 0.00315 0.42747 0.68421
 H262 H 0.01613 0.42743 0.75792
 H263 H 0.05298 0.56356 0.77141
 H264 H 0.04001 0.56360 0.69771
   
