data_POSCAR
  _audit_creation_date              2014-09-24
  _audit_creation_method            'ToBaCCo'
  _symmetry_space_group_name_H-M    'P1'
  _symmetry_Int_Tables_number       1
  _symmetry_cell_setting            triclinic
  loop_
  _symmetry_equiv_pos_as_xyz
 x,y,z
_cell_length_a 37.7908
_cell_length_b 37.7893
_cell_length_c 37.7893
_cell_angle_alpha 89.744200
_cell_angle_beta 90.000000
_cell_angle_gamma 90.000000
loop_
  _atom_site_label
  _atom_site_type_symbol
  _atom_site_fract_x
  _atom_site_fract_y
  _atom_site_fract_z
N1 N 0.22043 0.21919 0.21922
 N2 N -0.21936 0.77940 0.22060
 N3 N -0.21936 0.22057 -0.22057
 N4 N 0.22043 0.78078 -0.21919
 N5 N 0.21708 1.21789 0.78210
 N6 N 0.78327 0.78407 0.78410
 N7 N 0.21708 0.78208 1.21792
 N8 N 0.78327 1.21590 1.21593
 N9 N 0.53801 1.06276 0.96175
 N10 N 0.56366 1.08579 0.95606
 N11 N 0.46358 1.03823 0.93726
 N12 N 0.43769 1.04371 0.91444
 N13 N 0.46358 1.06274 0.96177
 N14 N 0.43769 1.08556 0.95629
 N15 N 0.53801 1.03825 0.93724
 N16 N 0.56366 1.04394 0.91421
 C17 C 0.57956 1.07361 0.92638
 C18 C 0.42166 1.07328 0.92672
 N19 N 0.46363 0.93738 0.96203
 N20 N 0.43794 0.91442 0.95648
 N21 N 0.53806 0.96202 0.93743
 N22 N 0.56398 0.95666 0.91465
 N23 N 0.53806 0.93740 0.96204
 N24 N 0.56398 0.91463 0.95669
 N25 N 0.46363 0.96200 0.93741
 N26 N 0.43794 0.95645 0.91445
 Mn27 Mn 0.50082 1.00013 0.93693
 C28 C 0.42201 0.92674 0.92677
 C29 C 0.58003 0.92705 0.92708
 N30 N 0.46363 1.06259 1.03800
 N31 N 0.43794 1.08555 1.04354
 N32 N 0.53806 1.03795 1.06260
 N33 N 0.56398 1.04331 1.08537
 N34 N 0.53806 1.06257 1.03798
 N35 N 0.56398 1.08534 1.04333
 N36 N 0.46363 1.03797 1.06261
 N37 N 0.43794 1.04352 1.08558
 Mn38 Mn 0.50082 1.06307 0.99987
 C39 C 0.42201 1.07323 1.07326
 C40 C 0.58003 1.07292 1.07294
 N41 N 0.53801 0.93722 1.03828
 N42 N 0.56366 0.91418 1.04397
 N43 N 0.46358 0.96174 1.06277
 N44 N 0.43769 0.95626 1.08559
 N45 N 0.46358 0.93723 1.03826
 N46 N 0.43769 0.91441 1.04374
 N47 N 0.53801 0.96172 1.06278
 N48 N 0.56366 0.95603 1.08581
 Mn49 Mn 0.50082 0.93690 1.00015
 Mn50 Mn 0.50082 0.99985 1.06310
 Cl51 Cl 0.50082 0.99999 1.00001
 C52 C 0.57956 0.92636 1.07364
 C53 C 0.42166 0.92669 1.07331
 N54 N 0.03749 0.46221 0.06252
 N55 N 0.04319 0.43639 0.08545
 N56 N 0.06202 0.53687 0.03828
 N57 N 0.08481 0.56272 0.04380
 N58 N 0.03747 0.53665 0.06286
 N59 N 0.04290 0.56235 0.08577
 N60 N 0.06204 0.46245 0.03795
 N61 N 0.08510 0.43680 0.04347
 C62 C 0.07291 0.42063 0.07312
 C63 C 0.07248 0.57850 0.07346
 N64 N 0.03749 0.53776 -0.06250
 N65 N 0.04319 0.56358 -0.08542
 N66 N 0.06202 0.46310 -0.03826
 N67 N 0.08482 0.43725 -0.04377
 N68 N 0.03747 0.46333 -0.06283
 N69 N 0.04290 0.43763 -0.08574
 N70 N 0.06204 0.53752 -0.03792
 N71 N 0.08510 0.56317 -0.04345
 Mn72 Mn 0.06243 0.49999 0.00001
 C73 C 0.07291 0.57934 -0.07310
 C74 C 0.07248 0.42147 -0.07344
 N75 N -0.03875 0.53659 0.06287
 N76 N -0.04429 0.56211 0.08595
 N77 N -0.06332 0.46239 0.03796
 N78 N -0.08611 0.43644 0.04328
 N79 N -0.03874 0.46217 0.06251
 N80 N -0.04414 0.43606 0.08519
 N81 N -0.06333 0.53683 0.03833
 N82 N -0.08626 0.56252 0.04403
 Mn83 Mn -0.00064 0.49940 0.06310
 C84 C -0.07395 0.57819 0.07377
 C85 C -0.07374 0.42013 0.07279
 N86 N -0.03875 0.46338 -0.06285
 N87 N -0.04429 0.43786 -0.08592
 N88 N -0.06332 0.53758 -0.03793
 N89 N -0.08611 0.56354 -0.04325
 N90 N -0.03874 0.53780 -0.06248
 N91 N -0.04414 0.56391 -0.08517
 N92 N -0.06333 0.46314 -0.03830
 N93 N -0.08626 0.43745 -0.04401
 Mn94 Mn -0.00064 0.50057 -0.06307
 Mn95 Mn -0.06374 0.49999 0.00001
 Cl96 Cl -0.00065 0.49999 0.00001
 C97 C -0.07395 0.42179 -0.07375
 C98 C -0.07374 0.57985 -0.07276
 N99 N 0.93667 0.03830 0.53686
 N100 N 0.91374 0.04401 0.56255
 N101 N 0.96126 0.06248 0.46219
 N102 N 0.95586 0.08516 0.43609
 N103 N 0.93668 0.03793 0.46241
 N104 N 0.91389 0.04325 0.43646
 N105 N 0.96125 0.06285 0.53662
 N106 N 0.95571 0.08592 0.56214
 C107 C 0.92605 0.07375 0.57821
 C108 C 0.92626 0.07276 0.42015
 N109 N 1.06204 0.03792 0.46248
 N110 N 1.08510 0.04345 0.43683
 N111 N 1.03747 0.06283 0.53667
 N112 N 1.04290 0.08574 0.56237
 N113 N 1.06202 0.03826 0.53689
 N114 N 1.08481 0.04377 0.56275
 N115 N 1.03749 0.06249 0.46224
 N116 N 1.04319 0.08542 0.43642
 Mn117 Mn 0.99936 0.06307 0.49943
 C118 C 1.07291 0.07310 0.42066
 C119 C 1.07248 0.07343 0.57853
 N120 N 0.93667 -0.03833 0.46317
 N121 N 0.91374 -0.04404 0.43748
 N122 N 0.96126 -0.06251 0.53783
 N123 N 0.95586 -0.08519 0.56393
 N124 N 0.93668 -0.03796 0.53761
 N125 N 0.91389 -0.04328 0.56356
 N126 N 0.96125 -0.06288 0.46341
 N127 N 0.95571 -0.08595 0.43789
 Mn128 Mn 0.93626 -0.00001 0.50001
 C129 C 0.92605 -0.07377 0.42181
 C130 C 0.92626 -0.07279 0.57987
 N131 N 1.06204 -0.03795 0.53755
 N132 N 1.08510 -0.04348 0.56320
 N133 N 1.03747 -0.06286 0.46335
 N134 N 1.04290 -0.08577 0.43765
 N135 N 1.06202 -0.03829 0.46313
 N136 N 1.08481 -0.04380 0.43728
 N137 N 1.03749 -0.06252 0.53778
 N138 N 1.04319 -0.08545 0.56361
 Mn139 Mn 1.06243 -0.00001 0.50001
 Mn140 Mn 0.99936 -0.06310 0.50060
 Cl141 Cl 0.99935 -0.00001 0.50001
 C142 C 1.07291 -0.07313 0.57937
 C143 C 1.07248 -0.07346 0.42150
 C144 C 1.14043 0.09469 0.34981
 C145 C 1.12699 0.12646 0.33617
 C146 C 1.09524 0.14016 0.34939
 C147 C 1.07726 0.12246 0.37653
 C148 C 1.20034 0.19908 0.24253
 C149 C 1.12249 0.07696 0.37694
 C150 C 1.14647 0.14568 0.30961
 C151 C 1.16316 0.16216 0.28793
 C152 C 1.18306 0.18187 0.26318
 C153 C 1.09091 0.09087 0.39079
 H154 H 1.16501 0.08389 0.33981
 H155 H 1.08465 0.16477 0.33906
 H156 H 1.05297 0.13375 0.38666
 H157 H 1.13358 0.05264 0.38740
 C158 C 0.90462 -0.14112 0.35112
 C159 C 0.87291 -0.12762 0.33749
 C160 C 0.85916 -0.09593 0.35070
 C161 C 0.87677 -0.07803 0.37780
 C162 C 0.80068 -0.20059 0.24386
 C163 C 0.92227 -0.12327 0.37822
 C164 C 0.85381 -0.14699 0.31093
 C165 C 0.83743 -0.16358 0.28924
 C166 C 0.81781 -0.18338 0.26449
 C167 C 0.90832 -0.09172 0.39204
 H168 H 0.91546 -0.16567 0.34114
 H169 H 0.83460 -0.08529 0.34038
 H170 H 0.86546 -0.05377 0.38791
 H171 H 0.94655 -0.13439 0.38866
 C172 C 0.85916 0.09590 0.64933
 C173 C 0.87291 0.12759 0.66254
 C174 C 0.90462 0.14109 0.64890
 C175 C 0.92227 0.12324 0.62180
 C176 C 0.80068 0.20056 0.75617
 C177 C 0.87677 0.07800 0.62223
 C178 C 0.85381 0.14696 0.68910
 C179 C 0.83743 0.16355 0.71078
 C180 C 0.81781 0.18335 0.73554
 C181 C 0.90832 0.09169 0.60798
 H182 H 0.83460 0.08526 0.65965
 H183 H 0.91546 0.16564 0.65889
 H184 H 0.94655 0.13436 0.61137
 H185 H 0.86546 0.05374 0.61212
 C186 C 1.09524 -0.14019 0.65064
 C187 C 1.12699 -0.12649 0.66386
 C188 C 1.14043 -0.09473 0.65021
 C189 C 1.12249 -0.07699 0.62308
 C190 C 1.20034 -0.19911 0.75750
 C191 C 1.07726 -0.12249 0.62350
 C192 C 1.14647 -0.14571 0.69041
 C193 C 1.16316 -0.16219 0.71209
 C194 C 1.18306 -0.18190 0.73684
 C195 C 1.09091 -0.09090 0.60924
 H196 H 1.08465 -0.16480 0.66096
 H197 H 1.16501 -0.08393 0.66021
 H198 H 1.13358 -0.05267 0.61263
 H199 H 1.05297 -0.13378 0.61337
 C200 C 0.35093 1.09488 1.14033
 C201 C 0.33748 1.12662 1.12665
 C202 C 0.35093 1.14030 1.09490
 C203 C 0.37809 1.12260 1.07716
 C204 C 0.24372 1.19918 1.19920
 C205 C 0.37809 1.07713 1.12263
 C206 C 0.31088 1.14584 1.14587
 C207 C 0.28916 1.16232 1.16234
 C208 C 0.26438 1.18202 1.18204
 C209 C 0.39215 1.09102 1.09105
 H210 H 0.34075 1.08409 1.16492
 H211 H 0.34075 1.16489 1.08412
 H212 H 0.38839 1.13387 1.05286
 H213 H 0.38838 1.05283 1.13390
 C214 C 0.35093 0.90509 0.85969
 C215 C 0.33748 0.87335 0.87338
 C216 C 0.35093 0.85967 0.90512
 C217 C 0.37809 0.87737 0.92287
 C218 C 0.24372 0.80079 0.80082
 C219 C 0.37809 0.92284 0.87740
 C220 C 0.31088 0.85413 0.85416
 C221 C 0.28916 0.83765 0.83768
 C222 C 0.26438 0.81795 0.81798
 C223 C 0.39215 0.90895 0.90898
 H224 H 0.34076 0.91588 0.83510
 H225 H 0.34075 0.83508 0.91591
 H226 H 0.38838 0.86610 0.94717
 H227 H 0.38839 0.94714 0.86613
 C228 C 0.65044 0.85903 1.09575
 C229 C 0.66385 0.87254 1.12746
 C230 C 0.65044 0.90425 1.14097
 C231 C 0.62337 0.92214 1.12313
 C232 C 0.75736 0.79950 1.20049
 C233 C 0.62337 0.87687 1.07786
 C234 C 0.69036 0.85317 1.14683
 C235 C 0.71201 0.83658 1.16342
 C236 C 0.73674 0.81676 1.18324
 C237 C 0.60934 0.90843 1.09157
 H238 H 0.66058 0.83446 1.08510
 H239 H 0.66058 0.91490 1.16554
 H240 H 0.61310 0.94642 1.13426
 H241 H 0.61310 0.86573 1.05358
 C242 C 0.65044 1.14094 0.90428
 C243 C 0.66385 1.12743 0.87256
 C244 C 0.65044 1.09572 0.85905
 C245 C 0.62337 1.07783 0.87690
 C246 C 0.75736 1.20047 0.79953
 C247 C 0.62336 1.12310 0.92217
 C248 C 0.69036 1.14680 0.85320
 C249 C 0.71201 1.16339 0.83661
 C250 C 0.73674 1.18321 0.81679
 C251 C 0.60934 1.09155 0.90845
 H252 H 0.66058 1.16551 0.91493
 H253 H 0.66058 1.08507 0.83449
 H254 H 0.61310 1.05355 0.86576
 H255 H 0.61310 1.13424 0.94644
 C256 C 0.14043 0.34979 0.09472
 C257 C 0.12699 0.33614 0.12649
 C258 C 0.09525 0.34936 0.14019
 C259 C 0.07726 0.37650 0.12249
 C260 C 0.20034 0.24250 0.19911
 C261 C 0.12249 0.37692 0.07698
 C262 C 0.14647 0.30959 0.14571
 C263 C 0.16316 0.28791 0.16218
 C264 C 0.18306 0.26316 0.18190
 C265 C 0.09091 0.39076 0.09090
 H266 H 0.16502 0.33979 0.08392
 H267 H 0.08465 0.33904 0.16480
 H268 H 0.05297 0.38663 0.13378
 H269 H 0.13358 0.38737 0.05267
 C270 C -0.09538 0.35110 -0.14109
 C271 C -0.12709 0.33746 -0.12760
 C272 C -0.14084 0.35067 -0.09590
 C273 C -0.12323 0.37777 -0.07800
 C274 C -0.19932 0.24383 -0.20056
 C275 C -0.07773 0.37820 -0.12324
 C276 C -0.14619 0.31090 -0.14696
 C277 C -0.16258 0.28922 -0.16355
 C278 C -0.18219 0.26446 -0.18335
 C279 C -0.09168 0.39201 -0.09170
 H280 H -0.08454 0.34111 -0.16564
 H281 H -0.16540 0.34035 -0.08526
 H282 H -0.13454 0.38788 -0.05374
 H283 H -0.05345 0.38863 -0.13436
 C284 C 0.09524 0.65061 -0.14016
 C285 C 0.12699 0.66383 -0.12646
 C286 C 0.14043 0.65019 -0.09470
 C287 C 0.12249 0.62305 -0.07696
 C288 C 0.20034 0.75747 -0.19909
 C289 C 0.07726 0.62347 -0.12246
 C290 C 0.14647 0.69038 -0.14568
 C291 C 0.16315 0.71206 -0.16216
 C292 C 0.18306 0.73682 -0.18188
 C293 C 0.09091 0.60921 -0.09087
 H294 H 0.08465 0.66094 -0.16477
 H295 H 0.16501 0.66019 -0.08390
 H296 H 0.13358 0.61260 -0.05264
 H297 H 0.05297 0.61334 -0.13375
 C298 C -0.09538 0.64887 0.14111
 C299 C -0.12709 0.66251 0.12762
 C300 C -0.14084 0.64930 0.09592
 C301 C -0.12323 0.62220 0.07803
 C302 C -0.19932 0.75614 0.20058
 C303 C -0.07773 0.62178 0.12326
 C304 C -0.14619 0.68907 0.14699
 C305 C -0.16257 0.71076 0.16358
 C306 C -0.18219 0.73551 0.18338
 C307 C -0.09168 0.60796 0.09172
 H308 H -0.08454 0.65886 0.16566
 H309 H -0.16540 0.65962 0.08529
 H310 H -0.13454 0.61209 0.05376
 H311 H -0.05345 0.61134 0.13439
 C312 C 1.13883 0.09457 0.65047
 C313 C 1.12514 0.12621 0.66388
 C314 C 1.09365 0.14003 0.65005
 C315 C 1.07616 0.12256 0.62259
 C316 C 1.19710 0.19796 0.75871
 C317 C 1.12138 0.07706 0.62302
 C318 C 1.14412 0.14519 0.69083
 C319 C 1.16044 0.16145 0.71282
 C320 C 1.18001 0.18093 0.73789
 C321 C 1.09005 0.09107 0.60860
 H322 H 1.16323 0.08368 0.66092
 H323 H 1.08286 0.16455 0.66017
 H324 H 1.05204 0.13392 0.61203
 H325 H 1.13265 0.05282 0.61279
 C326 C 0.90540 -0.13886 0.65256
 C327 C 0.87381 -0.12512 0.66612
 C328 C 0.85995 -0.09368 0.65215
 C329 C 0.87732 -0.07629 0.62440
 C330 C 0.80217 -0.19698 0.76183
 C331 C 0.92281 -0.12152 0.62482
 C332 C 0.85491 -0.14403 0.69336
 C333 C 0.83869 -0.16031 0.71557
 C334 C 0.81923 -0.17985 0.74085
 C335 C 0.90875 -0.09023 0.61026
 H336 H 0.91633 -0.16322 0.66312
 H337 H 0.83547 -0.08285 0.66238
 H338 H 0.86591 -0.05221 0.61373
 H339 H 0.94701 -0.13283 0.61449
 C340 C 1.09365 -0.14006 0.34998
 C341 C 1.12514 -0.12624 0.33615
 C342 C 1.13883 -0.09460 0.34956
 C343 C 1.12138 -0.07709 0.37701
 C344 C 1.19710 -0.19799 0.24131
 C345 C 1.07616 -0.12259 0.37743
 C346 C 1.14412 -0.14522 0.30920
 C347 C 1.16044 -0.16148 0.28720
 C348 C 1.18001 -0.18096 0.26213
 C349 C 1.09005 -0.09110 0.39143
 H350 H 1.08286 -0.16458 0.33985
 H351 H 1.16323 -0.08371 0.33911
 H352 H 1.13265 -0.05285 0.38723
 H353 H 1.05204 -0.13395 0.38800
 C354 C 0.85995 0.09365 0.34788
 C355 C 0.87381 0.12509 0.33390
 C356 C 0.90540 0.13883 0.34746
 C357 C 0.92281 0.12149 0.37520
 C358 C 0.80217 0.19695 0.23819
 C359 C 0.87732 0.07626 0.37563
 C360 C 0.85492 0.14400 0.30667
 C361 C 0.83870 0.16028 0.28446
 C362 C 0.81923 0.17982 0.25917
 C363 C 0.90875 0.09020 0.38977
 H364 H 0.83547 0.08283 0.33765
 H365 H 0.91633 0.16319 0.33690
 H366 H 0.94701 0.13280 0.38554
 H367 H 0.86591 0.05219 0.38630
 C368 C 0.13883 0.34953 -0.09458
 C369 C 0.12514 0.33612 -0.12622
 C370 C 0.09365 0.34995 -0.14004
 C371 C 0.07616 0.37741 -0.12256
 C372 C 0.19710 0.24129 -0.19796
 C373 C 0.12138 0.37698 -0.07706
 C374 C 0.14412 0.30917 -0.14519
 C375 C 0.16044 0.28717 -0.16145
 C376 C 0.18001 0.26211 -0.18093
 C377 C 0.09005 0.39140 -0.09107
 H378 H 0.16323 0.33908 -0.08369
 H379 H 0.08286 0.33983 -0.16455
 H380 H 0.05204 0.38797 -0.13392
 H381 H 0.13265 0.38721 -0.05283
 C382 C -0.09460 0.34743 0.13886
 C383 C -0.12619 0.33388 0.12512
 C384 C -0.14005 0.34785 0.09368
 C385 C -0.12268 0.37560 0.07629
 C386 C -0.19783 0.23817 0.19697
 C387 C -0.07719 0.37518 0.12151
 C388 C -0.14509 0.30664 0.14403
 C389 C -0.16131 0.28443 0.16031
 C390 C -0.18077 0.25914 0.17985
 C391 C -0.09125 0.38974 0.09023
 H392 H -0.08367 0.33688 0.16322
 H393 H -0.16453 0.33762 0.08285
 H394 H -0.13409 0.38627 0.05221
 H395 H -0.05299 0.38551 0.13283
 C396 C -0.14005 0.65212 -0.09365
 C397 C -0.12618 0.66610 -0.12509
 C398 C -0.09460 0.65254 -0.13883
 C399 C -0.07718 0.62480 -0.12149
 C400 C -0.19783 0.76180 -0.19695
 C401 C -0.12268 0.62437 -0.07626
 C402 C -0.14508 0.69333 -0.14400
 C403 C -0.16130 0.71554 -0.16028
 C404 C -0.18077 0.74083 -0.17983
 C405 C -0.09124 0.61023 -0.09020
 H406 H -0.16453 0.66235 -0.08283
 H407 H -0.08367 0.66310 -0.16319
 H408 H -0.05299 0.61446 -0.13280
 H409 H -0.13409 0.61370 -0.05219
 C410 C 0.13883 0.65044 0.09460
 C411 C 0.12514 0.66385 0.12624
 C412 C 0.09365 0.65002 0.14006
 C413 C 0.07616 0.62256 0.12258
 C414 C 0.19710 0.75869 0.19799
 C415 C 0.12138 0.62299 0.07709
 C416 C 0.14412 0.69080 0.14521
 C417 C 0.16044 0.71280 0.16148
 C418 C 0.18001 0.73787 0.18096
 C419 C 0.09004 0.60857 0.09109
 H420 H 0.16323 0.66089 0.08371
 H421 H 0.08286 0.66014 0.16458
 H422 H 0.05204 0.61200 0.13395
 H423 H 0.13265 0.61276 0.05285
 C424 C 0.34959 1.09447 0.86030
 C425 C 0.33591 1.12599 0.87401
 C426 C 0.34959 1.13969 0.90552
 C427 C 0.37718 1.12223 0.92303
 C428 C 0.24059 1.19791 0.80209
 C429 C 0.37718 1.07697 0.87776
 C430 C 0.30882 1.14498 0.85502
 C431 C 0.28671 1.16128 0.83872
 C432 C 0.26151 1.18082 0.81918
 C433 C 0.39145 1.09087 0.90913
 H434 H 0.33926 1.08367 0.83589
 H435 H 0.33926 1.16411 0.91632
 H436 H 0.38762 1.13351 0.94716
 H437 H 0.38762 1.05284 0.86649
 C438 C 0.34959 0.86028 1.09450
 C439 C 0.33591 0.87398 1.12602
 C440 C 0.34959 0.90550 1.13972
 C441 C 0.37718 0.92300 1.12226
 C442 C 0.24059 0.80207 1.19793
 C443 C 0.37718 0.87774 1.07700
 C444 C 0.30882 0.85499 1.14500
 C445 C 0.28671 0.83869 1.16130
 C446 C 0.26151 0.81915 1.18085
 C447 C 0.39145 0.90910 1.09090
 H448 H 0.33926 0.83586 1.08370
 H449 H 0.33926 0.91630 1.16414
 H450 H 0.38762 0.94714 1.13354
 H451 H 0.38762 0.86646 1.05286
 C452 C 0.65218 1.13917 1.09377
 C453 C 0.66589 1.12531 1.12534
 C454 C 0.65218 1.09375 1.13919
 C455 C 0.62457 1.07635 1.12184
 C456 C 0.76111 1.19700 1.19702
 C457 C 0.62457 1.12181 1.07637
 C458 C 0.69298 1.14421 1.14423
 C459 C 0.71508 1.16044 1.16047
 C460 C 0.74024 1.17993 1.17996
 C461 C 0.61028 1.09040 1.09042
 H462 H 0.66253 1.16363 1.08285
 H463 H 0.66253 1.08283 1.16365
 H464 H 0.61411 1.05217 1.13323
 H465 H 0.61411 1.13321 1.05220
 C466 C 0.65218 0.86080 0.90625
 C467 C 0.66589 0.87466 0.87469
 C468 C 0.65218 0.90623 0.86083
 C469 C 0.62457 0.92363 0.87819
 C470 C 0.76111 0.80297 0.80300
 C471 C 0.62457 0.87816 0.92365
 C472 C 0.69298 0.85576 0.85579
 C473 C 0.71508 0.83953 0.83955
 C474 C 0.74024 0.82004 0.82007
 C475 C 0.61028 0.90957 0.90960
 H476 H 0.66253 0.83634 0.91717
 H477 H 0.66253 0.91714 0.83637
 H478 H 0.61411 0.94780 0.86679
 H479 H 0.61411 0.86676 0.94783
   
