data_POSCAR
  _audit_creation_date              2014-09-24
  _audit_creation_method            'ToBaCCo'
  _symmetry_space_group_name_H-M    'P1'
  _symmetry_Int_Tables_number       1
  _symmetry_cell_setting            triclinic
  loop_
  _symmetry_equiv_pos_as_xyz
 x,y,z
_cell_length_a 36.9626
_cell_length_b 37.5419
_cell_length_c 36.1098
_cell_angle_alpha 90.154000
_cell_angle_beta 90.000000
_cell_angle_gamma 90.000000
loop_
  _atom_site_label
  _atom_site_type_symbol
  _atom_site_fract_x
  _atom_site_fract_y
  _atom_site_fract_z
C1 C 1.25201 0.25002 0.24999
 C2 C 0.74951 -0.24998 0.24999
 C3 C 0.74976 0.25002 -0.25001
 C4 C 1.25159 -0.24998 -0.25001
 C5 C 0.25035 0.25002 0.74999
 C6 C 0.74856 0.75002 0.74999
 C7 C 0.74818 0.25002 0.24999
 C8 C 0.25027 0.75002 0.24999
 N9 N 0.96255 0.06279 0.04074
 N10 N 0.93890 0.08800 0.04869
 N11 N 1.03864 0.03819 0.06629
 N12 N 1.06241 0.04610 0.09234
 N13 N 1.03851 0.06278 0.04049
 N14 N 1.06221 0.08799 0.04831
 N15 N 0.96265 0.03824 0.06658
 N16 N 0.93907 0.04620 0.09282
 C17 C 0.92410 0.07712 0.08104
 C18 C 1.07725 0.07704 0.08050
 N19 N 1.03862 -0.06350 0.04037
 N20 N 1.06186 -0.08903 0.04846
 N21 N 0.96269 -0.03877 0.06642
 N22 N 0.93906 -0.04660 0.09258
 N23 N 0.96263 -0.06340 0.04053
 N24 N 0.93894 -0.08856 0.04838
 N25 N 1.03870 -0.03889 0.06630
 N26 N 1.06200 -0.04713 0.09268
 Mn27 Mn 1.00067 -0.00030 0.06672
 C28 C 1.07664 -0.07828 0.08093
 C29 C 0.92410 -0.07753 0.08071
 N30 N 1.03826 0.06280 -0.03938
 N31 N 1.06173 0.08812 -0.04740
 N32 N 0.96218 0.03818 -0.06507
 N33 N 0.93876 0.04629 -0.09135
 N34 N 0.96227 0.06282 -0.03917
 N35 N 0.93890 0.08824 -0.04717
 N36 N 1.03819 0.03817 -0.06529
 N37 N 1.06160 0.04618 -0.09161
 Mn38 Mn 1.00040 0.06305 0.00068
 C39 C 1.07645 0.07720 -0.07984
 C40 C 0.92405 0.07738 -0.07957
 N41 N 0.96236 -0.06347 -0.03936
 N42 N 0.93878 -0.08876 -0.04730
 N43 N 1.03821 -0.03881 -0.06537
 N44 N 1.06184 -0.04666 -0.09157
 N45 N 1.03833 -0.06341 -0.03957
 N46 N 1.06203 -0.08856 -0.04754
 N47 N 0.96224 -0.03886 -0.06514
 N48 N 0.93858 -0.04684 -0.09129
 Mn49 Mn 1.00048 -0.06371 0.00049
 Mn50 Mn 1.00020 -0.00034 -0.06553
 Cl51 Cl 1.00044 -0.00032 0.00059
 C52 C 0.92379 -0.07784 -0.07954
 C53 C 1.07684 -0.07757 -0.07984
 N54 N 1.03864 0.46185 0.43369
 N55 N 1.06241 0.45394 0.40764
 N56 N 0.96255 0.43725 0.45924
 N57 N 0.93890 0.41204 0.45129
 N58 N 0.96265 0.46180 0.43340
 N59 N 0.93907 0.45384 0.40716
 N60 N 1.03851 0.43726 0.45949
 N61 N 1.06221 0.41205 0.45167
 C62 C 1.07725 0.42300 0.41948
 C63 C 0.92410 0.42292 0.41894
 N64 N 0.96218 0.46186 0.56505
 N65 N 0.93876 0.45375 0.59133
 N66 N 1.03826 0.43724 0.53936
 N67 N 1.06173 0.41192 0.54738
 N68 N 1.03819 0.46187 0.56527
 N69 N 1.06160 0.45386 0.59159
 N70 N 0.96227 0.43722 0.53915
 N71 N 0.93890 0.41180 0.54715
 Mn72 Mn 1.00040 0.43699 0.49930
 C73 C 0.92405 0.42265 0.57955
 C74 C 1.07645 0.42283 0.57982
 N75 N 0.96269 0.53881 0.43356
 N76 N 0.93906 0.54664 0.40740
 N77 N 1.03862 0.56354 0.45961
 N78 N 1.06186 0.58907 0.45152
 N79 N 1.03870 0.53892 0.43368
 N80 N 1.06200 0.54717 0.40730
 N81 N 0.96263 0.56344 0.45945
 N82 N 0.93894 0.58860 0.45160
 Mn83 Mn 1.00067 0.50034 0.43326
 C84 C 0.92410 0.57757 0.41927
 C85 C 1.07664 0.57832 0.41905
 N86 N 1.03821 0.53885 0.56535
 N87 N 1.06184 0.54670 0.59155
 N88 N 0.96236 0.56351 0.53934
 N89 N 0.93878 0.58880 0.54728
 N90 N 0.96224 0.53890 0.56512
 N91 N 0.93858 0.54688 0.59127
 N92 N 1.03833 0.56345 0.53955
 N93 N 1.06203 0.58860 0.54752
 Mn94 Mn 1.00020 0.50038 0.56551
 Mn95 Mn 1.00048 0.56375 0.49949
 Cl96 Cl 1.00044 0.50036 0.49939
 C97 C 1.07684 0.57761 0.57982
 C98 C 0.92379 0.57788 0.57952
 N99 N 0.56359 0.03730 0.53943
 N100 N 0.58890 0.06104 0.54688
 N101 N 0.53870 -0.03739 0.56550
 N102 N 0.54627 -0.06117 0.59123
 N103 N 0.56367 -0.03748 0.53965
 N104 N 0.58885 -0.06131 0.54707
 N105 N 0.53862 0.03743 0.56529
 N106 N 0.54635 0.06126 0.59106
 C107 C 0.57761 0.07610 0.57897
 C108 C 0.57746 -0.07618 0.57912
 N109 N 0.43567 -0.03771 0.53954
 N110 N 0.41074 -0.06182 0.54679
 N111 N 0.46050 0.03728 0.56518
 N112 N 0.45291 0.06133 0.59077
 N113 N 0.43551 0.03705 0.53934
 N114 N 0.41031 0.06093 0.54664
 N115 N 0.46064 -0.03751 0.56540
 N116 N 0.45329 -0.06150 0.59098
 Mn117 Mn 0.49960 -0.00004 0.56572
 C118 C 0.42226 -0.07673 0.57877
 C119 C 0.42169 0.07616 0.57860
 N120 N 0.56361 -0.03793 0.45998
 N121 N 0.58869 -0.06196 0.45287
 N122 N 0.53859 0.03663 0.43381
 N123 N 0.54608 0.06049 0.40813
 N124 N 0.56352 0.03682 0.45970
 N125 N 0.58857 0.06081 0.45237
 N126 N 0.53864 -0.03817 0.43411
 N127 N 0.54615 -0.06238 0.40867
 Mn128 Mn 0.56390 -0.00032 0.49968
 C129 C 0.57727 -0.07728 0.42098
 C130 C 0.57717 0.07566 0.42031
 N131 N 0.43554 0.03659 0.45965
 N132 N 0.41062 0.06074 0.45249
 N133 N 0.46049 -0.03833 0.43392
 N134 N 0.45260 -0.06197 0.40799
 N135 N 0.43552 -0.03819 0.45978
 N136 N 0.41006 -0.06174 0.45216
 N137 N 0.46052 0.03650 0.43380
 N138 N 0.45321 0.06060 0.40833
 Mn139 Mn 0.43525 -0.00057 0.49959
 Mn140 Mn 0.49957 -0.00085 0.43353
 Cl141 Cl 0.49958 -0.00045 0.49963
 C142 C 0.42217 0.07577 0.42058
 C143 C 0.42125 -0.07671 0.41998
 N144 N 0.56361 0.53796 0.04000
 N145 N 0.58869 0.56200 0.04711
 N146 N 0.53859 0.46341 0.06617
 N147 N 0.54608 0.43954 0.09185
 N148 N 0.56352 0.46322 0.04028
 N149 N 0.58857 0.43923 0.04761
 N150 N 0.53864 0.53821 0.06587
 N151 N 0.54615 0.56242 0.09131
 C152 C 0.57727 0.57732 0.07900
 C153 C 0.57717 0.42438 0.07967
 N154 N 0.43554 0.46345 0.04033
 N155 N 0.41062 0.43930 0.04749
 N156 N 0.46049 0.53836 0.06606
 N157 N 0.45260 0.56201 0.09199
 N158 N 0.43552 0.53823 0.04020
 N159 N 0.41006 0.56178 0.04782
 N160 N 0.46052 0.46354 0.06617
 N161 N 0.45321 0.43944 0.09165
 Mn162 Mn 0.49957 0.50089 0.06645
 C163 C 0.42217 0.42427 0.07940
 C164 C 0.42125 0.57675 0.08000
 N165 N 0.56359 0.46273 -0.03945
 N166 N 0.58890 0.43900 -0.04691
 N167 N 0.53870 0.53743 -0.06552
 N168 N 0.54627 0.56121 -0.09125
 N169 N 0.56367 0.53751 -0.03967
 N170 N 0.58885 0.56135 -0.04709
 N171 N 0.53862 0.46261 -0.06531
 N172 N 0.54635 0.43877 -0.09108
 Mn173 Mn 0.56390 0.50035 0.00030
 C174 C 0.57761 0.42394 -0.07899
 C175 C 0.57746 0.57622 -0.07915
 N176 N 0.43567 0.53774 -0.03956
 N177 N 0.41074 0.56185 -0.04681
 N178 N 0.46050 0.46276 -0.06521
 N179 N 0.45291 0.43871 -0.09079
 N180 N 0.43551 0.46299 -0.03937
 N181 N 0.41031 0.43911 -0.04666
 N182 N 0.46064 0.53755 -0.06542
 N183 N 0.45329 0.56154 -0.09100
 Mn184 Mn 0.43525 0.50061 0.00039
 Mn185 Mn 0.49960 0.50008 -0.06574
 Cl186 Cl 0.49958 0.50049 0.00035
 C187 C 0.42226 0.57677 -0.07879
 C188 C 0.42169 0.42388 -0.07862
 C189 C 1.13838 0.15277 0.11009
 C190 C 1.14937 0.14143 0.14522
 C191 C 1.13798 0.10829 0.15855
 C192 C 1.11515 0.08684 0.13711
 C193 C 1.22931 0.22634 0.22754
 C194 C 1.11557 0.13138 0.08863
 C195 C 1.17150 0.16427 0.16789
 C196 C 1.18974 0.18372 0.18682
 C197 C 1.21099 0.20670 0.20886
 C198 C 1.10341 0.09838 0.10210
 H199 H 1.14705 0.17836 0.09949
 H200 H 1.14634 0.09925 0.18571
 H201 H 1.10620 0.06155 0.14818
 H202 H 1.10697 0.14094 0.06176
 C203 C 1.13810 0.65311 0.60977
 C204 C 1.14889 0.64171 0.64494
 C205 C 1.13730 0.60861 0.65820
 C206 C 1.11448 0.58726 0.63664
 C207 C 1.22888 0.72634 0.72753
 C208 C 1.11530 0.63183 0.58818
 C209 C 1.17103 0.66445 0.66772
 C210 C 1.18928 0.68382 0.68673
 C211 C 1.21055 0.70673 0.70882
 C212 C 1.10296 0.59886 0.60158
 H213 H 1.14692 0.67867 0.59923
 H214 H 1.14550 0.59952 0.68539
 H215 H 1.10539 0.56200 0.64765
 H216 H 1.10687 0.64144 0.56128
 C217 C 0.60851 0.13763 0.65598
 C218 C 0.64199 0.14912 0.64235
 C219 C 0.65362 0.13793 0.60733
 C220 C 0.63221 0.11480 0.58629
 C221 C 0.72668 0.22834 0.72581
 C222 C 0.58704 0.11449 0.63497
 C223 C 0.66496 0.17138 0.66477
 C224 C 0.68445 0.18958 0.68375
 C225 C 0.70731 0.21053 0.70627
 C226 C 0.59890 0.10253 0.60010
 H227 H 0.59926 0.14613 0.68307
 H228 H 0.67948 0.14664 0.59652
 H229 H 0.64202 0.10604 0.55952
 H230 H 0.56151 0.10547 0.64628
 C231 C 0.60790 0.63944 0.15540
 C232 C 0.64134 0.65087 0.14164
 C233 C 0.65294 0.63962 0.10665
 C234 C 0.63156 0.61638 0.08577
 C235 C 0.72645 0.72874 0.22555
 C236 C 0.58646 0.61620 0.13455
 C237 C 0.66443 0.67288 0.16405
 C238 C 0.68404 0.69078 0.18312
 C239 C 0.70702 0.71130 0.20581
 C240 C 0.59835 0.60408 0.09976
 H241 H 0.59872 0.64799 0.18250
 H242 H 0.67879 0.64831 0.09578
 H243 H 0.64135 0.60751 0.05903
 H244 H 0.56099 0.60713 0.14597
 C245 C 0.86290 -0.15305 0.11031
 C246 C 0.85210 -0.14162 0.14553
 C247 C 0.86365 -0.10849 0.15894
 C248 C 0.88645 -0.08714 0.13747
 C249 C 0.77221 -0.22628 0.22768
 C250 C 0.88569 -0.13177 0.08882
 C251 C 0.82999 -0.16436 0.16821
 C252 C 0.81176 -0.18374 0.18711
 C253 C 0.79052 -0.20666 0.20909
 C254 C 0.89799 -0.09878 0.10237
 H255 H 0.85411 -0.17864 0.09965
 H256 H 0.85543 -0.09939 0.18616
 H257 H 0.89552 -0.06186 0.14859
 H258 H 0.89414 -0.14140 0.06188
 C259 C 0.86396 0.39116 0.65801
 C260 C 0.85267 0.35789 0.64471
 C261 C 0.86364 0.34648 0.60952
 C262 C 0.88625 0.36793 0.58797
 C263 C 0.77252 0.27347 0.72732
 C264 C 0.88659 0.41267 0.63648
 C265 C 0.83054 0.33508 0.66743
 C266 C 0.81225 0.31573 0.68640
 C267 C 0.79091 0.29292 0.70853
 C268 C 0.89824 0.40110 0.60138
 H269 H 0.85563 0.40029 0.68519
 H270 H 0.85507 0.32081 0.59892
 H271 H 0.89478 0.35831 0.56105
 H272 H 0.89540 0.43807 0.64753
 C273 C 0.39231 -0.13856 0.65539
 C274 C 0.35896 -0.15037 0.64173
 C275 C 0.34716 -0.13944 0.60676
 C276 C 0.36828 -0.11614 0.58579
 C277 C 0.27463 -0.22866 0.72568
 C278 C 0.41350 -0.11525 0.63445
 C279 C 0.33614 -0.17251 0.66421
 C280 C 0.31675 -0.19051 0.68330
 C281 C 0.29396 -0.21115 0.70598
 C282 C 0.40142 -0.10347 0.59967
 H283 H 0.40165 -0.14686 0.68247
 H284 H 0.32136 -0.14842 0.59597
 H285 H 0.35834 -0.10752 0.55907
 H286 H 0.43892 -0.10591 0.64579
 C287 C 0.34723 0.36125 0.10710
 C288 C 0.35912 0.35011 0.14197
 C289 C 0.39247 0.36191 0.15565
 C290 C 0.41356 0.38539 0.13484
 C291 C 0.27504 0.27136 0.22568
 C292 C 0.36826 0.38473 0.08626
 C293 C 0.33639 0.32780 0.16434
 C294 C 0.31706 0.30968 0.18338
 C295 C 0.29434 0.28892 0.20601
 C296 C 0.40140 0.39737 0.10017
 H297 H 0.32143 0.35228 0.09630
 H298 H 0.40187 0.35345 0.18265
 H299 H 0.43898 0.39471 0.14619
 H300 H 0.35826 0.39350 0.05961
 C301 C 0.86364 0.15356 -0.10954
 C302 C 0.85267 0.14215 -0.14473
 C303 C 0.86396 0.10888 -0.15803
 C304 C 0.88659 0.08737 -0.13650
 C305 C 0.77252 0.22657 -0.22734
 C306 C 0.88625 0.13211 -0.08799
 C307 C 0.83054 0.16495 -0.16745
 C308 C 0.81225 0.18431 -0.18642
 C309 C 0.79091 0.20712 -0.20855
 C310 C 0.89824 0.09894 -0.10140
 H311 H 0.85507 0.17923 -0.09894
 H312 H 0.85564 0.09975 -0.18521
 H313 H 0.89540 0.06196 -0.14755
 H314 H 0.89478 0.14173 -0.06107
 C315 C 0.86290 0.65309 0.38967
 C316 C 0.85210 0.64166 0.35445
 C317 C 0.86365 0.60853 0.34104
 C318 C 0.88645 0.58718 0.36251
 C319 C 0.77221 0.72632 0.27230
 C320 C 0.88569 0.63181 0.41116
 C321 C 0.82999 0.66439 0.33177
 C322 C 0.81176 0.68378 0.31287
 C323 C 0.79052 0.70670 0.29089
 C324 C 0.89799 0.59882 0.39761
 H325 H 0.85411 0.67868 0.40033
 H326 H 0.85543 0.59943 0.31382
 H327 H 0.89552 0.56190 0.35139
 H328 H 0.89414 0.64144 0.43810
 C329 C 0.39247 0.13813 0.34433
 C330 C 0.35912 0.14993 0.35801
 C331 C 0.34723 0.13879 0.39288
 C332 C 0.36826 0.11531 0.41372
 C333 C 0.27504 0.22868 0.27430
 C334 C 0.41356 0.11464 0.36514
 C335 C 0.33639 0.17224 0.33564
 C336 C 0.31706 0.19036 0.31660
 C337 C 0.29434 0.21111 0.29397
 C338 C 0.40140 0.10266 0.39981
 H339 H 0.40187 0.14659 0.31733
 H340 H 0.32143 0.14775 0.40368
 H341 H 0.35826 0.10654 0.44037
 H342 H 0.43898 0.10532 0.35378
 C343 C 0.39231 0.63860 -0.15541
 C344 C 0.35896 0.65041 -0.14175
 C345 C 0.34716 0.63948 -0.10678
 C346 C 0.36828 0.61618 -0.08581
 C347 C 0.27463 0.72870 -0.22570
 C348 C 0.41350 0.61529 -0.13447
 C349 C 0.33614 0.67255 -0.16423
 C350 C 0.31675 0.69055 -0.18332
 C351 C 0.29396 0.71119 -0.20600
 C352 C 0.40142 0.60351 -0.09969
 H353 H 0.40165 0.64690 -0.18249
 H354 H 0.32136 0.64846 -0.09599
 H355 H 0.35834 0.60756 -0.05909
 H356 H 0.43892 0.60595 -0.14581
 C357 C 1.13730 -0.10857 -0.15822
 C358 C 1.14889 -0.14167 -0.14496
 C359 C 1.13810 -0.15307 -0.10979
 C360 C 1.11530 -0.13179 -0.08820
 C361 C 1.22888 -0.22630 -0.22755
 C362 C 1.11448 -0.08722 -0.13666
 C363 C 1.17103 -0.16441 -0.16774
 C364 C 1.18928 -0.18379 -0.18675
 C365 C 1.21055 -0.20670 -0.20884
 C366 C 1.10296 -0.09882 -0.10160
 H367 H 1.14550 -0.09949 -0.18541
 H368 H 1.14692 -0.17863 -0.09925
 H369 H 1.10687 -0.14140 -0.06130
 H370 H 1.10539 -0.06196 -0.14767
 C371 C 1.13798 0.39175 0.34143
 C372 C 1.14937 0.35861 0.35476
 C373 C 1.13838 0.34727 0.38989
 C374 C 1.11557 0.36866 0.41135
 C375 C 1.22931 0.27370 0.27244
 C376 C 1.11515 0.41320 0.36287
 C377 C 1.17150 0.33577 0.33209
 C378 C 1.18974 0.31632 0.31316
 C379 C 1.21099 0.29334 0.29112
 C380 C 1.10341 0.40166 0.39788
 H381 H 1.14634 0.40079 0.31427
 H382 H 1.14705 0.32168 0.40049
 H383 H 1.10697 0.35909 0.43822
 H384 H 1.10620 0.43849 0.35180
 C385 C 0.65294 -0.13959 0.39333
 C386 C 0.64134 -0.15083 0.35834
 C387 C 0.60790 -0.13941 0.34458
 C388 C 0.58646 -0.11616 0.36543
 C389 C 0.72645 -0.22870 0.27443
 C390 C 0.63156 -0.11635 0.41421
 C391 C 0.66443 -0.17284 0.33593
 C392 C 0.68404 -0.19074 0.31686
 C393 C 0.70702 -0.21126 0.29417
 C394 C 0.59835 -0.10404 0.40022
 H395 H 0.67879 -0.14827 0.40420
 H396 H 0.59872 -0.14796 0.31748
 H397 H 0.56099 -0.10710 0.35401
 H398 H 0.64135 -0.10747 0.44095
 C399 C 0.65362 0.36211 -0.10735
 C400 C 0.64199 0.35092 -0.14237
 C401 C 0.60851 0.36240 -0.15600
 C402 C 0.58704 0.38555 -0.13499
 C403 C 0.72668 0.27170 -0.22584
 C404 C 0.63221 0.38524 -0.08631
 C405 C 0.66496 0.32866 -0.16479
 C406 C 0.68445 0.31046 -0.18378
 C407 C 0.70731 0.28950 -0.20629
 C408 C 0.59890 0.39751 -0.10012
 H409 H 0.67948 0.35340 -0.09654
 H410 H 0.59926 0.35391 -0.18309
 H411 H 0.56151 0.39457 -0.14630
 H412 H 0.64202 0.39400 -0.05954
 C413 C 1.13635 0.10857 -0.15842
 C414 C 1.14781 0.14176 -0.14507
 C415 C 1.13706 0.15313 -0.10981
 C416 C 1.11447 0.13172 -0.08821
 C417 C 1.22763 0.22643 -0.22754
 C418 C 1.11375 0.08710 -0.13685
 C419 C 1.16985 0.16457 -0.16782
 C420 C 1.18805 0.18397 -0.18678
 C421 C 1.20930 0.20687 -0.20885
 C422 C 1.10229 0.09865 -0.10168
 H423 H 1.14452 0.09949 -0.18567
 H424 H 1.14577 0.17875 -0.09918
 H425 H 1.10609 0.14131 -0.06123
 H426 H 1.10478 0.06176 -0.14793
 C427 C 1.13662 0.61015 0.34052
 C428 C 1.14794 0.64339 0.35389
 C429 C 1.13694 0.65469 0.38912
 C430 C 1.11433 0.63317 0.41063
 C431 C 1.22863 0.72785 0.27154
 C432 C 1.11399 0.58856 0.36202
 C433 C 1.17019 0.66624 0.33126
 C434 C 1.18860 0.68561 0.31238
 C435 C 1.21011 0.70842 0.29033
 C436 C 1.10235 0.60001 0.39717
 H437 H 1.14495 0.60107 0.31332
 H438 H 1.14552 0.68033 0.39980
 H439 H 1.10583 0.64272 0.43758
 H440 H 1.10520 0.56318 0.35091
 C441 C 0.65241 0.13838 0.39248
 C442 C 0.64074 0.14937 0.35747
 C443 C 0.60746 0.13747 0.34368
 C444 C 0.58622 0.11410 0.36453
 C445 C 0.72511 0.22857 0.27424
 C446 C 0.63124 0.11503 0.41335
 C447 C 0.66356 0.17173 0.33517
 C448 C 0.68296 0.18996 0.31626
 C449 C 0.70577 0.21087 0.29379
 C450 C 0.59815 0.10233 0.39937
 H451 H 0.67814 0.14742 0.40340
 H452 H 0.59819 0.14579 0.31658
 H453 H 0.56085 0.10474 0.35309
 H454 H 0.64109 0.10644 0.44012
 C455 C 0.60781 0.63775 -0.15597
 C456 C 0.64124 0.64944 -0.14236
 C457 C 0.65302 0.63840 -0.10740
 C458 C 0.63179 0.61521 -0.08640
 C459 C 0.72551 0.72844 -0.22588
 C460 C 0.58652 0.61455 -0.13499
 C461 C 0.66406 0.67168 -0.16478
 C462 C 0.68344 0.68983 -0.18379
 C463 C 0.70620 0.71071 -0.20633
 C464 C 0.59854 0.60273 -0.10020
 H465 H 0.59846 0.64612 -0.18302
 H466 H 0.67886 0.64728 -0.09663
 H467 H 0.64171 0.60656 -0.05967
 H468 H 0.56103 0.60535 -0.14628
 C469 C 0.86306 -0.10898 -0.15773
 C470 C 0.85172 -0.14220 -0.14454
 C471 C 0.86281 -0.15367 -0.10948
 C472 C 0.88564 -0.13233 -0.08795
 C473 C 0.77131 -0.22648 -0.22731
 C474 C 0.88591 -0.08759 -0.13622
 C475 C 0.82946 -0.16493 -0.16728
 C476 C 0.81110 -0.18424 -0.18629
 C477 C 0.78971 -0.20702 -0.20848
 C478 C 0.89771 -0.09923 -0.10127
 H479 H 0.85463 -0.09983 -0.18481
 H480 H 0.85419 -0.17931 -0.09898
 H481 H 0.89429 -0.14199 -0.06114
 H482 H 0.89478 -0.06223 -0.14718
 C483 C 0.86257 0.34735 0.38952
 C484 C 0.85172 0.35853 0.35429
 C485 C 0.86344 0.39151 0.34076
 C486 C 0.88640 0.41294 0.36213
 C487 C 0.77094 0.27368 0.27250
 C488 C 0.88551 0.36871 0.41090
 C489 C 0.82934 0.33573 0.33176
 C490 C 0.81088 0.31628 0.31298
 C491 C 0.78939 0.29330 0.29111
 C492 C 0.89795 0.40155 0.39727
 H493 H 0.85367 0.32190 0.40028
 H494 H 0.85521 0.40044 0.31353
 H495 H 0.89556 0.43809 0.35093
 H496 H 0.89394 0.35925 0.43786
 C497 C 0.34497 -0.13822 0.39131
 C498 C 0.35661 -0.14947 0.35630
 C499 C 0.39014 -0.13802 0.34273
 C500 C 0.41165 -0.11493 0.36381
 C501 C 0.27214 -0.22930 0.27288
 C502 C 0.36642 -0.11515 0.41240
 C503 C 0.33367 -0.17185 0.33388
 C504 C 0.31424 -0.19018 0.31491
 C505 C 0.29145 -0.21133 0.29242
 C506 C 0.39980 -0.10297 0.39869
 H507 H 0.31908 -0.14690 0.40209
 H508 H 0.39943 -0.14653 0.31567
 H509 H 0.43722 -0.10598 0.35254
 H510 H 0.35660 -0.10640 0.43918
 C511 C 0.34594 0.36176 -0.10682
 C512 C 0.35777 0.35037 -0.14170
 C513 C 0.39131 0.36176 -0.15523
 C514 C 0.41264 0.38504 -0.13428
 C515 C 0.27341 0.27150 -0.22567
 C516 C 0.36722 0.38503 -0.08583
 C517 C 0.33488 0.32812 -0.16417
 C518 C 0.31548 0.30999 -0.18327
 C519 C 0.29271 0.28916 -0.20596
 C520 C 0.40057 0.39723 -0.09958
 H521 H 0.32001 0.35312 -0.09611
 H522 H 0.40069 0.35311 -0.18223
 H523 H 0.43822 0.39401 -0.14553
 H524 H 0.35726 0.39397 -0.05918
 C525 C 1.13694 -0.15466 0.11086
 C526 C 1.14794 -0.14335 0.14609
 C527 C 1.13662 -0.11011 0.15946
 C528 C 1.11399 -0.08852 0.13796
 C529 C 1.22863 -0.22781 0.22844
 C530 C 1.11433 -0.13313 0.08935
 C531 C 1.17019 -0.16620 0.16871
 C532 C 1.18860 -0.18557 0.18760
 C533 C 1.21011 -0.20838 0.20965
 C534 C 1.10235 -0.09997 0.10281
 H535 H 1.14552 -0.18029 0.10017
 H536 H 1.14495 -0.10103 0.18666
 H537 H 1.10520 -0.06314 0.14907
 H538 H 1.10583 -0.14268 0.06240
 C539 C 1.13635 0.39147 0.65840
 C540 C 1.14781 0.35828 0.64505
 C541 C 1.13706 0.34691 0.60979
 C542 C 1.11447 0.36831 0.58819
 C543 C 1.22763 0.27361 0.72752
 C544 C 1.11375 0.41294 0.63683
 C545 C 1.16985 0.33547 0.66780
 C546 C 1.18805 0.31607 0.68676
 C547 C 1.20930 0.29317 0.70883
 C548 C 1.10229 0.40139 0.60166
 H549 H 1.14452 0.40055 0.68565
 H550 H 1.14578 0.32129 0.59916
 H551 H 1.10609 0.35873 0.56121
 H552 H 1.10478 0.43828 0.64790
 C553 C 0.65302 -0.13836 0.60738
 C554 C 0.64124 -0.14940 0.64234
 C555 C 0.60781 -0.13771 0.65595
 C556 C 0.58652 -0.11451 0.63497
 C557 C 0.72551 -0.22840 0.72586
 C558 C 0.63179 -0.11517 0.58638
 C559 C 0.66406 -0.17164 0.66476
 C560 C 0.68344 -0.18979 0.68377
 C561 C 0.70620 -0.21067 0.70631
 C562 C 0.59854 -0.10269 0.60018
 H563 H 0.67886 -0.14724 0.59661
 H564 H 0.59846 -0.14609 0.68300
 H565 H 0.56103 -0.10531 0.64626
 H566 H 0.64171 -0.10653 0.55965
 C567 C 0.60746 0.36257 0.15630
 C568 C 0.64074 0.35067 0.14251
 C569 C 0.65241 0.36165 0.10750
 C570 C 0.63124 0.38501 0.08663
 C571 C 0.72511 0.27147 0.22574
 C572 C 0.58622 0.38594 0.13545
 C573 C 0.66356 0.32830 0.16481
 C574 C 0.68296 0.31008 0.18372
 C575 C 0.70577 0.28916 0.20619
 C576 C 0.59815 0.39771 0.10061
 H577 H 0.59819 0.35425 0.18340
 H578 H 0.67814 0.35262 0.09658
 H579 H 0.64109 0.39360 0.05986
 H580 H 0.56085 0.39530 0.14689
 C581 C 0.86344 0.10853 0.15922
 C582 C 0.85173 0.14150 0.14569
 C583 C 0.86257 0.15269 0.11046
 C584 C 0.88551 0.13133 0.08908
 C585 C 0.77094 0.22636 0.22748
 C586 C 0.88640 0.08710 0.13785
 C587 C 0.82934 0.16431 0.16822
 C588 C 0.81088 0.18376 0.18700
 C589 C 0.78939 0.20674 0.20887
 C590 C 0.89795 0.09848 0.10271
 H591 H 0.85521 0.09960 0.18645
 H592 H 0.85367 0.17814 0.09970
 H593 H 0.89394 0.14079 0.06212
 H594 H 0.89556 0.06194 0.14905
 C595 C 0.86281 0.65371 0.60946
 C596 C 0.85172 0.64224 0.64452
 C597 C 0.86306 0.60902 0.65771
 C598 C 0.88591 0.58762 0.63620
 C599 C 0.77131 0.72652 0.72729
 C600 C 0.88564 0.63237 0.58793
 C601 C 0.82946 0.66497 0.66726
 C602 C 0.81110 0.68428 0.68627
 C603 C 0.78971 0.70706 0.70846
 C604 C 0.89772 0.59927 0.60125
 H605 H 0.85419 0.67935 0.59896
 H606 H 0.85463 0.59987 0.68479
 H607 H 0.89478 0.56227 0.64716
 H608 H 0.89429 0.64203 0.56112
 C609 C 0.39131 0.13828 0.65521
 C610 C 0.35777 0.14967 0.64168
 C611 C 0.34594 0.13828 0.60680
 C612 C 0.36722 0.11501 0.58581
 C613 C 0.27341 0.22854 0.72565
 C614 C 0.41264 0.11500 0.63426
 C615 C 0.33488 0.17192 0.66415
 C616 C 0.31548 0.19005 0.68325
 C617 C 0.29271 0.21087 0.70594
 C618 C 0.40057 0.10281 0.59956
 H619 H 0.40069 0.14693 0.68221
 H620 H 0.32001 0.14692 0.59609
 H621 H 0.35726 0.10607 0.55916
 H622 H 0.43822 0.10603 0.64551
 C623 C 0.34497 0.63826 0.10867
 C624 C 0.35661 0.64951 0.14368
 C625 C 0.39014 0.63805 0.15724
 C626 C 0.41165 0.61497 0.13617
 C627 C 0.27214 0.72934 0.22710
 C628 C 0.36642 0.61519 0.08758
 C629 C 0.33367 0.67189 0.16610
 C630 C 0.31424 0.69022 0.18507
 C631 C 0.29145 0.71137 0.20756
 C632 C 0.39980 0.60301 0.10129
 H633 H 0.31908 0.64693 0.09789
 H634 H 0.39943 0.64657 0.18431
 H635 H 0.43722 0.60602 0.14743
 H636 H 0.35660 0.60644 0.06080
   
