data_POSCAR
  _audit_creation_date              2014-09-24
  _audit_creation_method            'ToBaCCo'
  _symmetry_space_group_name_H-M    'P1'
  _symmetry_Int_Tables_number       1
  _symmetry_cell_setting            triclinic
  loop_
  _symmetry_equiv_pos_as_xyz
 x,y,z
_cell_length_a 45.0552
_cell_length_b 43.1590
_cell_length_c 42.6050
_cell_angle_alpha 92.955400
_cell_angle_beta 94.156500
_cell_angle_gamma 93.426900
loop_
  _atom_site_label
  _atom_site_type_symbol
  _atom_site_fract_x
  _atom_site_fract_y
  _atom_site_fract_z
N1 N 0.59393 0.65523 0.60107
 N2 N 0.58077 0.64554 0.62584
 C3 C 0.55413 0.65821 0.62661
 C4 C 0.55030 0.67633 0.60087
 C5 C 0.57594 0.67377 0.58525
 H6 H 0.53875 0.65473 0.64463
 H7 H 0.58152 0.68543 0.56441
 Cu8 Cu 0.59968 0.61776 0.65606
 Cu9 Cu 0.63431 0.64480 0.59109
 Cu10 Cu 0.67023 0.60313 0.64331
 N11 N 0.62290 0.59088 0.68289
 N12 N 0.65081 0.58636 0.67812
 C13 C 0.66165 0.56694 0.69897
 C14 C 0.63939 0.55832 0.71827
 C15 C 0.61498 0.57422 0.70730
 H16 H 0.68389 0.55896 0.69891
 H17 H 0.59300 0.57344 0.71597
 N18 N 0.68374 0.60716 0.60163
 N19 N 0.66998 0.62397 0.58101
 C20 C 0.68465 0.62365 0.55453
 C21 C 0.70857 0.60510 0.55878
 C22 C 0.70722 0.59506 0.58897
 H23 H 0.67821 0.63566 0.53369
 H24 H 0.72250 0.58049 0.60110
 H25 H 0.62167 0.60747 0.61608
 H26 H 0.63445 0.64366 0.64018
 N27 N 0.92488 0.33864 0.08322
 N28 N 0.94058 0.34609 0.10999
 C29 C 0.96412 0.32832 0.11223
 C30 C 0.96331 0.30875 0.08516
 C31 C 0.93800 0.31622 0.06726
 H32 H 0.98068 0.32990 0.13201
 H33 H 0.92894 0.30542 0.04489
 Cu34 Cu 0.92953 0.37893 0.13926
 Cu35 Cu 0.88767 0.35719 0.07258
 Cu36 Cu 0.85947 0.40666 0.12453
 N37 N 0.91419 0.41232 0.16571
 N38 N 0.88756 0.42294 0.16005
 C39 C 0.88370 0.44567 0.18195
 C40 C 0.90921 0.44973 0.20226
 C41 C 0.92806 0.42820 0.19119
 H42 H 0.86398 0.45867 0.18276
 H43 H 0.95021 0.42429 0.20106
 N44 N 0.83533 0.38692 0.08827
 N45 N 0.84609 0.36647 0.06892
 C46 C 0.82411 0.35453 0.04796
 C47 C 0.79827 0.36858 0.05420
 C48 C 0.80616 0.38919 0.07981
 H49 H 0.82676 0.33701 0.02945
 H50 H 0.79155 0.40385 0.09201
 H51 H 0.90159 0.40200 0.10891
 H52 H 0.88441 0.36826 0.12854
 N53 N 0.39298 0.16529 -0.10825
 N54 N 0.41316 0.15290 -0.12488
 C55 C 0.43239 0.17558 -0.13310
 C56 C 0.42368 0.20377 -0.12112
 C57 C 0.39852 0.19636 -0.10553
 H58 H 0.45139 0.17183 -0.14663
 H59 H 0.38596 0.21221 -0.09207
 Cu60 Cu 0.41276 0.10830 -0.13407
 Cu61 Cu 0.36341 0.13960 -0.08858
 Cu62 Cu 0.35068 0.06455 -0.12137
 N63 N 0.40378 0.06736 -0.15481
 N64 N 0.37894 0.05093 -0.15090
 C65 C 0.37756 0.02470 -0.16960
 C66 C 0.40298 0.02462 -0.18603
 C67 C 0.41916 0.05206 -0.17596
 H68 H 0.35943 0.00698 -0.17110
 H69 H 0.44000 0.06082 -0.18426
 N70 N 0.32514 0.08285 -0.09055
 N71 N 0.33002 0.11147 -0.07804
 C72 C 0.30978 0.11670 -0.05696
 C73 C 0.29133 0.08998 -0.05589
 C74 C 0.30175 0.06904 -0.07760
 H75 H 0.30915 0.13808 -0.04273
 H76 H 0.29321 0.04533 -0.08327
 H77 H 0.37907 0.09514 -0.09344
 H78 H 0.35968 0.11111 -0.12877
 N79 N 0.07176 0.86119 0.40628
 N80 N 0.05420 0.87997 0.39172
 C81 C 0.02634 0.86672 0.38797
 C82 C 0.02629 0.83765 0.40046
 C83 C 0.05571 0.83497 0.41185
 H84 H 0.00789 0.87714 0.37581
 H85 H 0.06476 0.81582 0.42396
 Cu86 Cu 0.06931 0.91908 0.37666
 Cu87 Cu 0.11345 0.87393 0.41866
 Cu88 Cu 0.14338 0.92831 0.37115
 N89 N 0.08658 0.94905 0.34970
 N90 N 0.11543 0.95228 0.34697
 C91 C 0.12075 0.97259 0.32477
 C92 C 0.09368 0.98257 0.31277
 C93 C 0.07253 0.96710 0.32940
 H94 H 0.14265 0.97883 0.31737
 H95 H 0.04858 0.96770 0.32616
 N96 N 0.16771 0.90729 0.40298
 N97 N 0.15640 0.88626 0.42095
 C98 C 0.17796 0.87848 0.44214
 C99 C 0.20402 0.89578 0.43755
 C100 C 0.19666 0.91369 0.41244
 H101 H 0.17447 0.86299 0.46088
 H102 H 0.21095 0.93112 0.40264
 H103 H 0.11677 0.92089 0.40783
 H104 H 0.11353 0.88993 0.37497
 C105 C 0.09700 0.14629 0.09448
 C106 C 0.09056 0.13123 0.12179
 C107 C 0.10554 0.10501 0.13059
 C108 C 0.12808 0.09466 0.11220
 C109 C 0.13522 0.10987 0.08505
 C110 C 0.11940 0.13557 0.07631
 H111 H 0.07315 0.13946 0.13573
 H112 H 0.13973 0.07443 0.11869
 H113 H 0.12412 0.14693 0.05497
 C114 C 0.40624 0.83114 0.60267
 C115 C 0.41384 0.84935 0.63081
 C116 C 0.39857 0.87593 0.63808
 C117 C 0.37573 0.88449 0.61672
 C118 C 0.36790 0.86673 0.58855
 C119 C 0.38270 0.83974 0.58200
 H120 H 0.43219 0.84339 0.64675
 H121 H 0.36457 0.90559 0.62153
 H122 H 0.37657 0.82616 0.56015
 C123 C 0.89798 0.65355 0.39760
 C124 C 0.90842 0.63155 0.37641
 C125 C 0.89541 0.60109 0.37316
 C126 C 0.87234 0.59255 0.39206
 C127 C 0.86216 0.61413 0.41402
 C128 C 0.87479 0.64481 0.41622
 H129 H 0.92596 0.63849 0.36162
 H130 H 0.86242 0.56896 0.38976
 H131 H 0.86730 0.66171 0.43311
 C132 C 0.57128 0.37349 -0.10765
 C133 C 0.59121 0.36627 -0.08263
 C134 C 0.61907 0.38252 -0.07692
 C135 C 0.62672 0.40654 -0.09632
 C136 C 0.60760 0.41335 -0.12233
 C137 C 0.57942 0.39722 -0.12735
 H138 H 0.58516 0.34756 -0.06783
 H139 H 0.64848 0.41874 -0.09222
 H140 H 0.56466 0.40161 -0.14763
 C141 C 0.02243 0.25254 0.09352
 C142 C 0.02028 0.23855 0.06367
 C143 C 0.00017 0.24699 0.03986
 C144 C -0.01865 0.27067 0.04715
 C145 C -0.01696 0.28574 0.07785
 C146 C 0.00441 0.27656 0.10116
 O147 O 0.04166 0.23978 0.11327
 C148 C 0.05188 0.21725 0.09547
 C149 C 0.03969 0.21566 0.06484
 C150 C 0.04652 0.19310 0.04246
 C151 C 0.06641 0.17103 0.05218
 C152 C 0.07871 0.17172 0.08387
 C153 C 0.07155 0.19547 0.10567
 H154 H -0.00136 0.23537 0.01661
 H155 H -0.03432 0.27715 0.02858
 H156 H 0.00632 0.28669 0.12502
 H157 H 0.03642 0.19213 0.01857
 H158 H 0.07133 0.15272 0.03537
 H159 H 0.08047 0.19652 0.13002
 C160 C 0.48693 0.72942 0.60737
 C161 C 0.48252 0.73719 0.57655
 C162 C 0.49842 0.72494 0.55259
 C163 C 0.52008 0.70416 0.56079
 C164 C 0.52546 0.69604 0.59249
 C165 C 0.50819 0.70851 0.61601
 O166 O 0.47067 0.74509 0.62674
 C167 C 0.45577 0.76319 0.60773
 C168 C 0.46220 0.75918 0.57679
 C169 C 0.45041 0.77692 0.55319
 C170 C 0.43142 0.79997 0.56185
 C171 C 0.42446 0.80486 0.59369
 C172 C 0.43669 0.78578 0.61684
 H173 H 0.49473 0.73164 0.52856
 H174 H 0.53286 0.69468 0.54243
 H175 H 0.51212 0.70330 0.64049
 H176 H 0.45627 0.77372 0.52910
 H177 H 0.42308 0.81472 0.54386
 H178 H 0.43200 0.78879 0.64133
 C179 C 0.98148 0.76316 0.40601
 C180 C 0.95321 0.77266 0.39963
 C181 C 0.94765 0.80314 0.39355
 C182 C 0.97223 0.82472 0.39387
 C183 C 1.00184 0.81577 0.40079
 C184 C 1.00623 0.78437 0.40735
 O185 O 0.98204 0.73279 0.40938
 C186 C 0.95347 0.72297 0.40518
 C187 C 0.93486 0.74651 0.39947
 C188 C 0.90407 0.74136 0.39418
 C189 C 0.89201 0.71064 0.39455
 C190 C 0.91084 0.68591 0.39956
 C191 C 0.94200 0.69222 0.40509
 H192 H 0.92519 0.80999 0.38825
 H193 H 0.96783 0.84845 0.38915
 H194 H 1.02825 0.77618 0.41210
 H195 H 0.88989 0.76027 0.38968
 H196 H 0.86816 0.70594 0.39010
 H197 H 0.95682 0.67370 0.40895
 C198 C 0.48517 0.26657 -0.12314
 C199 C 0.46933 0.29286 -0.12241
 C200 C 0.43845 0.29158 -0.12155
 C201 C 0.42343 0.26207 -0.12132
 C202 C 0.43938 0.23469 -0.12237
 C203 C 0.47069 0.23712 -0.12356
 O204 O 0.51441 0.27265 -0.12198
 C205 C 0.51719 0.30344 -0.12057
 C206 C 0.49033 0.31707 -0.12102
 C207 C 0.48842 0.34922 -0.11898
 C208 C 0.51527 0.36794 -0.11588
 C209 C 0.54311 0.35420 -0.11435
 C210 C 0.54396 0.32150 -0.11719
 H211 H 0.42642 0.31254 -0.12052
 H212 H 0.39944 0.26053 -0.12039
 H213 H 0.48359 0.21675 -0.12365
 H214 H 0.46708 0.35949 -0.11924
 H215 H 0.51446 0.39298 -0.11355
 H216 H 0.56493 0.31044 -0.11605
 C217 C 0.10555 0.03263 0.24358
 C218 C 0.07664 0.03866 0.23470
 C219 C 0.05257 0.02798 0.25062
 C220 C 0.05849 0.01007 0.27662
 C221 C 0.08811 0.00297 0.28617
 C222 C 0.11198 0.01481 0.26936
 O223 O 0.12512 0.04475 0.22501
 C224 C 0.10812 0.05864 0.20391
 C225 C 0.07829 0.05552 0.20881
 C226 C 0.05643 0.06763 0.18919
 C227 C 0.06569 0.08374 0.16351
 C228 C 0.09641 0.08772 0.15799
 C229 C 0.11789 0.07478 0.17861
 H230 H 0.02999 0.03309 0.24317
 H231 H 0.03977 0.00165 0.28897
 H232 H 0.13486 0.01001 0.27568
 H233 H 0.03305 0.06452 0.19333
 H234 H 0.04881 0.09268 0.14766
 H235 H 0.14147 0.07741 0.17524
 C236 C 0.61953 0.50600 -0.21812
 C237 C 0.64641 0.49322 -0.21220
 C238 C 0.67154 0.50134 -0.22752
 C239 C 0.66898 0.52344 -0.25023
 C240 C 0.64141 0.53703 -0.25766
 C241 C 0.61634 0.52817 -0.24083
 O242 O 0.59845 0.49457 -0.20078
 C243 C 0.61250 0.47412 -0.18372
 C244 C 0.64186 0.47252 -0.19001
 C245 C 0.66076 0.45237 -0.17568
 C246 C 0.64902 0.43307 -0.15368
 C247 C 0.61891 0.43440 -0.14597
 C248 C 0.60029 0.45517 -0.16155
 H249 H 0.69247 0.49093 -0.22224
 H250 H 0.68884 0.52952 -0.26184
 H251 H 0.59490 0.53771 -0.24543
 H252 H 0.68368 0.45129 -0.18150
 H253 H 0.66341 0.41669 -0.14303
 H254 H 0.57722 0.45668 -0.15643
 C255 C 0.39544 0.96142 0.74872
 C256 C 0.42482 0.95866 0.74290
 C257 C 0.44808 0.97644 0.75965
 C258 C 0.44071 0.99799 0.78325
 C259 C 0.41053 1.00118 0.78975
 C260 C 0.38765 0.98235 0.77229
 O261 O 0.37662 0.94346 0.72926
 C262 C 0.39449 0.92901 0.71076
 C263 C 0.42422 0.93732 0.71818
 C264 C 0.44667 0.92549 0.70122
 C265 C 0.43809 0.90450 0.67538
 C266 C 0.40751 0.89602 0.66691
 C267 C 0.38548 0.90832 0.68517
 H268 H 0.47103 0.97410 0.75448
 H269 H 0.45851 1.01210 0.79645
 H270 H 0.36439 0.98456 0.77621
 H271 H 0.46992 0.93255 0.70732
 H272 H 0.45519 0.89567 0.66139
 H273 H 0.36198 0.90232 0.67933
 C274 C 0.89760 0.50721 0.26949
 C275 C 0.92661 0.51558 0.28032
 C276 C 0.95086 0.50317 0.26696
 C277 C 0.94493 0.48127 0.24138
 C278 C 0.91516 0.47244 0.22958
 C279 C 0.89121 0.48570 0.24400
 O280 O 0.87776 0.52171 0.28539
 C281 C 0.89461 0.53971 0.30667
 C282 C 0.92467 0.53695 0.30455
 C283 C 0.94627 0.55424 0.32421
 C284 C 0.93645 0.57528 0.34689
 C285 C 0.90553 0.57843 0.34960
 C286 C 0.88438 0.56021 0.32920
 H287 H 0.97352 0.51015 0.27583
 H288 H 0.96359 0.47165 0.23054
 H289 H 0.86824 0.47937 0.23587
 H290 H 0.96981 0.55177 0.32205
 H291 H 0.95285 0.58898 0.36247
 H292 H 0.86067 0.56242 0.33039
 C293 C 0.23211 0.10403 0.00087
 C294 C 0.22145 0.07409 0.00487
 C295 C 0.23241 0.04841 -0.01039
 C296 C 0.25532 0.05382 -0.03050
 C297 C 0.26683 0.08455 -0.03495
 C298 C 0.25487 0.10995 -0.01891
 O299 O 0.21847 0.12522 0.01718
 C300 C 0.19877 0.10829 0.03181
 C301 C 0.19969 0.07686 0.02517
 C302 C 0.18073 0.05498 0.03784
 C303 C 0.15987 0.06599 0.05799
 C304 C 0.15830 0.09837 0.06499
 C305 C 0.17828 0.11972 0.05175
 H306 H 0.22366 0.02503 -0.00693
 H307 H 0.26420 0.03398 -0.04222
 H308 H 0.26274 0.13372 -0.02185
 H309 H 0.18175 0.03035 0.03217
 H310 H 0.14448 0.04934 0.06750
 H311 H 0.17787 0.14453 0.05675
 C312 C 0.76262 0.61223 0.49535
 C313 C 0.77668 0.58499 0.49825
 C314 C 0.76900 0.56314 0.51959
 C315 C 0.74609 0.56980 0.53900
 C316 C 0.73129 0.59782 0.53666
 C317 C 0.73946 0.61914 0.51414
 O318 O 0.77429 0.63046 0.47463
 C319 C 0.79619 0.61435 0.46429
 C320 C 0.79850 0.58632 0.47792
 C321 C 0.82042 0.56617 0.47125
 C322 C 0.84093 0.57533 0.44973
 C323 C 0.83927 0.60428 0.43546
 C324 C 0.81637 0.62396 0.44283
 H325 H 0.78057 0.54198 0.52160
 H326 H 0.73999 0.55312 0.55591
 H327 H 0.72895 0.64093 0.51215
 H328 H 0.82197 0.54438 0.48256
 H329 H 0.85858 0.56024 0.44485
 H330 H 0.81443 0.64615 0.43237
 C331 C 0.72321 0.37998 0.01286
 C332 C 0.71460 0.34990 0.00227
 C333 C 0.73195 0.32500 0.00840
 C334 C 0.75939 0.33141 0.02596
 C335 C 0.76866 0.36219 0.03731
 C336 C 0.75007 0.38676 0.03104
 O337 O 0.70468 0.40053 0.00225
 C338 C 0.68393 0.38304 -0.01538
 C339 C 0.68883 0.35187 -0.01590
 C340 C 0.67068 0.32955 -0.03405
 C341 C 0.64679 0.33983 -0.05288
 C342 C 0.64171 0.37197 -0.05351
 C343 C 0.66037 0.39379 -0.03403
 H344 H 0.72498 0.30162 -0.00070
 H345 H 0.77348 0.31245 0.03062
 H346 H 0.75698 0.41056 0.03879
 H347 H 0.67524 0.30520 -0.03440
 H348 H 0.63312 0.32290 -0.06810
 H349 H 0.65726 0.41846 -0.03422
 C350 C 0.26664 0.87672 0.49605
 C351 C 0.28388 0.90423 0.49794
 C352 C 0.27681 0.92932 0.48028
 C353 C 0.25077 0.92602 0.45996
 C354 C 0.23222 0.89809 0.45789
 C355 C 0.24042 0.87305 0.47623
 O356 O 0.27744 0.85576 0.51483
 C357 C 0.30195 0.87046 0.52898
 C358 C 0.30675 0.90026 0.51959
 C359 C 0.33063 0.92013 0.53194
 C360 C 0.35043 0.90882 0.55490
 C361 C 0.34622 0.87807 0.56477
 C362 C 0.32166 0.85855 0.55147
 H363 H 0.29075 0.95075 0.48223
 H364 H 0.24476 0.94558 0.44647
 H365 H 0.22686 0.85140 0.47514
 H366 H 0.33384 0.94354 0.52427
 H367 H 0.36930 0.92385 0.56475
 H368 H 0.31787 0.83506 0.55874
   
