data_POSCAR
  _audit_creation_date              2014-09-24
  _audit_creation_method            'ToBaCCo'
  _symmetry_space_group_name_H-M    'P1'
  _symmetry_Int_Tables_number       1
  _symmetry_cell_setting            triclinic
  loop_
  _symmetry_equiv_pos_as_xyz
 x,y,z
_cell_length_a 35.3035
_cell_length_b 35.3595
_cell_length_c 35.2527
_cell_angle_alpha 89.948400
_cell_angle_beta 89.983000
_cell_angle_gamma 90.018300
loop_
  _atom_site_label
  _atom_site_type_symbol
  _atom_site_fract_x
  _atom_site_fract_y
  _atom_site_fract_z
N1 N 0.54050 0.07666 0.01785
 N2 N 0.56848 0.09780 0.03075
 N3 N 0.46078 0.07628 -0.01915
 N4 N 0.43275 0.09711 -0.03246
 N5 N 0.46081 0.07654 0.01808
 N6 N 0.43282 0.09757 0.03112
 N7 N 0.54047 0.07628 -0.01938
 N8 N 0.56842 0.09716 -0.03283
 C9 C 0.58574 0.11034 -0.00120
 C10 C 0.41546 0.11015 -0.00075
 N11 N 0.46056 -0.01895 -0.07589
 N12 N 0.43244 -0.03223 -0.09667
 N13 N 0.54034 0.01812 -0.07663
 N14 N 0.56813 0.03102 -0.09814
 N15 N 0.54022 -0.01896 -0.07609
 N16 N 0.56967 -0.03264 -0.09850
 N17 N 0.46064 0.01817 -0.07631
 N18 N 0.43259 0.03116 -0.09734
 Mn19 Mn 0.50057 0.04753 -0.04819
 C20 C 0.41516 -0.00062 -0.10980
 C21 C 0.58601 -0.00035 -0.11140
 N22 N 0.46101 0.01943 0.07646
 N23 N 0.43296 0.03263 0.09739
 N24 N 0.54085 -0.01746 0.07663
 N25 N 0.56865 -0.03033 0.09812
 N26 N 0.54070 0.01962 0.07610
 N27 N 0.57014 0.03333 0.09850
 N28 N 0.46116 -0.01769 0.07686
 N29 N 0.43323 -0.03076 0.09802
 Mn30 Mn 0.50074 0.04838 0.04745
 C31 C 0.41579 0.00096 0.11059
 C32 C 0.58652 0.00105 0.11137
 N33 N 0.54050 -0.07598 -0.01786
 N34 N 0.56849 -0.09695 -0.03099
 N35 N 0.46102 -0.07580 0.01970
 N36 N 0.43311 -0.09671 0.03318
 N37 N 0.46082 -0.07604 -0.01753
 N38 N 0.43279 -0.09712 -0.03040
 N39 N 0.54072 -0.07561 0.01937
 N40 N 0.56887 -0.09635 0.03259
 Mn41 Mn 0.50051 -0.04780 -0.04716
 Mn42 Mn 0.50096 -0.04696 0.04846
 Cl43 Cl 0.50068 0.00029 0.00014
 C44 C 0.58603 -0.10941 0.00082
 C45 C 0.41565 -0.10977 0.00157
 N46 N 0.07666 0.46001 0.01816
 N47 N 0.09750 0.43189 0.03122
 N48 N 0.07728 0.53986 -0.01846
 N49 N 0.09836 0.56791 -0.03134
 N50 N 0.07709 0.53957 0.01877
 N51 N 0.09803 0.56740 0.03225
 N52 N 0.07681 0.46030 -0.01907
 N53 N 0.09777 0.43239 -0.03237
 C54 C 0.11042 0.41481 -0.00065
 C55 C 0.11107 0.58492 0.00065
 N56 N -0.01725 0.54095 -0.07673
 N57 N -0.03012 0.56885 -0.09807
 N58 N 0.01937 0.46112 -0.07710
 N59 N 0.03243 0.43312 -0.09810
 N60 N -0.01781 0.46139 -0.07729
 N61 N -0.03107 0.43358 -0.09841
 N62 N 0.01989 0.54067 -0.07640
 N63 N 0.03364 0.57010 -0.09879
 Mn64 Mn 0.04866 0.50048 -0.04808
 C65 C 0.00131 0.58662 -0.11144
 C66 C 0.00061 0.41611 -0.11116
 N67 N 0.01912 0.53940 0.07628
 N68 N 0.03229 0.56720 0.09748
 N69 N -0.01848 0.46001 0.07549
 N70 N -0.03185 0.43195 0.09628
 N71 N 0.01870 0.45985 0.07565
 N72 N 0.03164 0.43169 0.09654
 N73 N -0.01806 0.53956 0.07610
 N74 N -0.03120 0.56747 0.09716
 Mn75 Mn 0.04821 0.49971 0.04753
 C76 C 0.00055 0.58455 0.11026
 C77 C -0.00023 0.41444 0.10916
 N78 N -0.07577 0.46122 -0.01980
 N79 N -0.09678 0.43343 -0.03328
 N80 N -0.07544 0.54040 0.01808
 N81 N -0.09635 0.56833 0.03141
 N82 N -0.07524 0.54079 -0.01915
 N83 N -0.09601 0.56898 -0.03217
 N84 N -0.07589 0.46085 0.01744
 N85 N -0.09698 0.43282 0.03030
 Mn86 Mn -0.04683 0.50110 -0.04856
 Mn87 Mn -0.04729 0.50020 0.04709
 Cl88 Cl 0.00069 0.50036 -0.00050
 C89 C -0.10978 0.41587 -0.00167
 C90 C -0.10893 0.58601 -0.00028
 N91 N 0.01784 0.07564 0.45995
 N92 N 0.03107 0.09651 0.43184
 N93 N -0.01951 0.07603 0.53965
 N94 N -0.03268 0.09718 0.56753
 N95 N 0.01767 0.07595 0.53975
 N96 N 0.03081 0.09703 0.56767
 N97 N -0.01934 0.07562 0.45985
 N98 N -0.03243 0.09648 0.43170
 C99 C -0.00065 0.10926 0.41438
 C100 C -0.00094 0.11003 0.58485
 N101 N -0.07732 -0.01861 0.54012
 N102 N -0.09839 -0.03152 0.56823
 N103 N -0.07711 0.01807 0.46005
 N104 N -0.09808 0.03105 0.43192
 N105 N -0.07715 -0.01905 0.46031
 N106 N -0.09814 -0.03235 0.43237
 N107 N -0.07725 0.01851 0.53985
 N108 N -0.09824 0.03187 0.56776
 Mn109 Mn -0.04862 0.04737 0.49984
 C110 C -0.11119 0.00033 0.58532
 C111 C -0.11095 -0.00076 0.41480
 N112 N 0.07530 0.01829 0.54017
 N113 N 0.09632 0.03148 0.56816
 N114 N 0.07543 -0.01911 0.46052
 N115 N 0.09655 -0.03232 0.43260
 N116 N 0.07544 0.01801 0.46038
 N117 N 0.09654 0.03108 0.43238
 N118 N 0.07524 -0.01883 0.54032
 N119 N 0.09620 -0.03192 0.56840
 Mn120 Mn 0.04688 0.04728 0.50007
 C121 C 0.10911 -0.00020 0.58562
 C122 C 0.10946 -0.00065 0.41520
 N123 N -0.01954 -0.07669 0.46071
 N124 N -0.03265 -0.09774 0.43274
 N125 N 0.01749 -0.07637 0.54054
 N126 N 0.03055 -0.09738 0.56861
 N127 N -0.01970 -0.07630 0.54051
 N128 N -0.03295 -0.09725 0.56853
 N129 N 0.01764 -0.07667 0.46075
 N130 N 0.03084 -0.09771 0.43282
 Mn131 Mn -0.04874 -0.04798 0.50042
 Mn132 Mn 0.04676 -0.04806 0.50053
 Cl133 Cl -0.00093 -0.00035 0.50022
 C134 C -0.00087 -0.11062 0.41550
 C135 C -0.00126 -0.11015 0.58592
 C136 C -0.33578 0.17444 -0.03636
 C137 C -0.32077 0.18784 -0.00217
 C138 C -0.33573 0.17513 0.03234
 C139 C -0.36588 0.14947 0.03269
 C140 C -0.38146 0.13629 -0.00153
 C141 C -0.36593 0.14878 -0.03608
 C142 C -0.29088 0.21552 -0.00248
 C143 C -0.26633 0.23923 -0.00265
 C144 C -0.23815 0.26755 -0.00274
 C145 C -0.21458 0.29221 -0.00270
 C146 C -0.18703 0.32223 -0.00250
 C147 C -0.17402 0.33693 0.03197
 C148 C -0.14848 0.36714 0.03226
 C149 C -0.13569 0.38306 -0.00199
 C150 C -0.14849 0.36782 -0.03651
 C151 C -0.17405 0.33760 -0.03674
 H152 H -0.32446 0.18414 -0.06323
 H153 H -0.32437 0.18536 0.05898
 H154 H -0.37724 0.14029 0.05971
 H155 H -0.37733 0.13905 -0.06286
 H156 H -0.18393 0.32529 0.05863
 H157 H -0.13904 0.37828 0.05926
 H158 H -0.13907 0.37949 -0.06332
 H159 H -0.18398 0.32648 -0.06358
 C160 C 0.33687 0.82588 -0.03212
 C161 C 0.32205 0.81290 0.00234
 C162 C 0.33725 0.82596 0.03659
 C163 C 0.36744 0.85157 0.03639
 C164 C 0.38282 0.86433 0.00188
 C165 C 0.36706 0.85147 -0.03238
 C166 C 0.29212 0.78525 0.00251
 C167 C 0.26755 0.76158 0.00250
 C168 C 0.23935 0.73329 0.00235
 C169 C 0.21577 0.70863 0.00212
 C170 C 0.18822 0.67862 0.00176
 C171 C 0.17504 0.66331 0.03593
 C172 C 0.14951 0.63307 0.03560
 C173 C 0.13694 0.61776 0.00103
 C174 C 0.14992 0.63363 -0.03317
 C175 C 0.17545 0.66386 -0.03278
 H176 H 0.32537 0.81590 -0.05879
 H177 H 0.32603 0.81604 0.06343
 H178 H 0.37900 0.86105 0.06320
 H179 H 0.37830 0.86087 -0.05938
 H180 H 0.18480 0.67448 0.06282
 H181 H 0.13993 0.62145 0.06237
 H182 H 0.14066 0.62243 -0.06021
 H183 H 0.18552 0.67546 -0.05939
 C184 C 0.33668 0.17406 -0.03542
 C185 C 0.32167 0.18721 -0.00112
 C186 C 0.33675 0.17441 0.03329
 C187 C 0.36700 0.14891 0.03344
 C188 C 0.38257 0.13596 -0.00089
 C189 C 0.36694 0.14855 -0.03533
 C190 C 0.29167 0.21476 -0.00122
 C191 C 0.26703 0.23836 -0.00124
 C192 C 0.23877 0.26657 -0.00121
 C193 C 0.21513 0.29116 -0.00115
 C194 C 0.18753 0.32111 -0.00104
 C195 C 0.17441 0.33586 0.03338
 C196 C 0.14887 0.36608 0.03353
 C197 C 0.13623 0.38194 -0.00079
 C198 C 0.14913 0.36662 -0.03524
 C199 C 0.17467 0.33640 -0.03533
 H200 H 0.32527 0.18384 -0.06221
 H201 H 0.32539 0.18446 0.06000
 H202 H 0.37844 0.13964 0.06039
 H203 H 0.37833 0.13900 -0.06219
 H204 H 0.18423 0.32428 0.06008
 H205 H 0.13936 0.37728 0.06048
 H206 H 0.13982 0.37824 -0.06209
 H207 H 0.18469 0.32525 -0.06213
 C208 C -0.33529 0.82643 -0.03350
 C209 C -0.32003 0.81371 0.00086
 C210 C -0.33489 0.82689 0.03521
 C211 C -0.36519 0.85235 0.03523
 C212 C -0.38102 0.86485 0.00085
 C213 C -0.36559 0.85189 -0.03354
 C214 C -0.29000 0.78619 0.00085
 C215 C -0.26535 0.76261 0.00078
 C216 C -0.23708 0.73440 0.00064
 C217 C -0.21345 0.70980 0.00049
 C218 C -0.18588 0.67983 0.00030
 C219 C -0.17305 0.66444 0.03456
 C220 C -0.14756 0.63419 0.03440
 C221 C -0.13467 0.61893 -0.00008
 C222 C -0.14727 0.63489 -0.03437
 C223 C -0.17277 0.66515 -0.03414
 H224 H -0.32405 0.81636 -0.06025
 H225 H -0.32333 0.81717 0.06197
 H226 H -0.37648 0.86192 0.06213
 H227 H -0.37718 0.86109 -0.06044
 H228 H -0.18307 0.67554 0.06138
 H229 H -0.13828 0.62249 0.06124
 H230 H -0.13777 0.62374 -0.06134
 H231 H -0.18257 0.67681 -0.06083
 C232 C 0.03470 -0.33717 0.17502
 C233 C 0.00035 -0.32202 0.18776
 C234 C -0.03391 -0.33686 0.17443
 C235 C -0.03385 -0.36701 0.14880
 C236 C 0.00052 -0.38271 0.13625
 C237 C 0.03482 -0.36732 0.14938
 C238 C 0.00022 -0.29209 0.21539
 C239 C 0.00005 -0.26749 0.23904
 C240 C -0.00017 -0.23925 0.26730
 C241 C -0.00035 -0.21562 0.29192
 C242 C -0.00051 -0.18800 0.32189
 C243 C -0.03489 -0.17510 0.33686
 C244 C -0.03505 -0.14949 0.36707
 C245 C -0.00078 -0.13656 0.38268
 C246 C 0.03363 -0.14926 0.36715
 C247 C 0.03372 -0.17486 0.33695
 H248 H 0.06138 -0.32593 0.18520
 H249 H -0.06066 -0.32539 0.18416
 H250 H -0.06069 -0.37826 0.13911
 H251 H 0.06171 -0.37882 0.14014
 H252 H -0.06155 -0.18514 0.32546
 H253 H -0.06196 -0.14014 0.37843
 H254 H 0.06045 -0.13972 0.37857
 H255 H 0.06049 -0.18471 0.32562
 C256 C 0.03449 0.33720 0.82471
 C257 C 0.00009 0.32239 0.81169
 C258 C -0.03412 0.33768 0.82460
 C259 C -0.03398 0.36793 0.85011
 C260 C 0.00045 0.38329 0.86295
 C261 C 0.03469 0.36745 0.85023
 C262 C -0.00010 0.29234 0.78419
 C263 C -0.00029 0.26763 0.76065
 C264 C -0.00051 0.23926 0.73252
 C265 C -0.00066 0.21551 0.70801
 C266 C -0.00078 0.18776 0.67817
 C267 C -0.03512 0.17486 0.66313
 C268 C -0.03522 0.14913 0.63303
 C269 C -0.00092 0.13608 0.61759
 C270 C 0.03345 0.14877 0.63319
 C271 C 0.03349 0.17449 0.66329
 H272 H 0.06114 0.32562 0.81485
 H273 H -0.06090 0.32648 0.81465
 H274 H -0.06078 0.37953 0.85948
 H275 H 0.06162 0.37868 0.85970
 H276 H -0.06181 0.18500 0.67440
 H277 H -0.06211 0.13978 0.62160
 H278 H 0.06030 0.13914 0.62190
 H279 H 0.06023 0.18434 0.67467
 C280 C -0.03495 0.33566 0.17317
 C281 C -0.00071 0.32044 0.18612
 C282 C 0.03366 0.33535 0.17312
 C283 C 0.03383 0.36566 0.14763
 C284 C -0.00044 0.38146 0.13491
 C285 C -0.03485 0.36598 0.14767
 C286 C -0.00080 0.29040 0.21370
 C287 C -0.00079 0.26575 0.23733
 C288 C -0.00073 0.23748 0.26561
 C289 C -0.00067 0.21384 0.29027
 C290 C -0.00063 0.18626 0.32032
 C291 C 0.03368 0.17341 0.33547
 C292 C 0.03372 0.14790 0.36581
 C293 C -0.00061 0.13503 0.38138
 C294 C -0.03495 0.14767 0.36565
 C295 C -0.03493 0.17317 0.33532
 H296 H -0.06171 0.32438 0.18311
 H297 H 0.06033 0.32383 0.18301
 H298 H 0.06075 0.37698 0.13823
 H299 H -0.06165 0.37756 0.13829
 H300 H 0.06039 0.18342 0.32412
 H301 H 0.06059 0.13859 0.37732
 H302 H -0.06182 0.13818 0.37704
 H303 H -0.06165 0.18299 0.32386
 C304 C 0.03371 -0.33664 0.82616
 C305 C -0.00090 -0.32220 0.81346
 C306 C -0.03481 -0.33783 0.82672
 C307 C -0.03418 -0.36812 0.85226
 C308 C 0.00055 -0.38340 0.86487
 C309 C 0.03452 -0.36691 0.85167
 C310 C -0.00153 -0.29214 0.78590
 C311 C -0.00181 -0.26744 0.76231
 C312 C -0.00192 -0.23908 0.73411
 C313 C -0.00189 -0.21536 0.70953
 C314 C -0.00173 -0.18765 0.67959
 C315 C -0.03596 -0.17449 0.66451
 C316 C -0.03583 -0.14882 0.63431
 C317 C -0.00141 -0.13609 0.61879
 C318 C 0.03284 -0.14904 0.63444
 C319 C 0.03265 -0.17470 0.66464
 H320 H 0.06014 -0.32475 0.81604
 H321 H -0.06178 -0.32686 0.81703
 H322 H -0.06100 -0.37971 0.86171
 H323 H 0.06188 -0.37753 0.86065
 H324 H -0.06273 -0.18437 0.67582
 H325 H -0.06264 -0.13928 0.62285
 H326 H 0.05977 -0.13966 0.62308
 H327 H 0.05931 -0.18476 0.67605
 C328 C 0.33626 0.03345 0.82601
 C329 C 0.32112 -0.00082 0.81320
 C330 C 0.33614 -0.03505 0.82633
 C331 C 0.36648 -0.03504 0.85182
 C332 C 0.38219 -0.00073 0.86441
 C333 C 0.36660 0.03353 0.85150
 C334 C 0.29103 -0.00083 0.78567
 C335 C 0.26631 -0.00074 0.76208
 C336 C 0.23796 -0.00057 0.73388
 C337 C 0.21424 -0.00043 0.70929
 C338 C 0.18654 -0.00033 0.67934
 C339 C 0.17328 -0.03454 0.66445
 C340 C 0.14765 -0.03451 0.63423
 C341 C 0.13503 -0.00020 0.61850
 C342 C 0.14807 0.03405 0.63395
 C343 C 0.17371 0.03396 0.66418
 H344 H 0.32490 0.06010 0.81599
 H345 H 0.32468 -0.06174 0.81654
 H346 H 0.37790 -0.06184 0.86135
 H347 H 0.37808 0.06037 0.86077
 H348 H 0.18307 -0.06124 0.67593
 H349 H 0.13803 -0.06132 0.62294
 H350 H 0.13878 0.06089 0.62243
 H351 H 0.18385 0.06061 0.67544
 C352 C -0.33677 0.03344 0.17377
 C353 C -0.32247 -0.00111 0.18672
 C354 C -0.33818 -0.03498 0.17362
 C355 C -0.36841 -0.03437 0.14800
 C356 C -0.38355 0.00029 0.13514
 C357 C -0.36698 0.03422 0.14818
 C358 C -0.29247 -0.00168 0.21437
 C359 C -0.26783 -0.00190 0.23803
 C360 C -0.23955 -0.00190 0.26632
 C361 C -0.21590 -0.00177 0.29097
 C362 C -0.18826 -0.00152 0.32098
 C363 C -0.17518 -0.03564 0.33628
 C364 C -0.14959 -0.03541 0.36654
 C365 C -0.13684 -0.00100 0.38189
 C366 C -0.14971 0.03315 0.36603
 C367 C -0.17531 0.03286 0.33577
 H368 H -0.32481 0.05984 0.18377
 H369 H -0.32731 -0.06189 0.18351
 H370 H -0.38007 -0.06115 0.13868
 H371 H -0.37749 0.06153 0.13901
 H372 H -0.18507 -0.06241 0.32509
 H373 H -0.14010 -0.06214 0.37815
 H374 H -0.14032 0.06007 0.37726
 H375 H -0.18530 0.05944 0.32418
 C376 C 0.33712 -0.03344 0.17493
 C377 C 0.32193 0.00076 0.18786
 C378 C 0.33687 0.03506 0.17479
 C379 C 0.36717 0.03519 0.14922
 C380 C 0.38290 0.00095 0.13650
 C381 C 0.36740 -0.03338 0.14937
 C382 C 0.29184 0.00060 0.21543
 C383 C 0.26712 0.00036 0.23902
 C384 C 0.23874 0.00003 0.26722
 C385 C 0.21498 -0.00022 0.29178
 C386 C 0.18722 -0.00040 0.32169
 C387 C 0.17387 0.03378 0.33655
 C388 C 0.14814 0.03370 0.36670
 C389 C 0.13551 -0.00062 0.38240
 C390 C 0.14864 -0.03486 0.36698
 C391 C 0.17438 -0.03472 0.33682
 H392 H 0.32581 -0.06015 0.18491
 H393 H 0.32537 0.06170 0.18467
 H394 H 0.37851 0.06204 0.13973
 H395 H 0.37892 -0.06017 0.14000
 H396 H 0.18367 0.06050 0.32510
 H397 H 0.13846 0.06050 0.37797
 H398 H 0.13934 -0.06171 0.37848
 H399 H 0.18458 -0.06134 0.32558
 C400 C -0.33864 0.03564 0.82630
 C401 C -0.32292 0.00175 0.81327
 C402 C -0.33723 -0.03277 0.82627
 C403 C -0.36747 -0.03353 0.85185
 C404 C -0.38405 0.00041 0.86482
 C405 C -0.36890 0.03507 0.85191
 C406 C -0.29289 0.00227 0.78565
 C407 C -0.26823 0.00237 0.76200
 C408 C -0.23992 0.00219 0.73373
 C409 C -0.21625 0.00190 0.70909
 C410 C -0.18859 0.00148 0.67909
 C411 C -0.17582 -0.03297 0.66431
 C412 C -0.15020 -0.03340 0.63406
 C413 C -0.13712 0.00068 0.61820
 C414 C -0.14968 0.03516 0.63355
 C415 C -0.17530 0.03553 0.66379
 H416 H -0.32776 0.06254 0.81637
 H417 H -0.32526 -0.05918 0.81633
 H418 H -0.37798 -0.06083 0.86106
 H419 H -0.38057 0.06185 0.86119
 H420 H -0.18599 -0.05949 0.67590
 H421 H -0.14095 -0.06036 0.62284
 H422 H -0.14003 0.06184 0.62193
 H423 H -0.18504 0.06235 0.67497
   
