data_POSCAR
  _audit_creation_date              2014-09-24
  _audit_creation_method            'ToBaCCo'
  _symmetry_space_group_name_H-M    'P1'
  _symmetry_Int_Tables_number       1
  _symmetry_cell_setting            triclinic
  loop_
  _symmetry_equiv_pos_as_xyz
 x,y,z
_cell_length_a 32.2790
_cell_length_b 32.1844
_cell_length_c 20.5195
_cell_angle_alpha 90.033700
_cell_angle_beta 90.070800
_cell_angle_gamma 87.429200
loop_
  _atom_site_label
  _atom_site_type_symbol
  _atom_site_fract_x
  _atom_site_fract_y
  _atom_site_fract_z
C1 C -0.03753 0.28212 0.02576
 C2 C -0.03670 0.27469 -0.04298
 C3 C 0.00204 0.27148 -0.07474
 C4 C 0.03993 0.27531 -0.04175
 C5 C 0.03857 0.28389 0.02610
 C6 C 0.00025 0.28868 0.05799
 H7 H 0.00058 0.29248 0.11051
 H8 H 0.00256 0.26877 -0.12736
 C9 C 0.45854 0.78575 0.54543
 C10 C 0.45707 0.78611 0.47664
 C11 C 0.49402 0.78683 0.44117
 C12 C 0.53274 0.78574 0.47243
 C13 C 0.53434 0.78522 0.54148
 C14 C 0.49713 0.78600 0.57700
 H15 H 0.49825 0.78452 0.62978
 H16 H 0.49259 0.78672 0.38835
 C17 C 1.03728 0.72133 0.04096
 C18 C 1.03698 0.71502 -0.02753
 C19 C 0.99913 0.71215 -0.06070
 C20 C 0.96062 0.71796 -0.02860
 C21 C 0.96099 0.72282 0.04043
 C22 C 0.99897 0.72393 0.07351
 H23 H 0.99846 0.72587 0.12626
 H24 H 1.00010 0.71009 -0.11341
 C25 C 0.54212 0.21339 0.52444
 C26 C 0.54208 0.21486 0.45558
 C27 C 0.50415 0.21497 0.42209
 C28 C 0.46630 0.21446 0.45567
 C29 C 0.46650 0.21304 0.52458
 C30 C 0.50442 0.21210 0.55798
 H31 H 0.50449 0.21249 0.61085
 H32 H 0.50400 0.21709 0.36934
 C33 C 0.71597 -0.03529 0.03498
 C34 C 0.71227 -0.03621 -0.03426
 C35 C 0.71031 0.00121 -0.06953
 C36 C 0.71349 0.03965 -0.03842
 C37 C 0.71707 0.04099 0.03000
 C38 C 0.71766 0.00388 0.06561
 H39 H 0.71924 0.00600 0.11827
 H40 H 0.70934 0.00022 -0.12236
 C41 C 0.20917 0.46282 0.53585
 C42 C 0.20824 0.46324 0.46692
 C43 C 0.20720 0.50144 0.43392
 C44 C 0.20798 0.53922 0.46792
 C45 C 0.20873 0.53882 0.53680
 C46 C 0.20879 0.50067 0.56982
 H47 H 0.21072 0.50037 0.62261
 H48 H 0.20809 0.50167 0.38107
 C49 C 0.28606 1.03792 0.03455
 C50 C 0.28280 1.03558 -0.03517
 C51 C 0.28077 0.99600 -0.06438
 C52 C 0.28162 0.95935 -0.02785
 C53 C 0.28582 0.96150 0.04030
 C54 C 0.28895 1.00032 0.07035
 H55 H 0.28951 1.00102 0.12317
 H56 H 0.27935 0.99315 -0.11698
 C57 C 0.79008 0.53657 0.53564
 C58 C 0.78945 0.53782 0.46675
 C59 C 0.79032 0.50044 0.43155
 C60 C 0.79054 0.46190 0.46336
 C61 C 0.79089 0.46068 0.53221
 C62 C 0.79123 0.49799 0.56744
 H63 H 0.79011 0.49707 0.62025
 H64 H 0.78868 0.50142 0.37876
 O65 O 0.21728 0.28094 0.16682
 O66 O 0.31498 0.25944 0.25553
 O67 O 0.27506 0.22199 0.16224
 O68 O 0.25660 0.31658 0.26104
 O69 O 0.22039 0.28069 0.33088
 O70 O 0.24466 0.18488 0.23759
 O71 O 0.28157 0.22408 0.32951
 O72 O 0.18483 0.24094 0.23589
 Cu73 Cu 0.26936 0.27333 0.20400
 Cu74 Cu 0.22945 0.22919 0.29106
 C75 C 0.18472 0.26379 0.18546
 C76 C 0.31485 0.23867 0.30810
 C77 C 0.26320 0.18738 0.18338
 C78 C 0.23506 0.31475 0.31261
 O79 O 0.77468 0.72268 0.33897
 O80 O 0.75323 0.81853 0.24495
 O81 O 0.71540 0.78087 0.33873
 O82 O 0.81166 0.76141 0.24621
 O83 O 0.77815 0.72452 0.17417
 O84 O 0.68131 0.74583 0.26511
 O85 O 0.71972 0.78310 0.17116
 O86 O 0.73897 0.68756 0.26732
 Cu87 Cu 0.76705 0.77441 0.29976
 Cu88 Cu 0.72607 0.73172 0.21206
 C89 C 0.76022 0.68880 0.31934
 C90 C 0.73348 0.81715 0.19146
 C91 C 0.68187 0.76654 0.31780
 C92 C 0.81140 0.73990 0.19433
 O93 O 0.82049 0.24241 0.23293
 O94 O 0.72554 0.22375 0.32599
 O95 O 0.76518 0.18691 0.22959
 O96 O 0.78169 0.28042 0.32775
 O97 O 0.74475 0.31830 0.25707
 O98 O 0.72578 0.22430 0.16150
 O99 O 0.68877 0.26340 0.25748
 O100 O 0.78297 0.27895 0.16110
 Cu101 Cu 0.77680 0.22959 0.28645
 Cu102 Cu 0.73194 0.27511 0.20213
 C103 C 0.81762 0.26333 0.18065
 C104 C 0.69104 0.24059 0.30793
 C105 C 0.74265 0.18965 0.17885
 C106 C 0.76619 0.31535 0.30890
 O107 O 0.27716 0.78106 0.17792
 O108 O 0.25659 0.68605 0.26993
 O109 O 0.21959 0.72604 0.17384
 O110 O 0.31245 0.74065 0.27450
 O111 O 0.27485 0.77983 0.34260
 O112 O 0.18182 0.76293 0.24443
 O113 O 0.21859 0.72331 0.33997
 O114 O 0.23735 0.81813 0.24579
 Cu115 Cu 0.27017 0.72976 0.21678
 Cu116 Cu 0.22444 0.77474 0.30044
 C117 C 0.26055 0.81572 0.19586
 C118 C 0.23436 0.68850 0.32089
 C119 C 0.18474 0.74193 0.19214
 C120 C 0.30944 0.76286 0.32557
 O121 O 0.77987 0.27620 0.65866
 O122 O 0.76192 0.18229 0.75539
 O123 O 0.72353 0.21977 0.65876
 O124 O 0.81780 0.23713 0.75327
 O125 O 0.78115 0.27491 0.82418
 O126 O 0.68680 0.25947 0.72729
 O127 O 0.72324 0.22010 0.82385
 O128 O 0.74264 0.31407 0.72896
 Cu129 Cu 0.77437 0.22506 0.69923
 Cu130 Cu 0.72983 0.27089 0.78342
 C131 C 0.76435 0.31115 0.67753
 C132 C 0.73940 0.18522 0.80603
 C133 C 0.68918 0.23686 0.67658
 C134 C 0.81569 0.25873 0.80501
 O135 O 0.21769 0.71861 0.83755
 O136 O 0.31270 0.73733 0.74524
 O137 O 0.27385 0.77494 0.84135
 O138 O 0.25718 0.68211 0.74120
 O139 O 0.21914 0.72059 0.67270
 O140 O 0.23635 0.81338 0.77208
 O141 O 0.27609 0.77667 0.67609
 O142 O 0.18115 0.75862 0.76896
 Cu143 Cu 0.26900 0.72439 0.79850
 Cu144 Cu 0.22464 0.77109 0.71499
 C145 C 0.18343 0.73573 0.81924
 C146 C 0.31058 0.76018 0.69485
 C147 C 0.25770 0.80994 0.82394
 C148 C 0.23518 0.68554 0.69000
 O149 O 0.26024 0.31256 0.73526
 O150 O 0.28361 0.21552 0.82602
 O151 O 0.31919 0.25579 0.73187
 O152 O 0.22339 0.27242 0.82820
 O153 O 0.18923 0.23713 0.75501
 O154 O 0.28481 0.21981 0.65961
 O155 O 0.24857 0.18090 0.75309
 O156 O 0.22507 0.27775 0.66258
 Cu157 Cu 0.27506 0.26755 0.78777
 Cu158 Cu 0.23354 0.22549 0.70002
 C159 C 0.23889 0.31167 0.68330
 C160 C 0.26960 0.18165 0.80541
 C161 C 0.31822 0.23504 0.67925
 C162 C 0.18996 0.25722 0.80825
 O163 O 0.81564 0.75667 0.76303
 O164 O 0.72006 0.77696 0.66759
 O165 O 0.75792 0.81529 0.76201
 O166 O 0.77875 0.71849 0.66993
 O167 O 0.74221 0.68441 0.74163
 O168 O 0.72131 0.78122 0.83381
 O169 O 0.68437 0.74284 0.74049
 O170 O 0.77968 0.72320 0.83639
 Cu171 Cu 0.77153 0.77039 0.70818
 Cu172 Cu 0.72841 0.72932 0.79538
 C173 C 0.81368 0.73687 0.81631
 C174 C 0.68613 0.76313 0.68769
 C175 C 0.73646 0.81458 0.81375
 C176 C 0.76384 0.68499 0.68997
 C177 C 0.30401 0.08166 0.12822
 C178 C 0.28117 0.07570 0.07040
 C179 C 0.25174 0.10732 0.05169
 C180 C 0.24697 0.14420 0.08740
 C181 C 0.27016 0.14970 0.14411
 C182 C 0.29834 0.11814 0.16478
 H183 H 0.32709 0.05852 0.14460
 H184 H 0.23147 0.10325 0.01036
 H185 H 0.22422 0.16795 0.07189
 H186 H 0.31623 0.12192 0.20894
 C187 C 0.74623 0.58212 0.60839
 C188 C 0.78395 0.57452 0.57567
 C189 C 0.81577 0.60239 0.58321
 C190 C 0.80913 0.63864 0.62003
 C191 C 0.77120 0.64651 0.65215
 C192 C 0.74001 0.61768 0.64685
 H193 H 0.72157 0.56055 0.60385
 H194 H 0.84574 0.59602 0.56097
 H195 H 0.83383 0.66017 0.62437
 H196 H 0.71051 0.62319 0.67118
 C197 C 0.74499 0.92667 0.12965
 C198 C 0.71917 0.92818 0.07400
 C199 C 0.69671 0.89270 0.05939
 C200 C 0.70109 0.85673 0.09753
 C201 C 0.72743 0.85545 0.15205
 C202 C 0.74899 0.89094 0.16795
 H203 H 0.76378 0.95249 0.14243
 H204 H 0.67460 0.89294 0.01976
 H205 H 0.68355 0.83002 0.08459
 H206 H 0.76983 0.89089 0.20937
 C207 C 0.18614 0.39372 0.57585
 C208 C 0.21619 0.42386 0.57349
 C209 C 0.25304 0.41748 0.60918
 C210 C 0.26009 0.38123 0.64566
 C211 C 0.23069 0.35038 0.64618
 C212 C 0.19369 0.35684 0.61082
 H213 H 0.15667 0.39890 0.55144
 H214 H 0.27641 0.44061 0.60859
 H215 H 0.28888 0.37692 0.67249
 H216 H 0.17028 0.33376 0.61142
 C217 C 0.91793 0.30394 0.11838
 C218 C 0.92647 0.27759 0.06452
 C219 C 0.89909 0.24549 0.05186
 C220 C 0.86343 0.24139 0.08928
 C221 C 0.85481 0.26846 0.14127
 C222 C 0.88235 0.29945 0.15621
 H223 H 0.93796 0.32901 0.13006
 H224 H 0.90557 0.22288 0.01372
 H225 H 0.84280 0.21668 0.07821
 H226 H 0.87612 0.32037 0.19677
 C227 C 0.41711 0.74332 0.62067
 C228 C 0.42095 0.78014 0.58509
 C229 C 0.38898 0.81108 0.58771
 C230 C 0.35274 0.80443 0.62271
 C231 C 0.34864 0.76734 0.65764
 C232 C 0.38138 0.73709 0.65707
 H233 H 0.44164 0.71923 0.61967
 H234 H 0.39213 0.84044 0.56303
 H235 H 0.32822 0.82854 0.62343
 H236 H 0.37898 0.70825 0.68370
 C237 C 0.07451 0.75430 0.13025
 C238 C 0.07421 0.72604 0.07763
 C239 C 0.11116 0.70252 0.06405
 C240 C 0.14717 0.70784 0.10063
 C241 C 0.14706 0.73627 0.15253
 C242 C 0.11030 0.75931 0.16697
 H243 H 0.04737 0.77387 0.14199
 H244 H 0.11202 0.67856 0.02715
 H245 H 0.17488 0.68908 0.08905
 H246 H 0.10922 0.78171 0.20642
 C247 C 0.60919 0.18592 0.57263
 C248 C 0.58012 0.21901 0.56290
 C249 C 0.58642 0.25758 0.59224
 C250 C 0.62174 0.26323 0.62999
 C251 C 0.65163 0.23058 0.63782
 C252 C 0.64522 0.19192 0.60866
 H253 H 0.60392 0.15548 0.55267
 H254 H 0.56388 0.28324 0.58594
 H255 H 0.62610 0.29328 0.65216
 H256 H 0.66761 0.16615 0.61505
 C257 C 0.75715 0.08113 0.88866
 C258 C 0.71930 0.07680 0.92090
 C259 C 0.68746 0.10749 0.91326
 C260 C 0.69415 0.14317 0.87657
 C261 C 0.73220 0.14774 0.84480
 C262 C 0.76343 0.11616 0.85037
 H263 H 0.78187 0.05743 0.89348
 H264 H 0.65748 0.10383 0.93552
 H265 H 0.66939 0.16684 0.87199
 H266 H 0.79299 0.11901 0.82624
 C267 C 0.18269 0.60910 0.42563
 C268 C 0.21409 0.57766 0.43023
 C269 C 0.25163 0.58236 0.39726
 C270 C 0.25800 0.61829 0.36117
 C271 C 0.22717 0.65045 0.35840
 C272 C 0.18949 0.64565 0.39109
 H273 H 0.15285 0.60525 0.44818
 H274 H 0.27603 0.55818 0.39967
 H275 H 0.28729 0.62128 0.33629
 H276 H 0.16501 0.66974 0.38863
 C277 C 0.30644 0.88817 0.93464
 C278 C 0.27510 0.91980 0.93742
 C279 C 0.23811 0.91499 0.90282
 C280 C 0.23248 0.87913 0.86613
 C281 C 0.26352 0.84718 0.86418
 C282 C 0.30037 0.85173 0.89935
 H283 H 0.33597 0.89210 0.95821
 H284 H 0.21379 0.93929 0.90367
 H285 H 0.20376 0.87629 0.83945
 H286 H 0.32501 0.82778 0.89763
 C287 C 0.74789 0.42029 0.38861
 C288 C 0.78488 0.42425 0.42358
 C289 C 0.81630 0.39287 0.41893
 C290 C 0.81002 0.35702 0.38239
 C291 C 0.77286 0.35290 0.34783
 C292 C 0.74205 0.38504 0.35056
 H293 H 0.72349 0.44448 0.39104
 H294 H 0.84578 0.39626 0.44296
 H295 H 0.83449 0.33292 0.37997
 H296 H 0.71316 0.38253 0.32425
 C297 C 0.11190 0.29517 0.93577
 C298 C 0.07761 0.27077 0.92230
 C299 C 0.08120 0.24232 0.86996
 C300 C 0.11748 0.23822 0.83317
 C301 C 0.15154 0.26226 0.84740
 C302 C 0.14845 0.29067 0.89926
 H303 H 0.11008 0.31928 0.97241
 H304 H 0.05637 0.22202 0.85833
 H305 H 0.11898 0.21569 0.79392
 H306 H 0.17400 0.31010 0.91081
 C307 C 0.57387 0.75233 0.38207
 C308 C 0.57061 0.78256 0.43139
 C309 C 0.60367 0.80878 0.44152
 C310 C 0.63990 0.80379 0.40445
 C311 C 0.64326 0.77314 0.35566
 C312 C 0.60968 0.74782 0.34437
 H313 H 0.54892 0.73156 0.37357
 H314 H 0.60160 0.83277 0.47853
 H315 H 0.66523 0.82392 0.41389
 H316 H 0.61146 0.72379 0.30738
 C317 C 0.89167 0.75157 0.94945
 C318 C 0.92374 0.72200 0.93337
 C319 C 0.91894 0.69805 0.87627
 C320 C 0.88305 0.70272 0.83812
 C321 C 0.85105 0.73108 0.85642
 C322 C 0.85550 0.75541 0.91218
 H323 H 0.89491 0.77306 0.98944
 H324 H 0.94238 0.67476 0.86179
 H325 H 0.88004 0.68390 0.79472
 H326 H 0.83141 0.77827 0.92587
 C327 C 0.39834 0.18900 0.41580
 C328 C 0.42740 0.22011 0.41773
 C329 C 0.41991 0.25666 0.38152
 C330 C 0.38353 0.26239 0.34505
 C331 C 0.35373 0.23194 0.34510
 C332 C 0.36136 0.19521 0.38085
 H333 H 0.40445 0.15973 0.44053
 H334 H 0.44222 0.28082 0.38176
 H335 H 0.37830 0.29098 0.31783
 H336 H 0.33912 0.17099 0.38061
 C337 C 0.75586 0.90192 0.92995
 C338 C 0.71798 0.92504 0.92731
 C339 C 0.68631 0.91198 0.88612
 C340 C 0.69213 0.87561 0.84925
 C341 C 0.73002 0.85266 0.85204
 C342 C 0.76190 0.86602 0.89227
 H343 H 0.78077 0.91190 0.96085
 H344 H 0.65704 0.92969 0.88320
 H345 H 0.66731 0.86555 0.81822
 H346 H 0.79131 0.84851 0.89474
 C347 C 0.18255 0.39728 0.41922
 C348 C 0.21459 0.42481 0.42798
 C349 C 0.25282 0.41658 0.39715
 C350 C 0.25922 0.38095 0.35895
 C351 C 0.22772 0.35259 0.35205
 C352 C 0.18937 0.36088 0.38271
 H353 H 0.15225 0.40410 0.44009
 H354 H 0.27768 0.43785 0.40265
 H355 H 0.28903 0.37516 0.33568
 H356 H 0.16445 0.33972 0.37706
 C357 C 0.25625 0.07274 0.86791
 C358 C 0.28247 0.07083 0.92303
 C359 C 0.30743 0.10490 0.93523
 C360 C 0.30396 0.14071 0.89648
 C361 C 0.27633 0.14290 0.84352
 C362 C 0.25328 0.10817 0.82889
 H363 H 0.23594 0.04781 0.85678
 H364 H 0.32946 0.10407 0.97508
 H365 H 0.32264 0.16679 0.90834
 H366 H 0.23161 0.10886 0.78852
 C367 C 0.74483 0.58409 0.39618
 C368 C 0.78222 0.57710 0.43022
 C369 C 0.81278 0.60665 0.42651
 C370 C 0.80533 0.64352 0.39154
 C371 C 0.76789 0.65049 0.35751
 C372 C 0.73786 0.62032 0.35964
 H373 H 0.72111 0.56134 0.39779
 H374 H 0.84259 0.60093 0.44966
 H375 H 0.82921 0.66607 0.38959
 H376 H 0.70876 0.62504 0.33376
 C377 C 0.09120 0.75918 0.92672
 C378 C 0.07436 0.71991 0.93219
 C379 C 0.09300 0.68582 0.89903
 C380 C 0.12919 0.69070 0.86289
 C381 C 0.14596 0.73000 0.85764
 C382 C 0.12656 0.76428 0.88904
 H383 H 0.07686 0.78581 0.95157
 H384 H 0.08010 0.65542 0.90255
 H385 H 0.14381 0.66406 0.83842
 H386 H 0.13920 0.79480 0.88518
 C387 C 0.61261 0.19020 0.41595
 C388 C 0.58043 0.22097 0.41778
 C389 C 0.58442 0.25774 0.38208
 C390 C 0.62031 0.26396 0.34603
 C391 C 0.65311 0.23376 0.34583
 C392 C 0.64900 0.19685 0.38126
 H393 H 0.60940 0.16085 0.44059
 H394 H 0.55974 0.28168 0.38237
 H395 H 0.62268 0.29267 0.31904
 H396 H 0.67354 0.17276 0.38087
 C397 C 0.89116 0.29810 0.93021
 C398 C 0.92694 0.27238 0.91820
 C399 C 0.92578 0.24378 0.86619
 C400 C 0.88986 0.23988 0.82937
 C401 C 0.85391 0.26441 0.84318
 C402 C 0.85497 0.29380 0.89366
 H403 H 0.89114 0.32182 0.96763
 H404 H 0.95206 0.22277 0.85559
 H405 H 0.89004 0.21684 0.79088
 H406 H 0.82790 0.31363 0.90471
 C407 C 0.41186 0.74175 0.41073
 C408 C 0.41831 0.78028 0.44009
 C409 C 0.38909 0.81333 0.43093
 C410 C 0.35296 0.80739 0.39507
 C411 C 0.34659 0.76885 0.36548
 C412 C 0.37645 0.73617 0.37317
 H413 H 0.43452 0.71614 0.41647
 H414 H 0.39447 0.84379 0.45071
 H415 H 0.33060 0.83320 0.38876
 H416 H 0.37214 0.70622 0.35066
 C417 C 0.31277 0.89472 0.09120
 C418 C 0.28039 0.92466 0.08193
 C419 C 0.24218 0.91958 0.11268
 C420 C 0.23605 0.88449 0.15092
 C421 C 0.26780 0.85354 0.15786
 C422 C 0.30625 0.85893 0.12778
 H423 H 0.34294 0.89893 0.06989
 H424 H 0.21702 0.94267 0.10655
 H425 H 0.20616 0.88099 0.17372
 H426 H 0.33138 0.83575 0.13338
 C427 C 0.74625 0.41622 0.59864
 C428 C 0.78456 0.42187 0.56857
 C429 C 0.81657 0.39123 0.57532
 C430 C 0.80973 0.35453 0.60935
 C431 C 0.77135 0.34890 0.63945
 C432 C 0.73981 0.38018 0.63435
 H433 H 0.72139 0.43983 0.59456
 H434 H 0.84690 0.39588 0.55494
 H435 H 0.83470 0.33108 0.61376
 H436 H 0.71000 0.37649 0.65732
 C437 C 0.76120 0.08461 0.09946
 C438 C 0.72382 0.08002 0.06581
 C439 C 0.69241 0.11145 0.07016
 C440 C 0.69885 0.14765 0.10574
 C441 C 0.73620 0.15216 0.13962
 C442 C 0.76725 0.12025 0.13647
 H443 H 0.78556 0.06037 0.09741
 H444 H 0.66262 0.10761 0.04734
 H445 H 0.67422 0.17158 0.10838
 H446 H 0.79632 0.12307 0.16216
 C447 C 0.18354 0.60787 0.58200
 C448 C 0.21516 0.57683 0.57537
 C449 C 0.25301 0.58130 0.60771
 C450 C 0.25940 0.61660 0.64539
 C451 C 0.22827 0.64833 0.65033
 C452 C 0.19034 0.64380 0.61810
 H453 H 0.15348 0.60408 0.56002
 H454 H 0.27757 0.55737 0.60379
 H455 H 0.28887 0.61941 0.66995
 H456 H 0.16563 0.66755 0.62230
 C457 C 0.91778 0.75774 0.12705
 C458 C 0.92286 0.72557 0.08110
 C459 C 0.89158 0.69687 0.07426
 C460 C 0.85516 0.70133 0.11107
 C461 C 0.85004 0.73385 0.15651
 C462 C 0.88192 0.76167 0.16463
 H463 H 0.94134 0.78038 0.13300
 H464 H 0.89510 0.67149 0.03975
 H465 H 0.83111 0.67934 0.10418
 H466 H 0.87871 0.78719 0.19895
 C467 C 0.40191 0.18518 0.57256
 C468 C 0.42805 0.21832 0.56337
 C469 C 0.41867 0.25647 0.59430
 C470 C 0.38321 0.26167 0.63294
 C471 C 0.35618 0.22903 0.64010
 C472 C 0.36565 0.19079 0.60939
 H473 H 0.40970 0.15494 0.55175
 H474 H 0.43895 0.28214 0.58862
 H475 H 0.37645 0.29141 0.65625
 H476 H 0.34551 0.16502 0.61522
 C477 C 0.09114 0.31347 0.10109
 C478 C 0.07589 0.27921 0.06785
 C479 C 0.09575 0.23983 0.07543
 C480 C 0.13072 0.23480 0.11521
 C481 C 0.14674 0.26922 0.14671
 C482 C 0.12698 0.30864 0.13930
 H483 H 0.07589 0.34396 0.09605
 H484 H 0.08403 0.21304 0.05064
 H485 H 0.14583 0.20422 0.12035
 H486 H 0.13908 0.33546 0.16349
 C487 C 0.60159 0.74611 0.56552
 C488 C 0.57400 0.78023 0.57789
 C489 C 0.58381 0.80888 0.62662
 C490 C 0.62080 0.80371 0.66191
 C491 C 0.64834 0.76985 0.64885
 C492 C 0.63864 0.74111 0.60052
 H493 H 0.59425 0.72317 0.52913
 H494 H 0.56283 0.83522 0.63721
 H495 H 0.62783 0.82590 0.69963
 H496 H 0.65946 0.71452 0.59061
   
