data_POSCAR
  _audit_creation_date              2014-09-24
  _audit_creation_method            'ToBaCCo'
  _symmetry_space_group_name_H-M    'P1'
  _symmetry_Int_Tables_number       1
  _symmetry_cell_setting            triclinic
  loop_
  _symmetry_equiv_pos_as_xyz
 x,y,z
_cell_length_a 22.4663
_cell_length_b 21.7063
_cell_length_c 21.5696
_cell_angle_alpha 90.314400
_cell_angle_beta 90.061300
_cell_angle_gamma 89.933600
loop_
  _atom_site_label
  _atom_site_type_symbol
  _atom_site_fract_x
  _atom_site_fract_y
  _atom_site_fract_z
N1 N 0.18204 1.30436 0.13573
 N2 N 0.14456 1.30699 0.18252
 C3 C 0.10268 1.34984 0.17074
 C4 C 0.11518 1.37535 0.11381
 C5 C 0.16546 1.34557 0.09259
 H6 H 0.06472 1.35966 0.20002
 H7 H 0.18666 1.35133 0.04798
 Cu8 Cu 0.15107 1.25045 0.25158
 Cu9 Cu 0.24564 1.24336 0.13114
 Cu10 Cu 0.24514 1.13020 0.24374
 N11 N 0.14402 1.18124 0.30766
 N12 N 0.18130 1.13452 0.30474
 C13 C 0.16444 1.09136 0.34571
 C14 C 0.11417 1.11251 0.37563
 C15 C 0.10198 1.16942 0.35047
 H16 H 0.18549 1.04687 0.35125
 H17 H 0.06417 1.19873 0.36053
 N18 N 0.30573 1.13421 0.17782
 N19 N 0.30592 1.17738 0.13486
 C20 C 0.34928 1.16476 0.09358
 C21 C 0.37750 1.11145 0.11173
 C22 C 0.34896 1.09303 0.16497
 H23 H 0.35767 1.19041 0.05166
 H24 H 0.35705 1.05102 0.19037
 H25 H 0.19654 1.17879 0.17896
 H26 H 0.25320 1.22306 0.22442
 N27 N 0.82079 0.69381 0.13723
 N28 N 0.85855 0.69240 0.18386
 C29 C 0.90051 0.64945 0.17238
 C30 C 0.88785 0.62259 0.11581
 C31 C 0.83729 0.65168 0.09455
 H32 H 0.93870 0.64045 0.20156
 H33 H 0.81589 0.64479 0.05011
 Cu34 Cu 0.85235 0.75053 0.25221
 Cu35 Cu 0.75697 0.75450 0.13211
 Cu36 Cu 0.75799 0.87036 0.24316
 N37 N 0.85963 0.82112 0.30726
 N38 N 0.82226 0.86771 0.30385
 C39 C 0.83917 0.91179 0.34431
 C40 C 0.88957 0.89140 0.37438
 C41 C 0.90177 0.83396 0.34989
 H42 H 0.81793 0.95628 0.34953
 H43 H 0.93955 0.80484 0.36039
 N44 N 0.69694 0.86458 0.17766
 N45 N 0.69655 0.82040 0.13527
 C46 C 0.65286 0.83194 0.09407
 C47 C 0.62464 0.88560 0.11170
 C48 C 0.65351 0.90534 0.16453
 H49 H 0.64425 0.80529 0.05252
 H50 H 0.64550 0.94792 0.18943
 H51 H 0.80627 0.82028 0.17881
 H52 H 0.74999 0.77700 0.22514
 N53 N 0.82178 1.30161 -0.13412
 N54 N 0.85927 1.30463 -0.18081
 C55 C 0.90128 1.34707 -0.16794
 C56 C 0.88895 1.37186 -0.11037
 C57 C 0.83851 1.34215 -0.08999
 H58 H 0.93912 1.35730 -0.19708
 H59 H 0.81716 1.34771 -0.04539
 Cu60 Cu 0.85236 1.24935 -0.25144
 Cu61 Cu 0.75765 1.24130 -0.13129
 Cu62 Cu 0.75734 1.12997 -0.24694
 N63 N 0.85895 1.18096 -0.30933
 N64 N 0.82131 1.13459 -0.30772
 C65 C 0.83800 1.09186 -0.34973
 C66 C 0.88851 1.11291 -0.37895
 C67 C 0.90104 1.16932 -0.35229
 H68 H 0.81670 1.04763 -0.35640
 H69 H 0.93914 1.19833 -0.36140
 N70 N 0.69669 1.13362 -0.18099
 N71 N 0.69681 1.17613 -0.13690
 C72 C 0.65328 1.16340 -0.09603
 C73 C 0.62462 1.11072 -0.11560
 C74 C 0.65308 1.09275 -0.16928
 H75 H 0.64506 1.18851 -0.05344
 H76 H 0.64468 1.05123 -0.19578
 H77 H 0.80628 1.17699 -0.18086
 H78 H 0.75000 1.22259 -0.22513
 N79 N 0.17654 0.69606 -0.13499
 N80 N 0.13399 0.69805 -0.17690
 C81 C 0.09294 0.65488 -0.16362
 C82 C 0.11115 0.62440 -0.11101
 C83 C 0.16408 0.65154 -0.09376
 H84 H 0.05149 0.64816 -0.18827
 H85 H 0.18985 0.64186 -0.05256
 Cu86 Cu 0.13317 0.76131 -0.24043
 Cu87 Cu 0.24109 0.75585 -0.13264
 Cu88 Cu 0.24033 0.86898 -0.24563
 N89 N 0.13313 0.82491 -0.30363
 N90 N 0.17539 0.86679 -0.30552
 C91 C 0.16243 0.90801 -0.34999
 C92 C 0.10949 0.89069 -0.37721
 C93 C 0.09171 0.83816 -0.34682
 H94 H 0.18790 0.94915 -0.35953
 H95 H 0.05040 0.81346 -0.35355
 N96 N 0.30221 0.86348 -0.18103
 N97 N 0.30250 0.82038 -0.13800
 C98 C 0.34681 0.83226 -0.09751
 C99 C 0.37555 0.88495 -0.11626
 C100 C 0.34632 0.90384 -0.16899
 H101 H 0.35540 0.80670 -0.05554
 H102 H 0.35446 0.94578 -0.19442
 H103 H 0.19456 0.82694 -0.17418
 H104 H 0.23979 0.77611 -0.22594
 Si105 Si 0.50066 0.99758 -0.00281
 Si106 Si 0.00220 0.49716 1.00341
 Si107 Si 1.00128 0.00273 0.49776
 C108 C 0.08042 0.41488 1.08114
 C109 C 0.04938 0.44874 1.05101
 C110 C -0.07552 0.58016 1.08161
 C111 C -0.04460 0.54594 1.05146
 C112 C -0.07476 0.41382 0.92476
 C113 C -0.04415 0.44791 0.95538
 C114 C 0.07704 0.58123 0.92446
 C115 C 0.04767 0.54653 0.95525
 C116 C 1.07934 0.08001 0.41517
 C117 C 1.04830 0.05004 0.44909
 C118 C 1.07670 -0.07578 0.58211
 C119 C 1.04703 -0.04514 0.54736
 C120 C 0.92415 -0.07543 0.41404
 C121 C 0.95488 -0.04500 0.44823
 C122 C 0.92338 0.08050 0.58105
 C123 C 0.95442 0.05049 0.54678
 C124 C 0.41967 1.07625 0.07624
 C125 C 0.45334 1.04562 0.04542
 C126 C 0.58214 1.07553 -0.08098
 C127 C 0.54824 1.04508 -0.05067
 C128 C 0.41851 0.91965 -0.08129
 C129 C 0.45275 0.94992 -0.05079
 C130 C 0.58216 0.91995 0.07604
 C131 C 0.54826 0.95003 0.04520
   
