data_POSCAR
  _audit_creation_date              2014-09-24
  _audit_creation_method            'ToBaCCo'
  _symmetry_space_group_name_H-M    'P1'
  _symmetry_Int_Tables_number       1
  _symmetry_cell_setting            triclinic
  loop_
  _symmetry_equiv_pos_as_xyz
 x,y,z
_cell_length_a 67.5242
_cell_length_b 67.5480
_cell_length_c 20.1346
_cell_angle_alpha 89.905000
_cell_angle_beta 90.099600
_cell_angle_gamma 120.027800
loop_
  _atom_site_label
  _atom_site_type_symbol
  _atom_site_fract_x
  _atom_site_fract_y
  _atom_site_fract_z
C1 C 0.24768 0.49655 0.52856
 C2 C 0.24742 0.49626 0.46082
 C3 C 0.22809 0.49520 0.42247
 C4 C 0.26646 0.49709 0.42176
 C5 C 0.26577 0.49528 0.56729
 C6 C 0.22981 0.49809 0.56731
 C7 C 0.20550 0.47757 0.43342
 C8 C 0.18738 0.47726 0.39883
 C9 C 0.19167 0.49445 0.35240
 C10 C 0.21423 0.51174 0.34013
 C11 C 0.23234 0.51205 0.37479
 C12 C 0.26183 0.48012 0.37420
 C13 C 0.27965 0.48037 0.33833
 C14 C 0.30226 0.49769 0.34923
 C15 C 0.30696 0.51494 0.39555
 C16 C 0.28914 0.51473 0.43141
 C17 C 0.27840 0.51208 0.61505
 C18 C 0.29576 0.51135 0.65094
 C19 C 0.30055 0.49372 0.63988
 C20 C 0.28772 0.47665 0.59326
 C21 C 0.27033 0.47735 0.55737
 C22 C 0.22534 0.51607 0.55667
 C23 C 0.20787 0.51681 0.59172
 C24 C 0.19489 0.49975 0.63820
 C25 C 0.19964 0.48213 0.65020
 C26 C 0.21708 0.48135 0.61513
 H27 H 0.20193 0.46419 0.46916
 H28 H 0.17005 0.46368 0.40875
 H29 H 0.21788 0.52514 0.30428
 H30 H 0.24964 0.52571 0.36544
 H31 H 0.24444 0.46647 0.36577
 H32 H 0.27582 0.46697 0.30251
 H33 H 0.29303 0.52821 0.46695
 H34 H 0.27505 0.52596 0.62372
 H35 H 0.30554 0.52462 0.68697
 H36 H 0.29122 0.46287 0.58451
 H37 H 0.26049 0.46398 0.52170
 H38 H 0.23525 0.52936 0.52084
 H39 H 0.20439 0.53057 0.58226
 H40 H 0.18972 0.46887 0.68614
 H41 H 0.22035 0.46743 0.62425
 H42 H 0.32438 0.52848 0.40414
 C43 C 0.50655 -0.24712 0.53456
 C44 C 0.50650 -0.24728 0.46682
 C45 C 0.50547 -0.26655 0.42848
 C46 C 0.50741 -0.22820 0.42759
 C47 C 0.50527 -0.22901 0.57286
 C48 C 0.50785 -0.26507 0.57381
 C49 C 0.52220 -0.26218 0.38032
 C50 C 0.52166 -0.28016 0.34462
 C51 C 0.50430 -0.30269 0.35630
 C52 C 0.48731 -0.30715 0.40337
 C53 C 0.48782 -0.28916 0.43907
 C54 C 0.52507 -0.20554 0.43733
 C55 C 0.52536 -0.18771 0.40119
 C56 C 0.50816 -0.19238 0.35451
 C57 C 0.49083 -0.21496 0.34356
 C58 C 0.49050 -0.23280 0.37971
 C59 C 0.48735 -0.22443 0.56237
 C60 C 0.48664 -0.20702 0.59788
 C61 C 0.50367 -0.19420 0.64465
 C62 C 0.52129 -0.19900 0.65625
 C63 C 0.52204 -0.21637 0.62074
 C64 C 0.49111 -0.27752 0.62187
 C65 C 0.49178 -0.29485 0.65799
 C66 C 0.50932 -0.29980 0.64684
 C67 C 0.52637 -0.28711 0.59996
 C68 C 0.52571 -0.26975 0.56387
 H69 H 0.53586 -0.24486 0.37114
 H70 H 0.53486 -0.27652 0.30822
 H71 H 0.47374 -0.32450 0.41258
 H72 H 0.47451 -0.29285 0.47507
 H73 H 0.53850 -0.20169 0.47315
 H74 H 0.53890 -0.17029 0.40986
 H75 H 0.47683 -0.25016 0.37124
 H76 H 0.47402 -0.23426 0.52656
 H77 H 0.47288 -0.20351 0.58871
 H78 H 0.53452 -0.18921 0.69242
 H79 H 0.53590 -0.21973 0.62979
 H80 H 0.47729 -0.27407 0.63051
 H81 H 0.47850 -0.30450 0.69417
 H82 H 0.54010 -0.29069 0.59100
 H83 H 0.53903 -0.26004 0.52792
 H84 H 0.47747 -0.21877 0.30749
 C85 C 1.24753 0.75218 0.53575
 C86 C 1.24761 0.75246 0.46800
 C87 C 1.26680 0.77083 0.42959
 C88 C 1.22847 0.73431 0.42892
 C89 C 1.22946 0.73261 0.57382
 C90 C 1.26541 0.77143 0.57514
 C91 C 1.26230 0.78314 0.38147
 C92 C 1.28021 0.80072 0.34572
 C93 C 1.30282 0.80605 0.35728
 C94 C 1.30739 0.79355 0.40434
 C95 C 1.28947 0.77595 0.44008
 C96 C 1.20583 0.72929 0.43902
 C97 C 1.18788 0.71153 0.40387
 C98 C 1.19241 0.69880 0.35779
 C99 C 1.21499 0.70412 0.34625
 C100 C 1.23295 0.72185 0.38144
 C101 C 1.22500 0.71020 0.56288
 C102 C 1.20734 0.69185 0.59716
 C103 C 1.19414 0.69575 0.64325
 C104 C 1.19892 0.71812 0.65559
 C105 C 1.21654 0.73646 0.62125
 C106 C 1.27789 0.76716 0.62325
 C107 C 1.29513 0.78516 0.65957
 C108 C 1.29995 0.80763 0.64857
 C109 C 1.28723 0.81196 0.60164
 C110 C 1.26996 0.79394 0.56535
 H111 H 1.24494 0.77936 0.37236
 H112 H 1.27640 0.81020 0.30937
 H113 H 1.32478 0.79740 0.41360
 H114 H 1.29325 0.76635 0.47602
 H115 H 1.20208 0.73899 0.47455
 H116 H 1.17048 0.70763 0.41294
 H117 H 1.25030 0.72556 0.37269
 H118 H 1.23506 0.70693 0.52741
 H119 H 1.20392 0.67464 0.58731
 H120 H 1.18890 0.72141 0.69123
 H121 H 1.21982 0.75363 0.63064
 H122 H 1.27453 0.74991 0.63180
 H123 H 1.30480 0.78155 0.69579
 H124 H 1.29070 0.82924 0.59281
 H125 H 1.26022 0.79753 0.52939
 H126 H 1.21869 0.69441 0.31059
 C127 C 0.75172 0.50364 0.53543
 C128 C 0.75156 0.50328 0.46770
 C129 C 0.77086 0.50456 0.42887
 C130 C 0.73204 0.50166 0.42905
 C131 C 0.73351 0.50469 0.57386
 C132 C 0.77003 0.50289 0.57443
 C133 C 0.79338 0.52255 0.43857
 C134 C 0.81142 0.52327 0.40256
 C135 C 0.80710 0.50617 0.35607
 C136 C 0.78466 0.48848 0.34523
 C137 C 0.76662 0.48773 0.38123
 C138 C 0.73595 0.51835 0.38115
 C139 C 0.71764 0.51750 0.34620
 C140 C 0.69528 0.49985 0.35840
 C141 C 0.69132 0.48284 0.40495
 C142 C 0.70962 0.48365 0.43989
 C143 C 0.72100 0.48788 0.62172
 C144 C 0.70324 0.48818 0.65640
 C145 C 0.69793 0.50541 0.64398
 C146 C 0.71072 0.52256 0.59744
 C147 C 0.72850 0.52228 0.56280
 C148 C 0.77508 0.48528 0.56485
 C149 C 0.79274 0.48511 0.60072
 C150 C 0.80536 0.50240 0.64701
 C151 C 0.80006 0.51971 0.65779
 C152 C 0.78242 0.51989 0.62188
 H153 H 0.79695 0.53594 0.47414
 H154 H 0.82871 0.53709 0.41113
 H155 H 0.78112 0.47518 0.30930
 H156 H 0.74937 0.47381 0.37274
 H157 H 0.75312 0.53228 0.37186
 H158 H 0.72090 0.53072 0.31020
 H159 H 0.70631 0.47039 0.47579
 H160 H 0.72469 0.47426 0.63117
 H161 H 0.69353 0.47483 0.69237
 H162 H 0.70688 0.53607 0.58754
 H163 H 0.73823 0.53563 0.52695
 H164 H 0.76542 0.47176 0.52940
 H165 H 0.79658 0.47154 0.59208
 H166 H 0.80964 0.53316 0.69354
 H167 H 0.77868 0.53353 0.63024
 H168 H 0.67409 0.46905 0.41456
 C169 C 0.49814 0.24895 0.53629
 C170 C 0.49813 0.24900 0.46854
 C171 C 0.49927 0.26830 0.42985
 C172 C 0.49682 0.22967 0.42986
 C173 C 0.49932 0.23080 0.57493
 C174 C 0.49682 0.26695 0.57497
 C175 C 0.48241 0.26404 0.38211
 C176 C 0.48282 0.28212 0.34712
 C177 C 0.50018 0.30463 0.35908
 C178 C 0.51736 0.30896 0.40547
 C179 C 0.51699 0.29087 0.44045
 C180 C 0.47892 0.20717 0.44023
 C181 C 0.47836 0.18904 0.40526
 C182 C 0.49553 0.19325 0.35911
 C183 C 0.51307 0.21569 0.34735
 C184 C 0.51367 0.23383 0.38235
 C185 C 0.51706 0.22600 0.56434
 C186 C 0.51742 0.20821 0.59896
 C187 C 0.50019 0.19523 0.64505
 C188 C 0.48282 0.20036 0.65709
 C189 C 0.48244 0.21811 0.62242
 C190 C 0.51368 0.27969 0.62250
 C191 C 0.51313 0.29729 0.65729
 C192 C 0.49559 0.30221 0.64531
 C193 C 0.47839 0.28917 0.59916
 C194 C 0.47892 0.27155 0.56443
 H195 H 0.46869 0.24675 0.37298
 H196 H 0.46947 0.27858 0.31123
 H197 H 0.53093 0.32630 0.41490
 H198 H 0.53038 0.29448 0.47618
 H199 H 0.46554 0.20367 0.47578
 H200 H 0.46465 0.17175 0.41451
 H201 H 0.52752 0.25107 0.37341
 H202 H 0.53047 0.23587 0.52880
 H203 H 0.53103 0.20452 0.58934
 H204 H 0.46940 0.19050 0.69271
 H205 H 0.46871 0.22165 0.63153
 H206 H 0.52753 0.27630 0.63157
 H207 H 0.52652 0.30720 0.69296
 H208 H 0.46465 0.29270 0.58961
 H209 H 0.46553 0.26162 0.52887
 H210 H 0.52640 0.21914 0.31163
 C211 C 0.75208 0.24792 0.53530
 C212 C 0.75177 0.24788 0.46756
 C213 C 0.73219 0.22983 0.42949
 C214 C 0.77100 0.26577 0.42817
 C215 C 0.77047 0.26712 0.57368
 C216 C 0.73397 0.22875 0.57435
 C217 C 0.73604 0.21697 0.38187
 C218 C 0.71769 0.19942 0.34736
 C219 C 0.69533 0.19467 0.35971
 C220 C 0.69142 0.20778 0.40601
 C221 C 0.70977 0.22537 0.44050
 C222 C 0.79353 0.27032 0.43779
 C223 C 0.81152 0.28759 0.40142
 C224 C 0.80714 0.30029 0.35464
 C225 C 0.78468 0.29549 0.34381
 C226 C 0.76669 0.27826 0.38018
 C227 C 0.77552 0.28976 0.56327
 C228 C 0.79321 0.30770 0.59870
 C229 C 0.80585 0.30317 0.64539
 C230 C 0.80056 0.28059 0.65695
 C231 C 0.78290 0.26265 0.62148
 C232 C 0.72149 0.23316 0.62193
 C233 C 0.70375 0.21517 0.65698
 C234 C 0.69846 0.19262 0.64521
 C235 C 0.71122 0.18815 0.59905
 C236 C 0.72897 0.20614 0.56402
 H237 H 0.75321 0.22023 0.37244
 H238 H 0.72091 0.18941 0.31154
 H239 H 0.67420 0.20432 0.41574
 H240 H 0.70649 0.23537 0.47616
 H241 H 0.79715 0.26059 0.47365
 H242 H 0.82883 0.29111 0.40999
 H243 H 0.74943 0.27490 0.37176
 H244 H 0.76584 0.29351 0.52754
 H245 H 0.79703 0.32508 0.58946
 H246 H 0.81015 0.27681 0.69302
 H247 H 0.77916 0.24531 0.63050
 H248 H 0.72517 0.25049 0.63082
 H249 H 0.69402 0.21881 0.69269
 H250 H 0.70732 0.17077 0.58978
 H251 H 0.73867 0.20244 0.52838
 H252 H 0.78110 0.30519 0.30766
 O253 O 1.03170 0.55027 0.12111
 O254 O 1.05700 0.54528 0.05713
 C255 C 1.05221 0.55550 0.10347
 O256 O 0.96776 0.44766 0.11420
 O257 O 0.94238 0.45397 0.05448
 C258 C 0.94721 0.44263 0.09712
 O259 O 1.03188 0.48143 0.12035
 O260 O 1.05709 0.51200 0.05686
 C261 C 1.05237 0.49685 0.10284
 O262 O 0.96785 0.52020 0.11477
 O263 O 0.94259 0.48851 0.05520
 C264 C 0.94735 0.50464 0.09782
 Zr265 Zr 0.99976 0.52492 0.08251
 O266 O 0.99757 0.52471 0.18739
 O267 O 1.00078 0.55663 0.07507
 Zr268 Zr 0.99986 0.47495 0.08261
 O269 O 0.99734 0.47370 0.18751
 O270 O 1.00246 0.44499 0.08203
 O271 O 1.02024 0.51018 0.09562
 O272 O 0.97994 0.48995 0.09491
 O273 O 0.96764 0.52036 -0.11619
 O274 O 0.94253 0.48853 -0.05678
 C275 C 0.94717 0.50470 -0.09927
 O276 O 1.03175 0.48174 -0.12345
 O277 O 1.05699 0.51211 -0.05947
 C278 C 1.05225 0.49716 -0.10591
 O279 O 0.96778 0.44783 -0.11733
 O280 O 0.94256 0.45402 -0.05695
 C281 C 0.94728 0.44278 -0.10005
 O282 O 1.03159 0.55056 -0.12281
 O283 O 1.05692 0.54531 -0.05942
 C284 C 1.05212 0.55563 -0.10555
 Zr285 Zr 0.99964 0.52499 -0.08469
 O286 O 0.99701 0.52367 -0.18959
 O287 O 1.00172 0.55731 -0.08331
 Zr288 Zr 0.99978 0.47505 -0.08496
 O289 O 0.99714 0.47374 -0.18984
 O290 O 1.00245 0.44512 -0.08378
 Zr291 Zr 1.03404 0.51716 -0.00114
 Zr292 Zr 0.96557 0.48275 -0.00093
 O293 O 0.97980 0.49003 -0.09692
 O294 O 1.02014 0.51029 -0.09792
 O295 O 0.97918 0.51843 -0.00093
 O296 O 1.01978 0.48141 -0.00124
 O297 O 1.01974 0.53860 -0.00106
 O298 O 0.97937 0.46081 -0.00114
 H299 H 0.96971 0.48482 0.13411
 H300 H 1.03012 0.47496 -0.00140
 H301 H 0.96950 0.48493 -0.13602
 H302 H 1.03006 0.55540 -0.00103
 H303 H 0.98955 0.43336 0.05542
 H304 H 0.98933 0.43335 -0.05817
 H305 H 1.00964 0.48837 -0.20731
 H306 H 1.00984 0.52212 -0.20709
 H307 H 0.99060 0.55650 -0.04990
 H308 H 1.00082 0.56170 0.12125
 H309 H 1.00896 0.52094 0.20497
 H310 H 1.01029 0.48802 0.20499
 O311 O 0.54991 0.51777 0.11995
 O312 O 0.54473 0.48749 0.05568
 C313 C 0.55495 0.50235 0.10237
 O314 O 0.44747 0.47979 0.11171
 O315 O 0.45401 0.51141 0.05143
 C316 C 0.44261 0.49538 0.09433
 O317 O 0.48097 0.44918 0.11875
 O318 O 0.51138 0.45430 0.05520
 C319 C 0.49635 0.44405 0.10146
 O320 O 0.52015 0.55186 0.11299
 O321 O 0.48859 0.54556 0.05281
 C322 C 0.50463 0.55684 0.09583
 Zr323 Zr 0.52480 0.52463 0.08079
 O324 O 0.52449 0.52662 0.18566
 O325 O 0.55664 0.55522 0.07374
 Zr326 Zr 0.47456 0.47466 0.08011
 O327 O 0.47290 0.47562 0.18497
 O328 O 0.44447 0.44216 0.07818
 O329 O 0.50977 0.48936 0.09362
 O330 O 0.48980 0.50961 0.09254
 O331 O 0.52084 0.55241 -0.11785
 O332 O 0.48896 0.54585 -0.05926
 C333 C 0.50531 0.55739 -0.10116
 O334 O 0.48147 0.44933 -0.12460
 O335 O 0.51184 0.45437 -0.06033
 C336 C 0.49677 0.44410 -0.10663
 O337 O 0.44769 0.47986 -0.11928
 O338 O 0.45414 0.51151 -0.05942
 C339 C 0.44276 0.49542 -0.10223
 O340 O 0.55056 0.51839 -0.12398
 O341 O 0.54497 0.48767 -0.06083
 C342 C 0.55552 0.50290 -0.10655
 Zr343 Zr 0.52497 0.52477 -0.08661
 O344 O 0.52350 0.52587 -0.19153
 O345 O 0.55741 0.55491 -0.08561
 Zr346 Zr 0.47486 0.47487 -0.08754
 O347 O 0.47396 0.47650 -0.19245
 O348 O 0.44477 0.44239 -0.08838
 Zr349 Zr 0.51675 0.48250 -0.00307
 Zr350 Zr 0.48278 0.51684 -0.00349
 O351 O 0.49004 0.50986 -0.09938
 O352 O 0.51009 0.48956 -0.10003
 O353 O 0.51850 0.53878 -0.00291
 O354 O 0.48096 0.46113 -0.00357
 O355 O 0.53842 0.51821 -0.00264
 O356 O 0.46063 0.48112 -0.00392
 H357 H 0.48469 0.51472 0.13170
 H358 H 0.47442 0.44433 -0.00355
 H359 H 0.48499 0.51515 -0.13841
 H360 H 0.55521 0.52461 -0.00230
 H361 H 0.43273 0.44374 0.05307
 H362 H 0.43330 0.44347 -0.06051
 H363 H 0.48823 0.47769 -0.20957
 H364 H 0.52212 0.51154 -0.20885
 H365 H 0.55693 0.56504 -0.05097
 H366 H 0.56167 0.56022 0.11999
 H367 H 0.52071 0.51146 0.20328
 H368 H 0.48747 0.47767 0.20279
 O369 O 0.48051 0.03132 0.12232
 O370 O 0.51095 0.05663 0.05861
 C371 C 0.49589 0.05183 0.10481
 O372 O 0.51908 -0.03267 0.11595
 O373 O 0.48746 -0.05794 0.05589
 C374 C 0.50359 -0.05318 0.09867
 O375 O 0.54939 0.03140 0.12277
 O376 O 0.54423 0.05664 0.05877
 C377 C 0.55449 0.05189 0.10522
 O378 O 0.44672 -0.03275 0.11569
 O379 O 0.45328 -0.05791 0.05616
 C380 C 0.44188 -0.05324 0.09886
 Zr381 Zr 0.47385 -0.00062 0.08375
 O382 O 0.47159 -0.00289 0.18859
 O383 O 0.44316 0.00039 0.07599
 Zr384 Zr 0.52397 -0.00054 0.08441
 O385 O 0.52263 -0.00320 0.18930
 O386 O 0.55657 0.00209 0.08400
 O387 O 0.50911 0.01982 0.09715
 O388 O 0.48901 -0.02041 0.09645
 O389 O 0.44650 -0.03235 -0.11486
 O390 O 0.45304 -0.05756 -0.05535
 C391 C 0.44155 -0.05283 -0.09778
 O392 O 0.54955 0.03144 -0.12102
 O393 O 0.54433 0.05670 -0.05753
 C394 C 0.55469 0.05194 -0.10348
 O395 O 0.51908 -0.03260 -0.11534
 O396 O 0.48738 -0.05778 -0.05566
 C397 C 0.50346 -0.05308 -0.09839
 O398 O 0.48049 0.03148 -0.12166
 O399 O 0.51099 0.05667 -0.05794
 C400 C 0.49595 0.05196 -0.10425
 Zr401 Zr 0.47400 -0.00050 -0.08348
 O402 O 0.47289 -0.00309 -0.18837
 O403 O 0.44382 0.00171 -0.08281
 Zr404 Zr 0.52402 -0.00054 -0.08322
 O405 O 0.52276 -0.00302 -0.18812
 O406 O 0.55656 0.00196 -0.08199
 Zr407 Zr 0.51613 0.03371 0.00041
 Zr408 Zr 0.48197 -0.03465 0.00055
 O409 O 0.48904 -0.02040 -0.09547
 O410 O 0.50925 0.01993 -0.09641
 O411 O 0.45990 -0.02104 0.00020
 O412 O 0.53758 0.01940 0.00063
 O413 O 0.48037 0.01948 0.00019
 O414 O 0.51771 -0.02097 0.00066
 H415 H 0.48388 -0.03068 0.13562
 H416 H 0.55438 0.02971 0.00082
 H417 H 0.48382 -0.03069 -0.13453
 H418 H 0.47392 0.02982 0.00011
 H419 H 0.55530 -0.01083 0.05762
 H420 H 0.55514 -0.01115 -0.05613
 H421 H 0.52098 0.00969 -0.20556
 H422 H 0.48730 0.00977 -0.20574
 H423 H 0.43354 -0.00916 -0.04883
 H424 H 0.43801 0.00025 0.12213
 H425 H 0.48678 0.00838 0.20639
 H426 H 0.52091 0.00953 0.20677
 C427 C 1.14055 0.49534 0.25961
 N428 N 1.12556 0.47733 0.22222
 N429 N 1.10831 0.47778 0.19138
 C430 C 1.10553 0.49625 0.19698
 N431 N 1.12052 0.51426 0.23435
 N432 N 1.13777 0.51381 0.26520
 C433 C 1.15909 0.49484 0.29302
 C434 C 1.17470 0.49456 0.32136
 C435 C 1.08689 0.49667 0.16395
 C436 C 1.07117 0.49686 0.13613
 C437 C 0.50447 0.64504 0.25557
 N438 N 0.51958 0.63823 0.27275
 N439 N 0.51983 0.62116 0.24039
 C440 C 0.50499 0.61040 0.18980
 N441 N 0.48989 0.61721 0.17259
 N442 N 0.48964 0.63428 0.20496
 C443 C 0.50419 0.66336 0.29069
 C444 C 0.50411 0.67879 0.32048
 C445 C 0.50502 0.59175 0.15579
 C446 C 0.50494 0.57593 0.12796
 C447 C 0.35398 -0.14236 0.25795
 N448 N 0.35043 -0.12668 0.22613
 N449 N 0.36750 -0.10924 0.19394
 C450 C 0.38862 -0.10696 0.19260
 N451 N 0.39216 -0.12264 0.22438
 N452 N 0.37510 -0.14008 0.25656
 C453 C 0.33568 -0.16097 0.29330
 C454 C 0.32028 -0.17651 0.32326
 C455 C 0.40711 -0.08802 0.15881
 C456 C 0.42285 -0.07211 0.13105
 C457 C 0.85950 0.50631 0.25504
 N458 N 0.85871 0.48622 0.24234
 N459 N 0.87584 0.48595 0.21037
 C460 C 0.89426 0.50576 0.19009
 N461 N 0.89505 0.52586 0.20275
 N462 N 0.87792 0.52613 0.23473
 C463 C 0.84116 0.50656 0.29023
 C464 C 0.82569 0.50653 0.32010
 C465 C 0.91288 0.50546 0.15678
 C466 C 0.92858 0.50512 0.12946
 C467 C 0.49913 0.35717 0.26205
 N468 N 0.51870 0.37544 0.23972
 N469 N 0.51808 0.39251 0.20833
 C470 C 0.49787 0.39182 0.19835
 N471 N 0.47830 0.37355 0.22068
 N472 N 0.47893 0.35649 0.25207
 C473 C 0.49977 0.33879 0.29593
 C474 C 0.50009 0.32326 0.32457
 C475 C 0.49719 0.41018 0.16442
 C476 C 0.49672 0.42562 0.13578
 C477 C 0.64212 0.14142 0.26382
 N478 N 0.64531 0.12520 0.23430
 N479 N 0.62806 0.10756 0.20338
 C480 C 0.60707 0.10559 0.20107
 N481 N 0.60387 0.12181 0.23059
 N482 N 0.62113 0.13946 0.26153
 C483 C 0.66071 0.16033 0.29737
 C484 C 0.67643 0.17608 0.32567
 C485 C 0.58852 0.08662 0.16760
 C486 C 0.57297 0.07072 0.13926
 C487 C 0.49906 0.14234 -0.26137
 N488 N 0.51639 0.13785 -0.26888
 N489 N 0.51568 0.11998 -0.23836
 C490 C 0.49760 0.10604 -0.19947
 N491 N 0.48027 0.11053 -0.19195
 N492 N 0.48099 0.12840 -0.22248
 C493 C 0.49971 0.16146 -0.29462
 C494 C 0.50006 0.17740 -0.32279
 C495 C 0.49688 0.08686 -0.16634
 C496 C 0.49636 0.07084 -0.13821
 C497 C 0.64523 0.50443 -0.26218
 N498 N 0.62396 0.48596 -0.26796
 N499 N 0.60625 0.48549 -0.23730
 C500 C 0.60929 0.50350 -0.19995
 N501 N 0.63056 0.52197 -0.19417
 N502 N 0.64827 0.52243 -0.22482
 C503 C 0.66426 0.50495 -0.29546
 C504 C 0.68014 0.50526 -0.32371
 C505 C 0.59023 0.50307 -0.16717
 C506 C 0.57431 0.50288 -0.13956
 C507 C 0.85782 0.35452 -0.25694
 N508 N 0.85992 0.37555 -0.25501
 N509 N 0.87747 0.39270 -0.22345
 C510 C 0.89346 0.38933 -0.19286
 N511 N 0.89136 0.36829 -0.19475
 N512 N 0.87381 0.35114 -0.22632
 C513 C 0.83907 0.33613 -0.29162
 C514 C 0.82341 0.32067 -0.32106
 C515 C 0.91248 0.40790 -0.15956
 C516 C 0.92842 0.42369 -0.13209
 C517 C 0.50318 -0.14193 -0.25548
 N518 N 0.52197 -0.12662 -0.22127
 N519 N 0.52210 -0.10925 -0.18957
 C520 C 0.50344 -0.10666 -0.19114
 N521 N 0.48465 -0.12198 -0.22533
 N522 N 0.48452 -0.13935 -0.25703
 C523 C 0.50315 -0.16047 -0.29030
 C524 C 0.50327 -0.17592 -0.31982
 C525 C 0.50365 -0.08779 -0.15781
 C526 C 0.50368 -0.07193 -0.13035
 C527 C 0.35298 0.49363 -0.25932
 N528 N 0.35210 0.47378 -0.24211
 N529 N 0.36956 0.47408 -0.21020
 C530 C 0.38842 0.49424 -0.19450
 N531 N 0.38929 0.51408 -0.21168
 N532 N 0.37183 0.51378 -0.24358
 C533 C 0.33433 0.49336 -0.29445
 C534 C 0.31883 0.49337 -0.32426
 C535 C 0.40741 0.49459 -0.16124
 C536 C 0.42349 0.49495 -0.13392
 C537 C 1.14166 0.64343 -0.26364
 N538 N 1.12146 0.64304 -0.25802
 N539 N 1.10380 0.62574 -0.22727
 C540 C 1.10581 0.60830 -0.20121
 N541 N 1.12602 0.60869 -0.20683
 N542 N 1.14368 0.62599 -0.23759
 C543 C 1.16065 0.66208 -0.29678
 C544 C 1.17646 0.67784 -0.32480
 C545 C 1.08683 0.58973 -0.16782
 C546 C 1.07092 0.57416 -0.13955
 C547 C 0.85740 0.50328 -0.25493
 N548 N 0.85937 0.48428 -0.25208
 N549 N 0.87699 0.48476 -0.22065
 C550 C 0.89316 0.50424 -0.19114
 N551 N 0.89118 0.52324 -0.19395
 N552 N 0.87356 0.52276 -0.22538
 C553 C 0.83862 0.50285 -0.28962
 C554 C 0.82294 0.50257 -0.31919
 C555 C 0.91226 0.50476 -0.15812
 C556 C 0.92826 0.50493 -0.13094
 C557 C 0.49580 0.35457 -0.26134
 N558 N 0.51474 0.37019 -0.22830
 N559 N 0.51501 0.38786 -0.19809
 C560 C 0.49637 0.39047 -0.20008
 N561 N 0.47743 0.37485 -0.23312
 N562 N 0.47716 0.35718 -0.26333
 C563 C 0.49558 0.33566 -0.29435
 C564 C 0.49551 0.31988 -0.32245
 C565 C 0.49663 0.40946 -0.16743
 C566 C 0.49676 0.42534 -0.13982
 C567 C 0.64464 0.14002 -0.25899
 N568 N 0.64709 0.12364 -0.22727
 N569 N 0.62933 0.10640 -0.19673
 C570 C 0.60858 0.10501 -0.19702
 N571 N 0.60613 0.12138 -0.22873
 N572 N 0.62390 0.13863 -0.25928
 C573 C 0.66372 0.15851 -0.29223
 C574 C 0.67964 0.17405 -0.32050
 C575 C 0.58946 0.08640 -0.16427
 C576 C 0.57350 0.07070 -0.13664
 C577 C 1.14180 0.49953 -0.26488
 N578 N 1.12562 0.48005 -0.23537
 N579 N 1.10797 0.47958 -0.20432
 C580 C 1.10598 0.49857 -0.20189
 N581 N 1.12217 0.51806 -0.23138
 N582 N 1.13982 0.51853 -0.26245
 C583 C 1.16068 0.49994 -0.29870
 C584 C 1.17638 0.50001 -0.32732
 C585 C 1.08700 0.49805 -0.16837
 C586 C 1.07108 0.49760 -0.14000
 C587 C 0.50913 0.64856 -0.25492
 N588 N 0.52457 0.64198 -0.26971
 N589 N 0.52395 0.62427 -0.23842
 C590 C 0.50787 0.61262 -0.19143
 N591 N 0.49244 0.61921 -0.17661
 N592 N 0.49306 0.63692 -0.20790
 C593 C 0.50947 0.66728 -0.28966
 C594 C 0.50954 0.68284 -0.31929
 C595 C 0.50694 0.59328 -0.15878
 C596 C 0.50617 0.57694 -0.13206
 C597 C 0.35136 -0.14092 -0.25258
 N598 N 0.35056 -0.12189 -0.23586
 N599 N 0.36808 -0.10470 -0.20429
 C600 C 0.38691 -0.10603 -0.18849
 N601 N 0.38770 -0.12507 -0.20516
 N602 N 0.37019 -0.14225 -0.23672
 C603 C 0.33270 -0.15929 -0.28755
 C604 C 0.31722 -0.17478 -0.31736
 C605 C 0.40598 -0.08735 -0.15575
 C606 C 0.42215 -0.07162 -0.12891
 C607 C 0.50691 -0.14054 0.25408
 N608 N 0.52641 -0.12243 0.23070
 N609 N 0.52572 -0.10544 0.19907
 C610 C 0.50552 -0.10605 0.18983
 N611 N 0.48603 -0.12417 0.21317
 N612 N 0.48671 -0.14116 0.24480
 C613 C 0.50764 -0.15870 0.28895
 C614 C 0.50803 -0.17401 0.31865
 C615 C 0.50482 -0.08756 0.15694
 C616 C 0.50423 -0.07192 0.12995
 C617 C 0.35437 0.49685 0.24957
 N618 N 0.35108 0.47730 0.22065
 N619 N 0.36821 0.47683 0.18934
 C620 C 0.38915 0.49590 0.18602
 N621 N 0.39243 0.51544 0.21491
 N622 N 0.37530 0.51591 0.24622
 C623 C 0.33602 0.49727 0.28413
 C624 C 0.32063 0.49754 0.31359
 C625 C 0.40771 0.49538 0.15311
 C626 C 0.42352 0.49520 0.12598
 C627 C 1.13994 0.64515 0.26108
 N628 N 1.11803 0.64009 0.27095
 N629 N 1.10086 0.62234 0.24010
 C630 C 1.10508 0.60911 0.19853
 N631 N 1.12699 0.61417 0.18864
 N632 N 1.14416 0.63192 0.21950
 C633 C 1.15839 0.66415 0.29466
 C634 C 1.17389 0.68003 0.32321
 C635 C 1.08658 0.59008 0.16514
 C636 C 1.07094 0.57420 0.13705
 C637 C 0.49558 0.14024 0.26259
 N638 N 0.51463 0.13832 0.26313
 N639 N 0.51478 0.12097 0.23219
 C640 C 0.49587 0.10501 0.19981
 N641 N 0.47681 0.10693 0.19926
 N642 N 0.47667 0.12429 0.23019
 C643 C 0.49540 0.15887 0.29615
 C644 C 0.49537 0.17453 0.32465
 C645 C 0.49600 0.08631 0.16655
 C646 C 0.49602 0.07058 0.13848
 C647 C 0.64221 0.49993 0.26168
 N648 N 0.62113 0.48101 0.26004
 N649 N 0.60392 0.48147 0.22897
 C650 C 0.60727 0.50086 0.19866
 N651 N 0.62835 0.51977 0.20030
 N652 N 0.64556 0.51931 0.23137
 C653 C 0.66074 0.49955 0.29548
 C654 C 0.67642 0.49951 0.32403
 C655 C 0.58878 0.50137 0.16509
 C656 C 0.57331 0.50183 0.13663
 C657 C 0.85945 0.35266 0.25352
 N658 N 0.87818 0.35159 0.23483
 N659 N 0.89531 0.36908 0.20300
 C660 C 0.89421 0.38815 0.18889
 N661 N 0.87547 0.38920 0.20755
 N662 N 0.85835 0.37172 0.23937
 C663 C 0.84114 0.33401 0.28864
 C664 C 0.82569 0.31852 0.31855
 C665 C 0.91281 0.40716 0.15580
 C666 C 0.92849 0.42329 0.12863
   
