data_POSCAR
  _audit_creation_date              2014-09-24
  _audit_creation_method            'ToBaCCo'
  _symmetry_space_group_name_H-M    'P1'
  _symmetry_Int_Tables_number       1
  _symmetry_cell_setting            triclinic
  loop_
  _symmetry_equiv_pos_as_xyz
 x,y,z
_cell_length_a 32.5035
_cell_length_b 32.5968
_cell_length_c 32.6264
_cell_angle_alpha 90.026000
_cell_angle_beta 90.024900
_cell_angle_gamma 90.029800
loop_
  _atom_site_label
  _atom_site_type_symbol
  _atom_site_fract_x
  _atom_site_fract_y
  _atom_site_fract_z
O1 O 0.38706 0.33141 -0.04018
 O2 O 0.33083 0.38745 0.03874
 O3 O 0.38706 0.33094 0.03855
 O4 O 0.33065 0.38791 -0.03997
 O5 O 0.28185 0.34063 -0.04076
 O6 O 0.33931 0.28259 0.03885
 O7 O 0.28196 0.34020 0.03898
 O8 O 0.33938 0.28298 -0.04092
 Cu9 Cu 0.36367 0.36415 -0.00072
 Cu10 Cu 0.30567 0.30669 -0.00103
 C11 C 0.37349 0.29744 -0.05329
 C12 C 0.29666 0.37402 0.05167
 C13 C 0.37341 0.29692 0.05148
 C14 C 0.29643 0.37466 -0.05306
 O15 O 0.61295 0.66863 -0.04021
 O16 O 0.66933 0.61261 0.03861
 O17 O 0.61318 0.66920 0.03851
 O18 O 0.66930 0.61208 -0.04011
 O19 O 0.71815 0.65930 -0.04100
 O20 O 0.66100 0.71749 0.03871
 O21 O 0.71826 0.65979 0.03875
 O22 O 0.66068 0.71701 -0.04104
 Cu23 Cu 0.63641 0.63591 -0.00079
 Cu24 Cu 0.69448 0.69330 -0.00122
 C25 C 0.62652 0.70258 -0.05334
 C26 C 0.70355 0.62600 0.05146
 C27 C 0.62691 0.70322 0.05141
 C28 C 0.70349 0.62529 -0.05328
 O29 O 0.66916 0.38756 0.96130
 O30 O 0.61286 0.33146 1.04013
 O31 O 0.66918 0.38805 1.04000
 O32 O 0.61290 0.33106 0.96141
 O33 O 0.66064 0.28274 0.96112
 O34 O 0.71801 0.34085 1.04078
 O35 O 0.66056 0.28310 1.04089
 O36 O 0.71802 0.34035 0.96105
 Cu37 Cu 0.63625 0.36425 1.00071
 Cu38 Cu 0.69426 0.30685 1.00102
 C39 C 0.70333 0.37416 0.94838
 C40 C 0.62644 0.29752 1.05324
 C41 C 0.70339 0.37484 1.05310
 C42 C 0.62656 0.29705 0.94847
 O43 O 0.38739 0.66857 1.04046
 O44 O 0.33082 0.61237 0.96170
 O45 O 0.38712 0.66891 0.96172
 O46 O 0.33100 0.61195 1.04043
 O47 O 0.28219 0.65916 1.04130
 O48 O 0.33939 0.71722 0.96153
 O49 O 0.28198 0.65958 0.96154
 O50 O 0.33969 0.71693 1.04130
 Cu51 Cu 0.36385 0.63573 1.00107
 Cu52 Cu 0.30586 0.69313 1.00149
 C53 C 0.37386 0.70254 1.05358
 C54 C 0.29661 0.62576 0.94884
 C55 C 0.37344 0.70292 0.94881
 C56 C 0.29681 0.62516 1.05358
 O57 O 0.03887 0.33134 0.38749
 O58 O -0.04030 0.38704 0.33109
 O59 O -0.04014 0.33077 0.38742
 O60 O 0.03873 0.38741 0.33091
 O61 O 0.03947 0.33979 0.28262
 O62 O -0.04051 0.28213 0.34016
 O63 O -0.04060 0.33951 0.28268
 O64 O 0.03953 0.28261 0.34030
 Cu65 Cu -0.00073 0.36390 0.36395
 Cu66 Cu -0.00051 0.30607 0.30653
 C67 C 0.05199 0.29729 0.37418
 C68 C -0.05325 0.37344 0.29710
 C69 C -0.05312 0.29662 0.37407
 C70 C 0.05189 0.37388 0.29696
 O71 O 0.03917 0.66815 0.61229
 O72 O -0.04018 0.61259 0.66862
 O73 O -0.03984 0.66870 0.61212
 O74 O 0.03885 0.61217 0.66897
 O75 O 0.03957 0.65988 0.71716
 O76 O -0.04022 0.71744 0.65927
 O77 O -0.04050 0.66023 0.71691
 O78 O 0.03981 0.71698 0.65937
 Cu79 Cu -0.00051 0.63563 0.63579
 Cu80 Cu -0.00031 0.69358 0.69308
 C81 C 0.05230 0.70222 0.62555
 C82 C -0.05318 0.62628 0.70254
 C83 C -0.05279 0.70288 0.62536
 C84 C 0.05197 0.62576 0.70292
 O85 O 1.04008 0.61259 0.33125
 O86 O 0.96095 0.66839 0.38762
 O87 O 0.96107 0.61228 0.33106
 O88 O 1.03994 0.66869 0.38775
 O89 O 1.04042 0.71740 0.34060
 O90 O 0.96046 0.65990 0.28282
 O91 O 0.96039 0.71713 0.34049
 O92 O 1.04052 0.66019 0.28295
 Cu93 Cu 1.00051 0.63572 0.36414
 Cu94 Cu 1.00043 0.69360 0.30681
 C95 C 1.05311 0.62622 0.29732
 C96 C 0.94789 0.70246 0.37433
 C97 C 0.94797 0.62584 0.29710
 C98 C 1.05297 0.70283 0.37450
 O99 O 1.03982 0.38722 0.66861
 O100 O 0.96063 0.33158 0.61189
 O101 O 0.96077 0.38761 0.66861
 O102 O 1.03965 0.33114 0.61199
 O103 O 1.03992 0.28238 0.65908
 O104 O 0.95998 0.33991 0.71677
 O105 O 0.95989 0.28277 0.65896
 O106 O 1.04005 0.33956 0.71683
 Cu107 Cu 1.00024 0.36416 0.63558
 Cu108 Cu 0.99993 0.30622 0.69280
 C109 C 1.05275 0.37354 0.70256
 C110 C 0.94747 0.29749 0.62509
 C111 C 0.94758 0.37402 0.70252
 C112 C 1.05256 0.29695 0.62522
 O113 O 0.33073 -0.03944 0.38712
 O114 O 0.38696 0.03983 0.33133
 O115 O 0.33058 0.03937 0.38775
 O116 O 0.38750 -0.03896 0.33110
 O117 O 0.34001 -0.03948 0.28255
 O118 O 0.28195 0.03990 0.34033
 O119 O 0.33943 0.04033 0.28279
 O120 O 0.28212 -0.03994 0.33966
 Cu121 Cu 0.36369 0.00020 0.36408
 Cu122 Cu 0.30594 0.00021 0.30641
 C123 C 0.29667 -0.05253 0.37354
 C124 C 0.37343 0.05290 0.29736
 C125 C 0.29641 0.05234 0.37434
 C126 C 0.37411 -0.05192 0.29701
 O127 O 0.61307 0.03953 0.66893
 O128 O 0.66939 -0.03964 0.61308
 O129 O 0.61268 -0.03928 0.66914
 O130 O 0.66922 0.03915 0.61225
 O131 O 0.71798 0.03994 0.65953
 O132 O 0.66028 -0.03951 0.71759
 O133 O 0.71810 -0.03987 0.66043
 O134 O 0.66073 0.04032 0.71732
 Cu135 Cu 0.63632 -0.00008 0.63612
 Cu136 Cu 0.69422 0.00026 0.69363
 C137 C 0.62667 0.05273 0.70284
 C138 C 0.70352 -0.05258 0.62660
 C139 C 0.62619 -0.05212 0.70320
 C140 C 0.70340 0.05224 0.62553
 O141 O 0.33026 1.03932 0.61310
 O142 O 0.38659 0.96038 0.66922
 O143 O 0.33046 0.96052 0.61254
 O144 O 0.38697 1.03916 0.66914
 O145 O 0.33941 1.03959 0.71760
 O146 O 0.28170 0.95993 0.65979
 O147 O 0.33895 0.95977 0.71760
 O148 O 0.28158 1.03975 0.66045
 Cu149 Cu 0.36333 0.99985 0.63627
 Cu150 Cu 0.30546 0.99974 0.69377
 C151 C 0.29615 1.05234 0.62660
 C152 C 0.37301 0.94731 0.70317
 C153 C 0.29628 0.94749 0.62585
 C154 C 0.37348 1.05214 0.70316
 O155 O 0.61375 0.96107 0.33114
 O156 O 0.66988 1.03998 0.38774
 O157 O 0.61324 1.03988 0.33150
 O158 O 0.66991 0.96115 0.38784
 O159 O 0.71870 0.96088 0.34063
 O160 O 0.66089 1.04065 0.28315
 O161 O 0.71864 1.04074 0.34051
 O162 O 0.66143 0.96082 0.28281
 Cu163 Cu 0.63694 1.00050 0.36428
 Cu164 Cu 0.69486 1.00080 0.30687
 C165 C 0.62738 0.94817 0.29714
 C166 C 0.70402 1.05314 0.37442
 C167 C 0.62674 1.05302 0.29755
 C168 C 0.70412 0.94824 0.37449
 C169 C 0.88312 0.75928 0.46348
 C170 C 0.89789 0.74442 0.50075
 C171 C 0.88324 0.75921 0.53810
 C172 C 0.85248 0.78977 0.53859
 C173 C 0.83705 0.80512 0.50077
 C174 C 0.85248 0.78986 0.46299
 C175 C 0.83706 0.80567 0.42596
 C176 C 0.80698 0.83612 0.42593
 C177 C 0.79132 0.85171 0.46291
 C178 C 0.80642 0.83604 0.50073
 C179 C 0.83693 0.80547 0.57557
 C180 C 0.80673 0.83584 0.57553
 C181 C 0.79116 0.85151 0.53851
 C182 C 0.76085 0.88243 0.53797
 C183 C 0.74627 0.89743 0.50067
 C184 C 0.76106 0.88273 0.46336
 H185 H 0.84824 0.79459 0.39672
 H186 H 0.79606 0.84742 0.39668
 H187 H 0.84806 0.79435 0.60481
 H188 H 0.79566 0.84704 0.60477
 H189 H 0.92174 0.72108 0.50068
 H190 H 0.72311 0.92147 0.50069
 C191 C 0.23908 0.11739 0.46331
 C192 C 0.25378 0.10261 0.50063
 C193 C 0.23907 0.11749 0.53793
 C194 C 0.20873 0.14839 0.53846
 C195 C 0.19355 0.16392 0.50067
 C196 C 0.20876 0.14835 0.46286
 C197 C 0.19315 0.16397 0.42587
 C198 C 0.16300 0.19436 0.42590
 C199 C 0.14749 0.21008 0.46291
 C200 C 0.16288 0.19479 0.50071
 C201 C 0.19307 0.16398 0.57548
 C202 C 0.16286 0.19434 0.57550
 C203 C 0.14736 0.21009 0.53852
 C204 C 0.11659 0.24062 0.53801
 C205 C 0.10195 0.25541 0.50066
 C206 C 0.11678 0.24059 0.46339
 H207 H 0.20416 0.15274 0.39662
 H208 H 0.15187 0.20545 0.39665
 H209 H 0.20408 0.15274 0.60471
 H210 H 0.15167 0.20541 0.60474
 H211 H 0.27697 0.07860 0.50066
 H212 H 0.07807 0.27873 0.50058
 C213 C 0.11720 0.75891 0.53641
 C214 C 0.10240 0.74411 0.49911
 C215 C 0.11705 0.75896 0.46180
 C216 C 0.14783 0.78950 0.46134
 C217 C 0.16332 0.80479 0.49917
 C218 C 0.14790 0.78947 0.53694
 C219 C 0.16337 0.80520 0.57398
 C220 C 0.19349 0.83564 0.57406
 C221 C 0.20912 0.85129 0.53710
 C222 C 0.19397 0.83570 0.49925
 C223 C 0.16335 0.80527 0.42438
 C224 C 0.19357 0.83565 0.42445
 C225 C 0.20919 0.85126 0.46150
 C226 C 0.23952 0.88220 0.46208
 C227 C 0.25416 0.89710 0.49941
 C228 C 0.23940 0.88229 0.53669
 H229 H 0.15222 0.79408 0.60321
 H230 H 0.20446 0.84688 0.60333
 H231 H 0.15218 0.79420 0.39512
 H232 H 0.20460 0.84691 0.39524
 H233 H 0.07850 0.72078 0.49914
 H234 H 0.27733 0.92115 0.49945
 C235 C 0.76027 0.11702 0.46161
 C236 C 0.74565 0.10222 0.49897
 C237 C 0.76041 0.11712 0.53624
 C238 C 0.79072 0.14812 0.53660
 C239 C 0.80587 0.16361 0.49874
 C240 C 0.79063 0.14796 0.46099
 C241 C 0.80625 0.16348 0.42394
 C242 C 0.83647 0.19388 0.42383
 C243 C 0.85201 0.20974 0.46078
 C244 C 0.83654 0.19453 0.49863
 C245 C 0.80637 0.16387 0.57354
 C246 C 0.83649 0.19430 0.57344
 C247 C 0.85196 0.20996 0.53639
 C248 C 0.88265 0.24053 0.53584
 C249 C 0.89744 0.25525 0.49853
 C250 C 0.88278 0.24032 0.46121
 H251 H 0.79520 0.15215 0.39473
 H252 H 0.84764 0.20488 0.39457
 H253 H 0.79540 0.15270 0.60282
 H254 H 0.84766 0.20549 0.60266
 H255 H 0.72246 0.07820 0.49904
 H256 H 0.92131 0.27860 0.49854
 C257 C 0.53703 0.75984 0.88253
 C258 C 0.49963 0.74521 0.89751
 C259 C 0.46213 0.76007 0.88301
 C260 C 0.46161 0.79044 0.85220
 C261 C 0.49955 0.80559 0.83657
 C262 C 0.53750 0.79028 0.85186
 C263 C 0.57464 0.80590 0.83627
 C264 C 0.57464 0.83622 0.80617
 C265 C 0.53751 0.85183 0.79064
 C266 C 0.49956 0.83634 0.80589
 C267 C 0.42447 0.80616 0.83675
 C268 C 0.42447 0.83633 0.80647
 C269 C 0.46162 0.85181 0.79073
 C270 C 0.46212 0.88254 0.76033
 C271 C 0.49955 0.89739 0.74563
 C272 C 0.53702 0.88270 0.76034
 H273 H 0.60400 0.79479 0.84734
 H274 H 0.60399 0.84739 0.79512
 H275 H 0.39513 0.79519 0.84802
 H276 H 0.39512 0.84754 0.79549
 H277 H 0.49972 0.72197 0.92138
 H278 H 0.49951 0.92131 0.72243
 C279 C 0.53741 0.11807 0.24051
 C280 C 0.49996 0.10335 0.25528
 C281 C 0.46250 0.11801 0.24046
 C282 C 0.46194 0.14861 0.20993
 C283 C 0.49984 0.16411 0.19472
 C284 C 0.53782 0.14878 0.21005
 C285 C 0.57493 0.16439 0.19443
 C286 C 0.57486 0.19455 0.16415
 C287 C 0.53768 0.21000 0.14848
 C288 C 0.49977 0.19469 0.16387
 C289 C 0.42476 0.16393 0.19412
 C290 C 0.42469 0.19397 0.16371
 C291 C 0.46179 0.20969 0.14818
 C292 C 0.46225 0.23992 0.11722
 C293 C 0.49971 0.25475 0.10262
 C294 C 0.53715 0.24027 0.11764
 H295 H 0.60430 0.15335 0.20553
 H296 H 0.60420 0.20565 0.15301
 H297 H 0.39543 0.15270 0.20515
 H298 H 0.39532 0.20482 0.15239
 H299 H 0.49997 0.07952 0.27857
 H300 H 0.49974 0.27788 0.07863
 C301 C 0.53760 0.11766 0.75989
 C302 C 0.50015 0.10281 0.74520
 C303 C 0.46271 0.11749 0.75999
 C304 C 0.46226 0.14833 0.79032
 C305 C 0.50022 0.16383 0.80555
 C306 C 0.53814 0.14838 0.79033
 C307 C 0.57531 0.16385 0.80606
 C308 C 0.57534 0.19400 0.83639
 C309 C 0.53822 0.20968 0.85190
 C310 C 0.50026 0.19454 0.83629
 C311 C 0.42514 0.16391 0.80592
 C312 C 0.42517 0.19420 0.83607
 C313 C 0.46234 0.20982 0.85165
 C314 C 0.46285 0.24022 0.88238
 C315 C 0.50027 0.25484 0.89735
 C316 C 0.53774 0.24000 0.88277
 H317 H 0.60465 0.15267 0.79503
 H318 H 0.60470 0.20496 0.84765
 H319 H 0.39577 0.15273 0.79488
 H320 H 0.39582 0.20528 0.84719
 H321 H 0.50014 0.07890 0.72198
 H322 H 0.50023 0.27805 0.92127
 C323 C 0.53828 0.76046 0.11718
 C324 C 0.50078 0.74551 0.10272
 C325 C 0.46337 0.76010 0.11770
 C326 C 0.46293 0.79060 0.14836
 C327 C 0.50089 0.80602 0.16359
 C328 C 0.53882 0.79090 0.14795
 C329 C 0.57596 0.80672 0.16334
 C330 C 0.57598 0.83696 0.19358
 C331 C 0.53885 0.85241 0.20935
 C332 C 0.50090 0.83683 0.19426
 C333 C 0.42580 0.80618 0.16398
 C334 C 0.42581 0.83655 0.19407
 C335 C 0.46296 0.85226 0.20955
 C336 C 0.46346 0.88317 0.23984
 C337 C 0.50093 0.89798 0.25449
 C338 C 0.53837 0.88321 0.23974
 H339 H 0.60530 0.79578 0.15204
 H340 H 0.60534 0.84825 0.20451
 H341 H 0.39643 0.79500 0.15296
 H342 H 0.39647 0.84767 0.20516
 H343 H 0.50069 0.72222 0.07887
 H344 H 0.50096 0.92192 0.27768
 C345 C 0.76000 0.46303 0.88316
 C346 C 0.74520 0.50035 0.89796
 C347 C 0.75975 0.53771 0.88306
 C348 C 0.79003 0.53817 0.85207
 C349 C 0.80530 0.50031 0.83658
 C350 C 0.79024 0.46250 0.85222
 C351 C 0.80592 0.42544 0.83669
 C352 C 0.83604 0.42538 0.80629
 C353 C 0.85144 0.46239 0.79043
 C354 C 0.83590 0.50025 0.80566
 C355 C 0.80555 0.57518 0.83634
 C356 C 0.83566 0.57512 0.80592
 C357 C 0.85121 0.53806 0.79027
 C358 C 0.88187 0.53753 0.75973
 C359 C 0.89670 0.50021 0.74497
 C360 C 0.88214 0.46284 0.75985
 H361 H 0.79500 0.39618 0.84802
 H362 H 0.84725 0.39610 0.79528
 H363 H 0.79451 0.60445 0.84751
 H364 H 0.84674 0.60438 0.79474
 H365 H 0.72206 0.50030 0.92199
 H366 H 0.92054 0.50025 0.72163
 C367 C 0.24005 0.46290 0.11693
 C368 C 0.25495 0.50022 0.10222
 C369 C 0.24041 0.53759 0.11712
 C370 C 0.21003 0.53805 0.14802
 C371 C 0.19466 0.50018 0.16342
 C372 C 0.20971 0.46238 0.14778
 C373 C 0.19393 0.42531 0.16320
 C374 C 0.16371 0.42526 0.19351
 C375 C 0.14832 0.46226 0.20937
 C376 C 0.16396 0.50013 0.19424
 C377 C 0.19452 0.57505 0.16376
 C378 C 0.16432 0.57500 0.19408
 C379 C 0.14867 0.53793 0.20964
 C380 C 0.11792 0.53741 0.24009
 C381 C 0.10297 0.50009 0.25475
 C382 C 0.11752 0.46272 0.23986
 H383 H 0.20484 0.39605 0.15187
 H384 H 0.15242 0.39598 0.20444
 H385 H 0.20565 0.60433 0.15266
 H386 H 0.15325 0.60426 0.20527
 H387 H 0.27815 0.50017 0.07825
 H388 H 0.07907 0.50013 0.27803
 C389 C 0.88206 0.46235 0.23991
 C390 C 0.89699 0.49965 0.25467
 C391 C 0.88247 0.53703 0.23981
 C392 C 0.85173 0.53754 0.20925
 C393 C 0.83610 0.49972 0.19402
 C394 C 0.85135 0.46188 0.20939
 C395 C 0.83570 0.42484 0.19373
 C396 C 0.80555 0.42484 0.16333
 C397 C 0.79010 0.46188 0.14763
 C398 C 0.80546 0.49971 0.16313
 C399 C 0.83640 0.57458 0.19343
 C400 C 0.80623 0.57458 0.16305
 C401 C 0.79046 0.53755 0.14752
 C402 C 0.76017 0.53707 0.11659
 C403 C 0.74529 0.49977 0.10178
 C404 C 0.75979 0.46240 0.11666
 H405 H 0.84673 0.39556 0.20489
 H406 H 0.79443 0.39559 0.15215
 H407 H 0.84768 0.60384 0.20445
 H408 H 0.79536 0.60386 0.15174
 H409 H 0.92086 0.49958 0.27800
 H410 H 0.72212 0.49984 0.07776
 C411 C 0.11762 0.46227 0.76014
 C412 C 0.10277 0.49960 0.74544
 C413 C 0.11734 0.53697 0.76036
 C414 C 0.14807 0.53744 0.79094
 C415 C 0.16363 0.49959 0.80613
 C416 C 0.14831 0.46176 0.79070
 C417 C 0.16390 0.42471 0.80631
 C418 C 0.19406 0.42468 0.83672
 C419 C 0.20958 0.46169 0.85248
 C420 C 0.19428 0.49955 0.83704
 C421 C 0.16347 0.57445 0.80682
 C422 C 0.19364 0.57442 0.83721
 C423 C 0.20935 0.53737 0.85270
 C424 C 0.23967 0.53686 0.88363
 C425 C 0.25448 0.49954 0.89838
 C426 C 0.23992 0.46217 0.88345
 H427 H 0.15282 0.39545 0.79511
 H428 H 0.20513 0.39541 0.84786
 H429 H 0.15224 0.60372 0.79584
 H430 H 0.20457 0.60368 0.84856
 H431 H 0.07892 0.49956 0.72208
 H432 H 0.27767 0.49958 0.92238
 C433 C 0.27361 0.39999 0.07859
 C434 C 0.25676 0.42653 0.09801
 C435 C 0.72663 0.60003 0.07834
 C436 C 0.74349 0.57347 0.09772
 C437 C 0.72640 0.40012 0.92148
 C438 C 0.74327 0.42666 0.90207
 C439 C 0.27344 0.59977 0.92196
 C440 C 0.25648 0.57324 0.90255
 C441 C 0.07881 0.27432 0.40035
 C442 C 0.09806 0.25745 0.42699
 C443 C 0.07916 0.72516 0.59939
 C444 C 0.09845 0.74203 0.57277
 C445 C 0.92108 0.72547 0.40047
 C446 C 0.90183 0.74239 0.42710
 C447 C 0.92067 0.27450 0.59884
 C448 C 0.90140 0.25754 0.57220
 C449 C 0.39947 0.07983 0.27433
 C450 C 0.42605 0.09920 0.25737
 C451 C 0.60063 0.07962 0.72591
 C452 C 0.57406 0.09894 0.74293
 C453 C 0.39905 0.92050 0.72632
 C454 C 0.42564 0.90123 0.74337
 C455 C 0.60140 0.92133 0.27383
 C456 C 0.57485 0.90199 0.25671
 C457 C 0.39964 0.27427 0.92004
 C458 C 0.42633 0.25724 0.90092
 C459 C 0.60031 0.72575 0.92005
 C460 C 0.57358 0.74280 0.90100
 C461 C 0.40010 0.72580 0.08018
 C462 C 0.42682 0.74294 0.09924
 C463 C 0.60031 0.27435 0.07992
 C464 C 0.57365 0.25730 0.09907
 C465 C 0.27300 0.07927 0.60070
 C466 C 0.25598 0.09866 0.57425
 C467 C 0.72597 0.07852 0.39910
 C468 C 0.74321 0.09807 0.42536
 C469 C 0.72673 0.92051 0.60074
 C470 C 0.74383 0.90117 0.57430
 C471 C 0.27350 0.92047 0.39937
 C472 C 0.25646 0.90105 0.42579
 C473 C 0.07963 0.39940 0.72590
 C474 C 0.09894 0.42589 0.74306
 C475 C 0.07998 0.60032 0.27412
 C476 C 0.09926 0.57379 0.25708
 C477 C 0.91992 0.39938 0.27389
 C478 C 0.90067 0.42594 0.25686
 C479 C 0.91990 0.60042 0.72573
 C480 C 0.90057 0.57391 0.74276
 C481 C 0.72544 0.60043 0.92144
 C482 C 0.74267 0.57408 0.90195
 C483 C 0.27438 0.39947 0.92171
 C484 C 0.25707 0.42581 0.90227
 C485 C 0.27483 0.60031 0.07884
 C486 C 0.25755 0.57396 0.09830
 C487 C 0.72538 0.39969 0.07834
 C488 C 0.74265 0.42605 0.09780
 C489 C 0.92183 0.72488 0.60064
 C490 C 0.90222 0.74214 0.57439
 C491 C 0.92143 0.27458 0.39868
 C492 C 0.90178 0.25732 0.42490
 C493 C 0.07797 0.27494 0.60054
 C494 C 0.09758 0.25768 0.57430
 C495 C 0.07841 0.72479 0.39920
 C496 C 0.09804 0.74198 0.42548
 C497 C 0.60009 0.92105 0.72645
 C498 C 0.57351 0.90164 0.74346
 C499 C 0.40033 0.92134 0.27382
 C500 C 0.42696 0.90201 0.25679
 C501 C 0.60056 0.07986 0.27441
 C502 C 0.57394 0.09923 0.25742
 C503 C 0.39958 0.07905 0.72630
 C504 C 0.42620 0.09851 0.74321
 C505 C 0.60108 0.72654 0.07844
 C506 C 0.57469 0.74361 0.09806
 C507 C 0.39933 0.27368 0.07850
 C508 C 0.42578 0.25668 0.09811
 C509 C 0.60066 0.27380 0.92145
 C510 C 0.57419 0.25680 0.90186
 C511 C 0.39930 0.72619 0.92176
 C512 C 0.42571 0.74323 0.90214
 C513 C 0.72730 0.92130 0.40051
 C514 C 0.74426 0.90179 0.42699
 C515 C 0.27314 0.92064 0.59970
 C516 C 0.25621 0.90124 0.57311
 C517 C 0.27311 0.07912 0.40043
 C518 C 0.25604 0.09849 0.42694
 C519 C 0.72658 0.07898 0.59930
 C520 C 0.74355 0.09829 0.57268
 C521 C 0.92101 0.59985 0.27384
 C522 C 0.90150 0.57339 0.25676
 C523 C 0.92062 0.40002 0.72578
 C524 C 0.90112 0.42646 0.74288
 C525 C 0.07889 0.59978 0.72624
 C526 C 0.09837 0.57334 0.74337
 C527 C 0.07890 0.39990 0.27378
 C528 C 0.09846 0.42635 0.25674
   
