data_POSCAR
  _audit_creation_date              2014-09-24
  _audit_creation_method            'ToBaCCo'
  _symmetry_space_group_name_H-M    'P1'
  _symmetry_Int_Tables_number       1
  _symmetry_cell_setting            triclinic
  loop_
  _symmetry_equiv_pos_as_xyz
 x,y,z
_cell_length_a 35.9071
_cell_length_b 35.9623
_cell_length_c 35.9201
_cell_angle_alpha 75.974000
_cell_angle_beta 72.148400
_cell_angle_gamma 103.498600
loop_
  _atom_site_label
  _atom_site_type_symbol
  _atom_site_fract_x
  _atom_site_fract_y
  _atom_site_fract_z
C1 C 0.57413 0.42957 -0.03557
 C2 C 0.60238 0.45972 -0.03164
 C3 C 0.58057 0.48199 -0.01317
 N4 N 0.54005 0.46703 -0.00676
 C5 C 0.53610 0.43501 -0.02053
 C6 C 0.59757 0.51399 -0.00029
 C7 C 0.57628 0.54116 0.00972
 C8 C 0.58394 0.56472 0.03370
 C9 C 0.55786 0.58728 0.03542
 C10 C 0.53473 0.57695 0.01256
 N11 N 0.54588 0.54850 -0.00275
 C12 C 0.50434 0.59403 0.00626
 C13 C 0.47267 0.57387 -0.00490
 C14 C 0.44702 0.59148 -0.01941
 C15 C 0.41835 0.56110 -0.02254
 C16 C 0.42812 0.52610 -0.01119
 N17 N 0.46130 0.53392 -0.00031
 C18 C 0.40458 0.48712 -0.00779
 C19 C 0.41921 0.45375 -0.00369
 C20 C 0.39550 0.41392 0.00506
 C21 C 0.42201 0.39168 0.00251
 C22 C 0.46119 0.41853 -0.00768
 N23 N 0.45922 0.45630 -0.01173
 C24 C 0.49805 0.40868 -0.01657
 H25 H 0.58100 0.40632 -0.04802
 H26 H 0.63526 0.46443 -0.04107
 H27 H 0.48445 0.48299 -0.02412
 H28 H 0.60558 0.56514 0.04908
 H29 H 0.55563 0.60834 0.05234
 H30 H 0.44848 0.62292 -0.02667
 H31 H 0.39324 0.56464 -0.03210
 H32 H 0.41344 0.35961 0.00665
 H33 H 0.53592 0.53743 -0.02354
 H34 H 0.36273 0.40216 0.01149
 C35 C 0.01703 0.55934 0.58440
 C36 C 0.01316 0.58975 0.55605
 C37 C 0.00009 0.57271 0.52951
 N38 N -0.00301 0.53301 0.54018
 C39 C 0.00752 0.52486 0.57365
 C40 C -0.01032 0.59339 0.49716
 C41 C -0.01506 0.57725 0.46584
 C42 C -0.03543 0.58942 0.44037
 C43 C -0.03232 0.56752 0.41377
 C44 C -0.01058 0.54216 0.42393
 N45 N -0.00010 0.54826 0.45566
 C46 C 0.00024 0.51542 0.40280
 C47 C 0.01267 0.48287 0.41947
 C48 C 0.02744 0.45863 0.39811
 C49 C 0.03167 0.42821 0.42624
 C50 C 0.01991 0.43514 0.46379
 N51 N 0.00807 0.46846 0.45959
 C52 C 0.01688 0.40900 0.50180
 C53 C 0.00860 0.41875 0.53873
 C54 C -0.00046 0.39177 0.57775
 C55 C -0.00379 0.41350 0.60456
 C56 C 0.00335 0.45320 0.58124
 N57 N 0.01131 0.45619 0.54112
 C58 C 0.00583 0.48605 0.59646
 H59 H 0.02600 0.56255 0.60987
 H60 H 0.01929 0.62092 0.55523
 H61 H 0.02257 0.48309 0.51617
 H62 H -0.05132 0.61153 0.44109
 H63 H -0.04501 0.56974 0.38992
 H64 H 0.03378 0.46200 0.36579
 H65 H 0.04166 0.40351 0.41974
 H66 H -0.00984 0.40148 0.63730
 H67 H 0.01961 0.53630 0.46690
 H68 H -0.00354 0.35990 0.58607
 C69 C 0.39912 0.02885 0.57627
 C70 C 0.42299 0.02956 0.59962
 C71 C 0.45243 0.01215 0.58443
 N72 N 0.44768 0.00146 0.55215
 C73 C 0.41517 0.01173 0.54713
 C74 C 0.48270 0.00571 0.60060
 C75 C 0.51658 -0.00495 0.57862
 C76 C 0.54018 -0.02261 0.59651
 C77 C 0.57214 -0.02421 0.56486
 C78 C 0.56673 -0.00882 0.52818
 N79 N 0.53261 0.00285 0.53703
 C80 C 0.59533 -0.00152 0.48747
 C81 C 0.58435 0.00548 0.45230
 C82 C 0.61074 0.01331 0.41173
 C83 C 0.58694 0.01336 0.38831
 C84 C 0.54672 0.00534 0.41522
 N85 N 0.54517 0.00008 0.45429
 C86 C 0.51178 -0.00048 0.40423
 C87 C 0.47134 -0.00707 0.43215
 C88 C 0.43528 -0.02064 0.42543
 C89 C 0.40330 -0.01985 0.45781
 C90 C 0.42067 -0.00521 0.48316
 N91 N 0.46210 0.00233 0.46742
 C92 C 0.39886 0.00444 0.51751
 H93 H 0.37332 0.04023 0.57989
 H94 H 0.41930 0.04198 0.62459
 H95 H 0.48331 0.01799 0.47718
 H96 H 0.53548 -0.03259 0.62905
 H97 H 0.59681 -0.03480 0.56909
 H98 H 0.64344 0.01703 0.40021
 H99 H 0.59788 0.01752 0.35547
 H100 H 0.37103 -0.02815 0.46163
 H101 H 0.52397 0.02012 0.51555
 H102 H 0.43213 -0.02953 0.39958
 O103 O 0.46906 -0.00734 -0.03754
 O104 O 0.47250 -0.02248 0.06636
 O105 O 0.46427 0.03481 0.01281
 O106 O 0.47743 -0.06426 0.01663
 O107 O 0.54544 -0.03492 -0.01117
 O108 O 0.53218 0.06479 -0.01779
 O109 O 0.54026 0.00892 0.03749
 O110 O 0.53714 0.02135 -0.06612
 Cu111 Cu 0.46399 -0.01775 0.01735
 Cu112 Cu 0.54559 0.01795 -0.01728
 C113 C 0.50260 0.00932 -0.06963
 C114 C 0.50692 -0.00899 0.06965
 C115 C 0.49597 0.06674 -0.00313
 C116 C 0.51361 -0.06667 0.00368
 O117 O -0.04271 0.53165 0.99691
 O118 O 0.06289 0.52895 0.98108
 O119 O 0.01811 0.52848 0.93672
 O120 O 0.00274 0.53218 1.04183
 O121 O -0.02251 0.46520 1.06740
 O122 O -0.00705 0.46145 0.96240
 O123 O 0.03805 0.46194 1.00749
 O124 O -0.06719 0.46466 1.02258
 Cu125 Cu 0.01263 0.53706 0.98667
 Cu126 Cu -0.01711 0.45661 1.01752
 C127 C -0.07301 0.49853 1.01216
 C128 C 0.06847 0.49497 0.99169
 C129 C 0.00811 0.49434 0.93162
 C130 C -0.01231 0.49927 1.07259
 O131 O 0.00906 -0.03505 0.45591
 O132 O 0.01536 0.06451 0.46889
 O133 O 0.06375 0.02087 0.46423
 O134 O -0.03973 0.00897 0.46090
 O135 O -0.06854 -0.02236 0.52885
 O136 O 0.03505 -0.00846 0.53242
 O137 O -0.01496 0.03436 0.53696
 O138 O -0.01907 -0.06472 0.52405
 Cu139 Cu 0.01499 0.01776 0.45563
 Cu140 Cu -0.01967 -0.01825 0.53741
 C141 C -0.00597 -0.06694 0.48782
 C142 C 0.00090 0.06638 0.50513
 C143 C 0.06715 0.00840 0.49889
 C144 C -0.07184 -0.00881 0.49432
 C145 C -0.33234 0.55591 0.98847
 C146 C -0.29364 0.55902 0.99096
 C147 C -0.28579 0.52435 1.00961
 C148 C -0.31759 0.48650 1.02692
 C149 C -0.35617 0.48330 1.02444
 C150 C -0.36395 0.51779 1.00437
 N151 N -0.24504 0.52787 1.00915
 N152 N -0.23627 0.49680 1.02439
 C153 C -0.19559 0.49874 1.02308
 C154 C -0.18892 0.46257 1.03932
 C155 C -0.14924 0.46263 1.03642
 C156 C -0.11537 0.49910 1.01722
 C157 C -0.12230 0.53563 1.00174
 C158 C -0.16211 0.53547 1.00455
 H159 H -0.33695 0.58311 0.97255
 H160 H -0.26939 0.58839 0.97748
 H161 H -0.31254 0.45924 1.04194
 H162 H -0.38010 0.45369 1.03843
 H163 H -0.21449 0.43408 1.05362
 H164 H -0.14504 0.43398 1.04877
 H165 H -0.09686 0.56421 0.98677
 H166 H -0.16656 0.56384 0.99175
 C167 C 0.32777 0.46067 1.03152
 C168 C 0.28752 0.45671 1.03341
 C169 C 0.28086 0.47352 0.99758
 C170 C 0.31484 0.49288 0.95926
 C171 C 0.35504 0.49600 0.95718
 C172 C 0.36179 0.48066 0.99346
 N173 N 0.23959 0.47165 1.00119
 N174 N 0.23253 0.49495 0.97328
 C175 C 0.19126 0.49348 0.97720
 C176 C 0.18560 0.52624 0.95198
 C177 C 0.14565 0.52677 0.95661
 C178 C 0.11068 0.49395 0.98599
 C179 C 0.11644 0.46053 1.01046
 C180 C 0.15641 0.46044 1.00640
 H181 H 0.33251 0.44867 1.05977
 H182 H 0.26157 0.44166 1.06307
 H183 H 0.31034 0.50578 0.93110
 H184 H 0.38102 0.51137 0.92756
 H185 H 0.21224 0.55183 0.92933
 H186 H 0.14210 0.55279 0.93717
 H187 H 0.09002 0.43488 1.03339
 H188 H 0.16006 0.43467 1.02608
 C189 C -0.04209 -0.36517 0.53346
 C190 C -0.04611 -0.32763 0.53400
 C191 C -0.02560 -0.29333 0.49808
 C192 C -0.00207 -0.29721 0.46086
 C193 C 0.00193 -0.33486 0.46019
 C194 C -0.01714 -0.36921 0.49680
 N195 N -0.02762 -0.25480 0.50102
 N196 N -0.00918 -0.22178 0.47021
 C197 C -0.01029 -0.18350 0.47479
 C198 C 0.00946 -0.14811 0.43981
 C199 C 0.01048 -0.11015 0.44378
 C200 C -0.00810 -0.10704 0.48303
 C201 C -0.02830 -0.14273 0.51801
 C202 C -0.02947 -0.18057 0.51395
 H203 H -0.05838 -0.39115 0.56189
 H204 H -0.06462 -0.32505 0.56278
 H205 H 0.01405 -0.27104 0.43265
 H206 H 0.02157 -0.33667 0.43146
 H207 H 0.02447 -0.14992 0.40948
 H208 H 0.02630 -0.08323 0.41625
 H209 H -0.04305 -0.14143 0.54865
 H210 H -0.04488 -0.20744 0.54153
 C211 C 0.05890 0.36420 0.48500
 C212 C 0.06151 0.32616 0.48435
 C213 C 0.02573 0.29171 0.50292
 C214 C -0.01290 0.29569 0.52226
 C215 C -0.01562 0.33383 0.52218
 C216 C 0.02023 0.36832 0.50348
 N217 N 0.02905 0.25346 0.50022
 N218 N -0.00018 0.22008 0.52288
 C219 C 0.00202 0.18196 0.51873
 C220 C -0.02627 0.14593 0.55011
 C221 C -0.02600 0.10825 0.54619
 C222 C 0.00206 0.10611 0.51024
 C223 C 0.03048 0.14234 0.47875
 C224 C 0.03072 0.17999 0.48310
 H225 H 0.08682 0.39060 0.47033
 H226 H 0.09140 0.32350 0.46920
 H227 H -0.04101 0.26955 0.53647
 H228 H -0.04571 0.33660 0.53634
 H229 H -0.04868 0.14709 0.57760
 H230 H -0.04841 0.08081 0.57082
 H231 H 0.05250 0.14156 0.45077
 H232 H 0.05267 0.20749 0.45828
 C233 C 0.44095 -0.01036 -0.32517
 C234 C 0.43840 -0.00942 -0.28577
 C235 C 0.47350 0.01077 -0.28013
 C236 C 0.51112 0.03116 -0.31470
 C237 C 0.51375 0.03033 -0.35404
 C238 C 0.47892 0.00896 -0.35986
 N239 N 0.47075 0.00875 -0.23899
 N240 N 0.50247 0.02453 -0.23209
 C241 C 0.50106 0.02184 -0.19123
 C242 C 0.53793 0.03863 -0.18664
 C243 C 0.53835 0.03496 -0.14718
 C244 C 0.50166 0.01441 -0.11146
 C245 C 0.46443 -0.00186 -0.11619
 C246 C 0.46412 0.00174 -0.15576
 H247 H 0.41366 -0.02778 -0.32811
 H248 H 0.40924 -0.02538 -0.25934
 H249 H 0.53867 0.04730 -0.31127
 H250 H 0.54322 0.04639 -0.38008
 H251 H 0.56659 0.05415 -0.21376
 H252 H 0.56751 0.04794 -0.14467
 H253 H 0.43565 -0.01785 -0.08930
 H254 H 0.43521 -0.01152 -0.15857
 C255 C 0.53612 0.03747 0.32833
 C256 C 0.54026 0.03867 0.28806
 C257 C 0.52528 0.00293 0.28036
 C258 C 0.50747 -0.03448 0.31323
 C259 C 0.50416 -0.03580 0.35337
 C260 C 0.51770 0.00028 0.36129
 N261 N 0.52755 0.00558 0.23928
 N262 N 0.50600 -0.02328 0.23210
 C263 C 0.50793 -0.02034 0.19104
 C264 C 0.47632 -0.04752 0.18625
 C265 C 0.47602 -0.04399 0.14673
 C266 C 0.50800 -0.01369 0.11126
 C267 C 0.54042 0.01278 0.11603
 C268 C 0.54021 0.00975 0.15564
 H269 H 0.54688 0.06553 0.33395
 H270 H 0.55413 0.06763 0.26296
 H271 H 0.49603 -0.06253 0.30789
 H272 H 0.49018 -0.06476 0.37848
 H273 H 0.45134 -0.07087 0.21330
 H274 H 0.45080 -0.06495 0.14391
 H275 H 0.56538 0.03646 0.08922
 H276 H 0.56511 0.03095 0.15861
 C277 C 0.46744 -0.36408 0.03655
 C278 C 0.46689 -0.32660 0.04064
 C279 C 0.50315 -0.29286 0.02167
 C280 C 0.54067 -0.29729 -0.00034
 C281 C 0.54137 -0.33492 -0.00436
 C282 C 0.50448 -0.36863 0.01304
 N283 N 0.50031 -0.25431 0.02373
 N284 N 0.53131 -0.22159 0.00634
 C285 C 0.52672 -0.18332 0.00760
 C286 C 0.56173 -0.14814 -0.01140
 C287 C 0.55773 -0.11016 -0.01228
 C288 C 0.51845 -0.10681 0.00572
 C289 C 0.48345 -0.14229 0.02521
 C290 C 0.48752 -0.18015 0.02621
 H291 H 0.43874 -0.38961 0.05176
 H292 H 0.43786 -0.32362 0.05802
 H293 H 0.56916 -0.27156 -0.01520
 H294 H 0.57043 -0.33715 -0.02276
 H295 H 0.59210 -0.15013 -0.02594
 H296 H 0.58529 -0.08341 -0.02753
 H297 H 0.45278 -0.14083 0.03949
 H298 H 0.45991 -0.20684 0.04104
 C299 C 0.51359 0.36429 -0.05923
 C300 C 0.51432 0.32638 -0.06218
 C301 C 0.49709 0.29182 -0.02637
 C302 C 0.47904 0.29554 0.01265
 C303 C 0.47909 0.33355 0.01569
 C304 C 0.49648 0.36817 -0.02020
 N305 N 0.49983 0.25370 -0.03011
 N306 N 0.47783 0.22018 -0.00070
 C307 C 0.48204 0.18217 -0.00331
 C308 C 0.45100 0.14604 0.02517
 C309 C 0.45501 0.10843 0.02455
 C310 C 0.49072 0.10645 -0.00404
 C311 C 0.52187 0.14277 -0.03265
 C312 C 0.51741 0.18035 -0.03256
 H313 H 0.52717 0.39077 -0.08720
 H314 H 0.52845 0.32392 -0.09239
 H315 H 0.46587 0.26931 0.04079
 H316 H 0.46591 0.33613 0.04603
 H317 H 0.42372 0.14707 0.04800
 H318 H 0.43066 0.08093 0.04712
 H319 H 0.54966 0.14210 -0.05507
 H320 H 0.54196 0.20793 -0.05465
 C321 C -0.33001 0.03476 0.45788
 C322 C -0.28972 0.03581 0.45360
 C323 C -0.28260 0.00114 0.47338
 C324 C -0.31610 -0.03530 0.49618
 C325 C -0.35632 -0.03659 0.49987
 C326 C -0.36389 -0.00127 0.48174
 N327 N -0.24139 0.00402 0.47088
 N328 N -0.23424 -0.02326 0.49498
 C329 C -0.19320 -0.02022 0.49313
 C330 C -0.18838 -0.04619 0.52592
 C331 C -0.14890 -0.04263 0.52625
 C332 C -0.11345 -0.01344 0.49324
 C333 C -0.11826 0.01187 0.45975
 C334 C -0.15785 0.00876 0.45983
 H335 H -0.33490 0.06237 0.44339
 H336 H -0.26412 0.06401 0.43580
 H337 H -0.31122 -0.06268 0.51118
 H338 H -0.38163 -0.06512 0.51717
 H339 H -0.21539 -0.06868 0.55172
 H340 H -0.14611 -0.06271 0.55234
 H341 H -0.09149 0.03469 0.43395
 H342 H -0.16083 0.02905 0.43404
 C343 C 0.32185 -0.01969 0.55754
 C344 C 0.28216 -0.01950 0.56040
 C345 C 0.27698 0.00694 0.52815
 C346 C 0.31217 0.03437 0.49351
 C347 C 0.35183 0.03443 0.49080
 C348 C 0.35693 0.00688 0.52240
 N349 N 0.23583 0.00423 0.53043
 N350 N 0.22932 0.02401 0.49990
 C351 C 0.18844 0.02087 0.50108
 C352 C 0.18405 0.04056 0.46481
 C353 C 0.14466 0.03674 0.46414
 C354 C 0.10884 0.01331 0.50004
 C355 C 0.11334 -0.00586 0.53672
 C356 C 0.15282 -0.00225 0.53722
 H357 H 0.32519 -0.04120 0.58218
 H358 H 0.25531 -0.04074 0.58725
 H359 H 0.30903 0.05527 0.46828
 H360 H 0.37857 0.05529 0.46357
 H361 H 0.21128 0.05845 0.43677
 H362 H 0.14228 0.05202 0.43545
 H363 H 0.08636 -0.02413 0.56487
 H364 H 0.15546 -0.01773 0.56568
 C365 C 0.02143 0.55547 1.32756
 C366 C 0.01970 0.55867 1.28856
 C367 C -0.00698 0.52679 1.28347
 C368 C -0.03315 0.49211 1.31827
 C369 C -0.03167 0.48903 1.35726
 C370 C -0.00376 0.52031 1.36203
 N371 N -0.00567 0.52949 1.24258
 N372 N -0.02564 0.49953 1.23557
 C373 C -0.02372 0.50102 1.19480
 C374 C -0.04295 0.46533 1.18931
 C375 C -0.03972 0.46488 1.14968
 C376 C -0.01742 0.50040 1.11475
 C377 C 0.00100 0.53654 1.12046
 C378 C -0.00195 0.53683 1.16015
 H379 H 0.04306 0.57992 1.33071
 H380 H 0.03996 0.58556 1.26203
 H381 H -0.05423 0.46715 1.31523
 H382 H -0.05159 0.46185 1.38362
 H383 H -0.05982 0.43756 1.21579
 H384 H -0.05441 0.43660 1.14638
 H385 H 0.01842 0.56438 1.09416
 H386 H 0.01313 0.56483 1.16365
 C387 C -0.03264 0.45836 0.67359
 C388 C -0.03420 0.45422 0.71379
 C389 C 0.00151 0.47169 0.72006
 C390 C 0.03943 0.49187 0.68570
 C391 C 0.04120 0.49518 0.64555
 C392 C 0.00499 0.47921 0.63920
 N393 N -0.00186 0.46978 0.76129
 N394 N 0.02577 0.49346 0.76801
 C395 C 0.02214 0.49211 0.80918
 C396 C 0.04701 0.52513 0.81438
 C397 C 0.04256 0.52586 0.85421
 C398 C 0.01373 0.49299 0.88953
 C399 C -0.01034 0.45929 0.88425
 C400 C -0.00648 0.45899 0.84438
 H401 H -0.06083 0.44586 0.66916
 H402 H -0.06355 0.43855 0.74002
 H403 H 0.06749 0.50529 0.68988
 H404 H 0.07048 0.51125 0.61929
 H405 H 0.06920 0.55079 0.78747
 H406 H 0.06169 0.55209 0.85739
 H407 H -0.03285 0.43361 0.91095
 H408 H -0.02588 0.43303 0.84108
   
