data_POSCAR
  _audit_creation_date              2014-09-24
  _audit_creation_method            'ToBaCCo'
  _symmetry_space_group_name_H-M    'P1'
  _symmetry_Int_Tables_number       1
  _symmetry_cell_setting            triclinic
  loop_
  _symmetry_equiv_pos_as_xyz
 x,y,z
_cell_length_a 47.8169
_cell_length_b 47.2211
_cell_length_c 47.8228
_cell_angle_alpha 89.982900
_cell_angle_beta 90.005700
_cell_angle_gamma 89.982800
loop_
  _atom_site_label
  _atom_site_type_symbol
  _atom_site_fract_x
  _atom_site_fract_y
  _atom_site_fract_z
C1 C 0.60415 0.62480 0.64688
 C2 C 0.58334 0.64576 0.64663
 C3 C 0.58323 0.66661 0.62579
 C4 C 0.60390 0.66670 0.60504
 C5 C 0.62486 0.64591 0.60496
 C6 C 0.62502 0.62484 0.62596
 C7 C 0.60446 0.60381 0.66764
 C8 C 0.62534 0.58296 0.66768
 C9 C 0.64607 0.58297 0.64694
 C10 C 0.64606 0.60381 0.62603
 C11 C 0.66669 0.60401 0.60518
 C12 C 0.66649 0.62492 0.58439
 C13 C 0.64566 0.64579 0.58427
 H14 H 0.56724 0.64588 0.66261
 H15 H 0.60362 0.68294 0.58899
 H16 H 0.58847 0.60369 0.68375
 H17 H 0.66218 0.56677 0.64708
 H18 H 0.68291 0.58794 0.60508
 H19 H 0.64568 0.66188 0.56808
 C20 C 0.89660 0.37473 0.14602
 C21 C 0.91740 0.35377 0.14568
 C22 C 0.91747 0.33296 0.12477
 C23 C 0.89672 0.33297 0.10405
 C24 C 0.87577 0.35378 0.10409
 C25 C 0.87567 0.37477 0.12515
 C26 C 0.89634 0.39565 0.16684
 C27 C 0.87547 0.41647 0.16698
 C28 C 0.85470 0.41656 0.14632
 C29 C 0.85464 0.39580 0.12534
 C30 C 0.83394 0.39569 0.10455
 C31 C 0.83409 0.37486 0.08370
 C32 C 0.85491 0.35398 0.08346
 H33 H 0.93352 0.35366 0.16166
 H34 H 0.89688 0.31681 0.08792
 H35 H 0.91232 0.39577 0.18293
 H36 H 0.83863 0.43278 0.14662
 H37 H 0.81773 0.41176 0.10454
 H38 H 0.85483 0.33795 0.06722
 C39 C 0.39578 0.12482 -0.14673
 C40 C 0.41660 0.14574 -0.14644
 C41 C 0.41674 0.16654 -0.12556
 C42 C 0.39607 0.16660 -0.10480
 C43 C 0.37509 0.14584 -0.10477
 C44 C 0.37491 0.12483 -0.12582
 C45 C 0.39546 0.10390 -0.16755
 C46 C 0.37456 0.08308 -0.16764
 C47 C 0.35383 0.08306 -0.14691
 C48 C 0.35385 0.10383 -0.12594
 C49 C 0.33322 0.10400 -0.10509
 C50 C 0.33344 0.12484 -0.08425
 C51 C 0.35429 0.14568 -0.08408
 H52 H 0.43271 0.14589 -0.16242
 H53 H 0.39637 0.18279 -0.08872
 H54 H 0.41145 0.10381 -0.18365
 H55 H 0.33770 0.06689 -0.14709
 H56 H 0.31698 0.08796 -0.10503
 H57 H 0.35428 0.16172 -0.06785
 C58 C 0.10313 0.87482 0.35423
 C59 C 0.08234 0.85387 0.35449
 C60 C 0.08224 0.83301 0.37537
 C61 C 0.10295 0.83297 0.39613
 C62 C 0.12390 0.85378 0.39616
 C63 C 0.12402 0.87481 0.37513
 C64 C 0.10343 0.89578 0.33343
 C65 C 0.12430 0.91660 0.33335
 C66 C 0.14503 0.91664 0.35406
 C67 C 0.14505 0.89584 0.37501
 C68 C 0.16571 0.89567 0.39583
 C69 C 0.16554 0.87480 0.41665
 C70 C 0.14472 0.85393 0.41682
 H71 H 0.06625 0.85379 0.33848
 H72 H 0.10277 0.81677 0.41223
 H73 H 0.08747 0.89594 0.31731
 H74 H 0.16109 0.93285 0.35381
 H75 H 0.18193 0.91174 0.39589
 H76 H 0.14478 0.83786 0.43303
 N77 N 0.09204 0.17024 0.11216
 N78 N 0.08110 0.15872 0.13470
 C79 C 0.05840 0.17375 0.14239
 C80 C 0.05515 0.19568 0.12366
 C81 C 0.07671 0.19297 0.10475
 H82 H 0.04523 0.16916 0.16021
 H83 H 0.08092 0.20649 0.08699
 Cu84 Cu 0.09766 0.12523 0.15168
 Cu85 Cu 0.12531 0.15498 0.09413
 Cu86 Cu 0.15515 0.09528 0.12412
 N87 N 0.11456 0.09175 0.16832
 N88 N 0.13708 0.08014 0.15741
 C89 C 0.14443 0.05744 0.17279
 C90 C 0.12551 0.05482 0.19436
 C91 C 0.10683 0.07679 0.19105
 H92 H 0.16217 0.04386 0.16862
 H93 H 0.08902 0.08144 0.20421
 N94 N 0.17035 0.11370 0.09040
 N95 N 0.15899 0.13644 0.07898
 C96 C 0.17407 0.14392 0.05635
 C97 C 0.19580 0.12499 0.05356
 C98 C 0.19297 0.10612 0.07533
 H99 H 0.16965 0.16176 0.04287
 H100 H 0.20639 0.08826 0.07979
 H101 H 0.11975 0.11364 0.10718
 H102 H 0.14220 0.13667 0.12958
 N103 N 0.40728 0.83017 0.61304
 N104 N 0.41824 0.84183 0.63550
 C105 C 0.44096 0.82687 0.64325
 C106 C 0.44423 0.80484 0.62464
 C107 C 0.42263 0.80743 0.60574
 H108 H 0.45415 0.83156 0.66103
 H109 H 0.41843 0.79382 0.58805
 Cu110 Cu 0.40165 0.87538 0.65231
 Cu111 Cu 0.37399 0.84530 0.59494
 Cu112 Cu 0.34410 0.90513 0.62461
 N113 N 0.38471 0.90892 0.66878
 N114 N 0.36218 0.92045 0.65781
 C115 C 0.35478 0.94319 0.67310
 C116 C 0.37369 0.94592 0.69466
 C117 C 0.39241 0.92397 0.69145
 H118 H 0.33701 0.95671 0.66887
 H119 H 0.41021 0.91938 0.70465
 N120 N 0.32890 0.88652 0.59100
 N121 N 0.34028 0.86373 0.57970
 C122 C 0.32517 0.85611 0.55713
 C123 C 0.30343 0.87500 0.55425
 C124 C 0.30626 0.89399 0.57591
 H125 H 0.32960 0.83820 0.54376
 H126 H 0.29282 0.91186 0.58028
 H127 H 0.37951 0.88672 0.60775
 H128 H 0.35710 0.86378 0.63029
 N129 N 0.90780 0.67027 0.38785
 N130 N 0.91879 0.65868 0.36537
 C131 C 0.94148 0.67371 0.35766
 C132 C 0.94468 0.69570 0.37632
 C133 C 0.92308 0.69303 0.39521
 H134 H 0.95468 0.66908 0.33989
 H135 H 0.91884 0.70659 0.41293
 Cu136 Cu 0.90230 0.62513 0.34848
 Cu137 Cu 0.87453 0.65503 0.40590
 Cu138 Cu 0.84483 0.59520 0.37610
 N139 N 0.88546 0.59158 0.33194
 N140 N 0.86296 0.57998 0.34288
 C141 C 0.85563 0.55725 0.32755
 C142 C 0.87456 0.55460 0.30600
 C143 C 0.89321 0.57659 0.30925
 H144 H 0.83789 0.54368 0.33174
 H145 H 0.91101 0.58124 0.29608
 N146 N 0.82956 0.61371 0.40974
 N147 N 0.84087 0.63650 0.42109
 C148 C 0.82575 0.64403 0.44368
 C149 C 0.80406 0.62507 0.44651
 C150 C 0.80695 0.60614 0.42482
 H151 H 0.83013 0.66191 0.45710
 H152 H 0.79356 0.58824 0.42041
 H153 H 0.88018 0.61365 0.39301
 H154 H 0.85771 0.63659 0.37050
 N155 N 0.59316 0.32953 -0.11336
 N156 N 0.58257 0.34077 -0.13621
 C157 C 0.55985 0.32580 -0.14393
 C158 C 0.55622 0.30419 -0.12491
 C159 C 0.57758 0.30704 -0.10579
 H160 H 0.54691 0.33023 -0.16196
 H161 H 0.58147 0.29378 -0.08776
 Cu162 Cu 0.59947 0.37388 -0.15356
 Cu163 Cu 0.62625 0.34486 -0.09514
 Cu164 Cu 0.65614 0.40456 -0.12492
 N165 N 0.61611 0.40777 -0.16964
 N166 N 0.63827 0.41966 -0.15833
 C167 C 0.64544 0.44262 -0.17343
 C168 C 0.62676 0.44511 -0.19521
 C169 C 0.60841 0.42281 -0.19233
 H170 H 0.66289 0.45646 -0.16891
 H171 H 0.59083 0.41799 -0.20573
 N172 N 0.67118 0.38619 -0.09112
 N173 N 0.65979 0.36343 -0.07977
 C174 C 0.67478 0.35595 -0.05707
 C175 C 0.69646 0.37490 -0.05417
 C176 C 0.69371 0.39377 -0.07594
 H177 H 0.67034 0.33808 -0.04365
 H178 H 0.70715 0.41164 -0.08034
 H179 H 0.62047 0.38604 -0.10869
 H180 H 0.64366 0.36303 -0.13039
 C181 C -0.06225 0.31269 0.12458
 C182 C -0.04430 0.29475 0.12442
 C183 C -0.02328 0.27376 0.12426
 C184 C -0.00532 0.25585 0.12412
 C185 C 0.01573 0.23488 0.12396
 C186 C 0.03371 0.21699 0.12382
 C187 C 0.56178 0.68801 0.62569
 C188 C 0.54381 0.70592 0.62558
 C189 C 0.52276 0.72688 0.62543
 C190 C 0.50477 0.74476 0.62528
 C191 C 0.48370 0.76570 0.62508
 C192 C 0.46570 0.78357 0.62489
 C193 C 1.06198 0.81273 0.37547
 C194 C 1.04404 0.79479 0.37558
 C195 C 1.02303 0.77380 0.37571
 C196 C 1.00509 0.75589 0.37583
 C197 C 0.98406 0.73492 0.37599
 C198 C 0.96609 0.71702 0.37613
 C199 C 0.43822 0.18790 -0.12542
 C200 C 0.45622 0.20575 -0.12532
 C201 C 0.47734 0.22664 -0.12523
 C202 C 0.49538 0.24445 -0.12516
 C203 C 0.51655 0.26528 -0.12508
 C204 C 0.53464 0.28304 -0.12501
 C205 C 0.12445 -0.06200 0.31191
 C206 C 0.12459 -0.04409 0.29395
 C207 C 0.12476 -0.02313 0.27290
 C208 C 0.12492 -0.00524 0.25492
 C209 C 0.12511 0.01569 0.23384
 C210 C 0.12529 0.03355 0.21583
 C211 C 0.62549 0.56264 -0.31208
 C212 C 0.62564 0.54465 -0.29419
 C213 C 0.62583 0.52359 -0.27324
 C214 C 0.62601 0.50560 -0.25536
 C215 C 0.62625 0.48453 -0.23442
 C216 C 0.62647 0.46655 -0.21653
 C217 C 0.37440 1.06283 0.81207
 C218 C 0.37427 1.04491 0.79411
 C219 C 0.37413 1.02394 0.77309
 C220 C 0.37403 1.00605 0.75512
 C221 C 0.37392 0.98510 0.73408
 C222 C 0.37382 0.96722 0.71609
 C223 C 0.87536 0.43785 0.18844
 C224 C 0.87527 0.45574 0.20641
 C225 C 0.87516 0.47667 0.22747
 C226 C 0.87506 0.49454 0.24546
 C227 C 0.87491 0.51547 0.26653
 C228 C 0.87476 0.53332 0.28454
 C229 C 0.31219 0.12483 -0.06293
 C230 C 0.29439 0.12483 -0.04509
 C231 C 0.27353 0.12483 -0.02421
 C232 C 0.25571 0.12484 -0.00638
 C233 C 0.23484 0.12488 0.01449
 C234 C 0.21703 0.12492 0.03231
 C235 C 0.68774 0.62494 0.56307
 C236 C 0.70552 0.62495 0.54521
 C237 C 0.72636 0.62496 0.52431
 C238 C 0.74416 0.62498 0.50646
 C239 C 0.76501 0.62501 0.48558
 C240 C 0.78282 0.62503 0.46775
 C241 C 0.81278 0.37490 0.06243
 C242 C 0.79494 0.37492 0.04461
 C243 C 0.77407 0.37493 0.02374
 C244 C 0.75627 0.37494 0.00590
 C245 C 0.73543 0.37493 -0.01500
 C246 C 0.71764 0.37492 -0.03286
 C247 C 0.18684 0.87478 0.43793
 C248 C 0.20468 0.87478 0.45574
 C249 C 0.22557 0.87479 0.47659
 C250 C 0.24342 0.87482 0.49439
 C251 C 0.26432 0.87487 0.51523
 C252 C 0.28216 0.87492 0.53303
   
