data_POSCAR
  _audit_creation_date              2014-09-24
  _audit_creation_method            'ToBaCCo'
  _symmetry_space_group_name_H-M    'P1'
  _symmetry_Int_Tables_number       1
  _symmetry_cell_setting            triclinic
  loop_
  _symmetry_equiv_pos_as_xyz
 x,y,z
_cell_length_a 39.4923
_cell_length_b 39.5181
_cell_length_c 39.4381
_cell_angle_alpha 90.520600
_cell_angle_beta 90.559400
_cell_angle_gamma 89.638400
loop_
  _atom_site_label
  _atom_site_type_symbol
  _atom_site_fract_x
  _atom_site_fract_y
  _atom_site_fract_z
N1 N 0.31562 0.24106 0.21593
 N2 N 0.30144 0.26789 0.20226
 C3 C 0.31830 0.27584 0.17395
 C4 C 0.34461 0.25288 0.16965
 C5 C 0.34208 0.23116 0.19689
 H6 H 0.31132 0.29620 0.15713
 H7 H 0.35765 0.20919 0.20205
 Cu8 Cu 0.26136 0.28901 0.22179
 Cu9 Cu 0.29729 0.21959 0.25594
 Cu10 Cu 0.22459 0.25499 0.29016
 N11 N 0.22004 0.30794 0.24090
 N12 N 0.20581 0.29460 0.26758
 C13 C 0.17760 0.31231 0.27512
 C14 C 0.17384 0.33819 0.25190
 C15 C 0.20131 0.33457 0.23055
 H16 H 0.16101 0.30655 0.29586
 H17 H 0.20717 0.35002 0.20896
 N18 N 0.24737 0.21488 0.30940
 N19 N 0.27502 0.20142 0.29634
 C20 C 0.28397 0.17404 0.31450
 C21 C 0.26086 0.16998 0.34030
 C22 C 0.23805 0.19644 0.33628
 H23 H 0.30560 0.15808 0.30914
 H24 H 0.21603 0.20165 0.35151
 H25 H 0.24767 0.23498 0.24753
 H26 H 0.27416 0.26228 0.27602
 N27 N 0.69636 -0.23912 0.20672
 N28 N 0.70996 -0.26682 0.19401
 C29 C 0.69224 -0.27639 0.16625
 C30 C 0.66583 -0.25358 0.16128
 C31 C 0.66938 -0.23023 0.18760
 H32 H 0.69783 -0.29872 0.15130
 H33 H 0.65317 -0.20877 0.19298
 Cu34 Cu 0.74866 -0.28852 0.21572
 Cu35 Cu 0.71436 -0.21703 0.24744
 Cu36 Cu 0.78314 -0.25578 0.28682
 N37 N 0.78675 -0.31036 0.23837
 N38 N 0.80029 -0.29730 0.26603
 C39 C 0.82737 -0.31602 0.27522
 C40 C 0.83115 -0.34238 0.25204
 C41 C 0.80465 -0.33797 0.22909
 H42 H 0.84381 -0.31005 0.29646
 H43 H 0.79936 -0.35295 0.20665
 N44 N 0.76222 -0.21365 0.30396
 N45 N 0.73627 -0.19870 0.28884
 C46 C 0.72903 -0.16973 0.30561
 C47 C 0.75145 -0.16624 0.33263
 C48 C 0.77208 -0.19465 0.33075
 H49 H 0.70951 -0.15195 0.29816
 H50 H 0.79323 -0.20071 0.34721
 H51 H 0.76341 -0.23486 0.24289
 H52 H 0.73397 -0.26047 0.26889
 N53 N 0.69841 0.23911 0.78925
 N54 N 0.71415 0.26487 0.80337
 C55 C 0.69582 0.27646 0.82968
 C56 C 0.66701 0.25678 0.83226
 C57 C 0.66957 0.23334 0.80604
 H58 H 0.70328 0.29734 0.84593
 H59 H 0.65220 0.21315 0.79988
 Cu60 Cu 0.75793 0.27984 0.78713
 Cu61 Cu 0.71804 0.21371 0.75175
 Cu62 Cu 0.77496 0.26030 0.70553
 N63 N 0.79384 0.30205 0.76268
 N64 N 0.79885 0.29615 0.73025
 C65 C 0.82335 0.31679 0.71927
 C66 C 0.83497 0.33609 0.74654
 C67 C 0.81562 0.32588 0.77373
 H68 H 0.83302 0.31665 0.69371
 H69 H 0.81660 0.33560 0.79943
 N70 N 0.75603 0.21670 0.68933
 N71 N 0.73432 0.19906 0.70711
 C72 C 0.72826 0.16951 0.69108
 C73 C 0.74745 0.16806 0.66194
 C74 C 0.76469 0.19855 0.66160
 H75 H 0.71245 0.14969 0.70087
 H76 H 0.78330 0.20636 0.64339
 H77 H 0.76792 0.23256 0.74836
 H78 H 0.73142 0.25993 0.73480
 N79 N 0.30347 -0.24155 0.78453
 N80 N 0.28837 -0.26689 0.79940
 C81 C 0.30549 -0.27452 0.82809
 C82 C 0.33280 -0.25280 0.83137
 C83 C 0.33066 -0.23227 0.80314
 H84 H 0.29808 -0.29372 0.84584
 H85 H 0.34712 -0.21155 0.79691
 Cu86 Cu 0.24682 -0.28607 0.78050
 Cu87 Cu 0.28565 -0.22088 0.74334
 Cu88 Cu 0.21208 -0.25492 0.70909
 N89 N 0.20591 -0.30555 0.76050
 N90 N 0.19227 -0.29281 0.73288
 C91 C 0.16449 -0.31060 0.72434
 C92 C 0.16041 -0.33622 0.74775
 C93 C 0.18733 -0.33214 0.77035
 H94 H 0.14893 -0.30546 0.70229
 H95 H 0.19336 -0.34774 0.79196
 N96 N 0.23585 -0.21658 0.68868
 N97 N 0.26373 -0.20348 0.70184
 C98 C 0.27263 -0.17651 0.68337
 C99 C 0.24936 -0.17246 0.65720
 C100 C 0.22644 -0.19842 0.66140
 H101 H 0.29382 -0.16028 0.68925
 H102 H 0.20388 -0.20309 0.64642
 H103 H 0.23554 -0.23318 0.75092
 H104 H 0.26129 -0.26358 0.72524
 N105 N 0.69155 -0.23738 0.78547
 N106 N 0.70225 -0.26699 0.79615
 C107 C 0.68355 -0.27630 0.82282
 C108 C 0.65966 -0.25122 0.82912
 C109 C 0.66559 -0.22691 0.80484
 H110 H 0.68700 -0.29970 0.83641
 H111 H 0.65208 -0.20330 0.80143
 Cu112 Cu 0.73916 -0.29103 0.77397
 Cu113 Cu 0.71162 -0.21499 0.74688
 Cu114 Cu 0.78431 -0.25117 0.71419
 N115 N 0.78286 -0.30802 0.75894
 N116 N 0.80096 -0.29192 0.73652
 C117 C 0.83034 -0.30874 0.73180
 C118 C 0.83056 -0.33725 0.75216
 C119 C 0.79989 -0.33582 0.76900
 H120 H 0.84973 -0.30095 0.71443
 H121 H 0.79095 -0.35326 0.78783
 N122 N 0.76314 -0.21009 0.69513
 N123 N 0.73551 -0.19623 0.70782
 C124 C 0.72628 -0.16966 0.68865
 C125 C 0.74909 -0.16664 0.66242
 C126 C 0.77215 -0.19275 0.66741
 H127 H 0.70400 -0.15430 0.69295
 H128 H 0.79323 -0.19936 0.65135
 H129 H 0.73319 -0.25689 0.72307
 H130 H 0.75898 -0.23572 0.75723
 N131 N 0.31207 0.24649 0.78280
 N132 N 0.29862 0.27462 0.79474
 C133 C 0.31642 0.28474 0.82229
 C134 C 0.34240 0.26160 0.82796
 C135 C 0.33875 0.23772 0.80230
 H136 H 0.30981 0.30623 0.83806
 H137 H 0.35331 0.21475 0.79890
 Cu138 Cu 0.25669 0.29204 0.77518
 Cu139 Cu 0.29214 0.22095 0.74515
 Cu140 Cu 0.21473 0.25008 0.71429
 N141 N 0.21361 0.30904 0.75784
 N142 N 0.19669 0.29121 0.73510
 C143 C 0.16748 0.30719 0.72767
 C144 C 0.16606 0.33683 0.74641
 C145 C 0.19579 0.33731 0.76534
 H146 H 0.14910 0.29855 0.70907
 H147 H 0.20375 0.35673 0.78313
 N148 N 0.23758 0.20932 0.69643
 N149 N 0.26751 0.19885 0.70737
 C150 C 0.27665 0.17113 0.68953
 C151 C 0.25123 0.16371 0.66624
 C152 C 0.22684 0.18843 0.67149
 H153 H 0.29991 0.15716 0.69355
 H154 H 0.20292 0.19096 0.65827
 H155 H 0.26529 0.26008 0.72299
 H156 H 0.24311 0.23508 0.75585
 N157 N 0.30850 -0.24373 0.21220
 N158 N 0.29420 -0.27062 0.19867
 C159 C 0.31184 -0.28043 0.17122
 C160 C 0.33876 -0.25856 0.16735
 C161 C 0.33583 -0.23562 0.19394
 H162 H 0.30564 -0.30202 0.15541
 H163 H 0.35246 -0.21472 0.19978
 Cu164 Cu 0.25425 -0.29065 0.21838
 Cu165 Cu 0.29024 -0.22080 0.25192
 Cu166 Cu 0.21657 -0.25332 0.28533
 N167 N 0.21301 -0.30844 0.23759
 N168 N 0.19821 -0.29361 0.26350
 C169 C 0.16969 -0.31038 0.27077
 C170 C 0.16640 -0.33725 0.24822
 C171 C 0.19441 -0.33519 0.22752
 H172 H 0.15225 -0.30309 0.29051
 H173 H 0.20054 -0.35155 0.20634
 N174 N 0.23917 -0.21288 0.30400
 N175 N 0.26772 -0.20108 0.29186
 C176 C 0.27662 -0.17331 0.30975
 C177 C 0.25242 -0.16714 0.33426
 C178 C 0.22900 -0.19275 0.32972
 H179 H 0.29851 -0.15804 0.30452
 H180 H 0.20595 -0.19622 0.34371
 H181 H 0.26637 -0.26224 0.27228
 H182 H 0.24073 -0.23537 0.24278
 N183 N 0.69413 0.24128 0.21497
 N184 N 0.70752 0.26879 0.20248
 C185 C 0.69040 0.27745 0.17417
 C186 C 0.66498 0.25404 0.16843
 C187 C 0.66825 0.23135 0.19486
 H188 H 0.69672 0.29859 0.15829
 H189 H 0.65330 0.20902 0.19904
 Cu190 Cu 0.74748 0.28926 0.22300
 Cu191 Cu 0.71153 0.22017 0.25608
 Cu192 Cu 0.78139 0.25763 0.29446
 N193 N 0.78744 0.30916 0.24412
 N194 N 0.80004 0.29713 0.27253
 C195 C 0.82814 0.31443 0.28098
 C196 C 0.83373 0.33853 0.25641
 C197 C 0.80734 0.33435 0.23336
 H198 H 0.84412 0.30873 0.30260
 H199 H 0.80346 0.34788 0.20997
 N200 N 0.75911 0.21742 0.31271
 N201 N 0.73279 0.20286 0.29795
 C202 C 0.72438 0.17528 0.31575
 C203 C 0.74655 0.17225 0.34298
 C204 C 0.76816 0.19948 0.34022
 H205 H 0.70392 0.15843 0.30908
 H206 H 0.78933 0.20551 0.35667
 H207 H 0.73225 0.26354 0.27659
 H208 H 0.76096 0.23597 0.25086
 C209 C 0.23708 -0.01424 0.39452
 C210 C 0.23867 0.02042 0.39587
 C211 C 0.24787 0.02899 0.42883
 N212 N 0.25201 0.00080 0.44761
 C213 C 0.24529 -0.02565 0.42672
 C214 C 0.25432 0.06221 0.44060
 C215 C 0.25914 0.07035 0.47527
 C216 C 0.27248 0.10052 0.48749
 C217 C 0.27101 0.09931 0.52229
 C218 C 0.25680 0.06846 0.53032
 N219 N 0.24960 0.05098 0.50156
 C220 C 0.24886 0.05809 0.56342
 C221 C 0.24229 0.02420 0.57191
 C222 C 0.23137 0.01358 0.60335
 C223 C 0.23071 -0.02108 0.60203
 C224 C 0.24129 -0.03043 0.56984
 N225 N 0.24848 -0.00272 0.55153
 C226 C 0.24631 -0.06409 0.55863
 C227 C 0.25264 -0.07279 0.52446
 C228 C 0.26453 -0.10403 0.51337
 C229 C 0.26550 -0.10278 0.47853
 C230 C 0.25403 -0.07088 0.46935
 N231 N 0.24622 -0.05278 0.49747
 C232 C 0.24894 -0.05999 0.43568
 H233 H 0.23092 -0.02933 0.37229
 H234 H 0.23380 0.03733 0.37493
 H235 H 0.23355 -0.02965 0.49795
 H236 H 0.28205 0.12138 0.47287
 H237 H 0.27913 0.11905 0.53970
 H238 H 0.22493 0.02916 0.62509
 H239 H 0.22350 -0.03749 0.62252
 H240 H 0.27336 -0.12318 0.46181
 H241 H 0.23537 0.02897 0.49992
 H242 H 0.27158 -0.12553 0.52878
 C243 C 0.76508 -0.02414 0.60286
 C244 C 0.76637 0.01052 0.60503
 C245 C 0.75768 0.02263 0.57321
 N246 N 0.75121 -0.00344 0.55172
 C247 C 0.75591 -0.03205 0.56973
 C248 C 0.75397 0.05720 0.56491
 C249 C 0.74739 0.06839 0.53155
 C250 C 0.73488 0.10018 0.52340
 C251 C 0.73384 0.10179 0.48861
 C252 C 0.74586 0.07098 0.47647
 N253 N 0.75405 0.05074 0.50281
 C254 C 0.75114 0.06323 0.44186
 C255 C 0.75692 0.03009 0.42953
 C256 C 0.76724 0.02204 0.39693
 C257 C 0.76813 -0.01260 0.39472
 C258 C 0.75832 -0.02454 0.42605
 N259 N 0.75135 0.00159 0.44724
 C260 C 0.75420 -0.05899 0.43405
 C261 C 0.74783 -0.07037 0.46724
 C262 C 0.73598 -0.10228 0.47501
 C263 C 0.73472 -0.10394 0.50978
 C264 C 0.74598 -0.07303 0.52233
 N265 N 0.75403 -0.05275 0.49620
 C266 C 0.75036 -0.06515 0.55716
 H267 H 0.77032 -0.04155 0.62331
 H268 H 0.77277 0.02508 0.62754
 H269 H 0.76659 -0.02979 0.49805
 H270 H 0.72735 0.12019 0.54072
 H271 H 0.72546 0.12335 0.47394
 H272 H 0.77345 0.03932 0.37681
 H273 H 0.77515 -0.02727 0.37255
 H274 H 0.72663 -0.12558 0.52417
 H275 H 0.76719 0.02792 0.50133
 H276 H 0.72899 -0.12232 0.45744
 C277 C 0.39926 0.23955 -0.01935
 C278 C 0.39960 0.23745 0.01534
 C279 C 0.43167 0.24711 0.02608
 N280 N 0.45087 0.25511 -0.00082
 C281 C 0.43116 0.25032 -0.02862
 C282 C 0.44209 0.25049 0.06028
 C283 C 0.47611 0.25616 0.07008
 C284 C 0.48654 0.26726 0.10193
 C285 C 0.52138 0.26782 0.10165
 C286 C 0.53122 0.25684 0.06972
 N287 N 0.50349 0.24980 0.05063
 C288 C 0.56506 0.25148 0.05965
 C289 C 0.57483 0.24810 0.02545
 C290 C 0.60697 0.23898 0.01474
 C291 C 0.60662 0.24115 -0.01997
 C292 C 0.57434 0.25173 -0.02925
 N293 N 0.55498 0.25604 -0.00144
 C294 C 0.56369 0.25912 -0.06267
 C295 C 0.52952 0.26569 -0.07145
 C296 C 0.51866 0.28014 -0.10160
 C297 C 0.48384 0.27988 -0.10135
 C298 C 0.47444 0.26524 -0.07108
 N299 N 0.50240 0.25671 -0.05299
 C300 C 0.44087 0.25775 -0.06204
 H301 H 0.37788 0.23404 -0.03584
 H302 H 0.37856 0.22986 0.03086
 H303 H 0.50291 0.24179 -0.03141
 H304 H 0.47070 0.27413 0.12318
 H305 H 0.53765 0.27509 0.12270
 H306 H 0.62848 0.23173 0.03033
 H307 H 0.62779 0.23575 -0.03641
 H308 H 0.46730 0.28890 -0.12142
 H309 H 0.50339 0.23765 0.02713
 H310 H 0.53421 0.28954 -0.12187
 C311 C 0.60178 0.76243 -0.02104
 C312 C 0.60316 0.76107 0.01373
 C313 C 0.57138 0.75116 0.02416
 N314 N 0.55072 0.74625 -0.00295
 C315 C 0.56919 0.75325 -0.03063
 C316 C 0.56237 0.74495 0.05804
 C317 C 0.52895 0.73778 0.06798
 C318 C 0.52036 0.72385 0.09885
 C319 C 0.48565 0.72292 0.09974
 C320 C 0.47397 0.73638 0.06942
 N321 N 0.50052 0.74540 0.05018
 C322 C 0.43951 0.74208 0.06138
 C323 C 0.42762 0.74879 0.02828
 C324 C 0.39483 0.75853 0.02007
 C325 C 0.39337 0.76082 -0.01461
 C326 C 0.42531 0.75226 -0.02640
 N327 N 0.44616 0.74480 -0.00012
 C328 C 0.43423 0.74963 -0.06094
 C329 C 0.46795 0.74480 -0.07193
 C330 C 0.47695 0.73467 -0.10438
 C331 C 0.51176 0.73457 -0.10534
 C332 C 0.52314 0.74471 -0.07347
 N333 N 0.49625 0.75099 -0.05328
 C334 C 0.55760 0.74958 -0.06447
 H335 H 0.62246 0.76925 -0.03738
 H336 H 0.62507 0.76656 0.02949
 H337 H 0.49708 0.76241 -0.02947
 H338 H 0.53734 0.71541 0.11881
 H339 H 0.47071 0.71367 0.12053
 H340 H 0.37415 0.76347 0.03727
 H341 H 0.37127 0.76792 -0.02941
 H342 H 0.52695 0.72790 -0.12713
 H343 H 0.49928 0.75968 0.02820
 H344 H 0.46017 0.72804 -0.12523
 C345 C -0.01281 0.39440 0.23461
 C346 C 0.02190 0.39524 0.23393
 C347 C 0.03121 0.42786 0.24308
 N348 N 0.00340 0.44692 0.24935
 C349 C -0.02354 0.42658 0.24400
 C350 C 0.06490 0.43903 0.24736
 C351 C 0.07351 0.47344 0.25221
 C352 C 0.10492 0.48483 0.26326
 C353 C 0.10370 0.51961 0.26257
 C354 C 0.07154 0.52849 0.25125
 N355 N 0.05334 0.50023 0.24488
 C356 C 0.06046 0.56198 0.24527
 C357 C 0.02608 0.57109 0.24114
 C358 C 0.01460 0.60267 0.23100
 C359 C -0.02005 0.60178 0.23216
 C360 C -0.02855 0.56968 0.24295
 N361 N -0.00032 0.55100 0.24858
 C362 C -0.06184 0.55876 0.24920
 C363 C -0.07006 0.52473 0.25561
 C364 C -0.10063 0.51393 0.26853
 C365 C -0.09931 0.47913 0.26891
 C366 C -0.06806 0.46970 0.25601
 N367 N -0.05040 0.49763 0.24799
 C368 C -0.05756 0.43603 0.24970
 H369 H -0.02835 0.37255 0.22906
 H370 H 0.03839 0.37418 0.22761
 H371 H -0.02808 0.49803 0.23427
 H372 H 0.12657 0.46968 0.27086
 H373 H 0.12420 0.53644 0.26950
 H374 H 0.02959 0.62416 0.22359
 H375 H -0.03700 0.62244 0.22582
 H376 H -0.11931 0.46262 0.27719
 H377 H 0.02998 0.49929 0.23256
 H378 H -0.12178 0.52951 0.27656
 C379 C -0.01930 0.60319 0.77551
 C380 C 0.01520 0.60342 0.77194
 C381 C 0.02438 0.57143 0.76064
 N382 N -0.00327 0.55157 0.75744
 C383 C -0.03018 0.57118 0.76578
 C384 C 0.05744 0.56191 0.75109
 C385 C 0.06649 0.52887 0.74054
 C386 C 0.09581 0.52093 0.72303
 C387 C 0.09622 0.48650 0.71857
 C388 C 0.06764 0.47415 0.73427
 N389 N 0.04915 0.50024 0.74696
 C390 C 0.05872 0.43954 0.73520
 C391 C 0.02441 0.43096 0.72954
 C392 C 0.01275 0.40450 0.70949
 C393 C -0.02179 0.40415 0.71247
 C394 C -0.03027 0.43158 0.73285
 N395 N -0.00204 0.44824 0.74275
 C396 C -0.06266 0.43883 0.74581
 C397 C -0.07006 0.47067 0.76060
 C398 C -0.09498 0.47717 0.78430
 C399 C -0.09442 0.51144 0.79065
 C400 C -0.07098 0.52523 0.76909
 N401 N -0.05509 0.50006 0.75188
 C402 C -0.06430 0.56013 0.76566
 H403 H -0.03447 0.62407 0.78492
 H404 H 0.03163 0.62474 0.77697
 H405 H -0.03735 0.50307 0.73270
 H406 H 0.11475 0.53823 0.71392
 H407 H 0.11511 0.47223 0.70469
 H408 H 0.02734 0.38784 0.69329
 H409 H -0.03846 0.38595 0.70051
 H410 H -0.10827 0.52442 0.81039
 H411 H 0.02784 0.49831 0.76214
 H412 H -0.11116 0.45927 0.79672
 C413 C 0.36658 0.27389 0.11420
 C414 C 0.36820 0.25048 0.14068
 C415 C 0.39223 0.22395 0.13785
 C416 C 0.41588 0.22338 0.11128
 C417 C 0.41586 0.24918 0.08691
 C418 C 0.38976 0.27316 0.08799
 C419 C 0.39160 0.31074 0.08640
 C420 C 0.36632 0.31173 0.11520
 H421 H 0.39375 0.20427 0.15668
 H422 H 0.43489 0.20353 0.11044
 H423 H 0.38108 0.32062 0.06216
 H424 H 0.41699 0.32057 0.09370
 H425 H 0.34136 0.32246 0.10750
 H426 H 0.37701 0.32215 0.13928
 C427 C 0.61383 0.76925 0.13572
 C428 C 0.64000 0.74502 0.13646
 C429 C 0.63826 0.71845 0.11211
 C430 C 0.61309 0.71832 0.08655
 C431 C 0.58908 0.74464 0.08467
 C432 C 0.58892 0.76885 0.11065
 C433 C 0.58799 0.80642 0.10815
 C434 C 0.61536 0.80707 0.13547
 H435 H 0.65667 0.69811 0.11194
 H436 H 0.61282 0.69810 0.06782
 H437 H 0.56344 0.81719 0.11675
 H438 H 0.59676 0.81557 0.08316
 H439 H 0.60650 0.81851 0.15969
 H440 H 0.64006 0.81661 0.12638
 C441 C 0.61229 0.23779 -0.14197
 C442 C 0.64028 0.25916 -0.14170
 C443 C 0.64190 0.28275 -0.11433
 C444 C 0.61683 0.28332 -0.08870
 C445 C 0.58944 0.26040 -0.08976
 C446 C 0.58827 0.23854 -0.11751
 C447 C 0.56939 0.20923 -0.13179
 C448 C 0.59646 0.20820 -0.15963
 H449 H 0.66263 0.30040 -0.11220
 H450 H 0.61908 0.30129 -0.06791
 H451 H 0.54376 0.21651 -0.14119
 H452 H 0.57036 0.18698 -0.11476
 H453 H 0.58643 0.21478 -0.18518
 H454 H 0.61276 0.18519 -0.15861
 C455 C 0.35684 0.72621 -0.11344
 C456 C 0.35712 0.74973 -0.13982
 C457 C 0.38067 0.77645 -0.13717
 C458 C 0.40521 0.77706 -0.11098
 C459 C 0.40669 0.75106 -0.08683
 C460 C 0.38099 0.72690 -0.08764
 C461 C 0.38352 0.68931 -0.08637
 C462 C 0.35715 0.68840 -0.11469
 H463 H 0.38109 0.79627 -0.15587
 H464 H 0.42383 0.79707 -0.11032
 H465 H 0.37411 0.67921 -0.06201
 H466 H 0.40879 0.67965 -0.09423
 H467 H 0.33265 0.67754 -0.10662
 H468 H 0.36708 0.67817 -0.13904
 C469 C 0.11990 0.36492 0.27318
 C470 C 0.14634 0.36382 0.24998
 C471 C 0.14518 0.38894 0.22443
 C472 C 0.11868 0.41342 0.22330
 C473 C 0.09256 0.41345 0.24760
 C474 C 0.09456 0.38835 0.27199
 C475 C 0.07768 0.37560 0.30282
 C476 C 0.10625 0.34894 0.30429
 H477 H 0.16460 0.38996 0.20535
 H478 H 0.11864 0.43227 0.20355
 H479 H 0.05235 0.36473 0.29711
 H480 H 0.07856 0.39423 0.32408
 H481 H 0.09733 0.32270 0.29943
 H482 H 0.12344 0.35214 0.32656
 C483 C 0.13577 0.61281 0.77222
 C484 C 0.13568 0.63823 0.74754
 C485 C 0.11049 0.63607 0.72175
 C486 C 0.08497 0.61137 0.72287
 C487 C 0.08397 0.58822 0.74969
 C488 C 0.11075 0.58828 0.77302
 C489 C 0.10961 0.58852 0.81076
 C490 C 0.13686 0.61545 0.81008
 H491 H 0.10964 0.65383 0.70108
 H492 H 0.06561 0.61078 0.70325
 H493 H 0.11862 0.56417 0.82161
 H494 H 0.08501 0.59795 0.82069
 H495 H 0.16144 0.60655 0.82082
 H496 H 0.12810 0.64056 0.81960
 C497 C -0.11588 0.63399 0.27458
 C498 C -0.14234 0.63371 0.25051
 C499 C -0.14002 0.60963 0.22377
 C500 C -0.11381 0.58532 0.22322
 C501 C -0.08926 0.58449 0.24924
 C502 C -0.08994 0.61013 0.27379
 C503 C -0.08853 0.60728 0.31139
 C504 C -0.11702 0.63325 0.31248
 H505 H -0.15871 0.60873 0.20359
 H506 H -0.11310 0.56672 0.20289
 H507 H -0.06426 0.61689 0.32212
 H508 H -0.09612 0.58185 0.32036
 H509 H -0.10910 0.65768 0.32418
 H510 H -0.14121 0.62292 0.32208
 C511 C -0.12575 0.37243 0.71635
 C512 C -0.13853 0.35969 0.74670
 C513 C -0.12280 0.37077 0.77721
 C514 C -0.09731 0.39561 0.77694
 C515 C -0.08811 0.41123 0.74644
 C516 C -0.10165 0.39785 0.71637
 C517 C -0.11746 0.41538 0.68692
 C518 C -0.14406 0.38772 0.68677
 H519 H -0.13004 0.36042 0.80137
 H520 H -0.08567 0.40343 0.80069
 H521 H -0.10095 0.41459 0.66426
 H522 H -0.12768 0.44080 0.69374
 H523 H -0.14302 0.37120 0.66384
 H524 H -0.16979 0.39709 0.69343
 C525 C 0.23647 0.14224 0.39184
 C526 C 0.26028 0.14281 0.36594
 C527 C 0.28371 0.11537 0.36553
 C528 C 0.28213 0.08915 0.38987
 C529 C 0.25716 0.08964 0.41537
 C530 C 0.23516 0.11720 0.41522
 C531 C 0.20503 0.13164 0.43252
 C532 C 0.20637 0.16012 0.40617
 H533 H 0.30305 0.11373 0.34637
 H534 H 0.30022 0.06848 0.38865
 H535 H 0.21093 0.14025 0.45882
 H536 H 0.18246 0.11517 0.42968
 H537 H 0.21297 0.18520 0.41730
 H538 H 0.18440 0.16007 0.38834
 C539 C 0.72996 0.11053 0.64125
 C540 C 0.75156 0.13842 0.63900
 C541 C 0.77805 0.13632 0.61526
 C542 C 0.78004 0.10890 0.59222
 C543 C 0.75567 0.08299 0.59251
 C544 C 0.73196 0.08354 0.61856
 C545 C 0.69450 0.07964 0.61667
 C546 C 0.69213 0.10931 0.64134
 H547 H 0.79646 0.15635 0.61348
 H548 H 0.79949 0.10880 0.57305
 H549 H 0.68613 0.05533 0.62771
 H550 H 0.68398 0.08528 0.59107
 H551 H 0.68207 0.10208 0.66646
 H552 H 0.68028 0.13224 0.63003
 C553 C 0.27093 -0.11792 0.63385
 C554 C 0.24741 -0.14433 0.63262
 C555 C 0.22085 -0.14193 0.60843
 C556 C 0.22018 -0.11568 0.58447
 C557 C 0.24591 -0.09123 0.58430
 C558 C 0.27008 -0.09200 0.61037
 C559 C 0.30768 -0.09053 0.60826
 C560 C 0.30878 -0.11902 0.63386
 H561 H 0.20113 -0.16075 0.60714
 H562 H 0.20014 -0.11496 0.56555
 H563 H 0.31780 -0.06627 0.61846
 H564 H 0.31722 -0.09810 0.58284
 H565 H 0.31982 -0.11111 0.65871
 H566 H 0.31899 -0.14317 0.62335
 C567 C 0.73096 -0.11039 0.35583
 C568 C 0.75429 -0.13727 0.35665
 C569 C 0.78103 -0.13512 0.38067
 C570 C 0.78172 -0.10899 0.40520
 C571 C 0.75584 -0.08437 0.40615
 C572 C 0.73178 -0.08458 0.37994
 C573 C 0.69417 -0.08242 0.38173
 C574 C 0.69311 -0.11074 0.35541
 H575 H 0.80070 -0.15424 0.38159
 H576 H 0.80160 -0.10881 0.42431
 H577 H 0.68428 -0.05792 0.37203
 H578 H 0.68432 -0.08997 0.40686
 H579 H 0.68239 -0.10249 0.33064
 H580 H 0.68263 -0.13476 0.36524
 C581 C 0.63177 0.72484 -0.11926
 C582 C 0.63337 0.74943 -0.14433
 C583 C 0.60810 0.77515 -0.14274
 C584 C 0.58321 0.77530 -0.11694
 C585 C 0.58299 0.74987 -0.09193
 C586 C 0.60804 0.72516 -0.09451
 C587 C 0.62132 0.69401 -0.07811
 C588 C 0.64832 0.69353 -0.10603
 H589 H 0.60730 0.79513 -0.16128
 H590 H 0.56435 0.79530 -0.11642
 H591 H 0.60314 0.67270 -0.08004
 H592 H 0.63183 0.69908 -0.05233
 H593 H 0.64579 0.67176 -0.12390
 H594 H 0.67438 0.69831 -0.09629
 C595 C 0.38614 0.23143 -0.13662
 C596 C 0.36596 0.26014 -0.14261
 C597 C 0.36772 0.28670 -0.11840
 C598 C 0.39165 0.28571 -0.09166
 C599 C 0.41430 0.25824 -0.08869
 C600 C 0.40956 0.23047 -0.11028
 C601 C 0.43430 0.21012 -0.13037
 C602 C 0.40879 0.21135 -0.15947
 H603 H 0.35174 0.30888 -0.12073
 H604 H 0.39344 0.30695 -0.07420
 H605 H 0.43794 0.18430 -0.11996
 H606 H 0.45804 0.22388 -0.13581
 H607 H 0.39813 0.18610 -0.16590
 H608 H 0.41765 0.22620 -0.18146
 C609 C 0.39167 0.76380 0.14121
 C610 C 0.36569 0.73980 0.14151
 C611 C 0.36692 0.71355 0.11694
 C612 C 0.39123 0.71384 0.09104
 C613 C 0.41481 0.74028 0.08930
 C614 C 0.41571 0.76389 0.11582
 C615 C 0.41634 0.80153 0.11434
 C616 C 0.38989 0.80161 0.14205
 H617 H 0.34849 0.69344 0.11678
 H618 H 0.39093 0.69413 0.07179
 H619 H 0.40668 0.81142 0.08974
 H620 H 0.44112 0.81191 0.12288
 H621 H 0.36482 0.81155 0.13357
 H622 H 0.39946 0.81231 0.16645
 C623 C 0.62259 0.22334 0.13145
 C624 C 0.64130 0.25253 0.13909
 C625 C 0.63775 0.28007 0.11666
 C626 C 0.61339 0.27944 0.09035
 C627 C 0.59209 0.25133 0.08589
 C628 C 0.59879 0.22268 0.10540
 C629 C 0.57582 0.19987 0.12425
 C630 C 0.60171 0.20085 0.15306
 H631 H 0.65248 0.30281 0.12027
 H632 H 0.61017 0.30145 0.07444
 H633 H 0.57375 0.17455 0.11194
 H634 H 0.55131 0.21190 0.13105
 H635 H 0.61416 0.17595 0.15750
 H636 H 0.59222 0.21395 0.17620
 C637 C -0.14987 0.60814 0.77352
 C638 C -0.14384 0.63802 0.75574
 C639 C -0.11200 0.64138 0.74054
 C640 C -0.08745 0.61568 0.74313
 C641 C -0.09275 0.58601 0.76228
 C642 C -0.12529 0.58237 0.77642
 C643 C -0.15192 0.55635 0.76780
 C644 C -0.17789 0.58423 0.76596
 H645 H -0.10593 0.66352 0.72594
 H646 H -0.06419 0.61905 0.72933
 H647 H -0.15777 0.53894 0.78884
 H648 H -0.14745 0.54360 0.74296
 H649 H -0.19661 0.58348 0.78681
 H650 H -0.18900 0.58746 0.74015
 C651 C -0.13037 0.37934 0.22411
 C652 C -0.13672 0.36125 0.25378
 C653 C -0.11287 0.36449 0.28059
 C654 C -0.08639 0.38812 0.27887
 C655 C -0.08323 0.40897 0.25038
 C656 C -0.10423 0.40246 0.22241
 C657 C -0.12401 0.42570 0.20006
 C658 C -0.15291 0.40055 0.20215
 H659 H -0.11543 0.35013 0.30361
 H660 H -0.06943 0.39127 0.30040
 H661 H -0.11303 0.42725 0.17428
 H662 H -0.12996 0.45046 0.21219
 H663 H -0.15870 0.38803 0.17743
 H664 H -0.17526 0.41069 0.21595
 C665 C 0.10662 0.35396 0.73385
 C666 C 0.13926 0.36289 0.74422
 C667 C 0.14536 0.39687 0.75252
 C668 C 0.11925 0.42107 0.75035
 C669 C 0.08633 0.41268 0.73814
 C670 C 0.08055 0.37800 0.73156
 C671 C 0.05685 0.35453 0.74944
 C672 C 0.08497 0.32859 0.75071
 H673 H 0.17015 0.40475 0.76137
 H674 H 0.12505 0.44625 0.75943
 H675 H 0.03539 0.34558 0.73341
 H676 H 0.04944 0.36421 0.77490
 H677 H 0.08024 0.30615 0.73418
 H678 H 0.09359 0.32267 0.77695
 C679 C 0.11175 0.63915 0.26918
 C680 C 0.13800 0.63859 0.24552
 C681 C 0.13568 0.61484 0.21860
 C682 C 0.10997 0.59030 0.21796
 C683 C 0.08603 0.58917 0.24408
 C684 C 0.08637 0.61507 0.26840
 C685 C 0.08528 0.61282 0.30606
 C686 C 0.11318 0.63912 0.30708
 H687 H 0.15429 0.61421 0.19868
 H688 H 0.10952 0.57149 0.19782
 H689 H 0.09352 0.58763 0.31553
 H690 H 0.06087 0.62234 0.31634
 H691 H 0.13767 0.62923 0.31716
 H692 H 0.10481 0.66369 0.31819
 C693 C 0.77253 -0.14260 0.60876
 C694 C 0.74746 -0.14268 0.63370
 C695 C 0.72016 -0.11968 0.62977
 C696 C 0.72045 -0.09510 0.60413
 C697 C 0.74791 -0.09310 0.58181
 C698 C 0.77266 -0.11846 0.58339
 C699 C 0.81024 -0.11539 0.58440
 C700 C 0.81024 -0.14173 0.61225
 H701 H 0.69921 -0.11954 0.64720
 H702 H 0.70002 -0.07674 0.60267
 H703 H 0.81876 -0.09002 0.59328
 H704 H 0.82203 -0.12463 0.56055
 H705 H 0.81877 -0.13167 0.63732
 H706 H 0.82224 -0.16604 0.60440
 C707 C 0.22134 -0.13070 0.37658
 C708 C 0.25074 -0.13803 0.35817
 C709 C 0.27827 -0.11561 0.36235
 C710 C 0.27740 -0.08964 0.38704
 C711 C 0.24906 -0.08556 0.40805
 C712 C 0.22047 -0.10502 0.40072
 C713 C 0.19745 -0.12418 0.42321
 C714 C 0.19866 -0.15259 0.39696
 H715 H 0.30115 -0.11894 0.34784
 H716 H 0.29940 -0.07376 0.39078
 H717 H 0.17209 -0.11201 0.42513
 H718 H 0.20928 -0.13125 0.44781
 H719 H 0.17384 -0.15693 0.38416
 H720 H 0.21170 -0.17577 0.40632
 C721 C 0.72491 0.11852 0.36858
 C722 C 0.74787 0.14519 0.36866
 C723 C 0.77293 0.14448 0.39475
 C724 C 0.77410 0.11793 0.41874
 C725 C 0.75031 0.09135 0.41730
 C726 C 0.72613 0.09312 0.39156
 C727 C 0.69627 0.07531 0.37694
 C728 C 0.69477 0.10397 0.35075
 H729 H 0.79176 0.16414 0.39677
 H730 H 0.79361 0.11806 0.43822
 H731 H 0.67450 0.07537 0.39458
 H732 H 0.70306 0.05027 0.36581
 H733 H 0.67198 0.12042 0.35318
 H734 H 0.70067 0.09534 0.32455
 C735 C 0.22121 0.12959 0.62119
 C736 C 0.24969 0.13487 0.64204
 C737 C 0.27640 0.11101 0.63963
 C738 C 0.27591 0.08557 0.61439
 C739 C 0.24881 0.08357 0.59106
 C740 C 0.22073 0.10449 0.59644
 C741 C 0.20054 0.12560 0.57239
 C742 C 0.20123 0.15333 0.59937
 H743 H 0.29836 0.11265 0.65612
 H744 H 0.29727 0.06839 0.61218
 H745 H 0.17483 0.11515 0.56778
 H746 H 0.21459 0.13236 0.54918
 H747 H 0.17579 0.15894 0.60993
 H748 H 0.21603 0.17587 0.59189
   
