data_POSCAR
  _audit_creation_date              2014-09-24
  _audit_creation_method            'ToBaCCo'
  _symmetry_space_group_name_H-M    'P1'
  _symmetry_Int_Tables_number       1
  _symmetry_cell_setting            triclinic
  loop_
  _symmetry_equiv_pos_as_xyz
 x,y,z
_cell_length_a 28.3365
_cell_length_b 28.3750
_cell_length_c 15.5239
_cell_angle_alpha 90.000000
_cell_angle_beta 89.900100
_cell_angle_gamma 120.028200
loop_
  _atom_site_label
  _atom_site_type_symbol
  _atom_site_fract_x
  _atom_site_fract_y
  _atom_site_fract_z
O1 O 0.56686 1.05409 0.58096
 O2 O 0.51337 0.94746 0.41499
 O3 O 0.56489 1.05331 0.41299
 O4 O 0.51241 0.94820 0.58274
 O5 O 0.43412 0.94725 0.58118
 O6 O 0.48763 1.05426 0.41552
 O7 O 0.43599 0.94834 0.41342
 O8 O 0.48854 1.05310 0.58335
 Cu9 Cu 0.54719 1.00080 0.49788
 Cu10 Cu 0.45379 1.00075 0.49839
 C11 C 0.53681 1.07157 0.61117
 C12 C 0.46572 0.92985 0.38531
 C13 C 0.53523 1.07194 0.38512
 C14 C 0.46412 0.92964 0.61085
 O15 O 0.05361 0.48708 0.58508
 O16 O -0.05351 0.43349 0.41987
 O17 O 0.05245 0.48799 0.41730
 O18 O -0.05243 0.43560 0.58780
 O19 O -0.05355 0.51267 0.58551
 O20 O 0.05346 0.56620 0.41945
 O21 O -0.05251 0.51171 0.41772
 O22 O 0.05249 0.56415 0.58739
 Cu23 Cu 0.00002 0.45327 0.50255
 Cu24 Cu -0.00002 0.54645 0.50255
 C25 C 0.07123 0.53460 0.61529
 C26 C -0.07103 0.46349 0.38984
 C27 C 0.07096 0.53620 0.38928
 C28 C -0.07116 0.46516 0.61586
 O29 O 0.43319 0.48730 0.41828
 O30 O 0.48670 0.43415 0.58426
 O31 O 0.43505 0.48838 0.58626
 O32 O 0.48754 0.43575 0.41650
 O33 O 0.56584 0.51307 0.41806
 O34 O 0.51230 0.56657 0.58373
 O35 O 0.56407 0.51238 0.58583
 O36 O 0.51150 0.56460 0.41590
 Cu37 Cu 0.45282 0.45363 0.50137
 Cu38 Cu 0.54620 0.54695 0.50087
 C39 C 0.46324 0.53481 0.38806
 C40 C 0.53435 0.46417 0.61393
 C41 C 0.46470 0.53666 0.61413
 C42 C 0.53582 0.46546 0.38839
 O43 O 0.41294 0.66852 -0.09979
 O44 O 0.41516 0.76041 -0.07462
 C45 C 0.38138 0.76841 -0.11686
 O46 O 0.33081 0.74383 -0.10005
 O47 O 0.23875 0.65424 -0.07420
 C48 C 0.23065 0.61240 -0.11626
 O49 O 0.25519 0.58646 -0.09948
 O50 O 0.34495 0.58428 -0.07440
 C51 C 0.38689 0.61805 -0.11658
 O52 O 0.41505 0.65432 0.07175
 O53 O 0.41280 0.74393 0.09698
 C54 C 0.38691 0.76856 0.11360
 O55 O 0.34512 0.76054 0.07138
 O56 O 0.25536 0.66865 0.09733
 C57 C 0.23084 0.61819 0.11442
 O58 O 0.23874 0.58437 0.07213
 O59 O 0.33068 0.58658 0.09728
 C60 C 0.38119 0.61258 0.11411
 Cr61 Cr 0.41089 0.70525 -0.00143
 Cr62 Cr 0.29404 0.70526 -0.00138
 Cr63 Cr 0.29394 0.58851 -0.00113
 O64 O 0.33296 0.66633 -0.00135
 O65 O 0.58729 0.33115 -0.09781
 O66 O 0.58501 0.23927 -0.07260
 C67 C 0.61888 0.23137 -0.11492
 O68 O 0.66940 0.25586 -0.09804
 O69 O 0.76135 0.34549 -0.07254
 C70 C 0.76945 0.38734 -0.11463
 O71 O 0.74488 0.41326 -0.09773
 O72 O 0.65503 0.41539 -0.07223
 C73 C 0.61323 0.38166 -0.11444
 O74 O 0.58478 0.34519 0.07377
 O75 O 0.58698 0.25552 0.09897
 C76 C 0.61298 0.23103 0.11576
 O77 O 0.65489 0.23914 0.07357
 O78 O 0.74458 0.33101 0.09907
 C79 C 0.76906 0.38145 0.11604
 O80 O 0.76116 0.41526 0.07379
 O81 O 0.66911 0.41289 0.09928
 C82 C 0.61854 0.38694 0.11603
 Cr83 Cr 0.58911 0.29433 0.00059
 Cr84 Cr 0.70601 0.29441 0.00052
 Cr85 Cr 0.70600 0.41111 0.00076
 O86 O 0.66704 0.33328 0.00062
 C87 C 0.47693 0.87170 -0.28036
 C88 C 0.44272 0.88751 -0.32088
 C89 C 0.38795 0.86321 -0.29469
 C90 C 0.36791 0.82422 -0.22909
 C91 C 0.40227 0.80885 -0.18778
 C92 C 0.45698 0.83292 -0.21441
 H93 H 0.51932 0.88965 -0.29903
 H94 H 0.36049 0.87440 -0.32475
 H95 H 0.32557 0.80650 -0.21023
 H96 H 0.48451 0.82187 -0.18423
 C97 C 0.13332 0.52247 -0.29006
 C98 C 0.11122 0.55426 -0.31993
 C99 C 0.12968 0.60584 -0.28273
 C100 C 0.16845 0.62468 -0.21688
 C101 C 0.19015 0.59271 -0.18695
 C102 C 0.17241 0.54157 -0.22473
 H103 H 0.12043 0.48262 -0.31694
 H104 H 0.11388 0.63168 -0.30378
 H105 H 0.18148 0.66442 -0.18946
 H106 H 0.18827 0.51590 -0.20316
 C107 C 0.47692 0.61080 -0.29099
 C108 C 0.44504 0.55695 -0.32090
 C109 C 0.39337 0.52378 -0.28351
 C110 C 0.37453 0.54365 -0.21744
 C111 C 0.40659 0.59729 -0.18748
 C112 C 0.45782 0.63073 -0.22544
 H113 H 0.51684 0.63779 -0.31801
 H114 H 0.36746 0.48217 -0.30458
 H115 H 0.33472 0.51691 -0.18989
 H116 H 0.48356 0.67225 -0.20385
 C117 C 0.61277 0.13744 -0.29390
 C118 C 0.55809 0.11335 -0.32016
 C119 C 0.52379 0.12898 -0.27922
 C120 C 0.54357 0.16737 -0.21284
 C121 C 0.59818 0.19123 -0.18615
 C122 C 0.63263 0.17604 -0.22785
 H123 H 0.64029 0.12637 -0.32427
 H124 H 0.48147 0.11118 -0.29790
 H125 H 0.51596 0.17829 -0.18238
 H126 H 0.67491 0.19363 -0.20897
 C127 C 0.86680 0.47730 -0.28901
 C128 C 0.88889 0.44551 -0.31906
 C129 C 0.87043 0.39393 -0.28175
 C130 C 0.83167 0.37509 -0.21563
 C131 C 0.80998 0.40706 -0.18554
 C132 C 0.82773 0.45821 -0.22341
 H133 H 0.87969 0.51716 -0.31596
 H134 H 0.88622 0.36809 -0.30293
 H135 H 0.81865 0.33534 -0.18815
 H136 H 0.81186 0.48387 -0.20172
 C137 C 0.60520 0.47707 -0.27741
 C138 C 0.55513 0.44287 -0.31785
 C139 C 0.52470 0.38817 -0.29173
 C140 C 0.54376 0.36818 -0.22632
 C141 C 0.59355 0.40252 -0.18512
 C142 C 0.62413 0.45717 -0.21164
 H143 H 0.62961 0.51941 -0.29602
 H144 H 0.48602 0.36071 -0.32174
 H145 H 0.51917 0.32589 -0.20753
 H146 H 0.66276 0.48469 -0.18152
 C147 C 0.87146 0.47645 0.28042
 C148 C 0.88710 0.44221 0.32128
 C149 C 0.86300 0.38760 0.29496
 C150 C 0.82439 0.36775 0.22891
 C151 C 0.80921 0.40214 0.18727
 C152 C 0.83307 0.45668 0.21404
 H153 H 0.88928 0.51872 0.29916
 H154 H 0.87408 0.36013 0.32525
 H155 H 0.80681 0.32553 0.20998
 H156 H 0.82214 0.48424 0.18364
 C157 C 0.60654 0.13036 0.28274
 C158 C 0.55486 0.11186 0.32012
 C159 C 0.52296 0.13382 0.29019
 C160 C 0.54204 0.17282 0.22461
 C161 C 0.59327 0.19060 0.18665
 C162 C 0.62535 0.16903 0.21664
 H163 H 0.63246 0.11466 0.30383
 H164 H 0.48303 0.12089 0.31720
 H165 H 0.51629 0.18859 0.20299
 H166 H 0.66517 0.18209 0.18911
 C167 C 0.61197 0.47518 0.29386
 C168 C 0.55721 0.44473 0.32008
 C169 C 0.52300 0.39473 0.27955
 C170 C 0.54294 0.37590 0.21358
 C171 C 0.59764 0.40651 0.18693
 C172 C 0.63200 0.45622 0.22824
 H173 H 0.63944 0.51381 0.32392
 H174 H 0.48061 0.37031 0.29824
 H175 H 0.51540 0.33732 0.18340
 H176 H 0.67434 0.48082 0.20936
 C177 C 0.12844 0.52322 0.27947
 C178 C 0.11279 0.55746 0.32040
 C179 C 0.13686 0.61205 0.29386
 C180 C 0.17546 0.63189 0.22755
 C181 C 0.19066 0.59750 0.18586
 C182 C 0.16682 0.54297 0.21283
 H183 H 0.11064 0.48095 0.29836
 H184 H 0.12577 0.63952 0.32420
 H185 H 0.19303 0.67410 0.20847
 H186 H 0.17777 0.51542 0.18240
 C187 C 0.47543 0.86355 0.29090
 C188 C 0.44497 0.88779 0.31707
 C189 C 0.39489 0.87192 0.27664
 C190 C 0.37598 0.83312 0.21085
 C191 C 0.40659 0.80909 0.18428
 C192 C 0.45639 0.82453 0.22546
 H193 H 0.51412 0.87478 0.32089
 H194 H 0.37045 0.88983 0.29530
 H195 H 0.33733 0.82201 0.18076
 H196 H 0.48100 0.80685 0.20663
 C197 C 0.47628 0.60523 0.27842
 C198 C 0.44198 0.55533 0.31937
 C199 C 0.38730 0.52475 0.29308
 C200 C 0.36745 0.54350 0.22701
 C201 C 0.40191 0.59312 0.18531
 C202 C 0.45652 0.62385 0.21201
 H203 H 0.51860 0.62974 0.29712
 H204 H 0.35978 0.48618 0.32345
 H205 H 0.32518 0.51882 0.20812
 H206 H 0.48412 0.66236 0.18156
   
