data_POSCAR
  _audit_creation_date              2014-09-24
  _audit_creation_method            'ToBaCCo'
  _symmetry_space_group_name_H-M    'P1'
  _symmetry_Int_Tables_number       1
  _symmetry_cell_setting            triclinic
  loop_
  _symmetry_equiv_pos_as_xyz
 x,y,z
_cell_length_a 39.0650
_cell_length_b 39.2065
_cell_length_c 51.4902
_cell_angle_alpha 89.834000
_cell_angle_beta 90.867000
_cell_angle_gamma 80.235300
loop_
  _atom_site_label
  _atom_site_type_symbol
  _atom_site_fract_x
  _atom_site_fract_y
  _atom_site_fract_z
C1 C 1.23076 0.23300 0.20983
 C2 C 1.24698 0.25923 0.19440
 C3 C 1.26503 0.27909 0.20905
 C4 C 1.26507 0.27110 0.23837
 C5 C 1.26093 0.21228 0.22582
 C6 C 1.27891 0.23201 0.24085
 C7 C 1.20878 0.25442 0.23037
 C8 C 1.22648 0.27417 0.24557
 H9 H 1.24545 0.26089 0.17340
 H10 H 1.27981 0.28754 0.25012
 H11 H 1.26409 0.18455 0.22847
 H12 H 1.18186 0.25241 0.23352
 C13 C 0.72723 -0.27364 0.21128
 C14 C 0.74241 -0.24645 0.19604
 C15 C 0.75936 -0.22584 0.21089
 C16 C 0.75942 -0.23410 0.24010
 C17 C 0.75796 -0.29343 0.22727
 C18 C 0.77459 -0.27282 0.24254
 C19 C 0.70434 -0.25316 0.23185
 C20 C 0.72098 -0.23245 0.24693
 H21 H 0.74105 -0.24470 0.17504
 H22 H 0.77334 -0.21730 0.25223
 H23 H 0.76220 -0.32118 0.23012
 H24 H 0.67765 -0.25615 0.23495
 C25 C 0.73389 0.22834 -0.29184
 C26 C 0.74972 0.25368 -0.30575
 C27 C 0.76869 0.27389 -0.28957
 C28 C 0.76829 0.26421 -0.26185
 C29 C 0.76303 0.20765 -0.27800
 C30 C 0.78126 0.22665 -0.26022
 C31 C 0.71286 0.24780 -0.27210
 C32 C 0.73131 0.26771 -0.25513
 H33 H 0.75141 0.25386 -0.32674
 H34 H 0.78286 0.27980 -0.24958
 H35 H 0.77306 0.18116 -0.28318
 H36 H 0.68496 0.24913 -0.27189
 C37 C 1.22007 -0.25216 -0.29202
 C38 C 1.24825 -0.23521 -0.30454
 C39 C 1.26647 -0.21850 -0.28752
 C40 C 1.25471 -0.21990 -0.25916
 C41 C 1.23888 -0.27528 -0.27042
 C42 C 1.25699 -0.25867 -0.25322
 C43 C 1.19774 -0.22211 -0.27788
 C44 C 1.21529 -0.20603 -0.25980
 H45 H 1.25249 -0.23494 -0.32527
 H46 H 1.26990 -0.20648 -0.24537
 H47 H 1.23792 -0.30268 -0.26905
 H48 H 1.17021 -0.21453 -0.28164
 C49 C 0.23166 0.21973 0.79245
 C50 C 0.25636 0.23675 0.80623
 C51 C 0.27441 0.25767 0.79038
 C52 C 0.26415 0.25743 0.76291
 C53 C 0.20757 0.24861 0.77768
 C54 C 0.22431 0.26803 0.76177
 C55 C 0.25244 0.19928 0.77071
 C56 C 0.26944 0.21894 0.75521
 H57 H 0.25881 0.23567 0.82722
 H58 H 0.27795 0.27294 0.74989
 H59 H 0.17958 0.25057 0.77745
 H60 H 0.25136 0.17257 0.76626
 C61 C 0.73011 0.72662 0.78667
 C62 C 0.75467 0.74216 0.80217
 C63 C 0.77514 0.76224 0.78751
 C64 C 0.76726 0.76217 0.75940
 C65 C 0.70972 0.75497 0.77201
 C66 C 0.72973 0.77461 0.75646
 C67 C 0.75201 0.70612 0.76776
 C68 C 0.77198 0.72544 0.75189
 H69 H 0.75632 0.73986 0.82313
 H70 H 0.78327 0.77762 0.74852
 H71 H 0.68176 0.75735 0.77010
 H72 H 0.75906 0.67833 0.76948
 C73 C 0.72740 0.23155 0.29074
 C74 C 0.75283 0.25065 0.30498
 C75 C 0.77216 0.26735 0.28919
 C76 C 0.76428 0.26361 0.26005
 C77 C 0.70577 0.25884 0.27295
 C78 C 0.72490 0.27526 0.25667
 C79 C 0.74983 0.20771 0.27167
 C80 C 0.76902 0.22428 0.25542
 H81 H 0.75548 0.25068 0.32596
 H82 H 0.77983 0.27758 0.24717
 H83 H 0.67799 0.26106 0.27020
 H84 H 0.74910 0.18029 0.27042
 C85 C 0.24292 0.71567 0.29063
 C86 C 0.26004 0.74346 0.30387
 C87 C 0.27668 0.76204 0.28739
 C88 C 0.27501 0.75098 0.25874
 C89 C 0.21952 0.73490 0.26928
 C90 C 0.23604 0.75335 0.25257
 C91 C 0.27297 0.69379 0.27617
 C92 C 0.28893 0.71171 0.25861
 H93 H 0.26027 0.74728 0.32469
 H94 H 0.28839 0.76638 0.24534
 H95 H 0.19204 0.73383 0.26764
 H96 H 0.28081 0.66632 0.27939
 O97 O 1.05655 0.02694 0.02461
 O98 O 0.93052 -0.03669 0.01823
 O99 O 0.94880 0.06542 0.01817
 O100 O 1.03850 -0.07523 0.02160
 O101 O 0.93135 0.02043 0.03128
 O102 O 1.05238 -0.02967 0.03713
 O103 O 0.97882 -0.06144 0.03458
 O104 O 1.00680 0.05216 0.03669
 C105 C 1.03834 0.04452 0.04117
 C106 C 0.94701 -0.05290 0.03677
 C107 C 0.93420 0.05076 0.03520
 C108 C 1.05168 -0.06069 0.03978
 O109 O 1.06291 -0.05090 -0.01338
 O110 O 0.92805 0.04170 -0.01977
 O111 O 1.03226 0.05682 -0.01168
 O112 O 0.95904 -0.06606 -0.01589
 O113 O 0.93887 -0.01755 -0.03275
 O114 O 1.05416 0.00796 -0.02661
 O115 O 1.01699 -0.06515 -0.02890
 O116 O 0.97589 0.05720 -0.02969
 Co117 Co 1.05066 -0.01083 0.00514
 Co118 Co 0.93806 0.00136 -0.00049
 Co119 Co 0.99127 0.05179 0.00340
 Co120 Co 0.99806 -0.06092 0.00286
 O121 O 0.99449 -0.00461 0.00274
 C122 C 1.04756 -0.06221 -0.03205
 C123 C 0.94536 0.05606 -0.03545
 C124 C 1.04873 0.03967 -0.02915
 C125 C 0.94524 -0.04930 -0.03502
 O126 O 1.06229 0.53093 0.51836
 O127 O 0.93687 0.46300 0.51884
 O128 O 0.95430 0.56573 0.51704
 O129 O 1.04492 0.42800 0.52144
 O130 O 0.93893 0.52055 0.53201
 O131 O 1.06067 0.47457 0.53392
 O132 O 0.98568 0.44001 0.53481
 O133 O 1.01311 0.55420 0.53232
 C134 C 1.04492 0.54804 0.53550
 C135 C 0.95394 0.44779 0.53745
 C136 C 0.94153 0.55115 0.53515
 C137 C 1.05867 0.44413 0.53847
 O138 O 1.06865 0.44986 0.48477
 O139 O 0.93068 0.54174 0.48118
 O140 O 1.03428 0.55752 0.48220
 O141 O 0.96501 0.43377 0.48419
 O142 O 0.94195 0.48236 0.46821
 O143 O 1.05713 0.50812 0.46851
 O144 O 1.02283 0.43379 0.47071
 O145 O 0.97744 0.55504 0.46739
 Co146 Co 1.05614 0.49138 0.50127
 Co147 Co 0.94306 0.50144 0.50014
 Co148 Co 0.99519 0.55215 0.49990
 Co149 Co 1.00416 0.43979 0.50265
 O150 O 0.99964 0.49615 0.50101
 C151 C 1.05345 0.43628 0.46715
 C152 C 0.94652 0.55392 0.46347
 C153 C 1.05073 0.53971 0.46499
 C154 C 0.94940 0.45066 0.46566
 O155 O 0.55325 0.01166 0.53343
 O156 O 0.43791 -0.01446 0.53129
 O157 O 0.47349 0.05876 0.53105
 O158 O 0.51928 -0.06231 0.53326
 O159 O 0.42702 0.04392 0.51668
 O160 O 0.56510 -0.04728 0.51933
 O161 O 0.46167 -0.06371 0.51780
 O162 O 0.53075 0.06027 0.51751
 C163 C 0.54658 0.04338 0.53585
 C164 C 0.44562 -0.04591 0.53525
 C165 C 0.44250 0.05765 0.53416
 C166 C 0.54991 -0.05958 0.53728
 O167 O 0.55747 -0.02513 0.46926
 O168 O 0.43601 0.02105 0.46622
 O169 O 0.51002 0.05455 0.46714
 O170 O 0.48352 -0.06023 0.46790
 O171 O 0.43414 -0.03624 0.48114
 O172 O 0.55906 0.03189 0.48293
 O173 O 0.54227 -0.07122 0.48313
 O174 O 0.45097 0.06653 0.48100
 Co175 Co 0.55272 -0.00669 0.50120
 Co176 Co 0.43973 0.00309 0.49888
 Co177 Co 0.49180 0.05407 0.49917
 Co178 Co 0.50123 -0.05845 0.50050
 O179 O 0.49636 -0.00203 0.49994
 C180 C 0.55594 -0.05591 0.46581
 C181 C 0.43882 0.05156 0.46264
 C182 C 0.54184 0.04807 0.46484
 C183 C 0.45190 -0.05274 0.46386
 O184 O 0.55918 0.53328 0.01267
 O185 O 0.43630 0.46097 0.01153
 O186 O 0.45085 0.56451 0.01282
 O187 O 0.54478 0.42934 0.01418
 O188 O 0.43668 0.51812 0.02647
 O189 O 0.55939 0.47617 0.02727
 O190 O 0.48539 0.43917 0.02754
 O191 O 0.50993 0.55450 0.02749
 C192 C 0.54175 0.54860 0.03053
 C193 C 0.45354 0.44586 0.03006
 C194 C 0.43931 0.54849 0.03071
 C195 C 0.55847 0.44538 0.03130
 O196 O 0.56788 0.45309 -0.02217
 O197 O 0.42727 0.54162 -0.02364
 O198 O 0.52994 0.56038 -0.02275
 O199 O 0.46531 0.43427 -0.02346
 O200 O 0.44045 0.48291 -0.03844
 O201 O 0.55416 0.51197 -0.03752
 O202 O 0.52259 0.43643 -0.03656
 O203 O 0.47309 0.55725 -0.03718
 Co204 Co 0.55407 0.49397 -0.00505
 Co205 Co 0.44116 0.50063 -0.00595
 Co206 Co 0.49156 0.55327 -0.00488
 Co207 Co 0.50390 0.44070 -0.00458
 O208 O 0.49768 0.49712 -0.00512
 C209 C 0.55313 0.43929 -0.03990
 C210 C 0.44215 0.55591 -0.04081
 C211 C 0.54639 0.54363 -0.04049
 C212 C 0.44921 0.45140 -0.04168
 C213 C 1.17027 0.17287 0.16183
 C214 C 1.20448 0.15892 0.16946
 C215 C 1.22428 0.17824 0.18442
 C216 C 1.21019 0.21189 0.19259
 C217 C 1.17660 0.22644 0.18366
 C218 C 1.15674 0.20705 0.16878
 C219 C 1.14911 0.15198 0.14642
 N220 N 1.11530 0.16438 0.14034
 N221 N 1.09654 0.14572 0.12615
 C222 C 1.11077 0.11385 0.11747
 N223 N 1.14448 0.10139 0.12371
 N224 N 1.16321 0.12000 0.13793
 C225 C 1.09077 0.09393 0.10025
 C226 C 1.10759 0.06389 0.08795
 C227 C 1.08997 0.04707 0.06955
 C228 C 1.05505 0.05968 0.06318
 C229 C 1.03754 0.08854 0.07648
 C230 C 1.05531 0.10563 0.09477
 H231 H 1.21606 0.13294 0.16392
 H232 H 1.25069 0.16664 0.18931
 H233 H 1.16547 0.25283 0.18842
 H234 H 1.13078 0.21893 0.16272
 H235 H 1.13479 0.05398 0.09180
 H236 H 1.10402 0.02469 0.05974
 H237 H 1.01058 0.09876 0.07196
 H238 H 1.04150 0.12851 0.10408
 C239 C 1.16586 0.68385 0.65861
 C240 C 1.20035 0.68731 0.65358
 C241 C 1.21748 0.70843 0.66910
 C242 C 1.20040 0.72718 0.68980
 C243 C 1.16623 0.72261 0.69531
 C244 C 1.14902 0.70169 0.67967
 C245 C 1.14778 0.66135 0.64221
 N246 N 1.11308 0.66182 0.64439
 N247 N 1.09676 0.64197 0.62928
 C248 C 1.11451 0.62070 0.61148
 N249 N 1.14923 0.62008 0.60945
 N250 N 1.16552 0.63999 0.62448
 C251 C 1.09634 0.59977 0.59380
 C252 C 1.11548 0.57558 0.57719
 C253 C 1.09860 0.55790 0.55890
 C254 C 1.06221 0.56409 0.55673
 C255 C 1.04291 0.58716 0.57403
 C256 C 1.05984 0.60482 0.59243
 H257 H 1.21429 0.67349 0.63772
 H258 H 1.24441 0.70943 0.66513
 H259 H 1.15283 0.73447 0.71208
 H260 H 1.12272 0.69897 0.68445
 H261 H 1.14361 0.57077 0.57791
 H262 H 1.11414 0.54001 0.54599
 H263 H 1.01479 0.59227 0.57286
 H264 H 1.04433 0.62316 0.60504
 C265 C 0.66968 0.17218 0.66227
 C266 C 0.67135 0.20687 0.65655
 C267 C 0.69241 0.22500 0.67138
 C268 C 0.71316 0.20879 0.69214
 C269 C 0.70957 0.17448 0.69865
 C270 C 0.68872 0.15631 0.68364
 C271 C 0.64822 0.15269 0.64598
 N272 N 0.65117 0.11777 0.64834
 N273 N 0.63282 0.10015 0.63292
 C274 C 0.61064 0.11676 0.61461
 N275 N 0.60747 0.15169 0.61246
 N276 N 0.62587 0.16927 0.62780
 C277 C 0.59173 0.09727 0.59632
 C278 C 0.56712 0.11517 0.57878
 C279 C 0.55165 0.09736 0.55977
 C280 C 0.56043 0.06124 0.55780
 C281 C 0.58379 0.04304 0.57603
 C282 C 0.59932 0.06091 0.59515
 H283 H 0.65643 0.22013 0.64050
 H284 H 0.69216 0.25196 0.66662
 H285 H 0.72243 0.16148 0.71558
 H286 H 0.68720 0.12990 0.68904
 H287 H 0.56034 0.14310 0.57931
 H288 H 0.53338 0.11205 0.54619
 H289 H 0.59086 0.01514 0.57502
 H290 H 0.61805 0.04634 0.60845
 C291 C 0.66921 0.66675 0.16113
 C292 C 0.65547 0.70089 0.16801
 C293 C 0.67455 0.71988 0.18380
 C294 C 0.70748 0.70498 0.19376
 C295 C 0.72166 0.67114 0.18610
 C296 C 0.70266 0.65222 0.17011
 C297 C 0.64910 0.64678 0.14414
 N298 N 0.66438 0.61639 0.13361
 N299 N 0.64660 0.59901 0.11762
 C300 C 0.61275 0.61118 0.11161
 N301 N 0.59735 0.64136 0.12239
 N302 N 0.61516 0.65881 0.13832
 C303 C 0.59374 0.59303 0.09251
 C304 C 0.55771 0.60297 0.08857
 C305 C 0.54041 0.58768 0.06898
 C306 C 0.55893 0.56252 0.05282
 C307 C 0.59466 0.55176 0.05732
 C308 C 0.61186 0.56671 0.07705
 H309 H 0.63008 0.71315 0.16098
 H310 H 0.66342 0.74635 0.18836
 H311 H 0.74758 0.65917 0.19198
 H312 H 0.71426 0.62617 0.16476
 H313 H 0.54297 0.62298 0.10031
 H314 H 0.51279 0.59632 0.06597
 H315 H 0.60949 0.53216 0.04528
 H316 H 0.63958 0.55836 0.07961
 C317 C 0.81463 -0.15600 0.17129
 C318 C 0.77952 -0.15668 0.16527
 C319 C 0.76121 -0.17835 0.17892
 C320 C 0.77737 -0.19949 0.19915
 C321 C 0.81176 -0.19743 0.20630
 C322 C 0.83037 -0.17606 0.19234
 C323 C 0.83496 -0.13631 0.15444
 N324 N 0.87026 -0.14191 0.15560
 N325 N 0.88840 -0.12643 0.13881
 C326 C 0.87201 -0.10466 0.12019
 N327 N 0.83674 -0.09865 0.11937
 N328 N 0.81864 -0.11417 0.13608
 C329 C 0.89189 -0.08939 0.10014
 C330 C 0.87435 -0.06651 0.08134
 C331 C 0.89243 -0.05423 0.06112
 C332 C 0.92851 -0.06449 0.05915
 C333 C 0.94635 -0.08644 0.07838
 C334 C 0.92821 -0.09878 0.09866
 H335 H 0.76648 -0.14153 0.14928
 H336 H 0.73457 -0.17927 0.17324
 H337 H 0.82477 -0.21365 0.22179
 H338 H 0.85729 -0.17596 0.19758
 H339 H 0.84645 -0.05849 0.08192
 H340 H 0.87799 -0.03704 0.04678
 H341 H 0.97421 -0.09462 0.07746
 H342 H 0.94258 -0.11629 0.11283
 C343 C 0.82402 0.34399 0.67293
 C344 C 0.79191 0.33790 0.66323
 C345 C 0.77359 0.31566 0.67609
 C346 C 0.78626 0.29913 0.69951
 C347 C 0.81732 0.30716 0.71032
 C348 C 0.83641 0.32879 0.69682
 C349 C 0.84449 0.36465 0.65699
 N350 N 0.87979 0.35938 0.65831
 N351 N 0.89787 0.37511 0.64156
 C352 C 0.88139 0.39680 0.62287
 N353 N 0.84614 0.40258 0.62205
 N354 N 0.82814 0.38682 0.63865
 C355 C 0.90095 0.41206 0.60251
 C356 C 0.88293 0.43494 0.58388
 C357 C 0.90034 0.44694 0.56316
 C358 C 0.93629 0.43648 0.56046
 C359 C 0.95469 0.41464 0.57954
 C360 C 0.93719 0.40251 0.60034
 H361 H 0.78135 0.34934 0.64502
 H362 H 0.74906 0.31174 0.66754
 H363 H 0.82826 0.29498 0.72816
 H364 H 0.86105 0.33323 0.70485
 H365 H 0.85509 0.44313 0.58494
 H366 H 0.88548 0.46408 0.54899
 H367 H 0.98248 0.40631 0.57807
 H368 H 0.95192 0.38499 0.61432
 C369 C 0.34007 -0.16472 0.67676
 C370 C 0.31531 -0.14710 0.69381
 C371 C 0.29280 -0.16504 0.70721
 C372 C 0.29446 -0.20067 0.70343
 C373 C 0.32043 -0.21856 0.68769
 C374 C 0.34317 -0.20087 0.67468
 C375 C 0.36036 -0.14568 0.65936
 N376 N 0.38509 -0.16331 0.64391
 N377 N 0.40087 -0.14688 0.62623
 C378 C 0.39256 -0.11205 0.62313
 N379 N 0.36828 -0.09425 0.63891
 N380 N 0.35249 -0.11072 0.65665
 C381 C 0.40803 -0.09440 0.60179
 C382 C 0.39847 -0.05856 0.59754
 C383 C 0.41111 -0.04263 0.57618
 C384 C 0.43344 -0.06223 0.55854
 C385 C 0.44376 -0.09782 0.56317
 C386 C 0.43126 -0.11370 0.58454
 H387 H 0.31239 -0.11930 0.69600
 H388 H 0.27275 -0.15081 0.71920
 H389 H 0.32214 -0.24612 0.68460
 H390 H 0.36199 -0.21539 0.66190
 H391 H 0.38072 -0.04287 0.61045
 H392 H 0.40290 -0.01507 0.57321
 H393 H 0.46124 -0.11354 0.55010
 H394 H 0.43934 -0.14131 0.58721
 C395 C 0.32302 0.34501 0.16762
 C396 C 0.28726 0.34655 0.16274
 C397 C 0.26819 0.32625 0.17707
 C398 C 0.28420 0.30429 0.19690
 C399 C 0.31939 0.30410 0.20293
 C400 C 0.33876 0.32409 0.18826
 C401 C 0.34370 0.36356 0.15011
 N402 N 0.37901 0.35632 0.15021
 N403 N 0.39714 0.37110 0.13293
 C404 C 0.38072 0.39376 0.11486
 N405 N 0.34549 0.40132 0.11509
 N406 N 0.32741 0.38654 0.13226
 C407 C 0.40030 0.40869 0.09436
 C408 C 0.38237 0.43177 0.07585
 C409 C 0.39989 0.44409 0.05536
 C410 C 0.43589 0.43379 0.05277
 C411 C 0.45420 0.41159 0.07165
 C412 C 0.43656 0.39909 0.09222
 H413 H 0.27417 0.36241 0.14712
 H414 H 0.24100 0.32698 0.17218
 H415 H 0.33231 0.28717 0.21806
 H416 H 0.36618 0.32247 0.19264
 H417 H 0.35453 0.43998 0.07689
 H418 H 0.38507 0.46148 0.04132
 H419 H 0.48202 0.40336 0.07023
 H420 H 0.45123 0.38143 0.10615
 C421 C 0.83935 0.17629 -0.19597
 C422 C 0.82065 0.15812 -0.21283
 C423 C 0.80310 0.17432 -0.23443
 C424 C 0.80314 0.20970 -0.23999
 C425 C 0.82338 0.22747 -0.22351
 C426 C 0.84132 0.21091 -0.20186
 C427 C 0.85538 0.15907 -0.17201
 N428 N 0.88047 0.17183 -0.15846
 N429 N 0.89449 0.15596 -0.13691
 C430 C 0.88379 0.12690 -0.12793
 N431 N 0.85859 0.11434 -0.14141
 N432 N 0.84477 0.13004 -0.16300
 C433 C 0.89932 0.10903 -0.10407
 C434 C 0.88250 0.08499 -0.09114
 C435 C 0.89725 0.06793 -0.06870
 C436 C 0.92934 0.07419 -0.05897
 C437 C 0.94627 0.09802 -0.07199
 C438 C 0.93129 0.11545 -0.09416
 H439 H 0.81888 0.13128 -0.20907
 H440 H 0.78788 0.15890 -0.24563
 H441 H 0.82580 0.25411 -0.22699
 H442 H 0.85596 0.22553 -0.18934
 H443 H 0.85779 0.07951 -0.09825
 H444 H 0.88374 0.04959 -0.05913
 H445 H 0.97105 0.10340 -0.06493
 H446 H 0.94500 0.13362 -0.10373
 C447 C 0.83352 0.67888 0.30767
 C448 C 0.80892 0.70907 0.31097
 C449 C 0.79121 0.72591 0.28954
 C450 C 0.79731 0.71254 0.26446
 C451 C 0.82266 0.68301 0.26102
 C452 C 0.84088 0.66651 0.28242
 C453 C 0.85024 0.65963 0.33053
 N454 N 0.88074 0.63743 0.32831
 N455 N 0.89539 0.61967 0.34886
 C456 C 0.87992 0.62307 0.37239
 N457 N 0.84933 0.64514 0.37457
 N458 N 0.83483 0.66311 0.35407
 C459 C 0.89647 0.60379 0.39528
 C460 C 0.87669 0.59772 0.41689
 C461 C 0.89271 0.58049 0.43886
 C462 C 0.92885 0.56972 0.43977
 C463 C 0.94852 0.57538 0.41805
 C464 C 0.93246 0.59195 0.39594
 H465 H 0.80291 0.71935 0.33017
 H466 H 0.77153 0.74840 0.29279
 H467 H 0.82777 0.67227 0.24183
 H468 H 0.85972 0.64330 0.27929
 H469 H 0.84884 0.60635 0.41683
 H470 H 0.87699 0.57642 0.45537
 H471 H 0.97644 0.56717 0.41821
 H472 H 0.94838 0.59629 0.37963
 C473 C 0.34226 0.18224 0.30382
 C474 C 0.32370 0.21599 0.30666
 C475 C 0.30433 0.23282 0.28588
 C476 C 0.30335 0.21640 0.26172
 C477 C 0.32349 0.18342 0.25851
 C478 C 0.34255 0.16645 0.27935
 C479 C 0.35948 0.16290 0.32657
 N480 N 0.36879 0.12791 0.32584
 N481 N 0.38237 0.11024 0.34676
 C482 C 0.38732 0.12684 0.36928
 N483 N 0.37834 0.16186 0.36992
 N484 N 0.36460 0.17950 0.34904
 C485 C 0.40131 0.10721 0.39286
 C486 C 0.41290 0.12451 0.41427
 C487 C 0.42523 0.10632 0.43680
 C488 C 0.42591 0.07045 0.43859
 C489 C 0.41455 0.05300 0.41718
 C490 C 0.40252 0.07118 0.39448
 H491 H 0.32290 0.22889 0.32527
 H492 H 0.28879 0.25795 0.28923
 H493 H 0.32381 0.17031 0.24001
 H494 H 0.35696 0.14066 0.27641
 H495 H 0.41252 0.15219 0.41363
 H496 H 0.43403 0.12045 0.45293
 H497 H 0.41500 0.02531 0.41796
 H498 H 0.39370 0.05708 0.37835
 C499 C 0.31176 0.68788 -0.18787
 C500 C 0.32576 0.71363 -0.20116
 C501 C 0.30774 0.73145 -0.22217
 C502 C 0.27558 0.72363 -0.23041
 C503 C 0.26136 0.69829 -0.21691
 C504 C 0.27919 0.68068 -0.19586
 C505 C 0.33107 0.66821 -0.16606
 N506 N 0.31616 0.64556 -0.15186
 N507 N 0.33359 0.62746 -0.13249
 C508 C 0.36674 0.63113 -0.12654
 N509 N 0.38165 0.65380 -0.14072
 N510 N 0.36419 0.67196 -0.16006
 C511 C 0.38618 0.61101 -0.10498
 C512 C 0.42148 0.61244 -0.10054
 C513 C 0.43971 0.59408 -0.07995
 C514 C 0.42300 0.57401 -0.06321
 C515 C 0.38786 0.57214 -0.06777
 C516 C 0.36963 0.59040 -0.08849
 H517 H 0.35074 0.71990 -0.19546
 H518 H 0.31936 0.75072 -0.23234
 H519 H 0.23629 0.69217 -0.22254
 H520 H 0.26753 0.66116 -0.18604
 H521 H 0.43511 0.62787 -0.11292
 H522 H 0.46683 0.59596 -0.07696
 H523 H 0.37439 0.55675 -0.05524
 H524 H 0.34248 0.58865 -0.09139
 C525 C 1.16365 -0.14758 -0.19639
 C526 C 1.19715 -0.14282 -0.20352
 C527 C 1.21355 -0.16059 -0.22481
 C528 C 1.19691 -0.18372 -0.23918
 C529 C 1.16315 -0.18778 -0.23213
 C530 C 1.14672 -0.16979 -0.21128
 C531 C 1.14652 -0.13115 -0.17298
 N532 N 1.11261 -0.13268 -0.16874
 N533 N 1.09734 -0.12032 -0.14702
 C534 C 1.11528 -0.10593 -0.12846
 N535 N 1.14916 -0.10392 -0.13278
 N536 N 1.16449 -0.11629 -0.15461
 C537 C 1.09823 -0.09397 -0.10379
 C538 C 1.11648 -0.08023 -0.08371
 C539 C 1.10020 -0.07009 -0.06025
 C540 C 1.06540 -0.07353 -0.05643
 C541 C 1.04714 -0.08702 -0.07655
 C542 C 1.06333 -0.09711 -0.09990
 H543 H 1.21081 -0.12568 -0.19251
 H544 H 1.23933 -0.15640 -0.22977
 H545 H 1.14958 -0.20603 -0.24190
 H546 H 1.12106 -0.17440 -0.20629
 H547 H 1.14336 -0.07743 -0.08607
 H548 H 1.11479 -0.05946 -0.04513
 H549 H 1.02021 -0.08975 -0.07429
 H550 H 1.04838 -0.10753 -0.11488
 C551 C 1.17888 0.32577 0.31315
 C552 C 1.17044 0.29415 0.30477
 C553 C 1.18638 0.27737 0.28323
 C554 C 1.21095 0.29190 0.26913
 C555 C 1.22027 0.32305 0.27784
 C556 C 1.20438 0.33986 0.29970
 C557 C 1.16047 0.34364 0.33558
 N558 N 1.17250 0.36985 0.34806
 N559 N 1.15572 0.38528 0.36839
 C560 C 1.12614 0.37528 0.37695
 N561 N 1.11411 0.34926 0.36434
 N562 N 1.13092 0.33377 0.34416
 C563 C 1.10740 0.39184 0.39971
 C564 C 1.07375 0.38577 0.40516
 C565 C 1.05619 0.40042 0.42693
 C566 C 1.07200 0.42119 0.44395
 C567 C 1.10550 0.42756 0.43847
 C568 C 1.12296 0.41317 0.41650
 H569 H 1.15145 0.28215 0.31492
 H570 H 1.17949 0.25274 0.27778
 H571 H 1.23918 0.33482 0.26744
 H572 H 1.21154 0.36417 0.30574
 H573 H 1.06087 0.36966 0.39257
 H574 H 1.03033 0.39519 0.43056
 H575 H 1.11818 0.44373 0.45115
 H576 H 1.14883 0.41837 0.41287
 C577 C 0.67314 -0.17926 0.31350
 C578 C 0.66643 -0.21221 0.30676
 C579 C 0.68199 -0.22935 0.28518
 C580 C 0.70466 -0.21401 0.26979
 C581 C 0.71193 -0.18136 0.27667
 C582 C 0.69618 -0.16404 0.29827
 C583 C 0.65592 -0.16099 0.33618
 N584 N 0.65990 -0.12807 0.34180
 N585 N 0.64401 -0.11164 0.36204
 C586 C 0.62349 -0.12744 0.37753
 N587 N 0.61958 -0.16038 0.37193
 N588 N 0.63542 -0.17678 0.35168
 C589 C 0.60579 -0.10915 0.40002
 C590 C 0.58655 -0.12631 0.41713
 C591 C 0.57022 -0.10906 0.43851
 C592 C 0.57272 -0.07430 0.44314
 C593 C 0.59159 -0.05704 0.42590
 C594 C 0.60801 -0.07429 0.40463
 H595 H 0.64903 -0.22483 0.31810
 H596 H 0.67657 -0.25491 0.28075
 H597 H 0.72930 -0.16898 0.26511
 H598 H 0.70201 -0.13872 0.30297
 H599 H 0.58424 -0.15315 0.41412
 H600 H 0.55566 -0.12291 0.45140
 H601 H 0.59389 -0.03019 0.42892
 H602 H 0.62245 -0.06023 0.39182
 C603 C 0.68100 0.32369 -0.19126
 C604 C 0.71302 0.33081 -0.19990
 C605 C 0.72987 0.31257 -0.22084
 C606 C 0.71512 0.28659 -0.23373
 C607 C 0.68320 0.27946 -0.22442
 C608 C 0.66651 0.29770 -0.20376
 C609 C 0.66234 0.34278 -0.16937
 N610 N 0.62943 0.33844 -0.16398
 N611 N 0.61243 0.35478 -0.14421
 C612 C 0.62755 0.37623 -0.12884
 N613 N 0.66048 0.38077 -0.13422
 N614 N 0.67752 0.36442 -0.15412
 C615 C 0.60846 0.39355 -0.10644
 C616 C 0.62477 0.41284 -0.08852
 C617 C 0.60679 0.42791 -0.06695
 C618 C 0.57213 0.42407 -0.06291
 C619 C 0.55566 0.40536 -0.08105
 C620 C 0.57360 0.39024 -0.10250
 H621 H 0.72487 0.35083 -0.19071
 H622 H 0.75375 0.32008 -0.22717
 H623 H 0.67107 0.25885 -0.23225
 H624 H 0.64220 0.29097 -0.19740
 H625 H 0.65154 0.41597 -0.09098
 H626 H 0.62007 0.44242 -0.05338
 H627 H 0.52892 0.40211 -0.07857
 H628 H 0.56009 0.37575 -0.11592
 C629 C 1.17432 0.16286 -0.15579
 C630 C 1.20169 0.14502 -0.17038
 C631 C 1.22065 0.16297 -0.18680
 C632 C 1.21222 0.19922 -0.18940
 C633 C 1.18579 0.21704 -0.17382
 C634 C 1.16688 0.19912 -0.15745
 C635 C 1.15389 0.14392 -0.13865
 N636 N 1.12773 0.16135 -0.12436
 N637 N 1.10957 0.14448 -0.10865
 C638 C 1.11671 0.10946 -0.10661
 N639 N 1.14274 0.09197 -0.12103
 N640 N 1.16093 0.10886 -0.13676
 C641 C 1.09750 0.09105 -0.08819
 C642 C 1.10491 0.05479 -0.08576
 C643 C 1.08837 0.03784 -0.06702
 C644 C 1.06430 0.05687 -0.05031
 C645 C 1.05604 0.09292 -0.05331
 C646 C 1.07241 0.10983 -0.07207
 H647 H 1.20864 0.11713 -0.16909
 H648 H 1.24208 0.14815 -0.19701
 H649 H 1.17955 0.24502 -0.17445
 H650 H 1.14639 0.21378 -0.14611
 H651 H 1.12394 0.03955 -0.09799
 H652 H 1.09504 0.00996 -0.06518
 H653 H 1.03729 0.10818 -0.04086
 H654 H 1.06588 0.13774 -0.07352
 C655 C 1.18009 0.66079 0.33959
 C656 C 1.18207 0.69572 0.34413
 C657 C 1.20269 0.71306 0.32863
 C658 C 1.22237 0.69582 0.30844
 C659 C 1.21916 0.66118 0.30333
 C660 C 1.19876 0.64377 0.31895
 C661 C 1.15839 0.64239 0.35612
 N662 N 1.16049 0.60749 0.35463
 N663 N 1.14148 0.59092 0.36997
 C664 C 1.11945 0.60861 0.38733
 N665 N 1.11720 0.64351 0.38866
 N666 N 1.13626 0.66004 0.37340
 C667 C 1.09949 0.59031 0.40535
 C668 C 1.07474 0.60930 0.42160
 C669 C 1.05805 0.59258 0.44028
 C670 C 1.06576 0.55647 0.44324
 C671 C 1.08932 0.53720 0.42628
 C672 C 1.10604 0.55398 0.40747
 H673 H 1.16760 0.70980 0.35963
 H674 H 1.20276 0.74022 0.33228
 H675 H 1.23166 0.64747 0.28692
 H676 H 1.19713 0.61710 0.31453
 H677 H 1.06874 0.63726 0.42030
 H678 H 1.03970 0.60809 0.45289
 H679 H 1.09561 0.50929 0.42805
 H680 H 1.12485 0.53857 0.39516
 C681 C 0.67023 0.17378 0.34201
 C682 C 0.70564 0.16241 0.33732
 C683 C 0.72392 0.18157 0.32131
 C684 C 0.70717 0.21226 0.30921
 C685 C 0.67217 0.22453 0.31518
 C686 C 0.65388 0.20533 0.33112
 C687 C 0.65047 0.15302 0.35830
 N688 N 0.61567 0.16265 0.36124
 N689 N 0.59793 0.14417 0.37609
 C690 C 0.61423 0.11525 0.38858
 N691 N 0.64899 0.10553 0.38552
 N692 N 0.66672 0.12396 0.37064
 C693 C 0.59493 0.09578 0.40624
 C694 C 0.61286 0.06888 0.42183
 C695 C 0.59528 0.05263 0.44026
 C696 C 0.55937 0.06276 0.44341
 C697 C 0.54105 0.08844 0.42701
 C698 C 0.55871 0.10490 0.40865
 H699 H 0.71925 0.13852 0.34580
 H700 H 0.75120 0.17208 0.31807
 H701 H 0.65860 0.24905 0.30791
 H702 H 0.62686 0.21534 0.33492
 H703 H 0.64070 0.06102 0.42038
 H704 H 0.60997 0.03264 0.45249
 H705 H 0.51330 0.09662 0.42897
 H706 H 0.54407 0.12531 0.39677
 C707 C 0.66439 0.67299 -0.16786
 C708 C 0.67026 0.70610 -0.16083
 C709 C 0.69144 0.72344 -0.17583
 C710 C 0.70796 0.70799 -0.19816
 C711 C 0.69980 0.67564 -0.20596
 C712 C 0.67893 0.65823 -0.19078
 C713 C 0.64357 0.65377 -0.15122
 N714 N 0.64440 0.61925 -0.15445
 N715 N 0.62685 0.60164 -0.13874
 C716 C 0.60759 0.61790 -0.11924
 N717 N 0.60651 0.65247 -0.11620
 N718 N 0.62416 0.67002 -0.13182
 C719 C 0.58953 0.59828 -0.10082
 C720 C 0.56595 0.61603 -0.08315
 C721 C 0.55112 0.59801 -0.06419
 C722 C 0.55966 0.56181 -0.06231
 C723 C 0.58213 0.54380 -0.08058
 C724 C 0.59690 0.56190 -0.09972
 H725 H 0.65888 0.71852 -0.14349
 H726 H 0.69508 0.74905 -0.16983
 H727 H 0.70890 0.66351 -0.22396
 H728 H 0.67395 0.63321 -0.19717
 H729 H 0.55938 0.64399 -0.08364
 H730 H 0.53357 0.61258 -0.05056
 H731 H 0.58900 0.51586 -0.07965
 H732 H 0.61490 0.54745 -0.11310
 C733 C 0.84283 -0.18155 -0.17176
 C734 C 0.83681 -0.21371 -0.16266
 C735 C 0.81532 -0.23235 -0.17646
 C736 C 0.79949 -0.21986 -0.20021
 C737 C 0.80729 -0.18855 -0.21020
 C738 C 0.82821 -0.16928 -0.19585
 C739 C 0.86295 -0.16089 -0.15517
 N740 N 0.85839 -0.12580 -0.15706
 N741 N 0.87394 -0.10741 -0.14013
 C742 C 0.89476 -0.12339 -0.12071
 N743 N 0.89979 -0.15846 -0.11927
 N744 N 0.88419 -0.17675 -0.13605
 C745 C 0.90996 -0.10341 -0.10031
 C746 C 0.93225 -0.12103 -0.08112
 C747 C 0.94413 -0.10321 -0.06036
 C748 C 0.93416 -0.06722 -0.05818
 C749 C 0.91300 -0.04921 -0.07783
 C750 C 0.90096 -0.06715 -0.09870
 H751 H 0.84786 -0.22418 -0.14431
 H752 H 0.81169 -0.25701 -0.16847
 H753 H 0.79549 -0.17755 -0.22816
 H754 H 0.83255 -0.14460 -0.20342
 H755 H 0.94005 -0.14886 -0.08176
 H756 H 0.96077 -0.11779 -0.04574
 H757 H 0.90509 -0.02141 -0.07675
 H758 H 0.88391 -0.05274 -0.11316
 C759 C 0.84360 0.32308 0.32744
 C760 C 0.84523 0.28742 0.33180
 C761 C 0.82305 0.26908 0.31835
 C762 C 0.79910 0.28577 0.29992
 C763 C 0.79884 0.32079 0.29417
 C764 C 0.82074 0.33944 0.30799
 C765 C 0.86373 0.34309 0.34459
 N766 N 0.85676 0.37825 0.34513
 N767 N 0.87259 0.39583 0.36242
 C768 C 0.89605 0.37898 0.37987
 N769 N 0.90344 0.34391 0.37895
 N770 N 0.88761 0.32638 0.36174
 C771 C 0.91166 0.39802 0.40061
 C772 C 0.93463 0.37981 0.41916
 C773 C 0.94724 0.39706 0.43998
 C774 C 0.93730 0.43297 0.44278
 C775 C 0.91528 0.45146 0.42382
 C776 C 0.90253 0.43416 0.40298
 H777 H 0.86254 0.27386 0.34649
 H778 H 0.82380 0.24197 0.32294
 H779 H 0.78042 0.33411 0.28005
 H780 H 0.81902 0.36681 0.30403
 H781 H 0.94243 0.35203 0.41793
 H782 H 0.96448 0.38215 0.45410
 H783 H 0.90736 0.47922 0.42538
 H784 H 0.88500 0.44902 0.38903
 C785 C 0.33068 -0.16451 0.32448
 C786 C 0.34811 -0.18852 0.30678
 C787 C 0.33007 -0.21102 0.29307
 C788 C 0.29453 -0.21015 0.29720
 C789 C 0.27682 -0.18504 0.31375
 C790 C 0.29458 -0.16231 0.32706
 C791 C 0.34991 -0.14378 0.34179
 N792 N 0.33231 -0.11923 0.35743
 N793 N 0.34901 -0.10276 0.37480
 C794 C 0.38413 -0.11013 0.37742
 N795 N 0.40188 -0.13430 0.36149
 N796 N 0.38513 -0.15078 0.34405
 C797 C 0.40220 -0.09360 0.39833
 C798 C 0.43833 -0.10251 0.40240
 C799 C 0.45467 -0.08875 0.42337
 C800 C 0.43523 -0.06590 0.44078
 C801 C 0.39935 -0.05622 0.43628
 C802 C 0.38305 -0.06986 0.41533
 H803 H 0.37585 -0.19074 0.30419
 H804 H 0.34421 -0.23038 0.28047
 H805 H 0.24934 -0.18390 0.31712
 H806 H 0.28019 -0.14411 0.34036
 H807 H 0.45392 -0.12062 0.38968
 H808 H 0.48243 -0.09654 0.42624
 H809 H 0.38371 -0.03840 0.44918
 H810 H 0.35525 -0.06222 0.41278
 C811 C 0.34370 0.31648 -0.17381
 C812 C 0.32675 0.32796 -0.19730
 C813 C 0.30513 0.30787 -0.21004
 C814 C 0.29896 0.27657 -0.19891
 C815 C 0.31701 0.26496 -0.17576
 C816 C 0.33922 0.28438 -0.16362
 C817 C 0.36461 0.33800 -0.15884
 N818 N 0.38882 0.32279 -0.14135
 N819 N 0.40507 0.34177 -0.12554
 C820 C 0.39775 0.37685 -0.12636
 N821 N 0.37398 0.39220 -0.14423
 N822 N 0.35778 0.37315 -0.16021
 C823 C 0.41342 0.39736 -0.10663
 C824 C 0.40165 0.43309 -0.10369
 C825 C 0.41391 0.45113 -0.08301
 C826 C 0.43804 0.43371 -0.06488
 C827 C 0.45085 0.39842 -0.06853
 C828 C 0.43877 0.38051 -0.08913
 H829 H 0.32988 0.35261 -0.20564
 H830 H 0.29169 0.31814 -0.22762
 H831 H 0.31460 0.24038 -0.16700
 H832 H 0.35205 0.27463 -0.14564
 H833 H 0.38219 0.44688 -0.11685
 H834 H 0.40377 0.47843 -0.08076
 H835 H 0.46983 0.38437 -0.05512
 H836 H 0.44874 0.35312 -0.09089
 C837 C 1.18232 -0.19168 0.18733
 C838 C 1.17515 -0.22419 0.19482
 C839 C 1.19278 -0.24205 0.21586
 C840 C 1.21814 -0.22793 0.22986
 C841 C 1.22591 -0.19579 0.22213
 C842 C 1.20805 -0.17774 0.20115
 C843 C 1.16270 -0.17236 0.16546
 N844 N 1.16601 -0.13913 0.16022
 N845 N 1.14795 -0.12167 0.14083
 C846 C 1.12582 -0.13669 0.12581
 N847 N 1.12258 -0.16996 0.13099
 N848 N 1.14058 -0.18739 0.15043
 C849 C 1.10583 -0.11720 0.10417
 C850 C 1.08639 -0.13382 0.08648
 C851 C 1.06839 -0.11547 0.06569
 C852 C 1.06932 -0.08010 0.06226
 C853 C 1.08815 -0.06335 0.08023
 C854 C 1.10627 -0.08169 0.10087
 H855 H 1.15564 -0.23580 0.18459
 H856 H 1.18669 -0.26709 0.22108
 H857 H 1.24520 -0.18424 0.23268
 H858 H 1.21431 -0.15279 0.19585
 H859 H 1.08542 -0.16114 0.08848
 H860 H 1.05396 -0.12899 0.05219
 H861 H 1.08929 -0.03606 0.07816
 H862 H 1.12075 -0.06798 0.11419
 C863 C 1.17269 0.32555 0.69688
 C864 C 1.16187 0.29529 0.70581
 C865 C 1.17825 0.27719 0.72711
 C866 C 1.20587 0.28888 0.74019
 C867 C 1.21685 0.31911 0.73138
 C868 C 1.20025 0.33745 0.70999
 C869 C 1.15550 0.34381 0.67371
 N870 N 1.16291 0.37488 0.66598
 N871 N 1.14740 0.39089 0.64498
 C872 C 1.12395 0.37646 0.63082
 N873 N 1.11661 0.34543 0.63856
 N874 N 1.13202 0.32950 0.65955
 C875 C 1.10689 0.39394 0.60731
 C876 C 1.08620 0.37684 0.59093
 C877 C 1.07048 0.39310 0.56855
 C878 C 1.07497 0.42686 0.56218
 C879 C 1.09530 0.44413 0.57868
 C880 C 1.11120 0.42780 0.60094
 H881 H 1.14087 0.28523 0.69618
 H882 H 1.16982 0.25338 0.73282
 H883 H 1.23820 0.32853 0.74103
 H884 H 1.20930 0.36063 0.70354
 H885 H 1.08231 0.35074 0.59526
 H886 H 1.05478 0.37928 0.55626
 H887 H 1.09915 0.47025 0.57429
 H888 H 1.12681 0.44177 0.61318
 C889 C 0.67914 -0.16050 0.69604
 C890 C 0.66146 -0.16636 0.71868
 C891 C 0.67858 -0.18628 0.73900
 C892 C 0.71395 -0.20141 0.73728
 C893 C 0.73207 -0.19363 0.71507
 C894 C 0.71485 -0.17353 0.69477
 C895 C 0.65995 -0.14256 0.67342
 N896 N 0.67710 -0.13377 0.65233
 N897 N 0.65969 -0.11939 0.63149
 C898 C 0.62438 -0.11334 0.63079
 N899 N 0.60725 -0.12193 0.65194
 N900 N 0.62465 -0.13619 0.67280
 C901 C 0.60502 -0.09868 0.60717
 C902 C 0.56906 -0.09846 0.60453
 C903 C 0.55110 -0.08579 0.58184
 C904 C 0.56866 -0.07289 0.56138
 C905 C 0.60444 -0.07259 0.56417
 C906 C 0.62244 -0.08546 0.58675
 H907 H 0.63411 -0.15603 0.72061
 H908 H 0.66368 -0.18964 0.75607
 H909 H 0.75897 -0.20469 0.71215
 H910 H 0.72932 -0.16941 0.67760
 H911 H 0.55483 -0.10848 0.61986
 H912 H 0.52347 -0.08615 0.58029
 H913 H 0.61864 -0.06259 0.54880
 H914 H 0.65005 -0.08507 0.58817
 C915 C 0.67870 0.32680 0.18765
 C916 C 0.66942 0.29557 0.19610
 C917 C 0.68446 0.27909 0.21848
 C918 C 0.70918 0.29337 0.23304
 C919 C 0.71925 0.32410 0.22443
 C920 C 0.70391 0.34088 0.20199
 C921 C 0.66173 0.34433 0.16412
 N922 N 0.66664 0.37662 0.15730
 N923 N 0.65057 0.39242 0.13643
 C924 C 0.62900 0.37657 0.12148
 N925 N 0.62427 0.34424 0.12825
 N926 N 0.64025 0.32851 0.14912
 C927 C 0.61078 0.39417 0.09842
 C928 C 0.59109 0.37646 0.08167
 C929 C 0.57398 0.39305 0.05987
 C930 C 0.57610 0.42772 0.05444
 C931 C 0.59549 0.44552 0.07128
 C932 C 0.61273 0.42891 0.09297
 H933 H 0.65032 0.28381 0.18551
 H934 H 0.67699 0.25483 0.22422
 H935 H 0.73855 0.33532 0.23524
 H936 H 0.71181 0.36479 0.19590
 H937 H 0.58898 0.34969 0.08531
 H938 H 0.55909 0.37877 0.04730
 H939 H 0.59754 0.47231 0.06764
 H940 H 0.62750 0.44339 0.10549
 C941 C 0.82281 0.17348 0.18989
 C942 C 0.79278 0.16285 0.19940
 C943 C 0.77551 0.17935 0.22056
 C944 C 0.78798 0.20674 0.23307
 C945 C 0.81789 0.21763 0.22353
 C946 C 0.83514 0.20119 0.20210
 C947 C 0.84070 0.15550 0.16734
 N948 N 0.86562 0.16879 0.15446
 N949 N 0.88100 0.15254 0.13390
 C950 C 0.87218 0.12230 0.12548
 N951 N 0.84743 0.10903 0.13847
 N952 N 0.83201 0.12528 0.15890
 C953 C 0.88873 0.10411 0.10251
 C954 C 0.88289 0.07057 0.09654
 C955 C 0.89774 0.05335 0.07473
 C956 C 0.91857 0.06934 0.05820
 C957 C 0.92464 0.10279 0.06412
 C958 C 0.90996 0.11998 0.08614
 H959 H 0.78224 0.14194 0.19030
 H960 H 0.75192 0.17094 0.22675
 H961 H 0.82825 0.23852 0.23280
 H962 H 0.85826 0.20996 0.19525
 H963 H 0.86685 0.05746 0.10877
 H964 H 0.89274 0.02751 0.07075
 H965 H 0.94085 0.11559 0.05181
 H966 H 0.91497 0.14578 0.09018
 C967 C 0.83066 0.67686 0.68873
 C968 C 0.83596 0.70962 0.69725
 C969 C 0.81699 0.72593 0.71810
 C970 C 0.79210 0.70984 0.73090
 C971 C 0.78681 0.67721 0.72163
 C972 C 0.80581 0.66106 0.70119
 C973 C 0.85018 0.65870 0.66688
 N974 N 0.84864 0.62487 0.66252
 N975 N 0.86466 0.60827 0.64249
 C976 C 0.88298 0.62471 0.62580
 N977 N 0.88490 0.65856 0.63021
 N978 N 0.86885 0.67523 0.65039
 C979 C 0.89937 0.60601 0.60293
 C980 C 0.91606 0.62296 0.58401
 C981 C 0.92996 0.60518 0.56198
 C982 C 0.92744 0.57013 0.55847
 C983 C 0.91134 0.55309 0.57758
 C984 C 0.89747 0.57078 0.59950
 H985 H 0.85503 0.72249 0.68802
 H986 H 0.82284 0.75062 0.72426
 H987 H 0.76703 0.66399 0.72934
 H988 H 0.80040 0.63616 0.69486
 H989 H 0.91804 0.65004 0.58607
 H990 H 0.94252 0.61888 0.54763
 H991 H 0.90921 0.52603 0.57554
 H992 H 0.88498 0.55676 0.61367
 C993 C 0.31940 0.17686 0.68577
 C994 C 0.33461 0.20000 0.70123
 C995 C 0.31808 0.21431 0.72360
 C996 C 0.28636 0.20537 0.73101
 C997 C 0.27077 0.18298 0.71523
 C998 C 0.28706 0.16893 0.69288
 C999 C 0.33728 0.16028 0.66272
 N1000 N 0.32134 0.13975 0.64705
 N1001 N 0.33764 0.12387 0.62678
 C1002 C 0.37065 0.12776 0.62134
 N1003 N 0.38657 0.14841 0.63694
 N1004 N 0.37024 0.16435 0.65721
 C1005 C 0.38898 0.10959 0.59905
 C1006 C 0.42408 0.11135 0.59480
 C1007 C 0.44144 0.09422 0.57385
 C1008 C 0.42405 0.07508 0.55656
 C1009 C 0.38904 0.07310 0.56080
 C1010 C 0.37168 0.09014 0.58187
 H1011 H 0.35942 0.20681 0.69622
 H1012 H 0.33049 0.23161 0.73546
 H1013 H 0.24584 0.17637 0.72014
 H1014 H 0.27443 0.15146 0.68137
 H1015 H 0.43826 0.12593 0.60769
 H1016 H 0.46848 0.09617 0.57111
 H1017 H 0.37507 0.05839 0.54785
 H1018 H 0.34466 0.08816 0.58460
 C1019 C 0.34798 0.66133 0.19500
 C1020 C 0.32509 0.64448 0.20893
 C1021 C 0.30682 0.66054 0.22979
 C1022 C 0.31124 0.69385 0.23780
 C1023 C 0.33487 0.71049 0.22432
 C1024 C 0.35296 0.69444 0.20304
 C1025 C 0.36501 0.64450 0.17167
 N1026 N 0.38127 0.66236 0.15440
 N1027 N 0.39444 0.64733 0.13268
 C1028 C 0.39190 0.61387 0.12736
 N1029 N 0.37606 0.59603 0.14481
 N1030 N 0.36290 0.61100 0.16643
 C1031 C 0.40491 0.59724 0.10274
 C1032 C 0.40176 0.56261 0.09783
 C1033 C 0.41282 0.54694 0.07442
 C1034 C 0.42726 0.56549 0.05529
 C1035 C 0.43077 0.59999 0.06018
 C1036 C 0.41972 0.61572 0.08368
 H1037 H 0.32026 0.61914 0.20322
 H1038 H 0.28815 0.64707 0.23886
 H1039 H 0.33924 0.73595 0.23001
 H1040 H 0.37058 0.70805 0.19276
 H1041 H 0.39057 0.54750 0.11204
 H1042 H 0.41001 0.52023 0.07131
 H1043 H 0.44212 0.61482 0.04586
 H1044 H 0.42258 0.64239 0.08682
   
