data_POSCAR
  _audit_creation_date              2014-09-24
  _audit_creation_method            'ToBaCCo'
  _symmetry_space_group_name_H-M    'P1'
  _symmetry_Int_Tables_number       1
  _symmetry_cell_setting            triclinic
  loop_
  _symmetry_equiv_pos_as_xyz
 x,y,z
_cell_length_a 18.8616
_cell_length_b 18.8610
_cell_length_c 30.6124
_cell_angle_alpha 80.229100
_cell_angle_beta 99.843100
_cell_angle_gamma 83.997100
loop_
  _atom_site_label
  _atom_site_type_symbol
  _atom_site_fract_x
  _atom_site_fract_y
  _atom_site_fract_z
O1 O 0.04055 0.54433 1.05190
 O2 O 0.06391 0.42803 0.96897
 O3 O 0.06532 0.56671 0.97022
 O4 O 0.03913 0.40783 1.05080
 O5 O -0.07886 0.42883 1.02391
 O6 O -0.05244 0.58802 0.94318
 O7 O -0.05398 0.44894 0.94194
 O8 O -0.07743 0.56577 1.02497
 Cu9 Cu 0.06410 0.48464 1.01288
 Cu10 Cu -0.07744 0.51005 0.98051
 C11 C -0.02241 0.57468 1.05282
 C12 C 0.00890 0.41750 0.94175
 C13 C 0.01088 0.60562 0.94342
 C14 C -0.02435 0.39140 1.05141
 O15 O 0.59454 -0.03993 0.55238
 O16 O 0.43538 -0.06566 0.47168
 O17 O 0.57398 -0.06439 0.47044
 O18 O 0.45793 -0.04127 0.55348
 O19 O 0.43666 0.07675 0.52683
 O20 O 0.55321 0.05354 0.44369
 O21 O 0.41421 0.05226 0.44490
 O22 O 0.57372 0.07798 0.52578
 Cu23 Cu 0.51754 -0.06468 0.51441
 Cu24 Cu 0.49232 0.07691 0.48237
 C25 C 0.61135 0.02343 0.55321
 C26 C 0.39673 -0.01103 0.44501
 C27 C 0.58446 -0.00934 0.44330
 C28 C 0.42762 0.02165 0.55452
 C29 C -0.05700 -0.12678 0.22380
 C30 C -0.11679 -0.12355 0.25178
 C31 C -0.11675 -0.06699 0.27427
 C32 C -0.05707 -0.01889 0.26684
 C33 C -0.06814 -0.05216 0.19274
 C34 C -0.06797 0.00420 0.21527
 C35 C 0.01413 -0.12877 0.25716
 C36 C 0.01403 -0.07215 0.27957
 H37 H -0.15546 -0.16229 0.25368
 H38 H -0.05738 0.02710 0.28524
 H39 H -0.07030 -0.04481 0.15652
 H40 H 0.06146 -0.16909 0.26100
 C41 C 0.12723 0.05572 0.72424
 C42 C 0.12919 -0.01523 0.75770
 C43 C 0.07245 -0.01501 0.77998
 C44 C 0.01912 0.05604 0.76704
 C45 C 0.05267 0.06661 0.69306
 C46 C -0.00380 0.06658 0.71546
 C47 C 0.12379 0.11574 0.75207
 C48 C 0.06712 0.11585 0.77442
 H49 H 0.16951 -0.06260 0.76162
 H50 H -0.02695 0.05647 0.78534
 H51 H 0.04546 0.06853 0.65686
 H52 H 0.16241 0.15453 0.75392
 C53 C -0.04671 -0.28529 0.14764
 C54 C -0.10748 -0.29499 0.11707
 C55 C -0.09996 -0.34155 0.08664
 C56 C -0.03137 -0.37868 0.08633
 C57 C 0.02909 -0.36955 0.11780
 C58 C 0.02140 -0.32309 0.14818
 C59 C -0.05281 -0.23255 0.17607
 C60 C -0.05589 -0.18615 0.19856
 H61 H -0.16036 -0.26550 0.11615
 H62 H -0.14755 -0.34746 0.06287
 H63 H 0.08258 -0.39744 0.11853
 H64 H 0.06887 -0.31552 0.17150
 C65 C -0.05266 0.20316 0.14399
 C66 C 0.01622 0.22474 0.14488
 C67 C 0.02526 0.28666 0.11525
 C68 C -0.03461 0.32778 0.08418
 C69 C -0.10395 0.30652 0.08418
 C70 C -0.11282 0.24445 0.11386
 C71 C -0.06026 0.13544 0.17125
 C72 C -0.06483 0.07671 0.19242
 H73 H 0.06324 0.19279 0.16782
 H74 H 0.07930 0.30163 0.11620
 H75 H -0.15112 0.33705 0.06073
 H76 H -0.16628 0.22782 0.11263
 C77 C 0.28656 0.04548 0.64873
 C78 C 0.29660 0.10636 0.61845
 C79 C 0.34356 0.09900 0.58826
 C80 C 0.38076 0.03047 0.58790
 C81 C 0.37132 -0.03011 0.61911
 C82 C 0.32445 -0.02258 0.64926
 C83 C 0.23344 0.05145 0.67691
 C84 C 0.18679 0.05451 0.69919
 H85 H 0.26706 0.15921 0.61755
 H86 H 0.34970 0.14668 0.56469
 H87 H 0.39924 -0.08357 0.61979
 H88 H 0.31664 -0.07013 0.67236
 C89 C -0.20281 0.05092 0.64411
 C90 C -0.24513 0.11131 0.61485
 C91 C -0.30738 0.10257 0.58522
 C92 C -0.32798 0.03297 0.58426
 C93 C -0.28557 -0.02717 0.61467
 C94 C -0.22350 -0.01814 0.64423
 C95 C -0.13503 0.05864 0.67135
 C96 C -0.07629 0.06332 0.69253
 H97 H -0.22921 0.16497 0.61427
 H98 H -0.33848 0.15028 0.56257
 H99 H -0.29950 -0.08156 0.61524
 H100 H -0.19075 -0.06532 0.66654
 C101 C 0.03994 -0.20080 0.85998
 C102 C -0.02947 -0.22131 0.85847
 C103 C -0.03916 -0.28586 0.88555
 C104 C 0.02067 -0.33102 0.91469
 C105 C 0.09043 -0.31000 0.91542
 C106 C 0.09982 -0.24547 0.88831
 C107 C 0.05011 -0.13435 0.83222
 C108 C 0.05971 -0.07939 0.80874
 H109 H -0.07620 -0.18727 0.83649
 H110 H -0.09369 -0.29986 0.88387
 H111 H 0.13794 -0.34296 0.93723
 H112 H 0.15387 -0.23027 0.88959
 C113 C 0.03549 0.26522 0.85405
 C114 C 0.09600 0.28068 0.88240
 C115 C 0.08749 0.33109 0.91037
 C116 C 0.01815 0.36687 0.91038
 C117 C -0.04232 0.35159 0.88136
 C118 C -0.03364 0.30107 0.85340
 C119 C 0.04476 0.21238 0.82586
 C120 C 0.05406 0.16817 0.80245
 H121 H 0.14979 0.25339 0.88313
 H122 H 0.13516 0.34146 0.93231
 H123 H -0.09643 0.37804 0.88061
 H124 H -0.08086 0.28963 0.83152
 C125 C -0.26470 -0.03583 0.35479
 C126 C -0.27986 -0.09636 0.38321
 C127 C -0.32975 -0.08786 0.41147
 C128 C -0.36529 -0.01854 0.41173
 C129 C -0.35028 0.04196 0.38268
 C130 C -0.30028 0.03330 0.35441
 C131 C -0.21241 -0.04505 0.32627
 C132 C -0.16863 -0.05422 0.30259
 H133 H -0.25275 -0.15014 0.38372
 H134 H -0.33993 -0.13555 0.43343
 H135 H -0.37657 0.09606 0.38211
 H136 H -0.28905 0.08054 0.33250
 C137 C 0.19986 -0.04009 0.35992
 C138 C 0.22019 0.02937 0.35881
 C139 C 0.28481 0.03886 0.38598
 C140 C 0.32997 -0.02115 0.41463
 C141 C 0.30929 -0.09082 0.41517
 C142 C 0.24472 -0.10014 0.38799
 C143 C 0.13341 -0.05013 0.33204
 C144 C 0.07845 -0.05959 0.30845
 H145 H 0.18600 0.07622 0.33708
 H146 H 0.29904 0.09321 0.38482
 H147 H 0.34268 -0.13814 0.43687
 H148 H 0.22965 -0.15420 0.38901
   
