data_POSCAR
  _audit_creation_date              2014-09-24
  _audit_creation_method            'ToBaCCo'
  _symmetry_space_group_name_H-M    'P1'
  _symmetry_Int_Tables_number       1
  _symmetry_cell_setting            triclinic
  loop_
  _symmetry_equiv_pos_as_xyz
 x,y,z
_cell_length_a 44.8049
_cell_length_b 44.5336
_cell_length_c 15.3641
_cell_angle_alpha 90.023800
_cell_angle_beta 90.050500
_cell_angle_gamma 121.765900
loop_
  _atom_site_label
  _atom_site_type_symbol
  _atom_site_fract_x
  _atom_site_fract_y
  _atom_site_fract_z
C1 C 0.17224 0.52751 0.48137
 C2 C 0.17133 0.52523 0.57050
 C3 C 0.19148 0.51121 0.59377
 N4 N 0.20493 0.50521 0.52145
 C5 C 0.19319 0.51519 0.45272
 C6 C 0.19766 0.50456 0.68048
 C7 C 0.22477 0.49826 0.70117
 C8 C 0.22696 0.48385 0.77913
 C9 C 0.25722 0.48336 0.77644
 C10 C 0.27291 0.49712 0.69625
 N11 N 0.25285 0.50620 0.65079
 C12 C 0.30657 0.50420 0.67123
 C13 C 0.31830 0.50975 0.58316
 C14 C 0.34872 0.51173 0.55407
 C15 C 0.34759 0.51104 0.46535
 C16 C 0.31649 0.50840 0.44170
 N17 N 0.29857 0.50735 0.51373
 C18 C 0.30349 0.50284 0.35548
 C19 C 0.27184 0.50071 0.33235
 C20 C 0.25635 0.49087 0.25073
 C21 C 0.22719 0.49359 0.25293
 C22 C 0.22546 0.50476 0.33604
 N23 N 0.25293 0.50942 0.38374
 C24 C 0.19982 0.51194 0.36408
 H25 H 0.15927 0.53752 0.44220
 H26 H 0.15797 0.53376 0.61309
 H27 H 0.25992 0.52118 0.44474
 H28 H 0.20867 0.47465 0.83298
 H29 H 0.26649 0.47425 0.82906
 H30 H 0.36882 0.51110 0.59132
 H31 H 0.36684 0.51065 0.42380
 H32 H 0.20926 0.48793 0.19936
 H33 H 0.26000 0.52083 0.59363
 H34 H 0.26531 0.48294 0.19492
 C35 C 0.54913 -0.31078 0.54801
 C36 C 0.54812 -0.31030 0.45884
 C37 C 0.52692 -0.29750 0.43587
 N38 N 0.51690 -0.28800 0.50864
 C39 C 0.53046 -0.29595 0.57763
 C40 C 0.51526 -0.29628 0.35020
 C41 C 0.50325 -0.27329 0.33014
 C42 C 0.48283 -0.27633 0.25853
 C43 C 0.47963 -0.24726 0.25908
 C44 C 0.49796 -0.22729 0.33116
 N45 N 0.51220 -0.24340 0.37415
 C46 C 0.50365 -0.19366 0.35129
 C47 C 0.51664 -0.17733 0.43313
 C48 C 0.52598 -0.14321 0.45516
 C49 C 0.53498 -0.13886 0.54139
 C50 C 0.52989 -0.17073 0.57012
 N51 N 0.51852 -0.19419 0.50408
 C52 C 0.53152 -0.17889 0.65792
 C53 C 0.52326 -0.21253 0.68627
 C54 C 0.51360 -0.22532 0.77022
 C55 C 0.50973 -0.25808 0.77153
 C56 C 0.51782 -0.26418 0.68850
 N57 N 0.52600 -0.23612 0.63721
 C58 C 0.52327 -0.29180 0.66556
 H59 H 0.56336 -0.31998 0.58407
 H60 H 0.56193 -0.31828 0.41620
 H61 H 0.53730 -0.23108 0.57568
 H62 H 0.47147 -0.29721 0.21041
 H63 H 0.46582 -0.24133 0.21098
 H64 H 0.52563 -0.12350 0.41504
 H65 H 0.54269 -0.11541 0.57948
 H66 H 0.50373 -0.27439 0.82883
 H67 H 0.53058 -0.23280 0.42425
 H68 H 0.51022 -0.21226 0.82531
 C69 C 1.18083 0.63284 0.54703
 C70 C 1.18785 0.62583 0.46557
 C71 C 1.21617 0.65698 0.43469
 N72 N 1.22706 0.68277 0.49553
 C73 C 1.20567 0.66813 0.56533
 C74 C 1.22740 0.66234 0.34700
 C75 C 1.25628 0.69432 0.31600
 C76 C 1.26244 0.70435 0.22928
 C77 C 1.29215 0.73759 0.22691
 C78 C 1.30377 0.74666 0.31224
 N79 N 1.28199 0.71983 0.36582
 C80 C 1.33346 0.77893 0.33992
 C81 C 1.34085 0.78648 0.42916
 C82 C 1.37421 0.80715 0.46418
 C83 C 1.36978 0.81327 0.54899
 C84 C 1.33383 0.79585 0.56277
 N85 N 1.31613 0.77909 0.48967
 C86 C 1.31779 0.79879 0.63833
 C87 C 1.28215 0.77320 0.65656
 C88 C 1.26019 0.77779 0.71082
 C89 C 1.22803 0.74668 0.70880
 C90 C 1.23088 0.72392 0.65207
 N91 N 1.26408 0.74039 0.62111
 C92 C 1.20479 0.68779 0.63790
 H93 H 1.15826 0.61407 0.58451
 H94 H 1.17232 0.60114 0.43083
 H95 H 1.27491 0.72875 0.58448
 H96 H 1.24670 0.68974 0.17350
 H97 H 1.30329 0.75321 0.16870
 H98 H 1.39904 0.81766 0.43083
 H99 H 1.39058 0.82927 0.59486
 H100 H 1.20534 0.74170 0.74572
 H101 H 1.28554 0.71820 0.43224
 H102 H 1.26628 0.80117 0.74710
 C103 C 0.82209 0.46731 0.54206
 C104 C 0.82171 0.46725 0.45277
 C105 C 0.80278 0.48231 0.42803
 N106 N 0.79209 0.49218 0.49904
 C107 C 0.80420 0.48338 0.56918
 C108 C 0.79677 0.48791 0.34094
 C109 C 0.77066 0.49498 0.31699
 C110 C 0.76776 0.50653 0.23549
 C111 C 0.73808 0.50838 0.23712
 C112 C 0.72360 0.49778 0.31954
 N113 N 0.74349 0.48937 0.36756
 C114 C 0.69183 0.49448 0.34633
 C115 C 0.68021 0.48943 0.43374
 C116 C 0.64912 0.48617 0.46042
 C117 C 0.64980 0.48713 0.54926
 C118 C 0.68121 0.49056 0.57527
 N119 N 0.69975 0.49222 0.50393
 C120 C 0.69508 0.49824 0.66142
 C121 C 0.72861 0.50389 0.68200
 C122 C 0.74653 0.51840 0.75954
 C123 C 0.77566 0.51580 0.75866
 C124 C 0.77493 0.49948 0.68106
 N125 N 0.74622 0.49236 0.63454
 C126 C 0.79990 0.49059 0.65702
 H127 H 0.83389 0.45632 0.58212
 H128 H 0.83340 0.45667 0.41082
 H129 H 0.73722 0.47676 0.57885
 H130 H 0.78509 0.51276 0.18037
 H131 H 0.72810 0.51622 0.18323
 H132 H 0.62873 0.48519 0.42055
 H133 H 0.63007 0.48765 0.58836
 H134 H 0.79513 0.52492 0.80989
 H135 H 0.73706 0.47710 0.42800
 H136 H 0.73934 0.52922 0.81277
 C137 C 0.50008 0.16046 0.45515
 C138 C 0.50889 0.16640 0.54139
 C139 C 0.49777 0.18832 0.57169
 N140 N 0.48366 0.19699 0.50593
 C141 C 0.48505 0.17991 0.43482
 C142 C 0.49866 0.19826 0.65972
 C143 C 0.49497 0.22687 0.68331
 C144 C 0.48629 0.23211 0.76618
 C145 C 0.48432 0.26171 0.76246
 C146 C 0.49207 0.27418 0.67741
 N147 N 0.49853 0.25270 0.62941
 C148 C 0.49364 0.30517 0.64786
 C149 C 0.49377 0.31311 0.55804
 C150 C 0.50508 0.34641 0.52476
 C151 C 0.50114 0.34286 0.43607
 C152 C 0.48767 0.30756 0.41747
 N153 N 0.48318 0.28938 0.49216
 C154 C 0.47902 0.29261 0.33276
 C155 C 0.46972 0.25761 0.31492
 C156 C 0.45315 0.23903 0.23966
 C157 C 0.45032 0.20675 0.24605
 C158 C 0.46573 0.20681 0.32438
 N159 N 0.47753 0.23793 0.36573
 C160 C 0.47102 0.17981 0.35281
 H161 H 0.50468 0.14409 0.41196
 H162 H 0.52183 0.15559 0.57763
 H163 H 0.49344 0.24684 0.42064
 H164 H 0.48087 0.21574 0.82317
 H165 H 0.47722 0.27235 0.81641
 H166 H 0.51599 0.37098 0.56028
 H167 H 0.50794 0.36404 0.39049
 H168 H 0.43901 0.18599 0.19758
 H169 H 0.50769 0.25708 0.56568
 H170 H 0.44409 0.24784 0.18576
 C171 C 0.65368 0.16274 0.43990
 C172 C 0.66131 0.16232 0.52628
 C173 C 0.68116 0.19730 0.55319
 N174 N 0.68695 0.21900 0.48543
 C175 C 0.67009 0.19791 0.41639
 C176 C 0.69050 0.20925 0.64010
 C177 C 0.71917 0.24367 0.65857
 C178 C 0.72493 0.26161 0.73646
 C179 C 0.75639 0.29343 0.72813
 C180 C 0.76964 0.29360 0.64628
 N181 N 0.74630 0.26340 0.60399
 C182 C 0.80237 0.32017 0.61020
 C183 C 0.80630 0.32315 0.51861
 C184 C 0.83801 0.33922 0.47409
 C185 C 0.83038 0.34002 0.38823
 C186 C 0.79434 0.32451 0.38293
 N187 N 0.77953 0.31380 0.46245
 C188 C 0.77576 0.32264 0.30675
 C189 C 0.74045 0.29593 0.29501
 C190 C 0.71897 0.29395 0.22740
 C191 C 0.68809 0.26166 0.23492
 C192 C 0.69187 0.24513 0.30685
 N193 N 0.72373 0.26620 0.34300
 C194 C 0.66792 0.21030 0.33375
 H195 H 0.63814 0.13985 0.39890
 H196 H 0.65276 0.13888 0.56501
 H197 H 0.73513 0.25884 0.39081
 H198 H 0.70782 0.25309 0.79261
 H199 H 0.76713 0.31437 0.77596
 H200 H 0.86400 0.34915 0.50036
 H201 H 0.84919 0.35057 0.33559
 H202 H 0.66578 0.25126 0.19143
 H203 H 0.75017 0.25522 0.54365
 H204 H 0.72522 0.31328 0.17678
 O205 O 0.93869 0.43917 0.19017
 O206 O 0.90729 0.44978 0.08997
 C207 C 0.90997 0.43624 0.16196
 O208 O 1.06273 0.58287 0.14524
 O209 O 1.09248 0.55925 0.08260
 C210 C 1.09112 0.58274 0.12979
 O211 O 0.96636 0.54804 0.15468
 O212 O 0.92103 0.50353 0.07614
 C213 C 0.93333 0.52806 0.13528
 O214 O 1.03145 0.46167 0.18632
 O215 O 1.07728 0.50129 0.10054
 C216 C 1.06433 0.47923 0.16504
 Zr217 Zr 0.98863 0.46235 0.13109
 O218 O 0.98927 0.46158 0.26857
 O219 O 0.97045 0.40775 0.13323
 Zr220 Zr 1.01023 0.54725 0.10672
 O221 O 1.01499 0.55639 0.24261
 O222 O 1.01875 0.59815 0.08490
 O223 O 0.96968 0.49612 0.13367
 O224 O 1.02885 0.51480 0.13782
 O225 O 1.03132 0.44999 -0.12708
 O226 O 1.07733 0.49631 -0.05416
 C227 C 1.06450 0.47042 -0.10994
 O228 O 0.96740 0.53487 -0.17423
 O229 O 0.92161 0.49756 -0.08488
 C230 C 0.93445 0.51729 -0.15380
 O231 O 1.06362 0.57059 -0.15222
 O232 O 1.09238 0.55302 -0.06164
 C233 C 1.09171 0.57174 -0.12482
 O234 O 0.93605 0.42001 -0.13136
 O235 O 0.90629 0.44163 -0.05956
 C236 C 0.90746 0.41937 -0.11162
 Zr237 Zr 0.98833 0.45355 -0.08532
 O238 O 0.98956 0.44683 -0.22140
 O239 O 0.97248 0.40023 -0.06295
 Zr240 Zr 1.01062 0.53887 -0.10892
 O241 O 1.01580 0.53978 -0.24574
 O242 O 1.01924 0.59042 -0.11319
 Zr243 Zr 0.94840 0.48440 0.00673
 Zr244 Zr 1.05044 0.51634 0.01514
 O245 O 1.02864 0.50486 -0.11109
 O246 O 0.96943 0.48600 -0.11708
 O247 O 1.01777 0.46104 0.02701
 O248 O 0.98151 0.53946 -0.00541
 O249 O 0.95689 0.44251 0.02304
 O250 O 1.04283 0.55902 -0.00039
 H251 H 1.04397 0.52196 0.19025
 H252 H 0.97004 0.55323 -0.01212
 H253 H 1.04326 0.50815 -0.16275
 H254 H 0.93613 0.41829 0.02948
 H255 H 1.04168 0.61247 0.05542
 H256 H 1.04381 0.60723 -0.09540
 H257 H 1.00414 0.51489 -0.26473
 H258 H 0.97540 0.45534 -0.24905
 H259 H 0.99228 0.40014 -0.03466
 H260 H 0.99067 0.40528 0.12007
 H261 H 0.99747 0.48585 0.28814
 H262 H 0.99549 0.53500 0.27048
 O263 O 0.42415 0.49000 0.14883
 O264 O 0.45179 0.54337 0.07752
 C265 C 0.42845 0.52064 0.13106
 O266 O 0.56595 0.50078 0.16091
 O267 O 0.54176 0.45120 0.07484
 C268 C 0.56334 0.47175 0.13444
 O269 O 0.53985 0.56772 0.18740
 O270 O 0.50784 0.58083 0.09566
 C271 C 0.52606 0.58596 0.16590
 O272 O 0.44073 0.41571 0.14187
 O273 O 0.48263 0.41136 0.06713
 C274 C 0.45692 0.39956 0.12244
 Zr275 Zr 0.45136 0.46588 0.10187
 O276 O 0.44622 0.45898 0.23852
 O277 O 0.39661 0.43097 0.08478
 Zr278 Zr 0.53882 0.52571 0.12107
 O279 O 0.54039 0.52137 0.25773
 O280 O 0.59209 0.56756 0.12447
 O281 O 0.48880 0.51814 0.13086
 O282 O 0.50015 0.47281 0.12572
 O283 O 0.45082 0.42601 -0.17028
 O284 O 0.48769 0.41657 -0.08695
 C285 C 0.46584 0.40872 -0.15112
 O286 O 0.55391 0.58082 -0.14373
 O287 O 0.51356 0.58644 -0.06527
 C288 C 0.53815 0.59728 -0.12364
 O289 O 0.57499 0.51007 -0.13714
 O290 O 0.54588 0.45576 -0.07066
 C291 C 0.57026 0.47919 -0.12075
 O292 O 0.43462 0.50015 -0.16199
 O293 O 0.45724 0.54865 -0.07222
 C294 C 0.43747 0.52930 -0.13572
 Zr295 Zr 0.45866 0.47311 -0.11552
 O296 O 0.46265 0.47506 -0.25298
 O297 O 0.40358 0.43798 -0.12366
 Zr298 Zr 0.54609 0.53293 -0.09525
 O299 O 0.55533 0.53746 -0.23086
 O300 O 0.59915 0.57302 -0.07261
 Zr301 Zr 0.48925 0.53853 0.00661
 Zr302 Zr 0.50795 0.46004 -0.00079
 O303 O 0.50839 0.48113 -0.12388
 O304 O 0.49728 0.52663 -0.12081
 O305 O 0.45394 0.44106 -0.01068
 O306 O 0.54299 0.55694 0.01676
 O307 O 0.44335 0.48819 -0.00603
 O308 O 0.55463 0.51007 0.01199
 H309 H 0.50190 0.46010 0.17646
 H310 H 0.55929 0.58280 0.02288
 H311 H 0.51318 0.47185 -0.17718
 H312 H 0.42024 0.48609 -0.00939
 H313 H 0.60644 0.55832 0.10215
 H314 H 0.61147 0.56162 -0.04990
 H315 H 0.53293 0.53112 -0.25906
 H316 H 0.47364 0.50006 -0.27071
 H317 H 0.39791 0.41533 -0.09712
 H318 H 0.39299 0.40987 0.05355
 H319 H 0.45659 0.48267 0.26515
 H320 H 0.51580 0.50902 0.27795
 O321 O 0.54497 -0.03127 0.15032
 O322 O 0.49323 -0.07821 0.09884
 C323 C 0.52166 -0.06477 0.14528
 O324 O 0.47629 0.05615 0.14269
 O325 O 0.51671 0.09039 0.03848
 C326 C 0.49665 0.08618 0.10373
 O327 O 0.43774 -0.04050 0.19522
 O328 O 0.44197 -0.08238 0.11873
 C329 C 0.43028 -0.07260 0.18274
 O330 O 0.58927 0.06481 0.09823
 O331 O 0.56902 0.09451 0.02001
 C332 C 0.59208 0.09346 0.06884
 Zr333 Zr 0.54701 0.01200 0.08718
 O334 O 0.56125 0.02611 0.21905
 O335 O 0.59415 0.01384 0.05939
 Zr336 Zr 0.46894 0.00555 0.11905
 O337 O 0.48194 0.02034 0.25107
 O338 O 0.41842 -0.00271 0.13950
 O339 O 0.49603 -0.02058 0.13397
 O340 O 0.52239 0.03989 0.10530
 O341 O 0.56325 0.04191 -0.19590
 O342 O 0.55775 0.08366 -0.12212
 C343 C 0.57087 0.07411 -0.18342
 O344 O 0.41123 -0.06557 -0.11703
 O345 O 0.42876 -0.09455 -0.02703
 C346 C 0.40742 -0.09417 -0.08337
 O347 O 0.45130 0.03146 -0.15340
 O348 O 0.50364 0.07839 -0.10444
 C349 C 0.47487 0.06488 -0.14952
 O350 O 0.51766 -0.05663 -0.15585
 O351 O 0.47891 -0.09037 -0.04802
 C352 C 0.49704 -0.08658 -0.11689
 Zr353 Zr 0.52864 -0.00511 -0.12605
 O354 O 0.51900 -0.01253 -0.26162
 O355 O 0.57625 -0.00368 -0.14260
 Zr356 Zr 0.45045 -0.01186 -0.09469
 O357 O 0.43876 -0.01935 -0.22930
 O358 O 0.40048 -0.01946 -0.06893
 Zr359 Zr 0.47625 -0.05116 0.01982
 Zr360 Zr 0.52117 0.05159 -0.02687
 O361 O 0.50127 0.02014 -0.13958
 O362 O 0.47471 -0.04046 -0.11324
 O363 O 0.55723 0.03495 -0.03570
 O364 O 0.44088 -0.03373 0.02810
 O365 O 0.53014 -0.02630 -0.00791
 O366 O 0.46715 0.02728 0.00031
 H367 H 0.53344 0.05932 0.14848
 H368 H 0.41598 -0.05111 0.04221
 H369 H 0.50387 0.03155 -0.19675
 H370 H 0.54132 -0.04047 -0.00831
 H371 H 0.41579 0.01305 0.09916
 H372 H 0.40419 0.00329 -0.04811
 H373 H 0.44523 -0.03613 -0.25059
 H374 H 0.49623 -0.03488 -0.26998
 H375 H 0.59476 0.01757 -0.11186
 H376 H 0.60704 0.01910 0.11528
 H377 H 0.54139 0.00855 0.25505
 H378 H 0.48905 0.00465 0.27654
 C379 C 1.17857 0.51570 0.29586
 C380 C 1.14390 0.49347 0.29146
 C381 C 1.12263 0.49689 0.22366
 C382 C 1.08791 0.47447 0.22195
 H383 H 1.13101 0.47266 0.33962
 H384 H 1.13510 0.51869 0.17807
 H385 H 1.19202 0.53554 0.24584
 H386 H 1.07585 0.45337 0.26954
 C387 C 0.51552 0.68257 0.28132
 C388 C 0.51412 0.65206 0.29203
 C389 C 0.51607 0.63234 0.21794
 C390 C 0.52901 0.61169 0.23030
 H391 H 0.51046 0.64027 0.35565
 H392 H 0.50626 0.63405 0.15478
 H393 H 0.51565 0.69082 0.21485
 H394 H 0.53996 0.61169 0.29333
 C395 C 0.35516 -0.19535 0.27777
 C396 C 0.37164 -0.16060 0.29465
 C397 C 0.39389 -0.13407 0.23003
 C398 C 0.40691 -0.09975 0.24512
 H399 H 0.36783 -0.15121 0.35626
 H400 H 0.39980 -0.14271 0.17001
 H401 H 0.35646 -0.20340 0.21207
 H402 H 0.40014 -0.09144 0.30435
 C403 C 0.81841 0.48584 0.27081
 C404 C 0.85266 0.51003 0.26384
 C405 C 0.87456 0.50763 0.19573
 C406 C 0.90866 0.53257 0.18888
 H407 H 0.86482 0.53154 0.31045
 H408 H 0.86326 0.48426 0.15495
 H409 H 0.80554 0.46505 0.22261
 H410 H 0.91970 0.55531 0.23176
 C411 C 0.48173 0.31500 0.25766
 C412 C 0.46128 0.32841 0.24975
 C413 C 0.46737 0.35402 0.18027
 C414 C 0.44686 0.36746 0.17337
 H415 H 0.44110 0.32187 0.29799
 H416 H 0.49056 0.36422 0.13986
 H417 H 0.50104 0.32026 0.20792
 H418 H 0.42420 0.35745 0.21562
 C419 C 0.63933 0.18580 0.27457
 C420 C 0.64604 0.17701 0.19719
 C421 C 0.61735 0.14895 0.14546
 C422 C 0.62240 0.12677 0.09871
 H423 H 0.67296 0.18824 0.17605
 H424 H 0.59091 0.14345 0.15473
 H425 H 0.61266 0.17207 0.29914
 H426 H 0.64806 0.12984 0.09740
 C427 C 0.50183 0.17854 -0.27265
 C428 C 0.48541 0.14329 -0.27503
 C429 C 0.49001 0.12303 -0.20658
 C430 C 0.46883 0.08796 -0.20503
 H431 H 0.46770 0.12877 -0.32836
 H432 H 0.51156 0.13648 -0.16080
 H433 H 0.51516 0.19186 -0.21293
 H434 H 0.44698 0.07522 -0.25026
 C435 C 0.67718 0.50487 -0.27299
 C436 C 0.64335 0.48241 -0.25401
 C437 C 0.62432 0.49294 -0.19606
 C438 C 0.59262 0.46905 -0.16553
 H439 H 0.62910 0.45659 -0.28466
 H440 H 0.63557 0.52075 -0.18206
 H441 H 0.69173 0.52830 -0.23299
 H442 H 0.58220 0.44116 -0.17606
 C443 C 0.83181 0.34552 -0.34010
 C444 C 0.83789 0.34481 -0.25497
 C445 C 0.87185 0.37277 -0.21865
 C446 C 0.87370 0.39070 -0.14713
 H447 H 0.81997 0.32362 -0.21263
 H448 H 0.89554 0.38036 -0.25499
 H449 H 0.85266 0.36799 -0.37488
 H450 H 0.84968 0.38490 -0.11508
 C451 C 0.53908 -0.15133 -0.27744
 C452 C 0.51289 -0.15087 -0.23823
 C453 C 0.51889 -0.11856 -0.19654
 C454 C 0.49316 -0.11882 -0.15293
 H455 H 0.48632 -0.17354 -0.24371
 H456 H 0.54409 -0.09415 -0.20394
 H457 H 0.56541 -0.12818 -0.27541
 H458 H 0.46863 -0.14356 -0.14185
 C459 C 0.32720 0.50106 -0.26448
 C460 C 0.36136 0.52486 -0.25380
 C461 C 0.38271 0.51632 -0.19946
 C462 C 0.41590 0.54034 -0.17973
 H463 H 0.37399 0.54944 -0.29008
 H464 H 0.37152 0.48916 -0.17857
 H465 H 0.31484 0.47894 -0.21990
 H466 H 0.42701 0.56799 -0.19509
 C467 C 1.17576 0.67189 -0.30520
 C468 C 1.16495 0.64094 -0.26680
 C469 C 1.13227 0.62238 -0.21640
 C470 C 1.12513 0.59418 -0.16971
 H471 H 1.18016 0.62854 -0.27440
 H472 H 1.11367 0.63093 -0.21978
 H473 H 1.16330 0.68617 -0.28645
 H474 H 1.14474 0.58701 -0.16395
 C475 C 0.82083 0.48946 -0.27541
 C476 C 0.85498 0.50136 -0.28430
 C477 C 0.87604 0.50080 -0.21128
 C478 C 0.91096 0.51927 -0.21719
 H479 H 0.86821 0.51333 -0.34506
 H480 H 0.86310 0.48475 -0.15442
 H481 H 0.80985 0.48223 -0.21043
 H482 H 0.92316 0.53541 -0.27447
 C483 C 0.49609 0.32888 -0.28717
 C484 C 0.47864 0.34567 -0.29003
 C485 C 0.48116 0.36840 -0.21716
 C486 C 0.45956 0.38048 -0.21198
 H487 H 0.46142 0.34163 -0.34430
 H488 H 0.50202 0.37667 -0.16973
 H489 H 0.50954 0.33056 -0.22690
 H490 H 0.43918 0.37250 -0.26066
 C491 C 0.66991 0.18558 -0.28573
 C492 C 0.63552 0.16134 -0.29173
 C493 C 0.61623 0.13499 -0.22359
 C494 C 0.59451 0.10114 -0.24594
 H495 H 0.62111 0.15924 -0.35033
 H496 H 0.61967 0.14316 -0.15600
 H497 H 0.68351 0.18789 -0.22536
 H498 H 0.59367 0.09303 -0.31291
 C499 C 1.17736 0.50494 -0.24915
 C500 C 1.14236 0.48925 -0.25145
 C501 C 1.12253 0.49018 -0.17555
 C502 C 1.08839 0.46576 -0.16661
 H503 H 1.12792 0.47461 -0.30885
 H504 H 1.13537 0.51228 -0.13078
 H505 H 1.19009 0.51478 -0.18658
 H506 H 1.07635 0.44386 -0.21215
 C507 C 0.51683 0.68263 -0.27016
 C508 C 0.53829 0.67113 -0.25100
 C509 C 0.52823 0.64253 -0.18685
 C510 C 0.54896 0.62970 -0.17371
 H511 H 0.56414 0.68364 -0.27943
 H512 H 0.50281 0.63027 -0.15537
 H513 H 0.49407 0.67360 -0.22875
 H514 H 0.57355 0.64124 -0.20898
 C515 C 0.33749 -0.16968 -0.31321
 C516 C 0.33623 -0.16641 -0.22690
 C517 C 0.36090 -0.13175 -0.18725
 C518 C 0.37757 -0.12864 -0.11250
 H519 H 0.32017 -0.18919 -0.18605
 H520 H 0.36866 -0.10834 -0.22576
 H521 H 0.35788 -0.14668 -0.34772
 H522 H 0.37164 -0.15217 -0.07696
 C523 C 0.49374 -0.17581 0.28572
 C524 C 0.51739 -0.14400 0.25424
 C525 C 0.50719 -0.12320 0.20138
 C526 C 0.52937 -0.08830 0.19428
 H527 H 0.54463 -0.13186 0.27392
 H528 H 0.48133 -0.13595 0.17201
 H529 H 0.46652 -0.18859 0.26567
 H530 H 0.55459 -0.07608 0.22700
 C531 C 0.32167 0.49416 0.28815
 C532 C 0.35380 0.51800 0.25911
 C533 C 0.37433 0.50702 0.20778
 C534 C 0.40575 0.53080 0.17491
 H535 H 0.36602 0.54535 0.27926
 H536 H 0.36415 0.47906 0.19950
 H537 H 0.30903 0.46693 0.26685
 H538 H 0.41518 0.55870 0.18004
 C539 C 1.20394 0.63509 0.28283
 C540 C 1.17974 0.63858 0.24141
 C541 C 1.15119 0.60975 0.19023
 C542 C 1.12324 0.61166 0.16994
 H543 H 1.17956 0.66264 0.25107
 H544 H 1.15179 0.58631 0.17493
 H545 H 1.20364 0.61064 0.27867
 H546 H 1.12253 0.63458 0.19056
 C547 C 0.46061 0.14882 0.29669
 C548 C 0.48115 0.15013 0.23224
 C549 C 0.47589 0.11727 0.19442
 C550 C 0.49837 0.11820 0.13600
 H551 H 0.50381 0.17535 0.21336
 H552 H 0.45452 0.09208 0.21795
 H553 H 0.43915 0.12344 0.31897
 H554 H 0.51938 0.14350 0.11193
 C555 C 0.67190 0.50158 0.28131
 C556 C 0.64007 0.47637 0.25403
 C557 C 0.61791 0.48594 0.20590
 C558 C 0.58644 0.46151 0.17482
 H559 H 0.62940 0.44920 0.27369
 H560 H 0.62703 0.51371 0.19844
 H561 H 0.68286 0.52870 0.26078
 H562 H 0.57777 0.43376 0.17790
 C563 C 0.79468 0.34761 0.23450
 C564 C 0.81803 0.38158 0.25067
 C565 C 0.84643 0.40254 0.18926
 C566 C 0.87931 0.41774 0.21844
 H567 H 0.82084 0.39163 0.31645
 H568 H 0.84088 0.40213 0.12044
 H569 H 0.79191 0.33719 0.16921
 H570 H 0.88400 0.41500 0.28645
   
