data_POSCAR
  _audit_creation_date              2014-09-24
  _audit_creation_method            'ToBaCCo'
  _symmetry_space_group_name_H-M    'P1'
  _symmetry_Int_Tables_number       1
  _symmetry_cell_setting            triclinic
  loop_
  _symmetry_equiv_pos_as_xyz
 x,y,z
_cell_length_a 40.6658
_cell_length_b 40.5355
_cell_length_c 40.5412
_cell_angle_alpha 90.005600
_cell_angle_beta 89.931600
_cell_angle_gamma 89.944400
loop_
  _atom_site_label
  _atom_site_type_symbol
  _atom_site_fract_x
  _atom_site_fract_y
  _atom_site_fract_z
C1 C 0.18893 1.23233 0.18970
 C2 C 0.17464 1.21843 0.21795
 C3 C 0.18853 1.19022 0.23234
 C4 C 0.21680 1.17600 0.21850
 C5 C 0.23109 1.18988 0.19028
 C6 C 0.21720 1.21806 0.17592
 H7 H 0.15241 1.22912 0.22830
 H8 H 0.22728 1.15383 0.22921
 H9 H 0.22798 1.22838 0.15371
 C10 C 0.81117 0.76677 0.18954
 C11 C 0.78289 0.78074 0.17554
 C12 C 0.76869 0.80892 0.18964
 C13 C 0.78270 0.82308 0.21784
 C14 C 0.81094 0.80915 0.23188
 C15 C 0.82514 0.78098 0.21777
 H16 H 0.77234 0.77018 0.15335
 H17 H 0.77207 0.84525 0.22840
 H18 H 0.84737 0.77060 0.22834
 C19 C 0.81068 1.23225 -0.18922
 C20 C 0.82467 1.21809 -0.21751
 C21 C 0.81053 1.18989 -0.23163
 C22 C 0.78230 1.17595 -0.21748
 C23 C 0.76831 1.19008 -0.18922
 C24 C 0.78246 1.21825 -0.17514
 H25 H 0.84687 1.22856 -0.22810
 H26 H 0.77163 1.15378 -0.22797
 H27 H 0.77190 1.22878 -0.15290
 C28 C 0.18960 0.76867 -0.19125
 C29 C 0.17555 0.78295 -0.21937
 C30 C 0.18960 0.81127 -0.23336
 C31 C 0.21782 0.82518 -0.21922
 C32 C 0.23187 0.81090 -0.19110
 C33 C 0.21779 0.78262 -0.17716
 H34 H 0.15337 0.77245 -0.22987
 H35 H 0.22843 0.84744 -0.22961
 H36 H 0.22831 0.77192 -0.15503
 C37 C 0.55021 1.04521 -0.00901
 H38 H 0.55075 1.04493 0.01767
 C39 C 0.57290 1.06422 -0.02651
 H40 H 0.59094 1.07875 -0.01331
 C41 C 0.52679 1.02570 -0.05890
 H42 H 0.50929 1.01009 -0.07143
 C43 C 0.54908 1.04435 -0.07736
 H44 H 0.54850 1.04329 -0.10405
 N45 N 0.52770 1.02653 -0.02534
 C46 C 0.44969 1.00905 0.04638
 H47 H 0.44914 0.98236 0.04614
 C48 C 0.42697 1.02658 0.06538
 H49 H 0.40890 1.01340 0.07995
 C50 C 0.47312 1.05892 0.02677
 H51 H 0.49063 1.07142 0.01111
 C52 C 0.45080 1.07741 0.04541
 H53 H 0.45137 1.10410 0.04428
 Zn54 Zn 0.49995 0.99945 0.00053
 N55 N 0.47220 1.02535 0.02765
 C56 C 0.52676 0.97319 0.05992
 N57 N 0.52766 0.97231 0.02635
 C58 C 0.55016 0.95357 0.00999
 C59 C 0.57286 0.93454 0.02745
 C60 C 0.54907 0.95452 0.07834
 C61 C 0.44973 0.99005 -0.04525
 C62 C 0.42707 0.97262 -0.06431
 C63 C 0.45086 0.92168 -0.04449
 C64 C 0.47313 0.94008 -0.02578
 N65 N 0.47222 0.97365 -0.02658
 H66 H 0.50926 0.98885 0.07247
 H67 H 0.55071 0.95381 -0.01669
 H68 H 0.59091 0.91997 0.01422
 H69 H 0.54850 0.95563 0.10504
 H70 H 0.44919 1.01673 -0.04494
 H71 H 0.40905 0.98588 -0.07885
 H72 H 0.45144 0.89499 -0.04346
 H73 H 0.49061 0.92750 -0.01017
 C74 C 0.42745 1.06105 0.06476
 C75 C 0.57241 1.06366 -0.06098
 C76 C 0.42756 0.93814 -0.06380
 C77 C 0.57240 0.93515 0.06192
 C78 C -0.00927 0.55002 1.04509
 H79 H 0.01732 0.55061 1.04485
 C80 C -0.02679 0.57277 1.06409
 H81 H -0.01369 0.59090 1.07865
 C82 C -0.05893 0.52644 1.02552
 H83 H -0.07136 0.50885 1.00989
 C84 C -0.07741 0.54879 1.04416
 H85 H -0.10402 0.54816 1.04307
 N86 N -0.02548 0.52741 1.02640
 C87 C 0.04613 0.44917 1.00908
 H88 H 0.04597 0.44857 0.98240
 C89 C 0.06504 0.42645 1.02666
 H90 H 0.07963 0.40832 1.01352
 C91 C 0.02640 0.47276 1.05889
 H92 H 0.01074 0.49033 1.07135
 C93 C 0.04496 0.45043 1.07743
 H94 H 0.04376 0.45106 1.10412
 Zn95 Zn 0.00041 0.49955 0.99937
 N96 N 0.02739 0.47177 1.02533
 C97 C 0.05970 0.52644 0.97321
 N98 N 0.02624 0.52734 0.97228
 C99 C 0.00998 0.54988 0.95350
 C100 C 0.02744 0.57263 0.93449
 C101 C 0.07812 0.54879 0.95456
 C102 C -0.04517 0.44913 0.98987
 C103 C -0.06410 0.42637 0.97239
 C104 C -0.04418 0.45021 0.92152
 C105 C -0.02560 0.47257 0.93995
 N106 N -0.02650 0.47168 0.97352
 H107 H 0.07216 0.50891 0.98889
 H108 H -0.01662 0.55042 0.95371
 H109 H 0.01430 0.59070 0.91988
 H110 H 0.10473 0.54822 0.95571
 H111 H -0.04495 0.44860 1.01655
 H112 H -0.07864 0.40829 0.98561
 H113 H -0.04307 0.45078 0.89482
 H114 H -0.01001 0.49011 0.92742
 C115 C 0.06433 0.42700 1.06113
 C116 C -0.06116 0.57223 1.06350
 C117 C -0.06349 0.42684 0.93792
 C118 C 0.06181 0.57216 0.93515
 C119 C 1.04535 -0.00857 0.55048
 H120 H 1.04508 0.01811 0.55110
 C121 C 1.06435 -0.02612 0.57316
 H122 H 1.07888 -0.01295 0.59125
 C123 C 1.02584 -0.05842 0.52692
 H124 H 1.01024 -0.07091 0.50938
 C125 C 1.04449 -0.07693 0.54920
 H126 H 1.04342 -0.10362 0.54855
 N127 N 1.02668 -0.02485 0.52792
 C128 C 1.00914 0.04692 0.44980
 H129 H 0.98254 0.04670 0.44928
 C130 C 1.02658 0.06592 0.42702
 H131 H 1.01342 0.08050 0.40894
 C132 C 1.05889 0.02725 0.47321
 H133 H 1.07137 0.01159 0.49073
 C134 C 1.07728 0.04590 0.45083
 H135 H 1.10390 0.04476 0.45137
 Zn136 Zn 0.99965 0.00107 0.50017
 N137 N 1.02542 0.02817 0.47234
 C138 C 0.97351 0.06050 0.52717
 N139 N 0.97265 0.02693 0.52806
 C140 C 0.95400 0.01060 0.55065
 C141 C 0.93506 0.02809 0.57346
 C142 C 0.95493 0.07896 0.54959
 C143 C 0.99017 -0.04469 0.44975
 C144 C 0.97274 -0.06374 0.42705
 C145 C 0.92202 -0.04388 0.45107
 C146 C 0.94041 -0.02518 0.47338
 N147 N 0.97387 -0.02600 0.47237
 H148 H 0.98909 0.07303 0.50960
 H149 H 0.95426 -0.01609 0.55118
 H150 H 0.92056 0.01488 0.59158
 H151 H 0.95602 0.10565 0.54903
 H152 H 1.01676 -0.04440 0.44913
 H153 H 0.98592 -0.07829 0.40892
 H154 H 0.89541 -0.04284 0.45174
 H155 H 0.92791 -0.00956 0.49097
 C156 C 1.06095 0.06528 0.42746
 C157 C 1.06379 -0.06059 0.57258
 C158 C 0.93837 -0.06322 0.42764
 C159 C 0.93565 0.06257 0.57301
 C160 C 0.14418 0.30815 1.14347
 C161 C 0.10734 0.30173 1.13840
 C162 C 0.09155 0.32645 1.12209
 C163 C 0.11411 0.35521 1.11242
 C164 C 0.14206 0.33936 1.09245
 C165 C 0.15786 0.31462 1.10877
 C166 C 0.14596 0.34158 1.16117
 C167 C 0.13013 0.36635 1.14483
 C168 C 0.16098 0.28123 1.16081
 C169 C 0.17432 0.25853 1.17460
 C170 C 0.09688 0.38156 1.09464
 C171 C 0.08227 0.40261 1.07958
 H172 H 0.09476 0.27970 1.14690
 H173 H 0.06543 0.32560 1.11663
 H174 H 0.14886 0.34694 1.06768
 H175 H 0.17821 0.30101 1.09798
 H176 H 0.15854 0.34547 1.18446
 H177 H 0.12915 0.39146 1.15412
 C178 C -0.14302 0.69101 1.14416
 C179 C -0.12916 0.70127 1.11047
 C180 C -0.11296 0.67657 1.09449
 C181 C -0.11219 0.64398 1.11373
 C182 C -0.14838 0.63603 1.12105
 C183 C -0.16461 0.66077 1.13705
 C184 C -0.11339 0.67750 1.16332
 C185 C -0.09718 0.65277 1.14733
 C186 C -0.16024 0.71790 1.16116
 C187 C -0.17390 0.74058 1.17470
 C188 C -0.09452 0.61765 1.09631
 C189 C -0.07954 0.59661 1.08157
 H190 H -0.13185 0.72580 1.10006
 H191 H -0.10178 0.67995 1.07039
 H192 H -0.16021 0.61300 1.11427
 H193 H -0.19033 0.65895 1.14400
 H194 H -0.10583 0.68653 1.18736
 H195 H -0.07573 0.64062 1.15766
 C196 C -0.14396 0.30802 0.85635
 C197 C -0.16634 0.32823 0.87924
 C198 C -0.15037 0.35297 0.89539
 C199 C -0.11360 0.35507 0.88705
 C200 C -0.11216 0.35818 0.84933
 C201 C -0.12813 0.33343 0.83318
 C202 C -0.11582 0.29589 0.87845
 C203 C -0.09988 0.32060 0.89457
 C204 C -0.16094 0.28112 0.83921
 C205 C -0.17447 0.25843 0.82561
 C206 C -0.09621 0.38141 0.90465
 C207 C -0.08151 0.40245 0.91958
 H208 H -0.19243 0.32354 0.88245
 H209 H -0.16278 0.36949 0.91243
 H210 H -0.09972 0.37808 0.83646
 H211 H -0.12938 0.33212 0.80646
 H212 H -0.10901 0.27014 0.88119
 H213 H -0.07941 0.31600 0.91113
 C214 C 0.14327 0.69118 0.85470
 C215 C 0.14812 0.65719 0.83868
 C216 C 0.13198 0.63238 0.85464
 C217 C 0.11261 0.64403 0.88503
 C218 C 0.08976 0.67131 0.87220
 C219 C 0.10587 0.69608 0.85627
 C220 C 0.15402 0.68671 0.89071
 C221 C 0.13791 0.66193 0.90664
 C222 C 0.16038 0.71814 0.83776
 C223 C 0.17397 0.74088 0.82429
 C224 C 0.09504 0.61764 0.90240
 C225 C 0.08013 0.59657 0.91710
 H226 H 0.16291 0.65299 0.81677
 H227 H 0.13295 0.60691 0.84640
 H228 H 0.06324 0.67117 0.87532
 H229 H 0.09314 0.71715 0.84575
 H230 H 0.17269 0.70166 0.90262
 H231 H 0.14278 0.65565 0.93221
 C232 C 1.14263 0.14538 0.30831
 C233 C 1.12348 0.16870 0.33121
 C234 C 1.10728 0.15284 0.35603
 C235 C 1.11183 0.11524 0.35550
 C236 C 1.14920 0.10983 0.35602
 C237 C 1.16540 0.12568 0.33121
 C238 C 1.11711 0.12034 0.29611
 C239 C 1.10094 0.10451 0.32089
 C240 C 1.15984 0.16222 0.28134
 C241 C 1.17354 0.17560 0.25859
 C242 C 1.09419 0.09795 0.38191
 C243 C 1.07926 0.08329 0.40301
 H244 H 1.12275 0.19530 0.32821
 H245 H 1.09266 0.16586 0.37429
 H246 H 1.16182 0.09490 0.37429
 H247 H 1.19190 0.12434 0.32821
 H248 H 1.11217 0.11547 0.27025
 H249 H 1.08214 0.08608 0.31625
 C250 C 1.14436 -0.14270 0.69104
 C251 C 1.10888 -0.15444 0.68579
 C252 C 1.09291 -0.13817 0.66113
 C253 C 1.11399 -0.11176 0.64413
 C254 C 1.14501 -0.13003 0.63252
 C255 C 1.16100 -0.14631 0.65721
 C256 C 1.14163 -0.10537 0.69674
 C257 C 1.12567 -0.08911 0.67209
 C258 C 1.16133 -0.15998 0.71787
 C259 C 1.17483 -0.17372 0.74051
 C260 C 1.09659 -0.09403 0.61787
 C261 C 1.08186 -0.07901 0.59689
 H262 H 1.09732 -0.17385 0.70014
 H263 H 1.06768 -0.14366 0.65436
 H264 H 1.15365 -0.13017 0.60717
 H265 H 1.18333 -0.16040 0.65302
 H266 H 1.15141 -0.09279 0.71824
 H267 H 1.12178 -0.06261 0.67248
 C268 C 0.85711 -0.14434 0.30907
 C269 C 0.86894 -0.16721 0.33682
 C270 C 0.88502 -0.15110 0.36153
 C271 C 0.88768 -0.11372 0.35603
 C272 C 0.85215 -0.10191 0.35104
 C273 C 0.83607 -0.11801 0.32634
 C274 C 0.88805 -0.12603 0.29748
 C275 C 0.90410 -0.10995 0.32214
 C276 C 0.84004 -0.16145 0.28221
 C277 C 0.82650 -0.17509 0.25956
 C278 C 0.90521 -0.09619 0.38232
 C279 C 0.92009 -0.08137 0.40331
 H280 H 0.86500 -0.19369 0.33706
 H281 H 0.89487 -0.16379 0.38294
 H282 H 0.84063 -0.08264 0.36564
 H283 H 0.81077 -0.11254 0.31978
 H284 H 0.89661 -0.12572 0.27210
 H285 H 0.92642 -0.09588 0.31789
 C286 C 0.85552 0.14422 0.69229
 C287 C 0.86308 0.10796 0.70016
 C288 C 0.87895 0.09182 0.67534
 C289 C 0.88572 0.11348 0.64505
 C290 C 0.90474 0.14332 0.65839
 C291 C 0.88886 0.15948 0.68323
 C292 C 0.83608 0.14336 0.65985
 C293 C 0.85197 0.12719 0.63499
 C294 C 0.83865 0.16138 0.71930
 C295 C 0.82523 0.17500 0.74208
 C296 C 0.90302 0.09587 0.61860
 C297 C 0.91767 0.08092 0.59748
 H298 H 0.85652 0.09600 0.72321
 H299 H 0.88597 0.06603 0.67714
 H300 H 0.92855 0.15111 0.64912
 H301 H 0.89908 0.18111 0.69523
 H302 H 0.81199 0.15448 0.65669
 H303 H 0.84150 0.12445 0.61053
 C304 C 0.30851 1.14306 0.14476
 C305 C 0.31571 1.10876 0.15907
 C306 C 0.34048 1.09251 0.14325
 C307 C 0.35562 1.11216 0.11466
 C308 C 0.36634 1.14507 0.12998
 C309 C 0.34155 1.16134 0.14582
 C310 C 0.30180 1.13713 0.10800
 C311 C 0.32654 1.12090 0.09218
 C312 C 0.28157 1.16033 0.16158
 C313 C 0.25885 1.17406 0.17492
 C314 C 0.38199 1.09445 0.09740
 C315 C 0.40305 1.07945 0.08276
 H316 H 0.30256 1.09817 0.17984
 H317 H 0.34853 1.06801 0.15046
 H318 H 0.39119 1.15474 0.12852
 H319 H 0.34515 1.18494 0.15794
 H320 H 0.27956 1.14503 0.09546
 H321 H 0.32550 1.11489 0.06610
 C322 C 0.69106 1.14413 -0.14271
 C323 C 0.69445 1.10642 -0.14320
 C324 C 0.66976 1.09049 -0.12704
 C325 C 0.64407 1.11380 -0.11194
 C326 C 0.63207 1.13516 -0.14081
 C327 C 0.65680 1.15113 -0.15700
 C328 C 0.68848 1.15329 -0.10606
 C329 C 0.66379 1.13735 -0.08989
 C330 C 0.71794 1.16108 -0.15990
 C331 C 0.74060 1.17455 -0.17353
 C332 C 0.61777 1.09643 -0.09430
 C333 C 0.59675 1.08172 -0.07934
 H334 H 0.71447 1.09337 -0.15524
 H335 H 0.66864 1.06379 -0.12522
 H336 H 0.60644 1.13754 -0.14789
 H337 H 0.65237 1.16718 -0.17796
 H338 H 0.70461 1.17080 -0.09389
 H339 H 0.65876 1.14120 -0.06387
 C340 C 0.30906 0.85695 -0.14476
 C341 C 0.34318 0.85094 -0.15988
 C342 C 0.36789 0.86701 -0.14380
 C343 C 0.35600 0.88747 -0.11422
 C344 C 0.33713 0.86305 -0.09234
 C345 C 0.31245 0.84701 -0.10839
 C346 C 0.30496 0.89458 -0.14430
 C347 C 0.32962 0.91062 -0.12826
 C348 C 0.28220 0.83991 -0.16183
 C349 C 0.25956 0.82641 -0.17541
 C350 C 0.38228 0.90498 -0.09673
 C351 C 0.40326 0.91985 -0.08194
 H352 H 0.34755 0.83545 -0.18128
 H353 H 0.39343 0.86528 -0.15144
 H354 H 0.34269 0.85870 -0.06651
 H355 H 0.29688 0.82892 -0.09631
 H356 H 0.28449 0.90752 -0.15564
 H357 H 0.33027 0.93729 -0.12585
 C358 C 0.69130 0.85481 0.14337
 C359 C 0.67997 0.83713 0.11189
 C360 C 0.65520 0.85305 0.09577
 C361 C 0.64420 0.88508 0.11272
 C362 C 0.67563 0.90572 0.11611
 C363 C 0.70037 0.88982 0.13221
 C364 C 0.66002 0.85900 0.16422
 C365 C 0.63524 0.87493 0.14809
 C366 C 0.71823 0.83790 0.16047
 C367 C 0.74094 0.82444 0.17404
 C368 C 0.61783 0.90242 0.09515
 C369 C 0.59678 0.91712 0.08024
 H370 H 0.69044 0.81412 0.10305
 H371 H 0.64447 0.84367 0.07314
 H372 H 0.67823 0.93066 0.10671
 H373 H 0.72415 0.90115 0.13659
 H374 H 0.65756 0.85023 0.18940
 H375 H 0.61154 0.87980 0.15945
   
