data_POSCAR
  _audit_creation_date              2014-09-24
  _audit_creation_method            'ToBaCCo'
  _symmetry_space_group_name_H-M    'P1'
  _symmetry_Int_Tables_number       1
  _symmetry_cell_setting            triclinic
  loop_
  _symmetry_equiv_pos_as_xyz
 x,y,z
_cell_length_a 48.3793
_cell_length_b 48.6287
_cell_length_c 49.9536
_cell_angle_alpha 90.396000
_cell_angle_beta 90.179600
_cell_angle_gamma 90.003500
loop_
  _atom_site_label
  _atom_site_type_symbol
  _atom_site_fract_x
  _atom_site_fract_y
  _atom_site_fract_z
N1 N 0.29176 0.23527 0.21568
 N2 N 0.27992 0.25740 0.20593
 C3 C 0.29375 0.26540 0.18397
 C4 C 0.31539 0.24729 0.17960
 C5 C 0.31342 0.22837 0.20013
 H6 H 0.28838 0.28299 0.17193
 H7 H 0.32703 0.21117 0.20381
 Cu8 Cu 0.24768 0.27374 0.22299
 Cu9 Cu 0.27856 0.21745 0.24816
 Cu10 Cu 0.22090 0.24625 0.27852
 N11 N 0.21504 0.28944 0.23995
 N12 N 0.20497 0.27871 0.26193
 C13 C 0.18305 0.29359 0.27000
 C14 C 0.17899 0.31481 0.25208
 C15 C 0.19967 0.31148 0.23319
 H16 H 0.17082 0.28913 0.28751
 H17 H 0.20353 0.32445 0.21611
 N18 N 0.23981 0.21343 0.29240
 N19 N 0.26195 0.20256 0.28115
 C20 C 0.26999 0.18059 0.29558
 C21 C 0.25189 0.17740 0.31678
 C22 C 0.23309 0.19862 0.31407
 H23 H 0.28744 0.16759 0.29080
 H24 H 0.21590 0.20311 0.32715
 H25 H 0.23803 0.22969 0.24400
 H26 H 0.26094 0.25202 0.26498
 N27 N 0.71295 -0.22784 0.20746
 N28 N 0.72470 -0.25021 0.19805
 C29 C 0.70967 -0.25995 0.17735
 C30 C 0.68729 -0.24247 0.17320
 C31 C 0.69027 -0.22225 0.19285
 H32 H 0.71513 -0.27808 0.16593
 H33 H 0.67689 -0.20488 0.19666
 Cu34 Cu 0.75929 -0.26377 0.21285
 Cu35 Cu 0.72815 -0.20758 0.23786
 Cu36 Cu 0.77740 -0.24293 0.27476
 N37 N 0.78726 -0.28307 0.23342
 N38 N 0.79363 -0.27532 0.25789
 C39 C 0.81310 -0.29227 0.26768
 C40 C 0.81955 -0.31183 0.24823
 C41 C 0.80255 -0.30518 0.22669
 H42 H 0.82217 -0.28998 0.28734
 H43 H 0.80107 -0.31563 0.20759
 N44 N 0.75875 -0.20950 0.28803
 N45 N 0.74011 -0.19600 0.27396
 C46 C 0.73133 -0.17417 0.28833
 C47 C 0.74538 -0.17370 0.31251
 C48 C 0.76261 -0.19639 0.31158
 H49 H 0.71609 -0.15949 0.28156
 H50 H 0.77677 -0.20296 0.32705
 H51 H 0.76854 -0.22250 0.24024
 H52 H 0.74024 -0.24435 0.25375
 N53 N 0.70923 0.23373 0.78975
 N54 N 0.72207 0.25513 0.80011
 C55 C 0.70863 0.26329 0.82239
 C56 C 0.68630 0.24593 0.82629
 C57 C 0.68740 0.22740 0.80516
 H58 H 0.71467 0.28051 0.83488
 H59 H 0.67301 0.21093 0.80093
 Cu60 Cu 0.75492 0.27052 0.78336
 Cu61 Cu 0.72108 0.21623 0.75659
 Cu62 Cu 0.77776 0.24443 0.72480
 N63 N 0.78637 0.28644 0.76468
 N64 N 0.79476 0.27649 0.74160
 C65 C 0.81607 0.29163 0.73274
 C66 C 0.82168 0.31231 0.75133
 C67 C 0.80226 0.30820 0.77141
 H68 H 0.82678 0.28752 0.71420
 H69 H 0.79946 0.32036 0.78936
 N70 N 0.75788 0.21195 0.71089
 N71 N 0.73611 0.20136 0.72286
 C72 C 0.72695 0.17970 0.70840
 C73 C 0.74386 0.17635 0.68632
 C74 C 0.76327 0.19717 0.68860
 H75 H 0.70947 0.16706 0.71371
 H76 H 0.77987 0.20144 0.67481
 H77 H 0.76226 0.22723 0.75936
 H78 H 0.73896 0.25120 0.74086
 N79 N 0.29402 -0.23680 0.78253
 N80 N 0.28100 -0.25784 0.79300
 C81 C 0.29452 -0.26581 0.81525
 C82 C 0.31712 -0.24872 0.81906
 C83 C 0.31608 -0.23050 0.79789
 H84 H 0.28833 -0.28269 0.82785
 H85 H 0.33064 -0.21425 0.79364
 Cu86 Cu 0.24774 -0.27305 0.77659
 Cu87 Cu 0.28191 -0.21978 0.74932
 Cu88 Cu 0.22421 -0.24781 0.71822
 N89 N 0.21567 -0.28879 0.75847
 N90 N 0.20695 -0.27924 0.73542
 C91 C 0.18517 -0.29425 0.72702
 C92 C 0.17966 -0.31438 0.74592
 C93 C 0.19958 -0.31010 0.76564
 H94 H 0.17411 -0.29045 0.70861
 H95 H 0.20262 -0.32187 0.78366
 N96 N 0.24442 -0.21594 0.70389
 N97 N 0.26654 -0.20541 0.71560
 C98 C 0.27565 -0.18407 0.70099
 C99 C 0.25834 -0.18086 0.67910
 C100 C 0.23877 -0.20144 0.68165
 H101 H 0.29332 -0.17147 0.70611
 H102 H 0.22179 -0.20569 0.66813
 H103 H 0.24062 -0.23011 0.75248
 H104 H 0.26325 -0.25474 0.73385
 N105 N 0.70332 -0.23871 0.77986
 N106 N 0.71530 -0.26001 0.79099
 C107 C 0.70152 -0.26654 0.81347
 C108 C 0.67987 -0.24817 0.81665
 C109 C 0.68171 -0.23079 0.79492
 H110 H 0.70695 -0.28321 0.82668
 H111 H 0.66804 -0.21392 0.79014
 Cu112 Cu 0.74776 -0.27704 0.77508
 Cu113 Cu 0.71618 -0.22313 0.74647
 Cu114 Cu 0.77273 -0.25409 0.71635
 N115 N 0.77905 -0.29452 0.75754
 N116 N 0.78842 -0.28587 0.73444
 C117 C 0.80968 -0.30193 0.72677
 C118 C 0.81412 -0.32175 0.74625
 C119 C 0.79413 -0.31623 0.76547
 H120 H 0.82122 -0.29895 0.70854
 H121 H 0.79047 -0.32732 0.78377
 N122 N 0.75389 -0.22168 0.70130
 N123 N 0.73211 -0.21026 0.71268
 C124 C 0.72363 -0.18898 0.69770
 C125 C 0.74093 -0.18672 0.67588
 C126 C 0.75997 -0.20774 0.67883
 H127 H 0.70639 -0.17574 0.70255
 H128 H 0.77679 -0.21267 0.66544
 H129 H 0.73354 -0.25919 0.73170
 H130 H 0.75714 -0.23515 0.75010
 N131 N 0.30333 0.24225 0.77456
 N132 N 0.29285 0.26508 0.78437
 C133 C 0.30685 0.27213 0.80675
 C134 C 0.32713 0.25256 0.81123
 C135 C 0.32424 0.23393 0.79034
 H136 H 0.30223 0.28979 0.81921
 H137 H 0.33649 0.21568 0.78680
 Cu138 Cu 0.26126 0.28288 0.76764
 Cu139 Cu 0.28897 0.22481 0.74233
 Cu140 Cu 0.23134 0.25421 0.71295
 N141 N 0.22803 0.29809 0.75151
 N142 N 0.21655 0.28708 0.73011
 C143 C 0.19392 0.30169 0.72352
 C144 C 0.19092 0.32291 0.74192
 C145 C 0.21297 0.31994 0.75939
 H146 H 0.18031 0.29685 0.70694
 H147 H 0.21772 0.33278 0.77653
 N148 N 0.24940 0.22093 0.69858
 N149 N 0.27161 0.21004 0.70965
 C150 C 0.27941 0.18795 0.69519
 C151 C 0.26120 0.18461 0.67403
 C152 C 0.24237 0.20587 0.67685
 H153 H 0.29687 0.17499 0.69990
 H154 H 0.22509 0.21025 0.66379
 H155 H 0.27165 0.25962 0.72538
 H156 H 0.24877 0.23878 0.74751
 N157 N 0.29702 -0.24190 0.21621
 N158 N 0.28547 -0.26420 0.20625
 C159 C 0.29970 -0.27238 0.18449
 C160 C 0.32128 -0.25418 0.18054
 C161 C 0.31889 -0.23505 0.20106
 H162 H 0.29455 -0.29005 0.17221
 H163 H 0.33228 -0.21767 0.20494
 Cu164 Cu 0.25282 -0.28022 0.22243
 Cu165 Cu 0.28311 -0.22374 0.24828
 Cu166 Cu 0.22438 -0.25142 0.27724
 N167 N 0.21942 -0.29490 0.23836
 N168 N 0.20856 -0.28381 0.25996
 C169 C 0.18594 -0.29819 0.26689
 C170 C 0.18233 -0.31937 0.24854
 C171 C 0.20397 -0.31660 0.23071
 H172 H 0.17292 -0.29337 0.28383
 H173 H 0.20833 -0.32966 0.21365
 N174 N 0.24346 -0.21872 0.29169
 N175 N 0.26594 -0.20836 0.28077
 C176 C 0.27439 -0.18661 0.29546
 C177 C 0.25633 -0.18299 0.31661
 C178 C 0.23693 -0.20370 0.31354
 H179 H 0.29228 -0.17418 0.29100
 H180 H 0.21965 -0.20783 0.32656
 H181 H 0.26456 -0.25794 0.26485
 H182 H 0.24242 -0.23589 0.24308
 N183 N 0.69641 0.24064 0.22559
 N184 N 0.70749 0.26309 0.21584
 C185 C 0.69374 0.27017 0.19341
 C186 C 0.67303 0.25100 0.18885
 C187 C 0.67539 0.23259 0.20972
 H188 H 0.69874 0.28761 0.18103
 H189 H 0.66263 0.21474 0.21325
 Cu190 Cu 0.73926 0.28040 0.23302
 Cu191 Cu 0.70992 0.22330 0.25799
 Cu192 Cu 0.76738 0.25235 0.28834
 N193 N 0.77224 0.29566 0.24984
 N194 N 0.78288 0.28479 0.27157
 C195 C 0.80524 0.29937 0.27910
 C196 C 0.80898 0.32050 0.26105
 C197 C 0.78766 0.31747 0.24270
 H198 H 0.81807 0.29467 0.29622
 H199 H 0.78352 0.33035 0.22560
 N200 N 0.74872 0.21950 0.30230
 N201 N 0.72658 0.20869 0.29089
 C202 C 0.71837 0.18683 0.30520
 C203 C 0.73627 0.18361 0.32659
 C204 C 0.75529 0.20467 0.32408
 H205 H 0.70087 0.17395 0.30023
 H206 H 0.77243 0.20907 0.33737
 H207 H 0.72736 0.25811 0.27507
 H208 H 0.75035 0.23643 0.25355
 O209 O 0.28192 0.02504 0.47070
 O210 O 0.28468 -0.02766 0.52363
 O211 O 0.28350 -0.02832 0.47140
 O212 O 0.28399 0.02582 0.52288
 O213 O 0.23843 0.02510 0.52425
 O214 O 0.23794 -0.02946 0.47249
 O215 O 0.23912 -0.02860 0.52459
 O216 O 0.23637 0.02405 0.47225
 Cu217 Cu 0.28808 -0.00120 0.49706
 Cu218 Cu 0.23340 -0.00234 0.49855
 C219 C 0.25857 0.03354 0.46243
 C220 C 0.26230 -0.03717 0.53312
 C221 C 0.26071 -0.03811 0.46301
 C222 C 0.26139 0.03481 0.53238
 O223 O 0.71288 0.02420 0.52895
 O224 O 0.71284 -0.02699 0.47414
 O225 O 0.71302 -0.02921 0.52628
 O226 O 0.71225 0.02622 0.47686
 O227 O 0.75784 0.02660 0.47652
 O228 O 0.75861 -0.02899 0.52637
 O229 O 0.75845 -0.02696 0.47437
 O230 O 0.75846 0.02469 0.52857
 Cu231 Cu 0.70818 -0.00149 0.50161
 Cu232 Cu 0.76292 -0.00113 0.50147
 C233 C 0.73570 0.03329 0.53806
 C234 C 0.73567 -0.03571 0.46487
 C235 C 0.73585 -0.03862 0.53482
 C236 C 0.73485 0.03585 0.46811
 O237 O 0.47106 0.27258 0.02614
 O238 O 0.52702 0.27263 -0.02357
 O239 O 0.47313 0.27231 -0.02601
 O240 O 0.52490 0.27216 0.02841
 O241 O 0.52468 0.22680 0.02784
 O242 O 0.47314 0.22696 -0.02615
 O243 O 0.52680 0.22727 -0.02424
 O244 O 0.47108 0.22723 0.02608
 Cu245 Cu 0.49900 0.27697 0.00127
 Cu246 Cu 0.49889 0.22253 0.00083
 C247 C 0.46159 0.24996 0.03478
 C248 C 0.53650 0.24999 -0.03245
 C249 C 0.46436 0.24958 -0.03545
 C250 C 0.53363 0.24936 0.03743
 O251 O 0.52900 0.72609 0.02347
 O252 O 0.47393 0.72537 -0.02759
 O253 O 0.52778 0.72726 -0.02843
 O254 O 0.47512 0.72435 0.02446
 O255 O 0.47347 0.76967 0.02559
 O256 O 0.52628 0.77259 -0.02709
 O257 O 0.47262 0.77071 -0.02665
 O258 O 0.52711 0.77141 0.02510
 Cu259 Cu 0.50158 0.72122 -0.00214
 Cu260 Cu 0.49970 0.77564 -0.00064
 C261 C 0.53744 0.74886 0.03306
 C262 C 0.46393 0.74790 -0.03596
 C263 C 0.53608 0.75045 -0.03679
 C264 C 0.46530 0.74651 0.03410
 O265 O 0.02370 0.47360 0.27669
 O266 O -0.02912 0.52799 0.27628
 O267 O -0.02997 0.47450 0.27833
 O268 O 0.02445 0.52711 0.27465
 O269 O 0.02289 0.52497 0.23054
 O270 O -0.03166 0.47244 0.23423
 O271 O -0.03094 0.52587 0.23219
 O272 O 0.02229 0.47154 0.23258
 Cu273 Cu -0.00257 0.50098 0.28090
 Cu274 Cu -0.00451 0.49847 0.22795
 C275 C 0.03210 0.46327 0.25475
 C276 C -0.03906 0.53629 0.25420
 C277 C -0.04018 0.46450 0.25692
 C278 C 0.03296 0.53509 0.25196
 O279 O 0.02573 0.52683 0.72286
 O280 O -0.02575 0.47114 0.72367
 O281 O -0.02790 0.52484 0.72375
 O282 O 0.02798 0.47320 0.72337
 O283 O 0.02842 0.47377 0.76752
 O284 O -0.02718 0.52510 0.76792
 O285 O -0.02546 0.47177 0.76784
 O286 O 0.02671 0.52716 0.76702
 Cu287 Cu -0.00006 0.49893 0.71899
 Cu288 Cu 0.00070 0.49950 0.77199
 C289 C 0.03508 0.53652 0.74476
 C290 C -0.03449 0.46195 0.74584
 C291 C -0.03708 0.53378 0.74598
 C292 C 0.03777 0.46469 0.74545
 C293 C 0.37644 0.25099 0.11679
 C294 C 0.37129 0.22597 0.13020
 C295 C 0.35151 0.22490 0.15074
 C296 C 0.33633 0.24839 0.15798
 C297 C 0.34122 0.27305 0.14438
 C298 C 0.36099 0.27441 0.12413
 C299 C 0.39807 0.25139 0.09530
 C300 C 0.40549 0.27546 0.08151
 C301 C 0.42596 0.27484 0.06188
 C302 C 0.43952 0.25022 0.05529
 C303 C 0.43221 0.22608 0.06882
 C304 C 0.41185 0.22653 0.08885
 C305 C 0.38578 0.20212 0.12295
 C306 C 0.40547 0.20236 0.10262
 H307 H 0.38178 0.18292 0.13312
 H308 H 0.41605 0.18334 0.09776
 H309 H 0.34769 0.20561 0.16080
 H310 H 0.33002 0.29158 0.14959
 H311 H 0.43117 0.29378 0.05180
 H312 H 0.44269 0.20695 0.06409
 H313 H 0.36376 0.29399 0.11452
 H314 H 0.39595 0.29505 0.08567
 C315 C 0.62466 0.75092 0.11340
 C316 C 0.62654 0.77470 0.12976
 C317 C 0.64700 0.77658 0.14972
 C318 C 0.66648 0.75538 0.15338
 C319 C 0.66480 0.73209 0.13655
 C320 C 0.64421 0.72982 0.11700
 C321 C 0.60217 0.74953 0.09265
 C322 C 0.59739 0.72610 0.07652
 C323 C 0.57628 0.72591 0.05738
 C324 C 0.55953 0.74911 0.05362
 C325 C 0.56394 0.77246 0.06974
 C326 C 0.58480 0.77270 0.08937
 C327 C 0.60828 0.79668 0.12588
 C328 C 0.58810 0.79585 0.10591
 H329 H 0.60980 0.81499 0.13829
 H330 H 0.57469 0.81353 0.10355
 H331 H 0.64790 0.79504 0.16192
 H332 H 0.67916 0.71519 0.13847
 H333 H 0.57324 0.70758 0.04529
 H334 H 0.55085 0.79037 0.06728
 H335 H 0.64416 0.71145 0.10479
 H336 H 0.60954 0.70763 0.07846
 C337 C 0.62416 0.25031 -0.11193
 C338 C 0.62915 0.22532 -0.12580
 C339 C 0.64943 0.22406 -0.14583
 C340 C 0.66529 0.24729 -0.15217
 C341 C 0.66077 0.27184 -0.13796
 C342 C 0.64047 0.27341 -0.11817
 C343 C 0.60178 0.25095 -0.09118
 C344 C 0.59421 0.27508 -0.07722
 C345 C 0.57308 0.27465 -0.05826
 C346 C 0.55898 0.25018 -0.05253
 C347 C 0.56635 0.22603 -0.06631
 C348 C 0.58735 0.22630 -0.08568
 C349 C 0.61398 0.20170 -0.11954
 C350 C 0.59370 0.20213 -0.09977
 H351 H 0.61790 0.18252 -0.13004
 H352 H 0.58262 0.18326 -0.09565
 H353 H 0.65304 0.20480 -0.15630
 H354 H 0.67261 0.29011 -0.14242
 H355 H 0.56782 0.29361 -0.04796
 H356 H 0.55544 0.20704 -0.06226
 H357 H 0.63794 0.29289 -0.10804
 H358 H 0.60417 0.29455 -0.08076
 C359 C 0.37855 0.74706 -0.11822
 C360 C 0.37378 0.77201 -0.13192
 C361 C 0.35387 0.77321 -0.15244
 C362 C 0.33810 0.74996 -0.15929
 C363 C 0.34246 0.72543 -0.14530
 C364 C 0.36243 0.72391 -0.12512
 C365 C 0.40042 0.74651 -0.09684
 C366 C 0.40779 0.72241 -0.08301
 C367 C 0.42838 0.72296 -0.06336
 C368 C 0.44206 0.74753 -0.05679
 C369 C 0.43493 0.77164 -0.07047
 C370 C 0.41453 0.77125 -0.09055
 C371 C 0.38871 0.79569 -0.12494
 C372 C 0.40844 0.79538 -0.10455
 H373 H 0.38496 0.81485 -0.13531
 H374 H 0.41931 0.81430 -0.09983
 H375 H 0.35038 0.79242 -0.16276
 H376 H 0.33069 0.70714 -0.15020
 H377 H 0.43349 0.70403 -0.05317
 H378 H 0.44558 0.79071 -0.06579
 H379 H 0.36480 0.70446 -0.11515
 H380 H 0.39810 0.70287 -0.08718
 C381 C 0.11614 0.37773 0.25594
 C382 C 0.12903 0.37122 0.23129
 C383 C 0.14968 0.35090 0.23018
 C384 C 0.15745 0.33647 0.25326
 C385 C 0.14437 0.34274 0.27756
 C386 C 0.12408 0.36309 0.27896
 C387 C 0.09442 0.39977 0.25635
 C388 C 0.08114 0.40850 0.28001
 C389 C 0.06105 0.42908 0.27935
 C390 C 0.05348 0.44146 0.25514
 C391 C 0.06663 0.43300 0.23145
 C392 C 0.08712 0.41250 0.23192
 C393 C 0.12108 0.38483 0.20787
 C394 C 0.10045 0.40486 0.20814
 H395 H 0.13085 0.37980 0.18897
 H396 H 0.09496 0.41466 0.18944
 H397 H 0.15933 0.34600 0.21119
 H398 H 0.15003 0.33213 0.29574
 H399 H 0.05130 0.43521 0.29795
 H400 H 0.06116 0.44258 0.21263
 H401 H 0.11485 0.36689 0.29824
 H402 H 0.08602 0.39986 0.29926
 C403 C 0.11714 0.62392 0.74305
 C404 C 0.13336 0.62770 0.76639
 C405 C 0.15408 0.64796 0.76716
 C406 C 0.15874 0.66530 0.74513
 C407 C 0.14192 0.66186 0.72230
 C408 C 0.12159 0.64150 0.72121
 C409 C 0.09576 0.60154 0.74279
 C410 C 0.07981 0.59492 0.71998
 C411 C 0.06026 0.57382 0.72072
 C412 C 0.05587 0.55886 0.74424
 C413 C 0.07169 0.56521 0.76706
 C414 C 0.09176 0.58610 0.76640
 C415 C 0.12864 0.61141 0.78896
 C416 C 0.10810 0.59130 0.78907
 H417 H 0.14091 0.61440 0.80694
 H418 H 0.10518 0.57941 0.80711
 H419 H 0.16617 0.65029 0.78529
 H420 H 0.14451 0.67459 0.70483
 H421 H 0.04840 0.56931 0.70280
 H422 H 0.06874 0.55355 0.78525
 H423 H 0.10950 0.64001 0.70309
 H424 H 0.08226 0.60558 0.70128
 C425 C -0.12088 0.62391 0.25364
 C426 C -0.13496 0.62880 0.22928
 C427 C -0.15485 0.64981 0.22767
 C428 C -0.16081 0.66671 0.24995
 C429 C -0.14644 0.66181 0.27400
 C430 C -0.12692 0.64079 0.27586
 C431 C -0.09991 0.60119 0.25457
 C432 C -0.08553 0.59406 0.27810
 C433 C -0.06600 0.57294 0.27788
 C434 C -0.06015 0.55838 0.25423
 C435 C -0.07454 0.56513 0.23072
 C436 C -0.09444 0.58620 0.23077
 C437 C -0.12889 0.61290 0.20654
 C438 C -0.10893 0.59223 0.20722
 H439 H -0.13958 0.61666 0.18782
 H440 H -0.10487 0.58068 0.18901
 H441 H -0.16523 0.65308 0.20874
 H442 H -0.15020 0.67402 0.29178
 H443 H -0.05528 0.56814 0.29633
 H444 H -0.07041 0.55387 0.21236
 H445 H -0.11668 0.63830 0.29489
 H446 H -0.08904 0.60442 0.29692
 C447 C -0.11650 0.37449 0.74660
 C448 C -0.13213 0.37128 0.77025
 C449 C -0.15269 0.35089 0.77164
 C450 C -0.15771 0.33287 0.74994
 C451 C -0.14149 0.33583 0.72677
 C452 C -0.12135 0.35629 0.72507
 C453 C -0.09521 0.39693 0.74569
 C454 C -0.07985 0.40295 0.72253
 C455 C -0.06030 0.42407 0.72268
 C456 C -0.05533 0.43964 0.74594
 C457 C -0.07061 0.43393 0.76909
 C458 C -0.09068 0.41301 0.76903
 C459 C -0.12695 0.38822 0.79252
 C460 C -0.10647 0.40840 0.79202
 H461 H -0.13877 0.38569 0.81073
 H462 H -0.10314 0.42080 0.80986
 H463 H -0.16436 0.34897 0.78998
 H464 H -0.14437 0.32262 0.70951
 H465 H -0.04887 0.42809 0.70451
 H466 H -0.06722 0.44608 0.78708
 H467 H -0.10972 0.35734 0.70673
 H468 H -0.08274 0.39180 0.70400
 C469 C 0.25208 0.11595 0.37877
 C470 C 0.27669 0.12206 0.36474
 C471 C 0.27649 0.14179 0.34426
 C472 C 0.25213 0.15600 0.33779
 C473 C 0.22785 0.14996 0.35185
 C474 C 0.22774 0.13023 0.37197
 C475 C 0.25309 0.09473 0.40043
 C476 C 0.22957 0.08667 0.41497
 C477 C 0.23154 0.06689 0.43497
 C478 C 0.25697 0.05462 0.44119
 C479 C 0.28057 0.06245 0.42680
 C480 C 0.27878 0.08220 0.40642
 C481 C 0.30138 0.10867 0.37144
 C482 C 0.30244 0.08931 0.39191
 H483 H 0.32027 0.11337 0.36079
 H484 H 0.32210 0.07967 0.39639
 H485 H 0.29547 0.14647 0.33377
 H486 H 0.20866 0.16033 0.34716
 H487 H 0.21297 0.06127 0.44569
 H488 H 0.30032 0.05297 0.43127
 H489 H 0.20839 0.12664 0.38198
 H490 H 0.20940 0.09524 0.41121
 C491 C 0.73725 0.11486 0.62383
 C492 C 0.76274 0.12824 0.62894
 C493 C 0.76468 0.14835 0.64919
 C494 C 0.74165 0.15518 0.66491
 C495 C 0.71654 0.14157 0.66010
 C496 C 0.71429 0.12175 0.63983
 C497 C 0.73599 0.09377 0.60175
 C498 C 0.71143 0.08006 0.59431
 C499 C 0.71138 0.06057 0.57362
 C500 C 0.73580 0.05408 0.55989
 C501 C 0.76034 0.06771 0.56707
 C502 C 0.76057 0.08755 0.58764
 C503 C 0.78621 0.12135 0.61400
 C504 C 0.78520 0.10131 0.59394
 H505 H 0.80576 0.13150 0.61798
 H506 H 0.80400 0.09664 0.58307
 H507 H 0.78434 0.15835 0.65296
 H508 H 0.69839 0.14647 0.67180
 H509 H 0.69214 0.05043 0.56848
 H510 H 0.77931 0.06309 0.55645
 H511 H 0.69442 0.11207 0.63712
 H512 H 0.69200 0.08415 0.60407
 C513 C 0.26353 -0.11956 0.61710
 C514 C 0.23819 -0.13298 0.62248
 C515 C 0.23675 -0.15305 0.64251
 C516 C 0.26013 -0.15982 0.65780
 C517 C 0.28513 -0.14622 0.65272
 C518 C 0.28689 -0.12644 0.63262
 C519 C 0.26419 -0.09841 0.59533
 C520 C 0.28850 -0.08456 0.58766
 C521 C 0.28791 -0.06489 0.56738
 C522 C 0.26308 -0.05837 0.55430
 C523 C 0.23882 -0.07222 0.56164
 C524 C 0.23922 -0.09221 0.58179
 C525 C 0.21434 -0.12614 0.60804
 C526 C 0.21480 -0.10606 0.58829
 H527 H 0.19492 -0.13633 0.61222
 H528 H 0.19571 -0.10140 0.57785
 H529 H 0.21718 -0.16302 0.64650
 H530 H 0.30355 -0.15108 0.66409
 H531 H 0.30694 -0.05458 0.56208
 H532 H 0.21953 -0.06759 0.55152
 H533 H 0.30668 -0.11673 0.62968
 H534 H 0.30819 -0.08865 0.59697
 C535 C 0.73796 -0.11452 0.37684
 C536 C 0.76279 -0.12945 0.37314
 C537 C 0.76492 -0.14886 0.35232
 C538 C 0.74286 -0.15329 0.33451
 C539 C 0.71851 -0.13801 0.33778
 C540 C 0.71599 -0.11897 0.35871
 C541 C 0.73641 -0.09433 0.39966
 C542 C 0.71218 -0.07962 0.40610
 C543 C 0.71192 -0.06086 0.42742
 C544 C 0.73581 -0.05611 0.44274
 C545 C 0.75993 -0.07089 0.43670
 C546 C 0.76031 -0.09010 0.41560
 C547 C 0.78550 -0.12469 0.39000
 C548 C 0.78440 -0.10522 0.41056
 H549 H 0.80457 -0.13601 0.38707
 H550 H 0.80264 -0.10212 0.42286
 H551 H 0.78405 -0.16013 0.34967
 H552 H 0.70116 -0.14104 0.32434
 H553 H 0.69300 -0.04980 0.43171
 H554 H 0.77842 -0.06767 0.44865
 H555 H 0.69676 -0.10785 0.36019
 H556 H 0.69319 -0.08237 0.39505
 C557 C 0.61878 0.75438 -0.12074
 C558 C 0.63312 0.72967 -0.12654
 C559 C 0.65327 0.72907 -0.14671
 C560 C 0.65909 0.75265 -0.16169
 C561 C 0.64465 0.77701 -0.15610
 C562 C 0.62484 0.77795 -0.13589
 C563 C 0.59752 0.75420 -0.09896
 C564 C 0.58287 0.77791 -0.09097
 C565 C 0.56311 0.77662 -0.07074
 C566 C 0.55729 0.75169 -0.05801
 C567 C 0.57191 0.72799 -0.06564
 C568 C 0.59205 0.72910 -0.08578
 C569 C 0.62704 0.70564 -0.11243
 C570 C 0.60680 0.70531 -0.09265
 H571 H 0.63794 0.68670 -0.11692
 H572 H 0.60271 0.68613 -0.08248
 H573 H 0.66398 0.71000 -0.15110
 H574 H 0.64883 0.79558 -0.16721
 H575 H 0.55218 0.79524 -0.06519
 H576 H 0.56780 0.70864 -0.05575
 H577 H 0.61444 0.79728 -0.13262
 H578 H 0.58638 0.79769 -0.09996
 C579 C 0.38541 0.24851 -0.12338
 C580 C 0.37301 0.27387 -0.13030
 C581 C 0.35386 0.27505 -0.15147
 C582 C 0.34711 0.25133 -0.16628
 C583 C 0.35968 0.22632 -0.15955
 C584 C 0.37850 0.22486 -0.13841
 C585 C 0.40559 0.24806 -0.10054
 C586 C 0.41829 0.22373 -0.09155
 C587 C 0.43714 0.22437 -0.07038
 C588 C 0.44395 0.24924 -0.05759
 C589 C 0.43123 0.27360 -0.06621
 C590 C 0.41204 0.27315 -0.08739
 C591 C 0.38000 0.29792 -0.11623
 C592 C 0.39923 0.29760 -0.09538
 H593 H 0.37059 0.31736 -0.12156
 H594 H 0.40405 0.31681 -0.08527
 H595 H 0.34459 0.29458 -0.15668
 H596 H 0.35476 0.20763 -0.17045
 H597 H 0.44656 0.20525 -0.06414
 H598 H 0.43616 0.29292 -0.05635
 H599 H 0.38742 0.20501 -0.13432
 H600 H 0.41398 0.20395 -0.10048
 C601 C 0.38236 0.74302 0.11788
 C602 C 0.37653 0.76803 0.13140
 C603 C 0.35679 0.76875 0.15194
 C604 C 0.34229 0.74493 0.15907
 C605 C 0.34784 0.72025 0.14542
 C606 C 0.36762 0.71923 0.12517
 C607 C 0.40378 0.74309 0.09624
 C608 C 0.41183 0.71913 0.08226
 C609 C 0.43181 0.72031 0.06221
 C610 C 0.44422 0.74537 0.05545
 C611 C 0.43646 0.76933 0.06935
 C612 C 0.41659 0.76834 0.08973
 C613 C 0.39021 0.79224 0.12419
 C614 C 0.40966 0.79243 0.10368
 H615 H 0.38568 0.81142 0.13447
 H616 H 0.41954 0.81174 0.09877
 H617 H 0.35240 0.78804 0.16204
 H618 H 0.33712 0.70150 0.15059
 H619 H 0.43745 0.70150 0.05186
 H620 H 0.44610 0.78879 0.06449
 H621 H 0.37092 0.69965 0.11546
 H622 H 0.40309 0.69925 0.08652
 C623 C 0.61396 0.24755 0.12410
 C624 C 0.62687 0.27275 0.13105
 C625 C 0.64638 0.27372 0.15194
 C626 C 0.65294 0.24997 0.16645
 C627 C 0.63993 0.22512 0.15963
 C628 C 0.62078 0.22385 0.13876
 C629 C 0.59334 0.24732 0.10163
 C630 C 0.58006 0.22315 0.09268
 C631 C 0.56086 0.22398 0.07184
 C632 C 0.55425 0.24888 0.05936
 C633 C 0.56749 0.27308 0.06797
 C634 C 0.58706 0.27244 0.08882
 C635 C 0.62002 0.29684 0.11732
 C636 C 0.60041 0.29673 0.09679
 H637 H 0.62983 0.31616 0.12266
 H638 H 0.59571 0.31596 0.08693
 H639 H 0.65602 0.29313 0.15723
 H640 H 0.64473 0.20640 0.17027
 H641 H 0.55102 0.20497 0.06560
 H642 H 0.56273 0.29242 0.05833
 H643 H 0.61152 0.20411 0.13460
 H644 H 0.58419 0.20335 0.10138
 C645 C -0.12436 0.61575 0.74819
 C646 C -0.12808 0.63181 0.72497
 C647 C -0.14829 0.65258 0.72447
 C648 C -0.16559 0.65736 0.74667
 C649 C -0.16218 0.64069 0.76936
 C650 C -0.14191 0.62033 0.77017
 C651 C -0.10205 0.59435 0.74823
 C652 C -0.09549 0.57864 0.77098
 C653 C -0.07443 0.55909 0.77009
 C654 C -0.05947 0.55446 0.74650
 C655 C -0.06577 0.57000 0.72371
 C656 C -0.08662 0.59011 0.72452
 C657 C -0.11181 0.62689 0.70227
 C658 C -0.09177 0.60627 0.70195
 H659 H -0.11476 0.63903 0.68438
 H660 H -0.07988 0.60317 0.68382
 H661 H -0.15062 0.66461 0.70647
 H662 H -0.17484 0.64337 0.78697
 H663 H -0.06994 0.54742 0.78799
 H664 H -0.05406 0.56685 0.70547
 H665 H -0.14050 0.60836 0.78820
 H666 H -0.10610 0.58129 0.78976
 C667 C -0.12652 0.38169 0.26222
 C668 C -0.14069 0.37536 0.23811
 C669 C -0.16187 0.35561 0.23792
 C670 C -0.16896 0.34159 0.26137
 C671 C -0.15467 0.34767 0.28514
 C672 C -0.13380 0.36746 0.28564
 C673 C -0.10421 0.40308 0.26163
 C674 C -0.08955 0.41155 0.28468
 C675 C -0.06889 0.43149 0.28306
 C676 C -0.06218 0.44344 0.25846
 C677 C -0.07673 0.43526 0.23540
 C678 C -0.09773 0.41541 0.23683
 C679 C -0.13350 0.38856 0.21430
 C680 C -0.11236 0.40801 0.21364
 H681 H -0.14428 0.38365 0.19582
 H682 H -0.10749 0.41752 0.19467
 H683 H -0.17246 0.35081 0.21932
 H684 H -0.15980 0.33734 0.30359
 H685 H -0.05803 0.43745 0.30119
 H686 H -0.07190 0.44453 0.21630
 H687 H -0.12361 0.37116 0.30454
 H688 H -0.09373 0.40319 0.30417
 C689 C 0.12622 0.38383 0.74601
 C690 C 0.13202 0.37016 0.72155
 C691 C 0.15298 0.35019 0.72036
 C692 C 0.16869 0.34383 0.74317
 C693 C 0.16313 0.35768 0.76726
 C694 C 0.14219 0.37734 0.76874
 C695 C 0.10345 0.40475 0.74655
 C696 C 0.09539 0.41866 0.77010
 C697 C 0.07409 0.43797 0.76959
 C698 C 0.06029 0.44408 0.74563
 C699 C 0.06806 0.43028 0.72205
 C700 C 0.08931 0.41058 0.72238
 C701 C 0.11705 0.37666 0.69840
 C702 C 0.09630 0.39657 0.69876
 H703 H 0.12154 0.36630 0.67963
 H704 H 0.08543 0.40093 0.68027
 H705 H 0.15732 0.33992 0.70152
 H706 H 0.17474 0.35312 0.78524
 H707 H 0.06852 0.44827 0.78810
 H708 H 0.05738 0.43465 0.70345
 H709 H 0.13899 0.38722 0.78786
 H710 H 0.10510 0.41490 0.78917
 C711 C 0.11867 0.61857 0.24698
 C712 C 0.12514 0.63268 0.27108
 C713 C 0.14567 0.65309 0.27139
 C714 C 0.16032 0.65948 0.24805
 C715 C 0.15405 0.64530 0.22427
 C716 C 0.13349 0.62519 0.22365
 C717 C 0.09651 0.59701 0.24747
 C718 C 0.08790 0.58245 0.22441
 C719 C 0.06727 0.56248 0.22595
 C720 C 0.05474 0.55637 0.25047
 C721 C 0.06306 0.57084 0.27353
 C722 C 0.08361 0.59116 0.27218
 C723 C 0.11133 0.62614 0.29480
 C724 C 0.09115 0.60571 0.29537
 H725 H 0.11634 0.63686 0.31328
 H726 H 0.08120 0.60131 0.31428
 H727 H 0.15058 0.66361 0.29000
 H728 H 0.16485 0.64991 0.20590
 H729 H 0.06121 0.55167 0.20782
 H730 H 0.05336 0.56649 0.29257
 H731 H 0.12969 0.61503 0.20475
 H732 H 0.09669 0.58619 0.20497
 C733 C 0.73579 -0.12489 0.61467
 C734 C 0.76129 -0.13803 0.62015
 C735 C 0.76278 -0.15863 0.63971
 C736 C 0.73927 -0.16598 0.65440
 C737 C 0.71409 -0.15287 0.64896
 C738 C 0.71228 -0.13270 0.62936
 C739 C 0.73505 -0.10290 0.59381
 C740 C 0.71056 -0.08921 0.58641
 C741 C 0.71097 -0.06855 0.56721
 C742 C 0.73577 -0.06087 0.55488
 C743 C 0.76027 -0.07457 0.56186
 C744 C 0.76005 -0.09558 0.58104
 C745 C 0.78520 -0.13020 0.60642
 C746 C 0.78464 -0.10930 0.58743
 H747 H 0.80476 -0.14018 0.61063
 H748 H 0.80377 -0.10383 0.57757
 H749 H 0.78243 -0.16839 0.64397
 H750 H 0.69555 -0.15831 0.65978
 H751 H 0.69173 -0.05841 0.56216
 H752 H 0.77953 -0.06900 0.55227
 H753 H 0.69233 -0.12336 0.62628
 H754 H 0.69082 -0.09408 0.59511
 C755 C 0.26104 -0.12134 0.37897
 C756 C 0.23564 -0.13458 0.37314
 C757 C 0.23426 -0.15480 0.35295
 C758 C 0.25781 -0.16184 0.33805
 C759 C 0.28285 -0.14846 0.34368
 C760 C 0.28452 -0.12855 0.36385
 C761 C 0.26170 -0.10002 0.40080
 C762 C 0.28611 -0.08637 0.40870
 C763 C 0.28565 -0.06650 0.42895
 C764 C 0.26088 -0.05959 0.44187
 C765 C 0.23646 -0.07323 0.43434
 C766 C 0.23673 -0.09344 0.41409
 C767 C 0.21173 -0.12738 0.38730
 C768 C 0.21222 -0.10714 0.40720
 H769 H 0.19225 -0.13744 0.38279
 H770 H 0.19311 -0.10220 0.41743
 H771 H 0.21468 -0.16469 0.34856
 H772 H 0.30142 -0.15357 0.33270
 H773 H 0.30483 -0.05637 0.43436
 H774 H 0.21722 -0.06823 0.44432
 H775 H 0.30438 -0.11905 0.36714
 H776 H 0.30582 -0.09070 0.39960
 C777 C 0.73273 0.12102 0.38717
 C778 C 0.75797 0.13453 0.38160
 C779 C 0.75894 0.15515 0.36207
 C780 C 0.73516 0.16226 0.34752
 C781 C 0.71028 0.14862 0.35288
 C782 C 0.70900 0.12835 0.37244
 C783 C 0.73252 0.09924 0.40826
 C784 C 0.70829 0.08535 0.41595
 C785 C 0.70918 0.06501 0.43546
 C786 C 0.73421 0.05784 0.44780
 C787 C 0.75845 0.07173 0.44052
 C788 C 0.75775 0.09244 0.42105
 C789 C 0.78214 0.12716 0.39530
 C790 C 0.78208 0.10642 0.41444
 H791 H 0.80149 0.13742 0.39098
 H792 H 0.80138 0.10134 0.42430
 H793 H 0.77839 0.16525 0.35785
 H794 H 0.69156 0.15379 0.34212
 H795 H 0.69013 0.05469 0.44072
 H796 H 0.77789 0.06655 0.45010
 H797 H 0.68926 0.11863 0.37554
 H798 H 0.68839 0.08987 0.40726
 C799 C 0.26399 0.12091 0.61360
 C800 C 0.23880 0.13448 0.61941
 C801 C 0.23805 0.15552 0.63884
 C802 C 0.26201 0.16297 0.65305
 C803 C 0.28685 0.14930 0.64740
 C804 C 0.28791 0.12864 0.62795
 C805 C 0.26400 0.09868 0.59264
 C806 C 0.28818 0.08470 0.58476
 C807 C 0.28715 0.06410 0.56524
 C808 C 0.26203 0.05672 0.55308
 C809 C 0.23780 0.07058 0.56068
 C810 C 0.23865 0.09159 0.58015
 C811 C 0.21448 0.12675 0.60605
 C812 C 0.21437 0.10564 0.58699
 H813 H 0.19516 0.13704 0.61054
 H814 H 0.19497 0.10032 0.57737
 H815 H 0.21864 0.16568 0.64327
 H816 H 0.30572 0.15474 0.65786
 H817 H 0.30618 0.05380 0.55975
 H818 H 0.21830 0.06524 0.55125
 H819 H 0.30765 0.11894 0.62464
 H820 H 0.30815 0.08937 0.59326
   
