data_POSCAR
  _audit_creation_date              2014-09-24
  _audit_creation_method            'ToBaCCo'
  _symmetry_space_group_name_H-M    'P1'
  _symmetry_Int_Tables_number       1
  _symmetry_cell_setting            triclinic
  loop_
  _symmetry_equiv_pos_as_xyz
 x,y,z
_cell_length_a 18.6338
_cell_length_b 18.6345
_cell_length_c 20.3674
_cell_angle_alpha 90.193300
_cell_angle_beta 90.037300
_cell_angle_gamma 89.996500
loop_
  _atom_site_label
  _atom_site_type_symbol
  _atom_site_fract_x
  _atom_site_fract_y
  _atom_site_fract_z
O1 O -0.07174 0.56395 0.93499
 O2 O -0.07372 0.43650 1.06623
 O3 O -0.04717 0.57572 1.06147
 O4 O -0.04746 0.42467 0.93955
 O5 O 0.07045 0.43480 0.93583
 O6 O 0.07037 0.56306 1.06740
 O7 O 0.04380 0.42345 1.06183
 O8 O 0.04610 0.57417 0.94032
 Cu9 Cu -0.07037 0.50021 1.00059
 Cu10 Cu 0.06806 0.49891 1.00156
 C11 C -0.01456 0.59389 0.91677
 C12 C -0.01753 0.40459 1.08448
 C13 C 0.01376 0.59460 1.08506
 C14 C 0.01352 0.40479 0.91679
 O15 O 0.56470 -0.07428 0.56549
 O16 O 0.43648 -0.07129 0.43441
 O17 O 0.57581 -0.04703 0.43904
 O18 O 0.42543 -0.04769 0.56112
 O19 O 0.43812 0.06980 0.56809
 O20 O 0.56561 0.07091 0.43640
 O21 O 0.42630 0.04651 0.44080
 O22 O 0.57769 0.04327 0.56213
 Cu23 Cu 0.50061 -0.07042 0.49995
 Cu24 Cu 0.50189 0.06799 0.50216
 C25 C 0.59669 -0.01823 0.58422
 C26 C 0.40644 -0.01396 0.41674
 C27 C 0.59553 0.01413 0.41681
 C28 C 0.40667 0.01305 0.58527
 C29 C -0.09546 0.01458 0.27396
 C30 C -0.02722 0.03051 0.24940
 C31 C -0.01251 0.09912 0.22519
 C32 C -0.06587 0.15207 0.22427
 C33 C -0.13446 0.13552 0.24956
 C34 C -0.14955 0.06672 0.27496
 C35 C 0.02880 -0.02508 0.24883
 C36 C 0.01339 -0.09356 0.22429
 C37 C 0.06593 -0.14729 0.22354
 C38 C 0.13471 -0.13145 0.24894
 C39 C 0.15070 -0.06260 0.27432
 C40 C 0.09725 -0.00974 0.27332
 H41 H -0.10560 -0.03838 0.29367
 H42 H 0.04018 0.11030 0.20522
 H43 H -0.03957 -0.10426 0.20455
 H44 H 0.10799 0.04319 0.29318
 H45 H -0.17598 0.17616 0.24957
 H46 H 0.17565 -0.17268 0.24912
 C47 C -0.01277 -0.09728 0.77387
 C48 C -0.02858 -0.02908 0.74927
 C49 C -0.09718 -0.01428 0.72485
 C50 C -0.15026 -0.06748 0.72380
 C51 C -0.13384 -0.13604 0.74908
 C52 C -0.06506 -0.15123 0.77472
 C53 C 0.02701 0.02694 0.74901
 C54 C 0.09551 0.01159 0.72468
 C55 C 0.14910 0.06430 0.72403
 C56 C 0.13312 0.13312 0.74942
 C57 C 0.06425 0.14901 0.77457
 C58 C 0.01154 0.09543 0.77342
 H59 H 0.04019 -0.10750 0.79375
 H60 H -0.10827 0.03839 0.70487
 H61 H 0.10630 -0.04139 0.70497
 H62 H -0.04140 0.10610 0.79313
 H63 H -0.17462 -0.17742 0.74900
 H64 H 0.17421 0.17419 0.74966
 N65 N -0.03038 -0.29389 0.13681
 C66 C 0.02221 -0.34354 0.12935
 N67 N 0.08787 -0.32998 0.15570
 N68 N 0.10110 -0.26887 0.18745
 C69 C 0.04924 -0.21831 0.19380
 N70 N -0.01706 -0.23259 0.16862
 N71 N -0.09296 0.32904 0.14774
 C72 C -0.02604 0.34610 0.12625
 N73 N 0.02901 0.30112 0.14063
 N74 N 0.01676 0.24056 0.17363
 C75 C -0.05072 0.22270 0.19365
 N76 N -0.10507 0.26885 0.18081
 N77 N 0.29544 -0.03148 0.63672
 C78 C 0.34502 0.02117 0.62966
 N79 N 0.33154 0.08666 0.65651
 N80 N 0.27056 0.09968 0.68833
 C81 C 0.22005 0.04778 0.69428
 N82 N 0.23426 -0.01837 0.66861
 N83 N -0.32746 -0.09410 0.64683
 C84 C -0.34462 -0.02703 0.62590
 N85 N -0.29960 0.02792 0.64075
 N86 N -0.23891 0.01545 0.67369
 C87 C -0.22096 -0.05216 0.69317
 N88 N -0.26715 -0.10642 0.67985
 N89 N -0.08738 -0.33251 0.84412
 C90 C -0.02215 -0.34532 0.87155
 N91 N 0.03049 -0.29577 0.86414
 N92 N 0.01754 -0.23520 0.83140
 C93 C -0.04841 -0.22165 0.80518
 N94 N -0.10023 -0.27218 0.81145
 N95 N 0.08730 0.33008 0.84544
 C96 C 0.02160 0.34372 0.87159
 N97 N -0.03146 0.29484 0.86280
 N98 N -0.01850 0.23409 0.83000
 C99 C 0.04785 0.21969 0.80505
 N100 N 0.10015 0.26956 0.81269
 N101 N -0.33058 0.08842 0.34567
 C102 C -0.34367 0.02261 0.37160
 N103 N -0.29443 -0.03009 0.36272
 N104 N -0.23387 -0.01668 0.33003
 C105 C -0.22002 0.04979 0.30530
 N106 N -0.27025 0.10172 0.31302
 N107 N 0.33201 -0.08628 0.34391
 C108 C 0.34536 -0.02115 0.37154
 N109 N 0.29617 0.03184 0.36422
 N110 N 0.23542 0.01934 0.33136
 C111 C 0.22132 -0.04649 0.30493
 N112 N 0.27149 -0.09868 0.31113
   
