data_POSCAR
  _audit_creation_date              2014-09-24
  _audit_creation_method            'ToBaCCo'
  _symmetry_space_group_name_H-M    'P1'
  _symmetry_Int_Tables_number       1
  _symmetry_cell_setting            triclinic
  loop_
  _symmetry_equiv_pos_as_xyz
 x,y,z
_cell_length_a 54.7900
_cell_length_b 51.3153
_cell_length_c 49.1454
_cell_angle_alpha 89.722500
_cell_angle_beta 90.120100
_cell_angle_gamma 89.973100
loop_
  _atom_site_label
  _atom_site_type_symbol
  _atom_site_fract_x
  _atom_site_fract_y
  _atom_site_fract_z
C1 C 0.60635 0.62790 0.59989
 C2 C 0.62854 0.61697 0.59146
 C3 C 0.63827 0.59593 0.60540
 C4 C 0.62598 0.58550 0.62794
 C5 C 0.60409 0.59622 0.63624
 C6 C 0.59425 0.61765 0.62219
 C7 C 0.59268 0.64850 0.59032
 N8 N 0.57275 0.65116 0.60639
 C9 C 0.57347 0.63229 0.62590
 C10 C 0.59631 0.58211 0.65848
 N11 N 0.61297 0.56317 0.66396
 C12 C 0.63122 0.56512 0.64528
 C13 C 0.65986 0.58950 0.59286
 N14 N 0.66353 0.60616 0.57175
 C15 C 0.64438 0.62304 0.57067
 H16 H 0.59700 0.66084 0.57305
 H17 H 0.55987 0.62917 0.64150
 H18 H 0.57971 0.58541 0.66990
 H19 H 0.64708 0.55266 0.64390
 H20 H 0.67211 0.57388 0.59872
 H21 H 0.64191 0.63851 0.55592
 C22 C 0.88214 0.34397 0.13277
 C23 C 0.86175 0.35702 0.12203
 C24 C 0.85370 0.37984 0.13387
 C25 C 0.86582 0.38986 0.15669
 C26 C 0.88585 0.37693 0.16736
 C27 C 0.89418 0.35394 0.15518
 C28 C 0.89428 0.32168 0.12518
 N29 N 0.91360 0.31809 0.14215
 C30 C 0.91360 0.33774 0.16069
 C31 C 0.89366 0.39082 0.18963
 N32 N 0.87900 0.41192 0.19255
 C33 C 0.86187 0.41151 0.17251
 C34 C 0.83401 0.38849 0.11894
 N35 N 0.82987 0.37147 0.09840
 C36 C 0.84682 0.35215 0.10008
 H37 H 0.88965 0.30923 0.10820
 H38 H 0.92655 0.34025 0.17711
 H39 H 0.90885 0.38593 0.20284
 H40 H 0.84725 0.42549 0.16993
 H41 H 0.82351 0.40601 0.12261
 H42 H 0.84860 0.33598 0.08619
 C43 C 0.38129 0.16017 -0.13138
 C44 C 0.36038 0.15076 -0.11817
 C45 C 0.34792 0.12959 -0.12863
 C46 C 0.35635 0.11740 -0.15231
 C47 C 0.37702 0.12661 -0.16526
 C48 C 0.38951 0.14821 -0.15480
 C49 C 0.39703 0.18035 -0.12581
 N50 N 0.41461 0.18089 -0.14531
 C51 C 0.41011 0.16134 -0.16311
 C52 C 0.38131 0.11068 -0.18719
 N53 N 0.36371 0.09194 -0.18783
 C54 C 0.34834 0.09606 -0.16663
 C55 C 0.32873 0.12443 -0.11139
 N56 N 0.32930 0.14196 -0.09075
 C57 C 0.34864 0.15803 -0.09466
 H58 H 0.39548 0.19372 -0.10896
 H59 H 0.42110 0.15698 -0.18080
 H60 H 0.39626 0.11279 -0.20134
 H61 H 0.33263 0.08413 -0.16172
 H62 H 0.31578 0.10864 -0.11341
 H63 H 0.35389 0.17371 -0.08120
 C64 C 0.11611 0.85998 0.39236
 C65 C 0.13796 0.87134 0.40140
 C66 C 0.14639 0.89398 0.38925
 C67 C 0.13322 0.90550 0.36787
 C68 C 0.11170 0.89434 0.35902
 C69 C 0.10302 0.87150 0.37143
 C70 C 0.10347 0.83802 0.40025
 N71 N 0.08295 0.83608 0.38480
 C72 C 0.08258 0.85654 0.36705
 C73 C 0.10293 0.90958 0.33806
 N74 N 0.11862 0.92969 0.33389
 C75 C 0.13722 0.92737 0.35220
 C76 C 0.16755 0.90094 0.40241
 N77 N 0.17224 0.88312 0.42221
 C78 C 0.15422 0.86490 0.42179
 H79 H 0.10877 0.82448 0.41617
 H80 H 0.06885 0.86029 0.35169
 H81 H 0.08636 0.90619 0.32655
 H82 H 0.15263 0.94036 0.35424
 H83 H 0.17863 0.91794 0.39812
 H84 H 0.15259 0.84851 0.43558
 N85 N 0.09605 0.17761 0.11035
 N86 N 0.08554 0.16323 0.12918
 C87 C 0.06542 0.17554 0.13815
 C88 C 0.06350 0.19906 0.12440
 C89 C 0.08325 0.19980 0.10702
 H90 H 0.05353 0.16819 0.15396
 H91 H 0.08785 0.21530 0.09295
 Cu92 Cu 0.09932 0.12999 0.14100
 Cu93 Cu 0.12492 0.16542 0.09140
 Cu94 Cu 0.16021 0.12180 0.12334
 N95 N 0.12104 0.10459 0.15902
 N96 N 0.14438 0.10214 0.15292
 C97 C 0.15446 0.08407 0.16939
 C98 C 0.13668 0.07482 0.18678
 C99 C 0.11567 0.08825 0.17968
 H100 H 0.17336 0.07800 0.16876
 H101 H 0.09788 0.08661 0.18899
 N102 N 0.16810 0.13470 0.08705
 N103 N 0.15401 0.15148 0.07421
 C104 C 0.16366 0.15675 0.04963
 C105 C 0.18507 0.14275 0.04711
 C106 C 0.18739 0.12895 0.07125
 H107 H 0.15585 0.16995 0.03476
 H108 H 0.20173 0.11544 0.07683
 H109 H 0.12510 0.12146 0.11072
 H110 H 0.13237 0.14693 0.13646
 N111 N 0.41094 0.82149 0.61461
 N112 N 0.42178 0.83475 0.63399
 C113 C 0.44176 0.82162 0.64230
 C114 C 0.44358 0.79907 0.62724
 C115 C 0.42371 0.79955 0.60983
 H116 H 0.45409 0.82784 0.65818
 H117 H 0.41864 0.78491 0.59512
 Cu118 Cu 0.40861 0.86775 0.64657
 Cu119 Cu 0.38068 0.83321 0.59758
 Cu120 Cu 0.35657 0.89176 0.62022
 N121 N 0.39508 0.90072 0.65883
 N122 N 0.37456 0.90985 0.64866
 C123 C 0.36916 0.93262 0.66077
 C124 C 0.38734 0.93803 0.67949
 C125 C 0.40348 0.91745 0.67768
 H126 H 0.35333 0.94441 0.65610
 H127 H 0.42007 0.91494 0.68932
 N128 N 0.34108 0.87062 0.59159
 N129 N 0.35023 0.84834 0.58297
 C130 C 0.33551 0.83868 0.56347
 C131 C 0.31629 0.85569 0.55960
 C132 C 0.32036 0.87573 0.57777
 H133 H 0.33848 0.82061 0.55275
 H134 H 0.30908 0.89274 0.58078
 H135 H 0.38630 0.87252 0.60387
 H136 H 0.36840 0.85460 0.63030
 N137 N 0.89847 0.69056 0.38693
 N138 N 0.91306 0.67721 0.37100
 C139 C 0.93416 0.69034 0.36793
 C140 C 0.93251 0.71326 0.38258
 C141 C 0.90959 0.71284 0.39422
 H142 H 0.94918 0.68410 0.35531
 H143 H 0.90154 0.72771 0.40689
 Cu144 Cu 0.90193 0.64520 0.35400
 Cu145 Cu 0.86589 0.67819 0.39627
 Cu146 Cu 0.85837 0.61166 0.38637
 N147 N 0.89071 0.61177 0.34045
 N148 N 0.87392 0.59842 0.35355
 C149 C 0.86952 0.57609 0.34016
 C150 C 0.88415 0.57566 0.31724
 C151 C 0.89730 0.59860 0.31802
 H152 H 0.85609 0.56176 0.34624
 H153 H 0.91048 0.60526 0.30319
 N154 N 0.83741 0.63234 0.41062
 N155 N 0.83978 0.65776 0.41367
 C156 C 0.82226 0.66634 0.43055
 C157 C 0.80811 0.64537 0.43837
 C158 C 0.81819 0.62407 0.42534
 H159 H 0.81996 0.68638 0.43676
 H160 H 0.81191 0.60412 0.42613
 H161 H 0.88124 0.64255 0.39778
 H162 H 0.85953 0.64751 0.36892
 N163 N 0.60124 0.31803 -0.10771
 N164 N 0.59237 0.33017 -0.12917
 C165 C 0.56985 0.32095 -0.13448
 C166 C 0.56446 0.30196 -0.11528
 C167 C 0.58474 0.30067 -0.09863
 H168 H 0.55840 0.32754 -0.15109
 H169 H 0.58742 0.28781 -0.08137
 Cu170 Cu 0.61137 0.35631 -0.14852
 Cu171 Cu 0.63390 0.32479 -0.09404
 Cu172 Cu 0.65993 0.38253 -0.11660
 N173 N 0.62617 0.38856 -0.16104
 N174 N 0.64499 0.39883 -0.14838
 C175 C 0.65187 0.42064 -0.16158
 C176 C 0.63650 0.42430 -0.18356
 C177 C 0.62035 0.40357 -0.18266
 H178 H 0.66718 0.43278 -0.15591
 H179 H 0.60577 0.39943 -0.19684
 N180 N 0.67240 0.36275 -0.08500
 N181 N 0.66276 0.34048 -0.07686
 C182 C 0.67555 0.33134 -0.05544
 C183 C 0.69413 0.34864 -0.04983
 C184 C 0.69166 0.36834 -0.06897
 H185 H 0.67164 0.31342 -0.04462
 H186 H 0.70317 0.38529 -0.07130
 H187 H 0.62869 0.36328 -0.10360
 H188 H 0.65024 0.34528 -0.12604
 C189 C -0.07017 0.29811 0.13989
 C190 C -0.04851 0.29682 0.15495
 C191 C -0.03053 0.27569 0.15124
 C192 C -0.00559 0.28135 0.15378
 C193 C 0.01188 0.26188 0.14999
 C194 C 0.00466 0.23624 0.14410
 C195 C -0.02030 0.23037 0.14248
 C196 C -0.03778 0.24997 0.14575
 C197 C 0.02280 0.21527 0.14032
 C198 C 0.04527 0.21978 0.12793
 H199 H -0.04331 0.31282 0.16795
 H200 H 0.00038 0.30097 0.15836
 H201 H 0.03100 0.26682 0.15210
 H202 H -0.02625 0.21065 0.13833
 H203 H -0.05692 0.24490 0.14441
 H204 H 0.01771 0.19555 0.14585
 H205 H -0.07358 0.28325 0.12475
 H206 H 0.04932 0.23884 0.11953
 C207 C 0.55431 0.67074 0.60253
 C208 C 0.53795 0.67743 0.62309
 C209 C 0.51931 0.69812 0.61987
 C210 C 0.51079 0.71098 0.64311
 C211 C 0.49324 0.73066 0.64089
 C212 C 0.48370 0.73771 0.61531
 C213 C 0.49171 0.72433 0.59215
 C214 C 0.50942 0.70480 0.59434
 C215 C 0.46488 0.75822 0.61222
 C216 C 0.46248 0.77888 0.63036
 H217 H 0.53989 0.66847 0.64294
 H218 H 0.51783 0.70590 0.66306
 H219 H 0.48689 0.73991 0.65930
 H220 H 0.48432 0.72909 0.57228
 H221 H 0.51496 0.69471 0.57608
 H222 H 0.45337 0.75769 0.59429
 H223 H 0.55423 0.68161 0.58361
 H224 H 0.47527 0.78096 0.64702
 C225 C 1.06637 0.81642 0.38713
 C226 C 1.04417 0.81631 0.37299
 C227 C 1.02651 0.79460 0.37483
 C228 C 1.00159 0.79986 0.37117
 C229 C 0.98445 0.77971 0.37198
 C230 C 0.99200 0.75380 0.37609
 C231 C 1.01697 0.74846 0.37922
 C232 C 1.03409 0.76867 0.37880
 C233 C 0.97440 0.73196 0.37585
 C234 C 0.95026 0.73470 0.38427
 H235 H 1.03865 0.83326 0.36136
 H236 H 0.99536 0.81963 0.36766
 H237 H 0.96542 0.78441 0.36866
 H238 H 1.02324 0.72860 0.38199
 H239 H 1.05324 0.76387 0.38088
 H240 H 0.98096 0.71293 0.36984
 H241 H 1.07021 0.80059 0.40116
 H242 H 0.94418 0.75291 0.39299
 C243 C 0.43460 0.19886 -0.14778
 C244 C 0.44113 0.21591 -0.12692
 C245 C 0.46213 0.23398 -0.12880
 C246 C 0.47325 0.24254 -0.10471
 C247 C 0.49334 0.25930 -0.10561
 C248 C 0.50263 0.26797 -0.13072
 C249 C 0.49096 0.26018 -0.15478
 C250 C 0.47096 0.24329 -0.15389
 C251 C 0.52415 0.28533 -0.13252
 C252 C 0.54241 0.28578 -0.11271
 H253 H 0.43156 0.21488 -0.10773
 H254 H 0.46652 0.23604 -0.08511
 H255 H 0.50129 0.26563 -0.08659
 H256 H 0.49751 0.26697 -0.17435
 H257 H 0.46232 0.23789 -0.17286
 H258 H 0.52649 0.29671 -0.15093
 H259 H 0.44555 0.19814 -0.16607
 H260 H 0.54131 0.27290 -0.09526
 C261 C 0.11541 -0.05169 0.31435
 C262 C 0.13213 -0.03152 0.30971
 C263 C 0.12894 -0.01149 0.28815
 C264 C 0.14956 0.00200 0.27875
 C265 C 0.14744 0.02095 0.25836
 C266 C 0.12451 0.02685 0.24692
 C267 C 0.10379 0.01391 0.25688
 C268 C 0.10592 -0.00506 0.27727
 C269 C 0.12136 0.04675 0.22522
 C270 C 0.14026 0.05510 0.20829
 H271 H 0.14891 -0.03087 0.32126
 H272 H 0.16744 -0.00221 0.28715
 H273 H 0.16376 0.03112 0.25203
 H274 H 0.08587 0.01843 0.24878
 H275 H 0.08944 -0.01421 0.28466
 H276 H 0.10316 0.05431 0.22180
 H277 H 0.09945 -0.05307 0.30144
 H278 H 0.15828 0.04671 0.21025
 C279 C 0.61077 0.54556 -0.31535
 C280 C 0.62890 0.52727 -0.30899
 C281 C 0.62639 0.50776 -0.28689
 C282 C 0.64757 0.49758 -0.27479
 C283 C 0.64602 0.47877 -0.25421
 C284 C 0.62315 0.46961 -0.24544
 C285 C 0.60197 0.47934 -0.25798
 C286 C 0.60352 0.49831 -0.27843
 C287 C 0.62085 0.44923 -0.22418
 C288 C 0.63840 0.44528 -0.20397
 H289 H 0.64620 0.52791 -0.31948
 H290 H 0.66542 0.50421 -0.28128
 H291 H 0.66278 0.47108 -0.24571
 H292 H 0.58417 0.47225 -0.25191
 H293 H 0.58683 0.50503 -0.28794
 H294 H 0.60434 0.43766 -0.22386
 H295 H 0.59450 0.54622 -0.30290
 H296 H 0.65392 0.45824 -0.20254
 C297 C 0.36126 1.07196 0.79422
 C298 C 0.37831 1.06678 0.77376
 C299 C 0.37608 1.04446 0.75495
 C300 C 0.39734 1.03386 0.74363
 C301 C 0.39604 1.01260 0.72602
 C302 C 0.37333 1.00162 0.71922
 C303 C 0.35200 1.01278 0.72982
 C304 C 0.35332 1.03394 0.74759
 C305 C 0.37122 0.97904 0.70073
 C306 C 0.38977 0.96066 0.69759
 H307 H 0.39481 1.07823 0.77242
 H308 H 0.41506 1.04192 0.74862
 H309 H 0.41281 1.00513 0.71750
 H310 H 0.33427 1.00497 0.72449
 H311 H 0.33649 1.04220 0.75514
 H312 H 0.35394 0.97605 0.69048
 H313 H 0.34585 1.05893 0.79661
 H314 H 0.40636 0.96216 0.70947
 C315 C 0.88103 0.43048 0.21419
 C316 C 0.87074 0.45530 0.21229
 C317 C 0.87227 0.47456 0.23449
 C318 C 0.87193 0.50120 0.22801
 C319 C 0.87294 0.51992 0.24855
 C320 C 0.87397 0.51227 0.27604
 C321 C 0.87372 0.48564 0.28255
 C322 C 0.87307 0.46691 0.26200
 C323 C 0.87424 0.53160 0.29825
 C324 C 0.88482 0.55616 0.29541
 H325 H 0.86247 0.46141 0.19329
 H326 H 0.87094 0.50755 0.20698
 H327 H 0.87234 0.54032 0.24287
 H328 H 0.87411 0.47931 0.30361
 H329 H 0.87261 0.44652 0.26772
 H330 H 0.86687 0.52582 0.31780
 H331 H 0.89185 0.42533 0.23188
 H332 H 0.89446 0.56116 0.27690
 C333 C 0.31332 0.14306 -0.06767
 C334 C 0.29043 0.13115 -0.06764
 C335 C 0.27387 0.13187 -0.04392
 C336 C 0.24859 0.13043 -0.04822
 C337 C 0.23246 0.13090 -0.02622
 C338 C 0.24139 0.13249 0.00057
 C339 C 0.26670 0.13321 0.00489
 C340 C 0.28282 0.13306 -0.01712
 C341 C 0.22488 0.13254 0.02434
 C342 C 0.20128 0.14268 0.02327
 H343 H 0.28374 0.12230 -0.08615
 H344 H 0.24130 0.12907 -0.06867
 H345 H 0.21308 0.12948 -0.03025
 H346 H 0.27401 0.13403 0.02537
 H347 H 0.30223 0.13334 -0.01304
 H348 H 0.23209 0.12580 0.04366
 H349 H 0.31889 0.15454 -0.05030
 H350 H 0.19471 0.15189 0.00480
 C351 C 0.68436 0.60517 0.55405
 C352 C 0.68908 0.62435 0.53449
 C353 C 0.71065 0.62392 0.51635
 C354 C 0.71827 0.64730 0.50411
 C355 C 0.73851 0.64780 0.48685
 C356 C 0.75161 0.62481 0.48144
 C357 C 0.74360 0.60132 0.49311
 C358 C 0.72336 0.60082 0.51037
 C359 C 0.77316 0.62433 0.46326
 C360 C 0.78676 0.64642 0.45648
 H361 H 0.67724 0.64117 0.53321
 H362 H 0.70855 0.66529 0.50798
 H363 H 0.74346 0.66617 0.47756
 H364 H 0.75307 0.58326 0.48889
 H365 H 0.71758 0.58223 0.51854
 H366 H 0.77901 0.60557 0.45570
 H367 H 0.69721 0.58939 0.55695
 H368 H 0.78212 0.66518 0.46493
 C369 C 0.81102 0.37467 0.07829
 C370 C 0.80499 0.35510 0.05981
 C371 C 0.78567 0.35801 0.03889
 C372 C 0.77503 0.33550 0.02795
 C373 C 0.75686 0.33736 0.00803
 C374 C 0.74900 0.36188 -0.00145
 C375 C 0.76007 0.38437 0.00901
 C376 C 0.77819 0.38252 0.02899
 C377 C 0.73005 0.36473 -0.02279
 C378 C 0.71259 0.34565 -0.02824
 H379 H 0.81386 0.33633 0.06150
 H380 H 0.78077 0.31638 0.03487
 H381 H 0.74944 0.31952 -0.00018
 H382 H 0.75464 0.40348 0.00170
 H383 H 0.78654 0.40030 0.03616
 H384 H 0.72930 0.38299 -0.03387
 H385 H 0.80067 0.39263 0.07834
 H386 H 0.71188 0.32810 -0.01601
 C387 C 0.19245 0.88490 0.44078
 C388 C 0.19880 0.86475 0.45866
 C389 C 0.21927 0.86679 0.47828
 C390 C 0.23049 0.84393 0.48786
 C391 C 0.24979 0.84513 0.50650
 C392 C 0.25817 0.86935 0.51605
 C393 C 0.24651 0.89216 0.50700
 C394 C 0.22731 0.89095 0.48830
 C395 C 0.27837 0.87167 0.53597
 C396 C 0.29609 0.85249 0.54004
 H397 H 0.18926 0.84634 0.45742
 H398 H 0.22436 0.82505 0.48082
 H399 H 0.25771 0.82706 0.51368
 H400 H 0.25232 0.91102 0.51441
 H401 H 0.21857 0.90896 0.48220
 H402 H 0.27993 0.88983 0.54693
 H403 H 0.20354 0.90234 0.44010
 H404 H 0.29585 0.83489 0.52803
   
