data_POSCAR
  _audit_creation_date              2014-09-24
  _audit_creation_method            'ToBaCCo'
  _symmetry_space_group_name_H-M    'P1'
  _symmetry_Int_Tables_number       1
  _symmetry_cell_setting            triclinic
  loop_
  _symmetry_equiv_pos_as_xyz
 x,y,z
_cell_length_a 36.8529
_cell_length_b 38.7475
_cell_length_c 34.8775
_cell_angle_alpha 90.091200
_cell_angle_beta 89.288400
_cell_angle_gamma 92.256400
loop_
  _atom_site_label
  _atom_site_type_symbol
  _atom_site_fract_x
  _atom_site_fract_y
  _atom_site_fract_z
C1 C 0.19629 0.19508 0.23043
 C2 C 0.22672 0.18087 0.21276
 C3 C 0.24439 0.19816 0.18197
 C4 C 0.23152 0.22964 0.16898
 C5 C 0.20115 0.24374 0.18669
 C6 C 0.18371 0.22653 0.21739
 H7 H 0.23618 0.15621 0.22243
 H8 H 0.24456 0.24277 0.14473
 H9 H 0.15979 0.23729 0.23053
 C10 C -0.21690 0.80184 0.22606
 C11 C -0.24731 0.81515 0.20834
 C12 C -0.26022 0.80048 0.17402
 C13 C -0.24265 0.77252 0.15749
 C14 C -0.21227 0.75929 0.17527
 C15 C -0.19960 0.77386 0.20953
 H16 H -0.26038 0.83727 0.22064
 H17 H -0.25208 0.76161 0.13057
 H18 H -0.17564 0.76393 0.22278
 C19 C -0.19772 0.20680 -0.25595
 C20 C -0.23152 0.19356 -0.24249
 C21 C -0.24815 0.20855 -0.21041
 C22 C -0.23091 0.23679 -0.19194
 C23 C -0.19718 0.24991 -0.20540
 C24 C -0.18074 0.23504 -0.23744
 H25 H -0.24431 0.17113 -0.25621
 H26 H -0.24314 0.24789 -0.16653
 H27 H -0.15419 0.24481 -0.24717
 C28 C 0.19997 0.78532 -0.27435
 C29 C 0.18673 0.75331 -0.26043
 C30 C 0.20408 0.73742 -0.23006
 C31 C 0.23495 0.75344 -0.21371
 C32 C 0.24836 0.78550 -0.22756
 C33 C 0.23085 0.80139 -0.25799
 H34 H 0.16223 0.74137 -0.27232
 H35 H 0.24771 0.74151 -0.18948
 H36 H 0.24050 0.82661 -0.26814
 C37 C 0.18459 1.21039 0.77337
 C38 C 0.21403 1.19412 0.78929
 C39 C 0.23406 1.21011 0.81856
 C40 C 0.22489 1.24280 0.83186
 C41 C 0.19547 1.25936 0.81588
 C42 C 0.17525 1.24311 0.78659
 H43 H 0.22085 1.16855 0.77949
 H44 H 0.24003 1.25492 0.85507
 H45 H 0.15200 1.25548 0.77477
 C46 C 0.81135 0.79767 0.78248
 C47 C 0.78038 0.81286 0.79740
 C48 C 0.76285 0.79917 0.83007
 C49 C 0.77611 0.76995 0.84792
 C50 C 0.80710 0.75451 0.83302
 C51 C 0.82475 0.76841 0.80024
 H52 H 0.77027 0.83583 0.78407
 H53 H 0.76275 0.75972 0.87361
 H54 H 0.84909 0.75690 0.78905
 C55 C 0.22388 0.78895 1.28605
 C56 C 0.20901 0.75824 1.27032
 C57 C 0.22513 0.74377 1.23767
 C58 C 0.25606 0.75999 1.22089
 C59 C 0.27078 0.79066 1.23657
 C60 C 0.25488 0.80492 1.26925
 H61 H 0.18426 0.74643 1.28240
 H62 H 0.26768 0.74960 1.19480
 H63 H 0.26564 0.82935 1.28044
 C64 C 0.81029 1.19995 1.23295
 C65 C 0.77733 1.18455 1.22107
 C66 C 0.75626 1.20085 1.19398
 C67 C 0.76797 1.23289 1.17877
 C68 C 0.80094 1.24855 1.19069
 C69 C 0.82212 1.23203 1.21784
 H70 H 0.76841 1.15944 1.23223
 H71 H 0.75189 1.24515 1.15719
 H72 H 0.84795 1.24376 1.22659
 O73 O 0.52312 0.96594 0.91670
 O74 O 0.45774 0.98870 1.07293
 O75 O 0.56179 0.98025 1.01728
 O76 O 0.43848 0.94575 0.96389
 O77 O 0.51312 0.96129 1.04539
 O78 O 0.45534 0.96915 0.91086
 O79 O 0.44539 0.95389 1.02895
 O80 O 0.56539 0.99367 0.94923
 C81 C 0.55508 0.96878 0.92812
 C82 C 0.44197 0.96149 1.06317
 C83 C 0.54545 0.95750 1.03692
 C84 C 0.43963 0.94509 0.92859
 O85 O 0.45981 1.03518 0.91512
 O86 O 0.52176 1.01766 1.08272
 O87 O 0.54046 1.05769 0.96539
 O88 O 0.42439 1.02197 1.02288
 O89 O 0.47501 1.04645 1.04267
 O90 O 0.52843 1.03332 0.91178
 O91 O 0.41733 1.01191 0.95347
 O92 O 0.54038 1.04569 1.03206
 Co93 Co 0.49183 1.00086 0.92038
 Co94 Co 0.49525 1.00409 1.04165
 Co95 Co 0.54686 1.01761 0.99044
 Co96 Co 0.43605 0.98491 0.99193
 O97 O 0.49084 1.00056 0.98371
 C98 C 0.42776 1.03364 0.92800
 C99 C 0.54504 1.03944 1.06721
 C100 C 0.54103 1.05862 0.93001
 C101 C 0.44138 1.04734 1.03817
 O102 O 0.04458 0.47953 0.08248
 O103 O 0.02078 0.53900 -0.06963
 O104 O 0.05205 0.45479 -0.00928
 O105 O 0.06677 0.56140 0.03712
 O106 O 0.03536 0.47753 -0.06175
 O107 O 0.04028 0.54325 0.08885
 O108 O 0.06028 0.55031 -0.02848
 O109 O 0.02039 0.43691 0.05064
 C110 C 0.04319 0.44822 0.07418
 C111 C 0.05181 0.55002 -0.06226
 C112 C 0.05793 0.46075 -0.04369
 C113 C 0.06586 0.55935 0.07246
 O114 O -0.02888 0.54004 0.08288
 O115 O -0.03496 0.46423 -0.04155
 O116 O -0.04157 0.45639 0.02546
 O117 O -0.01098 0.57307 -0.02436
 O118 O -0.04390 0.52706 -0.03928
 O119 O -0.02809 0.47402 0.08238
 O120 O -0.00326 0.57993 0.04457
 O121 O -0.00693 0.41976 -0.01878
 Co122 Co 0.00712 0.50875 0.07752
 Co123 Co -0.00385 0.50247 -0.04664
 Co124 Co 0.00564 0.45841 0.00747
 Co125 Co 0.02676 0.56168 0.00715
 O126 O 0.01043 0.50981 0.01442
 C127 C -0.02681 0.57036 0.06975
 C128 C -0.02867 0.43219 -0.04439
 C129 C -0.04900 0.45766 0.06024
 C130 C -0.04066 0.55910 -0.03525
 O131 O 1.04356 0.04780 0.47334
 O132 O 0.92650 0.02725 0.53326
 O133 O 0.96349 0.00919 0.41581
 O134 O 1.02079 0.01112 0.59329
 O135 O 0.92612 0.02920 0.46045
 O136 O 1.04389 0.03912 0.54332
 O137 O 0.98029 0.04293 0.55106
 O138 O 1.02977 0.01706 0.42286
 C139 C 1.04156 0.04494 0.43777
 C140 C 0.94749 0.04871 0.54924
 C141 C 0.93870 0.02919 0.42661
 C142 C 1.04510 0.03348 0.57929
 O143 O 1.06157 -0.02731 0.53103
 O144 O 0.92009 -0.03642 0.45828
 O145 O 1.03054 -0.05109 0.44800
 O146 O 0.95504 -0.01700 0.57535
 O147 O 0.92689 -0.04198 0.52869
 O148 O 1.07050 -0.01342 0.46259
 O149 O 1.01106 -0.04535 0.55593
 O150 O 0.96856 -0.05804 0.43573
 Co151 Co 1.04873 0.00965 0.50201
 Co152 Co 0.93120 -0.00540 0.49572
 Co153 Co 0.99805 -0.01932 0.43578
 Co154 Co 0.99640 -0.00151 0.55065
 O155 O 0.99080 -0.00567 0.49376
 C156 C 1.04358 -0.04997 0.54931
 C157 C 0.93517 -0.05860 0.43877
 C158 C 1.06276 -0.04306 0.45139
 C159 C 0.93362 -0.04026 0.56354
 C160 C 1.13736 0.14572 0.31215
 N161 N 1.10229 0.13648 0.30458
 N162 N 1.08172 0.11960 0.33068
 C163 C 1.09552 0.11168 0.36530
 N164 N 1.13058 0.12100 0.37291
 N165 N 1.15115 0.13788 0.34680
 C166 C 1.15965 0.16308 0.28352
 C167 C 1.17750 0.17782 0.25887
 C168 C 1.07460 0.09055 0.39192
 C169 C 1.05841 0.07091 0.41346
 C170 C 0.83211 -0.15369 0.31620
 N171 N 0.86499 -0.16526 0.32605
 N172 N 0.88464 -0.14904 0.35291
 C173 C 0.87196 -0.12078 0.37081
 N174 N 0.83901 -0.10930 0.36108
 N175 N 0.81936 -0.12551 0.33420
 C176 C 0.81256 -0.16949 0.28501
 C177 C 0.79777 -0.18277 0.25776
 C178 C 0.89456 -0.10111 0.39676
 C179 C 0.91343 -0.08283 0.41694
 C180 C 0.85860 0.15898 0.66232
 N181 N 0.84284 0.14475 0.63080
 N182 N 0.86229 0.12644 0.60618
 C183 C 0.89810 0.12194 0.61222
 N184 N 0.91387 0.13630 0.64366
 N185 N 0.89444 0.15462 0.66826
 C186 C 0.83728 0.17654 0.69038
 C187 C 0.82020 0.19081 0.71505
 C188 C 0.91768 0.09867 0.58839
 C189 C 0.93251 0.07705 0.56968
 C190 C 1.14017 -0.16344 0.64793
 N191 N 1.10362 -0.16335 0.65307
 N192 N 1.08342 -0.14404 0.63081
 C193 C 1.09912 -0.12434 0.60260
 N194 N 1.13566 -0.12456 0.59736
 N195 N 1.15587 -0.14386 0.61963
 C196 C 1.16209 -0.18205 0.67397
 C197 C 1.17987 -0.19709 0.69694
 C198 C 1.07810 -0.10040 0.58177
 C199 C 1.06149 -0.07845 0.56592
 C200 C 0.32604 1.15360 1.12617
 N201 N 0.35446 1.14103 1.14533
 N202 N 0.37967 1.12350 1.12675
 C203 C 0.37736 1.11812 1.08839
 N204 N 0.34900 1.13082 1.06920
 N205 N 0.32380 1.14835 1.08778
 C206 C 0.29745 1.17028 1.14656
 C207 C 0.27281 1.18357 1.16342
 C208 C 0.40199 1.09569 1.06933
 C209 C 0.42108 1.07483 1.05433
 C210 C 0.32848 0.83643 0.82814
 N211 N 0.33098 0.83264 0.86668
 N212 N 0.35510 0.85176 0.88647
 C213 C 0.37756 0.87520 0.86833
 N214 N 0.37514 0.87890 0.82978
 N215 N 0.35101 0.85979 0.80998
 C216 C 0.30070 0.81759 0.80732
 C217 C 0.27652 0.80233 0.79051
 C218 C 0.40113 0.89809 0.89000
 C219 C 0.41957 0.91870 0.90792
 C220 C 0.65735 0.84632 1.11875
 N221 N 0.66066 0.85344 1.08076
 N222 N 0.63605 0.87199 1.06329
 C223 C 0.60727 0.88391 1.08322
 N224 N 0.60387 0.87665 1.12116
 N225 N 0.62848 0.85810 1.13864
 C226 C 0.68554 0.82900 1.13823
 C227 C 0.70992 0.81553 1.15462
 C228 C 0.58339 0.90749 1.06561
 C229 C 0.56498 0.92922 1.05182
 C230 C 0.66233 1.16414 0.83726
 N231 N 0.64117 1.14092 0.81768
 N232 N 0.61424 1.12316 0.83549
 C233 C 0.60754 1.12812 0.87340
 N234 N 0.62859 1.15146 0.89293
 N235 N 0.65552 1.16923 0.87512
 C236 C 0.69345 1.18087 0.81906
 C237 C 0.72049 1.19413 0.80470
 C238 C 0.58170 1.10586 0.89349
 C239 C 0.56189 1.08535 0.91034
 C240 C 0.15232 0.32866 0.14650
 N241 N 0.15344 0.33694 0.10874
 N242 N 0.13329 0.36200 0.09546
 C243 C 0.11137 0.37948 0.11952
 N244 N 0.11034 0.37128 0.15731
 N245 N 0.13049 0.34622 0.17058
 C246 C 0.17147 0.29977 0.16027
 C247 C 0.18598 0.27464 0.17208
 C248 C 0.08783 0.40470 0.10468
 C249 C 0.06756 0.42503 0.09135
 C250 C -0.13849 0.32332 -0.14663
 N251 N -0.14447 0.32845 -0.10865
 N252 N -0.12294 0.35029 -0.08898
 C253 C -0.09474 0.36756 -0.10667
 N254 N -0.08879 0.36247 -0.14467
 N255 N -0.11032 0.34062 -0.16434
 C256 C -0.16038 0.29845 -0.16735
 C257 C -0.17781 0.27678 -0.18471
 C258 C -0.07115 0.39043 -0.08526
 C259 C -0.05151 0.40950 -0.06686
 C260 C 0.15449 0.65343 -0.17883
 N261 N 0.16910 0.63892 -0.14753
 N262 N 0.15003 0.61532 -0.12712
 C263 C 0.11578 0.60548 -0.13742
 N264 N 0.10125 0.61985 -0.16885
 N265 N 0.12033 0.64345 -0.18926
 C266 C 0.17328 0.68164 -0.19810
 C267 C 0.18797 0.70652 -0.21319
 C268 C 0.09369 0.58361 -0.11267
 C269 C 0.07469 0.56715 -0.09043
 C270 C -0.15003 0.68450 0.13001
 N271 N -0.13102 0.69002 0.09690
 N272 N -0.10699 0.66743 0.08492
 C273 C -0.10110 0.63874 0.10582
 N274 N -0.12017 0.63317 0.13888
 N275 N -0.14420 0.65576 0.15085
 C276 C -0.17377 0.71005 0.14445
 C277 C -0.19230 0.73215 0.15777
 C278 C -0.07466 0.61481 0.09340
 C279 C -0.05256 0.59464 0.08286
 C280 C 1.12814 0.15142 0.69600
 N281 N 1.14469 0.14182 0.66292
 N282 N 1.12869 0.11849 0.63990
 C283 C 1.09577 0.10387 0.64941
 N284 N 1.07919 0.11351 0.68244
 N285 N 1.09519 0.13684 0.70546
 C286 C 1.14669 0.17435 0.72224
 C287 C 1.16330 0.19196 0.74509
 C288 C 1.07866 0.07849 0.62486
 C289 C 1.06380 0.05752 0.60419
 C290 C 0.86007 -0.15197 0.69490
 N291 N 0.89529 -0.14065 0.69688
 N292 N 0.90965 -0.11965 0.67002
 C293 C 0.88920 -0.10921 0.64045
 N294 N 0.85401 -0.12061 0.63840
 N295 N 0.83965 -0.14161 0.66526
 C296 C 0.84369 -0.17198 0.72554
 C297 C 0.82903 -0.18716 0.75199
 C298 C 0.90423 -0.08525 0.61266
 C299 C 0.91726 -0.06475 0.58992
 C300 C 1.17196 -0.15551 0.36450
 N301 N 1.18515 -0.12290 0.37119
 N302 N 1.16599 -0.10099 0.39195
 C303 C 1.13305 -0.11105 0.40669
 N304 N 1.11996 -0.14373 0.40020
 N305 N 1.13911 -0.16564 0.37942
 C306 C 1.19065 -0.17746 0.33836
 C307 C 1.20619 -0.19425 0.31460
 C308 C 1.11038 -0.08642 0.42485
 C309 C 1.08966 -0.06612 0.43807
 C310 C 0.86742 0.14374 0.30484
 N311 N 0.88715 0.11772 0.29057
 N312 N 0.90246 0.09563 0.31410
 C313 C 0.89838 0.09882 0.35262
 N314 N 0.87874 0.12490 0.36689
 N315 N 0.86343 0.14699 0.34336
 C316 C 0.84841 0.16561 0.27946
 C317 C 0.83115 0.18258 0.25782
 C318 C 0.91330 0.07412 0.37798
 C319 C 0.92516 0.05341 0.39980
 C320 C 0.16130 0.34896 -0.13670
 N321 N 0.16672 0.35487 -0.09881
 N322 N 0.15105 0.38105 -0.08116
 C323 C 0.12963 0.40228 -0.10089
 N324 N 0.12444 0.39652 -0.13884
 N325 N 0.14010 0.37034 -0.15650
 C326 C 0.17456 0.31840 -0.15450
 C327 C 0.18451 0.29185 -0.16854
 C328 C 0.10770 0.42634 -0.08069
 C329 C 0.08652 0.44387 -0.06363
 C330 C -0.15911 0.33544 0.14138
 N331 N -0.15581 0.33706 0.10264
 N332 N -0.13827 0.36386 0.08591
 C333 C -0.12363 0.38996 0.10738
 N334 N -0.12712 0.38843 0.14612
 N335 N -0.14466 0.36163 0.16286
 C336 C -0.17470 0.30497 0.15946
 C337 C -0.18657 0.27874 0.17434
 C338 C -0.10024 0.41608 0.08986
 C339 C -0.07819 0.43626 0.07581
 C340 C -0.14933 0.67544 -0.11274
 N341 N -0.13812 0.67949 -0.07606
 N342 N -0.12020 0.65473 -0.05887
 C343 C -0.11308 0.62510 -0.07780
 N344 N -0.12445 0.62099 -0.11443
 N345 N -0.14236 0.64575 -0.13161
 C346 C -0.16596 0.70322 -0.13221
 C347 C -0.17895 0.72707 -0.14863
 C348 C -0.09001 0.60038 -0.06107
 C349 C -0.06861 0.58076 -0.04838
 C350 C 0.17448 0.66421 0.18008
 N351 N 0.18258 0.65976 0.14239
 N352 N 0.16355 0.63683 0.12142
 C353 C 0.13586 0.61760 0.13753
 N354 N 0.12786 0.62196 0.17526
 N355 N 0.14688 0.64489 0.19623
 C356 C 0.19295 0.69099 0.20169
 C357 C 0.20785 0.71450 0.21880
 C358 C 0.11303 0.59546 0.11423
 C359 C 0.09239 0.57818 0.09486
 C360 C 0.31155 1.15135 0.86449
 N361 N 0.30560 1.13564 0.89883
 N362 N 0.32847 1.11253 0.91146
 C363 C 0.35782 1.10429 0.88999
 N364 N 0.36381 1.12006 0.85569
 N365 N 0.34095 1.14317 0.84307
 C366 C 0.28542 1.17401 0.84950
 C367 C 0.26255 1.19153 0.83595
 C368 C 0.38205 1.07898 0.90320
 C369 C 0.40266 1.05794 0.91435
 C370 C 0.34637 0.85011 1.17844
 N371 N 0.35318 0.88298 1.19056
 N372 N 0.37369 0.90489 1.16939
 C373 C 0.38794 0.89458 1.13543
 N374 N 0.38125 0.86167 1.12339
 N375 N 0.36073 0.83976 1.14455
 C376 C 0.32153 0.82770 1.19946
 C377 C 0.29919 0.81001 1.21661
 C378 C 0.40781 0.91870 1.11129
 C379 C 0.42372 0.93862 1.08993
 C380 C 0.66821 1.14548 1.15466
 N381 N 0.64773 1.15650 1.12542
 N382 N 0.62181 1.13574 1.11064
 C383 C 0.61561 1.10337 1.12462
 N384 N 0.63602 1.09239 1.15394
 N385 N 0.66192 1.11315 1.16874
 C386 C 0.69796 1.16664 1.16863
 C387 C 0.72400 1.18313 1.18015
 C388 C 0.58978 1.08024 1.10653
 C389 C 0.56891 1.06118 1.08963
 C390 C 0.67924 0.85437 0.87143
 N391 N 0.65215 0.86259 0.84754
 N392 N 0.62716 0.88451 0.85876
 C393 C 0.62862 0.89899 0.89415
 N394 N 0.65565 0.89070 0.91809
 N395 N 0.68065 0.86878 0.90686
 C396 C 0.70775 0.83311 0.85815
 C397 C 0.73247 0.81669 0.84597
 C398 C 0.60254 0.92353 0.90572
 C399 C 0.58083 0.94429 0.91566
   
