data_POSCAR
  _audit_creation_date              2014-09-24
  _audit_creation_method            'ToBaCCo'
  _symmetry_space_group_name_H-M    'P1'
  _symmetry_Int_Tables_number       1
  _symmetry_cell_setting            triclinic
  loop_
  _symmetry_equiv_pos_as_xyz
 x,y,z
_cell_length_a 58.1612
_cell_length_b 58.2065
_cell_length_c 58.3112
_cell_angle_alpha 90.010300
_cell_angle_beta 90.007900
_cell_angle_gamma 90.052700
loop_
  _atom_site_label
  _atom_site_type_symbol
  _atom_site_fract_x
  _atom_site_fract_y
  _atom_site_fract_z
N1 N 0.17066 0.22519 0.23083
 N2 N 0.17733 0.20736 0.24301
 C3 C 0.16257 0.20430 0.26058
 C4 C 0.14597 0.22115 0.25922
 C5 C 0.15151 0.23412 0.24024
 H6 H 0.16373 0.19090 0.27336
 H7 H 0.14231 0.24891 0.23380
 Cu8 Cu 0.20451 0.19003 0.23408
 Cu9 Cu 0.18724 0.23556 0.20365
 Cu10 Cu 0.23521 0.20379 0.18755
 N11 N 0.23103 0.17179 0.22501
 N12 N 0.24292 0.17732 0.20660
 C13 C 0.26015 0.16214 0.20382
 C14 C 0.25889 0.14634 0.22137
 C15 C 0.24029 0.15282 0.23453
 H16 H 0.27266 0.16255 0.19010
 H17 H 0.23404 0.14433 0.24979
 N18 N 0.22457 0.23116 0.17061
 N19 N 0.20633 0.24324 0.17674
 C20 C 0.20363 0.26082 0.16195
 C21 C 0.22094 0.25963 0.14592
 C22 C 0.23393 0.24077 0.15176
 H23 H 0.19016 0.27358 0.16276
 H24 H 0.24907 0.23459 0.14294
 H25 H 0.20042 0.20378 0.19487
 H26 H 0.21906 0.22285 0.21259
 N27 N 0.67096 0.72547 0.73060
 N28 N 0.67729 0.70727 0.74241
 C29 C 0.66259 0.70426 0.76003
 C30 C 0.64634 0.72146 0.75906
 C31 C 0.65205 0.73464 0.74028
 H32 H 0.66357 0.69065 0.77260
 H33 H 0.64313 0.74974 0.73415
 Cu34 Cu 0.70414 0.68949 0.73335
 Cu35 Cu 0.68767 0.73592 0.70357
 Cu36 Cu 0.73559 0.70417 0.68742
 N37 N 0.73099 0.67170 0.72432
 N38 N 0.74323 0.67759 0.70627
 C39 C 0.76070 0.66266 0.70370
 C40 C 0.75925 0.64666 0.72105
 C41 C 0.74030 0.65277 0.73386
 H42 H 0.77350 0.66336 0.69026
 H43 H 0.73387 0.64408 0.74893
 N44 N 0.72505 0.73162 0.67061
 N45 N 0.70682 0.74369 0.67676
 C46 C 0.70411 0.76127 0.66197
 C47 C 0.72141 0.76008 0.64593
 C48 C 0.73440 0.74122 0.65175
 H49 H 0.69061 0.77401 0.66276
 H50 H 0.74949 0.73501 0.64288
 H51 H 0.70077 0.70424 0.69437
 H52 H 0.71930 0.72272 0.71286
 N53 N 0.32871 0.77512 0.73079
 N54 N 0.32275 0.79367 0.74227
 C55 C 0.33743 0.79660 0.75994
 C56 C 0.35330 0.77901 0.75930
 C57 C 0.34736 0.76568 0.74069
 H58 H 0.33667 0.81038 0.77235
 H59 H 0.35596 0.75030 0.73481
 Cu60 Cu 0.29614 0.81163 0.73272
 Cu61 Cu 0.31190 0.76451 0.70382
 Cu62 Cu 0.26394 0.79631 0.68771
 N63 N 0.26901 0.82934 0.72421
 N64 N 0.25642 0.82308 0.70650
 C65 C 0.23869 0.83778 0.70417
 C66 C 0.24033 0.85399 0.72133
 C67 C 0.25965 0.84824 0.73381
 H68 H 0.22563 0.83676 0.69099
 H69 H 0.26630 0.85713 0.74869
 N70 N 0.27440 0.76873 0.67092
 N71 N 0.29264 0.75666 0.67706
 C72 C 0.29537 0.73909 0.66225
 C73 C 0.27807 0.74027 0.64619
 C74 C 0.26508 0.75914 0.65204
 H75 H 0.30891 0.72639 0.66300
 H76 H 0.25001 0.76537 0.64314
 H77 H 0.29886 0.79586 0.69409
 H78 H 0.28052 0.77801 0.71330
 N79 N 0.82953 0.27440 0.23128
 N80 N 0.82316 0.29253 0.24319
 C81 C 0.83776 0.29540 0.26091
 C82 C 0.85397 0.27817 0.25988
 C83 C 0.84839 0.26512 0.24096
 H84 H 0.83688 0.30909 0.27342
 H85 H 0.85756 0.25030 0.23451
 Cu86 Cu 0.79670 0.31091 0.23392
 Cu87 Cu 0.81367 0.26539 0.20328
 Cu88 Cu 0.76504 0.29595 0.18792
 N89 N 0.76974 0.32852 0.22476
 N90 N 0.75749 0.32257 0.20672
 C91 C 0.73998 0.33748 0.20414
 C92 C 0.74141 0.35350 0.22148
 C93 C 0.76039 0.34744 0.23428
 H94 H 0.72720 0.33675 0.19069
 H95 H 0.76682 0.35617 0.24934
 N96 N 0.77562 0.26840 0.17121
 N97 N 0.79398 0.25648 0.17726
 C98 C 0.79668 0.23883 0.16253
 C99 C 0.77926 0.23985 0.14659
 C100 C 0.76620 0.25867 0.15245
 H101 H 0.81039 0.22630 0.16315
 H102 H 0.75110 0.26486 0.14358
 H103 H 0.79972 0.29702 0.19454
 H104 H 0.78199 0.27786 0.21317
 N105 N 0.82915 0.72554 0.26931
 N106 N 0.82283 0.70731 0.25753
 C107 C 0.83748 0.70435 0.23986
 C108 C 0.85371 0.72160 0.24080
 C109 C 0.84802 0.73477 0.25959
 H110 H 0.83649 0.69074 0.22727
 H111 H 0.85690 0.74993 0.26568
 Cu112 Cu 0.79602 0.68947 0.26662
 Cu113 Cu 0.81247 0.73596 0.29636
 Cu114 Cu 0.76457 0.70414 0.31253
 N115 N 0.76917 0.67165 0.27564
 N116 N 0.75693 0.67755 0.29368
 C117 C 0.73943 0.66261 0.29623
 C118 C 0.74087 0.64662 0.27888
 C119 C 0.75982 0.65274 0.26607
 H120 H 0.72661 0.66333 0.30965
 H121 H 0.76624 0.64406 0.25098
 N122 N 0.77512 0.73159 0.32935
 N123 N 0.79334 0.74370 0.32319
 C124 C 0.79604 0.76131 0.33796
 C125 C 0.77874 0.76009 0.35400
 C126 C 0.76576 0.74119 0.34819
 H127 H 0.80952 0.77409 0.33716
 H128 H 0.75065 0.73497 0.35704
 H129 H 0.79937 0.70428 0.30558
 H130 H 0.78084 0.72267 0.28705
 N131 N 0.32943 0.22517 -0.23103
 N132 N 0.32344 0.20662 -0.24251
 C133 C 0.33811 0.20365 -0.26018
 C134 C 0.35403 0.22124 -0.25955
 C135 C 0.34813 0.23460 -0.24094
 H136 H 0.33730 0.18983 -0.27256
 H137 H 0.35676 0.24999 -0.23505
 Cu138 Cu 0.29678 0.18868 -0.23295
 Cu139 Cu 0.31253 0.23574 -0.20403
 Cu140 Cu 0.26450 0.20395 -0.18793
 N141 N 0.26960 0.17101 -0.22446
 N142 N 0.25701 0.17725 -0.20677
 C143 C 0.23927 0.16256 -0.20446
 C144 C 0.24087 0.14636 -0.22161
 C145 C 0.26020 0.15212 -0.23406
 H146 H 0.22619 0.16355 -0.19130
 H147 H 0.26681 0.14322 -0.24894
 N148 N 0.27498 0.23148 -0.17114
 N149 N 0.29323 0.24359 -0.17725
 C150 C 0.29593 0.26113 -0.16238
 C151 C 0.27860 0.25988 -0.14634
 C152 C 0.26562 0.24101 -0.15226
 H153 H 0.30946 0.27386 -0.16308
 H154 H 0.25053 0.23473 -0.14340
 H155 H 0.29926 0.20430 -0.19424
 H156 H 0.28096 0.22213 -0.21346
 N157 N 0.67082 0.27446 -0.23085
 N158 N 0.67713 0.29266 -0.24269
 C159 C 0.66243 0.29560 -0.26035
 C160 C 0.64619 0.27834 -0.25937
 C161 C 0.65191 0.26520 -0.24054
 H162 H 0.66342 0.30921 -0.27294
 H163 H 0.64304 0.25006 -0.23439
 Cu164 Cu 0.70404 0.31053 -0.23364
 Cu165 Cu 0.68763 0.26412 -0.20376
 Cu166 Cu 0.73555 0.29596 -0.18765
 N167 N 0.73093 0.32839 -0.22459
 N168 N 0.74316 0.32251 -0.20653
 C169 C 0.76066 0.33746 -0.20395
 C170 C 0.75924 0.35345 -0.22129
 C171 C 0.74029 0.34731 -0.23412
 H172 H 0.77348 0.33673 -0.19052
 H173 H 0.73388 0.35601 -0.24920
 N174 N 0.72504 0.26853 -0.17077
 N175 N 0.70681 0.25640 -0.17688
 C176 C 0.70418 0.23881 -0.16206
 C177 C 0.72153 0.24007 -0.14603
 C178 C 0.73446 0.25898 -0.15192
 H179 H 0.69071 0.22602 -0.16281
 H180 H 0.74958 0.26524 -0.14312
 H181 H 0.70081 0.29589 -0.19455
 H182 H 0.71932 0.27745 -0.21303
 N183 N 0.17100 0.77488 0.26929
 N184 N 0.17735 0.79304 0.25744
 C185 C 0.16263 0.79598 0.23981
 C186 C 0.14638 0.77875 0.24081
 C187 C 0.15210 0.76564 0.25963
 H188 H 0.16357 0.80957 0.22721
 H189 H 0.14320 0.75051 0.26577
 Cu190 Cu 0.20410 0.81109 0.26653
 Cu191 Cu 0.18764 0.76450 0.29637
 Cu192 Cu 0.23551 0.79628 0.31254
 N193 N 0.23113 0.82876 0.27558
 N194 N 0.24329 0.82288 0.29369
 C195 C 0.26081 0.83782 0.29631
 C196 C 0.25943 0.85382 0.27894
 C197 C 0.24050 0.84770 0.26606
 H198 H 0.27359 0.83707 0.30978
 H199 H 0.23409 0.85642 0.25099
 N200 N 0.22494 0.76883 0.32942
 N201 N 0.20671 0.75674 0.32324
 C202 C 0.20395 0.73915 0.33802
 C203 C 0.22123 0.74033 0.35411
 C204 C 0.23425 0.75922 0.34829
 H205 H 0.19044 0.72640 0.33720
 H206 H 0.24935 0.76543 0.35718
 H207 H 0.20065 0.79617 0.30550
 H208 H 0.21917 0.77774 0.28700
 N209 N 0.47519 0.42053 0.48090
 N210 N 0.45699 0.42683 0.49274
 C211 C 0.45399 0.41209 0.51033
 C212 C 0.47124 0.39588 0.50935
 C213 C 0.48440 0.40163 0.49055
 H214 H 0.44037 0.41303 0.52291
 H215 H 0.49948 0.39272 0.48436
 Cu216 Cu 0.43912 0.45363 0.48369
 Cu217 Cu 0.48559 0.43728 0.45384
 Cu218 Cu 0.45373 0.48507 0.43771
 N219 N 0.42127 0.48042 0.47465
 N220 N 0.42713 0.49263 0.45657
 C221 C 0.41212 0.51004 0.45397
 C222 C 0.39612 0.50856 0.47131
 C223 C 0.40228 0.48967 0.48415
 H224 H 0.41277 0.52279 0.44048
 H225 H 0.39357 0.48323 0.49922
 N226 N 0.48122 0.47463 0.42087
 N227 N 0.49335 0.45644 0.42700
 C228 C 0.51092 0.45377 0.41217
 C229 C 0.50967 0.47104 0.39610
 C230 C 0.49077 0.48398 0.40198
 H231 H 0.52369 0.44029 0.41293
 H232 H 0.48449 0.49904 0.39312
 H233 H 0.47232 0.46886 0.46312
 H234 H 0.45382 0.45030 0.44469
 N235 N -0.02493 -0.07916 0.98077
 N236 N -0.04310 -0.07282 0.99264
 C237 C -0.04611 -0.08751 1.01025
 C238 C -0.02890 -0.10374 1.00925
 C239 C -0.01575 -0.09806 0.99042
 H240 H -0.05971 -0.08654 1.02284
 H241 H -0.00070 -0.10702 0.98422
 Cu242 Cu -0.06098 -0.04609 0.98364
 Cu243 Cu -0.01457 -0.06244 0.95370
 Cu244 Cu -0.04633 -0.01460 0.93767
 N245 N -0.07867 -0.01924 0.97467
 N246 N -0.07281 -0.00702 0.95660
 C247 C -0.08775 0.01043 0.95405
 C248 C -0.10369 0.00896 0.97143
 C249 C -0.09758 -0.00995 0.98423
 H250 H -0.08712 0.02319 0.94058
 H251 H -0.10628 -0.01638 0.99931
 N252 N -0.01894 -0.02509 0.92077
 N253 N -0.00683 -0.04330 0.92686
 C254 C 0.01068 -0.04600 0.91196
 C255 C 0.00939 -0.02870 0.89591
 C256 C -0.00946 -0.01574 0.90186
 H257 H 0.02342 -0.05950 0.91266
 H258 H -0.01574 -0.00066 0.89304
 H259 H -0.02783 -0.03079 0.96309
 H260 H -0.04637 -0.04929 0.94461
 N261 N 1.02506 0.57913 0.98075
 N262 N 1.04326 0.57284 0.99258
 C263 C 1.04624 0.58752 1.01021
 C264 C 1.02900 0.60372 1.00922
 C265 C 1.01586 0.59802 0.99040
 H266 H 1.05982 0.58654 1.02284
 H267 H 1.00077 0.60694 0.98421
 Cu268 Cu 1.06100 0.54593 0.98378
 Cu269 Cu 1.01467 0.56240 0.95372
 Cu270 Cu 1.04639 0.51460 0.93762
 N271 N 1.07883 0.51925 0.97453
 N272 N 1.07291 0.50703 0.95647
 C273 C 1.08785 0.48958 0.95388
 C274 C 1.10383 0.49103 0.97123
 C275 C 1.09775 0.50993 0.98407
 H276 H 1.08716 0.47682 0.94040
 H277 H 1.10645 0.51632 0.99917
 N278 N 1.01899 0.52507 0.92078
 N279 N 1.00689 0.54328 0.92689
 C280 C 0.98935 0.54598 0.91204
 C281 C 0.99060 0.52869 0.89598
 C282 C 1.00946 0.51572 0.90188
 H283 H 0.97661 0.55948 0.91277
 H284 H 1.01573 0.50065 0.89304
 H285 H 1.02795 0.53074 0.96313
 H286 H 1.04657 0.54930 0.94473
 N287 N 0.52515 0.07917 0.48087
 N288 N 0.54334 0.07287 0.49271
 C289 C 0.54632 0.08755 0.51036
 C290 C 0.52906 0.10375 0.50939
 C291 C 0.51590 0.09801 0.49059
 H292 H 0.55990 0.08658 0.52299
 H293 H 0.50070 0.10680 0.48453
 Cu294 Cu 0.56112 0.04601 0.48383
 Cu295 Cu 0.51472 0.06241 0.45382
 Cu296 Cu 0.54650 0.01465 0.43765
 N297 N 0.57896 0.01936 0.47458
 N298 N 0.57308 0.00717 0.45649
 C299 C 0.58801 -0.01029 0.45391
 C300 C 0.60400 -0.00881 0.47125
 C301 C 0.59790 0.01007 0.48411
 H302 H 0.58724 -0.02315 0.44054
 H303 H 0.60661 0.01643 0.49922
 N304 N 0.51905 0.02509 0.42082
 N305 N 0.50692 0.04328 0.42696
 C306 C 0.48935 0.04594 0.41213
 C307 C 0.49060 0.02865 0.39606
 C308 C 0.50950 0.01573 0.40194
 H309 H 0.47658 0.05941 0.41290
 H310 H 0.51577 0.00065 0.39309
 H311 H 0.52794 0.03065 0.46314
 H312 H 0.54647 0.04921 0.44477
 N313 N -0.02527 0.07939 0.51901
 N314 N -0.04351 0.07309 0.50722
 C315 C -0.04649 0.08771 0.48956
 C316 C -0.02923 0.10392 0.49050
 C317 C -0.01605 0.09826 0.50930
 H318 H -0.06010 0.08669 0.47697
 H319 H -0.00096 0.10722 0.51546
 Cu320 Cu -0.06131 0.04628 0.51621
 Cu321 Cu -0.01489 0.06269 0.54608
 Cu322 Cu -0.04671 0.01486 0.56220
 N323 N -0.07912 0.01954 0.52528
 N324 N -0.07323 0.00730 0.54331
 C325 C -0.08819 -0.01016 0.54587
 C326 C -0.10414 -0.00869 0.52850
 C327 C -0.09803 0.01022 0.51570
 H328 H -0.08756 -0.02292 0.55935
 H329 H -0.10671 0.01663 0.50060
 N330 N -0.01928 0.02537 0.57905
 N331 N -0.00715 0.04357 0.57293
 C332 C 0.01042 0.04625 0.58777
 C333 C 0.00915 0.02896 0.60383
 C334 C -0.00975 0.01600 0.59792
 H335 H 0.02321 0.05973 0.58702
 H336 H -0.01603 0.00091 0.60675
 H337 H -0.02829 0.03105 0.53675
 H338 H -0.04677 0.04959 0.55525
 N339 N 0.47522 0.57914 0.01908
 N340 N 0.45734 0.57248 0.00693
 C341 C 0.45429 0.58720 -0.01065
 C342 C 0.47120 0.60376 -0.00934
 C343 C 0.48419 0.59826 0.00963
 H344 H 0.44085 0.58603 -0.02341
 H345 H 0.49902 0.60746 0.01604
 Cu346 Cu 0.43996 0.54536 0.01588
 Cu347 Cu 0.48559 0.56257 0.04629
 Cu348 Cu 0.45367 0.51469 0.06242
 N349 N 0.42165 0.51892 0.02498
 N350 N 0.42716 0.50704 0.04338
 C351 C 0.41191 0.48986 0.04618
 C352 C 0.39610 0.49116 0.02864
 C353 C 0.40262 0.50971 0.01547
 H354 H 0.41227 0.47736 0.05990
 H355 H 0.39412 0.51597 0.00021
 N356 N 0.48111 0.52527 0.07934
 N357 N 0.49325 0.54348 0.07321
 C358 C 0.51086 0.54614 0.08801
 C359 C 0.50962 0.52883 0.10405
 C360 C 0.49069 0.51589 0.09819
 H361 H 0.52368 0.55958 0.08721
 H362 H 0.48446 0.50077 0.10699
 H363 H 0.47275 0.53077 0.03737
 H364 H 0.45374 0.54942 0.05510
 N365 N 0.52497 -0.07932 0.01941
 N366 N 0.54318 -0.07302 0.00759
 C367 C 0.54612 -0.08771 -0.01005
 C368 C 0.52883 -0.10389 -0.00910
 C369 C 0.51568 -0.09816 0.00970
 H370 H 0.55970 -0.08672 -0.02269
 H371 H 0.50048 -0.10698 0.01577
 Cu372 Cu 0.56102 -0.04612 0.01642
 Cu373 Cu 0.51457 -0.06256 0.04642
 Cu374 Cu 0.54644 -0.01480 0.06256
 N375 N 0.57895 -0.01944 0.02570
 N376 N 0.57307 -0.00723 0.04377
 C377 C 0.58804 0.01024 0.04635
 C378 C 0.60405 0.00878 0.02901
 C379 C 0.59791 -0.01013 0.01617
 H380 H 0.58729 0.02309 0.05973
 H381 H 0.60657 -0.01650 0.00105
 N382 N 0.51895 -0.02524 0.07940
 N383 N 0.50680 -0.04343 0.07325
 C384 C 0.48922 -0.04611 0.08808
 C385 C 0.49048 -0.02883 0.10416
 C386 C 0.50941 -0.01589 0.09828
 H387 H 0.47643 -0.05959 0.08731
 H388 H 0.51570 -0.00081 0.10714
 H389 H 0.52782 -0.03092 0.03696
 H390 H 0.54635 -0.04949 0.05536
 N391 N 1.02473 0.42084 0.51897
 N392 N 1.04293 0.42716 0.50715
 C393 C 1.04586 0.41255 0.48945
 C394 C 1.02859 0.39635 0.49041
 C395 C 1.01545 0.40200 0.50924
 H396 H 1.05944 0.41357 0.47684
 H397 H 1.00030 0.39312 0.51534
 Cu398 Cu 1.06077 0.45393 0.51618
 Cu399 Cu 1.01438 0.43753 0.54606
 Cu400 Cu 1.04625 0.48535 0.56219
 N401 N 1.07861 0.48069 0.52522
 N402 N 1.07276 0.49290 0.54329
 C403 C 1.08770 0.51039 0.54583
 C404 C 1.10363 0.50894 0.52844
 C405 C 1.09750 0.49003 0.51562
 H406 H 1.08701 0.52321 0.55924
 H407 H 1.10615 0.48364 0.50050
 N408 N 1.01884 0.47484 0.57906
 N409 N 1.00669 0.45664 0.57293
 C410 C 0.98913 0.45397 0.58778
 C411 C 0.99044 0.47127 0.60383
 C412 C 1.00934 0.48420 0.59794
 H413 H 0.97633 0.44051 0.58703
 H414 H 1.01563 0.49929 0.60677
 H415 H 1.02770 0.46922 0.53673
 H416 H 1.04619 0.45068 0.55518
 C417 C 0.37443 -0.00031 0.25019
 C418 C 0.12514 -0.00038 0.74969
 C419 C 0.62549 0.49981 0.25003
 C420 C 0.87484 0.50016 0.74989
 C421 C 0.24978 0.37528 -0.00006
 C422 C 0.75035 0.12467 0.00019
 C423 C 0.24995 0.62449 0.50003
 C424 C 0.74987 0.87558 0.49992
 C425 C -0.00051 0.25012 0.37472
 C426 C 0.00001 0.74999 0.12487
 C427 C 0.50016 0.24979 0.62567
 C428 C 0.49993 0.75001 0.87485
 C429 C 0.12694 0.22468 0.27451
 C430 C 0.11097 0.22780 0.28732
 C431 C 0.09193 0.23163 0.30261
 C432 C 0.09103 0.22026 0.32377
 C433 C 0.07256 0.22402 0.33866
 C434 C 0.05493 0.23918 0.33246
 C435 C 0.05583 0.25056 0.31130
 C436 C 0.07430 0.24679 0.29641
 C437 C 0.03582 0.24294 0.34766
 C438 C 0.01958 0.24614 0.36011
 H439 H 0.10457 0.20850 0.32874
 H440 H 0.07200 0.21511 0.35497
 H441 H 0.04227 0.26229 0.30632
 H442 H 0.07482 0.25569 0.28009
 C443 C 0.62739 0.72498 0.77446
 C444 C 0.61146 0.72802 0.78735
 C445 C 0.59242 0.73175 0.80268
 C446 C 0.59359 0.72409 0.82543
 C447 C 0.57510 0.72778 0.84033
 C448 C 0.55537 0.73915 0.83253
 C449 C 0.55420 0.74680 0.80977
 C450 C 0.57268 0.74311 0.79488
 C451 C 0.53627 0.74288 0.84776
 C452 C 0.52003 0.74606 0.86022
 H453 H 0.60877 0.71529 0.83164
 H454 H 0.57617 0.72178 0.85788
 H455 H 0.53901 0.75558 0.80355
 H456 H 0.57158 0.74911 0.77733
 C457 C 0.37227 0.77534 0.77468
 C458 C 0.38824 0.77217 0.78749
 C459 C 0.40732 0.76834 0.80276
 C460 C 0.40764 0.77869 0.82446
 C461 C 0.42616 0.77497 0.83931
 C462 C 0.44444 0.76086 0.83254
 C463 C 0.44415 0.75053 0.81083
 C464 C 0.42563 0.75426 0.79597
 C465 C 0.46358 0.75712 0.84773
 C466 C 0.47982 0.75394 0.86021
 H467 H 0.39359 0.78963 0.82987
 H468 H 0.42623 0.78308 0.85603
 H469 H 0.45824 0.73964 0.80539
 H470 H 0.42560 0.74618 0.77923
 C471 C -0.12794 0.27499 0.27430
 C472 C -0.11192 0.27208 0.28711
 C473 C -0.09285 0.26845 0.30242
 C474 C -0.09264 0.27885 0.32410
 C475 C -0.07418 0.27516 0.33903
 C476 C -0.05588 0.26104 0.33235
 C477 C -0.05607 0.25067 0.31066
 C478 C -0.07452 0.25436 0.29573
 C479 C -0.03680 0.25730 0.34760
 C480 C -0.02059 0.25410 0.36008
 H481 H -0.10672 0.28979 0.32945
 H482 H -0.07416 0.28330 0.35574
 H483 H -0.04197 0.23977 0.30529
 H484 H -0.07451 0.24624 0.27901
 C485 C -0.12735 0.72514 0.22540
 C486 C -0.11142 0.72816 0.21252
 C487 C -0.09241 0.73180 0.19714
 C488 C -0.09494 0.74634 0.17816
 C489 C -0.07647 0.74992 0.16321
 C490 C -0.05541 0.73897 0.16718
 C491 C -0.05286 0.72448 0.18620
 C492 C -0.07132 0.72090 0.20115
 C493 C -0.03632 0.74278 0.15195
 C494 C -0.02009 0.74600 0.13949
 H495 H -0.11115 0.75491 0.17495
 H496 H -0.07860 0.76124 0.14862
 H497 H -0.03660 0.71601 0.18948
 H498 H -0.06914 0.70967 0.21581
 C499 C 0.37200 0.22466 0.72583
 C500 C 0.38798 0.22775 0.71294
 C501 C 0.40711 0.23147 0.69762
 C502 C 0.42821 0.22058 0.70170
 C503 C 0.44679 0.22419 0.68686
 C504 C 0.44440 0.23872 0.66783
 C505 C 0.42332 0.24966 0.66378
 C506 C 0.40474 0.24604 0.67862
 C507 C 0.46365 0.24257 0.65270
 C508 C 0.47998 0.24580 0.64030
 H509 H 0.43031 0.20933 0.71635
 H510 H 0.46301 0.21571 0.69024
 H511 H 0.42128 0.26100 0.64919
 H512 H 0.38855 0.25462 0.67532
 C513 C 0.62821 0.27494 0.72602
 C514 C 0.61224 0.27189 0.71311
 C515 C 0.59310 0.26820 0.69777
 C516 C 0.57093 0.26484 0.70660
 C517 C 0.55238 0.26116 0.69175
 C518 C 0.55585 0.26083 0.66796
 C519 C 0.57801 0.26420 0.65911
 C520 C 0.59657 0.26789 0.67398
 C521 C 0.53665 0.25702 0.65274
 C522 C 0.52034 0.25379 0.64031
 H523 H 0.56800 0.26503 0.72495
 H524 H 0.53534 0.25853 0.69880
 H525 H 0.58093 0.26395 0.64077
 H526 H 0.61361 0.27045 0.66693
 C527 C 0.12742 0.77513 0.22542
 C528 C 0.11148 0.77205 0.21254
 C529 C 0.09243 0.76834 0.19720
 C530 C 0.09543 0.77085 0.17348
 C531 C 0.07695 0.76717 0.15857
 C532 C 0.05538 0.76097 0.16730
 C533 C 0.05237 0.75846 0.19102
 C534 C 0.07085 0.76214 0.20593
 C535 C 0.03631 0.75720 0.15202
 C536 C 0.02010 0.75399 0.13952
 H537 H 0.11204 0.77563 0.16655
 H538 H 0.07946 0.76913 0.14026
 H539 H 0.03577 0.75366 0.19796
 H540 H 0.06832 0.76015 0.22423
 C541 C 0.27403 0.12722 0.22521
 C542 C 0.28686 0.11126 0.22836
 C543 C 0.30227 0.09228 0.23208
 C544 C 0.31112 0.08005 0.21335
 C545 C 0.32613 0.06163 0.21697
 C546 C 0.33236 0.05537 0.23932
 C547 C 0.32354 0.06762 0.25804
 C548 C 0.30854 0.08604 0.25443
 C549 C 0.34744 0.03614 0.24307
 C550 C 0.35982 0.01982 0.24626
 H551 H 0.30641 0.08473 0.19600
 H552 H 0.33279 0.05224 0.20237
 H553 H 0.32820 0.06288 0.27540
 H554 H 0.30181 0.09537 0.26903
 C555 C 0.77440 0.62757 0.72496
 C556 C 0.78717 0.61159 0.72816
 C557 C 0.80251 0.59256 0.73189
 C558 C 0.80622 0.58422 0.75412
 C559 C 0.82122 0.56579 0.75773
 C560 C 0.83258 0.55565 0.73913
 C561 C 0.82884 0.56396 0.71689
 C562 C 0.81384 0.58238 0.71328
 C563 C 0.84775 0.53650 0.74283
 C564 C 0.86019 0.52025 0.74598
 H565 H 0.79752 0.59193 0.76864
 H566 H 0.82391 0.55943 0.77499
 H567 H 0.83747 0.55617 0.70237
 H568 H 0.81108 0.58867 0.69601
 C569 C 0.77443 0.37254 0.77484
 C570 C 0.78723 0.38854 0.77169
 C571 C 0.80256 0.40761 0.76798
 C572 C 0.81927 0.41309 0.78442
 C573 C 0.83425 0.43155 0.78077
 C574 C 0.83256 0.44461 0.76066
 C575 C 0.81582 0.43919 0.74425
 C576 C 0.80085 0.42073 0.74790
 C577 C 0.84776 0.46377 0.75698
 C578 C 0.86020 0.48005 0.75381
 H579 H 0.82073 0.40309 0.80002
 H580 H 0.84709 0.43565 0.79360
 H581 H 0.81433 0.44923 0.72868
 H582 H 0.78797 0.41669 0.73509
 C583 C 0.27382 -0.12808 0.27527
 C584 C 0.28662 -0.11205 0.27207
 C585 C 0.30195 -0.09294 0.26832
 C586 C 0.30024 -0.07980 0.24824
 C587 C 0.31522 -0.06132 0.24459
 C588 C 0.33199 -0.05587 0.26098
 C589 C 0.33366 -0.06896 0.28108
 C590 C 0.31868 -0.08744 0.28474
 C591 C 0.34723 -0.03670 0.25728
 C592 C 0.35973 -0.02043 0.25412
 H593 H 0.28735 -0.08384 0.23544
 H594 H 0.31370 -0.05128 0.22902
 H595 H 0.34649 -0.06485 0.29392
 H596 H 0.32014 -0.09742 0.30035
 C597 C 0.22590 -0.12796 0.72502
 C598 C 0.21305 -0.11198 0.72816
 C599 C 0.19764 -0.09293 0.73182
 C600 C 0.18223 -0.08633 0.71455
 C601 C 0.16723 -0.06787 0.71812
 C602 C 0.16754 -0.05593 0.73898
 C603 C 0.18299 -0.06248 0.75623
 C604 C 0.19799 -0.08093 0.75266
 C605 C 0.15229 -0.03677 0.74262
 C606 C 0.13981 -0.02051 0.74576
 H607 H 0.18182 -0.09542 0.69834
 H608 H 0.15544 -0.06289 0.70462
 H609 H 0.18347 -0.05330 0.77239
 H610 H 0.20985 -0.08581 0.76612
 C611 C 0.72625 0.37257 0.22535
 C612 C 0.71344 0.38854 0.22852
 C613 C 0.69806 0.40754 0.23222
 C614 C 0.67802 0.40957 0.21903
 C615 C 0.66303 0.42801 0.22261
 C616 C 0.66801 0.44448 0.23941
 C617 C 0.68806 0.44248 0.25258
 C618 C 0.70305 0.42404 0.24901
 C619 C 0.65271 0.46355 0.24302
 C620 C 0.64018 0.47975 0.24613
 H621 H 0.67402 0.39693 0.20598
 H622 H 0.64762 0.42944 0.21226
 H623 H 0.69211 0.45518 0.26556
 H624 H 0.71851 0.42268 0.25929
 C625 C 0.72573 0.62751 0.27499
 C626 C 0.71299 0.61148 0.27181
 C627 C 0.69772 0.59238 0.26809
 C628 C 0.69211 0.58559 0.24573
 C629 C 0.67713 0.56712 0.24213
 C630 C 0.66770 0.55539 0.26088
 C631 C 0.67336 0.56213 0.28325
 C632 C 0.68834 0.58059 0.28685
 C633 C 0.65255 0.53620 0.25716
 C634 C 0.64011 0.51992 0.25397
 H635 H 0.69930 0.59455 0.23111
 H636 H 0.67294 0.56198 0.22476
 H637 H 0.66624 0.55310 0.29786
 H638 H 0.69260 0.58568 0.30421
 C639 C 0.22559 0.12733 0.77450
 C640 C 0.21270 0.11139 0.77139
 C641 C 0.19725 0.09239 0.76773
 C642 C 0.18885 0.07984 0.78646
 C643 C 0.17387 0.06136 0.78290
 C644 C 0.16721 0.05536 0.76059
 C645 C 0.17559 0.06791 0.74187
 C646 C 0.19057 0.08639 0.74543
 C647 C 0.15215 0.03608 0.75685
 C648 C 0.13977 0.01975 0.75364
 H649 H 0.19390 0.08431 0.80378
 H650 H 0.16755 0.05172 0.79749
 H651 H 0.17061 0.06337 0.72454
 H652 H 0.19696 0.09596 0.73083
 C653 C 0.22468 0.27496 0.12701
 C654 C 0.22778 0.28784 0.11113
 C655 C 0.23148 0.30317 0.09216
 C656 C 0.22561 0.32644 0.09410
 C657 C 0.22925 0.34134 0.07565
 C658 C 0.23878 0.33302 0.05521
 C659 C 0.24460 0.30975 0.05326
 C660 C 0.24096 0.29486 0.07171
 C661 C 0.24255 0.34824 0.03618
 C662 C 0.24579 0.36067 0.01998
 H663 H 0.21824 0.33302 0.10985
 H664 H 0.22465 0.35930 0.07730
 H665 H 0.25193 0.30315 0.03751
 H666 H 0.24554 0.27689 0.07002
 C667 C 0.72513 0.77540 0.62702
 C668 C 0.72824 0.78827 0.61115
 C669 C 0.73195 0.80361 0.59221
 C670 C 0.74146 0.79530 0.57176
 C671 C 0.74506 0.81020 0.55331
 C672 C 0.73916 0.83344 0.55526
 C673 C 0.72966 0.84177 0.57570
 C674 C 0.72605 0.82687 0.59415
 C675 C 0.74280 0.84862 0.53620
 C676 C 0.74594 0.86101 0.51996
 H677 H 0.74606 0.77735 0.57008
 H678 H 0.75240 0.80361 0.53755
 H679 H 0.72503 0.85972 0.57734
 H680 H 0.71868 0.83344 0.60990
 C681 C 0.77498 0.77542 0.37288
 C682 C 0.77184 0.78829 0.38874
 C683 C 0.76809 0.80362 0.40769
 C684 C 0.77146 0.82729 0.40494
 C685 C 0.76781 0.84218 0.42340
 C686 C 0.76077 0.83342 0.44463
 C687 C 0.75742 0.80975 0.44738
 C688 C 0.76107 0.79487 0.42894
 C689 C 0.75702 0.84860 0.46367
 C690 C 0.75381 0.86099 0.47989
 H691 H 0.77691 0.83421 0.38857
 H692 H 0.77047 0.86047 0.42112
 H693 H 0.75200 0.80282 0.46377
 H694 H 0.75843 0.77658 0.43124
 C695 C 0.27481 0.27512 -0.12735
 C696 C 0.27160 0.28792 -0.11142
 C697 C 0.26775 0.30322 -0.09243
 C698 C 0.26069 0.29447 -0.07119
 C699 C 0.25703 0.30934 -0.05272
 C700 C 0.26040 0.33302 -0.05543
 C701 C 0.26741 0.34179 -0.07667
 C702 C 0.27108 0.32691 -0.09515
 C703 C 0.25677 0.34822 -0.03634
 C704 C 0.25366 0.36066 -0.02011
 H705 H 0.25806 0.27618 -0.06890
 H706 H 0.25160 0.30240 -0.03635
 H707 H 0.27006 0.36008 -0.07894
 H708 H 0.27652 0.33385 -0.11151
 C709 C 0.72537 0.22481 -0.12708
 C710 C 0.72860 0.21201 -0.11116
 C711 C 0.73244 0.19673 -0.09216
 C712 C 0.73610 0.17326 -0.09607
 C713 C 0.73972 0.15839 -0.07759
 C714 C 0.73969 0.16695 -0.05513
 C715 C 0.73610 0.19042 -0.05122
 C716 C 0.73248 0.20529 -0.06970
 C717 C 0.74335 0.15174 -0.03607
 C718 C 0.74646 0.13929 -0.01985
 H719 H 0.73614 0.16649 -0.11338
 H720 H 0.74253 0.14027 -0.08079
 H721 H 0.73608 0.19720 -0.03392
 H722 H 0.72969 0.22340 -0.06648
 C723 C 0.22489 0.72498 0.37303
 C724 C 0.22792 0.71207 0.38890
 C725 C 0.23153 0.69668 0.40786
 C726 C 0.23147 0.70514 0.43035
 C727 C 0.23509 0.69022 0.44878
 C728 C 0.23877 0.66678 0.44480
 C729 C 0.23876 0.65828 0.42232
 C730 C 0.23514 0.67321 0.40388
 C731 C 0.24268 0.65155 0.46381
 C732 C 0.24598 0.63911 0.47999
 H733 H 0.22868 0.72325 0.43363
 H734 H 0.23505 0.69695 0.46611
 H735 H 0.24157 0.64017 0.41907
 H736 H 0.23520 0.66649 0.38656
 C737 C 0.27436 0.72494 0.62725
 C738 C 0.27127 0.71205 0.61136
 C739 C 0.26760 0.69668 0.59239
 C740 C 0.26483 0.67308 0.59628
 C741 C 0.26128 0.65815 0.57782
 C742 C 0.26050 0.66678 0.55541
 C743 C 0.26323 0.69038 0.55153
 C744 C 0.26678 0.70530 0.56998
 C745 C 0.25690 0.65154 0.53635
 C746 C 0.25383 0.63910 0.52010
 H747 H 0.26543 0.66625 0.61355
 H748 H 0.25915 0.63993 0.58100
 H749 H 0.26261 0.69722 0.53426
 H750 H 0.26889 0.72351 0.56678
 C751 C 0.77565 0.22466 0.12754
 C752 C 0.77260 0.21188 0.11156
 C753 C 0.76892 0.19660 0.09254
 C754 C 0.76320 0.17355 0.09650
 C755 C 0.75954 0.15869 0.07801
 C756 C 0.76160 0.16684 0.05550
 C757 C 0.76736 0.18987 0.05154
 C758 C 0.77101 0.20473 0.07002
 C759 C 0.75766 0.15167 0.03645
 C760 C 0.75435 0.13926 0.02024
 H761 H 0.76154 0.16711 0.11385
 H762 H 0.75508 0.14091 0.08125
 H763 H 0.76897 0.19633 0.03419
 H764 H 0.77543 0.22252 0.06677
 C765 C 0.47483 0.37693 0.52476
 C766 C 0.47794 0.36103 0.53767
 C767 C 0.48172 0.34203 0.55305
 C768 C 0.48513 0.31987 0.54430
 C769 C 0.48884 0.30142 0.55923
 C770 C 0.48917 0.30503 0.58301
 C771 C 0.48579 0.32719 0.59175
 C772 C 0.48208 0.34565 0.57682
 C773 C 0.49297 0.28600 0.59835
 C774 C 0.49619 0.26985 0.61094
 H775 H 0.48493 0.31687 0.52596
 H776 H 0.49145 0.28437 0.55225
 H777 H 0.48603 0.33020 0.61009
 H778 H 0.47950 0.36270 0.58379
 C779 C -0.02537 0.87735 0.02465
 C780 C -0.02233 0.86146 0.03755
 C781 C -0.01859 0.84244 0.05286
 C782 C -0.01822 0.84598 0.07664
 C783 C -0.01448 0.82746 0.09148
 C784 C -0.01110 0.80536 0.08259
 C785 C -0.01146 0.80184 0.05882
 C786 C -0.01520 0.82034 0.04399
 C787 C -0.00724 0.78628 0.09779
 C788 C -0.00398 0.77006 0.11024
 H789 H -0.02080 0.86300 0.08368
 H790 H -0.01422 0.83037 0.10983
 H791 H -0.00886 0.78481 0.05176
 H792 H -0.01543 0.81742 0.02564
 C793 C 0.02542 0.62262 0.02464
 C794 C 0.02236 0.63851 0.03754
 C795 C 0.01865 0.65751 0.05288
 C796 C 0.02370 0.67994 0.04574
 C797 C 0.01995 0.69844 0.06057
 C798 C 0.01116 0.69460 0.08262
 C799 C 0.00608 0.67218 0.08975
 C800 C 0.00983 0.65367 0.07491
 C801 C 0.00726 0.71369 0.09780
 C802 C 0.00400 0.72991 0.11024
 H803 H 0.03048 0.68311 0.02873
 H804 H 0.02387 0.71572 0.05485
 H805 H -0.00079 0.66903 0.10673
 H806 H 0.00581 0.63640 0.08059
 C807 C 0.52544 0.12263 0.52485
 C808 C 0.52235 0.13851 0.53777
 C809 C 0.51865 0.15750 0.55317
 C810 C 0.52373 0.17995 0.54614
 C811 C 0.52004 0.19841 0.56107
 C812 C 0.51129 0.19449 0.58312
 C813 C 0.50620 0.17204 0.59015
 C814 C 0.50988 0.15358 0.57521
 C815 C 0.50741 0.21353 0.59844
 C816 C 0.50415 0.22970 0.61099
 H817 H 0.53050 0.18318 0.52913
 H818 H 0.52398 0.21570 0.55541
 H819 H 0.49935 0.16881 0.60712
 H820 H 0.50588 0.13629 0.58083
 C821 C -0.02572 0.12283 0.47509
 C822 C -0.02272 0.13873 0.46218
 C823 C -0.01906 0.15772 0.44682
 C824 C -0.00714 0.15439 0.42620
 C825 C -0.00345 0.17287 0.41133
 C826 C -0.01168 0.19476 0.41700
 C827 C -0.02357 0.19810 0.43763
 C828 C -0.02726 0.17962 0.45250
 C829 C -0.00778 0.21383 0.40181
 C830 C -0.00452 0.23005 0.38935
 H831 H -0.00068 0.13754 0.42168
 H832 H 0.00585 0.17012 0.39546
 H833 H -0.02992 0.21498 0.44222
 H834 H -0.03645 0.18241 0.46843
 C835 C 0.47473 0.62275 0.97532
 C836 C 0.47783 0.63868 0.96247
 C837 C 0.48162 0.65768 0.94713
 C838 C 0.49354 0.65432 0.92652
 C839 C 0.49720 0.67278 0.91160
 C840 C 0.48895 0.69467 0.91723
 C841 C 0.47711 0.69805 0.93788
 C842 C 0.47344 0.67959 0.95280
 C843 C 0.49277 0.71372 0.90198
 C844 C 0.49598 0.72992 0.88948
 H845 H 0.50000 0.63746 0.92201
 H846 H 0.50647 0.67000 0.89573
 H847 H 0.47075 0.71493 0.94245
 H848 H 0.46428 0.68241 0.96873
 C849 C 0.52519 0.87724 0.97544
 C850 C 0.52210 0.86137 0.96251
 C851 C 0.51838 0.84236 0.94714
 C852 C 0.51740 0.84606 0.92341
 C853 C 0.51370 0.82758 0.90850
 C854 C 0.51097 0.80534 0.91727
 C855 C 0.51196 0.80164 0.94100
 C856 C 0.51567 0.82011 0.95590
 C857 C 0.50713 0.78629 0.90200
 C858 C 0.50390 0.77009 0.88950
 H859 H 0.51948 0.86319 0.91645
 H860 H 0.51293 0.83062 0.89019
 H861 H 0.50985 0.78451 0.94797
 H862 H 0.51639 0.81706 0.97421
 C863 C 0.02500 0.37747 0.47497
 C864 C 0.02194 0.36157 0.46208
 C865 C 0.01821 0.34254 0.44677
 C866 C 0.01546 0.32031 0.45560
 C867 C 0.01168 0.30182 0.44075
 C868 C 0.01065 0.30547 0.41702
 C869 C 0.01341 0.32769 0.40819
 C870 C 0.01719 0.34618 0.42304
 C871 C 0.00676 0.28641 0.40181
 C872 C 0.00349 0.27019 0.38935
 H873 H 0.01620 0.31730 0.47392
 H874 H 0.00953 0.28471 0.44776
 H875 H 0.01261 0.33069 0.38987
 H876 H 0.01928 0.36330 0.41605
 C877 C 0.37700 0.52366 0.47520
 C878 C 0.36100 0.53641 0.47839
 C879 C 0.34199 0.55176 0.48210
 C880 C 0.33036 0.55174 0.50315
 C881 C 0.31197 0.56677 0.50676
 C882 C 0.30516 0.58190 0.48935
 C883 C 0.31673 0.58187 0.46828
 C884 C 0.33512 0.56684 0.46467
 C885 C 0.28615 0.59723 0.49301
 C886 C 0.26999 0.60980 0.49614
 H887 H 0.33551 0.54013 0.51673
 H888 H 0.30304 0.56658 0.52307
 H889 H 0.31151 0.59341 0.45467
 H890 H 0.34397 0.56697 0.44833
 C891 C 0.87730 0.02409 -0.02463
 C892 C 0.86138 0.03689 -0.02141
 C893 C 0.84244 0.05224 -0.01766
 C894 C 0.81992 0.04485 -0.02190
 C895 C 0.80151 0.05984 -0.01840
 C896 C 0.80556 0.08226 -0.01066
 C897 C 0.82808 0.08966 -0.00641
 C898 C 0.84651 0.07467 -0.00992
 C899 C 0.78658 0.09755 -0.00693
 C900 C 0.77040 0.11005 -0.00375
 H901 H 0.81662 0.02754 -0.02791
 H902 H 0.78414 0.05396 -0.02171
 H903 H 0.83137 0.10697 -0.00041
 H904 H 0.86388 0.08054 -0.00661
 C905 C 0.62313 0.02393 0.02508
 C906 C 0.63912 0.03670 0.02187
 C907 C 0.65816 0.05204 0.01817
 C908 C 0.65987 0.07239 0.03089
 C909 C 0.67832 0.08737 0.02728
 C910 C 0.69512 0.08205 0.01092
 C911 C 0.69348 0.06165 -0.00174
 C912 C 0.67503 0.04666 0.00187
 C913 C 0.71413 0.09739 0.00724
 C914 C 0.73030 0.10998 0.00409
 H915 H 0.64696 0.07666 0.04358
 H916 H 0.67949 0.10305 0.03721
 H917 H 0.70645 0.05734 -0.01437
 H918 H 0.67391 0.03094 -0.00801
 C919 C 0.12267 0.52405 0.52454
 C920 C 0.13864 0.53683 0.52138
 C921 C 0.15765 0.55215 0.51774
 C922 C 0.15400 0.57353 0.50735
 C923 C 0.17246 0.58851 0.50389
 C924 C 0.19461 0.58215 0.51083
 C925 C 0.19826 0.56076 0.52122
 C926 C 0.17980 0.54578 0.52468
 C927 C 0.21365 0.59739 0.50710
 C928 C 0.22987 0.60987 0.50393
 H929 H 0.13692 0.57859 0.50195
 H930 H 0.16949 0.60500 0.49580
 H931 H 0.21535 0.55568 0.52660
 H932 H 0.18278 0.52928 0.53275
 C933 C 0.12285 0.47590 -0.02487
 C934 C 0.13878 0.46311 -0.02166
 C935 C 0.15771 0.44774 -0.01795
 C936 C 0.17076 0.44933 0.00218
 C937 C 0.18914 0.43430 0.00579
 C938 C 0.19448 0.41764 -0.01071
 C939 C 0.18146 0.41609 -0.03085
 C940 C 0.16309 0.43112 -0.03446
 C941 C 0.21353 0.40240 -0.00708
 C942 C 0.22973 0.38991 -0.00396
 H943 H 0.16675 0.46215 0.01505
 H944 H 0.19919 0.43568 0.02138
 H945 H 0.18554 0.40333 -0.04375
 H946 H 0.15310 0.42979 -0.05008
 C947 C 0.62301 0.97607 0.47515
 C948 C 0.63895 0.96332 0.47835
 C949 C 0.65793 0.94805 0.48209
 C950 C 0.67927 0.95261 0.47193
 C951 C 0.69769 0.93763 0.47544
 C952 C 0.69479 0.91805 0.48910
 C953 C 0.67349 0.91353 0.49933
 C954 C 0.65507 0.92852 0.49583
 C955 C 0.71375 0.90276 0.49281
 C956 C 0.72987 0.89022 0.49598
 H957 H 0.68164 0.96771 0.46131
 H958 H 0.71415 0.94130 0.46753
 H959 H 0.67114 0.89848 0.51000
 H960 H 0.63863 0.92488 0.50378
 C961 C 0.87677 0.97626 0.52463
 C962 C 0.86078 0.96352 0.52147
 C963 C 0.84179 0.94821 0.51780
 C964 C 0.83504 0.93308 0.53521
 C965 C 0.81667 0.91802 0.53162
 C966 C 0.80506 0.91805 0.51059
 C967 C 0.81175 0.93324 0.49319
 C968 C 0.83012 0.94830 0.49679
 C969 C 0.78606 0.90276 0.50694
 C970 C 0.76990 0.89022 0.50382
 H971 H 0.84396 0.93292 0.55152
 H972 H 0.81152 0.90640 0.54520
 H973 H 0.80277 0.93345 0.47691
 H974 H 0.83521 0.95997 0.48323
 C975 C 0.37692 0.47611 0.02482
 C976 C 0.36091 0.46334 0.02169
 C977 C 0.34189 0.44798 0.01799
 C978 C 0.33039 0.43826 0.03675
 C979 C 0.31201 0.42319 0.03315
 C980 C 0.30510 0.41775 0.01078
 C981 C 0.31655 0.42751 -0.00798
 C982 C 0.33493 0.44258 -0.00438
 C983 C 0.28605 0.40246 0.00706
 C984 C 0.26985 0.38993 0.00388
 H985 H 0.33563 0.44232 0.05411
 H986 H 0.30318 0.41581 0.04776
 H987 H 0.31126 0.42350 -0.02534
 H988 H 0.34370 0.45001 -0.01900
 C989 C 0.52494 0.47480 0.37713
 C990 C 0.53778 0.47794 0.36121
 C991 C 0.55313 0.48170 0.34224
 C992 C 0.57251 0.46769 0.33944
 C993 C 0.58746 0.47136 0.32102
 C994 C 0.58310 0.48906 0.30534
 C995 C 0.56370 0.50305 0.30812
 C996 C 0.54875 0.49938 0.32654
 C997 C 0.59832 0.49273 0.28626
 C998 C 0.61081 0.49587 0.27006
 H999 H 0.57603 0.45395 0.35146
 H1000 H 0.60237 0.46040 0.31897
 H1001 H 0.56013 0.51674 0.29605
 H1002 H 0.53379 0.51029 0.32853
 C1003 C 0.02459 -0.02491 0.87690
 C1004 C 0.03738 -0.02173 0.86095
 C1005 C 0.05270 -0.01799 0.84196
 C1006 C 0.07206 -0.03202 0.83919
 C1007 C 0.08701 -0.02843 0.82076
 C1008 C 0.08265 -0.01079 0.80502
 C1009 C 0.06327 0.00323 0.80776
 C1010 C 0.04832 -0.00036 0.82621
 C1011 C 0.09790 -0.00725 0.78592
 C1012 C 0.11044 -0.00424 0.76973
 H1013 H 0.07558 -0.04572 0.85127
 H1014 H 0.10190 -0.03941 0.81875
 H1015 H 0.05969 0.01689 0.79565
 H1016 H 0.03338 0.01057 0.82818
 C1017 C 0.02440 0.02517 0.62281
 C1018 C 0.03721 0.02196 0.63873
 C1019 C 0.05254 0.01812 0.65770
 C1020 C 0.07311 0.00608 0.65435
 C1021 C 0.08809 0.00241 0.67275
 C1022 C 0.08254 0.01077 0.69459
 C1023 C 0.06193 0.02277 0.69796
 C1024 C 0.04696 0.02644 0.67955
 C1025 C 0.09786 0.00688 0.71356
 C1026 C 0.11043 0.00360 0.72968
 H1027 H 0.07756 -0.00046 0.63753
 H1028 H 0.10394 -0.00694 0.66998
 H1029 H 0.05743 0.02925 0.71479
 H1030 H 0.03107 0.03573 0.68234
 C1031 C 0.52494 0.52503 0.12298
 C1032 C 0.53780 0.52184 0.13887
 C1033 C 0.55315 0.51807 0.15784
 C1034 C 0.55199 0.53222 0.17724
 C1035 C 0.56695 0.52859 0.19565
 C1036 C 0.58314 0.51080 0.19473
 C1037 C 0.58427 0.49661 0.17536
 C1038 C 0.56930 0.50024 0.15694
 C1039 C 0.59835 0.50695 0.21379
 C1040 C 0.61084 0.50373 0.22998
 H1041 H 0.53953 0.54602 0.17813
 H1042 H 0.56587 0.53959 0.21060
 H1043 H 0.59666 0.48275 0.17452
 H1044 H 0.57030 0.48917 0.14203
 C1045 C 0.47521 -0.02506 0.12314
 C1046 C 0.46237 -0.02191 0.13906
 C1047 C 0.44700 -0.01817 0.15803
 C1048 C 0.45103 -0.00012 0.17341
 C1049 C 0.43605 0.00353 0.19182
 C1050 C 0.41697 -0.01087 0.19491
 C1051 C 0.41296 -0.02894 0.17955
 C1052 C 0.42794 -0.03258 0.16114
 C1053 C 0.40168 -0.00725 0.21397
 C1054 C 0.38913 -0.00418 0.23015
 H1055 H 0.46574 0.01111 0.17118
 H1056 H 0.43937 0.01751 0.20365
 H1057 H 0.39831 -0.04022 0.18183
 H1058 H 0.42469 -0.04661 0.14937
 C1059 C 0.97523 0.47506 0.62282
 C1060 C 0.96245 0.47825 0.63875
 C1061 C 0.94714 0.48204 0.65773
 C1062 C 0.95127 0.50009 0.67309
 C1063 C 0.93633 0.50377 0.69151
 C1064 C 0.91722 0.48943 0.69462
 C1065 C 0.91314 0.47135 0.67929
 C1066 C 0.92807 0.46767 0.66087
 C1067 C 0.90200 0.49312 0.71368
 C1068 C 0.88949 0.49626 0.72986
 H1069 H 0.96600 0.51127 0.67083
 H1070 H 0.93970 0.51774 0.70333
 H1071 H 0.89846 0.46011 0.68160
 H1072 H 0.92477 0.45364 0.64910
 C1073 C 0.97538 0.52494 0.87698
 C1074 C 0.96258 0.52179 0.86105
 C1075 C 0.94727 0.51804 0.84205
 C1076 C 0.92448 0.51132 0.84604
 C1077 C 0.90954 0.50776 0.82758
 C1078 C 0.91735 0.51093 0.80508
 C1079 C 0.94016 0.51760 0.80109
 C1080 C 0.95509 0.52115 0.81955
 C1081 C 0.90206 0.50723 0.78607
 C1082 C 0.88952 0.50408 0.76991
 H1083 H 0.91828 0.50884 0.86339
 H1084 H 0.89196 0.50256 0.83084
 H1085 H 0.94638 0.52004 0.78375
 H1086 H 0.97269 0.52631 0.81628
 C1087 C 0.47534 0.02488 0.37707
 C1088 C 0.46251 0.02170 0.36115
 C1089 C 0.44714 0.01794 0.34218
 C1090 C 0.44994 0.03037 0.32180
 C1091 C 0.43492 0.02679 0.30341
 C1092 C 0.41702 0.01076 0.30534
 C1093 C 0.41427 -0.00172 0.32570
 C1094 C 0.42930 0.00186 0.34408
 C1095 C 0.40170 0.00692 0.28635
 C1096 C 0.38914 0.00366 0.27021
 H1097 H 0.46372 0.04280 0.32014
 H1098 H 0.43727 0.03647 0.28772
 H1099 H 0.40055 -0.01422 0.32733
 H1100 H 0.42702 -0.00788 0.35975
   
