data_POSCAR
  _audit_creation_date              2014-09-24
  _audit_creation_method            'ToBaCCo'
  _symmetry_space_group_name_H-M    'P1'
  _symmetry_Int_Tables_number       1
  _symmetry_cell_setting            triclinic
  loop_
  _symmetry_equiv_pos_as_xyz
 x,y,z
_cell_length_a 37.1019
_cell_length_b 31.4138
_cell_length_c 35.5843
_cell_angle_alpha 89.019800
_cell_angle_beta 92.365300
_cell_angle_gamma 87.206500
loop_
  _atom_site_label
  _atom_site_type_symbol
  _atom_site_fract_x
  _atom_site_fract_y
  _atom_site_fract_z
C1 C 0.30905 0.31553 0.22388
 H2 H 0.31506 0.31891 0.25366
 C3 C 0.32758 0.33892 0.19777
 H4 H 0.34757 0.36054 0.20775
 C5 C 0.27568 0.28340 0.17480
 H6 H 0.25575 0.26140 0.16577
 C7 C 0.29355 0.30605 0.14781
 H8 H 0.28724 0.30058 0.11839
 N9 N 0.28310 0.28901 0.21209
 C10 C 0.20413 0.28143 0.29958
 H11 H 0.19808 0.24825 0.29762
 C12 C 0.18531 0.30743 0.32427
 H13 H 0.16559 0.29351 0.34174
 C14 C 0.23617 0.33989 0.27833
 H15 H 0.25548 0.35280 0.26001
 C16 C 0.21796 0.36710 0.30265
 H17 H 0.22355 0.40057 0.30223
 Zn18 Zn 0.25623 0.25894 0.24753
 N19 N 0.22978 0.29759 0.27797
 C20 C 0.27267 0.19862 0.30569
 N21 N 0.28767 0.22277 0.27898
 C22 C 0.32402 0.22088 0.27482
 C23 C 0.34679 0.19503 0.29888
 C24 C 0.29434 0.17229 0.33017
 C25 C 0.19336 0.24540 0.20367
 C26 C 0.16944 0.22229 0.18170
 C27 C 0.20651 0.15842 0.19675
 C28 C 0.22975 0.18276 0.21834
 N29 N 0.22297 0.22548 0.22113
 H30 H 0.24377 0.19942 0.30794
 H31 H 0.33552 0.23920 0.25277
 H32 H 0.37555 0.19380 0.29475
 H33 H 0.28169 0.15379 0.35146
 H34 H 0.18890 0.27952 0.20603
 H35 H 0.14695 0.23932 0.16694
 H36 H 0.21270 0.12454 0.19448
 H37 H 0.25370 0.16768 0.23206
 C38 C 0.19267 0.35074 0.32671
 C39 C 0.31938 0.33500 0.15914
 C40 C 0.17596 0.17812 0.17781
 C41 C 0.33199 0.17065 0.32737
 C42 C 0.81099 0.81425 0.21968
 H43 H 0.81844 0.81629 0.24928
 C44 C 0.82930 0.83749 0.19324
 H45 H 0.85058 0.85734 0.20330
 C46 C 0.77422 0.78585 0.17141
 H47 H 0.75315 0.76517 0.16274
 C48 C 0.79139 0.80881 0.14410
 H49 H 0.78311 0.80390 0.11515
 N50 N 0.78365 0.78945 0.20847
 C51 C 0.70460 0.78197 0.29551
 H52 H 0.69771 0.74915 0.29254
 C53 C 0.68591 0.80787 0.32036
 H54 H 0.66535 0.79419 0.33688
 C55 C 0.73902 0.83957 0.27687
 H56 H 0.75941 0.85209 0.25963
 C57 C 0.72093 0.86670 0.30136
 H58 H 0.72759 0.89981 0.30205
 Zn59 Zn 0.75724 0.75919 0.24426
 N60 N 0.73125 0.79775 0.27504
 C61 C 0.77343 0.69966 0.30275
 N62 N 0.78867 0.72286 0.27555
 C63 C 0.82497 0.71991 0.27108
 C64 C 0.84747 0.69399 0.29538
 C65 C 0.79480 0.67329 0.32745
 C66 C 0.69350 0.74528 0.20162
 C67 C 0.66953 0.72200 0.17985
 C68 C 0.70768 0.65864 0.19353
 C69 C 0.73095 0.68314 0.21491
 N70 N 0.72368 0.72570 0.21825
 H71 H 0.74455 0.70140 0.30529
 H72 H 0.83661 0.73744 0.24863
 H73 H 0.87619 0.69194 0.29108
 H74 H 0.78197 0.65563 0.34916
 H75 H 0.68863 0.77929 0.20441
 H76 H 0.64659 0.73881 0.16570
 H77 H 0.71429 0.62490 0.19081
 H78 H 0.75532 0.66833 0.22802
 C79 C 0.69445 0.85068 0.32419
 C80 C 0.81913 0.83601 0.15463
 C81 C 0.67659 0.67800 0.17534
 C82 C 0.83242 0.67064 0.32439
 C83 C 0.80120 0.28543 0.71637
 H84 H 0.81686 0.26812 0.73840
 C85 C 0.81872 0.31112 0.69114
 H86 H 0.84781 0.31257 0.69372
 C87 C 0.74449 0.30529 0.68664
 H88 H 0.71552 0.30360 0.68530
 C89 C 0.76085 0.33139 0.66094
 H90 H 0.74391 0.34964 0.64042
 N91 N 0.76474 0.28227 0.71327
 C92 C 0.68565 0.25962 0.79728
 H93 H 0.68341 0.22551 0.79539
 C94 C 0.66348 0.28310 0.82099
 H95 H 0.64482 0.26631 0.83767
 C96 C 0.71426 0.32201 0.77891
 H97 H 0.73437 0.33694 0.76273
 C98 C 0.69259 0.34673 0.80214
 H99 H 0.69617 0.38070 0.80333
 Zn100 Zn 0.74070 0.24577 0.74629
 N101 N 0.71059 0.27925 0.77710
 C102 C 0.77285 0.21276 0.81493
 N103 N 0.77511 0.21242 0.77696
 C104 C 0.80145 0.18850 0.76066
 C105 C 0.82672 0.16345 0.78261
 C106 C 0.79708 0.18778 0.83798
 C107 C 0.67977 0.22746 0.70125
 C108 C 0.65714 0.20310 0.67897
 C109 C 0.69808 0.14201 0.69171
 C110 C 0.71997 0.16761 0.71371
 N111 N 0.71087 0.20975 0.71756
 H112 H 0.75208 0.23227 0.82759
 H113 H 0.80281 0.18879 0.73034
 H114 H 0.84642 0.14480 0.76767
 H115 H 0.79385 0.18910 0.86806
 H116 H 0.67235 0.26063 0.70564
 H117 H 0.63331 0.21864 0.66539
 H118 H 0.70603 0.10864 0.68879
 H119 H 0.74428 0.15364 0.72746
 C120 C 0.66676 0.32741 0.82369
 C121 C 0.79859 0.33395 0.66247
 C122 C 0.66619 0.15966 0.67383
 C123 C 0.82495 0.16225 0.82232
 C124 C 0.30079 0.78481 0.71611
 H125 H 0.31631 0.76635 0.73752
 C126 C 0.31871 0.80987 0.69075
 H127 H 0.34792 0.80976 0.69263
 C128 C 0.24416 0.80798 0.68795
 H129 H 0.21510 0.80795 0.68734
 C130 C 0.26094 0.83349 0.66211
 H131 H 0.24425 0.85286 0.64215
 N132 N 0.26413 0.78363 0.71389
 C133 C 0.18541 0.76210 0.79862
 H134 H 0.18346 0.72792 0.79705
 C135 C 0.16331 0.78558 0.82236
 H136 H 0.14493 0.76877 0.83939
 C137 C 0.21336 0.82464 0.77941
 H138 H 0.23321 0.83961 0.76292
 C139 C 0.19176 0.84937 0.80273
 H140 H 0.19510 0.88339 0.80368
 Zn141 Zn 0.23980 0.74786 0.74729
 N142 N 0.20994 0.78181 0.77794
 C143 C 0.27396 0.71901 0.81626
 N144 N 0.27426 0.71500 0.77828
 C145 C 0.29899 0.68832 0.76229
 C146 C 0.32414 0.66366 0.78470
 C147 C 0.29861 0.69505 0.83970
 C148 C 0.17932 0.73003 0.70140
 C149 C 0.15657 0.70584 0.67909
 C150 C 0.19538 0.64364 0.69469
 C151 C 0.21741 0.66907 0.71672
 N152 N 0.20955 0.71170 0.71903
 H153 H 0.25460 0.74082 0.82857
 H154 H 0.29905 0.68601 0.73199
 H155 H 0.34268 0.64182 0.77116
 H156 H 0.29770 0.69876 0.86985
 H157 H 0.17266 0.76355 0.70475
 H158 H 0.13350 0.72180 0.66441
 H159 H 0.20241 0.60989 0.69290
 H160 H 0.24079 0.65452 0.73172
 C161 C 0.16628 0.82995 0.82467
 C162 C 0.29880 0.83407 0.66280
 C163 C 0.16456 0.66197 0.67530
 C164 C 0.32417 0.66681 0.82408
 C165 C -0.02575 -0.01745 0.03393
 C166 C -0.01001 0.00629 0.00574
 C167 C -0.03203 0.03048 -0.02049
 C168 C -0.06972 0.03193 -0.01810
 C169 C -0.08520 0.00716 0.00963
 C170 C -0.06350 -0.01774 0.03566
 C171 C 0.02958 0.00625 0.00408
 C172 C 0.04715 -0.01392 -0.02540
 C173 C 0.08492 -0.01416 -0.02704
 C174 C 0.10486 0.00612 0.00133
 C175 C 0.08757 0.02637 0.03112
 C176 C 0.04980 0.02627 0.03219
 H177 H -0.00854 -0.03669 0.05359
 H178 H -0.01973 0.04923 -0.04190
 H179 H 0.03134 -0.02948 -0.04695
 H180 H 0.03598 0.04174 0.05490
 H181 H -0.11434 0.00717 0.01091
 H182 H 0.13393 0.00606 0.00025
 C183 C -0.03956 0.46831 0.53785
 C184 C -0.02221 0.48874 0.50887
 C185 C -0.04269 0.51081 0.48017
 C186 C -0.08057 0.51283 0.48011
 C187 C -0.09768 0.49213 0.50937
 C188 C -0.07747 0.46952 0.53820
 C189 C 0.01745 0.48579 0.50771
 C190 C 0.03399 0.46339 0.47890
 C191 C 0.07178 0.46045 0.47718
 C192 C 0.09277 0.48174 0.50405
 C193 C 0.07647 0.50445 0.53321
 C194 C 0.03864 0.50587 0.53491
 H195 H -0.02335 0.45019 0.55911
 H196 H -0.02894 0.52624 0.45777
 H197 H 0.01717 0.44866 0.45773
 H198 H 0.02547 0.52318 0.55703
 H199 H -0.12682 0.49417 0.51033
 H200 H 0.12179 0.48083 0.50184
 C201 C 0.46226 -0.03482 0.53706
 C202 C 0.47943 -0.01408 0.50812
 C203 C 0.45879 0.00841 0.47978
 C204 C 0.42094 0.01050 0.48005
 C205 C 0.40401 -0.01046 0.50926
 C206 C 0.42435 -0.03347 0.53775
 C207 C 0.51908 -0.01692 0.50668
 C208 C 0.53548 -0.03876 0.47747
 C209 C 0.57326 -0.04141 0.47540
 C210 C 0.59433 -0.02029 0.50232
 C211 C 0.57817 0.00193 0.53185
 C212 C 0.54038 0.00296 0.53391
 H213 H 0.47859 -0.05322 0.55804
 H214 H 0.47237 0.02412 0.45741
 H215 H 0.51854 -0.05324 0.45626
 H216 H 0.52730 0.01991 0.55630
 H217 H 0.37488 -0.00825 0.51044
 H218 H 0.62330 -0.02089 0.49983
 C219 C 0.47594 0.47847 0.03267
 C220 C 0.49087 0.50378 0.00505
 C221 C 0.46820 0.52875 -0.01998
 C222 C 0.43054 0.52919 -0.01719
 C223 C 0.41592 0.50290 0.01008
 C224 C 0.43829 0.47754 0.03527
 C225 C 0.53036 0.50452 0.00276
 C226 C 0.54780 0.48417 -0.02669
 C227 C 0.58551 0.48438 -0.02877
 C228 C 0.60551 0.50526 -0.00080
 C229 C 0.58835 0.52562 0.02901
 C230 C 0.55062 0.52513 0.03045
 H231 H 0.49385 0.45872 0.05121
 H232 H 0.48000 0.54861 -0.04093
 H233 H 0.53194 0.46810 -0.04788
 H234 H 0.53688 0.54061 0.05321
 H235 H 0.38689 0.50190 0.01164
 H236 H 0.63454 0.50549 -0.00217
 C237 C 0.13972 -0.08308 -0.11076
 C238 C 0.10686 -0.09638 -0.09779
 N239 N 0.09315 -0.13269 -0.11117
 C240 C 0.11109 -0.15670 -0.13654
 C241 C 0.14462 -0.14408 -0.14902
 N242 N 0.15775 -0.10711 -0.13590
 N243 N 0.15342 -0.04671 -0.09757
 C244 C 0.13604 -0.02333 -0.07142
 C245 C 0.10348 -0.03710 -0.05744
 N246 N 0.08954 -0.07322 -0.07150
 H247 H 0.09903 -0.18509 -0.14690
 H248 H 0.14757 0.00572 -0.06183
 C249 C 0.12376 0.38907 0.39301
 C250 C 0.13917 0.42529 0.40795
 N251 N 0.17145 0.43719 0.39583
 C252 C 0.18909 0.41447 0.36939
 C253 C 0.17379 0.37791 0.35428
 N254 N 0.14138 0.36628 0.36677
 N255 N 0.09173 0.37679 0.40543
 C256 C 0.07427 0.39919 0.43214
 C257 C 0.08954 0.43571 0.44730
 N258 N 0.12186 0.44763 0.43475
 H259 H 0.21517 0.42437 0.36117
 H260 H 0.04918 0.38788 0.44194
 C261 C 0.62519 -0.11133 0.39026
 C262 C 0.64083 -0.07572 0.40604
 N263 N 0.67340 -0.06404 0.39454
 C264 C 0.69111 -0.08641 0.36793
 C265 C 0.67556 -0.12238 0.35196
 N266 N 0.64285 -0.13376 0.36383
 N267 N 0.59292 -0.12349 0.40214
 C268 C 0.57545 -0.10155 0.42911
 C269 C 0.59094 -0.06560 0.44512
 N270 N 0.62350 -0.05381 0.43307
 H271 H 0.71741 -0.07671 0.36028
 H272 H 0.55020 -0.11284 0.43848
 C273 C 0.64014 0.41483 -0.11222
 C274 C 0.60742 0.40149 -0.09895
 N275 N 0.59379 0.36497 -0.11195
 C276 C 0.61168 0.34079 -0.13725
 C277 C 0.64510 0.35345 -0.15002
 N278 N 0.65813 0.39063 -0.13725
 N279 N 0.65373 0.45144 -0.09945
 C280 C 0.63639 0.47503 -0.07343
 C281 C 0.60399 0.46122 -0.05910
 N282 N 0.59014 0.42485 -0.07275
 H283 H 0.59965 0.31225 -0.14731
 H284 H 0.64783 0.50428 -0.06419
 C285 C -0.13656 0.11057 -0.09263
 C286 C -0.10665 0.08737 -0.10573
 N287 N -0.09962 0.08963 -0.14276
 C288 C -0.12123 0.11381 -0.16750
 C289 C -0.15176 0.13757 -0.15467
 N290 N -0.15793 0.13497 -0.11710
 N291 N -0.14409 0.10808 -0.05572
 C292 C -0.12306 0.08309 -0.03123
 C293 C -0.09292 0.05957 -0.04417
 N294 N -0.08532 0.06261 -0.08127
 H295 H -0.11363 0.11446 -0.19639
 H296 H -0.12957 0.08201 -0.00188
 C297 C -0.14070 0.58496 0.39488
 C298 C -0.10525 0.59465 0.40528
 N299 N -0.09022 0.62823 0.38852
 C300 C -0.10913 0.65274 0.36187
 C301 C -0.14494 0.64344 0.35156
 N302 N -0.15967 0.60954 0.36853
 N303 N -0.15576 0.55142 0.41157
 C304 C -0.13712 0.52732 0.43865
 C305 C -0.10171 0.53740 0.44990
 N306 N -0.08666 0.57079 0.43246
 H307 H -0.09658 0.67985 0.34981
 H308 H -0.14983 0.50038 0.45078
 C309 C 0.35996 0.08373 0.39625
 C310 C 0.39526 0.09382 0.40686
 N311 N 0.40982 0.12816 0.39083
 C312 C 0.39058 0.15304 0.36469
 C313 C 0.35493 0.14330 0.35413
 N314 N 0.34068 0.10865 0.37039
 N315 N 0.34535 0.04946 0.41225
 C316 C 0.36431 0.02500 0.43884
 C317 C 0.39957 0.03544 0.45029
 N318 N 0.41418 0.06958 0.43355
 H319 H 0.40276 0.18073 0.35321
 H320 H 0.35197 -0.00250 0.45048
 C321 C 0.36185 0.60755 -0.09060
 C322 C 0.39496 0.59048 -0.10254
 N323 N 0.40486 0.59890 -0.13810
 C324 C 0.38301 0.62335 -0.16240
 C325 C 0.34945 0.64021 -0.15068
 N326 N 0.34005 0.63186 -0.11478
 N327 N 0.35195 0.59957 -0.05503
 C328 C 0.37352 0.57485 -0.03082
 C329 C 0.40661 0.55693 -0.04273
 N330 N 0.41659 0.56568 -0.07841
 H331 H 0.39215 0.62992 -0.19026
 H332 H 0.36501 0.56983 -0.00245
 C333 C -0.11494 -0.09503 0.11403
 C334 C -0.12916 -0.08850 0.07724
 N335 N -0.16001 -0.10697 0.06637
 C336 C -0.17741 -0.13197 0.09052
 C337 C -0.16351 -0.13885 0.12794
 N338 N -0.13248 -0.11960 0.13843
 N339 N -0.08386 -0.07664 0.12478
 C340 C -0.06638 -0.05196 0.10026
 C341 C -0.08083 -0.04500 0.06333
 N342 N -0.11203 -0.06356 0.05293
 H343 H -0.20240 -0.14467 0.08037
 H344 H -0.04191 -0.03732 0.10976
 C345 C -0.13227 0.39933 0.61927
 C346 C -0.14737 0.40720 0.58293
 N347 N -0.17968 0.39135 0.57305
 C348 C -0.19776 0.36803 0.59794
 C349 C -0.18291 0.36008 0.63465
 N350 N -0.15027 0.37597 0.64420
 N351 N -0.09980 0.41502 0.62899
 C352 C -0.08158 0.43799 0.60386
 C353 C -0.09646 0.44563 0.56714
 N354 N -0.12923 0.43004 0.55786
 H355 H -0.22303 0.35511 0.58867
 H356 H -0.05600 0.45047 0.61272
 C357 C 0.36921 -0.10306 0.61900
 C358 C 0.35376 -0.09424 0.58295
 N359 N 0.32083 -0.10869 0.57345
 C360 C 0.30247 -0.13151 0.59845
 C361 C 0.31768 -0.14039 0.63487
 N362 N 0.35094 -0.12594 0.64404
 N363 N 0.40225 -0.08867 0.62834
 C364 C 0.42068 -0.06604 0.60314
 C365 C 0.40540 -0.05740 0.56671
 N366 N 0.37209 -0.07174 0.55782
 H367 H 0.27666 -0.14329 0.58951
 H368 H 0.44668 -0.05453 0.61176
 C369 C 0.38840 0.39933 0.11450
 C370 C 0.37104 0.41112 0.07991
 N371 N 0.33740 0.39806 0.07163
 C372 C 0.32026 0.37347 0.09633
 C373 C 0.33755 0.36119 0.13114
 N374 N 0.37130 0.37483 0.13933
 N375 N 0.42193 0.41294 0.12282
 C376 C 0.43894 0.43777 0.09804
 C377 C 0.42159 0.44969 0.06317
 N378 N 0.38790 0.43591 0.05527
 H379 H 0.29312 0.36452 0.08904
 H380 H 0.46531 0.44872 0.10598
 C381 C 0.14812 0.09338 0.11250
 C382 C 0.11237 0.10653 0.10234
 N383 N 0.09732 0.14194 0.11790
 C384 C 0.11661 0.16523 0.14278
 C385 C 0.15290 0.15277 0.15242
 N386 N 0.16744 0.11669 0.13711
 N387 N 0.16317 0.05787 0.09717
 C388 C 0.14425 0.03519 0.07159
 C389 C 0.10858 0.04881 0.06044
 N390 N 0.09346 0.08406 0.07663
 H391 H 0.10353 0.19292 0.15491
 H392 H 0.15698 0.00672 0.06036
 C393 C 0.13804 0.57555 0.61095
 C394 C 0.10171 0.58700 0.60199
 N395 N 0.08602 0.62183 0.61783
 C396 C 0.10518 0.64617 0.64190
 C397 C 0.14200 0.63545 0.65043
 N398 N 0.15728 0.59992 0.63482
 N399 N 0.15361 0.54047 0.59535
 C400 C 0.13459 0.51656 0.57076
 C401 C 0.09822 0.52842 0.56096
 N402 N 0.08275 0.56334 0.57733
 H403 H 0.09155 0.67329 0.65438
 H404 H 0.14779 0.48846 0.55943
 C405 C 0.63990 0.07342 0.60915
 C406 C 0.60329 0.08410 0.60104
 N407 N 0.58735 0.11833 0.61756
 C408 C 0.60652 0.14283 0.64148
 C409 C 0.64362 0.13294 0.64911
 N410 N 0.65916 0.09798 0.63284
 N411 N 0.65571 0.03888 0.59295
 C412 C 0.63666 0.01480 0.56853
 C413 C 0.59999 0.02594 0.55952
 N414 N 0.58430 0.06030 0.57652
 H415 H 0.59265 0.16939 0.65453
 H416 H 0.65008 -0.01287 0.55672
 C417 C 0.64898 0.59329 0.10988
 C418 C 0.61305 0.60600 0.10010
 N419 N 0.59782 0.64113 0.11595
 C420 C 0.61708 0.66455 0.14076
 C421 C 0.65354 0.65252 0.15002
 N422 N 0.66827 0.61673 0.13441
 N423 N 0.66421 0.55804 0.09431
 C424 C 0.64529 0.53519 0.06885
 C425 C 0.60943 0.54837 0.05808
 N426 N 0.59415 0.58338 0.07451
 H427 H 0.60384 0.69199 0.15313
 H428 H 0.65818 0.50690 0.05748
   
