data_POSCAR
  _audit_creation_date              2014-09-24
  _audit_creation_method            'ToBaCCo'
  _symmetry_space_group_name_H-M    'P1'
  _symmetry_Int_Tables_number       1
  _symmetry_cell_setting            triclinic
  loop_
  _symmetry_equiv_pos_as_xyz
 x,y,z
_cell_length_a 35.5206
_cell_length_b 45.2503
_cell_length_c 31.5562
_cell_angle_alpha 90.000000
_cell_angle_beta 89.999700
_cell_angle_gamma 90.000100
loop_
  _atom_site_label
  _atom_site_type_symbol
  _atom_site_fract_x
  _atom_site_fract_y
  _atom_site_fract_z
O1 O 0.24492 0.27986 0.19717
 O2 O 0.29763 0.22080 0.25135
 O3 O 0.24515 0.22234 0.19375
 O4 O 0.29741 0.27831 0.25475
 O5 O 0.25394 0.27680 0.30488
 O6 O 0.20168 0.22082 0.24387
 O7 O 0.25416 0.21929 0.30147
 O8 O 0.20144 0.27834 0.24730
 Cu9 Cu 0.27566 0.25048 0.21920
 Cu10 Cu 0.22342 0.24865 0.27943
 C11 C 0.21429 0.28906 0.21309
 C12 C 0.28479 0.21009 0.28556
 C13 C 0.21458 0.21212 0.20852
 C14 C 0.28450 0.28701 0.29010
 O15 O 0.74595 0.22320 0.30473
 O16 O 0.79821 0.27917 0.24371
 O17 O 0.74573 0.28071 0.30131
 O18 O 0.79844 0.22165 0.24715
 O19 O 0.75497 0.22013 0.19702
 O20 O 0.70225 0.27919 0.25119
 O21 O 0.75474 0.27765 0.19359
 O22 O 0.70247 0.22168 0.25461
 Cu23 Cu 0.77647 0.25134 0.27928
 Cu24 Cu 0.72422 0.24951 0.21904
 C25 C 0.71538 0.21299 0.28996
 C26 C 0.78530 0.28787 0.20835
 C27 C 0.71509 0.28991 0.28541
 C28 C 0.78560 0.21092 0.21294
 O29 O 0.70237 0.72080 0.74865
 O30 O 0.75509 0.77986 0.80281
 O31 O 0.70259 0.77831 0.74524
 O32 O 0.75486 0.72234 0.80624
 O33 O 0.79832 0.72082 0.75612
 O34 O 0.74605 0.77680 0.69511
 O35 O 0.79856 0.77834 0.75268
 O36 O 0.74584 0.71929 0.69852
 Cu37 Cu 0.72434 0.75048 0.78079
 Cu38 Cu 0.77658 0.74865 0.72055
 C39 C 0.71521 0.71008 0.71443
 C40 C 0.78572 0.78907 0.78689
 C41 C 0.71549 0.78700 0.70989
 C42 C 0.78542 0.71212 0.79147
 O43 O 0.29774 0.77919 0.74880
 O44 O 0.24502 0.72013 0.80296
 O45 O 0.29752 0.72168 0.74538
 O46 O 0.24525 0.77765 0.80640
 O47 O 0.20179 0.77917 0.75628
 O48 O 0.25405 0.72320 0.69526
 O49 O 0.20155 0.72165 0.75283
 O50 O 0.25427 0.78071 0.69868
 Cu51 Cu 0.27577 0.74951 0.78095
 Cu52 Cu 0.22353 0.75134 0.72071
 C53 C 0.28490 0.78991 0.71459
 C54 C 0.21440 0.71092 0.78704
 C55 C 0.28462 0.71299 0.71003
 C56 C 0.21469 0.78787 0.79163
 C57 C 0.98219 -0.00001 -0.00001
 C58 C 1.02059 -0.00001 0.00001
 C59 C 1.04254 0.02389 0.02082
 C60 C 1.04256 -0.02390 -0.02077
 C61 C 0.96023 -0.02198 -0.02478
 C62 C 0.96021 0.02197 0.02473
 C63 C 1.03656 0.05371 0.01026
 C64 C 1.05692 0.07598 0.03071
 C65 C 1.08369 0.06866 0.06155
 C66 C 1.09030 0.03897 0.07156
 C67 C 1.06995 0.01669 0.05118
 C68 C 1.06999 -0.01671 -0.05110
 C69 C 1.09036 -0.03899 -0.07146
 C70 C 1.08373 -0.06868 -0.06146
 C71 C 1.05694 -0.07600 -0.03065
 C72 C 1.03657 -0.05372 -0.01022
 C73 C 0.93278 -0.03924 -0.00446
 C74 C 0.91236 -0.06032 -0.02723
 C75 C 0.91895 -0.06421 -0.07061
 C76 C 0.94579 -0.04670 -0.09126
 C77 C 0.96621 -0.02557 -0.06852
 C78 C 0.96615 0.02556 0.06848
 C79 C 0.94571 0.04669 0.09120
 C80 C 0.91889 0.06420 0.07052
 C81 C 0.91234 0.06031 0.02713
 C82 C 0.93278 0.03923 0.00439
 H83 H 1.01607 0.05969 -0.01366
 H84 H 1.05171 0.09888 0.02257
 H85 H 1.11101 0.03306 0.09529
 H86 H 1.07512 -0.00616 0.05956
 H87 H 1.07518 0.00615 -0.05947
 H88 H 1.11109 -0.03308 -0.09517
 H89 H 1.01606 -0.05970 0.01368
 H90 H 0.92760 -0.03667 0.02916
 H91 H 0.89160 -0.07370 -0.01097
 H92 H 0.95098 -0.04943 -0.12486
 H93 H 0.98674 -0.01208 -0.08495
 H94 H 0.98666 0.01207 0.08493
 H95 H 0.95087 0.04941 0.12481
 H96 H 0.89160 0.07369 0.01084
 H97 H 0.92763 0.03666 -0.02925
 H98 H 1.05172 -0.09890 -0.02252
 C99 C 0.48005 0.50000 0.50000
 C100 C 0.51845 0.50000 0.49998
 C101 C 0.54043 0.52187 0.52492
 C102 C 0.54041 0.47812 0.47503
 C103 C 0.45808 0.47615 0.47911
 C104 C 0.45810 0.52385 0.52091
 C105 C 0.56790 0.53918 0.50474
 C106 C 0.58835 0.56016 0.52767
 C107 C 0.58176 0.56389 0.57108
 C108 C 0.55490 0.54633 0.59159
 C109 C 0.53445 0.52530 0.56868
 C110 C 0.53439 0.47469 0.43127
 C111 C 0.55483 0.45366 0.40834
 C112 C 0.58171 0.43610 0.42882
 C113 C 0.58833 0.43983 0.47223
 C114 C 0.56790 0.46081 0.49518
 C115 C 0.46410 0.44630 0.48950
 C116 C 0.44370 0.42407 0.46902
 C117 C 0.41684 0.43146 0.43830
 C118 C 0.41020 0.46117 0.42845
 C119 C 0.43060 0.48341 0.44886
 C120 C 0.43064 0.51659 0.55119
 C121 C 0.41026 0.53883 0.57162
 C122 C 0.41689 0.56854 0.56176
 C123 C 0.44372 0.57593 0.53102
 C124 C 0.46411 0.55369 0.51051
 H125 H 0.57308 0.53674 0.47109
 H126 H 0.60914 0.57358 0.51152
 H127 H 0.54971 0.54893 0.62522
 H128 H 0.51390 0.51177 0.58500
 H129 H 0.51384 0.48822 0.41497
 H130 H 0.54961 0.45106 0.37472
 H131 H 0.57311 0.46326 0.52882
 H132 H 0.48465 0.44027 0.51333
 H133 H 0.44893 0.40116 0.47703
 H134 H 0.38943 0.46713 0.40481
 H135 H 0.42539 0.50628 0.44062
 H136 H 0.42544 0.49372 0.55944
 H137 H 0.38950 0.53287 0.59528
 H138 H 0.44895 0.59884 0.52300
 H139 H 0.48464 0.55972 0.48666
 H140 H 0.60913 0.42641 0.48836
 C141 C 0.01781 0.49998 -0.00003
 C142 C -0.02059 0.49998 -0.00004
 C143 C -0.04256 0.47609 0.02074
 C144 C -0.04254 0.52388 -0.02085
 C145 C 0.03979 0.52195 -0.02477
 C146 C 0.03977 0.47801 0.02474
 C147 C -0.03657 0.44627 0.01019
 C148 C -0.05694 0.42399 0.03062
 C149 C -0.08374 0.43131 0.06143
 C150 C -0.09036 0.46100 0.07143
 C151 C -0.06999 0.48328 0.05107
 C152 C -0.06995 0.51668 -0.05121
 C153 C -0.09030 0.53897 -0.07158
 C154 C -0.08368 0.56866 -0.06157
 C155 C -0.05691 0.57598 -0.03073
 C156 C -0.03656 0.55370 -0.01029
 C157 C 0.06722 0.53921 -0.00442
 C158 C 0.08766 0.56030 -0.02717
 C159 C 0.08110 0.56419 -0.07056
 C160 C 0.05429 0.54668 -0.09124
 C161 C 0.03385 0.52555 -0.06852
 C162 C 0.03379 0.47441 0.06849
 C163 C 0.05421 0.45329 0.09123
 C164 C 0.08105 0.43577 0.07058
 C165 C 0.08763 0.43966 0.02719
 C166 C 0.06722 0.46074 0.00442
 H167 H -0.01606 0.44029 -0.01371
 H168 H -0.05173 0.40109 0.02250
 H169 H -0.11109 0.46692 0.09514
 H170 H -0.07518 0.50614 0.05944
 H171 H -0.07513 0.49383 -0.05959
 H172 H -0.11101 0.53306 -0.09532
 H173 H -0.01607 0.55967 0.01363
 H174 H 0.07237 0.53665 0.02921
 H175 H 0.10840 0.57368 -0.01088
 H176 H 0.04912 0.54941 -0.12484
 H177 H 0.01334 0.51206 -0.08497
 H178 H 0.01327 0.48791 0.08491
 H179 H 0.04902 0.45056 0.12483
 H180 H 0.10840 0.42628 0.01093
 H181 H 0.07240 0.46331 -0.02920
 H182 H -0.05170 0.59887 -0.02260
 C183 C 0.51994 1.00000 0.50000
 C184 C 0.48155 1.00000 0.50002
 C185 C 0.45959 0.97813 0.52498
 C186 C 0.45957 1.02188 0.47509
 C187 C 0.54190 1.02385 0.47909
 C188 C 0.54192 0.97615 0.52089
 C189 C 0.43210 0.96082 0.50482
 C190 C 0.41167 0.93984 0.52778
 C191 C 0.41829 0.93611 0.57119
 C192 C 0.44517 0.95367 0.59167
 C193 C 0.46560 0.97470 0.56874
 C194 C 0.46555 1.02531 0.43132
 C195 C 0.44510 1.04633 0.40842
 C196 C 0.41823 1.06390 0.42892
 C197 C 0.41165 1.06017 0.47234
 C198 C 0.43210 1.03919 0.49527
 C199 C 0.53590 1.05370 0.48949
 C200 C 0.55628 1.07593 0.46899
 C201 C 0.58311 1.06854 0.43824
 C202 C 0.58974 1.03883 0.42838
 C203 C 0.56935 1.01659 0.44881
 C204 C 0.56940 0.98341 0.55114
 C205 C 0.58979 0.96117 0.57155
 C206 C 0.58316 0.93146 0.56170
 C207 C 0.55630 0.92408 0.53098
 C208 C 0.53590 0.94631 0.51050
 H209 H 0.42689 0.96326 0.47119
 H210 H 0.39087 0.92642 0.51164
 H211 H 0.45039 0.95107 0.62529
 H212 H 0.48616 0.98823 0.58504
 H213 H 0.48609 1.01178 0.41501
 H214 H 0.45029 1.04894 0.37479
 H215 H 0.42692 1.03675 0.52892
 H216 H 0.51537 1.05973 0.51334
 H217 H 0.55106 1.09885 0.47701
 H218 H 0.61049 1.03287 0.40472
 H219 H 0.57455 0.99372 0.44056
 H220 H 0.57461 1.00629 0.55939
 H221 H 0.61057 0.96714 0.59519
 H222 H 0.55107 0.90116 0.52297
 H223 H 0.51535 0.94028 0.48667
 H224 H 0.39087 1.07359 0.48849
 C225 C 1.19536 0.19143 0.18613
 C226 C 1.17830 0.17297 0.16638
 C227 C 1.15831 0.15125 0.14349
 C228 C 1.14124 0.13257 0.12419
 C229 C 1.12123 0.11054 0.10194
 C230 C 1.10413 0.09155 0.08330
 C231 C 0.69464 0.68716 0.69322
 C232 C 0.67736 0.66797 0.67523
 C233 C 0.65713 0.64562 0.65392
 C234 C 0.63986 0.62665 0.63546
 C235 C 0.61964 0.60460 0.61349
 C236 C 0.60237 0.58593 0.59438
 C237 C -0.19548 0.30856 0.18596
 C238 C -0.17841 0.32701 0.16622
 C239 C -0.15841 0.34874 0.14333
 C240 C -0.14133 0.36741 0.12404
 C241 C -0.12131 0.38944 0.10180
 C242 C -0.10420 0.40843 0.08317
 C243 C 0.30547 0.81284 0.69338
 C244 C 0.32275 0.83202 0.67539
 C245 C 0.34297 0.85438 0.65407
 C246 C 0.36023 0.87335 0.63561
 C247 C 0.38044 0.89541 0.61362
 C248 C 0.39769 0.91407 0.59450
 C249 C -0.19536 0.69143 -0.18614
 C250 C -0.17829 0.67297 -0.16640
 C251 C -0.15830 0.65125 -0.14350
 C252 C -0.14123 0.63257 -0.12421
 C253 C -0.12123 0.61054 -0.10196
 C254 C -0.10413 0.59155 -0.08332
 C255 C 0.30536 1.18716 0.30678
 C256 C 0.32264 1.16798 0.32477
 C257 C 0.34287 1.14562 0.34608
 C258 C 0.36014 1.12665 0.36454
 C259 C 0.38036 1.10460 0.38651
 C260 C 0.39762 1.08594 0.40563
 C261 C 1.19547 -0.19144 -0.18598
 C262 C 1.17840 -0.17299 -0.16623
 C263 C 1.15840 -0.15126 -0.14335
 C264 C 1.14132 -0.13259 -0.12406
 C265 C 1.12130 -0.11056 -0.10182
 C266 C 1.10419 -0.09157 -0.08319
 C267 C 0.69453 0.31283 0.30662
 C268 C 0.67725 0.33202 0.32461
 C269 C 0.65703 0.35438 0.34593
 C270 C 0.63976 0.37335 0.36440
 C271 C 0.61956 0.39540 0.38638
 C272 C 0.60230 0.41406 0.40551
 C273 C 0.80626 -0.18798 -0.19194
 C274 C 0.82351 -0.16874 -0.17403
 C275 C 0.84372 -0.14631 -0.15284
 C276 C 0.86096 -0.12727 -0.13450
 C277 C 0.88114 -0.10512 -0.11270
 C278 C 0.89838 -0.08637 -0.09373
 C279 C 0.30484 0.30886 0.31377
 C280 C 0.32193 0.32730 0.33350
 C281 C 0.34197 0.34901 0.35638
 C282 C 0.35910 0.36766 0.37566
 C283 C 0.37917 0.38966 0.39790
 C284 C 0.39633 0.40861 0.41654
 C285 C 0.19385 0.68796 -0.19180
 C286 C 0.17659 0.66873 -0.17389
 C287 C 0.15639 0.64630 -0.15271
 C288 C 0.13914 0.62725 -0.13439
 C289 C 0.11894 0.60510 -0.11260
 C290 C 0.10169 0.58635 -0.09365
 C291 C 0.69505 1.19113 0.31363
 C292 C 0.67796 1.17269 0.33337
 C293 C 0.65793 1.15099 0.35625
 C294 C 0.64082 1.13234 0.37555
 C295 C 0.62076 1.11034 0.39780
 C296 C 0.60361 1.09139 0.41646
 C297 C 0.19375 0.31202 0.19192
 C298 C 0.17649 0.33125 0.17400
 C299 C 0.15629 0.35368 0.15281
 C300 C 0.13904 0.37272 0.13447
 C301 C 0.11886 0.39487 0.11266
 C302 C 0.10162 0.41362 0.09369
 C303 C 0.69516 0.80886 0.68622
 C304 C 0.67806 0.82730 0.66649
 C305 C 0.65803 0.84901 0.64362
 C306 C 0.64090 0.86766 0.62434
 C307 C 0.62083 0.88967 0.60210
 C308 C 0.60367 0.90862 0.58346
 C309 C 0.80614 0.18797 0.19178
 C310 C 0.82340 0.16873 0.17387
 C311 C 0.84360 0.14630 0.15268
 C312 C 0.86085 0.12726 0.13436
 C313 C 0.88105 0.10511 0.11257
 C314 C 0.89830 0.08636 0.09362
 C315 C 0.30495 0.69113 0.68636
 C316 C 0.32204 0.67269 0.66663
 C317 C 0.34207 0.65099 0.64374
 C318 C 0.35919 0.63234 0.62445
 C319 C 0.37924 0.61034 0.60220
 C320 C 0.39639 0.59138 0.58354
   
