data_POSCAR
  _audit_creation_date              2014-09-24
  _audit_creation_method            'ToBaCCo'
  _symmetry_space_group_name_H-M    'P1'
  _symmetry_Int_Tables_number       1
  _symmetry_cell_setting            triclinic
  loop_
  _symmetry_equiv_pos_as_xyz
 x,y,z
_cell_length_a 39.0057
_cell_length_b 38.7668
_cell_length_c 37.4620
_cell_angle_alpha 89.324700
_cell_angle_beta 89.578800
_cell_angle_gamma 89.387000
loop_
  _atom_site_label
  _atom_site_type_symbol
  _atom_site_fract_x
  _atom_site_fract_y
  _atom_site_fract_z
C1 C 0.24840 0.19063 0.23033
 C2 C 0.23594 0.17900 0.26354
 C3 C 0.20356 0.18986 0.27668
 C4 C 0.18448 0.21390 0.25592
 C5 C 0.19651 0.22541 0.22248
 C6 C 0.22856 0.21368 0.20964
 C7 C 0.28017 0.17881 0.21724
 C8 C 0.29242 0.18895 0.18308
 C9 C 0.27214 0.21236 0.16289
 C10 C 0.24048 0.22452 0.17579
 C11 C 0.22005 0.24652 0.15469
 C12 C 0.18786 0.25811 0.16701
 C13 C 0.17643 0.24765 0.20115
 H14 H 0.25199 0.16179 0.27929
 H15 H 0.15910 0.22210 0.26437
 H16 H 0.29543 0.16209 0.23431
 H17 H 0.27966 0.21981 0.13605
 H18 H 0.22889 0.25394 0.12823
 H19 H 0.15186 0.25681 0.21112
 C20 C -0.21222 0.81230 0.23109
 C21 C -0.19315 0.83254 0.25442
 C22 C -0.16087 0.82127 0.26736
 C23 C -0.14803 0.78894 0.25584
 C24 C -0.16709 0.76818 0.23296
 C25 C -0.19938 0.77988 0.22077
 C26 C -0.24346 0.82464 0.21706
 C27 C -0.26277 0.80479 0.19296
 C28 C -0.25019 0.77141 0.18481
 C29 C -0.21861 0.75934 0.19776
 C30 C -0.20554 0.72733 0.18696
 C31 C -0.17293 0.71588 0.19788
 C32 C -0.15408 0.73614 0.22149
 H33 H -0.20306 0.85786 0.26111
 H34 H -0.12383 0.77897 0.26573
 H35 H -0.25127 0.85061 0.22372
 H36 H -0.26482 0.75416 0.16851
 H37 H -0.22039 0.71162 0.16912
 H38 H -0.12880 0.72759 0.22984
 C39 C -0.24693 0.19447 -0.23981
 C40 C -0.23014 0.17927 -0.26907
 C41 C -0.20265 0.19599 -0.28622
 C42 C -0.19281 0.22873 -0.27453
 C43 C -0.20936 0.24423 -0.24542
 C44 C -0.23663 0.22711 -0.22804
 C45 C -0.27271 0.17672 -0.22115
 C46 C -0.28851 0.19080 -0.19038
 C47 C -0.27880 0.22423 -0.17992
 C48 C -0.25270 0.24207 -0.19810
 C49 C -0.24095 0.27372 -0.18537
 C50 C -0.21274 0.29021 -0.20157
 C51 C -0.19770 0.27563 -0.23218
 H52 H -0.23738 0.15369 -0.27739
 H53 H -0.17171 0.24185 -0.28767
 H54 H -0.28054 0.15193 -0.23109
 H55 H -0.28942 0.23556 -0.15594
 H56 H -0.25304 0.28495 -0.16202
 H57 H -0.17556 0.28764 -0.24454
 C58 C 0.22432 0.82145 -0.20270
 C59 C 0.20955 0.83952 -0.23163
 C60 C 0.17841 0.82871 -0.24699
 C61 C 0.16283 0.79879 -0.23264
 C62 C 0.17703 0.78089 -0.20347
 C63 C 0.20786 0.79216 -0.18843
 C64 C 0.25490 0.83277 -0.18724
 C65 C 0.26919 0.81530 -0.15757
 C66 C 0.25251 0.78594 -0.14373
 C67 C 0.22182 0.77450 -0.15865
 C68 C 0.20430 0.74633 -0.14353
 C69 C 0.17297 0.73553 -0.15781
 C70 C 0.16003 0.75253 -0.18833
 H71 H 0.22308 0.86151 -0.24258
 H72 H 0.13830 0.79035 -0.24242
 H73 H 0.26696 0.85588 -0.19765
 H74 H 0.26329 0.77203 -0.12114
 H75 H 0.21444 0.73369 -0.11985
 H76 H 0.13637 0.74394 -0.20013
 C77 C 0.19700 1.23113 0.76213
 C78 C 0.18628 1.22072 0.72819
 C79 C 0.20479 1.19535 0.70890
 C80 C 0.23556 1.18235 0.72375
 C81 C 0.24648 1.19252 0.75749
 C82 C 0.22711 1.21690 0.77687
 C83 C 0.17714 1.25447 0.78213
 C84 C 0.18669 1.26394 0.81705
 C85 C 0.21750 1.24986 0.83096
 C86 C 0.23741 1.22627 0.81137
 C87 C 0.26667 1.21069 0.82643
 C88 C 0.28561 1.18567 0.80754
 C89 C 0.27570 1.17731 0.77278
 H90 H 0.16207 1.23069 0.71835
 H91 H 0.25150 1.16429 0.70912
 H92 H 0.15455 1.26570 0.76983
 H93 H 0.22520 1.25532 0.85800
 H94 H 0.27435 1.21754 0.85315
 H95 H 0.28970 1.15758 0.75828
 C96 C 0.83056 0.76552 0.77330
 C97 C 0.85356 0.78414 0.75170
 C98 C 0.84733 0.81916 0.74264
 C99 C 0.81654 0.83461 0.75513
 C100 C 0.79346 0.81630 0.77686
 C101 C 0.80071 0.78175 0.78640
 C102 C 0.83783 0.73119 0.78300
 C103 C 0.81630 0.71280 0.80683
 C104 C 0.78640 0.72956 0.81978
 C105 C 0.77838 0.76365 0.80951
 C106 C 0.74869 0.78017 0.82254
 C107 C 0.74106 0.81454 0.81275
 C108 C 0.76349 0.83233 0.78972
 H109 H 0.87721 0.77146 0.74380
 H110 H 0.80968 0.86074 0.74735
 H111 H 0.86165 0.71974 0.77366
 H112 H 0.76875 0.71595 0.83723
 H113 H 0.73149 0.76633 0.84033
 H114 H 0.75813 0.85906 0.78273
 C115 C 0.15657 0.78381 1.19807
 C116 C 0.14155 0.79929 1.22816
 C117 C 0.15655 0.82828 1.24361
 C118 C 0.18758 0.84084 1.22959
 C119 C 0.20278 0.82570 1.19956
 C120 C 0.18699 0.79740 1.18337
 C121 C 0.14100 0.75568 1.18182
 C122 C 0.15480 0.74119 1.15030
 C123 C 0.18512 0.75541 1.13577
 C124 C 0.20131 0.78310 1.15216
 C125 C 0.23149 0.79695 1.13757
 C126 C 0.24749 0.82494 1.15383
 C127 C 0.23303 0.83909 1.18490
 H128 H 0.11751 0.78961 1.23872
 H129 H 0.19963 0.86280 1.24177
 H130 H 0.11702 0.74646 1.19289
 H131 H 0.19710 0.74427 1.11236
 H132 H 0.24261 0.78594 1.11361
 H133 H 0.24482 0.86121 1.19707
 C134 C 0.79971 1.23133 1.25547
 C135 C 0.80887 1.21800 1.28915
 C136 C 0.79454 1.18696 1.30256
 C137 C 0.76923 1.17091 1.28193
 C138 C 0.76027 1.18370 1.24815
 C139 C 0.77560 1.21388 1.23469
 C140 C 0.81544 1.26105 1.24159
 C141 C 0.80736 1.27350 1.20723
 C142 C 0.78309 1.25603 1.18678
 C143 C 0.76736 1.22615 1.20013
 C144 C 0.74422 1.20779 1.17917
 C145 C 0.72901 1.17753 1.19254
 C146 C 0.73695 1.16592 1.22717
 H147 H 0.82898 1.23082 1.30344
 H148 H 0.75603 1.14834 1.29195
 H149 H 0.83420 1.27441 1.25739
 H150 H 0.77729 1.26507 1.15998
 H151 H 0.73799 1.21702 1.15255
 H152 H 0.72580 1.14223 1.23738
 O153 O 0.54054 0.97866 0.92387
 O154 O 0.47539 0.95592 1.06661
 O155 O 0.55689 0.93520 1.02594
 O156 O 0.44154 0.97556 0.97492
 O157 O 0.53933 0.95664 1.07488
 O158 O 0.48534 0.95352 0.94879
 O159 O 0.43844 0.98780 1.03784
 O160 O 0.54976 0.94428 0.96570
 C161 C 0.55473 0.95164 0.93396
 C162 C 0.44540 0.96124 1.05634
 C163 C 0.55556 0.93387 1.05877
 C164 C 0.45442 0.95171 0.95685
 O165 O 0.48091 1.01113 0.91441
 O166 O 0.53941 1.02229 1.07190
 O167 O 0.57411 1.01118 0.97106
 O168 O 0.46843 1.05028 1.02402
 O169 O 0.47523 1.02335 1.07326
 O170 O 0.52805 1.03662 0.95126
 O171 O 0.46774 1.03930 0.96209
 O172 O 0.57975 1.00066 1.03655
 Co173 Co 0.50561 0.99533 0.95236
 Co174 Co 0.50725 0.98964 1.06535
 Co175 Co 0.56080 0.97448 1.00003
 Co176 Co 0.45859 1.01133 1.00026
 O177 O 0.50968 0.99121 1.00672
 C178 C 0.46150 1.03427 0.92945
 C179 C 0.57006 1.02126 1.06107
 C180 C 0.55986 1.03672 0.95562
 C181 C 0.46733 1.05044 1.05697
 O182 O 0.03655 0.45294 0.03926
 O183 O 0.03272 0.51637 -0.05509
 O184 O -0.00099 0.41406 -0.04100
 O185 O -0.00066 0.55675 0.02129
 O186 O 0.03421 0.45459 -0.05042
 O187 O 0.03212 0.51829 0.04824
 O188 O -0.00514 0.55479 -0.04401
 O189 O 0.00243 0.41219 0.02353
 C190 C 0.03132 0.42170 0.03456
 C191 C 0.02500 0.54731 -0.05265
 C192 C 0.02852 0.42329 -0.04975
 C193 C 0.02529 0.54898 0.03988
 O194 O -0.03148 0.51165 0.06918
 O195 O -0.03010 0.45202 -0.07934
 O196 O -0.06288 0.43762 0.02732
 O197 O -0.06775 0.52746 -0.03843
 O198 O -0.03235 0.51444 -0.08093
 O199 O -0.02603 0.44749 0.06738
 O200 O -0.06439 0.53689 0.02911
 O201 O -0.06467 0.44329 -0.03607
 Co202 Co 0.00123 0.48236 0.04986
 Co203 Co -0.00031 0.48418 -0.06150
 Co204 Co -0.03007 0.43150 -0.00666
 Co205 Co -0.03290 0.53813 -0.00825
 O206 O -0.01528 0.48430 -0.00627
 C207 C -0.05736 0.52998 0.06098
 C208 C -0.05960 0.44447 -0.06863
 C209 C -0.05535 0.43772 0.05924
 C210 C -0.06152 0.52508 -0.07093
 O211 O 1.07970 0.03082 0.46872
 O212 O 0.94206 0.02350 0.54770
 O213 O 0.97189 0.05948 0.45020
 O214 O 1.03975 0.06567 0.54320
 O215 O 0.93587 0.02835 0.48212
 O216 O 1.08168 0.03144 0.53309
 O217 O 0.97923 0.06252 0.55175
 O218 O 1.03724 0.06453 0.45463
 C219 C 1.06872 0.05938 0.45661
 C220 C 0.94897 0.05401 0.55447
 C221 C 0.94230 0.05397 0.46198
 C222 C 1.07108 0.06102 0.54102
 O223 O 1.05597 -0.03413 0.53558
 O224 O 0.95644 -0.03610 0.47516
 O225 O 1.04222 0.00048 0.43041
 O226 O 0.98676 -0.00245 0.58135
 O227 O 0.97065 -0.03864 0.54135
 O228 O 1.05713 -0.03545 0.47114
 O229 O 1.04799 0.00327 0.57584
 O230 O 0.97921 -0.00517 0.43203
 Co231 Co 1.06376 -0.00055 0.50254
 Co232 Co 0.95711 -0.00407 0.51121
 Co233 Co 1.00822 0.02844 0.44794
 Co234 Co 1.01318 0.03059 0.55829
 O235 O 1.01030 0.01325 0.50466
 C236 C 1.05689 -0.02663 0.56759
 C237 C 0.96193 -0.03075 0.44263
 C238 C 1.05220 -0.02915 0.43906
 C239 C 0.97700 -0.03230 0.57312
 C240 C 1.15647 0.14421 0.36860
 C241 C 1.18175 0.12623 0.34921
 C242 C 1.19831 0.14171 0.32004
 C243 C 1.18969 0.17563 0.30880
 C244 C 1.16551 0.19409 0.32955
 C245 C 1.14941 0.17871 0.35908
 C246 C 1.13527 0.12594 0.39605
 C247 C 1.09994 0.13311 0.39874
 C248 C 1.07879 0.11280 0.42035
 C249 C 1.09228 0.08448 0.43957
 C250 C 1.12786 0.07850 0.43877
 C251 C 1.14916 0.09910 0.41731
 H252 H 1.21587 0.12576 0.30485
 H253 H 1.15914 0.22074 0.32349
 H254 H 1.05149 0.11821 0.42039
 H255 H 1.13905 0.05709 0.45358
 H256 H 1.13090 0.19378 0.37410
 H257 H 1.08811 0.15318 0.38254
 H258 H 1.18749 0.09942 0.35522
 H259 H 1.17637 0.09332 0.41656
 C260 C 0.89517 -0.11742 0.34009
 C261 C 0.85928 -0.11585 0.33932
 C262 C 0.84096 -0.13559 0.31519
 C263 C 0.85799 -0.15812 0.29136
 C264 C 0.89424 -0.15954 0.29247
 C265 C 0.91253 -0.13915 0.31622
 C266 C 0.91412 -0.09678 0.36636
 C267 C 0.94116 -0.07527 0.35560
 C268 C 0.95719 -0.05403 0.38036
 C269 C 0.94689 -0.05451 0.41643
 C270 C 0.92060 -0.07697 0.42722
 C271 C 0.90425 -0.09763 0.40244
 H272 H 0.81328 -0.13416 0.31666
 H273 H 0.90886 -0.17538 0.27415
 H274 H 0.97729 -0.03697 0.37123
 H275 H 0.91195 -0.07794 0.45475
 H276 H 0.94027 -0.14071 0.31630
 H277 H 0.94913 -0.07411 0.32786
 H278 H 0.84530 -0.09924 0.35750
 H279 H 0.88367 -0.11423 0.41143
 C280 C 0.85711 0.14145 0.63480
 C281 C 0.82108 0.14053 0.63406
 C282 C 0.80153 0.15868 0.65926
 C283 C 0.81762 0.17814 0.68565
 C284 C 0.85359 0.17937 0.68602
 C285 C 0.87307 0.16127 0.66096
 C286 C 0.87833 0.12051 0.60983
 C287 C 0.90944 0.13336 0.59627
 C288 C 0.93172 0.11216 0.57687
 C289 C 0.92331 0.07767 0.57039
 C290 C 0.89130 0.06539 0.58198
 C291 C 0.86906 0.08657 0.60161
 H292 H 0.77383 0.15750 0.65814
 H293 H 0.86680 0.19348 0.70647
 H294 H 0.95605 0.12246 0.56788
 H295 H 0.88411 0.03892 0.57731
 H296 H 0.90074 0.16189 0.66287
 H297 H 0.91697 0.15963 0.60144
 H298 H 0.80802 0.12576 0.61404
 H299 H 0.84540 0.07580 0.61184
 C300 C 1.12666 -0.11286 0.67195
 C301 C 1.14952 -0.09690 0.69518
 C302 C 1.16724 -0.11612 0.72108
 C303 C 1.16236 -0.15206 0.72495
 C304 C 1.13992 -0.16795 0.70072
 C305 C 1.12249 -0.14866 0.67464
 C306 C 1.10691 -0.09201 0.64545
 C307 C 1.10313 -0.10322 0.61013
 C308 C 1.08593 -0.08256 0.58491
 C309 C 1.07203 -0.05037 0.59461
 C310 C 1.07472 -0.03983 0.63024
 C311 C 1.09204 -0.06034 0.65531
 H312 H 1.18326 -0.10209 0.73918
 H313 H 1.13621 -0.19555 0.70103
 H314 H 1.08427 -0.09136 0.55766
 H315 H 1.06406 -0.01530 0.63865
 H316 H 1.10519 -0.16174 0.65696
 H317 H 1.11439 -0.12748 0.60173
 H318 H 1.15357 -0.06933 0.69347
 H319 H 1.09391 -0.05134 0.68248
 C320 C 0.38117 1.14330 1.13527
 C321 C 0.37050 1.17662 1.12516
 C322 C 0.34209 1.19217 1.14161
 C323 C 0.32326 1.17473 1.16863
 C324 C 0.33527 1.14177 1.17956
 C325 C 0.36363 1.12638 1.16310
 C326 C 0.40848 1.12476 1.11516
 C327 C 0.43133 1.10240 1.13305
 C328 C 0.45244 1.07987 1.11388
 C329 C 0.45125 1.07937 1.07643
 C330 C 0.43066 1.10378 1.05841
 C331 C 0.40937 1.12623 1.07762
 H332 H 0.33546 1.21817 1.13326
 H333 H 0.32159 1.12635 1.19909
 H334 H 0.46841 1.06161 1.12844
 H335 H 0.42922 1.10395 1.02954
 H336 H 0.37071 1.10032 1.17100
 H337 H 0.43178 1.10125 1.16194
 H338 H 0.38398 1.19059 1.10426
 H339 H 0.39196 1.14305 1.06305
 C340 C 0.35689 0.85925 0.89464
 C341 C 0.33104 0.84266 0.91455
 C342 C 0.30311 0.82784 0.89759
 C343 C 0.30039 0.82880 0.86017
 C344 C 0.32703 0.84401 0.84014
 C345 C 0.35490 0.85911 0.85716
 C346 C 0.38385 0.87933 0.91296
 C347 C 0.41764 0.88113 0.89951
 C348 C 0.44158 0.90316 0.91497
 C349 C 0.43204 0.92393 0.94396
 C350 C 0.39881 0.92088 0.95828
 C351 C 0.37508 0.89893 0.94305
 H352 H 0.28303 0.81672 0.91401
 H353 H 0.32611 0.84472 0.81127
 H354 H 0.46698 0.90508 0.90328
 H355 H 0.39058 0.93659 0.98051
 H356 H 0.37416 0.87188 0.84097
 H357 H 0.42534 0.86606 0.87661
 H358 H 0.33197 0.84182 0.94343
 H359 H 0.34927 0.89871 0.95387
 C360 C 0.65002 0.84870 1.13963
 C361 C 0.66073 0.86158 1.17257
 C362 C 0.68847 0.84659 1.19069
 C363 C 0.70703 0.81839 1.17624
 C364 C 0.69518 0.80501 1.14358
 C365 C 0.66711 0.81970 1.12589
 C366 C 0.62277 0.86680 1.11858
 C367 C 0.62535 0.86912 1.08111
 C368 C 0.60201 0.88907 1.06146
 C369 C 0.57581 0.90769 1.07878
 C370 C 0.57215 0.90419 1.11599
 C371 C 0.59523 0.88379 1.13564
 H372 H 0.69473 0.85727 1.21630
 H373 H 0.70838 0.78433 1.12996
 H374 H 0.60569 0.89143 1.03285
 H375 H 0.55209 0.91811 1.13006
 H376 H 0.65930 0.80861 1.10088
 H377 H 0.64642 0.85694 1.06695
 H378 H 0.64832 0.88400 1.18406
 H379 H 0.59191 0.88198 1.16431
 C380 C 0.64442 1.13140 0.87573
 C381 C 0.64086 1.16739 0.87404
 C382 C 0.66256 1.18703 0.85206
 C383 C 0.68808 1.17110 0.83063
 C384 C 0.69056 1.13470 0.83190
 C385 C 0.66926 1.11530 0.85424
 C386 C 0.62259 1.11025 0.89982
 C387 C 0.63753 1.08418 0.92107
 C388 C 0.61706 1.06160 0.94089
 C389 C 0.58113 1.06435 0.93963
 C390 C 0.56617 1.09154 0.91978
 C391 C 0.58677 1.11443 0.90017
 H392 H 0.65849 1.21467 0.85134
 H393 H 0.71021 1.12085 0.81724
 H394 H 0.62942 1.04106 0.95603
 H395 H 0.53856 1.09431 0.91827
 H396 H 0.67232 1.08749 0.85484
 H397 H 0.66512 1.08078 0.92167
 H398 H 0.62166 1.18038 0.89019
 H399 H 0.57466 1.13433 0.88396
 C400 C 0.12470 0.32394 0.10027
 C401 C 0.16043 0.32821 0.10121
 C402 C 0.18085 0.30693 0.12285
 C403 C 0.16609 0.28068 0.14392
 C404 C 0.13044 0.27599 0.14249
 C405 C 0.10999 0.29740 0.12097
 C406 C 0.10267 0.34833 0.07953
 C407 C 0.07320 0.33691 0.06192
 C408 C 0.05072 0.36057 0.04564
 C409 C 0.05727 0.39611 0.04670
 C410 C 0.08761 0.40731 0.06268
 C411 C 0.10996 0.38374 0.07898
 H412 H 0.20818 0.31144 0.12352
 H413 H 0.11832 0.25567 0.15795
 H414 H 0.02768 0.35114 0.03329
 H415 H 0.09346 0.43452 0.06394
 H416 H 0.08252 0.29368 0.12125
 H417 H 0.06721 0.30972 0.06130
 H418 H 0.17264 0.34816 0.08532
 H419 H 0.13218 0.39351 0.09257
 C420 C -0.15829 0.37240 -0.15119
 C421 C -0.16223 0.37247 -0.18843
 C422 C -0.18130 0.34676 -0.20485
 C423 C -0.19650 0.32028 -0.18435
 C424 C -0.19337 0.32099 -0.14702
 C425 C -0.17461 0.34674 -0.13068
 C426 C -0.13515 0.39698 -0.13352
 C427 C -0.14419 0.41078 -0.10022
 C428 C -0.12009 0.42825 -0.08015
 C429 C -0.08644 0.43242 -0.09299
 C430 C -0.07813 0.42124 -0.12753
 C431 C -0.10230 0.40357 -0.14764
 H432 H -0.18359 0.34724 -0.23363
 H433 H -0.20397 0.30065 -0.13040
 H434 H -0.12736 0.43711 -0.05381
 H435 H -0.05240 0.42420 -0.13809
 H436 H -0.17149 0.34553 -0.10199
 H437 H -0.16952 0.40673 -0.08901
 H438 H -0.15016 0.39212 -0.20486
 H439 H -0.09457 0.39313 -0.17317
 C440 C 0.11357 0.65507 -0.10684
 C441 C 0.09754 0.68432 -0.12203
 C442 C 0.11685 0.71032 -0.13818
 C443 C 0.15279 0.70767 -0.14012
 C444 C 0.16896 0.67848 -0.12488
 C445 C 0.14957 0.65250 -0.10838
 C446 C 0.09251 0.62724 -0.09026
 C447 C 0.10166 0.59227 -0.09424
 C448 C 0.08031 0.56620 -0.08103
 C449 C 0.04920 0.57455 -0.06389
 C450 C 0.04053 0.60942 -0.05902
 C451 C 0.06205 0.63542 -0.07172
 H452 H 0.10352 0.73271 -0.14897
 H453 H 0.19657 0.67548 -0.12610
 H454 H 0.08764 0.53952 -0.08524
 H455 H 0.01678 0.61667 -0.04583
 H456 H 0.16282 0.63051 -0.09665
 H457 H 0.12471 0.58497 -0.10867
 H458 H 0.06988 0.68699 -0.12196
 H459 H 0.05457 0.66201 -0.06734
 C460 C -0.12967 0.62416 0.15060
 C461 C -0.12593 0.62991 0.18739
 C462 C -0.13990 0.65967 0.20304
 C463 C -0.15791 0.68410 0.18216
 C464 C -0.16135 0.67835 0.14545
 C465 C -0.14741 0.64889 0.12990
 C466 C -0.11370 0.59380 0.13283
 C467 C -0.13027 0.57833 0.10398
 C468 C -0.11267 0.55519 0.08209
 C469 C -0.07837 0.54641 0.08902
 C470 C -0.06285 0.55897 0.11991
 C471 C -0.08032 0.58267 0.14157
 H472 H -0.13696 0.66343 0.23144
 H473 H -0.17428 0.69711 0.12848
 H474 H -0.12529 0.54557 0.05860
 H475 H -0.03629 0.55277 0.12564
 H476 H -0.14981 0.64596 0.10132
 H477 H -0.15633 0.58555 0.09717
 H478 H -0.11240 0.61136 0.20406
 H479 H -0.06679 0.59410 0.16354
 C480 C 1.15938 0.15033 0.61769
 C481 C 1.18330 0.13179 0.63831
 C482 C 1.19928 0.14704 0.66721
 C483 C 1.19164 0.18144 0.67686
 C484 C 1.16893 0.20050 0.65478
 C485 C 1.15318 0.18519 0.62559
 C486 C 1.13816 0.13196 0.59127
 C487 C 1.10283 0.13911 0.58906
 C488 C 1.08135 0.11738 0.57027
 C489 C 1.09463 0.08781 0.55357
 C490 C 1.13024 0.08221 0.55313
 C491 C 1.15184 0.10419 0.57168
 H492 H 1.21542 0.13048 0.68349
 H493 H 1.16332 0.22743 0.65963
 H494 H 1.05400 0.12252 0.57090
 H495 H 1.14123 0.05989 0.54000
 H496 H 1.13551 0.20050 0.60966
 H497 H 1.09128 0.16004 0.60396
 H498 H 1.18816 0.10467 0.63364
 H499 H 1.17906 0.09848 0.57207
 C500 C 0.91733 -0.12293 0.67822
 C501 C 0.91687 -0.15905 0.67652
 C502 C 0.89427 -0.17813 0.69785
 C503 C 0.87131 -0.16167 0.72176
 C504 C 0.87292 -0.12533 0.72408
 C505 C 0.89547 -0.10637 0.70264
 C506 C 0.93812 -0.10233 0.65252
 C507 C 0.95357 -0.07139 0.66283
 C508 C 0.96836 -0.04943 0.63727
 C509 C 0.96789 -0.05800 0.60096
 C510 C 0.95470 -0.09007 0.59105
 C511 C 0.93991 -0.11192 0.61651
 H512 H 0.89389 -0.20568 0.69382
 H513 H 0.85739 -0.11112 0.74299
 H514 H 0.97866 -0.02504 0.64574
 H515 H 0.95413 -0.09754 0.56330
 H516 H 0.89500 -0.07852 0.70450
 H517 H 0.95320 -0.06364 0.69051
 H518 H 0.93356 -0.17262 0.65807
 H519 H 0.92806 -0.13539 0.60757
 C520 C 1.10507 -0.11669 0.32790
 C521 C 1.10682 -0.15292 0.32894
 C522 C 1.12348 -0.17100 0.30158
 C523 C 1.13893 -0.15311 0.27294
 C524 C 1.13712 -0.11692 0.27204
 C525 C 1.12046 -0.09894 0.29918
 C526 C 1.08798 -0.09696 0.35679
 C527 C 1.06807 -0.06762 0.34837
 C528 C 1.05545 -0.04637 0.37528
 C529 C 1.06223 -0.05408 0.41127
 C530 C 1.08049 -0.08446 0.41991
 C531 C 1.09331 -0.10571 0.39286
 H532 H 1.12463 -0.19890 0.30299
 H533 H 1.14834 -0.10244 0.25007
 H534 H 1.04116 -0.02333 0.36780
 H535 H 1.08602 -0.09107 0.44746
 H536 H 1.12002 -0.07102 0.29791
 H537 H 1.06290 -0.06065 0.32083
 H538 H 1.09506 -0.16724 0.35070
 H539 H 1.10868 -0.12811 0.40011
 C540 C 0.84053 0.13744 0.39242
 C541 C 0.82199 0.11837 0.36775
 C542 C 0.80549 0.13476 0.33926
 C543 C 0.80702 0.17097 0.33439
 C544 C 0.82353 0.19013 0.36102
 C545 C 0.84008 0.17357 0.38953
 C546 C 0.86431 0.11935 0.41722
 C547 C 0.89812 0.13096 0.42009
 C548 C 0.92298 0.11041 0.43661
 C549 C 0.91459 0.07784 0.45077
 C550 C 0.88025 0.06738 0.45065
 C551 C 0.85529 0.08793 0.43382
 H552 H 0.79429 0.11819 0.31961
 H553 H 0.82397 0.21800 0.36010
 H554 H 0.94920 0.11935 0.43676
 H555 H 0.87307 0.04248 0.46161
 H556 H 0.85356 0.18900 0.40871
 H557 H 0.90601 0.15483 0.40734
 H558 H 0.82235 0.09043 0.36884
 H559 H 0.82930 0.07856 0.43234
 C560 C 0.12248 0.32932 -0.11962
 C561 C 0.10856 0.30899 -0.14650
 C562 C 0.12959 0.28787 -0.16747
 C563 C 0.16541 0.28609 -0.16205
 C564 C 0.17912 0.30664 -0.13475
 C565 C 0.15799 0.32804 -0.11407
 C566 C 0.09994 0.35245 -0.09827
 C567 C 0.10943 0.38669 -0.09192
 C568 C 0.08674 0.40942 -0.07485
 C569 C 0.05417 0.39832 -0.06360
 C570 C 0.04537 0.36363 -0.06835
 C571 C 0.06795 0.34098 -0.08564
 H572 H 0.11715 0.27192 -0.18688
 H573 H 0.20640 0.30747 -0.12998
 H574 H 0.09429 0.43598 -0.07148
 H575 H 0.02055 0.35425 -0.05978
 H576 H 0.16946 0.34354 -0.09356
 H577 H 0.13383 0.39629 -0.10149
 H578 H 0.08126 0.30964 -0.15160
 H579 H 0.06020 0.31458 -0.08963
 C580 C -0.13848 0.35680 0.15591
 C581 C -0.17449 0.35560 0.15483
 C582 C -0.19220 0.32915 0.17239
 C583 C -0.17432 0.30352 0.19169
 C584 C -0.13850 0.30563 0.19425
 C585 C -0.12076 0.33191 0.17647
 C586 C -0.11928 0.38175 0.13309
 C587 C -0.08836 0.39616 0.14465
 C588 C -0.06822 0.41591 0.12122
 C589 C -0.07861 0.42160 0.08579
 C590 C -0.11039 0.40881 0.07489
 C591 C -0.13041 0.38907 0.09819
 H592 H -0.21987 0.32842 0.17047
 H593 H -0.12403 0.28600 0.20863
 H594 H -0.04394 0.42561 0.13043
 H595 H -0.11918 0.41280 0.04778
 H596 H -0.09302 0.33170 0.17744
 H597 H -0.07934 0.39146 0.17155
 H598 H -0.18897 0.37473 0.13979
 H599 H -0.15381 0.37808 0.08819
 C600 C -0.14684 0.61615 -0.15334
 C601 C -0.16841 0.63716 -0.13234
 C602 C -0.18225 0.66791 -0.14609
 C603 C -0.17415 0.67923 -0.18105
 C604 C -0.15426 0.65698 -0.20267
 C605 C -0.14116 0.62583 -0.18914
 C606 C -0.12748 0.58669 -0.13680
 C607 C -0.09353 0.57939 -0.14764
 C608 C -0.07296 0.55653 -0.12796
 C609 C -0.08561 0.54099 -0.09661
 C610 C -0.12020 0.54600 -0.08726
 C611 C -0.14105 0.56830 -0.10738
 H612 H -0.19679 0.68404 -0.12797
 H613 H -0.14885 0.66339 -0.23032
 H614 H -0.04630 0.55330 -0.13566
 H615 H -0.13066 0.53398 -0.06337
 H616 H -0.12583 0.60975 -0.20662
 H617 H -0.08186 0.59314 -0.16980
 H618 H -0.17303 0.63108 -0.10447
 H619 H -0.16735 0.57231 -0.09886
 C620 C 0.10452 0.65835 0.09987
 C621 C 0.10287 0.66187 0.13701
 C622 C 0.11926 0.68912 0.15359
 C623 C 0.13836 0.71333 0.13347
 C624 C 0.14030 0.70912 0.09606
 C625 C 0.12325 0.68220 0.07950
 C626 C 0.08616 0.63006 0.08256
 C627 C 0.06345 0.63707 0.05445
 C628 C 0.04399 0.61062 0.04009
 C629 C 0.04747 0.57662 0.05311
 C630 C 0.07115 0.56954 0.08042
 C631 C 0.09009 0.59606 0.09519
 H632 H 0.11784 0.69022 0.18241
 H633 H 0.15358 0.72745 0.07909
 H634 H 0.02579 0.61689 0.01928
 H635 H 0.07433 0.54364 0.09112
 H636 H 0.12473 0.67995 0.05074
 H637 H 0.05990 0.66319 0.04449
 H638 H 0.08848 0.64370 0.15323
 H639 H 0.10765 0.59012 0.11673
 C640 C 0.36528 1.12449 0.85706
 C641 C 0.33570 1.13410 0.87632
 C642 C 0.31035 1.15463 0.86047
 C643 C 0.31395 1.16610 0.82496
 C644 C 0.34371 1.15678 0.80575
 C645 C 0.36909 1.13609 0.82162
 C646 C 0.39182 1.10238 0.87425
 C647 C 0.40717 1.07456 0.85608
 C648 C 0.43046 1.05250 0.87361
 C649 C 0.43872 1.05806 0.90947
 C650 C 0.42409 1.08645 0.92715
 C651 C 0.40099 1.10834 0.90976
 H652 H 0.28741 1.16064 0.87573
 H653 H 0.34734 1.16548 0.77842
 H654 H 0.44139 1.03078 0.85943
 H655 H 0.43021 1.09164 0.95472
 H656 H 0.39181 1.12940 0.80631
 H657 H 0.40038 1.06927 0.82873
 H658 H 0.33177 1.12504 0.90349
 H659 H 0.39010 1.12992 0.92422
 C660 C 0.33547 0.87509 1.10820
 C661 C 0.30839 0.86485 1.08633
 C662 C 0.28025 0.84758 1.10097
 C663 C 0.27859 0.84047 1.13779
 C664 C 0.30609 0.84988 1.15948
 C665 C 0.33430 0.86694 1.14482
 C666 C 0.36399 0.89582 1.09335
 C667 C 0.39797 0.88907 1.10368
 C668 C 0.42454 0.91000 1.09126
 C669 C 0.41759 0.93825 1.06849
 C670 C 0.38364 0.94467 1.05779
 C671 C 0.35714 0.92359 1.06998
 H672 H 0.25928 0.84081 1.08370
 H673 H 0.30555 0.84440 1.18789
 H674 H 0.45047 0.90430 1.09983
 H675 H 0.37745 0.96625 1.04030
 H676 H 0.35468 0.87479 1.16234
 H677 H 0.40396 0.86762 1.12141
 H678 H 0.30883 0.87055 1.05795
 H679 H 0.33113 0.92964 1.06194
 C680 C 0.66209 1.11458 1.13062
 C681 C 0.69177 1.12856 1.11492
 C682 C 0.71315 1.14985 1.13466
 C683 C 0.70532 1.15727 1.17048
 C684 C 0.67546 1.14357 1.18592
 C685 C 0.65419 1.12243 1.16629
 C686 C 0.63907 1.09190 1.11031
 C687 C 0.60345 1.09544 1.11450
 C688 C 0.58141 1.07264 1.09815
 C689 C 0.59431 1.04575 1.07687
 C690 C 0.62990 1.04287 1.07142
 C691 C 0.65214 1.06576 1.08810
 H692 H 0.73621 1.15982 1.12223
 H693 H 0.66865 1.14906 1.21337
 H694 H 0.55408 1.07608 1.10239
 H695 H 0.64053 1.02253 1.05499
 H696 H 0.63176 1.11170 1.17931
 H697 H 0.59256 1.11580 1.13071
 H698 H 0.69832 1.12315 1.08740
 H699 H 0.67954 1.06237 1.08452
 C700 C 0.65455 0.86929 0.85793
 C701 C 0.66168 0.87164 0.82112
 C702 C 0.68949 0.85355 0.80631
 C703 C 0.71061 0.83255 0.82793
 C704 C 0.70327 0.82987 0.86457
 C705 C 0.67573 0.84814 0.87941
 C706 C 0.62585 0.88938 0.87435
 C707 C 0.60726 0.87538 0.90326
 C708 C 0.58313 0.89536 0.92156
 C709 C 0.57646 0.92963 0.91105
 C710 C 0.59337 0.94318 0.88091
 C711 C 0.61802 0.92328 0.86281
 H712 H 0.69444 0.85584 0.77790
 H713 H 0.71948 0.81441 0.88197
 H714 H 0.57019 0.88420 0.94457
 H715 H 0.58883 0.96965 0.87250
 H716 H 0.67162 0.84634 0.90797
 H717 H 0.61187 0.84912 0.91228
 H718 H 0.64568 0.88731 0.80372
 H719 H 0.63200 0.93499 0.84083
   
