data_POSCAR
  _audit_creation_date              2014-09-24
  _audit_creation_method            'ToBaCCo'
  _symmetry_space_group_name_H-M    'P1'
  _symmetry_Int_Tables_number       1
  _symmetry_cell_setting            triclinic
  loop_
  _symmetry_equiv_pos_as_xyz
 x,y,z
_cell_length_a 28.7060
_cell_length_b 28.1272
_cell_length_c 27.8820
_cell_angle_alpha 89.125900
_cell_angle_beta 90.919700
_cell_angle_gamma 90.520100
loop_
  _atom_site_label
  _atom_site_type_symbol
  _atom_site_fract_x
  _atom_site_fract_y
  _atom_site_fract_z
C1 C 0.26475 0.17923 0.23438
 C2 C 0.24520 0.15467 0.27351
 C3 C 0.20407 0.17071 0.29482
 C4 C 0.18252 0.21165 0.27514
 C5 C 0.20208 0.23681 0.23662
 C6 C 0.24388 0.22112 0.21665
 C7 C 0.30282 0.16041 0.21054
 C8 C 0.32171 0.18338 0.16959
 C9 C 0.30371 0.22835 0.15614
 C10 C 0.26310 0.24557 0.17698
 C11 C 0.23874 0.28385 0.15578
 C12 C 0.19486 0.29640 0.17304
 C13 C 0.17800 0.27463 0.21486
 H14 H 0.26230 0.12301 0.28737
 H15 H 0.14872 0.22241 0.28769
 H16 H 0.31519 0.12577 0.22214
 H17 H 0.32015 0.24942 0.12822
 H18 H 0.25110 0.30014 0.12281
 H19 H 0.14385 0.28413 0.22759
 C20 C -0.22139 0.83667 0.21722
 C21 C -0.20126 0.86401 0.25400
 C22 C -0.15809 0.85121 0.27527
 C23 C -0.13771 0.80802 0.26237
 C24 C -0.15695 0.78090 0.22516
 C25 C -0.19821 0.79593 0.20154
 C26 C -0.26359 0.85006 0.19492
 C27 C -0.28158 0.82480 0.15530
 C28 C -0.25638 0.78625 0.13783
 C29 C -0.21571 0.77075 0.16163
 C30 C -0.19193 0.73074 0.14587
 C31 C -0.15173 0.71472 0.17037
 C32 C -0.13441 0.74001 0.20989
 H33 H -0.21873 0.89578 0.26557
 H34 H -0.10491 0.79722 0.27883
 H35 H -0.28170 0.88117 0.20724
 H36 H -0.26963 0.76699 0.10701
 H37 H -0.20445 0.71211 0.11436
 H38 H -0.10274 0.72831 0.22802
 C39 C -0.24767 0.18396 -0.24206
 C40 C -0.22033 0.15751 -0.27320
 C41 C -0.18255 0.17899 -0.29688
 C42 C -0.17374 0.22769 -0.29084
 C43 C -0.19866 0.25348 -0.25752
 C44 C -0.23676 0.23220 -0.23418
 C45 C -0.28306 0.16191 -0.21558
 C46 C -0.30760 0.18716 -0.18073
 C47 C -0.29863 0.23627 -0.17606
 C48 C -0.26198 0.25831 -0.20074
 C49 C -0.24710 0.30441 -0.18882
 C50 C -0.20497 0.32297 -0.20682
 C51 C -0.18258 0.29817 -0.24325
 H52 H -0.22723 0.11985 -0.27755
 H53 H -0.14519 0.24470 -0.30969
 H54 H -0.28906 0.12407 -0.21978
 H55 H -0.31888 0.25700 -0.15157
 H56 H -0.26534 0.32353 -0.16149
 H57 H -0.14949 0.31075 -0.25682
 C58 C 0.24725 0.81190 -0.23438
 C59 C 0.22993 0.83584 -0.27534
 C60 C 0.18509 0.82514 -0.29386
 C61 C 0.16166 0.78453 -0.27648
 C62 C 0.17847 0.76041 -0.23560
 C63 C 0.22062 0.77508 -0.21337
 C64 C 0.28800 0.82780 -0.21114
 C65 C 0.30102 0.80951 -0.16563
 C66 C 0.27427 0.77283 -0.14478
 C67 C 0.23433 0.75528 -0.16848
 C68 C 0.20552 0.72132 -0.14618
 C69 C 0.16337 0.70746 -0.16818
 C70 C 0.15101 0.72548 -0.21361
 H71 H 0.24930 0.86579 -0.29013
 H72 H 0.12743 0.77535 -0.29078
 H73 H 0.30779 0.85706 -0.22667
 H74 H 0.28298 0.76001 -0.10891
 H75 H 0.21466 0.70727 -0.11087
 H76 H 0.11822 0.71460 -0.23014
 C77 C 0.19201 1.24120 0.74000
 C78 C 0.17647 1.22192 0.69638
 C79 C 0.20224 1.18676 0.67253
 C80 C 0.24383 1.17085 0.69537
 C81 C 0.25675 1.18599 0.74137
 C82 C 0.23168 1.22242 0.76316
 C83 C 0.16660 1.27692 0.76224
 C84 C 0.18037 1.29461 0.80754
 C85 C 0.21950 1.27422 0.83089
 C86 C 0.24474 1.23803 0.80933
 C87 C 0.28047 1.21453 0.83473
 C88 C 0.30178 1.17460 0.81516
 C89 C 0.29206 1.16251 0.76743
 H90 H 0.14239 1.23243 0.68335
 H91 H 0.26614 1.14552 0.67850
 H92 H 0.13633 1.29150 0.74372
 H93 H 0.22857 1.28425 0.86728
 H94 H 0.28915 1.22468 0.87119
 H95 H 0.30923 1.13224 0.75209
 C96 C 0.84420 0.76475 0.78953
 C97 C 0.87050 0.78560 0.75244
 C98 C 0.85759 0.82974 0.73168
 C99 C 0.81626 0.85125 0.74669
 C100 C 0.79051 0.83161 0.78455
 C101 C 0.80484 0.78853 0.80650
 C102 C 0.85707 0.72098 0.81058
 C103 C 0.83201 0.70127 0.84943
 C104 C 0.79450 0.72688 0.86774
 C105 C 0.78017 0.76965 0.84595
 C106 C 0.74167 0.79405 0.86326
 C107 C 0.72686 0.83653 0.84105
 C108 C 0.75143 0.85517 0.80178
 H109 H 0.90105 0.76758 0.73969
 H110 H 0.80562 0.88496 0.73078
 H111 H 0.88756 0.70291 0.79773
 H112 H 0.77515 0.71247 0.89782
 H113 H 0.72330 0.78028 0.89426
 H114 H 0.74043 0.88843 0.78522
 C115 C 0.14277 0.75448 1.21928
 C116 C 0.11449 0.77428 1.25461
 C117 C 0.12750 0.81729 1.27630
 C118 C 0.16931 0.83989 1.26363
 C119 C 0.19737 0.82112 1.22811
 C120 C 0.18412 0.77832 1.20571
 C121 C 0.12914 0.71276 1.19547
 C122 C 0.15607 0.69417 1.15803
 C123 C 0.19854 0.71738 1.14697
 C124 C 0.21149 0.76030 1.16869
 C125 C 0.24987 0.78698 1.15204
 C126 C 0.26112 0.83128 1.17217
 C127 C 0.23675 0.84628 1.21242
 H128 H 0.08181 0.75728 1.26413
 H129 H 0.17874 0.87348 1.27994
 H130 H 0.09611 0.69627 1.20458
 H131 H 0.22161 0.70233 1.12096
 H132 H 0.26922 0.77472 1.12160
 H133 H 0.24641 0.87959 1.22913
 C134 C 0.79662 1.24870 1.26350
 C135 C 0.81639 1.23533 1.30798
 C136 C 0.80608 1.19046 1.32874
 C137 C 0.76634 1.16587 1.31133
 C138 C 0.74367 1.18077 1.26890
 C139 C 0.76074 1.22064 1.24324
 C140 C 0.81650 1.28574 1.23631
 C141 C 0.80348 1.29250 1.18790
 C142 C 0.76599 1.26626 1.16853
 C143 C 0.74429 1.23032 1.19606
 C144 C 0.70979 1.20073 1.17577
 C145 C 0.69206 1.16155 1.20188
 C146 C 0.70789 1.15297 1.24901
 H147 H 0.84345 1.25753 1.32375
 H148 H 0.75617 1.13193 1.32698
 H149 H 0.84609 1.30543 1.25069
 H150 H 0.75636 1.27123 1.13104
 H151 H 0.69812 1.20683 1.13902
 H152 H 0.69443 1.12252 1.26889
 O153 O 0.54211 0.94940 0.91317
 O154 O 0.44105 0.93777 1.07145
 O155 O 0.58825 0.95840 1.04917
 O156 O 0.43374 0.92886 0.98553
 O157 O 0.52512 0.92006 1.06994
 O158 O 0.45384 0.95359 0.91551
 O159 O 0.38233 0.97518 1.03885
 O160 O 0.59760 0.97462 0.96284
 C161 C 0.58372 0.94844 0.92857
 C162 C 0.39812 0.94841 1.07416
 C163 C 0.56858 0.92127 1.06589
 C164 C 0.43338 0.92347 0.94139
 O165 O 0.46218 1.04883 0.92131
 O166 O 0.54534 1.00176 1.10805
 O167 O 0.57687 1.06623 0.97637
 O168 O 0.42950 1.04992 1.02913
 O169 O 0.46380 1.02937 1.09480
 O170 O 0.54671 1.04051 0.91106
 O171 O 0.40448 1.01370 0.95425
 O172 O 0.56179 1.05376 1.05725
 Co173 Co 0.50072 0.99753 0.92336
 Co174 Co 0.49422 0.97511 1.07784
 Co175 Co 0.57492 1.01153 1.01146
 Co176 Co 0.43489 0.98987 1.00788
 O177 O 0.50414 0.99523 1.00155
 C178 C 0.41944 1.04684 0.92808
 C179 C 0.56378 1.04062 1.09905
 C180 C 0.57094 1.07060 0.93258
 C181 C 0.44050 1.05944 1.07117
 O182 O 0.02667 0.42412 0.08406
 O183 O 0.05116 0.53380 -0.06755
 O184 O 0.02255 0.38933 -0.06924
 O185 O 0.05484 0.54848 0.01997
 O186 O 0.05908 0.45384 -0.08088
 O187 O 0.04210 0.51185 0.08537
 O188 O 0.00797 0.58729 -0.04470
 O189 O 0.04292 0.38342 0.01919
 C190 C 0.04981 0.39221 0.06298
 C191 C 0.04068 0.57639 -0.07050
 C192 C 0.05748 0.41026 -0.08462
 C193 C 0.06685 0.54034 0.06196
 O194 O -0.05074 0.52840 0.07272
 O195 O -0.03472 0.44581 -0.10458
 O196 O -0.04460 0.38151 0.03768
 O197 O -0.06698 0.54742 -0.01627
 O198 O -0.04361 0.52977 -0.08724
 O199 O -0.06572 0.44457 0.07293
 O200 O -0.01830 0.59236 0.04250
 O201 O -0.06408 0.39941 -0.04959
 Co202 Co -0.01077 0.47700 0.07101
 Co203 Co 0.00691 0.48958 -0.07906
 Co204 Co -0.01017 0.39679 -0.01480
 Co205 Co -0.00611 0.54459 0.00320
 O206 O -0.00406 0.47407 -0.00659
 C207 C -0.04449 0.57315 0.07483
 C208 C -0.06618 0.41713 -0.09103
 C209 C -0.06917 0.40108 0.06791
 C210 C -0.07414 0.54770 -0.06075
 O211 O 1.09474 0.03542 0.45117
 O212 O 0.91779 0.02572 0.57064
 O213 O 0.95682 0.06050 0.42150
 O214 O 1.05155 0.07460 0.55924
 O215 O 0.91328 0.05294 0.48501
 O216 O 1.10588 0.02905 0.53889
 O217 O 0.97296 0.07272 0.56888
 O218 O 1.04285 0.05702 0.39360
 C219 C 1.08542 0.05756 0.41170
 C220 C 0.93320 0.06516 0.58170
 C221 C 0.92289 0.07340 0.44573
 C222 C 1.09341 0.06896 0.55264
 O223 O 1.07248 -0.06098 0.53822
 O224 O 0.92052 -0.03707 0.45895
 O225 O 1.01718 -0.02354 0.40427
 O226 O 0.97769 -0.02278 0.60397
 O227 O 0.93940 -0.05968 0.54657
 O228 O 1.06844 -0.05719 0.45061
 O229 O 1.06107 -0.01458 0.59651
 O230 O 0.97349 -0.01296 0.40676
 Co231 Co 1.07797 -0.01197 0.49620
 Co232 Co 0.93055 -0.00385 0.51419
 Co233 Co 1.01086 0.03082 0.44076
 Co234 Co 1.01480 0.02549 0.57693
 O235 O 1.00549 0.00550 0.50697
 C236 C 1.07848 -0.05184 0.58124
 C237 C 0.93507 -0.03488 0.41678
 C238 C 1.04734 -0.05595 0.41101
 C239 C 0.95381 -0.05850 0.58949
 C240 C 1.15070 0.06585 0.35593
 C241 C 1.18051 0.09348 0.32782
 C242 C 1.18163 0.14353 0.33125
 C243 C 1.15544 0.16474 0.36826
 C244 C 1.12363 0.13668 0.39509
 C245 C 1.12098 0.08714 0.38817
 C246 C 1.09544 0.15922 0.42841
 N247 N 1.10119 0.20626 0.43677
 N248 N 1.13343 0.23206 0.41423
 C249 C 1.16110 0.21285 0.38080
 H250 H 1.14893 0.02779 0.35051
 H251 H 1.19963 0.07544 0.30045
 H252 H 1.06935 0.13965 0.44823
 H253 H 1.18765 0.23520 0.36482
 C254 C 0.90451 -0.11120 0.38626
 C255 C 0.88265 -0.13905 0.35152
 C256 C 0.86513 -0.11886 0.30846
 C257 C 0.87247 -0.06928 0.29967
 C258 C 0.89444 -0.04094 0.33542
 C259 C 0.91070 -0.06231 0.37893
 C260 C 0.89943 0.00815 0.32623
 N261 N 0.88617 0.02701 0.28323
 N262 N 0.86837 0.00007 0.24859
 C263 C 0.86155 -0.04730 0.25507
 H264 H 0.91702 -0.12810 0.41914
 H265 H 0.87799 -0.17666 0.35926
 H266 H 0.91381 0.03179 0.35253
 H267 H 0.84871 -0.06720 0.22477
 C268 C 0.85754 0.09417 0.60910
 C269 C 0.82949 0.12036 0.63893
 C270 C 0.84914 0.15034 0.67353
 C271 C 0.89846 0.15403 0.67767
 C272 C 0.92700 0.13149 0.64377
 C273 C 0.90626 0.09884 0.61082
 C274 C 0.97519 0.14203 0.64542
 N275 N 0.99358 0.16840 0.68144
 N276 N 0.96725 0.18533 0.71592
 C277 C 0.92049 0.17873 0.71551
 H278 H 0.84082 0.07010 0.58404
 H279 H 0.79200 0.11696 0.63505
 H280 H 0.99880 0.13094 0.61844
 H281 H 0.90119 0.19243 0.74514
 C282 C 1.11169 -0.13005 0.60451
 C283 C 1.13696 -0.16014 0.63511
 C284 C 1.16108 -0.14261 0.67551
 C285 C 1.15799 -0.09323 0.68581
 C286 C 1.13431 -0.06214 0.65322
 C287 C 1.10935 -0.08121 0.61300
 C288 C 1.13639 -0.01295 0.66269
 N289 N 1.15595 0.00302 0.70396
 N290 N 1.17369 -0.02666 0.73676
 C291 C 1.17482 -0.07407 0.72947
 H292 H 1.09302 -0.14534 0.57430
 H293 H 1.13807 -0.19760 0.62671
 H294 H 1.12334 0.01350 0.63806
 H295 H 1.18786 -0.09606 0.75861
 C296 C 0.41983 1.10220 1.14455
 C297 C 0.38928 1.13155 1.16810
 C298 C 0.35672 1.16023 1.14277
 C299 C 0.36041 1.16291 1.09143
 C300 C 0.39619 1.13741 1.06852
 C301 C 0.42148 1.10224 1.09452
 C302 C 0.40446 1.14689 1.01973
 N303 N 0.37488 1.17492 0.99401
 N304 N 0.33709 1.19287 1.01364
 C305 C 0.32809 1.18662 1.06093
 H306 H 0.44045 1.07736 1.16583
 H307 H 0.39047 1.13040 1.20693
 H308 H 0.43421 1.13235 1.00190
 H309 H 0.29516 1.19923 1.07328
 C310 C 0.36211 0.91154 0.89461
 C311 C 0.33079 0.88442 0.86812
 C312 C 0.33676 0.83531 0.86344
 C313 C 0.37507 0.81313 0.88747
 C314 C 0.40644 0.84094 0.91575
 C315 C 0.40011 0.89057 0.91840
 C316 C 0.44372 0.81820 0.93946
 N317 N 0.44974 0.77079 0.93434
 N318 N 0.42110 0.74485 0.90699
 C319 C 0.38415 0.76438 0.88324
 H320 H 0.35672 0.94957 0.89630
 H321 H 0.30146 0.90217 0.85094
 H322 H 0.46800 0.83771 0.96197
 H323 H 0.36264 0.74172 0.86091
 C324 C 0.63963 0.87317 1.06070
 C325 C 0.67725 0.85040 1.08304
 C326 C 0.67664 0.83924 1.13228
 C327 C 0.63435 0.84463 1.15740
 C328 C 0.59486 0.86489 1.13362
 C329 C 0.59899 0.88297 1.08590
 C330 C 0.55294 0.86662 1.15898
 N331 N 0.55106 0.85038 1.20493
 N332 N 0.58813 0.83197 1.22730
 C333 C 0.62950 0.82818 1.20508
 H334 H 0.64342 0.88592 1.02406
 H335 H 0.70871 0.84574 1.06270
 H336 H 0.52099 0.87834 1.14246
 H337 H 0.65779 0.81122 1.22459
 C338 C 0.59966 1.10192 0.85527
 C339 C 0.63046 1.12886 0.82809
 C340 C 0.66021 1.16285 0.84919
 C341 C 0.65671 1.17056 0.89964
 C342 C 0.62224 1.14565 0.92655
 C343 C 0.59615 1.10824 0.90484
 C344 C 0.61598 1.15863 0.97465
 N345 N 0.64605 1.18945 0.99592
 N346 N 0.68187 1.20823 0.97241
 C347 C 0.68863 1.19937 0.92541
 H348 H 0.57957 1.07455 0.83721
 H349 H 0.63093 1.12269 0.78984
 H350 H 0.58709 1.14558 0.99549
 H351 H 0.71957 1.21413 0.90934
 C352 C 0.11439 0.39094 0.12339
 C353 C 0.15064 0.36875 0.14886
 C354 C 0.16086 0.32098 0.14121
 C355 C 0.13374 0.29474 0.10779
 C356 C 0.09601 0.31674 0.08294
 C357 C 0.08677 0.36582 0.09009
 C358 C 0.06764 0.28792 0.05349
 N359 N 0.07777 0.24145 0.04754
 N360 N 0.11412 0.22133 0.06961
 C361 C 0.14226 0.24622 0.09968
 H362 H 0.10794 0.42821 0.12969
 H363 H 0.17050 0.38880 0.17515
 H364 H 0.03661 0.30101 0.03642
 H365 H 0.17073 0.22760 0.11717
 C366 C -0.14220 0.37720 -0.10240
 C367 C -0.17719 0.35585 -0.12949
 C368 C -0.17806 0.35988 -0.17963
 C369 C -0.14521 0.39063 -0.20188
 C370 C -0.10648 0.40870 -0.17502
 C371 C -0.10487 0.40158 -0.12402
 C372 C -0.07094 0.43192 -0.20115
 N373 N -0.07659 0.44081 -0.24882
 N374 N -0.11486 0.42746 -0.27272
 C375 C -0.14941 0.40283 -0.25081
 H376 H -0.14317 0.37188 -0.06386
 H377 H -0.20165 0.33304 -0.11075
 H378 H -0.03858 0.44321 -0.18522
 H379 H -0.17979 0.39250 -0.27179
 C380 C 0.11374 0.59762 -0.11065
 C381 C 0.14408 0.62946 -0.13261
 C382 C 0.13044 0.67605 -0.14267
 C383 C 0.08495 0.69090 -0.13098
 C384 C 0.05319 0.65791 -0.11027
 C385 C 0.06870 0.61133 -0.09800
 C386 C 0.00692 0.67281 -0.10382
 N387 N -0.00520 0.71838 -0.11400
 N388 N 0.02551 0.75006 -0.13052
 C389 C 0.07013 0.73796 -0.13923
 H390 H 0.12620 0.56212 -0.10246
 H391 H 0.17857 0.61763 -0.14188
 H392 H -0.02030 0.64891 -0.09220
 H393 H 0.09350 0.76531 -0.15246
 C394 C -0.05299 0.64769 0.11772
 C395 C -0.07843 0.68207 0.14060
 C396 C -0.12518 0.67414 0.15180
 C397 C -0.14601 0.62940 0.14183
 C398 C -0.12069 0.59464 0.11672
 C399 C -0.07344 0.60431 0.10437
 C400 C -0.14453 0.55246 0.10394
 N401 N -0.18895 0.54476 0.11814
 N402 N -0.21158 0.57635 0.14382
 C403 C -0.19165 0.61832 0.15618
 H404 H -0.01708 0.65577 0.10900
 H405 H -0.06180 0.71595 0.14808
 H406 H -0.12930 0.52543 0.08254
 H407 H -0.21159 0.64245 0.17741
 C408 C 1.16900 0.08765 0.59131
 C409 C 1.19559 0.11579 0.62201
 C410 C 1.18368 0.16356 0.63073
 C411 C 1.14863 0.18398 0.60003
 C412 C 1.11828 0.15398 0.57303
 C413 C 1.12756 0.10460 0.57074
 C414 C 1.08060 0.17501 0.54803
 N415 N 1.07649 0.22298 0.54636
 N416 N 1.10754 0.25130 0.56780
 C417 C 1.14384 0.23347 0.59379
 H418 H 1.17845 0.05066 0.58797
 H419 H 1.22253 0.09736 0.64203
 H420 H 1.05529 0.15424 0.52828
 H421 H 1.16891 0.25810 0.60910
 C422 C 0.88709 -0.10646 0.61855
 C423 C 0.86302 -0.13188 0.65365
 C424 C 0.88509 -0.14720 0.69639
 C425 C 0.93324 -0.13589 0.70347
 C426 C 0.95754 -0.10898 0.66777
 C427 C 0.93403 -0.09339 0.62507
 C428 C 1.00465 -0.09808 0.67644
 N429 N 1.02589 -0.11163 0.71810
 N430 N 1.00290 -0.13504 0.75222
 C431 C 0.95737 -0.14712 0.74664
 H432 H 0.86784 -0.09481 0.58683
 H433 H 0.82648 -0.13989 0.64710
 H434 H 1.02476 -0.07895 0.65062
 H435 H 0.94059 -0.16443 0.77658
 C436 C 1.08296 -0.13278 0.39038
 C437 C 1.10268 -0.16396 0.35828
 C438 C 1.09608 -0.15766 0.30897
 C439 C 1.06609 -0.12140 0.29171
 C440 C 1.04628 -0.08870 0.32410
 C441 C 1.05661 -0.09333 0.37448
 C442 C 1.01857 -0.05205 0.30383
 N443 N 1.01078 -0.04937 0.25578
 N444 N 1.02909 -0.08028 0.22599
 C445 C 1.05663 -0.11599 0.24227
 H446 H 1.09097 -0.13814 0.42816
 H447 H 1.12561 -0.19157 0.37196
 H448 H 1.00246 -0.02530 0.32452
 H449 H 1.07068 -0.14006 0.21640
 C450 C 0.84585 0.11005 0.42878
 C451 C 0.81769 0.13811 0.39877
 C452 C 0.83677 0.16800 0.36265
 C453 C 0.88662 0.17176 0.36043
 C454 C 0.91446 0.14789 0.39548
 C455 C 0.89425 0.11288 0.42588
 C456 C 0.96260 0.15786 0.39741
 N457 N 0.98260 0.18406 0.36211
 N458 N 0.95759 0.20062 0.32505
 C459 C 0.91072 0.19446 0.32238
 H460 H 0.82961 0.08431 0.45265
 H461 H 0.78038 0.13516 0.40325
 H462 H 0.98445 0.14444 0.42644
 H463 H 0.89365 0.20597 0.28963
 C464 C 0.07432 0.34862 -0.14316
 C465 C 0.10366 0.32147 -0.17054
 C466 C 0.15230 0.32799 -0.16864
 C467 C 0.17076 0.36577 -0.14008
 C468 C 0.14056 0.39290 -0.11124
 C469 C 0.09187 0.38398 -0.11288
 C470 C 0.16046 0.42777 -0.08136
 N471 N 0.20677 0.43727 -0.08303
 N472 N 0.23451 0.41431 -0.11245
 C473 C 0.21812 0.37933 -0.14123
 H474 H 0.03718 0.34146 -0.14541
 H475 H 0.08787 0.29309 -0.19120
 H476 H 0.13993 0.44759 -0.05660
 H477 H 0.24217 0.36322 -0.16542
 C478 C -0.14536 0.38944 0.10842
 C479 C -0.17656 0.36310 0.13656
 C480 C -0.16415 0.31857 0.15567
 C481 C -0.11961 0.29996 0.14585
 C482 C -0.08731 0.32734 0.11884
 C483 C -0.10079 0.37208 0.09873
 C484 C -0.04194 0.30938 0.11442
 N485 N -0.03105 0.26586 0.13258
 N486 N -0.06224 0.23906 0.15546
 C487 C -0.10607 0.25453 0.16269
 H488 H -0.15619 0.42362 0.09392
 H489 H -0.21045 0.37774 0.14386
 H490 H -0.01461 0.32968 0.09782
 H491 H -0.12981 0.23108 0.18153
 C492 C -0.12700 0.61672 -0.05598
 C493 C -0.14869 0.65542 -0.07847
 C494 C -0.15420 0.65777 -0.12870
 C495 C -0.14412 0.61655 -0.15546
 C496 C -0.12343 0.57654 -0.13213
 C497 C -0.11118 0.57832 -0.08266
 C498 C -0.11653 0.53548 -0.15902
 N499 N -0.12889 0.53467 -0.20611
 N500 N -0.14822 0.57206 -0.22808
 C501 C -0.15660 0.61273 -0.20438
 H502 H -0.11910 0.61890 -0.01793
 H503 H -0.15702 0.68567 -0.05669
 H504 H -0.10322 0.50346 -0.14252
 H505 H -0.17431 0.64102 -0.22370
 C506 C 0.09991 0.57608 0.13573
 C507 C 0.11853 0.61592 0.15848
 C508 C 0.14037 0.65314 0.13256
 C509 C 0.14552 0.64729 0.08192
 C510 C 0.13013 0.60439 0.05989
 C511 C 0.10300 0.57078 0.08600
 C512 C 0.14075 0.59743 0.01149
 N513 N 0.16021 0.63314 -0.01467
 N514 N 0.16914 0.67545 0.00420
 C515 C 0.16158 0.68405 0.05111
 H516 H 0.08014 0.55077 0.15708
 H517 H 0.11508 0.61766 0.19704
 H518 H 0.13401 0.56380 -0.00568
 H519 H 0.16708 0.71993 0.06312
 C520 C 0.40392 1.10221 0.85983
 C521 C 0.37590 1.13257 0.83229
 C522 C 0.33040 1.14241 0.84597
 C523 C 0.31283 1.12112 0.88853
 C524 C 0.34255 1.09313 0.91852
 C525 C 0.38799 1.08146 0.90283
 C526 C 0.32590 1.07959 0.96386
 N527 N 0.28117 1.08805 0.97571
 N528 N 0.25191 1.10988 0.94540
 C529 C 0.26615 1.12666 0.90222
 H530 H 0.43840 1.09453 0.84692
 H531 H 0.38974 1.14820 0.79968
 H532 H 0.34859 1.06555 0.99120
 H533 H 0.24072 1.14397 0.87914
 C534 C 0.37454 0.87484 1.11862
 C535 C 0.34085 0.84624 1.14073
 C536 C 0.29607 0.86354 1.14922
 C537 C 0.28563 0.91140 1.13594
 C538 C 0.32091 0.94130 1.11654
 C539 C 0.36484 0.92201 1.10516
 C540 C 0.31081 0.98983 1.10899
 N541 N 0.26719 1.00601 1.11605
 N542 N 0.23304 0.97708 1.13032
 C543 C 0.24061 0.93041 1.14011
 H544 H 0.40791 0.85942 1.11058
 H545 H 0.34959 0.80997 1.15061
 H546 H 0.33721 1.01529 1.09825
 H547 H 0.21111 0.90875 1.15047
 C548 C 0.58514 1.11612 1.13668
 C549 C 0.61712 1.14580 1.15969
 C550 C 0.65880 1.12778 1.17901
 C551 C 0.66787 1.07828 1.17586
 C552 C 0.63417 1.04767 1.15438
 C553 C 0.59311 1.06723 1.13339
 C554 C 0.64404 0.99877 1.15255
 N555 N 0.68530 0.98211 1.16968
 N556 N 0.71762 1.01101 1.18810
 C557 C 0.71054 1.05841 1.19141
 H558 H 0.55438 1.13167 1.11999
 H559 H 0.60972 1.18343 1.16159
 H560 H 0.61955 0.97347 1.13796
 H561 H 0.73879 1.07999 1.20534
 C562 C 0.66306 0.93582 0.89939
 C563 C 0.69726 0.90946 0.87754
 C564 C 0.68779 0.86350 0.86129
 C565 C 0.64243 0.84392 0.86685
 C566 C 0.60768 0.87041 0.89016
 C567 C 0.61807 0.91722 0.90589
 C568 C 0.56414 0.84837 0.89785
 N569 N 0.55543 0.80418 0.88094
 N570 N 0.58732 0.78033 0.85717
 C571 C 0.63042 0.79866 0.84948
 H572 H 0.67184 0.97141 0.91107
 H573 H 0.73176 0.92491 0.87383
 H574 H 0.53711 0.86525 0.91766
 H575 H 0.65474 0.77776 0.82966
   
