data_POSCAR
  _audit_creation_date              2014-09-24
  _audit_creation_method            'ToBaCCo'
  _symmetry_space_group_name_H-M    'P1'
  _symmetry_Int_Tables_number       1
  _symmetry_cell_setting            triclinic
  loop_
  _symmetry_equiv_pos_as_xyz
 x,y,z
_cell_length_a 26.2721
_cell_length_b 26.2301
_cell_length_c 26.2263
_cell_angle_alpha 90.108400
_cell_angle_beta 89.999700
_cell_angle_gamma 90.000900
loop_
  _atom_site_label
  _atom_site_type_symbol
  _atom_site_fract_x
  _atom_site_fract_y
  _atom_site_fract_z
C1 C 0.34013 1.00087 -0.47538
 C2 C 0.34002 1.00395 -0.52753
 C3 C 0.39057 1.00289 -0.54298
 N4 N 0.42130 0.99942 -0.50183
 C5 C 0.39070 0.99824 -0.46042
 C6 C 0.40703 1.00294 -0.59439
 C7 C 0.45862 0.99997 -0.61019
 C8 C 0.47399 0.99099 -0.66008
 C9 C 0.52620 0.99051 -0.66010
 C10 C 0.54179 0.99926 -0.61024
 N11 N 0.50027 1.00573 -0.58021
 C12 C 0.59346 1.00158 -0.59455
 C13 C 0.61001 1.00249 -0.54318
 C14 C 0.66058 1.00405 -0.52782
 C15 C 0.66054 1.00216 -0.47561
 C16 C 0.60999 0.99960 -0.46054
 N17 N 0.57935 0.99977 -0.50192
 C18 C 0.59345 0.99819 -0.40924
 C19 C 0.54193 0.99762 -0.39324
 C20 C 0.52646 1.00210 -0.34282
 C21 C 0.47422 1.00140 -0.34278
 C22 C 0.45882 0.99656 -0.39319
 N23 N 0.50040 0.99336 -0.42356
 C24 C 0.40729 0.99605 -0.40917
 H25 H 0.30670 1.00087 -0.45125
 H26 H 0.30647 1.00621 -0.55138
 H27 H 0.50043 0.98565 -0.46222
 H28 H 0.45003 0.98487 -0.69311
 H29 H 0.55000 0.98400 -0.69317
 H30 H 0.69409 1.00597 -0.55176
 H31 H 0.69399 1.00279 -0.45152
 H32 H 0.45032 1.00496 -0.30935
 H33 H 0.50034 1.01773 -0.54255
 H34 H 0.55030 1.00624 -0.30940
 C35 C -0.66204 1.52596 0.00094
 C36 C -0.66193 1.47376 -0.00090
 C37 C -0.61129 1.45860 -0.00120
 N38 N -0.58071 1.50002 0.00031
 C39 C -0.61146 1.54131 0.00160
 C40 C -0.59461 1.40725 -0.00128
 C41 C -0.54290 1.39154 -0.00024
 C42 C -0.52710 1.34148 0.00673
 C43 C -0.47488 1.34168 0.00608
 C44 C -0.45976 1.39182 -0.00119
 N45 N -0.50149 1.42183 -0.00586
 C46 C -0.40830 1.40784 -0.00311
 C47 C -0.39188 1.45915 -0.00216
 C48 C -0.34133 1.47442 -0.00156
 C49 C -0.34143 1.52659 0.00150
 C50 C -0.39204 1.54165 0.00246
 N51 N -0.42267 1.50033 0.00027
 C52 C -0.40866 1.59289 0.00363
 C53 C -0.46020 1.60874 0.00196
 C54 C -0.47552 1.65887 -0.00493
 C55 C -0.52774 1.65886 -0.00555
 C56 C -0.54334 1.60868 0.00105
 N57 N -0.50180 1.57853 0.00644
 C58 C -0.59498 1.59274 0.00188
 H59 H -0.69561 1.54989 0.00144
 H60 H -0.69541 1.44969 -0.00162
 H61 H -0.50184 1.54036 0.01633
 H62 H -0.55077 1.30816 0.01231
 H63 H -0.45080 1.30858 0.01113
 H64 H -0.30778 1.45049 -0.00279
 H65 H -0.30798 1.55066 0.00250
 H66 H -0.55154 1.69212 -0.01090
 H67 H -0.50169 1.45991 -0.01613
 H68 H -0.45158 1.69210 -0.00977
 C69 C 0.00029 0.52578 0.34072
 C70 C 0.00323 0.47362 0.34043
 C71 C 0.00275 0.45813 0.39103
 N72 N -0.00022 0.49927 0.42198
 C73 C -0.00167 0.54069 0.39146
 C74 C 0.00304 0.40670 0.40735
 C75 C 0.00037 0.39080 0.45898
 C76 C -0.00807 0.34082 0.47421
 C77 C -0.00864 0.34073 0.52651
 C78 C -0.00046 0.39065 0.54230
 N79 N 0.00574 0.42078 0.50081
 C80 C 0.00141 0.40631 0.59412
 C81 C 0.00211 0.45765 0.61092
 C82 C 0.00298 0.47281 0.66167
 C83 C 0.00126 0.52500 0.66190
 C84 C -0.00050 0.54035 0.61128
 N85 N 0.00000 0.49904 0.58038
 C86 C -0.00134 0.59179 0.59490
 C87 C -0.00126 0.60778 0.54319
 C88 C 0.00418 0.65812 0.52767
 C89 C 0.00350 0.65812 0.47536
 C90 C -0.00227 0.60783 0.45990
 N91 N -0.00602 0.57753 0.50152
 C92 C -0.00332 0.59193 0.40823
 H93 H -0.00002 0.54993 0.30730
 H94 H 0.00504 0.44980 0.30672
 H95 H -0.01467 0.53908 0.50146
 H96 H -0.01382 0.30777 0.45011
 H97 H -0.01484 0.30758 0.55023
 H98 H 0.00435 0.44875 0.69513
 H99 H 0.00151 0.54894 0.69557
 H100 H 0.00763 0.69146 0.45146
 H101 H 0.01714 0.45857 0.50105
 H102 H 0.00886 0.69149 0.55157
 O103 O -0.13069 1.00184 -0.06887
 O104 O 0.13137 0.99786 -0.06880
 O105 O -0.00120 1.06859 -0.13130
 O106 O 0.00190 0.93060 -0.13094
 O107 O 0.00176 0.86861 -0.06850
 O108 O -0.00110 1.13114 -0.06918
 O109 O 0.06922 0.99771 -0.13109
 O110 O -0.06851 1.00145 -0.13113
 Zr111 Zr 0.00034 0.99978 -0.08961
 O112 O 0.04642 0.95362 -0.04598
 O113 O -0.04575 1.04634 -0.04624
 C114 C -0.11544 1.00240 -0.11587
 C115 C 0.11613 0.99685 -0.11580
 C116 C -0.00191 1.11567 -0.11615
 C117 C 0.00259 0.88366 -0.11555
 H118 H 0.06816 1.06753 -0.06781
 O119 O 0.04638 1.04593 -0.04599
 H120 H -0.06749 0.93222 -0.06747
 O121 O -0.04572 0.95403 -0.04578
 O122 O 0.13135 1.00198 0.06915
 O123 O -0.13074 0.99906 0.06909
 O124 O 0.06946 1.13132 0.00155
 O125 O 0.06894 0.86878 -0.00117
 O126 O -0.06885 0.86908 0.00224
 O127 O -0.06831 1.13158 -0.00192
 O128 O 0.00217 1.06973 0.13128
 O129 O -0.00160 0.93177 0.13163
 O130 O 0.00231 1.13175 0.06887
 O131 O -0.00172 0.86923 0.06950
 O132 O 0.13150 1.06892 0.00170
 O133 O -0.13057 1.06941 -0.00180
 O134 O -0.13086 0.93151 0.00206
 O135 O 0.13123 0.93093 -0.00131
 O136 O 0.06920 1.00236 0.13145
 O137 O -0.06862 0.99919 0.13142
 Zr138 Zr 0.08993 1.00000 0.00018
 Zr139 Zr -0.08927 1.00037 0.00013
 Zr140 Zr 0.00050 1.08996 -0.00006
 Zr141 Zr 0.00014 0.91042 0.00039
 Zr142 Zr 0.00030 1.00058 0.08995
 O143 O -0.04596 0.95423 0.04653
 O144 O 0.04658 1.04655 0.04632
 C145 C 0.11612 1.00304 0.11616
 C146 C -0.11554 0.99842 0.11611
 C147 C 0.11635 1.11595 0.00237
 C148 C 0.11589 0.88395 -0.00198
 C149 C -0.11573 0.88448 0.00303
 C150 C -0.11526 1.11637 -0.00273
 C151 C 0.00310 1.11666 0.11592
 C152 C -0.00253 0.88471 0.11647
 H153 H -0.06724 1.06843 0.06779
 O154 O -0.04556 1.04653 0.04609
 H155 H 0.06785 0.93255 0.06818
 O156 O 0.04618 0.95425 0.04634
 C157 C 0.28359 1.01536 0.21603
 C158 C 0.28482 1.05065 0.26346
 C159 C 0.29829 1.00437 0.29664
 C160 C 0.29769 0.96909 0.24983
 C161 C 0.22700 1.00471 0.22627
 C162 C 0.24050 0.95844 0.25946
 C163 C 0.22760 1.04000 0.27308
 C164 C 0.24171 0.99372 0.30688
 C165 C 0.33787 1.00397 0.33592
 C166 C 0.37029 1.00351 0.36842
 C167 C 0.18732 1.00458 0.18706
 C168 C 0.15475 1.00410 0.15473
 H169 H 0.30035 1.02427 0.17822
 H170 H 0.30351 1.08855 0.26556
 H171 H 0.32697 0.93994 0.24073
 H172 H 0.22182 0.92053 0.25738
 H173 H 0.19833 1.06915 0.28219
 H174 H 0.22498 0.98482 0.34470
 C175 C -0.28389 0.99920 0.21495
 C176 C -0.29199 0.95740 0.25582
 C177 C -0.29784 0.99926 0.29645
 C178 C -0.29036 1.04105 0.25620
 C179 C -0.22650 0.99804 0.22615
 C180 C -0.23236 1.03989 0.26679
 C181 C -0.23397 0.95624 0.26640
 C182 C -0.24046 0.99810 0.30766
 C183 C -0.33743 1.00006 0.33572
 C184 C -0.36985 1.00078 0.36823
 C185 C -0.18678 0.99769 0.18697
 C186 C -0.15419 0.99778 0.15467
 H187 H -0.30129 0.99964 0.17638
 H188 H -0.31699 0.92352 0.25176
 H189 H -0.31400 1.07592 0.25245
 H190 H -0.20739 1.07379 0.27087
 H191 H -0.21034 0.92136 0.27015
 H192 H -0.22309 0.99766 0.34624
 C193 C -0.26719 1.04358 -0.23272
 C194 C -0.25693 1.04418 -0.29091
 C195 C -0.29623 1.00133 -0.29770
 C196 C -0.30711 1.00071 -0.24015
 C197 C -0.22569 1.00278 -0.22659
 C198 C -0.26500 0.95994 -0.23340
 C199 C -0.21482 1.00340 -0.28414
 C200 C -0.25473 0.96055 -0.29155
 C201 C -0.33547 1.00032 -0.33730
 C202 C -0.36774 0.99938 -0.36993
 C203 C -0.18637 1.00321 -0.18703
 C204 C -0.15399 1.00311 -0.15451
 H205 H -0.27185 1.07772 -0.20808
 H206 H -0.25407 1.07879 -0.31503
 H207 H -0.34553 0.99959 -0.22255
 H208 H -0.26787 0.92532 -0.20930
 H209 H -0.17642 1.00452 -0.30178
 H210 H -0.25006 0.92641 -0.31619
 C211 C 0.28043 0.97349 -0.21947
 C212 C 0.27596 0.94668 -0.27198
 C213 C 0.29699 0.99492 -0.29757
 C214 C 0.30207 1.02172 -0.24569
 C215 C 0.22641 0.99479 -0.22649
 C216 C 0.24746 1.04303 -0.25209
 C217 C 0.22133 0.96799 -0.27837
 C218 C 0.24298 1.01622 -0.30458
 C219 C 0.33624 0.99520 -0.33718
 C220 C 0.36850 0.99556 -0.36983
 C221 C 0.18708 0.99505 -0.18693
 C222 C 0.15469 0.99564 -0.15443
 H223 H 0.29536 0.95591 -0.18402
 H224 H 0.28814 0.90707 -0.28062
 H225 H 0.33573 1.04381 -0.23273
 H226 H 0.23529 1.08264 -0.24347
 H227 H 0.18768 0.94589 -0.29135
 H228 H 0.22806 1.03379 -0.34004
 C229 C 0.23185 1.26737 -0.03882
 C230 C 0.23990 1.30817 0.00320
 C231 C 0.29738 1.29757 0.00143
 C232 C 0.28993 1.25739 -0.04059
 C233 C 0.22678 1.22652 0.00279
 C234 C 0.28427 1.21593 0.00102
 C235 C 0.23423 1.26671 0.04482
 C236 C 0.29234 1.25674 0.04304
 C237 C 0.33659 1.33721 0.00051
 C238 C 0.36880 1.36992 -0.00032
 C239 C 0.18742 1.18699 0.00318
 C240 C 0.15499 1.15452 0.00308
 H241 H 0.20652 1.27130 -0.07247
 H242 H 0.22214 1.34656 0.00407
 H243 H 0.31328 1.25401 -0.07572
 H244 H 0.30207 1.17755 0.00014
 H245 H 0.21088 1.27009 0.07994
 H246 H 0.31769 1.25283 0.07667
 C247 C 0.25540 0.75460 -0.04948
 C248 C 0.30551 0.75724 -0.01842
 C249 C 0.29669 0.70211 -0.00083
 C250 C 0.24721 0.69883 -0.03188
 C251 C 0.22610 0.77316 -0.00227
 C252 C 0.21730 0.71802 0.01532
 C253 C 0.27559 0.77642 0.02877
 C254 C 0.26739 0.72067 0.04636
 C255 C 0.33597 0.66254 0.00010
 C256 C 0.36827 0.62992 0.00093
 C257 C 0.18676 0.81271 -0.00271
 C258 C 0.15440 0.84525 -0.00264
 H259 H 0.25001 0.76900 -0.08889
 H260 H 0.34225 0.77288 -0.03226
 H261 H 0.23600 0.66646 -0.05678
 H262 H 0.18058 0.70233 0.02917
 H263 H 0.28682 0.80877 0.05370
 H264 H 0.27277 0.70628 0.08577
 C265 C -0.22512 0.72572 0.03717
 C266 C -0.28153 0.73455 0.05199
 C267 C -0.29793 0.70406 0.00469
 C268 C -0.24215 0.69462 -0.01012
 C269 C -0.22670 0.77448 0.00486
 C270 C -0.24311 0.74398 -0.04244
 C271 C -0.28249 0.78393 0.01967
 C272 C -0.29951 0.75282 -0.02762
 C273 C -0.33748 0.66475 0.00441
 C274 C -0.36987 0.63224 0.00407
 C275 C -0.18702 0.81369 0.00465
 C276 C -0.15443 0.84598 0.00412
 H277 H -0.19408 0.71503 0.06381
 H278 H -0.29780 0.73022 0.09081
 H279 H -0.22604 0.65743 -0.02238
 H280 H -0.22686 0.74830 -0.08126
 H281 H -0.29861 0.82110 0.03194
 H282 H -0.33056 0.76351 -0.05425
 C283 C -0.22839 1.27139 -0.04207
 C284 C -0.28605 1.26127 -0.04938
 C285 C -0.29728 1.29696 -0.00426
 C286 C -0.24026 1.30771 0.00305
 C287 C -0.22600 1.22660 -0.00449
 C288 C -0.23725 1.26231 0.04062
 C289 C -0.28302 1.21585 -0.01180
 C290 C -0.29488 1.25217 0.03332
 C291 C -0.33689 1.33621 -0.00395
 C292 C -0.36937 1.36864 -0.00358
 C293 C -0.18634 1.18737 -0.00432
 C294 C -0.15381 1.15501 -0.00381
 H295 H -0.20060 1.27884 -0.07306
 H296 H -0.30658 1.26129 -0.08637
 H297 H -0.22317 1.34594 0.00916
 H298 H -0.21673 1.26230 0.07762
 H299 H -0.30015 1.17764 -0.01791
 H300 H -0.32267 1.24472 0.06430
 C301 C 0.01588 1.21715 0.28341
 C302 C 0.05077 1.26478 0.28435
 C303 C 0.00442 1.29773 0.29819
 C304 C -0.03046 1.25073 0.29787
 C305 C 0.00475 1.22719 0.22680
 C306 C -0.04159 1.26015 0.24065
 C307 C 0.03964 1.27419 0.22712
 C308 C -0.00671 1.30777 0.24158
 C309 C 0.00403 1.33707 0.33786
 C310 C 0.00358 1.36957 0.37041
 C311 C 0.00462 1.18785 0.18709
 C312 C 0.00415 1.15540 0.15452
 H313 H 0.02518 1.17945 0.30016
 H314 H 0.08873 1.26713 0.30280
 H315 H -0.05927 1.24153 0.32742
 H316 H -0.07956 1.25782 0.22223
 H317 H 0.06846 1.28340 0.19758
 H318 H -0.01600 1.34549 0.22487
 C319 C 0.04207 1.23515 -0.26376
 C320 C 0.00356 1.23936 -0.30829
 C321 C -0.00120 1.29678 -0.29770
 C322 C 0.03731 1.29318 -0.25378
 C323 C -0.00245 1.22591 -0.22692
 C324 C -0.00721 1.28334 -0.21634
 C325 C -0.04097 1.22950 -0.27084
 C326 C -0.04572 1.28756 -0.26087
 C327 C -0.00032 1.33633 -0.33701
 C328 C 0.00048 1.36899 -0.36927
 C329 C -0.00279 1.18650 -0.18743
 C330 C -0.00264 1.15414 -0.15489
 H331 H 0.07816 1.21316 -0.26450
 H332 H 0.00800 1.22176 -0.34656
 H333 H 0.06950 1.31981 -0.24721
 H334 H -0.01166 1.30098 -0.17809
 H335 H -0.07316 1.20287 -0.27740
 H336 H -0.08180 1.30957 -0.26014
 C337 C -0.02721 0.77604 -0.27589
 C338 C 0.02006 0.75614 -0.30511
 C339 C 0.00153 0.70128 -0.29649
 C340 C -0.04574 0.72057 -0.26788
 C341 C 0.00297 0.77254 -0.22583
 C342 C -0.01556 0.71767 -0.21723
 C343 C 0.05025 0.75325 -0.25444
 C344 C 0.03171 0.69775 -0.24644
 C345 C 0.00056 0.66161 -0.33582
 C346 C -0.00031 0.62896 -0.36821
 C347 C 0.00339 0.81222 -0.18647
 C348 C 0.00329 0.84485 -0.15409
 H349 H -0.05142 0.80868 -0.28756
 H350 H 0.03467 0.77148 -0.34172
 H351 H -0.08521 0.70668 -0.27385
 H352 H -0.03019 0.70229 -0.18064
 H353 H 0.08972 0.76714 -0.24846
 H354 H 0.05590 0.66509 -0.23480
 C355 C -0.01564 0.78417 0.28381
 C356 C -0.05058 0.73658 0.28427
 C357 C -0.00430 0.70350 0.29789
 C358 C 0.03063 0.75046 0.29806
 C359 C -0.00441 0.77440 0.22714
 C360 C 0.04186 0.74131 0.24078
 C361 C -0.03935 0.72744 0.22697
 C362 C 0.00693 0.69374 0.24122
 C363 C -0.00405 0.66395 0.33720
 C364 C -0.00373 0.63131 0.36948
 C365 C -0.00418 0.81384 0.18769
 C366 C -0.00363 0.84623 0.15519
 H367 H -0.02493 0.82180 0.30087
 H368 H -0.08859 0.73418 0.30261
 H369 H 0.05940 0.75947 0.32774
 H370 H 0.07987 0.74370 0.22246
 H371 H -0.06813 0.71842 0.19730
 H372 H 0.01621 0.65609 0.22419
   
