data_POSCAR
  _audit_creation_date              2014-09-24
  _audit_creation_method            'ToBaCCo'
  _symmetry_space_group_name_H-M    'P1'
  _symmetry_Int_Tables_number       1
  _symmetry_cell_setting            triclinic
  loop_
  _symmetry_equiv_pos_as_xyz
 x,y,z
_cell_length_a 22.5442
_cell_length_b 23.3693
_cell_length_c 23.5224
_cell_angle_alpha 87.503500
_cell_angle_beta 88.887300
_cell_angle_gamma 91.747900
loop_
  _atom_site_label
  _atom_site_type_symbol
  _atom_site_fract_x
  _atom_site_fract_y
  _atom_site_fract_z
N1 N 0.25454 0.28457 0.24383
 N2 N 0.71967 -0.25819 0.27027
 N3 N 0.77248 0.22326 0.75678
 N4 N 0.25179 -0.23326 0.74272
 N5 N 0.75278 -0.26980 0.76960
 N6 N 0.28453 0.26972 0.73312
 N7 N 0.21792 -0.21407 0.24720
 N8 N 0.75337 0.23257 0.25774
 O9 O 0.30618 0.08232 0.43348
 O10 O 0.30614 -0.03363 0.54496
 O11 O 0.29837 -0.02959 0.43450
 O12 O 0.31272 0.07802 0.54346
 O13 O 0.21512 0.08007 0.55165
 O14 O 0.20080 -0.02565 0.44113
 O15 O 0.20846 -0.03182 0.55156
 O16 O 0.20872 0.08589 0.44183
 Cu17 Cu 0.31562 0.02386 0.48832
 Cu18 Cu 0.19849 0.02722 0.49737
 C19 C 0.25761 0.10458 0.41924
 C20 C 0.25724 -0.05287 0.56701
 C21 C 0.24710 -0.04594 0.41915
 C22 C 0.26632 0.09789 0.56572
 O23 O 0.71248 0.03801 0.56987
 O24 O 0.70211 -0.07137 0.46323
 O25 O 0.70858 -0.07318 0.57369
 O26 O 0.70844 0.03906 0.45954
 O27 O 0.80622 0.03767 0.45309
 O28 O 0.80636 -0.07426 0.56749
 O29 O 0.79983 -0.07328 0.45663
 O30 O 0.81049 0.03730 0.56402
 Cu31 Cu 0.69809 -0.01679 0.51738
 Cu32 Cu 0.81565 -0.01830 0.50986
 C33 C 0.76302 0.05620 0.58508
 C34 C 0.74887 -0.09048 0.44101
 C35 C 0.75757 -0.09274 0.59021
 C36 C 0.75724 0.05696 0.43627
 O37 O 0.45647 0.30100 0.04442
 O38 O 0.58649 0.28070 -0.04987
 O39 O 0.47387 0.29864 -0.06576
 O40 O 0.56953 0.29146 0.05841
 O41 O 0.55562 0.19747 0.06485
 O42 O 0.45571 0.20531 -0.05759
 O43 O 0.56713 0.18730 -0.04488
 O44 O 0.44165 0.20723 0.05291
 Cu45 Cu 0.52301 0.30234 -0.00413
 Cu46 Cu 0.50335 0.18996 0.00477
 C47 C 0.42741 0.25730 0.06544
 C48 C 0.59825 0.23026 -0.06386
 C49 C 0.44852 0.25362 -0.08311
 C50 C 0.57929 0.24330 0.08270
 O51 O 0.53028 0.70986 0.07042
 O52 O 0.43017 0.71820 -0.05065
 O53 O 0.54383 0.70667 -0.03938
 O54 O 0.41743 0.71845 0.05935
 O55 O 0.42875 0.81272 0.05450
 O56 O 0.55590 0.80083 -0.04487
 O57 O 0.44117 0.81245 -0.05603
 O58 O 0.54226 0.80406 0.06527
 Cu59 Cu 0.47929 0.70387 0.01008
 Cu60 Cu 0.49329 0.81705 0.00388
 C61 C 0.55281 0.75567 0.08906
 C62 C 0.41795 0.76649 -0.07366
 C63 C 0.57178 0.75151 -0.05871
 C64 C 0.40194 0.76737 0.07449
 O65 O 0.05200 0.46404 0.30063
 O66 O -0.08022 0.55206 0.30819
 O67 O -0.06222 0.44253 0.30241
 O68 O 0.03314 0.57369 0.30168
 O69 O 0.03075 0.57946 0.20786
 O70 O -0.06439 0.44909 0.20861
 O71 O -0.08256 0.55816 0.21438
 O72 O 0.04950 0.46971 0.20681
 Cu73 Cu -0.01408 0.50730 0.31265
 Cu74 Cu -0.01681 0.51466 0.20003
 C75 C 0.07320 0.45158 0.25249
 C76 C -0.10359 0.57072 0.26263
 C77 C -0.07953 0.42339 0.25552
 C78 C 0.04766 0.59931 0.25444
 O79 O 0.06318 0.55974 0.69402
 O80 O -0.04061 0.43571 0.69374
 O81 O -0.05209 0.54578 0.70174
 O82 O 0.07459 0.44970 0.69425
 O83 O 0.07404 0.44144 0.78808
 O84 O -0.04920 0.53950 0.79555
 O85 O -0.04242 0.43042 0.78785
 O86 O 0.06511 0.55240 0.78786
 Cu87 Cu 0.01106 0.49835 0.68651
 Cu88 Cu 0.01226 0.48995 0.79923
 C89 C 0.08238 0.57695 0.74084
 C90 C -0.06005 0.41280 0.74052
 C91 C -0.07213 0.55906 0.75022
 C92 C 0.09616 0.42949 0.74019
 C93 C 0.31978 0.32523 0.16548
 C94 C 0.29150 0.27781 0.19391
 C95 C 0.30054 0.22350 0.17200
 C96 C 0.34272 0.21693 0.12791
 C97 C 0.37672 0.26458 0.10497
 C98 C 0.36141 0.31884 0.12226
 C99 C 0.39952 0.36734 0.14165
 C100 C 0.35364 0.37433 0.18891
 H101 H 0.27722 0.18593 0.19083
 H102 H 0.35095 0.17421 0.11420
 H103 H 0.40190 0.40410 0.10998
 H104 H 0.44310 0.35318 0.15751
 H105 H 0.32945 0.41495 0.18431
 H106 H 0.37051 0.36422 0.23220
 C107 C 0.65861 0.79847 0.20353
 C108 C 0.67208 0.74593 0.23023
 C109 C 0.63809 0.69719 0.21587
 C110 C 0.59774 0.70048 0.17096
 C111 C 0.59047 0.75264 0.13964
 C112 C 0.61883 0.80180 0.15942
 C113 C 0.65542 0.84770 0.12800
 C114 C 0.69888 0.84406 0.17659
 H115 H 0.64483 0.65613 0.23749
 H116 H 0.57438 0.66171 0.15925
 H117 H 0.63238 0.88907 0.12509
 H118 H 0.67409 0.83340 0.08705
 H119 H 0.70064 0.88320 0.20180
 H120 H 0.74278 0.82773 0.16390
 C121 C 0.67968 0.18579 -0.19433
 C122 C 0.73389 0.21677 -0.19310
 C123 C 0.74772 0.24285 -0.14157
 C124 C 0.70415 0.24627 -0.09800
 C125 C 0.64723 0.22106 -0.10403
 C126 C 0.63783 0.18714 -0.15058
 C127 C 0.58737 0.18626 -0.19075
 C128 C 0.63333 0.18492 -0.23879
 H129 H 0.79055 0.26397 -0.13647
 H130 H 0.71412 0.27039 -0.06089
 H131 H 0.56209 0.22641 -0.19116
 H132 H 0.55977 0.14608 -0.18542
 H133 H 0.63498 0.22439 -0.26704
 H134 H 0.63204 0.14400 -0.26119
 C135 C 0.31307 0.71760 -0.18564
 C136 C 0.29292 0.76849 -0.21095
 C137 C 0.31063 0.82028 -0.18659
 C138 C 0.35140 0.82031 -0.14164
 C139 C 0.37491 0.76850 -0.12015
 C140 C 0.35257 0.71751 -0.14149
 C141 C 0.38463 0.66790 -0.16384
 C142 C 0.34093 0.66804 -0.21228
 H143 H 0.29379 0.86055 -0.20282
 H144 H 0.36518 0.86076 -0.12452
 H145 H 0.37970 0.62914 -0.13483
 H146 H 0.43098 0.67954 -0.17795
 H147 H 0.31070 0.62951 -0.21102
 H148 H 0.36179 0.67980 -0.25458
 C149 C 0.18758 0.35265 0.19607
 C150 C 0.21524 0.33226 0.24537
 C151 C 0.20294 0.35993 0.29625
 C152 C 0.15844 0.40096 0.29834
 C153 C 0.12569 0.41545 0.24949
 C154 C 0.14406 0.39318 0.19800
 C155 C 0.10865 0.36467 0.15360
 C156 C 0.15657 0.32035 0.15152
 H157 H 0.22557 0.34785 0.33491
 H158 H 0.14775 0.41904 0.33875
 H159 H 0.10652 0.39180 0.11373
 H160 H 0.06515 0.34680 0.17035
 H161 H 0.18214 0.32210 0.11057
 H162 H 0.14099 0.27675 0.16713
 C163 C 0.18206 0.69615 0.79144
 C164 C 0.20971 0.71892 0.74131
 C165 C 0.19918 0.69028 0.69077
 C166 C 0.15786 0.64382 0.69036
 C167 C 0.12665 0.62472 0.74062
 C168 C 0.14188 0.65013 0.79124
 C169 C 0.10301 0.67512 0.83530
 C170 C 0.14732 0.72549 0.83547
 H171 H 0.22213 0.70437 0.65155
 H172 H 0.14973 0.62355 0.65061
 H173 H 0.10156 0.64885 0.87587
 H174 H 0.05892 0.68682 0.81870
 H175 H 0.17155 0.72810 0.87603
 H176 H 0.12908 0.76650 0.81892
 C177 C -0.22392 0.67114 0.21810
 C178 C -0.24209 0.69348 0.26958
 C179 C -0.22203 0.66678 0.32025
 C180 C -0.17906 0.62426 0.31833
 C181 C -0.15532 0.60781 0.26566
 C182 C -0.18154 0.62958 0.21611
 C183 C -0.15400 0.65597 0.16252
 C184 C -0.20072 0.70145 0.16482
 H185 H -0.23738 0.68073 0.36113
 H186 H -0.16205 0.60688 0.35798
 H187 H -0.15924 0.62778 0.12597
 H188 H -0.10811 0.67316 0.16858
 H189 H -0.23299 0.69936 0.12978
 H190 H -0.18196 0.74498 0.17232
 C191 C -0.13334 0.26891 0.71927
 C192 C -0.18860 0.27315 0.74685
 C193 C -0.20488 0.32807 0.76320
 C194 C -0.16296 0.37409 0.76063
 C195 C -0.10502 0.36646 0.73960
 C196 C -0.09268 0.31471 0.71508
 C197 C -0.04144 0.27652 0.72392
 C198 C -0.08618 0.22635 0.72853
 H199 H -0.24878 0.33470 0.78065
 H200 H -0.17519 0.41499 0.77660
 H201 H -0.01819 0.28409 0.76432
 H202 H -0.01204 0.27604 0.68547
 H203 H -0.08906 0.20492 0.77168
 H204 H -0.08260 0.19703 0.69275
 C205 C 0.20499 0.22482 0.32134
 C206 C 0.25676 0.24391 0.29173
 C207 C 0.31094 0.22166 0.31021
 C208 C 0.31163 0.17716 0.35268
 C209 C 0.25812 0.15378 0.37738
 C210 C 0.20559 0.18092 0.36295
 C211 C 0.14748 0.15626 0.34460
 C212 C 0.14694 0.20458 0.29913
 H213 H 0.35240 0.23711 0.29026
 H214 H 0.35382 0.15964 0.36438
 H215 H 0.11203 0.15933 0.37773
 H216 H 0.15159 0.11317 0.32688
 H217 H 0.11141 0.23559 0.30622
 H218 H 0.15077 0.18963 0.25501
 C219 C 0.76593 0.12284 0.72745
 C220 C 0.76840 0.18166 0.71328
 C221 C 0.76299 0.19887 0.65537
 C222 C 0.76145 0.15791 0.61315
 C223 C 0.76576 0.09929 0.62820
 C224 C 0.76428 0.08256 0.68591
 C225 C 0.80387 0.04366 0.71855
 C226 C 0.80549 0.08789 0.76415
 H227 H 0.76121 0.24389 0.64283
 H228 H 0.75843 0.17202 0.56885
 H229 H 0.84749 0.03877 0.69669
 H230 H 0.78056 0.00281 0.73291
 H231 H 0.85005 0.10866 0.76882
 H232 H 0.78295 0.07258 0.80468
 C233 C 0.20238 -0.17169 0.67125
 C234 C 0.25435 -0.19040 0.69661
 C235 C 0.30888 -0.16810 0.67344
 C236 C 0.31016 -0.12410 0.63033
 C237 C 0.25693 -0.10123 0.60980
 C238 C 0.20356 -0.12814 0.62925
 C239 C 0.14824 -0.10332 0.65230
 C240 C 0.14699 -0.15129 0.69819
 H241 H 0.35031 -0.18361 0.68965
 H242 H 0.35275 -0.10666 0.61471
 H243 H 0.11087 -0.10668 0.62236
 H244 H 0.15616 -0.06007 0.66916
 H245 H 0.10910 -0.18240 0.69453
 H246 H 0.15416 -0.13598 0.74171
 C247 C 0.68021 -0.18608 0.33332
 C248 C 0.72864 -0.21349 0.31001
 C249 C 0.78592 -0.19438 0.32537
 C250 C 0.79316 -0.15361 0.36750
 C251 C 0.74323 -0.13136 0.39511
 C252 C 0.68723 -0.14628 0.37468
 C253 C 0.63196 -0.16741 0.40592
 C254 C 0.62431 -0.21099 0.36025
 H255 H 0.82486 -0.21216 0.30609
 H256 H 0.83761 -0.14109 0.37968
 H257 H 0.59707 -0.13480 0.40530
 H258 H 0.64099 -0.18716 0.44863
 H259 H 0.58521 -0.20333 0.33319
 H260 H 0.62892 -0.25606 0.37635
 C261 C 0.68194 0.68696 -0.15826
 C262 C 0.71399 0.73481 -0.18144
 C263 C 0.70559 0.78780 -0.15630
 C264 C 0.66065 0.79326 -0.11458
 C265 C 0.62353 0.74577 -0.09713
 C266 C 0.63783 0.69226 -0.11719
 C267 C 0.59910 0.64745 -0.14254
 C268 C 0.64770 0.64169 -0.18747
 H269 H 0.73148 0.82548 -0.17114
 H270 H 0.65318 0.83509 -0.09821
 H271 H 0.55755 0.66498 -0.16000
 H272 H 0.59280 0.60865 -0.11376
 H273 H 0.63447 0.65591 -0.23102
 H274 H 0.66954 0.59970 -0.18443
 C275 C 0.34694 0.21251 -0.20201
 C276 C 0.33080 0.26562 -0.22556
 C277 C 0.36135 0.31488 -0.20744
 C278 C 0.40137 0.31088 -0.16233
 C279 C 0.41135 0.25756 -0.13410
 C280 C 0.38602 0.20854 -0.15727
 C281 C 0.35143 0.15921 -0.12924
 C282 C 0.30878 0.16358 -0.17847
 H283 H 0.35239 0.35663 -0.22655
 H284 H 0.42213 0.34988 -0.14788
 H285 H 0.33107 0.16994 -0.08774
 H286 H 0.37680 0.11915 -0.12838
 H287 H 0.26369 0.17680 -0.16557
 H288 H 0.30976 0.12621 -0.20609
 C289 C 0.29048 0.82785 0.17527
 C290 C 0.26245 0.78038 0.20318
 C291 C 0.28062 0.72609 0.18615
 C292 C 0.32539 0.72153 0.14349
 C293 C 0.35320 0.77115 0.11667
 C294 C 0.33323 0.82344 0.13430
 C295 C 0.34203 0.88664 0.12565
 C296 C 0.29332 0.89165 0.17190
 H297 H 0.26102 0.68732 0.20638
 H298 H 0.33862 0.67926 0.13226
 H299 H 0.32860 0.90228 0.08264
 H300 H 0.38668 0.90178 0.13889
 H301 H 0.25171 0.90996 0.15556
 H302 H 0.31003 0.91013 0.21149
 C303 C 0.67874 0.18610 0.19770
 C304 C 0.70495 0.23586 0.21855
 C305 C 0.68131 0.28872 0.20082
 C306 C 0.63847 0.29121 0.15800
 C307 C 0.61817 0.24083 0.13240
 C308 C 0.63641 0.18843 0.15585
 C309 C 0.66062 0.13784 0.12758
 C310 C 0.70694 0.13531 0.17371
 H311 H 0.69776 0.32815 0.21820
 H312 H 0.62339 0.33272 0.14326
 H313 H 0.67971 0.14903 0.08442
 H314 H 0.62881 0.10049 0.13001
 H315 H 0.75295 0.14504 0.15742
 H316 H 0.70166 0.09663 0.20280
 C317 C -0.18569 0.65488 0.81270
 C318 C -0.21083 0.68086 0.76467
 C319 C -0.19735 0.65835 0.71132
 C320 C -0.15371 0.61680 0.70633
 C321 C -0.12300 0.59694 0.75463
 C322 C -0.14290 0.61406 0.80784
 C323 C -0.10882 0.63668 0.85635
 C324 C -0.15600 0.68137 0.86161
 H325 H -0.21807 0.67515 0.67323
 H326 H -0.14197 0.60263 0.66448
 H327 H -0.06447 0.65524 0.84288
 H328 H -0.10868 0.60546 0.89337
 H329 H -0.13915 0.72588 0.85115
 H330 H -0.18315 0.67576 0.90153
 C331 C -0.17540 0.29510 0.30655
 C332 C -0.19953 0.27583 0.25622
 C333 C -0.17578 0.29987 0.20436
 C334 C -0.13482 0.34668 0.20390
 C335 C -0.11687 0.37036 0.25534
 C336 C -0.13521 0.34119 0.30619
 C337 C -0.16193 0.36316 0.35929
 C338 C -0.20589 0.31245 0.35959
 H339 H -0.19087 0.28415 0.16433
 H340 H -0.11959 0.36593 0.16331
 H341 H -0.18296 0.40521 0.35196
 H342 H -0.13086 0.36097 0.39539
 H343 H -0.25241 0.32503 0.35235
 H344 H -0.20004 0.28097 0.39570
 C345 C 0.21820 0.33133 0.78657
 C346 C 0.24314 0.31549 0.73496
 C347 C 0.22511 0.34474 0.68478
 C348 C 0.17824 0.38317 0.68635
 C349 C 0.14850 0.39310 0.73816
 C350 C 0.17200 0.36911 0.78816
 C351 C 0.14170 0.33589 0.83668
 C352 C 0.19251 0.29463 0.83486
 H353 H 0.24531 0.33578 0.64413
 H354 H 0.16373 0.40302 0.64677
 H355 H 0.09836 0.31628 0.82477
 H356 H 0.14055 0.36050 0.87605
 H357 H 0.17868 0.25111 0.82191
 H358 H 0.22076 0.29559 0.87304
 C359 C 0.14772 0.72019 0.30178
 C360 C 0.16681 0.74726 0.25016
 C361 C 0.13724 0.73191 0.20055
 C362 C 0.09606 0.68530 0.20222
 C363 C 0.08380 0.65312 0.25354
 C364 C 0.10720 0.67426 0.30349
 C365 C 0.13876 0.64414 0.35078
 C366 C 0.18302 0.69468 0.34886
 H367 H 0.14893 0.75344 0.16002
 H368 H 0.07673 0.67247 0.16278
 H369 H 0.15844 0.60355 0.33771
 H370 H 0.11150 0.64050 0.39074
 H371 H 0.22839 0.68350 0.33463
 H372 H 0.18107 0.72026 0.38756
 C373 C 0.70443 -0.20018 0.70506
 C374 C 0.75546 -0.22478 0.72590
 C375 C 0.81003 -0.20341 0.70139
 C376 C 0.81123 -0.16000 0.65724
 C377 C 0.75785 -0.13706 0.63653
 C378 C 0.70555 -0.15889 0.66269
 C379 C 0.63962 -0.15696 0.66079
 C380 C 0.63845 -0.20405 0.70880
 H381 H 0.85145 -0.22026 0.71623
 H382 H 0.85373 -0.14485 0.63929
 H383 H 0.62209 -0.17194 0.61998
 H384 H 0.62284 -0.11536 0.67438
 H385 H 0.62047 -0.24612 0.69556
 H386 H 0.62077 -0.18968 0.75006
 C387 C 0.17941 -0.14363 0.31320
 C388 C 0.22649 -0.17298 0.29050
 C389 C 0.28318 -0.16023 0.31274
 C390 C 0.29044 -0.11874 0.35466
 C391 C 0.24114 -0.08927 0.37576
 C392 C 0.18636 -0.10411 0.35337
 C393 C 0.12247 -0.08975 0.35391
 C394 C 0.11462 -0.13452 0.30823
 H395 H 0.32172 -0.18212 0.29778
 H396 H 0.33445 -0.10995 0.37040
 H397 H 0.11547 -0.04510 0.33776
 H398 H 0.09988 -0.10234 0.39519
 H399 H 0.10323 -0.11562 0.26581
 H400 H 0.08728 -0.17282 0.32316
 C401 C 0.70233 0.16392 0.32638
 C402 C 0.75452 0.18511 0.29892
 C403 C 0.80776 0.15785 0.31221
 C404 C 0.80885 0.11527 0.35637
 C405 C 0.75665 0.09914 0.38794
 C406 C 0.70330 0.12198 0.36969
 C407 C 0.65543 0.14938 0.40275
 C408 C 0.65438 0.19527 0.35494
 H409 H 0.84873 0.17091 0.28988
 H410 H 0.85078 0.09654 0.36695
 H411 H 0.67126 0.16582 0.44364
 H412 H 0.61408 0.12220 0.40616
 H413 H 0.66953 0.23838 0.36803
 H414 H 0.61257 0.19434 0.33067
 C415 C 0.22573 0.20993 0.66952
 C416 C 0.28080 0.22942 0.68855
 C417 C 0.33214 0.20978 0.66137
 C418 C 0.32770 0.16738 0.62077
 C419 C 0.27182 0.14371 0.60666
 C420 C 0.22129 0.16816 0.62966
 C421 C 0.16798 0.14036 0.65928
 C422 C 0.17294 0.18638 0.70285
 H423 H 0.37563 0.22599 0.67267
 H424 H 0.36805 0.15200 0.60188
 H425 H 0.17659 0.09661 0.67713
 H426 H 0.12756 0.14366 0.63317
 H427 H 0.18448 0.16940 0.74600
 H428 H 0.13555 0.21632 0.70172
   
