data_POSCAR
  _audit_creation_date              2014-09-24
  _audit_creation_method            'ToBaCCo'
  _symmetry_space_group_name_H-M    'P1'
  _symmetry_Int_Tables_number       1
  _symmetry_cell_setting            triclinic
  loop_
  _symmetry_equiv_pos_as_xyz
 x,y,z
_cell_length_a 33.3004
_cell_length_b 37.1126
_cell_length_c 35.5967
_cell_angle_alpha 88.079800
_cell_angle_beta 91.155400
_cell_angle_gamma 91.110500
loop_
  _atom_site_label
  _atom_site_type_symbol
  _atom_site_fract_x
  _atom_site_fract_y
  _atom_site_fract_z
C1 C 1.24633 0.25676 0.25400
 C2 C 0.76316 -0.25325 0.25506
 C3 C 0.71426 0.25350 -0.25933
 C4 C 1.23786 -0.23706 -0.23653
 C5 C 0.27779 0.23367 0.74725
 C6 C 0.76712 0.74115 0.74377
 C7 C 0.75135 0.25531 0.25968
 C8 C 0.23921 0.74608 0.23027
 N9 N 1.05789 0.05413 0.03550
 N10 N 1.08880 0.07567 0.04265
 N11 N 1.02181 -0.01665 0.07115
 N12 N 1.02475 -0.03965 0.10011
 N13 N 1.05129 -0.02081 0.04784
 N14 N 1.07508 -0.04684 0.06028
 N15 N 1.02914 0.05852 0.05964
 N16 N 1.04000 0.08335 0.08386
 C17 C 1.07703 0.09418 0.07234
 C18 C 1.05797 -0.05841 0.09283
 N19 N 0.90925 -0.01341 0.03575
 N20 N 0.88093 -0.03796 0.04226
 N21 N 0.94242 0.06280 0.05266
 N22 N 0.93265 0.08790 0.07607
 N23 N 0.91639 0.06154 0.02442
 N24 N 0.88830 0.08577 0.02807
 N25 N 0.93536 -0.01256 0.06387
 N26 N 0.92544 -0.03679 0.09038
 Mn27 Mn 0.98214 0.02306 0.06223
 C28 C 0.89140 -0.05237 0.07628
 C29 C 0.89926 0.10243 0.06002
 N30 N 1.05594 -0.03054 -0.03150
 N31 N 1.08243 -0.05639 -0.03244
 N32 N 1.03602 0.04228 -0.07214
 N33 N 1.04451 0.06565 -0.09960
 N34 N 1.06252 0.04457 -0.04448
 N35 N 1.09017 0.06955 -0.05262
 N36 N 1.03013 -0.03265 -0.05973
 N37 N 1.03876 -0.05986 -0.08099
 Mn38 Mn 1.05727 0.01189 0.00185
 C39 C 1.07113 -0.07464 -0.06316
 C40 C 1.07828 0.08241 -0.08714
 N41 N 0.92150 0.05177 -0.05586
 N42 N 0.89752 0.07729 -0.06923
 N43 N 0.94372 -0.02847 -0.06669
 N44 N 0.93613 -0.05690 -0.08718
 N45 N 0.91430 -0.02341 -0.04356
 N46 N 0.88599 -0.04845 -0.04747
 N47 N 0.95056 0.04649 -0.07933
 N48 N 0.94733 0.06838 -0.10916
 Mn49 Mn 0.91500 0.01927 -0.00988
 Mn50 Mn 0.99012 0.00676 -0.06980
 Cl51 Cl 0.98612 0.01534 -0.00384
 C52 C 0.91434 0.08759 -0.10234
 C53 C 0.90013 -0.06920 -0.07460
 N54 N 1.08260 0.53930 0.55798
 N55 N 1.10664 0.56752 0.56259
 N56 N 1.05591 0.46299 0.58690
 N57 N 1.06380 0.44029 0.61525
 N58 N 1.08491 0.46345 0.56244
 N59 N 1.11329 0.44079 0.57348
 N60 N 1.05388 0.53849 0.58268
 N61 N 1.05771 0.56601 0.60508
 C62 C 1.09072 0.58384 0.59206
 C63 C 1.09931 0.42626 0.60624
 N64 N 0.94238 0.45767 0.55521
 N65 N 0.91478 0.43274 0.56365
 N66 N 0.96788 0.53504 0.57814
 N67 N 0.96294 0.56319 0.59900
 N68 N 0.94028 0.53365 0.55134
 N69 N 0.91548 0.56095 0.55349
 N70 N 0.96978 0.45932 0.58222
 N71 N 0.96190 0.43539 0.60938
 Mn72 Mn 1.01178 0.49895 0.58277
 C73 C 0.92782 0.41879 0.59732
 C74 C 0.93016 0.57900 0.58351
 N75 N 1.08814 0.46276 0.48163
 N76 N 1.11670 0.43923 0.47731
 N77 N 1.05925 0.53740 0.45015
 N78 N 1.06843 0.56139 0.42324
 N79 N 1.08614 0.53833 0.47763
 N80 N 1.11415 0.56304 0.47026
 N81 N 1.06177 0.46164 0.45375
 N82 N 1.07175 0.43720 0.42963
 Mn83 Mn 1.08580 0.50091 0.51995
 C84 C 1.10589 0.42326 0.44500
 C85 C 1.10248 0.57749 0.43652
 N86 N 0.94331 0.53243 0.47045
 N87 N 0.91496 0.55544 0.46072
 N88 N 0.97542 0.45793 0.44951
 N89 N 0.97043 0.43311 0.42420
 N90 N 0.94566 0.45676 0.47329
 N91 N 0.91916 0.43127 0.46413
 N92 N 0.97204 0.53354 0.44563
 N93 N 0.96368 0.55720 0.41811
 Mn94 Mn 0.94239 0.49501 0.51256
 Mn95 Mn 1.01709 0.49770 0.44940
 Cl96 Cl 1.01422 0.49807 0.51610
 C97 C 0.92817 0.57088 0.42826
 C98 C 0.93556 0.41650 0.43371
 N99 N 0.57470 0.01050 0.45113
 N100 N 0.60439 0.01364 0.42705
 N101 N 0.55277 0.04060 0.52780
 N102 N 0.56429 0.06365 0.55334
 N103 N 0.57474 0.01160 0.53014
 N104 N 0.60220 0.01436 0.55735
 N105 N 0.55245 0.03936 0.44909
 N106 N 0.56626 0.06276 0.42364
 C107 C 0.59830 0.04620 0.40975
 C108 C 0.59491 0.04693 0.57175
 N109 N 0.43560 0.03582 0.52706
 N110 N 0.41292 0.04541 0.55494
 N111 N 0.46797 0.05417 0.44714
 N112 N 0.46605 0.07963 0.42044
 N113 N 0.43448 0.03494 0.44805
 N114 N 0.40874 0.04693 0.42204
 N115 N 0.46887 0.05532 0.52615
 N116 N 0.46994 0.07855 0.55339
 Mn117 Mn 0.51057 0.04761 0.48744
 C118 C 0.43490 0.07209 0.57107
 C119 C 0.42913 0.07456 0.40482
 N120 N 0.55678 -0.06527 0.53334
 N121 N 0.58318 -0.07859 0.55801
 N122 N 0.52327 -0.08568 0.45476
 N123 N 0.52616 -0.11288 0.43202
 N124 N 0.55657 -0.06605 0.45469
 N125 N 0.58290 -0.07943 0.43199
 N126 N 0.52349 -0.08489 0.53363
 N127 N 0.52629 -0.11180 0.55868
 Mn128 Mn 0.56611 -0.02736 0.49238
 C129 C 0.56343 -0.10726 0.57399
 C130 C 0.56329 -0.10832 0.41767
 N131 N 0.41647 -0.04149 0.45148
 N132 N 0.38729 -0.04425 0.42599
 N133 N 0.43904 -0.06977 0.53190
 N134 N 0.42889 -0.09075 0.56095
 N135 N 0.41758 -0.04043 0.53045
 N136 N 0.39221 -0.04063 0.55848
 N137 N 0.43813 -0.07074 0.45296
 N138 N 0.42414 -0.09421 0.42864
 Mn139 Mn 0.42558 -0.00274 0.48925
 Mn140 Mn 0.48085 -0.07808 0.49325
 Cl141 Cl 0.49581 -0.01520 0.49049
 C142 C 0.39272 -0.07711 0.41175
 C143 C 0.39969 -0.07216 0.57725
 N144 N 0.57566 0.54216 0.03131
 N145 N 0.60537 0.56566 0.03614
 N146 N 0.54936 0.46576 0.06103
 N147 N 0.55925 0.44015 0.08597
 N148 N 0.57397 0.46638 0.03261
 N149 N 0.60102 0.44102 0.03729
 N150 N 0.55161 0.54143 0.06018
 N151 N 0.56465 0.56439 0.08555
 C152 C 0.59793 0.57961 0.06980
 C153 C 0.59133 0.42481 0.07055
 N154 N 0.43253 0.46630 0.04358
 N155 N 0.40663 0.43982 0.05064
 N156 N 0.46499 0.54159 0.06688
 N157 N 0.46150 0.56678 0.09188
 N158 N 0.43421 0.54192 0.04319
 N159 N 0.40880 0.56714 0.05165
 N160 N 0.46259 0.46556 0.06804
 N161 N 0.45757 0.43850 0.09284
 Mn162 Mn 0.50715 0.50356 0.06451
 C163 C 0.42250 0.42272 0.08132
 C164 C 0.42640 0.58255 0.08192
 N165 N 0.56466 0.46768 -0.04789
 N166 N 0.58896 0.44109 -0.05462
 N167 N 0.53529 0.54384 -0.07307
 N168 N 0.53867 0.57038 -0.09838
 N169 N 0.56618 0.54374 -0.04957
 N170 N 0.59164 0.57031 -0.05843
 N171 N 0.53431 0.46815 -0.07198
 N172 N 0.53733 0.44208 -0.09608
 Mn173 Mn 0.57052 0.50503 -0.00844
 C174 C 0.57155 0.42542 -0.08473
 C175 C 0.57379 0.58673 -0.08886
 N176 N 0.42515 0.54353 -0.03766
 N177 N 0.39903 0.56973 -0.04198
 N178 N 0.44837 0.46794 -0.06483
 N179 N 0.43956 0.44158 -0.08773
 N180 N 0.42336 0.46764 -0.03679
 N181 N 0.39678 0.44097 -0.03984
 N182 N 0.44972 0.54374 -0.06603
 N183 N 0.44112 0.57016 -0.09041
 Mn184 Mn 0.42841 0.50490 0.00313
 Mn185 Mn 0.49187 0.50589 -0.06935
 Cl186 Cl 0.49953 0.50488 -0.00246
 C187 C 0.40957 0.58622 -0.07489
 C188 C 0.40737 0.42495 -0.07170
 C189 C 1.22142 0.23915 0.22295
 C190 C 1.21335 0.20213 0.22110
 C191 C 1.18341 0.18698 0.19462
 C192 C 1.19002 0.15304 0.18010
 C193 C 1.16130 0.13704 0.15658
 C194 C 1.12498 0.15441 0.14780
 C195 C 1.11790 0.18801 0.16299
 C196 C 1.14711 0.20444 0.18590
 C197 C 1.09402 0.13694 0.12393
 C198 C 1.10487 0.11776 0.09295
 H199 H 1.22914 0.18319 0.23948
 H200 H 1.21746 0.13886 0.18704
 H201 H 1.16710 0.11065 0.14602
 H202 H 1.08988 0.20159 0.15696
 H203 H 1.14077 0.23019 0.19768
 H204 H 1.06263 0.13929 0.13069
 H205 H 1.20690 0.25706 0.20241
 H206 H 1.13590 0.11860 0.08431
 C207 C 1.21226 0.73390 0.74532
 C208 C 1.18666 0.74133 0.71457
 C209 C 1.16170 0.71320 0.69688
 C210 C 1.15450 0.71547 0.65797
 C211 C 1.13269 0.68825 0.64014
 C212 C 1.11722 0.65859 0.66116
 C213 C 1.12252 0.65733 0.70033
 C214 C 1.14486 0.68429 0.71810
 C215 C 1.09630 0.62837 0.64285
 C216 C 1.10815 0.61647 0.60819
 H217 H 1.18711 0.76812 0.70148
 H218 H 1.16664 0.73789 0.64124
 H219 H 1.12798 0.69042 0.60997
 H220 H 1.11029 0.63496 0.71706
 H221 H 1.14878 0.68253 0.74836
 H222 H 1.07418 0.61275 0.65869
 H223 H 1.21314 0.70658 0.75707
 H224 H 1.13282 0.62981 0.59365
 C225 C 0.68699 0.22529 0.72293
 C226 C 0.70202 0.19599 0.70420
 C227 C 0.67654 0.16952 0.68389
 C228 C 0.69368 0.13735 0.67280
 C229 C 0.67142 0.11269 0.65148
 C230 C 0.63140 0.11987 0.64077
 C231 C 0.61417 0.15176 0.65236
 C232 C 0.63638 0.17638 0.67348
 C233 C 0.60717 0.09668 0.61554
 C234 C 0.61898 0.06377 0.60176
 H235 H 0.73422 0.19256 0.70397
 H236 H 0.72466 0.13151 0.68018
 H237 H 0.68608 0.08869 0.64286
 H238 H 0.58353 0.15818 0.64422
 H239 H 0.62210 0.20114 0.68032
 H240 H 0.57847 0.10713 0.60584
 H241 H 0.65487 0.22812 0.72504
 H242 H 0.64616 0.05084 0.61168
 C243 C 0.73153 0.72690 0.23172
 C244 C 0.74068 0.69998 0.20692
 C245 C 0.70960 0.67923 0.18583
 C246 C 0.72066 0.66161 0.15347
 C247 C 0.69251 0.64108 0.13328
 C248 C 0.65245 0.63765 0.14511
 C249 C 0.64158 0.65472 0.17789
 C250 C 0.66974 0.67530 0.19805
 C251 C 0.62195 0.61517 0.12517
 C252 C 0.62569 0.60529 0.08796
 H253 H 0.77190 0.69453 0.20202
 H254 H 0.75129 0.66362 0.14382
 H255 H 0.70268 0.62734 0.10904
 H256 H 0.61120 0.65199 0.18806
 H257 H 0.66026 0.68726 0.22361
 H258 H 0.59555 0.60610 0.14037
 H259 H 0.70055 0.73480 0.23368
 H260 H 0.65056 0.61556 0.07148
 C261 C 0.79280 -0.23236 0.23023
 C262 C 0.78022 -0.20990 0.20015
 C263 C 0.80661 -0.18247 0.18131
 C264 C 0.78856 -0.15418 0.16050
 C265 C 0.81194 -0.12699 0.14324
 C266 C 0.85412 -0.12766 0.14608
 C267 C 0.87229 -0.15590 0.16687
 C268 C 0.84887 -0.18327 0.18402
 C269 C 0.87954 -0.09914 0.12796
 C270 C 0.86726 -0.08087 0.09504
 H271 H 0.74856 -0.21012 0.19246
 H272 H 0.75614 -0.15276 0.15809
 H273 H 0.79679 -0.10512 0.12834
 H274 H 0.90472 -0.15704 0.16939
 H275 H 0.86415 -0.20500 0.19894
 H276 H 0.90931 -0.09378 0.13956
 H277 H 0.82336 -0.22963 0.24074
 H278 H 0.83918 -0.08841 0.08134
 C279 C 0.73984 0.27194 0.71037
 C280 C 0.76847 0.29860 0.71901
 C281 C 0.79363 0.31833 0.69092
 C282 C 0.82715 0.33805 0.70391
 C283 C 0.85130 0.35799 0.67889
 C284 C 0.84255 0.35861 0.64002
 C285 C 0.80870 0.33929 0.62699
 C286 C 0.78448 0.31927 0.65209
 C287 C 0.86674 0.38066 0.61290
 C288 C 0.90610 0.39193 0.62079
 H289 H 0.77321 0.30474 0.74834
 H290 H 0.83455 0.33830 0.73368
 H291 H 0.87606 0.37359 0.69044
 H292 H 0.80085 0.33983 0.59730
 H293 H 0.75830 0.30539 0.64088
 H294 H 0.85293 0.38872 0.58618
 H295 H 0.73541 0.26418 0.68154
 H296 H 0.92129 0.38246 0.64626
 C297 C 0.26169 -0.21644 0.73362
 C298 C 0.28386 -0.18508 0.74098
 C299 C 0.31072 -0.16817 0.71273
 C300 C 0.31532 -0.13054 0.71042
 C301 C 0.33941 -0.11405 0.68279
 C302 C 0.35970 -0.13514 0.65735
 C303 C 0.35655 -0.17281 0.66093
 C304 C 0.33220 -0.18921 0.68823
 C305 C 0.38436 -0.11907 0.62685
 C306 C 0.37760 -0.08504 0.61049
 H307 H 0.28034 -0.17207 0.76748
 H308 H 0.29963 -0.11388 0.72955
 H309 H 0.34226 -0.08496 0.68164
 H310 H 0.37244 -0.18962 0.64210
 H311 H 0.33049 -0.21836 0.69026
 H312 H 0.40645 -0.13599 0.61458
 H313 H 0.26432 -0.22830 0.70639
 H314 H 0.35423 -0.06824 0.62062
 C315 C 0.27765 0.28294 0.23755
 C316 C 0.29837 0.27677 0.20461
 C317 C 0.32919 0.30189 0.18849
 C318 C 0.33835 0.29933 0.15040
 C319 C 0.36568 0.32345 0.13339
 C320 C 0.38458 0.35077 0.15420
 C321 C 0.37729 0.35208 0.19279
 C322 C 0.34979 0.32795 0.20984
 C323 C 0.41050 0.37888 0.13590
 C324 C 0.40239 0.39128 0.09923
 H325 H 0.29040 0.25309 0.18890
 H326 H 0.32367 0.27902 0.13348
 H327 H 0.37175 0.32076 0.10387
 H328 H 0.39201 0.37247 0.20955
 H329 H 0.34495 0.32993 0.23962
 H330 H 0.43296 0.39287 0.15269
 H331 H 0.28506 0.30683 0.25303
 H332 H 0.37720 0.37980 0.08376
 C333 C 0.73979 0.23542 -0.22837
 C334 C 0.77747 0.22081 -0.23433
 C335 C 0.79975 0.19929 -0.20528
 C336 C 0.82823 0.17486 -0.21685
 C337 C 0.84894 0.15307 -0.19054
 C338 C 0.84196 0.15565 -0.15186
 C339 C 0.81390 0.18048 -0.14024
 C340 C 0.79321 0.20232 -0.16658
 C341 C 0.86187 0.13183 -0.12320
 C342 C 0.89754 0.11413 -0.12951
 H343 H 0.78989 0.22291 -0.26221
 H344 H 0.83382 0.17199 -0.24648
 H345 H 0.86946 0.13364 -0.20084
 H346 H 0.80801 0.18304 -0.11063
 H347 H 0.77244 0.22161 -0.15639
 H348 H 0.84794 0.12817 -0.09605
 H349 H 0.72599 0.23005 -0.20150
 H350 H 0.91357 0.11909 -0.15533
 C351 C 0.78510 0.72004 0.28125
 C352 C 0.81826 0.70048 0.27033
 C353 C 0.84159 0.67645 0.29628
 C354 C 0.82466 0.65962 0.32835
 C355 C 0.84782 0.63731 0.35226
 C356 C 0.88853 0.63143 0.34472
 C357 C 0.90501 0.64759 0.31219
 C358 C 0.88179 0.66978 0.28821
 C359 C 0.91416 0.60772 0.36915
 C360 C 0.90442 0.59704 0.40583
 H361 H 0.82950 0.70491 0.24218
 H362 H 0.79336 0.66289 0.33472
 H363 H 0.83326 0.62424 0.37604
 H364 H 0.93605 0.64317 0.30536
 H365 H 0.89544 0.68210 0.26344
 H366 H 0.94193 0.59840 0.35781
 H367 H 0.77442 0.71612 0.30962
 H368 H 0.87787 0.60701 0.41864
 C369 C 0.26656 0.22916 0.28036
 C370 C 0.29909 0.20874 0.26979
 C371 C 0.31696 0.18000 0.29418
 C372 C 0.35714 0.17098 0.28907
 C373 C 0.37521 0.14420 0.31178
 C374 C 0.35321 0.12570 0.33997
 C375 C 0.31256 0.13369 0.34404
 C376 C 0.29456 0.16063 0.32148
 C377 C 0.37163 0.09817 0.36558
 C378 C 0.41240 0.09872 0.37526
 H379 H 0.31263 0.21441 0.24283
 H380 H 0.37475 0.18499 0.26767
 H381 H 0.40621 0.13789 0.30691
 H382 H 0.29480 0.11939 0.36512
 H383 H 0.26306 0.16577 0.32521
 H384 H 0.35190 0.07898 0.38004
 H385 H 0.25369 0.22380 0.30772
 H386 H 0.43222 0.11935 0.36341
 C387 C 0.26592 0.74406 -0.20816
 C388 C 0.30365 0.73150 -0.21775
 C389 C 0.32825 0.70741 -0.19308
 C390 C 0.32312 0.70420 -0.15397
 C391 C 0.34612 0.67998 -0.13209
 C392 C 0.37471 0.65855 -0.14892
 C393 C 0.38084 0.66293 -0.18767
 C394 C 0.35788 0.68707 -0.20950
 C395 C 0.39854 0.63132 -0.12743
 C396 C 0.38756 0.61641 -0.09256
 H397 H 0.31441 0.73713 -0.24587
 H398 H 0.30175 0.72049 -0.14004
 H399 H 0.34156 0.67849 -0.10210
 H400 H 0.40297 0.64709 -0.20129
 H401 H 0.36281 0.68936 -0.23948
 H402 H 0.42436 0.62053 -0.14098
 H403 H 0.25307 0.73430 -0.18198
 H404 H 0.36118 0.62534 -0.07863
 C405 C 1.20932 -0.21142 -0.21871
 C406 C 1.21121 -0.20106 -0.18131
 C407 C 1.17986 -0.17914 -0.16481
 C408 C 1.17305 -0.18297 -0.12613
 C409 C 1.14356 -0.16294 -0.10948
 C410 C 1.12069 -0.13817 -0.13121
 C411 C 1.12722 -0.13458 -0.16995
 C412 C 1.15673 -0.15460 -0.18660
 C413 C 1.09095 -0.11486 -0.11427
 C414 C 1.09494 -0.10382 -0.07738
 H415 H 1.23485 -0.21092 -0.16264
 H416 H 1.19033 -0.20184 -0.10880
 H417 H 1.13864 -0.16716 -0.07970
 H418 H 1.11015 -0.11552 -0.18722
 H419 H 1.16185 -0.15007 -0.21630
 H420 H 1.06827 -0.10255 -0.13251
 H421 H 1.18504 -0.20144 -0.23658
 H422 H 1.11939 -0.11348 -0.05955
 C423 C 1.21708 0.27827 0.27612
 C424 C 1.22836 0.29596 0.30884
 C425 C 1.20012 0.31740 0.33003
 C426 C 1.20657 0.32090 0.36876
 C427 C 1.18087 0.34143 0.38961
 C428 C 1.14853 0.35958 0.37186
 C429 C 1.14200 0.35584 0.33310
 C430 C 1.16756 0.33512 0.31232
 C431 C 1.12146 0.38301 0.39234
 C432 C 1.13081 0.39653 0.42758
 H433 H 1.25854 0.29257 0.32019
 H434 H 1.23141 0.30741 0.38301
 H435 H 1.18653 0.34262 0.41952
 H436 H 1.11743 0.36956 0.31868
 H437 H 1.16228 0.33385 0.28231
 H438 H 1.09426 0.39201 0.37797
 H439 H 1.18619 0.28003 0.26615
 H440 H 1.15841 0.38948 0.44224
 C441 C 0.74270 -0.22584 0.27872
 C442 C 0.71173 -0.23526 0.30336
 C443 C 0.68925 -0.20846 0.32410
 C444 C 0.65047 -0.21755 0.33636
 C445 C 0.62804 -0.19286 0.35561
 C446 C 0.64413 -0.15841 0.36312
 C447 C 0.68325 -0.14966 0.35149
 C448 C 0.70564 -0.17434 0.33229
 C449 C 0.62223 -0.13143 0.38425
 C450 C 0.58163 -0.13425 0.39317
 H451 H 0.70180 -0.26323 0.30546
 H452 H 0.63735 -0.24384 0.33084
 H453 H 0.59852 -0.20126 0.36486
 H454 H 0.69670 -0.12360 0.35746
 H455 H 0.73594 -0.16668 0.32459
 H456 H 0.63926 -0.10812 0.39368
 H457 H 0.75119 -0.19766 0.27490
 H458 H 0.56295 -0.15630 0.38348
 C459 C 0.68848 0.28198 -0.24232
 C460 C 0.66119 0.27388 -0.21376
 C461 C 0.63843 0.30193 -0.19540
 C462 C 0.63028 0.29765 -0.15700
 C463 C 0.61021 0.32437 -0.13846
 C464 C 0.59727 0.35557 -0.15826
 C465 C 0.60376 0.35908 -0.19703
 C466 C 0.62451 0.33265 -0.21545
 C467 C 0.57725 0.38478 -0.13904
 C468 C 0.58866 0.39442 -0.10282
 H469 H 0.65866 0.24643 -0.20261
 H470 H 0.64023 0.27392 -0.14116
 H471 H 0.60464 0.32049 -0.10873
 H472 H 0.59354 0.38269 -0.21291
 H473 H 0.62933 0.33615 -0.24534
 H474 H 0.55595 0.40125 -0.15494
 H475 H 0.69219 0.30987 -0.25185
 H476 H 0.61292 0.38050 -0.08819
 C477 C 1.25513 0.20830 -0.22578
 C478 C 1.21915 0.21710 -0.20895
 C479 C 1.19923 0.19370 -0.18018
 C480 C 1.15782 0.19700 -0.17532
 C481 C 1.13764 0.17486 -0.14912
 C482 C 1.15862 0.14900 -0.12706
 C483 C 1.20037 0.14696 -0.13048
 C484 C 1.22056 0.16901 -0.15687
 C485 C 1.13747 0.12341 -0.10118
 C486 C 1.09882 0.11073 -0.10953
 H487 H 1.20452 0.24194 -0.21750
 H488 H 1.14088 0.21640 -0.19228
 H489 H 1.10563 0.17808 -0.14620
 H490 H 1.21725 0.12769 -0.11331
 H491 H 1.25280 0.16679 -0.15861
 H492 H 1.15387 0.11160 -0.07737
 H493 H 1.26913 0.18310 -0.21754
 H494 H 1.08373 0.11987 -0.13523
 C495 C 1.21036 0.72687 0.25404
 C496 C 1.22148 0.70767 0.28719
 C497 C 1.19352 0.68518 0.31049
 C498 C 1.20994 0.66217 0.33863
 C499 C 1.18517 0.64032 0.36138
 C500 C 1.14315 0.64113 0.35669
 C501 C 1.12661 0.66403 0.32854
 C502 C 1.15142 0.68613 0.30589
 C503 C 1.11620 0.61743 0.37964
 C504 C 1.12691 0.60441 0.41558
 H505 H 1.25284 0.70826 0.29595
 H506 H 1.24220 0.66078 0.34281
 H507 H 1.19917 0.62225 0.38197
 H508 H 1.09434 0.66508 0.32431
 H509 H 1.13725 0.70398 0.28525
 H510 H 1.08689 0.61030 0.36802
 H511 H 1.18020 0.72272 0.24290
 H512 H 1.15470 0.61342 0.42880
 C513 C 0.72047 0.22769 0.27390
 C514 C 0.73126 0.19639 0.29431
 C515 C 0.70160 0.17075 0.31130
 C516 C 0.71356 0.13569 0.32169
 C517 C 0.68687 0.11132 0.33944
 C518 C 0.64758 0.12175 0.34734
 C519 C 0.63565 0.15672 0.33662
 C520 C 0.66227 0.18101 0.31903
 C521 C 0.61865 0.09839 0.36845
 C522 C 0.62618 0.06371 0.38299
 H523 H 0.76288 0.19045 0.29775
 H524 H 0.74380 0.12721 0.31630
 H525 H 0.69756 0.08478 0.34731
 H526 H 0.60575 0.16567 0.34268
 H527 H 0.65207 0.20805 0.31277
 H528 H 0.59015 0.11020 0.37482
 H529 H 0.68902 0.23292 0.26834
 H530 H 0.65341 0.04991 0.37681
 C531 C 0.74318 0.71734 -0.22885
 C532 C 0.70705 0.72675 -0.21276
 C533 C 0.68757 0.70377 -0.18336
 C534 C 0.64571 0.70432 -0.18010
 C535 C 0.62634 0.68156 -0.15381
 C536 C 0.64865 0.65788 -0.13014
 C537 C 0.69066 0.65894 -0.13192
 C538 C 0.70999 0.68161 -0.15824
 C539 C 0.62921 0.63124 -0.10412
 C540 C 0.59078 0.61720 -0.11095
 H541 H 0.69200 0.75100 -0.22253
 H542 H 0.62789 0.72183 -0.19849
 H543 H 0.59400 0.68263 -0.15221
 H544 H 0.70856 0.64154 -0.11349
 H545 H 0.74246 0.68174 -0.15868
 H546 H 0.64710 0.61958 -0.08120
 H547 H 0.75694 0.69233 -0.21942
 H548 H 0.57331 0.62675 -0.13508
 C549 C 0.79965 -0.23960 -0.23347
 C550 C 0.78879 -0.21648 -0.20519
 C551 C 0.81621 -0.19303 -0.18317
 C552 C 0.79884 -0.17036 -0.15752
 C553 C 0.82238 -0.14626 -0.13702
 C554 C 0.86425 -0.14445 -0.14132
 C555 C 0.88182 -0.16729 -0.16682
 C556 C 0.85811 -0.19147 -0.18753
 C557 C 0.88982 -0.11769 -0.12145
 C558 C 0.87722 -0.09962 -0.09011
 H559 H 0.75703 -0.21424 -0.19990
 H560 H 0.76662 -0.17074 -0.15378
 H561 H 0.80719 -0.12848 -0.11880
 H562 H 0.91397 -0.16621 -0.17093
 H563 H 0.87276 -0.20838 -0.20700
 H564 H 0.91934 -0.11139 -0.13244
 H565 H 0.83086 -0.24281 -0.24021
 H566 H 0.84909 -0.10677 -0.07697
 C567 C 0.77246 0.27168 0.29363
 C568 C 0.79981 0.30059 0.28996
 C569 C 0.81939 0.31905 0.32199
 C570 C 0.85344 0.34079 0.31485
 C571 C 0.87224 0.35992 0.34356
 C572 C 0.85745 0.35777 0.38036
 C573 C 0.82291 0.33657 0.38747
 C574 C 0.80409 0.31723 0.35864
 C575 C 0.87647 0.37891 0.41086
 C576 C 0.91706 0.38869 0.41026
 H577 H 0.80740 0.31015 0.26184
 H578 H 0.86541 0.34325 0.28678
 H579 H 0.89773 0.37714 0.33645
 H580 H 0.81046 0.33503 0.41537
 H581 H 0.77714 0.30172 0.36509
 H582 H 0.85807 0.38771 0.43344
 H583 H 0.76630 0.26042 0.32141
 H584 H 0.93596 0.37797 0.38909
 C585 C 0.26826 -0.23387 0.25276
 C586 C 0.25747 -0.20800 0.27841
 C587 C 0.28694 -0.18763 0.30166
 C588 C 0.27541 -0.15492 0.31647
 C589 C 0.30192 -0.13518 0.33921
 C590 C 0.34072 -0.14790 0.34775
 C591 C 0.35202 -0.18087 0.33332
 C592 C 0.32552 -0.20058 0.31059
 C593 C 0.36948 -0.12880 0.37294
 C594 C 0.36529 -0.09329 0.38385
 H595 H 0.22607 -0.20181 0.28113
 H596 H 0.24566 -0.14460 0.31050
 H597 H 0.29137 -0.11052 0.35053
 H598 H 0.38143 -0.19164 0.33994
 H599 H 0.33516 -0.22629 0.30099
 H600 H 0.39527 -0.14359 0.38361
 H601 H 0.29997 -0.23854 0.24956
 H602 H 0.34107 -0.07694 0.37267
 C603 C 0.30969 0.25544 -0.23156
 C604 C 0.30286 0.26941 -0.19620
 C605 C 0.32973 0.29554 -0.17707
 C606 C 0.32477 0.30028 -0.13851
 C607 C 0.34701 0.32660 -0.11963
 C608 C 0.37443 0.34920 -0.13915
 C609 C 0.38021 0.34383 -0.17752
 C610 C 0.35797 0.31742 -0.19642
 C611 C 0.39716 0.37871 -0.12073
 C612 C 0.38558 0.39392 -0.08734
 H613 H 0.27571 0.26146 -0.18172
 H614 H 0.30329 0.28370 -0.12292
 H615 H 0.34251 0.32895 -0.08984
 H616 H 0.40127 0.36078 -0.19319
 H617 H 0.36213 0.31522 -0.22628
 H618 H 0.42278 0.39045 -0.13530
 H619 H 0.33691 0.26301 -0.24618
 H620 H 0.35913 0.38413 -0.07284
 C621 C 1.21926 -0.22906 0.20393
 C622 C 1.18581 -0.20858 0.21258
 C623 C 1.16672 -0.18239 0.18581
 C624 C 1.12620 -0.17422 0.19040
 C625 C 1.10710 -0.14923 0.16620
 C626 C 1.12844 -0.13135 0.13714
 C627 C 1.16897 -0.13961 0.13251
 C628 C 1.18805 -0.16468 0.15667
 C629 C 1.10975 -0.10417 0.11111
 C630 C 1.07411 -0.08671 0.11840
 H631 H 1.17167 -0.21297 0.23953
 H632 H 1.10911 -0.18750 0.21263
 H633 H 1.07561 -0.14450 0.17029
 H634 H 1.18617 -0.12620 0.11044
 H635 H 1.21963 -0.16938 0.15285
 H636 H 1.12581 -0.09626 0.08588
 H637 H 1.23196 -0.22450 0.17636
 H638 H 1.05812 -0.09251 0.14407
 C639 C 1.24895 0.25796 0.72480
 C640 C 1.24884 0.29560 0.72543
 C641 C 1.22406 0.31738 0.69876
 C642 C 1.20767 0.34952 0.71050
 C643 C 1.18489 0.37100 0.68547
 C644 C 1.17890 0.36104 0.64796
 C645 C 1.19628 0.32943 0.63592
 C646 C 1.21833 0.30754 0.66119
 C647 C 1.15561 0.38379 0.62093
 C648 C 1.12156 0.40163 0.63173
 H649 H 1.26659 0.30977 0.74622
 H650 H 1.21231 0.35789 0.73916
 H651 H 1.17269 0.39576 0.69525
 H652 H 1.19247 0.32154 0.60702
 H653 H 1.23167 0.28340 0.65109
 H654 H 1.16426 0.38518 0.59173
 H655 H 1.22748 0.24475 0.70625
 H656 H 1.11047 0.39729 0.65995
 C657 C 0.74187 -0.23080 0.72269
 C658 C 0.71006 -0.23961 0.69835
 C659 C 0.68752 -0.21182 0.67629
 C660 C 0.64798 -0.21942 0.66432
 C661 C 0.62605 -0.19373 0.64328
 C662 C 0.64347 -0.15983 0.63364
 C663 C 0.68328 -0.15261 0.64508
 C664 C 0.70513 -0.17825 0.66603
 C665 C 0.62230 -0.13195 0.61034
 C666 C 0.58143 -0.13333 0.60103
 H667 H 0.70078 -0.26764 0.69634
 H668 H 0.63396 -0.24529 0.67136
 H669 H 0.59591 -0.20100 0.63427
 H670 H 0.69774 -0.12706 0.63751
 H671 H 0.73607 -0.17184 0.67333
 H672 H 0.64007 -0.10934 0.59937
 H673 H 0.74911 -0.20261 0.72674
 H674 H 0.56215 -0.15470 0.61210
 C675 C 0.72945 0.28495 0.23750
 C676 C 0.70783 0.27869 0.20420
 C677 C 0.68312 0.30636 0.18449
 C678 C 0.67627 0.30415 0.14562
 C679 C 0.65248 0.32948 0.12617
 C680 C 0.63469 0.35735 0.14543
 C681 C 0.64058 0.35893 0.18447
 C682 C 0.66470 0.33381 0.20386
 C683 C 0.60935 0.38467 0.12586
 C684 C 0.61464 0.39552 0.08840
 H685 H 0.70935 0.25263 0.19169
 H686 H 0.68952 0.28281 0.13023
 H687 H 0.64753 0.32676 0.09626
 H688 H 0.62667 0.37981 0.20000
 H689 H 0.66808 0.33555 0.23403
 H690 H 0.58786 0.39867 0.14227
 H691 H 0.72890 0.31162 0.24894
 H692 H 0.63819 0.38410 0.07230
 C693 C 0.78235 0.23841 0.23501
 C694 C 0.77309 0.21000 0.21121
 C695 C 0.80205 0.19446 0.18547
 C696 C 0.78706 0.17529 0.15474
 C697 C 0.81310 0.15871 0.13063
 C698 C 0.85493 0.16082 0.13687
 C699 C 0.86994 0.17994 0.16768
 C700 C 0.84386 0.19671 0.19171
 C701 C 0.88332 0.14103 0.11390
 C702 C 0.87382 0.12843 0.07821
 H703 H 0.74261 0.19931 0.21034
 H704 H 0.75497 0.17278 0.14958
 H705 H 0.80014 0.14330 0.10802
 H706 H 0.90197 0.18147 0.17350
 H707 H 0.85656 0.21035 0.21568
 H708 H 0.91259 0.13510 0.12620
 H709 H 0.81182 0.25110 0.23349
 H710 H 0.84605 0.13588 0.06401
 C711 C 0.78528 0.71675 0.71549
 C712 C 0.81084 0.72904 0.68701
 C713 C 0.82595 0.70416 0.65914
 C714 C 0.86554 0.70810 0.64681
 C715 C 0.88150 0.68276 0.62328
 C716 C 0.85782 0.65334 0.61123
 C717 C 0.81739 0.65092 0.62137
 C718 C 0.80161 0.67595 0.64531
 C719 C 0.87517 0.62391 0.59004
 C720 C 0.91381 0.61198 0.59835
 H721 H 0.82186 0.75670 0.68670
 H722 H 0.88459 0.73001 0.65655
 H723 H 0.91249 0.68594 0.61497
 H724 H 0.79843 0.62880 0.61199
 H725 H 0.77049 0.67299 0.65329
 H726 H 0.85573 0.60833 0.57169
 H727 H 0.77673 0.68840 0.71647
 H728 H 0.93181 0.62535 0.61958
 C729 C 0.29773 0.21068 0.71877
 C730 C 0.32809 0.18633 0.72814
 C731 C 0.34219 0.16052 0.70078
 C732 C 0.38257 0.15049 0.70150
 C733 C 0.39663 0.12702 0.67496
 C734 C 0.37025 0.11279 0.64758
 C735 C 0.32949 0.12144 0.64813
 C736 C 0.31558 0.14520 0.67431
 C737 C 0.38421 0.08921 0.61800
 C738 C 0.42262 0.09250 0.60339
 H739 H 0.34221 0.18671 0.75581
 H740 H 0.40341 0.16138 0.72215
 H741 H 0.42800 0.11993 0.67610
 H742 H 0.30849 0.11035 0.62773
 H743 H 0.28392 0.15131 0.67397
 H744 H 0.36250 0.07127 0.60482
 H745 H 0.28613 0.21130 0.69006
 H746 H 0.44377 0.11227 0.61422
 C747 C 0.25931 0.71930 0.20890
 C748 C 0.29147 0.72751 0.18493
 C749 C 0.31094 0.70005 0.16268
 C750 C 0.35202 0.70384 0.15515
 C751 C 0.37130 0.67830 0.13421
 C752 C 0.34957 0.64876 0.11989
 C753 C 0.30822 0.64563 0.12641
 C754 C 0.28907 0.67086 0.14782
 C755 C 0.36886 0.62133 0.09744
 C756 C 0.40889 0.61169 0.10283
 H757 H 0.30398 0.75469 0.18373
 H758 H 0.36931 0.72645 0.16581
 H759 H 0.40298 0.68209 0.12875
 H760 H 0.29074 0.62339 0.11518
 H761 H 0.25708 0.66783 0.15205
 H762 H 0.35012 0.60629 0.07800
 H763 H 0.24880 0.69141 0.21052
 H764 H 0.42721 0.62405 0.12449
   
