data_POSCAR
  _audit_creation_date              2014-09-24
  _audit_creation_method            'ToBaCCo'
  _symmetry_space_group_name_H-M    'P1'
  _symmetry_Int_Tables_number       1
  _symmetry_cell_setting            triclinic
  loop_
  _symmetry_equiv_pos_as_xyz
 x,y,z
_cell_length_a 35.4389
_cell_length_b 35.4016
_cell_length_c 35.4828
_cell_angle_alpha 89.995300
_cell_angle_beta 90.111500
_cell_angle_gamma 89.787300
loop_
  _atom_site_label
  _atom_site_type_symbol
  _atom_site_fract_x
  _atom_site_fract_y
  _atom_site_fract_z
C1 C 0.34568 0.33858 1.38683
 C2 C 0.31327 0.35275 1.40460
 C3 C 0.29508 0.38502 1.39050
 C4 C 0.30942 0.40358 1.35872
 C5 C 0.34183 0.38978 1.34061
 C6 C 0.36006 0.35709 1.35467
 C7 C 0.36349 0.30577 1.40018
 C8 C 0.39530 0.29119 1.38171
 C9 C 0.40978 0.30960 1.34990
 C10 C 0.39228 0.34253 1.33619
 C11 C 0.40593 0.36073 1.30388
 C12 C 0.38770 0.39303 1.28988
 C13 C 0.35588 0.40761 1.30825
 H14 H 0.30189 0.33837 1.42907
 H15 H 0.29508 0.42842 1.34779
 H16 H 0.35227 0.29126 1.42464
 H17 H 0.43426 0.29806 1.33557
 H18 H 0.43039 0.34952 1.28927
 H19 H 0.34182 0.43245 1.29702
 C20 C 1.15829 0.66501 0.89247
 C21 C 1.19113 0.65116 0.90998
 C22 C 1.20954 0.61917 0.89557
 C23 C 1.19505 0.60063 0.86380
 C24 C 1.16232 0.61411 0.84597
 C25 C 1.14382 0.64647 0.86029
 C26 C 1.14011 0.69751 0.90607
 C27 C 1.10787 0.71167 0.88784
 C28 C 1.09338 0.69320 0.85603
 C29 C 1.11121 0.66064 0.84205
 C30 C 1.09750 0.64244 0.80970
 C31 C 1.11605 0.61048 0.79545
 C32 C 1.14822 0.59627 0.81361
 H33 H 1.20261 0.66555 0.93443
 H34 H 1.20956 0.57602 0.85262
 H35 H 1.15134 0.71209 0.93053
 H36 H 1.06858 0.70444 0.84189
 H37 H 1.07275 0.65337 0.79528
 H38 H 1.16251 0.57166 0.80221
 C39 C 0.65527 -0.15979 0.10829
 C40 C 0.68777 -0.14558 0.09083
 C41 C 0.70581 -0.11362 0.10546
 C42 C 0.69131 -0.09543 0.13741
 C43 C 0.65888 -0.10925 0.15522
 C44 C 0.64074 -0.14162 0.14065
 C45 C 0.63752 -0.19233 0.09447
 C46 C 0.60564 -0.20692 0.11268
 C47 C 0.59106 -0.18881 0.14465
 C48 C 0.60847 -0.15620 0.15883
 C49 C 0.59472 -0.13839 0.19136
 C50 C 0.61287 -0.10644 0.20589
 C51 C 0.64473 -0.09180 0.18781
 H52 H 0.69937 -0.15962 0.06626
 H53 H 0.70565 -0.07086 0.14868
 H54 H 0.64884 -0.20663 0.06988
 H55 H 0.56655 -0.20037 0.15877
 H56 H 0.57023 -0.14967 0.20574
 H57 H 0.65874 -0.06722 0.19943
 C58 C -0.16064 1.15771 -0.39088
 C59 C -0.19325 1.14387 -0.40856
 C60 C -0.21178 1.11217 -0.39397
 C61 C -0.19764 1.09389 -0.36180
 C62 C -0.16510 1.10735 -0.34378
 C63 C -0.14649 1.13942 -0.35835
 C64 C -0.14237 1.18997 -0.40466
 C65 C -0.11038 1.20408 -0.38624
 C66 C -0.09619 1.18587 -0.35415
 C67 C -0.11410 1.15360 -0.33998
 C68 C -0.10067 1.13575 -0.30731
 C69 C -0.11928 1.10413 -0.29275
 C70 C -0.15129 1.08984 -0.31099
 H71 H -0.20447 1.15805 -0.43330
 H72 H -0.21227 1.06952 -0.35049
 H73 H -0.15328 1.20444 -0.42935
 H74 H -0.07156 1.19717 -0.33994
 H75 H -0.07606 1.14676 -0.29283
 H76 H -0.16566 1.06550 -0.29936
 C77 C 0.66042 0.66118 0.60758
 C78 C 0.69322 0.64676 0.59065
 C79 C 0.71117 0.61482 0.60572
 C80 C 0.69633 0.59685 0.63757
 C81 C 0.66362 0.61088 0.65484
 C82 C 0.64553 0.64320 0.63984
 C83 C 0.64267 0.69369 0.59333
 C84 C 0.61044 0.70835 0.61104
 C85 C 0.59555 0.69042 0.64290
 C86 C 0.61295 0.65793 0.65750
 C87 C 0.59881 0.64036 0.68994
 C88 C 0.61695 0.60847 0.70489
 C89 C 0.64911 0.59366 0.68732
 H90 H 0.70509 0.66061 0.56615
 H91 H 0.71060 0.57229 0.64916
 H92 H 0.65420 0.70785 0.56881
 H93 H 0.57075 0.70206 0.65661
 H94 H 0.57407 0.65175 0.70391
 H95 H 0.66309 0.56910 0.69927
 C96 C 0.84243 0.34225 0.11255
 C97 C 0.80996 0.35703 0.09528
 C98 C 0.79208 0.38903 0.11026
 C99 C 0.80677 0.40673 0.14244
 C100 C 0.83926 0.39231 0.16005
 C101 C 0.85718 0.35989 0.14508
 C102 C 0.85994 0.30966 0.09831
 C103 C 0.89182 0.29452 0.11630
 C104 C 0.90667 0.31210 0.14844
 C105 C 0.88948 0.34473 0.16302
 C106 C 0.90354 0.36201 0.19568
 C107 C 0.88564 0.39401 0.21060
 C108 C 0.85371 0.40923 0.19280
 H109 H 0.79831 0.34333 0.07052
 H110 H 0.79264 0.43136 0.15403
 H111 H 0.84844 0.29578 0.07358
 H112 H 0.93122 0.30010 0.16239
 H113 H 0.92809 0.35029 0.20984
 H114 H 0.83990 0.43386 0.20473
 C115 C 0.33873 0.16332 0.88769
 C116 C 0.30621 0.14926 0.90519
 C117 C 0.28799 0.11734 0.89063
 C118 C 0.30235 0.09906 0.85863
 C119 C 0.33484 0.11276 0.84080
 C120 C 0.35313 0.14504 0.85533
 C121 C 0.35671 0.19573 0.90152
 C122 C 0.38868 0.21001 0.88333
 C123 C 0.40312 0.19185 0.85137
 C124 C 0.38550 0.15941 0.83716
 C125 C 0.39923 0.14148 0.80469
 C126 C 0.38093 0.10961 0.79022
 C127 C 0.34895 0.09518 0.80827
 H128 H 0.29483 0.16341 0.92983
 H129 H 0.28800 0.07449 0.84737
 H130 H 0.34562 0.21015 0.92611
 H131 H 0.42775 0.20327 0.83736
 H132 H 0.42384 0.15256 0.79036
 H133 H 0.33486 0.07062 0.79671
 C134 C 0.15424 0.83549 0.39029
 C135 C 0.18675 0.85009 0.40751
 C136 C 0.20421 0.88229 0.39279
 C137 C 0.18913 0.90037 0.36102
 C138 C 0.15668 0.88614 0.34347
 C139 C 0.13912 0.85352 0.35808
 C140 C 0.13708 0.80274 0.40422
 C141 C 0.10520 0.78778 0.38625
 C142 C 0.09001 0.80570 0.35438
 C143 C 0.10684 0.83854 0.34008
 C144 C 0.09250 0.85626 0.30767
 C145 C 0.11012 0.88850 0.29317
 C146 C 0.14196 0.90348 0.31108
 H147 H 0.19881 0.83615 0.43198
 H148 H 0.20302 0.92514 0.34970
 H149 H 0.14885 0.78858 0.42873
 H150 H 0.06548 0.79383 0.34044
 H151 H 0.06801 0.84474 0.29341
 H152 H 0.15553 0.92829 0.29946
 Zn153 Zn 0.00642 1.04830 -0.02189
 Zn154 Zn -0.03057 0.97244 -0.02834
 Zn155 Zn 0.04459 0.98050 0.00980
 Zn156 Zn -0.02421 1.01117 0.04653
 O157 O -0.00102 1.00302 0.00143
 O158 O -0.01667 1.05077 -0.06648
 O159 O -0.00707 0.92894 -0.04103
 O160 O 0.08359 1.00757 -0.00730
 O161 O -0.04392 0.99491 -0.07200
 O162 O 0.05509 1.05779 -0.03115
 O163 O 0.04820 0.93581 -0.01285
 O164 O 0.00224 0.99366 0.08587
 O165 O -0.07409 0.95928 -0.00559
 O166 O 0.05362 0.97127 0.05857
 O167 O -0.06888 0.98855 0.04923
 O168 O -0.03319 1.06003 0.05579
 O169 O -0.01085 1.08771 0.00474
 C170 C -0.03667 1.02756 -0.08498
 C171 C 0.02575 0.91664 -0.03305
 C172 C 0.08495 1.03914 -0.02419
 C173 C 0.03411 0.97732 0.08792
 C174 C -0.08723 0.96773 0.02666
 C175 C -0.02687 1.08961 0.03665
 Zn176 Zn 0.45162 0.02195 0.50678
 Zn177 Zn 0.48897 -0.04678 0.47628
 Zn178 Zn 0.52724 0.02831 0.46950
 Zn179 Zn 0.51956 -0.00955 0.54473
 O180 O 0.49693 -0.00142 0.49923
 O181 O 0.41237 -0.00484 0.48971
 O182 O 0.51150 -0.04970 0.43159
 O183 O 0.50459 0.07201 0.45615
 O184 O 0.44018 -0.05612 0.46750
 O185 O 0.44890 0.06657 0.48365
 O186 O 0.54037 0.00530 0.42605
 O187 O 0.56411 0.01320 0.54808
 O188 O 0.50662 -0.08607 0.50280
 O189 O 0.57071 0.04114 0.49273
 O190 O 0.52898 -0.05838 0.55390
 O191 O 0.49249 0.00768 0.58372
 O192 O 0.44213 0.03133 0.55539
 C193 C 0.41058 -0.03691 0.47385
 C194 C 0.53209 -0.02711 0.41307
 C195 C 0.47194 0.08505 0.46352
 C196 C 0.58311 0.03332 0.52548
 C197 C 0.52297 -0.08792 0.53460
 C198 C 0.46082 0.02447 0.58517
 Zn199 Zn 1.01310 0.45045 0.48072
 Zn200 Zn 1.05017 0.51886 0.51202
 Zn201 Zn 0.97488 0.52578 0.47400
 Zn202 Zn 0.98190 0.48764 0.54910
 O203 O 1.00495 0.49575 0.50390
 O204 O 1.06195 0.44129 0.47162
 O205 O 1.05291 0.56363 0.48921
 O206 O 0.96172 0.50306 0.43057
 O207 O 1.08953 0.49216 0.49475
 O208 O 0.99023 0.44765 0.43602
 O209 O 0.99752 0.56926 0.46092
 O210 O 0.93715 0.51060 0.55199
 O211 O 1.05929 0.52803 0.56081
 O212 O 0.93144 0.53897 0.49674
 O213 O 1.00856 0.50487 0.58843
 O214 O 0.97276 0.43876 0.55806
 O215 O 0.99584 0.41109 0.50723
 C216 C 1.09145 0.46045 0.47815
 C217 C 1.03000 0.58219 0.46878
 C218 C 0.96966 0.47054 0.41757
 C219 C 0.91856 0.53111 0.52919
 C220 C 1.04018 0.52150 0.59031
 C221 C 0.97923 0.40922 0.53883
 Zn222 Zn 0.47852 0.49353 0.95215
 Zn223 Zn 0.47205 0.53107 1.02770
 Zn224 Zn 0.51014 0.45564 1.01994
 Zn225 Zn 0.54709 0.52414 0.98927
 O226 O 0.50185 0.50119 0.99735
 O227 O 0.43393 0.51680 0.94951
 O228 O 0.45933 0.50786 1.07116
 O229 O 0.49282 0.41652 0.99308
 O230 O 0.42834 0.54447 1.00513
 O231 O 0.46910 0.44480 0.94281
 O232 O 0.48757 0.45244 1.06453
 O233 O 0.58645 0.49755 1.00677
 O234 O 0.49494 0.57462 1.04077
 O235 O 0.55896 0.44637 1.02914
 O236 O 0.54989 0.56895 1.01181
 O237 O 0.55633 0.53292 0.94052
 O238 O 0.50521 0.51050 0.91286
 C239 C 0.41539 0.53703 0.97252
 C240 C 0.46736 0.47508 1.08355
 C241 C 0.47590 0.41502 0.96156
 C242 C 0.58841 0.46570 1.02307
 C243 C 0.52730 0.58756 1.03245
 C244 C 0.53715 0.52648 0.91099
 C245 C 1.19829 0.42053 0.43695
 C246 C 1.19612 0.45485 0.45640
 C247 C 1.16150 0.46753 0.47053
 C248 C 1.26261 0.39750 0.40688
 C249 C 1.13121 0.41124 0.44624
 C250 C 1.16585 0.39864 0.43217
 C251 C 1.23350 0.40816 0.42092
 C252 C 1.12856 0.44602 0.46530
 H253 H 1.22107 0.47203 0.46022
 H254 H 1.16044 0.49444 0.48501
 H255 H 1.10644 0.39400 0.44171
 H256 H 1.16722 0.37203 0.41714
 C257 C 0.30760 0.58049 0.93693
 C258 C 0.32149 0.58947 0.97280
 C259 C 0.35655 0.57531 0.98466
 C260 C 0.24240 0.60668 0.91135
 C261 C 0.36369 0.54318 0.92476
 C262 C 0.32877 0.55729 0.91305
 C263 C 0.27190 0.59511 0.92394
 C264 C 0.37809 0.55204 0.96068
 H265 H 0.30533 0.60746 0.99152
 H266 H 0.36683 0.58267 1.01246
 H267 H 0.37943 0.52535 0.90556
 H268 H 0.31832 0.55017 0.88522
 C269 C -0.19490 0.92569 0.06282
 C270 C -0.18080 0.91545 0.02738
 C271 C -0.14579 0.92917 0.01532
 C272 C -0.25975 0.89978 0.08877
 C273 C -0.13915 0.96339 0.07412
 C274 C -0.17401 0.94972 0.08604
 C275 C -0.23042 0.91131 0.07610
 C276 C -0.12452 0.95324 0.03865
 H277 H -0.19674 0.89679 0.00920
 H278 H -0.13534 0.92083 -0.01211
 H279 H -0.12361 0.98188 0.09281
 H280 H -0.18462 0.95778 0.11352
 C281 C 0.69067 0.07464 0.56316
 C282 C 0.67744 0.08420 0.52716
 C283 C 0.64245 0.07076 0.51461
 C284 C 0.75556 0.09983 0.58994
 C285 C 0.63407 0.03820 0.57410
 C286 C 0.66891 0.05160 0.58649
 C287 C 0.72622 0.08863 0.57688
 C288 C 0.62033 0.04765 0.53803
 H289 H 0.69407 0.10210 0.50888
 H290 H 0.63269 0.07854 0.48672
 H291 H 0.61786 0.02046 0.59288
 H292 H 0.67884 0.04406 0.61442
 C293 C 0.43648 0.19293 0.42017
 C294 C 0.47240 0.17891 0.41134
 C295 C 0.48420 0.14381 0.42546
 C296 C 0.41105 0.25825 0.39409
 C297 C 0.42414 0.13689 0.45726
 C298 C 0.41248 0.17185 0.44317
 C299 C 0.42357 0.22868 0.40560
 C300 C 0.46012 0.12237 0.44855
 H301 H 0.49120 0.19500 0.39350
 H302 H 0.51205 0.13344 0.41823
 H303 H 0.40486 0.12122 0.47494
 H304 H 0.38462 0.18240 0.45017
 C305 C 0.93750 0.30247 0.57802
 C306 C 0.95700 0.30457 0.54383
 C307 C 0.97133 0.33915 0.53140
 C308 C 0.90709 0.23827 0.60064
 C309 C 0.94716 0.36953 0.58768
 C310 C 0.93289 0.33494 0.60004
 C311 C 0.92127 0.26731 0.59015
 C312 C 0.96625 0.37212 0.55304
 H313 H 0.96070 0.27960 0.52656
 H314 H 0.98584 0.34017 0.50459
 H315 H 0.94274 0.39433 0.60501
 H316 H 0.91783 0.33362 0.62655
 C317 C 0.06428 0.80907 -0.07432
 C318 C 0.08736 0.83091 -0.05102
 C319 C 0.07468 0.86575 -0.03762
 C320 C 0.09159 0.74427 -0.09967
 C321 C 0.01538 0.85717 -0.07065
 C322 C 0.02822 0.82219 -0.08410
 C323 C 0.07831 0.77356 -0.08837
 C324 C 0.03857 0.87939 -0.04731
 H325 H 0.11532 0.82107 -0.04331
 H326 H 0.09329 0.88203 -0.01969
 H327 H -0.01253 0.86686 -0.07862
 H328 H 0.01013 0.80550 -0.10220
 C329 C 0.56376 0.69542 1.07425
 C330 C 0.58700 0.67424 1.05044
 C331 C 0.57498 0.63931 1.03684
 C332 C 0.58989 0.76038 1.10002
 C333 C 0.51605 0.64648 1.07072
 C334 C 0.52821 0.68155 1.08435
 C335 C 0.57713 0.73101 1.08854
 C336 C 0.53940 0.62491 1.04687
 H337 H 0.61457 0.68466 1.04248
 H338 H 0.59370 0.62354 1.01853
 H339 H 0.48853 0.63621 1.07895
 H340 H 0.51001 0.69772 1.10285
 C341 C 0.42625 0.43722 1.19097
 C342 C 0.44963 0.41400 1.16927
 C343 C 0.46298 0.42648 1.13450
 C344 C 0.40091 0.41021 1.25559
 C345 C 0.42974 0.48586 1.14283
 C346 C 0.41634 0.47322 1.17775
 C347 C 0.41221 0.42336 1.22639
 C348 C 0.45315 0.46252 1.12075
 H349 H 0.45743 0.38608 1.17918
 H350 H 0.48096 0.40775 1.11833
 H351 H 0.42167 0.51372 1.13306
 H352 H 0.39817 0.49142 1.19433
 C353 C 0.57386 -0.06367 0.30536
 C354 C 0.58384 -0.02804 0.31927
 C355 C 0.57022 -0.01585 0.35430
 C356 C 0.59954 -0.08974 0.24041
 C357 C 0.53663 -0.07495 0.36137
 C358 C 0.55020 -0.08699 0.32648
 C359 C 0.58810 -0.07703 0.26979
 C360 C 0.54652 -0.03927 0.37579
 H361 H 0.60221 -0.00978 0.30315
 H362 H 0.57835 0.01174 0.36459
 H363 H 0.51843 -0.09372 0.37708
 H364 H 0.54234 -0.11463 0.31602
 C365 C -0.07998 1.06246 -0.19281
 C366 C -0.08869 1.02654 -0.17883
 C367 C -0.07458 1.01492 -0.14375
 C368 C -0.10614 1.08754 -0.25805
 C369 C -0.04303 1.07517 -0.13676
 C370 C -0.05710 1.08664 -0.17170
 C371 C -0.09457 1.07519 -0.22853
 C372 C -0.05162 1.03919 -0.12229
 H373 H -0.10643 1.00760 -0.19494
 H374 H -0.08171 0.98707 -0.13341
 H375 H -0.02545 1.09458 -0.12106
 H376 H -0.05021 1.11451 -0.18222
 C377 C 1.07998 0.56286 0.69700
 C378 C 1.10183 0.56760 0.66454
 C379 C 1.08926 0.55347 0.62996
 C380 C 1.10290 0.59306 0.76122
 C381 C 1.03311 0.52921 0.66030
 C382 C 1.04575 0.54340 0.69487
 C383 C 1.09231 0.57896 0.73216
 C384 C 1.05457 0.53440 0.62736
 H385 H 1.12836 0.58265 0.66587
 H386 H 1.10646 0.55798 0.60519
 H387 H 1.00628 0.51471 0.65929
 H388 H 1.02861 0.53960 0.71982
 C389 C 0.81088 0.57442 0.56456
 C390 C 0.82486 0.58367 0.52886
 C391 C 0.85987 0.56953 0.51710
 C392 C 0.74582 0.60109 0.58958
 C393 C 0.86682 0.53683 0.57677
 C394 C 0.83191 0.55095 0.58839
 C395 C 0.77527 0.58920 0.57738
 C396 C 0.88129 0.54600 0.54102
 H397 H 0.80879 0.60189 0.51020
 H398 H 0.87021 0.57711 0.48943
 H399 H 0.88249 0.51880 0.59589
 H400 H 0.82138 0.54365 0.61610
 C401 C 0.69520 0.42563 1.06458
 C402 C 0.69300 0.46016 1.04549
 C403 C 0.65839 0.47292 1.03129
 C404 C 0.75957 0.40205 1.09429
 C405 C 0.62817 0.41631 1.05481
 C406 C 0.66279 0.40363 1.06896
 C407 C 0.73043 0.41303 1.08047
 C408 C 0.62550 0.45126 1.03608
 H409 H 0.71794 0.47740 1.04196
 H410 H 0.65731 0.49996 1.01706
 H411 H 0.60342 0.39896 1.05901
 H412 H 0.66420 0.37685 1.08369
 C413 C 0.19135 1.08086 -0.06395
 C414 C 0.18976 1.04656 -0.04442
 C415 C 0.15525 1.03325 -0.03084
 C416 C 0.25555 1.10476 -0.09321
 C417 C 0.12389 1.08884 -0.05590
 C418 C 0.15841 1.10207 -0.06942
 C419 C 0.22648 1.09380 -0.07948
 C420 C 0.12185 1.05410 -0.03672
 H421 H 0.21510 1.02989 -0.04010
 H422 H 0.15467 1.00641 -0.01623
 H423 H 0.09874 1.10558 -0.06091
 H424 H 0.15932 1.12864 -0.08455
 C425 C 0.30337 -0.07935 0.43680
 C426 C 0.33612 -0.10091 0.43166
 C427 C 0.37093 -0.08735 0.44419
 C428 C 0.23865 -0.10402 0.40928
 C429 C 0.34026 -0.03068 0.46752
 C430 C 0.30546 -0.04432 0.45494
 C431 C 0.26794 -0.09270 0.42228
 C432 C 0.37345 -0.05194 0.46202
 H433 H 0.33481 -0.12803 0.41758
 H434 H 0.39590 -0.10444 0.43952
 H435 H 0.34123 -0.00332 0.48113
 H436 H 0.28028 -0.02736 0.45897
 C437 C 0.56455 -0.19472 0.57466
 C438 C 0.54544 -0.19263 0.54018
 C439 C 0.53123 -0.15800 0.52741
 C440 C 0.59436 -0.25912 0.59816
 C441 C 0.55481 -0.12756 0.58391
 C442 C 0.56896 -0.16220 0.59660
 C443 C 0.58048 -0.22997 0.58724
 C444 C 0.53605 -0.12500 0.54901
 H445 H 0.54189 -0.21765 0.52298
 H446 H 0.51697 -0.15700 0.50041
 H447 H 0.55902 -0.10273 0.60122
 H448 H 0.58373 -0.16353 0.62334
 C449 C 1.06509 0.68988 0.42566
 C450 C 1.02937 0.67584 0.41640
 C451 C 1.01770 0.64082 0.43049
 C452 C 1.09002 0.75494 0.39914
 C453 C 1.07750 0.63401 0.46314
 C454 C 1.08904 0.66891 0.44908
 C455 C 1.07784 0.72548 0.41095
 C456 C 1.04172 0.61947 0.45397
 H457 H 1.01063 0.69185 0.39823
 H458 H 0.99001 0.63043 0.42291
 H459 H 1.09671 0.61838 0.48114
 H460 H 1.11676 0.67949 0.45638
 C461 C -0.06468 1.19700 0.07875
 C462 C -0.06971 1.16428 0.10025
 C463 C -0.05693 1.12942 0.08681
 C464 C -0.09254 1.26182 0.10333
 C465 C -0.03356 1.15997 0.03037
 C466 C -0.04640 1.19482 0.04389
 C467 C -0.07941 1.23249 0.09203
 C468 C -0.03895 1.12681 0.05157
 H469 H -0.08389 1.16565 0.12725
 H470 H -0.06152 1.10449 0.10384
 H471 H -0.01985 1.15894 0.00314
 H472 H -0.04245 1.21998 0.02698
 C473 C 0.43541 0.30848 0.92042
 C474 C 0.45500 0.31021 0.95465
 C475 C 0.46883 0.34475 0.96777
 C476 C 0.40587 0.24425 0.89670
 C477 C 0.44390 0.37588 0.91212
 C478 C 0.43014 0.34132 0.89908
 C479 C 0.41970 0.27333 0.90762
 C480 C 0.46314 0.37806 0.94679
 H481 H 0.45920 0.28495 0.97141
 H482 H 0.48348 0.34545 0.99457
 H483 H 0.43903 0.40094 0.89529
 H484 H 0.41497 0.34029 0.87255
 C485 C 0.57901 0.56407 0.80390
 C486 C 0.54416 0.54574 0.80605
 C487 C 0.53074 0.53294 0.84080
 C488 C 0.60334 0.59191 0.73928
 C489 C 0.58726 0.55643 0.87130
 C490 C 0.60061 0.56917 0.83654
 C491 C 0.59216 0.57880 0.76852
 C492 C 0.55202 0.53842 0.87389
 H493 H 0.52719 0.54173 0.78095
 H494 H 0.50350 0.51921 0.84182
 H495 H 0.60435 0.56110 0.89618
 H496 H 0.62759 0.58339 0.83518
 C497 C 0.41854 0.06364 0.69165
 C498 C 0.39739 0.06918 0.65876
 C499 C 0.41085 0.05590 0.62420
 C500 C 0.39429 0.09253 0.75594
 C501 C 0.46654 0.03098 0.65540
 C502 C 0.45301 0.04432 0.68995
 C503 C 0.40538 0.07895 0.72683
 C504 C 0.44574 0.03691 0.62207
 H505 H 0.37070 0.08417 0.65976
 H506 H 0.39413 0.06094 0.59911
 H507 H 0.49350 0.01650 0.65475
 H508 H 0.46964 0.03995 0.71525
 C509 C 0.07341 0.93542 0.19460
 C510 C 0.09564 0.93104 0.16234
 C511 C 0.08322 0.94534 0.12775
 C512 C 0.09650 0.90547 0.25889
 C513 C 0.02643 0.96902 0.15772
 C514 C 0.03893 0.95466 0.19230
 C515 C 0.08573 0.91938 0.22978
 C516 C 0.04831 0.96422 0.12497
 H517 H 0.12239 0.91619 0.16383
 H518 H 0.10073 0.94113 0.10311
 H519 H -0.00058 0.98336 0.15655
 H520 H 0.02151 0.95820 0.21712
 C521 C 0.92624 0.43520 0.31009
 C522 C 0.91691 0.47097 0.32420
 C523 C 0.93111 0.48273 0.35914
 C524 C 0.89943 0.41016 0.24519
 C525 C 0.96403 0.42293 0.36574
 C526 C 0.94986 0.41131 0.33091
 C527 C 0.91139 0.42237 0.27457
 C528 C 0.95477 0.45874 0.38035
 H529 H 0.89859 0.48968 0.30830
 H530 H 0.92345 0.51045 0.36958
 H531 H 0.98217 0.40375 0.38126
 H532 H 0.95723 0.38355 0.32028
   
