data_POSCAR
  _audit_creation_date              2014-09-24
  _audit_creation_method            'ToBaCCo'
  _symmetry_space_group_name_H-M    'P1'
  _symmetry_Int_Tables_number       1
  _symmetry_cell_setting            triclinic
  loop_
  _symmetry_equiv_pos_as_xyz
 x,y,z
_cell_length_a 57.2022
_cell_length_b 57.1271
_cell_length_c 48.8734
_cell_angle_alpha 90.001300
_cell_angle_beta 90.006400
_cell_angle_gamma 92.161000
loop_
  _atom_site_label
  _atom_site_type_symbol
  _atom_site_fract_x
  _atom_site_fract_y
  _atom_site_fract_z
O1 O 0.02759 0.29297 -0.02729
 O2 O -0.01811 0.29316 0.02610
 O3 O 0.02778 0.29334 0.02590
 O4 O -0.01823 0.29302 -0.02703
 O5 O -0.01941 0.25432 -0.02682
 O6 O 0.02618 0.25464 0.02619
 O7 O -0.01908 0.25448 0.02656
 O8 O 0.02585 0.25427 -0.02716
 Cu9 Cu 0.00491 0.29703 -0.00059
 Cu10 Cu 0.00324 0.25056 -0.00028
 C11 C 0.03443 0.27353 -0.03632
 C12 C -0.02638 0.27378 0.03542
 C13 C 0.03480 0.27400 0.03501
 C14 C -0.02662 0.27358 -0.03591
 O15 O 0.52132 0.79241 0.47660
 O16 O 0.47516 0.79223 0.52932
 O17 O 0.52100 0.79203 0.52970
 O18 O 0.47557 0.79259 0.47613
 O19 O 0.47416 0.75388 0.47571
 O20 O 0.51915 0.75333 0.52943
 O21 O 0.47386 0.75353 0.52912
 O22 O 0.51941 0.75370 0.47611
 Cu23 Cu 0.49841 0.79622 0.50299
 Cu24 Cu 0.49646 0.74974 0.50257
 C25 C 0.52818 0.77304 0.46739
 C26 C 0.46669 0.77281 0.53818
 C27 C 0.52783 0.77254 0.53861
 C28 C 0.46720 0.77329 0.46678
 O29 O 0.97256 0.70878 -0.02446
 O30 O 1.01821 0.70901 0.02896
 O31 O 0.97247 0.70892 0.02865
 O32 O 1.01844 0.70860 -0.02424
 O33 O 1.01963 0.74728 -0.02471
 O34 O 0.97421 0.74763 0.02848
 O35 O 1.01946 0.74772 0.02874
 O36 O 0.97439 0.74746 -0.02487
 Cu37 Cu 0.99529 0.70493 0.00223
 Cu38 Cu 0.99709 0.75139 0.00187
 C39 C 0.96568 0.72814 -0.03373
 C40 C 1.02651 0.72846 0.03799
 C41 C 0.96557 0.72837 0.03757
 C42 C 1.02684 0.72792 -0.03352
 O43 O 0.52459 0.20448 0.52573
 O44 O 0.47943 0.20493 0.47186
 O45 O 0.52524 0.20489 0.47256
 O46 O 0.47875 0.20467 0.52501
 O47 O 0.48060 0.24337 0.52542
 O48 O 0.52648 0.24360 0.47280
 O49 O 0.48124 0.24364 0.47209
 O50 O 0.52586 0.24318 0.52618
 Cu51 Cu 0.50185 0.20084 0.49876
 Cu52 Cu 0.50371 0.24732 0.49916
 C53 C 0.53287 0.22380 0.53511
 C54 C 0.47269 0.22441 0.46282
 C55 C 0.53371 0.22434 0.46374
 C56 C 0.47179 0.22404 0.53411
 O57 O 0.70528 -0.02483 0.02796
 O58 O 0.70596 0.02109 -0.02524
 O59 O 0.70519 -0.02486 -0.02522
 O60 O 0.70594 0.02106 0.02791
 O61 O 0.74458 0.02169 0.02790
 O62 O 0.74384 -0.02375 -0.02529
 O63 O 0.74458 0.02154 -0.02547
 O64 O 0.74393 -0.02363 0.02806
 Cu65 Cu 0.70169 -0.00198 0.00135
 Cu66 Cu 0.74810 -0.00095 0.00130
 C67 C 0.72455 -0.03197 0.03708
 C68 C 0.72545 0.02912 -0.03444
 C69 C 0.72444 -0.03208 -0.03427
 C70 C 0.72544 0.02915 0.03693
 O71 O 0.20531 0.52000 0.47134
 O72 O 0.20593 0.47402 0.52437
 O73 O 0.20404 0.51985 0.52482
 O74 O 0.20726 0.47447 0.47134
 O75 O 0.24580 0.47877 0.47150
 O76 O 0.24263 0.52163 0.52743
 O77 O 0.24456 0.47667 0.52492
 O78 O 0.24375 0.52445 0.47466
 Cu79 Cu 0.20173 0.49680 0.49784
 Cu80 Cu 0.24807 0.50062 0.49961
 C81 C 0.22445 0.53034 0.46442
 C82 C 0.22541 0.46742 0.53348
 C83 C 0.22284 0.52825 0.53542
 C84 C 0.22711 0.46901 0.46224
 O85 O 0.29465 1.02439 0.02453
 O86 O 0.29421 0.97825 -0.02845
 O87 O 0.29438 1.02418 -0.02858
 O88 O 0.29465 0.97842 0.02474
 O89 O 0.25600 0.97736 0.02517
 O90 O 0.25575 1.02246 -0.02838
 O91 O 0.25556 0.97718 -0.02818
 O92 O 0.25602 1.02268 0.02497
 Cu93 Cu 0.29837 1.00143 -0.00196
 Cu94 Cu 0.25198 0.99978 -0.00156
 C95 C 0.27535 1.03141 0.03374
 C96 C 0.27474 0.96991 -0.03732
 C97 C 0.27497 1.03111 -0.03756
 C98 C 0.27531 0.97014 0.03400
 O99 O 0.79570 0.52362 0.52868
 O100 O 0.79678 0.47821 0.47509
 O101 O 0.79577 0.52405 0.47553
 O102 O 0.79647 0.47776 0.52827
 O103 O 0.75782 0.47591 0.52816
 O104 O 0.75713 0.52155 0.47526
 O105 O 0.75813 0.47630 0.47478
 O106 O 0.75705 0.52117 0.52858
 Cu107 Cu 0.80009 0.50113 0.50191
 Cu108 Cu 0.75367 0.49850 0.50167
 C109 C 0.77615 0.53010 0.53772
 C110 C 0.77759 0.46958 0.46581
 C111 C 0.77627 0.53063 0.46645
 C112 C 0.77719 0.46902 0.53719
 O113 O 0.24027 0.26748 0.21281
 O114 O 0.29185 0.25528 0.25489
 O115 O 0.27175 0.23544 0.21239
 O116 O 0.26085 0.28701 0.25525
 O117 O 0.23839 0.26497 0.28245
 O118 O 0.24914 0.21349 0.23954
 O119 O 0.26972 0.23284 0.28202
 O120 O 0.21817 0.24515 0.24009
 Cu121 Cu 0.26839 0.26350 0.23102
 Cu122 Cu 0.24166 0.23692 0.26385
 C123 C 0.22048 0.25822 0.21919
 C124 C 0.28951 0.24213 0.27572
 C125 C 0.26211 0.21574 0.21856
 C126 C 0.24792 0.28470 0.27626
 O127 O 0.75280 0.78728 0.24592
 O128 O 0.76506 0.73599 0.28849
 O129 O 0.78443 0.75626 0.24587
 O130 O 0.73297 0.76740 0.28854
 O131 O 0.71105 0.74468 0.26149
 O132 O 0.76249 0.73350 0.21887
 O133 O 0.74273 0.71362 0.26149
 O134 O 0.73050 0.76492 0.21887
 Cu135 Cu 0.76099 0.76396 0.27001
 Cu136 Cu 0.73449 0.73694 0.23740
 C137 C 0.73975 0.78479 0.22502
 C138 C 0.75586 0.71610 0.28232
 C139 C 0.78216 0.74315 0.22499
 C140 C 0.71329 0.75780 0.28236
 O141 O 0.75081 0.28707 0.25674
 O142 O 0.73733 0.23454 0.21521
 O143 O 0.71812 0.25471 0.25706
 O144 O 0.77053 0.26726 0.21493
 O145 O 0.79132 0.24579 0.24278
 O146 O 0.73897 0.23334 0.28496
 O147 O 0.75853 0.21352 0.24313
 O148 O 0.77207 0.26610 0.28464
 Cu149 Cu 0.74213 0.26299 0.23310
 Cu150 Cu 0.76732 0.23761 0.26676
 C151 C 0.76351 0.28547 0.27791
 C152 C 0.74579 0.21513 0.22199
 C153 C 0.71968 0.24207 0.27830
 C154 C 0.78978 0.25844 0.22155
 O155 O 0.24869 0.71557 0.26002
 O156 O 0.26429 0.76672 0.21669
 O157 O 0.28321 0.74647 0.25898
 O158 O 0.22993 0.73538 0.21803
 O159 O 0.21025 0.75761 0.24619
 O160 O 0.26411 0.77038 0.28574
 O161 O 0.24381 0.78912 0.24383
 O162 O 0.23058 0.73871 0.28865
 Cu163 Cu 0.25853 0.73880 0.23561
 Cu164 Cu 0.23519 0.76620 0.26890
 C165 C 0.23739 0.71859 0.28201
 C166 C 0.25629 0.78654 0.22266
 C167 C 0.28271 0.76023 0.27937
 C168 C 0.21103 0.74463 0.22513
 O169 O 0.71553 0.25207 0.74387
 O170 O 0.76800 0.26491 0.78573
 O171 O 0.74812 0.28455 0.74392
 O172 O 0.73495 0.23207 0.78572
 O173 O 0.75631 0.21111 0.75792
 O174 O 0.76931 0.26358 0.71596
 O175 O 0.78886 0.24361 0.75776
 O176 O 0.73636 0.23064 0.71603
 Cu177 Cu 0.73957 0.26049 0.76770
 Cu178 Cu 0.76478 0.23514 0.73403
 C179 C 0.71708 0.23935 0.72270
 C180 C 0.78731 0.25627 0.77898
 C181 C 0.76075 0.28295 0.72270
 C182 C 0.74360 0.21272 0.77909
 O183 O 0.28134 0.74321 0.74366
 O184 O 0.22880 0.73124 0.78567
 O185 O 0.24834 0.71111 0.74397
 O186 O 0.26219 0.76371 0.78533
 O187 O 0.24121 0.78480 0.75727
 O188 O 0.22736 0.73217 0.71587
 O189 O 0.20822 0.75277 0.75765
 O190 O 0.26074 0.76469 0.71561
 Cu191 Cu 0.25721 0.73520 0.76755
 Cu192 Cu 0.23231 0.76069 0.73369
 C193 C 0.27994 0.75584 0.72240
 C194 C 0.20964 0.74020 0.77896
 C195 C 0.23570 0.71273 0.72275
 C196 C 0.25389 0.78317 0.77846
 O197 O 0.21505 0.24273 0.75527
 O198 O 0.26630 0.23090 0.71241
 O199 O 0.24627 0.21128 0.75511
 O200 O 0.23453 0.26262 0.71247
 O201 O 0.25712 0.28482 0.73937
 O202 O 0.26898 0.23341 0.78197
 O203 O 0.28850 0.25348 0.73931
 O204 O 0.23733 0.26524 0.78217
 Cu205 Cu 0.23833 0.23467 0.73102
 Cu206 Cu 0.26520 0.26145 0.76348
 C207 C 0.21752 0.25585 0.77612
 C208 C 0.28609 0.24036 0.71847
 C209 C 0.25944 0.21364 0.77591
 C210 C 0.24395 0.28243 0.71857
 O211 O 0.73308 0.76542 0.71676
 O212 O 0.78461 0.75475 0.75953
 O213 O 0.76529 0.73415 0.71705
 O214 O 0.75286 0.78562 0.75915
 O215 O 0.73072 0.76333 0.78644
 O216 O 0.74301 0.71185 0.74418
 O217 O 0.76282 0.73196 0.78664
 O218 O 0.71123 0.74280 0.74400
 Cu219 Cu 0.76114 0.76220 0.73529
 Cu220 Cu 0.73476 0.73526 0.76812
 C221 C 0.71341 0.75582 0.72303
 C222 C 0.78245 0.74169 0.78046
 C223 C 0.75613 0.71428 0.72334
 C224 C 0.73986 0.78320 0.78008
 C225 C 0.27449 0.08364 0.09146
 N226 N 0.29501 0.07740 0.08010
 N227 N 0.29538 0.06026 0.06158
 C228 C 0.27521 0.04895 0.05352
 N229 N 0.25472 0.05528 0.06487
 N230 N 0.25438 0.07221 0.08358
 C231 C 0.27382 0.10265 0.11163
 N232 N 0.25456 0.10510 0.12743
 N233 N 0.25356 0.12261 0.14532
 C234 C 0.27167 0.13849 0.14787
 N235 N 0.29096 0.13609 0.13205
 N236 N 0.29206 0.11840 0.11434
 C237 C 0.27001 0.15823 0.16694
 N238 N 0.28464 0.17742 0.16475
 N239 N 0.28232 0.19571 0.18135
 C240 C 0.26544 0.19535 0.20090
 N241 N 0.25099 0.17606 0.20326
 N242 N 0.25317 0.15789 0.18650
 C243 C 0.77365 0.58246 0.59722
 N244 N 0.79383 0.57882 0.58348
 N245 N 0.79476 0.56193 0.56473
 C246 C 0.77548 0.54824 0.55890
 N247 N 0.75532 0.55190 0.57262
 N248 N 0.75445 0.56863 0.59152
 C249 C 0.77232 0.60135 0.61743
 N250 N 0.75368 0.60221 0.63454
 N251 N 0.75202 0.61969 0.65237
 C252 C 0.76883 0.63706 0.65360
 N253 N 0.78750 0.63621 0.63651
 N254 N 0.78927 0.61861 0.61883
 C255 C 0.76635 0.65679 0.67247
 N256 N 0.77988 0.67670 0.66968
 N257 N 0.77682 0.69497 0.68607
 C258 C 0.76026 0.69391 0.70598
 N259 N 0.74691 0.67393 0.70894
 N260 N 0.74984 0.65573 0.69242
 C261 C 0.72537 0.91572 0.09683
 N262 N 0.70540 0.91977 0.08284
 N263 N 0.70501 0.93662 0.06399
 C264 C 0.72462 0.94985 0.05828
 N265 N 0.74457 0.94575 0.07223
 N266 N 0.74491 0.92908 0.09124
 C267 C 0.72613 0.89695 0.11730
 N268 N 0.74454 0.89595 0.13472
 N269 N 0.74571 0.87862 0.15283
 C270 C 0.72861 0.86152 0.15403
 N271 N 0.71017 0.86251 0.13661
 N272 N 0.70889 0.87998 0.11865
 C273 C 0.73058 0.84195 0.17326
 N274 N 0.71688 0.82215 0.17053
 N275 N 0.71956 0.80399 0.18723
 C276 C 0.73590 0.80508 0.20739
 N277 N 0.74941 0.82496 0.21029
 N278 N 0.74686 0.84303 0.19346
 C279 C 0.22762 0.41420 0.59197
 N280 N 0.20753 0.41795 0.57810
 N281 N 0.20670 0.43506 0.55961
 C282 C 0.22599 0.44886 0.55417
 N283 N 0.24606 0.44505 0.56800
 N284 N 0.24684 0.42810 0.58664
 C285 C 0.22883 0.39520 0.61209
 N286 N 0.24738 0.39427 0.62931
 N287 N 0.24891 0.37678 0.64715
 C288 C 0.23203 0.35946 0.64828
 N289 N 0.21344 0.36038 0.63106
 N290 N 0.21182 0.37800 0.61336
 C291 C 0.23432 0.33977 0.66725
 N292 N 0.22064 0.31996 0.66455
 N293 N 0.22351 0.30173 0.68108
 C294 C 0.24003 0.30275 0.70104
 N295 N 0.25354 0.32264 0.70391
 N296 N 0.25080 0.34078 0.68725
 C297 C 0.92202 0.27263 0.09389
 N298 N 0.93201 0.25257 0.08593
 N299 N 0.94873 0.25300 0.06697
 C300 C 0.95630 0.27355 0.05544
 N301 N 0.94643 0.29368 0.06358
 N302 N 0.92950 0.29321 0.08235
 C303 C 0.90319 0.27185 0.11432
 N304 N 0.88852 0.28987 0.11695
 N305 N 0.87092 0.28861 0.13484
 C306 C 0.86754 0.26940 0.15095
 N307 N 0.88235 0.25152 0.14849
 N308 N 0.89977 0.25267 0.13042
 C309 C 0.84779 0.26751 0.17012
 N310 N 0.84733 0.25089 0.18998
 N311 N 0.82904 0.24840 0.20673
 C312 C 0.81043 0.26228 0.20407
 N313 N 0.81089 0.27894 0.18423
 N314 N 0.82931 0.28159 0.16764
 C315 C 0.41363 0.77125 0.59699
 N316 N 0.42578 0.75184 0.59157
 N317 N 0.44272 0.75240 0.57288
 C318 C 0.44829 0.77246 0.55909
 N319 N 0.43627 0.79196 0.56464
 N320 N 0.41916 0.79133 0.58317
 C321 C 0.39451 0.77026 0.61704
 N322 N 0.37864 0.78734 0.61801
 N323 N 0.36082 0.78587 0.63557
 C324 C 0.35837 0.76740 0.65296
 N325 N 0.37436 0.75046 0.65214
 N326 N 0.39205 0.75182 0.63443
 C327 C 0.33838 0.76526 0.67174
 N328 N 0.33812 0.74910 0.69211
 N329 N 0.31965 0.74645 0.70857
 C330 C 0.30069 0.75972 0.70512
 N331 N 0.30095 0.77592 0.68477
 N332 N 0.31951 0.77871 0.66845
 C333 C 0.07823 0.72992 0.09846
 N334 N 0.06648 0.74945 0.09238
 N335 N 0.05000 0.74893 0.07312
 C336 C 0.04452 0.72881 0.05939
 N337 N 0.05614 0.70921 0.06560
 N338 N 0.07279 0.70979 0.08470
 C339 C 0.09690 0.73081 0.11910
 N340 N 0.11232 0.71338 0.12089
 N341 N 0.12983 0.71471 0.13889
 C342 C 0.13240 0.73341 0.15593
 N343 N 0.11683 0.75071 0.15433
 N344 N 0.09946 0.74948 0.13617
 C345 C 0.15225 0.73543 0.17494
 N346 N 0.15288 0.75202 0.19486
 N347 N 0.17138 0.75458 0.21130
 C348 C 0.19001 0.74077 0.20827
 N349 N 0.18935 0.72413 0.18842
 N350 N 0.17076 0.72143 0.17214
 C351 C 0.58486 0.22458 0.59522
 N352 N 0.57281 0.24407 0.58983
 N353 N 0.55621 0.24376 0.57072
 C354 C 0.55089 0.22388 0.55647
 N355 N 0.56280 0.20431 0.56198
 N356 N 0.57958 0.20468 0.58094
 C357 C 0.60363 0.22531 0.61571
 N358 N 0.61949 0.20824 0.61674
 N359 N 0.63706 0.20951 0.63468
 C360 C 0.63923 0.22778 0.65239
 N361 N 0.62322 0.24471 0.65153
 N362 N 0.60581 0.24355 0.63344
 C363 C 0.65899 0.22979 0.67152
 N364 N 0.65901 0.24580 0.69203
 N365 N 0.67734 0.24845 0.70870
 C366 C 0.69640 0.23530 0.70534
 N367 N 0.69638 0.21921 0.68488
 N368 N 0.67795 0.21643 0.66833
 C369 C 0.72747 0.08064 0.90692
 N370 N 0.70680 0.07344 0.91837
 N371 N 0.70605 0.05654 0.93722
 C372 C 0.72599 0.04645 0.94553
 N373 N 0.74664 0.05375 0.93409
 N374 N 0.74735 0.07043 0.91506
 C375 C 0.72856 0.09941 0.88640
 N376 N 0.74782 0.10259 0.87043
 N377 N 0.74923 0.11996 0.85227
 C378 C 0.73153 0.13496 0.84962
 N379 N 0.71224 0.13181 0.86560
 N380 N 0.71072 0.11426 0.88357
 C381 C 0.73371 0.15469 0.83041
 N382 N 0.71980 0.17333 0.83276
 N383 N 0.72271 0.19174 0.81618
 C384 C 0.73947 0.19205 0.79649
 N385 N 0.75318 0.17329 0.79395
 N386 N 0.75042 0.15500 0.81069
 C387 C 0.22425 0.58604 0.40912
 N388 N 0.20751 0.56859 0.40768
 N389 N 0.20745 0.55081 0.42538
 C390 C 0.22437 0.54969 0.44477
 N391 N 0.24121 0.56702 0.44600
 N392 N 0.24105 0.58497 0.42864
 C393 C 0.22430 0.60587 0.39009
 N394 N 0.23353 0.62706 0.39787
 N395 N 0.23403 0.64508 0.38058
 C396 C 0.22566 0.64247 0.35474
 N397 N 0.21652 0.62124 0.34688
 N398 N 0.21566 0.60329 0.36434
 C399 C 0.22725 0.66217 0.33553
 N400 N 0.22943 0.65842 0.30823
 N401 N 0.23237 0.67640 0.29104
 C402 C 0.23284 0.69876 0.30052
 N403 N 0.23031 0.70250 0.32776
 N404 N 0.22774 0.68452 0.34498
 C405 C 0.27250 0.91695 0.90361
 N406 N 0.25331 0.92943 0.90904
 N407 N 0.25412 0.94633 0.92780
 C408 C 0.27420 0.95156 0.94165
 N409 N 0.29348 0.93923 0.93609
 N410 N 0.29261 0.92214 0.91749
 C411 C 0.27119 0.89785 0.88350
 N412 N 0.28787 0.88157 0.88257
 N413 N 0.28604 0.86374 0.86499
 C414 C 0.26759 0.86170 0.84755
 N415 N 0.25106 0.87812 0.84831
 N416 N 0.25278 0.89580 0.86604
 C417 C 0.26498 0.84169 0.82879
 N418 N 0.24886 0.84179 0.80841
 N419 N 0.24571 0.82331 0.79204
 C420 C 0.25842 0.80395 0.79558
 N421 N 0.27460 0.80385 0.81591
 N422 N 0.27790 0.82243 0.83215
 C423 C 0.77750 0.41760 0.40567
 N424 N 0.75789 0.42945 0.41101
 N425 N 0.75798 0.44603 0.43016
 C426 C 0.77775 0.45153 0.44449
 N427 N 0.79744 0.43983 0.43901
 N428 N 0.79729 0.42307 0.42003
 C429 C 0.77701 0.39888 0.38510
 N430 N 0.79414 0.38307 0.38416
 N431 N 0.79305 0.36554 0.36614
 C432 C 0.77493 0.36336 0.34825
 N433 N 0.75796 0.37932 0.34903
 N434 N 0.75893 0.39670 0.36719
 C435 C 0.77308 0.34362 0.32907
 N436 N 0.75722 0.34366 0.30842
 N437 N 0.75462 0.32532 0.29174
 C438 C 0.76764 0.30618 0.29522
 N439 N 0.78359 0.30614 0.31581
 N440 N 0.78633 0.32459 0.33237
 C441 C 0.08666 0.27171 0.90398
 N442 N 0.07312 0.25232 0.90976
 N443 N 0.05646 0.25298 0.92873
 C444 C 0.05256 0.27311 0.94246
 N445 N 0.06597 0.29258 0.93656
 N446 N 0.08280 0.29186 0.91774
 C447 C 0.10544 0.27061 0.88359
 N448 N 0.12248 0.28777 0.88203
 N449 N 0.13995 0.28621 0.86415
 C450 C 0.14089 0.26754 0.84703
 N451 N 0.12374 0.25051 0.84843
 N452 N 0.10640 0.25197 0.86646
 C453 C 0.16046 0.26532 0.82787
 N454 N 0.15940 0.24881 0.80789
 N455 N 0.17744 0.24612 0.79109
 C456 C 0.19728 0.25972 0.79379
 N457 N 0.19835 0.27627 0.81374
 N458 N 0.18022 0.27909 0.83041
 C459 C 0.58113 0.77188 0.40857
 N460 N 0.56756 0.75240 0.41387
 N461 N 0.55066 0.75284 0.43257
 C462 C 0.54656 0.77283 0.44649
 N463 N 0.56000 0.79238 0.44107
 N464 N 0.57706 0.79188 0.42252
 C465 C 0.60014 0.77103 0.38849
 N466 N 0.61710 0.78830 0.38737
 N467 N 0.63478 0.78699 0.36973
 C468 C 0.63600 0.76847 0.35243
 N469 N 0.61893 0.75133 0.35341
 N470 N 0.60138 0.75254 0.37118
 C471 C 0.65576 0.76651 0.33353
 N472 N 0.65500 0.75012 0.31343
 N473 N 0.67320 0.74767 0.29683
 C474 C 0.69291 0.76140 0.29986
 N475 N 0.69369 0.77785 0.31994
 N476 N 0.67539 0.78042 0.33641
 C477 C 0.91399 0.72913 0.90800
 N478 N 0.92537 0.74924 0.91601
 N479 N 0.94213 0.74887 0.93490
 C480 C 0.94832 0.72833 0.94631
 N481 N 0.93706 0.70816 0.93812
 N482 N 0.92010 0.70857 0.91942
 C483 C 0.89514 0.72983 0.88767
 N484 N 0.87944 0.71156 0.88479
 N485 N 0.86187 0.71269 0.86697
 C486 C 0.85953 0.73203 0.85119
 N487 N 0.87535 0.75018 0.85390
 N488 N 0.89276 0.74915 0.87190
 C489 C 0.83987 0.73373 0.83206
 N490 N 0.84019 0.75067 0.81259
 N491 N 0.82206 0.75287 0.79582
 C492 C 0.80283 0.73835 0.79807
 N493 N 0.80249 0.72136 0.81753
 N494 N 0.82074 0.71902 0.83414
 C495 C 0.42074 0.22617 0.40282
 N496 N 0.43422 0.24559 0.40867
 N497 N 0.45081 0.24496 0.42774
 C498 C 0.45468 0.22483 0.44149
 N499 N 0.44133 0.20534 0.43551
 N500 N 0.42457 0.20603 0.41660
 C501 C 0.40200 0.22723 0.38240
 N502 N 0.38499 0.21004 0.38087
 N503 N 0.36750 0.21156 0.36300
 C504 C 0.36653 0.23021 0.34587
 N505 N 0.38366 0.24726 0.34724
 N506 N 0.40102 0.24585 0.36525
 C507 C 0.34690 0.23243 0.32683
 N508 N 0.34787 0.24894 0.30685
 N509 N 0.32973 0.25168 0.29022
 C510 C 0.30988 0.23813 0.29310
 N511 N 0.30891 0.22156 0.31304
 N512 N 0.32714 0.21870 0.32953
 C513 C 0.72514 0.91525 0.90646
 N514 N 0.70520 0.91937 0.92045
 N515 N 0.70484 0.93636 0.93914
 C516 C 0.72446 0.94964 0.94467
 N517 N 0.74438 0.94547 0.93070
 N518 N 0.74468 0.92866 0.91185
 C519 C 0.72588 0.89632 0.88622
 N520 N 0.74424 0.89523 0.86875
 N521 N 0.74543 0.87772 0.85089
 C522 C 0.72841 0.86053 0.85000
 N523 N 0.71001 0.86161 0.86746
 N524 N 0.70872 0.87926 0.88518
 C525 C 0.73043 0.84078 0.83106
 N526 N 0.71687 0.82093 0.83412
 N527 N 0.71963 0.80262 0.81768
 C528 C 0.73592 0.80360 0.79746
 N529 N 0.74929 0.82354 0.79424
 N530 N 0.74666 0.84176 0.81080
 C531 C 0.23125 0.41659 0.40292
 N532 N 0.21088 0.41996 0.41635
 N533 N 0.20949 0.43689 0.43498
 C534 C 0.22847 0.45092 0.44102
 N535 N 0.24885 0.44755 0.42760
 N536 N 0.25019 0.43075 0.40881
 C537 C 0.23294 0.39758 0.38287
 N538 N 0.25177 0.39658 0.36606
 N539 N 0.25353 0.37906 0.34828
 C540 C 0.23661 0.36178 0.34680
 N541 N 0.21778 0.36277 0.36361
 N542 N 0.21593 0.38040 0.38124
 C543 C 0.23897 0.34205 0.32785
 N544 N 0.22506 0.32238 0.33040
 N545 N 0.22776 0.30417 0.31381
 C546 C 0.24433 0.30504 0.29392
 N547 N 0.25810 0.32479 0.29122
 N548 N 0.25553 0.34292 0.30795
 C549 C 0.27350 0.08261 0.90395
 N550 N 0.25347 0.07130 0.91229
 N551 N 0.25400 0.05462 0.93127
 C552 C 0.27461 0.04842 0.94243
 N553 N 0.29470 0.05961 0.93391
 N554 N 0.29414 0.07650 0.91512
 C555 C 0.27264 0.10137 0.88350
 N556 N 0.29083 0.11711 0.88037
 N557 N 0.28954 0.13460 0.86244
 C558 C 0.27012 0.13681 0.84680
 N559 N 0.25205 0.12093 0.84977
 N560 N 0.25324 0.10360 0.86788
 C561 C 0.26822 0.15638 0.82759
 N562 N 0.25120 0.15585 0.80823
 N563 N 0.24876 0.17393 0.79142
 C564 C 0.26312 0.19331 0.79351
 N565 N 0.28018 0.19386 0.81284
 N566 N 0.28277 0.17565 0.82950
 C567 C 0.77374 0.58375 0.40782
 N568 N 0.75461 0.56973 0.41318
 N569 N 0.75551 0.55278 0.43180
 C570 C 0.77563 0.54906 0.44558
 N571 N 0.79485 0.56295 0.44009
 N572 N 0.79389 0.58007 0.42162
 C573 C 0.77235 0.60284 0.38783
 N574 N 0.78918 0.62023 0.38669
 N575 N 0.78733 0.63796 0.36917
 C576 C 0.76869 0.63881 0.35202
 N577 N 0.75200 0.62131 0.35302
 N578 N 0.75374 0.60371 0.37068
 C579 C 0.76615 0.65861 0.33324
 N580 N 0.74966 0.65753 0.31326
 N581 N 0.74669 0.67573 0.29675
 C582 C 0.75998 0.69576 0.29976
 N583 N 0.77650 0.69685 0.31972
 N584 N 0.77960 0.67856 0.33610
 C585 C 0.07824 0.72844 0.90782
 N586 N 0.07061 0.70797 0.91947
 N587 N 0.05377 0.70773 0.93835
 C588 C 0.04417 0.72798 0.94649
 N589 N 0.05190 0.74844 0.93487
 N590 N 0.06853 0.74864 0.91580
 C591 C 0.09690 0.72891 0.88721
 N592 N 0.10045 0.74799 0.87098
 N593 N 0.11771 0.74879 0.85269
 C594 C 0.13220 0.73065 0.85013
 N595 N 0.12868 0.71156 0.86637
 N596 N 0.11124 0.71064 0.88449
 C597 C 0.15180 0.73215 0.83075
 N598 N 0.17008 0.71780 0.83318
 N599 N 0.18842 0.72011 0.81643
 C600 C 0.18899 0.73667 0.79649
 N601 N 0.17058 0.75081 0.79387
 N602 N 0.15237 0.74866 0.81077
 C603 C 0.58674 0.22610 0.40485
 N604 N 0.58130 0.20600 0.41867
 N605 N 0.56422 0.20530 0.43725
 C606 C 0.55215 0.22476 0.44285
 N607 N 0.55764 0.24484 0.42908
 N608 N 0.57454 0.24547 0.41034
 C609 C 0.60577 0.22716 0.38467
 N610 N 0.60806 0.24561 0.36725
 N611 N 0.62564 0.24702 0.34938
 C612 C 0.64169 0.23015 0.34843
 N613 N 0.63942 0.21167 0.36584
 N614 N 0.62170 0.21015 0.38356
 C615 C 0.66156 0.23236 0.32945
 N616 N 0.68051 0.21899 0.33257
 N617 N 0.69896 0.22186 0.31608
 C618 C 0.69902 0.23805 0.29572
 N619 N 0.67996 0.25122 0.29244
 N620 N 0.66162 0.24849 0.30906
 C621 C 0.92047 0.27200 0.90509
 N622 N 0.92591 0.29206 0.91898
 N623 N 0.94297 0.29268 0.93759
 C624 C 0.95502 0.27320 0.94314
 N625 N 0.94953 0.25316 0.92928
 N626 N 0.93265 0.25260 0.91051
 C627 C 0.90144 0.27102 0.88493
 N628 N 0.89913 0.25265 0.86741
 N629 N 0.88153 0.25131 0.84957
 C630 C 0.86548 0.26819 0.84875
 N631 N 0.86778 0.28659 0.86626
 N632 N 0.88552 0.28804 0.88395
 C633 C 0.84558 0.26604 0.82984
 N634 N 0.82660 0.27935 0.83311
 N635 N 0.80810 0.27648 0.81670
 C636 C 0.80802 0.26036 0.79628
 N637 N 0.82710 0.24725 0.79283
 N638 N 0.84550 0.24997 0.80938
 C639 C 0.41540 0.77281 0.40641
 N640 N 0.42111 0.79280 0.42032
 N641 N 0.43779 0.79306 0.43939
 C642 C 0.44918 0.77327 0.44540
 N643 N 0.44344 0.75330 0.43151
 N644 N 0.42693 0.75310 0.41230
 C645 C 0.39672 0.77227 0.38579
 N646 N 0.39382 0.75363 0.36874
 N647 N 0.37646 0.75271 0.35057
 C648 C 0.36123 0.77032 0.34891
 N649 N 0.36414 0.78899 0.36593
 N650 N 0.38164 0.79000 0.38396
 C651 C 0.34142 0.76864 0.32982
 N652 N 0.32329 0.78317 0.33224
 N653 N 0.30473 0.78076 0.31586
 C654 C 0.30372 0.76387 0.29630
 N655 N 0.32198 0.74953 0.29367
 N656 N 0.34045 0.75182 0.31018
 C657 C 0.27384 0.91752 0.09344
 N658 N 0.25463 0.93006 0.08837
 N659 N 0.25519 0.94685 0.06948
 C660 C 0.27505 0.95190 0.05513
 N661 N 0.29435 0.93948 0.06031
 N662 N 0.29372 0.92250 0.07905
 C663 C 0.27278 0.89866 0.11384
 N664 N 0.28929 0.88218 0.11458
 N665 N 0.28766 0.86463 0.13256
 C666 C 0.26959 0.86308 0.15058
 N667 N 0.25324 0.87968 0.14997
 N668 N 0.25475 0.89707 0.13186
 C669 C 0.26718 0.84351 0.16997
 N670 N 0.25155 0.84437 0.19078
 N671 N 0.24849 0.82636 0.20783
 C672 C 0.26082 0.80671 0.20460
 N673 N 0.27653 0.80583 0.18382
 N674 N 0.27973 0.82396 0.16686
 C675 C 0.77626 0.41613 0.59632
 N676 N 0.75679 0.42820 0.59097
 N677 N 0.75717 0.44506 0.57216
 C678 C 0.77710 0.45066 0.55818
 N679 N 0.79665 0.43873 0.56365
 N680 N 0.79621 0.42168 0.58230
 C681 C 0.77543 0.39712 0.61655
 N682 N 0.79242 0.38116 0.61745
 N683 N 0.79104 0.36342 0.63518
 C684 C 0.77274 0.36116 0.65281
 N685 N 0.75590 0.37726 0.65207
 N686 N 0.75717 0.39485 0.63419
 C687 C 0.77062 0.34126 0.67177
 N688 N 0.75464 0.34125 0.69230
 N689 N 0.75189 0.32284 0.70886
 C690 C 0.76489 0.30367 0.70537
 N691 N 0.78093 0.30368 0.68489
 N692 N 0.78382 0.32219 0.66845
 C693 C 0.72769 0.08184 0.09626
 N694 N 0.74687 0.06936 0.09081
 N695 N 0.74608 0.05254 0.07194
 C696 C 0.72602 0.04743 0.05800
 N697 N 0.70676 0.05977 0.06357
 N698 N 0.70761 0.07676 0.08228
 C699 C 0.72895 0.10082 0.11648
 N700 N 0.71221 0.11704 0.11750
 N701 N 0.71396 0.13478 0.13519
 C702 C 0.73240 0.13680 0.15265
 N703 N 0.74899 0.12045 0.15180
 N704 N 0.74735 0.10285 0.13396
 C705 C 0.73493 0.15673 0.17150
 N706 N 0.75109 0.15665 0.19183
 N707 N 0.75417 0.17510 0.20826
 C708 C 0.74134 0.19439 0.20483
 N709 N 0.72512 0.19447 0.18454
 N710 N 0.72190 0.17592 0.16824
 C711 C 0.22136 0.57976 0.59607
 N712 N 0.24086 0.56746 0.59179
 N713 N 0.24119 0.55097 0.57257
 C714 C 0.22196 0.54598 0.55708
 N715 N 0.20234 0.55811 0.56150
 N716 N 0.20208 0.57480 0.58058
 C717 C 0.22159 0.59854 0.61661
 N718 N 0.20494 0.61488 0.61664
 N719 N 0.20600 0.63254 0.63451
 C720 C 0.22361 0.63434 0.65312
 N721 N 0.24007 0.61785 0.65325
 N722 N 0.23913 0.60034 0.63526
 C723 C 0.22557 0.65425 0.67211
 N724 N 0.24109 0.65405 0.69311
 N725 N 0.24387 0.67251 0.70959
 C726 C 0.23137 0.69194 0.70556
 N727 N 0.21576 0.69213 0.68463
 N728 N 0.21284 0.67358 0.66825
 C729 C 0.91313 0.72971 0.09699
 N730 N 0.91725 0.70961 0.08327
 N731 N 0.93412 0.70909 0.06450
 C732 C 0.94732 0.72870 0.05861
 N733 N 0.94316 0.74879 0.07230
 N734 N 0.92644 0.74926 0.09123
 C735 C 0.89435 0.73053 0.11737
 N736 N 0.89311 0.74912 0.13454
 N737 N 0.87577 0.75024 0.15261
 C738 C 0.85892 0.73291 0.15404
 N739 N 0.86014 0.71430 0.13688
 N740 N 0.87761 0.71308 0.11894
 C741 C 0.83935 0.73474 0.17323
 N742 N 0.81983 0.72064 0.17066
 N743 N 0.80166 0.72311 0.18736
 C744 C 0.80247 0.73962 0.20736
 N745 N 0.82209 0.75354 0.21009
 N746 N 0.84016 0.75120 0.19327
 C747 C 0.41839 0.22541 0.59241
 N748 N 0.42248 0.20538 0.57853
 N749 N 0.43968 0.20480 0.56015
 C750 C 0.45325 0.22429 0.55485
 N751 N 0.44912 0.24430 0.56870
 N752 N 0.43208 0.24482 0.58723
 C753 C 0.39926 0.22637 0.61237
 N754 N 0.39807 0.24486 0.62968
 N755 N 0.38046 0.24618 0.64737
 C756 C 0.36327 0.22917 0.64824
 N757 N 0.36443 0.21065 0.63092
 N758 N 0.38217 0.20922 0.61338
 C759 C 0.34349 0.23125 0.66714
 N760 N 0.32375 0.21750 0.66424
 N761 N 0.30548 0.22019 0.68075
 C762 C 0.30640 0.23660 0.70088
 N763 N 0.32622 0.25017 0.70391
 N764 N 0.34438 0.24760 0.68728
 C765 C 0.08787 0.27297 0.09372
 N766 N 0.08376 0.29296 0.07976
 N767 N 0.06664 0.29342 0.06126
 C768 C 0.05320 0.27386 0.05590
 N769 N 0.05735 0.25389 0.06984
 N770 N 0.07429 0.25349 0.08849
 C771 C 0.10695 0.27214 0.11374
 N772 N 0.10814 0.25373 0.13116
 N773 N 0.12575 0.25250 0.14886
 C774 C 0.14293 0.26952 0.14963
 N775 N 0.14176 0.28797 0.13222
 N776 N 0.12401 0.28931 0.11466
 C777 C 0.16276 0.26750 0.16844
 N778 N 0.18254 0.28115 0.16531
 N779 N 0.20090 0.27843 0.18167
 C780 C 0.20004 0.26209 0.20187
 N781 N 0.18018 0.24863 0.20515
 N782 N 0.16192 0.25122 0.18868
 C783 C 0.58075 0.77065 0.59746
 N784 N 0.57664 0.79084 0.58390
 N785 N 0.55956 0.79157 0.56539
 C786 C 0.54613 0.77208 0.55962
 N787 N 0.55026 0.75192 0.57317
 N788 N 0.56719 0.75124 0.59183
 C789 C 0.59985 0.76957 0.61743
 N790 N 0.60121 0.75087 0.63443
 N791 N 0.61884 0.74948 0.65208
 C792 C 0.63589 0.76663 0.65322
 N793 N 0.63455 0.78535 0.63624
 N794 N 0.61679 0.78684 0.61873
 C795 C 0.65574 0.76454 0.67201
 N796 N 0.67533 0.77851 0.66917
 N797 N 0.69367 0.77590 0.68557
 C798 C 0.69299 0.75936 0.70554
 N799 N 0.67333 0.74555 0.70852
 N800 N 0.65508 0.74803 0.69199
   
