data_POSCAR
  _audit_creation_date              2014-09-24
  _audit_creation_method            'ToBaCCo'
  _symmetry_space_group_name_H-M    'P1'
  _symmetry_Int_Tables_number       1
  _symmetry_cell_setting            triclinic
  loop_
  _symmetry_equiv_pos_as_xyz
 x,y,z
_cell_length_a 22.8418
_cell_length_b 22.7689
_cell_length_c 25.0064
_cell_angle_alpha 89.629300
_cell_angle_beta 89.917000
_cell_angle_gamma 78.253000
loop_
  _atom_site_label
  _atom_site_type_symbol
  _atom_site_fract_x
  _atom_site_fract_y
  _atom_site_fract_z
O1 O -0.06694 0.28824 0.07968
 O2 O 0.00051 0.35239 -0.03579
 O3 O -0.10424 0.33329 -0.01336
 O4 O 0.03685 0.31792 0.06030
 O5 O 0.06870 0.22821 0.02518
 O6 O -0.07467 0.24207 -0.04603
 O7 O 0.02906 0.26101 -0.06843
 O8 O -0.03346 0.19753 0.04739
 Cu9 Cu -0.03655 0.33190 0.02657
 Cu10 Cu 0.00003 0.22266 -0.01299
 C11 C -0.06125 0.23161 0.08294
 C12 C 0.02595 0.31707 -0.07204
 C13 C -0.11270 0.29124 -0.04345
 C14 C 0.07747 0.27158 0.05370
 O15 O 0.57790 0.75316 0.45888
 O16 O 0.45207 0.81472 0.54764
 O17 O 0.56325 0.76099 0.56319
 O18 O 0.46898 0.80911 0.44492
 O19 O 0.44134 0.72158 0.44380
 O20 O 0.53553 0.67357 0.56255
 O21 O 0.42444 0.72720 0.54747
 O22 O 0.55015 0.66568 0.45865
 Cu23 Cu 0.51856 0.79315 0.50403
 Cu24 Cu 0.48502 0.68823 0.50338
 C25 C 0.58448 0.69949 0.44259
 C26 C 0.41680 0.78132 0.56255
 C27 C 0.56521 0.70925 0.58322
 C28 C 0.44001 0.77325 0.42371
 O29 O 0.93172 0.72297 -0.04179
 O30 O 1.06494 0.67626 0.04371
 O31 O 0.94859 0.71478 0.06357
 O32 O 1.04165 0.67619 -0.05631
 O33 O 1.05787 0.76860 -0.06000
 O34 O 0.96524 0.80687 0.06117
 O35 O 1.08091 0.76866 0.04259
 O36 O 0.94831 0.81518 -0.04276
 Cu37 Cu 0.99436 0.68865 0.00383
 Cu38 Cu 1.01469 0.79912 0.00078
 C39 C 0.91931 0.77676 -0.05902
 C40 C 1.09678 0.71398 0.05605
 C41 C 0.94052 0.76727 0.08264
 C42 C 1.06466 0.71598 -0.07918
 O43 O 0.55039 0.15953 0.54834
 O44 O 0.44821 0.20621 0.43672
 O45 O 0.55564 0.20174 0.45393
 O46 O 0.42809 0.18155 0.53958
 O47 O 0.41196 0.27680 0.56266
 O48 O 0.53820 0.29661 0.47953
 O49 O 0.43321 0.30059 0.46361
 O50 O 0.53384 0.25272 0.57737
 Cu51 Cu 0.49496 0.17741 0.49463
 Cu52 Cu 0.47851 0.28946 0.52642
 C53 C 0.56162 0.19850 0.58048
 C54 C 0.42734 0.26155 0.42881
 C55 C 0.56577 0.25464 0.45021
 C56 C 0.39732 0.22614 0.56439
 O57 O 0.70485 0.06607 -0.02402
 O58 O 0.66348 -0.04131 0.07359
 O59 O 0.70349 0.05637 0.08125
 O60 O 0.65247 -0.02516 -0.03042
 O61 O 0.74285 -0.08239 -0.03556
 O62 O 0.79145 -0.00586 0.07988
 O63 O 0.75309 -0.09972 0.06564
 O64 O 0.79595 0.01022 -0.02597
 Cu65 Cu 0.67206 0.01988 0.02534
 Cu66 Cu 0.78024 -0.04897 0.01920
 C67 C 0.75818 0.05589 -0.04154
 C68 C 0.70198 -0.08776 0.08736
 C69 C 0.75451 0.03646 0.10169
 C70 C 0.68914 -0.06775 -0.05191
 O71 O 0.23511 0.57046 0.40569
 O72 O 0.16774 0.48468 0.50571
 O73 O 0.18783 0.59580 0.49924
 O74 O 0.19518 0.47110 0.40665
 O75 O 0.28304 0.42806 0.44042
 O76 O 0.27712 0.55655 0.53194
 O77 O 0.25755 0.44802 0.53888
 O78 O 0.32421 0.52895 0.43750
 Cu79 Cu 0.18756 0.53511 0.45162
 Cu80 Cu 0.29435 0.48697 0.48975
 C81 C 0.29175 0.56388 0.40494
 C82 C 0.20191 0.45002 0.53801
 C83 C 0.23097 0.59864 0.53019
 C84 C 0.23910 0.42731 0.40921
 O85 O 0.33693 1.04630 -0.00070
 O86 O 0.27550 0.95109 -0.09580
 O87 O 0.27696 1.06142 -0.09628
 O88 O 0.32410 0.92893 -0.00910
 O89 O 0.24618 0.95827 0.04393
 O90 O 0.20129 1.09001 -0.04110
 O91 O 0.19178 0.96928 -0.04870
 O92 O 0.25247 1.06583 0.04499
 Cu93 Cu 0.31322 0.99715 -0.05304
 Cu94 Cu 0.21247 1.02237 0.00147
 C95 C 0.30564 1.07265 0.03768
 C96 C 0.22433 0.94067 -0.08522
 C97 C 0.23182 1.09999 -0.08133
 C98 C 0.29154 0.91946 0.03011
 O99 O 0.80469 0.40790 0.46823
 O100 O 0.83502 0.49520 0.58424
 O101 O 0.78475 0.40297 0.57149
 O102 O 0.85038 0.50141 0.47974
 O103 O 0.76214 0.56282 0.47393
 O104 O 0.69586 0.46073 0.55826
 O105 O 0.74549 0.55350 0.57590
 O106 O 0.71897 0.47187 0.45531
 Cu107 Cu 0.82760 0.44588 0.52739
 Cu108 Cu 0.72132 0.51774 0.51583
 C109 C 0.75843 0.42740 0.44034
 C110 C 0.79514 0.53879 0.60009
 C111 C 0.72870 0.41514 0.57998
 C112 C 0.81657 0.54795 0.46002
 C113 C 0.30794 0.21887 0.17404
 C114 C 0.24721 0.24909 0.17584
 C115 C 0.22426 0.27938 0.22239
 C116 C 0.26246 0.28528 0.26471
 C117 C 0.32431 0.26254 0.25981
 C118 C 0.34657 0.22758 0.21562
 H119 H 0.39369 0.20708 0.21392
 H120 H 0.17738 0.30082 0.22468
 C121 C 0.74099 0.76877 0.23113
 C122 C 0.80419 0.74890 0.23022
 C123 C 0.83203 0.70572 0.26785
 C124 C 0.79860 0.68228 0.30720
 C125 C 0.73558 0.70144 0.30673
 C126 C 0.70804 0.74374 0.26926
 H127 H 0.65973 0.75620 0.26973
 H128 H 0.88030 0.69228 0.26749
 C129 C 0.81037 0.20946 0.23409
 C130 C 0.77091 0.17125 0.24795
 C131 C 0.72734 0.18858 0.28766
 C132 C 0.72124 0.24444 0.31269
 C133 C 0.76176 0.28175 0.29947
 C134 C 0.80503 0.26444 0.26001
 H135 H 0.83548 0.29374 0.25005
 H136 H 0.69593 0.16007 0.29678
 C137 C 0.26801 0.71453 0.17313
 C138 C 0.29174 0.76653 0.16574
 C139 C 0.32107 0.78845 0.20822
 C140 C 0.33185 0.75717 0.25715
 C141 C 0.31378 0.70137 0.26181
 C142 C 0.28001 0.68237 0.22113
 H143 H 0.26343 0.64141 0.22693
 H144 H 0.33843 0.82868 0.20156
 C145 C 0.69883 0.21556 0.72568
 C146 C 0.70748 0.27550 0.72413
 C147 C 0.73383 0.29799 0.76803
 C148 C 0.75330 0.26196 0.81292
 C149 C 0.74779 0.20137 0.81316
 C150 C 0.71951 0.17933 0.77033
 H151 H 0.71378 0.13326 0.77200
 H152 H 0.73969 0.34407 0.76697
 C153 C 0.25761 0.78470 0.69219
 C154 C 0.23179 0.73511 0.68005
 C155 C 0.19968 0.71132 0.71952
 C156 C 0.19056 0.73699 0.77072
 C157 C 0.21525 0.78808 0.78250
 C158 C 0.24833 0.81083 0.74290
 H159 H 0.26914 0.84818 0.75250
 H160 H 0.17882 0.67426 0.70905
 C161 C 0.18748 0.31569 0.68533
 C162 C 0.23286 0.26414 0.69345
 C163 C 0.23858 0.23635 0.74417
 C164 C 0.20090 0.25929 0.78692
 C165 C 0.15528 0.31123 0.77796
 C166 C 0.15013 0.33885 0.72778
 H167 H 0.11498 0.37811 0.72108
 H168 H 0.27306 0.19650 0.75048
 C169 C 0.75975 0.68721 0.74194
 C170 C 0.69888 0.71555 0.73458
 C171 C 0.67413 0.76577 0.76553
 C172 C 0.70844 0.78884 0.80379
 C173 C 0.76987 0.76192 0.80930
 C174 C 0.79416 0.71123 0.77931
 H175 H 0.84135 0.69211 0.78378
 H176 H 0.62714 0.78556 0.76072
 C177 C 0.32825 0.11103 0.07155
 C178 C 0.38547 0.12209 0.07024
 C179 C 0.38650 0.16390 0.10913
 C180 C 0.32961 0.17573 0.13065
 O181 O 0.29455 0.14342 0.10808
 H182 H 0.42183 0.10239 0.04401
 H183 H 0.42381 0.18413 0.11972
 C184 C 0.80544 0.57190 0.64790
 C185 C 0.85170 0.55398 0.68339
 C186 C 0.84118 0.59472 0.72373
 C187 C 0.78926 0.63477 0.70964
 O188 O 0.76791 0.62077 0.66341
 H189 H 0.88763 0.51492 0.68095
 H190 H 0.86761 0.59399 0.75966
 C191 C 0.69025 0.87611 0.12933
 C192 C 0.63877 0.88678 0.15947
 C193 C 0.65014 0.84733 0.20112
 C194 C 0.70788 0.81496 0.19334
 O195 O 0.73179 0.83238 0.14932
 H196 H 0.59904 0.92130 0.15349
 H197 H 0.62034 0.84499 0.23434
 C198 C 0.17810 0.40938 0.57343
 C199 C 0.12096 0.39878 0.57087
 C200 C 0.11863 0.35772 0.61022
 C201 C 0.17475 0.34604 0.63334
 O202 O 0.21092 0.37744 0.61110
 H203 H 0.08520 0.41926 0.54422
 H204 H 0.07987 0.34051 0.62256
 C205 C 0.91256 0.20470 0.12806
 C206 C 0.92853 0.14507 0.14240
 C207 C 0.89309 0.13848 0.18486
 C208 C 0.85706 0.19435 0.19245
 O209 O 0.86967 0.23490 0.15854
 H210 H 0.96252 0.11075 0.12444
 H211 H 0.89450 0.09799 0.20797
 C212 C 0.36728 0.80493 0.59883
 C213 C 0.35151 0.86385 0.61483
 C214 C 0.30657 0.86503 0.65099
 C215 C 0.29836 0.80663 0.65429
 O216 O 0.33516 0.77021 0.62254
 H217 H 0.37120 0.90113 0.60239
 H218 H 0.28325 0.90364 0.67287
 C219 C 0.15301 0.69356 0.08574
 C220 C 0.17945 0.63404 0.09296
 C221 C 0.22837 0.63419 0.12388
 C222 C 0.22842 0.69387 0.13343
 O223 O 0.18276 0.73016 0.10994
 H224 H 0.16416 0.59516 0.07825
 H225 H 0.25926 0.59530 0.13924
 C226 C 0.60843 0.18149 0.62091
 C227 C 0.64222 0.12453 0.62777
 C228 C 0.68147 0.12956 0.66762
 C229 C 0.66884 0.18940 0.68191
 O230 O 0.62445 0.22078 0.65351
 H231 H 0.63892 0.08438 0.60603
 H232 H 0.71554 0.09390 0.68394
 C233 C 0.77635 0.09634 0.91851
 C234 C 0.83488 0.09474 0.90380
 C235 C 0.83191 0.13566 0.86342
 C236 C 0.77187 0.15944 0.85676
 O237 O 0.73785 0.13520 0.88966
 H238 H 0.87478 0.06610 0.91978
 H239 H 0.86884 0.14594 0.84053
 C240 C 0.31985 0.59821 0.36666
 C241 C 0.38074 0.59274 0.36044
 C242 C 0.38693 0.63254 0.32097
 C243 C 0.32935 0.66017 0.30734
 O244 O 0.28860 0.63853 0.33418
 H245 H 0.41617 0.56267 0.38147
 H246 H 0.42823 0.63989 0.30347
 C247 C 0.20785 0.88797 0.89081
 C248 C 0.20751 0.83707 0.92070
 C249 C 0.21072 0.79212 0.88461
 C250 C 0.20963 0.81928 0.83494
 O251 O 0.21061 0.87716 0.83894
 H252 H 0.21105 0.83224 0.96374
 H253 H 0.21667 0.74478 0.89379
 C254 C 0.75306 0.40124 0.38802
 C255 C 0.74193 0.43477 0.34175
 C256 C 0.74707 0.39404 0.30153
 C257 C 0.75989 0.33894 0.32676
 O258 O 0.76420 0.34301 0.37922
 H259 H 0.73279 0.48303 0.33794
 H260 H 0.74025 0.40315 0.25922
 C261 C 0.05292 0.33855 0.88431
 C262 C 0.05726 0.39743 0.87562
 C263 C 0.09429 0.39574 0.83241
 C264 C 0.10979 0.33597 0.81844
 O265 O 0.08350 0.30165 0.84898
 H266 H 0.03826 0.43625 0.89936
 H267 H 0.11068 0.43297 0.81504
 C268 C 0.63100 0.67743 0.40297
 C269 C 0.64309 0.62017 0.38223
 C270 C 0.68524 0.62103 0.34367
 C271 C 0.69582 0.67844 0.34430
 O272 O 0.66254 0.71298 0.37966
 H273 H 0.62242 0.58295 0.39285
 H274 H 0.70492 0.58504 0.31721
 C275 C 0.87519 0.79326 0.90218
 C276 C 0.86107 0.84942 0.87858
 C277 C 0.82000 0.84505 0.84017
 C278 C 0.81118 0.78698 0.84387
 O279 O 0.84529 0.75511 0.88087
 H280 H 0.87953 0.88845 0.88746
 H281 H 0.79866 0.87995 0.81287
 C282 C 0.40097 0.28089 0.37682
 C283 C 0.40034 0.33659 0.35472
 C284 C 0.37691 0.33448 0.30495
 C285 C 0.36504 0.27768 0.30056
 O286 O 0.37961 0.24494 0.34416
 H287 H 0.41513 0.37412 0.37280
 H288 H 0.36607 0.37109 0.27649
 C289 C 0.67075 0.89984 0.90272
 C290 C 0.62042 0.91841 0.87181
 C291 C 0.62625 0.87859 0.83041
 C292 C 0.67980 0.83873 0.83941
 O293 O 0.70584 0.85146 0.88372
 H294 H 0.58530 0.95766 0.87738
 H295 H 0.59616 0.88023 0.79684
 C296 C 0.23677 0.37356 0.37851
 C297 C 0.22974 0.32040 0.40152
 C298 C 0.23113 0.28182 0.35995
 C299 C 0.23881 0.31450 0.31478
 O300 O 0.24246 0.37037 0.32599
 H301 H 0.22595 0.31064 0.44366
 H302 H 0.23155 0.23427 0.36253
 C303 C 0.21803 0.15614 0.89447
 C304 C 0.19716 0.20713 0.92340
 C305 C 0.19526 0.25320 0.88851
 C306 C 0.20929 0.22687 0.83924
 O307 O 0.22669 0.16763 0.84339
 H308 H 0.18785 0.20985 0.96572
 H309 H 0.18337 0.30037 0.89803
 C310 C 0.83764 0.58302 0.41704
 C311 C 0.89205 0.56880 0.39132
 C312 C 0.88655 0.60579 0.34730
 C313 C 0.82888 0.63958 0.34924
 O314 O 0.80008 0.62597 0.39197
 H315 H 0.92971 0.53336 0.40148
 H316 H 0.91959 0.60544 0.31622
 C317 C 0.09812 0.70176 0.87449
 C318 C 0.11422 0.64486 0.85354
 C319 C 0.15043 0.65049 0.81129
 C320 C 0.15337 0.71055 0.80924
 O321 O 0.12059 0.74175 0.84703
 H322 H 0.10285 0.60387 0.86847
 H323 H 0.17353 0.61458 0.78620
 C324 C 0.60475 0.27037 0.40815
 C325 C 0.59434 0.32669 0.38529
 C326 C 0.63513 0.32356 0.34561
 C327 C 0.66910 0.26602 0.34801
 O328 O 0.64954 0.23274 0.38514
 H329 H 0.55942 0.36487 0.39512
 H330 H 0.63892 0.35902 0.31767
 C331 C 0.83435 0.30078 0.92212
 C332 C 0.79211 0.35344 0.91943
 C333 C 0.75543 0.34580 0.87825
 C334 C 0.77801 0.28896 0.85913
 O335 O 0.82594 0.26169 0.88566
 H336 H 0.78952 0.39323 0.94348
 H337 H 0.71715 0.37791 0.86358
 C338 C 0.40632 0.79092 0.37412
 C339 C 0.39964 0.84648 0.35023
 C340 C 0.37018 0.84199 0.30356
 C341 C 0.36135 0.78356 0.30194
 O342 O 0.38293 0.75305 0.34531
 H343 H 0.41514 0.88533 0.36473
 H344 H 0.35702 0.87758 0.27452
 C345 C 0.30251 0.86104 0.05696
 C346 C 0.32441 0.80744 0.03168
 C347 C 0.31903 0.76414 0.06823
 C348 C 0.29449 0.79478 0.11299
 O349 O 0.28443 0.85359 0.10625
 H350 H 0.34070 0.80083 -0.00895
 H351 H 0.33338 0.71613 0.06365
 C352 C 0.70137 0.37716 0.61651
 C353 C 0.64056 0.38317 0.62394
 C354 C 0.63450 0.34369 0.66383
 C355 C 0.69199 0.31580 0.67733
 O356 O 0.73272 0.33675 0.64929
 H357 H 0.60498 0.41412 0.60390
 H358 H 0.59328 0.33757 0.68233
 C359 C 0.76908 0.05897 0.15360
 C360 C 0.79412 0.02216 0.19508
 C361 C 0.79481 0.05927 0.23751
 C362 C 0.77122 0.11589 0.21813
 O363 O 0.75494 0.11596 0.16740
 H364 H 0.80891 -0.02606 0.19453
 H365 H 0.81252 0.04707 0.27706
 C366 C 0.22818 0.65333 0.56158
 C367 C 0.20958 0.71000 0.54027
 C368 C 0.21168 0.74822 0.58144
 C369 C 0.23093 0.71199 0.62500
 O370 O 0.24080 0.65410 0.61318
 H371 H 0.19569 0.72183 0.49957
 H372 H 0.19852 0.79664 0.58047
 C373 C 0.90163 0.78236 0.12989
 C374 C 0.88795 0.83842 0.15293
 C375 C 0.84993 0.83317 0.19404
 C376 C 0.84282 0.77451 0.19279
 O377 O 0.87451 0.74333 0.15423
 H378 H 0.90344 0.87839 0.14089
 H379 H 0.82927 0.86784 0.22144
 C380 C 0.34462 0.21874 0.59598
 C381 C 0.32516 0.16545 0.60055
 C382 C 0.27882 0.17648 0.63591
 C383 C 0.27283 0.23589 0.64997
 O384 O 0.31287 0.26175 0.62591
 H385 H 0.34378 0.12312 0.58165
 H386 H 0.25352 0.14460 0.65106
 C387 C 0.13696 0.27015 0.07562
 C388 C 0.18171 0.28747 0.04648
 C389 C 0.22972 0.27895 0.07965
 C390 C 0.21025 0.25800 0.12698
 O391 O 0.15341 0.25341 0.12504
 H392 H 0.17915 0.30526 0.00613
 H393 H 0.27317 0.28890 0.07120
 C394 C 0.60197 0.69072 0.63119
 C395 C 0.60867 0.63519 0.65555
 C396 C 0.64567 0.63703 0.69804
 C397 C 0.65921 0.69336 0.69616
 O398 O 0.63224 0.72630 0.65600
 H399 H 0.58900 0.59787 0.64366
 H400 H 0.66146 0.60153 0.72669
   
