data_POSCAR
  _audit_creation_date              2014-09-24
  _audit_creation_method            'ToBaCCo'
  _symmetry_space_group_name_H-M    'P1'
  _symmetry_Int_Tables_number       1
  _symmetry_cell_setting            triclinic
  loop_
  _symmetry_equiv_pos_as_xyz
 x,y,z
_cell_length_a 24.9796
_cell_length_b 25.0046
_cell_length_c 62.9441
_cell_angle_alpha 85.100600
_cell_angle_beta 92.461000
_cell_angle_gamma 120.086500
loop_
  _atom_site_label
  _atom_site_type_symbol
  _atom_site_fract_x
  _atom_site_fract_y
  _atom_site_fract_z
C1 C 0.01268 0.11306 0.52732
 H2 H 0.05662 0.11461 0.52648
 C3 C 0.00625 0.15165 0.54041
 H4 H 0.04529 0.18295 0.54976
 C5 C -0.09182 0.07035 0.51607
 H6 H -0.12961 0.03885 0.50641
 C7 C -0.10028 0.10835 0.52904
 H8 H -0.14478 0.10585 0.52950
 N9 N -0.03605 0.07307 0.51565
 C10 C 0.00408 -0.07413 0.50686
 H11 H 0.00756 -0.07137 0.48968
 C12 C 0.00643 -0.12207 0.51925
 H13 H 0.01232 -0.15606 0.51166
 C14 C -0.01150 -0.03551 0.53775
 H15 H -0.02055 -0.00310 0.54489
 C16 C -0.00930 -0.08251 0.55070
 H17 H -0.01580 -0.08549 0.56775
 Zn18 Zn -0.01902 0.02479 0.49859
 N19 N -0.00515 -0.03231 0.51623
 C20 C 0.10412 0.07751 0.48224
 N21 N 0.05148 0.08108 0.48220
 C22 C 0.04739 0.12756 0.47075
 C23 C 0.09702 0.17227 0.45834
 C24 C 0.15504 0.12148 0.46997
 C25 C -0.13923 -0.06930 0.48927
 C26 C -0.18565 -0.11184 0.47644
 C27 C -0.12176 -0.05616 0.44552
 C28 C -0.07661 -0.01494 0.45891
 N29 N -0.08570 -0.02255 0.48037
 H30 H 0.10671 0.04081 0.49175
 H31 H 0.00523 0.12962 0.47125
 H32 H 0.09308 0.20881 0.44915
 H33 H 0.19673 0.11832 0.46990
 H34 H -0.14465 -0.07513 0.50641
 H35 H -0.22716 -0.15014 0.48377
 H36 H -0.11293 -0.05064 0.42852
 H37 H -0.03324 0.02130 0.45216
 C38 C -0.00104 -0.12660 0.54136
 C39 C -0.05068 0.14921 0.54135
 C40 C -0.17632 -0.10576 0.45437
 C41 C 0.15125 0.16916 0.45790
 C42 C 1.14841 0.06309 0.13837
 H43 H 1.15053 0.10726 0.13885
 C44 C 1.18966 0.05806 0.12562
 H45 H 1.22359 0.09841 0.11616
 C46 C 1.10149 -0.04350 0.15015
 H47 H 1.06729 -0.08270 0.15986
 C48 C 1.14205 -0.05059 0.13753
 H49 H 1.13878 -0.09542 0.13741
 N50 N 1.10505 0.01265 0.15011
 C51 C 0.95588 0.05180 0.15761
 H52 H 0.95442 0.05193 0.17475
 C53 C 0.91028 0.05547 0.14494
 H54 H 0.87389 0.05902 0.15230
 C55 C 1.00246 0.04269 0.12709
 H56 H 1.03695 0.03542 0.12021
 C57 C 0.95795 0.04635 0.11388
 H58 H 0.95893 0.04272 0.09688
 Zn59 Zn 1.05281 0.02705 0.16665
 N60 N 1.00037 0.04488 0.14856
 C61 C 1.10161 0.14636 0.18319
 N62 N 1.10517 0.09378 0.18318
 C63 C 1.14857 0.08674 0.19488
 C64 C 1.18985 0.13304 0.20765
 C65 C 1.14220 0.19402 0.19581
 C66 C 0.95586 -0.09474 0.17576
 C67 C 0.91031 -0.14403 0.18846
 C68 C 0.95818 -0.08707 0.21949
 C69 C 1.00264 -0.03888 0.20625
 N70 N 1.00043 -0.04324 0.18478
 H71 H 1.06737 0.15133 0.17350
 H72 H 1.15068 0.04470 0.19437
 H73 H 1.22381 0.12665 0.21709
 H74 H 1.13891 0.23556 0.19598
 H75 H 0.95430 -0.09640 0.15861
 H76 H 0.87385 -0.18405 0.18112
 H77 H 0.95927 -0.08238 0.23648
 H78 H 1.03719 0.00295 0.21310
 C79 C 0.91091 0.05180 0.12290
 C80 C 1.18635 0.00074 0.12512
 C81 C 0.91107 -0.13965 0.21049
 C82 C 1.18653 0.18703 0.20820
 C83 C 0.04716 0.91895 0.86244
 H84 H 0.00502 0.87465 0.86191
 C85 C 0.09672 0.92396 0.87490
 H86 H 0.09276 0.88347 0.88409
 C87 C 0.10386 1.02584 0.85100
 H88 H 0.10647 1.06515 0.84148
 C89 C 0.15472 1.03290 0.86331
 H90 H 0.19637 1.07783 0.86342
 N91 N 0.05126 0.96953 0.85099
 C92 C -0.13944 0.92888 0.84384
 H93 H -0.14481 0.92933 0.82669
 C94 C -0.18586 0.92494 0.85665
 H95 H -0.22736 0.92172 0.84934
 C96 C -0.07690 0.93718 0.87422
 H97 H -0.03354 0.94438 0.88099
 C98 C -0.12208 0.93319 0.88759
 H99 H -0.11341 0.93650 0.90458
 Zn100 Zn -0.01919 0.95520 0.83456
 N101 N -0.08593 0.93572 0.85275
 C102 C -0.09192 0.83675 0.81706
 N103 N -0.03615 0.88989 0.81750
 C104 C 0.01263 0.89872 0.80586
 C105 C 0.00624 0.85372 0.79276
 C106 C -0.10034 0.79030 0.80408
 C107 C 0.00386 1.07724 0.82630
 C108 C 0.00623 1.12754 0.81389
 C109 C -0.00932 1.07229 0.78245
 C110 C -0.01154 1.02308 0.79540
 N111 N -0.00529 1.02621 0.81692
 H112 H -0.12974 0.83040 0.82669
 H113 H 0.05656 0.94117 0.80672
 H114 H 0.04531 0.86152 0.78343
 H115 H -0.14484 0.74823 0.80360
 H116 H 0.00727 1.07795 0.84348
 H117 H 0.01205 1.16740 0.82149
 H118 H -0.01575 1.06878 0.76539
 H119 H -0.02053 0.98162 0.78825
 C120 C -0.17657 0.92817 0.87871
 C121 C 0.15090 0.98141 0.87539
 C122 C -0.00115 1.12462 0.79179
 C123 C -0.05070 0.79913 0.79180
 C124 C 0.34041 -0.04031 0.01125
 C125 C 0.33798 -0.04206 -0.01049
 C126 C 0.39702 -0.02500 -0.01709
 N127 N 0.43553 -0.01233 -0.00016
 C128 C 0.40100 -0.02168 0.01720
 C129 C 0.41523 -0.01774 -0.03856
 C130 C 0.47157 -0.01250 -0.04470
 C131 C 0.49497 0.00328 -0.06530
 C132 C 0.54794 -0.00075 -0.06489
 C133 C 0.55577 -0.01828 -0.04402
 N134 N 0.50883 -0.02581 -0.03185
 C135 C 0.60412 -0.02917 -0.03691
 C136 C 0.62106 -0.03004 -0.01522
 C137 C 0.66518 -0.04476 -0.00737
 C138 C 0.67160 -0.03495 0.01393
 C139 C 0.63078 -0.01514 0.01843
 N140 N 0.60014 -0.01190 0.00059
 C141 C 0.62507 0.00298 0.03848
 C142 C 0.57540 0.01128 0.04383
 C143 C 0.57280 0.03759 0.06202
 C144 C 0.51577 0.03344 0.06206
 C145 C 0.48535 0.00525 0.04381
 N146 N 0.52175 -0.00854 0.03287
 C147 C 0.42453 -0.00904 0.03810
 H148 H 0.30208 -0.05080 0.02147
 H149 H 0.29740 -0.05443 -0.02034
 H150 H 0.50805 -0.03583 0.01996
 H151 H 0.47563 0.01587 -0.07924
 H152 H 0.57748 0.00845 -0.07841
 H153 H 0.69063 -0.06027 -0.01611
 H154 H 0.70274 -0.04166 0.02485
 H155 H 0.49876 0.04959 0.07412
 H156 H 0.49937 -0.04538 -0.01627
 H157 H 0.60811 0.05733 0.07411
 C158 C -0.07355 0.29661 0.67958
 C159 C -0.07773 0.29786 0.65777
 C160 C -0.06170 0.35800 0.65057
 N161 N -0.04830 0.39336 0.66725
 C162 C -0.05571 0.35585 0.68499
 C163 C -0.05458 0.38056 0.62892
 C164 C -0.04225 0.44104 0.62220
 C165 C -0.01866 0.47095 0.60240
 C166 C -0.01443 0.52802 0.60203
 C167 C -0.03613 0.53117 0.62154
 N168 N -0.05333 0.47776 0.63369
 C169 C -0.04239 0.58129 0.62721
 C170 C -0.05567 0.58749 0.64814
 C171 C -0.07349 0.62888 0.65355
 C172 C -0.07767 0.62345 0.67537
 C173 C -0.06166 0.57935 0.68256
 N174 N -0.04828 0.55740 0.66589
 C175 C -0.05454 0.56392 0.70422
 C176 C -0.04224 0.51577 0.71094
 C177 C -0.01865 0.50949 0.73074
 C178 C -0.01445 0.45663 0.73111
 C179 C -0.03614 0.43176 0.71160
 N180 N -0.05333 0.46794 0.69944
 C181 C -0.04242 0.37536 0.70593
 H182 H -0.08238 0.25672 0.69024
 H183 H -0.09017 0.25913 0.64829
 H184 H -0.07706 0.45744 0.68505
 H185 H -0.00537 0.45366 0.58961
 H186 H 0.00243 0.56304 0.58882
 H187 H -0.08232 0.65993 0.64289
 H188 H -0.09010 0.64972 0.68484
 H189 H 0.00241 0.43849 0.74432
 H190 H -0.07707 0.46450 0.64808
 H191 H -0.00537 0.54008 0.74353
 C192 C 0.33845 0.38086 0.34402
 C193 C 0.34079 0.38165 0.32227
 C194 C 0.40138 0.42366 0.31632
 N195 N 0.43599 0.44876 0.33367
 C196 C 0.39754 0.42283 0.35061
 C197 C 0.42483 0.43465 0.29540
 C198 C 0.48567 0.48120 0.28970
 C199 C 0.51600 0.48350 0.27142
 C200 C 0.57309 0.53638 0.27147
 C201 C 0.57582 0.56525 0.28969
 N202 N 0.52219 0.53137 0.30066
 C203 C 0.62558 0.62321 0.29506
 C204 C 0.63143 0.64696 0.31513
 C205 C 0.67238 0.70759 0.31967
 C206 C 0.66606 0.71088 0.34099
 C207 C 0.62188 0.65198 0.34880
 N208 N 0.60081 0.61298 0.33297
 C209 C 0.60500 0.63406 0.37049
 C210 C 0.55657 0.57477 0.37759
 C211 C 0.54876 0.54929 0.39844
 C212 C 0.49570 0.49226 0.39883
 C213 C 0.47225 0.48475 0.37824
 N214 N 0.50955 0.53541 0.36541
 C215 C 0.41584 0.43365 0.37208
 H216 H 0.29789 0.35259 0.35387
 H217 H 0.30240 0.35385 0.31205
 H218 H 0.50008 0.54561 0.34984
 H219 H 0.49889 0.45036 0.25934
 H220 H 0.60835 0.55200 0.25936
 H221 H 0.70354 0.74551 0.30876
 H222 H 0.69164 0.75183 0.34975
 H223 H 0.47636 0.46024 0.41276
 H224 H 0.50858 0.54492 0.31359
 H225 H 0.57836 0.56956 0.41196
 C226 C -0.05819 0.26262 0.58252
 C227 C -0.01101 0.28496 0.59780
 C228 C -0.00953 0.32381 0.61276
 C229 C -0.05720 0.18840 0.55524
 C230 C -0.10228 0.31873 0.59712
 C231 C -0.10370 0.27978 0.58212
 C232 C -0.05922 0.22204 0.56741
 C233 C -0.05543 0.34056 0.61263
 H234 H 0.02455 0.27214 0.59820
 H235 H 0.02712 0.34059 0.62453
 H236 H -0.13790 0.33141 0.59679
 H237 H -0.14030 0.26288 0.57033
 C238 C 0.77012 0.73495 0.24962
 C239 C 0.78305 0.70988 0.26855
 C240 C 0.73577 0.67276 0.28319
 C241 C 0.86135 0.81372 0.22376
 C242 C 0.66215 0.68501 0.25989
 C243 C 0.70951 0.72213 0.24525
 C244 C 0.81964 0.77679 0.23533
 C245 C 0.67511 0.66052 0.27904
 H246 H 0.82982 0.71981 0.27215
 H247 H 0.74648 0.65414 0.29787
 H248 H 0.61564 0.67614 0.25649
 H249 H 0.69909 0.74165 0.23072
 C250 C 0.28911 -0.01024 -0.08555
 C251 C 0.31903 0.03691 -0.07158
 C252 C 0.36108 0.03508 -0.05658
 C253 C 0.20160 -0.01316 -0.11141
 C254 C 0.34422 -0.06064 -0.06969
 C255 C 0.30216 -0.05873 -0.08470
 C256 C 0.24237 -0.01088 -0.09988
 C257 C 0.37346 -0.01405 -0.05539
 H258 H 0.30903 0.07444 -0.07202
 H259 H 0.38329 0.07136 -0.04565
 H260 H 0.35309 -0.09894 -0.06891
 H261 H 0.27897 -0.09565 -0.09536
 C262 C -0.01462 0.72832 0.58048
 C263 C 0.02668 0.73979 0.59752
 C264 C 0.01811 0.69162 0.61251
 C265 C -0.00405 0.82190 0.55446
 C266 C -0.07276 0.61991 0.59331
 C267 C -0.06412 0.66820 0.57831
 C268 C -0.00825 0.77895 0.56601
 C269 C -0.03199 0.63149 0.61062
 H270 H 0.06489 0.78616 0.59943
 H271 H 0.04999 0.70126 0.62577
 H272 H -0.11171 0.57382 0.59167
 H273 H -0.09659 0.65891 0.56525
 C274 C 0.30533 0.31302 0.24887
 C275 C 0.32684 0.28999 0.26618
 C276 C 0.36651 0.32976 0.28114
 C277 C 0.22802 0.23395 0.22188
 C278 C 0.36411 0.41617 0.26139
 C279 C 0.32434 0.37627 0.24641
 C280 C 0.26324 0.27111 0.23390
 C281 C 0.38491 0.39299 0.27897
 H282 H 0.31254 0.24117 0.26820
 H283 H 0.38241 0.31125 0.29456
 H284 H 0.37799 0.46488 0.25950
 H285 H 0.30807 0.39457 0.23305
 C286 C 0.71146 -0.05356 -0.08257
 C287 C 0.73875 -0.00108 -0.07080
 C288 C 0.70363 0.00734 -0.05615
 C289 C 0.78262 -0.06825 -0.10863
 C290 C 0.61333 -0.08889 -0.06518
 C291 C 0.64857 -0.09728 -0.07984
 C292 C 0.74889 -0.06267 -0.09699
 C293 C 0.64084 -0.03684 -0.05308
 H294 H 0.78735 0.03305 -0.07279
 H295 H 0.72543 0.04789 -0.04704
 H296 H 0.56490 -0.12331 -0.06301
 H297 H 0.62700 -0.13804 -0.08887
 C298 C 0.30519 -0.00656 0.08456
 C299 C 0.32410 -0.05084 0.08707
 C300 C 0.36384 -0.05108 0.07211
 C301 C 0.22785 -0.00471 0.11147
 C302 C 0.36643 0.03774 0.05229
 C303 C 0.32678 0.03794 0.06722
 C304 C 0.26309 -0.00668 0.09948
 C305 C 0.38471 -0.00715 0.05452
 H306 H 0.30776 -0.08539 0.10045
 H307 H 0.37763 -0.08595 0.07405
 H308 H 0.38238 0.07210 0.03886
 H309 H 0.31257 0.07249 0.06516
 C310 C 0.71290 0.76569 0.41618
 C311 C 0.73996 0.74041 0.40436
 C312 C 0.70465 0.69689 0.38972
 C313 C 0.78446 0.85159 0.44221
 C314 C 0.61460 0.70299 0.39883
 C315 C 0.65003 0.74661 0.41350
 C316 C 0.75053 0.81225 0.43059
 C317 C 0.64189 0.67838 0.38669
 H318 H 0.78854 0.75482 0.40632
 H319 H 0.72628 0.67807 0.38057
 H320 H 0.56620 0.68906 0.39669
 H321 H 0.62864 0.76587 0.42255
 C322 C -0.01470 0.25611 0.75266
 C323 C 0.02661 0.28599 0.73561
 C324 C 0.01805 0.32559 0.72063
 C325 C -0.00415 0.17310 0.77868
 C326 C -0.07280 0.30632 0.73982
 C327 C -0.06418 0.26667 0.75482
 C328 C -0.00834 0.21184 0.76712
 C329 C -0.03203 0.33557 0.72252
 H330 H 0.06481 0.27788 0.73371
 H331 H 0.04994 0.34788 0.70738
 H332 H -0.11174 0.31342 0.74146
 H333 H -0.09665 0.24345 0.76788
 C334 C 0.76980 0.03609 0.08386
 C335 C 0.78268 0.07400 0.06490
 C336 C 0.73533 0.06374 0.05029
 C337 C 0.86114 0.04865 0.10966
 C338 C 0.66174 -0.02201 0.07366
 C339 C 0.70917 -0.01168 0.08828
 C340 C 0.81937 0.04382 0.09812
 C341 C 0.67465 0.01534 0.05449
 H342 H 0.82946 0.11081 0.06126
 H343 H 0.74600 0.09299 0.03558
 H344 H 0.61522 -0.05963 0.07710
 H345 H 0.69878 -0.04155 0.10283
 C346 C 0.28969 0.29955 0.41900
 C347 C 0.31958 0.28245 0.40498
 C348 C 0.36166 0.32650 0.39002
 C349 C 0.20203 0.21462 0.44475
 C350 C 0.34491 0.40525 0.40324
 C351 C 0.30282 0.36113 0.41822
 C352 C 0.24287 0.25327 0.43327
 C353 C 0.37411 0.38804 0.38890
 H354 H 0.30951 0.23489 0.40536
 H355 H 0.38383 0.31252 0.37905
 H356 H 0.35383 0.45246 0.40252
 H357 H 0.27965 0.37475 0.42891
 C358 C -0.05814 0.67825 0.75062
 C359 C -0.01095 0.70316 0.73534
 C360 C -0.00948 0.66578 0.72039
 C361 C -0.05717 0.75345 0.77790
 C362 C -0.10224 0.57798 0.73601
 C363 C -0.10366 0.61551 0.75101
 C364 C -0.05918 0.71779 0.76572
 C365 C -0.05539 0.60307 0.72051
 H366 H 0.02460 0.75158 0.73495
 H367 H 0.02718 0.68571 0.70862
 H368 H -0.13788 0.52963 0.73633
 H369 H -0.14027 0.59575 0.76279
   
