data_POSCAR
  _audit_creation_date              2014-09-24
  _audit_creation_method            'ToBaCCo'
  _symmetry_space_group_name_H-M    'P1'
  _symmetry_Int_Tables_number       1
  _symmetry_cell_setting            triclinic
  loop_
  _symmetry_equiv_pos_as_xyz
 x,y,z
_cell_length_a 40.0365
_cell_length_b 41.4989
_cell_length_c 44.7677
_cell_angle_alpha 85.604300
_cell_angle_beta 95.657100
_cell_angle_gamma 96.484300
loop_
  _atom_site_label
  _atom_site_type_symbol
  _atom_site_fract_x
  _atom_site_fract_y
  _atom_site_fract_z
C1 C 0.22353 0.28281 0.27361
 C2 C 0.24517 0.30239 0.25056
 C3 C 0.26190 0.28395 0.23428
 C4 C 0.25542 0.24723 0.24271
 C5 C 0.20023 0.25870 0.25454
 C6 C 0.21678 0.23993 0.23853
 C7 C 0.24774 0.26200 0.29279
 C8 C 0.26435 0.24320 0.27693
 H9 H 0.24603 0.32846 0.24656
 H10 H 0.26863 0.23166 0.22977
 H11 H 0.17299 0.25800 0.25242
 H12 H 0.25137 0.26237 0.31706
 C13 C 0.72949 0.77302 0.28627
 C14 C 0.75494 0.79422 0.26757
 C15 C 0.77389 0.77707 0.25220
 C16 C 0.76554 0.74004 0.25667
 C17 C 0.70867 0.75173 0.26306
 C18 C 0.72736 0.73435 0.24773
 C19 C 0.75065 0.74981 0.30618
 C20 C 0.76981 0.73268 0.29099
 H21 H 0.75566 0.82035 0.26404
 H22 H 0.78092 0.72629 0.24392
 H23 H 0.68153 0.75112 0.25862
 H24 H 0.75023 0.74731 0.33039
 C25 C 0.70997 0.28247 0.78155
 C26 C 0.73168 0.30221 0.76148
 C27 C 0.75189 0.28427 0.74528
 C28 C 0.74535 0.24907 0.75202
 C29 C 0.68852 0.25871 0.76089
 C30 C 0.70687 0.24092 0.74555
 C31 C 0.73329 0.26146 0.80169
 C32 C 0.75184 0.24384 0.78645
 H33 H 0.72825 0.32738 0.75540
 H34 H 0.75973 0.23344 0.74044
 H35 H 0.66126 0.25731 0.75754
 H36 H 0.73524 0.26118 0.82601
 C37 C 0.21550 0.79137 0.76979
 C38 C 0.23637 0.81171 0.74675
 C39 C 0.25509 0.79436 0.73132
 C40 C 0.24998 0.75749 0.73963
 C41 C 0.19365 0.76619 0.75084
 C42 C 0.21154 0.74809 0.73531
 C43 C 0.24078 0.77197 0.78941
 C44 C 0.25871 0.75411 0.77382
 H45 H 0.23511 0.83753 0.74214
 H46 H 0.26499 0.74298 0.72731
 H47 H 0.16636 0.76396 0.74865
 H48 H 0.24296 0.77132 0.81375
 C49 C 0.04845 0.04320 0.00546
 H50 H 0.04391 0.04994 -0.01830
 C51 C 0.07001 0.06367 0.02397
 H52 H 0.08184 0.08630 0.01427
 C53 C 0.03724 0.00615 0.04715
 H54 H 0.02440 -0.01631 0.05609
 C55 C 0.05856 0.02583 0.06641
 H56 H 0.06210 0.01815 0.09007
 N57 N 0.03225 0.01530 0.01737
 C58 C 0.00416 -0.05498 -0.05096
 H59 H -0.02306 -0.05773 -0.05131
 C60 C 0.01987 -0.07321 -0.06931
 H61 H 0.00444 -0.08945 -0.08416
 C62 C 0.05715 -0.03026 -0.03121
 H63 H 0.07160 -0.01371 -0.01611
 C64 C 0.07392 -0.04811 -0.04912
 H65 H 0.10124 -0.04522 -0.04740
 Zn66 Zn 0.00036 -0.01008 -0.00755
 N67 N 0.02286 -0.03387 -0.03252
 C68 C -0.03410 0.01631 -0.06146
 N69 N -0.02722 0.01857 -0.03125
 C70 C -0.03921 0.04209 -0.01700
 C71 C -0.06022 0.06341 -0.03284
 C72 C -0.05496 0.03722 -0.07821
 C73 C -0.02360 -0.07196 0.01892
 C74 C -0.04171 -0.09327 0.03871
 C75 C -0.06545 -0.04749 0.05528
 C76 C -0.04702 -0.02711 0.03517
 N77 N -0.02650 -0.03947 0.01748
 H78 H -0.02366 -0.00175 -0.07274
 H79 H -0.03210 0.04465 0.00667
 H80 H -0.06948 0.08192 -0.02102
 H81 H -0.06081 0.03449 -0.10207
 H82 H -0.00651 -0.08138 0.00540
 H83 H -0.03850 -0.11892 0.04002
 H84 H -0.08161 -0.03707 0.06911
 H85 H -0.04864 -0.00131 0.03423
 C86 C 0.05525 -0.06993 -0.06854
 C87 C 0.07488 0.05529 0.05499
 C88 C -0.06271 -0.08102 0.05745
 C89 C -0.06867 0.06089 -0.06381
 C90 C 0.06209 0.52610 0.51584
 H91 H 0.06153 0.53005 0.49163
 C92 C 0.08288 0.54721 0.53426
 H93 H 0.09814 0.56746 0.52397
 C94 C 0.04109 0.49608 0.55844
 H95 H 0.02421 0.47665 0.56784
 C96 C 0.06156 0.51650 0.57769
 H97 H 0.06071 0.51197 0.60175
 N98 N 0.04162 0.50124 0.52812
 C99 C 0.01504 0.43214 0.45849
 H100 H -0.01222 0.43055 0.45727
 C101 C 0.03067 0.41391 0.44005
 H102 H 0.01521 0.39861 0.42439
 C103 C 0.06817 0.45458 0.48011
 H104 H 0.08269 0.47018 0.49599
 C105 C 0.08486 0.43680 0.46208
 H106 H 0.11217 0.43886 0.46439
 Zn107 Zn 0.01083 0.47665 0.50154
 N108 N 0.03387 0.45228 0.47772
 C109 C -0.01405 0.50880 0.44648
 N110 N -0.01347 0.50696 0.47700
 C111 C -0.02912 0.52794 0.49130
 C112 C -0.04711 0.55131 0.47484
 C113 C -0.03163 0.53195 0.42911
 C114 C -0.00615 0.42297 0.54161
 C115 C -0.02677 0.40251 0.56009
 C116 C -0.07388 0.43165 0.54013
 C117 C -0.05246 0.45136 0.52193
 N118 N -0.01904 0.44740 0.52365
 H119 H -0.00065 0.49257 0.43553
 H120 H -0.02778 0.52630 0.51562
 H121 H -0.06007 0.56716 0.48675
 H122 H -0.03150 0.53324 0.40488
 H123 H 0.02043 0.42005 0.54225
 H124 H -0.01585 0.38400 0.57512
 H125 H -0.10027 0.43561 0.53893
 H126 H -0.06256 0.47016 0.50686
 C127 C 0.06607 0.41627 0.44156
 C128 C 0.08247 0.54280 0.56566
 C129 C -0.06095 0.40728 0.55997
 C130 C -0.04859 0.55355 0.44328
 C131 C 0.55888 0.04344 0.50515
 H132 H 0.55891 0.04883 0.48112
 C133 C 0.57862 0.06383 0.52497
 H134 H 0.59362 0.08504 0.51595
 C135 C 0.53791 0.01008 0.54596
 H136 H 0.52165 -0.01056 0.55415
 C137 C 0.55731 0.02971 0.56654
 H138 H 0.55619 0.02343 0.59037
 N139 N 0.53907 0.01715 0.51589
 C140 C 0.52088 -0.05202 0.44572
 H141 H 0.49358 -0.05552 0.44324
 C142 C 0.53935 -0.06929 0.42875
 H143 H 0.52603 -0.08571 0.41286
 C144 C 0.57130 -0.02613 0.46938
 H145 H 0.58370 -0.00968 0.48556
 C146 C 0.59073 -0.04288 0.45290
 H147 H 0.61798 -0.03912 0.45668
 Zn148 Zn 0.51086 -0.00804 0.48789
 N149 N 0.53702 -0.03063 0.46526
 C150 C 0.48256 0.02051 0.43217
 N151 N 0.48548 0.02092 0.46268
 C152 C 0.46986 0.04217 0.47667
 C153 C 0.44910 0.06311 0.46002
 C154 C 0.46194 0.04106 0.41459
 C155 C 0.49419 -0.06388 0.52572
 C156 C 0.47353 -0.08527 0.54343
 C157 C 0.42633 -0.05579 0.52445
 C158 C 0.44774 -0.03523 0.50693
 N159 N 0.48122 -0.03890 0.50859
 H160 H 0.49563 0.00388 0.42140
 H161 H 0.47305 0.04235 0.50094
 H162 H 0.43670 0.07965 0.47168
 H163 H 0.45900 0.03963 0.39041
 H164 H 0.52084 -0.06647 0.52639
 H165 H 0.48443 -0.10423 0.55788
 H166 H 0.39992 -0.05193 0.52352
 H167 H 0.43762 -0.01586 0.49264
 C168 C 0.57479 -0.06466 0.43211
 C169 C 0.57781 0.05719 0.55615
 C170 C 0.43933 -0.08073 0.54347
 C171 C 0.44443 0.06235 0.42857
 C172 C 0.55069 0.55608 0.00435
 H173 H 0.55069 0.55997 -0.01982
 C174 C 0.57108 0.57721 0.02303
 H175 H 0.58704 0.59720 0.01314
 C176 C 0.52933 0.52566 0.04664
 H177 H 0.51238 0.50620 0.05583
 C178 C 0.54963 0.54593 0.06613
 H179 H 0.54820 0.54167 0.09017
 N180 N 0.53043 0.53084 0.01635
 C181 C 0.51091 0.46054 -0.05276
 H182 H 0.48362 0.45814 -0.05568
 C183 C 0.52888 0.44286 -0.06981
 H184 H 0.51519 0.42715 -0.08612
 C185 C 0.56183 0.48448 -0.02825
 H186 H 0.57459 0.50042 -0.01179
 C187 C 0.58078 0.46729 -0.04481
 H188 H 0.60804 0.47016 -0.04080
 Zn189 Zn 0.50183 0.50508 -0.01096
 N190 N 0.52756 0.48120 -0.03280
 C191 C 0.47871 0.53572 -0.06746
 N192 N 0.47788 0.53430 -0.03707
 C193 C 0.46079 0.55497 -0.02381
 C194 C 0.44305 0.57784 -0.04124
 C195 C 0.46124 0.55824 -0.08579
 C196 C 0.48354 0.45289 0.03044
 C197 C 0.46185 0.43284 0.04825
 C198 C 0.41480 0.45756 0.02157
 C199 C 0.43740 0.47733 0.00454
 N200 N 0.47117 0.47544 0.00989
 H201 H 0.49312 0.51964 -0.07754
 H202 H 0.46090 0.55355 0.00043
 H203 H 0.42911 0.59366 -0.03022
 H204 H 0.46236 0.55924 -0.10992
 H205 H 0.51048 0.45142 0.03384
 H206 H 0.47245 0.41634 0.06559
 H207 H 0.38806 0.45979 0.01713
 H208 H 0.42787 0.49452 -0.01264
 C209 C 0.56434 0.44634 -0.06611
 C210 C 0.57068 0.57218 0.05435
 C211 C 0.42698 0.43557 0.04440
 C212 C 0.44310 0.57969 -0.07269
 C213 C 0.21144 -0.15838 -0.20208
 C214 C 0.19505 -0.14060 -0.18383
 C215 C 0.16413 -0.15326 -0.17351
 C216 C 0.14977 -0.18424 -0.18145
 C217 C 0.16605 -0.20201 -0.19987
 C218 C 0.19669 -0.18895 -0.21123
 N219 N 0.14816 -0.13434 -0.15476
 N220 N 0.12098 -0.14502 -0.14312
 C221 C 0.10507 -0.12584 -0.12453
 C222 C 0.07633 -0.13973 -0.11102
 C223 C 0.06020 -0.12168 -0.09276
 C224 C 0.07251 -0.08923 -0.08780
 C225 C 0.10140 -0.07534 -0.10146
 C226 C 0.11758 -0.09347 -0.11962
 H227 H 0.23590 -0.14821 -0.20873
 H228 H 0.20669 -0.11701 -0.17739
 H229 H 0.12614 -0.19481 -0.17328
 H230 H 0.15478 -0.22619 -0.20467
 H231 H 0.06651 -0.16468 -0.11456
 H232 H 0.03833 -0.13328 -0.08223
 H233 H 0.11125 -0.05029 -0.09848
 H234 H 0.13968 -0.08212 -0.12994
 C235 C 0.21848 0.33427 0.30024
 C236 C 0.20234 0.35152 0.31917
 C237 C 0.17330 0.33733 0.33198
 C238 C 0.16064 0.30532 0.32590
 C239 C 0.17671 0.28803 0.30695
 C240 C 0.20534 0.30253 0.29308
 N241 N 0.15755 0.35570 0.35140
 N242 N 0.13132 0.34410 0.36412
 C243 C 0.11560 0.36252 0.38352
 C244 C 0.08683 0.34818 0.39675
 C245 C 0.07077 0.36553 0.41567
 C246 C 0.08329 0.39765 0.42171
 C247 C 0.11227 0.41196 0.40843
 C248 C 0.12829 0.39458 0.38950
 H249 H 0.24160 0.34575 0.29183
 H250 H 0.21275 0.37595 0.32419
 H251 H 0.13855 0.29356 0.33598
 H252 H 0.16687 0.26309 0.30348
 H253 H 0.07686 0.32346 0.39239
 H254 H 0.04876 0.35368 0.42585
 H255 H 0.12227 0.43679 0.41229
 H256 H 0.15046 0.40626 0.37947
 C257 C 0.67880 -0.22534 0.31584
 C258 C 0.65910 -0.20948 0.33294
 C259 C 0.66871 -0.17726 0.33977
 C260 C 0.69878 -0.16118 0.32981
 C261 C 0.71854 -0.17699 0.31277
 C262 C 0.70832 -0.20904 0.30469
 N263 N 0.64779 -0.16149 0.35699
 N264 N 0.65490 -0.13193 0.36314
 C265 C 0.63430 -0.11574 0.38029
 C266 C 0.64381 -0.08310 0.38571
 C267 C 0.62444 -0.06649 0.40242
 C268 C 0.59511 -0.08234 0.41408
 C269 C 0.58552 -0.11515 0.40850
 C270 C 0.60495 -0.13175 0.39175
 H271 H 0.67091 -0.25045 0.31132
 H272 H 0.63627 -0.22235 0.34091
 H273 H 0.70717 -0.13646 0.33537
 H274 H 0.74202 -0.16401 0.30654
 H275 H 0.66630 -0.07049 0.37689
 H276 H 0.63224 -0.04111 0.40593
 H277 H 0.56330 -0.12813 0.41747
 H278 H 0.59713 -0.15703 0.38789
 C279 C 0.66049 0.28523 -0.18746
 C280 C 0.64205 0.30150 -0.16960
 C281 C 0.65259 0.33362 -0.16297
 C282 C 0.68229 0.34924 -0.17402
 C283 C 0.70079 0.33302 -0.19189
 C284 C 0.68960 0.30104 -0.19974
 N285 N 0.63297 0.34964 -0.14474
 N286 N 0.64120 0.37888 -0.13795
 C287 C 0.62163 0.39507 -0.11983
 C288 C 0.63231 0.42726 -0.11343
 C289 C 0.61377 0.44389 -0.09596
 C290 C 0.58409 0.42852 -0.08453
 C291 C 0.57342 0.39613 -0.09099
 C292 C 0.59202 0.37952 -0.10847
 H293 H 0.65202 0.26010 -0.19147
 H294 H 0.61954 0.28897 -0.16074
 H295 H 0.69138 0.37389 -0.16867
 H296 H 0.72410 0.34555 -0.19909
 H297 H 0.65501 0.43954 -0.12214
 H298 H 0.62240 0.46895 -0.09176
 H299 H 0.55091 0.38350 -0.08223
 H300 H 0.58329 0.35458 -0.11306
 C301 C -0.19451 0.21725 -0.21081
 C302 C -0.17201 0.19649 -0.19609
 C303 C -0.17891 0.17981 -0.16863
 C304 C -0.20886 0.18392 -0.15610
 C305 C -0.23137 0.20455 -0.17079
 C306 C -0.22439 0.22159 -0.19824
 N307 N -0.15522 0.15905 -0.15380
 N308 N -0.15965 0.14466 -0.12813
 C309 C -0.13647 0.12381 -0.11272
 C310 C -0.14282 0.11016 -0.08403
 C311 C -0.12078 0.08981 -0.06815
 C312 C -0.09193 0.08262 -0.08081
 C313 C -0.08566 0.09624 -0.10974
 C314 C -0.10770 0.11675 -0.12557
 H315 H -0.18816 0.23036 -0.23168
 H316 H -0.14899 0.19360 -0.20596
 H317 H -0.21493 0.17116 -0.13500
 H318 H -0.25444 0.20687 -0.16077
 H319 H -0.16497 0.11534 -0.07396
 H320 H -0.12655 0.07934 -0.04611
 H321 H -0.06348 0.09138 -0.11995
 H322 H -0.10227 0.12705 -0.14774
 C323 C -0.19969 0.68272 0.29248
 C324 C -0.17837 0.66103 0.30741
 C325 C -0.16321 0.66650 0.33632
 C326 C -0.16938 0.69424 0.35015
 C327 C -0.19089 0.71581 0.33535
 C328 C -0.20665 0.71014 0.30642
 N329 N -0.14234 0.64327 0.35135
 N330 N -0.12616 0.64787 0.37686
 C331 C -0.10605 0.62432 0.39241
 C332 C -0.08719 0.63207 0.41936
 C333 C -0.06814 0.60932 0.43566
 C334 C -0.06784 0.57817 0.42535
 C335 C -0.08661 0.57057 0.39806
 C336 C -0.10550 0.59345 0.38170
 H337 H -0.21109 0.67752 0.27030
 H338 H -0.17379 0.63976 0.29648
 H339 H -0.15783 0.69912 0.37247
 H340 H -0.19490 0.73708 0.34654
 H341 H -0.08734 0.65582 0.42781
 H342 H -0.05354 0.61620 0.45628
 H343 H -0.08733 0.54669 0.38968
 H344 H -0.12005 0.58681 0.36098
 C345 C 0.31642 0.21424 0.27840
 C346 C 0.33878 0.19328 0.29302
 C347 C 0.33260 0.17773 0.32109
 C348 C 0.30345 0.18306 0.33428
 C349 C 0.28119 0.20403 0.31975
 C350 C 0.28758 0.22014 0.29176
 N351 N 0.35641 0.15717 0.33604
 N352 N 0.35174 0.14256 0.36157
 C353 C 0.37521 0.12229 0.37742
 C354 C 0.36745 0.10692 0.40513
 C355 C 0.38986 0.08742 0.42163
 C356 C 0.42067 0.08300 0.41070
 C357 C 0.42835 0.09831 0.38269
 C358 C 0.40581 0.11784 0.36616
 H359 H 0.32222 0.22635 0.25703
 H360 H 0.36116 0.18940 0.28260
 H361 H 0.29793 0.17121 0.35589
 H362 H 0.25882 0.20744 0.33040
 H363 H 0.34390 0.11010 0.41397
 H364 H 0.38289 0.07551 0.44283
 H365 H 0.45199 0.09560 0.37379
 H366 H 0.41239 0.12960 0.34479
 C367 C 0.28532 0.70199 -0.22279
 C368 C 0.30710 0.68063 -0.20800
 C369 C 0.32678 0.68899 -0.18159
 C370 C 0.32481 0.71931 -0.17024
 C371 C 0.30302 0.74065 -0.18495
 C372 C 0.28286 0.73211 -0.21126
 N373 N 0.34771 0.66598 -0.16623
 N374 N 0.36594 0.67219 -0.14201
 C375 C 0.38620 0.64909 -0.12591
 C376 C 0.40523 0.65779 -0.09931
 C377 C 0.42410 0.63544 -0.08225
 C378 C 0.42423 0.60385 -0.09155
 C379 C 0.40555 0.59534 -0.11861
 C380 C 0.38664 0.61775 -0.13565
 H381 H 0.26974 0.69450 -0.24273
 H382 H 0.30828 0.65727 -0.21689
 H383 H 0.33982 0.72639 -0.14988
 H384 H 0.30198 0.76387 -0.17577
 H385 H 0.40516 0.68190 -0.09162
 H386 H 0.43864 0.64290 -0.06177
 H387 H 0.40487 0.57110 -0.12620
 H388 H 0.37204 0.61044 -0.15614
 C389 C -0.18247 -0.17767 0.23848
 C390 C -0.16132 -0.16122 0.21805
 C391 C -0.15926 -0.17349 0.19015
 C392 C -0.17802 -0.20309 0.18310
 C393 C -0.19916 -0.21971 0.20364
 C394 C -0.20194 -0.20687 0.23133
 N395 N -0.13900 -0.15464 0.16915
 N396 N -0.13647 -0.16320 0.14283
 C397 C -0.11684 -0.14302 0.12212
 C398 C -0.11481 -0.15330 0.09335
 C399 C -0.09693 -0.13340 0.07233
 C400 C -0.08093 -0.10275 0.07979
 C401 C -0.08264 -0.09274 0.10884
 C402 C -0.10039 -0.11264 0.12980
 H403 H -0.18379 -0.16745 0.25982
 H404 H -0.14690 -0.13849 0.22375
 H405 H -0.17686 -0.21300 0.16160
 H406 H -0.21416 -0.24196 0.19740
 H407 H -0.12745 -0.17661 0.08710
 H408 H -0.09622 -0.14166 0.05006
 H409 H -0.07008 -0.06953 0.11544
 H410 H -0.10146 -0.10412 0.15191
 C411 C -0.21648 0.33360 0.72362
 C412 C -0.19502 0.34909 0.70299
 C413 C -0.18121 0.33130 0.68302
 C414 C -0.18889 0.29746 0.68399
 C415 C -0.21065 0.28176 0.70449
 C416 C -0.22536 0.29955 0.72461
 N417 N -0.15999 0.34846 0.66182
 N418 N -0.14388 0.33436 0.64442
 C419 C -0.12343 0.35274 0.62318
 C420 C -0.10247 0.33683 0.60729
 C421 C -0.08203 0.35442 0.58670
 C422 C -0.08268 0.38819 0.58142
 C423 C -0.10396 0.40400 0.59724
 C424 C -0.12404 0.38651 0.61797
 H425 H -0.22522 0.34880 0.73908
 H426 H -0.18894 0.37521 0.70268
 H427 H -0.17849 0.28318 0.66863
 H428 H -0.21612 0.25584 0.70348
 H429 H -0.10181 0.31081 0.61102
 H430 H -0.06599 0.34162 0.57468
 H431 H -0.10465 0.43006 0.59392
 H432 H -0.14005 0.39943 0.62989
 C433 C 0.29306 -0.15753 0.71253
 C434 C 0.31451 -0.14218 0.69184
 C435 C 0.32275 -0.15880 0.66810
 C436 C 0.30933 -0.19128 0.66521
 C437 C 0.28742 -0.20664 0.68573
 C438 C 0.27873 -0.18986 0.70954
 N439 N 0.34399 -0.14163 0.64695
 N440 N 0.35679 -0.15538 0.62701
 C441 C 0.37714 -0.13665 0.60592
 C442 C 0.39668 -0.15237 0.58846
 C443 C 0.41713 -0.13433 0.56813
 C444 C 0.41771 -0.10033 0.56461
 C445 C 0.39777 -0.08472 0.58190
 C446 C 0.37782 -0.10264 0.60246
 H447 H 0.28803 -0.14398 0.73099
 H448 H 0.32489 -0.11718 0.69438
 H449 H 0.31527 -0.20454 0.64685
 H450 H 0.27693 -0.23136 0.68247
 H451 H 0.39633 -0.17857 0.59086
 H452 H 0.43221 -0.14689 0.55495
 H453 H 0.39806 -0.05851 0.57986
 H454 H 0.36285 -0.08989 0.61556
 C455 C 0.31015 0.28315 0.20239
 C456 C 0.32992 0.29702 0.17967
 C457 C 0.32227 0.32591 0.16360
 C458 C 0.29401 0.34047 0.17005
 C459 C 0.27419 0.32659 0.19263
 C460 C 0.28230 0.29801 0.20946
 N461 N 0.34387 0.34044 0.14145
 N462 N 0.33938 0.36797 0.12801
 C463 C 0.36087 0.38354 0.10625
 C464 C 0.35558 0.41498 0.09470
 C465 C 0.37678 0.43165 0.07441
 C466 C 0.40366 0.41700 0.06500
 C467 C 0.40859 0.38511 0.07630
 C468 C 0.38742 0.36852 0.09682
 H469 H 0.31725 0.26126 0.21476
 H470 H 0.35160 0.28551 0.17492
 H471 H 0.28729 0.36264 0.15773
 H472 H 0.25236 0.33825 0.19666
 H473 H 0.33530 0.42685 0.10193
 H474 H 0.37260 0.45636 0.06671
 H475 H 0.42875 0.37295 0.06926
 H476 H 0.39188 0.34412 0.10539
 C477 C 0.16873 0.19775 0.22562
 C478 C 0.15148 0.17550 0.20616
 C479 C 0.16396 0.17094 0.17887
 C480 C 0.19429 0.18875 0.17128
 C481 C 0.21166 0.21100 0.19081
 C482 C 0.19893 0.21584 0.21811
 N483 N 0.14503 0.14844 0.15928
 N484 N 0.15411 0.14324 0.13377
 C485 C 0.13435 0.12080 0.11454
 C486 C 0.14515 0.11624 0.08650
 C487 C 0.12602 0.09488 0.06711
 C488 C 0.09572 0.07763 0.07555
 C489 C 0.08505 0.08223 0.10378
 C490 C 0.10414 0.10357 0.12308
 H491 H 0.15854 0.20061 0.24667
 H492 H 0.12819 0.16184 0.21228
 H493 H 0.20438 0.18568 0.15024
 H494 H 0.23461 0.22490 0.18421
 H495 H 0.16840 0.12934 0.07965
 H496 H 0.13506 0.09163 0.04564
 H497 H 0.06156 0.06976 0.11076
 H498 H 0.09512 0.10674 0.14457
 C499 C 0.16522 0.70328 0.72484
 C500 C 0.14948 0.67855 0.70728
 C501 C 0.16337 0.67132 0.68146
 C502 C 0.19355 0.68902 0.67342
 C503 C 0.20932 0.71388 0.69097
 C504 C 0.19521 0.72148 0.71676
 N505 N 0.14588 0.64639 0.66363
 N506 N 0.15719 0.63758 0.64029
 C507 C 0.13871 0.61308 0.62249
 C508 C 0.15273 0.60353 0.59757
 C509 C 0.13478 0.58037 0.57929
 C510 C 0.10235 0.56641 0.58564
 C511 C 0.08849 0.57593 0.61085
 C512 C 0.10648 0.59896 0.62912
 H513 H 0.15400 0.70791 0.74491
 H514 H 0.12630 0.66497 0.71377
 H515 H 0.20471 0.68392 0.65347
 H516 H 0.23212 0.72749 0.68391
 H517 H 0.17757 0.61419 0.59223
 H518 H 0.14633 0.57332 0.56025
 H519 H 0.06336 0.56615 0.61610
 H520 H 0.09496 0.60604 0.64816
 C521 C 0.66032 0.19808 0.73053
 C522 C 0.64453 0.17588 0.71036
 C523 C 0.65892 0.17157 0.68394
 C524 C 0.68975 0.18952 0.67799
 C525 C 0.70561 0.21182 0.69820
 C526 C 0.69090 0.21653 0.72455
 N527 N 0.64123 0.14936 0.66342
 N528 N 0.65257 0.14352 0.63903
 C529 C 0.63379 0.12160 0.61874
 C530 C 0.64791 0.11480 0.59284
 C531 C 0.62990 0.09379 0.57250
 C532 C 0.59732 0.07927 0.57776
 C533 C 0.58325 0.08624 0.60380
 C534 C 0.60129 0.10712 0.62411
 H535 H 0.64861 0.20071 0.75088
 H536 H 0.62085 0.16209 0.71523
 H537 H 0.70130 0.18665 0.65762
 H538 H 0.72887 0.22593 0.69277
 H539 H 0.67293 0.12579 0.58844
 H540 H 0.64160 0.08866 0.55284
 H541 H 0.55801 0.07599 0.60827
 H542 H 0.58968 0.11213 0.64385
 C543 C 0.72239 0.68240 0.22205
 C544 C 0.70713 0.66208 0.19998
 C545 C 0.68187 0.67263 0.17886
 C546 C 0.67204 0.70395 0.17994
 C547 C 0.68700 0.72412 0.20225
 C548 C 0.71222 0.71344 0.22359
 N549 N 0.66576 0.65070 0.15735
 N550 N 0.64550 0.65981 0.13543
 C551 C 0.62830 0.63751 0.11474
 C552 C 0.60994 0.64967 0.08892
 C553 C 0.59178 0.62847 0.06890
 C554 C 0.59134 0.59467 0.07469
 C555 C 0.60995 0.58250 0.10053
 C556 C 0.62845 0.60372 0.12033
 H557 H 0.74135 0.67344 0.23842
 H558 H 0.71477 0.63793 0.19949
 H559 H 0.65247 0.71262 0.16390
 H560 H 0.67894 0.74810 0.20280
 H561 H 0.60950 0.67565 0.08446
 H562 H 0.57737 0.63845 0.04930
 H563 H 0.61019 0.55654 0.10537
 H564 H 0.64235 0.59373 0.14021
   
