data_POSCAR
  _audit_creation_date              2014-09-24
  _audit_creation_method            'ToBaCCo'
  _symmetry_space_group_name_H-M    'P1'
  _symmetry_Int_Tables_number       1
  _symmetry_cell_setting            triclinic
  loop_
  _symmetry_equiv_pos_as_xyz
 x,y,z
_cell_length_a 48.6657
_cell_length_b 48.2787
_cell_length_c 14.3470
_cell_angle_alpha 90.055600
_cell_angle_beta 90.083400
_cell_angle_gamma 120.090000
loop_
  _atom_site_label
  _atom_site_type_symbol
  _atom_site_fract_x
  _atom_site_fract_y
  _atom_site_fract_z
C1 C 0.20845 0.48732 0.45961
 C2 C 0.20628 0.48256 0.55808
 C3 C 0.23117 0.48174 0.60507
 C4 C 0.25892 0.48686 0.55959
 C5 C 0.26189 0.49367 0.46216
 C6 C 0.23680 0.49406 0.41424
 H7 H 0.23884 0.49804 0.33957
 H8 H 0.22894 0.47722 0.67933
 C9 C 0.54146 -0.25911 0.45740
 C10 C 0.54366 -0.25693 0.55637
 C11 C 0.54616 -0.22998 0.60142
 C12 C 0.54513 -0.20533 0.55204
 C13 C 0.54183 -0.20811 0.45334
 C14 C 0.53946 -0.23500 0.40802
 H15 H 0.53855 -0.23572 0.33247
 H16 H 0.54667 -0.22943 0.67698
 C17 C 1.28601 0.77125 0.46232
 C18 C 1.28309 0.77138 0.56099
 C19 C 1.25703 0.74600 0.60547
 C20 C 1.23301 0.72081 0.55400
 C21 C 1.23504 0.72127 0.45571
 C22 C 1.26132 0.74629 0.41106
 H23 H 1.26260 0.74591 0.33566
 H24 H 1.25462 0.74669 0.68045
 C25 C 0.77046 0.50757 0.44435
 C26 C 0.77447 0.51196 0.54257
 C27 C 0.75242 0.51669 0.59338
 C28 C 0.72553 0.51495 0.55079
 C29 C 0.72159 0.50995 0.45280
 C30 C 0.74394 0.50619 0.40130
 H31 H 0.74171 0.50416 0.32602
 H32 H 0.75463 0.51883 0.66859
 C33 C 0.46829 0.25729 0.44947
 C34 C 0.47158 0.25831 0.54788
 C35 C 0.46974 0.23168 0.59386
 C36 C 0.46619 0.20484 0.54402
 C37 C 0.46572 0.20562 0.44461
 C38 C 0.46616 0.23152 0.39933
 H39 H 0.46456 0.23156 0.32392
 H40 H 0.47089 0.23184 0.66932
 C41 C 0.74717 0.21314 0.44879
 C42 C 0.74442 0.21553 0.54589
 C43 C 0.76597 0.24348 0.59295
 C44 C 0.79163 0.26927 0.54675
 C45 C 0.79510 0.26623 0.44888
 C46 C 0.77270 0.23830 0.40196
 H47 H 0.77448 0.23664 0.32704
 H48 H 0.76356 0.24417 0.66792
 N49 N 0.96747 0.54889 0.11159
 N50 N 0.94414 0.55465 0.12821
 N51 N 1.03486 0.56234 0.16528
 N52 N 1.06041 0.57728 0.21803
 N53 N 1.03402 0.58197 0.10359
 N54 N 1.05876 0.61104 0.11384
 N55 N 0.96781 0.52913 0.17382
 N56 N 0.94441 0.52059 0.23406
 C57 C 0.92991 0.53670 0.20434
 C58 C 1.07499 0.60761 0.18542
 N59 N 1.03333 0.48326 0.09543
 N60 N 1.05758 0.47829 0.10264
 N61 N 0.96751 0.46945 0.16968
 N62 N 0.94426 0.45437 0.23003
 N63 N 0.96651 0.44970 0.10499
 N64 N 0.94264 0.42046 0.12029
 N65 N 1.03449 0.50276 0.16121
 N66 N 1.05973 0.51179 0.21464
 Mn67 Mn 1.00115 0.51591 0.16865
 C68 C 1.07385 0.49635 0.17707
 C69 C 0.92895 0.42383 0.19853
 N70 N 1.03087 0.58166 -0.09743
 N71 N 1.05605 0.61034 -0.10887
 N72 N 0.96271 0.52857 -0.15344
 N73 N 0.93776 0.51985 -0.20748
 N74 N 0.96419 0.54846 -0.08856
 N75 N 0.94027 0.55390 -0.09690
 N76 N 1.02960 0.56193 -0.16255
 N77 N 1.05409 0.57649 -0.21923
 Mn78 Mn 0.99917 0.56562 0.00729
 C79 C 1.07024 0.60671 -0.18537
 C80 C 0.92396 0.53582 -0.17142
 N81 N 0.96330 0.44931 -0.09644
 N82 N 0.94304 0.41915 -0.11770
 N83 N 1.02874 0.50229 -0.16775
 N84 N 1.05145 0.51094 -0.22986
 N85 N 1.02999 0.48304 -0.10556
 N86 N 1.05370 0.47795 -0.12416
 N87 N 0.96232 0.46857 -0.15943
 N88 N 0.94149 0.45195 -0.22530
 Mn89 Mn 0.99828 0.46598 -0.00030
 Mn90 Mn 0.99575 0.51536 -0.16167
 Cl91 Cl 0.99852 0.51564 0.00350
 C92 C 0.92918 0.42128 -0.19703
 C93 C 1.06688 0.49565 -0.20197
 N94 N 0.53144 0.50420 0.16756
 N95 N 0.54517 0.49414 0.22743
 N96 N 0.52204 0.55863 0.08686
 N97 N 0.53016 0.58908 0.09357
 N98 N 0.50211 0.54179 0.15341
 N99 N 0.49624 0.56036 0.20751
 N100 N 0.55146 0.52143 0.10165
 N101 N 0.57951 0.52410 0.11591
 C102 C 0.57515 0.50694 0.19458
 C103 C 0.51369 0.58965 0.16865
 N104 N 0.50174 0.53368 -0.17440
 N105 N 0.49433 0.54915 -0.23616
 N106 N 0.55147 0.51648 -0.09985
 N107 N 0.58027 0.52128 -0.11685
 N108 N 0.53108 0.49637 -0.16080
 N109 N 0.54517 0.48672 -0.21993
 N110 N 0.52200 0.55367 -0.11291
 N111 N 0.52905 0.58327 -0.13131
 Mn112 Mn 0.53713 0.53786 -0.00600
 C113 C 0.51162 0.58011 -0.20836
 C114 C 0.57577 0.50218 -0.19168
 N115 N 0.44012 0.48444 0.15996
 N116 N 0.42495 0.49483 0.21339
 N117 N 0.45011 0.42712 0.11250
 N118 N 0.44586 0.39815 0.12524
 N119 N 0.47021 0.44724 0.17412
 N120 N 0.48059 0.43261 0.22944
 N121 N 0.42071 0.46424 0.09730
 N122 N 0.39204 0.46029 0.10622
 Mn123 Mn 0.48593 0.49449 0.16510
 C124 C 0.39489 0.47953 0.17857
 C125 C 0.46480 0.40198 0.19890
 N126 N 0.47028 0.43934 -0.15353
 N127 N 0.47799 0.42151 -0.20434
 N128 N 0.42081 0.45951 -0.10217
 N129 N 0.39190 0.45367 -0.12239
 N130 N 0.44065 0.47601 -0.16911
 N131 N 0.42579 0.48132 -0.23756
 N132 N 0.45039 0.42226 -0.08738
 N133 N 0.44392 0.39224 -0.09162
 Mn134 Mn 0.48594 0.48639 -0.16531
 Mn135 Mn 0.43518 0.44300 0.00523
 Cl136 Cl 0.48605 0.49047 -0.00015
 C137 C 0.46138 0.39217 -0.16502
 C138 C 0.39555 0.46756 -0.20688
 N139 N 0.43954 -0.03794 0.09570
 N140 N 0.41053 -0.06260 0.10404
 N141 N 0.49074 0.02789 0.17468
 N142 N 0.49944 0.05105 0.23657
 N143 N 0.47156 0.02908 0.11247
 N144 N 0.46653 0.05297 0.13063
 N145 N 0.45855 -0.03931 0.15808
 N146 N 0.44297 -0.06500 0.21066
 C147 C 0.41302 -0.07935 0.17593
 C148 C 0.48407 0.06645 0.20836
 N149 N 0.57069 0.03234 0.10467
 N150 N 0.59934 0.05670 0.12282
 N151 N 0.51847 -0.03749 0.15262
 N152 N 0.50983 -0.06320 0.20389
 N153 N 0.53899 -0.03472 0.08864
 N154 N 0.54529 -0.05828 0.09576
 N155 N 0.55056 0.02969 0.16973
 N156 N 0.56480 0.05231 0.23310
 Mn157 Mn 0.50458 -0.00486 0.16484
 C158 C 0.59521 0.06896 0.20324
 C159 C 0.52673 -0.07587 0.16765
 N160 N 0.47247 0.03466 -0.08701
 N161 N 0.46583 0.05795 -0.09357
 N162 N 0.46053 -0.03054 -0.16829
 N163 N 0.44727 -0.05614 -0.22234
 N164 N 0.44057 -0.03245 -0.10361
 N165 N 0.41304 -0.05917 -0.11282
 N166 N 0.49196 0.03685 -0.15346
 N167 N 0.49910 0.06170 -0.20742
 Mn168 Mn 0.45573 -0.00163 0.00438
 C169 C 0.48279 0.07466 -0.16861
 C170 C 0.41756 -0.07342 -0.18769
 N171 N 0.53992 -0.02922 -0.11238
 N172 N 0.54636 -0.05198 -0.13403
 N173 N 0.55208 0.03913 -0.15768
 N174 N 0.56702 0.06467 -0.21090
 N175 N 0.57167 0.03784 -0.09703
 N176 N 0.60073 0.06226 -0.10875
 N177 N 0.52075 -0.02794 -0.17446
 N178 N 0.51357 -0.04977 -0.23973
 Mn179 Mn 0.55573 0.00159 -0.00404
 Mn180 Mn 0.50632 0.00441 -0.16453
 Cl181 Cl 0.50565 -0.00010 0.00017
 C182 C 0.52964 -0.06466 -0.21372
 C183 C 0.59728 0.07884 -0.17958
 C184 C 1.15159 0.45607 0.42349
 C185 C 1.18197 0.48249 0.40554
 C186 C 1.18495 0.50470 0.33675
 C187 C 1.15774 0.50214 0.29363
 C188 C 1.12738 0.47599 0.31510
 C189 C 1.12469 0.45277 0.37847
 C190 C 1.10011 0.47388 0.27463
 C191 C 1.10269 0.49800 0.21497
 C192 C 1.13273 0.52395 0.19381
 C193 C 1.16013 0.52588 0.23213
 H194 H 1.20805 0.52527 0.32214
 H195 H 1.10167 0.43244 0.39511
 H196 H 1.07681 0.45394 0.29133
 H197 H 1.18311 0.54622 0.21520
 H198 H 1.14859 0.43792 0.47331
 H199 H 1.13494 0.54276 0.14788
 C200 C 0.56305 0.70493 0.43510
 C201 C 0.54234 0.71594 0.40751
 C202 C 0.52211 0.70109 0.33044
 C203 C 0.52073 0.67424 0.28747
 C204 C 0.54047 0.66256 0.31989
 C205 C 0.56194 0.67845 0.39241
 C206 C 0.53819 0.63497 0.27987
 C207 C 0.51646 0.61896 0.20786
 C208 C 0.49728 0.63081 0.17456
 C209 C 0.49936 0.65830 0.21417
 H210 H 0.50596 0.70904 0.30751
 H211 H 0.57770 0.67020 0.41683
 H212 H 0.55306 0.62573 0.30513
 H213 H 0.48404 0.66687 0.18824
 H214 H 0.58031 0.71690 0.49009
 H215 H 0.48047 0.61857 0.11867
 C216 C 0.34348 -0.19253 0.44848
 C217 C 0.31239 -0.20404 0.41486
 C218 C 0.30819 -0.19021 0.33347
 C219 C 0.33417 -0.16379 0.29155
 C220 C 0.36495 -0.15160 0.32939
 C221 C 0.36941 -0.16653 0.40672
 C222 C 0.39073 -0.12444 0.29004
 C223 C 0.38614 -0.10900 0.21376
 C224 C 0.35558 -0.12161 0.17540
 C225 C 0.32981 -0.14881 0.21387
 H226 H 0.28454 -0.19866 0.30589
 H227 H 0.39294 -0.15801 0.43531
 H228 H 0.41424 -0.11501 0.31991
 H229 H 0.30641 -0.15782 0.18373
 H230 H 0.34793 -0.20423 0.50589
 H231 H 0.35149 -0.11020 0.11628
 C232 C 0.79056 0.48316 0.32778
 C233 C 0.79600 0.50924 0.38400
 C234 C 0.82657 0.53623 0.38846
 C235 C 0.85192 0.53658 0.34128
 C236 C 0.84667 0.50958 0.28845
 C237 C 0.81579 0.48320 0.28088
 C238 C 0.87243 0.50945 0.24469
 C239 C 0.90302 0.53626 0.25161
 C240 C 0.90788 0.56321 0.30198
 C241 C 0.88257 0.56329 0.34734
 H242 H 0.83069 0.55654 0.43105
 H243 H 0.81126 0.46244 0.24005
 H244 H 0.86873 0.48879 0.20466
 H245 H 0.88695 0.58420 0.38722
 H246 H 0.76708 0.46222 0.32366
 H247 H 0.93141 0.58408 0.30703
 C248 C 0.43240 0.27836 0.41046
 C249 C 0.46189 0.28020 0.39918
 C250 C 0.48545 0.30464 0.34465
 C251 C 0.48027 0.32841 0.30656
 C252 C 0.45041 0.32639 0.31810
 C253 C 0.42651 0.30102 0.36907
 C254 C 0.44524 0.35019 0.28046
 C255 C 0.46995 0.37663 0.23535
 C256 C 0.49967 0.37893 0.22556
 C257 C 0.50469 0.35472 0.25970
 H258 H 0.50826 0.30605 0.33649
 H259 H 0.40359 0.29919 0.37901
 H260 H 0.42238 0.34870 0.28854
 H261 H 0.52778 0.35684 0.25095
 H262 H 0.41407 0.25951 0.45232
 H263 H 0.51884 0.39930 0.19048
 C264 C 0.73152 0.16886 0.33171
 C265 C 0.72275 0.18549 0.39421
 C266 C 0.69055 0.17633 0.40268
 C267 C 0.66721 0.15011 0.35265
 C268 C 0.67615 0.13339 0.28999
 C269 C 0.70842 0.14308 0.27974
 C270 C 0.65263 0.10723 0.23935
 C271 C 0.62034 0.09716 0.25276
 C272 C 0.61183 0.11382 0.31592
 C273 C 0.63505 0.14023 0.36477
 H274 H 0.68366 0.18977 0.44790
 H275 H 0.71576 0.13058 0.23217
 H276 H 0.65936 0.09434 0.19126
 H277 H 0.62782 0.15273 0.41278
 H278 H 0.75626 0.17574 0.32360
 H279 H 0.58710 0.10654 0.32714
 C280 C 0.44101 0.14657 -0.43539
 C281 C 0.46302 0.17799 -0.40635
 C282 C 0.48241 0.18204 -0.32831
 C283 C 0.48170 0.15549 -0.28573
 C284 C 0.46071 0.12432 -0.31958
 C285 C 0.44005 0.12010 -0.39308
 C286 C 0.46100 0.09791 -0.28006
 C287 C 0.48195 0.10231 -0.20711
 C288 C 0.50233 0.13311 -0.17236
 C289 C 0.50225 0.15960 -0.21148
 H290 H 0.49958 0.20589 -0.30438
 H291 H 0.42337 0.09634 -0.41865
 H292 H 0.44521 0.07399 -0.30646
 H293 H 0.51850 0.18328 -0.18448
 H294 H 0.42439 0.14236 -0.49129
 H295 H 0.51855 0.13665 -0.11579
 C296 C 0.71175 0.53873 -0.31824
 C297 C 0.70261 0.51664 -0.39254
 C298 C 0.67007 0.49498 -0.40606
 C299 C 0.64714 0.49629 -0.35071
 C300 C 0.65650 0.51923 -0.27854
 C301 C 0.68893 0.54019 -0.26243
 C302 C 0.63323 0.52076 -0.22425
 C303 C 0.60084 0.49971 -0.24225
 C304 C 0.59200 0.47663 -0.31315
 C305 C 0.61490 0.47488 -0.36670
 H306 H 0.66249 0.47596 -0.45687
 H307 H 0.69665 0.55786 -0.20715
 H308 H 0.64027 0.53861 -0.16968
 H309 H 0.60736 0.45706 -0.42152
 H310 H 0.73658 0.55569 -0.30513
 H311 H 0.56721 0.46001 -0.32811
 C312 C 0.80119 0.30773 -0.32768
 C313 C 0.81293 0.29646 -0.39953
 C314 C 0.84608 0.31243 -0.41403
 C315 C 0.86665 0.33957 -0.36122
 C316 C 0.85427 0.35053 -0.29031
 C317 C 0.82155 0.33436 -0.27398
 C318 C 0.87485 0.37741 -0.23663
 C319 C 0.90756 0.39352 -0.25377
 C320 C 0.91976 0.38279 -0.32465
 C321 C 0.89947 0.35590 -0.37788
 H322 H 0.85614 0.30336 -0.46458
 H323 H 0.81162 0.34248 -0.22012
 H324 H 0.86552 0.38580 -0.18170
 H325 H 0.90941 0.34794 -0.43210
 H326 H 0.77593 0.29660 -0.31468
 H327 H 0.94506 0.39514 -0.33824
 C328 C 0.56612 -0.16670 -0.31826
 C329 C 0.54623 -0.17950 -0.39714
 C330 C 0.52653 -0.16691 -0.42115
 C331 C 0.52741 -0.14168 -0.37021
 C332 C 0.54778 -0.12892 -0.29231
 C333 C 0.56698 -0.14166 -0.26687
 C334 C 0.54841 -0.10382 -0.24088
 C335 C 0.52897 -0.09125 -0.26675
 C336 C 0.50880 -0.10417 -0.34441
 C337 C 0.50796 -0.12919 -0.39553
 H338 H 0.50926 -0.17769 -0.47659
 H339 H 0.58278 -0.13219 -0.20735
 H340 H 0.56405 -0.09405 -0.18108
 H341 H 0.49216 -0.13871 -0.45507
 H342 H 0.58187 -0.17538 -0.29755
 H343 H 0.49353 -0.09496 -0.36566
 C344 C 0.28921 0.49714 -0.29473
 C345 C 0.28234 0.48476 -0.38651
 C346 C 0.29850 0.46945 -0.42084
 C347 C 0.32214 0.46839 -0.36771
 C348 C 0.32834 0.48067 -0.27584
 C349 C 0.31159 0.49476 -0.23987
 C350 C 0.35160 0.47914 -0.22205
 C351 C 0.36974 0.46696 -0.26081
 C352 C 0.36413 0.45553 -0.35274
 C353 C 0.34003 0.45564 -0.40538
 H354 H 0.29242 0.45775 -0.48818
 H355 H 0.31632 0.50464 -0.16997
 H356 H 0.35640 0.48844 -0.15140
 H357 H 0.33585 0.44643 -0.47604
 H358 H 0.27800 0.50972 -0.26567
 H359 H 0.37823 0.44624 -0.38336
 C360 C 1.19727 0.66377 -0.39876
 C361 C 1.20470 0.69584 -0.39648
 C362 C 1.18479 0.70411 -0.34793
 C363 C 1.15697 0.68032 -0.30527
 C364 C 1.14878 0.64784 -0.31256
 C365 C 1.16928 0.63986 -0.35848
 C366 C 1.12029 0.62392 -0.27362
 C367 C 1.10029 0.63207 -0.22508
 C368 C 1.10909 0.66441 -0.21527
 C369 C 1.13705 0.68836 -0.25600
 H370 H 1.19077 0.72896 -0.34477
 H371 H 1.16369 0.61516 -0.36309
 H372 H 1.11383 0.59899 -0.28017
 H373 H 1.14307 0.71313 -0.24912
 H374 H 1.21309 0.65720 -0.43227
 H375 H 1.09397 0.67110 -0.17785
 C376 C 0.80856 0.48840 -0.43421
 C377 C 0.79939 0.51088 -0.40923
 C378 C 0.81555 0.53216 -0.33498
 C379 C 0.84151 0.53237 -0.29147
 C380 C 0.85124 0.51071 -0.32111
 C381 C 0.83432 0.48852 -0.39141
 C382 C 0.87791 0.51171 -0.28051
 C383 C 0.89509 0.53410 -0.21035
 C384 C 0.88490 0.55510 -0.17961
 C385 C 0.85835 0.55431 -0.22003
 H386 H 0.80913 0.54976 -0.31415
 H387 H 0.84104 0.47126 -0.41351
 H388 H 0.88542 0.49522 -0.30421
 H389 H 0.85120 0.57106 -0.19615
 H390 H 0.79541 0.47016 -0.48602
 H391 H 0.89777 0.57251 -0.12541
 C392 C 0.49850 0.31634 -0.43132
 C393 C 0.47638 0.28533 -0.40043
 C394 C 0.45857 0.28202 -0.31952
 C395 C 0.46052 0.30917 -0.27658
 C396 C 0.48149 0.33996 -0.31252
 C397 C 0.50096 0.34332 -0.38820
 C398 C 0.48221 0.36691 -0.27375
 C399 C 0.46192 0.36368 -0.19998
 C400 C 0.44173 0.33316 -0.16263
 C401 C 0.44107 0.30610 -0.20054
 H402 H 0.44154 0.25839 -0.29404
 H403 H 0.51771 0.36680 -0.41521
 H404 H 0.49809 0.39037 -0.30264
 H405 H 0.42488 0.28274 -0.17175
 H406 H 0.51423 0.31978 -0.48885
 H407 H 0.42602 0.33015 -0.10532
 C408 C 0.72473 0.16209 -0.38089
 C409 C 0.72057 0.18830 -0.39878
 C410 C 0.69377 0.18853 -0.36409
 C411 C 0.67048 0.16204 -0.31498
 C412 C 0.67496 0.13579 -0.29602
 C413 C 0.70229 0.13617 -0.32878
 C414 C 0.65161 0.10925 -0.24701
 C415 C 0.62324 0.10801 -0.22117
 C416 C 0.61870 0.13385 -0.24167
 C417 C 0.64240 0.16095 -0.28668
 H418 H 0.69062 0.20882 -0.37833
 H419 H 0.70600 0.11619 -0.31557
 H420 H 0.65479 0.08898 -0.23283
 H421 H 0.63845 0.18069 -0.30139
 H422 H 0.74546 0.16183 -0.40711
 H423 H 0.59676 0.13301 -0.22264
 C424 C 1.16828 0.46021 -0.31201
 C425 C 1.18137 0.48148 -0.38786
 C426 C 1.16979 0.50240 -0.40719
 C427 C 1.14497 0.50122 -0.35502
 C428 C 1.13167 0.47932 -0.28056
 C429 C 1.14365 0.45908 -0.25925
 C430 C 1.10647 0.47788 -0.22922
 C431 C 1.09428 0.49790 -0.25225
 C432 C 1.10795 0.51985 -0.32579
 C433 C 1.13315 0.52158 -0.37656
 H434 H 1.18048 0.52012 -0.46191
 H435 H 1.13373 0.44210 -0.20248
 H436 H 1.09606 0.46090 -0.17257
 H437 H 1.14314 0.53858 -0.43327
 H438 H 1.17619 0.44343 -0.29543
 H439 H 1.09907 0.53567 -0.34447
 C440 C 0.56224 0.72165 -0.31379
 C441 C 0.54004 0.71616 -0.38439
 C442 C 0.51500 0.68481 -0.40059
 C443 C 0.51342 0.65898 -0.35147
 C444 C 0.53626 0.66468 -0.28187
 C445 C 0.56026 0.69613 -0.26253
 C446 C 0.53510 0.63880 -0.23409
 C447 C 0.51187 0.60722 -0.25648
 C448 C 0.48928 0.60179 -0.32574
 C449 C 0.48989 0.62748 -0.37240
 H450 H 0.49745 0.68048 -0.45382
 H451 H 0.57794 0.70091 -0.20936
 H452 H 0.55272 0.64322 -0.18101
 H453 H 0.47229 0.62270 -0.42584
 H454 H 0.58162 0.74563 -0.30010
 H455 H 0.47111 0.57764 -0.34382
 C456 C 0.29683 -0.17381 -0.39030
 C457 C 0.30284 -0.19928 -0.38402
 C458 C 0.32868 -0.19578 -0.33132
 C459 C 0.35010 -0.16595 -0.29200
 C460 C 0.34405 -0.14022 -0.29932
 C461 C 0.31699 -0.14463 -0.34691
 C462 C 0.36575 -0.11023 -0.26183
 C463 C 0.39410 -0.10525 -0.22165
 C464 C 0.40030 -0.13058 -0.21574
 C465 C 0.37816 -0.16094 -0.24918
 H466 H 0.33323 -0.21554 -0.32667
 H467 H 0.31206 -0.12518 -0.35350
 H468 H 0.36126 -0.09043 -0.26709
 H469 H 0.38336 -0.18024 -0.24381
 H470 H 0.27680 -0.17642 -0.43049
 H471 H 0.42221 -0.12686 -0.18470
 C472 C 0.57418 -0.15263 0.39086
 C473 C 0.54515 -0.18152 0.39408
 C474 C 0.51904 -0.18469 0.34345
 C475 C 0.52132 -0.15844 0.29463
 C476 C 0.55066 -0.12930 0.29183
 C477 C 0.57706 -0.12682 0.33909
 C478 C 0.55275 -0.10281 0.24488
 C479 C 0.52556 -0.10469 0.20500
 C480 C 0.49649 -0.13348 0.20887
 C481 C 0.49449 -0.16039 0.25177
 H482 H 0.49659 -0.20699 0.34654
 H483 H 0.59964 -0.10466 0.33816
 H484 H 0.57504 -0.08029 0.24354
 H485 H 0.47178 -0.18240 0.25403
 H486 H 0.59452 -0.15004 0.42929
 H487 H 0.47529 -0.13501 0.17911
 C488 C 0.32116 0.52361 0.43599
 C489 C 0.29052 0.50001 0.40781
 C490 C 0.28719 0.47985 0.33289
 C491 C 0.31401 0.48144 0.29132
 C492 C 0.34477 0.50384 0.32387
 C493 C 0.34808 0.52538 0.39478
 C494 C 0.37148 0.50370 0.28638
 C495 C 0.36763 0.48155 0.21644
 C496 C 0.33693 0.46025 0.18282
 C497 C 0.31043 0.46011 0.21998
 H498 H 0.26363 0.46163 0.31071
 H499 H 0.37141 0.54295 0.42017
 H500 H 0.39504 0.52042 0.31234
 H501 H 0.28704 0.44291 0.19397
 H502 H 0.32416 0.53959 0.49309
 H503 H 0.33323 0.44306 0.12870
 C504 C 1.20544 0.66743 0.38040
 C505 C 1.20864 0.69747 0.39792
 C506 C 1.18615 0.70472 0.36224
 C507 C 1.15964 0.68147 0.31306
 C508 C 1.15541 0.65047 0.30126
 C509 C 1.17870 0.64384 0.33374
 C510 C 1.12779 0.62655 0.25818
 C511 C 1.10484 0.63346 0.22422
 C512 C 1.10993 0.66465 0.23166
 C513 C 1.13700 0.68845 0.27686
 H514 H 1.18906 0.72822 0.37440
 H515 H 1.17611 0.62039 0.32371
 H516 H 1.12406 0.60252 0.25126
 H517 H 1.14004 0.71216 0.28449
 H518 H 1.22326 0.66201 0.40509
 H519 H 1.09240 0.67028 0.20564
 C520 C 0.44444 0.16557 0.31440
 C521 C 0.46693 0.18096 0.38556
 C522 C 0.48997 0.17212 0.40222
 C523 C 0.48929 0.14679 0.35252
 C524 C 0.46615 0.13100 0.28226
 C525 C 0.44414 0.14089 0.26279
 C526 C 0.46501 0.10518 0.23397
 C527 C 0.48623 0.09447 0.25647
 C528 C 0.50918 0.11035 0.32621
 C529 C 0.51085 0.13646 0.37345
 H530 H 0.50770 0.18428 0.45608
 H531 H 0.42627 0.12906 0.20916
 H532 H 0.44715 0.09298 0.18047
 H533 H 0.52866 0.14823 0.42728
 H534 H 0.42655 0.17212 0.30048
 H535 H 0.52586 0.10257 0.34432
 C536 C 0.70289 0.54548 0.38766
 C537 C 0.69789 0.51448 0.40022
 C538 C 0.67026 0.48814 0.36441
 C539 C 0.64681 0.49262 0.32148
 C540 C 0.65221 0.52401 0.30803
 C541 C 0.68048 0.55027 0.34058
 C542 C 0.62898 0.52854 0.26398
 C543 C 0.59981 0.50210 0.23785
 C544 C 0.59415 0.47104 0.25402
 C545 C 0.61771 0.46629 0.29395
 H546 H 0.66643 0.46419 0.37421
 H547 H 0.68493 0.57446 0.33145
 H548 H 0.63313 0.55255 0.25260
 H549 H 0.61298 0.44208 0.30472
 H550 H 0.72423 0.56597 0.41450
 H551 H 0.57167 0.45046 0.23426
 C552 C 0.83874 0.28537 0.33119
 C553 C 0.81999 0.29219 0.39082
 C554 C 0.82518 0.32355 0.39465
 C555 C 0.85005 0.34817 0.34386
 C556 C 0.86895 0.34107 0.28465
 C557 C 0.86284 0.30952 0.27804
 C558 C 0.89405 0.36574 0.23462
 C559 C 0.90121 0.39756 0.24562
 C560 C 0.88244 0.40442 0.30497
 C561 C 0.85684 0.37989 0.35285
 H562 H 0.81046 0.32889 0.43922
 H563 H 0.87710 0.30364 0.23323
 H564 H 0.90865 0.36033 0.18968
 H565 H 0.84273 0.38581 0.39823
 H566 H 0.83502 0.26132 0.32693
 H567 H 0.88755 0.42883 0.31421
   
