data_POSCAR
  _audit_creation_date              2014-09-24
  _audit_creation_method            'ToBaCCo'
  _symmetry_space_group_name_H-M    'P1'
  _symmetry_Int_Tables_number       1
  _symmetry_cell_setting            triclinic
  loop_
  _symmetry_equiv_pos_as_xyz
 x,y,z
_cell_length_a 21.9148
_cell_length_b 31.5399
_cell_length_c 33.4110
_cell_angle_alpha 88.465200
_cell_angle_beta 87.638500
_cell_angle_gamma 100.623600
loop_
  _atom_site_label
  _atom_site_type_symbol
  _atom_site_fract_x
  _atom_site_fract_y
  _atom_site_fract_z
N1 N 0.17841 1.28597 0.14145
 N2 N 0.11845 1.27818 0.15103
 C3 C 0.09076 1.30564 0.12979
 C4 C 0.13629 1.33259 0.10632
 C5 C 0.19143 1.31964 0.11500
 H6 H 0.04137 1.30571 0.13105
 H7 H 0.23700 1.33162 0.10105
 Cu8 Cu 0.08340 1.23222 0.19006
 Cu9 Cu 0.23276 1.24677 0.15822
 Cu10 Cu 0.14973 1.14527 0.18490
 N11 N 0.06296 1.18524 0.23031
 N12 N 0.08602 1.14981 0.22639
 C13 C 0.06657 1.12284 0.25807
 C14 C 0.03098 1.14290 0.28386
 C15 C 0.02909 1.18246 0.26522
 H16 H 0.08119 1.09230 0.26339
 H17 H 0.00682 1.20783 0.27668
 N18 N 0.23512 1.15510 0.16194
 N19 N 0.26923 1.19407 0.15608
 C20 C 0.32645 1.19030 0.14204
 C21 C 0.32748 1.14690 0.13831
 C22 C 0.26889 1.12552 0.15092
 H23 H 0.36265 1.21708 0.13203
 H24 H 0.25178 1.09106 0.15148
 H25 H 0.15760 1.20178 0.14864
 H26 H 0.17995 1.20617 0.20178
 N27 N 0.88085 0.73753 0.15092
 N28 N 0.90499 0.72768 0.18476
 C29 C 0.93720 0.69589 0.17843
 C30 C 0.93311 0.68512 0.13869
 C31 C 0.89716 0.71211 0.12207
 H32 H 0.96145 0.68152 0.20118
 H33 H 0.88247 0.71229 0.09157
 Cu34 Cu 0.89425 0.75687 0.23512
 Cu35 Cu 0.82504 0.78015 0.14721
 Cu36 Cu 0.79284 0.82353 0.23397
 N37 N 0.89880 0.80423 0.27205
 N38 N 0.86109 0.83202 0.26965
 C39 C 0.87653 0.86303 0.29619
 C40 C 0.92585 0.85365 0.31696
 C41 C 0.93870 0.81588 0.30114
 H42 H 0.85281 0.88987 0.30060
 H43 H 0.97512 0.79880 0.30929
 N44 N 0.73888 0.82299 0.18970
 N45 N 0.75328 0.80840 0.15472
 C46 C 0.71294 0.81774 0.12792
 C47 C 0.67041 0.83821 0.14769
 C48 C 0.68813 0.84090 0.18682
 H49 H 0.71513 0.81094 0.09638
 H50 H 0.66818 0.85730 0.21065
 H51 H 0.87816 0.80195 0.19528
 H52 H 0.81107 0.75652 0.20482
 N53 N 0.88715 1.22104 -0.13400
 N54 N 0.89640 1.23722 -0.17091
 C55 C 0.91006 1.28054 -0.16987
 C56 C 0.91048 1.29192 -0.13014
 C57 C 0.89595 1.25341 -0.10814
 H58 H 0.91976 1.30206 -0.19604
 H59 H 0.89086 1.24936 -0.07586
 Cu60 Cu 0.89022 1.20049 -0.21735
 Cu61 Cu 0.86058 1.15944 -0.12368
 Cu62 Cu 0.89445 1.09319 -0.19402
 N63 N 0.91035 1.15961 -0.25752
 N64 N 0.91548 1.11958 -0.24785
 C65 C 0.93122 1.10001 -0.28093
 C66 C 0.93579 1.12895 -0.31312
 C67 C 0.92252 1.16658 -0.29729
 H68 H 0.93686 1.06667 -0.28172
 H69 H 0.92172 1.19666 -0.31340
 N70 N 0.84141 1.07177 -0.14686
 N71 N 0.82523 1.09817 -0.12031
 C72 C 0.78457 1.07545 -0.09287
 C73 C 0.77563 1.03251 -0.10257
 C74 C 0.81273 1.03115 -0.13679
 H75 H 0.76334 1.08906 -0.06768
 H76 H 0.81697 1.00308 -0.15385
 H77 H 0.92837 1.15903 -0.18369
 H78 H 0.84452 1.14094 -0.19332
 N79 N 0.10512 0.77961 -0.14456
 N80 N 0.07575 0.77042 -0.17767
 C81 C 0.03862 0.73144 -0.17287
 C82 C 0.04505 0.71547 -0.13462
 C83 C 0.08768 0.74677 -0.11747
 H84 H 0.00940 0.71587 -0.19555
 H85 H 0.10519 0.74560 -0.08773
 Cu86 Cu 0.08964 0.80986 -0.22427
 Cu87 Cu 0.16443 0.83339 -0.14024
 Cu88 Cu 0.12698 0.91416 -0.20178
 N89 N 0.08949 0.85564 -0.26423
 N90 N 0.10127 0.89647 -0.25484
 C91 C 0.09279 0.92117 -0.28688
 C92 C 0.07593 0.89431 -0.31818
 C93 C 0.07443 0.85288 -0.30283
 H94 H 0.09891 0.95602 -0.28740
 H95 H 0.06152 0.82297 -0.31809
 N96 N 0.17823 0.92569 -0.15469
 N97 N 0.19525 0.89494 -0.13257
 C98 C 0.23356 0.91305 -0.10475
 C99 C 0.24068 0.95731 -0.10956
 C100 C 0.20499 0.96429 -0.14138
 H101 H 0.25398 0.89535 -0.08234
 H102 H 0.19988 0.99513 -0.15439
 H103 H 0.09793 0.85746 -0.16752
 H104 H 0.17228 0.86325 -0.19829
 C105 C 0.42969 0.99667 -0.01009
 C106 C 0.47275 1.00131 0.02021
 C107 C 0.46913 1.03126 0.05016
 C108 C 0.42230 1.05611 0.05012
 C109 C 0.37942 1.05109 0.01988
 C110 C 0.38315 1.02181 -0.01055
 C111 C 0.52169 0.97494 0.02063
 C112 C 0.56707 0.97946 -0.01072
 C113 C 0.61448 0.95516 -0.01001
 C114 C 0.61610 0.92599 0.02217
 C115 C 0.57196 0.92200 0.05442
 C116 C 0.52443 0.94648 0.05319
 H117 H 0.43270 0.97371 -0.03333
 H118 H 0.50236 1.03489 0.07355
 H119 H 0.56596 1.00236 -0.03534
 H120 H 0.48968 0.94411 0.07747
 H121 H 0.34307 1.07020 0.02003
 H122 H 0.65377 0.90809 0.02303
 C123 C -0.03601 0.45380 0.96384
 C124 C -0.00552 0.47933 0.99349
 C125 C 0.03277 0.46121 1.01908
 C126 C 0.03974 0.41817 1.01563
 C127 C 0.00873 0.39293 0.98607
 C128 C -0.02777 0.41101 0.95912
 C129 C -0.01019 0.52565 0.99588
 C130 C -0.01335 0.54493 1.03314
 C131 C -0.01576 0.58907 1.03541
 C132 C -0.01482 0.61403 0.99986
 C133 C -0.01190 0.59518 0.96244
 C134 C -0.00973 0.55109 0.96070
 H135 H -0.06570 0.46754 0.94408
 H136 H 0.05902 0.48096 1.04086
 H137 H -0.01532 0.52523 1.06037
 H138 H -0.00519 0.53695 0.93180
 H139 H 0.01661 0.36031 0.98232
 H140 H -0.01630 0.64812 1.00128
 C141 C 0.98640 -0.02719 0.44729
 C142 C 0.99392 0.01312 0.46563
 C143 C 0.99479 0.05042 0.44109
 C144 C 0.98848 0.04741 0.39946
 C145 C 0.98243 0.00698 0.38209
 C146 C 0.98212 -0.03026 0.40578
 C147 C 1.00125 0.01570 0.51001
 C148 C 1.02452 -0.01674 0.53115
 C149 C 1.02618 -0.01739 0.57304
 C150 C 1.00952 0.01691 0.59397
 C151 C 0.98894 0.05080 0.57369
 C152 C 0.98356 0.04952 0.53188
 H153 H 0.98259 -0.05679 0.46507
 H154 H 1.00258 0.08201 0.45383
 H155 H 1.04169 -0.04177 0.51515
 H156 H 0.96379 0.07413 0.51675
 H157 H 0.97885 0.00452 0.34993
 H158 H 1.01165 0.01683 0.62632
 C159 C 0.12836 0.36427 1.07803
 C160 C 0.17670 0.39280 1.05868
 C161 C 0.14927 0.41749 1.03358
 C162 C 0.08646 0.40182 1.03894
 O163 O 0.07332 0.36958 1.06595
 H164 H 0.22605 0.39552 1.06250
 H165 H 0.17218 0.44328 1.01315
 C166 C -0.04134 0.65064 1.11889
 C167 C -0.01204 0.62156 1.13845
 C168 C 0.00181 0.59447 1.10979
 C169 C -0.01986 0.60912 1.07473
 O170 O -0.04593 0.64335 1.08021
 H171 H -0.00249 0.61995 1.16991
 H172 H 0.02528 0.56748 1.11401
 C173 C -0.07697 0.33570 0.88540
 C174 C -0.08020 0.37247 0.86305
 C175 C -0.06447 0.40560 0.88815
 C176 C -0.05232 0.38666 0.92405
 O177 O -0.05989 0.34409 0.92236
 H178 H -0.09216 0.37485 0.83207
 H179 H -0.06016 0.43960 0.88051
 C180 C 0.01520 0.67336 0.88346
 C181 C -0.01929 0.64072 0.86282
 C182 C -0.03485 0.60696 0.88985
 C183 C -0.00912 0.62167 0.92508
 O184 O 0.02121 0.66202 0.92130
 H185 H -0.03060 0.64113 0.83161
 H186 H -0.06154 0.57535 0.88449
 C187 C 1.00820 0.12731 0.32208
 C188 C 0.98058 0.14991 0.35022
 C189 C 0.96986 0.12324 0.38372
 C190 C 0.99102 0.08624 0.37325
 O191 O 1.01415 0.08872 0.33593
 H192 H 0.97064 0.18216 0.34708
 H193 H 0.94865 0.12980 0.41216
 C194 C 1.06185 -0.09337 0.64342
 C195 C 1.04888 -0.12111 0.61237
 C196 C 1.03617 -0.09604 0.58110
 C197 C 1.04196 -0.05482 0.59539
 O198 O 1.05763 -0.05322 0.63324
 H199 H 1.04799 -0.15553 0.61254
 H200 H 1.02194 -0.10706 0.55194
 C201 C 0.95532 -0.12236 0.34739
 C202 C 0.99916 -0.13510 0.37120
 C203 C 1.01393 -0.10263 0.39727
 C204 C 0.97880 -0.07228 0.38692
 O205 O 0.94319 -0.08417 0.35672
 H206 H 1.01760 -0.16463 0.37008
 H207 H 1.04727 -0.10080 0.42047
 C208 C 0.94929 0.12043 0.64710
 C209 C 0.95079 0.14869 0.61468
 C210 C 0.96512 0.12643 0.58212
 C211 C 0.97149 0.08630 0.59719
 O212 O 0.96193 0.08281 0.63656
 H213 H 0.94247 0.18146 0.61466
 H214 H 0.97118 0.13846 0.55131
 C215 C 0.37593 1.12756 0.11847
 C216 C 0.43902 1.14192 0.12044
 C217 C 0.46588 1.11533 0.09649
 C218 C 0.41686 1.08748 0.08127
 O219 O 0.36239 1.09481 0.09467
 H220 H 0.46240 1.16867 0.13705
 H221 H 0.51500 1.11721 0.08956
 C222 C 0.73430 0.99644 -0.08112
 C223 C 0.73829 0.95353 -0.08433
 C224 C 0.69343 0.93174 -0.05794
 C225 C 0.66499 0.96306 -0.04123
 O226 O 0.68979 1.00230 -0.05518
 H227 H 0.77086 0.93992 -0.10294
 H228 H 0.68269 0.89727 -0.05161
 C229 C 0.27754 0.98986 -0.08533
 C230 C 0.27364 1.03299 -0.08621
 C231 C 0.31296 1.05096 -0.05820
 C232 C 0.33830 1.01747 -0.04259
 O233 O 0.31693 0.98033 -0.05908
 H234 H 0.24485 1.04924 -0.10456
 H235 H 0.32223 1.08449 -0.05023
 C236 C 0.62237 0.85876 0.13022
 C237 C 0.57210 0.86849 0.15173
 C238 C 0.54386 0.89176 0.12573
 C239 C 0.57951 0.89493 0.09022
 O240 O 0.62698 0.87457 0.09301
 H241 H 0.55878 0.86066 0.18299
 H242 H 0.50370 0.90605 0.13278
   
