data_POSCAR
  _audit_creation_date              2014-09-24
  _audit_creation_method            'ToBaCCo'
  _symmetry_space_group_name_H-M    'P1'
  _symmetry_Int_Tables_number       1
  _symmetry_cell_setting            triclinic
  loop_
  _symmetry_equiv_pos_as_xyz
 x,y,z
_cell_length_a 32.8080
_cell_length_b 31.0741
_cell_length_c 31.9363
_cell_angle_alpha 89.348400
_cell_angle_beta 87.282100
_cell_angle_gamma 92.968200
loop_
  _atom_site_label
  _atom_site_type_symbol
  _atom_site_fract_x
  _atom_site_fract_y
  _atom_site_fract_z
N1 N 0.17966 1.27161 0.13847
 N2 N 0.15532 1.27587 0.17181
 C3 C 0.12657 1.30354 0.16303
 C4 C 0.13270 1.31693 0.12141
 C5 C 0.16700 1.29600 0.10705
 H6 H 0.10156 1.31080 0.18460
 H7 H 0.18149 1.29760 0.07595
 Cu8 Cu 0.15954 1.23948 0.22090
 Cu9 Cu 0.22475 1.23310 0.13768
 Cu10 Cu 0.23446 1.17087 0.22746
 N11 N 0.15415 1.18986 0.25863
 N12 N 0.18405 1.16379 0.26234
 C13 C 0.17195 1.13196 0.28982
 C14 C 0.13165 1.13764 0.30329
 C15 C 0.12163 1.17508 0.28279
 H16 H 0.19048 1.10538 0.29721
 H17 H 0.09279 1.19043 0.28462
 N18 N 0.27283 1.16966 0.17805
 N19 N 0.26853 1.19262 0.14367
 C20 C 0.29595 1.18082 0.11391
 C21 C 0.31842 1.14848 0.13000
 C22 C 0.30308 1.14252 0.17097
 H23 H 0.29806 1.19345 0.08220
 H24 H 0.31105 1.11795 0.19293
 H25 H 0.19830 1.18853 0.18080
 H26 H 0.23240 1.23260 0.20084
 N27 N 0.80622 0.72591 0.16175
 N28 N 0.83389 0.72936 0.19011
 C29 C 0.86533 0.70516 0.17886
 C30 C 0.85669 0.68505 0.14159
 C31 C 0.81870 0.69868 0.13184
 H32 H 0.89287 0.70327 0.19597
 H33 H 0.80249 0.69144 0.10384
 Cu34 Cu 0.82752 0.76737 0.23757
 Cu35 Cu 0.75828 0.76052 0.16395
 Cu36 Cu 0.76733 0.85040 0.22738
 N37 N 0.83256 0.81731 0.27313
 N38 N 0.81039 0.85070 0.26754
 C39 C 0.82375 0.88306 0.29185
 C40 C 0.85618 0.86926 0.31414
 C41 C 0.86046 0.82696 0.30158
 H42 H 0.81115 0.91450 0.29242
 H43 H 0.88390 0.80570 0.30997
 N44 N 0.72555 0.84334 0.18511
 N45 N 0.72244 0.80933 0.16081
 C46 C 0.69406 0.81580 0.13261
 C47 C 0.67819 0.85558 0.13979
 C48 C 0.69867 0.87199 0.17345
 H49 H 0.68665 0.79391 0.10768
 H50 H 0.69592 0.90365 0.18665
 H51 H 0.79516 0.80947 0.18543
 H52 H 0.75681 0.78504 0.22478
 N53 N 0.82536 1.25833 -0.15493
 N54 N 0.85609 1.25674 -0.18269
 C55 C 0.88707 1.28337 -0.17111
 C56 C 0.87493 1.30311 -0.13424
 C57 C 0.83542 1.28663 -0.12506
 H58 H 0.91647 1.28739 -0.18786
 H59 H 0.81622 1.29299 -0.09759
 Cu60 Cu 0.85340 1.21823 -0.22994
 Cu61 Cu 0.77612 1.22075 -0.15783
 Cu62 Cu 0.78097 1.13866 -0.23116
 N63 N 0.85940 1.16917 -0.26628
 N64 N 0.83038 1.13857 -0.26745
 C65 C 0.84213 1.10833 -0.29462
 C66 C 0.88124 1.12007 -0.31087
 C67 C 0.89108 1.15911 -0.29196
 H68 H 0.82414 1.07905 -0.30034
 H69 H 0.91912 1.17882 -0.29616
 N70 N 0.73905 1.13904 -0.18487
 N71 N 0.73652 1.17068 -0.15775
 C72 C 0.70730 1.15958 -0.12798
 C73 C 0.69108 1.11879 -0.13642
 C74 C 0.71187 1.10684 -0.17278
 H75 H 0.70063 1.17828 -0.10037
 H76 H 0.70880 1.07612 -0.18817
 H77 H 0.80943 1.17231 -0.18393
 H78 H 0.77872 1.20348 -0.21992
 N79 N 0.18259 0.73949 -0.15668
 N80 N 0.15379 0.74268 -0.18362
 C81 C 0.12097 0.71747 -0.17056
 C82 C 0.12981 0.69703 -0.13357
 C83 C 0.16938 0.71144 -0.12593
 H84 H 0.09248 0.71506 -0.18629
 H85 H 0.18630 0.70433 -0.09864
 Cu86 Cu 0.16086 0.78133 -0.23202
 Cu87 Cu 0.23240 0.77683 -0.16088
 Cu88 Cu 0.21711 0.87158 -0.21489
 N89 N 0.16079 0.83060 -0.26989
 N90 N 0.18214 0.86633 -0.26233
 C91 C 0.17257 0.89723 -0.28939
 C92 C 0.14341 0.88008 -0.31562
 C93 C 0.13719 0.83729 -0.30244
 H94 H 0.18504 0.93006 -0.28871
 H95 H 0.11497 0.81361 -0.31331
 N96 N 0.26060 0.86607 -0.17492
 N97 N 0.26737 0.82968 -0.15537
 C98 C 0.29752 0.83697 -0.12872
 C99 C 0.31021 0.88021 -0.13146
 C100 C 0.28631 0.89743 -0.16141
 H101 H 0.30743 0.81319 -0.10697
 H102 H 0.28668 0.93067 -0.17178
 H103 H 0.19325 0.82136 -0.17648
 H104 H 0.23071 0.80878 -0.21975
 C105 C 0.45401 0.96841 -0.01360
 C106 C 0.47668 0.99347 0.01427
 C107 C 0.45728 1.02362 0.03967
 C108 C 0.41536 1.02934 0.03661
 C109 C 0.39307 1.00416 0.00857
 C110 C 0.41212 0.97385 -0.01684
 C111 C 0.52136 0.99145 0.01287
 C112 C 0.54491 1.01672 -0.01685
 C113 C 0.58723 1.01270 -0.02148
 C114 C 0.60583 0.98304 0.00393
 C115 C 0.58267 0.95839 0.03450
 C116 C 0.54031 0.96278 0.03900
 H117 H 0.46938 0.94608 -0.03398
 H118 H 0.47506 1.04375 0.06032
 H119 H 0.53010 1.03881 -0.03700
 H120 H 0.52209 0.94333 0.06204
 H121 H 0.36062 1.00828 0.00648
 H122 H 0.63861 0.98008 0.00082
 C123 C -0.03141 0.45396 0.97795
 C124 C -0.00713 0.47783 1.00529
 C125 C 0.02056 0.45700 1.02962
 C126 C 0.02494 0.41258 1.02578
 C127 C 0.00135 0.38908 0.99759
 C128 C -0.02722 0.40945 0.97386
 C129 C -0.00791 0.52505 1.00558
 C130 C -0.03578 0.54569 1.03214
 C131 C -0.03546 0.59089 1.03274
 C132 C -0.00789 0.61513 1.00570
 C133 C 0.01968 0.59464 0.97864
 C134 C 0.01985 0.54955 0.97913
 H135 H -0.05252 0.47026 0.95891
 H136 H 0.03949 0.47552 1.05057
 H137 H -0.05695 0.52668 1.05288
 H138 H 0.04109 0.53341 0.95839
 H139 H 0.00467 0.35469 0.99479
 H140 H -0.00782 0.65002 1.00581
 C141 C 0.97286 -0.03463 0.45224
 C142 C 1.00372 -0.01039 0.47164
 C143 C 1.03080 0.01732 0.44752
 C144 C 1.02613 0.02234 0.40439
 C145 C 0.99459 -0.00115 0.38533
 C146 C 0.96837 -0.03027 0.40894
 C147 C 1.00563 -0.01053 0.51753
 C148 C 1.03584 -0.03258 0.53730
 C149 C 1.04024 -0.02841 0.58060
 C150 C 1.01460 -0.00176 0.60376
 C151 C 0.98379 0.01945 0.58436
 C152 C 0.97913 0.01470 0.54127
 H153 H 0.95198 -0.05614 0.47088
 H154 H 1.05445 0.03628 0.46261
 H155 H 1.05624 -0.05220 0.51900
 H156 H 0.95591 0.03187 0.52597
 H157 H 0.99109 0.00243 0.35190
 H158 H 1.01793 0.00159 0.63721
 C159 C 0.11284 0.34593 1.05400
 C160 C 0.10772 0.34290 1.09808
 C161 C 0.07607 0.36537 1.11801
 C162 C 0.05002 0.38925 1.09456
 C163 C 0.05443 0.39047 1.05073
 C164 C 0.08611 0.36892 1.03064
 H165 H 0.13646 0.32935 1.03700
 H166 H 0.07122 0.36478 1.15174
 H167 H 0.02566 0.40580 1.11054
 H168 H 0.08997 0.36968 0.99676
 C169 C -0.07328 0.66644 1.11611
 C170 C -0.11584 0.65912 1.11528
 C171 C -0.13183 0.62802 1.08803
 C172 C -0.10567 0.60483 1.06194
 C173 C -0.06322 0.61315 1.06202
 C174 C -0.04725 0.64399 1.08940
 H175 H -0.06011 0.69046 1.13649
 H176 H -0.16452 0.62164 1.08694
 H177 H -0.11855 0.58123 1.04092
 H178 H -0.01456 0.65075 1.09000
 C179 C -0.05723 0.33036 0.89012
 C180 C -0.09999 0.33208 0.89187
 C181 C -0.11855 0.36068 0.91973
 C182 C -0.09482 0.38675 0.94563
 C183 C -0.05220 0.38406 0.94463
 C184 C -0.03361 0.35584 0.91649
 H185 H -0.04205 0.30844 0.86922
 H186 H -0.15141 0.36289 0.92154
 H187 H -0.10980 0.40818 0.96723
 H188 H -0.00076 0.35344 0.91502
 C189 C 0.11673 0.63893 0.92110
 C190 C 0.10161 0.66987 0.89431
 C191 C 0.05938 0.67559 0.89523
 C192 C 0.03284 0.65134 0.92291
 C193 C 0.04794 0.62033 0.94955
 C194 C 0.09004 0.61401 0.94818
 H195 H 0.14913 0.63379 0.92089
 H196 H 0.04692 0.69950 0.87524
 H197 H 0.00043 0.65652 0.92331
 H198 H 0.10230 0.59030 0.96856
 C199 C 1.12168 0.07575 0.35188
 C200 C 1.10589 0.11007 0.32950
 C201 C 1.06343 0.11549 0.33324
 C202 C 1.03761 0.08680 0.35739
 C203 C 1.05362 0.05279 0.37932
 C204 C 1.09584 0.04777 0.37689
 H205 H 1.15403 0.07047 0.35062
 H206 H 1.04956 0.14103 0.31665
 H207 H 1.00504 0.09125 0.35911
 H208 H 1.10871 0.02166 0.39375
 C209 C 1.12515 -0.05228 0.65147
 C210 C 1.12146 -0.09766 0.65475
 C211 C 1.09357 -0.11988 0.62929
 C212 C 1.06876 -0.09734 0.60321
 C213 C 1.07085 -0.05221 0.60245
 C214 C 1.09971 -0.02989 0.62610
 H215 H 1.14616 -0.03348 0.66990
 H216 H 1.09015 -0.15468 0.62982
 H217 H 1.04657 -0.11509 0.58512
 H218 H 1.10179 0.00503 0.62575
 C219 C 0.87945 -0.06108 0.34253
 C220 C 0.88158 -0.10625 0.34042
 C221 C 0.91094 -0.12607 0.36396
 C222 C 0.93798 -0.10143 0.38771
 C223 C 0.93686 -0.05645 0.38784
 C224 C 0.90721 -0.03648 0.36544
 H225 H 0.85760 -0.04414 0.32516
 H226 H 0.91338 -0.16064 0.36417
 H227 H 0.96074 -0.11736 0.40485
 H228 H 0.90593 -0.00171 0.36528
 C229 C 0.94802 0.10825 0.65449
 C230 C 0.90611 0.09648 0.66151
 C231 C 0.88998 0.05986 0.64097
 C232 C 0.91503 0.03561 0.61481
 C233 C 0.95682 0.04681 0.60934
 C234 C 0.97314 0.08330 0.62918
 H235 H 0.96208 0.13585 0.66953
 H236 H 0.85796 0.04978 0.64466
 H237 H 0.90200 0.00745 0.59964
 H238 H 1.00544 0.09234 0.62519
 C239 C 0.34679 1.12008 0.06227
 C240 C 0.34690 1.12109 0.10626
 C241 C 0.37256 1.09384 0.12708
 C242 C 0.39642 1.06515 0.10441
 C243 C 0.39455 1.06291 0.06068
 C244 C 0.37019 1.09124 0.03982
 H245 H 0.32744 1.14030 0.04500
 H246 H 0.37367 1.09413 0.16089
 H247 H 0.41503 1.04355 0.12111
 H248 H 0.36860 1.09037 0.00603
 C249 C 0.63420 1.11026 -0.08139
 C250 C 0.66267 1.09148 -0.10886
 C251 C 0.66507 1.04645 -0.10842
 C252 C 0.64031 1.02083 -0.08024
 C253 C 0.61218 1.03966 -0.05251
 C254 C 0.60889 1.08453 -0.05372
 H255 H 0.63159 1.14485 -0.08122
 H256 H 0.68696 1.03106 -0.12893
 H257 H 0.64318 0.98626 -0.07998
 H258 H 0.58751 1.09974 -0.03246
 C259 C 0.36609 0.88241 -0.08007
 C260 C 0.33863 0.90416 -0.10420
 C261 C 0.33721 0.94911 -0.10071
 C262 C 0.36165 0.97159 -0.07292
 C263 C 0.38828 0.94978 -0.04803
 C264 C 0.39088 0.90507 -0.05238
 H265 H 0.36822 0.84786 -0.08227
 H266 H 0.31641 0.96706 -0.11851
 H267 H 0.35951 1.00616 -0.07062
 H268 H 0.41120 0.88754 -0.03351
 C269 C 0.65058 0.87192 0.07006
 C270 C 0.65035 0.87872 0.11348
 C271 C 0.62529 0.90979 0.13107
 C272 C 0.60161 0.93434 0.10555
 C273 C 0.60337 0.92883 0.06198
 C274 C 0.62765 0.89714 0.04447
 H275 H 0.66986 0.84846 0.05561
 H276 H 0.62443 0.91548 0.16448
 H277 H 0.58322 0.95884 0.11956
 H278 H 0.62942 0.89251 0.01088
   
