data_POSCAR
  _audit_creation_date              2014-09-24
  _audit_creation_method            'ToBaCCo'
  _symmetry_space_group_name_H-M    'P1'
  _symmetry_Int_Tables_number       1
  _symmetry_cell_setting            triclinic
  loop_
  _symmetry_equiv_pos_as_xyz
 x,y,z
_cell_length_a 63.2405
_cell_length_b 63.7067
_cell_length_c 63.7959
_cell_angle_alpha 90.178800
_cell_angle_beta 89.861100
_cell_angle_gamma 90.132300
loop_
  _atom_site_label
  _atom_site_type_symbol
  _atom_site_fract_x
  _atom_site_fract_y
  _atom_site_fract_z
N1 N 0.28424 0.24121 0.22667
 N2 N 0.27565 0.25805 0.21849
 C3 C 0.28686 0.26376 0.20145
 C4 C 0.30342 0.24976 0.19876
 C5 C 0.30118 0.23565 0.21514
 H6 H 0.28323 0.27717 0.19180
 H7 H 0.31104 0.22225 0.21847
 Cu8 Cu 0.25062 0.27077 0.23094
 Cu9 Cu 0.27284 0.22772 0.25164
 Cu10 Cu 0.22823 0.25015 0.27407
 N11 N 0.22559 0.28323 0.24365
 N12 N 0.21693 0.27509 0.26052
 C13 C 0.19997 0.28660 0.26602
 C14 C 0.19779 0.30292 0.25184
 C15 C 0.21441 0.30020 0.23786
 H16 H 0.19004 0.28329 0.27941
 H17 H 0.21808 0.30979 0.22439
 N18 N 0.24201 0.22490 0.28545
 N19 N 0.25898 0.21638 0.27692
 C20 C 0.26455 0.19944 0.28819
 C21 C 0.25042 0.19709 0.30467
 C22 C 0.23635 0.21359 0.30237
 H23 H 0.27796 0.18958 0.28463
 H24 H 0.22290 0.21710 0.31222
 H25 H 0.24195 0.23740 0.24752
 H26 H 0.25913 0.25433 0.26432
 N27 N 0.71634 -0.24177 0.22397
 N28 N 0.72468 -0.25889 0.21601
 C29 C 0.71352 -0.26470 0.19900
 C30 C 0.69716 -0.25045 0.19606
 C31 C 0.69959 -0.23610 0.21235
 H32 H 0.71711 -0.27832 0.18954
 H33 H 0.68997 -0.22250 0.21565
 Cu34 Cu 0.74933 -0.27197 0.22870
 Cu35 Cu 0.72776 -0.22806 0.24883
 Cu36 Cu 0.77220 -0.25041 0.27120
 N37 N 0.77459 -0.28404 0.24119
 N38 N 0.78343 -0.27553 0.25778
 C39 C 0.80049 -0.28684 0.26318
 C40 C 0.80262 -0.30350 0.24921
 C41 C 0.78578 -0.30109 0.23545
 H42 H 0.81051 -0.28307 0.27636
 H43 H 0.78186 -0.31094 0.22221
 N44 N 0.75852 -0.22499 0.28251
 N45 N 0.74160 -0.21650 0.27401
 C46 C 0.73604 -0.19947 0.28530
 C47 C 0.75013 -0.19706 0.30176
 C48 C 0.76416 -0.21360 0.29942
 H49 H 0.72264 -0.18963 0.28180
 H50 H 0.77755 -0.21711 0.30927
 H51 H 0.75847 -0.23826 0.24448
 H52 H 0.74119 -0.25450 0.26184
 N53 N 0.71810 0.24128 0.77483
 N54 N 0.72671 0.25818 0.78304
 C55 C 0.71550 0.26392 0.80009
 C56 C 0.69892 0.24985 0.80275
 C57 C 0.70116 0.23569 0.78635
 H58 H 0.71907 0.27743 0.80973
 H59 H 0.69126 0.22228 0.78294
 Cu60 Cu 0.75157 0.27110 0.77041
 Cu61 Cu 0.72929 0.22787 0.74968
 Cu62 Cu 0.77333 0.25089 0.72668
 N63 N 0.77642 0.28376 0.75750
 N64 N 0.78463 0.27598 0.74022
 C65 C 0.80133 0.28777 0.73446
 C66 C 0.80392 0.30390 0.74897
 C67 C 0.78770 0.30072 0.76339
 H68 H 0.81093 0.28457 0.72080
 H69 H 0.78418 0.31009 0.77708
 N70 N 0.75961 0.22541 0.71540
 N71 N 0.74290 0.21665 0.72420
 C72 C 0.73737 0.19955 0.71301
 C73 C 0.75125 0.19735 0.69630
 C74 C 0.76514 0.21410 0.69838
 H75 H 0.72416 0.18947 0.71680
 H76 H 0.77839 0.21778 0.68832
 H77 H 0.76020 0.23791 0.75335
 H78 H 0.74259 0.25467 0.73701
 N79 N 0.28751 -0.24349 0.77108
 N80 N 0.28124 -0.26241 0.77640
 C81 C 0.29323 -0.26930 0.79236
 C82 C 0.30790 -0.25385 0.79735
 C83 C 0.30374 -0.23771 0.78342
 H84 H 0.29128 -0.28440 0.79980
 H85 H 0.31161 -0.22266 0.78256
 Cu86 Cu 0.25766 -0.27619 0.76244
 Cu87 Cu 0.27383 -0.22759 0.74893
 Cu88 Cu 0.22656 -0.24761 0.73063
 N89 N 0.22946 -0.28550 0.75465
 N90 N 0.21695 -0.27379 0.74321
 C91 C 0.19824 -0.28363 0.74090
 C92 C 0.19910 -0.30279 0.75122
 C93 C 0.21930 -0.30336 0.75975
 H94 H 0.18532 -0.27754 0.73171
 H95 H 0.22607 -0.31558 0.76931
 N96 N 0.23924 -0.22152 0.71973
 N97 N 0.25741 -0.21401 0.72658
 C98 C 0.26246 -0.19678 0.71546
 C99 C 0.24675 -0.19325 0.70078
 C100 C 0.23226 -0.20929 0.70403
 H101 H 0.27685 -0.18785 0.71752
 H102 H 0.21787 -0.21211 0.69538
 H103 H 0.24495 -0.24086 0.75656
 H104 H 0.25891 -0.25196 0.73303
 N105 N 0.71868 -0.24068 0.77468
 N106 N 0.72727 -0.25762 0.78266
 C107 C 0.71640 -0.26322 0.79994
 C108 C 0.70006 -0.24903 0.80300
 C109 C 0.70209 -0.23493 0.78660
 H110 H 0.71998 -0.27676 0.80942
 H111 H 0.69224 -0.22148 0.78343
 Cu112 Cu 0.75157 -0.27085 0.76939
 Cu113 Cu 0.72936 -0.22753 0.74925
 Cu114 Cu 0.77267 -0.25090 0.72534
 N115 N 0.77628 -0.28341 0.75622
 N116 N 0.78417 -0.27578 0.73877
 C117 C 0.80089 -0.28743 0.73286
 C118 C 0.80384 -0.30328 0.74748
 C119 C 0.78781 -0.30012 0.76210
 H120 H 0.81031 -0.28425 0.71908
 H121 H 0.78460 -0.30930 0.77595
 N122 N 0.75883 -0.22559 0.71424
 N123 N 0.74245 -0.21662 0.72341
 C124 C 0.73685 -0.19959 0.71231
 C125 C 0.75035 -0.19766 0.69528
 C126 C 0.76408 -0.21448 0.69707
 H127 H 0.72397 -0.18927 0.71647
 H128 H 0.77697 -0.21840 0.68665
 H129 H 0.74209 -0.25442 0.73625
 H130 H 0.76022 -0.23776 0.75232
 N131 N 0.28391 0.24187 0.77512
 N132 N 0.27519 0.25854 0.78364
 C133 C 0.28641 0.26419 0.80067
 C134 C 0.30312 0.25032 0.80297
 C135 C 0.30094 0.23635 0.78640
 H136 H 0.28273 0.27749 0.81055
 H137 H 0.31094 0.22311 0.78274
 Cu138 Cu 0.25013 0.27126 0.77153
 Cu139 Cu 0.27261 0.22857 0.75000
 Cu140 Cu 0.22769 0.25075 0.72834
 N141 N 0.22465 0.28326 0.75952
 N142 N 0.21613 0.27532 0.74248
 C143 C 0.19904 0.28670 0.73729
 C144 C 0.19663 0.30264 0.75190
 C145 C 0.21318 0.29993 0.76581
 H146 H 0.18901 0.28348 0.72396
 H147 H 0.21678 0.30958 0.77930
 N148 N 0.24173 0.22585 0.71638
 N149 N 0.25882 0.21742 0.72463
 C150 C 0.26452 0.20067 0.71302
 C151 C 0.25035 0.19837 0.69663
 C152 C 0.23612 0.21468 0.69933
 H153 H 0.27806 0.19092 0.71626
 H154 H 0.22254 0.21810 0.68969
 H155 H 0.25860 0.25513 0.73784
 H156 H 0.24167 0.23796 0.75462
 N157 N 0.28405 -0.24006 0.22465
 N158 N 0.27476 -0.25632 0.21590
 C159 C 0.28562 -0.26187 0.19859
 C160 C 0.30269 -0.24836 0.19629
 C161 C 0.30112 -0.23470 0.21319
 H162 H 0.28137 -0.27478 0.18842
 H163 H 0.31165 -0.22189 0.21705
 Cu164 Cu 0.24949 -0.26890 0.22799
 Cu165 Cu 0.27340 -0.22714 0.25026
 Cu166 Cu 0.22913 -0.24986 0.27296
 N167 N 0.22508 -0.28181 0.24140
 N168 N 0.21723 -0.27432 0.25896
 C169 C 0.20057 -0.28613 0.26479
 C170 C 0.19778 -0.30197 0.25011
 C171 C 0.21369 -0.29869 0.23548
 H172 H 0.19132 -0.28342 0.27880
 H173 H 0.21672 -0.30781 0.22150
 N174 N 0.24339 -0.22503 0.28478
 N175 N 0.26024 -0.21635 0.27617
 C176 C 0.26612 -0.19966 0.28780
 C177 C 0.25230 -0.19767 0.30460
 C178 C 0.23811 -0.21409 0.30210
 H179 H 0.27945 -0.18967 0.28421
 H180 H 0.22481 -0.21781 0.31207
 H181 H 0.25961 -0.25418 0.26183
 H182 H 0.24224 -0.23615 0.24658
 N183 N 0.71648 0.23997 0.22536
 N184 N 0.72540 0.25655 0.21691
 C185 C 0.71417 0.26235 0.20000
 C186 C 0.69726 0.24864 0.19765
 C187 C 0.69931 0.23463 0.21411
 H188 H 0.71807 0.27558 0.19016
 H189 H 0.68909 0.22152 0.21776
 Cu190 Cu 0.75075 0.26908 0.22884
 Cu191 Cu 0.72774 0.22652 0.25028
 Cu192 Cu 0.77222 0.24907 0.27266
 N193 N 0.77531 0.28187 0.24205
 N194 N 0.78360 0.27401 0.25916
 C195 C 0.80027 0.28582 0.26494
 C196 C 0.80263 0.30205 0.25069
 C197 C 0.78643 0.29899 0.23638
 H198 H 0.80985 0.28280 0.27859
 H199 H 0.78302 0.30843 0.22277
 N200 N 0.75841 0.22379 0.28401
 N201 N 0.74147 0.21522 0.27550
 C202 C 0.73586 0.19824 0.28675
 C203 C 0.74995 0.19594 0.30319
 C204 C 0.76402 0.21249 0.30089
 H205 H 0.72247 0.18832 0.28319
 H206 H 0.77745 0.21606 0.31071
 H207 H 0.74152 0.25339 0.26244
 H208 H 0.75876 0.23596 0.24617
 C209 C 0.24015 -0.01172 0.43669
 C210 C 0.24003 0.00981 0.43641
 C211 C 0.24600 0.01639 0.45626
 N212 N 0.24979 -0.00037 0.46864
 C213 C 0.24615 -0.01757 0.45672
 C214 C 0.24911 0.03751 0.46233
 C215 C 0.25263 0.04367 0.48334
 C216 C 0.26043 0.06309 0.48949
 C217 C 0.26024 0.06337 0.51104
 C218 C 0.25228 0.04412 0.51747
 N219 N 0.24766 0.03221 0.50049
 C220 C 0.24826 0.03856 0.53854
 C221 C 0.24452 0.01770 0.54502
 C222 C 0.23772 0.01187 0.56484
 C223 C 0.23750 -0.00966 0.56513
 C224 C 0.24418 -0.01625 0.54548
 N225 N 0.24851 0.00050 0.53323
 C226 C 0.24753 -0.03736 0.53957
 C227 C 0.25166 -0.04358 0.51866
 C228 C 0.25950 -0.06304 0.51276
 C229 C 0.26009 -0.06332 0.49121
 C230 C 0.25257 -0.04404 0.48453
 N231 N 0.24743 -0.03211 0.50136
 C232 C 0.24944 -0.03844 0.46333
 H233 H 0.23632 -0.02190 0.42362
 H234 H 0.23610 0.01950 0.42308
 H235 H 0.23926 -0.01798 0.50101
 H236 H 0.26563 0.07579 0.47949
 H237 H 0.26524 0.07634 0.52084
 H238 H 0.23347 0.02206 0.57778
 H239 H 0.23303 -0.01934 0.57833
 H240 H 0.26533 -0.07632 0.48157
 H241 H 0.23932 0.01814 0.50057
 H242 H 0.26422 -0.07576 0.52292
 C243 C 0.73999 0.06385 0.48909
 C244 C 0.74007 0.06390 0.51059
 C245 C 0.74637 0.04403 0.51674
 N246 N 0.75021 0.03189 0.49975
 C247 C 0.74626 0.04395 0.48283
 C248 C 0.74974 0.03778 0.53768
 C249 C 0.75333 0.01669 0.54350
 C250 C 0.76103 0.01039 0.56282
 C251 C 0.76096 -0.01119 0.56275
 C252 C 0.75324 -0.01749 0.54339
 N253 N 0.74858 -0.00040 0.53177
 C254 C 0.74951 -0.03857 0.53744
 C255 C 0.74617 -0.04490 0.51648
 C256 C 0.73987 -0.06483 0.51028
 C257 C 0.73984 -0.06488 0.48878
 C258 C 0.74613 -0.04498 0.48257
 N259 N 0.75005 -0.03282 0.49953
 C260 C 0.74942 -0.03872 0.46160
 C261 C 0.75313 -0.01763 0.45577
 C262 C 0.76085 -0.01132 0.43642
 C263 C 0.76088 0.01026 0.43649
 C264 C 0.75319 0.01655 0.45589
 N265 N 0.74847 -0.00054 0.46754
 C266 C 0.74952 0.03763 0.46184
 H267 H 0.73588 0.07699 0.47920
 H268 H 0.73602 0.07708 0.52055
 H269 H 0.74025 -0.00053 0.48167
 H270 H 0.76606 0.02030 0.57569
 H271 H 0.76591 -0.02112 0.57556
 H272 H 0.73581 -0.07799 0.52021
 H273 H 0.73575 -0.07808 0.47886
 H274 H 0.76588 0.02018 0.42366
 H275 H 0.74037 -0.00041 0.51768
 H276 H 0.76582 -0.02124 0.42352
 C277 C 0.43570 0.24092 -0.01086
 C278 C 0.43559 0.24079 0.01064
 C279 C 0.45557 0.24710 0.01695
 N280 N 0.46785 0.25115 0.00007
 C281 C 0.45575 0.24732 -0.01696
 C282 C 0.46183 0.25024 0.03796
 C283 C 0.48305 0.25393 0.04387
 C284 C 0.48936 0.26147 0.06330
 C285 C 0.51110 0.26149 0.06330
 C286 C 0.51748 0.25396 0.04388
 N287 N 0.50030 0.24937 0.03213
 C288 C 0.53872 0.25028 0.03800
 C289 C 0.54517 0.24713 0.01702
 C290 C 0.56521 0.24085 0.01081
 C291 C 0.56532 0.24098 -0.01069
 C292 C 0.54535 0.24734 -0.01689
 N293 N 0.53308 0.25116 0.00007
 C294 C 0.53910 0.25073 -0.03784
 C295 C 0.51790 0.25449 -0.04368
 C296 C 0.51163 0.26228 -0.06296
 C297 C 0.48989 0.26230 -0.06296
 C298 C 0.48346 0.25452 -0.04368
 N299 N 0.50063 0.24979 -0.03203
 C300 C 0.46220 0.25076 -0.03788
 H301 H 0.42250 0.23685 -0.02086
 H302 H 0.42229 0.23658 0.02049
 H303 H 0.50055 0.24152 -0.01801
 H304 H 0.47934 0.26632 0.07620
 H305 H 0.52106 0.26634 0.07621
 H306 H 0.57840 0.23669 0.02073
 H307 H 0.57861 0.23692 -0.02062
 H308 H 0.47995 0.26732 -0.07578
 H309 H 0.50034 0.24127 0.01796
 H310 H 0.52168 0.26728 -0.07577
 C311 C 0.48909 0.73813 0.06337
 C312 C 0.51078 0.73812 0.06363
 C313 C 0.51734 0.74393 0.04373
 N314 N 0.50042 0.74752 0.03135
 C315 C 0.48314 0.74392 0.04331
 C316 C 0.53859 0.74710 0.03765
 C317 C 0.54479 0.75057 0.01663
 C318 C 0.56435 0.75833 0.01051
 C319 C 0.56460 0.75822 -0.01104
 C320 C 0.54520 0.75034 -0.01749
 N321 N 0.53323 0.74569 -0.00052
 C322 C 0.53954 0.74652 -0.03859
 C323 C 0.51852 0.74283 -0.04508
 C324 C 0.51263 0.73636 -0.06499
 C325 C 0.49094 0.73607 -0.06526
 C326 C 0.48432 0.74239 -0.04550
 N327 N 0.50120 0.74656 -0.03321
 C328 C 0.46304 0.74556 -0.03954
 C329 C 0.45674 0.74938 -0.01859
 C330 C 0.43707 0.75693 -0.01262
 C331 C 0.43681 0.75739 0.00893
 C332 C 0.45633 0.75010 0.01555
 N333 N 0.46836 0.74518 -0.00132
 C334 C 0.46207 0.74706 0.03673
 H335 H 0.47888 0.73439 0.07648
 H336 H 0.52058 0.73437 0.07698
 H337 H 0.48268 0.73723 -0.00104
 H338 H 0.57716 0.76347 0.02052
 H339 H 0.57765 0.76324 -0.02083
 H340 H 0.52287 0.73236 -0.07801
 H341 H 0.48117 0.73182 -0.07853
 H342 H 0.42369 0.76243 0.01862
 H343 H 0.51904 0.73742 -0.00063
 H344 H 0.42419 0.76156 -0.02273
 C345 C -0.01092 0.43583 0.23892
 C346 C 0.01077 0.43580 0.23897
 C347 C 0.01706 0.45573 0.24515
 N348 N -0.00002 0.46789 0.24892
 C349 C -0.01714 0.45577 0.24507
 C350 C 0.03821 0.46203 0.24851
 C351 C 0.04415 0.48315 0.25206
 C352 C 0.06359 0.48954 0.25985
 C353 C 0.06360 0.51112 0.25975
 C354 C 0.04417 0.51733 0.25190
 N355 N 0.03242 0.50018 0.24722
 C356 C 0.03829 0.53837 0.24811
 C357 C 0.01718 0.54463 0.24460
 C358 C 0.01103 0.56446 0.23819
 C359 C -0.01066 0.56448 0.23809
 C360 C -0.01702 0.54466 0.24444
 N361 N 0.00002 0.53257 0.24847
 C362 C -0.03821 0.53843 0.24772
 C363 C -0.04419 0.51738 0.25151
 C364 C -0.06373 0.51115 0.25923
 C365 C -0.06374 0.48957 0.25944
 C366 C -0.04421 0.48320 0.25183
 N367 N -0.03240 0.50025 0.24699
 C368 C -0.03828 0.46209 0.24836
 H369 H -0.02095 0.42263 0.23492
 H370 H 0.02076 0.42259 0.23501
 H371 H -0.01815 0.50016 0.23884
 H372 H 0.07649 0.47968 0.26497
 H373 H 0.07652 0.52109 0.26477
 H374 H 0.02111 0.57759 0.23411
 H375 H -0.02060 0.57762 0.23392
 H376 H -0.07672 0.47969 0.26451
 H377 H 0.01827 0.50011 0.23896
 H378 H -0.07669 0.52110 0.26412
 C379 C 0.06534 0.49006 0.76505
 C380 C 0.06558 0.51160 0.76500
 C381 C 0.04592 0.51796 0.75786
 N382 N 0.03366 0.50104 0.75377
 C383 C 0.04544 0.48398 0.75828
 C384 C 0.04003 0.53900 0.75392
 C385 C 0.01901 0.54492 0.74910
 C386 C 0.01319 0.56423 0.74097
 C387 C -0.00852 0.56440 0.74007
 C388 C -0.01542 0.54508 0.74738
 N389 N 0.00145 0.53335 0.75296
 C390 C -0.03687 0.53937 0.75008
 C391 C -0.04382 0.51849 0.75296
 C392 C -0.06461 0.51255 0.75659
 C393 C -0.06491 0.49103 0.75691
 C394 C -0.04429 0.48451 0.75351
 N395 N -0.03149 0.50132 0.75088
 C396 C -0.03789 0.46336 0.75146
 C397 C -0.01654 0.45707 0.74932
 C398 C -0.01003 0.43704 0.74373
 C399 C 0.01168 0.43698 0.74460
 C400 C 0.01790 0.45695 0.75079
 N401 N 0.00059 0.46903 0.75380
 C402 C 0.03901 0.46300 0.75494
 H403 H 0.07837 0.48006 0.76951
 H404 H 0.07880 0.52139 0.76952
 H405 H 0.00040 0.48372 0.76085
 H406 H 0.02348 0.57700 0.73634
 H407 H -0.01809 0.57738 0.73473
 H408 H -0.07824 0.52265 0.75842
 H409 H -0.07881 0.48132 0.75908
 H410 H 0.02170 0.42359 0.74141
 H411 H 0.00088 0.51937 0.76128
 H412 H -0.01987 0.42372 0.73969
 C413 C 0.35121 0.24996 0.15022
 C414 C 0.33456 0.26452 0.14990
 C415 C 0.31910 0.26446 0.16559
 C416 C 0.31987 0.24983 0.18205
 C417 C 0.33656 0.23527 0.18235
 C418 C 0.35201 0.23533 0.16664
 C419 C 0.36762 0.25001 0.13355
 N420 N 0.38347 0.23566 0.13358
 N421 N 0.39820 0.23570 0.11862
 C422 C 0.39772 0.25010 0.10297
 N423 N 0.38187 0.26446 0.10294
 N424 N 0.36714 0.26441 0.11790
 C425 C 0.41413 0.25014 0.08631
 C426 C 0.41384 0.26535 0.07035
 C427 C 0.42931 0.26538 0.05466
 C428 C 0.44533 0.25019 0.05459
 C429 C 0.44573 0.23502 0.07047
 C430 C 0.43029 0.23499 0.08618
 H431 H 0.33341 0.27601 0.13748
 H432 H 0.30653 0.27589 0.16468
 H433 H 0.33785 0.22380 0.19472
 H434 H 0.36462 0.22389 0.16743
 H435 H 0.40167 0.27727 0.06996
 H436 H 0.42884 0.27727 0.04258
 H437 H 0.45801 0.22319 0.07064
 H438 H 0.43103 0.22306 0.09820
 C439 C 0.65017 0.74913 0.14844
 C440 C 0.65040 0.76491 0.16386
 C441 C 0.66586 0.76508 0.17949
 C442 C 0.68159 0.74944 0.18020
 C443 C 0.68128 0.73366 0.16463
 C444 C 0.66581 0.73353 0.14901
 C445 C 0.63368 0.74891 0.13193
 N446 N 0.63351 0.73376 0.11689
 N447 N 0.61866 0.73353 0.10211
 C448 C 0.60334 0.74843 0.10171
 N449 N 0.60351 0.76358 0.11674
 N450 N 0.61836 0.76382 0.13152
 C451 C 0.58676 0.74813 0.08528
 C452 C 0.57072 0.76341 0.08511
 C453 C 0.55509 0.76307 0.06966
 C454 C 0.55516 0.74745 0.05412
 C455 C 0.57114 0.73223 0.05416
 C456 C 0.58678 0.73254 0.06960
 H457 H 0.63860 0.77720 0.16391
 H458 H 0.66525 0.77759 0.19095
 H459 H 0.69291 0.72127 0.16431
 H460 H 0.66613 0.72112 0.13738
 H461 H 0.57022 0.77565 0.09691
 H462 H 0.54292 0.77501 0.06978
 H463 H 0.57143 0.72008 0.04225
 H464 H 0.59888 0.72055 0.06922
 C465 C 0.65066 0.25037 -0.14917
 C466 C 0.64994 0.23567 -0.16562
 C467 C 0.66556 0.23549 -0.18116
 C468 C 0.68234 0.25002 -0.18066
 C469 C 0.68306 0.26472 -0.16417
 C470 C 0.66742 0.26489 -0.14864
 C471 C 0.63405 0.25054 -0.13270
 N472 N 0.63446 0.26497 -0.11697
 N473 N 0.61955 0.26509 -0.10219
 C474 C 0.60357 0.25080 -0.10248
 N475 N 0.60316 0.23638 -0.11821
 N476 N 0.61807 0.23626 -0.13300
 C477 C 0.58700 0.25088 -0.08598
 C478 C 0.57070 0.23579 -0.08615
 C479 C 0.55517 0.23579 -0.07053
 C480 C 0.55560 0.25085 -0.05446
 C481 C 0.57173 0.26600 -0.05427
 C482 C 0.58730 0.26601 -0.06986
 H483 H 0.63726 0.22425 -0.16656
 H484 H 0.66431 0.22397 -0.19356
 H485 H 0.69570 0.27611 -0.16311
 H486 H 0.66851 0.27643 -0.13619
 H487 H 0.56996 0.22392 -0.09831
 H488 H 0.54282 0.22398 -0.07090
 H489 H 0.57223 0.27780 -0.04202
 H490 H 0.59956 0.27788 -0.06925
 C491 C 0.35467 0.74553 -0.15343
 C492 C 0.35509 0.76109 -0.16900
 C493 C 0.34000 0.76122 -0.18497
 C494 C 0.32410 0.74578 -0.18582
 C495 C 0.32375 0.73014 -0.17032
 C496 C 0.33884 0.73002 -0.15432
 C497 C 0.37060 0.74555 -0.13638
 N498 N 0.37020 0.73066 -0.12117
 N499 N 0.38450 0.73074 -0.10587
 C500 C 0.39982 0.74571 -0.10510
 N501 N 0.40021 0.76059 -0.12030
 N502 N 0.38591 0.76051 -0.13560
 C503 C 0.41583 0.74579 -0.08813
 C504 C 0.43182 0.76119 -0.08763
 C505 C 0.44705 0.76115 -0.07180
 C506 C 0.44663 0.74573 -0.05617
 C507 C 0.43066 0.73043 -0.05647
 C508 C 0.41540 0.73044 -0.07230
 H509 H 0.36707 0.77325 -0.16887
 H510 H 0.34097 0.77341 -0.19669
 H511 H 0.31172 0.71805 -0.17033
 H512 H 0.33802 0.71778 -0.14260
 H513 H 0.43264 0.77326 -0.09951
 H514 H 0.45923 0.77314 -0.07174
 H515 H 0.43011 0.71842 -0.04450
 H516 H 0.40332 0.71837 -0.07216
 C517 C 0.14990 0.35120 0.25116
 C518 C 0.16665 0.35152 0.23665
 C519 C 0.18216 0.33592 0.23689
 C520 C 0.18132 0.31955 0.25163
 C521 C 0.16454 0.31927 0.26615
 C522 C 0.14904 0.33488 0.26592
 C523 C 0.13341 0.36774 0.25086
 N524 N 0.11738 0.36767 0.26508
 N525 N 0.10256 0.38249 0.26479
 C526 C 0.10311 0.39803 0.25026
 N527 N 0.11914 0.39810 0.23604
 N528 N 0.13396 0.38328 0.23634
 C529 C 0.08655 0.41449 0.24988
 C530 C 0.08695 0.43034 0.23456
 C531 C 0.07126 0.44576 0.23414
 C532 C 0.05490 0.44565 0.24902
 C533 C 0.05449 0.42997 0.26440
 C534 C 0.07014 0.41452 0.26482
 H535 H 0.16785 0.36386 0.22507
 H536 H 0.19479 0.33683 0.22549
 H537 H 0.16321 0.30697 0.27771
 H538 H 0.13636 0.33411 0.27732
 H539 H 0.09934 0.43083 0.22283
 H540 H 0.07182 0.45777 0.22217
 H541 H 0.04202 0.42972 0.27607
 H542 H 0.06935 0.40261 0.27686
 C543 C 0.15145 0.65025 0.75396
 C544 C 0.14664 0.67051 0.74692
 C545 C 0.16235 0.68594 0.74586
 C546 C 0.18320 0.68167 0.75238
 C547 C 0.18776 0.66139 0.75991
 C548 C 0.17215 0.64581 0.76038
 C549 C 0.13501 0.63376 0.75435
 N550 N 0.14017 0.61333 0.75102
 N551 N 0.12529 0.59848 0.75098
 C552 C 0.10472 0.60345 0.75453
 N553 N 0.09958 0.62385 0.75803
 N554 N 0.11442 0.63873 0.75781
 C555 C 0.08823 0.58699 0.75443
 C556 C 0.07020 0.58892 0.76719
 C557 C 0.05473 0.57321 0.76724
 C558 C 0.05674 0.55555 0.75414
 C559 C 0.07461 0.55382 0.74113
 C560 C 0.09036 0.56923 0.74150
 H561 H 0.13078 0.67432 0.74184
 H562 H 0.15790 0.70130 0.74022
 H563 H 0.20350 0.65719 0.76496
 H564 H 0.17624 0.63031 0.76597
 H565 H 0.06825 0.60241 0.77737
 H566 H 0.04111 0.57484 0.77744
 H567 H 0.07637 0.54046 0.73073
 H568 H 0.10402 0.56747 0.73139
 C569 C -0.15011 0.64908 0.24880
 C570 C -0.15000 0.66496 0.26412
 C571 C -0.16552 0.68054 0.26426
 C572 C -0.18168 0.68074 0.24906
 C573 C -0.18170 0.66473 0.23373
 C574 C -0.16615 0.64916 0.23362
 C575 C -0.13358 0.63257 0.24867
 N576 N -0.13364 0.61715 0.23391
 N577 N -0.11877 0.60236 0.23380
 C578 C -0.10321 0.60235 0.24844
 N579 N -0.10316 0.61776 0.26320
 N580 N -0.11802 0.63254 0.26332
 C581 C -0.08661 0.58592 0.24829
 C582 C -0.07044 0.58607 0.26341
 C583 C -0.05476 0.57065 0.26323
 C584 C -0.05490 0.55481 0.24792
 C585 C -0.07101 0.55451 0.23286
 C586 C -0.08671 0.56992 0.23302
 H587 H -0.13788 0.66541 0.27607
 H588 H -0.16464 0.69236 0.27642
 H589 H -0.19366 0.66403 0.22168
 H590 H -0.16674 0.63717 0.22157
 H591 H -0.06986 0.59811 0.27542
 H592 H -0.04248 0.57104 0.27504
 H593 H -0.07135 0.54237 0.22094
 H594 H -0.09891 0.56929 0.22116
 C595 C -0.14918 0.35186 0.74937
 C596 C -0.15048 0.33758 0.73261
 C597 C -0.16584 0.32175 0.73250
 C598 C -0.18052 0.31986 0.74908
 C599 C -0.17919 0.33436 0.76578
 C600 C -0.16369 0.35004 0.76595
 C601 C -0.13277 0.36852 0.74959
 N602 N -0.12892 0.37981 0.76728
 N603 N -0.11411 0.39471 0.76753
 C604 C -0.10257 0.39903 0.75008
 N605 N -0.10645 0.38778 0.73237
 N606 N -0.12120 0.37282 0.73214
 C607 C -0.08605 0.41558 0.75039
 C608 C -0.07688 0.42277 0.73160
 C609 C -0.06132 0.43839 0.73194
 C610 C -0.05450 0.44690 0.75104
 C611 C -0.06353 0.43981 0.76981
 C612 C -0.07925 0.42435 0.76950
 H613 H -0.13951 0.33850 0.71959
 H614 H -0.16611 0.31118 0.71922
 H615 H -0.18992 0.33368 0.77897
 H616 H -0.16319 0.36082 0.77909
 H617 H -0.08182 0.41643 0.71662
 H618 H -0.05450 0.44379 0.71732
 H619 H -0.05841 0.44630 0.78468
 H620 H -0.08592 0.41916 0.78424
 C621 C 0.25015 0.14898 0.35231
 C622 C 0.23539 0.16543 0.35293
 C623 C 0.23549 0.18101 0.33754
 C624 C 0.25034 0.18054 0.32109
 C625 C 0.26510 0.16406 0.32050
 C626 C 0.26501 0.14850 0.33590
 C627 C 0.25002 0.13243 0.36863
 N628 N 0.26452 0.11672 0.36829
 N629 N 0.26439 0.10186 0.38293
 C630 C 0.24976 0.10204 0.39856
 N631 N 0.23526 0.11775 0.39890
 N632 N 0.23539 0.13262 0.38426
 C633 C 0.24960 0.08548 0.41486
 C634 C 0.23417 0.08553 0.43080
 C635 C 0.23402 0.06993 0.44615
 C636 C 0.24926 0.05398 0.44588
 C637 C 0.26470 0.05386 0.43007
 C638 C 0.26486 0.06943 0.41468
 H639 H 0.22372 0.16634 0.36534
 H640 H 0.22389 0.19340 0.33868
 H641 H 0.27677 0.16301 0.30814
 H642 H 0.27660 0.13606 0.33489
 H643 H 0.22218 0.09762 0.43144
 H644 H 0.22199 0.07025 0.45826
 H645 H 0.27666 0.04171 0.42970
 H646 H 0.27698 0.06891 0.40268
 C647 C 0.75121 0.14896 0.64865
 C648 C 0.76610 0.16535 0.64804
 C649 C 0.76612 0.18101 0.66345
 C650 C 0.75125 0.18069 0.67989
 C651 C 0.73637 0.16425 0.68046
 C652 C 0.73635 0.14860 0.66506
 C653 C 0.75113 0.13235 0.63228
 N654 N 0.73650 0.11671 0.63265
 N655 N 0.73638 0.10183 0.61793
 C656 C 0.75089 0.10194 0.60220
 N657 N 0.76554 0.11758 0.60184
 N658 N 0.76565 0.13246 0.61655
 C659 C 0.75070 0.08542 0.58575
 C660 C 0.76589 0.08546 0.56960
 C661 C 0.76562 0.06997 0.55404
 C662 C 0.75012 0.05418 0.55430
 C663 C 0.73499 0.05400 0.57039
 C664 C 0.73526 0.06947 0.58598
 H665 H 0.77778 0.16614 0.63563
 H666 H 0.77783 0.19335 0.66234
 H667 H 0.72467 0.16331 0.69280
 H668 H 0.72464 0.13621 0.66605
 H669 H 0.77802 0.09746 0.56894
 H670 H 0.77748 0.07027 0.54177
 H671 H 0.72292 0.04192 0.57081
 H672 H 0.72333 0.06893 0.59816
 C673 C 0.24594 -0.14558 0.65278
 C674 C 0.23132 -0.16224 0.65238
 C675 C 0.23144 -0.17756 0.66802
 C676 C 0.24619 -0.17664 0.68447
 C677 C 0.26064 -0.15984 0.68498
 C678 C 0.26053 -0.14452 0.66934
 C679 C 0.24610 -0.12953 0.63597
 N680 N 0.26059 -0.11375 0.63605
 N681 N 0.26087 -0.09944 0.62088
 C682 C 0.24668 -0.10027 0.60494
 N683 N 0.23218 -0.11604 0.60486
 N684 N 0.23190 -0.13037 0.62003
 C685 C 0.24701 -0.08430 0.58806
 C686 C 0.23203 -0.08492 0.57178
 C687 C 0.23227 -0.06973 0.55600
 C688 C 0.24746 -0.05367 0.55618
 C689 C 0.26253 -0.05308 0.57226
 C690 C 0.26230 -0.06821 0.58807
 H691 H 0.21985 -0.16357 0.63988
 H692 H 0.22012 -0.19026 0.66697
 H693 H 0.27210 -0.15840 0.69746
 H694 H 0.27196 -0.13187 0.67023
 H695 H 0.22005 -0.09707 0.57125
 H696 H 0.22052 -0.07041 0.54368
 H697 H 0.27444 -0.04083 0.57258
 H698 H 0.27411 -0.06727 0.60030
 C699 C 0.75012 -0.14904 0.34977
 C700 C 0.76493 -0.16545 0.35023
 C701 C 0.76493 -0.18097 0.33470
 C702 C 0.75014 -0.18051 0.31827
 C703 C 0.73535 -0.16405 0.31783
 C704 C 0.73534 -0.14853 0.33337
 C705 C 0.75009 -0.13260 0.36630
 N706 N 0.73553 -0.11695 0.36614
 N707 N 0.73547 -0.10222 0.38101
 C708 C 0.74997 -0.10248 0.39668
 N709 N 0.76454 -0.11812 0.39683
 N710 N 0.76459 -0.13286 0.38197
 C711 C 0.74988 -0.08611 0.41328
 C712 C 0.76513 -0.08627 0.42931
 C713 C 0.76499 -0.07088 0.44497
 C714 C 0.74959 -0.05508 0.44495
 C715 C 0.73439 -0.05479 0.42898
 C716 C 0.73452 -0.07015 0.41329
 H717 H 0.77654 -0.16636 0.36263
 H718 H 0.77656 -0.19333 0.33573
 H719 H 0.72374 -0.16301 0.30548
 H720 H 0.72371 -0.13612 0.33249
 H721 H 0.77720 -0.09828 0.42978
 H722 H 0.77691 -0.07126 0.45713
 H723 H 0.72240 -0.04268 0.42874
 H724 H 0.72256 -0.06952 0.40121
 C725 C 0.65239 0.75029 -0.14842
 C726 C 0.66935 0.73608 -0.14795
 C727 C 0.68483 0.73636 -0.16362
 C728 C 0.68375 0.75084 -0.18018
 C729 C 0.66683 0.76512 -0.18056
 C730 C 0.65136 0.76485 -0.16489
 C731 C 0.63583 0.74987 -0.13194
 N732 N 0.61966 0.76387 -0.13216
 N733 N 0.60470 0.76342 -0.11745
 C734 C 0.60523 0.74893 -0.10188
 N735 N 0.62141 0.73494 -0.10164
 N736 N 0.63638 0.73541 -0.11635
 C737 C 0.58848 0.74836 -0.08559
 C738 C 0.58872 0.73298 -0.06981
 C739 C 0.57283 0.73239 -0.05456
 C740 C 0.55642 0.74715 -0.05480
 C741 C 0.55615 0.76257 -0.07042
 C742 C 0.57200 0.76317 -0.08570
 H743 H 0.67069 0.72468 -0.13547
 H744 H 0.69763 0.72519 -0.16262
 H745 H 0.66531 0.77647 -0.19302
 H746 H 0.63852 0.77602 -0.16578
 H747 H 0.60115 0.72134 -0.06924
 H748 H 0.57326 0.72038 -0.04258
 H749 H 0.54363 0.77415 -0.07075
 H750 H 0.57132 0.77525 -0.09757
 C751 C 0.35135 0.25075 -0.14921
 C752 C 0.33459 0.26518 -0.14850
 C753 C 0.31897 0.26503 -0.16395
 C754 C 0.31971 0.25046 -0.18055
 C755 C 0.33651 0.23603 -0.18124
 C756 C 0.35211 0.23617 -0.16577
 C757 C 0.36790 0.25088 -0.13279
 N758 N 0.38383 0.23661 -0.13316
 N759 N 0.39867 0.23669 -0.11837
 C760 C 0.39823 0.25105 -0.10259
 N761 N 0.38231 0.26532 -0.10223
 N762 N 0.36747 0.26524 -0.11701
 C763 C 0.41469 0.25107 -0.08609
 C764 C 0.41440 0.26621 -0.06998
 C765 C 0.42986 0.26614 -0.05436
 C766 C 0.44584 0.25092 -0.05452
 C767 C 0.44627 0.23585 -0.07058
 C768 C 0.43085 0.23591 -0.08622
 H769 H 0.33347 0.27661 -0.13595
 H770 H 0.30632 0.27635 -0.16274
 H771 H 0.33777 0.22460 -0.19373
 H772 H 0.36480 0.22484 -0.16684
 H773 H 0.40224 0.27813 -0.06940
 H774 H 0.42938 0.27795 -0.04212
 H775 H 0.45852 0.22400 -0.07091
 H776 H 0.43157 0.22404 -0.09837
 C777 C 0.35026 0.75088 0.14761
 C778 C 0.34962 0.76727 0.16239
 C779 C 0.33421 0.76755 0.17813
 C780 C 0.31905 0.75142 0.17951
 C781 C 0.31971 0.73504 0.16470
 C782 C 0.33510 0.73478 0.14895
 C783 C 0.36665 0.75052 0.13095
 N784 N 0.36704 0.73488 0.11642
 N785 N 0.38182 0.73448 0.10152
 C786 C 0.39686 0.74970 0.10049
 N787 N 0.39647 0.76535 0.11501
 N788 N 0.38168 0.76575 0.12990
 C789 C 0.41342 0.74916 0.08400
 C790 C 0.42937 0.76459 0.08340
 C791 C 0.44511 0.76394 0.06800
 C792 C 0.44521 0.74786 0.05294
 C793 C 0.42929 0.73252 0.05336
 C794 C 0.41354 0.73314 0.06876
 H795 H 0.36102 0.77996 0.16181
 H796 H 0.33422 0.78050 0.18912
 H797 H 0.30845 0.72226 0.16522
 H798 H 0.33512 0.72188 0.13786
 H799 H 0.42977 0.77716 0.09486
 H800 H 0.45726 0.77595 0.06783
 H801 H 0.42916 0.72001 0.04182
 H802 H 0.40151 0.72103 0.06872
 C803 C 0.64914 0.24938 0.14973
 C804 C 0.66497 0.26489 0.15025
 C805 C 0.68052 0.26466 0.16576
 C806 C 0.68067 0.24891 0.18117
 C807 C 0.66480 0.23341 0.18063
 C808 C 0.64924 0.23365 0.16512
 C809 C 0.63267 0.24960 0.13323
 N810 N 0.61726 0.23472 0.13276
 N811 N 0.60250 0.23489 0.11790
 C812 C 0.60251 0.24995 0.10288
 N813 N 0.61791 0.26484 0.10335
 N814 N 0.63267 0.26467 0.11821
 C815 C 0.58612 0.25009 0.08630
 C816 C 0.58635 0.26556 0.07060
 C817 C 0.57095 0.26563 0.05493
 C818 C 0.55508 0.25024 0.05465
 C819 C 0.55471 0.23483 0.07028
 C820 C 0.57009 0.23474 0.08596
 H821 H 0.66538 0.27726 0.13866
 H822 H 0.69238 0.27691 0.16557
 H823 H 0.66430 0.22099 0.19212
 H824 H 0.63730 0.22144 0.16520
 H825 H 0.59843 0.27763 0.07038
 H826 H 0.57138 0.27770 0.04301
 H827 H 0.54254 0.22284 0.07026
 H828 H 0.56941 0.22261 0.09779
 C829 C -0.14851 0.64980 0.74781
 C830 C -0.16274 0.65168 0.76462
 C831 C -0.17851 0.66700 0.76446
 C832 C -0.18037 0.68108 0.74755
 C833 C -0.16598 0.67911 0.73073
 C834 C -0.15036 0.66362 0.73083
 C835 C -0.13180 0.63354 0.74803
 N836 N -0.12068 0.62887 0.73038
 N837 N -0.10568 0.61422 0.73061
 C838 C -0.10111 0.60370 0.74851
 N839 N -0.11220 0.60840 0.76616
 N840 N -0.12726 0.62298 0.76591
 C841 C -0.08444 0.58741 0.74882
 C842 C -0.07691 0.57957 0.76799
 C843 C -0.06127 0.56413 0.76832
 C844 C -0.05303 0.55615 0.74954
 C845 C -0.06048 0.56381 0.73037
 C846 C -0.07598 0.57943 0.73000
 H847 H -0.16180 0.64122 0.77793
 H848 H -0.18901 0.66777 0.77783
 H849 H -0.16669 0.68934 0.71728
 H850 H -0.13961 0.66262 0.71763
 H851 H -0.08303 0.58541 0.78275
 H852 H -0.05567 0.55827 0.78323
 H853 H -0.05429 0.55768 0.71574
 H854 H -0.08149 0.58506 0.71498
 C855 C -0.14992 0.35089 0.25058
 C856 C -0.16679 0.35136 0.23629
 C857 C -0.18218 0.33559 0.23636
 C858 C -0.18108 0.31890 0.25070
 C859 C -0.16421 0.31847 0.26502
 C860 C -0.14884 0.33427 0.26496
 C861 C -0.13352 0.36756 0.25042
 N862 N -0.11752 0.36745 0.26458
 N863 N -0.10273 0.38236 0.26437
 C864 C -0.10329 0.39801 0.24998
 N865 N -0.11930 0.39813 0.23583
 N866 N -0.13410 0.38323 0.23605
 C867 C -0.08673 0.41452 0.24966
 C868 C -0.08693 0.43030 0.23427
 C869 C -0.07121 0.44574 0.23387
 C870 C -0.05502 0.44571 0.24884
 C871 C -0.05480 0.43011 0.26429
 C872 C -0.07048 0.41463 0.26469
 H873 H -0.16817 0.36395 0.22502
 H874 H -0.19494 0.33662 0.22517
 H875 H -0.16269 0.30590 0.27625
 H876 H -0.13605 0.33337 0.27618
 H877 H -0.09919 0.43070 0.22246
 H878 H -0.07159 0.45769 0.22184
 H879 H -0.04246 0.42994 0.27604
 H880 H -0.06985 0.40277 0.27678
 C881 C 0.14884 0.35074 0.75326
 C882 C 0.15309 0.33956 0.73470
 C883 C 0.16850 0.32387 0.73430
 C884 C 0.18013 0.31911 0.75241
 C885 C 0.17590 0.33030 0.77096
 C886 C 0.16038 0.34588 0.77141
 C887 C 0.13254 0.36741 0.75364
 N888 N 0.12621 0.37623 0.77203
 N889 N 0.11158 0.39123 0.77233
 C890 C 0.10271 0.39812 0.75425
 N891 N 0.10906 0.38933 0.73587
 N892 N 0.12363 0.37428 0.73557
 C893 C 0.08648 0.41485 0.75453
 C894 C 0.07973 0.42411 0.73570
 C895 C 0.06442 0.43987 0.73591
 C896 C 0.05546 0.44651 0.75489
 C897 C 0.06204 0.43737 0.77372
 C898 C 0.07751 0.42172 0.77356
 H899 H 0.14449 0.34287 0.72044
 H900 H 0.17146 0.31570 0.71970
 H901 H 0.18442 0.32692 0.78524
 H902 H 0.15752 0.35419 0.78597
 H903 H 0.08634 0.41927 0.72079
 H904 H 0.05943 0.44682 0.72127
 H905 H 0.05521 0.44239 0.78848
 H906 H 0.08230 0.41490 0.78832
 C907 C 0.15008 0.64945 0.24988
 C908 C 0.14894 0.66622 0.26420
 C909 C 0.16438 0.68194 0.26428
 C910 C 0.18139 0.68129 0.25005
 C911 C 0.18253 0.66448 0.23575
 C912 C 0.16707 0.64877 0.23566
 C913 C 0.13363 0.63283 0.24974
 N914 N 0.13431 0.61696 0.23550
 N915 N 0.11948 0.60208 0.23532
 C916 C 0.10333 0.60243 0.24940
 N917 N 0.10266 0.61829 0.26366
 N918 N 0.11749 0.63317 0.26382
 C919 C 0.08675 0.58594 0.24915
 C920 C 0.07033 0.58610 0.26407
 C921 C 0.05464 0.57063 0.26376
 C922 C 0.05502 0.55476 0.24850
 C923 C 0.07138 0.55445 0.23363
 C924 C 0.08711 0.56989 0.23394
 H925 H 0.13605 0.66729 0.27536
 H926 H 0.16281 0.69465 0.27544
 H927 H 0.19542 0.66329 0.22464
 H928 H 0.16850 0.63607 0.22444
 H929 H 0.06957 0.59818 0.27603
 H930 H 0.04217 0.57102 0.27542
 H931 H 0.07189 0.54228 0.22174
 H932 H 0.09950 0.56926 0.22222
 C933 C 0.75019 -0.14950 0.64779
 C934 C 0.73398 -0.15049 0.66286
 C935 C 0.73401 -0.16610 0.67821
 C936 C 0.75026 -0.18112 0.67889
 C937 C 0.76646 -0.18011 0.66378
 C938 C 0.76642 -0.16452 0.64843
 C939 C 0.75017 -0.13293 0.63152
 N940 N 0.76552 -0.13227 0.61660
 N941 N 0.76549 -0.11741 0.60196
 C942 C 0.75013 -0.10255 0.60162
 N943 N 0.73479 -0.10320 0.61655
 N944 N 0.73481 -0.11807 0.63118
 C945 C 0.75006 -0.08606 0.58527
 C946 C 0.73442 -0.07038 0.58526
 C947 C 0.73429 -0.05494 0.56976
 C948 C 0.74976 -0.05490 0.55398
 C949 C 0.76545 -0.07042 0.55396
 C950 C 0.76560 -0.08586 0.56945
 H951 H 0.72120 -0.13922 0.66283
 H952 H 0.72118 -0.16634 0.68943
 H953 H 0.77932 -0.19126 0.66376
 H954 H 0.77917 -0.16423 0.63708
 H955 H 0.72223 -0.07003 0.59720
 H956 H 0.72208 -0.04304 0.56998
 H957 H 0.77755 -0.07053 0.54191
 H958 H 0.77789 -0.09766 0.56898
 C959 C 0.25245 -0.15031 0.35322
 C960 C 0.26771 -0.14996 0.33716
 C961 C 0.26771 -0.16531 0.32146
 C962 C 0.25246 -0.18142 0.32140
 C963 C 0.23727 -0.18179 0.33755
 C964 C 0.23727 -0.16644 0.35323
 C965 C 0.25228 -0.13391 0.36977
 N966 N 0.23731 -0.13405 0.38508
 N967 N 0.23703 -0.11925 0.39986
 C968 C 0.25172 -0.10366 0.39999
 N969 N 0.26672 -0.10354 0.38471
 N970 N 0.26700 -0.11834 0.36992
 C971 C 0.25129 -0.08708 0.41635
 C972 C 0.26657 -0.07099 0.41649
 C973 C 0.26601 -0.05525 0.43179
 C974 C 0.25015 -0.05527 0.44719
 C975 C 0.23495 -0.07132 0.44721
 C976 C 0.23550 -0.08708 0.43194
 H977 H 0.27965 -0.13777 0.33665
 H978 H 0.27968 -0.16440 0.30938
 H979 H 0.22528 -0.19388 0.33819
 H980 H 0.22529 -0.16723 0.36536
 H981 H 0.27897 -0.07051 0.40477
 H982 H 0.27793 -0.04301 0.43163
 H983 H 0.22260 -0.07155 0.45900
 H984 H 0.22349 -0.09921 0.43232
 C985 C 0.75006 0.14793 0.35085
 C986 C 0.73512 0.14746 0.33458
 C987 C 0.73509 0.16298 0.31916
 C988 C 0.74999 0.17941 0.31960
 C989 C 0.76493 0.17985 0.33590
 C990 C 0.76497 0.16431 0.35131
 C991 C 0.75007 0.13147 0.36723
 N992 N 0.76470 0.13171 0.38279
 N993 N 0.76468 0.11695 0.39753
 C994 C 0.75003 0.10133 0.39736
 N995 N 0.73540 0.10109 0.38181
 N996 N 0.73542 0.11584 0.36706
 C997 C 0.74997 0.08495 0.41382
 C998 C 0.73453 0.06901 0.41382
 C999 C 0.73441 0.05365 0.42941
 C1000 C 0.74970 0.05394 0.44528
 C1001 C 0.76519 0.06972 0.44532
 C1002 C 0.76532 0.08511 0.42976
 H1003 H 0.72341 0.13506 0.33371
 H1004 H 0.72335 0.16196 0.30691
 H1005 H 0.77665 0.19218 0.33691
 H1006 H 0.77670 0.16519 0.36361
 H1007 H 0.72248 0.06839 0.40180
 H1008 H 0.72235 0.04155 0.42917
 H1009 H 0.77718 0.07010 0.45742
 H1010 H 0.77746 0.09711 0.43024
 C1011 C 0.25015 0.15065 0.64842
 C1012 C 0.26439 0.14956 0.66525
 C1013 C 0.26447 0.16501 0.68083
 C1014 C 0.25032 0.18199 0.67999
 C1015 C 0.23612 0.18309 0.66310
 C1016 C 0.23603 0.16762 0.64752
 C1017 C 0.24999 0.13417 0.63196
 N1018 N 0.23577 0.13476 0.61605
 N1019 N 0.23557 0.11989 0.60133
 C1020 C 0.24961 0.10379 0.60187
 N1021 N 0.26384 0.10322 0.61776
 N1022 N 0.26403 0.11808 0.63249
 C1023 C 0.24934 0.08717 0.58555
 C1024 C 0.26427 0.07083 0.58590
 C1025 C 0.26394 0.05510 0.57061
 C1026 C 0.24866 0.05536 0.55472
 C1027 C 0.23379 0.07163 0.55423
 C1028 C 0.23412 0.08741 0.56950
 H1029 H 0.27548 0.13670 0.66647
 H1030 H 0.27559 0.16347 0.69358
 H1031 H 0.22506 0.19593 0.66175
 H1032 H 0.22486 0.16900 0.63476
 H1033 H 0.27623 0.07017 0.59799
 H1034 H 0.27560 0.04269 0.57114
 H1035 H 0.22189 0.07205 0.54206
 H1036 H 0.22240 0.09974 0.56873
   
