data_POSCAR
  _audit_creation_date              2014-09-24
  _audit_creation_method            'ToBaCCo'
  _symmetry_space_group_name_H-M    'P1'
  _symmetry_Int_Tables_number       1
  _symmetry_cell_setting            triclinic
  loop_
  _symmetry_equiv_pos_as_xyz
 x,y,z
_cell_length_a 20.5577
_cell_length_b 25.3482
_cell_length_c 21.3938
_cell_angle_alpha 90.735600
_cell_angle_beta 87.798300
_cell_angle_gamma 91.119100
loop_
  _atom_site_label
  _atom_site_type_symbol
  _atom_site_fract_x
  _atom_site_fract_y
  _atom_site_fract_z
C1 C 1.25333 0.25143 0.25004
 C2 C 0.74940 -0.24403 0.26053
 C3 C 0.75078 0.24038 -0.24227
 C4 C 1.25208 -0.26693 -0.22687
 C5 C 0.25210 0.27119 0.74243
 C6 C 0.74924 0.76054 0.73079
 C7 C 0.74744 0.23833 0.24382
 C8 C 0.25045 0.74926 0.23947
 N9 N 1.11390 0.06817 0.06465
 N10 N 1.14381 0.11396 0.07379
 N11 N 1.09186 -0.04878 0.10249
 N12 N 1.10861 -0.08583 0.14145
 N13 N 1.13780 -0.04092 0.05902
 N14 N 1.18738 -0.07206 0.06742
 N15 N 1.06744 0.06022 0.10775
 N16 N 1.06535 0.10007 0.14822
 C17 C 1.11263 0.13334 0.12558
 C18 C 1.16825 -0.09980 0.11875
 N19 N 0.91428 -0.07980 0.05454
 N20 N 0.87896 -0.12330 0.06403
 N21 N 0.92819 0.03671 0.10643
 N22 N 0.90611 0.07173 0.14816
 N23 N 0.88550 0.02805 0.06313
 N24 N 0.83340 0.05671 0.07387
 N25 N 0.95447 -0.07188 0.10032
 N26 N 0.94751 -0.10965 0.14210
 Mn27 Mn 1.01046 -0.00566 0.10505
 C28 C 0.90156 -0.14192 0.11793
 C29 C 0.84694 0.08363 0.12676
 N30 N 1.14239 -0.03701 -0.07664
 N31 N 1.17695 -0.08068 -0.07748
 N32 N 1.07581 0.07033 -0.11013
 N33 N 1.07839 0.11187 -0.14665
 N34 N 1.12167 0.07313 -0.06919
 N35 N 1.15758 0.11661 -0.07709
 N36 N 1.09993 -0.03891 -0.12123
 N37 N 1.10449 -0.08367 -0.15286
 Mn38 Mn 1.12983 0.01573 -0.00556
 C39 C 1.15355 -0.10852 -0.12649
 C40 C 1.12945 0.14019 -0.12533
 N41 N 0.89121 0.03531 -0.07021
 N42 N 0.83847 0.06255 -0.07851
 N43 N 0.96422 -0.06004 -0.12447
 N44 N 0.95747 -0.08854 -0.17587
 N45 N 0.91830 -0.07183 -0.08220
 N46 N 0.87795 -0.10795 -0.10476
 N47 N 0.93721 0.04764 -0.11218
 N48 N 0.91666 0.08366 -0.15075
 Mn49 Mn 0.90198 -0.02259 -0.00856
 Mn50 Mn 1.01961 0.00535 -0.11733
 Cl51 Cl 1.01533 -0.00187 -0.00653
 C52 C 0.85519 0.09258 -0.12839
 C53 C 0.90428 -0.11860 -0.16247
 N54 N 1.08542 0.57299 0.56284
 N55 N 1.13156 0.60414 0.58497
 N56 N 1.06025 0.45844 0.60475
 N57 N 1.07782 0.42779 0.65003
 N58 N 1.10750 0.46393 0.56203
 N59 N 1.15870 0.43656 0.57715
 N60 N 1.03787 0.56677 0.60537
 N61 N 1.05132 0.59372 0.65676
 C62 C 1.10861 0.61842 0.64255
 C63 C 1.13834 0.41343 0.63140
 N64 N 0.88045 0.42750 0.55973
 N65 N 0.84831 0.38235 0.56960
 N66 N 0.89919 0.54528 0.60156
 N67 N 0.88522 0.58848 0.63414
 N68 N 0.85661 0.53680 0.55810
 N69 N 0.81266 0.57413 0.55964
 N70 N 0.92372 0.43571 0.60251
 N71 N 0.92357 0.39607 0.64182
 Mn72 Mn 0.97986 0.50165 0.60385
 C73 C 0.87638 0.36333 0.62083
 C74 C 0.83087 0.60553 0.60764
 N75 N 1.11469 0.46375 0.42690
 N76 N 1.16517 0.43298 0.41812
 N77 N 1.04847 0.56539 0.38356
 N78 N 1.05272 0.60361 0.34225
 N79 N 1.09187 0.57258 0.42661
 N80 N 1.12780 0.61554 0.41499
 N81 N 1.07272 0.45595 0.38279
 N82 N 1.09322 0.41893 0.34288
 Mn83 Mn 1.10034 0.51839 0.49443
 C84 C 1.15084 0.40517 0.36602
 C85 C 1.10196 0.63462 0.36268
 N86 N 0.86358 0.53457 0.42436
 N87 N 0.81643 0.56834 0.41894
 N88 N 0.93523 0.43368 0.38164
 N89 N 0.93659 0.39437 0.34069
 N90 N 0.88814 0.42626 0.42413
 N91 N 0.85520 0.38213 0.41257
 N92 N 0.91037 0.54316 0.38195
 N93 N 0.89628 0.58349 0.34636
 Mn94 Mn 0.87150 0.48095 0.49160
 Mn95 Mn 0.99168 0.49961 0.38168
 Cl96 Cl 0.98603 0.50031 0.49289
 C97 C 0.83728 0.59828 0.37026
 C98 C 0.88676 0.36262 0.36086
 N99 N 0.57747 0.07155 0.58011
 N100 N 0.61681 0.11153 0.59344
 N101 N 0.54168 -0.04110 0.62512
 N102 N 0.54822 -0.07911 0.66548
 N103 N 0.59163 -0.03880 0.58490
 N104 N 0.63413 -0.07561 0.59730
 N105 N 0.52770 0.06896 0.62048
 N106 N 0.53178 0.10764 0.66241
 C107 C 0.58719 0.13407 0.64416
 C108 C 0.60583 -0.10008 0.64785
 N109 N 0.36588 -0.06479 0.56927
 N110 N 0.33088 -0.10850 0.57493
 N111 N 0.38861 0.05234 0.61181
 N112 N 0.37347 0.09439 0.64573
 N113 N 0.34766 0.04488 0.56673
 N114 N 0.30322 0.08197 0.56871
 N115 N 0.40356 -0.05764 0.61696
 N116 N 0.39455 -0.09661 0.65728
 Mn117 Mn 0.46529 0.00583 0.61932
 C118 C 0.34922 -0.12779 0.62972
 C119 C 0.32004 0.11211 0.61847
 N120 N 0.60670 -0.04087 0.44945
 N121 N 0.65786 -0.07103 0.44129
 N122 N 0.54841 0.06311 0.40125
 N123 N 0.55399 0.10221 0.36143
 N124 N 0.59098 0.06849 0.44536
 N125 N 0.62779 0.11132 0.43596
 N126 N 0.56743 -0.04650 0.40266
 N127 N 0.59069 -0.08134 0.36142
 Mn128 Mn 0.59246 0.01501 0.51504
 C129 C 0.64683 -0.09622 0.38669
 C130 C 0.60331 0.13183 0.38377
 N131 N 0.36109 0.04018 0.43363
 N132 N 0.31463 0.07373 0.42471
 N133 N 0.42926 -0.06381 0.39510
 N134 N 0.43096 -0.10353 0.35479
 N135 N 0.37927 -0.06881 0.43485
 N136 N 0.34445 -0.11179 0.42170
 N137 N 0.40948 0.04631 0.39241
 N138 N 0.39687 0.08483 0.35352
 Mn139 Mn 0.36294 -0.01239 0.50122
 Mn140 Mn 0.48872 -0.00010 0.39708
 Cl141 Cl 0.47749 0.00207 0.50811
 C142 C 0.33725 0.10101 0.37475
 C143 C 0.37810 -0.13308 0.37209
 N144 N 0.61620 0.56780 0.08099
 N145 N 0.64726 0.61283 0.09200
 N146 N 0.58888 0.45124 0.11815
 N147 N 0.60158 0.41052 0.15384
 N148 N 0.63656 0.45885 0.07648
 N149 N 0.68259 0.42418 0.08205
 N150 N 0.56681 0.56127 0.12113
 N151 N 0.56213 0.60186 0.16010
 C152 C 0.61252 0.63351 0.14112
 C153 C 0.66059 0.39466 0.13050
 N154 N 0.40893 0.42825 0.06391
 N155 N 0.37533 0.38340 0.06942
 N156 N 0.42856 0.54276 0.11340
 N157 N 0.40668 0.57935 0.15340
 N158 N 0.38921 0.53722 0.06671
 N159 N 0.33963 0.56905 0.07345
 N160 N 0.45071 0.43312 0.10878
 N161 N 0.44794 0.39160 0.14513
 Mn162 Mn 0.50862 0.49707 0.11634
 C163 C 0.40113 0.36108 0.11987
 C164 C 0.35110 0.59500 0.12737
 N165 N 0.64939 0.46064 -0.05727
 N166 N 0.69612 0.42574 -0.06389
 N167 N 0.59138 0.56472 -0.09993
 N168 N 0.60523 0.60148 -0.14198
 N169 N 0.62991 0.56981 -0.05263
 N170 N 0.67071 0.60992 -0.06061
 N171 N 0.60860 0.45545 -0.10282
 N172 N 0.62607 0.41715 -0.14175
 Mn173 Mn 0.63355 0.51439 0.01202
 C174 C 0.68073 0.39934 -0.11689
 C175 C 0.65411 0.62955 -0.11582
 N176 N 0.40372 0.54194 -0.06768
 N177 N 0.36372 0.58208 -0.07195
 N178 N 0.47079 0.43772 -0.11129
 N179 N 0.46882 0.40104 -0.15563
 N180 N 0.42167 0.43148 -0.07083
 N181 N 0.38468 0.39066 -0.08655
 N182 N 0.45378 0.54777 -0.10733
 N183 N 0.44999 0.59178 -0.13873
 Mn184 Mn 0.40505 0.48458 -0.00207
 Mn185 Mn 0.53099 0.50130 -0.10599
 Cl186 Cl 0.51952 0.49929 0.00516
 C187 C 0.39363 0.61238 -0.11679
 C188 C 0.41539 0.37170 -0.13888
 N189 N 1.13262 0.22795 0.13385
 N190 N 1.17009 0.26080 0.16595
 C191 C 1.19713 0.23232 0.21083
 C192 C 1.17411 0.18082 0.20508
 N193 N 1.13387 0.17998 0.15731
 H194 H 1.18990 0.14624 0.22907
 N195 N 1.19832 0.60678 0.71021
 N196 N 1.23721 0.63540 0.74562
 C197 C 1.21421 0.68502 0.74804
 C198 C 1.15927 0.68546 0.71203
 N199 N 1.15134 0.63610 0.68974
 H200 H 1.13150 0.71921 0.69905
 N201 N 0.58566 0.20227 0.72545
 N202 N 0.62759 0.23293 0.75521
 C203 C 0.68692 0.22707 0.72656
 C204 C 0.67942 0.19065 0.67836
 N205 N 0.61594 0.17637 0.67930
 H206 H 0.71761 0.17213 0.65013
 N207 N 0.59380 0.70410 0.21694
 N208 N 0.62876 0.73897 0.24852
 C209 C 0.69049 0.73823 0.22418
 C210 C 0.69163 0.70048 0.17665
 N211 N 0.63094 0.68054 0.17374
 H212 H 0.73373 0.68379 0.15254
 N213 N 0.87466 -0.23469 0.13667
 N214 N 0.83580 -0.26322 0.17454
 C215 C 0.80591 -0.22945 0.21527
 C216 C 0.82833 -0.17899 0.20071
 N217 N 0.87079 -0.18415 0.15200
 H218 H 0.81255 -0.14181 0.22098
 N219 N 0.89943 0.28727 0.68263
 N220 N 0.86775 0.25254 0.71866
 C221 C 0.80349 0.25760 0.70994
 C222 C 0.79735 0.29783 0.66697
 N223 N 0.85812 0.31492 0.65114
 H224 H 0.75311 0.31743 0.65546
 N225 N 0.28796 -0.20927 0.62109
 N226 N 0.26112 -0.24631 0.65702
 C227 C 0.27718 -0.23519 0.71650
 C228 C 0.31655 -0.18994 0.71515
 N229 N 0.32141 -0.17522 0.65502
 H230 H 0.33825 -0.16907 0.75372
 N231 N 0.41220 0.28514 0.18508
 N232 N 0.37414 0.25454 0.22095
 C233 C 0.31198 0.26430 0.20723
 C234 C 0.31376 0.30233 0.16117
 N235 N 0.37681 0.31404 0.14883
 H236 H 0.27344 0.32486 0.14542
 N237 N 0.75135 0.13480 -0.13113
 N238 N 0.72272 0.17291 -0.16054
 C239 C 0.76580 0.19190 -0.20439
 C240 C 0.82258 0.16324 -0.20073
 N241 N 0.81123 0.12859 -0.15423
 H242 H 0.86820 0.16759 -0.22706
 N243 N 0.74312 0.65304 0.37493
 N244 N 0.71903 0.69430 0.34761
 C245 C 0.76294 0.71012 0.30279
 C246 C 0.81556 0.67650 0.30368
 N247 N 0.80068 0.64157 0.34934
 H248 H 0.85959 0.67696 0.27432
 N249 N 0.24948 0.16250 0.38023
 N250 N 0.22641 0.20221 0.34910
 C251 C 0.26638 0.20975 0.29832
 C252 C 0.31465 0.17203 0.29899
 N253 N 0.30237 0.14409 0.35118
 H254 H 0.35344 0.16431 0.26474
 N255 N 0.40742 0.69345 -0.17354
 N256 N 0.37167 0.72656 -0.20408
 C257 C 0.30872 0.71445 -0.18961
 C258 C 0.30751 0.67334 -0.14713
 N259 N 0.36995 0.66083 -0.13969
 H260 H 0.26557 0.65034 -0.13047
 N261 N 1.11927 -0.19788 -0.14990
 N262 N 1.14331 -0.24078 -0.17715
 C263 C 1.20810 -0.23250 -0.18555
 C264 C 1.22299 -0.18312 -0.16029
 N265 N 1.16623 -0.16287 -0.13932
 H266 H 1.26911 -0.16196 -0.16210
 N267 N 1.25547 0.36428 0.35381
 N268 N 1.28390 0.32463 0.32374
 C269 C 1.23907 0.30156 0.28722
 C270 C 1.18151 0.32897 0.29595
 N271 N 1.19423 0.36760 0.33791
 H272 H 1.13476 0.32049 0.27611
 N273 N 0.74776 -0.14398 0.38227
 N274 N 0.77617 -0.18244 0.34977
 C275 C 0.73566 -0.19722 0.30416
 C276 C 0.68155 -0.16526 0.30932
 N277 N 0.69094 -0.13337 0.35893
 H278 H 0.63900 -0.16553 0.28115
 N279 N 0.76874 0.33666 -0.11769
 N280 N 0.78801 0.29434 -0.14963
 C281 C 0.74515 0.28561 -0.19527
 C282 C 0.69971 0.32505 -0.19098
 N283 N 0.71585 0.35543 -0.14183
 H284 H 0.65893 0.33124 -0.22037
 N285 N 1.11022 0.22598 -0.16801
 N286 N 1.14123 0.26195 -0.20275
 C287 C 1.20406 0.24740 -0.20948
 C288 C 1.21034 0.20095 -0.17683
 N289 N 1.15082 0.18926 -0.15173
 H290 H 1.25213 0.17561 -0.17683
 N291 N 1.09317 0.70356 0.28647
 N292 N 1.13140 0.73620 0.25339
 C293 C 1.19200 0.73408 0.27571
 C294 C 1.18887 0.69736 0.32391
 N295 N 1.12667 0.67970 0.32896
 H296 H 1.22931 0.68048 0.34715
 N297 N 0.59194 0.20746 0.31846
 N298 N 0.62864 0.23693 0.28011
 C299 C 0.69126 0.22526 0.28950
 C300 C 0.69136 0.18725 0.33556
 N301 N 0.62859 0.17746 0.35223
 H302 H 0.73219 0.16423 0.34917
 N303 N 0.74145 0.69414 -0.12035
 N304 N 0.76859 0.72878 -0.15933
 C305 C 0.73335 0.72775 -0.21137
 C306 C 0.68368 0.69054 -0.20303
 N307 N 0.69052 0.67100 -0.14565
 H308 H 0.64725 0.67833 -0.23573
 N309 N 0.90513 -0.17204 -0.25796
 N310 N 0.86539 -0.20403 -0.28868
 C311 C 0.80753 -0.20392 -0.25655
 C312 C 0.81309 -0.17031 -0.20560
 N313 N 0.87468 -0.15228 -0.20756
 H314 H 0.77664 -0.16181 -0.16915
 N315 N 0.90260 0.29387 0.28260
 N316 N 0.86741 0.25893 0.25147
 C317 C 0.80652 0.25862 0.27768
 C318 C 0.80570 0.29596 0.32564
 N319 N 0.86638 0.31657 0.32721
 H320 H 0.76357 0.31089 0.35161
 N321 N 0.39886 -0.20495 0.29946
 N322 N 0.36620 -0.23817 0.26366
 C323 C 0.30223 -0.23449 0.28011
 C324 C 0.29743 -0.19623 0.32747
 N325 N 0.35856 -0.17928 0.33800
 H326 H 0.25356 -0.17804 0.34635
 N327 N 0.41590 0.31569 -0.23167
 N328 N 0.37385 0.28745 -0.26415
 C329 C 0.31740 0.28446 -0.22964
 C330 C 0.32667 0.31265 -0.17470
 N331 N 0.38832 0.33147 -0.17803
 H332 H 0.28990 0.32370 -0.13962
 N333 N 1.26455 -0.15329 0.12136
 N334 N 1.28728 -0.19322 0.15259
 C335 C 1.24210 -0.20655 0.19772
 C336 C 1.19084 -0.17168 0.19334
 N337 N 1.20673 -0.13995 0.14480
 H338 H 1.14640 -0.16934 0.22188
 N339 N 1.18414 0.40061 0.73150
 N340 N 1.21265 0.36328 0.76235
 C341 C 1.22585 0.32358 0.72134
 C342 C 1.20529 0.33882 0.66323
 N343 N 1.17977 0.38694 0.67203
 H344 H 1.20449 0.31627 0.62004
 N345 N 0.60022 -0.16671 0.72746
 N346 N 0.63585 -0.20396 0.75088
 C347 C 0.69249 -0.20468 0.71688
 C348 C 0.69025 -0.16618 0.67144
 N349 N 0.63189 -0.14354 0.67999
 H350 H 0.72785 -0.15491 0.63711
 N351 N 0.74413 0.32979 0.11620
 N352 N 0.76776 0.28857 0.14416
 C353 C 0.73187 0.28113 0.19761
 C354 C 0.68552 0.32056 0.20178
 N355 N 0.69469 0.34936 0.14969
 H356 H 0.65030 0.32886 0.23928
 N357 N 0.74365 0.12770 0.13591
 N358 N 0.71617 0.16792 0.16591
 C359 C 0.76007 0.18814 0.20552
 C360 C 0.81561 0.15768 0.19933
 N361 N 0.80327 0.12103 0.15507
 H362 H 0.86109 0.16227 0.22273
 N363 N 0.74943 0.67297 0.59619
 N364 N 0.72710 0.71520 0.62659
 C365 C 0.76370 0.72229 0.67726
 C366 C 0.80915 0.68279 0.67681
 N367 N 0.79838 0.65295 0.62588
 H368 H 0.84409 0.67494 0.71197
 N369 N 0.23273 0.17616 0.61621
 N370 N 0.21412 0.21935 0.64710
 C371 C 0.25954 0.23063 0.68966
 C372 C 0.30520 0.19132 0.68517
 N373 N 0.28730 0.15887 0.63868
 H374 H 0.34588 0.18535 0.71480
 N375 N 0.25542 0.64803 0.12361
 N376 N 0.22793 0.68890 0.15203
 C377 C 0.26574 0.70374 0.19984
 C378 C 0.31742 0.66870 0.20018
 N379 N 0.30914 0.63543 0.15143
 H380 H 0.35720 0.66733 0.23169
   
