data_POSCAR
  _audit_creation_date              2014-09-24
  _audit_creation_method            'ToBaCCo'
  _symmetry_space_group_name_H-M    'P1'
  _symmetry_Int_Tables_number       1
  _symmetry_cell_setting            triclinic
  loop_
  _symmetry_equiv_pos_as_xyz
 x,y,z
_cell_length_a 20.6302
_cell_length_b 20.9586
_cell_length_c 47.4321
_cell_angle_alpha 92.050800
_cell_angle_beta 97.978900
_cell_angle_gamma 118.524600
loop_
  _atom_site_label
  _atom_site_type_symbol
  _atom_site_fract_x
  _atom_site_fract_y
  _atom_site_fract_z
C1 C 0.15205 0.19087 0.54667
 H2 H 0.20444 0.18980 0.54902
 C3 C 0.14520 0.24037 0.56467
 H4 H 0.19249 0.27546 0.58118
 C5 C 0.02683 0.14318 0.52279
 H6 H -0.01875 0.10569 0.50616
 C7 C 0.01810 0.19350 0.53985
 H8 H -0.03461 0.19376 0.53577
 N9 N 0.09252 0.14156 0.52706
 C10 C 0.13868 -0.03965 0.51847
 H11 H 0.13503 -0.04691 0.49550
 C12 C 0.14161 -0.09231 0.53509
 H13 H 0.14122 -0.13962 0.52491
 C14 C 0.13756 0.02753 0.55949
 H15 H 0.13170 0.07165 0.56890
 C16 C 0.14254 -0.02263 0.57696
 H17 H 0.14181 -0.01554 0.59962
 Zn18 Zn 0.11028 0.07503 0.50587
 N19 N 0.13530 0.01813 0.53075
 C20 C 0.25363 0.13229 0.48741
 N21 N 0.18753 0.13273 0.48595
 C22 C 0.17205 0.17750 0.46972
 C23 C 0.22391 0.22456 0.45408
 C24 C 0.30732 0.17849 0.47181
 C25 C -0.04099 -0.03559 0.48734
 C26 C -0.09788 -0.09647 0.46914
 C27 C -0.01568 -0.06929 0.43445
 C28 C 0.03829 -0.00799 0.45288
 N29 N 0.02571 0.00679 0.47904
 H30 H 0.26464 0.09628 0.50058
 H31 H 0.11884 0.17636 0.46894
 H32 H 0.20955 0.25875 0.44096
 H33 H 0.35982 0.17788 0.47304
 H34 H -0.04875 -0.02438 0.50869
 H35 H -0.14882 -0.13040 0.47714
 H36 H -0.00253 -0.07788 0.41385
 H37 H 0.09211 0.02542 0.44681
 C38 C 0.14278 -0.08427 0.56466
 C39 C 0.07714 0.24183 0.56186
 C40 C -0.08486 -0.11679 0.44259
 C41 C 0.29278 0.22584 0.45505
 C42 C 1.10290 -0.03183 0.13762
 H43 H 1.10589 0.02110 0.13975
 C44 C 1.15062 -0.04206 0.12237
 H45 H 1.18966 0.00326 0.11256
 C46 C 1.04570 -0.15559 0.14702
 H47 H 1.00464 -0.19939 0.15673
 C48 C 1.09211 -0.16859 0.13146
 H49 H 1.08648 -0.22268 0.12915
 N50 N 1.05152 -0.08809 0.14942
 C51 C 0.87114 -0.03709 0.14893
 H52 H 0.87387 -0.02440 0.17152
 C53 C 0.81079 -0.04423 0.12896
 H54 H 0.76762 -0.03615 0.13637
 C55 C 0.92093 -0.06892 0.11213
 H56 H 0.96240 -0.08101 0.10565
 C57 C 0.86176 -0.07662 0.09151
 H58 H 0.85997 -0.09231 0.06930
 Zn59 Zn 0.99190 -0.06124 0.16823
 N60 N 0.92379 -0.05094 0.14030
 C61 C 1.05805 0.09059 0.19109
 N62 N 1.06002 0.02670 0.19181
 C63 C 1.11546 0.02220 0.20922
 C64 C 1.17255 0.08351 0.22668
 C65 C 1.11416 0.15361 0.20853
 C66 C 0.87920 -0.19900 0.17907
 C67 C 0.82621 -0.24526 0.19484
 C68 C 0.88711 -0.15134 0.23531
 C69 C 0.93912 -0.10746 0.21899
 N70 N 0.93359 -0.13111 0.19123
 H71 H 1.01371 0.09289 0.17684
 H72 H 1.11549 -0.02940 0.20927
 H73 H 1.21587 0.07837 0.24046
 H74 H 1.11272 0.20449 0.20768
 H75 H 0.87466 -0.21574 0.15672
 H76 H 0.78164 -0.29821 0.18470
 H77 H 0.89135 -0.13068 0.25714
 H78 H 0.98129 -0.05285 0.22816
 C79 C 0.80438 -0.06653 0.09991
 C80 C 1.14544 -0.11112 0.11898
 C81 C 0.82862 -0.22031 0.22303
 C82 C 1.17292 0.15052 0.22629
 C83 C -0.01183 1.02017 0.88554
 H84 H -0.06399 1.01348 0.89061
 C85 C 0.03796 1.01298 0.90648
 H86 H 0.02405 1.00205 0.92761
 C87 C 0.06745 1.03737 0.85153
 H88 H 0.07661 1.04308 0.82964
 C89 C 0.11946 1.03133 0.87203
 H90 H 0.16910 1.03361 0.86589
 N91 N 0.00264 1.03032 0.85847
 C92 C -0.21687 0.92109 0.84692
 H93 H -0.21302 0.87586 0.83726
 C94 C -0.27522 0.90736 0.86199
 H95 H -0.31358 0.85094 0.86378
 C96 C -0.16718 1.04847 0.85762
 H97 H -0.12399 1.10361 0.85636
 C98 C -0.22544 1.03745 0.87199
 H99 H -0.22691 1.08535 0.88017
 Zn100 Zn -0.07668 1.01592 0.82896
 N101 N -0.16365 0.99088 0.84542
 C102 C -0.09470 0.87788 0.81076
 N103 N -0.08746 0.94156 0.80177
 C104 C -0.07205 0.95921 0.77525
 C105 C -0.05838 0.91436 0.75735
 C106 C -0.08316 0.83053 0.79320
 C107 C -0.11668 1.10297 0.79658
 C108 C -0.10820 1.16176 0.78174
 C109 C 0.02605 1.21403 0.79450
 C110 C 0.01487 1.15508 0.81001
 N111 N -0.05577 1.10081 0.81057
 H112 H -0.10393 0.86641 0.83233
 H113 H -0.06496 1.01064 0.76868
 H114 H -0.04196 0.93107 0.73698
 H115 H -0.08529 0.78186 0.80113
 H116 H -0.17231 1.05868 0.79700
 H117 H -0.15804 1.16257 0.77160
 H118 H 0.08286 1.25478 0.79346
 H119 H 0.06259 1.15193 0.82099
 C120 C -0.28001 0.96609 0.87543
 C121 C 0.10353 1.01654 0.89962
 C122 C -0.03613 1.21798 0.77995
 C123 C -0.06185 0.85031 0.76667
 C124 C 0.27906 -0.07303 -0.02146
 C125 C 0.25541 -0.08847 0.00502
 C126 C 0.29230 -0.10920 0.02656
 C127 C 0.35750 -0.11150 0.02241
 C128 C 0.38277 -0.09622 -0.00415
 C129 C 0.34231 -0.07906 -0.02654
 C130 C 0.36576 -0.06966 -0.05329
 C131 C 0.43009 -0.07245 -0.05742
 C132 C 0.47318 -0.08516 -0.03500
 C133 C 0.44905 -0.09762 -0.00819
 C134 C 0.39792 -0.12892 0.04416
 C135 C 0.46400 -0.12785 0.04050
 C136 C 0.49174 -0.11033 0.01479
 C137 C 0.56056 -0.10632 0.01136
 C138 C 0.58223 -0.09661 -0.01550
 C139 C 0.53972 -0.08596 -0.03860
 H140 H 0.33423 -0.06089 -0.07144
 H141 H 0.44600 -0.06422 -0.07836
 H142 H 0.37914 -0.14302 0.06438
 H143 H 0.49251 -0.14206 0.05796
 H144 H 0.20871 -0.08172 0.00941
 H145 H 0.63479 -0.09401 -0.01818
 C146 C 0.04362 0.42385 0.64785
 C147 C 0.02886 0.38975 0.67273
 C148 C 0.01584 0.42130 0.69617
 C149 C 0.01962 0.49028 0.69522
 C150 C 0.03630 0.52656 0.67036
 C151 C 0.04820 0.49310 0.64652
 C152 C 0.06463 0.52984 0.62215
 C153 C 0.07347 0.59990 0.62174
 C154 C 0.06149 0.63414 0.64501
 C155 C 0.04100 0.59633 0.66932
 C156 C 0.00745 0.52394 0.71848
 C157 C 0.01157 0.59198 0.71743
 C158 C 0.02699 0.62877 0.69290
 C159 C 0.03117 0.69811 0.69162
 C160 C 0.05430 0.73568 0.66795
 C161 C 0.07094 0.70567 0.64499
 H162 H 0.07173 0.50506 0.60327
 H163 H 0.08943 0.62646 0.60283
 H164 H -0.00491 0.49814 0.73786
 H165 H 0.00409 0.61586 0.73642
 H166 H 0.02725 0.33741 0.67378
 H167 H 0.05894 0.78935 0.66719
 C168 C 0.40007 0.36841 0.31425
 C169 C 0.38745 0.34257 0.34081
 C170 C 0.43846 0.38082 0.36603
 C171 C 0.50380 0.44757 0.36485
 C172 C 0.51708 0.47469 0.33807
 C173 C 0.46522 0.43479 0.31267
 C174 C 0.47945 0.46255 0.28633
 C175 C 0.54385 0.52765 0.28488
 C176 C 0.59631 0.56780 0.30972
 C177 C 0.58239 0.54177 0.33667
 C178 C 0.55658 0.48742 0.38968
 C179 C 0.62040 0.55338 0.38836
 C180 C 0.63381 0.58237 0.36216
 C181 C 0.69805 0.64989 0.36053
 C182 C 0.71065 0.67436 0.33372
 C183 C 0.66171 0.63407 0.30842
 H184 H 0.44067 0.43433 0.26653
 H185 H 0.55157 0.54665 0.26405
 H186 H 0.54924 0.46769 0.41042
 H187 H 0.65947 0.58082 0.40812
 H188 H 0.33718 0.29185 0.34185
 H189 H 0.76015 0.72571 0.33244
 C190 C 0.12966 0.34743 0.60109
 C191 C 0.06752 0.29037 0.58284
 C192 C -0.00407 0.27624 0.58775
 C193 C -0.01157 0.32212 0.60796
 C194 C 0.05197 0.38328 0.62382
 C195 C 0.12221 0.39188 0.62129
 C196 C 0.19207 0.45779 0.61693
 C197 C 0.19993 0.40920 0.59464
 H198 H -0.05469 0.22967 0.57637
 H199 H -0.06709 0.30963 0.61134
 H200 H 0.23678 0.47759 0.63625
 H201 H 0.18219 0.50085 0.60761
 H202 H 0.24975 0.40211 0.60117
 H203 H 0.19292 0.42323 0.57244
 C204 C 0.74295 0.66165 0.24067
 C205 C 0.76877 0.73635 0.23929
 C206 C 0.73978 0.77060 0.25589
 C207 C 0.69729 0.73422 0.27668
 C208 C 0.68271 0.66286 0.28111
 C209 C 0.70124 0.62584 0.26130
 C210 C 0.73979 0.58139 0.26609
 C211 C 0.78550 0.62055 0.24352
 H212 H 0.75503 0.82736 0.25446
 H213 H 0.68196 0.76409 0.29102
 H214 H 0.70100 0.52221 0.25924
 H215 H 0.77384 0.59459 0.28796
 H216 H 0.77309 0.58386 0.22368
 H217 H 0.84612 0.65644 0.25226
 C218 C 0.11703 -0.05961 -0.06334
 C219 C 0.15078 -0.00146 -0.07938
 C220 C 0.22988 0.03869 -0.07426
 C221 C 0.27254 0.01631 -0.05535
 C222 C 0.23688 -0.04824 -0.04216
 C223 C 0.15874 -0.08238 -0.04543
 C224 C 0.10153 -0.16109 -0.05300
 C225 C 0.05553 -0.13612 -0.07274
 H226 H 0.25857 0.08655 -0.08504
 H227 H 0.33308 0.04856 -0.05153
 H228 H 0.07512 -0.18582 -0.03446
 H229 H 0.12238 -0.19263 -0.06462
 H230 H 0.00265 -0.14652 -0.06555
 H231 H 0.04952 -0.15320 -0.09585
 C232 C 0.08212 0.78478 0.57419
 C233 C 0.13804 0.85757 0.58237
 C234 C 0.18294 0.87469 0.60974
 C235 C 0.16485 0.82263 0.62943
 C236 C 0.10117 0.75272 0.62223
 C237 C 0.06364 0.73388 0.59377
 C238 C -0.01805 0.69852 0.58188
 C239 C 0.00193 0.75423 0.56039
 H240 H 0.22831 0.92980 0.61666
 H241 H 0.19684 0.83891 0.65102
 H242 H -0.05085 0.70531 0.59732
 H243 H -0.04034 0.64162 0.57184
 H244 H -0.01944 0.79329 0.56330
 H245 H -0.00907 0.72934 0.53796
 C246 C 0.22181 0.26663 0.25929
 C247 C 0.23491 0.21639 0.24427
 C248 C 0.30915 0.22812 0.24853
 C249 C 0.36433 0.28082 0.27039
 C250 C 0.34633 0.32271 0.28833
 C251 C 0.27609 0.31826 0.28097
 C252 C 0.21937 0.31153 0.29879
 C253 C 0.15987 0.25476 0.27503
 H254 H 0.32339 0.19351 0.23626
 H255 H 0.41941 0.28531 0.27454
 H256 H 0.21556 0.36253 0.30113
 H257 H 0.22457 0.28825 0.31911
 H258 H 0.12181 0.27310 0.26379
 H259 H 0.13140 0.19875 0.28157
 C260 C 0.67053 0.01254 -0.08895
 C261 C 0.66439 -0.04513 -0.10751
 C262 C 0.60079 -0.11474 -0.10730
 C263 C 0.55504 -0.12714 -0.08632
 C264 C 0.57040 -0.07029 -0.06540
 C265 C 0.62493 0.00008 -0.06855
 C266 C 0.68584 0.05830 -0.04682
 C267 C 0.73656 0.07202 -0.06877
 H268 H 0.58723 -0.16114 -0.12228
 H269 H 0.51135 -0.18222 -0.08515
 H270 H 0.70215 0.03691 -0.02758
 H271 H 0.67496 0.10437 -0.04225
 H272 H 0.78163 0.05785 -0.06235
 H273 H 0.75575 0.12686 -0.07622
 C274 C 0.16267 -0.18336 0.08017
 C275 C 0.19293 -0.12281 0.10103
 C276 C 0.26716 -0.06732 0.10101
 C277 C 0.30288 -0.06636 0.07769
 C278 C 0.26511 -0.12104 0.05417
 C279 C 0.19766 -0.18222 0.05710
 C280 C 0.12471 -0.22467 0.03695
 C281 C 0.08637 -0.22545 0.06222
 H282 H 0.29466 -0.02104 0.11752
 H283 H 0.35663 -0.01946 0.07677
 H284 H 0.11467 -0.27974 0.02903
 H285 H 0.11531 -0.19319 0.02006
 H286 H 0.05399 -0.28100 0.06868
 H287 H 0.05615 -0.19341 0.06007
 C288 C 0.78803 0.78192 0.42874
 C289 C 0.86425 0.81936 0.42594
 C290 C 0.88520 0.78555 0.40511
 C291 C 0.83122 0.72528 0.38568
 C292 C 0.75433 0.69698 0.38595
 C293 C 0.73471 0.72347 0.40892
 C294 C 0.67678 0.74642 0.40912
 C295 C 0.73448 0.81063 0.43068
 H296 H 0.94316 0.80518 0.40329
 H297 H 0.84944 0.70414 0.36908
 H298 H 0.62836 0.70674 0.41835
 H299 H 0.66205 0.76283 0.38819
 H300 H 0.71850 0.80807 0.45222
 H301 H 0.75305 0.86442 0.42231
 C302 C -0.08435 0.26871 0.73983
 C303 C -0.02699 0.27818 0.76216
 C304 C 0.03986 0.34644 0.76615
 C305 C 0.05213 0.39645 0.74566
 C306 C -0.00249 0.37966 0.72106
 C307 C -0.07241 0.31789 0.71985
 C308 C -0.12341 0.25933 0.69603
 C309 C -0.13616 0.20504 0.71786
 H310 H 0.08448 0.35990 0.78409
 H311 H 0.10612 0.44545 0.74796
 H312 H -0.09437 0.25222 0.67915
 H313 H -0.17424 0.26363 0.68797
 H314 H -0.11319 0.16781 0.71385
 H315 H -0.19467 0.17768 0.72195
 C316 C 0.69725 -0.04481 0.08144
 C317 C 0.73626 -0.08339 0.07890
 C318 C 0.70669 -0.14048 0.05608
 C319 C 0.64655 -0.15108 0.03471
 C320 C 0.61412 -0.10546 0.03591
 C321 C 0.63830 -0.05517 0.06039
 C322 C 0.66073 0.02404 0.06309
 C323 C 0.72565 0.03566 0.08619
 H324 H 0.73160 -0.17527 0.05407
 H325 H 0.62782 -0.19247 0.01662
 H326 H 0.61861 0.03456 0.07150
 H327 H 0.67880 0.04970 0.04345
 H328 H 0.72100 0.05319 0.10787
 H329 H 0.78149 0.06816 0.07998
 C330 C 0.38839 0.25236 0.42308
 C331 C 0.34763 0.27523 0.43798
 C332 C 0.35507 0.34467 0.43366
 C333 C 0.39053 0.38241 0.41152
 C334 C 0.41934 0.35154 0.39340
 C335 C 0.42283 0.28924 0.40114
 C336 C 0.40515 0.22008 0.38390
 C337 C 0.36699 0.17961 0.40791
 H338 H 0.32845 0.36714 0.44583
 H339 H 0.38963 0.43230 0.40701
 H340 H 0.45654 0.21682 0.38184
 H341 H 0.36537 0.20728 0.36350
 H342 H 0.39627 0.15286 0.41952
 H343 H 0.30526 0.14460 0.40146
 C344 C -0.07782 0.73387 0.74256
 C345 C -0.03467 0.80932 0.75044
 C346 C 0.03736 0.84526 0.74313
 C347 C 0.06100 0.80783 0.72552
 C348 C 0.01280 0.73382 0.71457
 C349 C -0.05514 0.69749 0.72464
 C350 C -0.13282 0.64951 0.70875
 C351 C -0.15792 0.68936 0.72831
 H352 H 0.07416 0.90296 0.75010
 H353 H 0.11527 0.83777 0.71920
 H354 H -0.15388 0.59123 0.71223
 H355 H -0.13981 0.65968 0.68596
 H356 H -0.19364 0.65389 0.74297
 H357 H -0.17963 0.72258 0.71687
   
