data_POSCAR
  _audit_creation_date              2014-09-24
  _audit_creation_method            'ToBaCCo'
  _symmetry_space_group_name_H-M    'P1'
  _symmetry_Int_Tables_number       1
  _symmetry_cell_setting            triclinic
  loop_
  _symmetry_equiv_pos_as_xyz
 x,y,z
_cell_length_a 64.1476
_cell_length_b 64.3756
_cell_length_c 45.3237
_cell_angle_alpha 90.397300
_cell_angle_beta 90.139200
_cell_angle_gamma 120.264500
loop_
  _atom_site_label
  _atom_site_type_symbol
  _atom_site_fract_x
  _atom_site_fract_y
  _atom_site_fract_z
C1 C 0.04895 0.54080 0.07039
 C2 C 0.04938 0.51979 0.07246
 C3 C 0.03582 0.50538 0.04894
 N4 N 0.02709 0.51684 0.03263
 C5 C 0.03513 0.53850 0.04570
 C6 C 0.03340 0.48293 0.04146
 C7 C 0.01658 0.46716 0.02026
 C8 C 0.01625 0.44707 0.00854
 C9 C -0.00386 0.43562 -0.00931
 C10 C -0.01514 0.44924 -0.00841
 N11 N -0.00262 0.46828 0.00996
 C12 C -0.03780 0.44270 -0.02141
 C13 C -0.04627 0.45922 -0.02368
 C14 C -0.06929 0.45349 -0.03266
 C15 C -0.06911 0.47472 -0.03533
 C16 C -0.04581 0.49296 -0.02890
 N17 N -0.03193 0.48344 -0.02150
 C18 C -0.03731 0.51791 -0.03220
 C19 C -0.01571 0.53574 -0.01826
 C20 C -0.00324 0.56002 -0.02527
 C21 C 0.01624 0.57108 -0.00638
 C22 C 0.01548 0.55323 0.01125
 N23 N -0.00408 0.53179 0.00404
 C24 C 0.03227 0.55713 0.03386
 H25 H 0.05812 0.55618 0.08508
 H26 H 0.05888 0.51572 0.08912
 H27 H -0.01023 0.51576 0.01542
 H28 H 0.02887 0.44094 0.01289
 H29 H -0.00973 0.41879 -0.02084
 H30 H -0.08469 0.43601 -0.03754
 H31 H -0.08435 0.47650 -0.04192
 H32 H 0.02970 0.59003 -0.00603
 H33 H -0.00848 0.47967 0.01784
 H34 H -0.00748 0.56891 -0.04246
 C35 C 0.46391 0.51357 0.06422
 C36 C 0.48486 0.53525 0.06195
 C37 C 0.49612 0.53409 0.03644
 N38 N 0.48277 0.51242 0.02307
 C39 C 0.46304 0.49987 0.04001
 C40 C 0.51716 0.55361 0.02455
 C41 C 0.53012 0.55111 0.00099
 C42 C 0.54800 0.57001 -0.01490
 C43 C 0.55665 0.56009 -0.03497
 C44 C 0.54380 0.53543 -0.03074
 N45 N 0.52782 0.53013 -0.00865
 C46 C 0.54775 0.51857 -0.04605
 C47 C 0.53118 0.49356 -0.04559
 C48 C 0.53618 0.47615 -0.05554
 C49 C 0.51508 0.45461 -0.05391
 C50 C 0.49777 0.45952 -0.04312
 N51 N 0.50769 0.48338 -0.03785
 C52 C 0.47301 0.44213 -0.03974
 C53 C 0.45731 0.44642 -0.02206
 C54 C 0.43228 0.43287 -0.02303
 C55 C 0.42388 0.44280 -0.00269
 C56 C 0.44397 0.46226 0.01001
 N57 N 0.46428 0.46424 -0.00171
 C58 C 0.44310 0.47723 0.03233
 H59 H 0.45060 0.50860 0.08143
 H60 H 0.49092 0.55031 0.07709
 H61 H 0.48187 0.47584 0.00547
 H62 H 0.55419 0.58898 -0.01227
 H63 H 0.57080 0.56992 -0.05083
 H64 H 0.55327 0.47872 -0.06326
 H65 H 0.51273 0.43726 -0.05997
 H66 H 0.40510 0.43658 0.00189
 H67 H 0.51770 0.51344 0.00120
 H68 H 0.42114 0.41763 -0.03725
 C69 C 0.45759 0.93900 0.04516
 C70 C 0.47854 0.93821 0.04490
 C71 C 0.49630 0.96010 0.03402
 N72 N 0.48692 0.97421 0.02757
 C73 C 0.46327 0.96137 0.03447
 C74 C 0.52112 0.96763 0.03300
 C75 C 0.53799 0.98798 0.01709
 C76 C 0.56285 0.99816 0.01874
 C77 C 0.57256 1.01659 -0.00131
 C78 C 0.55337 1.01738 -0.01430
 N79 N 0.53240 0.99973 -0.00321
 C80 C 0.55530 1.03287 -0.03735
 C81 C 0.53628 1.03680 -0.04560
 C82 C 0.53640 1.04938 -0.07035
 C83 C 0.51575 1.05063 -0.06938
 C84 C 0.50384 1.03930 -0.04369
 N85 N 0.51638 1.03070 -0.02924
 C86 C 0.48233 1.03806 -0.03337
 C87 C 0.46806 1.02192 -0.01088
 C88 C 0.45078 1.02376 0.00552
 C89 C 0.44092 1.00470 0.02459
 C90 C 0.45259 0.99185 0.01962
 N91 N 0.46902 1.00235 -0.00212
 C92 C 0.44749 0.97064 0.03457
 H93 H 0.44027 0.92495 0.05297
 H94 H 0.48058 0.92339 0.05238
 H95 H 0.47883 0.99541 -0.01212
 H96 H 0.57296 0.99271 0.03263
 H97 H 0.59158 1.02796 -0.00588
 H98 H 0.54996 1.05702 -0.08735
 H99 H 0.51021 1.05906 -0.08578
 H100 H 0.42698 1.00094 0.04060
 H101 H 0.51527 0.99443 -0.01141
 H102 H 0.44598 1.03761 0.00424
 C103 C 1.04944 0.53470 0.43173
 C104 C 1.04922 0.51339 0.43257
 C105 C 1.03901 0.50282 0.45928
 N106 N 1.03271 0.51688 0.47472
 C107 C 1.03941 0.53657 0.45798
 C108 C 1.03690 0.48111 0.46954
 C109 C 1.01965 0.46694 0.49109
 C110 C 1.01930 0.44824 0.50656
 C111 C 0.99928 0.43874 0.52430
 C112 C 0.98824 0.45226 0.51979
 N113 N 1.00065 0.46927 0.49935
 C114 C 0.96664 0.44795 0.53343
 C115 C 0.95892 0.46500 0.53434
 C116 C 0.93738 0.46092 0.54653
 C117 C 0.93780 0.48239 0.54594
 C118 C 0.95958 0.49896 0.53344
 N119 N 0.97254 0.48832 0.52652
 C120 C 0.96810 0.52387 0.53138
 C121 C 0.98985 0.54023 0.51731
 C122 C 1.00155 0.56502 0.52070
 C123 C 1.02138 0.57441 0.50266
 C124 C 1.02097 0.55513 0.48819
 N125 N 1.00170 0.53436 0.49733
 C126 C 1.03777 0.55690 0.46666
 H127 H 1.05615 0.54739 0.41377
 H128 H 1.05575 0.50637 0.41542
 H129 H 0.99570 0.51736 0.48828
 H130 H 1.03213 0.44205 0.50536
 H131 H 0.99369 0.42370 0.53900
 H132 H 0.92310 0.44440 0.55573
 H133 H 0.92391 0.48554 0.55458
 H134 H 1.03460 0.59331 0.50060
 H135 H 0.99522 0.48034 0.48952
 H136 H 0.99648 0.57534 0.53484
 C137 C 0.54125 0.48862 0.56470
 C138 C 0.52025 0.46694 0.56673
 C139 C 0.50561 0.46589 0.54354
 N140 N 0.51697 0.48618 0.52741
 C141 C 0.53877 0.50012 0.54034
 C142 C 0.48292 0.44568 0.53641
 C143 C 0.46682 0.44638 0.51560
 C144 C 0.44645 0.42633 0.50428
 C145 C 0.43509 0.43465 0.48613
 C146 C 0.44896 0.45955 0.48660
 N147 N 0.46810 0.46655 0.50487
 C148 C 0.44304 0.47513 0.47173
 C149 C 0.45959 0.49985 0.46746
 C150 C 0.45385 0.51595 0.45493
 C151 C 0.47509 0.53730 0.45217
 C152 C 0.49319 0.53354 0.46282
 N153 N 0.48368 0.51063 0.47213
 C154 C 0.51815 0.55054 0.46146
 C155 C 0.53595 0.54759 0.47615
 C156 C 0.56059 0.56142 0.47129
 C157 C 0.57165 0.55347 0.49052
 C158 C 0.55346 0.53492 0.50646
 N159 N 0.53179 0.53161 0.49781
 C160 C 0.55724 0.52217 0.52908
 H161 H 0.55671 0.49506 0.57930
 H162 H 0.51629 0.45342 0.58327
 H163 H 0.51539 0.52070 0.50811
 H164 H 0.44028 0.40763 0.50877
 H165 H 0.41844 0.42357 0.47410
 H166 H 0.43628 0.51263 0.44794
 H167 H 0.47700 0.55362 0.44291
 H168 H 0.59088 0.56049 0.49244
 H169 H 0.47985 0.48403 0.51203
 H170 H 0.56969 0.57575 0.45553
 C171 C 0.46537 -0.05228 0.43263
 C172 C 0.48704 -0.05139 0.43065
 C173 C 0.50088 -0.03801 0.45471
 N174 N 0.48788 -0.03124 0.47168
 C175 C 0.46610 -0.04007 0.45828
 C176 C 0.52391 -0.03462 0.46256
 C177 C 0.53798 -0.01907 0.48598
 C178 C 0.55821 -0.01807 0.49876
 C179 C 0.56774 0.00092 0.51845
 C180 C 0.55347 0.01137 0.51673
 N181 N 0.53550 -0.00083 0.49686
 C182 C 0.55807 0.03255 0.53183
 C183 C 0.54149 0.04086 0.53236
 C184 C 0.54684 0.06351 0.54199
 C185 C 0.52545 0.06344 0.54245
 C186 C 0.50775 0.04070 0.53319
 N187 N 0.51759 0.02696 0.52690
 C188 C 0.48272 0.03199 0.53425
 C189 C 0.46561 0.01019 0.52051
 C190 C 0.44116 -0.00221 0.52664
 C191 C 0.43088 -0.02219 0.50854
 C192 C 0.44930 -0.02131 0.49153
 N193 N 0.47043 -0.00145 0.49899
 C194 C 0.44629 -0.03849 0.46962
 H195 H 0.45059 -0.06123 0.41702
 H196 H 0.49156 -0.06024 0.41361
 H197 H 0.48685 0.00487 0.48827
 H198 H 0.56584 -0.02934 0.49408
 H199 H 0.58375 0.00673 0.53186
 H200 H 0.56429 0.07838 0.54856
 H201 H 0.52309 0.07821 0.54952
 H202 H 0.41200 -0.03597 0.50827
 H203 H 0.52398 0.00470 0.48854
 H204 H 0.43175 0.00243 0.54281
 O205 O 0.19181 0.42518 0.22498
 O206 O 0.23177 0.42207 0.28139
 O207 O 0.19172 0.42360 0.28241
 O208 O 0.23205 0.42374 0.22402
 O209 O 0.25294 0.46339 0.22632
 O210 O 0.21312 0.46324 0.28419
 O211 O 0.25253 0.46174 0.28369
 O212 O 0.21327 0.46481 0.22700
 Cu213 Cu 0.20970 0.41964 0.25294
 Cu214 Cu 0.23508 0.46723 0.25545
 C215 C 0.19571 0.44560 0.21645
 C216 C 0.24892 0.44145 0.29226
 C217 C 0.19565 0.44354 0.29328
 C218 C 0.24946 0.44370 0.21530
 O219 O 0.56961 0.76378 0.21529
 O220 O 0.56852 0.80182 0.27597
 O221 O 0.56806 0.76089 0.27274
 O222 O 0.56957 0.80447 0.21861
 O223 O 0.52973 0.78486 0.21793
 O224 O 0.52829 0.74091 0.26997
 O225 O 0.52869 0.78179 0.27417
 O226 O 0.52984 0.74480 0.21298
 Cu227 Cu 0.57296 0.78468 0.24586
 Cu228 Cu 0.52517 0.76099 0.24371
 C229 C 0.54984 0.74781 0.20372
 C230 C 0.54834 0.79860 0.28490
 C231 C 0.54779 0.74318 0.28015
 C232 C 0.54977 0.80231 0.20960
 O233 O 0.23499 0.81132 0.22264
 O234 O 0.19253 0.76768 0.27674
 O235 O 0.23343 0.80845 0.28007
 O236 O 0.19376 0.77036 0.21922
 O237 O 0.21443 0.75148 0.21706
 O238 O 0.25247 0.78791 0.27903
 O239 O 0.21231 0.74792 0.27426
 O240 O 0.25520 0.79193 0.22249
 Cu241 Cu 0.21163 0.79142 0.24970
 Cu242 Cu 0.23549 0.76778 0.24787
 C243 C 0.25276 0.80933 0.21399
 C244 C 0.19536 0.75036 0.28481
 C245 C 0.24967 0.80452 0.29005
 C246 C 0.19736 0.75436 0.20778
 O247 O 0.76539 0.57305 0.77561
 O248 O 0.80989 0.57715 0.72081
 O249 O 0.76915 0.57739 0.71842
 O250 O 0.80622 0.57280 0.77791
 O251 O 0.78604 0.53334 0.77244
 O252 O 0.74964 0.53788 0.71323
 O253 O 0.78943 0.53763 0.71559
 O254 O 0.74529 0.53361 0.76985
 Cu255 Cu 0.78968 0.57909 0.74881
 Cu256 Cu 0.76560 0.53166 0.74254
 C257 C 0.74742 0.55256 0.78158
 C258 C 0.80712 0.55801 0.70877
 C259 C 0.75313 0.55831 0.70558
 C260 C 0.80267 0.55218 0.78492
 O261 O 0.42492 0.22990 0.71868
 O262 O 0.42298 0.18994 0.77841
 O263 O 0.42043 0.22933 0.77552
 O264 O 0.42608 0.18975 0.72092
 O265 O 0.46569 0.21068 0.72602
 O266 O 0.46014 0.25055 0.77989
 O267 O 0.46260 0.21197 0.78273
 O268 O 0.46461 0.25063 0.72271
 Cu269 Cu 0.41960 0.20753 0.74790
 Cu270 Cu 0.46722 0.23313 0.75309
 C271 C 0.44524 0.24724 0.71070
 C272 C 0.44262 0.19434 0.79086
 C273 C 0.43934 0.24670 0.78695
 C274 C 0.44686 0.19324 0.71449
 O275 O 0.76980 0.19597 0.72169
 O276 O 0.80978 0.23517 0.78154
 O277 O 0.76893 0.19424 0.77911
 O278 O 0.81075 0.23703 0.72421
 O279 O 0.79046 0.25634 0.72524
 O280 O 0.74845 0.21340 0.77902
 O281 O 0.78913 0.25409 0.78296
 O282 O 0.75000 0.21576 0.72284
 Cu283 Cu 0.79190 0.21369 0.75153
 Cu284 Cu 0.76770 0.23705 0.75268
 C285 C 0.75274 0.19893 0.71247
 C286 C 0.80618 0.25130 0.79252
 C287 C 0.75118 0.19624 0.78780
 C288 C 0.80768 0.25401 0.71538
 C289 C 0.08236 0.46564 0.08507
 C290 C 0.09105 0.48542 0.06603
 C291 C 0.07508 0.49062 0.05138
 C292 C 0.05012 0.47627 0.05559
 C293 C 0.04129 0.45618 0.07397
 C294 C 0.05727 0.45085 0.08854
 C295 C 0.09949 0.46121 0.10209
 N296 N 0.09162 0.44098 0.11834
 N297 N 0.10699 0.43766 0.13467
 C298 C 0.13087 0.45448 0.13550
 N299 N 0.13873 0.47460 0.11907
 N300 N 0.12339 0.47787 0.10269
 C301 C 0.14784 0.45159 0.15491
 C302 C 0.17096 0.47129 0.16080
 C303 C 0.18656 0.46917 0.18043
 C304 C 0.17955 0.44724 0.19442
 C305 C 0.15673 0.42731 0.18796
 C306 C 0.14096 0.42950 0.16853
 H307 H 0.11023 0.49710 0.06268
 H308 H 0.08219 0.50612 0.03710
 H309 H 0.02206 0.44491 0.07745
 H310 H 0.04998 0.43550 0.10303
 H311 H 0.17686 0.48858 0.15074
 H312 H 0.20408 0.48483 0.18484
 H313 H 0.15082 0.41018 0.19846
 H314 H 0.12332 0.41396 0.16437
 C315 C 0.53633 0.62189 0.06395
 C316 C 0.51571 0.60966 0.04584
 C317 C 0.51007 0.58795 0.03217
 C318 C 0.52491 0.57802 0.03629
 C319 C 0.54607 0.59060 0.05321
 C320 C 0.55177 0.61239 0.06694
 C321 C 0.54063 0.64342 0.08109
 N322 N 0.56041 0.65553 0.09876
 N323 N 0.56317 0.67370 0.11585
 C324 C 0.54622 0.68045 0.11605
 N325 N 0.52666 0.66856 0.09808
 N326 N 0.52394 0.65047 0.08097
 C327 C 0.54808 0.69922 0.13681
 C328 C 0.52802 0.70210 0.14149
 C329 C 0.52885 0.71824 0.16279
 C330 C 0.54983 0.73213 0.17971
 C331 C 0.57023 0.72998 0.17434
 C332 C 0.56932 0.71357 0.15321
 H333 H 0.50349 0.61648 0.04286
 H334 H 0.49370 0.57846 0.01907
 H335 H 0.55770 0.58313 0.05656
 H336 H 0.56782 0.62137 0.08065
 H337 H 0.51137 0.69137 0.12929
 H338 H 0.51288 0.71961 0.16628
 H339 H 0.58665 0.74044 0.18707
 H340 H 0.58512 0.71186 0.15004
 C341 C 0.38571 0.93163 0.09021
 C342 C 0.40916 0.94390 0.10222
 C343 C 0.42903 0.95741 0.08425
 C344 C 0.42593 0.95876 0.05383
 C345 C 0.40250 0.94754 0.04188
 C346 C 0.38249 0.93412 0.05998
 C347 C 0.36522 0.91498 0.10891
 N348 N 0.34193 0.90680 0.10065
 N349 N 0.32372 0.89077 0.11705
 C350 C 0.32812 0.88213 0.14215
 N351 N 0.35137 0.89045 0.15041
 N352 N 0.36950 0.90656 0.13420
 C353 C 0.30829 0.86333 0.15974
 C354 C 0.31268 0.84787 0.17694
 C355 C 0.29442 0.83014 0.19397
 C356 C 0.27139 0.82766 0.19467
 C357 C 0.26688 0.84310 0.17752
 C358 C 0.28513 0.86064 0.15989
 H359 H 0.41225 0.94261 0.12546
 H360 H 0.44698 0.96618 0.09388
 H361 H 0.39981 0.94848 0.01844
 H362 H 0.36464 0.92488 0.05011
 H363 H 0.33027 0.84936 0.17712
 H364 H 0.29852 0.81862 0.20706
 H365 H 0.24926 0.84155 0.17766
 H366 H 0.28130 0.87237 0.14685
 C367 C 0.92449 0.54700 0.57663
 C368 C 0.91831 0.53722 0.54794
 C369 C 0.93303 0.53059 0.53279
 C370 C 0.95401 0.53337 0.54618
 C371 C 0.96059 0.54365 0.57448
 C372 C 0.94605 0.55062 0.58951
 C373 C 0.90771 0.55182 0.59372
 N374 N 0.91522 0.56576 0.61851
 N375 N 0.89964 0.56864 0.63495
 C376 C 0.87589 0.55755 0.62737
 N377 N 0.86846 0.54384 0.60242
 N378 N 0.88406 0.54110 0.58590
 C379 C 0.85816 0.55891 0.64688
 C380 C 0.83381 0.54064 0.64576
 C381 C 0.81725 0.54062 0.66566
 C382 C 0.82455 0.55912 0.68674
 C383 C 0.84869 0.57790 0.68725
 C384 C 0.86543 0.57766 0.66768
 H385 H 0.90187 0.53431 0.53738
 H386 H 0.92771 0.52259 0.51097
 H387 H 0.97669 0.54576 0.58514
 H388 H 0.95124 0.55798 0.61162
 H389 H 0.82765 0.52590 0.63009
 H390 H 0.79870 0.52600 0.66468
 H391 H 0.85476 0.59234 0.70337
 H392 H 0.88407 0.59201 0.66897
 C393 C 0.46540 0.37938 0.57937
 C394 C 0.48517 0.39056 0.56014
 C395 C 0.49048 0.41178 0.54580
 C396 C 0.47627 0.42237 0.55051
 C397 C 0.45623 0.41106 0.56916
 C398 C 0.45078 0.38970 0.58341
 C399 C 0.46078 0.35769 0.59595
 N400 N 0.44042 0.34512 0.61215
 N401 N 0.43695 0.32633 0.62810
 C402 C 0.45375 0.31938 0.62861
 N403 N 0.47398 0.33183 0.61221
 N404 N 0.47740 0.35053 0.59619
 C405 C 0.45081 0.29955 0.64784
 C406 C 0.47068 0.29665 0.65396
 C407 C 0.46863 0.27926 0.67384
 C408 C 0.44660 0.26413 0.68779
 C409 C 0.42644 0.26635 0.68089
 C410 C 0.42857 0.28402 0.66125
 H411 H 0.49672 0.38306 0.55637
 H412 H 0.50593 0.42019 0.53131
 H413 H 0.44506 0.41900 0.57303
 H414 H 0.43545 0.38158 0.59808
 H415 H 0.48807 0.30827 0.64405
 H416 H 0.48446 0.27790 0.67860
 H417 H 0.40925 0.25498 0.69139
 H418 H 0.41289 0.28571 0.65688
 C419 C 0.62125 0.07598 0.58480
 C420 C 0.59837 0.06290 0.59775
 C421 C 0.57816 0.04790 0.58061
 C422 C 0.58031 0.04589 0.55009
 C423 C 0.60326 0.05805 0.53718
 C424 C 0.62366 0.07291 0.55449
 C425 C 0.64185 0.09399 0.60271
 N426 N 0.66509 0.10172 0.59496
 N427 N 0.68338 0.11854 0.61101
 C428 C 0.67908 0.12846 0.63514
 N429 N 0.65587 0.12069 0.64277
 N430 N 0.63767 0.10378 0.62697
 C431 C 0.69895 0.14752 0.65288
 C432 C 0.69495 0.16397 0.66875
 C433 C 0.71284 0.18117 0.68714
 C434 C 0.73507 0.18211 0.69054
 C435 C 0.73936 0.16599 0.67421
 C436 C 0.72150 0.14897 0.65525
 H437 H 0.59597 0.06467 0.62110
 H438 H 0.56060 0.03851 0.59096
 H439 H 0.60521 0.05671 0.51363
 H440 H 0.64108 0.08282 0.54395
 H441 H 0.67783 0.16343 0.66714
 H442 H 0.70891 0.19326 0.69946
 H443 H 0.75634 0.16633 0.67638
 H444 H 0.72500 0.13645 0.64327
 C445 C 0.46291 0.08581 0.92751
 C446 C 0.48629 0.09434 0.93880
 C447 C 0.49248 0.07872 0.95213
 C448 C 0.47544 0.05407 0.95474
 C449 C 0.45169 0.04572 0.94464
 C450 C 0.44556 0.06138 0.93096
 C451 C 0.45730 0.10225 0.91104
 N452 N 0.43643 0.09377 0.89535
 N453 N 0.43244 0.10850 0.87880
 C454 C 0.44915 0.13231 0.87731
 N455 N 0.46978 0.14076 0.89340
 N456 N 0.47377 0.12608 0.90986
 C457 C 0.44600 0.14857 0.85710
 C458 C 0.46482 0.17245 0.85390
 C459 C 0.46326 0.18735 0.83295
 C460 C 0.44276 0.17889 0.81477
 C461 C 0.42341 0.15538 0.81873
 C462 C 0.42505 0.14030 0.83964
 H463 H 0.50010 0.11307 0.93678
 H464 H 0.51072 0.08596 0.96046
 H465 H 0.43813 0.02685 0.94613
 H466 H 0.42736 0.05424 0.92262
 H467 H 0.48116 0.17955 0.86702
 H468 H 0.47838 0.20546 0.83067
 H469 H 0.40738 0.14841 0.80500
 H470 H 0.41019 0.12203 0.84162
 C471 C 0.61069 0.53842 0.90139
 C472 C 0.58757 0.52710 0.88842
 C473 C 0.56733 0.52175 0.90526
 C474 C 0.56971 0.52728 0.93551
 C475 C 0.59284 0.53951 0.94833
 C476 C 0.61321 0.54517 0.93135
 C477 C 0.63163 0.54167 0.88403
 N478 N 0.65466 0.55751 0.89267
 N479 N 0.67333 0.55959 0.87733
 C480 C 0.66969 0.54571 0.85295
 N481 N 0.64669 0.52995 0.84436
 N482 N 0.62807 0.52801 0.85952
 C483 C 0.69017 0.54737 0.83604
 C484 C 0.68671 0.52798 0.81814
 C485 C 0.70556 0.52951 0.80124
 C486 C 0.72826 0.55062 0.80145
 C487 C 0.73190 0.56998 0.81962
 C488 C 0.71307 0.56828 0.83700
 H489 H 0.58505 0.52193 0.86532
 H490 H 0.54964 0.51250 0.89493
 H491 H 0.59501 0.54390 0.97166
 H492 H 0.63079 0.55390 0.94195
 H493 H 0.66934 0.51155 0.81712
 H494 H 0.70214 0.51431 0.78739
 H495 H 0.74922 0.58647 0.82023
 H496 H 0.71624 0.58352 0.85058
 C497 C 0.91833 0.37618 0.93492
 C498 C 0.91042 0.38179 0.96108
 C499 C 0.92536 0.40323 0.97636
 C500 C 0.94836 0.41969 0.96555
 C501 C 0.95666 0.41359 0.94009
 C502 C 0.94186 0.39199 0.92504
 C503 C 0.90156 0.35495 0.91688
 N504 N 0.90992 0.34650 0.89512
 N505 N 0.89468 0.32859 0.87742
 C506 C 0.87044 0.31853 0.88061
 N507 N 0.86208 0.32681 0.90256
 N508 N 0.87732 0.34460 0.92037
 C509 C 0.85351 0.30004 0.85947
 C510 C 0.83000 0.29605 0.85589
 C511 C 0.81456 0.28000 0.83436
 C512 C 0.82213 0.26727 0.81629
 C513 C 0.84534 0.27063 0.82049
 C514 C 0.86097 0.28702 0.84169
 H515 H 0.89249 0.36984 0.96944
 H516 H 0.91869 0.40732 0.99622
 H517 H 0.97423 0.42604 0.93111
 H518 H 0.94846 0.38823 0.90492
 H519 H 0.82374 0.30585 0.86915
 H520 H 0.79671 0.27768 0.83172
 H521 H 0.85166 0.26108 0.80682
 H522 H 0.87895 0.28965 0.84402
 C523 C 0.54365 0.92193 0.41359
 C524 C 0.54263 0.94095 0.40006
 C525 C 0.53745 0.95614 0.41660
 C526 C 0.53263 0.95230 0.44693
 C527 C 0.53469 0.93389 0.46071
 C528 C 0.54039 0.91898 0.44422
 C529 C 0.54594 0.90412 0.39532
 N530 N 0.55601 0.89155 0.40625
 N531 N 0.55687 0.87469 0.38988
 C532 C 0.54734 0.86953 0.36218
 N533 N 0.53731 0.88212 0.35133
 N534 N 0.53673 0.89913 0.36750
 C535 C 0.54721 0.85029 0.34418
 C536 C 0.52783 0.83664 0.32485
 C537 C 0.52786 0.81915 0.30659
 C538 C 0.54756 0.81532 0.30673
 C539 C 0.56687 0.82875 0.32633
 C540 C 0.56653 0.84588 0.34527
 H541 H 0.54531 0.94376 0.37651
 H542 H 0.53632 0.97041 0.40552
 H543 H 0.53074 0.93030 0.48397
 H544 H 0.54093 0.90435 0.45513
 H545 H 0.51264 0.83959 0.32376
 H546 H 0.51282 0.80921 0.29154
 H547 H 0.58228 0.82613 0.32682
 H548 H 0.58169 0.85624 0.35998
 C549 C 0.37499 0.45104 0.42844
 C550 C 0.37969 0.46227 0.45634
 C551 C 0.40134 0.46900 0.47115
 C552 C 0.41875 0.46491 0.45812
 C553 C 0.41383 0.45297 0.43080
 C554 C 0.39201 0.44588 0.41618
 C555 C 0.35347 0.44654 0.41122
 N556 N 0.34575 0.43126 0.38765
 N557 N 0.32760 0.42879 0.37073
 C558 C 0.31657 0.44166 0.37656
 N559 N 0.32411 0.45672 0.40033
 N560 N 0.34212 0.45905 0.41735
 C561 C 0.29796 0.44064 0.35632
 C562 C 0.29381 0.46006 0.35507
 C563 C 0.27770 0.46016 0.33440
 C564 C 0.26502 0.44063 0.31494
 C565 C 0.26850 0.42081 0.31680
 C566 C 0.28504 0.42093 0.33711
 H567 H 0.36687 0.46637 0.46641
 H568 H 0.40497 0.47829 0.49221
 H569 H 0.42719 0.44982 0.42043
 H570 H 0.38898 0.43735 0.39468
 H571 H 0.30357 0.47556 0.36947
 H572 H 0.27524 0.47560 0.33355
 H573 H 0.25897 0.40555 0.30199
 H574 H 0.28782 0.40568 0.33765
 C575 C 0.08579 0.62224 0.42365
 C576 C 0.09417 0.60788 0.43616
 C577 C 0.07847 0.58683 0.45093
 C578 C 0.05385 0.57945 0.45381
 C579 C 0.04567 0.59445 0.44251
 C580 C 0.06144 0.61555 0.42746
 C581 C 0.10228 0.64324 0.40550
 N582 N 0.09449 0.65673 0.39150
 N583 N 0.10917 0.67459 0.37374
 C584 C 0.13220 0.67961 0.36922
 N585 N 0.13998 0.66630 0.38352
 N586 N 0.12537 0.64855 0.40124
 C587 C 0.14836 0.69839 0.34822
 C588 C 0.17027 0.70002 0.34016
 C589 C 0.18536 0.71691 0.31967
 C590 C 0.17910 0.73282 0.30680
 C591 C 0.15738 0.73155 0.31509
 C592 C 0.14206 0.71438 0.33551
 H593 H 0.11284 0.61255 0.43402
 H594 H 0.08563 0.57616 0.46007
 H595 H 0.02680 0.58926 0.44395
 H596 H 0.05441 0.62625 0.41814
 H597 H 0.17573 0.68801 0.34939
 H598 H 0.20202 0.71749 0.31393
 H599 H 0.15209 0.74359 0.30553
 H600 H 0.12532 0.71361 0.34129
 C601 C 0.91962 0.53512 0.91319
 C602 C 0.92891 0.54747 0.94006
 C603 C 0.94371 0.54241 0.95782
 C604 C 0.94956 0.52490 0.94902
 C605 C 0.94121 0.51363 0.92129
 C606 C 0.92637 0.51854 0.90378
 C607 C 0.90212 0.53843 0.89541
 N608 N 0.88826 0.52169 0.87478
 N609 N 0.87209 0.52403 0.85898
 C610 C 0.86908 0.54325 0.86299
 N611 N 0.88299 0.56013 0.88355
 N612 N 0.89912 0.55770 0.89956
 C613 C 0.85113 0.54560 0.84489
 C614 C 0.85227 0.56786 0.84168
 C615 C 0.83619 0.57002 0.82272
 C616 C 0.81850 0.54990 0.80692
 C617 C 0.81688 0.52753 0.81104
 C618 C 0.83304 0.52543 0.82965
 H619 H 0.92404 0.56038 0.94789
 H620 H 0.94958 0.55133 0.97909
 H621 H 0.94604 0.50075 0.91318
 H622 H 0.91996 0.50907 0.88292
 H623 H 0.86601 0.58372 0.85314
 H624 H 0.83787 0.58751 0.82004
 H625 H 0.80349 0.51166 0.79925
 H626 H 0.83149 0.50797 0.83183
 C627 C 0.44817 0.37681 0.91293
 C628 C 0.44368 0.37644 0.94327
 C629 C 0.45089 0.39793 0.95877
 C630 C 0.46361 0.42020 0.94437
 C631 C 0.46769 0.42034 0.91384
 C632 C 0.45974 0.39888 0.89825
 C633 C 0.44237 0.35459 0.89674
 N634 N 0.43502 0.35157 0.86813
 N635 N 0.43200 0.33261 0.85257
 C636 C 0.43655 0.31614 0.86490
 N637 N 0.44373 0.31905 0.89360
 N638 N 0.44644 0.33785 0.90929
 C639 C 0.43569 0.29666 0.84668
 C640 C 0.45289 0.28957 0.85100
 C641 C 0.45391 0.27310 0.83169
 C642 C 0.43729 0.26291 0.80831
 C643 C 0.41943 0.26919 0.80474
 C644 C 0.41887 0.28624 0.82351
 H645 H 0.43476 0.35956 0.95499
 H646 H 0.44762 0.39723 0.98228
 H647 H 0.47706 0.43717 0.90203
 H648 H 0.46349 0.39960 0.87487
 H649 H 0.46617 0.29751 0.86856
 H650 H 0.46779 0.26843 0.83489
 H651 H 0.40650 0.26161 0.78675
 H652 H 0.40546 0.29145 0.81977
 C653 C 0.62043 0.07457 0.91362
 C654 C 0.60112 0.05351 0.90135
 C655 C 0.58044 0.03927 0.91789
 C656 C 0.57851 0.04617 0.94670
 C657 C 0.59803 0.06677 0.95935
 C658 C 0.61898 0.08072 0.94305
 C659 C 0.64097 0.09101 0.89502
 N660 N 0.66321 0.10569 0.90688
 N661 N 0.68123 0.12155 0.89015
 C662 C 0.67756 0.12355 0.86103
 N663 N 0.65537 0.10881 0.84919
 N664 N 0.63748 0.09277 0.86581
 C665 C 0.69677 0.14224 0.84278
 C666 C 0.69072 0.15380 0.82112
 C667 C 0.70860 0.17171 0.80383
 C668 C 0.73283 0.17798 0.80728
 C669 C 0.73896 0.16626 0.82871
 C670 C 0.72107 0.14878 0.84672
 H671 H 0.60184 0.04833 0.87876
 H672 H 0.56550 0.02340 0.90785
 H673 H 0.59674 0.07236 0.98154
 H674 H 0.63355 0.09695 0.95295
 H675 H 0.67213 0.14918 0.81780
 H676 H 0.70341 0.18035 0.78728
 H677 H 0.75755 0.17083 0.83171
 H678 H 0.72611 0.14004 0.86328
 C679 C 0.08533 0.46211 0.43079
 C680 C 0.06081 0.44466 0.43393
 C681 C 0.04486 0.45052 0.44769
 C682 C 0.05305 0.47406 0.45822
 C683 C 0.07780 0.49114 0.45595
 C684 C 0.09368 0.48523 0.44259
 C685 C 0.10208 0.45702 0.41392
 N686 N 0.12579 0.47402 0.41212
 N687 N 0.14071 0.47058 0.39521
 C688 C 0.13262 0.44997 0.37928
 N689 N 0.10897 0.43271 0.38142
 N690 N 0.09399 0.43617 0.39839
 C691 C 0.14910 0.44730 0.35872
 C692 C 0.14168 0.42577 0.34292
 C693 C 0.15699 0.42419 0.32212
 C694 C 0.17986 0.44420 0.31656
 C695 C 0.18741 0.46547 0.33284
 C696 C 0.17230 0.46697 0.35372
 H697 H 0.05381 0.42666 0.42513
 H698 H 0.02590 0.43697 0.44867
 H699 H 0.08491 0.50926 0.46447
 H700 H 0.11245 0.49912 0.44084
 H701 H 0.12395 0.41026 0.34629
 H702 H 0.15070 0.40755 0.30989
 H703 H 0.20500 0.48115 0.32927
 H704 H 0.17870 0.48384 0.36546
 C705 C 0.53623 0.61124 0.40597
 C706 C 0.52533 0.58784 0.39404
 C707 C 0.52042 0.56834 0.41190
 C708 C 0.52593 0.57177 0.44214
 C709 C 0.53759 0.59518 0.45399
 C710 C 0.54284 0.61481 0.43599
 C711 C 0.53928 0.63140 0.38738
 N712 N 0.55498 0.65466 0.39504
 N713 N 0.55692 0.67264 0.37855
 C714 C 0.54304 0.66804 0.35396
 N715 N 0.52742 0.64480 0.34635
 N716 N 0.52563 0.62688 0.36265
 C717 C 0.54439 0.68775 0.33594
 C718 C 0.52466 0.68353 0.31812
 C719 C 0.52571 0.70174 0.30059
 C720 C 0.54666 0.72453 0.30005
 C721 C 0.56643 0.72887 0.31791
 C722 C 0.56521 0.71069 0.33595
 H723 H 0.52026 0.58452 0.37095
 H724 H 0.51162 0.55042 0.40232
 H725 H 0.54199 0.59815 0.47729
 H726 H 0.55123 0.63263 0.44579
 H727 H 0.50830 0.66610 0.31778
 H728 H 0.51021 0.69780 0.28698
 H729 H 0.58279 0.74629 0.31794
 H730 H 0.58069 0.71443 0.34944
 C731 C 0.37792 0.91221 0.43220
 C732 C 0.39288 0.90414 0.44387
 C733 C 0.41494 0.92024 0.45704
 C734 C 0.42274 0.94494 0.45903
 C735 C 0.40708 0.95280 0.44899
 C736 C 0.38500 0.93664 0.43553
 C737 C 0.35601 0.89541 0.41502
 N738 N 0.34263 0.90326 0.40076
 N739 N 0.32419 0.88844 0.38335
 C740 C 0.31842 0.86517 0.37944
 N741 N 0.33156 0.85729 0.39409
 N742 N 0.34992 0.87206 0.41148
 C743 C 0.29934 0.84906 0.35820
 C744 C 0.29658 0.82654 0.35091
 C745 C 0.28013 0.81200 0.32921
 C746 C 0.26581 0.81946 0.31439
 C747 C 0.26787 0.84158 0.32230
 C748 C 0.28458 0.85630 0.34390
 H749 H 0.38793 0.88542 0.44209
 H750 H 0.42616 0.91341 0.46539
 H751 H 0.41249 0.97168 0.45004
 H752 H 0.37384 0.94343 0.42695
 H753 H 0.30758 0.82031 0.36145
 H754 H 0.27884 0.79497 0.32380
 H755 H 0.25707 0.84779 0.31124
 H756 H 0.28619 0.87350 0.34906
 C757 C 0.54135 0.92565 0.08659
 C758 C 0.54595 0.92759 0.05609
 C759 C 0.54008 0.94181 0.03859
 C760 C 0.52980 0.95445 0.05142
 C761 C 0.52637 0.95345 0.08203
 C762 C 0.53194 0.93911 0.09940
 C763 C 0.54460 0.90850 0.10484
 N764 N 0.53214 0.90032 0.13035
 N765 N 0.53379 0.88397 0.14633
 C766 C 0.54811 0.87518 0.13764
 N767 N 0.56088 0.88355 0.11230
 N768 N 0.55905 0.89981 0.09612
 C769 C 0.54884 0.85626 0.15512
 C770 C 0.56919 0.85343 0.15520
 C771 C 0.56970 0.83589 0.17289
 C772 C 0.54964 0.82058 0.19015
 C773 C 0.52918 0.82317 0.18947
 C774 C 0.52888 0.84092 0.17240
 H775 H 0.55315 0.91739 0.04561
 H776 H 0.54285 0.94238 0.01498
 H777 H 0.51864 0.96325 0.09233
 H778 H 0.52842 0.93820 0.12285
 H779 H 0.58484 0.86508 0.14210
 H780 H 0.58569 0.83424 0.17302
 H781 H 0.51350 0.81176 0.20267
 H782 H 0.51287 0.84254 0.17263
 C783 C 0.37710 0.45913 0.07726
 C784 C 0.38756 0.44458 0.08043
 C785 C 0.40870 0.45002 0.06526
 C786 C 0.41964 0.47002 0.04668
 C787 C 0.40875 0.48399 0.04261
 C788 C 0.38775 0.47865 0.05777
 C789 C 0.35603 0.45495 0.09519
 N790 N 0.34882 0.47148 0.09561
 N791 N 0.33087 0.46867 0.11289
 C792 C 0.31924 0.44916 0.13049
 N793 N 0.32620 0.43241 0.12983
 N794 N 0.34427 0.43527 0.11257
 C795 C 0.30029 0.44701 0.15099
 C796 C 0.28513 0.42535 0.16562
 C797 C 0.26808 0.42397 0.18598
 C798 C 0.26615 0.44432 0.19239
 C799 C 0.28105 0.46582 0.17742
 C800 C 0.29778 0.46711 0.15686
 H801 H 0.37982 0.42940 0.09522
 H802 H 0.41687 0.43902 0.06857
 H803 H 0.41687 0.49939 0.02816
 H804 H 0.38012 0.49013 0.05459
 H805 H 0.28655 0.40952 0.16150
 H806 H 0.25685 0.40717 0.19725
 H807 H 0.27989 0.48178 0.18176
 H808 H 0.30916 0.48409 0.14605
 C809 C 0.08218 0.62674 0.07025
 C810 C 0.05716 0.61688 0.07401
 C811 C 0.04076 0.59470 0.06106
 C812 C 0.04912 0.58208 0.04418
 C813 C 0.07393 0.59244 0.03911
 C814 C 0.09030 0.61453 0.05200
 C815 C 0.09982 0.64857 0.08688
 N816 N 0.12370 0.65583 0.08635
 N817 N 0.13944 0.67414 0.10311
 C818 C 0.13204 0.68607 0.12113
 N819 N 0.10821 0.67912 0.12132
 N820 N 0.09242 0.66072 0.10458
 C821 C 0.14938 0.70510 0.14155
 C822 C 0.14276 0.71953 0.15785
 C823 C 0.15865 0.73617 0.17871
 C824 C 0.18134 0.73848 0.18394
 C825 C 0.18817 0.72451 0.16710
 C826 C 0.17245 0.70813 0.14606
 H827 H 0.05028 0.62583 0.08783
 H828 H 0.02164 0.58692 0.06515
 H829 H 0.08065 0.58295 0.02600
 H830 H 0.10939 0.62164 0.04839
 H831 H 0.12517 0.71771 0.15483
 H832 H 0.15288 0.74668 0.19138
 H833 H 0.20558 0.72598 0.17048
 H834 H 0.17818 0.69735 0.13392
 C835 C 0.46337 0.07460 0.58867
 C836 C 0.45589 0.07004 0.55895
 C837 C 0.46141 0.05551 0.54131
 C838 C 0.47427 0.04519 0.55325
 C839 C 0.48055 0.04868 0.58329
 C840 C 0.47533 0.06337 0.60075
 C841 C 0.46007 0.09195 0.60677
 N842 N 0.47419 0.10234 0.63095
 N843 N 0.47201 0.11853 0.64696
 C844 C 0.45553 0.12496 0.63959
 N845 N 0.44125 0.11447 0.61551
 N846 N 0.44356 0.09837 0.59931
 C847 C 0.45342 0.14307 0.65760
 C848 C 0.43208 0.14416 0.65749
 C849 C 0.42993 0.16061 0.67577
 C850 C 0.44925 0.17655 0.69406
 C851 C 0.47078 0.17586 0.69352
 C852 C 0.47277 0.15919 0.67568
 H853 H 0.44662 0.07843 0.54905
 H854 H 0.45638 0.05294 0.51818
 H855 H 0.49024 0.04063 0.59297
 H856 H 0.48104 0.06625 0.62365
 H857 H 0.41686 0.13193 0.64382
 H858 H 0.41314 0.16078 0.67569
 H859 H 0.48595 0.18784 0.70742
 H860 H 0.48951 0.15893 0.67609
 C861 C 0.62699 0.54534 0.56728
 C862 C 0.61530 0.55855 0.57250
 C863 C 0.59301 0.55164 0.55913
 C864 C 0.58211 0.53143 0.54043
 C865 C 0.59418 0.51888 0.53412
 C866 C 0.61642 0.52578 0.54736
 C867 C 0.64904 0.55060 0.58404
 N868 N 0.65864 0.53614 0.58092
 N869 N 0.67705 0.53930 0.59776
 C870 C 0.68672 0.55709 0.61846
 N871 N 0.67747 0.57190 0.62124
 N872 N 0.65899 0.56871 0.60440
 C873 C 0.70557 0.55886 0.63904
 C874 C 0.71789 0.57863 0.65839
 C875 C 0.73414 0.57901 0.67943
 C876 C 0.73801 0.55945 0.68174
 C877 C 0.72622 0.54008 0.66185
 C878 C 0.71034 0.53986 0.64065
 H879 H 0.62295 0.57374 0.58763
 H880 H 0.58386 0.56149 0.56417
 H881 H 0.58598 0.50328 0.51964
 H882 H 0.62493 0.51527 0.54267
 H883 H 0.71468 0.59360 0.65763
 H884 H 0.74300 0.59416 0.69452
 H885 H 0.72901 0.52485 0.66294
 H886 H 0.70121 0.52435 0.62613
 C887 C 0.92175 0.38320 0.58147
 C888 C 0.94405 0.40093 0.59329
 C889 C 0.95890 0.42178 0.57741
 C890 C 0.95195 0.42497 0.54923
 C891 C 0.93013 0.40696 0.53693
 C892 C 0.91505 0.38632 0.55300
 C893 C 0.90502 0.36223 0.59933
 N894 N 0.88092 0.35050 0.59370
 N895 N 0.86561 0.33251 0.61077
 C896 C 0.87379 0.32539 0.63404
 N897 N 0.89793 0.33690 0.63944
 N898 N 0.91322 0.35503 0.62251
 C899 C 0.85666 0.30626 0.65386
 C900 C 0.86413 0.29323 0.67138
 C901 C 0.84803 0.27576 0.69087
 C902 C 0.82436 0.27141 0.69366
 C903 C 0.81687 0.28434 0.67603
 C904 C 0.83277 0.30140 0.65612
 H905 H 0.94962 0.39910 0.61522
 H906 H 0.97561 0.43564 0.58728
 H907 H 0.92449 0.40926 0.51524
 H908 H 0.89804 0.37293 0.54329
 H909 H 0.88241 0.29655 0.67001
 H910 H 0.85428 0.26609 0.70428
 H911 H 0.79868 0.28125 0.67764
 H912 H 0.82653 0.31122 0.64302
   
