data_POSCAR
  _audit_creation_date              2014-09-24
  _audit_creation_method            'ToBaCCo'
  _symmetry_space_group_name_H-M    'P1'
  _symmetry_Int_Tables_number       1
  _symmetry_cell_setting            triclinic
  loop_
  _symmetry_equiv_pos_as_xyz
 x,y,z
_cell_length_a 69.5460
_cell_length_b 69.5555
_cell_length_c 19.7656
_cell_angle_alpha 90.038300
_cell_angle_beta 90.029100
_cell_angle_gamma 119.990800
loop_
  _atom_site_label
  _atom_site_type_symbol
  _atom_site_fract_x
  _atom_site_fract_y
  _atom_site_fract_z
C1 C 0.23150 0.49825 0.46576
 C2 C 0.23321 0.50132 0.53757
 C3 C 0.25205 0.50330 0.57095
 C4 C 0.26833 0.50060 0.53696
 C5 C 0.26640 0.49736 0.46579
 C6 C 0.24802 0.49589 0.43187
 H7 H 0.24770 0.49472 0.37714
 H8 H 0.25277 0.50442 0.62568
 C9 C 0.50302 -0.26661 0.46286
 C10 C 0.50252 -0.26670 0.53485
 C11 C 0.50230 -0.24921 0.56953
 C12 C 0.50280 -0.23122 0.53529
 C13 C 0.50239 -0.23158 0.46329
 C14 C 0.50238 -0.24920 0.42860
 H15 H 0.50251 -0.24888 0.37376
 H16 H 0.50239 -0.24942 0.62437
 C17 C 1.26784 0.76837 0.46030
 C18 C 1.26681 0.76912 0.53228
 C19 C 1.24865 0.75205 0.56670
 C20 C 1.23166 0.73394 0.53206
 C21 C 1.23288 0.73283 0.46102
 C22 C 1.25100 0.74969 0.42623
 H23 H 1.25103 0.74888 0.37145
 H24 H 1.24813 0.75244 0.62150
 C25 C 0.76604 0.49595 0.46557
 C26 C 0.76743 0.49837 0.53717
 C27 C 0.75075 0.50049 0.57113
 C28 C 0.73220 0.49895 0.53697
 C29 C 0.73109 0.49640 0.46537
 C30 C 0.74787 0.49476 0.43123
 H31 H 0.74740 0.49379 0.37642
 H32 H 0.75112 0.50122 0.62590
 C33 C 0.50096 0.26772 0.46499
 C34 C 0.49825 0.26660 0.53650
 C35 C 0.49654 0.24801 0.57068
 C36 C 0.49853 0.23122 0.53690
 C37 C 0.50117 0.23264 0.46537
 C38 C 0.50260 0.25092 0.43099
 H39 H 0.50369 0.25142 0.37621
 H40 H 0.49574 0.24768 0.62544
 C41 C 0.73479 0.23130 0.46513
 C42 C 0.73426 0.23194 0.53660
 C43 C 0.75179 0.24964 0.57130
 C44 C 0.77015 0.26671 0.53692
 C45 C 0.77016 0.26630 0.46481
 C46 C 0.75258 0.24858 0.43035
 H47 H 0.75264 0.24831 0.37549
 H48 H 0.75141 0.24953 0.62612
 O49 O 0.97023 0.45190 0.12589
 O50 O 0.94563 0.45613 0.05927
 C51 C 0.95019 0.44645 0.10751
 O52 O 1.03124 0.55091 0.12012
 O53 O 1.05601 0.54568 0.05738
 C54 C 1.05128 0.55628 0.10228
 O55 O 0.96929 0.51757 0.12457
 O56 O 0.94514 0.48807 0.05912
 C57 C 0.94938 0.50249 0.10671
 O58 O 1.03238 0.48178 0.12002
 O59 O 1.05657 0.51230 0.05835
 C60 C 1.05230 0.49694 0.10269
 Zr61 Zr 1.00122 0.47660 0.08641
 O62 O 1.00303 0.47707 0.19337
 O63 O 1.00068 0.44600 0.08035
 Zr64 Zr 1.00045 0.52484 0.08452
 O65 O 1.00045 0.52789 0.19101
 O66 O 0.99941 0.55447 0.07201
 O67 O 0.98110 0.49065 0.09868
 O68 O 1.02012 0.51059 0.09819
 O69 O 1.03281 0.48124 -0.11450
 O70 O 1.05695 0.51240 -0.05477
 C71 C 1.05273 0.49661 -0.09758
 O72 O 0.96932 0.51741 -0.12486
 O73 O 0.94518 0.48790 -0.05969
 C74 C 0.94941 0.50230 -0.10725
 O75 O 1.03138 0.55093 -0.11831
 O76 O 1.05611 0.54537 -0.05663
 C77 C 1.05145 0.55620 -0.10092
 O78 O 0.97055 0.45112 -0.12272
 O79 O 0.94573 0.45588 -0.05887
 C80 C 0.95046 0.44582 -0.10566
 Zr81 Zr 1.00139 0.47619 -0.08387
 O82 O 1.00403 0.47715 -0.19067
 O83 O 0.99980 0.44501 -0.08203
 Zr84 Zr 1.00051 0.52429 -0.08561
 O85 O 1.00299 0.52527 -0.19245
 O86 O 0.99785 0.55331 -0.08547
 Zr87 Zr 0.96767 0.48343 0.00010
 Zr88 Zr 1.03406 0.51745 0.00072
 O89 O 1.02027 0.51010 -0.09711
 O90 O 0.98113 0.49004 -0.09834
 O91 O 1.02124 0.48288 0.00169
 O92 O 0.98092 0.51804 -0.00066
 O93 O 0.98192 0.46295 0.00125
 O94 O 1.02036 0.53848 -0.00040
 H95 H 1.03008 0.51565 0.13808
 H96 H 0.97061 0.52400 -0.00091
 H97 H 1.03031 0.51509 -0.13679
 H98 H 0.97207 0.44662 0.00155
 H99 H 0.99869 0.55960 0.11822
 H100 H 1.00931 0.56404 -0.05414
 H101 H 0.99082 0.51104 -0.21000
 H102 H 0.99164 0.47871 -0.20895
 H103 H 1.01050 0.44590 -0.04739
 H104 H 1.00064 0.44127 0.12765
 H105 H 0.99177 0.48060 0.21042
 H106 H 1.00575 0.51826 0.21021
 O107 O 0.45197 0.48254 0.12539
 O108 O 0.45690 0.51186 0.05992
 C109 C 0.44690 0.49746 0.10762
 O110 O 0.55136 0.51932 0.11643
 O111 O 0.54469 0.48852 0.05576
 C112 C 0.55606 0.50411 0.09921
 O113 O 0.51889 0.54892 0.12340
 O114 O 0.48937 0.54409 0.05910
 C115 C 0.50407 0.55415 0.10611
 O116 O 0.48086 0.44917 0.11713
 O117 O 0.51141 0.45522 0.05593
 C118 C 0.49587 0.44416 0.09980
 Zr119 Zr 0.47619 0.47566 0.08535
 O120 O 0.47653 0.47361 0.19214
 O121 O 0.44521 0.44603 0.07884
 Zr122 Zr 0.52496 0.52409 0.08434
 O123 O 0.52658 0.52307 0.19115
 O124 O 0.55418 0.55561 0.08256
 O125 O 0.49083 0.50992 0.09852
 O126 O 0.51013 0.49016 0.09722
 O127 O 0.47979 0.44866 -0.11703
 O128 O 0.51068 0.45496 -0.05740
 C129 C 0.49489 0.44372 -0.10045
 O130 O 0.51784 0.54825 -0.12586
 O131 O 0.48896 0.54380 -0.05907
 C132 C 0.50315 0.55356 -0.10739
 O133 O 0.55052 0.51856 -0.11957
 O134 O 0.54414 0.48790 -0.05854
 C135 C 0.55528 0.50335 -0.10252
 O136 O 0.45098 0.48194 -0.12277
 O137 O 0.45652 0.51166 -0.05821
 C138 C 0.44615 0.49702 -0.10512
 Zr139 Zr 0.47569 0.47547 -0.08487
 O140 O 0.47667 0.47410 -0.19177
 O141 O 0.44417 0.44628 -0.08320
 Zr142 Zr 0.52449 0.52381 -0.08631
 O143 O 0.52587 0.52277 -0.19313
 O144 O 0.55369 0.55535 -0.08505
 Zr145 Zr 0.48394 0.51659 0.00015
 Zr146 Zr 0.51673 0.48305 -0.00064
 O147 O 0.50956 0.48984 -0.09826
 O148 O 0.49025 0.50964 -0.09866
 O149 O 0.48206 0.46183 0.00014
 O150 O 0.51867 0.53725 -0.00086
 O151 O 0.46283 0.48193 0.00069
 O152 O 0.53836 0.51769 -0.00130
 H153 H 0.51514 0.48516 0.13700
 H154 H 0.52500 0.55357 -0.00112
 H155 H 0.51430 0.48466 -0.13825
 H156 H 0.44654 0.47577 0.00114
 H157 H 0.56533 0.55420 0.05522
 H158 H 0.56528 0.55377 -0.06091
 H159 H 0.51138 0.51995 -0.21076
 H160 H 0.47804 0.48801 -0.20963
 H161 H 0.44482 0.43630 -0.04876
 H162 H 0.44053 0.44119 0.12606
 H163 H 0.48042 0.48838 0.21020
 H164 H 0.51259 0.52142 0.20936
 O165 O 0.51779 -0.03140 0.12397
 O166 O 0.48885 -0.05560 0.05687
 C167 C 0.50299 -0.05132 0.10533
 O168 O 0.48090 0.03097 0.11626
 O169 O 0.51176 0.05543 0.05658
 C170 C 0.49606 0.05096 0.09978
 O171 O 0.45150 -0.03115 0.12112
 O172 O 0.45660 -0.05553 0.05611
 C173 C 0.44642 -0.05112 0.10325
 O174 O 0.55117 0.03067 0.11788
 O175 O 0.54520 0.05530 0.05728
 C176 C 0.55621 0.05072 0.10116
 Zr177 Zr 0.52478 -0.00022 0.08429
 O178 O 0.52680 0.00184 0.19113
 O179 O 0.55443 -0.00151 0.07714
 Zr180 Zr 0.47628 -0.00004 0.08325
 O181 O 0.47719 0.00228 0.19015
 O182 O 0.44469 -0.00247 0.08139
 O183 O 0.49053 -0.01995 0.09670
 O184 O 0.51019 0.01913 0.09672
 O185 O 0.55173 0.03143 -0.11736
 O186 O 0.54545 0.05582 -0.05615
 C187 C 0.55658 0.05141 -0.10003
 O188 O 0.45232 -0.03073 -0.12753
 O189 O 0.45689 -0.05529 -0.06177
 C190 C 0.44705 -0.05075 -0.10965
 O191 O 0.48162 0.03141 -0.11963
 O192 O 0.51203 0.05565 -0.05756
 C193 C 0.49662 0.05134 -0.10179
 O194 O 0.51898 -0.03081 -0.12509
 O195 O 0.48923 -0.05538 -0.06141
 C196 C 0.50399 -0.05083 -0.10812
 Zr197 Zr 0.52529 0.00017 -0.08590
 O198 O 0.52708 0.00278 -0.19269
 O199 O 0.55463 -0.00190 -0.08346
 Zr200 Zr 0.47679 0.00025 -0.08738
 O201 O 0.47823 0.00300 -0.19416
 O202 O 0.44517 -0.00225 -0.08704
 Zr203 Zr 0.48409 -0.03318 -0.00215
 Zr204 Zr 0.51740 0.03319 -0.00066
 O205 O 0.51075 0.01952 -0.09870
 O206 O 0.49114 -0.01960 -0.10046
 O207 O 0.53873 0.01986 -0.00019
 O208 O 0.46330 -0.01925 -0.00256
 O209 O 0.51876 -0.01950 -0.00107
 O210 O 0.48272 0.01999 -0.00175
 H211 H 0.51510 0.02899 0.13688
 H212 H 0.44699 -0.02925 -0.00311
 H213 H 0.51586 0.02956 -0.13837
 H214 H 0.52495 -0.02961 -0.00085
 H215 H 0.44611 0.01024 0.05496
 H216 H 0.44646 0.01046 -0.06081
 H217 H 0.48037 -0.00907 -0.21209
 H218 H 0.51293 -0.00929 -0.21104
 H219 H 0.56481 0.00926 -0.05042
 H220 H 0.55919 -0.00169 0.12427
 H221 H 0.51191 -0.00876 0.20889
 H222 H 0.47862 -0.01023 0.20801
 C223 C 1.18136 0.50092 0.34941
 C224 C 1.19128 0.51535 0.40435
 C225 C 1.20807 0.51485 0.44170
 C226 C 1.21510 0.49952 0.42610
 C227 C 1.20562 0.48566 0.36918
 C228 C 1.18893 0.48631 0.33157
 C229 C 1.16279 0.50071 0.31189
 C230 C 1.16187 0.49945 0.24089
 C231 C 1.14409 0.49883 0.20588
 C232 C 1.12677 0.49923 0.24124
 C233 C 1.12773 0.50054 0.31221
 C234 C 1.14558 0.50135 0.34714
 C235 C 1.10768 0.49821 0.20445
 C236 C 1.08592 0.48450 0.22792
 C237 C 1.06793 0.48383 0.19426
 C238 C 1.07131 0.49699 0.13665
 C239 C 1.09309 0.51056 0.11281
 C240 C 1.11108 0.51108 0.14621
 H241 H 1.18615 0.52719 0.41813
 H242 H 1.21572 0.52671 0.48243
 H243 H 1.21028 0.47346 0.35543
 H244 H 1.18145 0.47486 0.28974
 H245 H 1.17499 0.49909 0.21245
 H246 H 1.14370 0.49769 0.15120
 H247 H 1.11472 0.50110 0.34070
 H248 H 1.14575 0.50210 0.40188
 H249 H 1.08281 0.47420 0.27221
 H250 H 1.05139 0.47319 0.21399
 H251 H 1.09628 0.52086 0.06847
 H252 H 1.12769 0.52191 0.12730
 C253 C 0.50556 0.68246 0.35095
 C254 C 0.51901 0.69177 0.40831
 C255 C 0.51855 0.70880 0.44434
 C256 C 0.50440 0.71687 0.42458
 C257 C 0.49169 0.70815 0.36520
 C258 C 0.49213 0.69106 0.32928
 C259 C 0.50533 0.66365 0.31455
 C260 C 0.50415 0.66240 0.24353
 C261 C 0.50375 0.64457 0.20956
 C262 C 0.50460 0.62764 0.24585
 C263 C 0.50576 0.62888 0.31680
 C264 C 0.50608 0.64665 0.35076
 C265 C 0.50441 0.60881 0.20991
 C266 C 0.51855 0.60094 0.23064
 C267 C 0.51844 0.58323 0.19696
 C268 C 0.50411 0.57290 0.14187
 C269 C 0.48990 0.58075 0.12124
 C270 C 0.49010 0.59855 0.15479
 H271 H 0.53009 0.68601 0.42507
 H272 H 0.52966 0.71594 0.48704
 H273 H 0.48044 0.71368 0.34825
 H274 H 0.48141 0.68412 0.28561
 H275 H 0.50386 0.67538 0.21413
 H276 H 0.50316 0.64421 0.15480
 H277 H 0.50608 0.61590 0.34615
 H278 H 0.50655 0.64689 0.40553
 H279 H 0.52994 0.60869 0.27245
 H280 H 0.52961 0.57764 0.21422
 H281 H 0.47863 0.57318 0.07904
 H282 H 0.47885 0.60411 0.13816
 C283 C 0.31917 -0.17880 0.34782
 C284 C 0.31113 -0.20096 0.32850
 C285 C 0.29396 -0.21833 0.36463
 C286 C 0.28459 -0.21400 0.42183
 C287 C 0.29212 -0.19167 0.43904
 C288 C 0.30924 -0.17436 0.40289
 C289 C 0.33798 -0.16032 0.31130
 C290 C 0.35451 -0.14208 0.34727
 C291 C 0.37213 -0.12455 0.31323
 C292 C 0.37367 -0.12485 0.24241
 C293 C 0.35727 -0.14317 0.20640
 C294 C 0.33960 -0.16071 0.24047
 C295 C 0.39224 -0.10601 0.20638
 C296 C 0.40303 -0.10981 0.15228
 C297 C 0.42063 -0.09202 0.11882
 C298 C 0.42776 -0.07002 0.13857
 C299 C 0.41688 -0.06626 0.19253
 C300 C 0.39935 -0.08405 0.22607
 H301 H 0.31854 -0.20493 0.28654
 H302 H 0.28882 -0.23520 0.34960
 H303 H 0.28447 -0.18746 0.47971
 H304 H 0.31455 -0.15743 0.41766
 H305 H 0.35398 -0.14149 0.40196
 H306 H 0.38472 -0.11085 0.34244
 H307 H 0.35788 -0.14373 0.15173
 H308 H 0.32699 -0.17439 0.21127
 H309 H 0.39807 -0.12657 0.13646
 H310 H 0.42864 -0.09553 0.07752
 H311 H 0.42190 -0.04955 0.20904
 H312 H 0.39117 -0.08060 0.26700
 C313 C 0.81978 0.49890 0.34923
 C314 C 0.79794 0.48128 0.34025
 C315 C 0.78044 0.48053 0.37714
 C316 C 0.78446 0.49730 0.42400
 C317 C 0.80614 0.51523 0.43164
 C318 C 0.82364 0.51597 0.39493
 C319 C 0.83853 0.49929 0.31205
 C320 C 0.85593 0.51932 0.28651
 C321 C 0.87383 0.51976 0.25303
 C322 C 0.87472 0.50018 0.24418
 C323 C 0.85726 0.48012 0.26922
 C324 C 0.83938 0.47968 0.30286
 C325 C 0.89386 0.50069 0.20924
 C326 C 0.89052 0.48402 0.16273
 C327 C 0.90853 0.48457 0.12958
 C328 C 0.93031 0.50179 0.14241
 C329 C 0.93364 0.51839 0.18929
 C330 C 0.91561 0.51787 0.22221
 H331 H 0.79438 0.46808 0.30460
 H332 H 0.76381 0.46663 0.37018
 H333 H 0.80955 0.52849 0.46694
 H334 H 0.84028 0.52966 0.40347
 H335 H 0.85559 0.53465 0.29181
 H336 H 0.88688 0.53541 0.23332
 H337 H 0.85764 0.46481 0.26399
 H338 H 0.82644 0.46405 0.32294
 H339 H 0.87392 0.47069 0.15122
 H340 H 0.90535 0.47150 0.09384
 H341 H 0.95019 0.53188 0.20044
 H342 H 0.91872 0.53079 0.25846
 C343 C 0.49721 0.31767 0.34651
 C344 C 0.51512 0.31386 0.33853
 C345 C 0.51617 0.29743 0.37633
 C346 C 0.49939 0.28459 0.42297
 C347 C 0.48117 0.28792 0.42956
 C348 C 0.48015 0.30438 0.39201
 C349 C 0.49651 0.33572 0.30858
 C350 C 0.48985 0.34942 0.34099
 C351 C 0.48944 0.36661 0.30579
 C352 C 0.49562 0.37048 0.23728
 C353 C 0.50225 0.35674 0.20481
 C354 C 0.50272 0.33957 0.24011
 C355 C 0.49533 0.38892 0.20023
 C356 C 0.51235 0.40210 0.15451
 C357 C 0.51239 0.41985 0.12126
 C358 C 0.49543 0.42486 0.13309
 C359 C 0.47825 0.41147 0.17814
 C360 C 0.47820 0.39371 0.21123
 H361 H 0.52859 0.32395 0.30428
 H362 H 0.53035 0.29508 0.37042
 H363 H 0.46783 0.27789 0.46433
 H364 H 0.46595 0.30667 0.39834
 H365 H 0.48536 0.34711 0.39402
 H366 H 0.48465 0.37715 0.33263
 H367 H 0.50681 0.35910 0.15184
 H368 H 0.50766 0.32910 0.21359
 H369 H 0.52593 0.39901 0.14553
 H370 H 0.52592 0.42984 0.08702
 H371 H 0.46484 0.41474 0.18811
 H372 H 0.46465 0.38364 0.24525
 C373 C 0.68304 0.17772 0.35068
 C374 C 0.68866 0.19983 0.33833
 C375 C 0.70559 0.21720 0.37517
 C376 C 0.71716 0.21280 0.42530
 C377 C 0.71184 0.19079 0.43709
 C378 C 0.69489 0.17340 0.40030
 C379 C 0.66479 0.15924 0.31220
 C380 C 0.66685 0.14118 0.28973
 C381 C 0.64959 0.12373 0.25396
 C382 C 0.62989 0.12395 0.23985
 C383 C 0.62787 0.14206 0.26211
 C384 C 0.64512 0.15949 0.29788
 C385 C 0.61138 0.10523 0.20293
 C386 C 0.59913 0.10921 0.15394
 C387 C 0.58138 0.09156 0.12039
 C388 C 0.57545 0.06949 0.13515
 C389 C 0.58786 0.06554 0.18370
 C390 C 0.60562 0.08320 0.21715
 H391 H 0.68007 0.20373 0.29978
 H392 H 0.70951 0.23408 0.36515
 H393 H 0.72074 0.18707 0.47508
 H394 H 0.69082 0.15654 0.41144
 H395 H 0.68193 0.14066 0.29903
 H396 H 0.65178 0.11017 0.23662
 H397 H 0.61276 0.14254 0.25302
 H398 H 0.64288 0.17299 0.31545
 H399 H 0.60336 0.12602 0.14121
 H400 H 0.57225 0.09523 0.08314
 H401 H 0.58375 0.04878 0.19647
 H402 H 0.61456 0.07958 0.25522
 C403 C 0.49860 0.17965 -0.34736
 C404 C 0.51313 0.18912 -0.40229
 C405 C 0.51327 0.20616 -0.43996
 C406 C 0.49868 0.21410 -0.42437
 C407 C 0.48455 0.20491 -0.36795
 C408 C 0.48442 0.18783 -0.33036
 C409 C 0.49815 0.16121 -0.30827
 C410 C 0.47786 0.14302 -0.28757
 C411 C 0.47739 0.12540 -0.25220
 C412 C 0.49720 0.12558 -0.23661
 C413 C 0.51750 0.14387 -0.25670
 C414 C 0.51797 0.16148 -0.29217
 C415 C 0.49668 0.10659 -0.20062
 C416 C 0.51243 0.11020 -0.15032
 C417 C 0.51228 0.09230 -0.11774
 C418 C 0.49637 0.07035 -0.13481
 C419 C 0.48048 0.06676 -0.18464
 C420 C 0.48064 0.08467 -0.21715
 H421 H 0.52430 0.18320 -0.41663
 H422 H 0.52532 0.21350 -0.48025
 H423 H 0.47292 0.21030 -0.35414
 H424 H 0.47323 0.18107 -0.28771
 H425 H 0.46230 0.14223 -0.29977
 H426 H 0.46150 0.11165 -0.23679
 H427 H 0.53303 0.14440 -0.24605
 H428 H 0.53388 0.17536 -0.30676
 H429 H 0.52482 0.12691 -0.13584
 H430 H 0.52471 0.09569 -0.07940
 H431 H 0.46801 0.05009 -0.19918
 H432 H 0.46846 0.08134 -0.25629
 C433 C 0.68076 0.49971 -0.34843
 C434 C 0.67561 0.48516 -0.40343
 C435 C 0.69245 0.48473 -0.44069
 C436 C 0.71500 0.49906 -0.42462
 C437 C 0.72001 0.51318 -0.36807
 C438 C 0.70314 0.51360 -0.33090
 C439 C 0.66283 0.50043 -0.30976
 C440 C 0.66519 0.52083 -0.28897
 C441 C 0.64811 0.52155 -0.25389
 C442 C 0.62831 0.50188 -0.23867
 C443 C 0.62604 0.48148 -0.25898
 C444 C 0.64309 0.48076 -0.29414
 C445 C 0.60998 0.50263 -0.20253
 C446 C 0.59773 0.48688 -0.15247
 C447 C 0.58013 0.48724 -0.11962
 C448 C 0.57434 0.50337 -0.13612
 C449 C 0.58675 0.51927 -0.18573
 C450 C 0.60436 0.51890 -0.21853
 H451 H 0.65852 0.47419 -0.41817
 H452 H 0.68766 0.47267 -0.48105
 H453 H 0.73706 0.52459 -0.35386
 H454 H 0.70762 0.52478 -0.28814
 H455 H 0.68011 0.53629 -0.30082
 H456 H 0.65045 0.53751 -0.23833
 H457 H 0.61090 0.46605 -0.24864
 H458 H 0.64087 0.46477 -0.30882
 H459 H 0.60185 0.47433 -0.13834
 H460 H 0.57102 0.47479 -0.08146
 H461 H 0.58273 0.53190 -0.19980
 H462 H 0.61331 0.53110 -0.25745
 C463 C 0.82361 0.31767 -0.35109
 C464 C 0.82776 0.30804 -0.40758
 C465 C 0.81026 0.29102 -0.44364
 C466 C 0.78803 0.28328 -0.42480
 C467 C 0.78401 0.29235 -0.36629
 C468 C 0.80155 0.30943 -0.33033
 C469 C 0.84222 0.33642 -0.31458
 C470 C 0.84208 0.33786 -0.24365
 C471 C 0.85955 0.35563 -0.20958
 C472 C 0.87757 0.37231 -0.24569
 C473 C 0.87772 0.37089 -0.31657
 C474 C 0.86023 0.35317 -0.35063
 C475 C 0.89621 0.39112 -0.20964
 C476 C 0.91826 0.39873 -0.22943
 C477 C 0.93584 0.41644 -0.19566
 C478 C 0.93179 0.42702 -0.14142
 C479 C 0.90970 0.41942 -0.12170
 C480 C 0.89212 0.40163 -0.15535
 H481 H 0.84461 0.31353 -0.42360
 H482 H 0.81424 0.28362 -0.48559
 H483 H 0.76723 0.28709 -0.35007
 H484 H 0.79777 0.31662 -0.28735
 H485 H 0.82861 0.32507 -0.21435
 H486 H 0.85914 0.35614 -0.15487
 H487 H 0.89121 0.38368 -0.34581
 H488 H 0.86064 0.35277 -0.40536
 H489 H 0.92193 0.39078 -0.27058
 H490 H 0.95263 0.42184 -0.21217
 H491 H 0.90596 0.42719 -0.08021
 H492 H 0.87529 0.39629 -0.13948
 C493 C 0.50508 -0.17807 -0.35171
 C494 C 0.49162 -0.20014 -0.33067
 C495 C 0.49122 -0.21756 -0.36705
 C496 C 0.50399 -0.21341 -0.42634
 C497 C 0.51805 -0.19114 -0.44572
 C498 C 0.51849 -0.17374 -0.40913
 C499 C 0.50493 -0.15963 -0.31439
 C500 C 0.52482 -0.13976 -0.30179
 C501 C 0.52460 -0.12225 -0.26778
 C502 C 0.50448 -0.12418 -0.24583
 C503 C 0.48460 -0.14411 -0.25818
 C504 C 0.48483 -0.16165 -0.29199
 C505 C 0.50423 -0.10542 -0.21067
 C506 C 0.48986 -0.10930 -0.15588
 C507 C 0.48968 -0.09162 -0.12283
 C508 C 0.50392 -0.06963 -0.14369
 C509 C 0.51825 -0.06576 -0.19860
 C510 C 0.51837 -0.08344 -0.23174
 H511 H 0.48134 -0.20394 -0.28599
 H512 H 0.48010 -0.23437 -0.35023
 H513 H 0.52909 -0.18705 -0.48860
 H514 H 0.52912 -0.15689 -0.42644
 H515 H 0.54059 -0.13785 -0.31759
 H516 H 0.54024 -0.10727 -0.25801
 H517 H 0.46879 -0.14601 -0.24290
 H518 H 0.46921 -0.17664 -0.30190
 H519 H 0.47896 -0.12601 -0.13784
 H520 H 0.47850 -0.09521 -0.08052
 H521 H 0.52935 -0.04905 -0.21629
 H522 H 0.52938 -0.07991 -0.27447
 C523 C 0.31941 0.49896 -0.34896
 C524 C 0.31226 0.51402 -0.33239
 C525 C 0.29530 0.51439 -0.36932
 C526 C 0.28528 0.49996 -0.42471
 C527 C 0.29218 0.48451 -0.43978
 C528 C 0.30907 0.48412 -0.40274
 C529 C 0.33767 0.49877 -0.31066
 C530 C 0.33640 0.47857 -0.29333
 C531 C 0.35387 0.47836 -0.25912
 C532 C 0.37303 0.49834 -0.24151
 C533 C 0.37420 0.51854 -0.25817
 C534 C 0.35670 0.51875 -0.29234
 C535 C 0.39180 0.49807 -0.20656
 C536 C 0.40342 0.51323 -0.15438
 C537 C 0.42107 0.51293 -0.12156
 C538 C 0.42751 0.49744 -0.14017
 C539 C 0.41592 0.48231 -0.19251
 C540 C 0.39828 0.48264 -0.22530
 H541 H 0.31974 0.52548 -0.29059
 H542 H 0.29065 0.52663 -0.35592
 H543 H 0.28415 0.47223 -0.47921
 H544 H 0.31418 0.47229 -0.41670
 H545 H 0.32179 0.46291 -0.30576
 H546 H 0.35229 0.46253 -0.24589
 H547 H 0.38886 0.53421 -0.24613
 H548 H 0.35828 0.53457 -0.30583
 H549 H 0.39866 0.52515 -0.13825
 H550 H 0.42959 0.52479 -0.08137
 H551 H 0.42048 0.47023 -0.20838
 H552 H 0.38989 0.47096 -0.26602
 C553 C 1.17844 0.68223 -0.35235
 C554 C 1.19066 0.67714 -0.39842
 C555 C 1.20798 0.69391 -0.43564
 C556 C 1.21324 0.71610 -0.42845
 C557 C 1.20118 0.72127 -0.38228
 C558 C 1.18395 0.70452 -0.34460
 C559 C 1.16004 0.66435 -0.31260
 C560 C 1.14048 0.66498 -0.29989
 C561 C 1.12306 0.64798 -0.26346
 C562 C 1.12472 0.62987 -0.23915
 C563 C 1.14435 0.62932 -0.25149
 C564 C 1.16181 0.64637 -0.28757
 C565 C 1.10593 0.61143 -0.20223
 C566 C 1.10985 0.60091 -0.14753
 C567 C 1.09219 0.58311 -0.11435
 C568 C 1.07016 0.57549 -0.13473
 C569 C 1.06623 0.58619 -0.18882
 C570 C 1.08389 0.60389 -0.22228
 H571 H 1.18673 0.66015 -0.40624
 H572 H 1.21737 0.68957 -0.46984
 H573 H 1.20507 0.73830 -0.37560
 H574 H 1.17513 0.70907 -0.30880
 H575 H 1.13846 0.67845 -0.31901
 H576 H 1.10830 0.64908 -0.25414
 H577 H 1.14610 0.61551 -0.23424
 H578 H 1.17676 0.64551 -0.29558
 H579 H 1.12659 0.60652 -0.13009
 H580 H 1.09584 0.57529 -0.07281
 H581 H 1.04949 0.58068 -0.20615
 H582 H 1.08027 0.61135 -0.26487
 C583 C 0.81929 0.49787 -0.34982
 C584 C 0.81125 0.51209 -0.33163
 C585 C 0.79396 0.51199 -0.36801
 C586 C 0.78445 0.49790 -0.42439
 C587 C 0.79210 0.48313 -0.44074
 C588 C 0.80936 0.48324 -0.40432
 C589 C 0.83814 0.49845 -0.31265
 C590 C 0.83810 0.47870 -0.29744
 C591 C 0.85609 0.47930 -0.26392
 C592 C 0.87453 0.49966 -0.24490
 C593 C 0.87451 0.51941 -0.25977
 C594 C 0.85651 0.51881 -0.29322
 C595 C 0.89374 0.50030 -0.20986
 C596 C 0.91558 0.51647 -0.22671
 C597 C 0.93365 0.51709 -0.19367
 C598 C 0.93030 0.50156 -0.14294
 C599 C 0.90844 0.48535 -0.12625
 C600 C 0.89038 0.48473 -0.15933
 H601 H 0.81835 0.52333 -0.28916
 H602 H 0.78873 0.52370 -0.35352
 H603 H 0.78446 0.47106 -0.48093
 H604 H 0.81512 0.47201 -0.41951
 H605 H 0.82409 0.46275 -0.31115
 H606 H 0.85569 0.46381 -0.25375
 H607 H 0.88836 0.53534 -0.24509
 H608 H 0.85713 0.53432 -0.30486
 H609 H 0.91871 0.52850 -0.26609
 H610 H 0.95025 0.52976 -0.20796
 H611 H 0.90521 0.47313 -0.08736
 H612 H 0.87376 0.47224 -0.14464
 C613 C 0.49736 0.31798 -0.34878
 C614 C 0.48337 0.29560 -0.33172
 C615 C 0.48382 0.27875 -0.36900
 C616 C 0.49807 0.28379 -0.42516
 C617 C 0.51245 0.30635 -0.44085
 C618 C 0.51199 0.32316 -0.40349
 C619 C 0.49668 0.33589 -0.30973
 C620 C 0.51640 0.35552 -0.29350
 C621 C 0.51576 0.37252 -0.25774
 C622 C 0.49537 0.37029 -0.23742
 C623 C 0.47566 0.35061 -0.25332
 C624 C 0.47631 0.33359 -0.28901
 C625 C 0.49472 0.38858 -0.20059
 C626 C 0.47857 0.39440 -0.21633
 C627 C 0.47842 0.41209 -0.18324
 C628 C 0.49441 0.42437 -0.13363
 C629 C 0.51036 0.41832 -0.11720
 C630 C 0.51051 0.40064 -0.15030
 H631 H 0.47211 0.29109 -0.28921
 H632 H 0.47234 0.26170 -0.35514
 H633 H 0.52458 0.31115 -0.48093
 H634 H 0.52302 0.34026 -0.41787
 H635 H 0.53237 0.35769 -0.30812
 H636 H 0.53122 0.38757 -0.24692
 H637 H 0.45971 0.34832 -0.23780
 H638 H 0.46082 0.31875 -0.30132
 H639 H 0.46634 0.38558 -0.25539
 H640 H 0.46593 0.41631 -0.19728
 H641 H 0.52287 0.42732 -0.07901
 H642 H 0.52295 0.39635 -0.13633
 C643 C 0.68094 0.18005 -0.34888
 C644 C 0.70315 0.18655 -0.33431
 C645 C 0.72040 0.20348 -0.37131
 C646 C 0.71579 0.21432 -0.42338
 C647 C 0.69363 0.20821 -0.43692
 C648 C 0.67635 0.19108 -0.40044
 C649 C 0.66266 0.16155 -0.31111
 C650 C 0.64417 0.14489 -0.34571
 C651 C 0.62724 0.12707 -0.31043
 C652 C 0.62835 0.12566 -0.23976
 C653 C 0.64670 0.14247 -0.20502
 C654 C 0.66375 0.16018 -0.24041
 C655 C 0.61047 0.10661 -0.20258
 C656 C 0.60165 0.11001 -0.14278
 C657 C 0.58432 0.09207 -0.10896
 C658 C 0.57561 0.07033 -0.13390
 C659 C 0.58477 0.06694 -0.19299
 C660 C 0.60193 0.08489 -0.22713
 H661 H 0.70714 0.17818 -0.29527
 H662 H 0.73736 0.20789 -0.36009
 H663 H 0.68971 0.21663 -0.47595
 H664 H 0.65938 0.18657 -0.41208
 H665 H 0.64300 0.14546 -0.40025
 H666 H 0.61318 0.11443 -0.33835
 H667 H 0.64802 0.14171 -0.15061
 H668 H 0.67776 0.17290 -0.21249
 H669 H 0.60786 0.12660 -0.12299
 H670 H 0.57767 0.09525 -0.06348
 H671 H 0.57842 0.05043 -0.21365
 H672 H 0.60860 0.08180 -0.27269
 C673 C 1.18090 0.49802 -0.34222
 C674 C 1.20314 0.51335 -0.32693
 C675 C 1.22033 0.51424 -0.36584
 C676 C 1.21573 0.50005 -0.42198
 C677 C 1.19338 0.48425 -0.43572
 C678 C 1.17622 0.48334 -0.39662
 C679 C 1.16260 0.49756 -0.30229
 C680 C 1.14397 0.47727 -0.28404
 C681 C 1.12643 0.47686 -0.24831
 C682 C 1.12711 0.49674 -0.23019
 C683 C 1.14587 0.51704 -0.24778
 C684 C 1.16343 0.51744 -0.28336
 C685 C 1.10808 0.49633 -0.19459
 C686 C 1.11165 0.51178 -0.14330
 C687 C 1.09371 0.51177 -0.11137
 C688 C 1.07177 0.49627 -0.12995
 C689 C 1.06823 0.48066 -0.18070
 C690 C 1.08616 0.48071 -0.21266
 H691 H 1.20726 0.52468 -0.28471
 H692 H 1.23723 0.52670 -0.35345
 H693 H 1.18909 0.47232 -0.47631
 H694 H 1.15924 0.47133 -0.40965
 H695 H 1.14302 0.46169 -0.29701
 H696 H 1.11238 0.46097 -0.23450
 H697 H 1.14676 0.53264 -0.23555
 H698 H 1.17743 0.53332 -0.29758
 H699 H 1.12833 0.52383 -0.12756
 H700 H 1.09706 0.52396 -0.07224
 H701 H 1.05158 0.46853 -0.19648
 H702 H 1.08285 0.46879 -0.25264
 C703 C 0.49917 0.67896 -0.35137
 C704 C 0.51546 0.70095 -0.33664
 C705 C 0.51625 0.71858 -0.37276
 C706 C 0.50074 0.71456 -0.42416
 C707 C 0.48394 0.69265 -0.43722
 C708 C 0.48330 0.67498 -0.40162
 C709 C 0.49910 0.66023 -0.31540
 C710 C 0.49643 0.64164 -0.35148
 C711 C 0.49707 0.62428 -0.31790
 C712 C 0.50017 0.62508 -0.24749
 C713 C 0.50260 0.64357 -0.21133
 C714 C 0.50218 0.66102 -0.24499
 C715 C 0.50093 0.60673 -0.21181
 C716 C 0.48934 0.59836 -0.15088
 C717 C 0.49004 0.58108 -0.11716
 C718 C 0.50252 0.57192 -0.14331
 C719 C 0.51419 0.58038 -0.20416
 C720 C 0.51331 0.59753 -0.23822
 H721 H 0.52798 0.70446 -0.29849
 H722 H 0.52934 0.73535 -0.36189
 H723 H 0.47159 0.68922 -0.47589
 H724 H 0.47039 0.65821 -0.41326
 H725 H 0.49424 0.64071 -0.40588
 H726 H 0.49497 0.61014 -0.34690
 H727 H 0.50517 0.64469 -0.15710
 H728 H 0.50415 0.67510 -0.21595
 H729 H 0.47950 0.60501 -0.12974
 H730 H 0.48086 0.57497 -0.07037
 H731 H 0.52390 0.57365 -0.22574
 H732 H 0.52256 0.60383 -0.28480
 C733 C 0.32067 -0.17953 -0.35299
 C734 C 0.32474 -0.19203 -0.40078
 C735 C 0.30720 -0.20914 -0.43654
 C736 C 0.28531 -0.21375 -0.42627
 C737 C 0.28116 -0.20168 -0.37719
 C738 C 0.29868 -0.18474 -0.34080
 C739 C 0.33934 -0.16081 -0.31701
 C740 C 0.33826 -0.15805 -0.24699
 C741 C 0.35583 -0.14026 -0.21331
 C742 C 0.37470 -0.12475 -0.24915
 C743 C 0.37574 -0.12748 -0.31923
 C744 C 0.35829 -0.14540 -0.35277
 C745 C 0.39325 -0.10578 -0.21355
 C746 C 0.40301 -0.08428 -0.24081
 C747 C 0.42040 -0.06636 -0.20695
 C748 C 0.42855 -0.06963 -0.14551
 C749 C 0.41883 -0.09120 -0.11852
 C750 C 0.40129 -0.10905 -0.15200
 H751 H 0.34150 -0.18857 -0.41033
 H752 H 0.31073 -0.21854 -0.47320
 H753 H 0.26440 -0.20498 -0.36838
 H754 H 0.29511 -0.17527 -0.30449
 H755 H 0.32390 -0.16977 -0.21822
 H756 H 0.35455 -0.13844 -0.15934
 H757 H 0.39017 -0.11585 -0.34795
 H758 H 0.35944 -0.14704 -0.40690
 H759 H 0.39699 -0.08129 -0.28792
 H760 H 0.42756 -0.04998 -0.22915
 H761 H 0.42467 -0.09429 -0.07119
 H762 H 0.39418 -0.12548 -0.13020
 C763 C 0.49863 -0.18087 0.34916
 C764 C 0.51504 -0.18642 0.33467
 C765 C 0.51597 -0.20316 0.37095
 C766 C 0.50048 -0.21470 0.42226
 C767 C 0.48357 -0.20974 0.43509
 C768 C 0.48279 -0.19281 0.39935
 C769 C 0.49842 -0.16230 0.31311
 C770 C 0.49566 -0.14642 0.34914
 C771 C 0.49628 -0.12844 0.31555
 C772 C 0.49944 -0.12611 0.24519
 C773 C 0.50192 -0.14215 0.20906
 C774 C 0.50153 -0.16000 0.24274
 C775 C 0.50030 -0.10695 0.20958
 C776 C 0.48879 -0.11006 0.14849
 C777 C 0.48962 -0.09201 0.11482
 C778 C 0.50217 -0.07040 0.14119
 C779 C 0.51377 -0.06729 0.20220
 C780 C 0.51275 -0.08540 0.23621
 H781 H 0.52754 -0.17737 0.29661
 H782 H 0.52915 -0.20672 0.36025
 H783 H 0.47123 -0.21870 0.47368
 H784 H 0.46979 -0.18906 0.41082
 H785 H 0.49344 -0.14770 0.40350
 H786 H 0.49414 -0.11642 0.34451
 H787 H 0.50454 -0.14066 0.15486
 H788 H 0.50356 -0.17208 0.21374
 H789 H 0.47892 -0.12652 0.12716
 H790 H 0.48051 -0.09499 0.06788
 H791 H 0.52354 -0.05089 0.22394
 H792 H 0.52195 -0.08252 0.28291
 C793 C 0.31943 0.49882 0.34901
 C794 C 0.29743 0.48144 0.34069
 C795 C 0.28017 0.48116 0.37770
 C796 C 0.28457 0.49821 0.42390
 C797 C 0.30640 0.51595 0.43070
 C798 C 0.32367 0.51618 0.39401
 C799 C 0.33795 0.49866 0.31200
 C800 C 0.35572 0.51844 0.28652
 C801 C 0.37341 0.51833 0.25333
 C802 C 0.37371 0.49843 0.24463
 C803 C 0.35585 0.47862 0.26962
 C804 C 0.33820 0.47874 0.30301
 C805 C 0.39261 0.49832 0.20985
 C806 C 0.40079 0.48466 0.23309
 C807 C 0.41843 0.48441 0.20009
 C808 C 0.42839 0.49790 0.14323
 C809 C 0.42032 0.51168 0.12026
 C810 C 0.40261 0.51185 0.15309
 H811 H 0.29355 0.46804 0.30554
 H812 H 0.26342 0.46741 0.37135
 H813 H 0.31012 0.52943 0.46539
 H814 H 0.34042 0.52970 0.40211
 H815 H 0.35592 0.53403 0.29192
 H816 H 0.38701 0.53392 0.23532
 H817 H 0.35542 0.46295 0.26299
 H818 H 0.32492 0.46325 0.32274
 H819 H 0.39371 0.47432 0.27735
 H820 H 0.42431 0.47370 0.21938
 H821 H 0.42751 0.52220 0.07638
 H822 H 0.39652 0.52232 0.13329
 C823 C 1.17956 0.68102 0.34785
 C824 C 1.17667 0.69737 0.38009
 C825 C 1.19404 0.71420 0.41720
 C826 C 1.21461 0.71509 0.42135
 C827 C 1.21765 0.69902 0.38795
 C828 C 1.20010 0.68187 0.35215
 C829 C 1.16102 0.66294 0.31046
 C830 C 1.15116 0.64108 0.33444
 C831 C 1.13312 0.62399 0.30014
 C832 C 1.12508 0.62849 0.24059
 C833 C 1.13520 0.65032 0.21604
 C834 C 1.15290 0.66750 0.25126
 C835 C 1.10604 0.61041 0.20448
 C836 C 1.10809 0.60578 0.13661
 C837 C 1.09026 0.58816 0.10322
 C838 C 1.06994 0.57527 0.13671
 C839 C 1.06778 0.58025 0.20419
 C840 C 1.08579 0.59751 0.23806
 H841 H 1.16087 0.69687 0.37733
 H842 H 1.19150 0.72655 0.44262
 H843 H 1.23346 0.69953 0.39077
 H844 H 1.20256 0.66936 0.32743
 H845 H 1.15722 0.63734 0.38020
 H846 H 1.12555 0.60722 0.31964
 H847 H 1.12915 0.65409 0.17030
 H848 H 1.16036 0.68432 0.23222
 H849 H 1.12363 0.61554 0.10999
 H850 H 1.09230 0.58467 0.05115
 H851 H 1.05234 0.57046 0.23125
 H852 H 1.08390 0.60091 0.29039
 C853 C 0.49761 0.17885 0.34759
 C854 C 0.48062 0.17506 0.39343
 C855 C 0.48160 0.19257 0.43083
 C856 C 0.49971 0.21417 0.42374
 C857 C 0.51643 0.21810 0.37684
 C858 C 0.51542 0.20060 0.33920
 C859 C 0.49692 0.16010 0.30957
 C860 C 0.50302 0.16242 0.24101
 C861 C 0.50253 0.14476 0.20559
 C862 C 0.49596 0.12442 0.23802
 C863 C 0.48988 0.12214 0.30661
 C864 C 0.49033 0.13976 0.34194
 C865 C 0.49563 0.10569 0.20083
 C866 C 0.47850 0.08377 0.21179
 C867 C 0.47851 0.06605 0.17850
 C868 C 0.49565 0.06983 0.13331
 C869 C 0.51263 0.09179 0.12156
 C870 C 0.51263 0.10950 0.15498
 H871 H 0.46650 0.15857 0.40007
 H872 H 0.46831 0.18926 0.46580
 H873 H 0.53052 0.23465 0.37053
 H874 H 0.52884 0.20399 0.30471
 H875 H 0.50790 0.17780 0.21450
 H876 H 0.50702 0.14695 0.15256
 H877 H 0.48514 0.10684 0.33340
 H878 H 0.48591 0.13760 0.39503
 H879 H 0.46498 0.08031 0.24594
 H880 H 0.46510 0.04938 0.18846
 H881 H 0.52613 0.09531 0.08722
 H882 H 0.52620 0.12616 0.14601
 C883 C 0.68136 0.50036 0.34592
 C884 C 0.69447 0.51728 0.39219
 C885 C 0.71082 0.51617 0.43026
 C886 C 0.71423 0.49801 0.42338
 C887 C 0.70153 0.48134 0.37617
 C888 C 0.68522 0.48247 0.33794
 C889 C 0.66350 0.50117 0.30696
 C890 C 0.64298 0.48176 0.29640
 C891 C 0.62602 0.48252 0.26078
 C892 C 0.62916 0.50272 0.23503
 C893 C 0.64969 0.52212 0.24534
 C894 C 0.66669 0.52135 0.28084
 C895 C 0.61094 0.50353 0.19843
 C896 C 0.60642 0.52078 0.21069
 C897 C 0.58876 0.52112 0.17800
 C898 C 0.57528 0.50425 0.13211
 C899 C 0.58005 0.48718 0.11907
 C900 C 0.59765 0.48681 0.15194
 H901 H 0.69179 0.53118 0.39997
 H902 H 0.72065 0.52937 0.46576
 H903 H 0.70401 0.46726 0.36975
 H904 H 0.67567 0.46936 0.30191
 H905 H 0.63985 0.46602 0.31690
 H906 H 0.61026 0.46736 0.25462
 H907 H 0.65269 0.53787 0.22530
 H908 H 0.68241 0.53653 0.28722
 H909 H 0.61623 0.53376 0.24677
 H910 H 0.58557 0.53451 0.18925
 H911 H 0.57006 0.47394 0.08389
 H912 H 0.60092 0.47347 0.14079
 C913 C 0.82130 0.32034 0.35060
 C914 C 0.81568 0.29832 0.33665
 C915 C 0.79878 0.28076 0.37286
 C916 C 0.78716 0.28489 0.42355
 C917 C 0.79218 0.30682 0.43566
 C918 C 0.80925 0.32440 0.40003
 C919 C 0.84000 0.33903 0.31470
 C920 C 0.85578 0.35772 0.35079
 C921 C 0.87372 0.37513 0.31730
 C922 C 0.87611 0.37430 0.24696
 C923 C 0.86023 0.35570 0.21080
 C924 C 0.84241 0.33818 0.24440
 C925 C 0.89512 0.39278 0.21137
 C926 C 0.89179 0.40111 0.15050
 C927 C 0.90966 0.41857 0.11698
 C928 C 0.93131 0.42794 0.14328
 C929 C 0.93464 0.41952 0.20406
 C930 C 0.91671 0.40220 0.23793
 H931 H 0.82479 0.29475 0.29907
 H932 H 0.79516 0.26397 0.36264
 H933 H 0.78314 0.31034 0.47366
 H934 H 0.81302 0.34120 0.41099
 H935 H 0.85442 0.35869 0.40512
 H936 H 0.88564 0.38935 0.34628
 H937 H 0.86177 0.35457 0.15662
 H938 H 0.83041 0.32402 0.21536
 H939 H 0.87529 0.39429 0.12925
 H940 H 0.90650 0.42463 0.07023
 H941 H 0.95109 0.42641 0.22574
 H942 H 0.91974 0.39595 0.28450
   
