data_POSCAR
  _audit_creation_date              2014-09-24
  _audit_creation_method            'ToBaCCo'
  _symmetry_space_group_name_H-M    'P1'
  _symmetry_Int_Tables_number       1
  _symmetry_cell_setting            triclinic
  loop_
  _symmetry_equiv_pos_as_xyz
 x,y,z
_cell_length_a 32.3978
_cell_length_b 32.7197
_cell_length_c 83.9919
_cell_angle_alpha 83.247200
_cell_angle_beta 91.049700
_cell_angle_gamma 119.205600
loop_
  _atom_site_label
  _atom_site_type_symbol
  _atom_site_fract_x
  _atom_site_fract_y
  _atom_site_fract_z
C1 C -0.02176 0.07979 0.52049
 H2 H 0.01305 0.08291 0.52071
 C3 C -0.03140 0.10854 0.52892
 H4 H -0.00390 0.13334 0.53581
 C5 C -0.09999 0.04278 0.51142
 H6 H -0.12636 0.01736 0.50444
 C7 C -0.11133 0.07074 0.51984
 H8 H -0.14656 0.06663 0.51930
 N9 N -0.05587 0.04753 0.51205
 C10 C -0.01858 -0.06325 0.51080
 H11 H -0.01219 -0.06173 0.49809
 C12 C -0.01998 -0.10011 0.52151
 H13 H -0.01435 -0.12671 0.51695
 C14 C -0.03753 -0.03264 0.53201
 H15 H -0.04582 -0.00728 0.53607
 C16 C -0.03930 -0.06875 0.54308
 H17 H -0.04784 -0.06999 0.55560
 Zn18 Zn -0.03635 0.01207 0.50113
 N19 N -0.02798 -0.03086 0.51617
 C20 C 0.05929 0.05109 0.48818
 N21 N 0.02016 0.05609 0.48924
 C22 C 0.01815 0.09326 0.48094
 C23 C 0.05565 0.12642 0.47064
 C24 C 0.09775 0.08348 0.47783
 C25 C -0.12460 -0.06007 0.49233
 C26 C -0.15525 -0.09127 0.48204
 C27 C -0.09704 -0.04680 0.46034
 C28 C -0.06800 -0.01648 0.47099
 N29 N -0.08162 -0.02400 0.48672
 H30 H 0.06018 0.02135 0.49495
 H31 H -0.01333 0.09646 0.48205
 H32 H 0.05299 0.15558 0.46413
 H33 H 0.12793 0.07813 0.47661
 H34 H -0.13426 -0.06593 0.50499
 H35 H -0.18765 -0.12087 0.48742
 H36 H -0.08456 -0.03785 0.44791
 H37 H -0.03377 0.01232 0.46666
 C38 C -0.03166 -0.10378 0.53783
 C39 C -0.07666 0.10421 0.52870
 C40 C -0.14123 -0.08638 0.46570
 C41 C 0.09569 0.12121 0.46864
 C42 C 1.15237 0.10421 0.14337
 H43 H 1.15612 0.13829 0.14479
 C44 C 1.18284 0.10113 0.13271
 H45 H 1.21043 0.13320 0.12613
 C46 C 1.11194 0.02126 0.15048
 H47 H 1.08413 -0.00970 0.15741
 C48 C 1.14166 0.01651 0.13983
 H49 H 1.13602 -0.01835 0.13852
 N50 N 1.11726 0.06462 0.15177
 C51 C 1.00026 0.09110 0.15889
 H52 H 0.99643 0.08656 0.17184
 C53 C 0.96653 0.09634 0.14957
 H54 H 0.93707 0.09646 0.15541
 C55 C 1.04222 0.09449 0.13551
 H56 H 1.07082 0.09228 0.13003
 C57 C 1.00973 0.10035 0.12576
 H58 H 1.01386 0.10265 0.11286
 Zn59 Zn 1.07692 0.07460 0.16486
 N60 N 1.03688 0.08976 0.15176
 C61 C 1.11134 0.16357 0.17672
 N62 N 1.11622 0.12461 0.17661
 C63 C 1.15050 0.11995 0.18484
 C64 C 1.18098 0.15480 0.19397
 C65 C 1.14114 0.19939 0.18574
 C66 C 1.00282 -0.01860 0.17330
 C67 C 0.96815 -0.05600 0.18365
 C68 C 1.00549 -0.01305 0.20598
 C69 C 1.03938 0.02330 0.19526
 N70 N 1.03714 0.02031 0.17923
 H71 H 1.08427 0.16683 0.16988
 H72 H 1.15369 0.08867 0.18445
 H73 H 1.20719 0.14970 0.20076
 H74 H 1.13683 0.23019 0.18572
 H75 H 1.00108 -0.01961 0.16047
 H76 H 0.93994 -0.08587 0.17871
 H77 H 1.00729 -0.00949 0.21867
 H78 H 1.06613 0.05478 0.19978
 C79 C 0.97087 0.10057 0.13277
 C80 C 1.17721 0.05679 0.13058
 C81 C 0.96861 -0.05282 0.20019
 C82 C 1.17642 0.19513 0.19457
 C83 C 0.05034 0.89757 0.85457
 H84 H 0.01924 0.86318 0.85701
 C85 C 0.09178 0.90713 0.86242
 H86 H 0.09198 0.87994 0.87107
 C87 C 0.08669 0.97516 0.84077
 H88 H 0.08449 1.00146 0.83228
 C89 C 0.12903 0.98629 0.84838
 H90 H 0.15924 1.02122 0.84563
 N91 N 0.04820 0.93165 0.84424
 C92 C -0.09948 0.89762 0.84755
 H93 H -0.11036 0.89118 0.83542
 C94 C -0.12980 0.89976 0.85868
 H95 H -0.16352 0.89515 0.85464
 C96 C -0.04010 0.91614 0.86654
 H97 H -0.00475 0.92367 0.86953
 C98 C -0.06895 0.91888 0.87798
 H99 H -0.05539 0.92607 0.88978
 Zn100 Zn -0.01121 0.91463 0.83529
 N101 N -0.05528 0.90655 0.85155
 C102 C -0.07223 0.81929 0.82887
 N103 N -0.02933 0.85888 0.82590
 C104 C 0.00391 0.86076 0.81576
 C105 C -0.00563 0.82226 0.80781
 C106 C -0.08344 0.77987 0.82104
 C107 C 0.00105 1.00439 0.82412
 C108 C -0.00259 1.03824 0.81329
 C109 C -0.02405 0.98544 0.79304
 C110 C -0.01995 0.95270 0.80422
 N111 N -0.00802 0.96244 0.81948
 H112 H -0.09790 0.81837 0.83714
 H113 H 0.03776 0.89268 0.81368
 H114 H 0.02096 0.82509 0.79945
 H115 H -0.11783 0.74870 0.82337
 H116 H 0.00941 1.01081 0.83643
 H117 H 0.00312 1.07074 0.81735
 H118 H -0.03418 0.97676 0.78102
 H119 H -0.02799 0.91887 0.80081
 C120 C -0.11420 0.91231 0.87409
 C121 C 0.13174 0.95216 0.85953
 C122 C -0.01621 1.02851 0.79761
 C123 C -0.04989 0.78121 0.81031
 C124 C 0.46125 0.02021 -0.01943
 C125 C 0.44154 0.02636 -0.00586
 C126 C 0.46346 0.03163 0.00883
 C127 C 0.50728 0.03199 0.00997
 C128 C 0.52737 0.02494 -0.00362
 C129 C 0.50421 0.01887 -0.01837
 C130 C 0.52544 0.01326 -0.03178
 C131 C 0.56796 0.01248 -0.03067
 C132 C 0.59128 0.01785 -0.01615
 C133 C 0.57131 0.02515 -0.00257
 C134 C 0.53232 0.04088 0.02415
 C135 C 0.57585 0.04215 0.02506
 C136 C 0.59578 0.03391 0.01191
 C137 C 0.64030 0.03575 0.01265
 C138 C 0.65893 0.02741 -0.00069
 C139 C 0.63495 0.01788 -0.01497
 H140 H 0.50965 0.00985 -0.04335
 H141 H 0.58288 0.00872 -0.04145
 H142 H 0.51905 0.04804 0.03459
 H143 H 0.59387 0.05007 0.03618
 H144 H 0.40817 0.02654 -0.00671
 H145 H 0.69270 0.02804 0.00011
 C146 C -0.10553 0.34462 0.65295
 C147 C -0.10350 0.31791 0.66690
 C148 C -0.09967 0.33330 0.68198
 C149 C -0.09948 0.37612 0.68330
 C150 C -0.10079 0.40403 0.66923
 C151 C -0.10367 0.38834 0.65399
 C152 C -0.10586 0.41616 0.64026
 C153 C -0.10379 0.45920 0.64140
 C154 C -0.10017 0.47582 0.65633
 C155 C -0.09976 0.44749 0.67043
 C156 C -0.09935 0.39108 0.69833
 C157 C -0.09942 0.43311 0.69952
 C158 C -0.09892 0.46221 0.68572
 C159 C -0.09892 0.50504 0.68680
 C160 C -0.09860 0.53288 0.67278
 C161 C -0.09834 0.51942 0.65760
 H162 H -0.10952 0.40483 0.62848
 H163 H -0.10605 0.47886 0.63044
 H164 H -0.10015 0.36996 0.70937
 H165 H -0.10016 0.44237 0.71142
 H166 H -0.10363 0.28507 0.66595
 H167 H -0.09743 0.56623 0.67370
 C168 C 0.61132 0.61432 0.34903
 C169 C 0.63676 0.63941 0.33464
 C170 C 0.61979 0.62458 0.31978
 C171 C 0.57568 0.58328 0.31914
 C172 C 0.54977 0.55681 0.33364
 C173 C 0.56769 0.57225 0.34864
 C174 C 0.54167 0.54514 0.36282
 C175 C 0.49822 0.50448 0.36231
 C176 C 0.47946 0.48882 0.34760
 C177 C 0.50546 0.51521 0.33311
 C178 C 0.55618 0.56854 0.30442
 C179 C 0.51252 0.52817 0.30390
 C180 C 0.48677 0.50070 0.31808
 C181 C 0.44211 0.45989 0.31767
 C182 C 0.41689 0.43451 0.33204
 C183 C 0.43481 0.44815 0.34694
 H184 H 0.55461 0.55507 0.37450
 H185 H 0.47934 0.48568 0.37361
 H186 H 0.57415 0.58850 0.29312
 H187 H 0.49893 0.51907 0.29222
 H188 H 0.67024 0.67159 0.33500
 H189 H 0.38265 0.40324 0.33162
 C190 C -0.10166 0.18772 0.55908
 C191 C -0.06097 0.20823 0.54880
 C192 C -0.05388 0.18157 0.53846
 C193 C -0.08732 0.13381 0.53813
 C194 C -0.12917 0.11388 0.54776
 C195 C -0.13625 0.14055 0.55816
 C196 C -0.10623 0.21440 0.57141
 N197 N -0.14394 0.19394 0.58208
 N198 N -0.14606 0.21658 0.59396
 C199 C -0.11055 0.26061 0.59570
 N200 N -0.07320 0.28133 0.58488
 N201 N -0.07109 0.25872 0.57300
 C202 C -0.11105 0.28426 0.60966
 C203 C -0.07223 0.32805 0.61218
 C204 C -0.07096 0.34840 0.62604
 C205 C -0.10864 0.32561 0.63755
 C206 C -0.14783 0.28248 0.63494
 C207 C -0.14914 0.26205 0.62110
 H208 H -0.03377 0.24454 0.54906
 H209 H -0.02166 0.19807 0.53095
 H210 H -0.15544 0.07709 0.54780
 H211 H -0.16810 0.12367 0.56586
 H212 H -0.04223 0.34609 0.60366
 H213 H -0.04013 0.38140 0.62799
 H214 H -0.17705 0.26424 0.64378
 H215 H -0.17956 0.22834 0.61957
 C216 C 0.85410 0.84437 0.23272
 C217 C 0.87252 0.89297 0.23321
 C218 C 0.90959 0.92598 0.22266
 C219 C 0.92911 0.91136 0.21126
 C220 C 0.91035 0.86283 0.21052
 C221 C 0.87335 0.82961 0.22122
 C222 C 0.81563 0.80981 0.24438
 N223 N 0.80209 0.76308 0.24592
 N224 N 0.76871 0.73265 0.25689
 C225 C 0.74740 0.74769 0.26673
 N226 N 0.76069 0.79430 0.26505
 N227 N 0.79405 0.82466 0.25413
 C228 C 0.71189 0.71467 0.27950
 C229 C 0.68950 0.73099 0.28922
 C230 C 0.65852 0.70115 0.30198
 C231 C 0.64901 0.65431 0.30526
 C232 C 0.67041 0.63742 0.29543
 C233 C 0.70148 0.66730 0.28261
 H234 H 0.85859 0.90571 0.24187
 H235 H 0.92274 0.96316 0.22332
 H236 H 0.92483 0.85065 0.20185
 H237 H 0.85989 0.79243 0.22049
 H238 H 0.69654 0.76716 0.28718
 H239 H 0.64250 0.71481 0.30951
 H240 H 0.66387 0.60147 0.29793
 H241 H 0.71817 0.65362 0.27540
 C242 C 0.25079 -0.01804 -0.11083
 C243 C 0.22727 -0.06093 -0.11738
 C244 C 0.18981 -0.06990 -0.12749
 C245 C 0.17487 -0.03627 -0.13125
 C246 C 0.19961 0.00735 -0.12522
 C247 C 0.23715 0.01638 -0.11514
 C248 C 0.28734 -0.01033 -0.09886
 N249 N 0.31011 0.03110 -0.09253
 N250 N 0.34060 0.03697 -0.08100
 C251 C 0.34960 0.00165 -0.07528
 N252 N 0.32728 -0.03961 -0.08174
 N253 N 0.29681 -0.04546 -0.09329
 C254 C 0.38112 0.00723 -0.06170
 C255 C 0.38720 -0.03070 -0.05477
 C256 C 0.41420 -0.02626 -0.04123
 C257 C 0.43592 0.01627 -0.03451
 C258 C 0.43067 0.05440 -0.04154
 C259 C 0.40369 0.05002 -0.05503
 H260 H 0.23707 -0.08808 -0.11444
 H261 H 0.17203 -0.10352 -0.13218
 H262 H 0.18872 0.03383 -0.12775
 H263 H 0.25447 0.04983 -0.11033
 H264 H 0.37025 -0.06418 -0.05956
 H265 H 0.41746 -0.05622 -0.03581
 H266 H 0.44695 0.08737 -0.03640
 H267 H 0.39984 0.07996 -0.06004
 C268 C -0.05476 0.77537 0.57109
 C269 C -0.01600 0.79669 0.55990
 C270 C -0.00842 0.83582 0.54900
 C271 C -0.03922 0.85459 0.54918
 C272 C -0.07812 0.83299 0.56027
 C273 C -0.08582 0.79391 0.57106
 C274 C -0.06276 0.73453 0.58293
 N275 N -0.10143 0.71322 0.59319
 N276 N -0.10828 0.67742 0.60416
 C277 C -0.07675 0.66128 0.60538
 N278 N -0.03816 0.68236 0.59505
 N279 N -0.03132 0.71820 0.58405
 C280 C -0.08364 0.62269 0.61809
 C281 C -0.04976 0.60759 0.62006
 C282 C -0.05515 0.57311 0.63266
 C283 C -0.09467 0.55281 0.64342
 C284 C -0.12888 0.56722 0.64136
 C285 C -0.12354 0.60167 0.62879
 H286 H 0.00860 0.78330 0.55959
 H287 H 0.02190 0.85185 0.54061
 H288 H -0.10302 0.84605 0.56049
 H289 H -0.11613 0.77839 0.57944
 H290 H -0.01859 0.62304 0.61207
 H291 H -0.02802 0.56289 0.63422
 H292 H -0.15944 0.55217 0.64962
 H293 H -0.15036 0.61236 0.62765
 C294 C 0.26513 0.29524 0.22611
 C295 C 0.28403 0.27569 0.21637
 C296 C 0.25559 0.24429 0.20582
 C297 C 0.20756 0.23161 0.20475
 C298 C 0.18902 0.25234 0.21407
 C299 C 0.21748 0.28381 0.22463
 C300 C 0.29426 0.32543 0.23826
 N301 N 0.27614 0.34429 0.24774
 N302 N 0.30130 0.36906 0.25929
 C303 C 0.34566 0.37600 0.26189
 N304 N 0.36399 0.35760 0.25230
 N305 N 0.33884 0.33288 0.24073
 C306 C 0.37239 0.40093 0.27542
 C307 C 0.41648 0.40430 0.27905
 C308 C 0.43990 0.42469 0.29253
 C309 C 0.41990 0.44244 0.30254
 C310 C 0.37647 0.44002 0.29880
 C311 C 0.35300 0.41962 0.28536
 H312 H 0.32066 0.28398 0.21709
 H313 H 0.27115 0.22958 0.19857
 H314 H 0.15205 0.24297 0.21363
 H315 H 0.20172 0.29819 0.23194
 H316 H 0.43240 0.39017 0.27170
 H317 H 0.47311 0.42571 0.29538
 H318 H 0.36039 0.45326 0.30648
 H319 H 0.31919 0.41768 0.28294
 C320 C 0.80489 -0.05881 -0.09401
 C321 C 0.78222 -0.09080 -0.10517
 C322 C 0.80852 -0.10071 -0.11561
 C323 C 0.85833 -0.07941 -0.11502
 C324 C 0.88046 -0.04792 -0.10350
 C325 C 0.85423 -0.03769 -0.09328
 C326 C 0.77781 -0.04677 -0.08321
 N327 N 0.80065 -0.00856 -0.07518
 N328 N 0.77690 0.00237 -0.06531
 C329 C 0.72923 -0.02449 -0.06298
 N330 N 0.70623 -0.06273 -0.07104
 N331 N 0.73002 -0.07356 -0.08100
 C332 C 0.70346 -0.01276 -0.05154
 C333 C 0.65676 -0.04557 -0.04604
 C334 C 0.63396 -0.03528 -0.03441
 C335 C 0.65714 0.00826 -0.02830
 C336 C 0.70332 0.04139 -0.03402
 C337 C 0.72626 0.03103 -0.04551
 H338 H 0.74413 -0.10788 -0.10598
 H339 H 0.78923 -0.12624 -0.12379
 H340 H 0.91852 -0.02878 -0.10278
 H341 H 0.87292 -0.01276 -0.08484
 H342 H 0.63831 -0.07969 -0.05037
 H343 H 0.59858 -0.06162 -0.02994
 H344 H 0.72189 0.07508 -0.02938
 H345 H 0.76211 0.05720 -0.04953
 C346 C 0.26680 0.04837 0.09520
 C347 C 0.24891 0.07982 0.09219
 C348 C 0.21955 0.08200 0.10360
 C349 C 0.20748 0.05302 0.11840
 C350 C 0.22483 0.02109 0.12139
 C351 C 0.25421 0.01879 0.10990
 C352 C 0.29836 0.04682 0.08300
 N353 N 0.31271 0.01391 0.08494
 N354 N 0.34065 0.01254 0.07380
 C355 C 0.35551 0.04411 0.06027
 N356 N 0.34132 0.07709 0.05840
 N357 N 0.31338 0.07841 0.06951
 C358 C 0.38552 0.04212 0.04759
 C359 C 0.40222 0.07643 0.03403
 C360 C 0.42860 0.07360 0.02167
 C361 C 0.43903 0.03657 0.02263
 C362 C 0.42294 0.00249 0.03620
 C363 C 0.39660 0.00534 0.04861
 H364 H 0.25745 0.10284 0.08096
 H365 H 0.20596 0.10624 0.10076
 H366 H 0.21642 -0.00148 0.13271
 H367 H 0.26740 -0.00583 0.11261
 H368 H 0.39441 0.10524 0.03282
 H369 H 0.44043 0.10002 0.01123
 H370 H 0.43005 -0.02676 0.03701
 H371 H 0.38415 -0.02177 0.05884
 C372 C 0.77761 0.81237 0.43485
 C373 C 0.75607 0.81644 0.44845
 C374 C 0.78273 0.84978 0.45878
 C375 C 0.83191 0.88105 0.45564
 C376 C 0.85269 0.87642 0.44172
 C377 C 0.82614 0.84266 0.43166
 C378 C 0.75020 0.77712 0.42385
 N379 N 0.77295 0.76513 0.41347
 N380 N 0.74907 0.73506 0.40304
 C381 C 0.70137 0.71574 0.40247
 N382 N 0.67842 0.72737 0.41294
 N383 N 0.70234 0.75733 0.42347
 C384 C 0.67576 0.68496 0.39002
 C385 C 0.62941 0.67481 0.38637
 C386 C 0.60756 0.65014 0.37340
 C387 C 0.63137 0.63459 0.36404
 C388 C 0.67689 0.64319 0.36803
 C389 C 0.69885 0.66806 0.38088
 H390 H 0.71852 0.79365 0.45117
 H391 H 0.76359 0.85194 0.46875
 H392 H 0.89026 0.89666 0.43881
 H393 H 0.84398 0.84035 0.42130
 H394 H 0.61075 0.68752 0.39311
 H395 H 0.57272 0.64455 0.37033
 H396 H 0.69594 0.63175 0.36088
 H397 H 0.73444 0.67502 0.38341
 C398 C -0.04339 0.12400 0.76506
 C399 C -0.07390 0.07499 0.76636
 C400 C -0.06478 0.04425 0.77684
 C401 C -0.02500 0.06165 0.78633
 C402 C 0.00545 0.11064 0.78514
 C403 C -0.00355 0.14150 0.77457
 C404 C -0.05312 0.15630 0.75372
 N405 N -0.02214 0.20338 0.75134
 N406 N -0.03065 0.23201 0.74086
 C407 C -0.07055 0.21481 0.73237
 N408 N -0.10161 0.16780 0.73484
 N409 N -0.09308 0.13920 0.74528
 C410 C -0.07936 0.24617 0.72025
 C411 C -0.12120 0.22797 0.71174
 C412 C -0.12839 0.25672 0.69965
 C413 C -0.09409 0.30427 0.69588
 C414 C -0.05262 0.32282 0.70450
 C415 C -0.04540 0.29412 0.71663
 H416 H -0.10495 0.06021 0.75926
 H417 H -0.08937 0.00675 0.77770
 H418 H 0.03653 0.12503 0.79224
 H419 H 0.02070 0.17904 0.77386
 H420 H -0.14813 0.19127 0.71420
 H421 H -0.16043 0.24170 0.69303
 H422 H -0.02538 0.35926 0.70157
 H423 H -0.01274 0.30927 0.72290
 C424 C 0.86365 0.09725 0.10111
 C425 C 0.85097 0.06786 0.11585
 C426 C 0.88567 0.07039 0.12647
 C427 C 0.93376 0.10207 0.12252
 C428 C 0.94629 0.13265 0.10809
 C429 C 0.91163 0.13042 0.09754
 C430 C 0.82763 0.09154 0.08912
 N431 N 0.83954 0.12164 0.07529
 N432 N 0.80825 0.11476 0.06399
 C433 C 0.76368 0.07742 0.06598
 N434 N 0.75154 0.04760 0.07989
 N435 N 0.78285 0.05454 0.09122
 C436 C 0.73010 0.06817 0.05287
 C437 C 0.68579 0.02671 0.05408
 C438 C 0.65588 0.01654 0.04115
 C439 C 0.66959 0.04781 0.02690
 C440 C 0.71323 0.08956 0.02577
 C441 C 0.74314 0.09974 0.03863
 H442 H 0.81436 0.04204 0.11901
 H443 H 0.87505 0.04613 0.13745
 H444 H 0.98307 0.15776 0.10484
 H445 H 0.92270 0.15373 0.08634
 H446 H 0.67466 0.00158 0.06484
 H447 H 0.62249 -0.01612 0.04213
 H448 H 0.72443 0.11392 0.01479
 H449 H 0.77688 0.13199 0.03727
 C450 C 0.20463 0.22043 0.43362
 C451 C 0.15650 0.20275 0.43057
 C452 C 0.12157 0.16991 0.44179
 C453 C 0.13367 0.15414 0.45649
 C454 C 0.18181 0.17079 0.45944
 C455 C 0.21701 0.20360 0.44808
 C456 C 0.24109 0.25669 0.42174
 N457 N 0.28725 0.26758 0.42240
 N458 N 0.31941 0.29987 0.41144
 C459 C 0.30673 0.32278 0.39947
 N460 N 0.26068 0.31205 0.39893
 N461 N 0.22860 0.27972 0.40980
 C462 C 0.34160 0.35766 0.38689
 C463 C 0.32888 0.38534 0.37603
 C464 C 0.36000 0.41585 0.36342
 C465 C 0.40455 0.41949 0.36139
 C466 C 0.41797 0.39276 0.37236
 C467 C 0.38684 0.36228 0.38509
 H468 H 0.14563 0.21427 0.41945
 H469 H 0.08486 0.15680 0.43892
 H470 H 0.19227 0.15940 0.47067
 H471 H 0.25382 0.21651 0.45076
 H472 H 0.29448 0.38293 0.37709
 H473 H 0.34900 0.43604 0.35500
 H474 H 0.45204 0.39472 0.37084
 H475 H 0.39765 0.34136 0.39322
 C476 C -0.07765 0.67278 0.78055
 C477 C -0.03490 0.69408 0.78844
 C478 C -0.02671 0.72787 0.79862
 C479 C -0.06106 0.74112 0.80117
 C480 C -0.10474 0.71815 0.79395
 C481 C -0.11294 0.68438 0.78372
 C482 C -0.08403 0.64114 0.76832
 N483 N -0.12387 0.62304 0.75983
 N484 N -0.12801 0.59765 0.74801
 C485 C -0.09249 0.58928 0.74415
 N486 N -0.05294 0.60679 0.75279
 N487 N -0.04880 0.63218 0.76462
 C488 C -0.09564 0.56408 0.73021
 C489 C -0.05768 0.55779 0.72566
 C490 C -0.05921 0.53738 0.71178
 C491 C -0.09882 0.52259 0.70228
 C492 C -0.13710 0.52791 0.70691
 C493 C -0.13565 0.54829 0.72077
 H494 H -0.00711 0.68570 0.78642
 H495 H 0.00695 0.74434 0.80427
 H496 H -0.13181 0.72777 0.79564
 H497 H -0.14638 0.66850 0.77792
 H498 H -0.02629 0.56960 0.73261
 H499 H -0.02912 0.53402 0.70825
 H500 H -0.16781 0.51695 0.69963
 H501 H -0.16548 0.55257 0.72388
   
