data_POSCAR
  _audit_creation_date              2014-09-24
  _audit_creation_method            'ToBaCCo'
  _symmetry_space_group_name_H-M    'P1'
  _symmetry_Int_Tables_number       1
  _symmetry_cell_setting            triclinic
  loop_
  _symmetry_equiv_pos_as_xyz
 x,y,z
_cell_length_a 48.6402
_cell_length_b 48.1824
_cell_length_c 28.4633
_cell_angle_alpha 89.908300
_cell_angle_beta 90.034400
_cell_angle_gamma 91.248700
loop_
  _atom_site_label
  _atom_site_type_symbol
  _atom_site_fract_x
  _atom_site_fract_y
  _atom_site_fract_z
C1 C -0.01670 0.25051 0.04180
 C2 C -0.01936 0.25437 -0.00785
 C3 C 0.00481 0.25944 -0.03444
 C4 C 0.03110 0.26029 -0.01400
 C5 C 0.03352 0.25387 0.03445
 C6 C 0.00977 0.24905 0.06126
 H7 H 0.01203 0.24420 0.09829
 H8 H 0.00373 0.26197 -0.07208
 C9 C 0.47705 0.76462 0.51522
 C10 C 0.47887 0.75730 0.46719
 C11 C 0.50467 0.75789 0.44517
 C12 C 0.52855 0.76678 0.46923
 C13 C 0.52636 0.77552 0.51647
 C14 C 0.50073 0.77417 0.53907
 H15 H 0.49936 0.77991 0.57578
 H16 H 0.50601 0.75079 0.40921
 C17 C 1.02657 0.73021 0.01107
 C18 C 1.02544 0.72942 -0.03897
 C19 C 0.99967 0.72859 -0.06161
 C20 C 0.97464 0.72924 -0.03655
 C21 C 0.97599 0.73070 0.01328
 C22 C 1.00160 0.73139 0.03577
 H23 H 1.00190 0.73229 0.07391
 H24 H 0.99954 0.72685 -0.09948
 C25 C 0.53200 0.24069 0.53363
 C26 C 0.52844 0.23751 0.48462
 C27 C 0.50185 0.23535 0.46610
 C28 C 0.47846 0.23575 0.49510
 C29 C 0.48201 0.23804 0.54443
 C30 C 0.50872 0.24043 0.56284
 H31 H 0.51118 0.24339 0.60033
 H32 H 0.49950 0.23248 0.42854
 C33 C 0.70424 -0.02768 0.00698
 C34 C 0.70032 -0.02598 -0.04247
 C35 C 0.69986 -0.00007 -0.06462
 C36 C 0.70308 0.02452 -0.03896
 C37 C 0.70729 0.02340 0.01021
 C38 C 0.70771 -0.00270 0.03259
 H39 H 0.71154 -0.00334 0.06978
 H40 H 0.69650 0.00092 -0.10225
 C41 C 0.21566 0.47318 0.54161
 C42 C 0.21213 0.47356 0.49227
 C43 C 0.21015 0.49897 0.46855
 C44 C 0.21164 0.52436 0.49275
 C45 C 0.21502 0.52410 0.54224
 C46 C 0.21679 0.49859 0.56587
 H47 H 0.22020 0.49892 0.60340
 H48 H 0.20655 0.49886 0.43098
 C49 C 0.25291 1.02525 0.04423
 C50 C 0.24572 1.02689 -0.00456
 C51 C 0.23787 1.00231 -0.02807
 C52 C 0.23953 0.97631 -0.00666
 C53 C 0.24765 0.97449 0.04069
 C54 C 0.25506 0.99876 0.06508
 H55 H 0.26008 0.99704 0.10212
 H56 H 0.23227 1.00306 -0.06498
 C57 C 0.76446 0.52392 0.51252
 C58 C 0.76386 0.52549 0.46276
 C59 C 0.76145 0.50076 0.43671
 C60 C 0.76016 0.47473 0.45867
 C61 C 0.76100 0.47312 0.50835
 C62 C 0.76319 0.49783 0.53442
 H63 H 0.76281 0.49703 0.57243
 H64 H 0.76172 0.50151 0.39867
 O65 O 0.23301 0.27277 0.19802
 O66 O 0.30422 0.26521 0.24040
 O67 O 0.27099 0.23721 0.18463
 O68 O 0.26748 0.30348 0.24620
 O69 O 0.25139 0.28221 0.30962
 O70 O 0.25495 0.21497 0.24716
 O71 O 0.28814 0.24335 0.30319
 O72 O 0.21760 0.25152 0.26201
 Cu73 Cu 0.27063 0.27181 0.21108
 Cu74 Cu 0.25174 0.24576 0.28698
 C75 C 0.21323 0.26334 0.22305
 C76 C 0.30817 0.25309 0.27945
 C77 C 0.26298 0.21498 0.20458
 C78 C 0.25846 0.30434 0.28786
 O79 O 0.75039 0.78782 0.22928
 O80 O 0.75882 0.71581 0.26692
 O81 O 0.78664 0.75021 0.21216
 O82 O 0.72012 0.75227 0.27555
 O83 O 0.69896 0.73712 0.21151
 O84 O 0.76436 0.73570 0.14884
 O85 O 0.73710 0.70062 0.20356
 O86 O 0.72828 0.77329 0.16578
 Cu87 Cu 0.75625 0.75280 0.25238
 Cu88 Cu 0.73020 0.73508 0.17599
 C89 C 0.73771 0.79290 0.19147
 C90 C 0.74913 0.69597 0.24238
 C91 C 0.78649 0.74310 0.16909
 C92 C 0.69817 0.74530 0.25370
 O93 O 0.80151 0.22978 0.25721
 O94 O 0.74170 0.21782 0.33549
 O95 O 0.76517 0.18952 0.26975
 O96 O 0.77936 0.25676 0.32650
 O97 O 0.75212 0.27744 0.27583
 O98 O 0.73908 0.21001 0.21710
 O99 O 0.71517 0.23795 0.28311
 O100 O 0.77465 0.25092 0.20649
 Cu101 Cu 0.77468 0.22142 0.30231
 Cu102 Cu 0.74264 0.24612 0.24038
 C103 C 0.79816 0.24262 0.21858
 C104 C 0.71820 0.22587 0.32235
 C105 C 0.74970 0.18823 0.23394
 C106 C 0.76800 0.27846 0.31135
 O107 O 0.27564 0.76248 0.18157
 O108 O 0.26212 0.69319 0.23290
 O109 O 0.24041 0.72173 0.16453
 O110 O 0.29736 0.73343 0.24871
 O111 O 0.26852 0.75261 0.29831
 O112 O 0.21137 0.73915 0.21562
 O113 O 0.23378 0.71149 0.28429
 O114 O 0.24563 0.78038 0.23052
 Cu115 Cu 0.27172 0.72588 0.20178
 Cu116 Cu 0.23691 0.74770 0.26221
 C117 C 0.26280 0.78320 0.19715
 C118 C 0.24597 0.69061 0.26774
 C119 C 0.21617 0.72836 0.17582
 C120 C 0.29262 0.74513 0.28778
 O121 O 0.77167 0.27910 0.69471
 O122 O 0.76420 0.20723 0.73643
 O123 O 0.73219 0.24248 0.69601
 O124 O 0.80378 0.24472 0.73842
 O125 O 0.78911 0.25872 0.80769
 O126 O 0.71809 0.25821 0.76461
 O127 O 0.74886 0.22238 0.80458
 O128 O 0.75843 0.29461 0.76390
 Cu129 Cu 0.76954 0.24187 0.70951
 Cu130 Cu 0.75238 0.26011 0.79220
 C131 C 0.76603 0.29906 0.72182
 C132 C 0.75469 0.20253 0.77722
 C133 C 0.71300 0.25001 0.72317
 C134 C 0.80850 0.25173 0.78068
 O135 O 0.29700 0.75122 0.73697
 O136 O 0.23450 0.73742 0.80671
 O137 O 0.25772 0.71350 0.73477
 O138 O 0.27328 0.77455 0.80855
 O139 O 0.24764 0.80009 0.76202
 O140 O 0.23628 0.74018 0.68401
 O141 O 0.21029 0.76153 0.75587
 O142 O 0.27390 0.77949 0.69113
 Cu143 Cu 0.26805 0.74140 0.77639
 Cu144 Cu 0.23964 0.77282 0.71811
 C145 C 0.29621 0.76812 0.70273
 C146 C 0.21183 0.74737 0.79347
 C147 C 0.24480 0.71657 0.69638
 C148 C 0.26231 0.79749 0.79862
 O149 O 0.27311 0.30605 0.79384
 O150 O 0.28690 0.23920 0.85018
 O151 O 0.30847 0.26701 0.77909
 O152 O 0.24938 0.27690 0.85921
 O153 O 0.22226 0.25597 0.80739
 O154 O 0.28060 0.24570 0.72885
 O155 O 0.25896 0.21785 0.80015
 O156 O 0.24592 0.28503 0.74215
 Cu157 Cu 0.28235 0.27423 0.82568
 Cu158 Cu 0.24936 0.24883 0.76451
 C159 C 0.25709 0.30704 0.75876
 C160 C 0.27490 0.21725 0.83561
 C161 C 0.30426 0.25505 0.73980
 C162 C 0.22560 0.26844 0.84623
 O163 O 0.75191 0.71481 0.71685
 O164 O 0.74672 0.78133 0.78196
 O165 O 0.71300 0.74907 0.73603
 O166 O 0.78413 0.74250 0.77610
 O167 O 0.79912 0.76441 0.71277
 O168 O 0.72683 0.77328 0.67410
 O169 O 0.76139 0.80370 0.71858
 O170 O 0.76361 0.73881 0.65344
 Cu171 Cu 0.74784 0.74461 0.75911
 Cu172 Cu 0.76507 0.77196 0.68445
 C173 C 0.75779 0.71588 0.67320
 C174 C 0.75290 0.80391 0.76058
 C175 C 0.70759 0.76235 0.69885
 C176 C 0.80382 0.75222 0.75158
 C177 C 0.25529 0.04803 0.07521
 C178 C 0.24146 0.07293 0.06985
 C179 C 0.24508 0.09605 0.10304
 N180 N 0.23940 0.12218 0.08896
 N181 N 0.24312 0.14353 0.11807
 C182 C 0.25238 0.13952 0.16255
 N183 N 0.25762 0.11331 0.17699
 N184 N 0.25422 0.09196 0.14762
 C185 C 0.25657 0.16323 0.19443
 C186 C 0.26203 0.18958 0.17623
 H187 H 0.22777 0.07602 0.04046
 H188 H 0.25576 0.15994 0.23206
 H189 H 0.26600 0.04500 0.10820
 H190 H 0.26504 0.19196 0.13869
 C191 C 0.76635 0.54852 0.54381
 C192 C 0.75138 0.57252 0.53667
 C193 C 0.75267 0.59602 0.56964
 N194 N 0.74396 0.62126 0.55565
 N195 N 0.74518 0.64284 0.58483
 C196 C 0.75489 0.63995 0.62930
 N197 N 0.76324 0.61460 0.64358
 N198 N 0.76227 0.59305 0.61421
 C199 C 0.75648 0.66390 0.66141
 C200 C 0.75714 0.69086 0.64374
 H201 H 0.73845 0.57438 0.50592
 H202 H 0.75816 0.66034 0.69887
 H203 H 0.77803 0.54655 0.57604
 H204 H 0.75764 0.69397 0.60603
 C205 C 0.70552 0.94595 0.02883
 C206 C 0.71132 0.94049 0.07610
 C207 C 0.71283 0.91159 0.09292
 N208 N 0.72371 0.90593 0.13569
 N209 N 0.72603 0.87974 0.15012
 C210 C 0.71745 0.85831 0.12234
 N211 N 0.70627 0.86399 0.07993
 N212 N 0.70404 0.89012 0.06550
 C213 C 0.72045 0.82927 0.13684
 C214 C 0.73408 0.82198 0.17785
 H215 H 0.71606 0.95681 0.10092
 H216 H 0.71226 0.81318 0.11390
 H217 H 0.70256 0.92778 0.00719
 H218 H 0.74254 0.83802 0.20062
 C219 C 0.22012 0.44634 0.56644
 C220 C 0.21821 0.44223 0.61491
 C221 C 0.22306 0.41480 0.63582
 N222 N 0.22872 0.41249 0.68232
 N223 N 0.23360 0.38778 0.70130
 C224 C 0.23275 0.36443 0.67454
 N225 N 0.22669 0.36669 0.62822
 N226 N 0.22205 0.39142 0.60917
 C227 C 0.23822 0.33704 0.69489
 C228 C 0.25141 0.33424 0.73799
 H229 H 0.21343 0.45906 0.63834
 H230 H 0.23274 0.31871 0.67465
 H231 H 0.22580 0.42865 0.54552
 H232 H 0.25843 0.35261 0.75677
 C233 C 0.96119 0.24767 0.07388
 C234 C 0.93565 0.26013 0.06908
 C235 C 0.91315 0.25506 0.10286
 N236 N 0.88831 0.26656 0.09547
 N237 N 0.86753 0.26160 0.12500
 C238 C 0.87081 0.24495 0.16309
 N239 N 0.89569 0.23355 0.17062
 N240 N 0.91645 0.23846 0.14101
 C241 C 0.84791 0.23905 0.19572
 C242 C 0.82147 0.24831 0.18690
 H243 H 0.93196 0.27446 0.04056
 H244 H 0.85187 0.22682 0.22686
 H245 H 0.96520 0.23763 0.10725
 H246 H 0.81749 0.26009 0.15525
 C247 C 0.45152 0.75938 0.54215
 C248 C 0.44057 0.77912 0.57203
 C249 C 0.41520 0.77333 0.59863
 N250 N 0.39926 0.79446 0.61300
 N251 N 0.37619 0.78930 0.63704
 C252 C 0.36845 0.76283 0.64808
 N253 N 0.38458 0.74174 0.63425
 N254 N 0.40744 0.74687 0.60972
 C255 C 0.34335 0.75675 0.67523
 C256 C 0.32135 0.77475 0.67603
 H257 H 0.45007 0.79963 0.57414
 H258 H 0.34155 0.73689 0.69299
 H259 H 0.44025 0.74007 0.53608
 H260 H 0.32199 0.79340 0.65469
 C261 C 0.05061 0.73007 0.03914
 C262 C 0.07622 0.71929 0.02738
 C263 C 0.09990 0.72206 0.05986
 N264 N 0.12486 0.71209 0.04791
 N265 N 0.14631 0.71498 0.07695
 C266 C 0.14354 0.72794 0.11905
 N267 N 0.11862 0.73785 0.13091
 N268 N 0.09727 0.73501 0.10192
 C269 C 0.16674 0.73165 0.15197
 C270 C 0.19349 0.72353 0.14211
 H271 H 0.07903 0.70795 -0.00491
 H272 H 0.16254 0.74162 0.18521
 H273 H 0.04848 0.73713 0.07509
 H274 H 0.19801 0.71382 0.10879
 C275 C 0.55963 0.24628 0.55381
 C276 C 0.56744 0.23738 0.59834
 C277 C 0.59602 0.24030 0.61442
 N278 N 0.60218 0.23663 0.66043
 N279 N 0.62814 0.23867 0.67517
 C280 C 0.64886 0.24419 0.64433
 N281 N 0.64271 0.24760 0.59825
 N282 N 0.61675 0.24579 0.58358
 C283 C 0.67756 0.24598 0.65995
 C284 C 0.68438 0.24901 0.70713
 H285 H 0.55272 0.22720 0.62145
 H286 H 0.69364 0.24558 0.63365
 H287 H 0.57487 0.25667 0.53190
 H288 H 0.66830 0.25129 0.73309
 C289 C 0.70154 0.05144 0.93628
 C290 C 0.71647 0.05705 0.89550
 C291 C 0.72018 0.08555 0.87774
 N292 N 0.73595 0.09060 0.83923
 N293 N 0.74070 0.11653 0.82448
 C294 C 0.72997 0.13833 0.84789
 N295 N 0.71413 0.13326 0.88624
 N296 N 0.70934 0.10736 0.90092
 C297 C 0.73546 0.16709 0.83295
 C298 C 0.75019 0.17366 0.79236
 H299 H 0.72762 0.04062 0.87856
 H300 H 0.72725 0.18358 0.85426
 H301 H 0.69090 0.06812 0.95346
 H302 H 0.75770 0.15725 0.77013
 C303 C 0.20844 0.55056 0.46604
 C304 C 0.22106 0.55477 0.42249
 C305 C 0.22130 0.58165 0.39786
 N306 N 0.23541 0.58455 0.35699
 N307 N 0.23675 0.60893 0.33487
 C308 C 0.22402 0.63136 0.35280
 N309 N 0.20976 0.62844 0.39358
 N310 N 0.20843 0.60404 0.41574
 C311 C 0.22611 0.65866 0.32948
 C312 C 0.24190 0.66299 0.28910
 H313 H 0.23268 0.53819 0.40697
 H314 H 0.21570 0.67593 0.34538
 H315 H 0.19782 0.56752 0.48243
 H316 H 0.25248 0.64577 0.27342
 C317 C 0.23474 0.95154 0.96356
 C318 C 0.25304 0.92966 0.96356
 C319 C 0.25169 0.90729 0.92865
 N320 N 0.27002 0.88651 0.93064
 N321 N 0.26956 0.86642 0.89855
 C322 C 0.25084 0.86649 0.86315
 N323 N 0.23253 0.88729 0.86113
 N324 N 0.23294 0.90735 0.89328
 C325 C 0.24980 0.84435 0.82778
 C326 C 0.26609 0.82098 0.83091
 H327 H 0.26997 0.92970 0.98828
 H328 H 0.23483 0.84589 0.79976
 H329 H 0.21909 0.95247 0.93654
 H330 H 0.28046 0.81892 0.85972
 C331 C 0.75770 0.44998 0.42794
 C332 C 0.77430 0.42694 0.43325
 C333 C 0.77099 0.40194 0.40393
 N334 N 0.78639 0.37941 0.41293
 N335 N 0.78310 0.35630 0.38770
 C336 C 0.76428 0.35486 0.35244
 N337 N 0.74898 0.37746 0.34325
 N338 N 0.75224 0.40056 0.36855
 C339 C 0.75991 0.32920 0.32509
 C340 C 0.77342 0.30480 0.33609
 H341 H 0.78982 0.42695 0.46056
 H342 H 0.74507 0.32928 0.29670
 H343 H 0.74374 0.45088 0.39833
 H344 H 0.78789 0.30465 0.36504
 C345 C 0.05373 0.26593 0.95598
 C346 C 0.07915 0.27716 0.97034
 C347 C 0.10378 0.27607 0.94052
 N348 N 0.12854 0.28486 0.95765
 N349 N 0.15136 0.28213 0.93232
 C350 C 0.15021 0.27044 0.88896
 N351 N 0.12545 0.26187 0.87174
 N352 N 0.10267 0.26454 0.89707
 C353 C 0.17506 0.26635 0.86073
 C354 C 0.20155 0.27333 0.87625
 H355 H 0.08155 0.28624 1.00485
 H356 H 0.17228 0.25711 0.82633
 H357 H 0.05088 0.26264 0.91859
 H358 H 0.20465 0.28280 0.91038
 C359 C 0.55610 0.76472 0.44698
 C360 C 0.56075 0.76548 0.39868
 C361 C 0.58860 0.76293 0.37918
 N362 N 0.59203 0.75967 0.33228
 N363 N 0.61709 0.75705 0.31424
 C364 C 0.63968 0.75770 0.34238
 N365 N 0.63628 0.76122 0.38925
 N366 N 0.61119 0.76370 0.40733
 C367 C 0.66743 0.75485 0.32263
 C368 C 0.67112 0.74698 0.27611
 H369 H 0.54388 0.76802 0.37440
 H370 H 0.68510 0.75880 0.34500
 H371 H 0.57371 0.76240 0.46982
 H372 H 0.65329 0.74213 0.25454
 C373 C 0.94899 0.72742 0.93982
 C374 C 0.94484 0.73361 0.89214
 C375 C 0.91711 0.73385 0.87085
 N376 N 0.91371 0.74368 0.82650
 N377 N 0.88871 0.74486 0.80735
 C378 C 0.86615 0.73619 0.83188
 N379 N 0.86959 0.72620 0.87606
 N380 N 0.89454 0.72508 0.89522
 C381 C 0.83819 0.73778 0.81211
 C382 C 0.83239 0.74963 0.76843
 H383 H 0.96167 0.74083 0.87026
 H384 H 0.82138 0.72992 0.83363
 H385 H 0.93082 0.72212 0.96002
 H386 H 0.84898 0.75784 0.74679
 C387 C 0.45098 0.23248 0.47305
 C388 C 0.44515 0.24492 0.42996
 C389 C 0.41825 0.24249 0.40684
 N390 N 0.41450 0.25480 0.36449
 N391 N 0.39018 0.25326 0.34307
 C392 C 0.36870 0.23932 0.36326
 N393 N 0.37245 0.22694 0.40559
 N394 N 0.39681 0.22844 0.42700
 C395 C 0.34144 0.23841 0.34106
 C396 C 0.33627 0.25101 0.29786
 H397 H 0.46080 0.25755 0.41262
 H398 H 0.32472 0.22844 0.36027
 H399 H 0.43496 0.22097 0.49153
 H400 H 0.35296 0.26067 0.27816
 C401 C 0.69758 0.94887 0.92792
 C402 C 0.71713 0.94321 0.89378
 C403 C 0.72022 0.91526 0.87393
 N404 N 0.73956 0.91097 0.84061
 N405 N 0.74371 0.88557 0.82406
 C406 C 0.72883 0.86341 0.84047
 N407 N 0.70949 0.86768 0.87388
 N408 N 0.70528 0.89313 0.89034
 C409 C 0.73329 0.83526 0.82216
 C410 C 0.75016 0.83099 0.78345
 H411 H 0.73221 0.95914 0.88434
 H412 H 0.72212 0.81788 0.83781
 H413 H 0.68248 0.93302 0.93752
 H414 H 0.76011 0.84868 0.76653
 C415 C 0.20995 0.44739 0.46531
 C416 C 0.22564 0.44304 0.42523
 C417 C 0.22865 0.41520 0.40502
 N418 N 0.24504 0.41169 0.36709
 N419 N 0.24898 0.38643 0.34973
 C420 C 0.23680 0.36372 0.36984
 N421 N 0.22037 0.36722 0.40776
 N422 N 0.21640 0.39249 0.42507
 C423 C 0.24100 0.33572 0.35094
 C424 C 0.25605 0.33163 0.31006
 H425 H 0.23781 0.46003 0.41054
 H426 H 0.23128 0.31815 0.36857
 H427 H 0.19826 0.43019 0.48036
 H428 H 0.26503 0.34936 0.29177
 C429 C 0.24743 0.05090 0.96692
 C430 C 0.26583 0.07331 0.97320
 C431 C 0.26584 0.09745 0.94115
 N432 N 0.28333 0.11934 0.94857
 N433 N 0.28297 0.14147 0.92038
 C434 C 0.26514 0.14251 0.88364
 N435 N 0.24776 0.12058 0.87613
 N436 N 0.24810 0.09851 0.90432
 C437 C 0.26361 0.16719 0.85313
 C438 C 0.27927 0.19123 0.86147
 H439 H 0.28073 0.07315 1.00144
 H440 H 0.24866 0.16690 0.82490
 H441 H 0.23580 0.05061 0.93439
 H442 H 0.29391 0.19167 0.89017
 C443 C 0.76769 0.55228 0.43753
 C444 C 0.75500 0.55768 0.39453
 C445 C 0.75815 0.58447 0.37007
 N446 N 0.74546 0.58837 0.32816
 N447 N 0.74755 0.61271 0.30601
 C448 C 0.76246 0.63405 0.32500
 N449 N 0.77523 0.63011 0.36682
 N450 N 0.77317 0.60577 0.38892
 C451 C 0.76389 0.66153 0.30250
 C452 C 0.75107 0.66730 0.25981
 H453 H 0.74156 0.54212 0.37871
 H454 H 0.77440 0.67811 0.32146
 H455 H 0.78015 0.56846 0.45389
 H456 H 0.74097 0.65077 0.24013
 C457 C 0.04966 0.73041 0.92952
 C458 C 0.07134 0.74955 0.93432
 C459 C 0.09456 0.74973 0.90134
 N460 N 0.12028 0.75635 0.91662
 N461 N 0.14156 0.75582 0.88719
 C462 C 0.13781 0.74898 0.84130
 N463 N 0.11202 0.74283 0.82584
 N464 N 0.09080 0.74294 0.85543
 C465 C 0.16109 0.74906 0.80843
 C466 C 0.18759 0.74345 0.82367
 H467 H 0.07222 0.76328 0.96438
 H468 H 0.15727 0.75324 0.77162
 H469 H 0.04904 0.71727 0.89864
 H470 H 0.19081 0.73671 0.85957
 C471 C 0.55171 0.23693 0.45105
 C472 C 0.57519 0.22144 0.45887
 C473 C 0.59910 0.22309 0.42731
 N474 N 0.62283 0.21059 0.43944
 N475 N 0.64497 0.21283 0.41201
 C476 C 0.64415 0.22764 0.37141
 N477 N 0.62037 0.23996 0.35915
 N478 N 0.59828 0.23779 0.38663
 C479 C 0.66838 0.23090 0.34094
 C480 C 0.69424 0.22119 0.35313
 H481 H 0.57657 0.20862 0.49003
 H482 H 0.66583 0.24203 0.30817
 H483 H 0.54953 0.24800 0.41814
 H484 H 0.69711 0.21042 0.38614
 C485 C 0.95508 0.25031 0.96907
 C486 C 0.94916 0.25884 0.92313
 C487 C 0.92144 0.25575 0.90303
 N488 N 0.91738 0.26062 0.85660
 N489 N 0.89221 0.25900 0.83822
 C490 C 0.87016 0.25266 0.86575
 N491 N 0.87419 0.24788 0.91218
 N492 N 0.89938 0.24932 0.93049
 C493 C 0.84216 0.25187 0.84660
 C494 C 0.83681 0.25173 0.79851
 H495 H 0.96422 0.26954 0.90153
 H496 H 0.82520 0.25095 0.87126
 H497 H 0.93863 0.23968 0.98770
 H498 H 0.85359 0.25073 0.77360
 C499 C 0.45464 0.74874 0.43840
 C500 C 0.42954 0.76223 0.44065
 C501 C 0.40651 0.75574 0.40852
 N502 N 0.38216 0.76857 0.41405
 N503 N 0.36129 0.76343 0.38472
 C504 C 0.36403 0.74532 0.34858
 N505 N 0.38839 0.73249 0.34302
 N506 N 0.40922 0.73756 0.37246
 C507 C 0.34136 0.73980 0.31522
 C508 C 0.31512 0.75033 0.32154
 H509 H 0.42690 0.77889 0.46560
 H510 H 0.34544 0.72687 0.28501
 H511 H 0.45766 0.73350 0.41105
 H512 H 0.31074 0.76248 0.35254
 C513 C 0.24434 0.94802 0.06661
 C514 C 0.26502 0.93708 0.09443
 C515 C 0.26113 0.90996 0.11762
 N516 N 0.28306 0.89398 0.12742
 N517 N 0.27949 0.86908 0.14733
 C518 C 0.25387 0.85943 0.15864
 N519 N 0.23202 0.87560 0.14952
 N520 N 0.23556 0.90031 0.12910
 C521 C 0.24943 0.83210 0.18080
 C522 C 0.26807 0.81073 0.17614
 H523 H 0.28488 0.94764 0.09645
 H524 H 0.23013 0.82816 0.19886
 H525 H 0.22579 0.93571 0.06036
 H526 H 0.28625 0.81379 0.15462
 C527 C 0.75786 0.44602 0.53294
 C528 C 0.76936 0.44061 0.57689
 C529 C 0.76822 0.41269 0.59776
 N530 N 0.77495 0.40900 0.64361
 N531 N 0.77456 0.38368 0.66255
 C532 C 0.76769 0.36112 0.63612
 N533 N 0.76117 0.36481 0.59024
 N534 N 0.76134 0.39012 0.57143
 C535 C 0.76756 0.33296 0.65583
 C536 C 0.76781 0.32767 0.70398
 H537 H 0.78029 0.45679 0.59603
 H538 H 0.76589 0.31576 0.63144
 H539 H 0.74694 0.42931 0.51508
 H540 H 0.76751 0.34469 0.72877
 C541 C 0.71330 0.04959 0.03666
 C542 C 0.71094 0.05296 0.08520
 C543 C 0.71624 0.08028 0.10710
 N544 N 0.72122 0.08226 0.15391
 N545 N 0.72623 0.10693 0.17371
 C546 C 0.72619 0.13054 0.14749
 N547 N 0.72084 0.12858 0.10085
 N548 N 0.71608 0.10393 0.08101
 C549 C 0.73163 0.15797 0.16868
 C550 C 0.74400 0.16093 0.21258
 H551 H 0.70511 0.03575 0.10774
 H552 H 0.72680 0.17627 0.14841
 H553 H 0.72018 0.06756 0.01672
 H554 H 0.75040 0.14265 0.23153
 C555 C 0.21687 0.54949 0.57160
 C556 C 0.23178 0.57341 0.55901
 C557 C 0.23420 0.59736 0.59074
 N558 N 0.24087 0.62285 0.57333
 N559 N 0.24316 0.64470 0.60182
 C560 C 0.23915 0.64177 0.64881
 N561 N 0.23281 0.61622 0.66628
 N562 N 0.23021 0.59444 0.63773
 C563 C 0.24232 0.66553 0.68076
 C564 C 0.24007 0.69276 0.66506
 H565 H 0.24199 0.57480 0.52532
 H566 H 0.24576 0.66146 0.71773
 H567 H 0.20806 0.54830 0.60653
 H568 H 0.23430 0.69676 0.62895
 C569 C 0.95163 0.73109 0.04458
 C570 C 0.93002 0.74927 0.03862
 C571 C 0.90648 0.74921 0.07100
 N572 N 0.88197 0.75889 0.05630
 N573 N 0.86021 0.75804 0.08468
 C574 C 0.86223 0.74778 0.12902
 N575 N 0.88689 0.73861 0.14409
 N576 N 0.90859 0.73915 0.11549
 C577 C 0.83801 0.74612 0.15992
 C578 C 0.81171 0.74410 0.14082
 H579 H 0.92970 0.76296 0.00842
 H580 H 0.84088 0.74505 0.19761
 H581 H 0.95210 0.71834 0.07595
 H582 H 0.80938 0.74271 0.10302
 C583 C 0.45915 0.23807 0.57895
 C584 C 0.43483 0.25243 0.57285
 C585 C 0.41396 0.25354 0.61020
 N586 N 0.38760 0.25954 0.59932
 N587 N 0.36851 0.26050 0.63279
 C588 C 0.37513 0.25583 0.67848
 N589 N 0.40158 0.25025 0.68948
 N590 N 0.42062 0.24896 0.65592
 C591 C 0.35410 0.25698 0.71558
 C592 C 0.32641 0.25254 0.70509
 H593 H 0.43084 0.26322 0.54029
 H594 H 0.36051 0.26043 0.75158
 H595 H 0.46291 0.22851 0.61279
 H596 H 0.32055 0.24681 0.66961
 C597 C 0.06041 0.24901 0.05668
 C598 C 0.06759 0.26074 0.09971
 C599 C 0.09628 0.26199 0.11552
 N600 N 0.10232 0.26899 0.16052
 N601 N 0.12836 0.27095 0.17478
 C602 C 0.14929 0.26635 0.14437
 N603 N 0.14327 0.25969 0.09923
 N604 N 0.11722 0.25750 0.08508
 C605 C 0.17803 0.26781 0.15994
 C606 C 0.18476 0.26563 0.20722
 H607 H 0.05223 0.27085 0.12081
 H608 H 0.19414 0.26827 0.13367
 H609 H 0.07588 0.23849 0.03645
 H610 H 0.16860 0.26282 0.23309
 C611 C 0.55104 0.78583 0.54210
 C612 C 0.55899 0.77448 0.58491
 C613 C 0.58743 0.77760 0.60250
 N614 N 0.59509 0.76394 0.64193
 N615 N 0.62119 0.76478 0.65622
 C616 C 0.64068 0.77923 0.63153
 N617 N 0.63298 0.79311 0.59233
 N618 N 0.60687 0.79228 0.57805
 C619 C 0.66987 0.77915 0.64570
 C620 C 0.67856 0.76451 0.68506
 H621 H 0.54502 0.76043 0.60331
 H622 H 0.68483 0.79021 0.62411
 H623 H 0.56546 0.79916 0.52322
 H624 H 0.66345 0.75374 0.70674
   
