data_POSCAR
  _audit_creation_date              2014-09-24
  _audit_creation_method            'ToBaCCo'
  _symmetry_space_group_name_H-M    'P1'
  _symmetry_Int_Tables_number       1
  _symmetry_cell_setting            triclinic
  loop_
  _symmetry_equiv_pos_as_xyz
 x,y,z
_cell_length_a 22.3878
_cell_length_b 22.9575
_cell_length_c 23.2042
_cell_angle_alpha 91.897600
_cell_angle_beta 90.130600
_cell_angle_gamma 88.936200
loop_
  _atom_site_label
  _atom_site_type_symbol
  _atom_site_fract_x
  _atom_site_fract_y
  _atom_site_fract_z
N1 N 0.39132 0.37845 1.36194
 N2 N 1.11161 0.61658 0.89668
 N3 N 0.66486 -0.14704 0.13681
 N4 N -0.17463 1.15077 -0.34872
 N5 N 0.63389 0.65806 0.65073
 N6 N 0.86490 0.36594 0.15848
 N7 N 0.36294 0.14010 0.84744
 N8 N 0.11626 0.84448 0.35024
 Zn9 Zn 0.06230 0.95612 0.01139
 Zn10 Zn 0.03913 1.07235 -0.04097
 Zn11 Zn -0.05121 0.97807 -0.05408
 Zn12 Zn -0.02937 1.03963 0.05961
 O13 O 0.00522 1.01122 -0.00632
 O14 O 0.13537 0.97510 -0.01318
 O15 O 0.00957 1.08251 -0.11112
 O16 O -0.03214 0.90363 -0.07511
 O17 O 0.11700 1.06154 -0.04983
 O18 O 0.04848 0.88611 -0.02241
 O19 O -0.06152 1.01688 -0.12038
 O20 O -0.10557 1.02218 0.06393
 O21 O 0.02835 1.14218 -0.00401
 O22 O -0.12298 0.97527 -0.01940
 O23 O -0.02806 1.11639 0.06818
 O24 O 0.00522 1.01290 0.12273
 O25 O 0.06964 0.94629 0.08796
 C26 C 0.15286 1.02020 -0.03793
 C27 C -0.03248 1.05918 -0.13970
 C28 C 0.00944 0.86941 -0.05891
 C29 C -0.14011 0.99497 0.02981
 C30 C -0.00276 1.15531 0.04023
 C31 C 0.04503 0.97400 0.13019
 Zn32 Zn 0.54588 -0.04499 0.45313
 Zn33 Zn 0.45019 -0.04281 0.53743
 Zn34 Zn 0.50801 0.06640 0.49888
 Zn35 Zn 0.43226 -0.00249 0.41748
 O36 O 0.48222 -0.00487 0.47791
 O37 O 0.53719 -0.12006 0.46604
 O38 O 0.44743 0.00373 0.60227
 O39 O 0.58820 0.06987 0.50586
 O40 O 0.49288 -0.10962 0.55128
 O41 O 0.61221 -0.02319 0.49048
 O42 O 0.48359 0.08594 0.56930
 O43 O 0.42053 0.07061 0.39421
 O44 O 0.37404 -0.06483 0.52165
 O45 O 0.48071 0.12178 0.45203
 O46 O 0.36172 -0.03351 0.43280
 O47 O 0.46123 -0.04228 0.35572
 O48 O 0.55720 -0.03853 0.37739
 C49 C 0.52293 -0.14030 0.51421
 C50 C 0.46158 0.05710 0.60950
 C51 C 0.62595 0.02785 0.50770
 C52 C 0.44364 0.11862 0.41038
 C53 C 0.34218 -0.05918 0.47651
 C54 C 0.51563 -0.04759 0.34102
 Zn55 Zn 1.01287 0.43114 0.46873
 Zn56 Zn 1.08808 0.51524 0.53265
 Zn57 Zn 0.96615 0.55383 0.49073
 Zn58 Zn 0.97964 0.46982 0.58746
 O59 O 1.01137 0.49293 0.51975
 O60 O 1.08642 0.40750 0.44804
 O61 O 1.09987 0.58696 0.51022
 O62 O 0.93786 0.53604 0.41912
 O63 O 1.14336 0.47058 0.49531
 O64 O 0.97445 0.44657 0.40393
 O65 O 1.01050 0.61900 0.48251
 O66 O 0.91182 0.50718 0.60295
 O67 O 1.10776 0.51698 0.60722
 O68 O 0.89992 0.57188 0.53482
 O69 O 1.02622 0.48541 0.64908
 O70 O 0.95954 0.39399 0.58660
 O71 O 0.97837 0.36835 0.49562
 C72 C 1.13749 0.42675 0.46118
 C73 C 1.06631 0.62656 0.49045
 C74 C 0.94454 0.49032 0.38714
 C75 C 0.88174 0.54745 0.58000
 C76 C 1.07844 0.50595 0.65208
 C77 C 0.95827 0.35679 0.54481
 Zn78 Zn 0.45115 0.48004 0.94035
 Zn79 Zn 0.47716 0.56166 1.03470
 Zn80 Zn 0.52193 0.44229 1.04144
 Zn81 Zn 0.57485 0.51489 0.95959
 O82 O 0.50567 0.49987 0.99393
 O83 O 0.37946 0.51400 0.95763
 O84 O 0.44945 0.54196 1.10446
 O85 O 0.49780 0.37449 1.01022
 O86 O 0.41567 0.59474 0.99790
 O87 O 0.44333 0.40194 0.93496
 O88 O 0.48468 0.45146 1.10920
 O89 O 0.62988 0.45790 0.96828
 O90 O 0.53290 0.61567 1.04564
 O91 O 0.60079 0.43662 1.05580
 O92 O 0.60611 0.57960 0.98979
 O93 O 0.56604 0.52873 0.88516
 O94 O 0.47147 0.50590 0.86994
 C95 C 0.37298 0.56729 0.97410
 C96 C 0.45482 0.49441 1.13076
 C97 C 0.46549 0.36239 0.96644
 C98 C 0.64106 0.43727 1.01731
 C99 C 0.58518 0.61848 1.02459
 C100 C 0.52050 0.52637 0.85254
 C101 C 1.34263 0.41357 0.38533
 C102 C 1.29387 0.38826 0.40540
 C103 C 1.24294 0.42198 0.43007
 C104 C 1.19029 0.39638 0.43634
 H105 H 1.29101 0.34115 0.40238
 H106 H 1.24818 0.46758 0.44231
 H107 H 1.34473 0.46066 0.38495
 H108 H 1.18492 0.35171 0.42079
 C109 C 0.16197 0.58291 0.91712
 C110 C 0.21218 0.60811 0.93545
 C111 C 0.26641 0.57312 0.94717
 C112 C 0.31622 0.59906 0.96528
 H113 H 0.21447 0.65522 0.93847
 H114 H 0.26604 0.52627 0.93956
 H115 H 0.16126 0.53580 0.91180
 H116 H 0.31567 0.64581 0.97374
 C117 C -0.28481 0.86532 0.10125
 C118 C -0.27450 0.91927 0.08494
 C119 C -0.22174 0.93140 0.05035
 C120 C -0.20063 0.98510 0.04991
 H121 H -0.30382 0.95492 0.09938
 H122 H -0.19622 0.89542 0.03055
 H123 H -0.25519 0.82994 0.08676
 H124 H -0.22323 1.02004 0.07431
 C125 C 0.77305 0.14422 0.61559
 C126 C 0.75605 0.09244 0.59394
 C127 C 0.70073 0.08739 0.55951
 C128 C 0.68537 0.03679 0.53388
 H129 H 0.78261 0.05369 0.60236
 H130 H 0.67085 0.12499 0.55745
 H131 H 0.74795 0.18309 0.60428
 H132 H 0.71546 -0.00062 0.53615
 C133 C 0.41149 0.32883 0.39344
 C134 C 0.41846 0.27632 0.36757
 C135 C 0.43604 0.22504 0.40055
 C136 C 0.42703 0.17122 0.37902
 H137 H 0.40885 0.27086 0.32191
 H138 H 0.45506 0.23139 0.44327
 H139 H 0.41627 0.33343 0.43987
 H140 H 0.40518 0.16541 0.33753
 C141 C 0.85596 0.20539 0.65063
 C142 C 0.87415 0.22727 0.60124
 C143 C 0.90612 0.28278 0.60014
 C144 C 0.93112 0.29946 0.55131
 H145 H 0.86576 0.20332 0.56106
 H146 H 0.90805 0.31048 0.63883
 H147 H 0.86710 0.22738 0.69122
 H148 H 0.92928 0.27078 0.51326
 C149 C 0.09471 0.67045 -0.07293
 C150 C 0.05930 0.71166 -0.09549
 C151 C 0.05106 0.76898 -0.06524
 C152 C 0.01310 0.80966 -0.08469
 H153 H 0.03900 0.70477 -0.13748
 H154 H 0.07808 0.77869 -0.02741
 H155 H 0.11456 0.67955 -0.03099
 H156 H -0.01496 0.79943 -0.12165
 C157 C 0.63344 0.79894 1.12956
 C158 C 0.64076 0.76329 1.08348
 C159 C 0.60611 0.71006 1.07694
 C160 C 0.62183 0.66934 1.03745
 H161 H 0.67157 0.77343 1.04953
 H162 H 0.56710 0.70466 1.10373
 H163 H 0.60221 0.78684 1.16257
 H164 H 0.66206 0.67435 1.01226
 C165 C 0.42221 0.39227 1.30967
 C166 C 0.40566 0.43579 1.27560
 C167 C 0.43702 0.44351 1.22056
 C168 C 0.42590 0.48917 1.18747
 H169 H 0.36841 0.46457 1.28701
 H170 H 0.46952 0.41045 1.20648
 H171 H 0.46005 0.36480 1.29649
 H172 H 0.39464 0.52312 1.20202
 C173 C 0.65264 -0.11016 0.18679
 C174 C 0.59702 -0.10115 0.20590
 C175 C 0.58531 -0.07218 0.26210
 C176 C 0.52945 -0.06663 0.28157
 H177 H 0.55985 -0.11857 0.18121
 H178 H 0.62258 -0.05912 0.28919
 H179 H 0.68969 -0.09026 0.20976
 H180 H 0.49254 -0.07958 0.25395
 C181 C -0.16246 1.11085 -0.30311
 C182 C -0.10905 1.10890 -0.27710
 C183 C -0.09733 1.07508 -0.22512
 C184 C -0.04641 1.08362 -0.19609
 H185 H -0.07354 1.13561 -0.29279
 H186 H -0.13119 1.04688 -0.20874
 H187 H -0.19767 1.08297 -0.28881
 H188 H -0.01443 1.11389 -0.21247
 C189 C 1.07863 0.59418 0.84738
 C190 C 1.10592 0.56198 0.80556
 C191 C 1.07455 0.54068 0.75337
 C192 C 1.10606 0.51927 0.70828
 H193 H 1.15356 0.55330 0.80844
 H194 H 1.02642 0.54582 0.75037
 H195 H 1.03162 0.60528 0.84302
 H196 H 1.15445 0.51811 0.71052
 C197 C 0.68873 0.65300 0.61751
 C198 C 0.72673 0.60768 0.62227
 C199 C 0.78440 0.60268 0.59121
 C200 C 0.82410 0.56240 0.60781
 H201 H 0.71560 0.57302 0.65070
 H202 H 0.79398 0.63069 0.55584
 H203 H 0.69999 0.68714 0.58848
 H204 H 0.81294 0.53634 0.64434
 C205 C 0.80785 0.39335 1.14699
 C206 C 0.78364 0.39054 1.09420
 C207 C 0.72279 0.41269 1.08323
 C208 C 0.70157 0.41503 1.02945
 H209 H 0.80882 0.37046 1.05872
 H210 H 0.69518 0.42740 1.11940
 H211 H 0.78330 0.41513 1.18193
 H212 H 0.73026 0.40295 0.99325
 C213 C 0.31269 1.13229 -0.11541
 C214 C 0.29484 1.07989 -0.09998
 C215 C 0.23725 1.07523 -0.07071
 C216 C 0.21566 1.02423 -0.05538
 H217 H 0.32039 1.04089 -0.11219
 H218 H 0.20978 1.11447 -0.06527
 H219 H 0.28760 1.17078 -0.10046
 H220 H 0.24308 0.98487 -0.05888
 C221 C 0.17579 -0.13558 0.36340
 C222 C 0.19520 -0.12076 0.41649
 C223 C 0.25479 -0.09443 0.42288
 C224 C 0.28181 -0.08453 0.47379
 H225 H 0.16724 -0.12615 0.45389
 H226 H 0.27794 -0.08347 0.38378
 H227 H 0.20499 -0.12799 0.32724
 H228 H 0.26070 -0.09746 0.51323
 C229 C 0.59201 -0.29489 0.64054
 C230 C 0.58167 -0.27552 0.58774
 C231 C 0.54703 -0.22129 0.57861
 C232 C 0.54428 -0.19972 0.52595
 H233 H 0.60225 -0.29806 0.55089
 H234 H 0.52873 -0.19656 0.61529
 H235 H 0.56940 -0.27377 0.67710
 H236 H 0.56458 -0.22443 0.49021
 C237 C 1.08134 0.80810 0.38616
 C238 C 1.10591 0.76878 0.42052
 C239 C 1.06935 0.72281 0.44517
 C240 C 1.09568 0.68073 0.47487
 H241 H 1.15396 0.76679 0.42592
 H242 H 1.02214 0.72063 0.43496
 H243 H 1.03346 0.80714 0.37892
 H244 H 1.14315 0.68343 0.48389
 C245 C -0.12302 1.30968 0.13155
 C246 C -0.06860 1.29326 0.11308
 C247 C -0.05853 1.23319 0.09089
 C248 C -0.01069 1.21671 0.05959
 H249 H -0.03204 1.32353 0.11536
 H250 H -0.09207 1.20133 0.10026
 H251 H -0.15985 1.27997 0.12571
 H252 H 0.02146 1.24853 0.04684
 C253 C 0.38991 0.19658 0.85003
 C254 C 0.40692 0.22055 0.90045
 C255 C 0.42697 0.28114 0.90572
 C256 C 0.45120 0.30088 0.95503
 H257 H 0.40390 0.19532 0.93901
 H258 H 0.42003 0.31001 0.87018
 H259 H 0.39493 0.22037 0.81080
 H260 H 0.45984 0.27084 0.98931
 C261 C 0.62868 0.62771 0.70384
 C262 C 0.57715 0.60495 0.72068
 C263 C 0.57402 0.57522 0.77598
 C264 C 0.52436 0.54958 0.79398
 H265 H 0.53765 0.60868 0.69388
 H266 H 0.61320 0.57607 0.80355
 H267 H 0.66832 0.62189 0.73013
 H268 H 0.48502 0.54864 0.76669
 C269 C 0.37193 0.10058 0.79839
 C270 C 0.41744 0.10564 0.76202
 C271 C 0.42224 0.06926 0.70879
 C272 C 0.45523 0.08777 0.66564
 H273 H 0.45018 0.13917 0.76980
 H274 H 0.39689 0.02962 0.70379
 H275 H 0.33963 0.06680 0.78954
 H276 H 0.47761 0.12916 0.67083
 C277 C 0.09418 0.85228 0.29275
 C278 C 0.09933 0.90303 0.26695
 C279 C 0.07954 0.91042 0.20714
 C280 C 0.06383 0.96319 0.18951
 H281 H 0.11769 0.94001 0.29075
 H282 H 0.07677 0.87273 0.17791
 H283 H 0.07156 0.81662 0.27061
 H284 H 0.06230 0.99972 0.22036
 C285 C 0.89967 0.38177 0.20885
 C286 C 0.89220 0.43196 0.23944
 C287 C 0.92494 0.44052 0.29416
 C288 C 0.91590 0.48701 0.32971
 H289 H 0.86085 0.46523 0.22579
 H290 H 0.95556 0.40609 0.30690
 H291 H 0.93254 0.35032 0.22378
 H292 H 0.88568 0.52188 0.31740
   
