data_POSCAR
  _audit_creation_date              2014-09-24
  _audit_creation_method            'ToBaCCo'
  _symmetry_space_group_name_H-M    'P1'
  _symmetry_Int_Tables_number       1
  _symmetry_cell_setting            triclinic
  loop_
  _symmetry_equiv_pos_as_xyz
 x,y,z
_cell_length_a 31.6320
_cell_length_b 31.6150
_cell_length_c 31.6412
_cell_angle_alpha 89.942600
_cell_angle_beta 90.146400
_cell_angle_gamma 89.915600
loop_
  _atom_site_label
  _atom_site_type_symbol
  _atom_site_fract_x
  _atom_site_fract_y
  _atom_site_fract_z
C1 C 0.26107 1.10893 -0.00231
 C2 C 0.26745 1.08525 0.03440
 C3 C 0.26662 1.04131 0.03264
 C4 C 0.25493 1.02011 -0.00493
 C5 C 0.24808 1.04449 -0.04175
 C6 C 0.25244 1.08855 -0.04055
 C7 C 0.24892 0.97318 -0.00469
 C8 C 0.25077 0.94878 -0.04206
 C9 C 0.24575 0.90473 -0.04064
 C10 C 0.24178 0.88437 -0.00122
 C11 C 0.24042 0.90841 0.03614
 C12 C 0.24157 0.95220 0.03386
 H13 H 0.26244 1.14324 -0.00104
 H14 H 0.27453 1.02424 0.06120
 H15 H 0.23885 1.02985 -0.07123
 H16 H 0.25645 0.96343 -0.07239
 H17 H 0.23992 0.85018 0.00037
 H18 H 0.23715 0.96941 0.06299
 C19 C 0.76400 0.60538 0.49638
 C20 C 0.77029 0.58172 0.53307
 C21 C 0.76861 0.53782 0.53148
 C22 C 0.75636 0.51667 0.49404
 C23 C 0.74963 0.54110 0.45723
 C24 C 0.75468 0.58505 0.45832
 C25 C 0.74960 0.46983 0.49438
 C26 C 0.75064 0.44538 0.45700
 C27 C 0.74491 0.40141 0.45846
 C28 C 0.74097 0.38114 0.49795
 C29 C 0.74039 0.40521 0.53533
 C30 C 0.74232 0.44898 0.53302
 H31 H 0.76589 0.63963 0.49754
 H32 H 0.77632 0.52084 0.56013
 H33 H 0.73993 0.52667 0.42782
 H34 H 0.75628 0.45992 0.42661
 H35 H 0.73856 0.34698 0.49958
 H36 H 0.73857 0.46627 0.56220
 C37 C 0.74032 0.99753 1.10683
 C38 C 0.74803 0.95895 1.08672
 C39 C 0.75144 0.95739 1.04256
 C40 C 0.74440 0.99413 1.01790
 C41 C 0.73366 1.03197 1.03904
 C42 C 0.73386 1.03409 1.08290
 C43 C 0.74882 0.99397 0.97074
 C44 C 0.75446 1.03239 0.94871
 C45 C 0.75480 1.03378 0.90481
 C46 C 0.75402 0.99583 0.88172
 C47 C 0.75142 0.95679 0.90304
 C48 C 0.74734 0.95612 0.94710
 H49 H 0.73957 0.99915 1.14111
 H50 H 0.75999 0.92762 1.02813
 H51 H 0.72546 1.06047 1.02203
 H52 H 0.75861 1.06204 0.96509
 H53 H 0.75553 0.99665 0.84751
 H54 H 0.74283 0.92587 0.96232
 C55 C 0.24128 0.49923 0.60624
 C56 C 0.24830 0.46062 0.58603
 C57 C 0.25125 0.45903 0.54187
 C58 C 0.24447 0.49589 0.51731
 C59 C 0.23450 0.53383 0.53860
 C60 C 0.23509 0.53583 0.58241
 C61 C 0.24831 0.49573 0.47012
 C62 C 0.25407 0.53409 0.44800
 C63 C 0.25389 0.53547 0.40410
 C64 C 0.25240 0.49751 0.38105
 C65 C 0.24962 0.45852 0.40244
 C66 C 0.24610 0.45792 0.44653
 H67 H 0.24084 0.50082 0.64049
 H68 H 0.25920 0.42911 0.52746
 H69 H 0.22659 0.56254 0.52185
 H70 H 0.25872 0.56370 0.46432
 H71 H 0.25352 0.49827 0.34682
 H72 H 0.24145 0.42772 0.46182
 C73 C 1.10540 0.25146 0.00131
 C74 C 1.08491 0.25185 0.04038
 C75 C 1.04057 0.25245 0.04210
 C76 C 1.01631 0.24980 0.00453
 C77 C 1.03816 0.24618 -0.03423
 C78 C 1.08187 0.24929 -0.03589
 C79 C 0.96885 0.25097 0.00479
 C80 C 0.94661 0.25941 -0.03301
 C81 C 0.90293 0.25563 -0.03532
 C82 C 0.87966 0.24838 0.00180
 C83 C 0.90077 0.24351 0.04075
 C84 C 0.94511 0.24329 0.04182
 H85 H 1.13966 0.25269 -0.00021
 H86 H 1.02572 0.25519 0.07269
 H87 H 1.02202 0.24100 -0.06384
 H88 H 0.96272 0.26867 -0.06159
 H89 H 0.84544 0.24663 0.00048
 H90 H 0.96041 0.23689 0.07171
 C91 C 0.60761 0.74975 0.49963
 C92 C 0.58754 0.75065 0.53886
 C93 C 0.54331 0.75201 0.54113
 C94 C 0.51855 0.74973 0.50390
 C95 C 0.53988 0.74570 0.46485
 C96 C 0.58365 0.74795 0.46267
 C97 C 0.47115 0.75182 0.50489
 C98 C 0.44858 0.76061 0.46740
 C99 C 0.40486 0.75780 0.46573
 C100 C 0.38190 0.75109 0.50309
 C101 C 0.40338 0.74585 0.54179
 C102 C 0.44774 0.74472 0.54229
 H103 H 0.64185 0.75039 0.49786
 H104 H 0.52900 0.75509 0.57192
 H105 H 0.52328 0.74090 0.43542
 H106 H 0.46436 0.76934 0.43850
 H107 H 0.34766 0.75000 0.50207
 H108 H 0.46330 0.73806 0.57198
 C109 C -0.00295 0.74058 -0.10646
 C110 C 0.03378 0.73427 -0.08281
 C111 C 0.03218 0.73513 -0.03899
 C112 C -0.00526 0.74684 -0.01770
 C113 C -0.04225 0.75354 -0.04200
 C114 C -0.04121 0.74911 -0.08609
 C115 C -0.00460 0.75277 0.02922
 C116 C -0.04178 0.75093 0.05382
 C117 C -0.03994 0.75560 0.09790
 C118 C -0.00031 0.75922 0.11802
 C119 C 0.03685 0.76062 0.09379
 C120 C 0.03419 0.75985 0.05003
 H121 H -0.00162 0.73914 -0.14071
 H122 H 0.06086 0.72720 -0.02215
 H123 H -0.07170 0.76264 -0.02730
 H124 H -0.07224 0.74548 0.03923
 H125 H 0.00167 0.76083 0.15220
 H126 H 0.06322 0.76435 0.03270
 C127 C 0.49502 0.23948 0.39371
 C128 C 0.53190 0.23248 0.41694
 C129 C 0.53083 0.23331 0.46077
 C130 C 0.49386 0.24561 0.48248
 C131 C 0.45670 0.25296 0.45860
 C132 C 0.45718 0.24863 0.41451
 C133 C 0.49520 0.25141 0.52940
 C134 C 0.45830 0.25002 0.55438
 C135 C 0.46067 0.25451 0.59840
 C136 C 0.50050 0.25760 0.61815
 C137 C 0.53746 0.25857 0.59358
 C138 C 0.53434 0.25786 0.54982
 H139 H 0.49583 0.23812 0.35946
 H140 H 0.55957 0.22490 0.47728
 H141 H 0.42753 0.26249 0.47357
 H142 H 0.42759 0.24507 0.54019
 H143 H 0.50270 0.25916 0.65230
 H144 H 0.56325 0.26195 0.53219
 C145 C 1.11695 0.00140 0.24056
 C146 C 1.09650 0.04093 0.24396
 C147 C 1.05239 0.04234 0.24876
 C148 C 1.02818 0.00484 0.24739
 C149 C 1.04925 -0.03380 0.24048
 C150 C 1.09301 -0.03606 0.23951
 C151 C 0.98136 0.00492 0.25367
 C152 C 0.96081 -0.03248 0.26686
 C153 C 0.91696 -0.03486 0.26779
 C154 C 0.89270 0.00121 0.26002
 C155 C 0.91239 0.03940 0.24995
 C156 C 0.95643 0.04116 0.24557
 H157 H 1.15115 -0.00027 0.23887
 H158 H 1.03742 0.07266 0.25400
 H159 H 1.03204 -0.06302 0.23636
 H160 H 0.97838 -0.06048 0.27574
 H161 H 0.85845 -0.00046 0.26138
 H162 H 0.97059 0.07054 0.23538
 C163 C 0.61780 0.49844 0.74023
 C164 C 0.59822 0.53834 0.74375
 C165 C 0.55427 0.54081 0.74876
 C166 C 0.52920 0.50396 0.74766
 C167 C 0.54934 0.46473 0.74080
 C168 C 0.59309 0.46147 0.73943
 C169 C 0.48248 0.50541 0.75451
 C170 C 0.46129 0.46871 0.76831
 C171 C 0.41751 0.46740 0.76999
 C172 C 0.39389 0.50389 0.76234
 C173 C 0.41423 0.54160 0.75168
 C174 C 0.45828 0.54226 0.74658
 H175 H 0.65194 0.49617 0.73831
 H176 H 0.54014 0.57152 0.75403
 H177 H 0.53142 0.43589 0.73704
 H178 H 0.47822 0.44028 0.77700
 H179 H 0.35966 0.50281 0.76417
 H180 H 0.47299 0.57121 0.73594
 C181 C 1.00447 1.11996 0.75161
 C182 C 0.96673 1.09739 0.74529
 C183 C 0.96801 1.05352 0.74200
 C184 C 1.00568 1.03064 0.74946
 C185 C 1.04325 1.05379 0.75644
 C186 C 1.04302 1.09809 0.75602
 C187 C 1.00501 0.98314 0.75028
 C188 C 1.04245 0.95873 0.74687
 C189 C 1.04065 0.91441 0.74765
 C190 C 1.00155 0.89398 0.74901
 C191 C 0.96443 0.91760 0.75171
 C192 C 0.96622 0.96140 0.75442
 H193 H 1.00395 1.15423 0.75302
 H194 H 0.93885 1.03785 0.73373
 H195 H 1.07299 1.03809 0.76247
 H196 H 1.07305 0.97342 0.74341
 H197 H 0.99993 0.85969 0.74806
 H198 H 0.93672 0.97767 0.75975
 C199 C 0.50578 0.61979 0.24918
 C200 C 0.46768 0.59785 0.24304
 C201 C 0.46808 0.55406 0.23994
 C202 C 0.50521 0.53047 0.24749
 C203 C 0.54334 0.55293 0.25417
 C204 C 0.54397 0.59728 0.25354
 C205 C 0.50329 0.48302 0.24867
 C206 C 0.54009 0.45778 0.24542
 C207 C 0.53727 0.41359 0.24641
 C208 C 0.49781 0.39397 0.24793
 C209 C 0.46117 0.41835 0.25052
 C210 C 0.46394 0.46216 0.25292
 H211 H 0.50572 0.65405 0.25052
 H212 H 0.43854 0.53906 0.23187
 H213 H 0.57278 0.53665 0.26014
 H214 H 0.57105 0.47165 0.24192
 H215 H 0.49562 0.35973 0.24720
 H216 H 0.43481 0.47910 0.25814
 O217 O 0.26689 0.14124 0.17724
 O218 O 0.31690 0.13516 0.23896
 O219 O 0.15436 0.18373 0.23880
 O220 O 0.13664 0.23934 0.28186
 O221 O 0.20211 0.24912 0.12766
 O222 O 0.26050 0.29908 0.11765
 O223 O 0.25689 0.31299 0.34422
 O224 O 0.20904 0.25147 0.35570
 O225 O 0.36889 0.25354 0.29633
 O226 O 0.37877 0.20147 0.23595
 O227 O 0.31641 0.35988 0.24019
 O228 O 0.25519 0.36767 0.18487
 O229 O 0.25526 0.36161 0.29121
 O230 O 0.21211 0.37294 0.23267
 O231 O 0.36763 0.30932 0.24333
 O232 O 0.38036 0.25628 0.19004
 O233 O 0.31777 0.25620 0.34692
 O234 O 0.26499 0.21035 0.36406
 O235 O 0.26509 0.19321 0.12733
 O236 O 0.30598 0.25173 0.11436
 O237 O 0.15057 0.24495 0.17762
 O238 O 0.13636 0.29107 0.23546
 O239 O 0.20823 0.13584 0.23640
 O240 O 0.26196 0.12710 0.28380
 Zr241 Zr 0.26214 0.17388 0.23582
 O242 O 0.29815 0.21224 0.27663
 Zr243 Zr 0.18426 0.24420 0.23524
 O244 O 0.21863 0.28710 0.27367
 Zr245 Zr 0.25916 0.24876 0.16178
 O246 O 0.29793 0.28863 0.19782
 Zr247 Zr 0.26027 0.25332 0.31289
 O248 O 0.22341 0.20988 0.27686
 Zr249 Zr 0.33511 0.25244 0.23935
 O250 O 0.30121 0.21225 0.19853
 Zr251 Zr 0.25894 0.32527 0.23660
 O252 O 0.21946 0.28728 0.19810
 O253 O 0.22152 0.20720 0.19614
 O254 O 0.29892 0.29247 0.27744
 C255 C 0.26793 0.15459 0.13875
 C256 C 0.16902 0.14549 0.23886
 C257 C 0.16330 0.24803 0.13924
 C258 C 0.25506 0.35135 0.33019
 C259 C 0.35656 0.25525 0.33484
 C260 C 0.35521 0.34770 0.24303
 H261 H 0.31565 0.19391 0.29500
 H262 H 0.31583 0.30599 0.17900
 H263 H 0.20447 0.18834 0.17787
 H264 H 0.19865 0.30429 0.29043
 H265 H 0.19186 0.22636 0.34826
 H266 H 0.14415 0.25890 0.30507
 H267 H 0.40857 0.26213 0.20257
 H268 H 0.33206 0.23998 0.12715
 H269 H 0.27368 0.18284 0.35214
 H270 H 0.24277 0.13731 0.30627
 H271 H 0.28323 0.36865 0.17112
 H272 H 0.23677 0.31822 0.12473
 H273 H 0.30964 0.10657 0.22828
 H274 H 0.37816 0.18581 0.26302
 H275 H 0.14538 0.31339 0.21547
 H276 H 0.18741 0.36283 0.24887
 O277 O 0.75465 0.87196 0.20394
 O278 O 0.70402 0.88264 0.26155
 O279 O 0.86179 0.82188 0.27007
 O280 O 0.87357 0.76573 0.31414
 O281 O 0.81796 0.76114 0.15622
 O282 O 0.75659 0.71439 0.14231
 O283 O 0.74940 0.70335 0.37046
 O284 O 0.79883 0.75965 0.38280
 O285 O 0.64184 0.76003 0.31821
 O286 O 0.63474 0.81577 0.25960
 O287 O 0.68981 0.65543 0.26058
 O288 O 0.75412 0.64320 0.21213
 O289 O 0.74731 0.65264 0.31946
 O290 O 0.79369 0.63689 0.26204
 O291 O 0.64099 0.70831 0.26058
 O292 O 0.63467 0.76490 0.20907
 O293 O 0.69263 0.75773 0.36941
 O294 O 0.74196 0.80617 0.38555
 O295 O 0.75677 0.82170 0.15248
 O296 O 0.71374 0.76418 0.13647
 O297 O 0.86577 0.76237 0.21011
 O298 O 0.87338 0.71423 0.26648
 O299 O 0.81015 0.87204 0.26644
 O300 O 0.74891 0.88696 0.30667
 Zr301 Zr 0.75411 0.83822 0.26118
 O302 O 0.71425 0.80232 0.29989
 Zr303 Zr 0.82850 0.76397 0.26458
 O304 O 0.79030 0.72330 0.30093
 Zr305 Zr 0.75791 0.76439 0.18663
 O306 O 0.71507 0.72636 0.22120
 Zr307 Zr 0.74969 0.76058 0.33728
 O308 O 0.79022 0.80157 0.30390
 Zr309 Zr 0.67699 0.76352 0.26126
 O310 O 0.71512 0.80188 0.22182
 Zr311 Zr 0.74941 0.68709 0.26239
 O312 O 0.79267 0.72310 0.22555
 O313 O 0.79543 0.80346 0.22362
 O314 O 0.71008 0.72248 0.30100
 C315 C 0.75514 0.86025 0.16515
 C316 C 0.84863 0.86046 0.27018
 C317 C 0.85610 0.76042 0.17089
 C318 C 0.74806 0.66481 0.35816
 C319 C 0.65421 0.75757 0.35698
 C320 C 0.65137 0.66929 0.26015
 H321 H 0.69721 0.82134 0.31790
 H322 H 0.69733 0.71006 0.20126
 H323 H 0.81439 0.82156 0.20656
 H324 H 0.80852 0.70523 0.31885
 H325 H 0.81738 0.78411 0.37674
 H326 H 0.86438 0.74569 0.33630
 H327 H 0.60554 0.75931 0.21926
 H328 H 0.68745 0.77655 0.14802
 H329 H 0.75895 0.83096 0.37724
 H330 H 0.76914 0.88040 0.32964
 H331 H 0.72909 0.64700 0.19370
 H332 H 0.77810 0.69356 0.15159
 H333 H 0.68482 0.87507 0.23799
 H334 H 0.63498 0.82981 0.28752
 H335 H 0.86324 0.69220 0.24670
 H336 H 0.81742 0.64530 0.28062
 O337 O 0.75616 0.13613 0.80034
 O338 O 0.71817 0.12091 0.74493
 O339 O 0.86597 0.20074 0.75094
 O340 O 0.88069 0.25735 0.71544
 O341 O 0.80176 0.24877 0.86358
 O342 O 0.74646 0.28698 0.87648
 O343 O 0.75002 0.30286 0.63699
 O344 O 0.79113 0.24919 0.62252
 O345 O 0.63896 0.24998 0.69593
 O346 O 0.62902 0.20367 0.74744
 O347 O 0.69575 0.36060 0.74800
 O348 O 0.75093 0.37710 0.78797
 O349 O 0.74555 0.35563 0.68552
 O350 O 0.80200 0.36726 0.74861
 O351 O 0.64382 0.31104 0.74485
 O352 O 0.63545 0.25310 0.80230
 O353 O 0.68784 0.25290 0.64332
 O354 O 0.75146 0.19668 0.63295
 O355 O 0.75062 0.18332 0.85429
 O356 O 0.69376 0.24318 0.86153
 O357 O 0.85563 0.25574 0.81646
 O358 O 0.86493 0.30801 0.75280
 O359 O 0.81961 0.14607 0.74526
 O360 O 0.75657 0.13498 0.69360
 Zr361 Zr 0.75788 0.17447 0.74756
 O362 O 0.71345 0.20963 0.71205
 Zr363 Zr 0.82691 0.25303 0.75460
 O364 O 0.79043 0.28756 0.71036
 Zr365 Zr 0.74967 0.24474 0.82478
 O366 O 0.71368 0.28790 0.78854
 Zr367 Zr 0.74876 0.24951 0.67396
 O368 O 0.79382 0.21480 0.70989
 Zr369 Zr 0.67609 0.25113 0.74919
 O370 O 0.71267 0.20748 0.78513
 Zr371 Zr 0.75018 0.32502 0.74623
 O372 O 0.78633 0.28999 0.79083
 O373 O 0.79314 0.20973 0.79025
 O374 O 0.70996 0.28974 0.70823
 C375 C 0.75311 0.14524 0.83933
 C376 C 0.85744 0.16168 0.74670
 C377 C 0.84051 0.25386 0.85454
 C378 C 0.74646 0.34149 0.64708
 C379 C 0.64929 0.25245 0.65728
 C380 C 0.65724 0.34978 0.74529
 H381 H 0.69542 0.19028 0.69534
 H382 H 0.69640 0.30582 0.80748
 H383 H 0.81182 0.19206 0.80819
 H384 H 0.80922 0.30451 0.69202
 H385 H 0.81968 0.24658 0.63505
 H386 H 0.87046 0.25223 0.68632
 H387 H 0.60751 0.26345 0.79244
 H388 H 0.69949 0.22674 0.88762
 H389 H 0.72223 0.18673 0.62798
 H390 H 0.78359 0.13913 0.67842
 H391 H 0.74359 0.36574 0.81612
 H392 H 0.75524 0.31489 0.86546
 H393 H 0.68899 0.13180 0.74789
 H394 H 0.63828 0.18132 0.76735
 H395 H 0.86126 0.32275 0.78014
 H396 H 0.81204 0.37182 0.71936
 O397 O 0.23869 0.84500 0.81477
 O398 O 0.28555 0.85841 0.75040
 O399 O 0.12758 0.79721 0.74972
 O400 O 0.11223 0.74441 0.70634
 O401 O 0.17860 0.73302 0.85932
 O402 O 0.24057 0.68511 0.86749
 O403 O 0.23312 0.68073 0.64015
 O404 O 0.18303 0.74127 0.63258
 O405 O 0.34422 0.73842 0.68661
 O406 O 0.35564 0.78806 0.73996
 O407 O 0.29519 0.62979 0.74531
 O408 O 0.23572 0.61699 0.79604
 O409 O 0.23616 0.63001 0.69119
 O410 O 0.19142 0.61515 0.75059
 O411 O 0.34633 0.68027 0.74245
 O412 O 0.35729 0.73488 0.79542
 O413 O 0.29079 0.73836 0.63820
 O414 O 0.23907 0.78393 0.62524
 O415 O 0.23977 0.79140 0.86281
 O416 O 0.28388 0.73461 0.87260
 O417 O 0.12793 0.73667 0.80816
 O418 O 0.11663 0.69031 0.74985
 O419 O 0.17797 0.84842 0.75356
 O420 O 0.23592 0.86525 0.71123
 Zr421 Zr 0.23542 0.81434 0.75460
 O422 O 0.27255 0.77869 0.71197
 Zr423 Zr 0.16130 0.74016 0.75180
 O424 O 0.19613 0.70076 0.71154
 Zr425 Zr 0.23646 0.73711 0.82553
 O426 O 0.27608 0.69992 0.78713
 Zr427 Zr 0.23545 0.73843 0.67416
 O428 O 0.19773 0.77889 0.71199
 Zr429 Zr 0.31219 0.73748 0.74568
 O430 O 0.27737 0.77564 0.78908
 Zr431 Zr 0.23780 0.66325 0.74764
 O432 O 0.19809 0.69804 0.78820
 O433 O 0.19658 0.77788 0.79265
 O434 O 0.27605 0.69826 0.70703
 C435 C 0.24065 0.83060 0.85297
 C436 C 0.13946 0.83593 0.75061
 C437 C 0.13987 0.73313 0.84654
 C438 C 0.23392 0.64200 0.65279
 C439 C 0.32998 0.73871 0.64830
 C440 C 0.33388 0.64167 0.74348
 H441 H 0.28933 0.79825 0.69429
 H442 H 0.29464 0.68252 0.80540
 H443 H 0.17874 0.79542 0.81144
 H444 H 0.17650 0.68369 0.69423
 H445 H 0.16599 0.76625 0.64086
 H446 H 0.12043 0.72692 0.68179
 H447 H 0.38570 0.73161 0.78263
 H448 H 0.30939 0.74740 0.85986
 H449 H 0.24178 0.81173 0.63916
 H450 H 0.21715 0.85707 0.68754
 H451 H 0.26094 0.62073 0.81420
 H452 H 0.21734 0.66555 0.85998
 H453 H 0.30284 0.85541 0.77633
 H454 H 0.35255 0.80562 0.76562
 H455 H 0.12629 0.66853 0.77022
 H456 H 0.16866 0.62264 0.73043
 O457 O 0.25393 0.37239 0.70503
 O458 O 0.20268 0.38336 0.76248
 O459 O 0.36047 0.32266 0.77220
 O460 O 0.37236 0.26663 0.81619
 O461 O 0.31686 0.26107 0.65834
 O462 O 0.25540 0.21437 0.64468
 O463 O 0.24779 0.20509 0.87286
 O464 O 0.29742 0.26125 0.88486
 O465 O 0.14056 0.26147 0.82000
 O466 O 0.13379 0.31710 0.76104
 O467 O 0.18836 0.15659 0.76325
 O468 O 0.25274 0.14377 0.71500
 O469 O 0.24573 0.15402 0.82223
 O470 O 0.29217 0.13773 0.76505
 O471 O 0.13965 0.20959 0.76270
 O472 O 0.13344 0.26574 0.71091
 O473 O 0.19125 0.25959 0.87133
 O474 O 0.24070 0.30812 0.88714
 O475 O 0.25598 0.32172 0.65397
 O476 O 0.21271 0.26427 0.63837
 O477 O 0.36459 0.26282 0.71228
 O478 O 0.37202 0.21495 0.76892
 O479 O 0.30893 0.37289 0.76812
 O480 O 0.24767 0.38859 0.80722
 Zr481 Zr 0.25294 0.33912 0.76255
 O482 O 0.21302 0.30363 0.80154
 Zr483 Zr 0.32723 0.26476 0.76668
 O484 O 0.28892 0.22445 0.80328
 Zr485 Zr 0.25681 0.26473 0.68860
 O486 O 0.21384 0.22708 0.72339
 Zr487 Zr 0.24833 0.26208 0.83928
 O488 O 0.28893 0.30274 0.80562
 Zr489 Zr 0.17578 0.26466 0.76310
 O490 O 0.21401 0.30258 0.72336
 Zr491 Zr 0.24803 0.18806 0.76492
 O492 O 0.29142 0.22367 0.72789
 O493 O 0.29433 0.30403 0.72537
 O494 O 0.20872 0.22383 0.80318
 C495 C 0.25451 0.36037 0.66634
 C496 C 0.34734 0.36124 0.77218
 C497 C 0.35498 0.26048 0.67307
 C498 C 0.24640 0.16647 0.86084
 C499 C 0.15287 0.25928 0.85881
 C500 C 0.14997 0.17056 0.76261
 H501 H 0.19599 0.32281 0.81937
 H502 H 0.19609 0.21068 0.70353
 H503 H 0.31341 0.32198 0.70829
 H504 H 0.30707 0.20646 0.82135
 H505 H 0.31614 0.28553 0.87859
 H506 H 0.36306 0.24684 0.83853
 H507 H 0.10428 0.26049 0.72119
 H508 H 0.18641 0.27673 0.64981
 H509 H 0.25827 0.33256 0.87896
 H510 H 0.26695 0.38174 0.83090
 H511 H 0.22772 0.14746 0.69653
 H512 H 0.27688 0.19358 0.65412
 H513 H 0.18394 0.37600 0.73849
 H514 H 0.13363 0.33099 0.78903
 H515 H 0.36188 0.19283 0.74924
 H516 H 0.31594 0.14627 0.78351
 O517 O 0.77095 0.63952 0.67771
 O518 O 0.82098 0.63359 0.73950
 O519 O 0.65846 0.68234 0.73875
 O520 O 0.64056 0.73788 0.78167
 O521 O 0.70662 0.74752 0.62773
 O522 O 0.76505 0.79722 0.61773
 O523 O 0.76033 0.81145 0.84453
 O524 O 0.71279 0.74969 0.85586
 O525 O 0.87279 0.75210 0.79685
 O526 O 0.88286 0.69989 0.73668
 O527 O 0.82044 0.85826 0.74069
 O528 O 0.75956 0.86623 0.68520
 O529 O 0.75908 0.86007 0.79150
 O530 O 0.71610 0.87127 0.73257
 O531 O 0.87167 0.80770 0.74382
 O532 O 0.88450 0.75461 0.69060
 O533 O 0.82155 0.75501 0.84731
 O534 O 0.76898 0.70895 0.86443
 O535 O 0.76937 0.69138 0.62768
 O536 O 0.81066 0.74997 0.61492
 O537 O 0.65495 0.74348 0.67758
 O538 O 0.64058 0.78965 0.73542
 O539 O 0.71228 0.63436 0.73665
 O540 O 0.76592 0.62557 0.78423
 Zr541 Zr 0.76622 0.67230 0.73620
 O542 O 0.80211 0.71070 0.77708
 Zr543 Zr 0.68842 0.74272 0.73530
 O544 O 0.72261 0.78559 0.77384
 Zr545 Zr 0.76354 0.74707 0.66203
 O546 O 0.80210 0.78702 0.69819
 Zr547 Zr 0.76412 0.75181 0.81319
 O548 O 0.72737 0.70837 0.77707
 Zr549 Zr 0.83915 0.75084 0.73982
 O550 O 0.80543 0.71057 0.69895
 Zr551 Zr 0.76300 0.82371 0.73686
 O552 O 0.72374 0.78568 0.69820
 O553 O 0.72576 0.70563 0.69636
 O554 O 0.80287 0.79092 0.77780
 C555 C 0.77204 0.65276 0.63918
 C556 C 0.67309 0.64411 0.73889
 C557 C 0.66779 0.74650 0.63923
 C558 C 0.75854 0.84981 0.83050
 C559 C 0.86036 0.75404 0.83530
 C560 C 0.85921 0.84606 0.74359
 H561 H 0.81957 0.69241 0.79553
 H562 H 0.82007 0.80437 0.67942
 H563 H 0.70873 0.68679 0.67807
 H564 H 0.70254 0.80277 0.79052
 H565 H 0.69574 0.72450 0.84836
 H566 H 0.64813 0.75720 0.80505
 H567 H 0.91268 0.76047 0.70318
 H568 H 0.83651 0.73768 0.62767
 H569 H 0.77722 0.68131 0.85248
 H570 H 0.74656 0.63574 0.80657
 H571 H 0.78759 0.86699 0.67141
 H572 H 0.74156 0.81661 0.62495
 H573 H 0.81375 0.60500 0.72882
 H574 H 0.88216 0.68427 0.76377
 H575 H 0.64961 0.81191 0.71538
 H576 H 0.69148 0.86135 0.74902
 O577 O 0.25569 0.63810 0.29972
 O578 O 0.21722 0.62339 0.24457
 O579 O 0.36540 0.70264 0.25011
 O580 O 0.38019 0.75923 0.21473
 O581 O 0.30196 0.75167 0.36313
 O582 O 0.24760 0.78693 0.37802
 O583 O 0.24928 0.80575 0.13731
 O584 O 0.29017 0.75200 0.12225
 O585 O 0.13844 0.75286 0.19641
 O586 O 0.12859 0.70645 0.24798
 O587 O 0.19616 0.86330 0.24851
 O588 O 0.24978 0.87830 0.28964
 O589 O 0.24545 0.85836 0.18609
 O590 O 0.30223 0.86949 0.24823
 O591 O 0.14401 0.81393 0.24521
 O592 O 0.13507 0.75610 0.30252
 O593 O 0.18707 0.75561 0.14357
 O594 O 0.25058 0.69953 0.13261
 O595 O 0.25063 0.68510 0.35386
 O596 O 0.19352 0.74614 0.36110
 O597 O 0.35572 0.75747 0.31576
 O598 O 0.36484 0.80983 0.25233
 O599 O 0.31881 0.64818 0.24431
 O600 O 0.25538 0.63748 0.19308
 Zr601 Zr 0.25722 0.67675 0.24718
 O602 O 0.21279 0.71225 0.21203
 Zr603 Zr 0.32660 0.75500 0.25416
 O604 O 0.29008 0.78984 0.21028
 Zr605 Zr 0.24970 0.74671 0.32471
 O606 O 0.21378 0.79022 0.28880
 Zr607 Zr 0.24810 0.75213 0.17392
 O608 O 0.29314 0.71707 0.20949
 Zr609 Zr 0.17582 0.75377 0.24950
 O610 O 0.21233 0.70976 0.28514
 Zr611 Zr 0.25024 0.82735 0.24654
 O612 O 0.28640 0.79197 0.29079
 O613 O 0.29287 0.71166 0.28987
 O614 O 0.20967 0.79237 0.20858
 C615 C 0.25285 0.64705 0.33875
 C616 C 0.35668 0.66367 0.24562
 C617 C 0.34073 0.75618 0.35387
 C618 C 0.24609 0.84437 0.14760
 C619 C 0.14859 0.75524 0.15771
 C620 C 0.15762 0.85262 0.24573
 H621 H 0.19460 0.69304 0.19534
 H622 H 0.19667 0.80826 0.30779
 H623 H 0.31160 0.69393 0.30770
 H624 H 0.30887 0.80674 0.19189
 H625 H 0.31880 0.74938 0.13461
 H626 H 0.36980 0.75415 0.18566
 H627 H 0.10719 0.76652 0.29257
 H628 H 0.19797 0.72748 0.38591
 H629 H 0.22135 0.68940 0.12801
 H630 H 0.28231 0.64156 0.17774
 H631 H 0.25871 0.86634 0.31716
 H632 H 0.24469 0.81600 0.36683
 H633 H 0.18812 0.63442 0.24771
 H634 H 0.13779 0.68414 0.26797
 H635 H 0.36121 0.82462 0.27966
 H636 H 0.31232 0.87368 0.21895
 O637 O 0.73641 0.34169 0.31376
 O638 O 0.78317 0.35491 0.24894
 O639 O 0.62505 0.29391 0.24878
 O640 O 0.60954 0.24108 0.20558
 O641 O 0.67625 0.22995 0.35840
 O642 O 0.73820 0.18183 0.36641
 O643 O 0.73050 0.17716 0.13918
 O644 O 0.68004 0.23766 0.13170
 O645 O 0.84139 0.23534 0.18527
 O646 O 0.85286 0.28496 0.23868
 O647 O 0.79256 0.12661 0.24417
 O648 O 0.73326 0.11382 0.29518
 O649 O 0.73342 0.12656 0.19034
 O650 O 0.68882 0.11185 0.24983
 O651 O 0.84363 0.17716 0.24094
 O652 O 0.85485 0.23153 0.29395
 O653 O 0.78787 0.23506 0.13697
 O654 O 0.73602 0.28041 0.12407
 O655 O 0.73754 0.28813 0.36182
 O656 O 0.78155 0.23131 0.37149
 O657 O 0.62547 0.23353 0.30733
 O658 O 0.61405 0.18702 0.24920
 O659 O 0.67550 0.34508 0.25255
 O660 O 0.73319 0.36221 0.21048
 Zr661 Zr 0.73290 0.31104 0.25355
 O662 O 0.76979 0.27538 0.21074
 Zr663 Zr 0.65872 0.23687 0.25091
 O664 O 0.69341 0.19739 0.21061
 Zr665 Zr 0.73404 0.23387 0.32451
 O666 O 0.77357 0.19671 0.28600
 Zr667 Zr 0.73263 0.23501 0.17308
 O668 O 0.69510 0.27556 0.21102
 Zr669 Zr 0.80952 0.23428 0.24442
 O670 O 0.77489 0.27239 0.28797
 Zr671 Zr 0.73517 0.15998 0.24668
 O672 O 0.69557 0.19479 0.28730
 O673 O 0.69411 0.27463 0.29168
 O674 O 0.77332 0.19495 0.20594
 C675 C 0.73849 0.32732 0.35198
 C676 C 0.63699 0.33261 0.24962
 C677 C 0.63750 0.23010 0.34569
 C678 C 0.73132 0.13845 0.15190
 C679 C 0.82708 0.23557 0.14699
 C680 C 0.83120 0.13857 0.24208
 H681 H 0.78648 0.29494 0.19297
 H682 H 0.79220 0.17933 0.30422
 H683 H 0.67635 0.29222 0.31049
 H684 H 0.67376 0.18028 0.19335
 H685 H 0.66302 0.26266 0.13996
 H686 H 0.61759 0.22343 0.18109
 H687 H 0.88322 0.22841 0.28102
 H688 H 0.80710 0.24388 0.35863
 H689 H 0.73831 0.30826 0.13795
 H690 H 0.71479 0.35390 0.18654
 H691 H 0.75860 0.11752 0.31318
 H692 H 0.71481 0.16238 0.35906
 H693 H 0.80030 0.35230 0.27502
 H694 H 0.84998 0.30234 0.26448
 H695 H 0.62376 0.16529 0.26960
 H696 H 0.66599 0.11933 0.22974
 C697 C 0.27039 0.10518 0.07233
 C698 C 0.27047 0.12528 0.10457
 C699 C 0.77400 0.60285 0.57306
 C700 C 0.77434 0.62326 0.60511
 C701 C 0.75180 0.92333 0.11071
 C702 C 0.75388 0.89337 0.13421
 C703 C 0.25193 0.42299 0.61138
 C704 C 0.25363 0.39323 0.63513
 C705 C 0.75459 0.07480 0.88435
 C706 C 0.75373 0.10865 0.86646
 C707 C 0.25394 0.57648 0.38361
 C708 C 0.25330 0.61037 0.36577
 C709 C 0.24468 0.88065 0.92028
 C710 C 0.24308 0.85947 0.88834
 C711 C 0.74324 0.37733 0.41935
 C712 C 0.74125 0.35619 0.38739
 C713 C 0.10878 0.25112 0.07623
 C714 C 0.13234 0.24977 0.10618
 C715 C 0.61311 0.74976 0.57645
 C716 C 0.63688 0.74832 0.60618
 C717 C 0.07386 0.73102 0.89630
 C718 C 0.10601 0.73089 0.87614
 C719 C 0.57170 0.22869 0.39568
 C720 C 0.60372 0.22818 0.37536
 C721 C 0.92337 0.75659 0.12097
 C722 C 0.89154 0.75812 0.14221
 C723 C 0.42208 0.25595 0.62304
 C724 C 0.39039 0.25781 0.64443
 C725 C 0.88416 0.25679 0.92564
 C726 C 0.86709 0.25631 0.89138
 C727 C 0.38480 0.75921 0.42463
 C728 C 0.36751 0.75868 0.39052
 C729 C 0.11929 0.07789 0.24278
 C730 C 0.14037 0.10991 0.24117
 C731 C 0.62295 0.57695 0.74255
 C732 C 0.64435 0.60869 0.74103
 C733 C 0.92819 0.11720 0.74424
 C734 C 0.89434 0.13508 0.74465
 C735 C 0.42718 0.61909 0.24223
 C736 C 0.39343 0.63704 0.24306
 C737 C 0.07652 0.89055 0.74784
 C738 C 0.10651 0.86703 0.74888
 C739 C 0.57461 0.38770 0.24667
 C740 C 0.60421 0.36377 0.24781
 C741 C 0.89768 0.92701 0.27177
 C742 C 0.87791 0.89460 0.27247
 C743 C 0.39664 0.42749 0.77434
 C744 C 0.37662 0.39528 0.77480
 C745 C 0.10268 0.25204 0.92401
 C746 C 0.12291 0.25538 0.89211
 C747 C 0.60415 0.75044 0.42235
 C748 C 0.62428 0.75366 0.39036
 C749 C 0.92299 0.75259 0.89021
 C750 C 0.89303 0.75409 0.86669
 C751 C 0.41921 0.25302 0.38977
 C752 C 0.38928 0.25492 0.36622
 C753 C 0.07841 0.76010 0.11296
 C754 C 0.11249 0.75819 0.13023
 C755 C 0.57917 0.25768 0.61245
 C756 C 0.61328 0.25554 0.62967
 C757 C 0.87707 0.23943 0.07980
 C758 C 0.85600 0.23716 0.11170
 C759 C 0.37998 0.74212 0.58107
 C760 C 0.35897 0.74009 0.61304
 C761 C 0.24867 0.11218 0.92375
 C762 C 0.24682 0.13547 0.89372
 C763 C 0.75052 0.61005 0.42066
 C764 C 0.74861 0.63357 0.39082
 C765 C 0.73091 0.07218 0.10244
 C766 C 0.73027 0.10452 0.12233
 C767 C 0.23255 0.57604 0.60305
 C768 C 0.23245 0.60822 0.62312
 C769 C 0.75332 0.91723 0.87995
 C770 C 0.75557 0.88501 0.85936
 C771 C 0.25085 0.41890 0.37947
 C772 C 0.25260 0.38659 0.35900
 C773 C 0.24081 0.88909 0.07756
 C774 C 0.24279 0.87185 0.11161
 C775 C 0.74087 0.38593 0.57681
 C776 C 0.74298 0.36880 0.61093
 C777 C 0.08258 0.12096 0.75945
 C778 C 0.11479 0.14158 0.76130
 C779 C 0.58389 0.61967 0.25689
 C780 C 0.61619 0.64021 0.25874
 C781 C 0.11242 0.92247 0.24032
 C782 C 0.12982 0.88845 0.24249
 C783 C 0.61189 0.41965 0.74009
 C784 C 0.62924 0.38556 0.74215
 C785 C 0.88659 0.07646 0.24479
 C786 C 0.86248 0.10586 0.24248
 C787 C 0.38899 0.57915 0.74644
 C788 C 0.36513 0.60880 0.74404
 C789 C 0.92430 0.89666 0.74990
 C790 C 0.89246 0.87620 0.74718
 C791 C 0.42062 0.39808 0.24895
 C792 C 0.38856 0.37785 0.24643
   
