data_POSCAR
  _audit_creation_date              2014-09-24
  _audit_creation_method            'ToBaCCo'
  _symmetry_space_group_name_H-M    'P1'
  _symmetry_Int_Tables_number       1
  _symmetry_cell_setting            triclinic
  loop_
  _symmetry_equiv_pos_as_xyz
 x,y,z
_cell_length_a 34.1043
_cell_length_b 34.0978
_cell_length_c 32.2674
_cell_angle_alpha 89.780700
_cell_angle_beta 89.593800
_cell_angle_gamma 90.586300
loop_
  _atom_site_label
  _atom_site_type_symbol
  _atom_site_fract_x
  _atom_site_fract_y
  _atom_site_fract_z
C1 C 1.24752 0.25239 0.25444
 C2 C 0.75020 -0.25732 0.25126
 C3 C 0.74719 0.24252 -0.24478
 C4 C 1.24888 -0.24608 -0.24851
 C5 C 0.25103 0.24627 0.74633
 C6 C 0.75065 0.75520 0.74926
 C7 C 0.75176 0.25758 0.24544
 C8 C 0.24981 0.74707 0.24905
 O9 O 1.05537 0.07220 0.07625
 O10 O 1.09926 0.03471 0.03994
 C11 C 1.09080 0.06192 0.06647
 O12 O 0.94425 -0.07000 0.07767
 O13 O 0.90139 -0.03355 0.03926
 C14 C 0.90912 -0.06059 0.06639
 O15 O 1.05313 -0.06648 0.08374
 O16 O 1.09808 -0.03280 0.04359
 C17 C 1.08888 -0.05757 0.07283
 O18 O 0.94652 0.07636 0.07067
 O19 O 0.90251 0.03635 0.03726
 C20 C 0.91105 0.06563 0.06128
 Zr21 Zr 1.00080 0.05120 0.05462
 O22 O 0.99836 0.04674 0.11992
 O23 O 1.00278 0.11310 0.05813
 Zr24 Zr 0.99923 -0.04651 0.05980
 O25 O 0.99682 -0.03627 0.12431
 O26 O 0.99952 -0.10778 0.07000
 O27 O 1.03546 0.00249 0.06565
 O28 O 0.96493 0.00282 0.06421
 O29 O 0.94939 0.06865 -0.07216
 O30 O 0.90384 0.03478 -0.03301
 C31 C 0.91355 0.06002 -0.06170
 O32 O 1.05573 -0.07224 -0.06582
 O33 O 1.09944 -0.03553 -0.02809
 C34 C 1.09112 -0.06225 -0.05522
 O35 O 0.94597 -0.07431 -0.06386
 O36 O 0.90234 -0.03416 -0.03060
 C37 C 0.91059 -0.06312 -0.05502
 O38 O 1.05819 0.06519 -0.07290
 O39 O 1.10072 0.03122 -0.03171
 C40 C 1.09324 0.05593 -0.06123
 Zr41 Zr 1.00285 0.04687 -0.04995
 O42 O 1.00017 0.04287 -0.11536
 O43 O 1.00740 0.10876 -0.05370
 Zr44 Zr 1.00090 -0.05152 -0.04472
 O45 O 0.99793 -0.05359 -0.11021
 O46 O 1.00340 -0.11350 -0.04182
 Zr47 Zr 1.05988 -0.00036 0.00548
 Zr48 Zr 0.94187 0.00052 0.00395
 O49 O 0.96768 -0.00235 -0.05540
 O50 O 1.03730 -0.00294 -0.05514
 O51 O 0.96706 0.05724 0.00137
 O52 O 1.03397 -0.05661 0.00830
 O53 O 1.03596 0.05621 0.00237
 O54 O 0.96504 -0.05658 0.00745
 H55 H 0.94638 0.00375 0.08797
 H56 H 1.05084 -0.08005 0.00963
 H57 H 0.95058 -0.00322 -0.08008
 H58 H 1.05365 0.07941 0.00122
 H59 H 1.00273 -0.12015 0.04258
 H60 H 0.98135 -0.12268 -0.02406
 H61 H 1.02115 -0.03941 -0.12141
 H62 H 1.02318 0.02783 -0.12486
 H63 H 0.98605 0.11974 -0.03650
 H64 H 1.00852 0.12292 0.02989
 H65 H 0.99761 0.07402 0.13033
 H66 H 0.99491 -0.06248 0.13755
 O67 O 1.05348 0.56877 0.58173
 O68 O 1.09744 0.53429 0.54231
 C69 C 1.08892 0.55944 0.57093
 O70 O 0.94587 0.42514 0.57745
 O71 O 0.90154 0.46243 0.54191
 C72 C 0.91030 0.43467 0.56779
 O73 O 1.05503 0.43116 0.58019
 O74 O 1.09825 0.46847 0.54151
 C75 C 1.09028 0.44213 0.56953
 O76 O 0.94427 0.57117 0.57773
 O77 O 0.90073 0.53203 0.54255
 C78 C 0.90893 0.56012 0.56816
 Zr79 Zr 0.99899 0.54819 0.55945
 O80 O 0.99760 0.54034 0.62444
 O81 O 1.00018 0.60978 0.56663
 Zr82 Zr 1.00007 0.45024 0.55859
 O83 O 0.99914 0.45662 0.62371
 O84 O 1.00150 0.38847 0.56435
 O85 O 1.03496 0.49987 0.56657
 O86 O 0.96471 0.49842 0.56691
 O87 O 0.94396 0.57100 0.43535
 O88 O 0.90068 0.53318 0.47336
 C89 C 0.90873 0.56059 0.44653
 O90 O 1.05459 0.43354 0.42990
 O91 O 1.09808 0.46965 0.46847
 C92 C 1.08990 0.44419 0.43996
 O93 O 0.94543 0.42810 0.43410
 O94 O 0.90141 0.46331 0.47269
 C95 C 0.91001 0.43691 0.44537
 O96 O 1.05349 0.57025 0.43107
 O97 O 1.09751 0.53601 0.47030
 C98 C 1.08897 0.56143 0.44184
 Zr99 Zr 0.99887 0.54975 0.45471
 O100 O 0.99450 0.54971 0.38926
 O101 O 1.00202 0.61181 0.45508
 Zr102 Zr 0.99981 0.45119 0.45392
 O103 O 0.99545 0.45229 0.38849
 O104 O 1.00407 0.38929 0.45348
 Zr105 Zr 1.05829 0.50111 0.50584
 Zr106 Zr 0.94047 0.49860 0.50721
 O107 O 0.96494 0.49985 0.44713
 O108 O 1.03452 0.50129 0.44568
 O109 O 0.96399 0.55611 0.50745
 O110 O 1.03419 0.44408 0.50576
 O111 O 1.03291 0.55709 0.50682
 O112 O 0.96513 0.44211 0.50652
 H113 H 0.94665 0.49784 0.59112
 H114 H 1.05211 0.42140 0.50517
 H115 H 0.94720 0.49975 0.42294
 H116 H 1.05013 0.58066 0.50690
 H117 H 1.00872 0.37800 0.53688
 H118 H 0.98270 0.37870 0.47133
 H119 H 1.01753 0.46839 0.37761
 H120 H 1.01731 0.53538 0.37811
 H121 H 0.97984 0.62132 0.47211
 H122 H 1.00178 0.62116 0.53849
 H123 H 0.99617 0.56700 0.63642
 H124 H 0.99839 0.42966 0.63526
 O125 O 0.43217 -0.05628 0.42069
 O126 O 0.46699 -0.09944 0.46053
 C127 C 0.44143 -0.09153 0.43208
 O128 O 0.57326 0.05404 0.42112
 O129 O 0.53530 0.09791 0.45679
 C130 C 0.56308 0.08946 0.43074
 O131 O 0.56934 -0.05534 0.41898
 O132 O 0.53458 -0.09894 0.45976
 C133 C 0.55992 -0.09069 0.43076
 O134 O 0.42881 0.05285 0.42326
 O135 O 0.46737 0.09738 0.45782
 C136 C 0.43921 0.08844 0.43261
 Zr137 Zr 0.45161 -0.00132 0.44314
 O138 O 0.45053 0.00127 0.37760
 O139 O 0.38974 -0.00354 0.44757
 Zr140 Zr 0.54995 -0.00057 0.44120
 O141 O 0.54420 0.00045 0.37604
 O142 O 0.61176 -0.00379 0.43667
 O143 O 0.50068 -0.03641 0.43469
 O144 O 0.50084 0.03347 0.43409
 O145 O 0.42917 0.05408 0.56547
 O146 O 0.46654 0.09809 0.52796
 C147 C 0.43897 0.08951 0.55456
 O148 O 0.57054 -0.05317 0.56949
 O149 O 0.53541 -0.09799 0.53155
 C150 C 0.56107 -0.08882 0.55957
 O151 O 0.57400 0.05568 0.56391
 O152 O 0.53577 0.09892 0.52802
 C153 C 0.56375 0.09093 0.55368
 O154 O 0.43317 -0.05447 0.57149
 O155 O 0.46780 -0.09868 0.53269
 C156 C 0.44248 -0.08995 0.56136
 Zr157 Zr 0.45255 -0.00017 0.54728
 O158 O 0.45450 0.00506 0.61263
 O159 O 0.39061 -0.00420 0.54930
 Zr160 Zr 0.55101 0.00077 0.54570
 O161 O 0.55043 0.00592 0.61110
 O162 O 0.61295 -0.00302 0.54550
 Zr163 Zr 0.50124 -0.05940 0.49541
 Zr164 Zr 0.50152 0.05871 0.49354
 O165 O 0.50184 0.03476 0.55369
 O166 O 0.50180 -0.03494 0.55535
 O167 O 0.44451 0.03431 0.49473
 O168 O 0.55774 -0.03391 0.49392
 O169 O 0.44477 -0.03510 0.49586
 O170 O 0.55848 0.03522 0.49276
 H171 H 0.50066 0.05078 0.40935
 H172 H 0.58115 -0.05088 0.49381
 H173 H 0.50184 0.05280 0.57770
 H174 H 0.42141 -0.05262 0.49650
 H175 H 0.62269 0.01407 0.45780
 H176 H 0.62333 0.01827 0.52750
 H177 H 0.53579 -0.01692 0.62250
 H178 H 0.46854 -0.01796 0.62360
 H179 H 0.38073 0.01117 0.52556
 H180 H 0.37992 -0.00381 0.41873
 H181 H 0.47058 -0.01714 0.36730
 H182 H 0.57125 0.00074 0.36465
 O183 O 0.55230 0.57055 0.06891
 O184 O 0.59576 0.53536 0.02957
 C185 C 0.58760 0.56109 0.05782
 O186 O 0.44198 0.43082 0.07065
 O187 O 0.39833 0.46749 0.03354
 C188 C 0.40662 0.44071 0.06069
 O189 O 0.55121 0.43436 0.07317
 O190 O 0.59519 0.46866 0.03242
 C191 C 0.58665 0.44375 0.06170
 O192 O 0.44339 0.57466 0.06561
 O193 O 0.39911 0.53558 0.03140
 C194 C 0.40786 0.56416 0.05632
 Zr195 Zr 0.49753 0.55131 0.04625
 O196 O 0.49439 0.55397 0.11171
 O197 O 0.50002 0.61306 0.04044
 Zr198 Zr 0.49674 0.45301 0.04994
 O199 O 0.49528 0.45946 0.11504
 O200 O 0.49981 0.39120 0.05482
 O201 O 0.53245 0.50238 0.05578
 O202 O 0.46271 0.50229 0.05597
 O203 O 0.44304 0.57113 -0.07695
 O204 O 0.39889 0.53429 -0.03898
 C205 C 0.40755 0.56129 -0.06603
 O206 O 0.55083 0.42987 -0.07748
 O207 O 0.59504 0.46589 -0.03973
 C208 C 0.58635 0.43967 -0.06733
 O209 O 0.44171 0.42682 -0.07282
 O210 O 0.39812 0.46478 -0.03678
 C211 C 0.40638 0.43686 -0.06256
 O212 O 0.55227 0.56728 -0.08205
 O213 O 0.59575 0.53309 -0.04213
 C214 C 0.58760 0.55788 -0.07134
 Zr215 Zr 0.49740 0.54851 -0.05789
 O216 O 0.49284 0.54562 -0.12324
 O217 O 0.50147 0.61043 -0.06071
 Zr218 Zr 0.49647 0.44991 -0.05454
 O219 O 0.49204 0.44920 -0.11997
 O220 O 0.50008 0.38797 -0.05314
 Zr221 Zr 0.55597 0.50060 -0.00475
 Zr222 Zr 0.43802 0.50048 -0.00359
 O223 O 0.46255 0.49899 -0.06358
 O224 O 0.53217 0.49900 -0.06486
 O225 O 0.46239 0.55750 -0.00571
 O226 O 0.53061 0.44412 -0.00236
 O227 O 0.53183 0.55714 -0.00634
 O228 O 0.46148 0.44351 -0.00168
 H229 H 0.44528 0.50307 0.08064
 H230 H 0.54769 0.42080 -0.00161
 H231 H 0.44471 0.49843 -0.08769
 H232 H 0.54944 0.58043 -0.00724
 H233 H 0.48060 0.38008 0.03518
 H234 H 0.47878 0.37805 -0.03484
 H235 H 0.51499 0.46365 -0.13142
 H236 H 0.51572 0.53099 -0.13375
 H237 H 0.48512 0.62070 -0.03783
 H238 H 0.50037 0.62353 0.06905
 H239 H 0.51180 0.53336 0.12257
 H240 H 0.49489 0.43253 0.12671
 C241 C 1.21984 0.23296 0.22395
 C242 C 1.23123 0.20362 0.19637
 C243 C 1.20192 0.18196 0.17188
 N244 N 1.21247 0.15032 0.14906
 N245 N 1.18551 0.12939 0.12878
 C246 C 1.14707 0.13941 0.13072
 N247 N 1.13668 0.17117 0.15322
 N248 N 1.16354 0.19199 0.17344
 C249 C 1.11632 0.11652 0.11001
 C250 C 1.12344 0.08331 0.08611
 H251 H 1.26158 0.19465 0.19503
 H252 H 1.08648 0.12651 0.11404
 H253 H 1.18952 0.24226 0.22368
 H254 H 1.15318 0.07349 0.08100
 C255 C 1.22365 0.73035 0.72196
 C256 C 1.23085 0.69221 0.70851
 C257 C 1.20133 0.67114 0.68385
 N258 N 1.20994 0.63663 0.66518
 N259 N 1.18269 0.61738 0.64356
 C260 C 1.14588 0.63194 0.64015
 N261 N 1.13733 0.66624 0.65899
 N262 N 1.16452 0.68549 0.68033
 C263 C 1.11484 0.61124 0.61764
 C264 C 1.12157 0.57899 0.59233
 H265 H 1.25781 0.67758 0.71641
 H266 H 1.08540 0.62260 0.62060
 H267 H 1.19793 0.74504 0.71017
 H268 H 1.15113 0.56854 0.58745
 C269 C 0.72718 0.21596 0.72371
 C270 C 0.69603 0.22731 0.69844
 C271 C 0.67672 0.19929 0.67028
 N272 N 0.64474 0.21001 0.64822
 N273 N 0.62625 0.18418 0.62405
 C274 C 0.63920 0.14672 0.62110
 N275 N 0.67128 0.13619 0.64290
 N276 N 0.68968 0.16193 0.66698
 C277 C 0.61857 0.11677 0.59667
 C278 C 0.58502 0.12377 0.57331
 H279 H 0.68439 0.25663 0.70064
 H280 H 0.62999 0.08728 0.59833
 H281 H 0.73844 0.18661 0.71971
 H282 H 0.57399 0.15328 0.57001
 C283 C 0.72006 0.72319 0.22351
 C284 C 0.72991 0.69475 0.19425
 C285 C 0.69978 0.67387 0.17028
 N286 N 0.71008 0.64501 0.14354
 N287 N 0.68275 0.62512 0.12273
 C288 C 0.64417 0.63341 0.12804
 N289 N 0.63397 0.66232 0.15461
 N290 N 0.66122 0.68215 0.17536
 C291 C 0.61321 0.61174 0.10630
 C292 C 0.62036 0.58147 0.07835
 H293 H 0.76028 0.68670 0.18987
 H294 H 0.58328 0.62023 0.11286
 H295 H 0.68968 0.73187 0.22612
 H296 H 0.65015 0.57304 0.07107
 C297 C 0.77945 -0.23461 0.22456
 C298 C 0.76849 -0.20498 0.19700
 C299 C 0.79804 -0.18142 0.17419
 N300 N 0.78701 -0.15171 0.14875
 N301 N 0.81386 -0.12991 0.12874
 C302 C 0.85269 -0.13712 0.13357
 N303 N 0.86359 -0.16684 0.15886
 N304 N 0.83684 -0.18855 0.17877
 C305 C 0.88332 -0.11362 0.11271
 C306 C 0.87614 -0.08247 0.08565
 H307 H 0.73774 -0.19840 0.19302
 H308 H 0.91333 -0.12157 0.11927
 H309 H 0.81045 -0.24006 0.22876
 H310 H 0.84634 -0.07444 0.07828
 C311 C 0.77708 0.26893 0.73326
 C312 C 0.76732 0.29709 0.70357
 C313 C 0.79774 0.32019 0.68140
 N314 N 0.78759 0.34728 0.65252
 N315 N 0.81507 0.36784 0.63202
 C316 C 0.85371 0.36196 0.63966
 N317 N 0.86378 0.33493 0.66851
 N318 N 0.83637 0.31444 0.68895
 C319 C 0.88486 0.38400 0.61769
 C320 C 0.87775 0.41284 0.58791
 H321 H 0.73690 0.30209 0.69616
 H322 H 0.91483 0.37727 0.62579
 H323 H 0.80778 0.26559 0.74082
 H324 H 0.84791 0.41999 0.57975
 C325 C 0.27080 -0.21550 0.72593
 C326 C 0.29854 -0.22612 0.69600
 C327 C 0.32279 -0.19694 0.67385
 N328 N 0.35029 -0.20865 0.64601
 N329 N 0.37307 -0.18239 0.62645
 C330 C 0.36915 -0.14352 0.63424
 N331 N 0.34165 -0.13189 0.66202
 N332 N 0.31892 -0.15809 0.68152
 C333 C 0.39335 -0.11371 0.61318
 C334 C 0.42185 -0.12209 0.58329
 H335 H 0.30361 -0.25688 0.68991
 H336 H 0.38759 -0.08348 0.62119
 H337 H 0.26539 -0.18468 0.73135
 H338 H 0.42805 -0.15216 0.57504
 C339 C 0.27706 0.27741 0.23060
 C340 C 0.26623 0.30717 0.20322
 C341 C 0.29590 0.32961 0.17944
 N342 N 0.28500 0.35742 0.15167
 N343 N 0.31195 0.37746 0.12986
 C344 C 0.35073 0.37030 0.13513
 N345 N 0.36152 0.34259 0.16290
 N346 N 0.33466 0.32263 0.18460
 C347 C 0.38137 0.39159 0.11185
 C348 C 0.37395 0.42039 0.08216
 H349 H 0.23550 0.31362 0.19889
 H350 H 0.41141 0.38401 0.11874
 H351 H 0.30795 0.27114 0.23412
 H352 H 0.34409 0.42821 0.07484
 C353 C 0.76826 0.21643 -0.21367
 C354 C 0.79873 0.19200 -0.22636
 C355 C 0.82098 0.16620 -0.19870
 N356 N 0.85333 0.14849 -0.21399
 N357 N 0.87484 0.12545 -0.19006
 C358 C 0.86467 0.11878 -0.14996
 N359 N 0.83202 0.13621 -0.13445
 N360 N 0.81052 0.15957 -0.15847
 C361 C 0.89112 0.09529 -0.12432
 C362 C 0.88243 0.08010 -0.08500
 H363 H 0.80765 0.19262 -0.25866
 H364 H 0.91964 0.08945 -0.13785
 H365 H 0.75924 0.21620 -0.18138
 H366 H 0.85319 0.08233 -0.07199
 C367 C 0.77276 0.71107 0.27418
 C368 C 0.77128 0.70319 0.31674
 C369 C 0.79875 0.67536 0.33564
 N370 N 0.79311 0.66229 0.37508
 N371 N 0.81883 0.63822 0.39261
 C372 C 0.85122 0.62662 0.37135
 N373 N 0.85685 0.63979 0.33206
 N374 N 0.83106 0.66354 0.31449
 C375 C 0.88145 0.60231 0.39051
 C376 C 0.87586 0.58140 0.42733
 H377 H 0.75058 0.71778 0.33676
 H378 H 0.90949 0.60080 0.37463
 H379 H 0.79263 0.69378 0.25550
 H380 H 0.84717 0.58004 0.44191
 C381 C 0.26857 0.22124 0.27919
 C382 C 0.29753 0.23060 0.30803
 C383 C 0.31991 0.20015 0.32953
 N384 N 0.34967 0.21033 0.35520
 N385 N 0.37084 0.18286 0.37389
 C386 C 0.36295 0.14423 0.36749
 N387 N 0.33313 0.13411 0.34199
 N388 N 0.31203 0.16153 0.32331
 C389 C 0.38590 0.11325 0.38725
 C390 C 0.41758 0.12076 0.41327
 H391 H 0.30496 0.26108 0.31365
 H392 H 0.37732 0.08322 0.38084
 H393 H 0.26076 0.19067 0.27465
 H394 H 0.42631 0.15069 0.41998
 C395 C 0.27802 0.72937 -0.22480
 C396 C 0.26698 0.69921 -0.19763
 C397 C 0.29671 0.67632 -0.17561
 N398 N 0.28595 0.64731 -0.14878
 N399 N 0.31305 0.62658 -0.12897
 C400 C 0.35182 0.63421 -0.13540
 N401 N 0.36247 0.66314 -0.16220
 N402 N 0.33547 0.68379 -0.18190
 C403 C 0.38255 0.61210 -0.11441
 C404 C 0.37506 0.58216 -0.08582
 H405 H 0.23621 0.69231 -0.19277
 H406 H 0.41261 0.62007 -0.12197
 H407 H 0.30897 0.73602 -0.22873
 H408 H 0.34516 0.57408 -0.07778
 C409 C 1.22133 -0.22653 -0.21802
 C410 C 1.23265 -0.19697 -0.19060
 C411 C 1.20319 -0.17665 -0.16513
 N412 N 1.21347 -0.14535 -0.14150
 N413 N 1.18632 -0.12585 -0.12013
 C414 C 1.14798 -0.13701 -0.12173
 N415 N 1.13787 -0.16841 -0.14507
 N416 N 1.16490 -0.18781 -0.16635
 C417 C 1.11699 -0.11556 -0.09998
 C418 C 1.12392 -0.08304 -0.07495
 H419 H 1.26297 -0.18725 -0.18965
 H420 H 1.08717 -0.12591 -0.10437
 H421 H 1.19104 -0.23656 -0.21707
 H422 H 1.15364 -0.07299 -0.06939
 C423 C 1.22263 0.27550 0.28466
 C424 C 1.23050 0.31350 0.29865
 C425 C 1.20147 0.33414 0.32435
 N426 N 1.21049 0.36889 0.34261
 N427 N 1.18366 0.38779 0.36506
 C428 C 1.14687 0.37261 0.36976
 N429 N 1.13793 0.33806 0.35138
 N430 N 1.16469 0.31917 0.32921
 C431 C 1.11609 0.39287 0.39306
 C432 C 1.12271 0.42568 0.41778
 H433 H 1.25764 0.32838 0.29035
 H434 H 1.08673 0.38059 0.39113
 H435 H 1.19664 0.26057 0.29656
 H436 H 1.15217 0.43716 0.42174
 C437 C 0.73069 -0.22834 0.28049
 C438 C 0.69603 -0.23650 0.30244
 C439 C 0.67516 -0.20582 0.32547
 N440 N 0.64195 -0.21475 0.34714
 N441 N 0.62198 -0.18677 0.36659
 C442 C 0.63447 -0.14882 0.36485
 N443 N 0.66766 -0.13997 0.34326
 N444 N 0.68763 -0.16790 0.32395
 C445 C 0.61270 -0.11713 0.38506
 C446 C 0.58003 -0.12359 0.41055
 H447 H 0.68315 -0.26564 0.30128
 H448 H 0.62340 -0.08745 0.38006
 H449 H 0.74427 -0.19968 0.28422
 H450 H 0.56996 -0.15323 0.41699
 C451 C 0.71708 0.26672 -0.22160
 C452 C 0.72726 0.29819 -0.19605
 C453 C 0.69726 0.32157 -0.17464
 N454 N 0.70794 0.35161 -0.14944
 N455 N 0.68083 0.37317 -0.13042
 C456 C 0.64206 0.36546 -0.13607
 N457 N 0.63148 0.33550 -0.16127
 N458 N 0.65851 0.31398 -0.18019
 C459 C 0.61131 0.38849 -0.11568
 C460 C 0.61880 0.41896 -0.08795
 H461 H 0.75784 0.30618 -0.19231
 H462 H 0.58124 0.38043 -0.12252
 H463 H 0.68656 0.25768 -0.22292
 H464 H 0.64872 0.42705 -0.08052
 C465 C 1.22341 0.22538 -0.22357
 C466 C 1.23484 0.19542 -0.19666
 C467 C 1.20544 0.17306 -0.17228
 N468 N 1.21620 0.14238 -0.14802
 N469 N 1.18922 0.12117 -0.12746
 C470 C 1.15055 0.12991 -0.13063
 N471 N 1.13995 0.16060 -0.15470
 N472 N 1.16681 0.18173 -0.17512
 C473 C 1.11968 0.10706 -0.10937
 C474 C 1.12646 0.07590 -0.08225
 H475 H 1.26532 0.18690 -0.19541
 H476 H 1.08981 0.11597 -0.11515
 H477 H 1.19297 0.23433 -0.22286
 H478 H 1.15614 0.06720 -0.07524
 C479 C 1.22890 0.71574 0.27088
 C480 C 1.22764 0.70868 0.31379
 C481 C 1.19987 0.67970 0.33178
 N482 N 1.20417 0.66687 0.37138
 N483 N 1.17819 0.64187 0.38822
 C484 C 1.14679 0.62907 0.36615
 N485 N 1.14245 0.64205 0.32670
 N486 N 1.16855 0.66671 0.30978
 C487 C 1.11629 0.60365 0.38482
 C488 C 1.12170 0.58265 0.42146
 H489 H 1.24616 0.72481 0.33490
 H490 H 1.08838 0.60161 0.36908
 H491 H 1.21047 0.69675 0.25217
 H492 H 1.15034 0.58210 0.43572
 C493 C 0.73235 0.22744 0.27411
 C494 C 0.69840 0.23503 0.29716
 C495 C 0.67816 0.20431 0.32154
 N496 N 0.64549 0.21300 0.34381
 N497 N 0.62612 0.18508 0.36481
 C498 C 0.63873 0.14742 0.36416
 N499 N 0.67143 0.13879 0.34199
 N500 N 0.69080 0.16669 0.32108
 C501 C 0.61735 0.11581 0.38594
 C502 C 0.58428 0.12224 0.41059
 H503 H 0.68585 0.26407 0.29646
 H504 H 0.62815 0.08625 0.38216
 H505 H 0.74564 0.19881 0.27699
 H506 H 0.57395 0.15181 0.41549
 C507 C 0.72095 0.72981 -0.22750
 C508 C 0.73127 0.69884 -0.20145
 C509 C 0.70101 0.67429 -0.18098
 N510 N 0.71114 0.64548 -0.15403
 N511 N 0.68362 0.62335 -0.13550
 C512 C 0.64503 0.62922 -0.14345
 N513 N 0.63502 0.65786 -0.17048
 N514 N 0.66243 0.67995 -0.18887
 C515 C 0.61380 0.60604 -0.12317
 C516 C 0.62055 0.57753 -0.09303
 H517 H 0.76192 0.69239 -0.19647
 H518 H 0.58394 0.61283 -0.13165
 H519 H 0.69010 0.73615 -0.23128
 H520 H 0.65026 0.57056 -0.08418
 C521 C 0.77833 -0.22577 -0.21988
 C522 C 0.76763 -0.19622 -0.19222
 C523 C 0.79725 -0.17661 -0.16609
 N524 N 0.78757 -0.14522 -0.14246
 N525 N 0.81482 -0.12638 -0.12042
 C526 C 0.85274 -0.13832 -0.12126
 N527 N 0.86226 -0.16982 -0.14460
 N528 N 0.83511 -0.18857 -0.16657
 C529 C 0.88395 -0.11744 -0.09877
 C530 C 0.87763 -0.08426 -0.07453
 H531 H 0.73768 -0.18599 -0.19143
 H532 H 0.91347 -0.12844 -0.10232
 H533 H 0.80819 -0.23637 -0.21872
 H534 H 0.84816 -0.07343 -0.07008
 C535 C 0.77421 0.28910 0.26908
 C536 C 0.77371 0.29486 0.31197
 C537 C 0.80104 0.32280 0.33145
 N538 N 0.79580 0.33387 0.37148
 N539 N 0.82142 0.35803 0.38960
 C540 C 0.85332 0.37168 0.36836
 N541 N 0.85857 0.36049 0.32847
 N542 N 0.83286 0.33665 0.31031
 C543 C 0.88335 0.39622 0.38812
 C544 C 0.87755 0.41546 0.42566
 H545 H 0.75391 0.27847 0.33192
 H546 H 0.91127 0.39939 0.37214
 H547 H 0.79334 0.30800 0.25070
 H548 H 0.84889 0.41523 0.44034
 C549 C 0.26950 -0.22594 0.27713
 C550 C 0.30387 -0.23470 0.29898
 C551 C 0.32514 -0.20476 0.32325
 N552 N 0.35777 -0.21444 0.34480
 N553 N 0.37800 -0.18718 0.36547
 C554 C 0.36634 -0.14919 0.36517
 N555 N 0.33373 -0.13960 0.34370
 N556 N 0.31352 -0.16681 0.32317
 C557 C 0.38845 -0.11801 0.38653
 C558 C 0.42090 -0.12457 0.41179
 H559 H 0.31605 -0.26387 0.29718
 H560 H 0.37819 -0.08831 0.38228
 H561 H 0.25697 -0.19718 0.28223
 H562 H 0.43065 -0.15420 0.41759
 C563 C 0.27999 0.27096 -0.22930
 C564 C 0.26847 0.29999 -0.20143
 C565 C 0.29753 0.32229 -0.17726
 N566 N 0.28600 0.35075 -0.15057
 N567 N 0.31242 0.37091 -0.12870
 C568 C 0.35126 0.36319 -0.13279
 N569 N 0.36266 0.33477 -0.15938
 N570 N 0.33635 0.31471 -0.18117
 C571 C 0.38144 0.38491 -0.10986
 C572 C 0.37376 0.41534 -0.08223
 H573 H 0.23761 0.30624 -0.19728
 H574 H 0.41153 0.37663 -0.11586
 H575 H 0.31099 0.26499 -0.23286
 H576 H 0.34385 0.42381 -0.07561
 C577 C 1.22111 -0.23095 0.22576
 C578 C 1.23083 -0.20037 0.19815
 C579 C 1.20047 -0.17631 0.17820
 N580 N 1.21079 -0.14672 0.15185
 N581 N 1.18347 -0.12464 0.13408
 C582 C 1.14480 -0.13131 0.14214
 N583 N 1.13454 -0.16084 0.16847
 N584 N 1.16180 -0.18287 0.18616
 C585 C 1.11380 -0.10785 0.12274
 C586 C 1.12117 -0.07787 0.09401
 H587 H 1.26138 -0.19344 0.19185
 H588 H 1.08375 -0.11540 0.13076
 H589 H 1.19010 -0.23613 0.23189
 H590 H 1.15110 -0.07033 0.08552
 C591 C 1.22589 0.26996 0.71701
 C592 C 1.23302 0.30859 0.70419
 C593 C 1.20359 0.32959 0.67960
 N594 N 1.21200 0.36508 0.66224
 N595 N 1.18482 0.38429 0.64086
 C596 C 1.14824 0.36871 0.63636
 N597 N 1.13990 0.33341 0.65384
 N598 N 1.16703 0.31421 0.67495
 C599 C 1.11709 0.38934 0.61428
 C600 C 1.12331 0.42298 0.59034
 H601 H 1.25984 0.32369 0.71264
 H602 H 1.08784 0.37676 0.61650
 H603 H 1.20025 0.25496 0.70485
 H604 H 1.15267 0.43476 0.58604
 C605 C 0.72926 -0.21386 0.72445
 C606 C 0.70164 -0.22419 0.69442
 C607 C 0.67835 -0.19498 0.67210
 N608 N 0.65097 -0.20680 0.64430
 N609 N 0.62911 -0.18065 0.62443
 C610 C 0.63387 -0.14171 0.63178
 N611 N 0.66126 -0.12995 0.65951
 N612 N 0.68307 -0.15606 0.67934
 C613 C 0.61050 -0.11202 0.61041
 C614 C 0.58172 -0.12067 0.58110
 H615 H 0.69607 -0.25492 0.68810
 H616 H 0.61685 -0.08170 0.61799
 H617 H 0.73525 -0.18309 0.73016
 H618 H 0.57499 -0.15084 0.57325
 C619 C 0.72130 0.27709 0.21841
 C620 C 0.73059 0.30707 0.19024
 C621 C 0.69993 0.32885 0.16843
 N622 N 0.70975 0.35879 0.14238
 N623 N 0.68203 0.37956 0.12367
 C624 C 0.64349 0.37116 0.13053
 N625 N 0.63374 0.34121 0.15648
 N626 N 0.66140 0.32047 0.17511
 C627 C 0.61221 0.39354 0.11066
 C628 C 0.61928 0.42401 0.08254
 H629 H 0.76088 0.31587 0.18549
 H630 H 0.58229 0.38496 0.11806
 H631 H 0.69098 0.26761 0.22113
 H632 H 0.64908 0.43243 0.07448
 C633 C 0.78107 0.23649 0.21808
 C634 C 0.77038 0.20685 0.19043
 C635 C 0.80010 0.18491 0.16690
 N636 N 0.78940 0.15427 0.14252
 N637 N 0.81641 0.13373 0.12210
 C638 C 0.85507 0.14320 0.12534
 N639 N 0.86565 0.17391 0.14950
 N640 N 0.83873 0.19435 0.16988
 C641 C 0.88581 0.12072 0.10428
 C642 C 0.87847 0.08801 0.07952
 H643 H 0.73974 0.19886 0.18708
 H644 H 0.91582 0.13019 0.10931
 H645 H 0.81199 0.24335 0.22163
 H646 H 0.84861 0.07847 0.07385
 C647 C 0.77582 0.73243 0.71892
 C648 C 0.76805 0.69460 0.70438
 C649 C 0.79701 0.67423 0.67835
 N650 N 0.78842 0.63884 0.66129
 N651 N 0.81523 0.61995 0.63885
 C652 C 0.85158 0.63579 0.63286
 N653 N 0.86007 0.67106 0.64992
 N654 N 0.83332 0.68994 0.67214
 C655 C 0.88244 0.61517 0.61001
 C656 C 0.87604 0.58065 0.58798
 H657 H 0.74099 0.67953 0.71258
 H658 H 0.91166 0.62791 0.61082
 H659 H 0.80184 0.74753 0.70733
 H660 H 0.84667 0.56863 0.58516
 C661 C 0.27273 0.21637 0.72042
 C662 C 0.30114 0.22726 0.69098
 C663 C 0.32286 0.19797 0.66687
 N664 N 0.35170 0.20943 0.64005
 N665 N 0.37203 0.18293 0.61876
 C666 C 0.36413 0.14404 0.62357
 N667 N 0.33524 0.13269 0.65023
 N668 N 0.31500 0.15911 0.67148
 C669 C 0.38628 0.11388 0.60140
 C670 C 0.41728 0.12186 0.57402
 H671 H 0.30817 0.25802 0.68631
 H672 H 0.37787 0.08370 0.60767
 H673 H 0.26540 0.18554 0.72415
 H674 H 0.42579 0.15187 0.56707
 C675 C 0.27783 0.72975 0.22058
 C676 C 0.26764 0.70216 0.19016
 C677 C 0.29749 0.68135 0.16562
 N678 N 0.28670 0.65199 0.13959
 N679 N 0.31364 0.63180 0.11869
 C680 C 0.35239 0.64031 0.12311
 N681 N 0.36310 0.66981 0.14888
 N682 N 0.33622 0.68990 0.16978
 C683 C 0.38301 0.61805 0.10146
 C684 C 0.37545 0.58601 0.07574
 H685 H 0.23716 0.69416 0.18564
 H686 H 0.41308 0.62713 0.10681
 H687 H 0.30854 0.73808 0.22245
 H688 H 0.34552 0.57678 0.06990
   
