data_POSCAR
  _audit_creation_date              2014-09-24
  _audit_creation_method            'ToBaCCo'
  _symmetry_space_group_name_H-M    'P1'
  _symmetry_Int_Tables_number       1
  _symmetry_cell_setting            triclinic
  loop_
  _symmetry_equiv_pos_as_xyz
 x,y,z
_cell_length_a 35.1167
_cell_length_b 9.2526
_cell_length_c 10.9698
_cell_angle_alpha 90.378100
_cell_angle_beta 89.985900
_cell_angle_gamma 90.846700
loop_
  _atom_site_label
  _atom_site_type_symbol
  _atom_site_fract_x
  _atom_site_fract_y
  _atom_site_fract_z
C1 C 0.65262 0.09207 0.61128
 C2 C 0.63382 0.09892 0.49791
 C3 C 0.65339 0.09559 0.38650
 C4 C 0.69322 0.07650 0.38696
 C5 C 0.71304 0.06606 0.49938
 C6 C 0.69276 0.07346 0.61161
 C7 C 0.71318 0.06028 0.72123
 C8 C 0.75267 0.05159 0.72177
 C9 C 0.77359 0.05268 0.61255
 C10 C 0.75352 0.05599 0.49958
 C11 C 0.71378 0.07010 0.27730
 C12 C 0.75324 0.06160 0.27718
 C13 C 0.77386 0.05725 0.38688
 C14 C 0.81419 0.06457 0.38775
 C15 C 0.83296 0.06286 0.50039
 C16 C 0.81393 0.06044 0.61274
 H17 H 0.69893 0.05709 0.80857
 H18 H 0.76654 0.04758 0.80958
 H19 H 0.69953 0.07340 0.18991
 H20 H 0.76733 0.06272 0.18959
 H21 H 0.60402 0.12662 0.49559
 H22 H 0.86371 0.05339 0.50045
 C23 C 0.18604 0.95604 0.61204
 C24 C 0.16702 0.96724 0.50065
 C25 C 0.18622 0.95857 0.38926
 C26 C 0.22611 0.94224 0.38851
 C27 C 0.24599 0.93058 0.50090
 C28 C 0.22591 0.93955 0.61307
 C29 C 0.24602 0.92829 0.72297
 C30 C 0.28509 0.90531 0.72332
 C31 C 0.30555 0.89052 0.61361
 C32 C 0.28583 0.90614 0.50100
 C33 C 0.24644 0.93331 0.27865
 C34 C 0.28550 0.91040 0.27856
 C35 C 0.30562 0.89442 0.38833
 C36 C 0.34498 0.86637 0.38839
 C37 C 0.36374 0.85158 0.49982
 C38 C 0.34528 0.86433 0.61291
 H39 H 0.23165 0.93664 0.80999
 H40 H 0.29896 0.90038 0.81109
 H41 H 0.23222 0.94303 0.19159
 H42 H 0.29979 0.90537 0.19127
 H43 H 0.13642 0.98207 0.50063
 H44 H 0.39274 0.81381 0.49751
 C45 C 0.31463 0.42223 -0.61175
 C46 C 0.33373 0.42453 -0.50015
 C47 C 0.31442 0.42068 -0.38901
 C48 C 0.27425 0.42207 -0.38833
 C49 C 0.25408 0.42217 -0.50067
 C50 C 0.27443 0.42372 -0.61280
 C51 C 0.25411 0.42504 -0.72261
 C52 C 0.21453 0.42303 -0.72304
 C53 C 0.19351 0.41639 -0.61358
 C54 C 0.21354 0.41865 -0.50088
 C55 C 0.25380 0.42174 -0.27869
 C56 C 0.21422 0.41950 -0.27865
 C57 C 0.19334 0.41450 -0.38844
 C58 C 0.15291 0.40897 -0.38844
 C59 C 0.13382 0.41311 -0.50136
 C60 C 0.15311 0.41103 -0.61411
 H61 H 0.26863 0.42791 -0.80960
 H62 H 0.20075 0.42915 -0.81089
 H63 H 0.26825 0.42348 -0.19153
 H64 H 0.20033 0.42417 -0.19082
 H65 H 0.36460 0.43113 -0.49967
 H66 H 0.10345 0.39413 -0.50178
 C67 C -0.31434 0.58050 -0.39130
 C68 C -0.33325 0.58634 -0.50401
 C69 C -0.31417 0.58132 -0.61656
 C70 C -0.27394 0.57342 -0.61640
 C71 C -0.25387 0.57494 -0.50354
 C72 C -0.27413 0.57286 -0.39093
 C73 C -0.25346 0.57418 -0.28111
 C74 C -0.21397 0.58311 -0.28102
 C75 C -0.19347 0.59277 -0.39052
 C76 C -0.21339 0.58509 -0.50316
 C77 C -0.25306 0.57447 -0.72576
 C78 C -0.21355 0.58352 -0.72515
 C79 C -0.19310 0.59475 -0.61523
 C80 C -0.15293 0.61413 -0.61423
 C81 C -0.13424 0.62110 -0.50104
 C82 C -0.15358 0.61277 -0.38993
 H83 H -0.26750 0.57332 -0.19342
 H84 H -0.19966 0.58434 -0.19365
 H85 H -0.26695 0.57276 -0.81368
 H86 H -0.19935 0.58244 -0.81258
 H87 H -0.36411 0.58068 -0.50425
 H88 H -0.10452 0.65295 -0.49817
 O89 O -0.03323 0.72131 0.22520
 O90 O -0.08356 0.80006 0.11103
 C91 C -0.06904 0.72183 0.19649
 O92 O 0.03359 1.32434 0.21205
 O93 O 0.08423 1.23470 0.10464
 C94 C 0.06959 1.31982 0.18608
 O95 O -0.06758 1.20024 0.22473
 O96 O -0.10013 1.02921 0.11182
 C97 C -0.09801 1.12568 0.19816
 O98 O 0.06983 0.82276 0.21640
 O99 O 0.10147 0.99695 0.10569
 C100 C 0.10019 0.89652 0.18799
 Zr101 Zr 0.01321 0.84264 0.15510
 O102 O 0.01675 0.84425 0.34790
 O103 O 0.02904 0.62497 0.14544
 Zr104 Zr -0.01220 1.19234 0.15117
 O105 O -0.00863 1.20715 0.34350
 O106 O -0.03205 1.40598 0.14634
 O107 O -0.03220 0.98211 0.17819
 O108 O 0.03233 1.05271 0.17552
 O109 O 0.06964 0.81704 -0.21434
 O110 O 0.10134 0.99523 -0.10630
 C111 C 0.09998 0.89246 -0.18760
 O112 O -0.06790 1.19139 -0.22492
 O113 O -0.10039 1.02502 -0.10899
 C114 C -0.09836 1.11880 -0.19636
 O115 O 0.03333 1.31577 -0.21734
 O116 O 0.08398 1.23232 -0.10715
 C117 C 0.06927 1.31397 -0.19019
 O118 O -0.03353 0.71516 -0.22112
 O119 O -0.08351 0.79627 -0.10551
 C120 C -0.06931 0.71640 -0.19128
 Zr121 Zr 0.01326 0.83350 -0.14843
 O122 O 0.01564 0.80391 -0.33953
 O123 O 0.02723 0.61391 -0.12427
 Zr124 Zr -0.01220 1.18490 -0.15406
 O125 O -0.00952 1.18239 -0.34699
 O126 O -0.02750 1.40500 -0.15877
 Zr127 Zr -0.05496 0.95348 0.00153
 Zr128 Zr 0.05578 1.07436 -0.00031
 O129 O 0.03221 1.04362 -0.17518
 O130 O -0.03201 0.97303 -0.17558
 O131 O 0.04856 0.84822 0.00316
 O132 O -0.04661 1.17882 -0.00110
 O133 O -0.01765 0.77774 0.00395
 O134 O 0.01900 1.25268 -0.00221
 H135 H 0.04818 1.07078 0.24890
 H136 H -0.06969 1.23902 -0.00027
 H137 H 0.04801 1.06027 -0.24866
 H138 H -0.02874 0.67888 0.00422
 H139 H -0.02197 1.44788 0.07033
 H140 H -0.05286 1.41604 -0.12105
 H141 H -0.02399 1.09633 -0.37619
 H142 H 0.01500 0.90101 -0.37627
 H143 H 0.05293 0.60961 -0.08753
 H144 H 0.02879 0.59259 0.23123
 H145 H -0.00731 0.88383 0.37982
 H146 H -0.02137 1.12023 0.37721
 O147 O 0.43255 0.29651 0.22114
 O148 O 0.39989 0.46053 0.10694
 C149 C 0.40194 0.36517 0.19275
 O150 O 0.56863 0.69166 0.21418
 O151 O 0.60126 0.52148 0.10405
 C152 C 0.59927 0.62234 0.18708
 O153 O 0.46561 0.77785 0.22238
 O154 O 0.41588 0.69291 0.10522
 C155 C 0.42987 0.77295 0.19213
 O156 O 0.53469 0.18792 0.20879
 O157 O 0.58502 0.28131 0.09915
 C158 C 0.57059 0.19528 0.18085
 Zr159 Zr 0.48835 0.31348 0.14982
 O160 O 0.49178 0.30979 0.34259
 O161 O 0.47008 0.09573 0.14501
 Zr162 Zr 0.51268 0.66873 0.14726
 O163 O 0.51564 0.69622 0.33842
 O164 O 0.52553 0.89083 0.12497
 O165 O 0.46789 0.52193 0.17382
 O166 O 0.53229 0.46114 0.17159
 O167 O 0.53344 0.18229 -0.21511
 O168 O 0.58446 0.28148 -0.11153
 C169 C 0.56957 0.19258 -0.19122
 O170 O 0.46542 0.77643 -0.22721
 O171 O 0.41558 0.69023 -0.11179
 C172 C 0.42965 0.77016 -0.19797
 O173 O 0.56835 0.68942 -0.22123
 O174 O 0.60110 0.51992 -0.11246
 C175 C 0.59901 0.62031 -0.19478
 O176 O 0.43158 0.28898 -0.22306
 O177 O 0.39957 0.45751 -0.10989
 C178 C 0.40119 0.35945 -0.19461
 Zr179 Zr 0.48778 0.31053 -0.15567
 O180 O 0.49172 0.31003 -0.34847
 O181 O 0.46903 0.09329 -0.16196
 Zr182 Zr 0.51231 0.66429 -0.15634
 O183 O 0.51582 0.66981 -0.34883
 O184 O 0.52528 0.88756 -0.14675
 Zr185 Zr 0.44476 0.54075 -0.00278
 Zr186 Zr 0.55575 0.43674 -0.00391
 O187 O 0.53188 0.45694 -0.17917
 O188 O 0.46716 0.51794 -0.18023
 O189 O 0.51939 0.25255 -0.00325
 O190 O 0.48149 0.72240 -0.00414
 O191 O 0.45386 0.31662 -0.00215
 O192 O 0.54800 0.66203 -0.00482
 H193 H 0.54812 0.44519 0.24484
 H194 H 0.47002 0.81948 -0.00384
 H195 H 0.54758 0.44075 -0.25291
 H196 H 0.43145 0.25027 -0.00135
 H197 H 0.55264 0.90062 0.10153
 H198 H 0.55061 0.89990 -0.10833
 H199 H 0.49403 0.61255 -0.38105
 H200 H 0.47305 0.37954 -0.37999
 H201 H 0.47067 0.05726 -0.07774
 H202 H 0.47009 0.06391 0.23103
 H203 H 0.47660 0.39119 0.37412
 H204 H 0.51196 0.59936 0.37420
 C205 C 0.33842 0.42210 0.27638
 C206 C 0.36861 0.33550 0.26978
 H207 H 0.33401 0.50461 0.20858
 H208 H 0.37177 0.25197 0.33788
 C209 C -0.13187 0.65040 0.27981
 C210 C -0.09406 0.63222 0.27268
 H211 H -0.14589 0.70714 0.20687
 H212 H -0.07987 0.56335 0.33745
 C213 C 0.66364 0.57851 0.27542
 C214 C 0.63152 0.65468 0.26853
 H215 H 0.67178 0.51081 0.19919
 H216 H 0.62601 0.73537 0.33842
 C217 C 0.13216 1.37950 0.27787
 C218 C 0.09489 1.40666 0.26572
 H219 H 0.14579 1.31841 0.20609
 H220 H 0.08105 1.47810 0.32989
 C221 C 0.63207 0.12768 -0.28122
 C222 C 0.59429 0.10599 -0.27104
 H223 H 0.64667 0.18522 -0.20836
 H224 H 0.57969 0.03620 -0.33620
 C225 C 0.16252 0.95889 -0.27590
 C226 C 0.13330 0.86540 -0.26493
 H227 H 0.16624 1.04808 -0.21239
 H228 H 0.13068 0.77749 -0.33057
 C229 C 0.36630 0.83245 -0.28055
 C230 C 0.40420 0.85393 -0.27523
 H231 H 0.35218 0.77914 -0.20516
 H232 H 0.41819 0.92124 -0.34286
 C233 C -0.16349 1.06421 -0.27998
 C234 C -0.13088 1.14225 -0.27748
 H235 H -0.17169 1.00151 -0.20106
 H236 H -0.12541 1.21920 -0.34997
 C237 C 0.66334 0.57676 -0.28363
 C238 C 0.63125 0.65295 -0.27576
 H239 H 0.67141 0.50847 -0.20844
 H240 H 0.62578 0.73402 -0.34448
 C241 C 0.13178 1.37537 -0.28143
 C242 C 0.09441 1.40130 -0.26908
 H243 H 0.14541 1.31368 -0.21073
 H244 H 0.08035 1.47325 -0.33163
 C245 C 0.33802 0.41932 -0.27702
 C246 C 0.36755 0.32968 -0.27043
 H247 H 0.33439 0.50459 -0.21008
 H248 H 0.37012 0.24459 -0.33841
 C249 C -0.13212 0.65498 -0.27784
 C250 C -0.09504 0.62588 -0.26572
 H251 H -0.14533 0.73048 -0.21553
 H252 H -0.08191 0.54934 -0.32741
 C253 C 0.36661 0.82941 0.27591
 C254 C 0.40402 0.85890 0.26761
 H255 H 0.35308 0.75877 0.20932
 H256 H 0.41716 0.93194 0.33340
 C257 C -0.16304 1.07099 0.28102
 C258 C -0.13028 1.14823 0.28087
 H259 H -0.17128 1.01055 0.20020
 H260 H -0.12461 1.22301 0.35560
 C261 C 0.63264 0.14169 0.27475
 C262 C 0.59595 0.10667 0.25591
 H263 H 0.64628 0.22208 0.21737
 H264 H 0.58246 0.02615 0.31360
 C265 C 0.16282 0.96298 0.27694
 C266 C 0.13377 0.86895 0.26375
 H267 H 0.16631 1.05366 0.21584
 H268 H 0.13135 0.77995 0.32742
   
