data_POSCAR
  _audit_creation_date              2014-09-24
  _audit_creation_method            'ToBaCCo'
  _symmetry_space_group_name_H-M    'P1'
  _symmetry_Int_Tables_number       1
  _symmetry_cell_setting            triclinic
  loop_
  _symmetry_equiv_pos_as_xyz
 x,y,z
_cell_length_a 36.7625
_cell_length_b 37.0260
_cell_length_c 38.0043
_cell_angle_alpha 89.732100
_cell_angle_beta 89.782300
_cell_angle_gamma 89.943700
loop_
  _atom_site_label
  _atom_site_type_symbol
  _atom_site_fract_x
  _atom_site_fract_y
  _atom_site_fract_z
O1 O 0.36064 0.31621 -0.04009
 O2 O 0.31605 0.36623 0.03158
 O3 O 0.36170 0.31176 0.02775
 O4 O 0.31413 0.36897 -0.03678
 O5 O 0.26882 0.32991 -0.03777
 O6 O 0.31479 0.27454 0.02954
 O7 O 0.26944 0.32869 0.03006
 O8 O 0.31619 0.27615 -0.03919
 Cu9 Cu 0.34268 0.34466 -0.00423
 Cu10 Cu 0.28779 0.29832 -0.00453
 C11 C 0.34643 0.28730 -0.05142
 C12 C 0.28478 0.35664 0.04239
 C13 C 0.34640 0.28340 0.03954
 C14 C 0.28315 0.35940 -0.04804
 O15 O 0.67991 0.62319 0.03114
 O16 O 0.63377 0.67485 -0.03904
 O17 O 0.68137 0.62314 -0.03661
 O18 O 0.62830 0.67110 0.02970
 O19 O 0.66968 0.71427 0.03184
 O20 O 0.72525 0.66363 -0.03265
 O21 O 0.67699 0.71613 -0.03663
 O22 O 0.72179 0.66581 0.03444
 Cu23 Cu 0.65137 0.64412 -0.00397
 Cu24 Cu 0.70248 0.69445 -0.00057
 C25 C 0.70927 0.63538 0.04404
 C26 C 0.64785 0.70424 -0.04996
 C27 C 0.71286 0.63416 -0.04492
 C28 C 0.63961 0.70070 0.04203
 O29 O 0.62333 0.32815 1.04395
 O30 O 0.67472 0.37767 0.97560
 O31 O 0.62304 0.32903 0.97535
 O32 O 0.67453 0.37562 1.04447
 O33 O 0.71604 0.33250 1.04316
 O34 O 0.66421 0.28557 0.97477
 O35 O 0.71607 0.33440 0.97486
 O36 O 0.66460 0.28475 1.04305
 Cu37 Cu 0.64479 0.35703 1.00969
 Cu38 Cu 0.69438 0.30496 1.00864
 C39 C 0.63542 0.29815 1.05535
 C40 C 0.70439 0.36476 0.96394
 C41 C 0.63452 0.29899 0.96379
 C42 C 0.70393 0.36180 1.05584
 O43 O 0.31710 0.62744 0.95559
 O44 O 0.37425 0.66836 1.02353
 O45 O 0.31898 0.62497 1.02434
 O46 O 0.36904 0.67510 0.95546
 O47 O 0.32956 0.71988 0.95986
 O48 O 0.28022 0.67030 1.02879
 O49 O 0.33627 0.71445 1.02757
 O50 O 0.27736 0.67190 0.96037
 Cu51 Cu 0.34867 0.64444 0.98923
 Cu52 Cu 0.30192 0.69859 0.99467
 C53 C 0.28753 0.64239 0.94639
 C54 C 0.36542 0.69845 1.03684
 C55 C 0.29095 0.63923 1.03832
 C56 C 0.35777 0.70618 0.94608
 O57 O -0.03278 0.37667 0.32241
 O58 O 0.03698 0.33348 0.37646
 O59 O 0.03752 0.37771 0.32322
 O60 O -0.03408 0.32817 0.37199
 O61 O -0.03045 0.28413 0.33320
 O62 O 0.04184 0.33235 0.28585
 O63 O 0.04023 0.28784 0.33935
 O64 O -0.02813 0.33327 0.28293
 Cu65 Cu 0.00152 0.35830 0.35250
 Cu66 Cu 0.00612 0.30475 0.30669
 C67 C -0.04161 0.36316 0.29312
 C68 C 0.05056 0.30350 0.36733
 C69 C 0.05153 0.36344 0.29592
 C70 C -0.04461 0.29763 0.36061
 O71 O 0.03430 0.67601 0.62441
 O72 O -0.04127 0.62639 0.66484
 O73 O -0.03732 0.67899 0.62098
 O74 O 0.02805 0.62655 0.67437
 O75 O 0.02806 0.66985 0.71418
 O76 O -0.04103 0.71916 0.66357
 O77 O -0.04234 0.66542 0.70869
 O78 O 0.02983 0.71876 0.66450
 Cu79 Cu -0.00330 0.64813 0.64176
 Cu80 Cu -0.00666 0.69745 0.69186
 C81 C 0.04451 0.70602 0.63684
 C82 C -0.05420 0.63693 0.69394
 C83 C -0.05106 0.70769 0.63377
 C84 C 0.03887 0.63928 0.70358
 O85 O 1.04101 0.62578 0.33951
 O86 O 0.96985 0.67748 0.38520
 O87 O 0.97012 0.62114 0.34484
 O88 O 1.03994 0.68265 0.37915
 O89 O 1.03341 0.71832 0.33289
 O90 O 0.96441 0.65630 0.29809
 O91 O 0.96394 0.71320 0.33883
 O92 O 1.03512 0.66082 0.29269
 Cu93 Cu 1.00588 0.64814 0.36676
 Cu94 Cu 0.99860 0.69050 0.31076
 C95 C 1.05025 0.63441 0.30840
 C96 C 0.95526 0.70447 0.37015
 C97 C 0.95537 0.62831 0.31550
 C98 C 1.04807 0.71131 0.36230
 O99 O 0.96224 0.32096 0.62907
 O100 O 1.03690 0.36449 0.67701
 O101 O 1.03241 0.31832 0.62585
 O102 O 0.96598 0.36565 0.68188
 O103 O 0.96682 0.32026 0.71974
 O104 O 1.03305 0.27287 0.66367
 O105 O 1.03755 0.31938 0.71521
 O106 O 0.96334 0.27513 0.66649
 Cu107 Cu 0.99924 0.34704 0.64983
 Cu108 Cu 1.00022 0.29248 0.69524
 C109 C 0.95087 0.29017 0.63889
 C110 C 1.04992 0.34945 0.70429
 C111 C 1.04344 0.28711 0.63485
 C112 C 0.95519 0.35109 0.71042
 O113 O 0.36799 0.03047 0.32538
 O114 O 0.32322 -0.04761 0.36717
 O115 O 0.37197 -0.03929 0.31832
 O116 O 0.31702 0.02157 0.37330
 O117 O 0.27594 0.02540 0.33115
 O118 O 0.32882 -0.03867 0.27801
 O119 O 0.27945 -0.04493 0.32760
 O120 O 0.32680 0.03059 0.28322
 Cu121 Cu 0.34934 -0.00870 0.35015
 Cu122 Cu 0.29835 -0.00679 0.30097
 C123 C 0.35575 0.04312 0.29666
 C124 C 0.29340 -0.05921 0.35488
 C125 C 0.35977 -0.04918 0.28869
 C126 C 0.28705 0.03371 0.36159
 O127 O 0.62961 0.04136 0.68002
 O128 O 0.67585 -0.02851 0.62812
 O129 O 0.63025 -0.02809 0.68169
 O130 O 0.67715 0.04196 0.62956
 O131 O 0.72147 0.04245 0.66864
 O132 O 0.67724 -0.03136 0.71766
 O133 O 0.72259 -0.02741 0.66442
 O134 O 0.67328 0.03876 0.71974
 Cu135 Cu 0.64879 0.00652 0.65091
 Cu136 Cu 0.70322 0.00554 0.69641
 C137 C 0.64295 0.05128 0.70912
 C138 C 0.70741 -0.03916 0.63672
 C139 C 0.64561 -0.04129 0.70878
 C140 C 0.70728 0.05434 0.64051
 O141 O 0.37379 0.96564 0.68532
 O142 O 0.32868 1.03741 0.63447
 O143 O 0.37503 1.03640 0.68604
 O144 O 0.32564 0.96743 0.63577
 O145 O 0.28096 0.96885 0.67479
 O146 O 0.33066 1.03721 0.72538
 O147 O 0.28401 1.03862 0.67348
 O148 O 0.32944 0.96686 0.72466
 Cu149 Cu 0.35537 1.00166 0.65658
 Cu150 Cu 0.30187 1.00312 0.70360
 C151 C 0.35925 0.95380 0.71345
 C152 C 0.29836 1.04978 0.64494
 C153 C 0.36119 1.04854 0.71432
 C154 C 0.29478 0.95654 0.64666
 O155 O 0.63175 0.97543 0.30886
 O156 O 0.68348 1.04437 0.35713
 O157 O 0.63783 1.04439 0.30530
 O158 O 0.67666 0.97422 0.36284
 O159 O 0.72355 0.96883 0.32678
 O160 O 0.68259 1.03627 0.26721
 O161 O 0.72909 1.03836 0.31970
 O162 O 0.67867 0.96673 0.27341
 Cu163 Cu 0.65296 1.01006 0.33744
 Cu164 Cu 0.70816 1.00186 0.29317
 C165 C 0.64608 0.95999 0.28241
 C166 C 0.71508 1.05336 0.34652
 C167 C 0.65300 1.05157 0.27603
 C168 C 0.70713 0.96017 0.35507
 O169 O 0.86404 0.82234 0.46044
 O170 O 0.81718 0.87268 0.53101
 O171 O 0.86846 0.82401 0.52850
 O172 O 0.81474 0.87250 0.46214
 O173 O 0.77193 0.83081 0.46516
 O174 O 0.82712 0.78076 0.53029
 O175 O 0.77531 0.83006 0.53385
 O176 O 0.82147 0.78031 0.46291
 Cu177 Cu 0.84518 0.85226 0.49533
 Cu178 Cu 0.79455 0.80140 0.49852
 C179 C 0.85086 0.79254 0.44995
 C180 C 0.78818 0.85986 0.54444
 C181 C 0.85757 0.79364 0.53987
 C182 C 0.78439 0.85995 0.45212
 O183 O 0.12831 0.16051 0.46902
 O184 O 0.18353 0.12766 0.54269
 O185 O 0.13089 0.17310 0.53689
 O186 O 0.18494 0.11795 0.47555
 O187 O 0.22104 0.16458 0.46547
 O188 O 0.16980 0.21803 0.53002
 O189 O 0.22317 0.17157 0.53371
 O190 O 0.16481 0.20745 0.46267
 Cu191 Cu 0.15293 0.14033 0.50658
 Cu192 Cu 0.19851 0.19499 0.49712
 C193 C 0.13667 0.18984 0.45368
 C194 C 0.21289 0.14360 0.55057
 C195 C 0.14166 0.20476 0.54444
 C196 C 0.21231 0.13197 0.46017
 O197 O 0.18392 0.86134 0.46822
 O198 O 0.13834 0.81615 0.54231
 O199 O 0.18465 0.86903 0.53620
 O200 O 0.14103 0.80582 0.47471
 O201 O 0.18730 0.76819 0.48078
 O202 O 0.23126 0.83166 0.54089
 O203 O 0.18461 0.77848 0.54777
 O204 O 0.23061 0.82409 0.47312
 Cu205 Cu 0.15734 0.84183 0.50482
 Cu206 Cu 0.21318 0.79692 0.51116
 C207 C 0.21510 0.85083 0.45826
 C208 C 0.15333 0.78938 0.55739
 C209 C 0.21570 0.86119 0.54865
 C210 C 0.15657 0.77595 0.46781
 O211 O 0.86923 0.17928 0.53269
 O212 O 0.82648 0.12972 0.45978
 O213 O 0.87566 0.18051 0.46441
 O214 O 0.82169 0.12810 0.52797
 O215 O 0.77778 0.16881 0.52545
 O216 O 0.83270 0.22221 0.46242
 O217 O 0.78293 0.17076 0.45744
 O218 O 0.82571 0.22038 0.53027
 Cu219 Cu 0.85266 0.15035 0.49628
 Cu220 Cu 0.80041 0.19969 0.49340
 C221 C 0.85471 0.20822 0.54395
 C222 C 0.79691 0.14134 0.44679
 C223 C 0.86387 0.21061 0.45321
 C224 C 0.79059 0.13934 0.53746
 O225 O 0.46960 0.87157 0.82394
 O226 O 0.54293 0.82313 0.86930
 O227 O 0.53932 0.87139 0.81821
 O228 O 0.47233 0.82120 0.87135
 O229 O 0.46992 0.77930 0.83021
 O230 O 0.54071 0.82697 0.77960
 O231 O 0.53989 0.77889 0.83063
 O232 O 0.46999 0.83049 0.78196
 Cu233 Cu 0.50644 0.85103 0.84981
 Cu234 Cu 0.50502 0.79967 0.80145
 C235 C 0.45798 0.85991 0.79480
 C236 C 0.55289 0.79224 0.85866
 C237 C 0.55099 0.85791 0.78961
 C238 C 0.45981 0.79159 0.85981
 O239 O 0.52644 0.18502 0.13951
 O240 O 0.45465 0.13736 0.18832
 O241 O 0.45677 0.18391 0.13584
 O242 O 0.52561 0.14242 0.19363
 O243 O 0.52086 0.18877 0.22975
 O244 O 0.44949 0.22820 0.17401
 O245 O 0.45074 0.18217 0.22628
 O246 O 0.52005 0.23205 0.17458
 Cu247 Cu 0.49114 0.15736 0.16087
 Cu248 Cu 0.48485 0.21238 0.20486
 C249 C 0.53480 0.21697 0.14805
 C250 C 0.44080 0.15120 0.21581
 C251 C 0.44186 0.21344 0.14493
 C252 C 0.53511 0.15879 0.22146
 O253 O 0.46860 0.17724 0.87532
 O254 O 0.54343 0.13414 0.82580
 O255 O 0.53930 0.18292 0.87456
 O256 O 0.47293 0.12794 0.82665
 O257 O 0.46956 0.17002 0.78539
 O258 O 0.53509 0.22581 0.83420
 O259 O 0.53961 0.17681 0.78518
 O260 O 0.46476 0.21967 0.83448
 Cu261 Cu 0.50638 0.15133 0.85470
 Cu262 Cu 0.50174 0.20237 0.80574
 C263 C 0.45425 0.20605 0.86355
 C264 C 0.55411 0.14809 0.79693
 C265 C 0.54846 0.21372 0.86267
 C266 C 0.46048 0.13928 0.79755
 O267 O 0.53262 0.88785 0.17170
 O268 O 0.46743 0.84632 0.11073
 O269 O 0.46279 0.88356 0.16783
 O270 O 0.53874 0.85019 0.11353
 O271 O 0.53874 0.79943 0.14421
 O272 O 0.46548 0.83422 0.20066
 O273 O 0.46784 0.79643 0.14280
 O274 O 0.53603 0.83692 0.20201
 Cu275 Cu 0.50049 0.87193 0.13760
 Cu276 Cu 0.50221 0.81161 0.17545
 C277 C 0.54507 0.86970 0.19744
 C278 C 0.45596 0.81455 0.11674
 C279 C 0.45159 0.86483 0.19377
 C280 C 0.55141 0.81886 0.11942
 O281 O 0.88195 0.52866 0.83692
 O282 O 0.82575 0.45826 0.87822
 O283 O 0.87884 0.45876 0.83150
 O284 O 0.82699 0.52914 0.87866
 O285 O 0.78775 0.53145 0.83479
 O286 O 0.83976 0.46241 0.78767
 O287 O 0.78641 0.46157 0.83459
 O288 O 0.84309 0.53236 0.79283
 Cu289 Cu 0.85715 0.49296 0.86084
 Cu290 Cu 0.81042 0.49689 0.80799
 C291 C 0.87192 0.54287 0.80815
 C292 C 0.79625 0.44833 0.86399
 C293 C 0.86856 0.44942 0.80098
 C294 C 0.79883 0.54262 0.86430
 O295 O 0.12044 0.53815 0.16182
 O296 O 0.17129 0.46196 0.12407
 O297 O 0.12120 0.46867 0.17221
 O298 O 0.17204 0.53161 0.11522
 O299 O 0.21421 0.53654 0.15619
 O300 O 0.16279 0.47457 0.21359
 O301 O 0.21325 0.46726 0.16515
 O302 O 0.16184 0.54357 0.20344
 Cu303 Cu 0.14207 0.49954 0.13922
 Cu304 Cu 0.19224 0.50615 0.18871
 C305 C 0.13204 0.55341 0.18938
 C306 C 0.20105 0.45181 0.13784
 C307 C 0.13306 0.46132 0.20275
 C308 C 0.20216 0.54421 0.12578
 O309 O 0.82512 0.53440 0.12887
 O310 O 0.87401 0.46186 0.17629
 O311 O 0.82429 0.46447 0.12805
 O312 O 0.87912 0.53241 0.17262
 O313 O 0.83959 0.53427 0.21652
 O314 O 0.78227 0.46818 0.16963
 O315 O 0.83243 0.46412 0.21832
 O316 O 0.78524 0.53758 0.17240
 Cu317 Cu 0.85483 0.49803 0.14730
 Cu318 Cu 0.80596 0.50119 0.19867
 C319 C 0.79662 0.54807 0.14257
 C320 C 0.86113 0.45051 0.20543
 C321 C 0.79363 0.45546 0.14053
 C322 C 0.86898 0.54491 0.20200
 O323 O 0.16995 0.53353 0.86512
 O324 O 0.12474 0.46090 0.81641
 O325 O 0.17399 0.46269 0.86439
 O326 O 0.12326 0.53008 0.81221
 O327 O 0.16924 0.53375 0.77475
 O328 O 0.21768 0.46319 0.82434
 O329 O 0.16754 0.46350 0.77548
 O330 O 0.21550 0.53319 0.82712
 Cu331 Cu 0.14374 0.49710 0.84369
 Cu332 Cu 0.19694 0.49861 0.79652
 C333 C 0.20081 0.54504 0.85516
 C334 C 0.13789 0.45035 0.78735
 C335 C 0.20429 0.45102 0.85280
 C336 C 0.13745 0.54284 0.78422
 C337 C 0.26588 0.37931 0.06852
 C338 C 0.23014 0.37597 0.07487
 C339 C 0.20880 0.40238 0.09546
 C340 C 0.22250 0.42275 0.12129
 H341 H 0.21479 0.35545 0.06117
 H342 H 0.18035 0.40508 0.08859
 H343 H 0.28102 0.40136 0.07999
 H344 H 0.25021 0.41873 0.13005
 C345 C 0.72957 0.61312 0.06935
 C346 C 0.76559 0.61698 0.07338
 C347 C 0.78781 0.59177 0.09441
 C348 C 0.77539 0.57548 0.12352
 H349 H 0.78006 0.63700 0.05789
 H350 H 0.81552 0.58708 0.08574
 H351 H 0.71539 0.59096 0.08203
 H352 H 0.74863 0.58208 0.13365
 C353 C 0.72559 0.38595 0.93807
 C354 C 0.76067 0.37878 0.93126
 C355 C 0.78419 0.40271 0.90984
 C356 C 0.77245 0.42212 0.88224
 H357 H 0.77397 0.35676 0.94500
 H358 H 0.81262 0.40385 0.91713
 H359 H 0.71288 0.40965 0.92667
 H360 H 0.74473 0.41924 0.87314
 C361 C 0.26442 0.62496 0.91970
 C362 C 0.27752 0.59876 0.89890
 C363 C 0.25564 0.57802 0.87344
 C364 C 0.22002 0.57140 0.87740
 H365 H 0.30618 0.59203 0.90007
 H366 H 0.27060 0.56437 0.85279
 H367 H 0.23651 0.63392 0.91715
 H368 H 0.20529 0.58275 0.89946
 C369 C 0.07875 0.28759 0.38989
 C370 C 0.08649 0.25237 0.39032
 C371 C 0.11315 0.23815 0.41568
 C372 C 0.11283 0.20351 0.42557
 H373 H 0.07175 0.23392 0.37352
 H374 H 0.13172 0.25684 0.42817
 H375 H 0.09212 0.30532 0.40843
 H376 H 0.09285 0.18531 0.41456
 C377 C 0.07319 0.72610 0.61804
 C378 C 0.07927 0.76132 0.62332
 C379 C 0.10334 0.78277 0.60011
 C380 C 0.13356 0.76949 0.58512
 H381 H 0.06282 0.77590 0.64222
 H382 H 0.09526 0.81041 0.59483
 H383 H 0.08736 0.71217 0.59706
 H384 H 0.14325 0.74280 0.59222
 C385 C 0.92859 0.72590 0.39004
 C386 C 0.92110 0.76040 0.38204
 C387 C 0.89859 0.78346 0.40511
 C388 C 0.87028 0.77073 0.42362
 H389 H 0.93497 0.77332 0.36016
 H390 H 0.90576 0.81177 0.40675
 H391 H 0.91750 0.71394 0.41383
 H392 H 0.86146 0.74308 0.42007
 C393 C 0.92419 0.27143 0.61670
 C394 C 0.91961 0.23554 0.61835
 C395 C 0.89906 0.21487 0.59184
 C396 C 0.87194 0.22870 0.57253
 H397 H 0.93489 0.21996 0.63745
 H398 H 0.90696 0.18693 0.58820
 H399 H 0.91147 0.28699 0.59594
 H400 H 0.86207 0.25576 0.57751
 C401 C 0.37644 0.07171 0.27840
 C402 C 0.37212 0.07834 0.24396
 C403 C 0.39682 0.10180 0.22336
 C404 C 0.41373 0.13076 0.23652
 H405 H 0.35246 0.06280 0.22922
 H406 H 0.40081 0.09481 0.19597
 H407 H 0.39811 0.08480 0.29273
 H408 H 0.40790 0.13961 0.26307
 C409 C 0.62183 0.07688 0.73055
 C410 C 0.62711 0.08109 0.76516
 C411 C 0.60185 0.10208 0.78759
 C412 C 0.58262 0.13041 0.77577
 H413 H 0.64810 0.06555 0.77825
 H414 H 0.59894 0.09348 0.81474
 H415 H 0.59890 0.08985 0.71791
 H416 H 0.58720 0.14069 0.74940
 C417 C 0.37731 0.92515 0.73393
 C418 C 0.40448 0.90530 0.72045
 C419 C 0.42575 0.87877 0.74107
 C420 C 0.43126 0.88205 0.77570
 H421 H 0.41180 0.90846 0.69297
 H422 H 0.44061 0.85845 0.72647
 H423 H 0.36786 0.92040 0.76056
 H424 H 0.41895 0.90418 0.78998
 C425 C 0.62422 0.93542 0.26065
 C426 C 0.58854 0.94120 0.25640
 C427 C 0.56628 0.92221 0.23014
 C428 C 0.56969 0.88706 0.22274
 H429 H 0.57576 0.96376 0.26970
 H430 H 0.54451 0.93761 0.21810
 H431 H 0.63814 0.91553 0.24469
 H432 H 0.58886 0.87045 0.23714
 C433 C 0.36588 0.26574 0.92189
 C434 C 0.39346 0.27974 0.90313
 C435 C 0.41660 0.25871 0.87884
 C436 C 0.42592 0.22419 0.88467
 H437 H 0.39954 0.30827 0.90524
 H438 H 0.42984 0.27366 0.85784
 H439 H 0.35777 0.23792 0.91811
 H440 H 0.41509 0.20992 0.90733
 C441 C 0.63010 0.72570 0.92229
 C442 C 0.60184 0.71330 0.90380
 C443 C 0.58146 0.73547 0.87809
 C444 C 0.57863 0.77150 0.88034
 H445 H 0.59299 0.68563 0.90742
 H446 H 0.56516 0.72112 0.85903
 H447 H 0.64074 0.75247 0.91720
 H448 H 0.59230 0.78588 0.90119
 C449 C 0.38982 0.71430 0.06323
 C450 C 0.39193 0.74980 0.06898
 C451 C 0.41900 0.76433 0.09376
 C452 C 0.42833 0.79922 0.09305
 H453 H 0.37489 0.76828 0.05416
 H454 H 0.43233 0.74601 0.11195
 H455 H 0.40856 0.69628 0.07659
 H456 H 0.41593 0.81709 0.07385
 C457 C 0.61545 0.27803 0.08278
 C458 C 0.58749 0.29249 0.10063
 C459 C 0.56523 0.27228 0.12660
 C460 C 0.56119 0.23635 0.12575
 H461 H 0.58043 0.32058 0.09637
 H462 H 0.54906 0.28801 0.14485
 H463 H 0.62444 0.25079 0.08846
 H464 H 0.57505 0.22063 0.10585
 C465 C 0.27935 0.07629 0.62263
 C466 C 0.24438 0.08485 0.62802
 C467 C 0.22230 0.10482 0.60209
 C468 C 0.23573 0.12881 0.57892
 H469 H 0.22988 0.07295 0.65006
 H470 H 0.19346 0.09879 0.60198
 H471 H 0.29342 0.08594 0.59935
 H472 H 0.26388 0.13725 0.58025
 C473 C 0.73520 0.07930 0.36470
 C474 C 0.72143 0.09776 0.39204
 C475 C 0.74264 0.12333 0.41355
 C476 C 0.77825 0.11940 0.42007
 H477 H 0.69300 0.09470 0.39908
 H478 H 0.72729 0.14363 0.42770
 H479 H 0.76288 0.08441 0.35617
 H480 H 0.79323 0.09724 0.40843
 C481 C 0.72642 0.93522 0.61346
 C482 C 0.76255 0.93034 0.61453
 C483 C 0.78268 0.90843 0.58841
 C484 C 0.76837 0.87984 0.57199
 H485 H 0.77859 0.94557 0.63313
 H486 H 0.81064 0.91599 0.58316
 H487 H 0.71054 0.92248 0.59305
 H488 H 0.74135 0.87052 0.57890
 C489 C 0.27383 0.91150 0.37325
 C490 C 0.28903 0.89289 0.39977
 C491 C 0.26890 0.86758 0.42288
 C492 C 0.23337 0.87120 0.42993
 H493 H 0.31756 0.89679 0.40568
 H494 H 0.28489 0.84828 0.43775
 H495 H 0.24604 0.90618 0.36552
 H496 H 0.21774 0.89224 0.41712
 C497 C 0.07872 0.36753 0.72447
 C498 C 0.09699 0.39606 0.71164
 C499 C 0.12224 0.41804 0.73285
 C500 C 0.11734 0.42330 0.76738
 H501 H 0.09315 0.40422 0.68450
 H502 H 0.14257 0.43369 0.71881
 H503 H 0.08432 0.35754 0.75072
 H504 H 0.09499 0.41013 0.78092
 C505 C 0.07875 0.61296 0.29090
 C506 C 0.08458 0.61402 0.25618
 C507 C 0.11115 0.58937 0.23975
 C508 C 0.10969 0.58201 0.20539
 H509 H 0.06820 0.63148 0.23960
 H510 H 0.13026 0.57498 0.25638
 H511 H 0.09409 0.59411 0.30697
 H512 H 0.08900 0.59474 0.18929
 C513 C 0.93286 0.38362 0.27110
 C514 C 0.93029 0.37928 0.23621
 C515 C 0.90901 0.40432 0.21383
 C516 C 0.87968 0.42208 0.22568
 H517 H 0.94719 0.35939 0.22319
 H518 H 0.91822 0.40845 0.18701
 H519 H 0.91865 0.40565 0.28379
 H520 H 0.86894 0.41621 0.25165
 C521 C 0.91721 0.61497 0.71042
 C522 C 0.91415 0.61156 0.74523
 C523 C 0.88916 0.58464 0.76044
 C524 C 0.89439 0.57186 0.79290
 H525 H 0.93227 0.62640 0.76235
 H526 H 0.86775 0.57357 0.74418
 H527 H 0.90092 0.59799 0.69346
 H528 H 0.91683 0.58200 0.80842
 C529 C 0.73379 0.61239 0.93322
 C530 C 0.76935 0.61772 0.92724
 C531 C 0.79154 0.59105 0.90793
 C532 C 0.77793 0.57109 0.88184
 H533 H 0.78342 0.63992 0.93970
 H534 H 0.81982 0.58813 0.91533
 H535 H 0.72085 0.58829 0.92313
 H536 H 0.75066 0.57617 0.87231
 C537 C 0.26478 0.38234 0.92880
 C538 C 0.23007 0.37703 0.91928
 C539 C 0.20951 0.40346 0.89797
 C540 C 0.22485 0.42365 0.87265
 H541 H 0.21490 0.35442 0.93001
 H542 H 0.18052 0.40546 0.90278
 H543 H 0.27876 0.40659 0.92017
 H544 H 0.25319 0.41968 0.86574
 C545 C 0.27106 0.62084 0.06405
 C546 C 0.28180 0.58924 0.07789
 C547 C 0.25971 0.56927 0.10392
 C548 C 0.22340 0.56735 0.10191
 H549 H 0.30812 0.57801 0.07111
 H550 H 0.27405 0.55304 0.12320
 H551 H 0.24602 0.63311 0.07331
 H552 H 0.20922 0.58053 0.08046
 C553 C 0.72383 0.37882 0.08206
 C554 C 0.71221 0.40870 0.09851
 C555 C 0.73505 0.42889 0.12346
 C556 C 0.77123 0.43069 0.11992
 H557 H 0.68511 0.41910 0.09369
 H558 H 0.72139 0.44581 0.14259
 H559 H 0.74979 0.36703 0.08916
 H560 H 0.78466 0.41653 0.09865
 C561 C 0.92271 0.72732 0.61532
 C562 C 0.90780 0.71574 0.58526
 C563 C 0.88073 0.73701 0.56532
 C564 C 0.88141 0.77316 0.56368
 H565 H 0.91448 0.68919 0.57521
 H566 H 0.86196 0.72224 0.54886
 H567 H 0.91363 0.75264 0.62656
 H568 H 0.90246 0.78798 0.57728
 C569 C 0.92853 0.27788 0.37819
 C570 C 0.91048 0.29021 0.40644
 C571 C 0.88393 0.26796 0.42626
 C572 C 0.88748 0.23210 0.42988
 H573 H 0.91455 0.31769 0.41527
 H574 H 0.86297 0.28202 0.44092
 H575 H 0.92219 0.25131 0.36809
 H576 H 0.91043 0.21837 0.41799
 C577 C 0.06640 0.26832 0.61208
 C578 C 0.07569 0.23366 0.61750
 C579 C 0.09680 0.21231 0.59187
 C580 C 0.12145 0.22676 0.56997
 H581 H 0.06504 0.21913 0.64011
 H582 H 0.09259 0.18336 0.59211
 H583 H 0.07494 0.28193 0.58815
 H584 H 0.12798 0.25522 0.57141
 C585 C 0.07235 0.73614 0.37650
 C586 C 0.09092 0.72943 0.40598
 C587 C 0.11233 0.75776 0.42312
 C588 C 0.13823 0.74896 0.44606
 H589 H 0.08970 0.70299 0.41838
 H590 H 0.10607 0.78588 0.41781
 H591 H 0.07564 0.76202 0.36337
 H592 H 0.14574 0.72086 0.44968
 C593 C 0.62605 0.93273 0.73116
 C594 C 0.59039 0.93666 0.73706
 C595 C 0.57001 0.91452 0.76261
 C596 C 0.57538 0.87904 0.76684
 H597 H 0.57603 0.95917 0.72518
 H598 H 0.54753 0.92748 0.77612
 H599 H 0.64155 0.91290 0.74585
 H600 H 0.59500 0.86494 0.75059
 C601 C 0.38261 0.92789 0.26623
 C602 C 0.37675 0.92521 0.23158
 C603 C 0.40264 0.90747 0.20758
 C604 C 0.42300 0.87908 0.21695
 H605 H 0.35448 0.93997 0.21966
 H606 H 0.40478 0.91842 0.18116
 H607 H 0.40662 0.91588 0.27788
 H608 H 0.41909 0.86625 0.24235
 C609 C 0.63513 0.07637 0.25113
 C610 C 0.60750 0.09752 0.26103
 C611 C 0.58521 0.11701 0.23507
 C612 C 0.56174 0.14239 0.24545
 H613 H 0.59996 0.09914 0.28860
 H614 H 0.58690 0.10950 0.20757
 H615 H 0.64357 0.07579 0.22378
 H616 H 0.56146 0.15097 0.27269
 C617 C 0.38075 0.07558 0.73518
 C618 C 0.40896 0.09424 0.72215
 C619 C 0.43018 0.12011 0.74318
 C620 C 0.43582 0.11577 0.77775
 H621 H 0.41649 0.09127 0.69473
 H622 H 0.44423 0.14143 0.72904
 H623 H 0.37126 0.08048 0.76175
 H624 H 0.42449 0.09264 0.79145
 C625 C 0.61701 0.71863 0.06858
 C626 C 0.61678 0.75429 0.07342
 C627 C 0.59048 0.76998 0.09831
 C628 C 0.58067 0.80469 0.09677
 H629 H 0.63413 0.77174 0.05770
 H630 H 0.57715 0.75202 0.11693
 H631 H 0.59770 0.70192 0.08288
 H632 H 0.59287 0.82246 0.07729
 C633 C 0.36569 0.26022 0.06475
 C634 C 0.40161 0.25518 0.06207
 C635 C 0.42228 0.23189 0.08631
 C636 C 0.41654 0.23186 0.12107
 H637 H 0.41637 0.26706 0.04017
 H638 H 0.44567 0.21780 0.07564
 H639 H 0.35002 0.24549 0.08430
 H640 H 0.39583 0.24920 0.13235
 C641 C 0.61244 0.27937 0.93799
 C642 C 0.61838 0.24444 0.93090
 C643 C 0.59399 0.22260 0.90885
 C644 C 0.57426 0.23618 0.88234
 H645 H 0.63999 0.23013 0.94436
 H646 H 0.59292 0.19393 0.91455
 H647 H 0.58921 0.29324 0.92682
 H648 H 0.57705 0.26425 0.87470
 C649 C 0.37780 0.72750 0.91973
 C650 C 0.40553 0.71391 0.90111
 C651 C 0.42774 0.73592 0.87673
 C652 C 0.43409 0.77116 0.88183
 H653 H 0.41216 0.68548 0.90330
 H654 H 0.44188 0.72180 0.85585
 H655 H 0.36945 0.75529 0.91583
 H656 H 0.42262 0.78480 0.90444
 C657 C 0.72391 0.93449 0.37990
 C658 C 0.75930 0.92601 0.37781
 C659 C 0.77878 0.90471 0.40470
 C660 C 0.76325 0.87947 0.42520
 H661 H 0.77586 0.93798 0.35721
 H662 H 0.80775 0.90957 0.40677
 H663 H 0.70762 0.92496 0.40184
 H664 H 0.73496 0.87229 0.42169
 C665 C 0.27427 0.92970 0.62644
 C666 C 0.28947 0.91127 0.59997
 C667 C 0.26957 0.88458 0.57881
 C668 C 0.23392 0.88705 0.57191
 H669 H 0.31817 0.91459 0.59426
 H670 H 0.28565 0.86361 0.56645
 H671 H 0.24630 0.92463 0.63401
 H672 H 0.21815 0.90957 0.58179
 C673 C 0.26449 0.05730 0.38357
 C674 C 0.26311 0.05304 0.41851
 C675 C 0.23907 0.07484 0.44102
 C676 C 0.23456 0.11032 0.43608
 H677 H 0.27801 0.03115 0.43084
 H678 H 0.22704 0.06176 0.46382
 H679 H 0.24670 0.07656 0.37067
 H680 H 0.24959 0.12421 0.41551
 C681 C 0.72710 0.08177 0.62000
 C682 C 0.71282 0.09815 0.59174
 C683 C 0.73413 0.12251 0.56874
 C684 C 0.76964 0.11729 0.56254
 H685 H 0.68452 0.09386 0.58512
 H686 H 0.71950 0.14319 0.55433
 H687 H 0.75461 0.08798 0.62809
 H688 H 0.78361 0.09472 0.57470
 C689 C 0.92777 0.60349 0.30156
 C690 C 0.91780 0.60462 0.26784
 C691 C 0.89228 0.57813 0.25318
 C692 C 0.89196 0.57230 0.21858
 H693 H 0.93014 0.62422 0.25017
 H694 H 0.87518 0.56225 0.27065
 H695 H 0.91685 0.58276 0.31884
 H696 H 0.91093 0.58679 0.20176
 C697 C 0.92953 0.37030 0.73359
 C698 C 0.91187 0.39998 0.72288
 C699 C 0.88717 0.42112 0.74552
 C700 C 0.89103 0.42408 0.78047
 H701 H 0.91468 0.40901 0.69585
 H702 H 0.86706 0.43754 0.73212
 H703 H 0.92501 0.35957 0.75980
 H704 H 0.91290 0.41011 0.79386
 C705 C 0.06353 0.61832 0.72613
 C706 C 0.06015 0.58252 0.72941
 C707 C 0.08143 0.56109 0.75486
 C708 C 0.11654 0.56745 0.76162
 H709 H 0.03878 0.56870 0.71527
 H710 H 0.06844 0.53745 0.76617
 H711 H 0.08204 0.63289 0.74303
 H712 H 0.13097 0.58848 0.74742
 C713 C 0.07825 0.38321 0.27444
 C714 C 0.09222 0.41499 0.28408
 C715 C 0.11602 0.43647 0.26066
 C716 C 0.11147 0.43749 0.22569
 H717 H 0.08654 0.42563 0.31003
 H718 H 0.13562 0.45419 0.27292
 H719 H 0.08596 0.37146 0.24944
 H720 H 0.08967 0.42231 0.21365
   
