data_POSCAR
  _audit_creation_date              2014-09-24
  _audit_creation_method            'ToBaCCo'
  _symmetry_space_group_name_H-M    'P1'
  _symmetry_Int_Tables_number       1
  _symmetry_cell_setting            triclinic
  loop_
  _symmetry_equiv_pos_as_xyz
 x,y,z
_cell_length_a 34.5604
_cell_length_b 34.5126
_cell_length_c 34.5977
_cell_angle_alpha 75.004200
_cell_angle_beta 90.466300
_cell_angle_gamma 106.160200
loop_
  _atom_site_label
  _atom_site_type_symbol
  _atom_site_fract_x
  _atom_site_fract_y
  _atom_site_fract_z
C1 C 0.57188 0.57718 0.00765
 C2 C 0.57909 0.53873 0.00832
 C3 C 0.54534 0.50449 0.00782
 C4 C 0.50623 0.50937 0.00225
 C5 C 0.50137 0.54937 -0.00184
 C6 C 0.53328 0.58321 0.00275
 C7 C 0.47043 0.47348 -0.00037
 C8 C 0.43065 0.47405 0.00813
 C9 C 0.39685 0.44206 0.00368
 C10 C 0.40293 0.40749 -0.00686
 C11 C 0.44202 0.40471 -0.01325
 C12 C 0.47539 0.43839 -0.01127
 H13 H 0.59617 0.60167 0.01398
 H14 H 0.54972 0.47434 0.01022
 H15 H 0.47282 0.55471 -0.01039
 H16 H 0.42546 0.49900 0.01895
 H17 H 0.37709 0.38284 -0.01068
 H18 H 0.50517 0.43657 -0.01785
 C19 C -0.00749 0.59286 0.41881
 C20 C -0.00170 0.60047 0.45690
 C21 C 0.00205 0.56727 0.48909
 C22 C -0.00265 0.52687 0.48460
 C23 C -0.00933 0.52040 0.44612
 C24 C -0.00968 0.55360 0.41228
 C25 C 0.00086 0.49202 0.51989
 C26 C 0.01340 0.45820 0.51418
 C27 C 0.01583 0.42496 0.54672
 C28 C 0.00799 0.42688 0.58579
 C29 C -0.00407 0.46025 0.59268
 C30 C -0.00834 0.49218 0.55962
 H31 H -0.01333 0.61680 0.39444
 H32 H 0.01064 0.57332 0.51750
 H33 H -0.01265 0.48969 0.44237
 H34 H 0.02099 0.45715 0.48437
 H35 H 0.01192 0.40249 0.61108
 H36 H -0.01965 0.51661 0.56519
 C37 C 0.58312 -0.00360 0.57029
 C38 C 0.54273 -0.00836 0.58113
 C39 C 0.51427 -0.01204 0.55236
 C40 C 0.52603 -0.00724 0.51224
 C41 C 0.56681 -0.00223 0.50190
 C42 C 0.59564 -0.00214 0.53110
 C43 C 0.49556 -0.00681 0.48142
 C44 C 0.49916 -0.02108 0.44740
 C45 C 0.47085 -0.01953 0.41811
 C46 C 0.43734 -0.00580 0.42414
 C47 C 0.43261 0.00756 0.45830
 C48 C 0.46246 0.00830 0.48592
 H49 H 0.60526 0.00122 0.59213
 H50 H 0.48273 -0.01859 0.56144
 H51 H 0.57562 0.00031 0.47131
 H52 H 0.52369 -0.03386 0.44359
 H53 H 0.41493 -0.00535 0.40212
 H54 H 0.45983 0.02122 0.51081
 O55 O 0.46657 -0.00932 -0.05857
 O56 O 0.45308 -0.03175 0.05126
 O57 O 0.44960 0.03054 -0.00895
 O58 O 0.46867 -0.07108 0.00154
 O59 O 0.53386 -0.04205 0.00397
 O60 O 0.51481 0.06022 -0.00772
 O61 O 0.51818 -0.00202 0.05311
 O62 O 0.53182 0.01922 -0.05589
 Cu63 Cu 0.45286 -0.02308 -0.00392
 Cu64 Cu 0.53117 0.01207 -0.00130
 C65 C 0.50183 0.00756 -0.07577
 C66 C 0.48354 -0.02099 0.07099
 C67 C 0.47884 0.06276 -0.01011
 C68 C 0.50450 -0.07395 0.00414
 O69 O -0.05504 0.52665 0.99883
 O70 O 0.05111 0.52393 0.99974
 O71 O -0.00212 0.52570 0.94593
 O72 O -0.00122 0.52770 1.05172
 O73 O -0.02210 0.45873 1.07098
 O74 O -0.02282 0.45671 0.96434
 O75 O 0.03035 0.45496 1.01878
 O76 O -0.07552 0.45765 1.01765
 Cu77 Cu 0.00028 0.53282 0.99716
 Cu78 Cu -0.02445 0.45014 1.01974
 C79 C -0.08346 0.49257 1.00840
 C80 C 0.05889 0.48888 1.00944
 C81 C -0.01262 0.49103 0.93687
 C82 C -0.01185 0.49377 1.07950
 O83 O 0.01489 -0.01768 0.45006
 O84 O 0.02570 0.08532 0.46903
 O85 O 0.07522 0.04620 0.45266
 O86 O -0.03507 0.02281 0.46394
 O87 O -0.03413 -0.00568 0.52872
 O88 O 0.07631 0.01822 0.51751
 O89 O 0.02602 0.05662 0.53386
 O90 O 0.01587 -0.04545 0.51497
 Cu91 Cu 0.02003 0.03692 0.45239
 Cu92 Cu 0.02116 0.00309 0.53024
 C93 C 0.01384 -0.04915 0.47940
 C94 C 0.02733 0.08836 0.50490
 C95 C 0.09466 0.03608 0.48309
 C96 C -0.05346 0.00499 0.49830
 C97 C -0.34752 0.57122 0.99290
 C98 C -0.30803 0.56847 0.99205
 C99 C -0.29998 0.53010 1.00657
 C100 C -0.33214 0.49407 1.02244
 C101 C -0.37190 0.49663 1.02353
 C102 C -0.38059 0.53539 1.00874
 N103 N -0.25891 0.52895 1.00454
 N104 N -0.24873 0.49521 1.01520
 C105 C -0.20728 0.49523 1.01280
 C106 C -0.19790 0.45710 1.02387
 C107 C -0.15775 0.45614 1.02210
 C108 C -0.12611 0.49350 1.00927
 C109 C -0.13564 0.53176 0.99802
 C110 C -0.17581 0.53265 0.99971
 H111 H -0.35177 0.60154 0.97923
 H112 H -0.28352 0.59643 0.97936
 H113 H -0.32656 0.46400 1.03423
 H114 H -0.39527 0.46818 1.03735
 H115 H -0.22180 0.42804 1.03399
 H116 H -0.15149 0.42614 1.03105
 H117 H -0.11205 0.56108 0.98802
 H118 H -0.18220 0.56258 0.99097
 C119 C 0.32363 0.40925 1.02825
 C120 C 0.28411 0.41167 1.03169
 C121 C 0.27523 0.44972 1.01657
 C122 C 0.30665 0.48574 0.99836
 C123 C 0.34621 0.48337 0.99483
 C124 C 0.35514 0.44500 1.00942
 N125 N 0.23407 0.45059 1.01922
 N126 N 0.22375 0.48414 1.00671
 C127 C 0.18241 0.48464 1.00858
 C128 C 0.17347 0.52292 0.99569
 C129 C 0.13342 0.52443 0.99626
 C130 C 0.10145 0.48749 1.00963
 C131 C 0.11056 0.44907 1.02275
 C132 C 0.15063 0.44764 1.02231
 H133 H 0.32951 0.37937 1.04036
 H134 H 0.26023 0.38370 1.04592
 H135 H 0.30058 0.51553 0.98632
 H136 H 0.36964 0.51138 0.97974
 H137 H 0.19764 0.55166 0.98497
 H138 H 0.12751 0.55452 0.98591
 H139 H 0.08670 0.42004 1.03327
 H140 H 0.15670 0.41762 1.03237
 C141 C -0.01010 -0.35549 0.50069
 C142 C -0.00931 -0.31653 0.50610
 C143 C 0.00137 -0.28059 0.47398
 C144 C 0.01192 -0.28385 0.43615
 C145 C 0.01145 -0.32269 0.43059
 C146 C 0.00007 -0.35961 0.46269
 N147 N 0.00143 -0.24131 0.48069
 N148 N 0.00760 -0.20786 0.45233
 C149 C 0.00803 -0.16868 0.45958
 C150 C 0.01278 -0.13343 0.42699
 C151 C 0.01405 -0.09461 0.43321
 C152 C 0.01084 -0.09042 0.47234
 C153 C 0.00578 -0.12599 0.50498
 C154 C 0.00429 -0.16475 0.49869
 H155 H -0.02052 -0.38240 0.52626
 H156 H -0.01769 -0.31443 0.53543
 H157 H 0.02094 -0.25631 0.41093
 H158 H 0.02147 -0.32300 0.40118
 H159 H 0.01570 -0.13604 0.39669
 H160 H 0.01809 -0.06782 0.40746
 H161 H 0.00315 -0.12388 0.53549
 H162 H 0.00060 -0.19149 0.52442
 C163 C 0.05165 0.39052 0.50818
 C164 C 0.05731 0.35456 0.50040
 C165 C 0.03666 0.31483 0.52447
 C166 C 0.01035 0.31139 0.55671
 C167 C 0.00421 0.34717 0.56415
 C168 C 0.02459 0.38725 0.53989
 N169 N 0.04153 0.27838 0.51491
 N170 N 0.02836 0.24222 0.53923
 C171 C 0.03076 0.20482 0.53001
 C172 C 0.02141 0.16760 0.56074
 C173 C 0.02126 0.12998 0.55267
 C174 C 0.02984 0.12882 0.51340
 C175 C 0.03952 0.16634 0.48252
 C176 C 0.04023 0.20416 0.49079
 H177 H 0.06840 0.42082 0.48928
 H178 H 0.07773 0.35765 0.47550
 H179 H -0.00631 0.28100 0.57553
 H180 H -0.01748 0.34327 0.58826
 H181 H 0.01386 0.16772 0.59102
 H182 H 0.01348 0.10161 0.57708
 H183 H 0.04632 0.16641 0.45200
 H184 H 0.04728 0.23259 0.46651
 C185 C 0.50082 0.01162 -0.37237
 C186 C 0.49117 0.01462 -0.33434
 C187 C 0.51180 -0.00038 -0.30158
 C188 C 0.54097 -0.02028 -0.30674
 C189 C 0.54998 -0.02423 -0.34450
 C190 C 0.53064 -0.00754 -0.37800
 N191 N 0.50334 0.00540 -0.26345
 N192 N 0.52936 0.00550 -0.23727
 C193 C 0.52183 0.00967 -0.19826
 C194 C 0.55430 0.01709 -0.17427
 C195 C 0.54791 0.01844 -0.13499
 C196 C 0.50864 0.01159 -0.11882
 C197 C 0.47607 0.00512 -0.14329
 C198 C 0.48265 0.00445 -0.18291
 H199 H 0.48572 0.02544 -0.39749
 H200 H 0.46858 0.02996 -0.33064
 H201 H 0.55673 -0.03283 -0.28154
 H202 H 0.57226 -0.04017 -0.34742
 H203 H 0.58458 0.02109 -0.18587
 H204 H 0.57359 0.02321 -0.11682
 H205 H 0.44551 -0.00030 -0.13157
 H206 H 0.45709 -0.00149 -0.20104
 C207 C 0.51588 -0.01570 0.36014
 C208 C 0.52116 -0.02026 0.32177
 C209 C 0.48804 -0.03881 0.30271
 C210 C 0.44970 -0.05506 0.32331
 C211 C 0.44440 -0.05080 0.36180
 C212 C 0.47724 -0.02993 0.38012
 N213 N 0.49360 -0.03744 0.26145
 N214 N 0.46417 -0.04935 0.24087
 C215 C 0.46992 -0.04497 0.19890
 C216 C 0.43625 -0.05673 0.17732
 C217 C 0.44057 -0.04952 0.13571
 C218 C 0.47881 -0.03029 0.11511
 C219 C 0.51268 -0.01940 0.13705
 C220 C 0.50830 -0.02665 0.17855
 H221 H 0.54170 0.00086 0.37326
 H222 H 0.55081 -0.00755 0.30609
 H223 H 0.42369 -0.06985 0.30923
 H224 H 0.41443 -0.06283 0.37679
 H225 H 0.40650 -0.07071 0.19269
 H226 H 0.41394 -0.05838 0.11965
 H227 H 0.54258 -0.00475 0.12211
 H228 H 0.53482 -0.01721 0.19457
 C229 C 0.48803 -0.37598 0.01431
 C230 C 0.48171 -0.33812 0.01576
 C231 C 0.51347 -0.30122 0.00629
 C232 C 0.55180 -0.30230 -0.00542
 C233 C 0.55826 -0.34002 -0.00723
 C234 C 0.52658 -0.37792 0.00298
 N235 N 0.50589 -0.26315 0.00862
 N236 N 0.53407 -0.22919 0.00419
 C237 C 0.52610 -0.19111 0.00593
 C238 C 0.55855 -0.15531 0.00279
 C239 C 0.55168 -0.11734 0.00312
 C240 C 0.51205 -0.11459 0.00636
 C241 C 0.47953 -0.15077 0.01006
 C242 C 0.48647 -0.18872 0.00994
 H243 H 0.46275 -0.40381 0.02397
 H244 H 0.45201 -0.33766 0.02500
 H245 H 0.57673 -0.27392 -0.01356
 H246 H 0.58801 -0.33870 -0.01799
 H247 H 0.58923 -0.15678 -0.00031
 H248 H 0.57735 -0.09000 0.00009
 H249 H 0.44866 -0.14971 0.01264
 H250 H 0.46086 -0.21598 0.01243
 C251 C 0.47997 0.36729 -0.04591
 C252 C 0.48698 0.33035 -0.04965
 C253 C 0.46183 0.29134 -0.02831
 C254 C 0.42922 0.28962 -0.00333
 C255 C 0.42252 0.32643 0.00088
 C256 C 0.44794 0.36580 -0.02012
 N257 N 0.47077 0.25398 -0.03111
 N258 N 0.44588 0.21800 -0.01690
 C259 C 0.45473 0.18001 -0.01744
 C260 C 0.42352 0.14254 -0.00720
 C261 C 0.43124 0.10455 -0.00561
 C262 C 0.47065 0.10334 -0.01361
 C263 C 0.50201 0.14107 -0.02405
 C264 C 0.49409 0.17918 -0.02621
 H265 H 0.49974 0.39697 -0.06310
 H266 H 0.51217 0.33210 -0.06907
 H267 H 0.40955 0.25984 0.01380
 H268 H 0.39809 0.32395 0.02160
 H269 H 0.39312 0.14278 -0.00018
 H270 H 0.40647 0.07603 0.00270
 H271 H 0.53265 0.14111 -0.03045
 H272 H 0.51876 0.20779 -0.03393
 C273 C -0.34528 0.01714 0.48257
 C274 C -0.30551 0.01786 0.47418
 C275 C -0.28353 0.00040 0.50443
 C276 C -0.30176 -0.01803 0.54337
 C277 C -0.34128 -0.01869 0.55195
 C278 C -0.36397 -0.00093 0.52183
 N279 N -0.24255 0.00245 0.49535
 N280 N -0.22175 -0.01343 0.52209
 C281 C -0.18040 -0.01088 0.51451
 C282 C -0.15955 -0.02763 0.54630
 C283 C -0.11847 -0.02340 0.54084
 C284 C -0.09757 -0.00234 0.50324
 C285 C -0.11888 0.01345 0.47100
 C286 C -0.15999 0.00930 0.47659
 H287 H -0.36035 0.03248 0.45840
 H288 H -0.29160 0.03252 0.44405
 H289 H -0.28553 -0.03210 0.56730
 H290 H -0.35428 -0.03479 0.58214
 H291 H -0.17505 -0.04326 0.57564
 H292 H -0.10297 -0.03598 0.56624
 H293 H -0.10362 0.02985 0.44168
 H294 H -0.17558 0.02244 0.45154
 C295 C 0.37659 0.00532 0.50492
 C296 C 0.33993 0.01273 0.51189
 C297 C 0.32168 0.03375 0.48031
 C298 C 0.34125 0.04885 0.44166
 C299 C 0.37804 0.04161 0.43464
 C300 C 0.39570 0.01904 0.46606
 N301 N 0.28203 0.03647 0.48775
 N302 N 0.26235 0.05247 0.45994
 C303 C 0.22162 0.05227 0.46724
 C304 C 0.20058 0.06744 0.43486
 C305 C 0.15949 0.06338 0.44018
 C306 C 0.13883 0.04404 0.47817
 C307 C 0.16046 0.03036 0.51097
 C308 C 0.20151 0.03437 0.50557
 H309 H 0.38915 -0.01260 0.52965
 H310 H 0.32497 0.00077 0.54174
 H311 H 0.32771 0.06533 0.41678
 H312 H 0.39239 0.05315 0.40454
 H313 H 0.21577 0.08122 0.40519
 H314 H 0.14371 0.07439 0.41434
 H315 H 0.14545 0.01547 0.54062
 H316 H 0.21718 0.02244 0.53111
 C317 C 0.00504 0.58302 1.33902
 C318 C 0.00546 0.57824 1.30019
 C319 C -0.00985 0.53896 1.29323
 C320 C -0.02628 0.50410 1.32581
 C321 C -0.02694 0.50870 1.36491
 C322 C -0.01108 0.54837 1.37254
 N323 N -0.00792 0.53576 1.25281
 N324 N -0.01923 0.50120 1.24336
 C325 C -0.01663 0.49970 1.20236
 C326 C -0.02883 0.46098 1.19330
 C327 C -0.02691 0.45879 1.15348
 C328 C -0.01276 0.49546 1.12194
 C329 C -0.00029 0.53424 1.13124
 C330 C -0.00216 0.53636 1.17096
 H331 H 0.01940 0.61396 1.34242
 H332 H 0.01852 0.60535 1.27534
 H333 H -0.03875 0.47337 1.32107
 H334 H -0.04118 0.48103 1.38862
 H335 H -0.04001 0.43244 1.21714
 H336 H -0.03682 0.42844 1.14737
 H337 H 0.01076 0.56311 1.10777
 H338 H 0.00753 0.56672 1.17702
 C339 C -0.03129 0.42467 0.66416
 C340 C -0.03550 0.42505 0.70422
 C341 C -0.02035 0.46215 0.71568
 C342 C -0.00171 0.49940 0.68618
 C343 C 0.00251 0.49907 0.64600
 C344 C -0.01167 0.46154 0.63462
 N345 N -0.02317 0.46074 0.75743
 N346 N -0.00998 0.49318 0.77014
 C347 C -0.01182 0.49165 0.81198
 C348 C 0.00181 0.52902 0.82325
 C349 C 0.00132 0.52878 0.86372
 C350 C -0.01270 0.49095 0.89393
 C351 C -0.02649 0.45337 0.88255
 C352 C -0.02613 0.45370 0.84194
 H353 H -0.04314 0.39538 0.65633
 H354 H -0.05010 0.39617 0.72655
 H355 H 0.01026 0.52853 0.69424
 H356 H 0.01806 0.52791 0.62408
 H357 H 0.01300 0.55846 0.80053
 H358 H 0.01220 0.55830 0.87134
 H359 H -0.03752 0.42372 0.90501
 H360 H -0.03674 0.42433 0.83403
   
