data_POSCAR
  _audit_creation_date              2014-09-24
  _audit_creation_method            'ToBaCCo'
  _symmetry_space_group_name_H-M    'P1'
  _symmetry_Int_Tables_number       1
  _symmetry_cell_setting            triclinic
  loop_
  _symmetry_equiv_pos_as_xyz
 x,y,z
_cell_length_a 14.3110
_cell_length_b 13.8744
_cell_length_c 14.4986
_cell_angle_alpha 86.275300
_cell_angle_beta 89.688900
_cell_angle_gamma 91.406300
loop_
  _atom_site_label
  _atom_site_type_symbol
  _atom_site_fract_x
  _atom_site_fract_y
  _atom_site_fract_z
C1 C 0.00891 0.48588 0.25946
 C2 C 0.01157 0.53272 0.73992
 C3 C 0.21652 -0.01419 0.48812
 C4 C 0.75828 0.02485 0.48841
 C5 C 0.49176 0.24815 1.02323
 C6 C 0.49182 0.74542 0.99320
 B7 B 0.97301 1.10396 0.03241
 B8 B 0.98094 1.09658 -0.08383
 B9 B 1.07691 1.08012 -0.01772
 B10 B 1.04312 1.01951 0.08205
 B11 B 0.92655 0.99783 0.07863
 B12 B 0.88810 1.04637 -0.02461
 B13 B 1.00802 0.90197 -0.05946
 B14 B 1.00069 0.90929 0.05604
 B15 B 0.90475 0.92637 -0.00936
 B16 B 0.93838 0.98696 -0.10916
 B17 B 1.05599 1.00764 -0.10519
 B18 B 1.09392 0.95912 -0.00210
 B19 B 0.60960 0.51734 0.46212
 B20 B 0.51033 0.56830 0.41893
 B21 B 0.52798 0.44892 0.41092
 B22 B 0.58094 0.40558 0.50924
 B23 B 0.59681 0.49728 0.57869
 B24 B 0.55407 0.59886 0.52370
 B25 B 0.40886 0.46703 0.55686
 B26 B 0.50710 0.41694 0.59868
 B27 B 0.48981 0.53656 0.60745
 B28 B 0.43711 0.58117 0.50987
 B29 B 0.42002 0.48642 0.44122
 B30 B 0.46562 0.38622 0.49562
 C31 C 1.03356 1.40171 0.20191
 C32 C 0.97334 1.33237 0.17895
 C33 C 1.00639 1.25187 0.12754
 C34 C 0.94705 1.20005 0.07923
 H35 H 0.90033 1.33375 0.19884
 H36 H 1.07928 1.23392 0.13239
 H37 H 1.10147 1.40347 0.16831
 H38 H 0.87522 1.22206 0.07514
 C39 C 0.98156 0.56612 0.18889
 C40 C 1.01816 0.65561 0.18548
 C41 C 0.98523 0.73145 0.11978
 C42 C 1.01762 0.82111 0.12717
 H43 H 1.07276 0.67523 0.23246
 H44 H 0.93845 0.71322 0.06510
 H45 H 0.92610 0.54984 0.14107
 H46 H 1.06621 0.83383 0.18205
 C47 C 1.00851 1.44509 -0.19112
 C48 C 0.98362 1.35565 -0.21192
 C49 C 0.98794 1.27629 -0.13992
 C50 C 0.97073 1.18480 -0.15823
 H51 H 0.96251 1.34123 -0.28147
 H52 H 1.00782 1.29388 -0.07127
 H53 H 1.03250 1.45519 -0.12141
 H54 H 0.95140 1.16884 -0.22773
 C55 C 1.00757 0.62216 -0.20543
 C56 C 1.07632 0.64838 -0.14834
 C57 C 1.07140 0.73275 -0.09116
 C58 C 1.01540 0.80642 -0.11217
 H59 H 1.13769 0.60446 -0.14083
 H60 H 1.11737 0.73464 -0.03245
 H61 H 0.94293 0.66100 -0.20750
 H62 H 0.97226 0.80512 -0.17284
 C63 C 1.14474 0.97589 0.41251
 C64 C 1.15702 1.01690 0.32745
 C65 C 1.08770 1.00234 0.25518
 C66 C 1.10352 1.04070 0.17002
 H67 H 1.21966 1.06031 0.31086
 H68 H 1.02670 0.95670 0.27106
 H69 H 1.08299 0.92998 0.42601
 H70 H 1.16642 1.08471 0.15736
 C71 C 1.16792 0.95384 -0.42069
 C72 C 1.18969 0.98832 -0.33950
 C73 C 1.13142 0.96141 -0.25799
 C74 C 1.12425 1.02223 -0.19130
 H75 H 1.24531 1.04212 -0.33454
 H76 H 1.08830 0.89654 -0.25752
 H77 H 1.11197 0.89955 -0.42148
 H78 H 1.16504 1.08918 -0.19746
 C79 C 0.80589 1.05671 0.39688
 C80 C 0.80783 1.00370 0.32313
 C81 C 0.85967 1.03716 0.23863
 C82 C 0.86418 0.97942 0.16890
 H83 H 0.77344 0.93318 0.32543
 H84 H 0.89753 1.10561 0.23600
 H85 H 0.84397 1.12556 0.39305
 H86 H 0.82854 0.90962 0.17701
 C87 C 0.83552 0.99889 -0.44273
 C88 C 0.81847 0.98414 -0.35227
 C89 C 0.89394 0.98834 -0.28388
 C90 C 0.87353 0.96798 -0.19507
 H91 H 0.74655 0.97877 -0.32806
 H92 H 0.96234 1.01587 -0.30542
 H93 H 0.90784 1.00464 -0.46598
 H94 H 0.80322 0.94167 -0.17776
 C95 C 1.41092 1.17811 0.00819
 C96 C 1.32499 1.20757 -0.01418
 C97 C 1.24994 1.13634 -0.02756
 C98 C 1.16013 1.15872 -0.02135
 H99 H 1.30990 1.28390 -0.02000
 H100 H 1.26989 1.06394 -0.03868
 H101 H 1.42334 1.10106 0.01520
 H102 H 1.14330 1.23294 -0.01223
 C103 C 0.57773 1.18853 0.04656
 C104 C 0.64669 1.17346 -0.01289
 C105 C 0.72952 1.11968 0.01663
 C106 C 0.79069 1.09438 -0.04642
 H107 H 0.64369 1.20161 -0.08401
 H108 H 0.74119 1.10321 0.08949
 H109 H 0.58176 1.15478 0.11607
 H110 H 0.77635 1.11259 -0.11873
 C111 C 1.40831 0.80511 -0.04046
 C112 C 1.33165 0.81981 0.00915
 C113 C 1.25254 0.87443 -0.03112
 C114 C 1.19026 0.90987 0.02544
 H115 H 1.32653 0.79192 0.08056
 H116 H 1.24445 0.88342 -0.10533
 H117 H 1.41323 0.84008 -0.10958
 H118 H 1.20346 0.90046 0.09895
 C119 C 0.57161 0.81755 0.00792
 C120 C 0.66052 0.79158 0.02030
 C121 C 0.73538 0.86493 0.02368
 C122 C 0.82124 0.84850 -0.00720
 H123 H 0.67928 0.71636 0.02364
 H124 H 0.71841 0.93340 0.04945
 H125 H 0.55634 0.89398 0.00610
 H126 H 0.83418 0.78036 -0.03675
 C127 C 0.92716 0.45911 0.32497
 C128 C 0.85997 0.52065 0.34483
 C129 C 0.77750 0.48817 0.40049
 C130 C 0.70596 0.54702 0.41088
 H131 H 0.86334 0.59485 0.31655
 H132 H 0.77545 0.41508 0.43011
 H133 H 0.92391 0.38639 0.35743
 H134 H 0.71217 0.62043 0.38091
 C135 C 0.09111 0.51678 0.31964
 C136 C 0.17567 0.47741 0.32061
 C137 C 0.25618 0.51877 0.36862
 C138 C 0.33117 0.46461 0.38134
 H139 H 0.18779 0.41226 0.28602
 H140 H 0.25332 0.59029 0.39378
 H141 H 0.08060 0.57735 0.36197
 H142 H 0.32704 0.39202 0.35825
 C143 C 0.92966 0.53395 0.67357
 C144 C 0.84070 0.52153 0.70075
 C145 C 0.76559 0.53313 0.63255
 C146 C 0.68036 0.49606 0.65061
 H147 H 0.82376 0.50258 0.77272
 H148 H 0.78151 0.57159 0.56716
 H149 H 0.94342 0.55266 0.60070
 H150 H 0.66850 0.45829 0.71718
 C151 C 0.09907 0.53966 0.67992
 C152 C 0.15908 0.46860 0.66960
 C153 C 0.23538 0.48384 0.60187
 C154 C 0.31488 0.43670 0.61174
 H155 H 0.15383 0.40102 0.71111
 H156 H 0.22777 0.53964 0.54765
 H157 H 0.10978 0.60685 0.63795
 H158 H 0.31939 0.38089 0.66722
 C159 C 0.46840 0.68078 0.08098
 C160 C 0.49698 0.69871 0.16682
 C161 C 0.47300 0.63318 0.24904
 C162 C 0.51941 0.64094 0.32856
 H163 H 0.54029 0.76202 0.17747
 H164 H 0.41986 0.57748 0.24310
 H165 H 0.42418 0.61736 0.07268
 H166 H 0.57453 0.69532 0.32910
 C167 C 0.52262 0.68079 0.91712
 C168 C 0.47180 0.66167 0.84298
 C169 C 0.51372 0.61761 0.76335
 C170 C 0.45799 0.58141 0.70033
 H171 H 0.39922 0.68168 0.83846
 H172 H 0.58890 0.61564 0.75652
 H173 H 0.59194 0.65138 0.92043
 H174 H 0.38329 0.58288 0.71233
 C175 C 0.46723 0.30723 0.10488
 C176 C 0.53004 0.34113 0.16399
 C177 C 0.49876 0.39019 0.24528
 C178 C 0.55631 0.40518 0.31549
 H179 H 0.60390 0.32870 0.15517
 H180 H 0.42718 0.41083 0.24705
 H181 H 0.39436 0.32344 0.11564
 H182 H 0.62839 0.38472 0.30859
 C183 C 0.50666 0.31743 0.93812
 C184 C 0.49753 0.29060 0.85105
 C185 C 0.51166 0.36161 0.77246
 C186 C 0.50214 0.33889 0.68468
 H187 H 0.47907 0.21651 0.83806
 H188 H 0.52897 0.43424 0.78836
 H189 H 0.52830 0.39138 0.94887
 H190 H 0.48557 0.26474 0.67051
 C191 C 0.68515 0.94354 0.47623
 C192 C 0.68276 0.85580 0.52099
 C193 C 0.61233 0.78081 0.49845
 C194 C 0.60789 0.69634 0.54831
 H195 H 0.73485 0.83666 0.57222
 H196 H 0.56808 0.79411 0.43945
 H197 H 0.63142 0.95895 0.42516
 H198 H 0.65126 0.68988 0.60915
 C199 C 0.70529 0.11193 0.51687
 C200 C 0.74345 0.18454 0.56249
 C201 C 0.69220 0.27335 0.57506
 C202 C 0.64558 0.31538 0.50449
 H203 H 0.81305 0.17992 0.59090
 H204 H 0.69555 0.30460 0.64129
 H205 H 0.63462 0.11978 0.49111
 H206 H 0.64879 0.28363 0.43839
 C207 C 0.29662 0.91794 0.46804
 C208 C 0.29353 0.82330 0.49595
 C209 C 0.36451 0.75296 0.47126
 C210 C 0.36722 0.66804 0.52087
 H211 H 0.23594 0.79502 0.53914
 H212 H 0.41178 0.77007 0.41395
 H213 H 0.35211 0.94382 0.42102
 H214 H 0.32113 0.65922 0.58017
 C215 C 0.24380 0.09375 0.49008
 C216 C 0.33058 0.13251 0.48574
 C217 C 0.34737 0.23771 0.49426
 C218 C 0.43307 0.27681 0.48054
 H219 H 0.39015 0.08713 0.47826
 H220 H 0.29000 0.28214 0.51272
 H221 H 0.18638 0.14225 0.49831
 H222 H 0.48710 0.22971 0.45910
   
