data_POSCAR
  _audit_creation_date              2014-09-24
  _audit_creation_method            'ToBaCCo'
  _symmetry_space_group_name_H-M    'P1'
  _symmetry_Int_Tables_number       1
  _symmetry_cell_setting            triclinic
  loop_
  _symmetry_equiv_pos_as_xyz
 x,y,z
_cell_length_a 19.5678
_cell_length_b 19.3903
_cell_length_c 19.7877
_cell_angle_alpha 90.023300
_cell_angle_beta 88.015700
_cell_angle_gamma 89.359800
loop_
  _atom_site_label
  _atom_site_type_symbol
  _atom_site_fract_x
  _atom_site_fract_y
  _atom_site_fract_z
N1 N 0.22439 0.23342 0.24767
 N2 N -0.24602 0.75939 0.22332
 N3 N -0.19009 0.21022 -0.19569
 N4 N 0.22806 0.77556 -0.23884
 N5 N 0.18789 1.20512 0.77529
 N6 N 0.79019 0.77865 0.78902
 N7 N 0.24671 0.76148 1.23604
 N8 N 0.77994 1.20358 1.19079
 O9 O 0.57398 0.96995 0.86107
 O10 O 0.45655 0.90632 1.08598
 O11 O 0.58038 0.91537 1.06732
 O12 O 0.35486 0.96555 0.92284
 O13 O 0.53769 0.96306 1.16030
 O14 O 0.44896 0.94489 0.85894
 O15 O 0.35866 0.94429 1.05197
 O16 O 0.58279 0.90848 0.94705
 C17 C 0.59984 0.91901 0.88785
 C18 C 0.39355 0.89832 1.08075
 C19 C 0.58153 0.92032 1.13147
 C20 C 0.38623 0.93591 0.87232
 O21 O 0.42425 1.07306 0.86199
 O22 O 0.52033 1.08161 1.10476
 O23 O 0.62653 1.04554 0.93865
 O24 O 0.37892 1.08363 1.06686
 O25 O 0.41602 1.01816 1.14245
 O26 O 0.54396 1.09815 0.88813
 O27 O 0.36939 1.10184 0.95237
 O28 O 0.61531 1.04998 1.05927
 Co29 Co 0.49701 1.02017 0.87975
 Co30 Co 0.49091 0.99434 1.08988
 Co31 Co 0.59123 0.98238 1.00155
 Co32 Co 0.37569 1.02144 0.99822
 O33 O 0.48464 1.00865 0.98898
 C34 C 0.38044 1.10928 0.89134
 C35 C 0.58280 1.09048 1.09723
 C36 C 0.60507 1.09480 0.90273
 C37 C 0.38089 1.06901 1.12751
 O38 O 0.05348 0.44413 0.14237
 O39 O 0.06733 0.58119 -0.12638
 O40 O 0.11575 0.41534 -0.06683
 O41 O 0.12041 0.58483 0.07652
 O42 O 0.04981 0.45881 -0.14043
 O43 O 0.04284 0.57205 0.15114
 O44 O 0.13102 0.58513 -0.04128
 O45 O 0.10626 0.38623 0.05929
 C46 C 0.10015 0.40315 0.12021
 C47 C 0.12529 0.59123 -0.10266
 C48 C 0.10072 0.42219 -0.12680
 C49 C 0.10271 0.58785 0.13628
 O50 O -0.07942 0.56982 0.10075
 O51 O -0.07866 0.46850 -0.09050
 O52 O -0.02313 0.36129 0.04835
 O53 O 0.01317 0.65868 -0.05060
 O54 O -0.06538 0.58925 -0.07047
 O55 O -0.07785 0.44033 0.10817
 O56 O -0.00706 0.64957 0.07055
 O57 O -0.01582 0.37882 -0.07409
 Co58 Co -0.01171 0.50686 0.11389
 Co59 Co -0.00416 0.52401 -0.09749
 Co60 Co 0.04405 0.39771 -0.00751
 Co61 Co 0.06040 0.61051 0.01357
 O62 O 0.02120 0.50893 0.00614
 C63 C -0.06627 0.63192 0.09144
 C64 C -0.07134 0.40483 -0.09102
 C65 C -0.07348 0.38068 0.08490
 C66 C -0.04500 0.64885 -0.07191
 O67 O 1.07359 0.08602 0.44314
 O68 O 0.88314 0.07498 0.55149
 O69 O 0.94241 0.02787 0.34785
 O70 O 1.04501 0.00542 0.63348
 O71 O 0.86628 0.06314 0.42482
 O72 O 1.05342 0.07684 0.55600
 O73 O 0.92067 0.00869 0.63083
 O74 O 1.06772 0.02129 0.35774
 C75 C 1.07633 0.07967 0.38164
 C76 C 0.89853 0.06656 0.61165
 C77 C 0.89299 0.06621 0.36651
 C78 C 1.06267 0.06431 0.61493
 O79 O 1.12274 -0.05111 0.56003
 O80 O 0.84696 -0.07042 0.44027
 O81 O 1.05920 -0.11068 0.39430
 O82 O 0.92537 -0.12258 0.57347
 O83 O 0.84248 -0.05467 0.56555
 O84 O 1.13333 -0.04253 0.43664
 O85 O 1.04093 -0.11901 0.56322
 O86 O 0.93160 -0.10317 0.36975
 Co87 Co 1.08678 0.01386 0.49825
 Co88 Co 0.87217 0.00120 0.49524
 Co89 Co 0.99916 -0.03967 0.37953
 Co90 Co 0.98275 -0.05336 0.59131
 O91 O 0.98365 -0.01929 0.48892
 C92 C 1.10023 -0.10954 0.57567
 C93 C 0.87153 -0.10834 0.39306
 C94 C 1.11993 -0.09662 0.40463
 C95 C 0.86418 -0.11244 0.58218
 N96 N 1.08193 0.20375 0.35801
 N97 N 1.12323 0.24536 0.32397
 C98 C 1.16750 0.20640 0.28642
 C99 C 1.15254 0.13728 0.29497
 C100 C 1.09823 0.13817 0.34119
 H101 H 1.18083 0.09284 0.27550
 H102 H 1.04620 0.21996 0.39529
 H103 H 1.12298 0.29881 0.32987
 N104 N 0.78435 -0.20207 0.39376
 N105 N 0.75690 -0.24190 0.34782
 C106 C 0.78479 -0.22610 0.28648
 C107 C 0.83273 -0.17545 0.29375
 C108 C 0.83024 -0.16108 0.36202
 H109 H 0.86074 -0.14803 0.25425
 H110 H 0.77121 -0.20252 0.44537
 H111 H 0.71815 -0.27733 0.35820
 N112 N 0.90351 0.18876 0.64914
 N113 N 0.88193 0.22664 0.70135
 C114 C 0.84973 0.18530 0.74665
 C115 C 0.85147 0.11793 0.72274
 C116 C 0.88612 0.12266 0.66061
 H117 H 0.82770 0.07296 0.74535
 H118 H 0.92874 0.20815 0.60594
 H119 H 0.88642 0.28018 0.70407
 N120 N 1.08564 -0.20237 0.65764
 N121 N 1.11548 -0.22821 0.71039
 C122 C 1.18042 -0.20667 0.70973
 C123 C 1.19066 -0.15959 0.65650
 C124 C 1.12844 -0.15868 0.62463
 H125 H 1.23487 -0.12805 0.64533
 H126 H 1.03400 -0.21000 0.64852
 H127 H 1.08802 -0.25214 0.74957
 N128 N 0.35173 1.10324 1.24630
 N129 N 0.31201 1.14916 1.27814
 C130 C 0.28234 1.18959 1.23189
 C131 C 0.30366 1.16856 1.16765
 C132 C 0.34736 1.11318 1.17927
 H133 H 0.28579 1.18697 1.11969
 H134 H 0.37931 1.06438 1.27020
 H135 H 0.30283 1.15051 1.33043
 N136 N 0.38168 0.86724 0.76731
 N137 N 0.33934 0.82640 0.73643
 C138 C 0.28138 0.82304 0.77431
 C139 C 0.28622 0.86331 0.83208
 C140 C 0.35136 0.89022 0.82561
 H141 H 0.24929 0.86929 0.87370
 H142 H 0.43107 0.87824 0.74897
 H143 H 0.35093 0.79968 0.69158
 N144 N 0.59867 0.85482 1.23662
 N145 N 0.64275 0.80984 1.26031
 C146 C 0.69019 0.79461 1.21117
 C147 C 0.67447 0.83069 1.15293
 C148 C 0.61674 0.86895 1.17205
 H149 H 0.70333 0.83317 1.10540
 H150 H 0.55771 0.87633 1.26491
 H151 H 0.64042 0.79207 1.30996
 N152 N 0.63337 1.17871 0.81259
 N153 N 0.68842 1.20511 0.78292
 C154 C 0.74301 1.18368 0.81670
 C155 C 0.72276 1.14251 0.87069
 C156 C 0.65236 1.14032 0.86581
 H157 H 0.75446 1.11732 0.90723
 H158 H 0.58388 1.18556 0.79540
 H159 H 0.68836 1.23804 0.74116
 N160 N 0.17257 0.40325 0.22175
 N161 N 0.21232 0.35836 0.25245
 C162 C 0.21547 0.29921 0.21638
 C163 C 0.17692 0.30739 0.15977
 C164 C 0.14990 0.37334 0.16564
 H165 H 0.16255 0.26774 0.12463
 H166 H 0.15880 0.45193 0.24071
 H167 H 0.23112 0.36562 0.30066
 N168 N -0.19003 0.37677 -0.12148
 N169 N -0.22165 0.32448 -0.14898
 C170 C -0.17478 0.27500 -0.16495
 C171 C -0.11103 0.29568 -0.14620
 C172 C -0.12317 0.36053 -0.11872
 H173 H -0.06294 0.26776 -0.15172
 H174 H -0.21404 0.42221 -0.10438
 H175 H -0.27408 0.32346 -0.15695
 N176 N 0.23628 0.64984 -0.10912
 N177 N 0.26203 0.70194 -0.14397
 C178 C 0.22369 0.71312 -0.19834
 C179 C 0.17406 0.66190 -0.20004
 C180 C 0.18114 0.62599 -0.14035
 H181 H 0.13476 0.65307 -0.23570
 H182 H 0.25221 0.63578 -0.06114
 H183 H 0.30226 0.73181 -0.12751
 N184 N -0.11602 0.75135 0.09476
 N185 N -0.16572 0.78479 0.12847
 C186 C -0.20049 0.73948 0.16783
 C187 C -0.17123 0.67459 0.15952
 C188 C -0.11791 0.68430 0.11243
 H189 H -0.18332 0.62829 0.18780
 H190 H -0.07988 0.77470 0.06239
 H191 H -0.17271 0.83825 0.12766
 N192 N 1.14490 0.15898 0.61517
 N193 N 1.18299 0.19324 0.65672
 C194 C 1.17216 0.16829 0.71949
 C195 C 1.12388 0.11567 0.71802
 C196 C 1.10858 0.11114 0.65008
 H197 H 1.10059 0.08811 0.76024
 H198 H 1.14259 0.17000 0.56362
 H199 H 1.21168 0.23641 0.64289
 N200 N 0.75522 -0.16321 0.62685
 N201 N 0.73589 -0.19710 0.68213
 C202 C 0.79180 -0.21618 0.71622
 C203 C 0.84926 -0.19632 0.67855
 C204 C 0.82383 -0.16099 0.62369
 H205 H 0.90125 -0.19557 0.69530
 H206 H 0.72188 -0.13689 0.59553
 H207 H 0.68526 -0.19926 0.70047
 N208 N 1.24102 -0.11453 0.36450
 N209 N 1.27438 -0.15059 0.31684
 C210 C 1.23069 -0.19542 0.28970
 C211 C 1.16660 -0.18709 0.32175
 C212 C 1.17539 -0.13513 0.36857
 H213 H 1.11893 -0.21062 0.30864
 H214 H 1.26228 -0.07420 0.39144
 H215 H 1.32605 -0.14421 0.30359
 N216 N 0.89423 0.18547 0.32185
 N217 N 0.86375 0.22248 0.27542
 C218 C 0.81878 0.18221 0.24381
 C219 C 0.82026 0.11646 0.27256
 C220 C 0.86985 0.12095 0.32101
 H221 H 0.79138 0.07158 0.25888
 H222 H 0.93068 0.20448 0.35411
 H223 H 0.87211 0.27506 0.26798
 N224 N 0.08684 0.35710 -0.23114
 N225 N 0.10509 0.29154 -0.25406
 C226 C 0.15538 0.26754 -0.21494
 C227 C 0.16906 0.31649 -0.16568
 C228 C 0.12432 0.37122 -0.17712
 H229 H 0.20265 0.31060 -0.12369
 H230 H 0.04446 0.38489 -0.24748
 H231 H 0.08110 0.26643 -0.29328
 N232 N -0.19602 0.35033 0.08695
 N233 N -0.23749 0.29976 0.11638
 C234 C -0.19635 0.25418 0.14743
 C235 C -0.12811 0.27303 0.13557
 C236 C -0.13058 0.33374 0.09877
 H237 H -0.08270 0.24857 0.15467
 H238 H -0.21376 0.39521 0.06388
 H239 H -0.29077 0.30299 0.12021
 N240 N -0.05720 0.76631 -0.12076
 N241 N -0.09897 0.79935 -0.16095
 C242 C -0.15014 0.75680 -0.17625
 C243 C -0.14184 0.69446 -0.14339
 C244 C -0.08175 0.70265 -0.10887
 H245 H -0.17460 0.64991 -0.14432
 H246 H -0.01237 0.78696 -0.10243
 H247 H -0.09279 0.85031 -0.17685
 N248 N 0.13692 0.61805 0.25238
 N249 N 0.17823 0.66791 0.28053
 C250 C 0.21156 0.70093 0.22921
 C251 C 0.19456 0.67105 0.16820
 C252 C 0.14677 0.62092 0.18488
 H253 H 0.20798 0.68931 0.11783
 H254 H 0.10106 0.58837 0.27930
 H255 H 0.18046 0.67778 0.33227
 N256 N 0.36151 1.17700 0.78850
 N257 N 0.30876 1.20119 0.75601
 C258 C 0.25271 1.19784 0.79735
 C259 C 0.27031 1.17000 0.85906
 C260 C 0.34014 1.15687 0.85079
 H261 H 0.23616 1.15316 0.89982
 H262 H 0.41032 1.16964 0.76640
 H263 H 0.31103 1.21656 0.70545
 N264 N 0.37363 0.77354 1.10733
 N265 N 0.33379 0.73725 1.14917
 C266 C 0.29414 0.78120 1.18687
 C267 C 0.30861 0.84843 1.16678
 C268 C 0.35881 0.84100 1.11600
 H269 H 0.28583 0.89603 1.18583
 H270 H 0.41027 0.75231 1.07352
 H271 H 0.33581 0.68357 1.15318
 N272 N 0.61624 1.13397 1.20854
 N273 N 0.67307 1.15756 1.23417
 C274 C 0.71565 1.17734 1.18291
 C275 C 0.68430 1.16535 1.12195
 C276 C 0.62134 1.13701 1.14041
 H277 H 0.70712 1.16937 1.07149
 H278 H 0.57720 1.11041 1.23719
 H279 H 0.68222 1.15942 1.28582
 N280 N 0.71120 0.93628 0.83095
 N281 N 0.76397 0.89962 0.80820
 C282 C 0.75182 0.83283 0.82173
 C283 C 0.68875 0.82599 0.85502
 C284 C 0.66480 0.89338 0.85932
 H285 H 0.66233 0.77916 0.86910
 H286 H 0.70663 0.98972 0.82570
 H287 H 0.80553 0.91966 0.78040
   
