data_POSCAR
  _audit_creation_date              2014-09-24
  _audit_creation_method            'ToBaCCo'
  _symmetry_space_group_name_H-M    'P1'
  _symmetry_Int_Tables_number       1
  _symmetry_cell_setting            triclinic
  loop_
  _symmetry_equiv_pos_as_xyz
 x,y,z
_cell_length_a 29.9605
_cell_length_b 30.1156
_cell_length_c 17.0572
_cell_angle_alpha 90.282300
_cell_angle_beta 90.090300
_cell_angle_gamma 92.539600
loop_
  _atom_site_label
  _atom_site_type_symbol
  _atom_site_fract_x
  _atom_site_fract_y
  _atom_site_fract_z
C1 C -0.00922 0.28657 0.00721
 C2 C 0.00794 0.28969 -0.07096
 C3 C 0.05457 0.28957 -0.08175
 C4 C 0.08457 0.28585 -0.01878
 C5 C 0.06692 0.27878 0.05779
 C6 C 0.02054 0.27881 0.06893
 H7 H 0.00763 0.27445 0.12779
 H8 H 0.06806 0.29241 -0.14040
 C9 C 0.42309 0.77234 0.52510
 C10 C 0.43062 0.78004 0.44424
 C11 C 0.47336 0.79487 0.41966
 C12 C 0.50880 0.80181 0.47306
 C13 C 0.50129 0.79368 0.55389
 C14 C 0.45808 0.78044 0.57875
 H15 H 0.45228 0.77298 0.64009
 H16 H 0.47926 0.80084 0.35782
 C17 C 0.98960 0.71751 0.06993
 C18 C 1.00667 0.71781 -0.00792
 C19 C 0.97692 0.71553 -0.07157
 C20 C 0.93036 0.71714 -0.06211
 C21 C 0.91332 0.71977 0.01587
 C22 C 0.94298 0.71816 0.07969
 H23 H 0.92925 0.71879 0.13831
 H24 H 0.99083 0.71407 -0.12998
 C25 C 0.57179 0.22298 0.55640
 C26 C 0.57748 0.23831 0.47859
 C27 C 0.54096 0.23664 0.42723
 C28 C 0.49823 0.22147 0.45122
 C29 C 0.49190 0.20832 0.53017
 C30 C 0.52875 0.20886 0.58109
 H31 H 0.52347 0.19872 0.64137
 H32 H 0.54578 0.24891 0.36803
 C33 C 0.74126 -0.03105 0.00580
 C34 C 0.75422 -0.02268 -0.07286
 C35 C 0.76309 0.02168 -0.09570
 C36 C 0.76178 0.05688 -0.04143
 C37 C 0.74501 0.04858 0.03502
 C38 C 0.73251 0.00474 0.05570
 H39 H 0.72165 -0.00190 0.11528
 H40 H 0.77374 0.02894 -0.15503
 C41 C 0.25204 0.44449 0.54457
 C42 C 0.24990 0.45528 0.46408
 C43 C 0.23372 0.49644 0.44213
 C44 C 0.21972 0.52710 0.49833
 C45 C 0.22283 0.51645 0.57925
 C46 C 0.23793 0.47478 0.60075
 H47 H 0.24167 0.46681 0.66225
 H48 H 0.23079 0.50426 0.38043
 C49 C 0.26932 1.01876 0.07724
 C50 C 0.27115 1.03071 -0.00387
 C51 C 0.25599 0.99933 -0.06059
 C52 C 0.24266 0.95574 -0.03993
 C53 C 0.24261 0.94351 0.03984
 C54 C 0.25682 0.97457 0.09671
 H55 H 0.25346 0.96481 0.15747
 H56 H 0.25778 1.00775 -0.12227
 C57 C 0.72046 0.53816 0.52361
 C58 C 0.72610 0.54922 0.44347
 C59 C 0.74790 0.52053 0.39303
 C60 C 0.76176 0.47966 0.41964
 C61 C 0.75144 0.46585 0.49695
 C62 C 0.73235 0.49584 0.54904
 H63 H 0.72674 0.48602 0.60933
 H64 H 0.75379 0.52991 0.33248
 O65 O 0.22564 0.25065 0.17934
 O66 O 0.34249 0.24296 0.23756
 O67 O 0.28120 0.18822 0.18209
 O68 O 0.28514 0.30634 0.24004
 O69 O 0.26237 0.28688 0.35869
 O70 O 0.26248 0.16925 0.30310
 O71 O 0.32181 0.22684 0.35885
 O72 O 0.20365 0.23177 0.29878
 Cu73 Cu 0.28591 0.24909 0.19774
 Cu74 Cu 0.26042 0.22657 0.34193
 C75 C 0.19482 0.24273 0.22879
 C76 C 0.35213 0.23345 0.30770
 C77 C 0.27165 0.15874 0.23306
 C78 C 0.27357 0.31660 0.30924
 O79 O 0.75123 0.82673 0.23442
 O80 O 0.73242 0.71974 0.33125
 O81 O 0.77889 0.75229 0.22015
 O82 O 0.69244 0.79915 0.34697
 O83 O 0.64026 0.77730 0.26203
 O84 O 0.72640 0.73687 0.13140
 O85 O 0.67802 0.70201 0.24761
 O86 O 0.69375 0.81204 0.15528
 Cu87 Cu 0.74190 0.77683 0.29502
 Cu88 Cu 0.67899 0.75487 0.19104
 C89 C 0.72754 0.83639 0.17585
 C90 C 0.70268 0.69229 0.30517
 C91 C 0.76720 0.73972 0.15157
 C92 C 0.65165 0.79568 0.32623
 O93 O 0.84691 0.26324 0.20174
 O94 O 0.75240 0.25600 0.34223
 O95 O 0.78803 0.20044 0.24520
 O96 O 0.81379 0.31555 0.30390
 O97 O 0.76693 0.34007 0.21538
 O98 O 0.74466 0.22315 0.15030
 O99 O 0.70874 0.28277 0.25088
 O100 O 0.80254 0.29285 0.11463
 Cu101 Cu 0.80471 0.25586 0.28202
 Cu102 Cu 0.75088 0.28443 0.17224
 C103 C 0.84102 0.28156 0.13567
 C104 C 0.71484 0.26977 0.32053
 C105 C 0.76220 0.19194 0.18783
 C106 C 0.79465 0.34731 0.27108
 O107 O 0.13537 0.75014 0.29718
 O108 O 0.25484 0.76733 0.34796
 O109 O 0.19833 0.80793 0.25925
 O110 O 0.18973 0.70961 0.38699
 O111 O 0.21080 0.66711 0.28907
 O112 O 0.21368 0.76463 0.15864
 O113 O 0.27244 0.72647 0.24569
 O114 O 0.15311 0.70577 0.19960
 Cu115 Cu 0.19311 0.76297 0.33322
 Cu116 Cu 0.21456 0.71157 0.21360
 C117 C 0.12397 0.72527 0.23948
 C118 C 0.28402 0.75034 0.30444
 C119 C 0.20628 0.80269 0.18682
 C120 C 0.19845 0.67169 0.35974
 O121 O 0.84635 0.29489 0.79570
 O122 O 0.72792 0.26801 0.75337
 O123 O 0.78814 0.23776 0.84566
 O124 O 0.78373 0.33213 0.71024
 O125 O 0.80030 0.28747 0.61233
 O126 O 0.80589 0.19355 0.74759
 O127 O 0.74784 0.22437 0.65578
 O128 O 0.86599 0.25305 0.69579
 Cu129 Cu 0.78491 0.28815 0.78560
 Cu130 Cu 0.80810 0.23569 0.66800
 C131 C 0.87615 0.27719 0.75472
 C132 C 0.71799 0.24129 0.69747
 C133 C 0.79725 0.19974 0.81961
 C134 C 0.78876 0.32501 0.63755
 O135 O 0.19272 0.68256 0.69727
 O136 O 0.20114 0.80183 0.74486
 O137 O 0.24348 0.74707 0.65244
 O138 O 0.14872 0.73485 0.78803
 O139 O 0.19566 0.72496 0.88598
 O140 O 0.29017 0.73381 0.74929
 O141 O 0.24847 0.78845 0.84048
 O142 O 0.23694 0.66867 0.79738
 Cu143 Cu 0.19175 0.74325 0.71097
 Cu144 Cu 0.24764 0.72750 0.82792
 C145 C 0.21380 0.65556 0.73863
 C146 C 0.22568 0.81531 0.80174
 C147 C 0.28261 0.74104 0.67736
 C148 C 0.15632 0.72899 0.86033
 O149 O 0.22227 0.24201 0.79910
 O150 O 0.31040 0.20088 0.67098
 O151 O 0.27188 0.17249 0.79928
 O152 O 0.26368 0.27200 0.67417
 O153 O 0.31583 0.30696 0.74607
 O154 O 0.32322 0.20870 0.87084
 O155 O 0.36162 0.23700 0.74309
 O156 O 0.27322 0.27801 0.87175
 Cu157 Cu 0.26179 0.21830 0.72885
 Cu158 Cu 0.32336 0.26126 0.81571
 C159 C 0.23260 0.26691 0.85716
 C160 C 0.35095 0.21230 0.68478
 C161 C 0.29946 0.17375 0.85607
 C162 C 0.28920 0.30597 0.68825
 O163 O 0.67659 0.77644 0.64603
 O164 O 0.79164 0.74962 0.69946
 O165 O 0.72429 0.70695 0.63543
 O166 O 0.74658 0.82149 0.70421
 O167 O 0.72423 0.80289 0.82337
 O168 O 0.69887 0.68758 0.75244
 O169 O 0.76789 0.72903 0.81687
 O170 O 0.65403 0.76004 0.76613
 Cu171 Cu 0.73693 0.76577 0.65950
 Cu172 Cu 0.70892 0.74299 0.80158
 C173 C 0.64583 0.77289 0.69715
 C174 C 0.79917 0.73425 0.76720
 C175 C 0.70806 0.67772 0.68180
 C176 C 0.73982 0.83179 0.77530
 N177 N 0.28218 0.07885 0.25926
 N178 N 0.28302 0.03994 0.21472
 C179 C 0.27357 0.05013 0.13943
 C180 C 0.26569 0.09533 0.13563
 C181 C 0.27215 0.11187 0.21059
 H182 H 0.25513 0.11422 0.08568
 H183 H 0.29015 0.08154 0.31877
 H184 H 0.29213 0.00942 0.23701
 N185 N 0.68100 0.59792 0.69195
 N186 N 0.68379 0.56118 0.64956
 C187 C 0.70544 0.57113 0.58207
 C188 C 0.71700 0.61619 0.58219
 C189 C 0.70097 0.63191 0.65249
 H190 H 0.73716 0.63465 0.53996
 H191 H 0.66653 0.59931 0.74753
 H192 H 0.67168 0.52983 0.66754
 N193 N 0.78181 0.86959 0.08371
 N194 N 0.78342 0.90409 0.02983
 C195 C 0.74659 0.92754 0.04043
 C196 C 0.72052 0.90824 0.09976
 C197 C 0.74355 0.87196 0.12420
 H198 H 0.68879 0.91890 0.12156
 H199 H 0.80594 0.84588 0.08961
 H200 H 0.81071 0.91214 -0.00625
 N201 N 0.32583 0.35859 0.59487
 N202 N 0.31600 0.39479 0.55626
 C203 C 0.27351 0.40431 0.57257
 C204 C 0.25525 0.37261 0.62340
 C205 C 0.28960 0.34417 0.63554
 H206 H 0.22228 0.37122 0.64938
 H207 H 0.35696 0.34428 0.59378
 H208 H 0.33841 0.41320 0.52102
 N209 N 0.87812 0.32118 0.02468
 N210 N 0.92023 0.32345 -0.01004
 C211 C 0.94590 0.29430 0.02693
 C212 C 0.92136 0.27476 0.08828
 C213 C 0.87915 0.29173 0.08362
 H214 H 0.93212 0.25010 0.12933
 H215 H 0.85133 0.34013 0.00818
 H216 H 0.92988 0.34575 -0.05421
 N217 N 0.31975 0.71085 0.56082
 N218 N 0.35729 0.71807 0.52164
 C219 C 0.38045 0.75262 0.55511
 C220 C 0.35757 0.76676 0.62058
 C221 C 0.31907 0.73980 0.62105
 H222 H 0.36687 0.79372 0.66038
 H223 H 0.29538 0.68616 0.54700
 H224 H 0.36665 0.69953 0.47293
 N225 N 0.04363 0.74083 0.25423
 N226 N 0.00601 0.73872 0.20586
 C227 C 0.01709 0.71861 0.13794
 C228 C 0.06085 0.70491 0.14461
 C229 C 0.07666 0.72105 0.21615
 H230 H 0.08022 0.68813 0.10099
 H231 H 0.04632 0.75883 0.30664
 H232 H -0.02285 0.75576 0.21755
 N233 N 0.64866 0.19426 0.70838
 N234 N 0.61078 0.18873 0.66918
 C235 C 0.60901 0.22045 0.61364
 C236 C 0.64750 0.24770 0.61881
 C237 C 0.67141 0.22989 0.67939
 H238 H 0.65775 0.27590 0.58319
 H239 H 0.65948 0.17283 0.75175
 H240 H 0.58758 0.16238 0.67843
 N241 N 0.82039 0.16309 0.94191
 N242 N 0.81147 0.12516 0.97836
 C243 C 0.78171 0.10058 0.93516
 C244 C 0.77295 0.12288 0.86644
 C245 C 0.79770 0.16250 0.87381
 H246 H 0.75020 0.11270 0.81970
 H247 H 0.84168 0.18877 0.96338
 H248 H 0.82544 0.11659 1.03204
 N249 N 0.16218 0.62804 0.46732
 N250 N 0.16673 0.58949 0.50241
 C251 C 0.20160 0.56929 0.47014
 C252 C 0.21882 0.59547 0.40956
 C253 C 0.19324 0.63264 0.41066
 H254 H 0.24720 0.58933 0.37247
 H255 H 0.13798 0.65061 0.48180
 H256 H 0.14646 0.57762 0.54817
 N257 N 0.20514 0.89450 0.78860
 N258 N 0.20909 0.93135 0.83107
 C259 C 0.23216 0.92292 0.89688
 C260 C 0.24428 0.87908 0.89522
 C261 C 0.22625 0.86219 0.82604
 H262 H 0.26268 0.86153 0.93907
 H263 H 0.18752 0.89149 0.73583
 H264 H 0.19515 0.96133 0.81601
 N265 N 0.83837 0.40299 0.34934
 N266 N 0.82952 0.43914 0.38927
 C267 C 0.78898 0.45239 0.36786
 C268 C 0.77187 0.42427 0.30944
 C269 C 0.80360 0.39241 0.30167
 H270 H 0.73777 0.42201 0.28822
 H271 H 0.86560 0.38348 0.36073
 H272 H 0.84871 0.45154 0.43636
 N273 N 0.20377 0.30487 0.97620
 N274 N 0.16220 0.30958 1.01152
 C275 C 0.13084 0.28942 0.96497
 C276 C 0.15154 0.27288 0.89858
 C277 C 0.19692 0.28229 0.90864
 H278 H 0.13592 0.25394 0.85106
 H279 H 0.23442 0.31581 1.00023
 H280 H 0.15711 0.32713 1.06346
 N281 N 0.62205 0.84102 0.43642
 N282 N 0.58370 0.84352 0.47427
 C283 C 0.55344 0.81463 0.44111
 C284 C 0.57290 0.79414 0.37800
 C285 C 0.61643 0.81122 0.37775
 H286 H 0.55844 0.76779 0.34134
 H287 H 0.65159 0.85868 0.45175
 H288 H 0.57897 0.86352 0.52350
 N289 N 0.88142 0.74105 0.75165
 N290 N 0.91818 0.73682 0.80083
 C291 C 0.90357 0.71861 0.86908
 C292 C 0.85794 0.70799 0.86160
 C293 C 0.84515 0.72482 0.78988
 H294 H 0.83571 0.69300 0.90481
 H295 H 0.88187 0.75913 0.69955
 H296 H 0.94952 0.75191 0.78950
 N297 N 0.43040 0.21681 0.27709
 N298 N 0.46830 0.21248 0.31520
 C299 C 0.46192 0.22147 0.39186
 C300 C 0.41777 0.23246 0.40259
 C301 C 0.39904 0.22852 0.32857
 H302 H 0.40152 0.24274 0.45584
 H303 H 0.42603 0.21083 0.21713
 H304 H 0.49782 0.20285 0.28887
 N305 N 0.77886 0.90614 0.76249
 N306 N 0.78316 0.94388 0.80223
 C307 C 0.75802 0.94073 0.86779
 C308 C 0.73669 0.89854 0.86900
 C309 C 0.75113 0.87772 0.80157
 H310 H 0.71354 0.88486 0.91209
 H311 H 0.79541 0.89982 0.71002
 H312 H 0.80387 0.97081 0.78484
 N313 N 0.28785 0.39848 0.29166
 N314 N 0.28165 0.43502 0.33292
 C315 C 0.26242 0.42357 0.40187
 C316 C 0.25555 0.37788 0.40378
 C317 C 0.27250 0.36328 0.33357
 H318 H 0.23979 0.35782 0.44927
 H319 H 0.30258 0.39784 0.23623
 H320 H 0.29106 0.46707 0.31434
 N321 N 0.33384 0.13314 0.96539
 N322 N 0.32589 0.09315 1.00475
 C323 C 0.29091 0.07131 0.96966
 C324 C 0.27721 0.09591 0.90560
 C325 C 0.30405 0.13471 0.90646
 H326 H 0.24924 0.08817 0.86690
 H327 H 0.35784 0.15772 0.98151
 H328 H 0.34460 0.08259 1.05232
 N329 N 0.65652 0.62680 0.35063
 N330 N 0.66250 0.59004 0.39054
 C331 C 0.70613 0.58825 0.40857
 C332 C 0.72909 0.62531 0.37895
 C333 C 0.69627 0.64900 0.34311
 H334 H 0.76461 0.63343 0.38189
 H335 H 0.62571 0.63653 0.32954
 H336 H 0.63730 0.56611 0.40333
 N337 N 0.12047 0.75996 0.97636
 N338 N 0.08074 0.75868 1.00968
 C339 C 0.05448 0.72738 0.97326
 C340 C 0.07808 0.70969 0.91127
 C341 C 0.11981 0.73097 0.91638
 H342 H 0.06638 0.68556 0.86785
 H343 H 0.14698 0.78194 0.99151
 H344 H 0.07159 0.77992 1.05490
 N345 N 0.65701 0.31189 0.38666
 N346 N 0.62131 0.30377 0.43025
 C347 C 0.61897 0.26037 0.44905
 C348 C 0.65517 0.23980 0.41605
 C349 C 0.67839 0.27393 0.37697
 H350 H 0.66093 0.20460 0.41358
 H351 H 0.66514 0.34245 0.36043
 H352 H 0.59732 0.32697 0.44236
 N353 N 0.95590 0.30293 0.74053
 N354 N 0.99262 0.30718 0.79106
 C355 C 0.98042 0.28953 0.86117
 C356 C 0.93681 0.27208 0.85482
 C357 C 0.92254 0.28233 0.78051
 H358 H 0.91705 0.25438 0.89862
 H359 H 0.95418 0.31668 0.68459
 H360 H 1.02228 0.32493 0.77742
 N361 N 0.36488 0.74047 0.27975
 N362 N 0.40332 0.74868 0.31622
 C363 C 0.39576 0.77092 0.38333
 C364 C 0.35033 0.77835 0.38840
 C365 C 0.33192 0.75755 0.32244
 H366 H 0.33277 0.79401 0.43575
 H367 H 0.36128 0.72199 0.22797
 H368 H 0.43386 0.73712 0.29725
 N369 N 0.17012 0.85003 0.08920
 N370 N 0.18023 0.88616 0.04818
 C371 C 0.22199 0.90086 0.06713
 C372 C 0.23923 0.87290 0.12296
 C373 C 0.20539 0.84083 0.13419
 H374 H 0.27143 0.87583 0.15180
 H375 H 0.13900 0.83306 0.08858
 H376 H 0.15818 0.90140 0.01038
 N377 N 0.75847 0.34749 0.51054
 N378 N 0.74637 0.38393 0.47556
 C379 C 0.75785 0.41930 0.52110
 C380 C 0.77652 0.40442 0.59032
 C381 C 0.77688 0.35858 0.58023
 H382 H 0.78832 0.42397 0.64019
 H383 H 0.75222 0.31541 0.48839
 H384 H 0.72887 0.38411 0.42273
 N385 N 0.76639 0.11133 0.21122
 N386 N 0.76176 0.07385 0.17124
 C387 C 0.74637 0.08255 0.09886
 C388 C 0.73949 0.12798 0.09373
 C389 C 0.75382 0.14499 0.16579
 H390 H 0.72945 0.14649 0.04292
 H391 H 0.78015 0.11389 0.26746
 H392 H 0.77198 0.04332 0.19187
 N393 N 0.19812 0.57447 0.75845
 N394 N 0.19920 0.53798 0.71513
 C395 C 0.21483 0.54885 0.64313
 C396 C 0.22476 0.59417 0.64141
 C397 C 0.21303 0.60901 0.71473
 H398 H 0.23901 0.61388 0.59405
 H399 H 0.18637 0.57567 0.81601
 H400 H 0.18874 0.50638 0.73456
 N401 N 0.80308 0.76216 0.02823
 N402 N 0.84283 0.76022 -0.00429
 C403 C 0.86641 0.73010 0.03438
 C404 C 0.84137 0.71464 0.09808
 C405 C 0.80131 0.73547 0.09123
 H406 H 0.85149 0.69292 0.14460
 H407 H 0.77879 0.78390 0.01073
 H408 H 0.85394 0.78058 -0.05034
 N409 N 0.37997 0.16789 0.57315
 N410 N 0.41738 0.16650 0.53226
 C411 C 0.44758 0.19607 0.56340
 C412 C 0.42908 0.21626 0.62791
 C413 C 0.38603 0.19793 0.63149
 H414 H 0.44392 0.24271 0.66388
 H415 H 0.35059 0.14939 0.55991
 H416 H 0.42155 0.14661 0.48270
 N417 N 0.11922 0.27101 0.24739
 N418 N 0.08648 0.28275 0.20090
 C419 C 0.09464 0.26848 0.12734
 C420 C 0.13353 0.24527 0.12814
 C421 C 0.14872 0.24892 0.20450
 H422 H 0.15047 0.23058 0.07909
 H423 H 0.12302 0.28123 0.30573
 H424 H 0.06059 0.30258 0.21870
 N425 N 0.57040 0.80001 0.72699
 N426 N 0.53281 0.80642 0.68886
 C427 C 0.53779 0.79435 0.61317
 C428 C 0.58052 0.77908 0.60332
 C429 C 0.60011 0.78386 0.67641
 H430 H 0.59501 0.76493 0.55133
 H431 H 0.57555 0.80692 0.78647
 H432 H 0.50431 0.81888 0.71460
   
