data_POSCAR
  _audit_creation_date              2014-09-24
  _audit_creation_method            'ToBaCCo'
  _symmetry_space_group_name_H-M    'P1'
  _symmetry_Int_Tables_number       1
  _symmetry_cell_setting            triclinic
  loop_
  _symmetry_equiv_pos_as_xyz
 x,y,z
_cell_length_a 28.4592
_cell_length_b 28.3570
_cell_length_c 28.3283
_cell_angle_alpha 89.928700
_cell_angle_beta 90.014400
_cell_angle_gamma 89.955300
loop_
  _atom_site_label
  _atom_site_type_symbol
  _atom_site_fract_x
  _atom_site_fract_y
  _atom_site_fract_z
C1 C 0.18474 1.24457 0.18453
 N2 N 0.22395 1.22430 0.16607
 C3 C 0.24310 1.18516 0.18602
 N4 N 0.22251 1.16610 0.22485
 C5 C 0.18332 1.18578 0.24400
 N6 N 0.16476 1.22500 0.22351
 C7 C 0.81737 0.75434 0.18579
 N8 N 0.83634 0.77433 0.22502
 C9 C 0.81724 0.81371 0.24456
 N10 N 0.77837 0.83301 0.22433
 C11 C 0.75863 0.81339 0.18534
 N12 N 0.77845 0.77422 0.16624
 C13 C 0.81401 1.24350 -0.18533
 N14 N 0.77469 1.22425 -0.16618
 C15 C 0.75470 1.18527 -0.18541
 N16 N 0.77459 1.16545 -0.22420
 C17 C 0.81400 1.18410 -0.24392
 N18 N 0.83350 1.22312 -0.22406
 C19 C 0.18351 0.75716 -0.18615
 N20 N 0.22258 0.77670 -0.16663
 C21 C 0.24299 0.81538 -0.18614
 N22 N 0.22371 0.83483 -0.22548
 C23 C 0.18453 0.81609 -0.24550
 N24 N 0.16480 0.77721 -0.22555
 C25 C 0.57230 1.06305 -0.01235
 H26 H 0.57399 1.06168 0.02579
 C27 C 0.60485 1.08994 -0.03747
 H28 H 0.63172 1.10896 -0.01829
 C29 C 0.53671 1.03751 -0.08349
 H30 H 0.51069 1.01630 -0.10131
 C31 C 0.56858 1.06399 -0.11004
 H32 H 0.56610 1.06356 -0.14818
 N33 N 0.53913 1.03754 -0.03553
 C34 C 0.42753 1.01206 0.06650
 H35 H 0.42613 0.97395 0.06533
 C36 C 0.39466 1.03703 0.09315
 H37 H 0.36786 1.01775 0.11219
 C38 C 0.46259 1.08328 0.04053
 H39 H 0.48848 1.10119 0.01920
 C40 C 0.43043 1.10968 0.06680
 H41 H 0.43261 1.14779 0.06611
 Zn42 Zn 0.49982 0.99859 0.00157
 N43 N 0.46051 1.03536 0.04080
 C44 C 0.53826 0.95976 0.08598
 N45 N 0.53975 0.95958 0.03799
 C46 C 0.57259 0.93413 0.01425
 C47 C 0.60587 0.90757 0.03883
 C48 C 0.57088 0.93360 0.11201
 C49 C 0.42684 0.98567 -0.06251
 C50 C 0.39390 0.96107 -0.08936
 C51 C 0.42945 0.88803 -0.06360
 C52 C 0.46176 0.91408 -0.03718
 N53 N 0.45988 0.96202 -0.03716
 H54 H 0.51244 0.98091 0.10422
 H55 H 0.57352 0.93538 -0.02391
 H56 H 0.63251 0.88865 0.01919
 H57 H 0.56918 0.93418 0.15018
 H58 H 0.42560 1.02377 -0.06108
 H59 H 0.36719 0.98063 -0.10831
 H60 H 0.43149 0.84991 -0.06326
 H61 H 0.48771 0.89591 -0.01609
 C62 C 0.39553 1.08657 0.09319
 C63 C 0.60350 1.09039 -0.08704
 C64 C 0.39471 0.91155 -0.08992
 C65 C 0.60559 0.90738 0.08842
 C66 C -0.01205 0.57360 1.06286
 H67 H 0.02586 0.57562 1.06073
 C68 C -0.03682 0.60634 1.08987
 H69 H -0.01760 0.63370 1.10818
 C70 C -0.08300 0.53696 1.03908
 H71 H -0.10091 0.51044 1.01852
 C72 C -0.10921 0.56894 1.06581
 H73 H -0.14713 0.56602 1.06622
 N74 N -0.03530 0.53984 1.03814
 C75 C 0.06525 0.42704 1.01222
 H76 H 0.06334 0.42518 0.97412
 C77 C 0.09186 0.39403 1.03718
 H78 H 0.11010 0.36664 1.01788
 C79 C 0.04120 0.46345 1.08349
 H80 H 0.02066 0.48997 1.10144
 C81 C 0.06752 0.43122 1.10987
 H82 H 0.06766 0.43396 1.14798
 Zn83 Zn 0.00127 0.50029 0.99892
 N84 N 0.04051 0.46075 1.03556
 C85 C 0.08511 0.53788 0.95885
 N86 N 0.03738 0.54023 0.95966
 C87 C 0.01377 0.57385 0.93498
 C88 C 0.03821 0.60716 0.90831
 C89 C 0.11099 0.57043 0.93246
 C90 C -0.06250 0.42698 0.98603
 C91 C -0.08927 0.39402 0.96134
 C92 C -0.06428 0.43030 0.88833
 C93 C -0.03795 0.46262 0.91447
 N94 N -0.03756 0.46038 0.96244
 H95 H 0.10328 0.51139 0.97934
 H96 H -0.02417 0.57541 0.93698
 H97 H 0.01868 0.63446 0.89012
 H98 H 0.14895 0.56796 0.93220
 H99 H -0.06080 0.42545 1.02416
 H100 H -0.10790 0.36701 0.98083
 H101 H -0.06421 0.43261 0.85018
 H102 H -0.01720 0.48888 0.89634
 C103 C 0.09293 0.39556 1.08674
 C104 C -0.08614 0.60451 1.09137
 C105 C -0.09015 0.39517 0.91177
 C106 C 0.08756 0.60601 0.90709
 C107 C 1.06278 -0.01222 0.57322
 H108 H 1.06064 0.02581 0.57529
 C109 C 1.08964 -0.03717 0.60604
 H110 H 1.10784 -0.01793 0.63350
 C111 C 1.03916 -0.08336 0.53642
 H112 H 1.01873 -0.10128 0.50980
 C113 C 1.06572 -0.10973 0.56848
 H114 H 1.06611 -0.14779 0.56554
 N115 N 1.03819 -0.03550 0.53937
 C116 C 1.01195 0.06521 0.42625
 H117 H 0.97404 0.06312 0.42432
 C118 C 1.03666 0.09192 0.39315
 H119 H 1.01737 0.11004 0.36563
 C120 C 1.08299 0.04151 0.46293
 H121 H 1.10097 0.02107 0.48959
 C122 C 1.10913 0.06795 0.43063
 H123 H 1.14706 0.06829 0.43347
 Zn124 Zn 0.99901 0.00116 0.49976
 N125 N 1.03529 0.04059 0.46013
 C126 C 0.95896 0.08527 0.53723
 N127 N 0.95988 0.03737 0.53968
 C128 C 0.93539 0.01370 0.57338
 C129 C 0.90875 0.03825 0.60660
 C130 C 0.93263 0.11127 0.56971
 C131 C 0.98633 -0.06245 0.42610
 C132 C 0.96185 -0.08943 0.39313
 C133 C 0.88916 -0.06575 0.43026
 C134 C 0.91508 -0.03908 0.46251
 N135 N 0.96279 -0.03796 0.45987
 H136 H 0.97930 0.10347 0.51069
 H137 H 0.93748 -0.02437 0.57504
 H138 H 0.89066 0.01869 0.63393
 H139 H 0.93228 0.14936 0.56717
 H140 H 1.02424 -0.06018 0.42428
 H141 H 0.98130 -0.10759 0.36580
 H142 H 0.85122 -0.06631 0.43298
 H143 H 0.89697 -0.01871 0.48908
 C144 C 1.08599 0.09323 0.39478
 C145 C 1.09110 -0.08666 0.60419
 C146 C 0.91254 -0.09112 0.39472
 C147 C 0.90740 0.08777 0.60531
 C148 C 0.12152 0.30312 1.17946
 C149 C 0.16385 0.28382 1.16229
 C150 C 0.18388 0.30375 1.12136
 C151 C 0.16153 0.34072 1.09761
 C152 C 0.11854 0.35877 1.11398
 C153 C 0.09914 0.33994 1.15553
 H154 H 0.10480 0.28912 1.21082
 H155 H 0.21661 0.29050 1.10705
 H156 H 0.17784 0.35502 1.06618
 H157 H 0.06579 0.35262 1.16882
 C158 C -0.11994 0.69505 1.18396
 C159 C -0.16087 0.71518 1.16438
 C160 C -0.17841 0.69628 1.12188
 C161 C -0.15477 0.65974 1.09884
 C162 C -0.11316 0.64083 1.11772
 C163 C -0.09649 0.65839 1.16094
 H164 H -0.10537 0.70798 1.21681
 H165 H -0.20981 0.71042 1.10551
 H166 H -0.16832 0.64739 1.06535
 H167 H -0.06502 0.64397 1.17690
 C168 C -0.11993 0.30186 0.82062
 C169 C -0.16307 0.28455 0.83749
 C170 C -0.18317 0.30566 0.87760
 C171 C -0.16007 0.34228 0.90100
 C172 C -0.11632 0.35867 0.88491
 C173 C -0.09681 0.33846 0.84408
 H174 H -0.10338 0.28645 0.78987
 H175 H -0.21650 0.29350 0.89142
 H176 H -0.17638 0.35763 0.93192
 H177 H -0.06291 0.34989 0.83107
 C178 C 0.17902 0.69894 0.87775
 C179 C 0.16156 0.71808 0.83526
 C180 C 0.12076 0.69800 0.81548
 C181 C 0.09751 0.66096 0.83814
 C182 C 0.11422 0.64300 0.88124
 C183 C 0.15557 0.66205 0.90045
 H184 H 0.21029 0.71307 0.89431
 H185 H 0.10624 0.71112 0.78265
 H186 H 0.06622 0.64650 0.82195
 H187 H 0.16911 0.64945 0.93389
 C188 C 1.17838 0.12230 0.30259
 C189 C 1.16105 0.16464 0.28308
 C190 C 1.12003 0.18446 0.30270
 C191 C 1.09642 0.16195 0.33963
 C192 C 1.11299 0.11898 0.35794
 C193 C 1.15457 0.09975 0.33937
 H194 H 1.20981 0.10571 0.28883
 H195 H 1.10560 0.21719 0.28927
 H196 H 1.06495 0.17815 0.35373
 H197 H 1.16802 0.06640 0.35223
 C198 C 1.18302 -0.12098 0.69511
 C199 C 1.16335 -0.16196 0.71523
 C200 C 1.12099 -0.17935 0.69622
 C201 C 1.09820 -0.15553 0.65956
 C202 C 1.11719 -0.11387 0.64065
 C203 C 1.16024 -0.09734 0.65833
 H204 H 1.21577 -0.10652 0.70812
 H205 H 1.10455 -0.21077 0.71036
 H206 H 1.06483 -0.16896 0.64711
 H207 H 1.17625 -0.06583 0.64392
 C208 C 0.82102 -0.12204 0.30229
 C209 C 0.83878 -0.16456 0.28368
 C210 C 0.87963 -0.18394 0.30416
 C211 C 0.90277 -0.16075 0.34091
 C212 C 0.88586 -0.11756 0.35822
 C213 C 0.84435 -0.09884 0.33894
 H214 H 0.78968 -0.10582 0.28786
 H215 H 0.89437 -0.21679 0.29147
 H216 H 0.93418 -0.17657 0.35561
 H217 H 0.83063 -0.06537 0.35112
 C218 C 0.81581 0.12122 0.69680
 C219 C 0.83546 0.16210 0.71705
 C220 C 0.87786 0.17955 0.69817
 C221 C 0.90060 0.15600 0.66136
 C222 C 0.88153 0.11455 0.64217
 C223 C 0.83854 0.09785 0.65988
 H224 H 0.78306 0.10669 0.70973
 H225 H 0.89430 0.21089 0.71243
 H226 H 0.93395 0.16954 0.64894
 H227 H 0.82248 0.06648 0.64530
 C228 C 0.30228 1.17823 0.12073
 C229 C 0.28432 1.16189 0.16399
 C230 C 0.30493 1.12195 0.18497
 C231 C 0.34176 1.09820 0.16261
 C232 C 0.35881 1.11376 0.11871
 C233 C 0.33901 1.15440 0.09833
 H234 H 0.28724 1.20881 0.10348
 H235 H 0.29224 1.10856 0.21843
 H236 H 0.35675 1.06745 0.17961
 H237 H 0.35086 1.16698 0.06425
 C238 C 0.69602 1.11953 -0.17897
 C239 C 0.71353 1.16284 -0.16246
 C240 C 0.69269 1.18337 -0.12244
 C241 C 0.65619 1.16048 -0.09870
 C242 C 0.63969 1.11649 -0.11436
 C243 C 0.65958 1.09661 -0.15517
 H244 H 0.71123 1.10264 -0.20964
 H245 H 0.70502 1.21685 -0.10892
 H246 H 0.64108 1.17709 -0.06783
 H247 H 0.64809 1.06251 -0.16785
 C248 C 0.30548 0.87772 -0.18349
 C249 C 0.28411 0.83787 -0.16318
 C250 C 0.30119 0.82099 -0.11974
 C251 C 0.33780 0.84423 -0.09652
 C252 C 0.35825 0.88484 -0.11623
 C253 C 0.34212 0.90089 -0.16030
 H254 H 0.29350 0.89152 -0.21707
 H255 H 0.28557 0.79043 -0.10302
 H256 H 0.34902 0.83126 -0.06237
 H257 H 0.35766 0.93162 -0.17678
 C258 C 0.69994 0.87924 0.17893
 C259 C 0.71746 0.83593 0.16239
 C260 C 0.69629 0.81521 0.12264
 C261 C 0.65929 0.83782 0.09933
 C262 C 0.64262 0.88172 0.11513
 C263 C 0.66302 0.90189 0.15554
 H264 H 0.71541 0.89628 0.20938
 H265 H 0.70862 0.78172 0.10911
 H266 H 0.64384 0.82099 0.06876
 H267 H 0.65144 0.93595 0.16828
   
