data_POSCAR
  _audit_creation_date              2014-09-24
  _audit_creation_method            'ToBaCCo'
  _symmetry_space_group_name_H-M    'P1'
  _symmetry_Int_Tables_number       1
  _symmetry_cell_setting            triclinic
  loop_
  _symmetry_equiv_pos_as_xyz
 x,y,z
_cell_length_a 39.4398
_cell_length_b 44.5691
_cell_length_c 40.2656
_cell_angle_alpha 90.011100
_cell_angle_beta 89.840300
_cell_angle_gamma 89.929100
loop_
  _atom_site_label
  _atom_site_type_symbol
  _atom_site_fract_x
  _atom_site_fract_y
  _atom_site_fract_z
C1 C 1.20195 0.26168 0.30003
 H2 H 1.19948 0.23753 0.30138
 C3 C 1.18251 0.27996 0.32094
 H4 H 1.16518 0.26971 0.33847
 C5 C 1.22826 0.30431 0.27614
 H6 H 1.24639 0.31380 0.25901
 C7 C 1.20947 0.32337 0.29662
 H8 H 1.21290 0.34738 0.29438
 N9 N 1.22391 0.27407 0.27783
 C10 C 1.23721 0.20838 0.19844
 H11 H 1.26459 0.20863 0.19665
 C12 C 1.21841 0.18981 0.17759
 H13 H 1.23154 0.17601 0.15952
 C14 C 1.18702 0.22645 0.22404
 H15 H 1.17487 0.24084 0.24207
 C16 C 1.16719 0.20818 0.20365
 H17 H 1.13991 0.20833 0.20668
 Zn18 Zn 1.24979 0.24848 0.24988
 N19 N 1.22142 0.22571 0.22159
 C20 C 1.27144 0.19223 0.27464
 N21 N 1.27547 0.22236 0.27728
 C22 C 1.29707 0.23423 0.29990
 C23 C 1.31671 0.21557 0.32011
 C24 C 1.29048 0.17271 0.29421
 C25 C 1.26331 0.28968 0.19948
 C26 C 1.28270 0.30804 0.17878
 C27 C 1.33332 0.28804 0.20421
 C28 C 1.31293 0.27004 0.22445
 N29 N 1.27856 0.27161 0.22218
 H30 H 1.25307 0.18312 0.25758
 H31 H 1.29953 0.25834 0.30183
 H32 H 1.33472 0.22653 0.33617
 H33 H 1.28479 0.14913 0.29175
 H34 H 1.23593 0.29021 0.19793
 H35 H 1.26997 0.32295 0.16163
 H36 H 1.36062 0.28658 0.20644
 H37 H 1.32464 0.25494 0.24197
 C38 C 1.18292 0.18918 0.18037
 C39 C 1.18612 0.31128 0.31932
 C40 C 1.31821 0.30760 0.18122
 C41 C 1.31428 0.18388 0.31748
 C42 C 0.70226 -0.23786 0.29991
 H43 H 0.70006 -0.26202 0.30140
 C44 C 0.68284 -0.21966 0.32092
 H45 H 0.66579 -0.22998 0.33866
 C46 C 0.72790 -0.19512 0.27558
 H47 H 0.74578 -0.18555 0.25824
 C48 C 0.70913 -0.17613 0.29614
 H49 H 0.71229 -0.15210 0.29377
 N50 N 0.72387 -0.22537 0.27746
 C51 C 0.73725 -0.29125 0.19832
 H52 H 0.76461 -0.29087 0.19637
 C53 C 0.71844 -0.30990 0.17757
 H54 H 0.73153 -0.32364 0.15943
 C55 C 0.68709 -0.27338 0.22416
 H56 H 0.67496 -0.25901 0.24223
 C57 C 0.66725 -0.29173 0.20387
 H58 H 0.63998 -0.29167 0.20703
 Zn59 Zn 0.74980 -0.25090 0.24952
 N60 N 0.72148 -0.27397 0.22153
 C61 C 0.77253 -0.30689 0.27433
 N62 N 0.77588 -0.27661 0.27696
 C63 C 0.79726 -0.26421 0.29958
 C64 C 0.81729 -0.28250 0.31983
 C65 C 0.79205 -0.32596 0.29400
 C66 C 0.76281 -0.20981 0.19884
 C67 C 0.78202 -0.19145 0.17799
 C68 C 0.83284 -0.21116 0.20333
 C69 C 0.81262 -0.22916 0.22372
 N70 N 0.77824 -0.22773 0.22158
 H71 H 0.75466 -0.31640 0.25703
 H72 H 0.79905 -0.24006 0.30156
 H73 H 0.83476 -0.27223 0.33711
 H74 H 0.78891 -0.34999 0.29154
 H75 H 0.73542 -0.20940 0.19739
 H76 H 0.76916 -0.17664 0.16083
 H77 H 0.86016 -0.21251 0.20546
 H78 H 0.82448 -0.24415 0.24126
 C79 C 0.68296 -0.31064 0.18051
 C80 C 0.68613 -0.18832 0.31912
 C81 C 0.81754 -0.19173 0.18033
 C82 C 0.81506 -0.31384 0.31690
 C83 C 0.70182 0.26378 -0.20151
 H84 H 0.69984 0.23961 -0.20003
 C85 C 0.68229 0.28184 -0.18045
 H86 H 0.66537 0.27139 -0.16268
 C87 C 0.72708 0.30671 -0.22583
 H88 H 0.74485 0.31640 -0.24320
 C89 C 0.70817 0.32556 -0.20522
 H90 H 0.71113 0.34962 -0.20757
 N91 N 0.72334 0.27642 -0.22396
 C92 C 0.73746 0.21067 -0.30320
 H93 H 0.76482 0.21118 -0.30510
 C94 C 0.71881 0.19185 -0.32393
 H95 H 0.73203 0.17814 -0.34201
 C96 C 0.68713 0.22828 -0.27747
 H97 H 0.67486 0.24257 -0.25942
 C98 C 0.66746 0.20976 -0.29774
 H99 H 0.64019 0.20965 -0.29458
 Zn100 Zn 0.74960 0.25102 -0.25178
 N101 N 0.72154 0.22789 -0.28004
 C102 C 0.77212 0.19500 -0.22687
 N103 N 0.77547 0.22527 -0.22414
 C104 C 0.79657 0.23762 -0.20123
 C105 C 0.81626 0.21927 -0.18072
 C106 C 0.79131 0.17588 -0.20694
 C107 C 0.76313 0.29208 -0.30237
 C108 C 0.78243 0.31053 -0.32305
 C109 C 0.83296 0.29133 -0.29689
 C110 C 0.81254 0.27323 -0.27680
 N111 N 0.77827 0.27437 -0.27939
 H112 H 0.75447 0.18552 -0.24439
 H113 H 0.79835 0.26177 -0.19917
 H114 H 0.83349 0.22949 -0.16317
 H115 H 0.78815 0.15186 -0.20946
 H116 H 0.73575 0.29239 -0.30409
 H117 H 0.76847 0.32534 -0.33922
 H118 H 0.86001 0.28849 -0.29437
 H119 H 0.82425 0.25816 -0.25924
 C120 C 0.68333 0.19087 -0.32102
 C121 C 0.68533 0.31320 -0.18219
 C122 C 0.81832 0.31103 -0.32057
 C123 C 0.81400 0.18793 -0.18369
 C124 C 1.20129 -0.23606 -0.19963
 H125 H 1.20027 -0.26014 -0.19648
 C126 C 1.18087 -0.21756 -0.17992
 H127 H 1.16379 -0.22763 -0.16203
 C128 C 1.22481 -0.19374 -0.22677
 H129 H 1.24224 -0.18442 -0.24471
 C130 C 1.20482 -0.17445 -0.20767
 H131 H 1.20728 -0.15045 -0.21111
 N132 N 1.22252 -0.22397 -0.22273
 C133 C 1.23817 -0.28842 -0.30287
 H134 H 1.26488 -0.28493 -0.30748
 C135 C 1.21973 -0.30725 -0.32379
 H136 H 1.23259 -0.31833 -0.34419
 C137 C 1.18871 -0.27689 -0.27194
 H138 H 1.17648 -0.26487 -0.25200
 C139 C 1.16928 -0.29552 -0.29227
 H140 H 1.14247 -0.29801 -0.28716
 Zn141 Zn 1.25005 -0.24961 -0.24935
 N142 N 1.22269 -0.27415 -0.27709
 C143 C 1.29632 -0.29637 -0.23573
 N144 N 1.27754 -0.27412 -0.22160
 C145 C 1.27859 -0.26911 -0.18827
 C146 C 1.29837 -0.28730 -0.16774
 C147 C 1.31647 -0.31504 -0.21616
 C148 C 1.26368 -0.21142 -0.30301
 C149 C 1.28327 -0.19308 -0.32356
 C150 C 1.33242 -0.20562 -0.29061
 C151 C 1.31188 -0.22373 -0.27068
 N152 N 1.27815 -0.22608 -0.27704
 H153 H 1.29570 -0.29975 -0.26223
 H154 H 1.26436 -0.25082 -0.17748
 H155 H 1.29898 -0.28286 -0.14131
 H156 H 1.33062 -0.33299 -0.22790
 H157 H 1.23676 -0.21368 -0.30742
 H158 H 1.27112 -0.18101 -0.34360
 H159 H 1.35923 -0.20403 -0.28519
 H160 H 1.32281 -0.23559 -0.24988
 C161 C 1.18485 -0.31125 -0.31840
 C162 C 1.18236 -0.18630 -0.18397
 C163 C 1.31811 -0.18983 -0.31732
 C164 C 1.31753 -0.31075 -0.18164
 C165 C 0.26349 0.21167 0.69670
 H166 H 0.23650 0.21379 0.69254
 C167 C 0.28307 0.19347 0.67594
 H168 H 0.27085 0.18136 0.65598
 C169 C 0.31185 0.22418 0.72865
 H170 H 0.32285 0.23604 0.74940
 C171 C 0.33239 0.20622 0.70851
 H172 H 0.35926 0.20475 0.71370
 N173 N 0.27804 0.22634 0.72260
 C174 C 0.20152 0.23536 0.80040
 H175 H 0.20015 0.25943 0.80364
 C176 C 0.18183 0.21663 0.82046
 H177 H 0.16618 0.22708 0.83927
 C178 C 0.22590 0.19344 0.77341
 H179 H 0.24314 0.18437 0.75510
 C180 C 0.20682 0.17385 0.79294
 H181 H 0.20922 0.15013 0.78787
 Zn182 Zn 0.24991 0.24955 0.75064
 N183 N 0.22287 0.22360 0.77726
 C184 C 0.18823 0.27678 0.72856
 N185 N 0.22220 0.27414 0.72327
 C186 C 0.23753 0.28860 0.69756
 C187 C 0.21893 0.30755 0.67688
 C188 C 0.16864 0.29554 0.70848
 C189 C 0.27862 0.26865 0.81173
 C190 C 0.29835 0.28674 0.83237
 C191 C 0.31590 0.31504 0.78420
 C192 C 0.29581 0.29647 0.76451
 N193 N 0.27733 0.27398 0.77847
 H194 H 0.17614 0.26460 0.74844
 H195 H 0.26424 0.28518 0.69282
 H196 H 0.23167 0.31879 0.65654
 H197 H 0.14184 0.29797 0.71370
 H198 H 0.26462 0.25019 0.82237
 H199 H 0.29915 0.28203 0.85874
 H200 H 0.32982 0.33318 0.77262
 H201 H 0.29501 0.30011 0.73806
 C202 C 0.18414 0.18512 0.81716
 C203 C 0.31798 0.19038 0.68188
 C204 C 0.31721 0.31041 0.81866
 C205 C 0.18406 0.31149 0.68245
 C206 C 0.76358 0.71159 0.69691
 H207 H 0.73661 0.71358 0.69259
 C208 C 0.78339 0.69346 0.67629
 H209 H 0.77136 0.68127 0.65628
 C210 C 0.81167 0.72436 0.72912
 H211 H 0.82248 0.73629 0.74992
 C212 C 0.83243 0.70646 0.70912
 H213 H 0.85928 0.70512 0.71447
 N214 N 0.77788 0.72637 0.72287
 C215 C 0.70101 0.73504 0.80046
 H216 H 0.69940 0.75911 0.80366
 C217 C 0.68142 0.71618 0.82049
 H218 H 0.66560 0.72655 0.83922
 C219 C 0.72588 0.69327 0.77363
 H220 H 0.74327 0.68430 0.75539
 C221 C 0.70692 0.67356 0.79313
 H222 H 0.70956 0.64986 0.78810
 Zn223 Zn 0.74946 0.74950 0.75076
 N224 N 0.72256 0.72341 0.77741
 C225 C 0.68763 0.77646 0.72855
 N226 N 0.72161 0.77387 0.72323
 C227 C 0.73688 0.78833 0.69749
 C228 C 0.71822 0.80725 0.67681
 C229 C 0.66799 0.79519 0.70847
 C230 C 0.77770 0.76930 0.81186
 C231 C 0.79724 0.78767 0.83238
 C232 C 0.81503 0.81547 0.78395
 C233 C 0.79512 0.79663 0.76438
 N234 N 0.77662 0.77425 0.77852
 H235 H 0.67560 0.76430 0.74847
 H236 H 0.76359 0.78497 0.69274
 H237 H 0.73092 0.81850 0.65647
 H238 H 0.64119 0.79760 0.71373
 H239 H 0.76367 0.75093 0.82266
 H240 H 0.79788 0.78326 0.85882
 H241 H 0.82897 0.83351 0.77220
 H242 H 0.79449 0.79997 0.73788
 C243 C 0.68404 0.68469 0.81725
 C244 C 0.81829 0.69053 0.68243
 C245 C 0.81613 0.81123 0.81847
 C246 C 0.68335 0.81117 0.68242
 C247 C 0.76346 0.21073 0.19990
 H248 H 0.73609 0.21019 0.19827
 C249 C 0.78299 0.19272 0.17891
 H250 H 0.77038 0.17804 0.16145
 C251 C 0.81292 0.23006 0.22538
 H252 H 0.82451 0.24492 0.24320
 C253 C 0.83344 0.21240 0.20487
 H254 H 0.86074 0.21386 0.20720
 N255 N 0.77857 0.22845 0.22300
 C256 C 0.70174 0.23730 0.30068
 H257 H 0.69942 0.26143 0.30251
 C258 C 0.68221 0.21883 0.32124
 H259 H 0.66495 0.22892 0.33898
 C260 C 0.72782 0.19487 0.27596
 H261 H 0.74592 0.18554 0.25865
 C262 C 0.70893 0.17562 0.29606
 H263 H 0.71222 0.15162 0.29337
 Zn264 Zn 0.74966 0.25108 0.25106
 N265 N 0.72364 0.22510 0.27826
 C266 C 0.68703 0.27332 0.22526
 N267 N 0.72144 0.27440 0.22322
 C268 C 0.73727 0.29227 0.20066
 C269 C 0.71846 0.31100 0.17996
 C270 C 0.66718 0.29172 0.20500
 C271 C 0.79669 0.26382 0.30160
 C272 C 0.81608 0.28186 0.32264
 C273 C 0.78984 0.32558 0.29824
 C274 C 0.77110 0.30675 0.27763
 N275 N 0.77516 0.27648 0.27928
 H276 H 0.67486 0.25848 0.24280
 H277 H 0.76466 0.29226 0.19915
 H278 H 0.73159 0.32519 0.16232
 H279 H 0.63987 0.29123 0.20767
 H280 H 0.79894 0.23965 0.30288
 H281 H 0.83313 0.27141 0.34022
 H282 H 0.78672 0.34964 0.29601
 H283 H 0.75329 0.31644 0.26037
 C284 C 0.68566 0.18752 0.31900
 C285 C 0.81848 0.19316 0.18149
 C286 C 0.81284 0.31321 0.32101
 C287 C 0.68293 0.31119 0.18229
 C288 C 0.26328 0.71102 0.19872
 H289 H 0.23592 0.71066 0.19698
 C290 C 0.28273 0.69281 0.17785
 H291 H 0.27005 0.67819 0.16038
 C292 C 0.31281 0.73002 0.22435
 H293 H 0.32447 0.74480 0.24222
 C294 C 0.33326 0.71216 0.20397
 H295 H 0.36055 0.71340 0.20642
 N296 N 0.27845 0.72868 0.22185
 C297 C 0.20166 0.73759 0.29973
 H298 H 0.19937 0.76172 0.30174
 C299 C 0.18175 0.71900 0.31984
 H300 H 0.16386 0.72901 0.33702
 C301 C 0.22757 0.69528 0.27462
 H302 H 0.24586 0.68601 0.25747
 C303 C 0.20820 0.67592 0.29416
 H304 H 0.21188 0.65195 0.29170
 Zn305 Zn 0.24954 0.75148 0.24984
 N306 N 0.22357 0.72551 0.27723
 C307 C 0.18674 0.77367 0.22414
 N308 N 0.22114 0.77455 0.22179
 C309 C 0.23687 0.79213 0.19887
 C310 C 0.21798 0.81078 0.17813
 C311 C 0.16682 0.79200 0.20384
 C312 C 0.29673 0.76531 0.30017
 C313 C 0.31632 0.78383 0.32054
 C314 C 0.28982 0.82686 0.29516
 C315 C 0.27084 0.80747 0.27541
 N316 N 0.27504 0.77733 0.27768
 H317 H 0.17464 0.75910 0.24199
 H318 H 0.26425 0.79200 0.19715
 H319 H 0.23105 0.82474 0.16022
 H320 H 0.13953 0.79169 0.20677
 H321 H 0.29932 0.74118 0.30182
 H322 H 0.33441 0.77277 0.33646
 H323 H 0.28400 0.85045 0.29297
 H324 H 0.25241 0.81670 0.25847
 C325 C 0.18464 0.68769 0.31690
 C326 C 0.31822 0.69297 0.18057
 C327 C 0.31376 0.81554 0.31823
 C328 C 0.18247 0.81120 0.18077
 N329 N 1.05820 0.03156 0.03600
 N330 N 1.08120 0.05236 0.04194
 N331 N 1.03417 -0.03140 0.05897
 N332 N 1.04041 -0.05228 0.08141
 N333 N 1.05764 -0.03154 0.03576
 N334 N 1.08049 -0.05251 0.04176
 N335 N 1.03472 0.03169 0.05919
 N336 N 1.04109 0.05257 0.08157
 C337 C 1.06990 0.06543 0.07019
 C338 C 1.06909 -0.06542 0.07003
 N339 N 0.93745 -0.03055 0.03644
 N340 N 0.91479 -0.05172 0.04224
 N341 N 0.96168 0.03227 0.05957
 N342 N 0.95616 0.05355 0.08175
 N343 N 0.93802 0.03255 0.03667
 N344 N 0.91573 0.05403 0.04264
 N345 N 0.96111 -0.03080 0.05933
 N346 N 0.95525 -0.05213 0.08133
 Mn347 Mn 0.99791 0.00044 0.05961
 C348 C 0.92651 -0.06508 0.07010
 C349 C 0.92767 0.06702 0.07060
 N350 N 1.05740 -0.03130 -0.03585
 N351 N 1.08022 -0.05220 -0.04235
 N352 N 1.03435 0.03205 -0.05851
 N353 N 1.04089 0.05276 -0.08107
 N354 N 1.05798 0.03176 -0.03558
 N355 N 1.08125 0.05226 -0.04191
 N356 N 1.03376 -0.03101 -0.05877
 N357 N 1.03984 -0.05170 -0.08149
 Mn358 Mn 1.05814 0.00011 0.00008
 C359 C 1.06861 -0.06490 -0.07060
 C360 C 1.06992 0.06535 -0.07005
 N361 N 0.93771 0.03279 -0.03494
 N362 N 0.91484 0.05375 -0.04103
 N363 N 0.96068 -0.03041 -0.05834
 N364 N 0.95446 -0.05139 -0.08064
 N365 N 0.93716 -0.03031 -0.03518
 N366 N 0.91427 -0.05122 -0.04108
 N367 N 0.96125 0.03268 -0.05809
 N368 N 0.95506 0.05354 -0.08055
 Mn369 Mn 0.93722 0.00112 0.00076
 Mn370 Mn 0.99750 0.00083 -0.05876
 Cl371 Cl 0.99770 0.00063 0.00042
 C372 C 0.92634 0.06667 -0.06928
 C373 C 0.92569 -0.06430 -0.06928
 N374 N 1.06096 0.53175 0.53558
 N375 N 1.08407 0.55247 0.54148
 N376 N 1.03729 0.46891 0.55934
 N377 N 1.04358 0.44820 0.58195
 N378 N 1.06077 0.46869 0.53614
 N379 N 1.08368 0.44782 0.54231
 N380 N 1.03752 0.53197 0.55883
 N381 N 1.04404 0.55284 0.58118
 C382 C 1.07286 0.56559 0.56973
 C383 C 1.07231 0.43508 0.57069
 N384 N 0.94052 0.46918 0.53695
 N385 N 0.91779 0.44816 0.54309
 N386 N 0.96447 0.53227 0.55931
 N387 N 0.95849 0.55335 0.58161
 N388 N 0.94083 0.53227 0.53640
 N389 N 0.91808 0.55335 0.54249
 N390 N 0.96418 0.46918 0.55984
 N391 N 0.95820 0.44818 0.58222
 Mn392 Mn 1.00086 0.50058 0.55966
 C393 C 0.92942 0.43514 0.57117
 C394 C 0.92975 0.56644 0.57050
 N395 N 1.06051 0.46812 0.46459
 N396 N 1.08336 0.44712 0.45861
 N397 N 1.03706 0.53106 0.44101
 N398 N 1.04313 0.55188 0.41844
 N399 N 1.06068 0.53122 0.46395
 N400 N 1.08349 0.55214 0.45760
 N401 N 1.03687 0.46794 0.44167
 N402 N 1.04302 0.44682 0.41943
 Mn403 Mn 1.06107 0.49996 0.50006
 C404 C 1.07183 0.43387 0.43065
 C405 C 1.07191 0.56497 0.42940
 N406 N 0.94054 0.53171 0.46476
 N407 N 0.91768 0.55264 0.45855
 N408 N 0.96369 0.46826 0.44218
 N409 N 0.95720 0.44718 0.42004
 N410 N 0.94023 0.46864 0.46541
 N411 N 0.91718 0.44783 0.45975
 N412 N 0.96397 0.53135 0.44151
 N413 N 0.95772 0.55203 0.41886
 Mn414 Mn 0.94019 0.50047 0.50088
 Mn415 Mn 1.00040 0.49964 0.44125
 Cl416 Cl 1.00063 0.50016 0.50046
 C417 C 0.92906 0.56528 0.43012
 C418 C 0.92840 0.43447 0.43165
 N419 N 0.55989 0.03157 0.53573
 N420 N 0.58272 0.05254 0.54160
 N421 N 0.53641 -0.03138 0.55930
 N422 N 0.54267 -0.05208 0.58192
 N423 N 0.55999 -0.03152 0.53620
 N424 N 0.58295 -0.05233 0.54246
 N425 N 0.53631 0.03172 0.55883
 N426 N 0.54245 0.05278 0.58107
 C427 C 0.57121 0.06573 0.56970
 C428 C 0.57151 -0.06511 0.57078
 N429 N 0.43980 -0.03155 0.53633
 N430 N 0.41709 -0.05258 0.54250
 N431 N 0.46326 0.03167 0.55886
 N432 N 0.45717 0.05282 0.58104
 N433 N 0.43970 0.03154 0.53586
 N434 N 0.41690 0.05261 0.54178
 N435 N 0.46335 -0.03138 0.55934
 N436 N 0.45733 -0.05229 0.58180
 Mn437 Mn 0.49982 0.00016 0.55941
 C438 C 0.42866 -0.06545 0.57069
 C439 C 0.42844 0.06581 0.56978
 N440 N 0.56008 -0.03198 0.46464
 N441 N 0.58300 -0.05294 0.45878
 N442 N 0.53651 0.03097 0.44109
 N443 N 0.54271 0.05186 0.41862
 N444 N 0.55998 0.03109 0.46418
 N445 N 0.58277 0.05205 0.45809
 N446 N 0.53661 -0.03215 0.44156
 N447 N 0.54293 -0.05324 0.41934
 Mn448 Mn 0.56032 -0.00021 0.50018
 C449 C 0.57167 -0.06617 0.43072
 C450 C 0.57138 0.06496 0.42987
 N451 N 0.43977 0.03110 0.46424
 N452 N 0.41672 0.05181 0.45789
 N453 N 0.46345 -0.03215 0.44160
 N454 N 0.45703 -0.05292 0.41909
 N455 N 0.43985 -0.03200 0.46469
 N456 N 0.41674 -0.05266 0.45852
 N457 N 0.46336 0.03096 0.44114
 N458 N 0.45700 0.05157 0.41844
 Mn459 Mn 0.43943 -0.00023 0.50029
 Mn460 Mn 0.49999 -0.00060 0.44100
 Cl461 Cl 0.49988 -0.00022 0.50021
 C462 C 0.42812 0.06458 0.42953
 C463 C 0.42812 -0.06572 0.43030
 N464 N 0.55866 0.53136 0.03650
 N465 N 0.58155 0.55228 0.04239
 N466 N 0.53505 0.46845 0.06005
 N467 N 0.54120 0.44764 0.08258
 N468 N 0.55862 0.46828 0.03694
 N469 N 0.58146 0.44735 0.04310
 N470 N 0.53510 0.53153 0.05962
 N471 N 0.54129 0.55256 0.08188
 C472 C 0.57006 0.56546 0.07050
 C473 C 0.56995 0.43452 0.07137
 N474 N 0.43844 0.46846 0.03718
 N475 N 0.41592 0.44720 0.04311
 N476 N 0.46205 0.53165 0.05975
 N477 N 0.45621 0.55301 0.08176
 N478 N 0.43848 0.53158 0.03676
 N479 N 0.41593 0.55290 0.04250
 N480 N 0.46200 0.46856 0.06017
 N481 N 0.45619 0.44739 0.08239
 Mn482 Mn 0.49854 0.50005 0.06024
 C483 C 0.42760 0.43417 0.07117
 C484 C 0.42760 0.56617 0.07042
 N485 N 0.55876 0.46784 -0.03462
 N486 N 0.58181 0.44704 -0.04071
 N487 N 0.53528 0.53082 -0.05813
 N488 N 0.54174 0.55138 -0.08088
 N489 N 0.55879 0.53092 -0.03508
 N490 N 0.58189 0.55155 -0.04151
 N491 N 0.53526 0.46772 -0.05768
 N492 N 0.54169 0.44683 -0.08010
 Mn493 Mn 0.55904 0.49960 0.00094
 C494 C 0.57052 0.43395 -0.06887
 C495 C 0.57060 0.56430 -0.06987
 N496 N 0.43857 0.53114 -0.03487
 N497 N 0.41587 0.55222 -0.04094
 N498 N 0.46214 0.46788 -0.05751
 N499 N 0.45605 0.44679 -0.07972
 N500 N 0.43851 0.46806 -0.03444
 N501 N 0.41569 0.44709 -0.04033
 N502 N 0.46218 0.53095 -0.05796
 N503 N 0.45620 0.55190 -0.08037
 Mn504 Mn 0.43814 0.49981 0.00116
 Mn505 Mn 0.49870 0.49934 -0.05815
 Cl506 Cl 0.49861 0.49970 0.00104
 C507 C 0.42749 0.56509 -0.06915
 C508 C 0.42727 0.43388 -0.06839
 C509 C 1.12403 0.12762 0.12197
 C510 C 1.15522 0.11873 0.13517
 C511 C 1.17440 0.13881 0.15396
 C512 C 1.16264 0.16817 0.15983
 C513 C 1.13126 0.17696 0.14637
 C514 C 1.11209 0.15679 0.12754
 C515 C 1.10426 0.10648 0.10321
 C516 C 1.08827 0.08809 0.08790
 H517 H 1.16463 0.09616 0.13116
 H518 H 1.19815 0.13117 0.16442
 H519 H 1.12168 0.19949 0.15017
 H520 H 1.08797 0.16391 0.11741
 C521 C 1.12702 0.62760 0.62171
 C522 C 1.11295 0.65515 0.63122
 C523 C 1.13181 0.67521 0.65047
 C524 C 1.16500 0.66792 0.66044
 C525 C 1.17895 0.64025 0.65051
 C526 C 1.16007 0.62026 0.63130
 C527 C 1.10741 0.60644 0.60284
 C528 C 1.09140 0.58812 0.58746
 H529 H 1.08739 0.66106 0.62392
 H530 H 1.12051 0.69647 0.65737
 H531 H 1.20421 0.63379 0.65817
 H532 H 1.17113 0.59892 0.62422
 C533 C 0.62487 0.12856 0.62108
 C534 C 0.65628 0.12002 0.63410
 C535 C 0.67532 0.14035 0.65270
 C536 C 0.66322 0.16960 0.65858
 C537 C 0.63163 0.17804 0.64529
 C538 C 0.61260 0.15762 0.62664
 C539 C 0.60524 0.10717 0.60250
 C540 C 0.58938 0.08860 0.58731
 H541 H 0.66595 0.09754 0.63009
 H542 H 0.69924 0.13298 0.66303
 H543 H 0.62178 0.20047 0.64909
 H544 H 0.58831 0.16447 0.61665
 C545 C 0.62406 0.62776 0.12221
 C546 C 0.65532 0.61891 0.13530
 C547 C 0.67450 0.63900 0.15406
 C548 C 0.66267 0.66832 0.16001
 C549 C 0.63123 0.67708 0.14667
 C550 C 0.61205 0.65690 0.12786
 C551 C 0.60429 0.60661 0.10348
 C552 C 0.58834 0.58819 0.08819
 H553 H 0.66477 0.59636 0.13122
 H554 H 0.69831 0.63140 0.16443
 H555 H 0.62161 0.69957 0.15054
 H556 H 0.58788 0.66398 0.11782
 C557 C 0.87592 -0.13004 0.12139
 C558 C 0.88510 -0.13589 0.15430
 C559 C 0.86650 -0.15636 0.17328
 C560 C 0.83837 -0.17124 0.15957
 C561 C 0.82967 -0.16556 0.12628
 C562 C 0.84833 -0.14507 0.10734
 C563 C 0.89401 -0.10774 0.10258
 C564 C 0.90895 -0.08853 0.08741
 H565 H 0.90630 -0.12424 0.16548
 H566 H 0.87356 -0.15991 0.19894
 H567 H 0.80842 -0.17693 0.11490
 H568 H 0.84101 -0.14071 0.08188
 C569 C 0.87704 0.37099 0.62214
 C570 C 0.89076 0.35766 0.65041
 C571 C 0.87161 0.33740 0.66916
 C572 C 0.83778 0.32993 0.66026
 C573 C 0.82487 0.34345 0.63091
 C574 C 0.84422 0.36364 0.61231
 C575 C 0.89613 0.39303 0.60384
 C576 C 0.91161 0.41199 0.58878
 H577 H 0.91613 0.36344 0.65845
 H578 H 0.88327 0.32934 0.69169
 H579 H 0.80027 0.33793 0.62097
 H580 H 0.83345 0.37361 0.59016
 C581 C 0.37722 -0.12888 0.62348
 C582 C 0.35315 -0.14740 0.60835
 C583 C 0.33421 -0.16754 0.62749
 C584 C 0.33912 -0.16939 0.66204
 C585 C 0.36369 -0.15092 0.67692
 C586 C 0.38256 -0.13081 0.65775
 C587 C 0.39564 -0.10715 0.60417
 C588 C 0.41084 -0.08841 0.58856
 H589 H 0.34881 -0.14609 0.58183
 H590 H 0.31579 -0.18171 0.61526
 H591 H 0.36772 -0.15147 0.70350
 H592 H 0.40100 -0.11645 0.66974
 C593 C 0.37701 0.36923 0.12257
 C594 C 0.34939 0.35432 0.10843
 C595 C 0.33060 0.33384 0.12727
 C596 C 0.33920 0.32806 0.16057
 C597 C 0.36738 0.34281 0.17436
 C598 C 0.38610 0.36327 0.15548
 C599 C 0.39519 0.39154 0.10383
 C600 C 0.41013 0.41074 0.08863
 H601 H 0.34213 0.35876 0.08296
 H602 H 0.30933 0.32257 0.11581
 H603 H 0.37438 0.33917 0.20003
 H604 H 0.40733 0.37482 0.16673
 C605 C 0.87375 0.12837 -0.12347
 C606 C 0.85970 0.15432 -0.10944
 C607 C 0.84056 0.17396 -0.12904
 C608 C 0.83516 0.16777 -0.16290
 C609 C 0.84975 0.14179 -0.17678
 C610 C 0.86886 0.12226 -0.15719
 C611 C 0.89257 0.10749 -0.10338
 C612 C 0.90811 0.08924 -0.08736
 H613 H 0.86324 0.15922 -0.08332
 H614 H 0.82940 0.19362 -0.11758
 H615 H 0.84651 0.13664 -0.20286
 H616 H 0.87969 0.10228 -0.16833
 C617 C 0.87599 0.62681 0.37619
 C618 C 0.86205 0.65272 0.39043
 C619 C 0.84252 0.67228 0.37112
 C620 C 0.83662 0.66607 0.33735
 C621 C 0.85111 0.64015 0.32325
 C622 C 0.87062 0.62069 0.34255
 C623 C 0.89510 0.60597 0.39604
 C624 C 0.91079 0.58777 0.41197
 H625 H 0.86595 0.65761 0.41649
 H626 H 0.83144 0.69190 0.38275
 H627 H 0.84749 0.63499 0.29722
 H628 H 0.88135 0.60074 0.33125
 C629 C 0.37385 0.12523 0.37548
 C630 C 0.35833 0.11499 0.34659
 C631 C 0.33872 0.13436 0.32731
 C632 C 0.33385 0.16489 0.33639
 C633 C 0.35028 0.17474 0.36584
 C634 C 0.36987 0.15512 0.38503
 C635 C 0.39354 0.10476 0.39528
 C636 C 0.40959 0.08682 0.41124
 H637 H 0.36160 0.09190 0.33872
 H638 H 0.32900 0.12511 0.30446
 H639 H 0.34703 0.19712 0.37560
 H640 H 0.38158 0.16326 0.40762
 C641 C 0.37594 0.62885 -0.12129
 C642 C 0.38905 0.63922 -0.15149
 C643 C 0.37031 0.65923 -0.17090
 C644 C 0.33814 0.66911 -0.16033
 C645 C 0.32542 0.65893 -0.12965
 C646 C 0.34420 0.63889 -0.11030
 C647 C 0.39446 0.60698 -0.10228
 C648 C 0.40970 0.58814 -0.08687
 H649 H 0.41360 0.63159 -0.16023
 H650 H 0.38099 0.66698 -0.19416
 H651 H 0.30058 0.66583 -0.12103
 H652 H 0.33374 0.63087 -0.08704
 C653 C 1.12144 -0.12656 -0.12484
 C654 C 1.13619 -0.15191 -0.11028
 C655 C 1.15571 -0.17159 -0.12953
 C656 C 1.16080 -0.16605 -0.16360
 C657 C 1.14553 -0.14068 -0.17803
 C658 C 1.12602 -0.12109 -0.15877
 C659 C 1.10239 -0.10560 -0.10501
 C660 C 1.08677 -0.08738 -0.08897
 H661 H 1.13292 -0.15628 -0.08399
 H662 H 1.16743 -0.19074 -0.11764
 H663 H 1.14856 -0.13605 -0.20427
 H664 H 1.11468 -0.10155 -0.17030
 C665 C 1.12641 0.37121 0.37945
 C666 C 1.11153 0.34554 0.36576
 C667 C 1.13105 0.32569 0.34668
 C668 C 1.16567 0.33139 0.34096
 C669 C 1.18046 0.35700 0.35531
 C670 C 1.16095 0.37674 0.37438
 C671 C 1.10628 0.39248 0.39787
 C672 C 1.09014 0.41100 0.41299
 H673 H 1.08479 0.34109 0.36944
 H674 H 1.11887 0.30634 0.33570
 H675 H 1.20714 0.36176 0.35179
 H676 H 1.17275 0.39650 0.38492
 C677 C 0.62648 -0.12866 0.37957
 C678 C 0.66092 -0.12290 0.37419
 C679 C 0.68042 -0.14257 0.35501
 C680 C 0.66572 -0.16831 0.34088
 C681 C 0.63120 -0.17423 0.34692
 C682 C 0.61169 -0.15446 0.36610
 C683 C 0.60632 -0.10746 0.39803
 C684 C 0.59011 -0.08898 0.41313
 H685 H 0.67264 -0.10303 0.38455
 H686 H 0.70703 -0.13763 0.35124
 H687 H 0.61910 -0.19369 0.33610
 H688 H 0.58502 -0.15908 0.37002
 C689 C 0.62559 0.37225 -0.12099
 C690 C 0.65992 0.37830 -0.12669
 C691 C 0.67944 0.35887 -0.14615
 C692 C 0.66488 0.33306 -0.16026
 C693 C 0.63047 0.32685 -0.15394
 C694 C 0.61095 0.34638 -0.13448
 C695 C 0.60540 0.39317 -0.10216
 C696 C 0.58912 0.41141 -0.08677
 H697 H 0.67154 0.39822 -0.11633
 H698 H 0.70596 0.36403 -0.15013
 H699 H 0.61846 0.30733 -0.16473
 H700 H 0.58436 0.34153 -0.13032
 C701 C 1.12517 0.12592 -0.12325
 C702 C 1.11421 0.15533 -0.12857
 C703 C 1.13364 0.17495 -0.14793
 C704 C 1.16453 0.16547 -0.16260
 C705 C 1.17518 0.13562 -0.15655
 C706 C 1.15570 0.11619 -0.13715
 C707 C 1.10502 0.10540 -0.10397
 C708 C 1.08868 0.08750 -0.08824
 H709 H 1.09041 0.16304 -0.11809
 H710 H 1.12334 0.19706 -0.15237
 H711 H 1.19918 0.12719 -0.16565
 H712 H 1.16459 0.09349 -0.13292
 C713 C 1.12430 0.62731 0.37574
 C714 C 1.13026 0.62131 0.34213
 C715 C 1.14955 0.64111 0.32298
 C716 C 1.16324 0.66726 0.33719
 C717 C 1.15674 0.67335 0.37092
 C718 C 1.13744 0.65344 0.39008
 C719 C 1.10542 0.60613 0.39545
 C720 C 1.08994 0.58769 0.41129
 H721 H 1.12016 0.60119 0.33074
 H722 H 1.15363 0.63602 0.29697
 H723 H 1.16720 0.69313 0.38265
 H724 H 1.13307 0.65826 0.41612
 C725 C 0.62590 0.12736 0.37853
 C726 C 0.66036 0.12162 0.37320
 C727 C 0.67988 0.14141 0.35427
 C728 C 0.66517 0.16726 0.34033
 C729 C 0.63060 0.17312 0.34626
 C730 C 0.61108 0.15323 0.36520
 C731 C 0.60579 0.10615 0.39694
 C732 C 0.58966 0.08770 0.41209
 H733 H 0.67211 0.10169 0.38347
 H734 H 0.70653 0.13651 0.35057
 H735 H 0.61849 0.19267 0.33558
 H736 H 0.58438 0.15784 0.36909
 C737 C 0.62540 0.62510 -0.12324
 C738 C 0.61422 0.65444 -0.12862
 C739 C 0.63352 0.67418 -0.14795
 C740 C 0.66454 0.66490 -0.16255
 C741 C 0.67542 0.63512 -0.15646
 C742 C 0.65605 0.61557 -0.13708
 C743 C 0.60540 0.60447 -0.10394
 C744 C 0.58920 0.58650 -0.08816
 H745 H 0.59034 0.66200 -0.11819
 H746 H 0.62305 0.69622 -0.15242
 H747 H 0.69950 0.62685 -0.16549
 H748 H 0.66512 0.59294 -0.13281
 C749 C 0.87405 -0.12807 -0.12120
 C750 C 0.84240 -0.13824 -0.11020
 C751 C 0.82377 -0.15836 -0.12955
 C752 C 0.83655 -0.16849 -0.16024
 C753 C 0.86863 -0.15846 -0.17082
 C754 C 0.88722 -0.13838 -0.15143
 C755 C 0.89247 -0.10617 -0.10218
 C756 C 0.90773 -0.08732 -0.08683
 H757 H 0.83190 -0.13027 -0.08692
 H758 H 0.79900 -0.16538 -0.12091
 H759 H 0.87936 -0.16617 -0.19409
 H760 H 0.91170 -0.13065 -0.16017
 C761 C 0.87302 0.37240 0.38100
 C762 C 0.83858 0.37835 0.37601
 C763 C 0.81889 0.35884 0.35700
 C764 C 0.83341 0.33305 0.34264
 C765 C 0.86794 0.32694 0.34829
 C766 C 0.88763 0.34655 0.36731
 C767 C 0.89338 0.39344 0.39927
 C768 C 0.90977 0.41180 0.41422
 H769 H 0.82700 0.39827 0.38655
 H770 H 0.79228 0.36392 0.35351
 H771 H 0.87991 0.30744 0.33727
 H772 H 0.91431 0.34179 0.37092
 C773 C 0.37348 -0.12617 0.37642
 C774 C 0.35772 -0.11573 0.34773
 C775 C 0.33804 -0.13498 0.32840
 C776 C 0.33335 -0.16559 0.33723
 C777 C 0.35001 -0.17562 0.36648
 C778 C 0.36966 -0.15613 0.38573
 C779 C 0.39330 -0.10581 0.39622
 C780 C 0.40946 -0.08793 0.41213
 H781 H 0.36085 -0.09259 0.34004
 H782 H 0.32814 -0.12557 0.30571
 H783 H 0.34692 -0.19807 0.37605
 H784 H 0.38157 -0.16441 0.40815
 C785 C 0.37556 0.37037 -0.12055
 C786 C 0.34395 0.36014 -0.10952
 C787 C 0.32518 0.34024 -0.12902
 C788 C 0.33779 0.33040 -0.15990
 C789 C 0.36984 0.34048 -0.17051
 C790 C 0.38856 0.36034 -0.15096
 C791 C 0.39404 0.39212 -0.10142
 C792 C 0.40933 0.41089 -0.08599
 H793 H 0.33356 0.36790 -0.08610
 H794 H 0.30043 0.33318 -0.12036
 H795 H 0.38044 0.33299 -0.19393
 H796 H 0.41301 0.36813 -0.15973
 C797 C 1.12327 -0.12743 0.12224
 C798 C 1.15428 -0.11838 0.13567
 C799 C 1.17354 -0.13838 0.15452
 C800 C 1.16206 -0.16782 0.16023
 C801 C 1.13085 -0.17677 0.14656
 C802 C 1.11159 -0.15668 0.12766
 C803 C 1.10343 -0.10638 0.10335
 C804 C 1.08742 -0.08805 0.08791
 H805 H 1.16348 -0.09574 0.13177
 H806 H 1.19716 -0.13063 0.16513
 H807 H 1.12149 -0.19936 0.15023
 H808 H 1.08761 -0.16392 0.11736
 C809 C 1.12603 0.37297 0.62308
 C810 C 1.15902 0.38029 0.63279
 C811 C 1.17794 0.36021 0.65188
 C812 C 1.16408 0.33247 0.66156
 C813 C 1.13092 0.32523 0.65154
 C814 C 1.11203 0.34538 0.63240
 C815 C 1.10648 0.39416 0.60415
 C816 C 1.09060 0.41251 0.58865
 H817 H 1.17003 0.40166 0.62585
 H818 H 1.20318 0.36664 0.65960
 H819 H 1.11970 0.30392 0.65826
 H820 H 1.08650 0.33949 0.62499
 C821 C 0.62522 -0.12725 0.62322
 C822 C 0.65825 -0.11997 0.63285
 C823 C 0.67719 -0.14008 0.65189
 C824 C 0.66333 -0.16782 0.66160
 C825 C 0.63013 -0.17501 0.65165
 C826 C 0.61121 -0.15483 0.63257
 C827 C 0.60566 -0.10604 0.60430
 C828 C 0.58978 -0.08768 0.58879
 H829 H 0.66928 -0.09861 0.62589
 H830 H 0.70246 -0.13368 0.65955
 H831 H 0.61889 -0.19631 0.65840
 H832 H 0.58566 -0.16069 0.62522
 C833 C 0.62389 0.37258 0.12376
 C834 C 0.65462 0.38178 0.13768
 C835 C 0.67383 0.36176 0.15655
 C836 C 0.66258 0.33218 0.16176
 C837 C 0.63165 0.32310 0.14761
 C838 C 0.61244 0.34320 0.12870
 C839 C 0.60412 0.39360 0.10482
 C840 C 0.58819 0.41192 0.08933
 H841 H 0.66363 0.40451 0.13414
 H842 H 0.69722 0.36960 0.16755
 H843 H 0.62249 0.30040 0.15091
 H844 H 0.58868 0.33585 0.11799
 C845 C 0.87752 0.13210 0.12227
 C846 C 0.85003 0.14729 0.10817
 C847 C 0.83120 0.16763 0.12720
 C848 C 0.83962 0.17298 0.16062
 C849 C 0.86769 0.15799 0.17436
 C850 C 0.88647 0.13766 0.15530
 C851 C 0.89561 0.10980 0.10340
 C852 C 0.91042 0.09056 0.08812
 H853 H 0.84288 0.14314 0.08262
 H854 H 0.81000 0.17910 0.11580
 H855 H 0.87454 0.16130 0.20012
 H856 H 0.90758 0.12588 0.16650
 C857 C 0.87801 0.62991 0.62319
 C858 C 0.88346 0.63198 0.65743
 C859 C 0.86440 0.65200 0.67661
 C860 C 0.83953 0.67024 0.66177
 C861 C 0.83454 0.66826 0.62723
 C862 C 0.85366 0.64821 0.60809
 C863 C 0.89657 0.60820 0.60390
 C864 C 0.91186 0.58945 0.58831
 H865 H 0.90210 0.61779 0.66940
 H866 H 0.86852 0.65265 0.70317
 H867 H 0.81589 0.68225 0.61502
 H868 H 0.84923 0.64678 0.58159
 C869 C 0.37695 0.12948 0.62234
 C870 C 0.38258 0.13150 0.65656
 C871 C 0.36376 0.15161 0.67583
 C872 C 0.33897 0.16999 0.66111
 C873 C 0.33379 0.16807 0.62659
 C874 C 0.35267 0.14791 0.60736
 C875 C 0.39531 0.10770 0.60298
 C876 C 0.41052 0.08888 0.58743
 H877 H 0.40119 0.11720 0.66843
 H878 H 0.36802 0.15222 0.70237
 H879 H 0.31518 0.18217 0.61449
 H880 H 0.34811 0.14652 0.58088
 C881 C 0.37700 0.63133 0.12169
 C882 C 0.34962 0.64660 0.10749
 C883 C 0.33087 0.66710 0.12640
 C884 C 0.33925 0.67255 0.15982
 C885 C 0.36721 0.65746 0.17367
 C886 C 0.38590 0.63697 0.15472
 C887 C 0.39513 0.60897 0.10290
 C888 C 0.41007 0.58971 0.08773
 H889 H 0.34251 0.64240 0.08194
 H890 H 0.30977 0.67863 0.11491
 H891 H 0.37404 0.66083 0.19942
 H892 H 0.40694 0.62515 0.16602
   
