data_POSCAR
  _audit_creation_date              2014-09-24
  _audit_creation_method            'ToBaCCo'
  _symmetry_space_group_name_H-M    'P1'
  _symmetry_Int_Tables_number       1
  _symmetry_cell_setting            triclinic
  loop_
  _symmetry_equiv_pos_as_xyz
 x,y,z
_cell_length_a 32.0818
_cell_length_b 32.1415
_cell_length_c 32.1507
_cell_angle_alpha 99.913200
_cell_angle_beta 77.621700
_cell_angle_gamma 102.710200
loop_
  _atom_site_label
  _atom_site_type_symbol
  _atom_site_fract_x
  _atom_site_fract_y
  _atom_site_fract_z
O1 O 0.52912 0.49873 0.04354
 O2 O 0.41476 0.48404 0.03300
 O3 O 0.46496 0.43390 0.04221
 O4 O 0.47891 0.54899 0.03288
 O5 O 0.49794 0.53478 -0.03762
 O6 O 0.48368 0.42002 -0.02837
 O7 O 0.43352 0.47014 -0.03756
 O8 O 0.54806 0.48451 -0.02697
 Cu9 Cu 0.47013 0.49294 0.04506
 Cu10 Cu 0.49278 0.47605 -0.03977
 C11 C 0.55776 0.49328 0.01021
 C12 C 0.40488 0.47500 -0.00406
 C13 C 0.47234 0.40763 0.00845
 C14 C 0.49006 0.56114 -0.00410
 O15 O -0.04090 0.56294 0.53023
 O16 O -0.03054 0.44921 0.51863
 O17 O -0.03061 0.51244 0.58082
 O18 O -0.04261 0.49969 0.46790
 O19 O 0.02860 0.51868 0.44832
 O20 O 0.04068 0.53122 0.56151
 O21 O 0.04066 0.46822 0.49905
 O22 O 0.03037 0.58165 0.51086
 Cu23 Cu -0.04336 0.50406 0.52620
 Cu24 Cu 0.04226 0.52671 0.50284
 C25 C -0.00696 0.59148 0.52248
 C26 C 0.00698 0.43965 0.50753
 C27 C 0.00702 0.52382 0.59022
 C28 C -0.00917 0.50768 0.43913
 O29 O 0.51905 0.03077 0.54907
 O30 O 0.53344 0.04001 0.43382
 O31 O 0.46932 0.04257 0.49866
 O32 O 0.58299 0.03004 0.48414
 O33 O 0.56266 -0.04053 0.47030
 O34 O 0.44870 -0.02790 0.48455
 O35 O 0.51305 -0.03055 0.42007
 O36 O 0.49840 -0.03969 0.53495
 Cu37 Cu 0.52808 0.04297 0.49296
 Cu38 Cu 0.50348 -0.04177 0.47622
 C39 C 0.50695 -0.00621 0.56132
 C40 C 0.52576 0.00621 0.40752
 C41 C 0.43991 0.00961 0.49343
 C42 C 0.59203 -0.00732 0.47482
 C43 C 0.49607 -0.10138 -0.10172
 C44 C 0.50112 -0.05905 -0.10988
 C45 C 0.50370 -0.02508 -0.07621
 C46 C 0.49916 -0.03310 -0.03344
 C47 C 0.49293 -0.07618 -0.02581
 C48 C 0.49248 -0.10986 -0.05978
 C49 C 0.50093 0.00306 0.00288
 C50 C 0.51360 -0.00133 0.04119
 C51 C 0.51417 0.03219 0.07537
 C52 C 0.50414 0.07116 0.07119
 C53 C 0.49249 0.07648 0.03334
 C54 C 0.48990 0.04248 -0.00022
 H55 H 0.49507 -0.12760 -0.12793
 H56 H 0.50960 0.00742 -0.08389
 H57 H 0.48823 -0.08408 0.00645
 H58 H 0.52332 -0.03046 0.04484
 H59 H 0.50544 0.09739 0.09740
 H60 H 0.47908 0.04715 -0.02842
 C61 C -0.10616 0.49890 1.10411
 C62 C -0.11351 0.49462 1.06215
 C63 C -0.07874 0.49389 1.02741
 C64 C -0.03565 0.49961 1.03414
 C65 C -0.02883 0.50499 1.07687
 C66 C -0.06388 0.50353 1.11142
 C67 C 0.00181 0.49996 0.99701
 C68 C 0.04112 0.48919 1.00087
 C69 C 0.07636 0.49061 0.96654
 C70 C 0.07236 0.50069 0.92728
 C71 C 0.03355 0.51040 0.92240
 C72 C -0.00116 0.51107 0.95719
 H73 H -0.13320 0.49867 1.13096
 H74 H -0.08585 0.48863 0.99531
 H75 H 0.00360 0.51061 1.08386
 H76 H 0.04480 0.47946 1.03024
 H77 H 0.09949 0.50095 0.90047
 H78 H -0.03011 0.52048 0.95276
 C79 C -0.07245 -0.07521 0.49702
 C80 C -0.03403 -0.07913 0.50839
 C81 C 0.00001 -0.04353 0.51047
 C82 C -0.00315 -0.00385 0.49916
 C83 C -0.04201 -0.00095 0.48677
 C84 C -0.07667 -0.03610 0.48671
 C85 C 0.03371 0.03409 0.50025
 C86 C 0.02626 0.07658 0.50552
 C87 C 0.06086 0.11184 0.50543
 C88 C 0.10320 0.10543 0.50221
 C89 C 0.11113 0.06371 0.49800
 C90 C 0.07688 0.02832 0.49596
 H91 H -0.09911 -0.10261 0.49625
 H92 H 0.02858 -0.04719 0.52119
 H93 H -0.04577 0.02832 0.47690
 H94 H -0.00630 0.08280 0.50997
 H95 H 0.12988 0.13278 0.50295
 H96 H 0.08447 -0.00355 0.49071
 C97 C -0.23515 0.49218 1.04003
 C98 C -0.24184 0.52713 1.02239
 C99 C -0.28388 0.52806 1.01541
 C100 C -0.31897 0.49401 1.02602
 C101 C -0.31219 0.45881 1.04322
 C102 C -0.27015 0.45793 1.05027
 C103 C -0.26419 0.42251 1.06762
 C104 C -0.29877 0.38891 1.07772
 C105 C -0.33988 0.38977 1.07086
 C106 C -0.34670 0.42420 1.05377
 C107 C -0.28982 0.56338 0.99790
 C108 C -0.25516 0.59682 0.98748
 C109 C -0.21403 0.59590 0.99424
 C110 C -0.20726 0.56156 1.01151
 C111 C -0.36214 0.49520 1.01965
 C112 C -0.39842 0.49519 1.01494
 C113 C -0.19236 0.49183 1.04803
 C114 C -0.15660 0.49245 1.05461
 H115 H -0.23281 0.42041 1.07354
 H116 H -0.29364 0.36207 1.09097
 H117 H -0.36665 0.36362 1.07885
 H118 H -0.37926 0.42334 1.04897
 H119 H -0.32121 0.56552 0.99204
 H120 H -0.26026 0.62358 0.97407
 H121 H -0.18721 0.62194 0.98608
 H122 H -0.17467 0.56232 1.01616
 C123 C 0.19692 0.47677 0.97783
 C124 C 0.20408 0.44341 0.99743
 C125 C 0.24705 0.44124 1.00059
 C126 C 0.28251 0.47249 0.98418
 C127 C 0.27538 0.50567 0.96425
 C128 C 0.23245 0.50780 0.96104
 C129 C 0.22611 0.54131 0.94102
 C130 C 0.26118 0.57181 0.92468
 C131 C 0.30317 0.56972 0.92781
 C132 C 0.31039 0.53715 0.94738
 C133 C 0.25347 0.40766 1.02037
 C134 C 0.21839 0.37708 1.03660
 C135 C 0.17636 0.37922 1.03352
 C136 C 0.16909 0.41194 1.01418
 C137 C 0.32631 0.47135 0.98849
 C138 C 0.36312 0.47214 0.99199
 C139 C 0.15315 0.47962 0.97497
 C140 C 0.11757 0.48362 0.97172
 H141 H 0.19408 0.54431 0.93772
 H142 H 0.25573 0.59718 0.90947
 H143 H 0.33032 0.59344 0.91499
 H144 H 0.34367 0.53693 0.94901
 H145 H 0.28558 0.40466 1.02345
 H146 H 0.22386 0.35159 1.05163
 H147 H 0.14923 0.35538 1.04617
 H148 H 0.13584 0.41229 1.01249
 C149 C -0.02394 -0.19926 0.52643
 C150 C 0.01569 -0.20859 0.53140
 C151 C 0.01883 -0.25174 0.53290
 C152 C -0.01767 -0.28529 0.52934
 C153 C -0.05760 -0.27579 0.52544
 C154 C -0.06076 -0.23265 0.52400
 C155 C -0.10095 -0.22402 0.51972
 C156 C -0.13695 -0.25704 0.51689
 C157 C -0.13385 -0.29921 0.51827
 C158 C -0.09473 -0.30867 0.52250
 C159 C 0.05889 -0.26032 0.53756
 C160 C 0.09483 -0.22723 0.54063
 C161 C 0.09175 -0.18506 0.53913
 C162 C 0.05272 -0.17565 0.53457
 C163 C -0.01379 -0.32972 0.52800
 C164 C -0.01066 -0.36677 0.52588
 C165 C -0.02648 -0.15579 0.52178
 C166 C -0.02939 -0.12037 0.51651
 H167 H -0.10502 -0.19172 0.51857
 H168 H -0.16743 -0.24986 0.51361
 H169 H -0.16191 -0.32477 0.51605
 H170 H -0.09396 -0.34197 0.52349
 H171 H 0.06284 -0.29261 0.53895
 H172 H 0.12522 -0.23437 0.54420
 H173 H 0.11976 -0.15949 0.54154
 H174 H 0.05186 -0.14236 0.53363
 C175 C 0.03845 0.23319 0.50829
 C176 C -0.00151 0.23849 0.49985
 C177 C -0.00869 0.28043 0.49890
 C178 C 0.02409 0.31685 0.50645
 C179 C 0.06395 0.31154 0.51517
 C180 C 0.07114 0.26962 0.51606
 C181 C 0.11125 0.26517 0.52477
 C182 C 0.14334 0.30109 0.53242
 C183 C 0.13632 0.34207 0.53159
 C184 C 0.09716 0.34743 0.52309
 C185 C -0.04885 0.28486 0.49033
 C186 C -0.08103 0.24893 0.48293
 C187 C -0.07404 0.20796 0.48390
 C188 C -0.03479 0.20260 0.49222
 C189 C 0.01686 0.35984 0.50577
 C190 C 0.01178 0.39599 0.50596
 C191 C 0.04623 0.19028 0.50820
 C192 C 0.05288 0.15461 0.50746
 H193 H 0.11823 0.23396 0.52581
 H194 H 0.17383 0.29710 0.53903
 H195 H 0.16136 0.36987 0.53756
 H196 H 0.09328 0.37997 0.52279
 H197 H -0.05579 0.31608 0.48926
 H198 H -0.11157 0.25290 0.47644
 H199 H -0.09915 0.18016 0.47817
 H200 H -0.03090 0.17009 0.49267
 C201 C 0.50375 -0.03641 -0.23214
 C202 C 0.49954 0.00439 -0.23995
 C203 C 0.49913 0.01138 -0.28235
 C204 C 0.50296 -0.02245 -0.31671
 C205 C 0.50720 -0.06325 -0.30890
 C206 C 0.50760 -0.07023 -0.26651
 C207 C 0.51191 -0.11127 -0.25955
 C208 C 0.51573 -0.14446 -0.29346
 C209 C 0.51534 -0.13764 -0.33489
 C210 C 0.51113 -0.09759 -0.34271
 C211 C 0.49490 0.05241 -0.28935
 C212 C 0.49120 0.08563 -0.25544
 C213 C 0.49162 0.07881 -0.21400
 C214 C 0.49573 0.03872 -0.20615
 C215 C 0.50334 -0.01531 -0.36024
 C216 C 0.50448 -0.01042 -0.39688
 C217 C 0.50356 -0.04384 -0.18877
 C218 C 0.50289 -0.05054 -0.15282
 H219 H 0.51243 -0.11816 -0.22790
 H220 H 0.51903 -0.17563 -0.28755
 H221 H 0.51832 -0.16353 -0.36113
 H222 H 0.51099 -0.09391 -0.37550
 H223 H 0.49441 0.05924 -0.32103
 H224 H 0.48800 0.11682 -0.26136
 H225 H 0.48876 0.10474 -0.18778
 H226 H 0.49593 0.03499 -0.17338
 C227 C 0.53519 0.01978 0.19332
 C228 C 0.54650 0.05773 0.22150
 C229 C 0.54739 0.05503 0.26496
 C230 C 0.53699 0.01442 0.27994
 C231 C 0.52747 -0.02363 0.25129
 C232 C 0.52659 -0.02094 0.20783
 C233 C 0.51658 -0.05936 0.17988
 C234 C 0.50772 -0.09935 0.19445
 C235 C 0.50855 -0.10200 0.23696
 C236 C 0.51828 -0.06469 0.26520
 C237 C 0.55831 0.09342 0.29266
 C238 C 0.56809 0.13335 0.27784
 C239 C 0.56723 0.13600 0.23535
 C240 C 0.55656 0.09873 0.20736
 C241 C 0.53421 0.01187 0.32513
 C242 C 0.53085 0.00954 0.36276
 C243 C 0.52964 0.02295 0.15041
 C244 C 0.52347 0.02653 0.11563
 H245 H 0.51569 -0.05890 0.14650
 H246 H 0.50019 -0.12844 0.17264
 H247 H 0.50165 -0.13314 0.24813
 H248 H 0.51864 -0.06839 0.29794
 H249 H 0.55954 0.09298 0.32595
 H250 H 0.57641 0.16239 0.29946
 H251 H 0.57488 0.16709 0.22399
 H252 H 0.55647 0.10243 0.17456
 C253 C 0.48983 -0.23144 -0.03557
 C254 C 0.52935 -0.24184 -0.03158
 C255 C 0.53006 -0.28380 -0.02361
 C256 C 0.49125 -0.31508 -0.01965
 C257 C 0.45161 -0.30452 -0.02307
 C258 C 0.45091 -0.26257 -0.03108
 C259 C 0.41096 -0.25279 -0.03451
 C260 C 0.37273 -0.28355 -0.03000
 C261 C 0.37337 -0.32455 -0.02207
 C262 C 0.41227 -0.33513 -0.01871
 C263 C 0.56994 -0.29350 -0.01987
 C264 C 0.60807 -0.26260 -0.02385
 C265 C 0.60741 -0.22156 -0.03164
 C266 C 0.56861 -0.21112 -0.03551
 C267 C 0.49215 -0.35841 -0.01310
 C268 C 0.49199 -0.39485 -0.00847
 C269 C 0.48940 -0.18873 -0.04434
 C270 C 0.49008 -0.15299 -0.05154
 H271 H 0.40883 -0.22132 -0.04061
 H272 H 0.34243 -0.27551 -0.03262
 H273 H 0.34356 -0.34827 -0.01843
 H274 H 0.41109 -0.36746 -0.01254
 H275 H 0.57208 -0.32497 -0.01377
 H276 H 0.63829 -0.27054 -0.02086
 H277 H 0.63712 -0.19766 -0.03470
 H278 H 0.56977 -0.17876 -0.04157
 C279 C 0.47790 0.19678 0.02158
 C280 C 0.43695 0.20736 0.02333
 C281 C 0.43417 0.25037 0.02091
 C282 C 0.47236 0.28245 0.01678
 C283 C 0.51336 0.27181 0.01478
 C284 C 0.51614 0.22883 0.01719
 C285 C 0.55749 0.21895 0.01519
 C286 C 0.59501 0.25061 0.01080
 C287 C 0.59230 0.29265 0.00837
 C288 C 0.55205 0.30334 0.01042
 C289 C 0.39290 0.26027 0.02277
 C290 C 0.35543 0.22852 0.02688
 C291 C 0.35815 0.18644 0.02925
 C292 C 0.39838 0.17580 0.02753
 C293 C 0.46988 0.32642 0.01434
 C294 C 0.46979 0.36335 0.01194
 C295 C 0.48096 0.15323 0.02509
 C296 C 0.48518 0.11775 0.02851
 H297 H 0.56134 0.18672 0.01689
 H298 H 0.62635 0.24246 0.00925
 H299 H 0.62155 0.31710 0.00482
 H300 H 0.55169 0.33653 0.00848
 H301 H 0.38918 0.29256 0.02108
 H302 H 0.32410 0.23662 0.02822
 H303 H 0.32895 0.16190 0.03244
 H304 H 0.39890 0.14264 0.02947
 C305 C -0.19590 -0.02656 0.46718
 C306 C -0.20464 0.01283 0.46049
 C307 C -0.24782 0.01616 0.45931
 C308 C -0.28198 -0.01991 0.46490
 C309 C -0.27299 -0.05969 0.47018
 C310 C -0.22981 -0.06303 0.47131
 C311 C -0.22169 -0.10303 0.47706
 C312 C -0.25526 -0.13869 0.48157
 C313 C -0.29747 -0.13541 0.48047
 C314 C -0.30643 -0.09646 0.47484
 C315 C -0.25583 0.05597 0.45294
 C316 C -0.22214 0.09147 0.44787
 C317 C -0.17993 0.08822 0.44906
 C318 C -0.17109 0.04942 0.45532
 C319 C -0.32657 -0.01567 0.46715
 C320 C -0.36374 -0.01202 0.47012
 C321 C -0.15267 -0.02911 0.47216
 C322 C -0.11751 -0.03185 0.47788
 H323 H -0.18937 -0.10722 0.47803
 H324 H -0.24846 -0.16902 0.48595
 H325 H -0.32344 -0.16321 0.48398
 H326 H -0.33978 -0.09553 0.47411
 H327 H -0.28812 0.06004 0.45169
 H328 H -0.22884 0.12167 0.44297
 H329 H -0.15389 0.11588 0.44509
 H330 H -0.13773 0.04841 0.45592
 C331 C 0.23306 0.04321 0.49687
 C332 C 0.23894 0.00102 0.49792
 C333 C 0.28089 -0.00642 0.49853
 C334 C 0.31673 0.02837 0.49809
 C335 C 0.31078 0.07060 0.49730
 C336 C 0.26884 0.07803 0.49667
 C337 C 0.26373 0.12050 0.49585
 C338 C 0.29903 0.15468 0.49567
 C339 C 0.34002 0.14745 0.49630
 C340 C 0.34602 0.10597 0.49709
 C341 C 0.28594 -0.04886 0.49955
 C342 C 0.25056 -0.08299 0.50000
 C343 C 0.20956 -0.07574 0.49942
 C344 C 0.20362 -0.03429 0.49838
 C345 C 0.35989 0.02076 0.49754
 C346 C 0.39616 0.01517 0.49628
 C347 C 0.19014 0.05084 0.49651
 C348 C 0.15431 0.05695 0.49674
 H349 H 0.23248 0.12775 0.49533
 H350 H 0.29454 0.18697 0.49507
 H351 H 0.36733 0.17412 0.49618
 H352 H 0.37853 0.10200 0.49760
 H353 H 0.31720 -0.05609 0.50007
 H354 H 0.25500 -0.11525 0.50081
 H355 H 0.18219 -0.10236 0.49977
 H356 H 0.17111 -0.03027 0.49795
 C357 C -0.04154 0.50654 1.23277
 C358 C -0.05526 0.53772 1.26677
 C359 C -0.04783 0.53740 1.30874
 C360 C -0.02675 0.50586 1.31647
 C361 C -0.01275 0.47487 1.28241
 C362 C -0.02014 0.47523 1.24043
 C363 C -0.00582 0.44391 1.20688
 C364 C 0.01519 0.41315 1.21459
 C365 C 0.02237 0.41281 1.25565
 C366 C 0.00862 0.44322 1.28929
 C367 C -0.06186 0.56893 1.34221
 C368 C -0.08259 0.59987 1.33445
 C369 C -0.08987 0.60015 1.29342
 C370 C -0.07645 0.56950 1.25985
 C371 C -0.01973 0.50531 1.35953
 C372 C -0.01449 0.50571 1.39564
 C373 C -0.04969 0.50641 1.19001
 C374 C -0.05633 0.50563 1.15434
 H375 H -0.01064 0.44287 1.17440
 H376 H 0.02594 0.38946 1.18856
 H377 H 0.03869 0.38884 1.26147
 H378 H 0.01494 0.44167 1.32067
 H379 H -0.05694 0.57006 1.37468
 H380 H -0.09306 0.62376 1.36042
 H381 H -0.10600 0.62425 1.28755
 H382 H -0.08282 0.57104 1.22849
 C383 C 0.02486 0.52478 0.80088
 C384 C 0.00305 0.55492 0.79164
 C385 C 0.00037 0.55665 0.74842
 C386 C 0.01948 0.52818 0.71478
 C387 C 0.04183 0.49845 0.72397
 C388 C 0.04456 0.49676 0.76715
 C389 C 0.06697 0.46664 0.77556
 C390 C 0.08604 0.43897 0.74228
 C391 C 0.08333 0.44060 0.70005
 C392 C 0.06154 0.46993 0.69081
 C393 C -0.02171 0.58694 0.73993
 C394 C -0.04062 0.61474 0.77321
 C395 C -0.03802 0.61302 0.81548
 C396 C -0.01647 0.58350 0.82478
 C397 C 0.01522 0.52841 0.67080
 C398 C 0.01159 0.52713 0.63406
 C399 C 0.02673 0.52188 0.84495
 C400 C 0.02918 0.51771 0.88082
 H401 H 0.07003 0.46413 0.80785
 H402 H 0.10302 0.41615 0.74931
 H403 H 0.09820 0.41904 0.67430
 H404 H 0.06040 0.46998 0.65743
 H405 H -0.02452 0.58950 0.70755
 H406 H -0.05737 0.63775 0.76616
 H407 H -0.05276 0.63469 0.84121
 H408 H -0.01524 0.58337 0.85814
   
