data_POSCAR
  _audit_creation_date              2014-09-24
  _audit_creation_method            'ToBaCCo'
  _symmetry_space_group_name_H-M    'P1'
  _symmetry_Int_Tables_number       1
  _symmetry_cell_setting            triclinic
  loop_
  _symmetry_equiv_pos_as_xyz
 x,y,z
_cell_length_a 22.4439
_cell_length_b 40.9474
_cell_length_c 30.0907
_cell_angle_alpha 89.999800
_cell_angle_beta 89.999200
_cell_angle_gamma 89.982300
loop_
  _atom_site_label
  _atom_site_type_symbol
  _atom_site_fract_x
  _atom_site_fract_y
  _atom_site_fract_z
B1 B -0.03638 -0.02946 0.01822
 B2 B 0.03557 -0.02456 0.03022
 B3 B 0.01472 -0.03398 -0.02139
 B4 B -0.05005 -0.01496 -0.03312
 B5 B -0.06874 0.00717 0.01312
 B6 B -0.01519 0.00071 0.05266
 B7 B 0.03752 0.02988 -0.01822
 B8 B -0.03444 0.02501 -0.03025
 B9 B -0.01359 0.03440 0.02137
 B10 B 0.05116 0.01539 0.03311
 B11 B 0.06987 -0.00674 -0.01313
 B12 B 0.01633 -0.00027 -0.05269
 B13 B 0.52438 0.48548 0.54469
 B14 B 0.45252 0.48323 0.53084
 B15 B 0.48280 0.51925 0.54349
 B16 B 0.55336 0.52026 0.52418
 B17 B 0.56600 0.48364 0.49846
 B18 B 0.50285 0.46060 0.50322
 B19 B 0.47540 0.51459 0.45492
 B20 B 0.54725 0.51684 0.46877
 B21 B 0.51698 0.48082 0.45612
 B22 B 0.44641 0.47981 0.47544
 B23 B 0.43377 0.51643 0.50116
 B24 B 0.49693 0.53947 0.49640
 B25 B 0.53750 0.02989 0.51822
 B26 B 0.46555 0.02500 0.53025
 B27 B 0.48639 0.03440 0.47863
 B28 B 0.55116 0.01540 0.46689
 B29 B 0.56988 -0.00673 0.51314
 B30 B 0.51634 -0.00027 0.55270
 B31 B 0.46364 -0.02947 0.48179
 B32 B 0.53559 -0.02456 0.46979
 B33 B 0.51475 -0.03397 0.52140
 B34 B 0.44997 -0.01498 0.53313
 B35 B 0.43126 0.00716 0.48689
 B36 B 0.48481 0.00071 0.44734
 B37 B -0.02462 0.51458 0.04507
 B38 B 0.04724 0.51683 0.03123
 B39 B 0.01696 0.48081 0.04388
 B40 B -0.05361 0.47980 0.02455
 B41 B -0.06623 0.51643 -0.00116
 B42 B -0.00308 0.53947 0.00360
 B43 B 0.02437 0.48547 -0.04469
 B44 B -0.04749 0.48323 -0.03085
 B45 B -0.01720 0.51924 -0.04349
 B46 B 0.05336 0.52025 -0.02418
 B47 B 0.06599 0.48363 0.00154
 B48 B 0.00283 0.46059 -0.00322
 B49 B 0.03748 0.47038 0.48201
 B50 B -0.03450 0.47495 0.46982
 B51 B -0.01373 0.46563 0.52149
 B52 B 0.05067 0.48492 0.53340
 B53 B 0.06923 0.50715 0.48722
 B54 B 0.01598 0.50047 0.44752
 B55 B -0.03751 0.52940 0.51832
 B56 B 0.03447 0.52483 0.53051
 B57 B 0.01371 0.53415 0.47884
 B58 B -0.05070 0.51486 0.46693
 B59 B -0.06925 0.49263 0.51311
 B60 B -0.01600 0.49931 0.55281
 B61 B 0.47595 -0.01464 -0.04496
 B62 B 0.54769 -0.01692 -0.03076
 B63 B 0.51753 0.01912 -0.04357
 B64 B 0.44679 0.02017 -0.02460
 B65 B 0.43391 -0.01644 0.00107
 B66 B 0.49709 -0.03951 -0.00337
 B67 B 0.52414 0.01448 0.04504
 B68 B 0.45240 0.01676 0.03084
 B69 B 0.48255 -0.01927 0.04365
 B70 B 0.55329 -0.02033 0.02468
 B71 B 0.56617 0.01628 -0.00099
 B72 B 0.50299 0.03935 0.00345
 B73 B 0.46249 0.52940 -0.01832
 B74 B 0.53448 0.52483 -0.03051
 B75 B 0.51371 0.53415 0.02116
 B76 B 0.44930 0.51486 0.03306
 B77 B 0.43075 0.49263 -0.01312
 B78 B 0.48400 0.49932 -0.05281
 B79 B 0.53748 0.47038 0.01798
 B80 B 0.46550 0.47495 0.03017
 B81 B 0.48627 0.46563 -0.02150
 B82 B 0.55068 0.48492 -0.03340
 B83 B 0.56923 0.50715 0.01278
 B84 B 0.51598 0.50046 0.05247
 B85 B 0.02414 0.01448 0.45495
 B86 B -0.04760 0.01677 0.46915
 B87 B -0.01746 -0.01927 0.45634
 B88 B 0.05328 -0.02033 0.47531
 B89 B 0.06618 0.01628 0.50098
 B90 B 0.00299 0.03935 0.49655
 B91 B -0.02405 -0.01463 0.54496
 B92 B 0.04769 -0.01692 0.53075
 B93 B 0.01754 0.01912 0.54357
 B94 B -0.05320 0.02017 0.52460
 B95 B -0.06609 -0.01644 0.49893
 B96 B -0.00291 -0.03951 0.50336
 B97 B 0.75035 0.21363 0.28082
 B98 B 0.77730 0.21995 0.22993
 B99 B 0.70460 0.21350 0.23740
 B100 B 0.68265 0.23144 0.28516
 B101 B 0.74468 0.24954 0.30732
 B102 B 0.80393 0.24185 0.27287
 B103 B 0.72232 0.27738 0.22661
 B104 B 0.69518 0.27151 0.27743
 B105 B 0.76795 0.27763 0.27029
 B106 B 0.78971 0.25983 0.22258
 B107 B 0.72770 0.24159 0.20040
 B108 B 0.66854 0.24929 0.23472
 B109 B 0.74971 0.78631 0.78074
 B110 B 0.72284 0.78001 0.72982
 B111 B 0.79555 0.78638 0.73736
 B112 B 0.81735 0.76844 0.78515
 B113 B 0.75520 0.75041 0.80726
 B114 B 0.69604 0.75815 0.77275
 B115 B 0.77762 0.72252 0.72659
 B116 B 0.80468 0.72838 0.77743
 B117 B 0.73191 0.72234 0.77022
 B118 B 0.71030 0.74014 0.72248
 B119 B 0.77242 0.75831 0.70036
 B120 B 0.83149 0.75056 0.73474
 B121 B 0.26794 0.22244 0.72955
 B122 B 0.19527 0.22872 0.72213
 B123 B 0.22201 0.22274 0.77304
 B124 B 0.28948 0.24013 0.77739
 B125 B 0.30416 0.25815 0.72719
 B126 B 0.24510 0.25063 0.69250
 B127 B 0.20475 0.28665 0.76237
 B128 B 0.27737 0.28004 0.77010
 B129 B 0.25079 0.28649 0.71913
 B130 B 0.18302 0.26883 0.71448
 B131 B 0.16846 0.25094 0.76480
 B132 B 0.22743 0.25847 0.79937
 B133 B 0.24813 0.71374 0.21980
 B134 B 0.22169 0.72031 0.27079
 B135 B 0.29428 0.71366 0.26298
 B136 B 0.31591 0.73136 0.21498
 B137 B 0.25379 0.74953 0.19301
 B138 B 0.19481 0.74211 0.22782
 B139 B 0.27712 0.77761 0.27339
 B140 B 0.30372 0.77148 0.22247
 B141 B 0.23109 0.77780 0.22997
 B142 B 0.20963 0.76026 0.27792
 B143 B 0.27173 0.74195 0.29991
 B144 B 0.33062 0.74936 0.26520
 B145 B 0.29552 0.78638 0.76265
 B146 B 0.22281 0.78001 0.77019
 B147 B 0.24968 0.78631 0.71927
 B148 B 0.31731 0.76844 0.71486
 B149 B 0.33145 0.75056 0.76526
 B150 B 0.27239 0.75831 0.79965
 B151 B 0.23188 0.72233 0.72979
 B152 B 0.30465 0.72838 0.72257
 B153 B 0.27759 0.72252 0.77342
 B154 B 0.21027 0.74014 0.77753
 B155 B 0.19601 0.75815 0.72726
 B156 B 0.25517 0.75040 0.69275
 B157 B 0.22232 0.27738 0.27338
 B158 B 0.19518 0.27151 0.22256
 B159 B 0.26794 0.27762 0.22971
 B160 B 0.28970 0.25982 0.27741
 B161 B 0.22769 0.24158 0.29959
 B162 B 0.16853 0.24929 0.26527
 B163 B 0.25034 0.21363 0.21917
 B164 B 0.27729 0.21994 0.27006
 B165 B 0.20459 0.21350 0.26259
 B166 B 0.18264 0.23144 0.21483
 B167 B 0.24468 0.24954 0.19267
 B168 B 0.30393 0.24185 0.22712
 B169 B 0.79427 0.71367 0.23699
 B170 B 0.72167 0.72031 0.22921
 B171 B 0.74814 0.71375 0.28019
 B172 B 0.81592 0.73138 0.28499
 B173 B 0.83059 0.74938 0.23476
 B174 B 0.77169 0.74195 0.20007
 B175 B 0.73107 0.77780 0.27002
 B176 B 0.80371 0.77150 0.27750
 B177 B 0.77707 0.77762 0.22658
 B178 B 0.70960 0.76025 0.22207
 B179 B 0.69480 0.74211 0.27218
 B180 B 0.75380 0.74954 0.30697
 B181 B 0.72201 0.22274 0.72696
 B182 B 0.69526 0.22872 0.77786
 B183 B 0.76794 0.22245 0.77045
 B184 B 0.78948 0.24013 0.72261
 B185 B 0.72743 0.25847 0.70063
 B186 B 0.66846 0.25095 0.73520
 B187 B 0.75079 0.28649 0.78086
 B188 B 0.77737 0.28004 0.72990
 B189 B 0.70475 0.28665 0.73762
 B190 B 0.68301 0.26883 0.78552
 B191 B 0.74510 0.25063 0.80749
 B192 B 0.80416 0.25815 0.77280
 C193 C 0.08888 0.42642 0.85447
 N194 N 0.05129 0.40403 0.83662
 N195 N 0.07262 0.37805 0.81518
 C196 C 0.13224 0.37352 0.81119
 N197 N 0.16983 0.39602 0.82874
 N198 N 0.14849 0.42199 0.85018
 C199 C 0.06640 0.45074 0.88445
 C200 C 0.04774 0.46846 0.91324
 C201 C 0.15543 0.34384 0.79260
 C202 C 0.17602 0.31865 0.77860
 C203 C 0.41051 0.57369 0.35432
 N204 N 0.44800 0.59611 0.33642
 N205 N 0.42655 0.62216 0.31521
 C206 C 0.36691 0.62673 0.31151
 N207 N 0.32941 0.60420 0.32909
 N208 N 0.35087 0.57816 0.35030
 C209 C 0.43316 0.54933 0.38415
 C210 C 0.45196 0.53160 0.41288
 C211 C 0.34365 0.65647 0.29311
 C212 C 0.32303 0.68167 0.27922
 C213 C 0.91209 0.92618 0.64584
 N214 N 0.85250 0.92212 0.65089
 N215 N 0.83111 0.89611 0.67220
 C216 C 0.86863 0.87319 0.68884
 N217 N 0.92824 0.87733 0.68410
 N218 N 0.94961 0.90336 0.66279
 C219 C 0.93439 0.95057 0.61591
 C220 C 0.95289 0.96833 0.58710
 C221 C 0.84527 0.84350 0.70728
 C222 C 0.82451 0.81833 0.72118
 C223 C 0.58817 0.07370 0.14582
 N224 N 0.64778 0.07779 0.15074
 N225 N 0.66919 0.10379 0.17206
 C226 C 0.63169 0.12666 0.18885
 N227 N 0.57207 0.12248 0.18424
 N228 N 0.55067 0.09646 0.16292
 C229 C 0.56580 0.04931 0.11592
 C230 C 0.54725 0.03153 0.08715
 C231 C 0.65506 0.15635 0.20730
 C232 C 0.67577 0.18152 0.22120
 C233 C 0.84632 0.07665 0.39093
 N234 N 0.86251 0.08277 0.34833
 N235 N 0.83934 0.10804 0.32644
 C236 C 0.79952 0.12809 0.34657
 N237 N 0.78302 0.12189 0.38909
 N238 N 0.80620 0.09659 0.41097
 C239 C 0.87815 0.05285 0.41654
 C240 C 0.90844 0.03510 0.43906
 C241 C 0.77960 0.15714 0.32451
 C242 C 0.76532 0.18194 0.30578
 C243 C 0.34709 0.42361 0.60975
 N244 N 0.30519 0.40449 0.59031
 N245 N 0.28206 0.37917 0.61215
 C246 C 0.30040 0.37212 0.65400
 N247 N 0.34200 0.39136 0.67354
 N248 N 0.36512 0.41667 0.65171
 C249 C 0.37871 0.44734 0.58393
 C250 C 0.40882 0.46500 0.56119
 C251 C 0.28039 0.34303 0.67582
 C252 C 0.26600 0.31819 0.69436
 C253 C 0.65395 0.92324 0.89105
 N254 N 0.69351 0.90304 0.91122
 N255 N 0.71668 0.87777 0.88929
 C256 C 0.70074 0.87184 0.84658
 N257 N 0.66149 0.89216 0.82631
 N258 N 0.63832 0.91741 0.84825
 C259 C 0.62204 0.94702 0.91664
 C260 C 0.59169 0.96475 0.93916
 C261 C 0.72058 0.84281 0.82445
 C262 C 0.73481 0.81802 0.80569
 C263 C 0.15287 0.57669 0.10967
 N264 N 0.19157 0.59726 0.08932
 N265 N 0.21450 0.62257 0.11126
 C266 C 0.19916 0.62817 0.15417
 N267 N 0.16074 0.60749 0.17462
 N268 N 0.13780 0.58219 0.15266
 C269 C 0.12113 0.55285 0.08412
 C270 C 0.09096 0.53511 0.06152
 C271 C 0.21875 0.65721 0.17636
 C272 C 0.23294 0.68201 0.19507
 C273 C 0.42969 0.90985 0.13368
 N274 N 0.46555 0.88328 0.13744
 N275 N 0.44498 0.85555 0.15496
 C276 C 0.38762 0.85344 0.16884
 N277 N 0.35186 0.88004 0.16529
 N278 N 0.37243 0.90774 0.14776
 C279 C 0.44913 0.93778 0.10855
 C280 C 0.46452 0.95905 0.08325
 C281 C 0.36391 0.82330 0.18593
 C282 C 0.34044 0.79915 0.20088
 C283 C 0.56885 0.41000 0.36571
 N284 N 0.53351 0.38315 0.36304
 N285 N 0.55408 0.35545 0.34544
 C286 C 0.61093 0.35363 0.33036
 N287 N 0.64615 0.38051 0.33282
 N288 N 0.62559 0.40818 0.35043
 C289 C 0.54970 0.43791 0.39098
 C290 C 0.53460 0.45916 0.41642
 C291 C 0.63480 0.32349 0.31340
 C292 C 0.65839 0.29931 0.29864
 C293 C 0.93086 0.58997 0.86600
 N294 N 0.87407 0.59178 0.85083
 N295 N 0.85347 0.61942 0.83317
 C296 C 0.88873 0.64628 0.83055
 N297 N 0.94562 0.64447 0.84553
 N298 N 0.96622 0.61680 0.86319
 C299 C 0.95006 0.56209 0.89132
 C300 C 0.96518 0.54087 0.91678
 C301 C 0.86487 0.67639 0.81352
 C302 C 0.84134 0.70057 0.79870
 C303 C 0.06992 0.09010 0.63357
 N304 N 0.12706 0.09228 0.64791
 N305 N 0.14745 0.12000 0.66542
 C306 C 0.11164 0.14662 0.66873
 N307 N 0.05439 0.14444 0.65458
 N308 N 0.03400 0.11669 0.63707
 C309 C 0.05071 0.06212 0.60845
 C310 C 0.03548 0.04082 0.58316
 C311 C 0.13518 0.17679 0.68578
 C312 C 0.15857 0.20099 0.70069
 C313 C 0.12815 0.39823 0.41324
 N314 N 0.13049 0.36635 0.42510
 N315 N 0.15297 0.34429 0.39724
 C316 C 0.17357 0.35345 0.35674
 N317 N 0.17142 0.38535 0.34494
 N318 N 0.14898 0.40742 0.37281
 C319 C 0.09913 0.42160 0.44104
 C320 C 0.07290 0.44224 0.46161
 C321 C 0.19334 0.32925 0.32591
 C322 C 0.20765 0.30752 0.30130
 C323 C 0.37172 0.60148 0.91292
 N324 N 0.35192 0.59243 0.87215
 N325 N 0.32942 0.61450 0.84433
 C326 C 0.32616 0.64630 0.85654
 N327 N 0.34573 0.65533 0.89737
 N328 N 0.36827 0.63326 0.92518
 C329 C 0.40078 0.57814 0.94073
 C330 C 0.42705 0.55753 0.96129
 C331 C 0.30643 0.67056 0.82579
 C332 C 0.29218 0.69234 0.80125
 C333 C 0.62699 0.10283 0.58610
 N334 N 0.61732 0.13507 0.57926
 N335 N 0.63944 0.15705 0.60738
 C336 C 0.67152 0.14738 0.64323
 N337 N 0.68137 0.11514 0.65004
 N338 N 0.65927 0.09315 0.62188
 C339 C 0.59834 0.07907 0.55877
 C340 C 0.57242 0.05821 0.53849
 C341 C 0.69204 0.17116 0.67437
 C342 C 0.70688 0.19267 0.69911
 C343 C 0.87723 0.89867 0.08994
 N344 N 0.83823 0.87600 0.07479
 N345 N 0.81447 0.85437 0.10273
 C346 C 0.82872 0.85500 0.14655
 N347 N 0.86761 0.87771 0.16162
 N348 N 0.89135 0.89930 0.13373
 C349 C 0.90417 0.92170 0.06054
 C350 C 0.92907 0.94227 0.03902
 C351 C 0.80756 0.83009 0.17573
 C352 C 0.79237 0.80795 0.19931
 C353 C 0.88730 0.09391 0.88567
 N354 N 0.92410 0.11425 0.86303
 N355 N 0.90186 0.13744 0.83675
 C356 C 0.84210 0.14089 0.83208
 N357 N 0.80527 0.12050 0.85465
 N358 N 0.82751 0.09730 0.88094
 C359 C 0.91158 0.06975 0.91511
 C360 C 0.93372 0.04987 0.93962
 C361 C 0.81808 0.16772 0.80718
 C362 C 0.79704 0.19120 0.78879
 C363 C 0.11210 0.59388 0.61469
 N364 N 0.17188 0.59724 0.61942
 N365 N 0.19414 0.62046 0.64567
 C366 C 0.15733 0.64089 0.66819
 N367 N 0.09756 0.63747 0.66354
 N368 N 0.07530 0.61426 0.63730
 C369 C 0.08785 0.56971 0.58526
 C370 C 0.06589 0.54979 0.56073
 C371 C 0.18140 0.66772 0.69306
 C372 C 0.20256 0.69116 0.71143
 C373 C 0.61322 0.90658 0.38544
 N374 N 0.57609 0.88667 0.36239
 N375 N 0.59797 0.86341 0.33606
 C376 C 0.65768 0.85947 0.33177
 N377 N 0.69483 0.87943 0.35474
 N378 N 0.67295 0.90270 0.38109
 C379 C 0.58930 0.93074 0.41501
 C380 C 0.56738 0.95062 0.43961
 C381 C 0.68125 0.83255 0.30683
 C382 C 0.70205 0.80903 0.28842
 C383 C 0.38779 0.40597 0.11443
 N384 N 0.32802 0.40279 0.11942
 N385 N 0.30572 0.37962 0.14572
 C386 C 0.34250 0.35905 0.16804
 N387 N 0.40227 0.36229 0.16313
 N388 N 0.42456 0.38546 0.13684
 C389 C 0.41207 0.43010 0.08495
 C390 C 0.43406 0.45000 0.06040
 C391 C 0.31836 0.33224 0.19294
 C392 C 0.29718 0.30881 0.21133
 C393 C 0.56856 0.61466 0.09407
 N394 N 0.61095 0.63544 0.07894
 N395 N 0.63766 0.65613 0.10669
 C396 C 0.62318 0.65649 0.15045
 N397 N 0.58063 0.63581 0.16560
 N398 N 0.55390 0.61511 0.13782
 C399 C 0.54558 0.58954 0.06570
 C400 C 0.52927 0.56654 0.04396
 C401 C 0.65454 0.67763 0.18034
 C402 C 0.68288 0.69582 0.20361
 C403 C 0.07012 0.88579 0.90537
 N404 N 0.11266 0.86504 0.92034
 N405 N 0.13933 0.84441 0.89249
 C406 C 0.12466 0.84408 0.84876
 N407 N 0.08195 0.86473 0.83376
 N408 N 0.05525 0.88537 0.86165
 C409 C 0.04707 0.91080 0.93387
 C410 C 0.03062 0.93372 0.95572
 C411 C 0.15588 0.82294 0.81880
 C412 C 0.18412 0.80468 0.79556
 C413 C 0.43062 0.11455 0.40540
 N414 N 0.44602 0.11525 0.36179
 N415 N 0.41919 0.13580 0.33386
 C416 C 0.37579 0.15608 0.34870
 N417 N 0.36058 0.15548 0.39232
 N418 N 0.38739 0.13494 0.42022
 C419 C 0.45386 0.08959 0.43389
 C420 C 0.47044 0.06669 0.45573
 C421 C 0.34445 0.17713 0.31867
 C422 C 0.31611 0.19532 0.29541
 C423 C 0.93105 0.38523 0.59444
 N424 N 0.88773 0.36494 0.57957
 N425 N 0.86084 0.34439 0.60742
 C426 C 0.87605 0.34370 0.65104
 N427 N 0.91953 0.36391 0.66592
 N428 N 0.94644 0.38446 0.63805
 C429 C 0.95425 0.41028 0.56605
 C430 C 0.97068 0.43325 0.54430
 C431 C 0.84462 0.32268 0.68104
 C432 C 0.81622 0.30455 0.70436
 C433 C 0.91050 0.57369 0.14567
 N434 N 0.94799 0.59612 0.16356
 N435 N 0.92655 0.62217 0.18477
 C436 C 0.86690 0.62674 0.18847
 N437 N 0.82940 0.60421 0.17090
 N438 N 0.85086 0.57817 0.14968
 C439 C 0.93315 0.54933 0.11584
 C440 C 0.95195 0.53160 0.08711
 C441 C 0.84364 0.65648 0.20686
 C442 C 0.82302 0.68168 0.22075
 C443 C 0.58888 0.42643 0.64553
 N444 N 0.55129 0.40404 0.66338
 N445 N 0.57262 0.37805 0.68482
 C446 C 0.63224 0.37353 0.68880
 N447 N 0.66983 0.39603 0.67125
 N448 N 0.64849 0.42200 0.64981
 C449 C 0.56641 0.45074 0.61555
 C450 C 0.54774 0.46846 0.58675
 C451 C 0.65543 0.34384 0.70740
 C452 C 0.67601 0.31866 0.72139
 C453 C 0.08817 0.07370 0.35416
 N454 N 0.14777 0.07778 0.34924
 N455 N 0.16918 0.10379 0.32792
 C456 C 0.13168 0.12666 0.31114
 N457 N 0.07206 0.12247 0.31575
 N458 N 0.05066 0.09646 0.33707
 C459 C 0.06580 0.04930 0.38407
 C460 C 0.04725 0.03153 0.41284
 C461 C 0.15505 0.15635 0.29269
 C462 C 0.17576 0.18152 0.27879
 C463 C 0.41208 0.92617 0.85416
 N464 N 0.35248 0.92212 0.84912
 N465 N 0.33110 0.89610 0.82781
 C466 C 0.36860 0.87318 0.81117
 N467 N 0.42821 0.87733 0.81591
 N468 N 0.44959 0.90336 0.83721
 C469 C 0.43439 0.95056 0.88409
 C470 C 0.45289 0.96832 0.91289
 C471 C 0.34524 0.84349 0.79273
 C472 C 0.32448 0.81833 0.77883
 C473 C 0.15394 0.92324 0.60895
 N474 N 0.19350 0.90304 0.58878
 N475 N 0.21666 0.87777 0.61072
 C476 C 0.20071 0.87184 0.65343
 N477 N 0.16146 0.89215 0.67369
 N478 N 0.13830 0.91741 0.65175
 C479 C 0.12203 0.94702 0.58335
 C480 C 0.09169 0.96475 0.56083
 C481 C 0.22055 0.84281 0.67556
 C482 C 0.23478 0.81802 0.69432
 C483 C 0.65290 0.57670 0.39034
 N484 N 0.69158 0.59728 0.41070
 N485 N 0.71451 0.62259 0.38875
 C486 C 0.69920 0.62818 0.34583
 N487 N 0.66079 0.60750 0.32538
 N488 N 0.63785 0.58219 0.34734
 C489 C 0.62115 0.55286 0.41589
 C490 C 0.59098 0.53512 0.43848
 C491 C 0.71879 0.65722 0.32364
 C492 C 0.73297 0.68202 0.30493
 C493 C 0.34631 0.07665 0.10906
 N494 N 0.36250 0.08276 0.15167
 N495 N 0.33932 0.10804 0.17356
 C496 C 0.29951 0.12809 0.15343
 N497 N 0.28302 0.12189 0.11090
 N498 N 0.30620 0.09659 0.08902
 C499 C 0.37814 0.05285 0.08346
 C500 C 0.40844 0.03510 0.06093
 C501 C 0.27959 0.15714 0.17548
 C502 C 0.26530 0.18193 0.19421
 C503 C 0.84708 0.42362 0.89024
 N504 N 0.80517 0.40450 0.90967
 N505 N 0.78204 0.37918 0.88784
 C506 C 0.80039 0.37213 0.84599
 N507 N 0.84200 0.39136 0.82645
 N508 N 0.86512 0.41666 0.84829
 C509 C 0.87870 0.44734 0.91606
 C510 C 0.90882 0.46500 0.93880
 C511 C 0.78038 0.34303 0.82417
 C512 C 0.76599 0.31820 0.80563
 C513 C 0.56991 0.09011 0.86642
 N514 N 0.62706 0.09227 0.85209
 N515 N 0.64745 0.12001 0.83457
 C516 C 0.61163 0.14661 0.83127
 N517 N 0.55439 0.14445 0.84541
 N518 N 0.53399 0.11668 0.86292
 C519 C 0.55070 0.06212 0.89154
 C520 C 0.53547 0.04082 0.91683
 C521 C 0.63518 0.17680 0.81421
 C522 C 0.65856 0.20099 0.79930
 C523 C 0.43084 0.58997 0.63399
 N524 N 0.37404 0.59178 0.64915
 N525 N 0.35344 0.61943 0.66681
 C526 C 0.38870 0.64628 0.66944
 N527 N 0.44560 0.64447 0.65448
 N528 N 0.46620 0.61680 0.63682
 C529 C 0.45005 0.56209 0.60867
 C530 C 0.46518 0.54088 0.58321
 C531 C 0.36484 0.67639 0.68648
 C532 C 0.34131 0.70057 0.70131
 C533 C 0.06882 0.41000 0.13429
 N534 N 0.03349 0.38313 0.13695
 N535 N 0.05407 0.35545 0.15455
 C536 C 0.11092 0.35363 0.16964
 N537 N 0.14613 0.38052 0.16719
 N538 N 0.12556 0.40817 0.14958
 C539 C 0.04968 0.43791 0.10902
 C540 C 0.03458 0.45916 0.08358
 C541 C 0.13479 0.32349 0.18659
 C542 C 0.15839 0.29931 0.20136
 C543 C 0.92968 0.90987 0.36630
 N544 N 0.96554 0.88328 0.36254
 N545 N 0.94496 0.85557 0.34501
 C546 C 0.88761 0.85345 0.33111
 N547 N 0.85186 0.88007 0.33467
 N548 N 0.87243 0.90775 0.35221
 C549 C 0.94912 0.93779 0.39144
 C550 C 0.96451 0.95905 0.41675
 C551 C 0.86390 0.82332 0.31403
 C552 C 0.84043 0.79916 0.29907
 C553 C 0.87173 0.60148 0.58708
 N554 N 0.85192 0.59243 0.62785
 N555 N 0.82943 0.61450 0.65567
 C556 C 0.82618 0.64630 0.64347
 N557 N 0.84576 0.65533 0.60263
 N558 N 0.86829 0.63326 0.57482
 C559 C 0.90078 0.57814 0.55927
 C560 C 0.92704 0.55753 0.53871
 C561 C 0.80646 0.67056 0.67421
 C562 C 0.79221 0.69234 0.69875
 C563 C 0.62815 0.39823 0.08674
 N564 N 0.63039 0.36633 0.07491
 N565 N 0.65287 0.34428 0.10277
 C566 C 0.67356 0.35345 0.14324
 N567 N 0.67151 0.38536 0.15501
 N568 N 0.64908 0.40742 0.12713
 C569 C 0.59913 0.42160 0.05894
 C570 C 0.57290 0.44223 0.03838
 C571 C 0.69334 0.32925 0.17408
 C572 C 0.70765 0.30752 0.19869
 C573 C 0.37754 0.89859 0.41003
 N574 N 0.33717 0.87654 0.42489
 N575 N 0.31340 0.85494 0.39691
 C576 C 0.32900 0.85499 0.35334
 N577 N 0.36926 0.87708 0.33856
 N578 N 0.39301 0.89864 0.36649
 C579 C 0.40433 0.92165 0.43946
 C580 C 0.42915 0.94224 0.46099
 C581 C 0.30772 0.83008 0.32421
 C582 C 0.29246 0.80794 0.30065
 C583 C 0.12703 0.10281 0.91389
 N584 N 0.11742 0.13506 0.92077
 N585 N 0.13953 0.15703 0.89265
 C586 C 0.17155 0.14738 0.85676
 N587 N 0.18133 0.11512 0.84992
 N588 N 0.15923 0.09314 0.87807
 C589 C 0.09837 0.07906 0.94122
 C590 C 0.07246 0.05819 0.96151
 C591 C 0.19205 0.17115 0.82563
 C592 C 0.20689 0.19267 0.80088
 C593 C 0.11321 0.90657 0.11456
 N594 N 0.07609 0.88668 0.13764
 N595 N 0.09798 0.86341 0.16397
 C596 C 0.15769 0.85947 0.16823
 N597 N 0.19483 0.87942 0.14523
 N598 N 0.17293 0.90269 0.11889
 C599 C 0.08927 0.93074 0.08500
 C600 C 0.06735 0.95061 0.06041
 C601 C 0.18127 0.83255 0.19317
 C602 C 0.20208 0.80903 0.21157
 C603 C 0.88779 0.40597 0.38555
 N604 N 0.82801 0.40279 0.38058
 N605 N 0.80572 0.37962 0.35427
 C606 C 0.84250 0.35905 0.33195
 N607 N 0.90227 0.36230 0.33685
 N608 N 0.92456 0.38547 0.36314
 C609 C 0.91207 0.43011 0.41504
 C610 C 0.93406 0.45001 0.43959
 C611 C 0.81836 0.33225 0.30705
 C612 C 0.79719 0.30881 0.28867
 C613 C 0.38727 0.09390 0.61433
 N614 N 0.42408 0.11423 0.63698
 N615 N 0.40185 0.13743 0.66325
 C616 C 0.34209 0.14088 0.66792
 N617 N 0.30525 0.12050 0.64535
 N618 N 0.32749 0.09729 0.61906
 C619 C 0.41156 0.06974 0.58489
 C620 C 0.43370 0.04986 0.56038
 C621 C 0.31808 0.16772 0.69282
 C622 C 0.29704 0.19120 0.71121
 C623 C 0.61211 0.59388 0.88531
 N624 N 0.67190 0.59724 0.88058
 N625 N 0.69416 0.62046 0.85434
 C626 C 0.65735 0.64089 0.83181
 N627 N 0.59758 0.63747 0.83647
 N628 N 0.57532 0.61426 0.86270
 C629 C 0.58786 0.56971 0.91474
 C630 C 0.56589 0.54979 0.93927
 C631 C 0.68142 0.66772 0.80694
 C632 C 0.70259 0.69117 0.78858
 C633 C 0.43105 0.38524 0.90554
 N634 N 0.38775 0.36493 0.92042
 N635 N 0.36086 0.34438 0.89257
 C636 C 0.37605 0.34370 0.84895
 N637 N 0.41952 0.36391 0.83406
 N638 N 0.44643 0.38446 0.86194
 C639 C 0.45426 0.41028 0.93393
 C640 C 0.47068 0.43325 0.95569
 C641 C 0.34462 0.32268 0.81895
 C642 C 0.31623 0.30455 0.79563
 C643 C 0.93066 0.11457 0.09459
 N644 N 0.94606 0.11526 0.13820
 N645 N 0.91922 0.13581 0.16613
 C646 C 0.87582 0.15609 0.15129
 N647 N 0.86062 0.15550 0.10767
 N648 N 0.88744 0.13496 0.07977
 C649 C 0.95391 0.08960 0.06610
 C650 C 0.97047 0.06670 0.04427
 C651 C 0.84448 0.17713 0.18132
 C652 C 0.81612 0.19533 0.20458
 C653 C 0.57017 0.88580 0.59465
 N654 N 0.61273 0.86505 0.57967
 N655 N 0.63939 0.84442 0.60753
 C656 C 0.62471 0.84409 0.65125
 N657 N 0.58198 0.86474 0.66625
 N658 N 0.55529 0.88537 0.63837
 C659 C 0.54712 0.91081 0.56614
 C660 C 0.53067 0.93373 0.54429
 C661 C 0.65592 0.82294 0.68122
 C662 C 0.68416 0.80468 0.70445
 C663 C 0.06856 0.61467 0.40594
 N664 N 0.11097 0.63544 0.42107
 N665 N 0.13768 0.65613 0.39332
 C666 C 0.12319 0.65650 0.34956
 N667 N 0.08063 0.63583 0.33442
 N668 N 0.05389 0.61513 0.36219
 C669 C 0.04558 0.58955 0.43430
 C670 C 0.02927 0.56654 0.45604
 C671 C 0.15456 0.67764 0.31968
 C672 C 0.18289 0.69583 0.29640
   
