data_POSCAR
  _audit_creation_date              2014-09-24
  _audit_creation_method            'ToBaCCo'
  _symmetry_space_group_name_H-M    'P1'
  _symmetry_Int_Tables_number       1
  _symmetry_cell_setting            triclinic
  loop_
  _symmetry_equiv_pos_as_xyz
 x,y,z
_cell_length_a 19.6685
_cell_length_b 19.6783
_cell_length_c 47.8509
_cell_angle_alpha 85.260500
_cell_angle_beta 92.735300
_cell_angle_gamma 119.364700
loop_
  _atom_site_label
  _atom_site_type_symbol
  _atom_site_fract_x
  _atom_site_fract_y
  _atom_site_fract_z
C1 C 0.01870 0.13982 0.53367
 H2 H 0.07335 0.13961 0.53234
 C3 C 0.01323 0.19064 0.55078
 H4 H 0.06411 0.22940 0.56263
 C5 C -0.11331 0.08960 0.51944
 H6 H -0.16198 0.05062 0.50685
 C7 C -0.12163 0.13947 0.53656
 H8 H -0.17748 0.13718 0.53666
 N9 N -0.04407 0.09018 0.51865
 C10 C 0.01293 -0.09357 0.50888
 H11 H 0.02455 -0.08695 0.48667
 C12 C 0.01199 -0.15620 0.52535
 H13 H 0.02396 -0.19610 0.51522
 C14 C -0.02338 -0.05213 0.54787
 H15 H -0.04050 -0.01368 0.55638
 C16 C -0.02545 -0.11388 0.56498
 H17 H -0.04264 -0.12099 0.58666
 Zn18 Zn -0.02294 0.02781 0.49654
 N19 N -0.00490 -0.04333 0.52032
 C20 C 0.13499 0.10331 0.47580
 N21 N 0.06407 0.09958 0.47481
 C22 C 0.05101 0.15163 0.45832
 C23 C 0.11008 0.21018 0.44172
 C24 C 0.19645 0.16192 0.45963
 C25 C -0.17570 -0.08893 0.48351
 C26 C -0.23243 -0.14502 0.46674
 C27 C -0.14426 -0.08697 0.42763
 C28 C -0.08980 -0.03219 0.44506
 N29 N -0.10605 -0.03403 0.47247
 H30 H 0.14400 0.06127 0.48914
 H31 H -0.00621 0.14688 0.45790
 H32 H 0.09620 0.24815 0.42795
 H33 H 0.25202 0.16300 0.46018
 H34 H -0.18565 -0.09170 0.50572
 H35 H -0.28509 -0.19020 0.47678
 H36 H -0.12732 -0.08604 0.40634
 H37 H -0.03265 0.00875 0.43695
 C38 C -0.00798 -0.16750 0.55392
 C39 C -0.05773 0.19068 0.55284
 C40 C -0.21788 -0.14458 0.43803
 C41 C 0.18506 0.21787 0.44278
 C42 C 1.16876 0.05736 0.13217
 H43 H 1.16951 0.11257 0.13274
 C44 C 1.22093 0.05167 0.11516
 H45 H 1.26180 0.10297 0.10267
 C46 C 1.11464 -0.07593 0.14816
 H47 H 1.07371 -0.12506 0.16140
 C48 C 1.16578 -0.08445 0.13123
 H49 H 1.16261 -0.14081 0.13209
 N50 N 1.11632 -0.00605 0.14791
 C51 C 0.93163 0.05145 0.15601
 H52 H 0.93484 0.06120 0.17807
 C53 C 0.87085 0.05087 0.13939
 H54 H 0.82868 0.06098 0.14923
 C55 C 0.97905 0.01825 0.11776
 H56 H 1.01883 0.00176 0.10967
 C57 C 0.91921 0.01651 0.10053
 H58 H 0.91489 0.00004 0.07920
 Zn59 Zn 1.05056 0.01358 0.16937
 N60 N 0.98385 0.03484 0.14503
 C61 C 1.12298 0.16896 0.18920
 N62 N 1.11854 0.09762 0.19083
 C63 C 1.16679 0.08184 0.20798
 C64 C 1.22197 0.13846 0.22463
 C65 C 1.17834 0.22805 0.20540
 C66 C 0.93134 -0.14070 0.18262
 C67 C 0.87186 -0.19986 0.19927
 C68 C 0.92095 -0.11701 0.23809
 C69 C 0.97952 -0.05997 0.22083
 N70 N 0.98366 -0.07246 0.19360
 H71 H 1.08391 0.18010 0.17537
 H72 H 1.16153 0.02433 0.20891
 H73 H 1.25687 0.12249 0.23892
 H74 H 1.17973 0.28383 0.20435
 H75 H 0.93350 -0.14769 0.16054
 H76 H 0.82921 -0.25173 0.18950
 H77 H 0.91694 -0.10396 0.25929
 H78 H 1.01876 -0.00398 0.22887
 C79 C 0.86360 0.03270 0.11114
 C80 C 1.21933 -0.02018 0.11396
 C81 C 0.86603 -0.18860 0.22757
 C82 C 1.23036 0.21384 0.22296
 C83 C 0.06920 0.91504 0.87031
 H84 H 0.01664 0.85935 0.86874
 C85 C 0.13090 0.91991 0.88719
 H86 H 0.12521 0.86759 0.89865
 C87 C 0.13978 1.05039 0.85704
 H88 H 0.14308 1.10081 0.84497
 C89 C 0.20309 1.05807 0.87381
 H90 H 0.25363 1.11527 0.87412
 N91 N 0.07412 0.97986 0.85601
 C92 C -0.16139 0.94380 0.84621
 H93 H -0.16875 0.94463 0.82366
 C94 C -0.21509 0.94845 0.86300
 H95 H -0.26541 0.94845 0.85288
 C96 C -0.08640 0.94212 0.88614
 H97 H -0.03515 0.94196 0.89516
 C98 C -0.13888 0.94574 0.90369
 H99 H -0.12841 0.94452 0.92610
 Zn100 Zn -0.01450 0.96344 0.83412
 N101 N -0.09737 0.94313 0.85790
 C102 C -0.10572 0.81432 0.81047
 N103 N -0.03559 0.88038 0.81194
 C104 C 0.02700 0.89071 0.79754
 C105 C 0.02046 0.83398 0.78044
 C106 C -0.11512 0.75581 0.79335
 C107 C 0.01478 1.11791 0.82202
 C108 C 0.01268 1.17885 0.80545
 C109 C -0.01714 1.10209 0.76527
 C110 C -0.01395 1.04310 0.78251
 N111 N 0.00149 1.05171 0.81038
 H112 H -0.15434 0.80719 0.82245
 H113 H 0.08229 0.94367 0.79933
 H114 H 0.07117 0.84384 0.76906
 H115 H -0.17175 0.70448 0.79264
 H116 H 0.02352 1.12190 0.84445
 H117 H 0.02062 1.22905 0.81572
 H118 H -0.03204 1.09273 0.74331
 H119 H -0.02767 0.98892 0.77376
 C120 C -0.20210 0.95420 0.89225
 C121 C 0.19897 0.99222 0.88957
 C122 C -0.00358 1.17152 0.77650
 C123 C -0.05137 0.76548 0.77777
 O124 O 0.48189 0.04461 0.02649
 O125 O 0.60970 0.04032 -0.02726
 O126 O 0.48399 0.05398 -0.02797
 O127 O 0.62161 0.05924 0.02636
 O128 O 0.56302 -0.06967 0.03061
 O129 O 0.41802 -0.07482 -0.02315
 O130 O 0.54423 -0.08848 -0.02280
 O131 O 0.42328 -0.08416 0.03139
 Cu132 Cu 0.55534 0.06198 -0.00102
 Cu133 Cu 0.48107 -0.09175 0.00447
 C134 C 0.43021 -0.02013 0.03801
 C135 C 0.59874 -0.02585 -0.03392
 C136 C 0.42683 -0.01015 -0.03464
 C137 C 0.61768 -0.00325 0.03738
 O138 O 0.01239 0.44814 0.63841
 O139 O 0.01386 0.57446 0.69208
 O140 O 0.02759 0.44879 0.69267
 O141 O 0.02663 0.58749 0.63781
 O142 O -0.10201 0.52940 0.63864
 O143 O -0.10110 0.38097 0.69178
 O144 O -0.11473 0.50672 0.69300
 O145 O -0.11623 0.39014 0.63745
 Cu146 Cu 0.03258 0.52081 0.66524
 Cu147 Cu -0.12105 0.44570 0.66523
 C148 C -0.05309 0.39742 0.62876
 C149 C -0.05112 0.56142 0.70170
 C150 C -0.03547 0.39026 0.70116
 C151 C -0.03674 0.58410 0.62926
 O152 O 0.48690 0.42525 0.31108
 O153 O 0.60392 0.56352 0.36440
 O154 O 0.47623 0.42674 0.36494
 O155 O 0.62183 0.55182 0.31216
 O156 O 0.55936 0.61856 0.30244
 O157 O 0.41181 0.49161 0.35551
 O158 O 0.53833 0.62710 0.35470
 O159 O 0.42308 0.49072 0.30166
 Cu160 Cu 0.55334 0.48517 0.33918
 Cu161 Cu 0.47662 0.56326 0.32756
 C162 C 0.43459 0.43448 0.29738
 C163 C 0.59184 0.62007 0.36820
 C164 C 0.41888 0.43703 0.36914
 C165 C 0.61667 0.60732 0.29867
 C166 C -0.06127 0.24551 0.57274
 C167 C -0.14033 0.24234 0.57644
 C168 C -0.13760 0.29308 0.59473
 C169 C -0.05639 0.34271 0.60788
 C170 C -0.03371 0.28287 0.62104
 C171 C -0.03666 0.23200 0.60284
 C172 C -0.00461 0.33224 0.56441
 C173 C -0.00208 0.38289 0.58273
 H174 H -0.19449 0.20409 0.56612
 H175 H -0.18888 0.29730 0.59929
 H176 H -0.01813 0.27973 0.64300
 H177 H -0.02375 0.18535 0.60939
 H178 H 0.02982 0.35213 0.54540
 H179 H 0.03447 0.44575 0.57942
 C180 C 0.79798 0.75334 0.24602
 C181 C 0.82223 0.74354 0.27654
 C182 C 0.76150 0.69634 0.29373
 C183 C 0.68148 0.66127 0.27899
 C184 C 0.67614 0.73208 0.26549
 C185 C 0.73691 0.78000 0.24833
 C186 C 0.75074 0.66863 0.23707
 C187 C 0.68977 0.62086 0.25427
 H188 H 0.88227 0.76999 0.28393
 H189 H 0.76988 0.68376 0.31575
 H190 H 0.62879 0.74371 0.26897
 H191 H 0.74106 0.83225 0.23721
 H192 H 0.76566 0.64615 0.21982
 H193 H 0.65246 0.55924 0.25110
 C194 C 0.26345 -0.00444 -0.09057
 C195 C 0.33642 0.07595 -0.08725
 C196 C 0.39046 0.07369 -0.06900
 C197 C 0.36763 -0.00841 -0.05543
 C198 C 0.28800 -0.03657 -0.04215
 C199 C 0.23388 -0.03416 -0.06037
 C200 C 0.29632 -0.05695 -0.09865
 C201 C 0.35063 -0.05904 -0.08031
 H202 H 0.34669 0.13072 -0.09791
 H203 H 0.44483 0.12607 -0.06485
 H204 H 0.27537 -0.05621 -0.02019
 H205 H 0.17520 -0.05136 -0.05381
 H206 H 0.27893 -0.08905 -0.11746
 H207 H 0.37933 -0.09291 -0.08339
 C208 C -0.01511 0.76339 0.57305
 C209 C 0.03040 0.78927 0.60074
 C210 C 0.02114 0.72929 0.61925
 C211 C -0.03183 0.64798 0.60850
 C212 C -0.10886 0.64687 0.60053
 C213 C -0.10008 0.70707 0.58203
 C214 C 0.01304 0.70993 0.56190
 C215 C 0.00396 0.64972 0.58045
 H216 H 0.06773 0.84991 0.60529
 H217 H 0.05012 0.73897 0.63958
 H218 H -0.16543 0.60263 0.60853
 H219 H -0.14935 0.71378 0.57424
 H220 H 0.04045 0.71887 0.54185
 H221 H 0.02209 0.60793 0.57576
 C222 C 0.28837 0.27506 0.24204
 C223 C 0.32213 0.36091 0.23051
 C224 C 0.37132 0.41384 0.24871
 C225 C 0.38280 0.37652 0.27679
 C226 C 0.30019 0.32351 0.28814
 C227 C 0.25111 0.27066 0.27008
 C228 C 0.36183 0.26803 0.25014
 C229 C 0.41058 0.32046 0.26846
 H230 H 0.31154 0.37879 0.20944
 H231 H 0.40144 0.47632 0.24323
 H232 H 0.28171 0.32740 0.30869
 H233 H 0.19076 0.22941 0.27525
 H234 H 0.37747 0.22915 0.24087
 H235 H 0.46598 0.32447 0.27498
 C236 C 0.74582 -0.03791 -0.08932
 C237 C 0.69769 -0.00531 -0.10231
 C238 C 0.64587 -0.00178 -0.08304
 C239 C 0.65232 -0.03043 -0.05447
 C240 C 0.63929 -0.10969 -0.05686
 C241 C 0.69056 -0.11359 -0.07595
 C242 C 0.78609 0.01241 -0.06619
 C243 C 0.73452 0.01558 -0.04688
 H244 H 0.70659 0.02383 -0.12314
 H245 H 0.61088 0.02613 -0.08885
 H246 H 0.59534 -0.16174 -0.04546
 H247 H 0.68755 -0.16855 -0.08001
 H248 H 0.84891 0.04946 -0.06468
 H249 H 0.75566 0.05295 -0.02943
 C250 C 0.27508 -0.02448 0.09398
 C251 C 0.36146 0.02785 0.10190
 C252 C 0.41315 0.02926 0.08355
 C253 C 0.37425 -0.02174 0.05881
 C254 C 0.31945 -0.10360 0.07253
 C255 C 0.26771 -0.10522 0.09078
 C256 C 0.26736 0.00469 0.06371
 C257 C 0.31930 0.00655 0.04548
 H258 H 0.38029 0.06039 0.12060
 H259 H 0.47587 0.06297 0.08654
 H260 H 0.32031 -0.15640 0.06811
 H261 H 0.22516 -0.15994 0.10104
 H262 H 0.22393 0.02169 0.05709
 H263 H 0.32050 0.02558 0.02347
 C264 C 0.72961 0.79355 0.42037
 C265 C 0.75478 0.73516 0.41884
 C266 C 0.70717 0.67401 0.40096
 C267 C 0.64286 0.68228 0.38783
 C268 C 0.59991 0.68709 0.41097
 C269 C 0.64739 0.74875 0.42885
 C270 C 0.72594 0.82127 0.39121
 C271 C 0.67924 0.76002 0.37332
 H272 H 0.80438 0.73661 0.43038
 H273 H 0.71841 0.62630 0.39801
 H274 H 0.53706 0.65220 0.41327
 H275 H 0.62105 0.76549 0.44442
 H276 H 0.75084 0.88240 0.38382
 H277 H 0.66911 0.77165 0.35136
 C278 C -0.01153 0.23306 0.75726
 C279 C 0.01652 0.31407 0.76854
 C280 C 0.00660 0.36505 0.75005
 C281 C -0.02975 0.33148 0.72187
 C282 C 0.02335 0.30247 0.71121
 C283 C 0.03347 0.25194 0.72969
 C284 C -0.09677 0.20556 0.74802
 C285 C -0.10636 0.25686 0.72957
 H286 H 0.04528 0.33240 0.78855
 H287 H 0.02504 0.42471 0.75476
 H288 H 0.05193 0.32131 0.69097
 H289 H 0.07123 0.22846 0.72523
 H290 H -0.14562 0.15036 0.75559
 H291 H -0.16320 0.24525 0.72139
 C292 C 0.79549 0.02414 0.09228
 C293 C 0.73885 -0.06193 0.08668
 C294 C 0.67910 -0.07257 0.06871
 C295 C 0.68100 0.00390 0.05780
 C296 C 0.68286 0.04394 0.08427
 C297 C 0.74267 0.05492 0.10228
 C298 C 0.82196 0.06584 0.06299
 C299 C 0.76241 0.05463 0.04500
 H300 H 0.74507 -0.11056 0.09629
 H301 H 0.63472 -0.13010 0.06298
 H302 H 0.64185 0.06400 0.08814
 H303 H 0.75246 0.08618 0.12095
 H304 H 0.88259 0.10224 0.05699
 H305 H 0.77248 0.08080 0.02367
 C306 C 0.24939 0.27983 0.42386
 C307 C 0.33311 0.31234 0.43571
 C308 C 0.38935 0.36515 0.41771
 C309 C 0.35717 0.38116 0.38950
 C310 C 0.30712 0.30052 0.37798
 C311 C 0.25100 0.24784 0.39584
 C312 C 0.24292 0.35416 0.41569
 C313 C 0.29870 0.40654 0.39758
 H314 H 0.34704 0.29795 0.45681
 H315 H 0.45080 0.39472 0.42340
 H316 H 0.31534 0.28594 0.35747
 H317 H 0.21126 0.18834 0.39054
 H318 H 0.20208 0.36784 0.42488
 H319 H 0.30343 0.46287 0.39112
 C320 C -0.05609 0.70668 0.75783
 C321 C -0.00019 0.67438 0.76635
 C322 C 0.00129 0.62579 0.74797
 C323 C -0.05327 0.61341 0.72261
 C324 C -0.13408 0.58455 0.73545
 C325 C -0.13574 0.63303 0.75379
 C326 C -0.03159 0.74411 0.72786
 C327 C -0.02975 0.69568 0.70961
 H328 H 0.03448 0.68780 0.78550
 H329 H 0.03719 0.59797 0.75139
 H330 H -0.18582 0.53032 0.73074
 H331 H -0.18942 0.61865 0.76405
 H332 H -0.01791 0.80364 0.72142
 H333 H -0.01436 0.71392 0.68773
   
