data_POSCAR
  _audit_creation_date              2014-09-24
  _audit_creation_method            'ToBaCCo'
  _symmetry_space_group_name_H-M    'P1'
  _symmetry_Int_Tables_number       1
  _symmetry_cell_setting            triclinic
  loop_
  _symmetry_equiv_pos_as_xyz
 x,y,z
_cell_length_a 27.7728
_cell_length_b 27.5033
_cell_length_c 7.5741
_cell_angle_alpha 89.584600
_cell_angle_beta 89.831500
_cell_angle_gamma 90.012900
loop_
  _atom_site_label
  _atom_site_type_symbol
  _atom_site_fract_x
  _atom_site_fract_y
  _atom_site_fract_z
C1 C 0.39829 0.27428 0.35948
 C2 C 0.39818 0.22450 0.36590
 C3 C 0.35161 0.20972 0.32675
 N4 N 0.32352 0.24901 0.29679
 C5 C 0.35180 0.28856 0.31723
 C6 C 0.33655 0.16067 0.31456
 C7 C 0.28928 0.14555 0.27043
 C8 C 0.27679 0.09806 0.22956
 C9 C 0.22836 0.09795 0.19442
 C10 C 0.21212 0.14537 0.21482
 N11 N 0.24945 0.17399 0.26369
 C12 C 0.16371 0.16029 0.18871
 C13 C 0.14803 0.20929 0.18196
 C14 C 0.10092 0.22388 0.15067
 C15 C 0.10118 0.27369 0.14439
 C16 C 0.14836 0.28817 0.17260
 N17 N 0.17676 0.24874 0.19563
 C18 C 0.16381 0.33715 0.17886
 C19 C 0.21142 0.35249 0.21543
 C20 C 0.22451 0.40044 0.24490
 C21 C 0.27298 0.40054 0.28001
 C22 C 0.28851 0.35265 0.27090
 N23 N 0.25085 0.32374 0.22847
 C24 C 0.33639 0.33748 0.30441
 H25 H 0.42911 0.29729 0.38459
 H26 H 0.42900 0.20177 0.39521
 H27 H 0.25253 0.28714 0.19912
 H28 H 0.30028 0.06670 0.22380
 H29 H 0.20753 0.06644 0.15657
 H30 H 0.06963 0.20101 0.13228
 H31 H 0.07006 0.29659 0.12195
 H32 H 0.29419 0.43234 0.31127
 H33 H 0.24713 0.20975 0.30467
 H34 H 0.20141 0.43214 0.24417
 C35 C 0.60283 0.27533 0.36460
 C36 C 0.60245 0.22556 0.35796
 C37 C 0.64917 0.21116 0.31934
 N38 N 0.67784 0.25059 0.30146
 C39 C 0.64973 0.28989 0.32925
 C40 C 0.66448 0.16224 0.30829
 C41 C 0.71251 0.14710 0.27727
 C42 C 0.72810 0.09927 0.29061
 C43 C 0.77664 0.09937 0.25571
 C44 C 0.78970 0.14727 0.22210
 N45 N 0.75020 0.17598 0.23249
 C46 C 0.83729 0.16258 0.18327
 C47 C 0.85279 0.21153 0.17435
 C48 C 0.89988 0.22599 0.14228
 C49 C 0.90028 0.27578 0.14790
 C50 C 0.85335 0.29037 0.18275
 N51 N 0.82458 0.25095 0.19920
 C52 C 0.83788 0.33941 0.19102
 C53 C 0.78963 0.35442 0.22039
 C54 C 0.77361 0.40210 0.20359
 C55 C 0.72515 0.40189 0.23954
 C56 C 0.71249 0.35413 0.27712
 N57 N 0.75215 0.32557 0.26808
 C58 C 0.66509 0.33883 0.31892
 H59 H 0.57196 0.29814 0.39159
 H60 H 0.57132 0.20264 0.38059
 H61 H 0.75418 0.28938 0.30570
 H62 H 0.70685 0.06752 0.32437
 H63 H 0.79980 0.06773 0.25758
 H64 H 0.93086 0.20310 0.11785
 H65 H 0.93155 0.29863 0.12696
 H66 H 0.70178 0.43337 0.23591
 H67 H 0.74847 0.21244 0.19865
 H68 H 0.79458 0.43383 0.16721
 C69 C 0.60241 0.72550 0.63503
 C70 C 0.60209 0.77527 0.64181
 C71 C 0.64854 0.78959 0.68417
 N72 N 0.67697 0.75008 0.70420
 C73 C 0.64900 0.71085 0.67395
 C74 C 0.66377 0.83849 0.69776
 C75 C 0.71163 0.85365 0.73148
 C76 C 0.72702 0.90164 0.72365
 C77 C 0.77554 0.90147 0.75819
 C78 C 0.78879 0.85338 0.78601
 N79 N 0.74942 0.82461 0.77262
 C80 C 0.83649 0.83792 0.82113
 C81 C 0.85207 0.78895 0.82599
 C82 C 0.89937 0.77447 0.85236
 C83 C 0.89973 0.72470 0.84548
 C84 C 0.85258 0.71013 0.81566
 N85 N 0.82371 0.74955 0.80348
 C86 C 0.83698 0.66112 0.80909
 C87 C 0.78857 0.64624 0.78356
 C88 C 0.77232 0.59873 0.80415
 C89 C 0.72383 0.59900 0.76961
 C90 C 0.71140 0.64663 0.72907
 N91 N 0.75122 0.67504 0.73513
 C92 C 0.66417 0.66190 0.68596
 H93 H 0.57170 0.70275 0.60562
 H94 H 0.57118 0.79826 0.61696
 H95 H 0.75348 0.71097 0.69395
 H96 H 0.70570 0.93356 0.69354
 H97 H 0.79857 0.93322 0.75953
 H98 H 0.93050 0.79733 0.87393
 H99 H 0.93113 0.70184 0.86248
 H100 H 0.70029 0.56766 0.77570
 H101 H 0.74791 0.78781 0.80066
 H102 H 0.79317 0.56708 0.84177
 C103 C 0.09871 0.77506 0.79483
 C104 C 0.09849 0.72519 0.79206
 C105 C 0.14628 0.71046 0.79589
 N106 N 0.17552 0.74974 0.80199
 C107 C 0.14663 0.78931 0.80032
 C108 C 0.16197 0.66160 0.80707
 C109 C 0.21087 0.64728 0.79733
 C110 C 0.22802 0.60113 0.83859
 C111 C 0.27658 0.60125 0.80265
 C112 C 0.28791 0.64745 0.74084
 N113 N 0.24763 0.67511 0.73675
 C114 C 0.33390 0.66187 0.67999
 C115 C 0.34743 0.71065 0.64902
 C116 C 0.39088 0.72532 0.57522
 C117 C 0.39105 0.77518 0.57745
 C118 C 0.34771 0.78933 0.65262
 N119 N 0.32134 0.74983 0.69759
 C120 C 0.33452 0.83784 0.68794
 C121 C 0.28874 0.85184 0.75110
 C122 C 0.27779 0.89741 0.81736
 C123 C 0.22926 0.89745 0.85390
 C124 C 0.21176 0.85189 0.80847
 N125 N 0.24828 0.82450 0.74500
 C126 C 0.16275 0.83787 0.81663
 H127 H 0.06717 0.79818 0.79542
 H128 H 0.06674 0.70235 0.79010
 H129 H 0.24479 0.79132 0.68197
 H130 H 0.20756 0.57037 0.88787
 H131 H 0.30072 0.57067 0.81892
 H132 H 0.41966 0.70250 0.52636
 H133 H 0.42000 0.79832 0.53068
 H134 H 0.20905 0.92780 0.90610
 H135 H 0.24444 0.70903 0.67708
 H136 H 0.30215 0.92765 0.83604
 O137 O 0.95478 -0.03097 -0.19380
 O138 O 1.04885 0.05724 -0.07532
 O139 O 1.04849 -0.03167 -0.19313
 O140 O 0.95528 0.05765 -0.07564
 O141 O 0.95469 0.03071 0.20019
 O142 O 1.04798 -0.05862 0.08267
 O143 O 1.04846 0.03030 0.20049
 O144 O 0.95444 -0.05793 0.08202
 Cu145 Cu 1.00195 0.01600 -0.16193
 Cu146 Cu 1.00139 -0.01680 0.16883
 C147 C 0.93879 -0.05948 -0.07491
 C148 C 1.06438 0.05890 0.08175
 C149 C 1.06380 -0.06047 -0.07432
 C150 C 0.93926 0.05936 0.08111
 O151 O 0.45332 0.46952 0.30014
 O152 O 0.54635 0.55827 0.42272
 O153 O 0.54703 0.46988 0.30331
 O154 O 0.45265 0.55803 0.41986
 O155 O 0.45177 0.53064 0.69510
 O156 O 0.54614 0.44248 0.57858
 O157 O 0.54568 0.53089 0.69800
 O158 O 0.45258 0.44210 0.57537
 Cu159 Cu 0.49989 0.51692 0.33407
 Cu160 Cu 0.49893 0.48360 0.66429
 C161 C 0.43734 0.44065 0.41787
 C162 C 0.56179 0.55959 0.57996
 C163 C 0.56248 0.44120 0.42221
 C164 C 0.43630 0.55932 0.57622
 O165 O 0.04630 0.53180 -0.20271
 O166 O -0.04721 0.44277 -0.07880
 O167 O -0.04752 0.53145 -0.20193
 O168 O 0.04628 0.44273 -0.08229
 O169 O 0.04662 0.46933 0.19254
 O170 O -0.04723 0.55815 0.07277
 O171 O -0.04707 0.46948 0.19590
 O172 O 0.04639 0.55841 0.07211
 Cu173 Cu -0.00054 0.48430 -0.16877
 Cu174 Cu -0.00028 0.51678 0.16061
 C175 C 0.06204 0.56032 -0.08517
 C176 C -0.06281 0.44092 0.07861
 C177 C -0.06317 0.55991 -0.08385
 C178 C 0.06214 0.44079 0.07437
 O179 O 0.54652 1.03111 0.30362
 O180 O 0.45266 0.94259 0.42641
 O181 O 0.45267 1.03125 0.30375
 O182 O 0.54628 0.94267 0.42784
 O183 O 0.54600 0.96984 0.70195
 O184 O 0.45245 1.05835 0.57794
 O185 O 0.45218 0.96968 0.70063
 O186 O 0.54612 1.05829 0.57772
 Cu187 Cu 0.49956 0.98397 0.33807
 Cu188 Cu 0.49914 1.01700 0.66688
 C189 C 0.56217 1.05973 0.42087
 C190 C 0.43661 0.94105 0.58320
 C191 C 0.43678 1.05986 0.42097
 C192 C 0.56191 0.94121 0.58490
 C193 C 1.13008 0.12489 0.15652
 C194 C 1.10027 0.09431 0.12487
 C195 C 0.62830 0.62466 0.65463
 C196 C 0.59806 0.59450 0.62364
 C197 C -0.12846 0.37482 0.15708
 C198 C -0.09864 0.40542 0.12374
 C199 C 0.37024 0.87540 0.65760
 C200 C 0.40037 0.90587 0.62700
 C201 C -0.12929 0.62570 -0.15888
 C202 C -0.09929 0.59521 -0.12717
 C203 C 0.37044 1.12533 0.34520
 C204 C 0.40057 1.09496 0.37665
 C205 C 1.12910 -0.12688 -0.14972
 C206 C 1.09941 -0.09622 -0.11739
 C207 C 0.62921 0.37608 0.35002
 C208 C 0.59892 0.40627 0.38025
 C209 C 0.87241 -0.12485 -0.14783
 C210 C 0.90256 -0.09455 -0.11744
 C211 C 0.37183 0.37485 0.33984
 C212 C 0.40160 0.40531 0.37307
 C213 C 0.12801 0.62635 -0.16126
 C214 C 0.09800 0.59580 -0.12950
 C215 C 0.62873 1.12494 0.34334
 C216 C 0.59852 1.09473 0.37631
 C217 C 0.12795 0.37456 0.14776
 C218 C 0.09802 0.40521 0.11730
 C219 C 0.62814 0.87586 0.66291
 C220 C 0.59808 0.90615 0.62986
 C221 C 0.87315 0.12522 0.15291
 C222 C 0.90322 0.09474 0.12309
 C223 C 0.36962 0.62452 0.64863
 C224 C 0.39985 0.59427 0.61826
   
