data_POSCAR
  _audit_creation_date              2014-09-24
  _audit_creation_method            'ToBaCCo'
  _symmetry_space_group_name_H-M    'P1'
  _symmetry_Int_Tables_number       1
  _symmetry_cell_setting            triclinic
  loop_
  _symmetry_equiv_pos_as_xyz
 x,y,z
_cell_length_a 42.0559
_cell_length_b 42.0613
_cell_length_c 45.4984
_cell_angle_alpha 89.890600
_cell_angle_beta 90.073800
_cell_angle_gamma 120.081400
loop_
  _atom_site_label
  _atom_site_type_symbol
  _atom_site_fract_x
  _atom_site_fract_y
  _atom_site_fract_z
C1 C 0.03304 0.51634 1.31274
 C2 C -0.00040 0.49949 1.32781
 C3 C -0.03385 0.48230 1.31272
 C4 C -0.03421 0.48181 1.28163
 C5 C -0.00041 0.49879 1.26605
 C6 C 0.03340 0.51613 1.28164
 C7 C 0.06655 0.53273 1.26571
 C8 C 0.06653 0.53233 1.23512
 C9 C 0.03338 0.51535 1.21927
 C10 C -0.00041 0.49844 1.23483
 C11 C -0.06736 0.46485 1.26569
 C12 C -0.06736 0.46456 1.23510
 C13 C -0.03419 0.48119 1.21921
 C14 C -0.03378 0.48109 1.18810
 C15 C -0.00029 0.49781 1.17308
 C16 C 0.03307 0.51481 1.18822
 H17 H 0.09287 0.54621 1.27682
 H18 H 0.09282 0.54550 1.22398
 H19 H -0.09368 0.45162 1.27679
 H20 H -0.09366 0.45113 1.22397
 H21 H -0.00040 0.49975 1.35171
 H22 H -0.00012 0.49765 1.14920
 C23 C 0.51894 0.48512 1.18826
 C24 C 0.50223 0.50179 1.17313
 C25 C 0.48521 0.51812 1.18816
 C26 C 0.48466 0.51793 1.21921
 C27 C 0.50159 0.50113 1.23484
 C28 C 0.51884 0.48465 1.21931
 C29 C 0.53549 0.46819 1.23521
 C30 C 0.53523 0.46790 1.26581
 C31 C 0.51825 0.48404 1.28169
 C32 C 0.50125 0.50079 1.26605
 C33 C 0.46766 0.53406 1.23502
 C34 C 0.46728 0.53368 1.26562
 C35 C 0.48391 0.51720 1.28155
 C36 C 0.48369 0.51668 1.31259
 C37 C 0.50053 0.50018 1.32778
 C38 C 0.51775 0.48396 1.31280
 H39 H 0.54892 0.45537 1.22409
 H40 H 0.54847 0.45487 1.27696
 H41 H 0.45447 0.54711 1.22383
 H42 H 0.45380 0.54646 1.27671
 H43 H 0.50247 0.50203 1.14926
 H44 H 0.50020 0.50002 1.35166
 C45 C 0.51505 1.03396 1.18824
 C46 C 0.49831 1.00050 1.17320
 C47 C 0.48177 0.96710 1.18832
 C48 C 0.48180 0.96672 1.21937
 C49 C 0.49865 1.00048 1.23496
 C50 C 0.51536 1.03429 1.21935
 C51 C 0.53186 1.06741 1.23527
 C52 C 0.53196 1.06735 1.26587
 C53 C 0.51561 1.03417 1.28179
 C54 C 0.49881 1.00040 1.26620
 C55 C 0.46545 0.93354 1.23522
 C56 C 0.46565 0.93345 1.26582
 C57 C 0.48217 0.96656 1.28177
 C58 C 0.48255 0.96684 1.31288
 C59 C 0.49913 1.00025 1.32797
 C60 C 0.51555 1.03374 1.31290
 H61 H 0.54486 1.09374 1.22416
 H62 H 0.54504 1.09364 1.27698
 H63 H 0.45235 0.90729 1.22406
 H64 H 0.45268 0.90711 1.27691
 H65 H 0.49813 1.00038 1.14932
 H66 H 0.49925 1.00020 1.35187
 C67 C 1.03465 0.51904 0.81218
 C68 C 1.00118 0.50250 0.82724
 C69 C 0.96778 0.48574 0.81213
 C70 C 0.96742 0.48536 0.78109
 C71 C 1.00120 0.50200 0.76549
 C72 C 1.03501 0.51892 0.78107
 C73 C 1.06814 0.53520 0.76512
 C74 C 1.06808 0.53485 0.73452
 C75 C 1.03489 0.51826 0.71864
 C76 C 1.00114 0.50171 0.73427
 C77 C 0.93424 0.46879 0.76524
 C78 C 0.93418 0.46857 0.73464
 C79 C 0.96730 0.48485 0.71874
 C80 C 0.96754 0.48475 0.68769
 C81 C 1.00088 0.50106 0.67253
 C82 C 1.03441 0.51771 0.68753
 H83 H 1.09447 0.54835 0.77622
 H84 H 1.09436 0.54776 0.72338
 H85 H 0.90797 0.45586 0.77641
 H86 H 0.90787 0.45546 0.72353
 H87 H 1.00106 0.50262 0.85112
 H88 H 1.00066 0.50075 0.64865
 C89 C 0.51560 0.48210 0.68765
 C90 C 0.49931 0.49922 0.67257
 C91 C 0.48281 0.51607 0.68765
 C92 C 0.48238 0.51593 0.71870
 C93 C 0.49888 0.49866 0.73428
 C94 C 0.51560 0.48167 0.71871
 C95 C 0.53183 0.46475 0.73458
 C96 C 0.53167 0.46452 0.76520
 C97 C 0.51523 0.48117 0.78107
 C98 C 0.49866 0.49837 0.76548
 C99 C 0.46592 0.53256 0.73457
 C100 C 0.46566 0.53223 0.76518
 C101 C 0.48188 0.51530 0.78106
 C102 C 0.48181 0.51481 0.81211
 C103 C 0.49825 0.49784 0.82720
 C104 C 0.51488 0.48113 0.81212
 H105 H 0.54484 0.45153 0.72344
 H106 H 0.54455 0.45114 0.77635
 H107 H 0.45307 0.54598 0.72342
 H108 H 0.45262 0.54542 0.77633
 H109 H 0.49948 0.49944 0.64871
 H110 H 0.49810 0.49765 0.85106
 C111 C 0.48491 -0.03395 0.81268
 C112 C 0.50202 -0.00050 0.82772
 C113 C 0.51875 0.03289 0.81259
 C114 C 0.51862 0.03328 0.78156
 C115 C 0.50130 -0.00048 0.76600
 C116 C 0.48432 -0.03430 0.78158
 C117 C 0.46728 -0.06743 0.76565
 C118 C 0.46690 -0.06734 0.73505
 C119 C 0.48358 -0.03415 0.71921
 C120 C 0.50096 -0.00041 0.73480
 C121 C 0.53531 0.06646 0.76568
 C122 C 0.53502 0.06652 0.73508
 C123 C 0.51799 0.03340 0.71922
 C124 C 0.51751 0.03310 0.68818
 C125 C 0.50028 -0.00027 0.67309
 C126 C 0.48339 -0.03370 0.68816
 H127 H 0.45404 -0.09376 0.77676
 H128 H 0.45340 -0.09359 0.72389
 H129 H 0.54878 0.09273 0.77682
 H130 H 0.54828 0.09282 0.72393
 H131 H 0.50235 -0.00038 0.85160
 H132 H 0.50003 -0.00021 0.64922
 O133 O 0.38881 0.65855 0.97527
 O134 O 0.38733 0.71914 0.96617
 C135 C 0.37015 0.73608 0.96099
 O136 O 0.34188 0.73069 0.97516
 O137 O 0.28123 0.66858 0.96604
 C138 C 0.26426 0.63444 0.96087
 O139 O 0.26959 0.61150 0.97507
 O140 O 0.33173 0.61312 0.96608
 C141 C 0.36591 0.63031 0.96103
 O142 O 0.38719 0.66852 1.03366
 O143 O 0.38879 0.73066 1.02456
 C144 C 0.36587 0.73597 1.03873
 O145 O 0.33171 0.71897 1.03356
 O146 O 0.26958 0.65834 1.02444
 C147 C 0.26421 0.63005 1.03864
 O148 O 0.28113 0.61287 1.03349
 O149 O 0.34174 0.61145 1.02449
 C150 C 0.36998 0.63434 1.03875
 Cr151 Cr 0.38596 0.69318 0.99991
 Cr152 Cr 0.30713 0.69311 0.99980
 Cr153 Cr 0.30708 0.61430 0.99978
 O154 O 0.33339 0.66687 0.99983
 O155 O 0.61349 0.33134 0.96690
 O156 O 0.61200 0.26929 0.97612
 C157 C 0.63493 0.26399 0.96195
 O158 O 0.66909 0.28098 0.96710
 O159 O 0.73124 0.34163 0.97613
 C160 C 0.73657 0.36984 0.96182
 O161 O 0.71958 0.38698 0.96686
 O162 O 0.65898 0.38845 0.97585
 C163 C 0.63068 0.36549 0.96169
 O164 O 0.61204 0.34151 1.02527
 O165 O 0.61351 0.28094 1.03450
 C166 C 0.63066 0.26396 1.03969
 O167 O 0.65893 0.26935 1.02551
 O168 O 0.71955 0.33154 1.03454
 C169 C 0.73655 0.36571 1.03958
 O170 O 0.73124 0.38860 1.02527
 O171 O 0.66914 0.38704 1.03426
 C172 C 0.63498 0.36982 1.03941
 Cr173 Cr 0.61483 0.30680 1.00070
 Cr174 Cr 0.69367 0.30691 1.00082
 Cr175 Cr 0.69370 0.38570 1.00056
 O176 O 0.66740 0.33314 1.00069
 O177 O 0.65835 0.38862 0.52408
 O178 O 0.71897 0.38717 0.53314
 C179 C 0.73597 0.37003 0.53826
 O180 O 0.73061 0.34182 0.52403
 O181 O 0.66849 0.28116 0.53314
 C182 C 0.63433 0.26418 0.53831
 O183 O 0.61139 0.26947 0.52408
 O184 O 0.61286 0.33151 0.53312
 C185 C 0.63007 0.36566 0.53827
 O186 O 0.66841 0.38724 0.46568
 O187 O 0.73055 0.38881 0.47474
 C188 C 0.73589 0.36595 0.46052
 O189 O 0.71890 0.33177 0.46564
 O190 O 0.65830 0.26956 0.47476
 C191 C 0.62999 0.26413 0.46057
 O192 O 0.61282 0.28108 0.46567
 O193 O 0.61134 0.34166 0.47471
 C194 C 0.63424 0.37001 0.46055
 Cr195 Cr 0.69304 0.38589 0.49941
 Cr196 Cr 0.69304 0.30711 0.49939
 Cr197 Cr 0.61417 0.30697 0.49939
 O198 O 0.66675 0.33332 0.49939
 O199 O 0.34097 0.61133 0.52423
 O200 O 0.28038 0.61278 0.53330
 C201 C 0.26343 0.62995 0.53840
 O202 O 0.26874 0.65816 0.52412
 O203 O 0.33088 0.71880 0.53314
 C204 C 0.36504 0.73575 0.53830
 O205 O 0.38796 0.73048 0.52409
 O206 O 0.38650 0.66842 0.53319
 C207 C 0.36930 0.63426 0.53838
 O208 O 0.33081 0.61280 0.46584
 O209 O 0.26870 0.61123 0.47489
 C210 C 0.26333 0.63411 0.46064
 O211 O 0.28031 0.66828 0.46571
 O212 O 0.34094 0.73048 0.47474
 C213 C 0.36923 0.73594 0.46055
 O214 O 0.38641 0.71899 0.46569
 O215 O 0.38790 0.65839 0.47479
 C216 C 0.36497 0.63005 0.46067
 Cr217 Cr 0.30625 0.61411 0.49956
 Cr218 Cr 0.30625 0.69290 0.49943
 Cr219 Cr 0.38512 0.69303 0.49944
 O220 O 0.33255 0.66668 0.49947
 C221 C 0.41477 0.59912 0.36713
 C222 C 0.45302 0.60261 0.37106
 C223 C 0.43587 0.56154 0.36398
 C224 C 0.39788 0.55777 0.35970
 C225 C 0.40679 0.58901 0.39981
 C226 C 0.38964 0.54795 0.39272
 C227 C 0.44477 0.59274 0.40403
 C228 C 0.42785 0.55149 0.39666
 C229 C 0.45247 0.54593 0.34480
 C230 C 0.46650 0.53279 0.32977
 C231 C 0.39114 0.60401 0.42059
 C232 C 0.37885 0.61606 0.43848
 H233 H 0.40920 0.61889 0.35523
 H234 H 0.47927 0.62490 0.36194
 H235 H 0.37881 0.54321 0.34123
 H236 H 0.36340 0.52564 0.40184
 H237 H 0.46389 0.60728 0.42249
 H238 H 0.43341 0.53174 0.40861
 C239 C 0.43939 0.82647 0.37586
 C240 C 0.41693 0.83538 0.35363
 C241 C 0.43810 0.87570 0.36354
 C242 C 0.46079 0.86730 0.38543
 C243 C 0.41043 0.81905 0.39953
 C244 C 0.43162 0.85941 0.40936
 C245 C 0.38771 0.82742 0.37765
 C246 C 0.40915 0.86824 0.38722
 C247 C 0.45385 0.90799 0.34428
 C248 C 0.46713 0.93524 0.32920
 C249 C 0.39534 0.78833 0.42038
 C250 C 0.38325 0.76393 0.43832
 H251 H 0.45165 0.80894 0.37142
 H252 H 0.41109 0.82589 0.33047
 H253 H 0.49101 0.88405 0.38843
 H254 H 0.43751 0.86899 0.43250
 H255 H 0.35749 0.81067 0.37467
 H256 H 0.39688 0.88575 0.39169
 C257 C 0.17315 0.56236 0.37674
 C258 C 0.13229 0.54138 0.38628
 C259 C 0.12400 0.56321 0.36344
 C260 C 0.16436 0.58396 0.35356
 C261 C 0.18050 0.59223 0.39950
 C262 C 0.17226 0.61411 0.37668
 C263 C 0.14011 0.57146 0.40931
 C264 C 0.13139 0.59307 0.38621
 C265 C 0.09179 0.54662 0.34416
 C266 C 0.06458 0.53259 0.32907
 C267 C 0.21112 0.60787 0.42040
 C268 C 0.23544 0.62017 0.43837
 H269 H 0.19067 0.54992 0.37308
 H270 H 0.11550 0.51129 0.39002
 H271 H 0.17393 0.58889 0.33039
 H272 H 0.18906 0.64419 0.37297
 H273 H 0.13044 0.56648 0.43245
 H274 H 0.11387 0.60552 0.38989
 C275 C 0.59269 0.40849 0.36589
 C276 C 0.55174 0.39820 0.36545
 C277 C 0.56390 0.43921 0.36356
 C278 C 0.60457 0.44979 0.36366
 C279 C 0.59261 0.41135 0.39954
 C280 C 0.60474 0.45236 0.39763
 C281 C 0.55195 0.40081 0.39941
 C282 C 0.56386 0.44202 0.39722
 C283 C 0.54753 0.45507 0.34430
 C284 C 0.53372 0.46845 0.32919
 C285 C 0.60811 0.39618 0.42039
 C286 C 0.62034 0.38404 0.43832
 H287 H 0.60474 0.39453 0.35325
 H288 H 0.52977 0.37612 0.35198
 H289 H 0.62601 0.47011 0.34872
 H290 H 0.62670 0.47447 0.41108
 H291 H 0.53047 0.38050 0.41433
 H292 H 0.55184 0.45596 0.40990
 C293 C 0.55747 0.17239 0.37754
 C294 C 0.57929 0.16499 0.35369
 C295 C 0.56051 0.12466 0.36361
 C296 C 0.53847 0.13156 0.38711
 C297 C 0.58849 0.18117 0.39960
 C298 C 0.56970 0.14081 0.40944
 C299 C 0.61058 0.17431 0.37610
 C300 C 0.59153 0.13347 0.38568
 C301 C 0.54458 0.09245 0.34435
 C302 C 0.53114 0.06526 0.32925
 C303 C 0.60373 0.21183 0.42044
 C304 C 0.61591 0.23619 0.43836
 H305 H 0.54364 0.18875 0.37442
 H306 H 0.58304 0.17454 0.33053
 H307 H 0.50864 0.11363 0.39144
 H308 H 0.56590 0.13116 0.43258
 H309 H 0.64040 0.19224 0.37180
 H310 H 0.60537 0.11713 0.38882
 C311 C 0.85257 0.40303 0.40260
 C312 C 0.85068 0.39487 0.36927
 C313 C 0.87519 0.43622 0.36339
 C314 C 0.87751 0.44458 0.39643
 C315 C 0.81870 0.40761 0.39943
 C316 C 0.84323 0.44895 0.39353
 C317 C 0.81628 0.39919 0.36639
 C318 C 0.84135 0.44083 0.36017
 C319 C 0.90740 0.45255 0.34412
 C320 C 0.93461 0.46634 0.32904
 C321 C 0.78808 0.39213 0.42031
 C322 C 0.76377 0.37990 0.43827
 H323 H 0.85686 0.38732 0.42027
 H324 H 0.85412 0.37283 0.35906
 H325 H 0.90303 0.46341 0.40858
 H326 H 0.83983 0.47102 0.40374
 H327 H 0.79074 0.38035 0.35429
 H328 H 0.83712 0.45657 0.34249
 C329 C 0.57421 0.43203 1.09071
 C330 C 0.54353 0.40987 1.11341
 C331 C 0.56561 0.43936 1.13658
 C332 C 0.59607 0.46174 1.11415
 C333 C 0.59384 0.41129 1.10049
 C334 C 0.61597 0.44078 1.12365
 C335 C 0.56337 0.38887 1.12292
 C336 C 0.58523 0.41863 1.14644
 C337 C 0.54947 0.45531 1.15589
 C338 C 0.53579 0.46872 1.17102
 C339 C 0.60909 0.39602 1.07960
 C340 C 0.62117 0.38385 1.06164
 H341 H 0.56983 0.43738 1.06758
 H342 H 0.51357 0.39733 1.10941
 H343 H 0.60934 0.49188 1.11075
 H344 H 0.64593 0.45331 1.12763
 H345 H 0.55011 0.35873 1.12629
 H346 H 0.58956 0.41333 1.16959
 C347 C 0.85960 0.42697 1.09125
 C348 C 0.86793 0.45740 1.11408
 C349 C 0.87545 0.43528 1.13717
 C350 C 0.86755 0.40506 1.11461
 C351 C 0.81915 0.40702 1.10092
 C352 C 0.82663 0.38485 1.12400
 C353 C 0.82702 0.43723 1.12347
 C354 C 0.83504 0.41534 1.14691
 C355 C 0.90757 0.45144 1.15656
 C356 C 0.93472 0.46515 1.17172
 C357 C 0.78863 0.39173 1.07992
 C358 C 0.76439 0.37960 1.06189
 H359 H 0.86939 0.43160 1.06815
 H360 H 0.88526 0.48741 1.11021
 H361 H 0.88457 0.39201 1.11118
 H362 H 0.80929 0.35484 1.12783
 H363 H 0.80999 0.45028 1.12687
 H364 H 0.82535 0.41076 1.17004
 C365 C 0.57561 0.18206 1.13229
 C366 C 0.54042 0.14466 1.12637
 C367 C 0.56053 0.12484 1.13729
 C368 C 0.59546 0.16170 1.14355
 C369 C 0.58890 0.18120 1.10101
 C370 C 0.60901 0.16138 1.11194
 C371 C 0.55397 0.14431 1.09481
 C372 C 0.57384 0.12406 1.10601
 C373 C 0.54438 0.09269 1.15669
 C374 C 0.53078 0.06550 1.17186
 C375 C 0.60432 0.21177 1.08002
 C376 C 0.61658 0.23606 1.06199
 H377 H 0.57652 0.20627 1.14285
 H378 H 0.51204 0.13742 1.13252
 H379 H 0.61232 0.16847 1.16383
 H380 H 0.63738 0.16859 1.10578
 H381 H 0.53706 0.13746 1.07455
 H382 H 0.57295 0.09988 1.09540
 C383 C 0.40119 0.58515 1.13273
 C384 C 0.39807 0.54703 1.12913
 C385 C 0.43918 0.56457 1.13626
 C386 C 0.44260 0.60243 1.14021
 C387 C 0.41122 0.59293 1.10003
 C388 C 0.45233 0.61045 1.10717
 C389 C 0.40785 0.55508 1.09613
 C390 C 0.44915 0.57238 1.10355
 C391 C 0.45514 0.54842 1.15565
 C392 C 0.46863 0.53480 1.17084
 C393 C 0.39603 0.60828 1.07906
 C394 C 0.38393 0.62044 1.06104
 H395 H 0.38129 0.59059 1.14448
 H396 H 0.37594 0.52077 1.13839
 H397 H 0.45707 0.62170 1.15857
 H398 H 0.47448 0.63671 1.09791
 H399 H 0.39339 0.53577 1.07778
 H400 H 0.46904 0.56696 1.09175
 C401 C 0.18001 0.60737 1.12851
 C402 C 0.14038 0.59780 1.12043
 C403 C 0.12556 0.56080 1.13637
 C404 C 0.16467 0.57009 1.14480
 C405 C 0.18175 0.58873 1.10003
 C406 C 0.16694 0.55173 1.11597
 C407 C 0.14261 0.57941 1.09167
 C408 C 0.12736 0.54222 1.10788
 C409 C 0.09350 0.54487 1.15579
 C410 C 0.06638 0.53139 1.17097
 C411 C 0.21220 0.60391 1.07900
 C412 C 0.23641 0.61604 1.06095
 H413 H 0.20203 0.63433 1.13675
 H414 H 0.12910 0.61656 1.12248
 H415 H 0.17334 0.56606 1.16689
 H416 H 0.17822 0.53296 1.11390
 H417 H 0.13384 0.58340 1.06960
 H418 H 0.10537 0.51526 1.09960
 C419 C 0.44148 0.85576 1.09362
 C420 C 0.42121 0.87530 1.10537
 C421 C 0.43535 0.87466 1.13640
 C422 C 0.45586 0.85555 1.12492
 C423 C 0.40711 0.81849 1.10007
 C424 C 0.42123 0.81778 1.13109
 C425 C 0.38660 0.83761 1.11155
 C426 C 0.40097 0.83743 1.14292
 C427 C 0.45146 0.90672 1.15584
 C428 C 0.46507 0.93381 1.17104
 C429 C 0.39183 0.78802 1.07906
 C430 C 0.37972 0.76379 1.06103
 H431 H 0.45799 0.86300 1.07313
 H432 H 0.42137 0.89929 1.09499
 H433 H 0.48451 0.86328 1.13064
 H434 H 0.42106 0.79376 1.14143
 H435 H 0.35796 0.82989 1.10583
 H436 H 0.38451 0.83027 1.16342
 C437 C 0.61129 0.43654 0.62254
 C438 C 0.59138 0.45751 0.61313
 C439 C 0.56113 0.43533 0.63578
 C440 C 0.58077 0.41458 0.64553
 C441 C 0.58889 0.40691 0.59954
 C442 C 0.55863 0.38469 0.62217
 C443 C 0.56923 0.42768 0.58986
 C444 C 0.53877 0.40571 0.61277
 C445 C 0.54533 0.45156 0.65517
 C446 C 0.53199 0.46527 0.67036
 C447 C 0.60400 0.39157 0.57857
 C448 C 0.61608 0.37945 0.56055
 H449 H 0.64128 0.44903 0.62633
 H450 H 0.60468 0.48763 0.60962
 H451 H 0.58532 0.40940 0.66867
 H452 H 0.54534 0.35457 0.62566
 H453 H 0.56464 0.43291 0.56675
 H454 H 0.50878 0.39321 0.60895
 C455 C 0.57983 0.18285 0.63111
 C456 C 0.54450 0.14553 0.62529
 C457 C 0.56446 0.12559 0.63623
 C458 C 0.59953 0.16236 0.64240
 C459 C 0.59299 0.18177 0.59983
 C460 C 0.61294 0.16182 0.61078
 C461 C 0.55792 0.14496 0.59373
 C462 C 0.57765 0.12459 0.60495
 C463 C 0.54818 0.09352 0.65569
 C464 C 0.53440 0.06640 0.67089
 C465 C 0.60837 0.21222 0.57876
 C466 C 0.62051 0.23641 0.56067
 H467 H 0.58092 0.20718 0.64161
 H468 H 0.51618 0.13847 0.63148
 H469 H 0.61643 0.16911 0.66266
 H470 H 0.64126 0.16886 0.60458
 H471 H 0.54097 0.13813 0.57349
 H472 H 0.57657 0.10029 0.59441
 C473 C 0.81552 0.40533 0.63303
 C474 C 0.84796 0.39769 0.63197
 C475 C 0.87491 0.43899 0.63588
 C476 C 0.84303 0.44691 0.63728
 C477 C 0.81863 0.41120 0.59958
 C478 C 0.84560 0.45249 0.60351
 C479 C 0.85054 0.40332 0.59822
 C480 C 0.87792 0.44480 0.60243
 C481 C 0.90703 0.45484 0.65529
 C482 C 0.93418 0.46825 0.67046
 C483 C 0.78810 0.39608 0.57858
 C484 C 0.76384 0.38400 0.56055
 H485 H 0.78950 0.38893 0.64537
 H486 H 0.84929 0.37534 0.64390
 H487 H 0.84032 0.46502 0.65358
 H488 H 0.84431 0.47487 0.59159
 H489 H 0.85331 0.38523 0.58194
 H490 H 0.90391 0.46120 0.59004
 C491 C 0.40025 0.58475 0.63231
 C492 C 0.39677 0.54648 0.62863
 C493 C 0.43784 0.56367 0.63581
 C494 C 0.44161 0.60167 0.63983
 C495 C 0.41037 0.59257 0.59962
 C496 C 0.45144 0.60975 0.60681
 C497 C 0.40664 0.55458 0.59565
 C498 C 0.44790 0.57153 0.60312
 C499 C 0.45346 0.54715 0.65519
 C500 C 0.46664 0.53319 0.67036
 C501 C 0.39537 0.60815 0.57867
 C502 C 0.38331 0.62039 0.56066
 H503 H 0.38049 0.59038 0.64407
 H504 H 0.37446 0.52028 0.63783
 H505 H 0.45616 0.62083 0.65824
 H506 H 0.47376 0.63594 0.59761
 H507 H 0.39211 0.53537 0.57727
 H508 H 0.46765 0.56591 0.59132
 C509 C 0.42667 0.85847 0.59025
 C510 C 0.40515 0.86637 0.61391
 C511 C 0.43564 0.87403 0.63619
 C512 C 0.45738 0.86655 0.61280
 C513 C 0.40673 0.81797 0.59980
 C514 C 0.43722 0.82559 0.62208
 C515 C 0.38494 0.82539 0.62319
 C516 C 0.41571 0.83356 0.64583
 C517 C 0.45218 0.90601 0.65565
 C518 C 0.46618 0.93306 0.67086
 C519 C 0.39117 0.78759 0.57874
 C520 C 0.37893 0.76346 0.56065
 H521 H 0.43102 0.86840 0.56717
 H522 H 0.39214 0.88349 0.61076
 H523 H 0.48735 0.88383 0.60874
 H524 H 0.45022 0.80846 0.62520
 H525 H 0.35497 0.80811 0.62721
 H526 H 0.41141 0.82372 0.66893
 C527 C 0.17895 0.60874 0.62771
 C528 C 0.13906 0.59797 0.61936
 C529 C 0.12499 0.56180 0.63640
 C530 C 0.16437 0.57228 0.64510
 C531 C 0.18109 0.58913 0.59996
 C532 C 0.16704 0.55295 0.61699
 C533 C 0.14168 0.57862 0.59133
 C534 C 0.12718 0.54225 0.60863
 C535 C 0.09297 0.54622 0.65588
 C536 C 0.06587 0.53304 0.67111
 C537 C 0.21150 0.60405 0.57887
 C538 C 0.23566 0.61602 0.56077
 H539 H 0.20060 0.63625 0.63532
 H540 H 0.12721 0.61632 0.62055
 H541 H 0.17330 0.56949 0.66746
 H542 H 0.17889 0.53461 0.61578
 H543 H 0.13265 0.58138 0.56900
 H544 H 0.10556 0.51475 0.60099
 C545 C 0.42795 0.56929 0.90975
 C546 C 0.40590 0.53873 0.88697
 C547 C 0.43551 0.56092 0.86388
 C548 C 0.45778 0.59126 0.88639
 C549 C 0.40726 0.58898 0.89997
 C550 C 0.43688 0.61121 0.87689
 C551 C 0.38495 0.55863 0.87746
 C552 C 0.41484 0.58059 0.85402
 C553 C 0.45161 0.54492 0.84454
 C554 C 0.46518 0.53141 0.82939
 C555 C 0.39195 0.60421 0.92086
 C556 C 0.37981 0.61635 0.93881
 H557 H 0.43319 0.56480 0.93288
 H558 H 0.39333 0.50875 0.89091
 H559 H 0.48791 0.60451 0.88986
 H560 H 0.44944 0.64118 0.87297
 H561 H 0.35483 0.54539 0.87402
 H562 H 0.40964 0.58504 0.83086
 C563 C 0.17251 0.61568 0.87800
 C564 C 0.16582 0.58742 0.85348
 C565 C 0.12545 0.56481 0.86313
 C566 C 0.13166 0.59281 0.88730
 C567 C 0.18172 0.59317 0.89944
 C568 C 0.14132 0.57055 0.90901
 C569 C 0.17556 0.56517 0.87528
 C570 C 0.13469 0.54233 0.88457
 C571 C 0.09335 0.54861 0.84371
 C572 C 0.06618 0.53492 0.82854
 C573 C 0.21221 0.60850 0.92047
 C574 C 0.23644 0.62062 0.93853
 H575 H 0.18842 0.64602 0.87554
 H576 H 0.17549 0.59415 0.83041
 H577 H 0.11326 0.60399 0.89203
 H578 H 0.13155 0.56377 0.93206
 H579 H 0.19397 0.55399 0.87058
 H580 H 0.11879 0.51200 0.88707
 C581 C 0.44036 0.82572 0.87603
 C582 C 0.41808 0.83481 0.85375
 C583 C 0.43963 0.87517 0.86352
 C584 C 0.46214 0.86659 0.88544
 C585 C 0.41156 0.81877 0.89971
 C586 C 0.43312 0.85916 0.90939
 C587 C 0.38901 0.82731 0.87779
 C588 C 0.41083 0.86817 0.88720
 C589 C 0.45564 0.90733 0.84417
 C590 C 0.46918 0.93452 0.82904
 C591 C 0.39632 0.78821 0.92067
 C592 C 0.38416 0.76393 0.93869
 H593 H 0.45231 0.80791 0.87168
 H594 H 0.41210 0.82521 0.83063
 H595 H 0.49238 0.88310 0.88837
 H596 H 0.43915 0.86886 0.93249
 H597 H 0.35876 0.81079 0.87488
 H598 H 0.39886 0.88597 0.89158
 C599 C 0.56634 0.42410 0.90990
 C600 C 0.58871 0.45628 0.88842
 C601 C 0.56088 0.43462 0.86405
 C602 C 0.53829 0.40264 0.88527
 C603 C 0.58907 0.40652 0.90033
 C604 C 0.56124 0.38481 0.87598
 C605 C 0.61169 0.43850 0.87912
 C606 C 0.58360 0.41706 0.85440
 C607 C 0.54486 0.45069 0.84463
 C608 C 0.53138 0.46432 0.82942
 C609 C 0.60440 0.39132 0.92134
 C610 C 0.61661 0.37928 0.93937
 H611 H 0.55939 0.42684 0.93294
 H612 H 0.59983 0.48584 0.89333
 H613 H 0.50794 0.38807 0.88760
 H614 H 0.55013 0.35525 0.87110
 H615 H 0.64205 0.45307 0.87682
 H616 H 0.59050 0.41437 0.83134
 C617 C 0.85311 0.40696 0.90364
 C618 C 0.85096 0.39830 0.87039
 C619 C 0.87533 0.43957 0.86410
 C620 C 0.87791 0.44841 0.89706
 C621 C 0.81915 0.41137 0.90046
 C622 C 0.84353 0.45263 0.89416
 C623 C 0.81647 0.40246 0.86750
 C624 C 0.84139 0.44402 0.86087
 C625 C 0.90738 0.45563 0.84464
 C626 C 0.93448 0.46916 0.82943
 C627 C 0.78867 0.39605 0.92149
 C628 C 0.76443 0.38386 0.93953
 H629 H 0.85762 0.39156 0.92144
 H630 H 0.85437 0.37614 0.86038
 H631 H 0.90351 0.46748 0.90901
 H632 H 0.84015 0.47481 0.90416
 H633 H 0.79085 0.38338 0.85559
 H634 H 0.83695 0.45944 0.84305
 C635 C 0.56883 0.17732 0.87448
 C636 C 0.59129 0.16536 0.85505
 C637 C 0.56551 0.12533 0.86440
 C638 C 0.54282 0.13677 0.88347
 C639 C 0.59376 0.18153 0.90066
 C640 C 0.56797 0.14146 0.90993
 C641 C 0.61648 0.17011 0.88159
 C642 C 0.59044 0.12959 0.89059
 C643 C 0.54936 0.09327 0.84501
 C644 C 0.53565 0.06617 0.82985
 C645 C 0.60902 0.21199 0.92164
 C646 C 0.62110 0.23620 0.93967
 H647 H 0.56013 0.19731 0.86810
 H648 H 0.60067 0.17478 0.83224
 H649 H 0.51236 0.12271 0.88403
 H650 H 0.55854 0.13195 0.93271
 H651 H 0.64694 0.18418 0.88106
 H652 H 0.59915 0.10961 0.89700
   
