data_POSCAR
  _audit_creation_date              2014-09-24
  _audit_creation_method            'ToBaCCo'
  _symmetry_space_group_name_H-M    'P1'
  _symmetry_Int_Tables_number       1
  _symmetry_cell_setting            triclinic
  loop_
  _symmetry_equiv_pos_as_xyz
 x,y,z
_cell_length_a 31.4899
_cell_length_b 31.4899
_cell_length_c 31.4899
_cell_angle_alpha 90.002900
_cell_angle_beta 89.997100
_cell_angle_gamma 89.996500
loop_
  _atom_site_label
  _atom_site_type_symbol
  _atom_site_fract_x
  _atom_site_fract_y
  _atom_site_fract_z
O1 O 0.55770 0.50003 0.03513
 O2 O 0.44060 0.50003 0.03513
 O3 O 0.49917 0.44162 0.03512
 O4 O 0.49916 0.55845 0.03512
 O5 O 0.49917 0.55845 -0.03512
 O6 O 0.49917 0.44162 -0.03512
 O7 O 0.44061 0.50003 -0.03509
 O8 O 0.55771 0.50003 -0.03509
 Cu9 Cu 0.49915 0.50004 0.04221
 Cu10 Cu 0.49916 0.50003 -0.04219
 C11 C 0.57747 0.50002 0.00002
 C12 C 0.42083 0.50003 0.00002
 C13 C 0.49918 0.42191 -0.00001
 C14 C 0.49918 0.57816 -0.00001
 O15 O -0.03516 0.55938 0.50003
 O16 O -0.03516 0.44229 0.50003
 O17 O -0.03514 0.50083 0.55845
 O18 O -0.03514 0.50083 0.44161
 O19 O 0.03510 0.50082 0.44162
 O20 O 0.03509 0.50083 0.55844
 O21 O 0.03507 0.44229 0.50003
 O22 O 0.03506 0.55939 0.50003
 Cu23 Cu -0.04224 0.50084 0.50003
 Cu24 Cu 0.04217 0.50084 0.50003
 C25 C -0.00005 0.57917 0.50003
 C26 C -0.00005 0.42252 0.50002
 C27 C -0.00002 0.50081 0.57816
 C28 C -0.00002 0.50081 0.42191
 O29 O 0.49998 0.03512 0.55939
 O30 O 0.49998 0.03512 0.44230
 O31 O 0.44156 0.03511 0.50084
 O32 O 0.55839 0.03511 0.50083
 O33 O 0.55839 -0.03513 0.50083
 O34 O 0.44156 -0.03513 0.50083
 O35 O 0.49998 -0.03510 0.44230
 O36 O 0.49998 -0.03510 0.55939
 Cu37 Cu 0.49997 0.04220 0.50085
 Cu38 Cu 0.49998 -0.04220 0.50084
 C39 C 0.49998 0.00001 0.57917
 C40 C 0.49998 0.00001 0.42253
 C41 C 0.42185 -0.00001 0.50082
 C42 C 0.57810 -0.00001 0.50082
 O43 O 0.46482 0.00003 -0.05892
 O44 O 0.46482 0.00004 0.05818
 O45 O 0.46476 0.05845 -0.00036
 O46 O 0.46476 -0.05837 -0.00036
 O47 O 0.53500 -0.05839 -0.00037
 O48 O 0.53500 0.05846 -0.00036
 O49 O 0.53505 0.00003 0.05817
 O50 O 0.53505 0.00003 -0.05892
 Cu51 Cu 0.45770 0.00004 -0.00037
 Cu52 Cu 0.54211 0.00003 -0.00037
 C53 C 0.49994 0.00003 -0.07869
 C54 C 0.49993 0.00003 0.07795
 C55 C 0.49987 0.07816 -0.00035
 C56 C 0.49988 -0.07809 -0.00036
 O57 O -0.05818 0.53516 1.00004
 O58 O 0.05893 0.53515 1.00004
 O59 O 0.00037 0.53521 0.94163
 O60 O 0.00036 0.53521 1.05845
 O61 O 0.00036 0.46497 1.05846
 O62 O 0.00037 0.46497 0.94161
 O63 O 0.05892 0.46492 1.00004
 O64 O -0.05817 0.46494 1.00003
 Cu65 Cu 0.00037 0.54227 1.00004
 Cu66 Cu 0.00037 0.45786 1.00003
 C67 C -0.07794 0.50005 1.00003
 C68 C 0.07869 0.50003 1.00004
 C69 C 0.00036 0.50009 0.92191
 C70 C 0.00035 0.50009 1.07816
 O71 O -0.00002 -0.05893 0.46494
 O72 O -0.00003 0.05816 0.46494
 O73 O 0.05840 -0.00037 0.46499
 O74 O -0.05845 -0.00037 0.46499
 O75 O -0.05844 -0.00037 0.53523
 O76 O 0.05838 -0.00037 0.53522
 O77 O -0.00003 0.05817 0.53517
 O78 O -0.00003 -0.05893 0.53516
 Cu79 Cu -0.00003 -0.00038 0.45787
 Cu80 Cu -0.00003 -0.00038 0.54228
 C81 C -0.00003 -0.07870 0.50005
 C82 C -0.00003 0.07794 0.50005
 C83 C 0.07810 -0.00036 0.50011
 C84 C -0.07815 -0.00036 0.50011
 C85 C -0.23608 0.53830 1.01239
 C86 C -0.26441 0.52983 0.97306
 C87 C -0.29203 0.50000 1.00005
 C88 C -0.26441 0.50846 1.03938
 C89 C -0.20844 0.50001 1.00005
 C90 C -0.23606 0.47018 1.02704
 C91 C -0.23607 0.49155 0.96072
 C92 C -0.26440 0.46172 0.98771
 C93 C -0.33862 0.50000 1.00004
 C94 C -0.37692 0.50001 1.00002
 C95 C -0.16185 0.50002 1.00004
 C96 C -0.12355 0.50004 1.00003
 H97 H -0.22394 0.56980 1.02254
 H98 H -0.27656 0.55437 0.95086
 H99 H -0.27655 0.51542 1.07174
 H100 H -0.22391 0.44564 1.04924
 H101 H -0.22393 0.48459 0.92836
 H102 H -0.27653 0.43021 0.97756
 C103 C 0.23682 0.48616 1.03783
 C104 C 0.26516 0.46037 1.00696
 C105 C 0.29278 0.50000 1.00005
 C106 C 0.26516 0.52579 1.03092
 C107 C 0.20919 0.50000 1.00006
 C108 C 0.23682 0.53963 0.99315
 C109 C 0.23682 0.47420 0.96919
 C110 C 0.26515 0.51383 0.96228
 C111 C 0.33937 0.50000 1.00004
 C112 C 0.37768 0.50002 1.00002
 C113 C 0.16260 0.50000 1.00006
 C114 C 0.12430 0.50002 1.00004
 H115 H 0.22468 0.47478 1.06891
 H116 H 0.27730 0.42776 1.01264
 H117 H 0.27730 0.54702 1.05632
 H118 H 0.22468 0.57223 0.98747
 H119 H 0.22468 0.45297 0.94380
 H120 H 0.27729 0.52521 0.93120
 C121 C 0.01378 -0.23683 0.53778
 C122 C -0.02585 -0.26517 0.53087
 C123 C -0.00005 -0.29279 0.50000
 C124 C 0.03958 -0.26517 0.50691
 C125 C -0.00005 -0.20920 0.50002
 C126 C 0.02575 -0.23682 0.46914
 C127 C -0.03968 -0.23682 0.49310
 C128 C -0.01388 -0.26516 0.46223
 C129 C -0.00005 -0.33938 0.50000
 C130 C -0.00006 -0.37769 0.50001
 C131 C -0.00005 -0.16261 0.50003
 C132 C -0.00003 -0.12431 0.50004
 H133 H 0.02516 -0.22470 0.56886
 H134 H -0.04707 -0.27731 0.55626
 H135 H 0.07219 -0.27731 0.51259
 H136 H 0.04697 -0.22468 0.44375
 H137 H -0.07228 -0.22468 0.48742
 H138 H -0.02526 -0.27730 0.43115
 C139 C 0.03950 0.23606 0.50737
 C140 C 0.02610 0.26439 0.46943
 C141 C -0.00004 0.29203 0.50000
 C142 C 0.01336 0.26441 0.53793
 C143 C -0.00005 0.20843 0.50002
 C144 C -0.02619 0.23607 0.53059
 C145 C -0.01345 0.23605 0.46208
 C146 C -0.03959 0.26440 0.49265
 C147 C -0.00005 0.33861 0.50000
 C148 C -0.00005 0.37692 0.50001
 C149 C -0.00006 0.16185 0.50003
 C150 C -0.00004 0.12354 0.50005
 H151 H 0.07204 0.22391 0.51342
 H152 H 0.04761 0.27652 0.44428
 H153 H 0.02439 0.27655 0.56914
 H154 H -0.04770 0.22394 0.55574
 H155 H -0.02448 0.22391 0.43088
 H156 H -0.07213 0.27655 0.48660
 C157 C 0.53686 -0.01606 -0.23682
 C158 C 0.50450 -0.03994 -0.26516
 C159 C 0.50000 0.00004 -0.29278
 C160 C 0.53237 0.02392 -0.26515
 C161 C 0.49999 0.00003 -0.20919
 C162 C 0.49549 0.04001 -0.23681
 C163 C 0.46762 -0.02385 -0.23683
 C164 C 0.46313 0.01613 -0.26516
 C165 C 0.49999 0.00004 -0.33937
 C166 C 0.49999 0.00001 -0.37768
 C167 C 0.49997 0.00002 -0.16260
 C168 C 0.49994 0.00002 -0.12430
 H169 H 0.56719 -0.02930 -0.22468
 H170 H 0.50820 -0.07282 -0.27731
 H171 H 0.55900 0.04357 -0.27729
 H172 H 0.49179 0.07290 -0.22466
 H173 H 0.44099 -0.04350 -0.22469
 H174 H 0.43280 0.02937 -0.27730
 C175 C 0.53993 -0.00480 0.23606
 C176 C 0.52415 0.03220 0.26440
 C177 C 0.50000 0.00004 0.29203
 C178 C 0.51578 -0.03697 0.26440
 C179 C 0.49999 0.00003 0.20844
 C180 C 0.47584 -0.03214 0.23607
 C181 C 0.48421 0.03703 0.23607
 C182 C 0.46006 0.00487 0.26441
 C183 C 0.49999 0.00003 0.33862
 C184 C 0.49999 0.00001 0.37692
 C185 C 0.49997 0.00002 0.16185
 C186 C 0.49994 0.00003 0.12355
 H187 H 0.57278 -0.00878 0.22391
 H188 H 0.54402 0.05867 0.27653
 H189 H 0.52877 -0.06741 0.27654
 H190 H 0.45597 -0.05860 0.22394
 H191 H 0.47122 0.06748 0.22393
 H192 H 0.42721 0.00885 0.27656
 C193 C 0.51345 -0.23580 0.03761
 C194 C 0.47373 -0.26400 0.03074
 C195 C 0.49946 -0.29169 -0.00009
 C196 C 0.53917 -0.26422 0.00678
 C197 C 0.49969 -0.20824 -0.00021
 C198 C 0.52542 -0.23593 -0.03104
 C199 C 0.45997 -0.23571 -0.00708
 C200 C 0.48570 -0.26413 -0.03791
 C201 C 0.49933 -0.33814 -0.00004
 C202 C 0.49925 -0.37637 -0.00001
 C203 C 0.49980 -0.16179 -0.00027
 C204 C 0.49986 -0.12356 -0.00032
 H205 H 0.52486 -0.22360 0.06866
 H206 H 0.45248 -0.27610 0.05614
 H207 H 0.57173 -0.27650 0.01247
 H208 H 0.54666 -0.22383 -0.05644
 H209 H 0.42742 -0.22344 -0.01277
 H210 H 0.47429 -0.27633 -0.06896
 C211 C 0.53917 0.23598 0.00719
 C212 C 0.52568 0.26430 -0.03071
 C213 C 0.49945 0.29176 -0.00009
 C214 C 0.51294 0.26418 0.03781
 C215 C 0.49968 0.20831 -0.00020
 C216 C 0.47346 0.23577 0.03041
 C217 C 0.48620 0.23589 -0.03810
 C218 C 0.45997 0.26409 -0.00748
 C219 C 0.49933 0.33821 -0.00004
 C220 C 0.49925 0.37644 -0.00002
 C221 C 0.49979 0.16186 -0.00027
 C222 C 0.49985 0.12363 -0.00031
 H223 H 0.57172 0.22387 0.01322
 H224 H 0.54715 0.27657 -0.05583
 H225 H 0.52392 0.27636 0.06901
 H226 H 0.45199 0.22350 0.05554
 H227 H 0.47521 0.22371 -0.06931
 H228 H 0.42742 0.27620 -0.01351
 C229 C -0.23579 0.03812 0.51273
 C230 C -0.26422 0.02969 0.47347
 C231 C -0.29175 -0.00010 0.50054
 C232 C -0.26406 0.00832 0.53980
 C233 C -0.20830 -0.00022 0.50031
 C234 C -0.23584 -0.03001 0.52738
 C235 C -0.23599 -0.00864 0.46105
 C236 C -0.26426 -0.03844 0.48812
 C237 C -0.33820 -0.00005 0.50066
 C238 C -0.37643 -0.00003 0.50075
 C239 C -0.16185 -0.00028 0.50020
 C240 C -0.12362 -0.00032 0.50014
 H241 H -0.22353 0.06959 0.52284
 H242 H -0.27643 0.05424 0.45131
 H243 H -0.27616 0.01529 0.57217
 H244 H -0.22362 -0.05456 0.54954
 H245 H -0.22390 -0.01561 0.42868
 H246 H -0.27652 -0.06991 0.47801
 C247 C 0.23573 -0.01400 0.53817
 C248 C 0.26416 -0.03977 0.50737
 C249 C 0.29170 -0.00009 0.50054
 C250 C 0.26400 0.02567 0.53134
 C251 C 0.20825 -0.00021 0.50031
 C252 C 0.23578 0.03947 0.49348
 C253 C 0.23594 -0.02597 0.46951
 C254 C 0.26422 0.01370 0.46268
 C255 C 0.33815 -0.00004 0.50067
 C256 C 0.37638 -0.00002 0.50075
 C257 C 0.16180 -0.00027 0.50019
 C258 C 0.12357 -0.00032 0.50013
 H259 H 0.22347 -0.02540 0.56919
 H260 H 0.27638 -0.07234 0.51309
 H261 H 0.27609 0.04690 0.55676
 H262 H 0.22357 0.07204 0.48776
 H263 H 0.22386 -0.04720 0.44409
 H264 H 0.27648 0.02509 0.43166
 C265 C 0.04011 0.49553 1.23595
 C266 C 0.02429 0.53262 1.26413
 C267 C 0.00009 0.50053 1.29176
 C268 C 0.01591 0.46344 1.26431
 C269 C 0.00021 0.50029 1.20831
 C270 C -0.02399 0.46819 1.23594
 C271 C -0.01562 0.53738 1.23576
 C272 C -0.03982 0.50528 1.26412
 C273 C 0.00003 0.50065 1.33821
 C274 C -0.00000 0.50074 1.37644
 C275 C 0.00027 0.50018 1.16186
 C276 C 0.00031 0.50012 1.12363
 H277 H 0.07297 0.49152 1.22382
 H278 H 0.04413 0.55911 1.27627
 H279 H 0.02888 0.43305 1.27661
 H280 H -0.04383 0.44170 1.22379
 H281 H -0.02858 0.56777 1.22346
 H282 H -0.07267 0.50929 1.27625
 C283 C 0.03704 0.48427 0.76408
 C284 C 0.00462 0.46047 0.73576
 C285 C 0.00008 0.50053 0.70830
 C286 C 0.03250 0.52434 0.73590
 C287 C 0.00021 0.50029 0.79176
 C288 C -0.00433 0.54035 0.76431
 C289 C -0.03221 0.47648 0.76417
 C290 C -0.03676 0.51655 0.73599
 C291 C 0.00002 0.50066 0.66185
 C292 C -0.00001 0.50074 0.62363
 C293 C 0.00028 0.50018 0.83821
 C294 C 0.00033 0.50012 0.87644
 H295 H 0.06738 0.47100 0.77618
 H296 H 0.00830 0.42763 0.72346
 H297 H 0.05910 0.54401 0.72372
 H298 H -0.00801 0.57319 0.77660
 H299 H -0.05881 0.45681 0.77634
 H300 H -0.06709 0.52982 0.72389
   
