data_POSCAR
  _audit_creation_date              2014-09-24
  _audit_creation_method            'ToBaCCo'
  _symmetry_space_group_name_H-M    'P1'
  _symmetry_Int_Tables_number       1
  _symmetry_cell_setting            triclinic
  loop_
  _symmetry_equiv_pos_as_xyz
 x,y,z
_cell_length_a 46.5990
_cell_length_b 46.5297
_cell_length_c 46.9335
_cell_angle_alpha 89.965900
_cell_angle_beta 89.966100
_cell_angle_gamma 89.950500
loop_
  _atom_site_label
  _atom_site_type_symbol
  _atom_site_fract_x
  _atom_site_fract_y
  _atom_site_fract_z
N1 N 0.29920 0.38217 1.36526
 N2 N 0.30140 0.36112 1.38389
 C3 C 0.27967 0.36313 1.40279
 C4 C 0.26327 0.38667 1.39548
 C5 C 0.27607 0.39830 1.37165
 H6 H 0.27584 0.34845 1.42027
 H7 H 0.26889 0.41681 1.35964
 Cu8 Cu 0.33208 0.33285 1.38111
 Cu9 Cu 0.32586 0.38662 1.33355
 Cu10 Cu 0.38061 0.33635 1.32817
 N11 N 0.36295 0.30484 1.37789
 N12 N 0.38189 0.30638 1.35713
 C13 C 0.40060 0.28444 1.35957
 C14 C 0.39288 0.26849 1.38309
 C15 C 0.36897 0.28182 1.39430
 H16 H 0.41831 0.28030 1.34523
 H17 H 0.35685 0.27512 1.41281
 N18 N 0.37572 0.36824 1.30099
 N19 N 0.35491 0.38744 1.30301
 C20 C 0.35705 0.40604 1.28106
 C21 C 0.38027 0.39805 1.26468
 C22 C 0.39163 0.37412 1.27774
 H23 H 0.34265 0.42382 1.27705
 H24 H 0.40992 0.36176 1.27058
 H25 H 0.33684 0.34365 1.33044
 H26 H 0.36031 0.36679 1.35311
 N27 N 1.19560 0.61887 0.86676
 N28 N 1.19264 0.63902 0.88619
 C29 C 1.21439 0.63697 0.90501
 C30 C 1.23162 0.61432 0.89684
 C31 C 1.21924 0.60329 0.87256
 H32 H 1.21767 0.65100 0.92307
 H33 H 1.22701 0.58546 0.85994
 Cu34 Cu 1.16116 0.66652 0.88478
 Cu35 Cu 1.16895 0.61460 0.83522
 Cu36 Cu 1.11413 0.66454 0.83017
 N37 N 1.13098 0.69516 0.88049
 N38 N 1.11274 0.69439 0.85911
 C39 C 1.09461 0.71688 0.86113
 C40 C 1.10203 0.73237 0.88502
 C41 C 1.12512 0.71822 0.89685
 H42 H 1.07755 0.72171 0.84626
 H43 H 1.13690 0.72443 0.91572
 N44 N 1.11898 0.63276 0.80289
 N45 N 1.13991 0.61370 0.80479
 C46 C 1.13766 0.59497 0.78301
 C47 C 1.11425 0.60273 0.76684
 C48 C 1.10286 0.62667 0.77986
 H49 H 1.15204 0.57716 0.77903
 H50 H 1.08434 0.63879 0.77290
 H51 H 1.15790 0.65769 0.83369
 H52 H 1.13394 0.63347 0.85478
 N53 N 0.69825 -0.12393 0.13260
 N54 N 0.69539 -0.14420 0.11328
 C55 C 0.71713 -0.14215 0.09440
 C56 C 0.73424 -0.11939 0.10246
 C57 C 0.72180 -0.10829 0.12669
 H58 H 0.72046 -0.15623 0.07638
 H59 H 0.72948 -0.09038 0.13922
 Cu60 Cu 0.66387 -0.17162 0.11508
 Cu61 Cu 0.67166 -0.11960 0.16425
 Cu62 Cu 0.61617 -0.16885 0.16900
 N63 N 0.63304 -0.19965 0.11867
 N64 N 0.61446 -0.19845 0.13976
 C65 C 0.59589 -0.22052 0.13745
 C66 C 0.60337 -0.23619 0.11367
 C67 C 0.62696 -0.22257 0.10221
 H68 H 0.57855 -0.22501 0.15212
 H69 H 0.63894 -0.22910 0.08355
 N70 N 0.62147 -0.13736 0.19655
 N71 N 0.64267 -0.11860 0.19476
 C72 C 0.64068 -0.10000 0.21667
 C73 C 0.61719 -0.10751 0.23283
 C74 C 0.60544 -0.13117 0.21966
 H75 H 0.65524 -0.08238 0.22071
 H76 H 0.58671 -0.14300 0.22653
 H77 H 0.65997 -0.16247 0.16607
 H78 H 0.63658 -0.13812 0.14455
 N79 N -0.19495 1.12163 -0.36280
 N80 N -0.19221 1.14210 -0.38195
 C81 C -0.21383 1.14003 -0.40091
 C82 C -0.23077 1.11708 -0.39310
 C83 C -0.21835 1.10583 -0.36891
 H84 H -0.21718 1.15421 -0.41887
 H85 H -0.22589 1.08769 -0.35660
 Cu86 Cu -0.16093 1.16970 -0.38000
 Cu87 Cu -0.16830 1.11721 -0.33119
 Cu88 Cu -0.11300 1.16674 -0.32646
 N89 N -0.13024 1.19779 -0.37651
 N90 N -0.11150 1.19652 -0.35558
 C91 C -0.09311 1.21874 -0.35786
 C92 C -0.10088 1.23457 -0.38146
 C93 C -0.12444 1.22090 -0.39284
 H94 H -0.07574 1.22327 -0.34326
 H95 H -0.13664 1.22755 -0.41130
 N96 N -0.11808 1.13506 -0.29903
 N97 N -0.13921 1.11623 -0.30076
 C98 C -0.13718 1.09767 -0.27878
 C99 C -0.11371 1.10529 -0.26266
 C100 C -0.10206 1.12898 -0.27590
 H101 H -0.15176 1.08010 -0.27461
 H102 H -0.08347 1.14099 -0.26900
 H103 H -0.15680 1.16012 -0.32909
 H104 H -0.13342 1.13605 -0.35093
 N105 N 0.69833 0.62567 0.63940
 N106 N 0.69598 0.64564 0.61968
 C107 C 0.71779 0.64281 0.60100
 C108 C 0.73443 0.61990 0.60961
 C109 C 0.72163 0.60945 0.63395
 H110 H 0.72146 0.65645 0.58269
 H111 H 0.72884 0.59155 0.64680
 Cu112 Cu 0.66499 0.67369 0.62059
 Cu113 Cu 0.67127 0.62235 0.67078
 Cu114 Cu 0.61671 0.67288 0.67403
 N115 N 0.63476 0.70242 0.62339
 N116 N 0.61596 0.70205 0.64432
 C117 C 0.59782 0.72440 0.64129
 C118 C 0.60579 0.73941 0.61724
 C119 C 0.62923 0.72507 0.60636
 H120 H 0.58033 0.72948 0.65559
 H121 H 0.64142 0.73090 0.58762
 N122 N 0.62102 0.64169 0.70212
 N123 N 0.64185 0.62246 0.70089
 C124 C 0.63901 0.60403 0.72287
 C125 C 0.61535 0.61215 0.73848
 C126 C 0.60438 0.63600 0.72493
 H127 H 0.65302 0.58602 0.72723
 H128 H 0.58567 0.64820 0.73124
 H129 H 0.63678 0.64125 0.65036
 H130 H 0.66042 0.66547 0.67169
 N131 N 0.79624 0.37391 0.14216
 N132 N 0.79790 0.35289 0.12348
 C133 C 0.77622 0.35551 0.10466
 C134 C 0.76035 0.37937 0.11208
 C135 C 0.77348 0.39059 0.13589
 H136 H 0.77214 0.34116 0.08700
 H137 H 0.76689 0.40936 0.14780
 Cu138 Cu 0.82809 0.32408 0.12582
 Cu139 Cu 0.82347 0.37794 0.17334
 Cu140 Cu 0.87812 0.32747 0.17733
 N141 N 0.85919 0.29625 0.12801
 N142 N 0.87870 0.29770 0.14821
 C143 C 0.89750 0.27594 0.14496
 C144 C 0.88923 0.26020 0.12151
 C145 C 0.86493 0.27349 0.11119
 H146 H 0.91568 0.27179 0.15866
 H147 H 0.85238 0.26695 0.09294
 N148 N 0.87389 0.35919 0.20482
 N149 N 0.85306 0.37841 0.20332
 C150 C 0.85578 0.39701 0.22516
 C151 C 0.87937 0.38900 0.24094
 C152 C 0.89040 0.36505 0.22764
 H153 H 0.84161 0.41492 0.22943
 H154 H 0.90894 0.35276 0.23427
 H155 H 0.85726 0.35793 0.15281
 H156 H 0.83440 0.33499 0.17626
 N157 N 0.29925 0.12058 0.85781
 N158 N 0.30080 0.14148 0.87661
 C159 C 0.27908 0.13874 0.89538
 C160 C 0.26330 0.11493 0.88780
 C161 C 0.27650 0.10385 0.86394
 H162 H 0.27493 0.15299 0.91311
 H163 H 0.26997 0.08515 0.85191
 Cu164 Cu 0.33087 0.17035 0.87448
 Cu165 Cu 0.32667 0.11668 0.82673
 Cu166 Cu 0.38107 0.16740 0.82317
 N167 N 0.36168 0.19843 0.87246
 N168 N 0.38128 0.19717 0.85231
 C169 C 0.39977 0.21916 0.85559
 C170 C 0.39120 0.23483 0.87900
 C171 C 0.36704 0.22126 0.88926
 H172 H 0.41792 0.22355 0.84189
 H173 H 0.35431 0.22770 0.90744
 N174 N 0.37723 0.13566 0.79564
 N175 N 0.35648 0.11637 0.79692
 C176 C 0.35948 0.09785 0.77503
 C177 C 0.38319 0.10597 0.75948
 C178 C 0.39397 0.12992 0.77293
 H179 H 0.34540 0.07995 0.77056
 H180 H 0.41247 0.14232 0.76645
 H181 H 0.36025 0.13669 0.84742
 H182 H 0.33738 0.15967 0.82401
 N183 N 0.20413 0.87728 0.36301
 N184 N 0.20254 0.85649 0.38197
 C185 C 0.22416 0.85945 0.40082
 C186 C 0.23990 0.88329 0.39311
 C187 C 0.22677 0.89413 0.36912
 H188 H 0.22833 0.84528 0.41862
 H189 H 0.23336 0.91270 0.35690
 Cu190 Cu 0.17256 0.82748 0.37986
 Cu191 Cu 0.17713 0.88075 0.33158
 Cu192 Cu 0.12292 0.82996 0.32789
 N193 N 0.14156 0.79956 0.37788
 N194 N 0.12224 0.80065 0.35747
 C195 C 0.10354 0.77887 0.36087
 C196 C 0.11165 0.76349 0.38462
 C197 C 0.13577 0.77702 0.39498
 H198 H 0.08554 0.77442 0.34702
 H199 H 0.14819 0.77077 0.41343
 N200 N 0.12717 0.86127 0.29995
 N201 N 0.14781 0.88067 0.30135
 C202 C 0.14505 0.89902 0.27928
 C203 C 0.12163 0.89065 0.26346
 C204 C 0.11076 0.86676 0.27695
 H205 H 0.15903 0.91704 0.27493
 H206 H 0.09233 0.85430 0.27039
 H207 H 0.14335 0.86083 0.35219
 H208 H 0.16656 0.83771 0.32922
 Zn209 Zn -0.01505 1.00198 0.03688
 Zn210 Zn 0.03665 0.98180 0.00547
 Zn211 Zn -0.02146 0.97598 -0.02115
 Zn212 Zn 0.00541 1.03396 -0.01411
 O213 O 0.00134 0.99838 0.00173
 O214 O 0.00722 0.98859 0.06502
 O215 O 0.03926 0.94851 -0.01318
 O216 O -0.05350 0.96406 -0.00329
 O217 O 0.04571 0.97385 0.04169
 O218 O -0.04821 0.98299 0.03960
 O219 O -0.00350 0.94390 -0.03307
 O220 O -0.01336 1.03731 -0.04702
 O221 O 0.06509 1.00379 -0.00805
 O222 O -0.03315 0.99453 -0.05280
 O223 O 0.04190 1.04270 -0.02217
 O224 O -0.00796 1.06225 0.00811
 O225 O -0.02327 1.03843 0.04590
 C226 C 0.03205 0.97734 0.06484
 C227 C 0.02169 0.93451 -0.02847
 C228 C -0.06249 0.96809 0.02196
 C229 C -0.02857 1.02002 -0.06143
 C230 C 0.06507 1.02866 -0.01916
 C231 C -0.01966 1.06187 0.03253
 Zn232 Zn 0.48776 0.00936 0.46061
 Zn233 Zn 0.48157 -0.01781 0.51809
 Zn234 Zn 0.53953 -0.01174 0.49130
 Zn235 Zn 0.50864 0.04022 0.51212
 O236 O 0.50434 0.00498 0.49557
 O237 O 0.45442 -0.00929 0.45779
 O238 O 0.49956 -0.04991 0.52976
 O239 O 0.54806 -0.01965 0.45495
 O240 O 0.44957 -0.02948 0.50017
 O241 O 0.50963 -0.00400 0.43214
 O242 O 0.54231 -0.04512 0.50986
 O243 O 0.54529 0.04864 0.52001
 O244 O 0.46982 0.00020 0.54987
 O245 O 0.56819 0.01007 0.50454
 O246 O 0.48990 0.04299 0.54522
 O247 O 0.49537 0.06901 0.49041
 O248 O 0.47991 0.04606 0.45218
 C249 C 0.44034 -0.02474 0.47514
 C250 C 0.52479 -0.05919 0.52517
 C251 C 0.53421 -0.01578 0.43199
 C252 C 0.56840 0.03468 0.51621
 C253 C 0.47448 0.02541 0.55913
 C254 C 0.48371 0.06920 0.46596
 Zn255 Zn 0.96281 0.48447 0.49781
 Zn256 Zn 1.02131 0.47804 0.52353
 Zn257 Zn 1.01410 0.50497 0.46602
 Zn258 Zn 0.99440 0.53624 0.51773
 O259 O 0.99820 0.50089 0.50132
 O260 O 0.96014 0.45129 0.51671
 O261 O 1.05317 0.46629 0.50509
 O262 O 0.99166 0.49165 0.43803
 O263 O 1.00336 0.44601 0.53545
 O264 O 0.95365 0.47626 0.46168
 O265 O 1.04723 0.48610 0.46266
 O266 O 1.00803 0.56473 0.49592
 O267 O 1.03330 0.49599 0.55532
 O268 O 1.02226 0.54152 0.45736
 O269 O 1.01317 0.53880 0.55074
 O270 O 0.95792 0.54531 0.52570
 O271 O 0.93448 0.50675 0.51117
 C272 C 0.97792 0.43702 0.53153
 C273 C 1.06181 0.47085 0.47979
 C274 C 0.96708 0.47993 0.43843
 C275 C 1.01927 0.56471 0.47127
 C276 C 1.02856 0.52119 0.56464
 C277 C 0.93464 0.53158 0.52235
 Zn278 Zn 0.48239 0.49437 0.96416
 Zn279 Zn 0.47630 0.52144 1.02171
 Zn280 Zn 0.50244 0.46291 1.01561
 Zn281 Zn 0.53432 0.51435 0.99512
 O282 O 0.49883 0.49831 0.99920
 O283 O 0.44918 0.51321 0.96139
 O284 O 0.46429 0.50352 1.05353
 O285 O 0.48906 0.43441 0.99364
 O286 O 0.44432 0.53342 1.00375
 O287 O 0.47440 0.45785 0.95537
 O288 O 0.48342 0.46030 1.04854
 O289 O 0.56258 0.49197 1.00849
 O290 O 0.49470 0.55340 1.03327
 O291 O 0.53886 0.45385 1.02377
 O292 O 0.53750 0.54764 1.01369
 O293 O 0.54311 0.52234 0.95881
 O294 O 0.50438 0.50781 0.93586
 C295 C 0.43510 0.52869 0.97871
 C296 C 0.46837 0.47810 1.06258
 C297 C 0.47781 0.43455 0.96902
 C298 C 0.56224 0.46734 1.02014
 C299 C 0.52013 0.56217 1.02875
 C300 C 0.52916 0.51910 0.93582
 C301 C 1.13294 0.43079 0.47858
 C302 C 1.14181 0.43546 0.45044
 C303 C 1.12452 0.45153 0.43201
 C304 C 1.09852 0.46293 0.44159
 C305 C 1.23872 0.39592 0.40823
 C306 C 1.10685 0.44218 0.48825
 C307 C 1.16863 0.42398 0.44023
 C308 C 1.19091 0.41477 0.43085
 C309 C 1.21680 0.40441 0.41901
 C310 C 1.08935 0.45841 0.46983
 H311 H 1.14619 0.41840 0.49305
 H312 H 1.13116 0.45532 0.41020
 H313 H 1.08562 0.47532 0.42684
 H314 H 1.10046 0.43837 0.51011
 C315 C 0.36436 0.56940 0.97889
 C316 C 0.35483 0.56464 0.95100
 C317 C 0.37152 0.54826 0.93230
 C318 C 0.39760 0.53666 0.94135
 C319 C 0.25765 0.60466 0.91014
 C320 C 0.39054 0.55781 0.98803
 C321 C 0.32796 0.57637 0.94128
 C322 C 0.30562 0.58572 0.93223
 C323 C 0.27966 0.59616 0.92069
 C324 C 0.40745 0.54127 0.96933
 H325 H 0.35158 0.58203 0.99356
 H326 H 0.36435 0.54442 0.91067
 H327 H 0.41005 0.52406 0.92638
 H328 H 0.39748 0.56172 1.00969
 C329 C -0.12606 0.94764 0.06811
 C330 C -0.14263 0.93146 0.04917
 C331 C -0.13303 0.92716 0.02122
 C332 C -0.10692 0.93901 0.01226
 C333 C -0.23975 0.89038 0.08916
 C334 C -0.10002 0.95949 0.05924
 C335 C -0.16946 0.91945 0.05867
 C336 C -0.19178 0.90983 0.06748
 C337 C -0.21774 0.89908 0.07875
 C338 C -0.09012 0.95533 0.03120
 H339 H -0.13328 0.95113 0.08979
 H340 H -0.14571 0.91469 0.00637
 H341 H -0.09993 0.93543 -0.00946
 H342 H -0.08766 0.97193 0.07438
 C343 C 0.64762 0.04281 0.53288
 C344 C 0.64800 0.06931 0.54696
 C345 C 0.62251 0.08488 0.55025
 C346 C 0.59666 0.07386 0.53985
 C347 C 0.74352 0.10727 0.59316
 C348 C 0.62180 0.03173 0.52245
 C349 C 0.67434 0.08006 0.55885
 C350 C 0.69628 0.08884 0.56927
 C351 C 0.72183 0.09888 0.58196
 C352 C 0.59597 0.04703 0.52602
 H353 H 0.66722 0.03056 0.53025
 H354 H 0.62256 0.10539 0.56117
 H355 H 0.57719 0.08618 0.54296
 H356 H 0.62203 0.01104 0.51191
 C357 C 0.46681 0.14853 0.45743
 C358 C 0.45275 0.14881 0.43109
 C359 C 0.44964 0.12324 0.41572
 C360 C 0.46015 0.09740 0.42683
 C361 C 0.40576 0.24416 0.39279
 C362 C 0.47733 0.12272 0.46859
 C363 C 0.44060 0.17512 0.42031
 C364 C 0.42995 0.19701 0.41151
 C365 C 0.41704 0.22249 0.40138
 C366 C 0.47389 0.09680 0.45353
 H367 H 0.46932 0.16820 0.46951
 H368 H 0.43877 0.12320 0.39532
 H369 H 0.45715 0.07786 0.41467
 H370 H 0.48782 0.12302 0.48917
 C371 C 0.97866 0.36675 0.57280
 C372 C 0.95059 0.35701 0.56837
 C373 C 0.93155 0.37343 0.55208
 C374 C 0.94046 0.39944 0.54016
 C375 C 0.91118 0.25941 0.60909
 C376 C 0.98766 0.39283 0.56087
 C377 C 0.94112 0.33012 0.58027
 C378 C 0.93238 0.30769 0.58978
 C379 C 0.92130 0.28158 0.60040
 C380 C 0.96864 0.40945 0.54437
 H381 H 0.99357 0.35420 0.58540
 H382 H 0.90977 0.36611 0.54853
 H383 H 0.92526 0.41167 0.52760
 H384 H 1.00947 0.39993 0.56453
 C385 C 0.02111 0.86393 -0.06919
 C386 C 0.04914 0.85415 -0.06452
 C387 C 0.06804 0.87058 -0.04812
 C388 C 0.05907 0.89667 -0.03645
 C389 C 0.08976 0.75707 -0.10540
 C390 C 0.01205 0.89012 -0.05752
 C391 C 0.05883 0.82732 -0.07640
 C392 C 0.06786 0.80501 -0.08593
 C393 C 0.07934 0.77908 -0.09662
 C394 C 0.03097 0.90679 -0.04102
 H395 H 0.00627 0.85135 -0.08183
 H396 H 0.08978 0.86321 -0.04435
 H397 H 0.07420 0.90892 -0.02386
 H398 H -0.00973 0.89726 -0.06139
 C399 C 0.56775 0.62519 1.04810
 C400 C 0.54903 0.64234 1.06403
 C401 C 0.52073 0.63331 1.06855
 C402 C 0.51120 0.60718 1.05715
 C403 C 0.59088 0.73923 1.10408
 C404 C 0.55831 0.59915 1.03670
 C405 C 0.55915 0.66916 1.07559
 C406 C 0.56849 0.69143 1.08488
 C407 C 0.58026 0.71730 1.09538
 C408 C 0.52992 0.58980 1.04108
 H409 H 0.58969 0.63196 1.04445
 H410 H 0.50603 0.64644 1.08083
 H411 H 0.48922 0.60064 1.06086
 H412 H 0.57329 0.58636 1.02444
 C413 C 0.42693 0.47897 1.13235
 C414 C 0.43128 0.45082 1.14201
 C415 C 0.44763 0.43171 1.12571
 C416 C 0.45964 0.44061 1.09991
 C417 C 0.39012 0.41108 1.23869
 C418 C 0.43894 0.48796 1.10647
 C419 C 0.41920 0.44132 1.16866
 C420 C 0.40957 0.43253 1.19086
 C421 C 0.39883 0.42134 1.21673
 C422 C 0.45546 0.46885 1.08997
 H423 H 0.41432 0.49397 1.14481
 H424 H 0.45115 0.40988 1.13298
 H425 H 0.47221 0.42533 1.08777
 H426 H 0.43533 0.50983 1.09943
 C427 C 0.58462 -0.05019 0.37846
 C428 C 0.56915 -0.04696 0.35312
 C429 C 0.54268 -0.03273 0.35339
 C430 C 0.53150 -0.02214 0.37896
 C431 C 0.60726 -0.09382 0.25842
 C432 C 0.57350 -0.03961 0.40407
 C433 C 0.57996 -0.05909 0.32704
 C434 C 0.58877 -0.06970 0.30531
 C435 C 0.59883 -0.08256 0.27997
 C436 C 0.54668 -0.02568 0.40466
 H437 H 0.60511 -0.06121 0.37850
 H438 H 0.53052 -0.03014 0.33389
 H439 H 0.51082 -0.01151 0.37866
 H440 H 0.58574 -0.04270 0.42344
 C441 C -0.04805 1.06817 -0.12363
 C442 C -0.06409 1.04957 -0.14073
 C443 C -0.06867 1.02117 -0.13193
 C444 C -0.05721 1.01143 -0.10608
 C445 C -0.10383 1.09196 -0.23684
 C446 C -0.03659 1.05852 -0.09787
 C447 C -0.07564 1.05988 -0.16729
 C448 C -0.08489 1.06934 -0.18937
 C449 C -0.09528 1.08124 -0.21505
 C450 C -0.04101 1.03002 -0.08876
 H451 H -0.04437 1.09018 -0.13023
 H452 H -0.08105 1.00658 -0.14504
 H453 H -0.06097 0.98938 -0.09971
 H454 H -0.02424 1.07342 -0.08510
 C455 C 1.06894 0.52037 0.63499
 C456 C 1.06407 0.54841 0.64470
 C457 C 1.04774 0.56741 0.62826
 C458 C 1.03628 0.55852 0.60225
 C459 C 1.10425 0.58936 0.74111
 C460 C 1.05749 0.51140 0.60888
 C461 C 1.07573 0.55804 0.67144
 C462 C 1.08508 0.56711 0.69362
 C463 C 1.09559 0.57874 0.71934
 C464 C 1.04101 0.53041 0.59222
 H465 H 1.08157 0.50548 0.64756
 H466 H 1.04385 0.58916 0.63557
 H467 H 1.02371 0.57372 0.59001
 H468 H 1.06148 0.48961 0.60179
 C469 C 0.85561 0.54131 0.53926
 C470 C 0.85558 0.56833 0.55233
 C471 C 0.88126 0.58365 0.55500
 C472 C 0.90695 0.57188 0.54493
 C473 C 0.76020 0.60939 0.59643
 C474 C 0.88126 0.52949 0.52916
 C475 C 0.82935 0.57996 0.56372
 C476 C 0.80746 0.58947 0.57366
 C477 C 0.78192 0.60034 0.58574
 C478 C 0.90728 0.54456 0.53205
 H479 H 0.83585 0.52925 0.53714
 H480 H 0.88148 0.60456 0.56514
 H481 H 0.92658 0.58405 0.54749
 H482 H 0.88075 0.50842 0.51938
 C483 C 0.61503 0.41575 1.05435
 C484 C 0.64083 0.43084 1.05151
 C485 C 0.64110 0.45749 1.03767
 C486 C 0.61562 0.46919 1.02703
 C487 C 0.73499 0.39005 1.09828
 C488 C 0.58952 0.42739 1.04373
 C489 C 0.66682 0.41941 1.06360
 C490 C 0.68845 0.40999 1.07416
 C491 C 0.71361 0.39916 1.08699
 C492 C 0.58948 0.45437 1.03015
 H493 H 0.61458 0.39512 1.06506
 H494 H 0.66095 0.46938 1.03540
 H495 H 0.61634 0.48999 1.01669
 H496 H 0.56980 0.41541 1.04648
 C497 C 0.11826 1.07975 -0.05338
 C498 C 0.14383 1.06415 -0.05108
 C499 C 0.14385 1.03733 -0.03757
 C500 C 0.11832 1.02595 -0.02673
 C501 C 0.23796 1.10419 -0.09843
 C502 C 0.09270 1.06844 -0.04255
 C503 C 0.16984 1.07527 -0.06338
 C504 C 0.19146 1.08448 -0.07411
 C505 C 0.21660 1.09515 -0.08708
 C506 C 0.09239 1.04129 -0.02931
 H507 H 0.11801 1.10051 -0.06383
 H508 H 0.16354 1.02506 -0.03572
 H509 H 0.11883 1.00501 -0.01666
 H510 H 0.07314 1.08079 -0.04490
 C511 C 0.37054 -0.06686 0.47519
 C512 C 0.36067 -0.06183 0.44746
 C513 C 0.37668 -0.04456 0.42897
 C514 C 0.40250 -0.03243 0.43804
 C515 C 0.26537 -0.10582 0.40650
 C516 C 0.39643 -0.05474 0.48435
 C517 C 0.33428 -0.07446 0.43766
 C518 C 0.31236 -0.08471 0.42860
 C519 C 0.28692 -0.09629 0.41707
 C520 C 0.41274 -0.03743 0.46582
 H521 H 0.35829 -0.08021 0.48969
 H522 H 0.36924 -0.04052 0.40747
 H523 H 0.41448 -0.01921 0.42323
 H524 H 0.40368 -0.05898 0.50586
 C525 C 0.57124 -0.12300 0.54507
 C526 C 0.55260 -0.13897 0.56223
 C527 C 0.52468 -0.12900 0.56718
 C528 C 0.51548 -0.10308 0.55507
 C529 C 0.59299 -0.23482 0.60614
 C530 C 0.56213 -0.09714 0.53296
 C531 C 0.56242 -0.16545 0.57477
 C532 C 0.57142 -0.18747 0.58496
 C533 C 0.58275 -0.21308 0.59654
 C534 C 0.53416 -0.08681 0.53786
 H535 H 0.59289 -0.13051 0.54109
 H536 H 0.51005 -0.14121 0.58043
 H537 H 0.49382 -0.09575 0.55923
 H538 H 0.57707 -0.08521 0.51982
 C539 C 1.05401 0.61796 0.42075
 C540 C 1.05160 0.64358 0.43617
 C541 C 1.03792 0.64358 0.46271
 C542 C 1.02696 0.61802 0.47397
 C543 C 1.09825 0.73808 0.39576
 C544 C 1.04307 0.59237 0.43194
 C545 C 1.06384 0.66966 0.42507
 C546 C 1.07443 0.69137 0.41583
 C547 C 1.08717 0.71663 0.40503
 C548 C 1.02958 0.59206 0.45879
 H549 H 1.06463 0.61771 0.40020
 H550 H 1.03600 0.66329 0.47485
 H551 H 1.01676 0.61853 0.49470
 H552 H 1.04552 0.57278 0.41973
 C553 C -0.05402 1.11463 0.08381
 C554 C -0.05120 1.14050 0.06887
 C555 C -0.03737 1.14083 0.04240
 C556 C -0.02669 1.11532 0.03073
 C557 C -0.09728 1.23481 0.11041
 C558 C -0.04337 1.08910 0.07220
 C559 C -0.06318 1.16654 0.08038
 C560 C -0.07361 1.18819 0.08993
 C561 C -0.08622 1.21340 0.10102
 C562 C -0.02975 1.08912 0.04542
 H563 H -0.06474 1.11413 0.10430
 H564 H -0.03511 1.16074 0.03063
 H565 H -0.01636 1.11609 0.01007
 H566 H -0.04612 1.06931 0.08405
 C567 C 0.44521 0.38127 0.91722
 C568 C 0.44789 0.35549 0.93234
 C569 C 0.46089 0.35542 0.95921
 C570 C 0.47096 0.38107 0.97105
 C571 C 0.40421 0.26045 0.89010
 C572 C 0.45525 0.40695 0.92900
 C573 C 0.43661 0.32928 0.92058
 C574 C 0.42676 0.30745 0.91084
 C575 C 0.41479 0.28204 0.89957
 C576 C 0.46810 0.40717 0.95614
 H577 H 0.43512 0.38158 0.89643
 H578 H 0.46300 0.33558 0.97113
 H579 H 0.48072 0.38049 0.99198
 H580 H 0.45271 0.42664 0.91695
 C581 C 0.57996 0.55351 0.88270
 C582 C 0.56432 0.55112 0.85737
 C583 C 0.53760 0.53742 0.85749
 C584 C 0.52636 0.52651 0.88292
 C585 C 0.60441 0.59857 0.76373
 C586 C 0.56878 0.54262 0.90815
 C587 C 0.57534 0.56350 0.83148
 C588 C 0.58453 0.57429 0.80998
 C589 C 0.59525 0.58728 0.78498
 C590 C 0.54172 0.52921 0.90860
 H591 H 0.60065 0.56411 0.88284
 H592 H 0.52529 0.53549 0.83801
 H593 H 0.50547 0.51632 0.88252
 H594 H 0.58115 0.54507 0.92751
 C595 C 0.43255 0.02483 0.62855
 C596 C 0.43754 0.05272 0.63855
 C597 C 0.45466 0.07153 0.62270
 C598 C 0.46669 0.06261 0.59692
 C599 C 0.39407 0.09292 0.73394
 C600 C 0.44458 0.01582 0.60272
 C601 C 0.42510 0.06234 0.66495
 C602 C 0.41500 0.07124 0.68689
 C603 C 0.40354 0.08257 0.71236
 C604 C 0.46176 0.03466 0.58658
 H605 H 0.41933 0.01008 0.64068
 H606 H 0.45867 0.09316 0.63025
 H607 H 0.47982 0.07765 0.58509
 H608 H 0.44040 -0.00584 0.59538
 C609 C 0.08441 0.94500 0.11778
 C610 C 0.06921 0.94783 0.14334
 C611 C 0.04217 0.96094 0.14338
 C612 C 0.03020 0.97088 0.11790
 C613 C 0.11091 0.90379 0.23789
 C614 C 0.07249 0.95492 0.09227
 C615 C 0.08098 0.93651 0.16937
 C616 C 0.09063 0.92658 0.19107
 C617 C 0.10169 0.91448 0.21637
 C618 C 0.04514 0.96779 0.09200
 H619 H 0.10534 0.93486 0.11751
 H620 H 0.03022 0.96320 0.16306
 H621 H 0.00913 0.98071 0.11846
 H622 H 0.08458 0.95224 0.07274
 C623 C 0.95719 0.46229 0.36015
 C624 C 0.93056 0.44843 0.36044
 C625 C 0.91549 0.44557 0.38608
 C626 C 0.92714 0.45621 0.41141
 C627 C 0.88997 0.40242 0.26639
 C628 C 0.96889 0.47296 0.38544
 C629 C 0.91910 0.43642 0.33459
 C630 C 0.90973 0.42600 0.31301
 C631 C 0.89899 0.41343 0.28782
 C632 C 0.95409 0.46986 0.41141
 H633 H 0.96905 0.46459 0.34042
 H634 H 0.89487 0.43483 0.38656
 H635 H 0.91519 0.45345 0.43101
 H636 H 0.98968 0.48333 0.38469
   
