data_POSCAR
  _audit_creation_date              2014-09-24
  _audit_creation_method            'ToBaCCo'
  _symmetry_space_group_name_H-M    'P1'
  _symmetry_Int_Tables_number       1
  _symmetry_cell_setting            triclinic
  loop_
  _symmetry_equiv_pos_as_xyz
 x,y,z
_cell_length_a 14.5111
_cell_length_b 12.8512
_cell_length_c 13.2590
_cell_angle_alpha 89.738400
_cell_angle_beta 90.233300
_cell_angle_gamma 89.791000
loop_
  _atom_site_label
  _atom_site_type_symbol
  _atom_site_fract_x
  _atom_site_fract_y
  _atom_site_fract_z
C1 C 0.40086 1.00005 -0.55658
 C2 C 0.40079 0.99967 -0.44876
 C3 C 0.48604 1.00029 -0.39757
 C4 C 0.57163 1.00059 -0.44761
 C5 C 0.57187 0.99952 -0.55569
 C6 C 0.48637 0.99963 -0.60686
 H7 H 0.48636 0.99937 -0.68893
 H8 H 0.48555 1.00054 -0.31555
 C9 C -0.60163 1.44742 0.00071
 C10 C -0.60171 1.55712 -0.00125
 C11 C -0.51779 1.61010 -0.00107
 C12 C -0.43408 1.55627 -0.00005
 C13 C -0.43419 1.44672 -0.00028
 C14 C -0.51789 1.39376 0.00062
 H15 H -0.51785 1.30919 0.00122
 H16 H -0.51744 1.69472 -0.00166
 C17 C 0.10137 0.55456 0.59210
 C18 C 0.09960 0.44491 0.59297
 C19 C 0.11952 0.39167 0.50494
 C20 C 0.10675 0.44389 0.41437
 C21 C 0.10573 0.55309 0.41341
 C22 C 0.12036 0.60627 0.50257
 H23 H 0.12028 0.69109 0.50116
 H24 H 0.11885 0.30684 0.50535
 O25 O -0.25240 1.00313 -0.14321
 O26 O 0.22112 0.99753 -0.14230
 O27 O -0.01123 1.14694 -0.25557
 O28 O -0.00206 0.85592 -0.25403
 O29 O -0.01067 0.73173 -0.12848
 O30 O -0.01800 1.26932 -0.12919
 O31 O 0.10659 0.99949 -0.26443
 O32 O -0.13832 1.00244 -0.26500
 Zr33 Zr -0.01575 1.00105 -0.17876
 O34 O 0.06832 0.90760 -0.09118
 O35 O -0.10135 1.09405 -0.09302
 C36 C -0.22386 1.00358 -0.23716
 C37 C 0.19224 0.99764 -0.23624
 C38 C -0.00939 1.24170 -0.22120
 C39 C 0.00151 0.76094 -0.21969
 H40 H 0.10795 1.13686 -0.13233
 O41 O 0.06782 1.09235 -0.09062
 H42 H -0.13747 0.86227 -0.13581
 O43 O -0.09982 0.90783 -0.09222
 O44 O 0.22221 1.00186 0.14183
 O45 O -0.25176 0.99735 0.14235
 O46 O 0.10487 1.26680 0.00292
 O47 O 0.10644 0.73276 -0.00326
 O48 O -0.13863 0.73372 0.00271
 O49 O -0.13950 1.26652 -0.00230
 O50 O -0.00039 1.14291 0.25430
 O51 O -0.00851 0.85320 0.25574
 O52 O -0.00982 1.26737 0.12897
 O53 O -0.01511 0.73063 0.12955
 O54 O 0.22076 1.14312 0.00364
 O55 O -0.25399 1.14251 -0.00257
 O56 O -0.25353 0.85824 0.00207
 O57 O 0.22156 0.85641 -0.00397
 O58 O 0.10866 0.99987 0.26407
 O59 O -0.13702 0.99746 0.26443
 Zr60 Zr 0.14922 0.99973 -0.00019
 Zr61 Zr -0.18034 1.00016 -0.00022
 Zr62 Zr -0.01700 1.17895 -0.00015
 Zr63 Zr -0.01618 0.82067 0.00017
 Zr64 Zr -0.01456 0.99854 0.17856
 O65 O -0.10038 0.90589 0.09276
 O66 O 0.06851 1.09172 0.09097
 C67 C 0.19410 1.00173 0.23578
 C68 C -0.22279 0.99666 0.23636
 C69 C 0.19031 1.23837 0.00454
 C70 C 0.19174 0.76118 -0.00488
 C71 C -0.22388 0.76280 0.00327
 C72 C -0.22461 1.23783 -0.00333
 C73 C 0.00338 1.23776 0.22008
 C74 C -0.00598 0.75850 0.22152
 H75 H -0.13709 1.13786 0.13579
 O76 O -0.09967 1.09215 0.09214
 H77 H 0.10967 0.86274 0.13201
 O78 O 0.06892 0.90727 0.09036
 C79 C 0.32345 1.00093 0.38161
 C80 C 0.26322 1.00163 0.31670
 C81 C -0.35086 0.99823 0.38272
 C82 C -0.29118 0.99715 0.31762
 C83 C -0.35152 1.00200 -0.38489
 C84 C -0.29226 1.00314 -0.31888
 C85 C 0.31949 0.99855 -0.38306
 C86 C 0.26045 0.99776 -0.31742
 C87 C 0.31713 1.38396 0.00285
 C88 C 0.25701 1.31988 0.00432
 C89 C 0.32076 0.61687 -0.00323
 C90 C 0.25933 0.67998 -0.00470
 C91 C -0.35237 0.61895 0.00161
 C92 C -0.29143 0.68211 0.00287
 C93 C -0.35276 1.38302 -0.00181
 C94 C -0.29214 1.31902 -0.00298
 C95 C 0.06731 1.38125 0.33805
 C96 C 0.03429 1.31707 0.28460
 C97 C 0.05652 1.38656 -0.33714
 C98 C 0.02062 1.32254 -0.28523
 C99 C 0.06324 0.61533 -0.33693
 C100 C 0.03088 0.68056 -0.28403
 C101 C 0.06137 0.61439 0.33832
 C102 C 0.02525 0.67822 0.28588
   
