data_POSCAR
  _audit_creation_date              2014-09-24
  _audit_creation_method            'ToBaCCo'
  _symmetry_space_group_name_H-M    'P1'
  _symmetry_Int_Tables_number       1
  _symmetry_cell_setting            triclinic
  loop_
  _symmetry_equiv_pos_as_xyz
 x,y,z
_cell_length_a 30.4010
_cell_length_b 30.4279
_cell_length_c 30.4838
_cell_angle_alpha 80.562100
_cell_angle_beta 97.515000
_cell_angle_gamma 101.300100
loop_
  _atom_site_label
  _atom_site_type_symbol
  _atom_site_fract_x
  _atom_site_fract_y
  _atom_site_fract_z
C1 C 0.58215 0.58303 0.00868
 C2 C 0.59013 0.54194 -0.00154
 C3 C 0.55281 0.50652 -0.00600
 C4 C 0.50943 0.51022 0.00325
 C5 C 0.50355 0.55147 0.01500
 C6 C 0.53913 0.58873 0.01636
 C7 C 0.47060 0.47097 0.00159
 C8 C 0.42545 0.47795 -0.00425
 C9 C 0.38918 0.44135 -0.00303
 C10 C 0.39787 0.39729 0.00027
 C11 C 0.44221 0.38927 0.00437
 C12 C 0.47817 0.42597 0.00667
 H13 H 0.60893 0.61222 0.00666
 H14 H 0.55782 0.47532 -0.01516
 H15 H 0.47166 0.55432 0.02519
 H16 H 0.41791 0.51174 -0.00899
 H17 H 0.36983 0.36927 -0.00125
 H18 H 0.51194 0.41865 0.01343
 C19 C -0.00617 0.60003 0.39884
 C20 C 0.00043 0.61100 0.44271
 C21 C 0.00664 0.57622 0.47848
 C22 C 0.00214 0.53083 0.47148
 C23 C -0.00671 0.52107 0.42717
 C24 C -0.00874 0.55541 0.39019
 C25 C 0.00611 0.49344 0.51010
 C26 C 0.01789 0.45251 0.50351
 C27 C 0.01950 0.41647 0.53846
 C28 C 0.01211 0.42214 0.58133
 C29 C 0.00254 0.46304 0.58973
 C30 C -0.00184 0.49792 0.55376
 H31 H -0.00531 0.62736 0.37129
 H32 H 0.01325 0.58426 0.51209
 H33 H -0.01395 0.48624 0.42133
 H34 H 0.02637 0.44818 0.47133
 H35 H 0.01262 0.39401 0.60814
 H36 H -0.01127 0.52842 0.56035
 C37 C 0.59645 -0.00644 0.59813
 C38 C 0.55167 -0.00974 0.60681
 C39 C 0.51785 -0.00883 0.57094
 C40 C 0.52840 -0.00117 0.52639
 C41 C 0.57398 0.00382 0.51854
 C42 C 0.60832 -0.00074 0.55409
 C43 C 0.49179 0.00097 0.48839
 C44 C 0.49691 -0.01058 0.44658
 C45 C 0.46268 -0.00849 0.41107
 C46 C 0.42211 0.00339 0.41771
 C47 C 0.41577 0.01419 0.45904
 C48 C 0.45096 0.01404 0.49375
 H49 H 0.62248 -0.00575 0.62598
 H50 H 0.48316 -0.01472 0.57825
 H51 H 0.58241 0.00950 0.48456
 H52 H 0.52694 -0.02223 0.44133
 H53 H 0.39526 0.00405 0.39059
 H54 H 0.44617 0.02466 0.52468
 O55 O 0.46458 -0.01564 -0.05912
 O56 O 0.45478 -0.02544 0.06154
 O57 O 0.45278 0.03930 -0.00517
 O58 O 0.46427 -0.08037 0.00833
 O59 O 0.53824 -0.06062 0.01950
 O60 O 0.52647 0.05916 0.00823
 O61 O 0.52877 -0.00698 0.07396
 O62 O 0.53827 0.00486 -0.04628
 Cu63 Cu 0.45167 -0.02230 -0.00011
 Cu64 Cu 0.54033 0.00134 0.01492
 C65 C 0.50336 -0.00447 -0.07319
 C66 C 0.49024 -0.01826 0.08840
 C67 C 0.48743 0.06963 0.00026
 C68 C 0.50320 -0.09099 0.01617
 O69 O -0.05999 0.54170 0.97819
 O70 O 0.05925 0.52854 0.98869
 O71 O -0.00523 0.53103 0.92365
 O72 O 0.00435 0.54176 1.04314
 O73 O -0.01686 0.46793 1.05960
 O74 O -0.02470 0.45692 0.93987
 O75 O 0.03850 0.45470 1.00563
 O76 O -0.08042 0.46764 0.99365
 Cu77 Cu 0.00179 0.54315 0.98194
 Cu78 Cu -0.02280 0.45441 1.00144
 C79 C -0.09061 0.50686 0.98412
 C80 C 0.06918 0.48914 0.99833
 C81 C -0.01632 0.49215 0.91129
 C82 C -0.00549 0.50696 1.07177
 O83 O -0.00191 -0.03906 0.45429
 O84 O 0.01173 0.08126 0.46542
 O85 O 0.06540 0.02792 0.45529
 O86 O -0.05609 0.01408 0.46706
 O87 O -0.04166 -0.00240 0.54009
 O88 O 0.07901 0.01184 0.52849
 O89 O 0.02527 0.06493 0.53859
 O90 O 0.01202 -0.05607 0.52731
 Cu91 Cu 0.00318 0.02253 0.45318
 Cu92 Cu 0.01987 0.00268 0.54095
 C93 C 0.00352 -0.06810 0.48860
 C94 C 0.02093 0.09380 0.50380
 C95 C 0.09296 0.02242 0.49004
 C96 C -0.06946 0.00425 0.50588
 C97 C -0.27579 0.52719 0.98422
 C98 C -0.31286 0.50077 0.96278
 C99 C -0.35694 0.50553 0.96705
 C100 C -0.36527 0.53687 0.99315
 C101 C -0.32741 0.56292 1.01479
 C102 C -0.28360 0.55823 1.01023
 C103 C -0.22893 0.52192 0.98067
 C104 C -0.19464 0.56017 0.97522
 C105 C -0.14989 0.55531 0.97524
 C106 C -0.13840 0.51205 0.98090
 C107 C -0.17288 0.47379 0.98516
 C108 C -0.21771 0.47869 0.98490
 H109 H -0.38401 0.48564 0.94823
 H110 H -0.33109 0.58576 1.03722
 H111 H -0.12419 0.58546 0.97169
 H112 H -0.16516 0.43998 0.98948
 H113 H -0.25570 0.57818 1.02819
 H114 H -0.20242 0.59393 0.97130
 H115 H -0.30773 0.47689 0.94203
 H116 H -0.24338 0.44862 0.98951
 C117 C 0.25335 0.46332 0.99841
 C118 C 0.28191 0.49135 0.96837
 C119 C 0.32592 0.48423 0.96757
 C120 C 0.34225 0.44880 0.99665
 C121 C 0.31374 0.42087 1.02666
 C122 C 0.26992 0.42809 1.02761
 C123 C 0.20632 0.47031 0.99912
 C124 C 0.17120 0.43295 1.00562
 C125 C 0.12697 0.43919 1.00615
 C126 C 0.11659 0.48296 0.99996
 C127 C 0.15165 0.52040 0.99364
 C128 C 0.19603 0.51414 0.99328
 H129 H 0.34698 0.50605 0.94381
 H130 H 0.32566 0.39386 1.05007
 H131 H 0.10076 0.40958 1.01074
 H132 H 0.14480 0.55457 0.98879
 H133 H 0.24923 0.40642 1.05177
 H134 H 0.17773 0.39873 1.00948
 H135 H 0.27001 0.51836 0.94497
 H136 H 0.22234 0.54366 0.98882
 C137 C -0.00051 -0.25414 0.46473
 C138 C 0.02477 -0.28198 0.49500
 C139 C 0.02516 -0.32625 0.48808
 C140 C 0.00057 -0.34401 0.45027
 C141 C -0.02488 -0.31569 0.42022
 C142 C -0.02558 -0.27175 0.42750
 C143 C -0.00021 -0.20664 0.47129
 C144 C -0.00085 -0.17237 0.43428
 C145 C -0.00046 -0.12772 0.44002
 C146 C 0.00103 -0.11599 0.48296
 C147 C 0.00169 -0.15011 0.52008
 C148 C 0.00092 -0.19499 0.51430
 H149 H 0.04664 -0.34544 0.51154
 H150 H -0.04612 -0.32785 0.39177
 H151 H -0.00052 -0.10221 0.41073
 H152 H 0.00279 -0.14214 0.55359
 H153 H -0.04647 -0.25175 0.40412
 H154 H -0.00081 -0.17983 0.40077
 H155 H 0.04524 -0.26919 0.52357
 H156 H 0.00081 -0.22061 0.54349
 C157 C 0.03216 0.28286 0.51899
 C158 C 0.00509 0.30833 0.48796
 C159 C 0.00245 0.35241 0.49334
 C160 C 0.02658 0.37188 0.53001
 C161 C 0.05479 0.34707 0.56023
 C162 C 0.05766 0.30307 0.55471
 C163 C 0.03200 0.23475 0.51523
 C164 C 0.03212 0.20207 0.55365
 C165 C 0.02932 0.15640 0.55003
 C166 C 0.02606 0.14235 0.50790
 C167 C 0.02672 0.17507 0.46954
 C168 C 0.02979 0.22076 0.47317
 H169 H -0.02000 0.37057 0.46988
 H170 H 0.07421 0.36156 0.58847
 H171 H 0.02875 0.13199 0.58020
 H172 H 0.02463 0.16536 0.43660
 H173 H 0.07951 0.28471 0.57868
 H174 H 0.03306 0.21159 0.58651
 H175 H -0.01548 0.29360 0.46044
 H176 H 0.03035 0.24514 0.44300
 C177 C 0.52474 -0.01104 -0.25761
 C178 C 0.50099 0.01270 -0.29336
 C179 C 0.50896 0.01223 -0.33740
 C180 C 0.54059 -0.01229 -0.34663
 C181 C 0.56314 -0.03729 -0.31083
 C182 C 0.55543 -0.03651 -0.26682
 C183 C 0.51882 -0.00804 -0.21077
 C184 C 0.55668 -0.00102 -0.17935
 C185 C 0.55156 0.00128 -0.13502
 C186 C 0.50839 -0.00374 -0.12096
 C187 C 0.47046 -0.01019 -0.15252
 C188 C 0.47565 -0.01207 -0.19709
 H189 H 0.49147 0.03235 -0.36414
 H190 H 0.58702 -0.05725 -0.31681
 H191 H 0.58149 0.00623 -0.11158
 H192 H 0.43677 -0.01425 -0.14269
 H193 H 0.57359 -0.05577 -0.23987
 H194 H 0.59037 0.00290 -0.18916
 H195 H 0.47743 0.03290 -0.28715
 H196 H 0.44590 -0.01765 -0.22066
 C197 C 0.47817 -0.02568 0.27727
 C198 C 0.51266 0.00071 0.30214
 C199 C 0.50844 0.00465 0.34633
 C200 C 0.46949 -0.01730 0.36638
 C201 C 0.43570 -0.04490 0.34221
 C202 C 0.44010 -0.04925 0.29818
 C203 C 0.48089 -0.02661 0.22914
 C204 C 0.44215 -0.02630 0.19837
 C205 C 0.44502 -0.02451 0.15275
 C206 C 0.48676 -0.02251 0.13683
 C207 C 0.52538 -0.02354 0.16755
 C208 C 0.52244 -0.02580 0.21322
 H209 H 0.53471 0.02650 0.36420
 H210 H 0.40560 -0.06261 0.35723
 H211 H 0.41471 -0.02356 0.12984
 H212 H 0.55796 -0.02248 0.15629
 H213 H 0.41341 -0.07064 0.28033
 H214 H 0.40975 -0.02608 0.20934
 H215 H 0.54212 0.01984 0.28694
 H216 H 0.55278 -0.02680 0.23606
 C217 C 0.52042 -0.27902 0.02885
 C218 C 0.56092 -0.29390 0.04624
 C219 C 0.56666 -0.33770 0.04338
 C220 C 0.53178 -0.36843 0.02353
 C221 C 0.49017 -0.35417 0.00872
 C222 C 0.48480 -0.31001 0.01089
 C223 C 0.51619 -0.23087 0.02754
 C224 C 0.47478 -0.21914 0.03253
 C225 C 0.47056 -0.17372 0.02898
 C226 C 0.50780 -0.13904 0.02098
 C227 C 0.54936 -0.15066 0.01685
 C228 C 0.55343 -0.19598 0.01974
 H229 H 0.59845 -0.34749 0.05757
 H230 H 0.46249 -0.37582 -0.00764
 H231 H 0.43818 -0.16575 0.03269
 H232 H 0.57856 -0.12465 0.01032
 H233 H 0.45328 -0.29965 -0.00338
 H234 H 0.44559 -0.24503 0.03931
 H235 H 0.58851 -0.27155 0.06189
 H236 H 0.58560 -0.20355 0.01473
 C237 C 0.46470 0.25375 0.00324
 C238 C 0.43105 0.26118 0.02728
 C239 C 0.42431 0.30510 0.02843
 C240 C 0.45095 0.34264 0.00542
 C241 C 0.48509 0.33520 -0.01805
 C242 C 0.49195 0.29127 -0.01904
 C243 C 0.47083 0.20695 0.00095
 C244 C 0.51419 0.19612 0.00491
 C245 C 0.51971 0.15171 0.00387
 C246 C 0.48197 0.11725 -0.00141
 C247 C 0.43865 0.12834 -0.00624
 C248 C 0.43316 0.17262 -0.00499
 H249 H 0.39828 0.30968 0.04749
 H250 H 0.50577 0.36332 -0.03668
 H251 H 0.55353 0.14428 0.00781
 H252 H 0.40885 0.10266 -0.01039
 H253 H 0.51782 0.28659 -0.03824
 H254 H 0.54384 0.22179 0.00983
 H255 H 0.41007 0.23298 0.04547
 H256 H 0.39935 0.18007 -0.00886
 C257 C -0.25621 -0.00069 0.53097
 C258 C -0.28391 0.02356 0.49953
 C259 C -0.32843 0.02358 0.50679
 C260 C -0.34651 -0.00027 0.54614
 C261 C -0.31834 -0.02468 0.57738
 C262 C -0.27420 -0.02511 0.56974
 C263 C -0.20848 0.00001 0.52405
 C264 C -0.17509 0.00030 0.56062
 C265 C -0.13029 0.00083 0.55462
 C266 C -0.11749 0.00166 0.51182
 C267 C -0.15066 0.00156 0.47510
 C268 C -0.19574 0.00053 0.48118
 H269 H -0.34761 0.04422 0.48226
 H270 H -0.33072 -0.04539 0.60714
 H271 H -0.10548 0.00146 0.58355
 H272 H -0.14181 0.00214 0.44171
 H273 H -0.25433 -0.04531 0.59410
 H274 H -0.18338 0.00094 0.59396
 H275 H -0.27088 0.04353 0.46969
 H276 H -0.22065 -0.00029 0.45236
 C277 C 0.28246 0.03177 0.47588
 C278 C 0.30411 0.05533 0.43867
 C279 C 0.34806 0.05097 0.43389
 C280 C 0.37139 0.02324 0.46639
 C281 C 0.35054 0.00120 0.50446
 C282 C 0.30649 0.00526 0.50909
 C283 C 0.23433 0.03277 0.47903
 C284 C 0.21885 0.03221 0.52062
 C285 C 0.17302 0.02951 0.52403
 C286 C 0.14167 0.02771 0.48589
 C287 C 0.15721 0.02968 0.44409
 C288 C 0.20302 0.03198 0.44072
 H289 H 0.36365 0.06876 0.40448
 H290 H 0.36759 -0.02085 0.52970
 H291 H 0.16212 0.02854 0.55666
 H292 H 0.13382 0.02820 0.41413
 H293 H 0.29066 -0.01390 0.53782
 H294 H 0.24214 0.03361 0.55064
 H295 H 0.28687 0.07674 0.41295
 H296 H 0.21367 0.03165 0.40827
 C297 C -0.01115 0.53009 1.25599
 C298 C -0.02926 0.56633 1.26493
 C299 C -0.02967 0.57397 1.30883
 C300 C -0.01174 0.54566 1.34555
 C301 C 0.00497 0.50829 1.33613
 C302 C 0.00527 0.50074 1.29211
 C303 C -0.00856 0.52367 1.20910
 C304 C -0.01827 0.48022 1.19618
 C305 C -0.01654 0.47460 1.15178
 C306 C -0.00488 0.51231 1.11937
 C307 C 0.00557 0.55564 1.13254
 C308 C 0.00372 0.56124 1.17680
 H309 H -0.04524 0.60167 1.31354
 H310 H 0.02046 0.48601 1.36236
 H311 H -0.02494 0.44077 1.14273
 H312 H 0.01476 0.58542 1.10850
 H313 H 0.01994 0.47278 1.28633
 H314 H -0.02814 0.45063 1.22020
 H315 H -0.04345 0.58878 1.23782
 H316 H 0.01218 0.59508 1.18583
 C317 C -0.01166 0.47684 0.72561
 C318 C -0.03908 0.49653 0.69007
 C319 C -0.03462 0.49232 0.64584
 C320 C -0.00225 0.46881 0.63636
 C321 C 0.02576 0.45013 0.67212
 C322 C 0.02088 0.45379 0.71615
 C323 C -0.01633 0.48037 0.77261
 C324 C -0.01749 0.44197 0.80535
 C325 C -0.01882 0.44558 0.85023
 C326 C -0.01841 0.48781 0.86339
 C327 C -0.01817 0.52610 0.83047
 C328 C -0.01748 0.52234 0.78545
 H329 H -0.05710 0.50668 0.61923
 H330 H 0.05185 0.43285 0.66609
 H331 H -0.01898 0.41548 0.87478
 H332 H -0.01801 0.55907 0.83958
 H333 H 0.04303 0.43909 0.74290
 H334 H -0.01702 0.40915 0.79619
 H335 H -0.06453 0.51436 0.69660
 H336 H -0.01635 0.55246 0.76084
   
