data_POSCAR
  _audit_creation_date              2014-09-24
  _audit_creation_method            'ToBaCCo'
  _symmetry_space_group_name_H-M    'P1'
  _symmetry_Int_Tables_number       1
  _symmetry_cell_setting            triclinic
  loop_
  _symmetry_equiv_pos_as_xyz
 x,y,z
_cell_length_a 43.6687
_cell_length_b 43.2325
_cell_length_c 41.1109
_cell_angle_alpha 89.095400
_cell_angle_beta 87.796700
_cell_angle_gamma 91.452500
loop_
  _atom_site_label
  _atom_site_type_symbol
  _atom_site_fract_x
  _atom_site_fract_y
  _atom_site_fract_z
N1 N 0.57736 0.67985 0.62198
 N2 N 0.56600 0.66497 0.64805
 C3 C 0.54148 0.67999 0.65991
 C4 C 0.53715 0.70551 0.64022
 C5 C 0.56034 0.70479 0.61631
 H6 H 0.52790 0.67325 0.68155
 H7 H 0.56490 0.72136 0.59665
 Cu8 Cu 0.58526 0.62827 0.66470
 Cu9 Cu 0.61392 0.66614 0.59820
 Cu10 Cu 0.64966 0.60163 0.62938
 N11 N 0.60452 0.59159 0.68133
 N12 N 0.63050 0.58193 0.66835
 C13 C 0.63910 0.55666 0.68497
 C14 C 0.61706 0.55013 0.70947
 C15 C 0.59555 0.57270 0.70640
 H16 H 0.65932 0.54364 0.67904
 H17 H 0.57486 0.57504 0.72140
 N18 N 0.66516 0.62468 0.59001
 N19 N 0.65113 0.64871 0.57779
 C20 C 0.66603 0.65803 0.54992
 C21 C 0.69059 0.63915 0.54443
 C22 C 0.68946 0.61824 0.57027
 H23 H 0.65933 0.67689 0.53436
 H24 H 0.70452 0.59913 0.57380
 H25 H 0.61013 0.61985 0.61170
 H26 H 0.63353 0.64549 0.63771
 N27 N 0.92393 0.32253 0.11425
 N28 N 0.93351 0.33490 0.14116
 C29 C 0.95542 0.31727 0.15338
 C30 C 0.95991 0.29257 0.13299
 C31 C 0.93952 0.29660 0.10827
 H32 H 0.96729 0.32201 0.17544
 H33 H 0.93614 0.28199 0.08753
 Cu34 Cu 0.91607 0.37271 0.15745
 Cu35 Cu 0.89271 0.34213 0.08870
 Cu36 Cu 0.84816 0.39444 0.13211
 N37 N 0.89876 0.41143 0.17128
 N38 N 0.87123 0.41922 0.16279
 C39 C 0.86343 0.44531 0.17829
 C40 C 0.88773 0.45444 0.19698
 C41 C 0.90974 0.43256 0.19176
 H42 H 0.84187 0.45675 0.17592
 H43 H 0.93185 0.43182 0.20270
 N44 N 0.83607 0.37638 0.09035
 N45 N 0.85353 0.35739 0.07346
 C46 C 0.84023 0.35099 0.04527
 C47 C 0.81318 0.36672 0.04422
 C48 C 0.81115 0.38258 0.07323
 H49 H 0.84969 0.33626 0.02660
 H50 H 0.79344 0.39819 0.08093
 H51 H 0.88889 0.38629 0.10900
 H52 H 0.87078 0.35216 0.13117
 N53 N 0.42588 0.17662 -0.11235
 N54 N 0.43934 0.16183 -0.13641
 C55 C 0.46485 0.17775 -0.14671
 C56 C 0.46757 0.20388 -0.12808
 C57 C 0.44242 0.20252 -0.10645
 H58 H 0.48080 0.17041 -0.16565
 H59 H 0.43719 0.21836 -0.08704
 Cu60 Cu 0.42367 0.12202 -0.15029
 Cu61 Cu 0.38977 0.15924 -0.08868
 Cu62 Cu 0.35274 0.09752 -0.12518
 N63 N 0.40218 0.08907 -0.17204
 N64 N 0.37461 0.07921 -0.16210
 C65 C 0.36526 0.05646 -0.18174
 C66 C 0.38824 0.05214 -0.20528
 C67 C 0.41119 0.07325 -0.19847
 H68 H 0.34319 0.04454 -0.17950
 H69 H 0.43272 0.07702 -0.21202
 N70 N 0.33489 0.11941 -0.08741
 N71 N 0.34905 0.14287 -0.07361
 C72 C 0.33123 0.15283 -0.04867
 C73 C 0.30471 0.13478 -0.04655
 C74 C 0.30771 0.11380 -0.07149
 H75 H 0.33701 0.17188 -0.03312
 H76 H 0.29137 0.09583 -0.07762
 H77 H 0.39034 0.11276 -0.10147
 H78 H 0.37435 0.14065 -0.13097
 N79 N 0.08393 0.81679 0.39040
 N80 N 0.07116 0.83316 0.36760
 C81 C 0.04512 0.81843 0.35912
 C82 C 0.04164 0.79137 0.37764
 C83 C 0.06672 0.79107 0.39703
 H84 H 0.03001 0.82676 0.34090
 H85 H 0.07175 0.77363 0.41507
 Cu86 Cu 0.09006 0.87197 0.35114
 Cu87 Cu 0.12098 0.83055 0.41111
 Cu88 Cu 0.15572 0.89890 0.38238
 N89 N 0.11130 0.90927 0.33384
 N90 N 0.13668 0.91975 0.34647
 C91 C 0.14680 0.94528 0.32985
 C92 C 0.12687 0.95109 0.30541
 C93 C 0.10453 0.92780 0.30856
 H94 H 0.16754 0.95835 0.33468
 H95 H 0.08515 0.92428 0.29335
 N96 N 0.17160 0.87442 0.41850
 N97 N 0.15849 0.84817 0.42919
 C98 C 0.17470 0.83678 0.45366
 C99 C 0.19911 0.85677 0.45859
 C100 C 0.19655 0.88042 0.43588
 H101 H 0.16927 0.81549 0.46703
 H102 H 0.21174 0.90038 0.43215
 H103 H 0.11628 0.87735 0.40213
 H104 H 0.13896 0.85542 0.37105
 N105 N 0.11159 0.11087 0.11203
 N106 N 0.37242 0.87603 0.62620
 N107 N 0.86813 0.62851 0.36834
 N108 N 0.63130 0.38196 -0.11374
 C109 C -0.01904 0.26923 0.13748
 C110 C -0.01502 0.24483 0.11594
 C111 C 0.00762 0.22027 0.12048
 C112 C 0.01721 0.20310 0.09343
 C113 C 0.03845 0.17968 0.09657
 C114 C 0.05061 0.17290 0.12701
 C115 C 0.04054 0.18963 0.15419
 C116 C 0.01928 0.21304 0.15105
 C117 C 0.07286 0.14801 0.13166
 C118 C 0.09035 0.13519 0.10633
 H119 H -0.02795 0.24427 0.09401
 H120 H 0.00825 0.20786 0.06971
 H121 H 0.04473 0.16671 0.07518
 H122 H 0.04913 0.18455 0.17802
 H123 H 0.01174 0.22488 0.17277
 H124 H 0.07660 0.14032 0.15636
 H125 H -0.00498 0.27087 0.15850
 H126 H 0.08930 0.14475 0.08195
 C127 C 0.51333 0.72860 0.64546
 C128 C 0.50949 0.75343 0.62406
 C129 C 0.48587 0.77697 0.62960
 C130 C 0.47536 0.79360 0.60284
 C131 C 0.45293 0.81585 0.60713
 C132 C 0.44060 0.82197 0.63843
 C133 C 0.45188 0.80610 0.66528
 C134 C 0.47423 0.78380 0.66099
 C135 C 0.41663 0.84515 0.64415
 C136 C 0.39600 0.85364 0.62059
 H137 H 0.52335 0.75500 0.60167
 H138 H 0.48440 0.78920 0.57849
 H139 H 0.44577 0.82845 0.58592
 H140 H 0.44320 0.81083 0.68970
 H141 H 0.48261 0.77238 0.68236
 H142 H 0.41437 0.85441 0.66836
 H143 H 0.49805 0.72533 0.66664
 H144 H 0.39792 0.84305 0.59700
 C145 C 1.01823 0.76877 0.37798
 C146 C 0.99195 0.77116 0.35989
 C147 C 0.96697 0.74733 0.36183
 C148 C 0.93668 0.75624 0.35773
 C149 C 0.91251 0.73440 0.36052
 C150 C 0.91824 0.70309 0.36665
 C151 C 0.94865 0.69402 0.37013
 C152 C 0.97277 0.71591 0.36770
 C153 C 0.89204 0.68077 0.37046
 C154 C 0.89431 0.64929 0.36405
 H155 H 0.98831 0.79208 0.34590
 H156 H 0.93165 0.78028 0.35303
 H157 H 0.88927 0.74196 0.35781
 H158 H 0.95387 0.67018 0.37546
 H159 H 0.99593 0.70812 0.37023
 H160 H 0.86970 0.68962 0.37709
 H161 H 1.02035 0.74900 0.39417
 H162 H 0.91562 0.64054 0.35408
 C163 C 0.49382 0.22592 -0.12936
 C164 C 0.49448 0.25282 -0.11109
 C165 C 0.52208 0.27328 -0.11010
 C166 C 0.51874 0.30491 -0.10421
 C167 C 0.54452 0.32464 -0.10259
 C168 C 0.57418 0.31290 -0.10642
 C169 C 0.57749 0.28116 -0.11153
 C170 C 0.55175 0.26153 -0.11353
 C171 C 0.60206 0.33285 -0.10447
 C172 C 0.60299 0.36416 -0.11320
 H173 H 0.47392 0.25959 -0.09777
 H174 H 0.49612 0.31440 -0.10099
 H175 H 0.54115 0.34886 -0.09772
 H176 H 0.60010 0.27152 -0.11416
 H177 H 0.55518 0.23709 -0.11703
 H178 H 0.62330 0.32203 -0.09858
 H179 H 0.51325 0.22062 -0.14527
 H180 H 0.58273 0.37464 -0.12239
 C181 C 0.13061 -0.02385 0.28081
 C182 C 0.11052 -0.02001 0.25556
 C183 C 0.11529 0.00395 0.22952
 C184 C 0.09032 0.01248 0.21117
 C185 C 0.09402 0.03458 0.18601
 C186 C 0.12295 0.04863 0.17866
 C187 C 0.14801 0.03966 0.19662
 C188 C 0.14431 0.01759 0.22173
 C189 C 0.12828 0.07174 0.15191
 C190 C 0.10506 0.08840 0.13781
 H191 H 0.09011 -0.03471 0.25510
 H192 H 0.06783 0.00196 0.21629
 H193 H 0.07429 0.04000 0.17210
 H194 H 0.17064 0.04970 0.19112
 H195 H 0.16443 0.01091 0.23436
 H196 H 0.15180 0.07693 0.14393
 H197 H 0.14999 -0.00807 0.28296
 H198 H 0.08177 0.08577 0.14754
 C199 C 0.61526 0.52585 -0.26777
 C200 C 0.63858 0.50483 -0.26359
 C201 C 0.63488 0.47904 -0.23965
 C202 C 0.65975 0.47042 -0.22122
 C203 C 0.65620 0.44675 -0.19763
 C204 C 0.62780 0.43096 -0.19265
 C205 C 0.60336 0.43877 -0.21206
 C206 C 0.60675 0.46276 -0.23516
 C207 C 0.62302 0.40587 -0.16803
 C208 C 0.63754 0.40573 -0.13833
 H209 H 0.66062 0.50848 -0.27623
 H210 H 0.68175 0.48239 -0.22467
 H211 H 0.67574 0.44059 -0.18370
 H212 H 0.58142 0.42659 -0.20899
 H213 H 0.58744 0.46836 -0.24972
 H214 H 0.60612 0.38794 -0.17283
 H215 H 0.59477 0.52378 -0.25207
 H216 H 0.65380 0.42423 -0.13344
 C217 C 0.38860 1.03114 0.76698
 C218 C 0.36697 1.00722 0.76383
 C219 C 0.36756 0.98668 0.73541
 C220 C 0.35680 0.95594 0.73914
 C221 C 0.35767 0.93597 0.71269
 C222 C 0.36907 0.94660 0.68192
 C223 C 0.37883 0.97762 0.67802
 C224 C 0.37819 0.99747 0.70447
 C225 C 0.37020 0.92647 0.65317
 C226 C 0.37144 0.89430 0.65514
 H227 H 0.35026 1.00229 0.78349
 H228 H 0.34803 0.94727 0.76265
 H229 H 0.34899 0.91247 0.71637
 H230 H 0.38718 0.98650 0.65445
 H231 H 0.38560 1.02135 0.70050
 H232 H 0.37190 0.93747 0.62929
 H233 H 0.40724 1.03414 0.74899
 H234 H 0.37288 0.88287 0.67858
 C235 C 0.89072 0.48119 0.21839
 C236 C 0.86583 0.49843 0.22903
 C237 C 0.86928 0.52465 0.25146
 C238 C 0.84495 0.53164 0.27317
 C239 C 0.84774 0.55618 0.29477
 C240 C 0.87487 0.57444 0.29467
 C241 C 0.89888 0.56790 0.27243
 C242 C 0.89625 0.54317 0.25116
 C243 C 0.87846 0.60115 0.31637
 C244 C 0.86424 0.60238 0.34733
 H245 H 0.84295 0.49123 0.22257
 H246 H 0.82383 0.51791 0.27361
 H247 H 0.82842 0.56118 0.31095
 H248 H 0.91984 0.58190 0.27164
 H249 H 0.91517 0.53899 0.23417
 H250 H 0.89373 0.61994 0.30794
 H251 H 0.91318 0.48621 0.22757
 H252 H 0.84975 0.58302 0.35591
 C253 C 0.27919 0.13824 -0.02253
 C254 C 0.25336 0.11852 -0.02098
 C255 C 0.22745 0.12198 0.00295
 C256 C 0.20780 0.09640 0.01017
 C257 C 0.18304 0.09876 0.03253
 C258 C 0.17739 0.12692 0.04811
 C259 C 0.19661 0.15267 0.04030
 C260 C 0.22136 0.15030 0.01799
 C261 C 0.15129 0.13066 0.07170
 C262 C 0.13648 0.10604 0.08877
 H263 H 0.25248 0.09899 -0.03710
 H264 H 0.21164 0.07446 -0.00149
 H265 H 0.16820 0.07862 0.03701
 H266 H 0.19248 0.17475 0.05154
 H267 H 0.23521 0.17089 0.01225
 H268 H 0.14453 0.15399 0.07724
 H269 H 0.28147 0.15660 -0.00516
 H270 H 0.14502 0.08292 0.08610
 C271 C 0.71156 0.64026 0.51556
 C272 C 0.73856 0.62375 0.51384
 C273 C 0.75880 0.62375 0.48419
 C274 C 0.79040 0.62024 0.48717
 C275 C 0.81000 0.61986 0.45948
 C276 C 0.79818 0.62253 0.42822
 C277 C 0.76648 0.62524 0.42526
 C278 C 0.74695 0.62604 0.45295
 C279 C 0.81810 0.62119 0.39840
 C280 C 0.84882 0.63095 0.39731
 H281 H 0.74586 0.61158 0.53531
 H282 H 0.79995 0.61793 0.51100
 H283 H 0.83423 0.61678 0.46262
 H284 H 0.75680 0.62682 0.40143
 H285 H 0.72256 0.62774 0.44981
 H286 H 0.80788 0.61369 0.37616
 H287 H 0.70579 0.65510 0.49536
 H288 H 0.85808 0.64220 0.41828
 C289 C 0.79252 0.36703 0.01669
 C290 C 0.76469 0.38221 0.01758
 C291 C 0.74390 0.38258 -0.01010
 C292 C 0.71260 0.38760 -0.00394
 C293 C 0.69229 0.38828 -0.02942
 C294 C 0.70299 0.38417 -0.06174
 C295 C 0.73437 0.37982 -0.06800
 C296 C 0.75465 0.37895 -0.04251
 C297 C 0.68240 0.38575 -0.08949
 C298 C 0.65092 0.37924 -0.08651
 H299 H 0.75703 0.39297 0.03995
 H300 H 0.70382 0.39099 0.02072
 H301 H 0.66843 0.39272 -0.02373
 H302 H 0.74324 0.37711 -0.09274
 H303 H 0.77875 0.37612 -0.04844
 H304 H 0.69261 0.39091 -0.11345
 H305 H 0.79939 0.35416 -0.00461
 H306 H 0.64108 0.37032 -0.06357
 C307 C 0.22256 0.85254 0.48288
 C308 C 0.24629 0.87412 0.48720
 C309 C 0.27023 0.86974 0.51127
 C310 C 0.28640 0.89576 0.52227
 C311 C 0.30915 0.89251 0.54501
 C312 C 0.31619 0.86303 0.55717
 C313 C 0.30062 0.83697 0.54547
 C314 C 0.27789 0.84022 0.52278
 C315 C 0.34009 0.85840 0.58122
 C316 C 0.34988 0.88147 0.60214
 H317 H 0.24677 0.89565 0.47336
 H318 H 0.28133 0.91870 0.51334
 H319 H 0.32139 0.91308 0.55251
 H320 H 0.30600 0.81397 0.55400
 H321 H 0.26684 0.81948 0.51399
 H322 H 0.34867 0.83529 0.58405
 H323 H 0.22046 0.83194 0.49816
 H324 H 0.33806 0.90315 0.60242
   
