data_POSCAR
  _audit_creation_date              2014-09-24
  _audit_creation_method            'ToBaCCo'
  _symmetry_space_group_name_H-M    'P1'
  _symmetry_Int_Tables_number       1
  _symmetry_cell_setting            triclinic
  loop_
  _symmetry_equiv_pos_as_xyz
 x,y,z
_cell_length_a 37.8912
_cell_length_b 37.8920
_cell_length_c 37.8257
_cell_angle_alpha 90.189000
_cell_angle_beta 90.299600
_cell_angle_gamma 90.290800
loop_
  _atom_site_label
  _atom_site_type_symbol
  _atom_site_fract_x
  _atom_site_fract_y
  _atom_site_fract_z
C1 C 0.71618 0.68136 0.95615
 H2 H 0.74172 0.68148 0.94348
 C3 C 0.68768 0.69863 0.94028
 H4 H 0.69134 0.71237 0.91549
 C5 C 0.67937 0.66112 1.00247
 H6 H 0.67576 0.64542 1.02593
 C7 C 0.65030 0.67805 0.98756
 H8 H 0.62465 0.67561 0.99987
 N9 N 0.71145 0.66267 0.98645
 C10 C 0.81347 0.63907 1.03474
 H11 H 0.80894 0.61115 1.03869
 C12 C 0.84495 0.65448 1.04623
 H13 H 0.86466 0.63844 1.05929
 C14 C 0.79325 0.69400 1.01275
 H15 H 0.77296 0.70917 0.99969
 C16 C 0.82456 0.71055 1.02393
 H17 H 0.82836 0.73855 1.01956
 Zn18 Zn 0.74830 0.63312 1.00271
 N19 N 0.78858 0.65875 1.01800
 C20 C 0.79491 0.60472 0.95257
 N21 N 0.76107 0.60354 0.96440
 C22 C 0.73581 0.58441 0.94704
 C23 C 0.74427 0.56569 0.91625
 C24 C 0.80444 0.58638 0.92216
 C25 C 0.72727 0.62596 1.07212
 C26 C 0.71438 0.60966 1.10242
 C27 C 0.71312 0.55413 1.07064
 C28 C 0.72617 0.57158 1.04084
 N29 N 0.73235 0.60698 1.04202
 H30 H 0.81445 0.62076 0.96594
 H31 H 0.70893 0.58455 0.95653
 H32 H 0.72397 0.55108 0.90212
 H33 H 0.83133 0.58806 0.91268
 H34 H 0.73269 0.65402 1.07231
 H35 H 0.70980 0.62533 1.12598
 H36 H 0.70756 0.52606 1.06929
 H37 H 0.73083 0.55697 1.01674
 C38 C 0.85070 0.69045 1.04061
 C39 C 0.65432 0.69643 0.95588
 C40 C 0.70690 0.57347 1.10163
 C41 C 0.77890 0.56702 0.90362
 C42 C 0.72161 0.32544 0.53123
 H43 H 0.74709 0.32377 0.54413
 C44 C 0.69262 0.30725 0.54510
 H45 H 0.69582 0.29132 0.56861
 C46 C 0.68557 0.35008 0.48628
 H47 H 0.68250 0.36772 0.46415
 C48 C 0.65600 0.33234 0.49923
 H49 H 0.63050 0.33614 0.48676
 N50 N 0.71752 0.34663 0.50252
 C51 C 0.82136 0.36956 0.45836
 H52 H 0.81912 0.39800 0.45741
 C53 C 0.85141 0.35321 0.44515
 H54 H 0.87239 0.36906 0.43391
 C55 C 0.79644 0.31416 0.47371
 H56 H 0.77476 0.29913 0.48457
 C57 C 0.82616 0.29666 0.46067
 H58 H 0.82740 0.26812 0.46154
 Zn59 Zn 0.75558 0.37610 0.48876
 N60 N 0.79478 0.35002 0.47252
 C61 C 0.80240 0.40074 0.54172
 N62 N 0.76889 0.40323 0.52886
 C63 C 0.74397 0.42247 0.54603
 C64 C 0.75247 0.44025 0.57746
 C65 C 0.81197 0.41809 0.57289
 C66 C 0.73507 0.38775 0.41964
 C67 C 0.72227 0.40599 0.39038
 C68 C 0.72292 0.45961 0.42521
 C69 C 0.73585 0.44030 0.45394
 N70 N 0.74091 0.40488 0.45079
 H71 H 0.82159 0.38457 0.52842
 H72 H 0.71732 0.42336 0.53569
 H73 H 0.73244 0.45513 0.59126
 H74 H 0.83860 0.41555 0.58311
 H75 H 0.73956 0.35963 0.41788
 H76 H 0.71679 0.39189 0.36598
 H77 H 0.71796 0.48760 0.42805
 H78 H 0.74113 0.45347 0.47880
 C79 C 0.85389 0.31646 0.44632
 C80 C 0.65943 0.31117 0.52920
 C81 C 0.71572 0.44212 0.39330
 C82 C 0.78678 0.43781 0.59105
 C83 C 0.22143 -0.17393 0.03084
 H84 H 0.24691 -0.17554 0.04375
 C85 C 0.19247 -0.19213 0.04475
 H86 H 0.19568 -0.20800 0.06830
 C87 C 0.18536 -0.14946 -0.01418
 H88 H 0.18227 -0.13190 -0.03637
 C89 C 0.15582 -0.16721 -0.00119
 H90 H 0.13032 -0.16349 -0.01368
 N91 N 0.21732 -0.15283 0.00208
 C92 C 0.32098 -0.13005 -0.04255
 H93 H 0.31869 -0.10163 -0.04368
 C94 C 0.35103 -0.14644 -0.05573
 H95 H 0.37195 -0.13062 -0.06713
 C96 C 0.29623 -0.18539 -0.02672
 H97 H 0.27462 -0.20038 -0.01566
 C98 C 0.32595 -0.20292 -0.03970
 H99 H 0.32726 -0.23145 -0.03860
 Zn100 Zn 0.25535 -0.12341 -0.01188
 N101 N 0.29449 -0.14954 -0.02816
 C102 C 0.30241 -0.09867 0.04079
 N103 N 0.26884 -0.09617 0.02810
 C104 C 0.24404 -0.07687 0.04538
 C105 C 0.25273 -0.05906 0.07674
 C106 C 0.31218 -0.08129 0.07188
 C107 C 0.23478 -0.11204 -0.08099
 C108 C 0.22180 -0.09401 -0.11029
 C109 C 0.22211 -0.04024 -0.07559
 C110 C 0.23525 -0.05939 -0.04685
 N111 N 0.24055 -0.09477 -0.04990
 H112 H 0.32152 -0.11488 0.02741
 H113 H 0.21733 -0.07597 0.03518
 H114 H 0.23279 -0.04414 0.09064
 H115 H 0.33886 -0.08385 0.08197
 H116 H 0.23947 -0.14014 -0.08266
 H117 H 0.21644 -0.10839 -0.13459
 H118 H 0.21700 -0.01226 -0.07267
 H119 H 0.24046 -0.04613 -0.02203
 C120 C 0.35360 -0.18317 -0.05427
 C121 C 0.15928 -0.18831 0.02883
 C122 C 0.21493 -0.05787 -0.10749
 C123 C 0.28711 -0.06152 0.09015
 C124 C 0.21667 0.18148 0.45537
 H125 H 0.24222 0.18180 0.44274
 C126 C 0.18810 0.19872 0.43958
 H127 H 0.19172 0.21264 0.41489
 C128 C 0.17989 0.16075 0.50150
 H129 H 0.17632 0.14488 0.52485
 C130 C 0.15076 0.17764 0.48667
 H131 H 0.12510 0.17499 0.49893
 N132 N 0.21199 0.16256 0.48553
 C133 C 0.31406 0.13896 0.53374
 H134 H 0.30960 0.11100 0.53743
 C135 C 0.34546 0.15435 0.54545
 H136 H 0.36519 0.13824 0.55841
 C137 C 0.29373 0.19403 0.51222
 H138 H 0.27341 0.20926 0.49926
 C139 C 0.32497 0.21057 0.52362
 H140 H 0.32870 0.23861 0.51953
 Zn141 Zn 0.24894 0.13307 0.50168
 N142 N 0.28914 0.15872 0.51714
 C143 C 0.29565 0.10512 0.45139
 N144 N 0.26184 0.10368 0.46327
 C145 C 0.23670 0.08438 0.44592
 C146 C 0.24526 0.06573 0.41512
 C147 C 0.30529 0.08686 0.42097
 C148 C 0.22790 0.12562 0.57104
 C149 C 0.21519 0.10915 0.60132
 C150 C 0.21430 0.05371 0.56949
 C151 C 0.22715 0.07128 0.53967
 N152 N 0.23309 0.10673 0.54089
 H153 H 0.31509 0.12130 0.46475
 H154 H 0.20983 0.08431 0.45545
 H155 H 0.22506 0.05097 0.40101
 H156 H 0.33216 0.08874 0.41146
 H157 H 0.23312 0.15372 0.57128
 H158 H 0.21049 0.12459 0.62498
 H159 H 0.20890 0.02563 0.56827
 H160 H 0.23190 0.05673 0.51556
 C161 C 0.35112 0.19038 0.54019
 C162 C 0.15473 0.19625 0.45511
 C163 C 0.20803 0.07296 0.60048
 C164 C 0.27987 0.06731 0.40246
 C165 C 0.18254 0.45526 0.21670
 H166 H 0.18276 0.44277 0.24237
 C167 C 0.19974 0.43929 0.18822
 H168 H 0.21352 0.41461 0.19204
 C169 C 0.16208 0.50117 0.17950
 H170 H 0.14629 0.52449 0.17573
 C171 C 0.17893 0.48617 0.15044
 H172 H 0.17635 0.49826 0.12465
 N173 N 0.16376 0.48538 0.21175
 C174 C 0.13970 0.53360 0.31371
 H175 H 0.11174 0.53717 0.30912
 C176 C 0.15495 0.54543 0.34517
 H177 H 0.13875 0.55835 0.36482
 C178 C 0.19490 0.51232 0.29362
 H179 H 0.21023 0.49943 0.27337
 C180 C 0.21130 0.52385 0.32493
 H181 H 0.23935 0.51992 0.32877
 Zn182 Zn 0.13413 0.50158 0.24855
 N183 N 0.15959 0.51708 0.28889
 C184 C 0.10584 0.45138 0.29530
 N185 N 0.10462 0.46326 0.26140
 C186 C 0.08545 0.44595 0.23612
 C187 C 0.06670 0.41520 0.24461
 C188 C 0.08748 0.42100 0.30487
 C189 C 0.12681 0.57076 0.22709
 C190 C 0.11034 0.60096 0.21434
 C191 C 0.05484 0.56917 0.21372
 C192 C 0.07241 0.53942 0.22661
 N193 N 0.10788 0.54066 0.23244
 H194 H 0.12193 0.46470 0.31485
 H195 H 0.08556 0.45548 0.20919
 H196 H 0.05204 0.40112 0.22430
 H197 H 0.08918 0.41148 0.33180
 H198 H 0.15492 0.57101 0.23226
 H199 H 0.12579 0.62459 0.20953
 H200 H 0.02674 0.56795 0.20842
 H201 H 0.05784 0.51537 0.23151
 C202 C 0.19099 0.54037 0.35098
 C203 C 0.19737 0.45462 0.15467
 C204 C 0.07412 0.60010 0.20731
 C205 C 0.06805 0.40253 0.27930
 C206 C -0.17550 0.03193 0.22020
 H207 H -0.17729 0.04474 0.24572
 C208 C -0.19350 0.04586 0.19106
 H209 H -0.20941 0.06933 0.19428
 C210 C -0.15071 -0.01283 0.18421
 H211 H -0.13308 -0.03490 0.18123
 C212 C -0.16824 0.00016 0.15449
 H213 H -0.16426 -0.01229 0.12899
 N214 N -0.15432 0.00330 0.21621
 C215 C -0.13143 -0.04103 0.32022
 H216 H -0.10300 -0.04198 0.31787
 C217 C -0.14768 -0.05428 0.35037
 H218 H -0.13175 -0.06555 0.37132
 C219 C -0.18690 -0.02560 0.29549
 H220 H -0.20198 -0.01467 0.27385
 C221 C -0.20430 -0.03868 0.32534
 H222 H -0.23282 -0.03778 0.32671
 Zn223 Zn -0.12496 -0.01049 0.25442
 N224 N -0.15104 -0.02681 0.29368
 C225 C -0.10036 0.04224 0.30142
 N226 N -0.09778 0.02950 0.26785
 C227 C -0.07833 0.04666 0.24300
 C228 C -0.06038 0.07791 0.25167
 C229 C -0.08284 0.07323 0.31115
 C230 C -0.11335 -0.07943 0.23392
 C231 C -0.09510 -0.10864 0.22126
 C232 C -0.04141 -0.07388 0.22215
 C233 C -0.06073 -0.04520 0.23495
 N234 N -0.09618 -0.04834 0.23983
 H235 H -0.11669 0.02896 0.32055
 H236 H -0.07737 0.03641 0.21629
 H237 H -0.04530 0.09168 0.23170
 H238 H -0.08542 0.08334 0.33784
 H239 H -0.14150 -0.08119 0.23828
 H240 H -0.10922 -0.13299 0.21573
 H241 H -0.01338 -0.07105 0.21735
 H242 H -0.04753 -0.02040 0.24029
 C243 C -0.18440 -0.05308 0.35303
 C244 C -0.18939 0.03010 0.15779
 C245 C -0.05892 -0.10573 0.21490
 C246 C -0.06287 0.09134 0.28606
 C247 C 0.32491 0.53151 0.72188
 H248 H 0.32324 0.54424 0.74745
 C249 C 0.30678 0.54552 0.69287
 H250 H 0.29088 0.56897 0.69615
 C251 C 0.34953 0.48685 0.68563
 H252 H 0.36714 0.46479 0.68249
 C253 C 0.33184 0.49995 0.65605
 H254 H 0.33565 0.48765 0.63046
 N255 N 0.34607 0.50289 0.71770
 C256 C 0.36902 0.45838 0.82159
 H257 H 0.39746 0.45758 0.81937
 C258 C 0.35268 0.44489 0.85159
 H259 H 0.36855 0.43360 0.87257
 C260 C 0.31359 0.47357 0.79662
 H261 H 0.29855 0.48446 0.77493
 C262 C 0.29610 0.46026 0.82631
 H263 H 0.26756 0.46095 0.82751
 Zn264 Zn 0.37553 0.48898 0.75577
 N265 N 0.34946 0.47257 0.79500
 C266 C 0.40034 0.54169 0.80274
 N267 N 0.40275 0.52895 0.76915
 C268 C 0.42201 0.54614 0.74419
 C269 C 0.43991 0.57745 0.75272
 C270 C 0.41782 0.57274 0.81234
 C271 C 0.38703 0.42010 0.73503
 C272 C 0.40523 0.39093 0.72220
 C273 C 0.45894 0.42567 0.72304
 C274 C 0.43968 0.45430 0.73601
 N275 N 0.40424 0.45116 0.74099
 H276 H 0.38416 0.52836 0.82197
 H277 H 0.42284 0.53589 0.71748
 H278 H 0.45482 0.59126 0.73266
 H279 H 0.41535 0.58287 0.83904
 H280 H 0.35890 0.41834 0.73947
 H281 H 0.39108 0.36660 0.71662
 H282 H 0.48695 0.42850 0.71815
 H283 H 0.45289 0.47908 0.74139
 C284 C 0.31592 0.44583 0.85403
 C285 C 0.31072 0.52984 0.65957
 C286 C 0.44138 0.39385 0.71573
 C287 C 0.43757 0.59091 0.78711
 C288 C 0.68325 0.95599 0.71728
 H289 H 0.68361 0.94331 0.74286
 C290 C 0.70033 0.94027 0.68859
 H291 H 0.71419 0.91559 0.69216
 C292 C 0.66249 1.00213 0.68052
 H293 H 0.64663 1.02543 0.67700
 C294 C 0.67923 0.98737 0.65127
 H295 H 0.67649 0.99965 0.62558
 N296 N 0.66436 0.98610 0.71265
 C297 C 0.64036 1.03354 0.81505
 H298 H 0.61237 1.03697 0.81056
 C299 C 0.65563 1.04528 0.84654
 H300 H 0.63933 1.05800 0.86626
 C301 C 0.69562 1.01270 0.79466
 H302 H 0.71095 1.00002 0.77428
 C303 C 0.71207 1.02415 0.82597
 H304 H 0.74018 1.02034 0.82961
 Zn305 Zn 0.63477 1.00194 0.74966
 N306 N 0.66027 1.01728 0.79006
 C307 C 0.60671 0.95132 0.79612
 N308 N 0.60542 0.96342 0.76231
 C309 C 0.58623 0.94625 0.73695
 C310 C 0.56749 0.91545 0.74528
 C311 C 0.58836 0.92087 0.80553
 C312 C 0.62712 1.07124 0.72867
 C313 C 0.61054 1.10138 0.71588
 C314 C 0.55524 1.06927 0.71487
 C315 C 0.57291 1.03960 0.72781
 N316 N 0.60834 1.04102 0.73382
 H317 H 0.62281 0.96454 0.81573
 H318 H 0.58628 0.95595 0.71008
 H319 H 0.55279 0.90151 0.72490
 H320 H 0.59009 0.91120 0.83241
 H321 H 0.65520 1.07163 0.73396
 H322 H 0.62589 1.12509 0.71117
 H323 H 0.52718 1.06788 0.70938
 H324 H 0.55844 1.01544 0.73254
 C325 C 0.69175 1.04043 0.85221
 C326 C 0.69775 0.95583 0.65516
 C327 C 0.57437 1.10031 0.70860
 C328 C 0.56888 0.90257 0.77989
 C329 C 0.03094 0.22073 -0.17383
 H330 H 0.04375 0.24626 -0.17533
 C331 C 0.04503 0.19185 -0.19196
 H332 H 0.06861 0.19518 -0.20769
 C333 C -0.01397 0.18445 -0.14961
 H334 H -0.03617 0.18124 -0.13214
 C335 C -0.00080 0.15499 -0.16730
 H336 H -0.01318 0.12943 -0.16364
 N337 N 0.00216 0.21647 -0.15286
 C338 C -0.04250 0.31999 -0.12974
 H339 H -0.04361 0.31752 -0.10128
 C340 C -0.05572 0.35010 -0.14605
 H341 H -0.06712 0.37092 -0.13013
 C342 C -0.02671 0.29557 -0.18526
 H343 H -0.01567 0.27406 -0.20035
 C344 C -0.03974 0.32538 -0.20272
 H345 H -0.03869 0.32685 -0.23128
 Zn346 Zn -0.01187 0.25432 -0.12330
 N347 N -0.02812 0.29362 -0.14936
 C348 C 0.04072 0.30122 -0.09818
 N349 N 0.02801 0.26765 -0.09584
 C350 C 0.04525 0.24269 -0.07661
 C351 C 0.07662 0.25121 -0.05876
 C352 C 0.07182 0.31080 -0.08074
 C353 C -0.08085 0.23360 -0.11220
 C354 C -0.11015 0.22061 -0.09425
 C355 C -0.07562 0.22085 -0.04025
 C356 C -0.04688 0.23399 -0.05932
 N357 N -0.04986 0.23934 -0.09478
 H358 H 0.02737 0.32045 -0.11434
 H359 H 0.03503 0.21600 -0.07584
 H360 H 0.09050 0.23114 -0.04393
 H361 H 0.08194 0.33748 -0.08321
 H362 H -0.08247 0.23834 -0.14035
 H363 H -0.13439 0.21529 -0.10874
 H364 H -0.07277 0.21573 -0.01220
 H365 H -0.02213 0.23919 -0.04595
 C366 C -0.05431 0.35289 -0.18283
 C367 C 0.02926 0.15859 -0.18822
 C368 C -0.10744 0.21373 -0.05803
 C369 C 0.09008 0.28557 -0.06109
 C370 C 0.45650 0.21652 0.18210
 H371 H 0.44382 0.24203 0.18227
 C372 C 0.44074 0.18793 0.19936
 H373 H 0.41603 0.19152 0.21316
 C374 C 0.50267 0.17980 0.16164
 H375 H 0.52601 0.17626 0.14583
 C376 C 0.48787 0.15065 0.17856
 H377 H 0.50015 0.12501 0.17601
 N378 N 0.48665 0.21186 0.16327
 C379 C 0.53430 0.31402 0.13887
 H380 H 0.53794 0.30942 0.11088
 C381 C 0.54589 0.34557 0.15404
 H382 H 0.55870 0.36526 0.13776
 C383 C 0.51303 0.29392 0.19419
 H384 H 0.50022 0.27364 0.20961
 C385 C 0.52431 0.32531 0.21052
 H386 H 0.52028 0.32918 0.23859
 Zn387 Zn 0.50256 0.24873 0.13347
 N388 N 0.51789 0.28915 0.15886
 C389 C 0.45205 0.29505 0.10512
 N390 N 0.46405 0.26127 0.10400
 C391 C 0.44673 0.23589 0.08500
 C392 C 0.41582 0.24414 0.06637
 C393 C 0.42151 0.30437 0.08687
 C394 C 0.57187 0.22787 0.12596
 C395 C 0.60205 0.21517 0.10944
 C396 C 0.56999 0.21396 0.05400
 C397 C 0.54028 0.22681 0.07163
 N398 N 0.54166 0.23289 0.10710
 H399 H 0.46539 0.31468 0.12107
 H400 H 0.45636 0.20907 0.08518
 H401 H 0.40173 0.22374 0.05187
 H402 H 0.41189 0.33122 0.08852
 H403 H 0.57223 0.23320 0.15408
 H404 H 0.62576 0.21059 0.12485
 H405 H 0.56864 0.20844 0.02591
 H406 H 0.51612 0.23142 0.05710
 C407 C 0.54070 0.35141 0.19010
 C408 C 0.45629 0.15458 0.19702
 C409 C 0.60104 0.20786 0.07323
 C410 C 0.40301 0.27870 0.06765
 C411 C 0.95505 0.71630 0.68305
 H412 H 0.94247 0.74186 0.68344
 C413 C 0.93932 0.68770 0.70031
 H414 H 0.91472 0.69130 0.71430
 C415 C 1.00097 0.67953 0.66214
 H416 H 1.02421 0.67598 0.64618
 C417 C 0.98620 0.65036 0.67904
 H418 H 0.99839 0.62470 0.67632
 N419 N 0.98508 0.71164 0.66403
 C420 C 1.03300 0.81380 0.64028
 H421 H 1.03649 0.80942 0.61224
 C422 C 1.04482 0.84515 0.65567
 H423 H 1.05765 0.86492 0.63949
 C424 C 1.01194 0.79330 0.69555
 H425 H 0.99914 0.77294 0.71085
 C426 C 1.02346 0.82449 0.71209
 H427 H 1.01961 0.82812 0.74022
 Zn428 Zn 1.00109 0.74865 0.63447
 N429 N 1.01659 0.78882 0.66014
 C430 C 0.95073 0.79536 0.60651
 N431 N 0.96267 0.76157 0.60505
 C432 C 0.94542 0.73646 0.58563
 C433 C 0.91470 0.74504 0.56682
 C434 C 0.92038 0.80500 0.58812
 C435 C 1.07030 0.72758 0.62691
 C436 C 1.10049 0.71499 0.61033
 C437 C 1.06858 0.71447 0.55480
 C438 C 1.03885 0.72719 0.57248
 N439 N 1.04016 0.73289 0.60802
 H440 H 0.96400 0.81476 0.62280
 H441 H 0.95499 0.70961 0.58554
 H442 H 0.90069 0.72486 0.55194
 H443 H 0.91085 0.83185 0.58999
 H444 H 1.07061 0.73263 0.65508
 H445 H 1.12415 0.71020 0.62575
 H446 H 1.06730 0.70927 0.52665
 H447 H 1.01476 0.73205 0.55794
 C448 C 1.03987 0.85069 0.69181
 C449 C 0.95477 0.65431 0.69775
 C450 C 1.09956 0.70809 0.57404
 C451 C 0.90200 0.77962 0.56839
 C452 C 0.53128 0.72248 0.32386
 H453 H 0.54411 0.74798 0.32212
 C454 C 0.54515 0.69350 0.30571
 H455 H 0.56858 0.69673 0.28974
 C456 C 0.48655 0.68637 0.34866
 H457 H 0.46451 0.68327 0.36635
 C458 C 0.49950 0.65682 0.33096
 H459 H 0.48712 0.63130 0.33485
 N460 N 0.50269 0.71836 0.34511
 C461 C 0.45850 0.82209 0.36826
 H462 H 0.45765 0.81970 0.39674
 C463 C 0.44517 0.85220 0.35202
 H464 H 0.43397 0.87303 0.36809
 C465 C 0.47371 0.79750 0.31265
 H466 H 0.48456 0.77592 0.29752
 C467 C 0.46056 0.82729 0.29524
 H468 H 0.46137 0.82860 0.26664
 Zn469 Zn 0.48894 0.75637 0.37463
 N470 N 0.47263 0.79565 0.34857
 C471 C 0.54175 0.80319 0.39946
 N472 N 0.52896 0.76966 0.40189
 C473 C 0.54606 0.74474 0.42129
 C474 C 0.57731 0.75329 0.43934
 C475 C 0.57275 0.81280 0.41708
 C476 C 0.41999 0.73572 0.38625
 C477 C 0.39080 0.72296 0.40454
 C478 C 0.42559 0.72378 0.45830
 C479 C 0.45425 0.73668 0.43895
 N480 N 0.45109 0.74163 0.40344
 H481 H 0.52851 0.82238 0.38317
 H482 H 0.53577 0.71808 0.42214
 H483 H 0.59104 0.73327 0.45438
 H484 H 0.58291 0.83946 0.41460
 H485 H 0.41821 0.74015 0.35806
 H486 H 0.36643 0.71743 0.39040
 H487 H 0.42843 0.71892 0.48637
 H488 H 0.47905 0.74203 0.45216
 C489 C 0.44620 0.85490 0.31519
 C490 C 0.52936 0.66028 0.30974
 C491 C 0.39373 0.71652 0.44077
 C492 C 0.59080 0.78763 0.43700
 Si493 Si 0.36011 0.00324 0.24892
 Si494 Si 0.12039 1.00817 0.75108
 Si495 Si 0.62008 0.50965 0.24893
 Si496 Si 0.85893 0.50291 0.75003
 Si497 Si 0.24897 0.35787 0.00366
 Si498 Si 0.75092 0.11989 1.00813
 Si499 Si 0.24982 0.62096 0.50876
 Si500 Si 0.74898 0.86000 0.50340
 Si501 Si 0.00344 0.24907 0.35929
 Si502 Si 1.00877 0.75027 0.11960
 Si503 Si 0.50889 0.24996 0.62007
 Si504 Si 0.50346 0.74923 0.85942
 C505 C 0.43225 -0.11607 0.29930
 C506 C 0.41896 -0.09011 0.28667
 C507 C 0.40208 -0.05973 0.27341
 C508 C 0.38640 -0.03413 0.26308
 C509 C 0.93109 0.38362 0.80037
 C510 C 0.91783 0.40962 0.78782
 C511 C 0.90095 0.44002 0.77460
 C512 C 0.88526 0.46561 0.76426
 C513 C 0.04550 1.12769 0.79689
 C514 C 0.05969 1.10152 0.78577
 C515 C 0.07728 1.07094 0.77395
 C516 C 0.09343 1.04529 0.76453
 C517 C 0.54541 0.62928 0.29482
 C518 C 0.55946 0.60305 0.28367
 C519 C 0.57694 0.57241 0.27182
 C520 C 0.59305 0.54673 0.26239
 C521 C 0.55295 0.38406 0.20554
 C522 C 0.56448 0.41169 0.21665
 C523 C 0.57967 0.44392 0.22800
 C524 C 0.59434 0.47088 0.23677
 C525 C 0.05241 0.88312 0.70747
 C526 C 0.06417 0.91060 0.71871
 C527 C 0.07962 0.94266 0.73017
 C528 C 0.09448 0.96951 0.73896
 C529 C 0.93693 0.62356 0.71125
 C530 C 0.92162 0.59740 0.72103
 C531 C 0.90302 0.56669 0.73113
 C532 C 0.88627 0.54077 0.73900
 C533 C 0.43840 0.12382 0.21043
 C534 C 0.42302 0.09767 0.22013
 C535 C 0.40434 0.06697 0.23013
 C536 C 0.38753 0.04107 0.23793
 C537 C 0.29909 0.43088 -0.11541
 C538 C 0.28653 0.41733 -0.08953
 C539 C 0.27333 0.40017 -0.05924
 C540 C 0.26304 0.38430 -0.03370
 C541 C 0.79888 0.93229 0.38382
 C542 C 0.78644 0.91899 0.40988
 C543 C 0.77337 0.90209 0.44037
 C544 C 0.76314 0.88637 0.46603
 C545 C 0.79663 0.04535 1.12832
 C546 C 0.78552 0.05940 1.10198
 C547 C 0.77372 0.07685 1.07122
 C548 C 0.76433 0.09293 1.04541
 C549 C 0.29581 0.54603 0.62856
 C550 C 0.28467 0.56021 0.60232
 C551 C 0.27281 0.57781 0.57167
 C552 C 0.26335 0.59397 0.54595
 C553 C 0.20650 0.55292 0.38351
 C554 C 0.21764 0.56470 0.41106
 C555 C 0.22899 0.58017 0.44319
 C556 C 0.23773 0.59504 0.47007
 C557 C 0.70657 0.05228 0.88298
 C558 C 0.71797 0.06392 0.91049
 C559 C 0.72962 0.07925 0.94259
 C560 C 0.73858 0.09403 0.96947
 C561 C 0.71097 0.93798 0.62431
 C562 C 0.72050 0.92266 0.59807
 C563 C 0.73034 0.90405 0.56728
 C564 C 0.73804 0.88731 0.54131
 C565 C 0.21072 0.43652 0.12404
 C566 C 0.22037 0.42099 0.09797
 C567 C 0.23032 0.40216 0.06735
 C568 C 0.23806 0.38527 0.04149
 C569 C -0.11548 0.29961 0.43169
 C570 C -0.08956 0.28700 0.41839
 C571 C -0.05926 0.27371 0.40147
 C572 C -0.03374 0.26332 0.38573
 C573 C 0.38427 0.79995 0.93123
 C574 C 0.41023 0.78732 0.91804
 C575 C 0.44060 0.77400 0.90126
 C576 C 0.46617 0.76358 0.88565
 C577 C 1.12830 0.79666 0.04486
 C578 C 1.10208 0.78540 0.05891
 C579 C 1.07146 0.77342 0.07638
 C580 C 1.04580 0.76387 0.09251
 C581 C 0.62844 0.29618 0.54524
 C582 C 0.60222 0.28496 0.55932
 C583 C 0.57161 0.27302 0.57683
 C584 C 0.54595 0.26351 0.59298
 C585 C 0.38363 0.20603 0.55256
 C586 C 0.41117 0.21730 0.56419
 C587 C 0.44330 0.22881 0.57950
 C588 C 0.47019 0.23768 0.59425
 C589 C 0.88329 0.70613 0.05272
 C590 C 0.91089 0.71744 0.06414
 C591 C 0.94309 0.72904 0.07924
 C592 C 0.97003 0.73796 0.09387
 C593 C 0.62365 0.70997 0.93794
 C594 C 0.59757 0.71981 0.92254
 C595 C 0.56696 0.73001 0.90382
 C596 C 0.54114 0.73798 0.88695
 C597 C 0.12401 0.20978 0.43725
 C598 C 0.09787 0.21961 0.42194
 C599 C 0.06717 0.22980 0.40333
 C600 C 0.04127 0.23778 0.38660
 C601 C 0.55776 0.13066 0.69315
 C602 C 0.54538 0.15639 0.67926
 C603 C 0.53243 0.18657 0.66187
 C604 C 0.52242 0.21217 0.64599
 C605 C 1.05756 0.63058 0.19206
 C606 C 1.04523 0.65642 0.17834
 C607 C 1.03232 0.68673 0.16115
 C608 C 1.02233 0.71242 0.14542
 C609 C 0.95919 0.86516 0.19879
 C610 C 0.97254 0.84043 0.18401
 C611 C 0.98617 0.81138 0.16524
 C612 C 0.99626 0.78671 0.14795
 C613 C 0.45943 0.36478 0.69946
 C614 C 0.47274 0.34009 0.68457
 C615 C 0.48632 0.31108 0.66571
 C616 C 0.49639 0.28642 0.64839
 C617 C 0.45396 0.62393 0.79672
 C618 C 0.46643 0.65155 0.80671
 C619 C 0.47967 0.68357 0.82070
 C620 C 0.48991 0.71037 0.83464
 C621 C -0.04637 0.12425 0.29584
 C622 C -0.03382 0.15177 0.30603
 C623 C -0.02050 0.18364 0.32025
 C624 C -0.01020 0.21034 0.33436
 C625 C 0.05136 0.36985 0.28909
 C626 C 0.03897 0.34264 0.29992
 C627 C 0.02611 0.31140 0.31553
 C628 C 0.01632 0.28561 0.33128
 C629 C 0.55208 0.86990 0.78953
 C630 C 0.53956 0.84269 0.80023
 C631 C 0.52652 0.81147 0.81572
 C632 C 0.51656 0.78569 0.83140
 C633 C 0.69278 0.55854 0.12930
 C634 C 0.67896 0.54611 0.15509
 C635 C 0.66167 0.53314 0.18535
 C636 C 0.64588 0.52314 0.21102
 C637 C 0.19275 1.05645 0.63101
 C638 C 0.17902 1.04419 0.65691
 C639 C 0.16182 1.03140 0.68730
 C640 C 0.14611 1.02153 0.71307
 C641 C 0.19994 0.95842 0.86605
 C642 C 0.18502 0.97186 0.84134
 C643 C 0.16613 0.98554 0.81229
 C644 C 0.14878 0.99565 0.78760
 C645 C 0.69947 0.46020 0.36414
 C646 C 0.68459 0.47353 0.33937
 C647 C 0.66574 0.48713 0.31025
 C648 C 0.64842 0.49719 0.28551
 C649 C 0.79637 0.45404 0.62420
 C650 C 0.80634 0.46637 0.65193
 C651 C 0.82032 0.47943 0.68408
 C652 C 0.83423 0.48953 0.71099
 C653 C 0.29690 -0.04531 0.12326
 C654 C 0.30706 -0.03302 0.15094
 C655 C 0.32124 -0.02004 0.18303
 C656 C 0.33529 -0.01002 0.20991
 C657 C 0.28974 0.05070 0.36974
 C658 C 0.30063 0.03839 0.34251
 C659 C 0.31631 0.02565 0.31127
 C660 C 0.33209 0.01596 0.28547
 C661 C 0.78866 0.55039 0.87088
 C662 C 0.79948 0.53807 0.84363
 C663 C 0.81510 0.52532 0.81236
 C664 C 0.83086 0.51562 0.78655
 C665 C 0.13001 0.69295 0.55739
 C666 C 0.15584 0.67933 0.54502
 C667 C 0.18617 0.66225 0.53211
 C668 C 0.21188 0.64661 0.52215
 C669 C 0.63146 0.19256 1.05666
 C670 C 0.65725 0.17881 1.04434
 C671 C 0.68750 0.16156 1.03147
 C672 C 0.71314 0.14578 1.02153
 C673 C 0.86606 0.19883 0.95823
 C674 C 0.84132 0.18403 0.97166
 C675 C 0.81223 0.16530 0.98536
 C676 C 0.78750 0.14808 0.99551
 C677 C 0.36463 0.70034 0.45893
 C678 C 0.33992 0.68550 0.47233
 C679 C 0.31089 0.66668 0.48603
 C680 C 0.28624 0.64936 0.49618
 C681 C 0.62374 0.79729 0.45359
 C682 C 0.65129 0.80732 0.46621
 C683 C 0.68325 0.82135 0.47958
 C684 C 0.71004 0.83529 0.48989
 C685 C 0.12322 0.29516 -0.04489
 C686 C 0.15095 0.30515 -0.03262
 C687 C 0.18309 0.31916 -0.01965
 C688 C 0.20999 0.33311 -0.00962
 C689 C 0.37017 0.28824 0.05111
 C690 C 0.34282 0.29888 0.03883
 C691 C 0.31145 0.31431 0.02611
 C692 C 0.28557 0.32993 0.01641
 C693 C 0.86941 0.78951 0.55156
 C694 C 0.84228 0.80040 0.53905
 C695 C 0.81114 0.81610 0.52609
 C696 C 0.78542 0.83190 0.51625
   
