data_POSCAR
  _audit_creation_date              2014-09-24
  _audit_creation_method            'ToBaCCo'
  _symmetry_space_group_name_H-M    'P1'
  _symmetry_Int_Tables_number       1
  _symmetry_cell_setting            triclinic
  loop_
  _symmetry_equiv_pos_as_xyz
 x,y,z
_cell_length_a 23.6861
_cell_length_b 25.6677
_cell_length_c 24.2946
_cell_angle_alpha 90.479700
_cell_angle_beta 91.898200
_cell_angle_gamma 90.046300
loop_
  _atom_site_label
  _atom_site_type_symbol
  _atom_site_fract_x
  _atom_site_fract_y
  _atom_site_fract_z
C1 C 0.25445 0.25036 0.25588
 C2 C 0.75569 0.75775 0.24817
 C3 C 0.74721 0.25482 0.74686
 C4 C 0.25259 0.74790 0.75702
 C5 C 0.07861 0.07991 0.02081
 H6 H 0.08067 0.08200 -0.02354
 C7 C 0.10962 0.11492 0.05407
 H8 H 0.13584 0.14376 0.03494
 C9 C 0.04111 0.04025 0.09935
 H10 H 0.01377 0.01157 0.11688
 C11 C 0.07157 0.07441 0.13422
 H12 H 0.06811 0.07007 0.17817
 N13 N 0.04543 0.04335 0.04378
 C14 C 0.02433 -0.07897 -0.08122
 H15 H -0.02129 -0.08058 -0.08482
 C16 C 0.05674 -0.11301 -0.11222
 H17 H 0.03532 -0.14056 -0.13978
 C18 C 0.10683 -0.04130 -0.04018
 H19 H 0.12617 -0.01372 -0.01149
 C20 C 0.14100 -0.07466 -0.07030
 H21 H 0.18608 -0.07077 -0.06396
 Zn22 Zn 0.00229 -0.00028 -0.00478
 N23 N 0.04967 -0.04372 -0.04645
 C24 C -0.03499 0.04287 -0.10706
 N25 N -0.04092 0.04399 -0.05159
 C26 C -0.07549 0.07909 -0.02756
 C27 C -0.10690 0.11413 -0.05973
 C28 C -0.06548 0.07733 -0.14082
 C29 C -0.01982 -0.08017 0.06866
 C30 C -0.05229 -0.11413 0.09911
 C31 C -0.13652 -0.07515 0.05870
 C32 C -0.10238 -0.04188 0.02902
 N33 N -0.04517 -0.04438 0.03517
 H34 H -0.00585 0.01591 -0.12524
 H35 H -0.07845 0.07992 0.01678
 H36 H -0.13437 0.14168 -0.03980
 H37 H -0.05869 0.07594 -0.18454
 H38 H 0.02580 -0.08206 0.07186
 H39 H -0.03132 -0.14203 0.12602
 H40 H -0.18178 -0.07271 0.05217
 H41 H -0.12173 -0.01446 0.00073
 C42 C 0.11606 -0.11149 -0.10721
 C43 C 0.10609 0.11283 0.11155
 C44 C -0.11142 -0.11150 0.09501
 C45 C -0.10253 0.11344 -0.11719
 C46 C 0.06926 0.58666 0.52761
 H47 H 0.06508 0.59317 0.48372
 C48 C 0.09973 0.62202 0.56113
 H49 H 0.11957 0.65463 0.54162
 C50 C 0.04893 0.53500 0.60472
 H51 H 0.02842 0.50162 0.62189
 C52 C 0.08001 0.56864 0.63960
 H53 H 0.08318 0.56016 0.68322
 N54 N 0.04438 0.54430 0.54974
 C55 C 0.02341 0.41894 0.42845
 H56 H -0.02196 0.41409 0.42872
 C57 C 0.05584 0.38574 0.39653
 H58 H 0.03505 0.35525 0.37231
 C59 C 0.10535 0.46460 0.46003
 H60 H 0.12435 0.49552 0.48480
 C61 C 0.13946 0.43234 0.42851
 H62 H 0.18436 0.43987 0.42902
 Zn63 Zn 0.00093 0.50021 0.50146
 N64 N 0.04844 0.45748 0.45924
 C65 C -0.03848 0.53987 0.39851
 N66 N -0.04326 0.54338 0.45407
 C67 C -0.07819 0.57889 0.47703
 C68 C -0.11174 0.61134 0.44370
 C69 C -0.07086 0.57187 0.36368
 C70 C -0.02188 0.41825 0.57369
 C71 C -0.05504 0.38444 0.60376
 C72 C -0.13842 0.42656 0.56560
 C73 C -0.10365 0.45962 0.53638
 N74 N -0.04646 0.45564 0.54165
 H75 H -0.00940 0.51244 0.38101
 H76 H -0.08008 0.58179 0.52139
 H77 H -0.13881 0.63958 0.46295
 H78 H -0.06674 0.56848 0.31952
 H79 H 0.02366 0.41478 0.57592
 H80 H -0.03464 0.35527 0.62950
 H81 H -0.18361 0.43038 0.55958
 H82 H -0.12265 0.48805 0.50908
 C83 C 0.11470 0.39182 0.39647
 C84 C 0.10526 0.61343 0.61833
 C85 C -0.11412 0.38874 0.60063
 C86 C -0.10874 0.60751 0.38610
 C87 C 0.56694 0.07370 0.52470
 H88 H 0.56139 0.07845 0.48065
 C89 C 0.60082 0.10855 0.55532
 H90 H 0.62012 0.14060 0.53429
 C91 C 0.54626 0.02673 0.60519
 H92 H 0.52505 -0.00542 0.62425
 C93 C 0.57980 0.06070 0.63744
 H94 H 0.58405 0.05457 0.68145
 N95 N 0.54091 0.03361 0.54986
 C96 C 0.52360 -0.09020 0.42737
 H97 H 0.47822 -0.09494 0.42393
 C98 C 0.55843 -0.12185 0.39625
 H99 H 0.53951 -0.15070 0.36854
 C100 C 0.60329 -0.04761 0.46855
 H101 H 0.62071 -0.01931 0.49755
 C102 C 0.63973 -0.07841 0.43814
 H103 H 0.68473 -0.07332 0.44488
 Zn104 Zn 0.49732 -0.01235 0.50490
 N105 N 0.54635 -0.05367 0.46240
 C106 C 0.44994 0.02306 0.40228
 N107 N 0.44991 0.02903 0.45802
 C108 C 0.41912 0.06743 0.48163
 C109 C 0.38525 0.10037 0.44922
 C110 C 0.41686 0.05530 0.36830
 C111 C 0.46540 -0.10860 0.55137
 C112 C 0.43338 -0.14217 0.58289
 C113 C 0.37822 -0.06831 0.61142
 C114 C 0.41127 -0.03628 0.57930
 N115 N 0.45347 -0.05678 0.54936
 H116 H 0.47624 -0.00602 0.38375
 H117 H 0.42228 0.07377 0.52561
 H118 H 0.36230 0.13129 0.46909
 H119 H 0.41750 0.05005 0.32403
 H120 H 0.50030 -0.12418 0.52902
 H121 H 0.44502 -0.18280 0.58336
 H122 H 0.34469 -0.05080 0.63456
 H123 H 0.40314 0.00501 0.57860
 C124 C 0.61726 -0.11592 0.40098
 C125 C 0.60826 0.10177 0.61249
 C126 C 0.38840 -0.12225 0.61327
 C127 C 0.38346 0.09412 0.39167
 C128 C 0.58310 0.57272 0.02725
 H129 H 0.58527 0.57275 -0.01717
 C130 C 0.61881 0.60510 0.05908
 H131 H 0.64764 0.63058 0.03856
 C132 C 0.54090 0.54071 0.10734
 H133 H 0.50985 0.51630 0.12601
 C134 C 0.57548 0.57274 0.14071
 H135 H 0.57112 0.57226 0.18495
 N136 N 0.54606 0.54050 0.05175
 C137 C 0.52192 0.41952 -0.07365
 H138 H 0.47638 0.41970 -0.07881
 C139 C 0.55409 0.38593 -0.10544
 H140 H 0.53298 0.36036 -0.13528
 C141 C 0.60460 0.45215 -0.02788
 H142 H 0.62409 0.47693 0.00344
 C143 C 0.63840 0.41917 -0.05875
 H144 H 0.68346 0.41930 -0.05017
 Zn145 Zn 0.50101 0.49643 0.00546
 N146 N 0.54754 0.45236 -0.03642
 C147 C 0.46518 0.54198 -0.09623
 N148 N 0.45640 0.53992 -0.04126
 C149 C 0.41703 0.57061 -0.01770
 C150 C 0.38207 0.60265 -0.05007
 C151 C 0.43220 0.57453 -0.13003
 C152 C 0.48113 0.42121 0.08530
 C153 C 0.44960 0.38977 0.11953
 C154 C 0.36446 0.42198 0.07424
 C155 C 0.39760 0.45296 0.04108
 N156 N 0.45483 0.45304 0.04807
 H157 H 0.49810 0.51876 -0.11394
 H158 H 0.41236 0.56970 0.02644
 H159 H 0.35151 0.62658 -0.02960
 H160 H 0.43983 0.57537 -0.17375
 H161 H 0.52678 0.42084 0.08889
 H162 H 0.47166 0.36474 0.14863
 H163 H 0.31891 0.42284 0.06856
 H164 H 0.37740 0.47673 0.00976
 C165 C 0.61316 0.38591 -0.09880
 C166 C 0.61577 0.60468 0.11676
 C167 C 0.39028 0.39075 0.11489
 C168 C 0.38887 0.60448 -0.10746
 C169 C 0.21608 -0.21942 -0.21043
 C170 C 0.23793 -0.18476 -0.16981
 C171 C 0.20649 -0.15071 -0.13747
 C172 C 0.14731 -0.14664 -0.13921
 H173 H 0.28337 -0.18354 -0.16286
 H174 H 0.23140 -0.12667 -0.10933
 H175 H 0.17102 -0.22052 -0.21927
 H176 H 0.12321 -0.17229 -0.16651
 C177 C 0.21905 0.28919 0.28799
 C178 C 0.23673 0.31084 0.33616
 C179 C 0.20394 0.34888 0.36820
 C180 C 0.14789 0.35566 0.36204
 H181 H 0.27813 0.30109 0.35321
 H182 H 0.22739 0.36936 0.40056
 H183 H 0.17997 0.30230 0.26839
 H184 H 0.12423 0.33181 0.33248
 C185 C 0.71943 -0.20717 0.28333
 C186 C 0.74160 -0.17536 0.32249
 C187 C 0.70719 -0.14072 0.35683
 C188 C 0.65299 -0.15052 0.36766
 H189 H 0.78707 -0.17321 0.32848
 H190 H 0.72835 -0.10678 0.37415
 H191 H 0.67442 -0.20603 0.27424
 H192 H 0.63293 -0.18533 0.35088
 C193 C 0.71151 0.28927 -0.21671
 C194 C 0.73443 0.32004 -0.17694
 C195 C 0.70156 0.35562 -0.14209
 C196 C 0.64623 0.34980 -0.13319
 H197 H 0.77995 0.32087 -0.17093
 H198 H 0.72505 0.38729 -0.12273
 H199 H 0.66654 0.29130 -0.22585
 H200 H 0.62330 0.31764 -0.15237
 C201 C -0.21738 0.21825 -0.21712
 C202 C -0.17692 0.18771 -0.23753
 C203 C -0.14390 0.14926 -0.20498
 C204 C -0.13597 0.15184 -0.15004
 H205 H -0.16876 0.18919 -0.28105
 H206 H -0.12470 0.11856 -0.22850
 H207 H -0.22865 0.21401 -0.17457
 H208 H -0.15478 0.18351 -0.12742
 C209 C -0.20681 0.72369 0.28510
 C210 C -0.22818 0.69315 0.32392
 C211 C -0.19331 0.66038 0.36139
 C212 C -0.14281 0.64105 0.34848
 H213 H -0.27317 0.69411 0.33057
 H214 H -0.21194 0.64965 0.39975
 H215 H -0.16161 0.72446 0.27988
 H216 H -0.12697 0.64738 0.30777
 C217 C 0.29090 0.21544 0.29289
 C218 C 0.26945 0.18839 0.33443
 C219 C 0.30332 0.15380 0.37079
 C220 C 0.34987 0.12888 0.35492
 H221 H 0.22558 0.19380 0.34425
 H222 H 0.28696 0.14666 0.41109
 H223 H 0.33521 0.21139 0.28407
 H224 H 0.36268 0.13194 0.31269
 C225 C 0.28939 0.71685 -0.20723
 C226 C 0.26983 0.68976 -0.16147
 C227 C 0.30288 0.65687 -0.12797
 C228 C 0.35496 0.63569 -0.14258
 H229 H 0.22678 0.69615 -0.14928
 H230 H 0.28397 0.64454 -0.09033
 H231 H 0.33340 0.71277 -0.21726
 H232 H 0.36812 0.64010 -0.18453
 C233 C -0.20853 -0.20802 0.21219
 C234 C -0.23184 -0.17636 0.17404
 C235 C -0.19923 -0.14072 0.13967
 C236 C -0.14467 -0.14788 0.12832
 H237 H -0.27744 -0.17457 0.16938
 H238 H -0.22224 -0.10785 0.12292
 H239 H -0.16330 -0.20731 0.21991
 H240 H -0.12247 -0.18141 0.14482
 C241 C -0.21533 0.29004 0.71336
 C242 C -0.23702 0.32381 0.67646
 C243 C -0.20291 0.36001 0.64412
 C244 C -0.14828 0.35234 0.63323
 H245 H -0.28250 0.32660 0.67103
 H246 H -0.22511 0.39362 0.62808
 H247 H -0.17026 0.28951 0.72222
 H248 H -0.12690 0.31812 0.64912
 C249 C 0.28674 -0.21888 0.72318
 C250 C 0.32312 -0.23844 0.68335
 C251 C 0.35634 -0.20795 0.64929
 C252 C 0.35378 -0.15331 0.64589
 H253 H 0.32676 -0.28033 0.67883
 H254 H 0.38417 -0.22954 0.62326
 H255 H 0.28543 -0.17728 0.73033
 H256 H 0.32210 -0.13284 0.66855
 C257 C 0.29124 0.28161 0.21794
 C258 C 0.33464 0.31134 0.23652
 C259 C 0.37074 0.34227 0.20045
 C260 C 0.35414 0.35889 0.15021
 H261 H 0.34615 0.31140 0.28000
 H262 H 0.41148 0.35388 0.21786
 H263 H 0.28099 0.28038 0.17419
 H264 H 0.31132 0.35164 0.13519
 C265 C 0.21756 0.21434 0.21978
 C266 C 0.16597 0.19768 0.23304
 C267 C 0.13185 0.16017 0.19929
 C268 C 0.13996 0.15049 0.14567
 H269 H 0.14842 0.21008 0.27157
 H270 H 0.09730 0.14189 0.21974
 H271 H 0.23707 0.19769 0.18401
 H272 H 0.17158 0.17242 0.12458
 C273 C 0.21809 0.71300 0.72264
 C274 C 0.18675 0.72978 0.67584
 C275 C 0.15301 0.69757 0.64143
 C276 C 0.13565 0.64701 0.65471
 H277 H 0.19093 0.76998 0.66330
 H278 H 0.13747 0.71498 0.60352
 H279 H 0.21567 0.67238 0.73407
 H280 H 0.14295 0.63367 0.69645
 C281 C 0.70787 0.22128 0.71042
 C282 C 0.72289 0.20047 0.66214
 C283 C 0.68614 0.16585 0.62773
 C284 C 0.64399 0.13715 0.64737
 H285 H 0.76336 0.21036 0.64563
 H286 H 0.69708 0.16200 0.58504
 H287 H 0.66700 0.21175 0.72628
 H288 H 0.63689 0.13712 0.69113
 C289 C 0.71805 0.72252 0.21208
 C290 C 0.73892 0.68952 0.17478
 C291 C 0.70299 0.65561 0.13878
 C292 C 0.65200 0.63836 0.15288
 H293 H 0.78396 0.68912 0.16838
 H294 H 0.72088 0.64263 0.10064
 H295 H 0.67278 0.72468 0.21641
 H296 H 0.63696 0.64698 0.19356
   
