data_POSCAR
  _audit_creation_date              2014-09-24
  _audit_creation_method            'ToBaCCo'
  _symmetry_space_group_name_H-M    'P1'
  _symmetry_Int_Tables_number       1
  _symmetry_cell_setting            triclinic
  loop_
  _symmetry_equiv_pos_as_xyz
 x,y,z
_cell_length_a 51.7006
_cell_length_b 51.7016
_cell_length_c 49.4843
_cell_angle_alpha 89.970400
_cell_angle_beta 89.969000
_cell_angle_gamma 89.981800
loop_
  _atom_site_label
  _atom_site_type_symbol
  _atom_site_fract_x
  _atom_site_fract_y
  _atom_site_fract_z
O1 O -0.02529 0.28258 0.02545
 O2 O 0.02636 0.28261 -0.02580
 O3 O -0.02399 0.28237 -0.02716
 O4 O 0.02505 0.28239 0.02681
 O5 O 0.02506 0.23961 0.02680
 O6 O -0.02393 0.23959 -0.02712
 O7 O 0.02642 0.23984 -0.02581
 O8 O -0.02528 0.23980 0.02549
 Cu9 Cu 0.00053 0.28680 -0.00018
 Cu10 Cu 0.00057 0.23539 -0.00016
 C11 C -0.03400 0.26120 0.03413
 C12 C 0.03511 0.26125 -0.03447
 C13 C -0.03224 0.26096 -0.03623
 C14 C 0.03332 0.26098 0.03591
 O15 O 0.47396 0.78212 0.52549
 O16 O 0.52529 0.78207 0.47391
 O17 O 0.47493 0.78179 0.47287
 O18 O 0.52433 0.78188 0.52654
 O19 O 0.52433 0.73910 0.52659
 O20 O 0.47498 0.73902 0.47298
 O21 O 0.52535 0.73929 0.47396
 O22 O 0.47396 0.73934 0.52561
 Cu23 Cu 0.49962 0.78628 0.49970
 Cu24 Cu 0.49966 0.73487 0.49980
 C25 C 0.46529 0.76076 0.53427
 C26 C 0.53399 0.76069 0.46523
 C27 C 0.46662 0.76037 0.46387
 C28 C 0.53267 0.76049 0.53561
 O29 O 1.02640 0.71803 0.02546
 O30 O 0.97496 0.71832 -0.02598
 O31 O 1.02532 0.71833 -0.02717
 O32 O 0.97603 0.71843 0.02664
 O33 O 0.97621 0.76121 0.02667
 O34 O 1.02545 0.76110 -0.02709
 O35 O 0.97508 0.76109 -0.02595
 O36 O 1.02658 0.76079 0.02555
 Cu37 Cu 1.00066 0.71396 -0.00026
 Cu38 Cu 1.00085 0.76536 -0.00020
 C39 C 1.03517 0.73935 0.03421
 C40 C 0.96634 0.73973 -0.03466
 C41 C 1.03370 0.73971 -0.03621
 C42 C 0.96780 0.73985 0.03572
 O43 O 0.52575 0.21702 0.52608
 O44 O 0.47427 0.21683 0.47475
 O45 O 0.52462 0.21723 0.47348
 O46 O 0.47540 0.21713 0.52737
 O47 O 0.47530 0.25991 0.52728
 O48 O 0.52446 0.26001 0.47345
 O49 O 0.47410 0.25960 0.47466
 O50 O 0.52565 0.25980 0.52606
 Cu51 Cu 0.50002 0.21274 0.50043
 Cu52 Cu 0.49986 0.26415 0.50036
 C53 C 0.53440 0.23842 0.53474
 C54 C 0.46550 0.23816 0.46603
 C55 C 0.53284 0.23866 0.46438
 C56 C 0.46705 0.23853 0.53642
 O57 O 0.71748 -0.02534 0.02485
 O58 O 0.71756 0.02631 -0.02639
 O59 O 0.71777 -0.02403 -0.02775
 O60 O 0.71769 0.02501 0.02623
 O61 O 0.76047 0.02496 0.02624
 O62 O 0.76055 -0.02402 -0.02768
 O63 O 0.76033 0.02632 -0.02637
 O64 O 0.76026 -0.02538 0.02492
 Cu65 Cu 0.71331 0.00049 -0.00077
 Cu66 Cu 0.76472 0.00047 -0.00072
 C67 C 0.73884 -0.03408 0.03354
 C68 C 0.73894 0.03504 -0.03504
 C69 C 0.73919 -0.03230 -0.03682
 C70 C 0.73909 0.03325 0.03534
 O71 O 0.21765 0.52548 0.47456
 O72 O 0.21780 0.47414 0.52613
 O73 O 0.21794 0.52451 0.52719
 O74 O 0.21802 0.47512 0.47351
 O75 O 0.26080 0.47523 0.47348
 O76 O 0.26071 0.52458 0.52710
 O77 O 0.26058 0.47420 0.52611
 O78 O 0.26042 0.52561 0.47447
 Cu79 Cu 0.21354 0.49981 0.50035
 Cu80 Cu 0.26494 0.49992 0.50029
 C81 C 0.23899 0.53421 0.46580
 C82 C 0.23920 0.46550 0.53483
 C83 C 0.23933 0.53288 0.53620
 C84 C 0.23944 0.46684 0.46444
 O85 O 0.28173 1.02650 0.02605
 O86 O 0.28174 0.97507 -0.02540
 O87 O 0.28153 1.02543 -0.02658
 O88 O 0.28151 0.97614 0.02723
 O89 O 0.23874 0.97618 0.02721
 O90 O 0.23876 1.02543 -0.02654
 O91 O 0.23897 0.97506 -0.02542
 O92 O 0.23896 1.02655 0.02609
 Cu93 Cu 0.28594 1.00078 0.00032
 Cu94 Cu 0.23454 1.00081 0.00034
 C95 C 0.26036 1.03521 0.03477
 C96 C 0.26037 0.96638 -0.03410
 C97 C 0.26013 1.03375 -0.03564
 C98 C 0.26010 0.96784 0.03629
 O99 O 0.78279 0.47426 0.47409
 O100 O 0.78302 0.52573 0.52543
 O101 O 0.78262 0.47538 0.52669
 O102 O 0.78268 0.52461 0.47282
 O103 O 0.73990 0.52471 0.47295
 O104 O 0.73985 0.47554 0.52676
 O105 O 0.74024 0.52589 0.52556
 O106 O 0.74001 0.47435 0.47415
 Cu107 Cu 0.78710 0.49998 0.49975
 Cu108 Cu 0.73568 0.50014 0.49987
 C109 C 0.76139 0.46562 0.46545
 C110 C 0.76169 0.53450 0.53417
 C111 C 0.76121 0.46715 0.53581
 C112 C 0.76128 0.53296 0.46380
 C113 C 0.24064 0.25865 0.25048
 C114 C 0.25917 0.23987 0.25032
 C115 C 0.26055 0.22018 0.22849
 C116 C 0.27896 0.23809 0.27199
 C117 C 0.24085 0.27997 0.27060
 C118 C 0.21918 0.25879 0.23054
 C119 C 0.26053 0.19377 0.23511
 C120 C 0.26114 0.17505 0.21474
 C121 C 0.26201 0.18254 0.18756
 C122 C 0.26258 0.20885 0.18083
 C123 C 0.26199 0.22759 0.20118
 C124 C 0.27169 0.23653 0.29933
 C125 C 0.29053 0.23570 0.31956
 C126 C 0.31680 0.23614 0.31265
 C127 C 0.32415 0.23707 0.28544
 C128 C 0.30534 0.23794 0.26520
 C129 C 0.26271 0.29586 0.27377
 C130 C 0.26275 0.31559 0.29310
 C131 C 0.24089 0.31979 0.30923
 C132 C 0.21890 0.30435 0.30580
 C133 C 0.21884 0.28461 0.28652
 C134 C 0.21478 0.28089 0.21469
 C135 C 0.19501 0.28110 0.19546
 C136 C 0.17930 0.25930 0.19204
 C137 C 0.18323 0.23738 0.20815
 C138 C 0.20299 0.23716 0.22742
 H139 H 0.25957 0.18767 0.25603
 H140 H 0.26076 0.15475 0.22018
 H141 H 0.26338 0.21486 0.15987
 H142 H 0.26253 0.24786 0.19568
 H143 H 0.25145 0.23613 0.30495
 H144 H 0.28464 0.23485 0.34055
 H145 H 0.31132 0.23898 0.24425
 H146 H 0.27970 0.29293 0.26134
 H147 H 0.27983 0.32751 0.29550
 H148 H 0.20186 0.30748 0.31812
 H149 H 0.20175 0.27268 0.28426
 H150 H 0.22695 0.29781 0.21691
 H151 H 0.19209 0.29817 0.18313
 H152 H 0.17110 0.22045 0.20575
 H153 H 0.20576 0.22011 0.23982
 H154 H 0.34442 0.23736 0.27989
 C155 C 0.75931 0.74082 0.24944
 C156 C 0.74056 0.75938 0.24937
 C157 C 0.73897 0.77913 0.22762
 C158 C 0.72073 0.76085 0.27107
 C159 C 0.75931 0.71941 0.26948
 C160 C 0.78077 0.74097 0.22947
 C161 C 0.73877 0.80552 0.23433
 C162 C 0.73802 0.82430 0.21403
 C163 C 0.73724 0.81691 0.18683
 C164 C 0.73688 0.79063 0.18000
 C165 C 0.73760 0.77182 0.20029
 C166 C 0.72797 0.76240 0.29840
 C167 C 0.70910 0.76306 0.31864
 C168 C 0.68284 0.76247 0.31175
 C169 C 0.67552 0.76152 0.28453
 C170 C 0.69436 0.76083 0.26429
 C171 C 0.73763 0.70327 0.27258
 C172 C 0.73776 0.68351 0.29188
 C173 C 0.75962 0.67954 0.30805
 C174 C 0.78145 0.69522 0.30467
 C175 C 0.78134 0.71499 0.28541
 C176 C 0.78545 0.71895 0.21360
 C177 C 0.80528 0.71899 0.19440
 C178 C 0.82076 0.74096 0.19103
 C179 C 0.81654 0.76282 0.20713
 C180 C 0.79672 0.76279 0.22637
 H181 H 0.73967 0.81154 0.25527
 H182 H 0.73824 0.84458 0.21953
 H183 H 0.73615 0.78470 0.15902
 H184 H 0.73724 0.75157 0.19472
 H185 H 0.74820 0.76293 0.30403
 H186 H 0.71497 0.76392 0.33963
 H187 H 0.68840 0.75980 0.24334
 H188 H 0.72064 0.70604 0.26012
 H189 H 0.72081 0.67140 0.29424
 H190 H 0.79848 0.69227 0.31704
 H191 H 0.79829 0.72713 0.28321
 H192 H 0.77347 0.70189 0.21580
 H193 H 0.80843 0.70196 0.18208
 H194 H 0.82849 0.77988 0.20477
 H195 H 0.79375 0.77978 0.23878
 H196 H 0.65526 0.76113 0.27898
 C197 C 0.74074 0.24047 0.25002
 C198 C 0.75941 0.25909 0.24994
 C199 C 0.77916 0.26060 0.22817
 C200 C 0.76101 0.27887 0.27164
 C201 C 0.71937 0.24056 0.27011
 C202 C 0.74073 0.21906 0.23002
 C203 C 0.80555 0.26068 0.23486
 C204 C 0.82432 0.26144 0.21455
 C205 C 0.81692 0.26233 0.18736
 C206 C 0.79064 0.26279 0.18055
 C207 C 0.77183 0.26207 0.20085
 C208 C 0.76257 0.27158 0.29897
 C209 C 0.76330 0.29042 0.31921
 C210 C 0.76278 0.31668 0.31232
 C211 C 0.76184 0.32405 0.28511
 C212 C 0.76106 0.30524 0.26486
 C213 C 0.70333 0.26232 0.27325
 C214 C 0.68360 0.26227 0.29258
 C215 C 0.67953 0.24040 0.30873
 C216 C 0.69511 0.21849 0.30531
 C217 C 0.71486 0.21853 0.28603
 C218 C 0.71867 0.21459 0.21417
 C219 C 0.71857 0.19484 0.19491
 C220 C 0.74045 0.17923 0.19147
 C221 C 0.76234 0.18324 0.20757
 C222 C 0.76245 0.20297 0.22687
 H223 H 0.81158 0.25971 0.25579
 H224 H 0.84461 0.26114 0.22004
 H225 H 0.78470 0.26361 0.15957
 H226 H 0.75158 0.26252 0.19529
 H227 H 0.76304 0.25134 0.30458
 H228 H 0.76416 0.28451 0.34020
 H229 H 0.76003 0.31124 0.24391
 H230 H 0.70618 0.27932 0.26081
 H231 H 0.67157 0.27928 0.29497
 H232 H 0.69209 0.20145 0.31766
 H233 H 0.72691 0.20152 0.28379
 H234 H 0.70169 0.22668 0.21642
 H235 H 0.70151 0.19186 0.18259
 H236 H 0.77933 0.17118 0.20515
 H237 H 0.77947 0.20579 0.23927
 H238 H 0.76149 0.34432 0.27957
 C239 C 0.25850 0.75920 0.24984
 C240 C 0.23984 0.74055 0.24972
 C241 C 0.22015 0.73907 0.22791
 C242 C 0.23823 0.72072 0.27141
 C243 C 0.27987 0.75905 0.26992
 C244 C 0.25848 0.78071 0.22992
 C245 C 0.19374 0.73889 0.23455
 C246 C 0.17501 0.73818 0.21420
 C247 C 0.18248 0.73744 0.18702
 C248 C 0.20879 0.73706 0.18025
 C249 C 0.22754 0.73773 0.20059
 C250 C 0.23666 0.72797 0.29874
 C251 C 0.23597 0.70910 0.31898
 C252 C 0.23656 0.68284 0.31210
 C253 C 0.23750 0.67552 0.28488
 C254 C 0.23822 0.69435 0.26463
 C255 C 0.29589 0.73727 0.27301
 C256 C 0.31562 0.73725 0.29234
 C257 C 0.31968 0.75907 0.30854
 C258 C 0.30412 0.78099 0.30518
 C259 C 0.28438 0.78103 0.28590
 C260 C 0.28056 0.78534 0.21411
 C261 C 0.28064 0.80520 0.19495
 C262 C 0.25872 0.82076 0.19155
 C263 C 0.23681 0.81659 0.20761
 C264 C 0.23672 0.79674 0.22681
 H265 H 0.18765 0.73975 0.25548
 H266 H 0.15471 0.73842 0.21966
 H267 H 0.21479 0.73636 0.15929
 H268 H 0.24781 0.73736 0.19507
 H269 H 0.23615 0.74820 0.30436
 H270 H 0.23512 0.71498 0.33998
 H271 H 0.23927 0.68839 0.24368
 H272 H 0.29305 0.72031 0.26053
 H273 H 0.32763 0.72022 0.29469
 H274 H 0.30714 0.79800 0.31756
 H275 H 0.27235 0.79805 0.28370
 H276 H 0.29758 0.77329 0.21633
 H277 H 0.29772 0.80830 0.18267
 H278 H 0.21979 0.82861 0.20523
 H279 H 0.21968 0.79381 0.23918
 H280 H 0.23790 0.65525 0.27933
 C281 C 0.75968 0.25911 0.74999
 C282 C 0.74107 0.24043 0.75010
 C283 C 0.72126 0.23882 0.72843
 C284 C 0.73960 0.22069 0.77188
 C285 C 0.78114 0.25911 0.76993
 C286 C 0.75955 0.28049 0.72992
 C287 C 0.69490 0.23876 0.73524
 C288 C 0.67607 0.23798 0.71501
 C289 C 0.68340 0.23703 0.68780
 C290 C 0.70966 0.23652 0.68088
 C291 C 0.72852 0.23727 0.70110
 C292 C 0.73817 0.22803 0.79920
 C293 C 0.73746 0.20922 0.81951
 C294 C 0.73790 0.18294 0.81270
 C295 C 0.73875 0.17553 0.78551
 C296 C 0.73949 0.19430 0.76520
 C297 C 0.79724 0.23738 0.77302
 C298 C 0.81705 0.23750 0.79223
 C299 C 0.82113 0.25940 0.80831
 C300 C 0.80550 0.28127 0.80494
 C301 C 0.78567 0.28117 0.78577
 C302 C 0.78156 0.28502 0.71397
 C303 C 0.78156 0.30479 0.69471
 C304 C 0.75964 0.32036 0.69134
 C305 C 0.73779 0.31627 0.70752
 C306 C 0.73778 0.29651 0.72683
 H307 H 0.68892 0.23980 0.75620
 H308 H 0.65580 0.23832 0.72058
 H309 H 0.71555 0.23566 0.65988
 H310 H 0.74876 0.23680 0.69546
 H311 H 0.73773 0.24828 0.80475
 H312 H 0.73667 0.21517 0.84048
 H313 H 0.74043 0.18826 0.74426
 H314 H 0.79438 0.22036 0.76063
 H315 H 0.82912 0.22051 0.79461
 H316 H 0.80853 0.29833 0.81725
 H317 H 0.77357 0.29815 0.78357
 H318 H 0.79858 0.27298 0.71617
 H319 H 0.79859 0.30783 0.68233
 H320 H 0.72078 0.32829 0.70517
 H321 H 0.72080 0.29365 0.73930
 H322 H 0.73903 0.15524 0.78003
 C323 C 0.24029 0.74097 0.75026
 C324 C 0.25888 0.75969 0.75027
 C325 C 0.27867 0.76128 0.72855
 C326 C 0.26033 0.77949 0.77198
 C327 C 0.21886 0.74097 0.77027
 C328 C 0.24043 0.71956 0.73024
 C329 C 0.30505 0.76138 0.73531
 C330 C 0.32387 0.76209 0.71504
 C331 C 0.31652 0.76292 0.68783
 C332 C 0.29026 0.76340 0.68096
 C333 C 0.27141 0.76273 0.70122
 C334 C 0.26177 0.77223 0.79933
 C335 C 0.26243 0.79108 0.81957
 C336 C 0.26192 0.81735 0.81268
 C337 C 0.26106 0.82469 0.78546
 C338 C 0.26037 0.80587 0.76521
 C339 C 0.20274 0.76267 0.77337
 C340 C 0.18299 0.76258 0.79269
 C341 C 0.17901 0.74072 0.80888
 C342 C 0.19465 0.71886 0.80549
 C343 C 0.21441 0.71894 0.78621
 C344 C 0.21842 0.71497 0.71433
 C345 C 0.21845 0.69521 0.69508
 C346 C 0.24040 0.67969 0.69167
 C347 C 0.26225 0.68383 0.70781
 C348 C 0.26224 0.70358 0.72711
 H349 H 0.31103 0.76042 0.75626
 H350 H 0.34414 0.76177 0.72058
 H351 H 0.28436 0.76417 0.65997
 H352 H 0.25117 0.76316 0.69561
 H353 H 0.26226 0.75199 0.80495
 H354 H 0.26322 0.78518 0.84056
 H355 H 0.25942 0.81186 0.74425
 H356 H 0.20553 0.77967 0.76091
 H357 H 0.17092 0.77955 0.79507
 H358 H 0.19169 0.70182 0.81787
 H359 H 0.22652 0.70197 0.78401
 H360 H 0.20138 0.72697 0.71655
 H361 H 0.20143 0.69214 0.68274
 H362 H 0.27930 0.67185 0.70543
 H363 H 0.27922 0.70648 0.73954
 H364 H 0.26072 0.84496 0.77990
 C365 C 0.25945 0.24057 0.75107
 C366 C 0.24085 0.25928 0.75105
 C367 C 0.23937 0.27905 0.72929
 C368 C 0.22106 0.26089 0.77277
 C369 C 0.25931 0.21917 0.77112
 C370 C 0.28087 0.24054 0.73105
 C371 C 0.23932 0.30543 0.73600
 C372 C 0.23861 0.32422 0.71570
 C373 C 0.23772 0.31683 0.68851
 C374 C 0.23721 0.29056 0.68168
 C375 C 0.23789 0.27174 0.70197
 C376 C 0.22833 0.26237 0.80010
 C377 C 0.20948 0.26312 0.82035
 C378 C 0.18322 0.26268 0.81348
 C379 C 0.17586 0.26179 0.78628
 C380 C 0.19468 0.26101 0.76601
 C381 C 0.23752 0.20318 0.77424
 C382 C 0.23750 0.18344 0.79356
 C383 C 0.25934 0.17932 0.80973
 C384 C 0.28128 0.19485 0.80633
 C385 C 0.28131 0.21460 0.78706
 C386 C 0.28534 0.21847 0.71519
 C387 C 0.30510 0.21835 0.69592
 C388 C 0.32073 0.24021 0.69245
 C389 C 0.31672 0.26211 0.70855
 C390 C 0.29697 0.26224 0.72787
 H391 H 0.24030 0.31145 0.75694
 H392 H 0.23894 0.34450 0.72121
 H393 H 0.23639 0.28463 0.66070
 H394 H 0.23740 0.25149 0.69640
 H395 H 0.24857 0.26279 0.80570
 H396 H 0.21538 0.26393 0.84134
 H397 H 0.18870 0.26003 0.74506
 H398 H 0.22055 0.20608 0.76179
 H399 H 0.22047 0.17146 0.79594
 H400 H 0.29830 0.19178 0.81870
 H401 H 0.29835 0.22661 0.78484
 H402 H 0.27325 0.20150 0.71746
 H403 H 0.30809 0.20128 0.68361
 H404 H 0.32878 0.27908 0.70612
 H405 H 0.29415 0.27927 0.74026
 H406 H 0.15559 0.26151 0.78074
 C407 C 0.74128 0.75991 0.74912
 C408 C 0.76006 0.74138 0.74928
 C409 C 0.76177 0.72153 0.72766
 C410 C 0.77980 0.74005 0.77106
 C411 C 0.74119 0.78142 0.76901
 C412 C 0.71990 0.75965 0.72906
 C413 C 0.76196 0.69518 0.73453
 C414 C 0.76281 0.67631 0.71435
 C415 C 0.76369 0.68359 0.68711
 C416 C 0.76409 0.70983 0.68013
 C417 C 0.76328 0.72873 0.70030
 C418 C 0.77247 0.73866 0.79839
 C419 C 0.79127 0.73808 0.81869
 C420 C 0.81756 0.73860 0.81187
 C421 C 0.82497 0.73942 0.78467
 C422 C 0.80620 0.74004 0.76436
 C423 C 0.76284 0.79761 0.77202
 C424 C 0.76267 0.81742 0.79124
 C425 C 0.74079 0.82139 0.80740
 C426 C 0.71898 0.80568 0.80409
 C427 C 0.71914 0.78586 0.78491
 C428 C 0.71523 0.78163 0.71310
 C429 C 0.69544 0.78153 0.69388
 C430 C 0.67998 0.75954 0.69056
 C431 C 0.68422 0.73771 0.70673
 C432 C 0.70400 0.73780 0.72599
 H433 H 0.76097 0.68925 0.75551
 H434 H 0.76255 0.65605 0.71997
 H435 H 0.76490 0.71567 0.65912
 H436 H 0.76365 0.74896 0.69462
 H437 H 0.75222 0.73815 0.80396
 H438 H 0.78532 0.73731 0.83967
 H439 H 0.81224 0.74094 0.74342
 H440 H 0.77985 0.79481 0.75958
 H441 H 0.77961 0.82955 0.79356
 H442 H 0.70194 0.80864 0.81645
 H443 H 0.70221 0.77369 0.78276
 H444 H 0.72717 0.79872 0.71528
 H445 H 0.69229 0.79854 0.68152
 H446 H 0.67229 0.72063 0.70440
 H447 H 0.70696 0.72083 0.73846
 H448 H 0.84526 0.73976 0.77916
 C449 C 0.26093 0.09105 0.09159
 C450 C 0.24208 0.11337 0.08602
 C451 C 0.24241 0.13212 0.10537
 C452 C 0.26155 0.12671 0.12840
 C453 C 0.28777 0.12273 0.11443
 C454 C 0.28744 0.10399 0.09508
 C455 C 0.25370 0.08117 0.11986
 C456 C 0.25403 0.09991 0.13920
 C457 C 0.26060 0.07081 0.07080
 C458 C 0.26043 0.05410 0.05382
 C459 C 0.26188 0.14683 0.14931
 C460 C 0.26203 0.16320 0.16666
 H461 H 0.22958 0.11437 0.06842
 H462 H 0.23019 0.14918 0.10435
 H463 H 0.30506 0.13368 0.11930
 H464 H 0.30446 0.09888 0.08338
 H465 H 0.24876 0.06120 0.12429
 H466 H 0.24937 0.09599 0.16021
 C467 C 0.76254 0.59158 0.59180
 C468 C 0.74385 0.61398 0.58605
 C469 C 0.74425 0.63283 0.60529
 C470 C 0.76330 0.62741 0.62840
 C471 C 0.78953 0.62321 0.61452
 C472 C 0.78913 0.60437 0.59528
 C473 C 0.75520 0.58188 0.62010
 C474 C 0.75560 0.60071 0.63934
 C475 C 0.76213 0.57126 0.57113
 C476 C 0.76186 0.55450 0.55422
 C477 C 0.76368 0.64762 0.64917
 C478 C 0.76381 0.66410 0.66639
 H479 H 0.73140 0.61497 0.56842
 H480 H 0.73214 0.64995 0.60415
 H481 H 0.80688 0.63408 0.61938
 H482 H 0.80615 0.59909 0.58365
 H483 H 0.75013 0.56196 0.62463
 H484 H 0.75087 0.59693 0.66035
 C485 C 0.73821 0.90876 0.09119
 C486 C 0.72668 0.91766 0.11823
 C487 C 0.72635 0.89884 0.13750
 C488 C 0.73759 0.87295 0.12787
 C489 C 0.76483 0.87945 0.11754
 C490 C 0.76516 0.89828 0.09826
 C491 C 0.72236 0.88486 0.08318
 C492 C 0.72203 0.86603 0.10247
 C493 C 0.73854 0.92908 0.07049
 C494 C 0.73874 0.94587 0.05358
 C495 C 0.73728 0.85276 0.14870
 C496 C 0.73716 0.83632 0.16599
 H497 H 0.71941 0.93705 0.12191
 H498 H 0.71880 0.90210 0.15769
 H499 H 0.78232 0.87008 0.12472
 H500 H 0.78292 0.90503 0.08892
 H501 H 0.71229 0.88289 0.06405
 H502 H 0.71168 0.84793 0.09986
 C503 C 0.23868 0.40856 0.59272
 C504 C 0.22710 0.41750 0.61972
 C505 C 0.22678 0.39872 0.63905
 C506 C 0.23807 0.37283 0.62949
 C507 C 0.26531 0.37935 0.61917
 C508 C 0.26563 0.39813 0.59985
 C509 C 0.22287 0.38462 0.58476
 C510 C 0.22255 0.36583 0.60409
 C511 C 0.23900 0.42882 0.57196
 C512 C 0.23917 0.44555 0.55497
 C513 C 0.23776 0.35267 0.65036
 C514 C 0.23764 0.33625 0.66767
 H515 H 0.21980 0.43689 0.62334
 H516 H 0.21920 0.40202 0.65922
 H517 H 0.28280 0.37002 0.62641
 H518 H 0.28340 0.40490 0.59053
 H519 H 0.21282 0.38259 0.56562
 H520 H 0.21222 0.34771 0.60151
 C521 C 0.90882 0.26168 0.09176
 C522 C 0.88980 0.28433 0.08890
 C523 C 0.87096 0.28460 0.10817
 C524 C 0.87297 0.26217 0.12841
 C525 C 0.90047 0.26398 0.13995
 C526 C 0.91930 0.26372 0.12069
 C527 C 0.89183 0.23733 0.09175
 C528 C 0.87299 0.23759 0.11102
 C529 C 0.92915 0.26141 0.07107
 C530 C 0.94594 0.26125 0.05416
 C531 C 0.85277 0.26241 0.14923
 C532 C 0.83633 0.26248 0.16651
 H533 H 0.89103 0.29888 0.07312
 H534 H 0.85604 0.29936 0.10891
 H535 H 0.90476 0.26535 0.16138
 H536 H 0.93973 0.26487 0.12562
 H537 H 0.89438 0.22130 0.07784
 H538 H 0.85939 0.22178 0.11361
 C539 C 0.40833 0.76153 0.59214
 C540 C 0.38951 0.78435 0.58934
 C541 C 0.37071 0.78477 0.60865
 C542 C 0.37258 0.76232 0.62888
 C543 C 0.40011 0.76390 0.64036
 C544 C 0.41890 0.76348 0.62105
 C545 C 0.39114 0.73733 0.59217
 C546 C 0.37234 0.73774 0.61148
 C547 C 0.42861 0.76111 0.57139
 C548 C 0.44534 0.76087 0.55441
 C549 C 0.35240 0.76273 0.64973
 C550 C 0.33596 0.76293 0.66702
 H551 H 0.39083 0.79890 0.57356
 H552 H 0.35593 0.79966 0.60943
 H553 H 0.40446 0.76522 0.66177
 H554 H 0.43935 0.76445 0.62593
 H555 H 0.39352 0.72128 0.57824
 H556 H 0.35862 0.72205 0.61410
 C557 C 0.09100 0.73855 0.09104
 C558 C 0.11713 0.74913 0.08129
 C559 C 0.13588 0.74877 0.10066
 C560 C 0.12665 0.73786 0.12786
 C561 C 0.11569 0.71101 0.12125
 C562 C 0.09695 0.71137 0.10189
 C563 C 0.08427 0.75466 0.11612
 C564 C 0.10301 0.75430 0.13548
 C565 C 0.07077 0.73893 0.07024
 C566 C 0.05406 0.73918 0.05325
 C567 C 0.14676 0.73752 0.14878
 C568 C 0.16313 0.73738 0.16612
 H569 H 0.12062 0.75627 0.06098
 H570 H 0.15541 0.75559 0.09692
 H571 H 0.12210 0.69327 0.13091
 H572 H 0.08731 0.69394 0.09498
 H573 H 0.06637 0.76541 0.11848
 H574 H 0.10115 0.76474 0.15441
 C575 C 0.59148 0.23793 0.59237
 C576 C 0.61766 0.24816 0.58235
 C577 C 0.63650 0.24784 0.60161
 C578 C 0.62730 0.23732 0.62900
 C579 C 0.61608 0.21050 0.62277
 C580 C 0.59725 0.21081 0.60352
 C581 C 0.58503 0.25437 0.61729
 C582 C 0.60385 0.25405 0.63655
 C583 C 0.57117 0.23824 0.57170
 C584 C 0.55441 0.23840 0.55478
 C585 C 0.64750 0.23702 0.64978
 C586 C 0.66395 0.23691 0.66703
 H587 H 0.62110 0.25505 0.56194
 H588 H 0.65607 0.25445 0.59770
 H589 H 0.62237 0.19281 0.63262
 H590 H 0.58741 0.19340 0.59687
 H591 H 0.56723 0.26531 0.61962
 H592 H 0.60219 0.26472 0.65536
 C593 C 0.73852 0.09111 0.90837
 C594 C 0.71123 0.09856 0.89894
 C595 C 0.71097 0.11739 0.87966
 C596 C 0.73804 0.12692 0.87169
 C597 C 0.75282 0.10248 0.86319
 C598 C 0.75307 0.08366 0.88247
 C599 C 0.75092 0.11660 0.91760
 C600 C 0.75067 0.13543 0.89831
 C601 C 0.73877 0.07079 0.92908
 C602 C 0.73891 0.05401 0.94599
 C603 C 0.73781 0.14711 0.85085
 C604 C 0.73775 0.16354 0.83356
 H605 H 0.69364 0.08982 0.90674
 H606 H 0.69318 0.12478 0.87094
 H607 H 0.76226 0.10016 0.84374
 H608 H 0.76273 0.06522 0.87954
 H609 H 0.75916 0.11959 0.93753
 H610 H 0.75870 0.15455 0.90171
 C611 C 0.23809 0.59112 0.40787
 C612 C 0.21172 0.60451 0.40503
 C613 C 0.21126 0.62328 0.38569
 C614 C 0.23722 0.62682 0.37108
 C615 C 0.24405 0.59990 0.36010
 C616 C 0.24450 0.58114 0.37944
 C617 C 0.25742 0.61311 0.41297
 C618 C 0.25696 0.63188 0.39363
 C619 C 0.23855 0.57087 0.42865
 C620 C 0.23883 0.55416 0.44565
 C621 C 0.23677 0.64696 0.35020
 C622 C 0.23656 0.66339 0.33290
 H623 H 0.19489 0.59968 0.41716
 H624 H 0.19404 0.63453 0.38125
 H625 H 0.24816 0.59593 0.33899
 H626 H 0.24901 0.56110 0.37489
 H627 H 0.27032 0.61387 0.43025
 H628 H 0.26947 0.64873 0.39434
 C629 C 0.26096 0.90929 0.90818
 C630 C 0.27030 0.91879 0.88045
 C631 C 0.27062 0.89996 0.86119
 C632 C 0.26156 0.87347 0.87154
 C633 C 0.23465 0.87837 0.88362
 C634 C 0.23433 0.89720 0.90288
 C635 C 0.27868 0.88640 0.91514
 C636 C 0.27900 0.86757 0.89588
 C637 C 0.26064 0.92961 0.92888
 C638 C 0.26045 0.94638 0.94582
 C639 C 0.26187 0.85326 0.85073
 C640 C 0.26199 0.83680 0.83347
 H641 H 0.27616 0.93856 0.87630
 H642 H 0.27675 0.90361 0.84055
 H643 H 0.21736 0.86795 0.87759
 H644 H 0.21677 0.90291 0.91335
 H645 H 0.28998 0.88510 0.93358
 H646 H 0.29056 0.85014 0.89781
 C647 C 0.76186 0.40855 0.40780
 C648 C 0.77357 0.41739 0.38082
 C649 C 0.77389 0.39857 0.36156
 C650 C 0.76246 0.37275 0.37116
 C651 C 0.73521 0.37941 0.38134
 C652 C 0.73489 0.39824 0.40060
 C653 C 0.77754 0.38456 0.41591
 C654 C 0.77786 0.36573 0.39665
 C655 C 0.76154 0.42886 0.42848
 C656 C 0.76139 0.44562 0.44540
 C657 C 0.76277 0.35256 0.35036
 C658 C 0.76288 0.33611 0.33311
 H659 H 0.78096 0.43673 0.37716
 H660 H 0.78155 0.40179 0.34141
 H661 H 0.71770 0.37015 0.37407
 H662 H 0.71711 0.40511 0.40983
 H663 H 0.78751 0.38253 0.43510
 H664 H 0.78810 0.34757 0.39933
 C665 C 0.09124 0.26182 0.90900
 C666 C 0.11714 0.25068 0.91871
 C667 C 0.13599 0.25098 0.89944
 C668 C 0.12709 0.26241 0.87236
 C669 C 0.11654 0.28935 0.87932
 C670 C 0.09769 0.28905 0.89858
 C671 C 0.08439 0.24617 0.88364
 C672 C 0.10323 0.24648 0.86439
 C673 C 0.07089 0.26151 0.92968
 C674 C 0.05409 0.26133 0.94658
 C675 C 0.14731 0.26270 0.85155
 C676 C 0.16377 0.26280 0.83429
 H677 H 0.12039 0.24320 0.93893
 H678 H 0.15540 0.24378 0.90316
 H679 H 0.12328 0.30711 0.86995
 H680 H 0.08829 0.30654 0.90571
 H681 H 0.06633 0.23576 0.88104
 H682 H 0.10131 0.23633 0.84529
 C683 C 0.59098 0.76134 0.40738
 C684 C 0.61707 0.75072 0.41719
 C685 C 0.63588 0.75109 0.39788
 C686 C 0.62675 0.76203 0.37066
 C687 C 0.61579 0.78889 0.37727
 C688 C 0.59698 0.78852 0.39657
 C689 C 0.58433 0.74526 0.38226
 C690 C 0.60313 0.74562 0.36296
 C691 C 0.57069 0.76097 0.42812
 C692 C 0.55396 0.76076 0.44509
 C693 C 0.64693 0.76238 0.34982
 C694 C 0.66338 0.76253 0.33254
 H695 H 0.62048 0.74356 0.43750
 H696 H 0.65540 0.74424 0.40165
 H697 H 0.62223 0.80663 0.36765
 H698 H 0.58732 0.80596 0.40349
 H699 H 0.56643 0.73453 0.37984
 H700 H 0.60134 0.73520 0.34401
 C701 C 0.90931 0.73941 0.90757
 C702 C 0.91850 0.74927 0.87992
 C703 C 0.89970 0.74901 0.86063
 C704 C 0.87355 0.73891 0.87086
 C705 C 0.86697 0.75597 0.89531
 C706 C 0.88577 0.75623 0.91461
 C707 C 0.89821 0.71239 0.90206
 C708 C 0.87941 0.71212 0.88276
 C709 C 0.92960 0.73967 0.92830
 C710 C 0.94634 0.73977 0.94525
 C711 C 0.85338 0.73865 0.85001
 C712 C 0.83696 0.73855 0.83271
 H713 H 0.93805 0.75588 0.87585
 H714 H 0.90316 0.75539 0.84003
 H715 H 0.84912 0.76687 0.89729
 H716 H 0.88402 0.76736 0.93312
 H717 H 0.90454 0.69499 0.91242
 H718 H 0.86965 0.69450 0.87659
 C719 C 0.40853 0.23731 0.40827
 C720 C 0.41913 0.23563 0.37935
 C721 C 0.40035 0.23522 0.36005
 C722 C 0.37281 0.23654 0.37156
 C723 C 0.37239 0.26100 0.38913
 C724 C 0.39117 0.26141 0.40844
 C725 C 0.38987 0.21435 0.41092
 C726 C 0.37108 0.21395 0.39161
 C727 C 0.42879 0.23774 0.42900
 C728 C 0.44552 0.23800 0.44595
 C729 C 0.35265 0.23616 0.35072
 C730 C 0.33623 0.23602 0.33344
 H731 H 0.43959 0.23482 0.37445
 H732 H 0.40472 0.23407 0.33862
 H733 H 0.35855 0.27662 0.38664
 H734 H 0.39343 0.27737 0.42248
 H735 H 0.39128 0.19971 0.42659
 H736 H 0.35640 0.19896 0.39073
 C737 C 0.73978 0.91269 0.90342
 C738 C 0.74969 0.92266 0.87608
 C739 C 0.74999 0.90426 0.85636
 C740 C 0.74035 0.87771 0.86594
 C741 C 0.71334 0.88277 0.87770
 C742 C 0.71304 0.90116 0.89741
 C743 C 0.75702 0.88937 0.91010
 C744 C 0.75732 0.87098 0.89040
 C745 C 0.73947 0.93243 0.92468
 C746 C 0.73928 0.94857 0.94223
 C747 C 0.74064 0.85785 0.84481
 C748 C 0.74078 0.84133 0.82764
 H749 H 0.75592 0.94242 0.87252
 H750 H 0.75649 0.90825 0.83591
 H751 H 0.69598 0.87279 0.87113
 H752 H 0.69542 0.90694 0.90772
 H753 H 0.76803 0.88747 0.92868
 H754 H 0.76859 0.85333 0.89209
 C755 C 0.24008 0.41145 0.40498
 C756 C 0.25177 0.42076 0.37816
 C757 C 0.25208 0.40226 0.35854
 C758 C 0.24066 0.37628 0.36766
 C759 C 0.21341 0.38277 0.37799
 C760 C 0.21311 0.40126 0.39761
 C761 C 0.25577 0.38732 0.41262
 C762 C 0.25607 0.36884 0.39301
 C763 C 0.23975 0.43132 0.42615
 C764 C 0.23955 0.44757 0.44361
 C765 C 0.24093 0.35632 0.34661
 C766 C 0.24101 0.33976 0.32947
 H767 H 0.25916 0.44016 0.37487
 H768 H 0.25973 0.40582 0.33844
 H769 H 0.19590 0.37365 0.37055
 H770 H 0.19533 0.40797 0.40697
 H771 H 0.26576 0.38496 0.43175
 H772 H 0.26633 0.35064 0.39534
 C773 C 0.25977 0.08792 0.90581
 C774 C 0.23248 0.09564 0.89661
 C775 C 0.23228 0.11407 0.87691
 C776 C 0.25940 0.12297 0.86834
 C777 C 0.27365 0.09812 0.86018
 C778 C 0.27385 0.07969 0.87988
 C779 C 0.27271 0.11337 0.91429
 C780 C 0.27251 0.13179 0.89459
 C781 C 0.25997 0.06813 0.92706
 C782 C 0.26009 0.05193 0.94458
 C783 C 0.25923 0.14287 0.84721
 C784 C 0.25920 0.15939 0.83002
 H785 H 0.21486 0.08735 0.90484
 H786 H 0.21450 0.12157 0.86826
 H787 H 0.28278 0.09525 0.84065
 H788 H 0.28314 0.06103 0.87723
 H789 H 0.28127 0.11663 0.93402
 H790 H 0.28091 0.15084 0.89746
 C791 C 0.76070 0.58812 0.40410
 C792 C 0.73451 0.60185 0.40120
 C793 C 0.73419 0.62027 0.38150
 C794 C 0.76009 0.62316 0.36663
 C795 C 0.76644 0.59596 0.35610
 C796 C 0.76676 0.57753 0.37581
 C797 C 0.78039 0.60990 0.40861
 C798 C 0.78007 0.62832 0.38891
 C799 C 0.76103 0.56834 0.42534
 C800 C 0.76121 0.55215 0.44288
 C801 C 0.75978 0.64306 0.34550
 C802 C 0.75963 0.65959 0.32831
 H803 H 0.71770 0.59748 0.41354
 H804 H 0.71710 0.63168 0.37696
 H805 H 0.77033 0.59156 0.33504
 H806 H 0.77093 0.55735 0.37163
 H807 H 0.79344 0.61078 0.42577
 H808 H 0.79285 0.64498 0.38920
 C809 C 0.08778 0.74006 0.90514
 C810 C 0.11446 0.73095 0.91483
 C811 C 0.13285 0.73117 0.89510
 C812 C 0.12275 0.74048 0.86759
 C813 C 0.11084 0.76715 0.87313
 C814 C 0.09245 0.76694 0.89287
 C815 C 0.08129 0.72259 0.88100
 C816 C 0.09968 0.72281 0.86126
 C817 C 0.06802 0.73984 0.92643
 C818 C 0.05185 0.73973 0.94398
 C819 C 0.14261 0.74068 0.84642
 C820 C 0.15910 0.74076 0.82919
 H821 H 0.11856 0.72486 0.93539
 H822 H 0.15269 0.72527 0.89875
 H823 H 0.11636 0.78467 0.86248
 H824 H 0.08222 0.78427 0.89913
 H825 H 0.06379 0.71107 0.87954
 H826 H 0.09794 0.71148 0.84288
 C827 C 0.58806 0.23935 0.40472
 C828 C 0.61468 0.23004 0.41440
 C829 C 0.63312 0.23037 0.39472
 C830 C 0.62313 0.23999 0.36729
 C831 C 0.61132 0.26666 0.37307
 C832 C 0.59288 0.26633 0.39275
 C833 C 0.58156 0.22215 0.38038
 C834 C 0.60001 0.22248 0.36069
 C835 C 0.56825 0.23900 0.42595
 C836 C 0.55205 0.23878 0.44347
 C837 C 0.64305 0.24031 0.34618
 C838 C 0.65958 0.24044 0.32900
 H839 H 0.61870 0.22373 0.43490
 H840 H 0.65293 0.22436 0.39837
 H841 H 0.61695 0.28426 0.36263
 H842 H 0.58270 0.28364 0.39917
 H843 H 0.56402 0.21071 0.37874
 H844 H 0.59827 0.21134 0.34219
 C845 C 0.91266 0.26038 0.90410
 C846 C 0.92226 0.27053 0.87671
 C847 C 0.90382 0.27023 0.85704
 C848 C 0.87759 0.25981 0.86670
 C849 C 0.87041 0.27661 0.89115
 C850 C 0.88885 0.27692 0.91081
 C851 C 0.90193 0.23329 0.89817
 C852 C 0.88349 0.23299 0.87851
 C853 C 0.93244 0.26070 0.92531
 C854 C 0.94861 0.26088 0.94283
 C855 C 0.85768 0.25952 0.84563
 C856 C 0.84112 0.25939 0.82850
 H857 H 0.94182 0.27735 0.87309
 H858 H 0.90757 0.27679 0.83657
 H859 H 0.85243 0.28734 0.89286
 H860 H 0.88666 0.28790 0.92936
 H861 H 0.90827 0.21588 0.90850
 H862 H 0.87403 0.21532 0.87199
 C863 C 0.41126 0.75979 0.40438
 C864 C 0.42219 0.75591 0.37581
 C865 C 0.40371 0.75563 0.35617
 C866 C 0.37613 0.75926 0.36703
 C867 C 0.37698 0.78459 0.38317
 C868 C 0.39545 0.78487 0.40281
 C869 C 0.39116 0.73820 0.40795
 C870 C 0.37269 0.73792 0.38832
 C871 C 0.43111 0.76008 0.42556
 C872 C 0.44735 0.76027 0.44303
 C873 C 0.35618 0.75901 0.34596
 C874 C 0.33964 0.75895 0.32880
 H875 H 0.44263 0.75358 0.37139
 H876 H 0.40832 0.75306 0.33493
 H877 H 0.36420 0.80088 0.37951
 H878 H 0.39849 0.80140 0.41595
 H879 H 0.39142 0.72435 0.42444
 H880 H 0.35713 0.72383 0.38799
 C881 C 0.25958 0.91253 0.09585
 C882 C 0.24747 0.92168 0.12252
 C883 C 0.24719 0.90319 0.14216
 C884 C 0.25906 0.87736 0.13319
 C885 C 0.28633 0.88419 0.12318
 C886 C 0.28660 0.90268 0.10355
 C887 C 0.24430 0.88820 0.08805
 C888 C 0.24403 0.86971 0.10767
 C889 C 0.25986 0.93238 0.07467
 C890 C 0.26003 0.94861 0.05717
 C891 C 0.25880 0.85738 0.15424
 C892 C 0.25869 0.84079 0.17136
 H893 H 0.23979 0.94099 0.12570
 H894 H 0.23928 0.90664 0.16216
 H895 H 0.30388 0.87529 0.13085
 H896 H 0.30438 0.90962 0.09440
 H897 H 0.23455 0.88572 0.06879
 H898 H 0.23404 0.85139 0.10524
 C899 C 0.76057 0.41191 0.59543
 C900 C 0.74843 0.42112 0.62207
 C901 C 0.74811 0.40266 0.64174
 C902 C 0.75996 0.37680 0.63284
 C903 C 0.78725 0.38359 0.62286
 C904 C 0.78757 0.40205 0.60320
 C905 C 0.74528 0.38758 0.58765
 C906 C 0.74496 0.36913 0.60731
 C907 C 0.76091 0.43173 0.57422
 C908 C 0.76111 0.44794 0.55671
 C909 C 0.75967 0.35687 0.65393
 C910 C 0.75956 0.34032 0.67109
 H911 H 0.74076 0.44044 0.62520
 H912 H 0.74016 0.40616 0.66172
 H913 H 0.80478 0.37469 0.63057
 H914 H 0.80538 0.40896 0.59406
 H915 H 0.73556 0.38508 0.56839
 H916 H 0.73496 0.35081 0.60490
 C917 C 0.73957 0.08817 0.09520
 C918 C 0.75855 0.08222 0.11823
 C919 C 0.75882 0.10057 0.13799
 C920 C 0.74009 0.12306 0.13277
 C921 C 0.71355 0.11031 0.12882
 C922 C 0.71327 0.09196 0.10907
 C923 C 0.74726 0.11514 0.08502
 C924 C 0.74753 0.13349 0.10477
 C925 C 0.73929 0.06847 0.07389
 C926 C 0.73913 0.05236 0.05631
 C927 C 0.74036 0.14287 0.15395
 C928 C 0.74047 0.15934 0.17117
 H929 H 0.77069 0.06509 0.11896
 H930 H 0.77120 0.09917 0.15565
 H931 H 0.69648 0.11525 0.14052
 H932 H 0.69597 0.08118 0.10384
 H933 H 0.75206 0.11946 0.06414
 H934 H 0.75258 0.15352 0.10081
 C935 C 0.23978 0.58818 0.59575
 C936 C 0.22005 0.60993 0.59115
 C937 C 0.22030 0.62838 0.61081
 C938 C 0.24025 0.62328 0.63315
 C939 C 0.26618 0.62040 0.61832
 C940 C 0.26593 0.60195 0.59866
 C941 C 0.23369 0.57762 0.62406
 C942 C 0.23394 0.59608 0.64372
 C943 C 0.23952 0.56836 0.57455
 C944 C 0.23937 0.55213 0.55706
 C945 C 0.24047 0.64320 0.65424
 C946 C 0.24053 0.65974 0.67141
 H947 H 0.20703 0.61077 0.57397
 H948 H 0.20749 0.64502 0.61045
 H949 H 0.28324 0.63184 0.62287
 H950 H 0.28278 0.59759 0.58637
 H951 H 0.22955 0.55744 0.62828
 H952 H 0.23002 0.59170 0.66478
 C953 C 0.91248 0.74038 0.09527
 C954 C 0.89234 0.76194 0.09172
 C955 C 0.87385 0.76218 0.11135
 C956 C 0.87732 0.74085 0.13263
 C957 C 0.90488 0.74451 0.14349
 C958 C 0.92337 0.74426 0.12384
 C959 C 0.89671 0.71528 0.09684
 C960 C 0.87823 0.71552 0.11647
 C961 C 0.93233 0.74012 0.07409
 C962 C 0.94856 0.73995 0.05660
 C963 C 0.85735 0.74106 0.15369
 C964 C 0.84077 0.74110 0.17082
 H965 H 0.89258 0.77580 0.07523
 H966 H 0.85826 0.77625 0.11169
 H967 H 0.90947 0.74707 0.16472
 H968 H 0.94380 0.74662 0.12825
 H969 H 0.89980 0.69876 0.08369
 H970 H 0.86548 0.69921 0.12014
 C971 C 0.41197 0.23909 0.59621
 C972 C 0.39230 0.26114 0.59315
 C973 C 0.37392 0.26147 0.61289
 C974 C 0.37700 0.23971 0.63376
 C975 C 0.40469 0.24258 0.64453
 C976 C 0.42308 0.24225 0.62479
 C977 C 0.39566 0.21431 0.59741
 C978 C 0.37727 0.21464 0.61715
 C979 C 0.43172 0.23875 0.57492
 C980 C 0.44788 0.23857 0.55736
 C981 C 0.35715 0.24004 0.65493
 C982 C 0.34065 0.24019 0.67215
 H983 H 0.39277 0.27526 0.57691
 H984 H 0.35865 0.27588 0.61356
 H985 H 0.40944 0.24469 0.66579
 H986 H 0.44358 0.24407 0.62913
 H987 H 0.39831 0.19795 0.58395
 H988 H 0.36418 0.19856 0.62060
 C989 C 0.08823 0.26043 0.09578
 C990 C 0.11035 0.27968 0.09096
 C991 C 0.12869 0.27938 0.11072
 C992 C 0.12312 0.25984 0.13335
 C993 C 0.11986 0.23376 0.11895
 C994 C 0.10151 0.23407 0.09919
 C995 C 0.07764 0.26712 0.12391
 C996 C 0.09599 0.26681 0.14368
 C997 C 0.06854 0.26074 0.07447
 C998 C 0.05243 0.26092 0.05689
 C999 C 0.14293 0.25954 0.15453
 C1000 C 0.15940 0.25937 0.17175
 H1001 H 0.11150 0.29244 0.07357
 H1002 H 0.14556 0.29187 0.11025
 H1003 H 0.13097 0.21656 0.12385
 H1004 H 0.09691 0.21713 0.08716
 H1005 H 0.05751 0.27169 0.12795
 H1006 H 0.09159 0.27112 0.16465
 C1007 C 0.58813 0.76006 0.59500
 C1008 C 0.61475 0.76917 0.58509
 C1009 C 0.63327 0.76893 0.60467
 C1010 C 0.62336 0.75962 0.63226
 C1011 C 0.61142 0.73294 0.62681
 C1012 C 0.59290 0.73318 0.60722
 C1013 C 0.58180 0.77752 0.61921
 C1014 C 0.60032 0.77729 0.63879
 C1015 C 0.56823 0.76031 0.57387
 C1016 C 0.55196 0.76045 0.55643
 C1017 C 0.64336 0.75941 0.65327
 C1018 C 0.65996 0.75937 0.67037
 H1019 H 0.61871 0.77526 0.56450
 H1020 H 0.65309 0.77483 0.60085
 H1021 H 0.61701 0.71542 0.63740
 H1022 H 0.58262 0.71585 0.60104
 H1023 H 0.56431 0.78905 0.62082
 H1024 H 0.59870 0.78861 0.65719
   
