data_POSCAR
  _audit_creation_date              2014-09-24
  _audit_creation_method            'ToBaCCo'
  _symmetry_space_group_name_H-M    'P1'
  _symmetry_Int_Tables_number       1
  _symmetry_cell_setting            triclinic
  loop_
  _symmetry_equiv_pos_as_xyz
 x,y,z
_cell_length_a 32.6210
_cell_length_b 28.8711
_cell_length_c 7.1624
_cell_angle_alpha 92.163300
_cell_angle_beta 90.377800
_cell_angle_gamma 90.085300
loop_
  _atom_site_label
  _atom_site_type_symbol
  _atom_site_fract_x
  _atom_site_fract_y
  _atom_site_fract_z
C1 C 0.16718 0.20434 0.24593
 C2 C 0.14558 0.24547 0.21856
 C3 C 0.16576 0.28718 0.18878
 C4 C 0.20912 0.28874 0.19932
 C5 C 0.23156 0.24728 0.22461
 C6 C 0.21058 0.20473 0.24394
 C7 C 0.23352 0.16419 0.26951
 C8 C 0.27608 0.16539 0.27620
 C9 C 0.29756 0.20745 0.26547
 C10 C 0.27506 0.24857 0.23440
 C11 C 0.23054 0.33073 0.18674
 C12 C 0.27308 0.33189 0.19429
 C13 C 0.29587 0.29127 0.21929
 C14 C 0.33897 0.29274 0.23680
 C15 C 0.36098 0.25187 0.26022
 C16 C 0.34100 0.20945 0.28269
 H17 H 0.21884 0.13105 0.28700
 H18 H 0.29203 0.13291 0.29178
 H19 H 0.21458 0.36324 0.17256
 H20 H 0.28799 0.36516 0.18251
 H21 H 0.11231 0.24459 0.21239
 H22 H 0.39400 0.25399 0.27865
 C23 C 0.66302 0.20810 0.30526
 C24 C 0.64187 0.24972 0.28393
 C25 C 0.66245 0.29135 0.25636
 C26 C 0.70556 0.29178 0.24152
 C27 C 0.72751 0.24969 0.25330
 C28 C 0.70633 0.20768 0.28545
 C29 C 0.72884 0.16624 0.29083
 C30 C 0.77120 0.16622 0.27194
 C31 C 0.79270 0.20748 0.24248
 C32 C 0.77077 0.24961 0.23259
 C33 C 0.72715 0.33309 0.21332
 C34 C 0.76963 0.33309 0.19604
 C35 C 0.79203 0.29164 0.20213
 C36 C 0.83515 0.29096 0.17829
 C37 C 0.85623 0.24908 0.19060
 C38 C 0.83568 0.20771 0.22327
 H39 H 0.71382 0.13324 0.30807
 H40 H 0.78691 0.13335 0.27965
 H41 H 0.71135 0.36585 0.20326
 H42 H 0.78474 0.36594 0.17680
 H43 H 0.60879 0.25038 0.30000
 H44 H 0.88925 0.24857 0.17350
 C45 C 0.66295 0.71075 0.74120
 C46 C 0.64272 0.75335 0.74041
 C47 C 0.66412 0.79513 0.76423
 C48 C 0.70699 0.79442 0.79685
 C49 C 0.72783 0.75134 0.80117
 C50 C 0.70572 0.70933 0.77371
 C51 C 0.72701 0.66701 0.77328
 C52 C 0.76938 0.66590 0.79442
 C53 C 0.79203 0.70706 0.81885
 C54 C 0.77110 0.75027 0.82443
 C55 C 0.72968 0.83564 0.81837
 C56 C 0.77207 0.83470 0.84053
 C57 C 0.79348 0.79244 0.84535
 C58 C 0.83687 0.79098 0.85825
 C59 C 0.85669 0.74795 0.85429
 C60 C 0.83520 0.70632 0.83258
 H61 H 0.71107 0.63423 0.75506
 H62 H 0.78428 0.63242 0.78905
 H63 H 0.71486 0.86913 0.81529
 H64 H 0.78793 0.86763 0.84946
 H65 H 0.61009 0.75407 0.71031
 H66 H 0.88983 0.74671 0.86915
 C67 C 0.16494 0.70491 0.80767
 C68 C 0.14304 0.74655 0.82539
 C69 C 0.16314 0.78941 0.84607
 C70 C 0.20632 0.79149 0.82635
 C71 C 0.22881 0.74995 0.79690
 C72 C 0.20824 0.70651 0.78939
 C73 C 0.23133 0.66588 0.75824
 C74 C 0.27363 0.66778 0.73800
 C75 C 0.29451 0.71044 0.74314
 C76 C 0.27200 0.75191 0.77369
 C77 C 0.22734 0.83419 0.82890
 C78 C 0.26953 0.83606 0.80425
 C79 C 0.29244 0.79538 0.77573
 C80 C 0.33521 0.79704 0.74427
 C81 C 0.35701 0.75578 0.71740
 C82 C 0.33728 0.71279 0.71394
 H83 H 0.21681 0.63215 0.74782
 H84 H 0.28982 0.63534 0.71673
 H85 H 0.21117 0.86676 0.84578
 H86 H 0.28403 0.86983 0.80614
 H87 H 0.11000 0.74526 0.84228
 H88 H 0.38965 0.75723 0.68981
 O89 O 0.96373 -0.03576 -0.09940
 O90 O 1.04141 0.05066 0.03970
 O91 O 1.04320 -0.03350 -0.09566
 O92 O 0.96230 0.04996 0.02773
 O93 O 0.96050 0.02756 0.31794
 O94 O 1.04203 -0.05672 0.19348
 O95 O 1.04125 0.02839 0.33040
 O96 O 0.96241 -0.05874 0.19049
 Cu97 Cu 1.00261 0.01029 -0.05696
 Cu98 Cu 1.00143 -0.01749 0.28578
 C99 C 0.95041 -0.06284 0.02196
 C100 C 1.05473 0.05465 0.20592
 C101 C 1.05667 -0.05941 0.02980
 C102 C 0.94780 0.05389 0.19128
 O103 O 0.53749 0.44764 0.52942
 O104 O 0.46020 0.53508 0.66043
 O105 O 0.45873 0.45174 0.52070
 O106 O 0.54040 0.53235 0.66588
 O107 O 0.54134 0.55646 0.37764
 O108 O 0.45857 0.47579 0.23202
 O109 O 0.46164 0.55937 0.37252
 O110 O 0.53835 0.47116 0.23975
 Cu111 Cu 0.49916 0.48921 0.62116
 Cu112 Cu 0.50045 0.51876 0.27720
 C113 C 0.55042 0.44359 0.36304
 C114 C 0.44693 0.56149 0.53599
 C115 C 0.44411 0.45021 0.35632
 C116 C 0.55517 0.55822 0.54367
 O117 O -0.03575 0.55253 0.06040
 O118 O 0.04202 0.46480 0.16712
 O119 O 0.04369 0.54883 0.05376
 O120 O -0.03865 0.46743 0.16680
 O121 O -0.03935 0.44349 -0.12883
 O122 O 0.04312 0.52542 -0.24284
 O123 O 0.04074 0.44103 -0.12860
 O124 O -0.03715 0.52892 -0.23610
 Cu125 Cu 0.00298 0.51086 0.13952
 Cu126 Cu 0.00156 0.48176 -0.21287
 C127 C -0.04941 0.55628 -0.10455
 C128 C 0.05537 0.43846 0.03522
 C129 C 0.05785 0.55095 -0.11010
 C130 C -0.05357 0.44174 0.03514
 O131 O 0.46188 1.05962 0.63509
 O132 O 0.54090 0.97452 0.75900
 O133 O 0.54142 1.05827 0.63852
 O134 O 0.45988 0.97577 0.75618
 O135 O 0.46006 0.94960 0.46296
 O136 O 0.54137 1.03176 0.34562
 O137 O 0.54011 0.94823 0.46596
 O138 O 0.46147 1.03312 0.34221
 Cu139 Cu 0.50102 1.01974 0.72621
 Cu140 Cu 0.50071 0.98758 0.37586
 C141 C 0.44799 1.06084 0.46935
 C142 C 0.55476 0.94746 0.63035
 C143 C 0.55553 1.05901 0.47389
 C144 C 0.44537 0.94917 0.62646
 C145 C 1.11557 0.15895 0.41101
 C146 C 1.14416 0.16364 0.26438
 C147 C 1.14551 0.12996 0.11891
 C148 C 1.11751 0.09373 0.11041
 C149 C 1.08696 0.08990 0.24598
 C150 C 1.08626 0.12230 0.40038
 C151 C 1.11599 0.18974 0.56946
 C152 C 1.08735 0.18542 0.71123
 C153 C 1.05738 0.15117 0.69602
 C154 C 1.05645 0.12039 0.54110
 H155 H 1.13879 0.21691 0.58600
 H156 H 1.08820 0.20898 0.83248
 H157 H 1.03477 0.14840 0.80491
 H158 H 1.03219 0.09544 0.53228
 H159 H 1.16686 0.13322 0.00470
 H160 H 1.11865 0.06941 -0.00852
 C161 C 0.64333 0.64484 0.51422
 C162 C 0.63874 0.66870 0.68942
 C163 C 0.60975 0.65344 0.81625
 C164 C 0.58444 0.61587 0.77025
 C165 C 0.58745 0.59237 0.59596
 C166 C 0.61851 0.60531 0.46969
 C167 C 0.67198 0.65958 0.38184
 C168 C 0.67794 0.63423 0.21511
 C169 C 0.65536 0.59413 0.17571
 C170 C 0.62592 0.57964 0.30121
 H171 H 0.69030 0.69049 0.40625
 H172 H 0.70062 0.64547 0.11753
 H173 H 0.66062 0.57420 0.04703
 H174 H 0.60998 0.54760 0.26644
 H175 H 0.60607 0.67150 0.95049
 H176 H 0.56115 0.60633 0.86892
 C177 C -0.14331 0.35632 -0.03032
 C178 C -0.14018 0.33296 0.13984
 C179 C -0.11117 0.34797 0.27402
 C180 C -0.08487 0.38477 0.24134
 C181 C -0.08666 0.40798 0.07311
 C182 C -0.11755 0.39529 -0.06080
 C183 C -0.17126 0.34153 -0.17186
 C184 C -0.17600 0.36652 -0.33314
 C185 C -0.15295 0.40637 -0.35734
 C186 C -0.12392 0.42069 -0.22341
 H187 H -0.18991 0.31084 -0.15873
 H188 H -0.19800 0.35517 -0.43884
 H189 H -0.15735 0.42612 -0.48142
 H190 H -0.10743 0.45239 -0.24717
 H191 H -0.10819 0.33017 0.40394
 H192 H -0.06180 0.39397 0.34584
 C193 C 0.35406 0.86684 0.55715
 C194 C 0.35807 0.84101 0.72076
 C195 C 0.38715 0.85457 0.85692
 C196 C 0.41356 0.89168 0.82948
 C197 C 0.41173 0.91629 0.66463
 C198 C 0.38025 0.90561 0.53143
 C199 C 0.32498 0.85450 0.41678
 C200 C 0.32019 0.88123 0.26030
 C201 C 0.34429 0.92044 0.23948
 C202 C 0.37399 0.93271 0.37331
 H203 H 0.30547 0.82441 0.42681
 H204 H 0.29731 0.87174 0.15589
 H205 H 0.34000 0.94143 0.11881
 H206 H 0.39124 0.96410 0.35313
 H207 H 0.39047 0.83506 0.98243
 H208 H 0.43702 0.89963 0.93363
 C209 C -0.11100 0.65474 -0.32003
 C210 C -0.13996 0.66315 -0.17606
 C211 C -0.13986 0.63520 -0.02084
 C212 C -0.11099 0.60009 -0.00412
 C213 C -0.08046 0.59260 -0.13925
 C214 C -0.07984 0.62082 -0.29758
 C215 C -0.11162 0.68064 -0.48342
 C216 C -0.08084 0.67529 -0.61648
 C217 C -0.04866 0.64474 -0.58774
 C218 C -0.04785 0.61815 -0.42905
 H219 H -0.13591 0.70511 -0.50927
 H220 H -0.08157 0.69555 -0.74063
 H221 H -0.02409 0.64179 -0.68833
 H222 H -0.02134 0.59683 -0.40744
 H223 H -0.16136 0.64177 0.09175
 H224 H -0.11181 0.57934 0.11879
 C225 C 0.35969 1.14840 0.50516
 C226 C 0.36514 1.17122 0.33398
 C227 C 0.39688 1.15666 0.21430
 C228 C 0.42200 1.11960 0.25720
 C229 C 0.41691 1.09609 0.42299
 C230 C 0.38468 1.10949 0.54624
 C231 C 0.33119 1.16460 0.64057
 C232 C 0.32481 1.14071 0.80318
 C233 C 0.34687 1.10066 0.83606
 C234 C 0.37655 1.08507 0.70952
 H235 H 0.31364 1.19588 0.62272
 H236 H 0.30232 1.15316 0.90315
 H237 H 0.34128 1.08184 0.96136
 H238 H 0.39247 1.05345 0.74033
 H239 H 0.40201 1.17388 0.08452
 H240 H 0.44652 1.11007 0.16199
 C241 C 1.14477 -0.14609 0.06881
 C242 C 1.13941 -0.17136 -0.10428
 C243 C 1.10876 -0.15785 -0.22877
 C244 C 1.08404 -0.11979 -0.18692
 C245 C 1.08820 -0.09465 -0.01671
 C246 C 1.11972 -0.10667 0.11045
 C247 C 1.17335 -0.16018 0.20486
 C248 C 1.17921 -0.13423 0.37072
 C249 C 1.15659 -0.09414 0.40608
 C250 C 1.12716 -0.08030 0.27771
 H251 H 1.19136 -0.19136 0.18505
 H252 H 1.20170 -0.14512 0.47136
 H253 H 1.16171 -0.07377 0.53419
 H254 H 1.11097 -0.04841 0.31005
 H255 H 1.10419 -0.17671 -0.36110
 H256 H 1.06051 -0.11087 -0.28654
 C257 C 0.60733 0.34192 0.12120
 C258 C 0.63742 0.33408 0.25956
 C259 C 0.63944 0.36312 0.42003
 C260 C 0.61163 0.39909 0.44709
 C261 C 0.58025 0.40646 0.31687
 C262 C 0.57740 0.37711 0.15344
 C263 C 0.60572 0.31453 -0.04627
 C264 C 0.57421 0.32038 -0.17571
 C265 C 0.54325 0.35244 -0.13794
 C266 C 0.54442 0.38003 0.02623
 H267 H 0.62877 0.28853 -0.07817
 H268 H 0.57333 0.29925 -0.30382
 H269 H 0.51802 0.35570 -0.23552
 H270 H 0.51873 0.40246 0.05519
 H271 H 0.66194 0.35690 0.52819
 H272 H 0.61402 0.42071 0.57374
 C273 C 0.89517 -0.16203 -0.24532
 C274 C 0.86176 -0.16912 -0.12300
 C275 C 0.85776 -0.14025 0.03795
 C276 C 0.88664 -0.10590 0.08136
 C277 C 0.92080 -0.09975 -0.03265
 C278 C 0.92588 -0.12884 -0.19496
 C279 C 0.89841 -0.18707 -0.41831
 C280 C 0.93281 -0.18243 -0.53046
 C281 C 0.96473 -0.15330 -0.47177
 C282 C 0.96152 -0.12703 -0.30507
 H283 H 0.87425 -0.21015 -0.46838
 H284 H 0.93498 -0.20211 -0.66171
 H285 H 0.99204 -0.15087 -0.55597
 H286 H 0.98747 -0.10610 -0.26150
 H287 H 0.83311 -0.14569 0.13555
 H288 H 0.88262 -0.08438 0.20716
 C289 C 0.35751 0.36520 0.42755
 C290 C 0.36152 0.33709 0.26202
 C291 C 0.38844 0.35026 0.12203
 C292 C 0.41295 0.38957 0.14756
 C293 C 0.41081 0.41683 0.31319
 C294 C 0.38103 0.40648 0.44943
 C295 C 0.33117 0.35273 0.57368
 C296 C 0.32626 0.38179 0.73170
 C297 C 0.34736 0.42364 0.74779
 C298 C 0.37439 0.43609 0.60826
 H299 H 0.31412 0.32057 0.56777
 H300 H 0.30570 0.37196 0.84129
 H301 H 0.34293 0.44645 0.86943
 H302 H 0.38947 0.46940 0.62485
 H303 H 0.39153 0.32896 -0.00489
 H304 H 0.43539 0.39717 0.04205
 C305 C 0.14844 0.63335 -0.02518
 C306 C 0.14278 0.66309 -0.17750
 C307 C 0.11181 0.65262 -0.30986
 C308 C 0.08661 0.61397 -0.29399
 C309 C 0.09094 0.58484 -0.14333
 C310 C 0.12322 0.59321 -0.01186
 C311 C 0.17694 0.64390 0.12038
 C312 C 0.18254 0.61407 0.26684
 C313 C 0.15992 0.57331 0.27250
 C314 C 0.13061 0.56278 0.13484
 H315 H 0.19492 0.67540 0.12395
 H316 H 0.20473 0.62252 0.37596
 H317 H 0.16485 0.54992 0.38509
 H318 H 0.11413 0.53043 0.14394
 H319 H 0.10675 0.67503 -0.42588
 H320 H 0.06206 0.60822 -0.39493
 C321 C 0.64516 1.14505 0.51900
 C322 C 0.63980 1.16863 0.34940
 C323 C 0.60841 1.15417 0.22534
 C324 C 0.58305 1.11706 0.26404
 C325 C 0.58750 1.09340 0.42995
 C326 C 0.61974 1.10620 0.55627
 C327 C 0.67383 1.16049 0.65685
 C328 C 0.67975 1.13612 0.81896
 C329 C 0.65710 1.09628 0.84867
 C330 C 0.62736 1.08133 0.71922
 H331 H 0.69186 1.19153 0.64136
 H332 H 0.70230 1.14803 0.92111
 H333 H 0.66231 1.07711 0.97365
 H334 H 0.61096 1.04984 0.74746
 H335 H 0.60349 1.17185 0.09619
 H336 H 0.55864 1.10788 0.16610
 C337 C 0.14294 0.35072 -0.02767
 C338 C 0.14008 0.32806 0.14432
 C339 C 0.11117 0.34343 0.27637
 C340 C 0.08518 0.38032 0.24124
 C341 C 0.08730 0.40340 0.07294
 C342 C 0.11782 0.39008 -0.05969
 C343 C 0.17014 0.33504 -0.16912
 C344 C 0.17534 0.35996 -0.33005
 C345 C 0.15328 0.40048 -0.35457
 C346 C 0.12460 0.41539 -0.22194
 H347 H 0.18790 0.30373 -0.15618
 H348 H 0.19691 0.34802 -0.43530
 H349 H 0.15806 0.42020 -0.47821
 H350 H 0.10877 0.44745 -0.24631
 H351 H 0.10827 0.32615 0.40735
 H352 H 0.06238 0.39004 0.34476
 C353 C 0.64473 0.86342 0.56862
 C354 C 0.64081 0.83849 0.73443
 C355 C 0.61177 0.85263 0.86790
 C356 C 0.58563 0.88975 0.83669
 C357 C 0.58771 0.91385 0.67073
 C358 C 0.61896 0.90234 0.53939
 C359 C 0.67338 0.85009 0.42970
 C360 C 0.67831 0.87612 0.27158
 C361 C 0.65483 0.91563 0.24784
 C362 C 0.62547 0.92881 0.37999
 H363 H 0.69244 0.81975 0.44217
 H364 H 0.70083 0.86585 0.16821
 H365 H 0.65929 0.93611 0.12601
 H366 H 0.60874 0.96040 0.35740
 H367 H 0.60842 0.83372 0.99477
 H368 H 0.56231 0.89829 0.93930
 C369 C 0.88590 0.15758 0.39356
 C370 C 0.86064 0.16526 0.23670
 C371 C 0.86135 0.13418 0.08289
 C372 C 0.88820 0.09692 0.07821
 C373 C 0.91563 0.08961 0.22625
 C374 C 0.91395 0.11972 0.38847
 C375 C 0.88425 0.18744 0.55429
 C376 C 0.91023 0.18078 0.70585
 C377 C 0.93824 0.14454 0.69988
 C378 C 0.94023 0.11455 0.54293
 H379 H 0.86285 0.21603 0.56430
 H380 H 0.90866 0.20384 0.82833
 H381 H 0.95845 0.13953 0.81779
 H382 H 0.96252 0.08760 0.54453
 H383 H 0.84194 0.13981 -0.03750
 H384 H 0.88861 0.07445 -0.04646
 C385 C 0.35839 0.64692 0.49113
 C386 C 0.36224 0.67130 0.66586
 C387 C 0.39122 0.65709 0.79652
 C388 C 0.41716 0.62000 0.75506
 C389 C 0.41479 0.59596 0.58170
 C390 C 0.38383 0.60784 0.45128
 C391 C 0.32977 0.66062 0.35500
 C392 C 0.32445 0.63461 0.18889
 C393 C 0.34761 0.59486 0.15415
 C394 C 0.37701 0.58143 0.28349
 H395 H 0.31098 0.69117 0.37610
 H396 H 0.30185 0.64505 0.08798
 H397 H 0.34285 0.57437 0.02608
 H398 H 0.39342 0.54964 0.25208
 H399 H 0.39431 0.67555 0.93046
 H400 H 0.44029 0.61111 0.85688
   
