data_POSCAR
  _audit_creation_date              2014-09-24
  _audit_creation_method            'ToBaCCo'
  _symmetry_space_group_name_H-M    'P1'
  _symmetry_Int_Tables_number       1
  _symmetry_cell_setting            triclinic
  loop_
  _symmetry_equiv_pos_as_xyz
 x,y,z
_cell_length_a 24.9851
_cell_length_b 24.9059
_cell_length_c 29.5238
_cell_angle_alpha 89.821000
_cell_angle_beta 89.395900
_cell_angle_gamma 89.859400
loop_
  _atom_site_label
  _atom_site_type_symbol
  _atom_site_fract_x
  _atom_site_fract_y
  _atom_site_fract_z
B1 B 0.27714 0.23169 0.29315
 B2 B 0.21287 0.21769 0.27953
 B3 B 0.23100 0.28179 0.29081
 B4 B 0.29302 0.29118 0.26935
 B5 B 0.31294 0.23209 0.24461
 B6 B 0.26303 0.18682 0.25172
 B7 B 0.22405 0.26935 0.19948
 B8 B 0.28861 0.28300 0.21302
 B9 B 0.26983 0.21926 0.20156
 B10 B 0.20831 0.20982 0.22317
 B11 B 0.18819 0.26828 0.24801
 B12 B 0.23791 0.31411 0.24104
 B13 B 0.73185 0.78146 0.20493
 B14 B 0.71615 0.71699 0.21708
 B15 B 0.77993 0.73359 0.20364
 B16 B 0.79267 0.79424 0.22590
 B17 B 0.73594 0.81500 0.25361
 B18 B 0.68837 0.76679 0.24764
 B19 B 0.77098 0.72242 0.29450
 B20 B 0.78665 0.78694 0.28221
 B21 B 0.72286 0.77008 0.29552
 B22 B 0.71031 0.70948 0.27335
 B23 B 0.76698 0.68865 0.24568
 B24 B 0.81468 0.73692 0.25178
 B25 B 0.73139 0.21977 -0.20719
 B26 B 0.71359 0.28351 -0.22037
 B27 B 0.77795 0.26921 -0.20730
 B28 B 0.79290 0.20861 -0.22910
 B29 B 0.73697 0.18538 -0.25589
 B30 B 0.68775 0.23208 -0.24975
 B31 B 0.76913 0.27817 -0.29881
 B32 B 0.78746 0.21461 -0.28548
 B33 B 0.72295 0.22878 -0.29873
 B34 B 0.70798 0.28924 -0.27684
 B35 B 0.76341 0.31251 -0.24992
 B36 B 0.81286 0.26639 -0.25603
 B37 B 0.28288 0.76394 -0.29569
 B38 B 0.21944 0.78153 -0.28176
 B39 B 0.23386 0.71694 -0.29433
 B40 B 0.29465 0.70272 -0.27368
 B41 B 0.31780 0.75922 -0.24772
 B42 B 0.27085 0.80852 -0.25342
 B43 B 0.22571 0.72768 -0.20349
 B44 B 0.28908 0.70965 -0.21721
 B45 B 0.27464 0.77427 -0.20476
 B46 B 0.21406 0.78864 -0.22554
 B47 B 0.19094 0.73207 -0.25124
 B48 B 0.23771 0.68285 -0.24559
 B49 B 1.21988 1.26835 0.79542
 B50 B 1.28368 1.28538 0.78246
 B51 B 1.26855 1.22098 0.79518
 B52 B 1.20819 1.20736 0.77384
 B53 B 1.18581 1.26391 0.74711
 B54 B 1.23296 1.31275 0.75303
 B55 B 1.27834 1.23100 0.70429
 B56 B 1.21460 1.21377 0.71754
 B57 B 1.22962 1.27826 0.70449
 B58 B 1.29016 1.29214 0.72598
 B59 B 1.31244 1.23543 0.75258
 B60 B 1.26541 1.18672 0.74679
 B61 B 0.76502 0.72244 0.70538
 B62 B 0.78168 0.78679 0.71716
 B63 B 0.71733 0.77080 0.70574
 B64 B 0.70456 0.71056 0.72921
 B65 B 0.76164 0.68879 0.75515
 B66 B 0.80960 0.73590 0.74685
 B67 B 0.72900 0.78191 0.79714
 B68 B 0.71157 0.71771 0.78545
 B69 B 0.77615 0.73310 0.79687
 B70 B 0.78918 0.79349 0.77331
 B71 B 0.73197 0.81516 0.74739
 B72 B 0.68424 0.76829 0.75579
 B73 B 1.21945 0.72853 0.20214
 B74 B 1.28354 0.71217 0.21447
 B75 B 1.26738 0.77621 0.20029
 B76 B 1.20701 0.78988 0.22316
 B77 B 1.18576 0.73403 0.25178
 B78 B 1.23310 0.68561 0.24554
 B79 B 1.27805 0.76925 0.29176
 B80 B 1.21375 0.78532 0.27966
 B81 B 1.23005 0.72127 0.29365
 B82 B 1.29051 0.70760 0.27078
 B83 B 1.31164 0.76397 0.24241
 B84 B 1.26384 0.81208 0.24858
 B85 B 0.77964 1.26803 0.20495
 B86 B 0.71605 1.28485 0.21907
 B87 B 0.73130 1.22032 0.20695
 B88 B 0.79261 1.20731 0.22742
 B89 B 0.81486 1.26473 0.25272
 B90 B 0.76708 1.31297 0.24688
 B91 B 0.72394 1.23182 0.29785
 B92 B 0.78760 1.21508 0.28389
 B93 B 0.77172 1.27960 0.29578
 B94 B 0.71079 1.29236 0.27528
 B95 B 0.68858 1.23513 0.25023
 B96 B 0.73642 1.18671 0.25604
 O97 O 0.56380 1.09843 0.08142
 O98 O 0.63089 1.05213 0.04501
 C99 C 0.61383 1.08839 0.07387
 O100 O 0.42434 0.89623 0.07402
 O101 O 0.36264 0.94737 0.03588
 C102 C 0.37568 0.90829 0.06352
 O103 O 0.56768 0.91061 0.08634
 O104 O 0.63308 0.95517 0.04630
 C105 C 0.61724 0.91991 0.07652
 O106 O 0.41969 1.10430 0.06983
 O107 O 0.36060 1.04765 0.03467
 C108 C 0.37175 1.08839 0.06103
 Zr109 Zr 0.49328 1.06778 0.05511
 O110 O 0.48203 1.06165 0.12624
 O111 O 0.49306 1.15240 0.06121
 Zr112 Zr 0.49598 0.93586 0.05856
 O113 O 0.48371 0.94582 0.12923
 O114 O 0.50010 0.85198 0.06927
 O115 O 0.54355 1.00310 0.06764
 O116 O 0.44565 1.00091 0.06336
 O117 O 0.42976 1.09169 -0.08435
 O118 O 0.36451 1.04725 -0.04413
 C119 C 0.38031 1.08334 -0.07373
 O120 O 0.57858 0.90156 -0.07603
 O121 O 0.63728 0.95327 -0.03552
 C122 C 0.62636 0.91551 -0.06489
 O123 O 0.43475 0.89826 -0.07860
 O124 O 0.36737 0.94603 -0.04395
 C125 C 0.38479 0.90786 -0.07082
 O126 O 0.57311 1.08558 -0.08713
 O127 O 0.63498 1.05095 -0.03819
 C128 C 0.62130 1.08191 -0.07232
 Zr129 Zr 0.50093 1.06438 -0.05729
 O130 O 0.50083 1.07139 -0.12868
 O131 O 0.50474 1.14930 -0.05389
 Zr132 Zr 0.50445 0.93164 -0.05432
 O133 O 0.50502 0.93205 -0.12611
 O134 O 0.51019 0.84676 -0.05227
 Zr135 Zr 0.58177 1.00178 0.00314
 Zr136 Zr 0.41592 0.99789 -0.00301
 O137 O 0.45544 0.99665 -0.06634
 O138 O 0.55200 0.99882 -0.06342
 O139 O 0.44865 1.07599 -0.00339
 O140 O 0.54752 0.92451 0.00424
 O141 O 0.54450 1.07769 0.00017
 O142 O 0.45249 0.92152 0.00031
 H143 H 0.41922 1.00085 0.08865
 H144 H 0.57093 0.89241 0.00563
 H145 H 0.43355 0.99546 -0.09412
 H146 H 0.56754 1.11000 -0.00050
 H147 H 0.51063 0.83544 0.04015
 H148 H 0.48125 0.83325 -0.03214
 H149 H 0.53783 0.95076 -0.13659
 H150 H 0.50087 1.03458 -0.14097
 H151 H 0.47079 1.16244 -0.04030
 H152 H 0.50619 1.16739 0.03217
 H153 H 0.51678 1.05223 0.13999
 H154 H 0.51782 0.95770 0.14263
 O155 O 1.06699 0.59152 0.58581
 O156 O 1.13223 0.54773 0.54487
 C157 C 1.11655 0.58250 0.57553
 O158 O 0.92215 0.39436 0.57066
 O159 O 0.86088 0.45082 0.53741
 C160 C 0.87357 0.40950 0.56268
 O161 O 1.06644 0.40257 0.58043
 O162 O 1.13186 0.45007 0.54282
 C163 C 1.11604 0.41292 0.57156
 O164 O 0.92293 0.60202 0.57778
 O165 O 0.86115 0.55097 0.54014
 C166 C 0.87417 0.58951 0.56816
 Zr167 Zr 0.99508 0.56446 0.55963
 O168 O 0.98579 0.55302 0.63049
 O169 O 0.99744 0.64835 0.57023
 Zr170 Zr 0.99489 0.43262 0.55562
 O171 O 0.98533 0.43755 0.62695
 O172 O 0.99655 0.34797 0.56163
 O173 O 1.04437 0.49790 0.56734
 O174 O 0.94613 0.49849 0.56519
 O175 O 0.92884 0.60172 0.42345
 O176 O 0.86327 0.55309 0.45951
 C177 C 0.87929 0.59144 0.43208
 O178 O 1.07085 0.42048 0.41050
 O179 O 1.13374 0.45245 0.45922
 C180 C 1.11935 0.42280 0.42460
 O181 O 0.92858 0.40983 0.41712
 O182 O 0.86308 0.45181 0.45887
 C183 C 0.87923 0.41677 0.42858
 O184 O 1.07149 0.59789 0.42154
 O185 O 1.13432 0.55134 0.46203
 C186 C 1.12039 0.58791 0.43209
 Zr187 Zr 0.99950 0.56973 0.44694
 O188 O 0.99713 0.57238 0.37524
 O189 O 1.00400 0.65458 0.45061
 Zr190 Zr 0.99948 0.43750 0.44335
 O191 O 0.99800 0.42948 0.37207
 O192 O 1.00575 0.35269 0.44698
 Zr193 Zr 1.08093 0.50071 0.50211
 Zr194 Zr 0.91422 0.50178 0.49952
 O195 O 0.95189 0.50421 0.43552
 O196 O 1.04859 0.50395 0.43646
 O197 O 0.94911 0.57868 0.50258
 O198 O 1.04504 0.42423 0.49970
 O199 O 1.04473 0.57726 0.50421
 O200 O 0.94886 0.42431 0.49807
 H201 H 0.92045 0.49756 0.59101
 H202 H 1.06873 0.39232 0.49825
 H203 H 0.92934 0.50550 0.40813
 H204 H 1.06767 0.60962 0.50489
 H205 H 1.00922 0.33346 0.53233
 H206 H 0.97188 0.33869 0.46007
 H207 H 0.99031 0.46535 0.35931
 H208 H 1.02585 0.54866 0.36339
 H209 H 0.97359 0.66742 0.46946
 H210 H 1.00693 0.66527 0.54095
 H211 H 1.02079 0.54200 0.64292
 H212 H 1.02020 0.44748 0.64008
 O213 O 1.10467 0.57396 0.07094
 O214 O 1.05082 0.63707 0.03694
 C215 C 1.09068 0.62310 0.06296
 O216 O 1.08621 0.42905 -0.08843
 O217 O 1.04558 0.36528 -0.04364
 C218 C 1.07909 0.37991 -0.07570
 O219 O 1.09357 0.57361 -0.08320
 O220 O 1.05016 0.63776 -0.04085
 C221 C 1.08627 0.62270 -0.07072
 O222 O 1.10187 0.42874 0.07409
 O223 O 1.05033 0.36625 0.03738
 C224 C 1.08925 0.37973 0.06489
 Zr225 Zr 1.06978 0.50111 0.05073
 O226 O 1.15446 0.49691 0.04781
 O227 O 1.06690 0.50202 0.12232
 Zr228 Zr 1.05964 0.50197 -0.06241
 O229 O 1.14280 0.49913 -0.07594
 O230 O 1.04633 0.50887 -0.13302
 O231 O 1.07617 0.54941 -0.00635
 O232 O 1.07477 0.45445 -0.00663
 O233 O 0.91220 0.42936 0.08658
 O234 O 0.95107 0.36584 0.04054
 C235 C 0.91842 0.38035 0.07339
 O236 O 0.89157 0.57637 -0.07077
 O237 O 0.94802 0.63831 -0.03920
 C238 C 0.90669 0.62525 -0.06403
 O239 O 0.89755 0.43250 -0.07744
 O240 O 0.94679 0.36724 -0.04202
 C241 C 0.90884 0.38281 -0.06986
 O242 O 0.90839 0.57391 0.08342
 O243 O 0.95064 0.63777 0.03974
 C244 C 0.91572 0.62301 0.07072
 Zr245 Zr 0.93832 0.50169 0.05916
 O246 O 0.85394 0.49813 0.06567
 O247 O 0.94686 0.50588 0.13041
 Zr248 Zr 0.92898 0.50392 -0.05386
 O249 O 0.84429 0.50378 -0.05550
 O250 O 0.93165 0.51139 -0.12546
 Zr251 Zr 0.99967 0.58524 -0.00113
 Zr252 Zr 0.99856 0.41852 -0.00193
 O253 O 0.92284 0.45559 0.00299
 O254 O 0.92276 0.55095 0.00381
 O255 O 1.00446 0.45160 0.06361
 O256 O 0.99437 0.55187 -0.06624
 O257 O 1.00473 0.54974 0.06351
 O258 O 0.99324 0.45311 -0.06737
 H259 H 1.10741 0.43188 -0.00835
 H260 H 0.99313 0.57700 -0.09232
 H261 H 0.89048 0.43281 0.00489
 H262 H 1.00641 0.57342 0.09039
 H263 H 1.03522 0.47337 -0.14456
 H264 H 0.94169 0.47619 -0.13852
 H265 H 0.83103 0.48874 -0.02652
 H266 H 0.83868 0.52375 0.04359
 H267 H 0.97005 0.47571 0.13995
 H268 H 1.10454 0.50320 0.13254
 H269 H 1.16692 0.52312 0.02477
 H270 H 1.16079 0.49411 -0.04661
 O271 O 0.40261 0.93146 0.41897
 O272 O 0.44883 0.86595 0.45677
 C273 C 0.41241 0.88175 0.42758
 O274 O 0.59606 1.07349 0.41854
 O275 O 0.55065 1.13719 0.45997
 C276 C 0.58751 1.12259 0.43060
 O277 O 0.58875 0.92883 0.41210
 O278 O 0.54801 0.86447 0.45629
 C279 C 0.58178 0.87958 0.42459
 O280 O 0.39758 1.07362 0.42454
 O281 O 0.44795 1.13709 0.46048
 C282 C 0.40878 1.12286 0.43338
 Zr283 Zr 0.43153 1.00199 0.44563
 O284 O 0.43499 1.00546 0.37402
 O285 O 0.34686 0.99815 0.44847
 Zr286 Zr 0.56224 1.00134 0.43873
 O287 O 0.55067 1.00794 0.36785
 O288 O 0.64584 1.00006 0.42682
 O289 O 0.49624 0.95204 0.43270
 O290 O 0.49669 1.05065 0.43424
 O291 O 0.40650 1.07137 0.58121
 O292 O 0.45054 1.13625 0.54014
 C293 C 0.41452 1.12082 0.57001
 O294 O 0.60111 0.92605 0.57545
 O295 O 0.54966 0.86432 0.53766
 C296 C 0.58731 0.87725 0.56634
 O297 O 0.60521 1.07153 0.57238
 O298 O 0.55206 1.13531 0.53837
 C299 C 0.59209 1.12086 0.56424
 O300 O 0.41181 0.92720 0.58476
 O301 O 0.45273 0.86388 0.53988
 C302 C 0.41920 0.87816 0.57211
 Zr303 Zr 0.43887 0.99971 0.55856
 O304 O 0.45348 1.00022 0.62896
 O305 O 0.35521 0.99914 0.57037
 Zr306 Zr 0.57021 0.99936 0.55169
 O307 O 0.57030 1.00342 0.62340
 O308 O 0.65481 0.99449 0.54798
 Zr309 Zr 0.50005 0.91701 0.49778
 Zr310 Zr 0.50045 1.08415 0.49935
 O311 O 0.50478 1.04815 0.56388
 O312 O 0.50473 0.94976 0.56356
 O313 O 0.42383 1.04907 0.50315
 O314 O 0.57634 0.95302 0.49430
 O315 O 0.42430 0.95359 0.50204
 O316 O 0.57725 1.04852 0.49509
 H317 H 0.49587 1.07540 0.40789
 H318 H 0.60872 0.93005 0.49308
 H319 H 0.50591 1.07190 0.59073
 H320 H 0.39196 0.93069 0.50286
 H321 H 0.66304 0.98757 0.45490
 H322 H 0.66728 1.02131 0.52544
 H323 H 0.55149 0.97133 0.63533
 H324 H 0.41795 1.00194 0.64413
 H325 H 0.33799 0.98796 0.54199
 H326 H 0.33438 1.02403 0.47169
 H327 H 0.39752 1.00599 0.36325
 H328 H 0.53334 0.97460 0.35727
 O329 O 1.08594 0.89021 0.55869
 O330 O 1.05085 0.94522 0.61342
 C331 C 1.08097 0.90568 0.60004
 O332 O 1.10496 1.08304 0.43898
 O333 O 1.04619 1.04749 0.38826
 C334 C 1.08585 1.07880 0.39892
 O335 O 1.11855 1.06631 0.56022
 O336 O 1.05883 1.03775 0.61431
 C337 C 1.10111 1.06415 0.60136
 O338 O 1.06648 0.88494 0.43704
 O339 O 1.04099 0.95018 0.38707
 C340 C 1.06634 0.90604 0.39723
 Zr341 Zr 1.05903 0.92319 0.49885
 O342 O 1.14298 0.91820 0.48846
 O343 O 1.05925 0.83835 0.50135
 Zr344 Zr 1.07701 1.05546 0.50066
 O345 O 1.16105 1.05314 0.49174
 O346 O 1.08342 1.13972 0.50905
 O347 O 1.08114 0.98649 0.53982
 O348 O 1.07671 0.98912 0.45931
 O349 O 0.89523 0.91591 0.44502
 O350 O 0.94758 0.95664 0.39078
 C351 C 0.90940 0.92427 0.40350
 O352 O 0.92171 1.10237 0.57037
 O353 O 0.96522 1.04513 0.61905
 C354 C 0.93341 1.08495 0.61030
 O355 O 0.92251 1.10927 0.44591
 O356 O 0.95542 1.05227 0.39137
 C357 C 0.92752 1.09366 0.40441
 O358 O 0.89582 0.91917 0.56893
 O359 O 0.95612 0.95582 0.61826
 C360 C 0.91395 0.92786 0.60903
 Zr361 Zr 0.92679 0.94162 0.50564
 O362 O 0.84289 0.95402 0.50415
 O363 O 0.91491 0.85755 0.50971
 Zr364 Zr 0.94509 1.07400 0.50664
 O365 O 0.86097 1.08474 0.50494
 O366 O 0.95524 1.15807 0.51268
 Zr367 Zr 1.00565 0.99653 0.57131
 Zr368 Zr 0.99905 1.00025 0.43404
 O369 O 0.92413 1.00994 0.46662
 O370 O 0.92728 1.00822 0.54729
 O371 O 0.98939 0.92260 0.46170
 O372 O 1.01442 1.07397 0.54353
 O373 O 0.99364 0.92089 0.54180
 O374 O 1.01053 1.07668 0.46306
 H375 H 1.10721 0.98590 0.43773
 H376 H 1.01943 1.10492 0.56407
 H377 H 0.89156 1.01412 0.44804
 H378 H 0.99018 0.88875 0.56149
 H379 H 1.06969 1.15724 0.48138
 H380 H 0.97961 1.16983 0.48800
 H381 H 0.84535 1.06675 0.53190
 H382 H 0.83290 0.97658 0.53043
 H383 H 0.93562 0.84083 0.48469
 H384 H 1.02175 0.82706 0.50627
 H385 H 1.16052 0.92621 0.51757
 H386 H 1.17256 1.01604 0.49857
 O387 O 0.57951 0.60448 -0.06751
 O388 O 0.53751 0.54608 -0.11567
 C389 C 0.56838 0.58665 -0.10729
 O390 O 0.61382 0.42093 0.05772
 O391 O 0.55919 0.45809 0.11192
 C392 C 0.59840 0.42720 0.09907
 O393 O 0.61435 0.43267 -0.06495
 O394 O 0.54720 0.45355 -0.11399
 C395 C 0.59230 0.43028 -0.10406
 O396 O 0.58051 0.61106 0.05622
 O397 O 0.54912 0.55346 0.11103
 C398 C 0.57630 0.59519 0.09772
 Zr399 Zr 0.55676 0.57565 -0.00378
 O400 O 0.64041 0.58931 -0.00395
 O401 O 0.54234 0.65922 -0.00968
 Zr402 Zr 0.57810 0.44303 -0.00235
 O403 O 0.66269 0.44439 -0.00256
 O404 O 0.58416 0.35841 -0.00831
 O405 O 0.57583 0.51006 -0.04394
 O406 O 0.58022 0.51174 0.03594
 O407 O 0.39684 0.57888 0.06736
 O408 O 0.45814 0.54231 0.11616
 C409 C 0.41618 0.57095 0.10722
 O410 O 0.41573 0.39135 -0.05421
 O411 O 0.45228 0.44548 -0.10922
 C412 C 0.42121 0.40672 -0.09578
 O413 O 0.43063 0.38853 0.06915
 O414 O 0.46878 0.44948 0.11737
 C415 C 0.44087 0.40678 0.10898
 O416 O 0.38400 0.56501 -0.05622
 O417 O 0.44359 0.53623 -0.11057
 C418 C 0.40109 0.56220 -0.09757
 Zr419 Zr 0.42558 0.55452 0.00381
 O420 O 0.34139 0.55258 0.01140
 O421 O 0.41896 0.63897 -0.00363
 Zr422 Zr 0.44702 0.42148 0.00543
 O423 O 0.36420 0.40687 0.01514
 O424 O 0.46153 0.33780 0.00094
 Zr425 Zr 0.49777 0.49669 -0.06761
 Zr426 Zr 0.50619 0.50028 0.06909
 O427 O 0.42851 0.48740 0.04452
 O428 O 0.42301 0.48531 -0.03497
 O429 O 0.49198 0.57684 0.04082
 O430 O 0.51164 0.42088 -0.03832
 O431 O 0.48714 0.57398 -0.04007
 O432 O 0.51691 0.42251 0.04240
 H433 H 0.61306 0.51680 0.05395
 H434 H 0.51486 0.38929 -0.05852
 H435 H 0.39803 0.48279 0.06592
 H436 H 0.48129 0.60478 -0.06080
 H437 H 0.57843 0.34259 0.02214
 H438 H 0.48667 0.32790 0.02526
 H439 H 0.34467 0.42881 -0.00731
 H440 H 0.33140 0.51453 0.01566
 H441 H 0.42715 0.65558 0.02590
 H442 H 0.51906 0.67005 0.01604
 H443 H 0.65645 0.56721 -0.02841
 H444 H 0.67334 0.48257 -0.00204
 C445 C 0.30417 1.20650 0.11658
 C446 C 0.28694 1.18329 0.15774
 C447 C 0.28623 1.12651 0.16031
 C448 C 0.30709 1.09462 0.12513
 C449 C 0.32959 1.11829 0.08630
 C450 C 0.32644 1.17456 0.08185
 H451 H 0.30342 1.24956 0.11203
 H452 H 0.27183 1.10620 0.19048
 H453 H 0.31017 1.05162 0.13021
 H454 H 0.34457 1.19414 0.05271
 C455 C 0.77380 0.63227 0.65816
 C456 C 0.78388 0.68817 0.66086
 C457 C 0.81541 0.71105 0.62610
 C458 C 0.83989 0.67897 0.59274
 C459 C 0.83324 0.62285 0.59234
 C460 C 0.79823 0.60008 0.62450
 H461 H 0.74940 0.61258 0.68374
 H462 H 0.82378 0.75338 0.62548
 H463 H 0.86722 0.69776 0.56880
 H464 H 0.79320 0.55692 0.62594
 C465 C 0.73482 0.85951 0.14270
 C466 C 0.70837 0.81511 0.16307
 C467 C 0.65542 0.80532 0.15094
 C468 C 0.63033 0.83609 0.11886
 C469 C 0.65396 0.88305 0.10118
 C470 C 0.70744 0.89390 0.11230
 H471 H 0.77536 0.86936 0.15213
 H472 H 0.63152 0.77467 0.16732
 H473 H 0.58990 0.82448 0.11056
 H474 H 0.72699 0.92960 0.09933
 C475 C 1.23212 0.35625 0.64198
 C476 C 1.20655 0.31078 0.66146
 C477 C 1.15496 0.29853 0.64684
 C478 C 1.13039 0.32839 0.61350
 C479 C 1.15306 0.37630 0.59660
 C480 C 1.20523 0.38934 0.61021
 H481 H 1.27149 0.36801 0.65315
 H482 H 1.13174 0.26674 0.66231
 H483 H 1.09084 0.31552 0.60360
 H484 H 1.22394 0.42597 0.59826
 C485 C 0.65735 1.19725 -0.14765
 C486 C 0.70920 1.18639 -0.16355
 C487 C 0.73621 1.14161 -0.14440
 C488 C 0.71055 1.10794 -0.11180
 C489 C 0.65820 1.11980 -0.09679
 C490 C 0.63403 1.16701 -0.11338
 H491 H 0.63291 1.22807 -0.16288
 H492 H 0.77579 1.13074 -0.15652
 H493 H 0.73026 1.07163 -0.10045
 H494 H 0.59398 1.17836 -0.10269
 C495 C 1.15849 0.70235 0.35644
 C496 C 1.20869 0.68904 0.33831
 C497 C 1.23443 0.64276 0.35626
 C498 C 1.20891 0.61009 0.38968
 C499 C 1.15830 0.62465 0.40716
 C500 C 1.13608 0.67359 0.39204
 H501 H 1.13413 0.73350 0.34175
 H502 H 1.27259 0.62982 0.34241
 H503 H 1.22718 0.57251 0.39975
 H504 H 1.09752 0.68735 0.40457
 C505 C 0.34999 0.79560 -0.14872
 C506 C 0.29763 0.80657 -0.16216
 C507 C 0.27039 0.85005 -0.14119
 C508 C 0.29641 0.88268 -0.10901
 C509 C 0.34929 0.87098 -0.09646
 C510 C 0.37383 0.82480 -0.11492
 H511 H 0.37388 0.76480 -0.16498
 H512 H 0.23021 0.86059 -0.15135
 H513 H 0.27632 0.91794 -0.09576
 H514 H 0.41404 0.81289 -0.10581
 C515 C 0.84656 0.30415 0.35119
 C516 C 0.79385 0.31325 0.33804
 C517 C 0.76533 0.35590 0.35918
 C518 C 0.79052 0.38944 0.39130
 C519 C 0.84365 0.37902 0.40387
 C520 C 0.86917 0.33331 0.38550
 H521 H 0.87172 0.27477 0.33445
 H522 H 0.72480 0.36517 0.34915
 H523 H 0.76963 0.42429 0.40442
 H524 H 0.90959 0.32223 0.39469
 C525 C 1.21226 0.32565 0.12350
 C526 C 1.19083 0.28869 0.15475
 C527 C 1.13628 0.27420 0.14931
 C528 C 1.10351 0.29933 0.11669
 C529 C 1.12438 0.33943 0.08816
 C530 C 1.17971 0.35044 0.09092
 H531 H 1.25355 0.33782 0.12540
 H532 H 1.11765 0.24574 0.17230
 H533 H 1.06111 0.29045 0.11632
 H534 H 1.19725 0.38137 0.06961
 C535 C 0.70520 0.80876 0.62155
 C536 C 0.68189 0.78898 0.66189
 C537 C 0.62517 0.78833 0.66434
 C538 C 0.59359 0.81139 0.63017
 C539 C 0.61746 0.83580 0.59225
 C540 C 0.67360 0.83293 0.58781
 H541 H 0.74803 0.80835 0.61679
 H542 H 0.60464 0.77225 0.69381
 H543 H 0.55064 0.81396 0.63523
 H544 H 0.69336 0.85226 0.55931
 C545 C 1.14769 0.73569 -0.14156
 C546 C 1.19263 0.70766 -0.15953
 C547 C 1.20342 0.65655 -0.14227
 C548 C 1.17371 0.63543 -0.10697
 C549 C 1.12542 0.65954 -0.09278
 C550 C 1.11330 0.71109 -0.10922
 H551 H 1.13683 0.77471 -0.15486
 H552 H 1.23326 0.63062 -0.15733
 H553 H 1.18543 0.59616 -0.09465
 H554 H 1.07623 0.73065 -0.09942
 C555 C 0.64549 1.23717 0.35951
 C556 C 0.69180 1.21101 0.34210
 C557 C 0.70476 1.16061 0.35995
 C558 C 0.67492 1.13802 0.39463
 C559 C 0.62566 1.16041 0.40841
 C560 C 0.61185 1.21144 0.39176
 H561 H 0.63311 1.27556 0.34584
 H562 H 0.73647 1.13630 0.34568
 H563 H 0.68775 1.09914 0.40706
 H564 H 0.57398 1.22963 0.40125
 C565 C 0.79968 0.66125 0.14313
 C566 C 0.81223 0.71214 0.15979
 C567 C 0.85809 0.73820 0.14155
 C568 C 0.89154 0.71209 0.10937
 C569 C 0.87811 0.66061 0.09389
 C570 C 0.82953 0.63798 0.10888
 H571 H 0.76818 0.63716 0.15795
 H572 H 0.87011 0.77697 0.15434
 H573 H 0.92891 0.73049 0.09892
 H574 H 0.81697 0.59874 0.09747
 C575 C 0.35538 1.23625 0.64072
 C576 C 0.31130 1.20899 0.66085
 C577 C 0.30078 1.15684 0.64613
 C578 C 0.32979 1.13386 0.61133
 C579 C 0.37684 1.15779 0.59422
 C580 C 0.38880 1.21030 0.60827
 H581 H 0.36601 1.27607 0.65206
 H582 H 0.27119 1.13179 0.66258
 H583 H 0.31778 1.09399 0.60108
 H584 H 0.42487 1.22993 0.59622
 C585 C 0.79820 0.34504 -0.14944
 C586 C 0.80987 0.29279 -0.16376
 C587 C 0.85397 0.26658 -0.14306
 C588 C 0.88586 0.29316 -0.11027
 C589 C 0.87313 0.34586 -0.09653
 C590 C 0.82670 0.36939 -0.11518
 H591 H 0.76775 0.36889 -0.16574
 H592 H 0.86551 0.22668 -0.15385
 H593 H 0.92132 0.27356 -0.09738
 H594 H 0.81383 0.40941 -0.10574
 C595 C 0.35490 0.76578 0.35534
 C596 C 0.31152 0.79285 0.33434
 C597 C 0.30141 0.84570 0.34778
 C598 C 0.33063 0.86988 0.38163
 C599 C 0.37630 0.84535 0.40076
 C600 C 0.38756 0.79205 0.38779
 H601 H 0.36515 0.72529 0.34519
 H602 H 0.27114 0.86982 0.33146
 H603 H 0.31871 0.91034 0.39058
 H604 H 0.42233 0.77164 0.40110
 C605 C 1.14208 1.14070 0.29128
 C606 C 1.17374 1.18219 0.30986
 C607 C 1.17222 1.19036 0.35651
 C608 C 1.14092 1.15844 0.38398
 C609 C 1.11170 1.11516 0.36621
 C610 C 1.11131 1.10717 0.31942
 H611 H 1.14215 1.13284 0.25528
 H612 H 1.19707 1.22007 0.37256
 H613 H 1.14159 1.16690 0.41993
 H614 H 1.08893 1.07436 0.30492
 C615 C 0.68014 0.62525 -0.18300
 C616 C 0.67134 0.68103 -0.18650
 C617 C 0.62238 0.70234 -0.17076
 C618 C 0.58514 0.66956 -0.14909
 C619 C 0.59544 0.61472 -0.14381
 C620 C 0.64244 0.59240 -0.16169
 H621 H 0.71665 0.60698 -0.19569
 H622 H 0.61315 0.74464 -0.17417
 H623 H 0.54961 0.68748 -0.13406
 H624 H 0.65167 0.55033 -0.15628
 C625 C 0.82059 1.12235 0.68454
 C626 C 0.82894 1.17811 0.68798
 C627 C 0.87826 1.19960 0.67342
 C628 C 0.91612 1.16710 0.65232
 C629 C 0.90599 1.11243 0.64665
 C630 C 0.85889 1.08978 0.66385
 H631 H 0.78388 1.10393 0.69652
 H632 H 0.88713 1.24189 0.67699
 H633 H 0.95187 1.18515 0.63787
 H634 H 0.85003 1.04777 0.65819
 C635 C 0.30062 0.62224 0.17286
 C636 C 0.32094 0.67174 0.18760
 C637 C 0.37626 0.68172 0.18307
 C638 C 0.40942 0.64507 0.16093
 C639 C 0.38776 0.59803 0.14335
 C640 C 0.33365 0.58611 0.15018
 H641 H 0.25881 0.61205 0.17740
 H642 H 0.39386 0.71858 0.19516
 H643 H 0.45102 0.65518 0.15467
 H644 H 0.31645 0.55016 0.13579
 C645 C 1.18551 0.81150 0.64089
 C646 C 1.18250 0.81757 0.68779
 C647 C 1.14515 0.85411 0.70660
 C648 C 1.11117 0.88337 0.67853
 C649 C 1.11429 0.87598 0.63167
 C650 C 1.15211 0.84004 0.61334
 H651 H 1.21347 0.78404 0.62496
 H652 H 1.14167 0.85997 0.74280
 H653 H 1.08264 0.91124 0.69329
 H654 H 1.15660 0.83360 0.57723
 C655 C 0.68286 0.31523 0.14150
 C656 C 0.68021 0.32183 0.18838
 C657 C 0.64862 0.36378 0.20669
 C658 C 0.62145 0.39907 0.17813
 C659 C 0.62618 0.39280 0.13124
 C660 C 0.65649 0.35003 0.11346
 H661 H 0.70741 0.28453 0.12585
 H662 H 0.64553 0.37016 0.24285
 H663 H 0.59759 0.43127 0.19249
 H664 H 0.66040 0.34296 0.07740
 C665 C 0.81763 0.81879 0.36026
 C666 C 0.82237 0.82392 0.31331
 C667 C 0.85736 0.86321 0.29517
 C668 C 0.88627 0.89682 0.32391
 C669 C 0.88011 0.89152 0.37088
 C670 C 0.84570 0.85179 0.38843
 H671 H 0.79108 0.78977 0.37587
 H672 H 0.86223 0.86845 0.25898
 H673 H 0.91291 0.92676 0.30957
 H674 H 0.83996 0.84548 0.42446
 C675 C 0.31528 0.31545 -0.13892
 C676 C 0.32002 0.32111 -0.18594
 C677 C 0.35869 0.35676 -0.20386
 C678 C 0.39223 0.38531 -0.17497
 C679 C 0.38750 0.37820 -0.12803
 C680 C 0.34826 0.34339 -0.11052
 H681 H 0.28650 0.28846 -0.12354
 H682 H 0.36362 0.36231 -0.24002
 H683 H 0.42190 0.41230 -0.18923
 H684 H 0.34262 0.33722 -0.07445
 C685 C 1.19718 0.34186 -0.14601
 C686 C 1.18612 0.29022 -0.16169
 C687 C 1.14016 0.26386 -0.14387
 C688 C 1.10525 0.29034 -0.11302
 C689 C 1.11725 0.34259 -0.09854
 C690 C 1.16586 0.36562 -0.11303
 H691 H 1.22878 0.36602 -0.16060
 H692 H 1.12926 0.22445 -0.15601
 H693 H 1.06806 0.27147 -0.10273
 H694 H 1.17768 0.40522 -0.10201
 C695 C 0.64407 0.76420 0.35678
 C696 C 0.68949 0.79125 0.33873
 C697 C 0.69996 0.84303 0.35431
 C698 C 0.66866 0.86628 0.38746
 C699 C 0.62035 0.84268 0.40195
 C700 C 0.60894 0.79026 0.38764
 H701 H 0.63363 0.72463 0.34473
 H702 H 0.73089 0.86779 0.33940
 H703 H 0.68006 0.90603 0.39841
 H704 H 0.57201 0.77095 0.39803
 C705 C 0.78652 0.68347 -0.12353
 C706 C 0.80998 0.71395 -0.15866
 C707 C 0.86579 0.72355 -0.15593
 C708 C 0.89727 0.69986 -0.12171
 C709 C 0.87394 0.66595 -0.08898
 C710 C 0.81788 0.65973 -0.08960
 H711 H 0.74422 0.67549 -0.12293
 H712 H 0.88594 0.74715 -0.18177
 H713 H 0.94034 0.70456 -0.12311
 H714 H 0.79853 0.63328 -0.06529
 C715 C 0.29360 1.16213 0.35882
 C716 C 0.30879 1.21061 0.33830
 C717 C 0.35627 1.23507 0.35457
 C718 C 0.38820 1.21007 0.38841
 C719 C 0.37231 1.16094 0.40808
 C720 C 0.32258 1.13980 0.39432
 H721 H 0.26077 1.13888 0.34598
 H722 H 0.37065 1.27185 0.33915
 H723 H 0.42642 1.22743 0.39706
 H724 H 0.30800 1.10219 0.40820
 C725 C 1.12824 0.71248 0.15971
 C726 C 1.18489 0.70981 0.15841
 C727 C 1.20891 0.68846 0.11903
 C728 C 1.17773 0.66444 0.08526
 C729 C 1.12148 0.66365 0.08863
 C730 C 1.09711 0.68988 0.12534
 H731 H 1.10737 0.73000 0.18838
 H732 H 1.25185 0.68781 0.11503
 H733 H 1.19771 0.64386 0.05756
 H734 H 1.05397 0.68901 0.12942
 C735 C 0.71315 1.17632 0.62344
 C736 C 0.68996 1.20930 0.65687
 C737 C 0.63466 1.22128 0.65276
 C738 C 0.60307 1.19731 0.61914
 C739 C 0.62581 1.16070 0.58850
 C740 C 0.68158 1.15214 0.59013
 H741 H 0.75522 1.16692 0.62383
 H742 H 0.61480 1.24703 0.67720
 H743 H 0.56022 1.20403 0.61951
 H744 H 0.70037 1.12380 0.56714
 C745 C 0.85815 0.26383 0.14265
 C746 C 0.81235 0.29005 0.16106
 C747 C 0.80106 0.34190 0.14538
 C748 C 0.83227 0.36617 0.11235
 C749 C 0.88054 0.34299 0.09700
 C750 C 0.89257 0.29046 0.11131
 H751 H 0.86935 0.22432 0.15468
 H752 H 0.76974 0.36613 0.16035
 H753 H 0.82056 0.40614 0.10181
 H754 H 0.92953 0.27141 0.10051
 C755 C 0.30365 0.83841 0.64534
 C756 C 0.31557 0.78657 0.66072
 C757 C 0.36140 0.76086 0.64191
 C758 C 0.39509 0.78794 0.61027
 C759 C 0.38213 0.84030 0.59600
 C760 C 0.33386 0.86291 0.61187
 H761 H 0.27227 0.86230 0.66063
 H762 H 0.37310 0.72143 0.65378
 H763 H 0.43215 0.76936 0.59912
 H764 H 0.32140 0.90269 0.60140
 C765 C 0.26445 1.14334 -0.14215
 C766 C 0.29115 1.18794 -0.16203
 C767 C 0.34338 1.19854 -0.14819
 C768 C 0.36749 1.16812 -0.11511
 C769 C 0.34372 1.12085 -0.09806
 C770 C 0.29093 1.10938 -0.11083
 H771 H 0.22450 1.13285 -0.15275
 H772 H 0.36747 1.22938 -0.16409
 H773 H 0.40760 1.17980 -0.10574
 H774 H 0.27137 1.07332 -0.09862
 C775 C 0.84458 0.70173 0.35244
 C776 C 0.79308 0.68993 0.33762
 C777 C 0.76584 0.64628 0.35841
 C778 C 0.79119 0.61448 0.39190
 C779 C 0.84294 0.62777 0.40633
 C780 C 0.86687 0.67444 0.38820
 H781 H 0.86909 0.73182 0.33596
 H782 H 0.72641 0.63492 0.34709
 H783 H 0.77164 0.57868 0.40467
 H784 H 0.90614 0.68761 0.39865
 C785 C 0.65234 1.19783 0.15444
 C786 C 0.70594 1.18768 0.16505
 C787 C 0.73203 1.14484 0.14222
 C788 C 0.70413 1.11262 0.11063
 C789 C 0.65007 1.12357 0.10094
 C790 C 0.62609 1.16838 0.12205
 H791 H 0.62923 1.22830 0.17189
 H792 H 0.77306 1.13484 0.15016
 H793 H 0.72400 1.07844 0.09530
 H794 H 0.58504 1.17981 0.11551
 C795 C 1.23506 0.64015 0.64229
 C796 C 1.20922 0.68430 0.66358
 C797 C 1.15614 0.69499 0.65188
 C798 C 1.13027 0.66502 0.61970
 C799 C 1.15358 0.61854 0.60078
 C800 C 1.20718 0.60700 0.61142
 H801 H 1.27565 0.62960 0.65122
 H802 H 1.13286 0.72582 0.66865
 H803 H 1.08967 0.67698 0.61203
 H804 H 1.22652 0.57159 0.59768
 C805 C 0.71648 0.87478 -0.16075
 C806 C 0.71265 0.81800 -0.15879
 C807 C 0.69169 0.79541 -0.11868
 C808 C 0.66923 0.82817 -0.08465
 C809 C 0.66878 0.88456 -0.08889
 C810 C 0.69471 0.90745 -0.12646
 H811 H 0.73378 0.89463 -0.19005
 H812 H 0.68972 0.75245 -0.11440
 H813 H 0.64852 0.80925 -0.05642
 H814 H 0.69390 0.95058 -0.13136
 C815 C 1.23576 0.35865 0.35515
 C816 C 1.20742 0.31707 0.33294
 C817 C 1.15346 0.31040 0.34475
 C818 C 1.12923 0.34118 0.37806
 C819 C 1.15527 0.38508 0.39834
 C820 C 1.20973 0.39291 0.38724
 H821 H 1.27722 0.36620 0.34630
 H822 H 1.12862 0.28143 0.32774
 H823 H 1.08777 0.33206 0.38580
 H824 H 1.23130 0.42628 0.40164
 C825 C 0.31900 0.78623 0.12162
 C826 C 0.28573 0.80915 0.15505
 C827 C 0.27326 0.86448 0.15054
 C828 C 0.29758 0.89653 0.11681
 C829 C 0.33483 0.87411 0.08648
 C830 C 0.34344 0.81824 0.08816
 H831 H 0.32873 0.74415 0.12223
 H832 H 0.24720 0.88410 0.17492
 H833 H 0.29086 0.93951 0.11706
 H834 H 0.37234 0.79981 0.06538
 C835 C 0.78066 0.36950 0.65684
 C836 C 0.78618 0.31287 0.65669
 C837 C 0.80953 0.28925 0.61804
 C838 C 0.83344 0.32122 0.58417
 C839 C 0.83220 0.37765 0.58690
 C840 C 0.80326 0.40136 0.62241
 H841 H 0.76127 0.38991 0.68486
 H842 H 0.81207 0.24618 0.61486
 H843 H 0.85592 0.30184 0.55721
 H844 H 0.80238 0.44465 0.62584
 C845 C 1.18350 1.17896 0.64038
 C846 C 1.17981 1.17495 0.68748
 C847 C 1.14857 1.13339 0.70694
 C848 C 1.12292 1.09607 0.67949
 C849 C 1.12906 1.09950 0.63249
 C850 C 1.15911 1.14168 0.61340
 H851 H 1.20745 1.20955 0.62391
 H852 H 1.14442 1.12892 0.74326
 H853 H 1.09896 1.06457 0.69482
 H854 H 1.16372 1.14669 0.57712
 C855 C 0.64071 0.64569 0.20466
 C856 C 0.67852 0.68190 0.18611
 C857 C 0.68117 0.68866 0.13914
 C858 C 0.64685 0.66143 0.11143
 C859 C 0.60894 0.62550 0.12956
 C860 C 0.60625 0.61737 0.17644
 H861 H 0.63739 0.63919 0.24082
 H862 H 0.70950 0.71579 0.12331
 H863 H 0.65105 0.66838 0.07534
 H864 H 0.57777 0.58942 0.19113
 C865 C 1.18120 0.82234 0.35660
 C866 C 1.17583 0.82286 0.30962
 C867 C 1.13432 0.85415 0.29041
 C868 C 1.09814 0.88252 0.31808
 C869 C 1.10282 0.87925 0.36512
 C870 C 1.14555 0.84990 0.38375
 H871 H 1.21141 0.79825 0.37302
 H872 H 1.12877 0.85594 0.25415
 H873 H 1.06614 0.90559 0.30295
 H874 H 1.15156 0.84735 0.41995
 C875 C 0.67992 0.31822 -0.14336
 C876 C 0.67626 0.32110 -0.19040
 C877 C 0.64192 0.35996 -0.20989
 C878 C 0.61345 0.39611 -0.18249
 C879 C 0.61963 0.39394 -0.13557
 C880 C 0.65217 0.35381 -0.11648
 H881 H 0.70579 0.28947 -0.12687
 H882 H 0.63765 0.36340 -0.24620
 H883 H 0.58785 0.42608 -0.19781
 H884 H 0.65679 0.34964 -0.08021
 C885 C 0.86344 1.14390 0.29683
 C886 C 0.82561 1.18035 0.31506
 C887 C 0.82311 1.18752 0.36195
 C888 C 0.85744 1.16044 0.38991
 C889 C 0.89519 1.12407 0.37218
 C890 C 0.89790 1.11560 0.32536
 H891 H 0.86663 1.13714 0.26072
 H892 H 0.79468 1.21467 0.37760
 H893 H 0.85323 1.16777 0.42591
 H894 H 0.92630 1.08733 0.31097
 C895 C 0.35321 0.62808 -0.20476
 C896 C 0.32361 0.67134 -0.18633
 C897 C 0.32087 0.67735 -0.13930
 C898 C 0.34457 0.64042 -0.11132
 C899 C 0.37300 0.59668 -0.12937
 C900 C 0.37824 0.59111 -0.17631
 H901 H 0.35642 0.62204 -0.24095
 H902 H 0.29761 0.70888 -0.12349
 H903 H 0.34082 0.64690 -0.07517
 H904 H 0.40108 0.55825 -0.19080
 C905 C 0.79777 0.87544 0.67306
 C906 C 0.81862 0.82645 0.68902
 C907 C 0.87411 0.81696 0.68523
 C908 C 0.90710 0.85392 0.66324
 C909 C 0.88509 0.90068 0.64492
 C910 C 0.83061 0.91179 0.65050
 H911 H 0.75576 0.88532 0.67692
 H912 H 0.89201 0.78049 0.69818
 H913 H 0.94900 0.84431 0.65778
 H914 H 0.81310 0.94734 0.63538
 C915 C 0.32815 0.37380 0.18505
 C916 C 0.33167 0.31732 0.18588
 C917 C 0.37841 0.29262 0.16888
 C918 C 0.41826 0.32310 0.14810
 C919 C 0.41299 0.37892 0.14527
 C920 C 0.36862 0.40432 0.16499
 H921 H 0.29372 0.39461 0.19905
 H922 H 0.38397 0.24957 0.17084
 H923 H 0.45177 0.30292 0.13185
 H924 H 0.36320 0.44734 0.16161
   
