data_POSCAR
  _audit_creation_date              2014-09-24
  _audit_creation_method            'ToBaCCo'
  _symmetry_space_group_name_H-M    'P1'
  _symmetry_Int_Tables_number       1
  _symmetry_cell_setting            triclinic
  loop_
  _symmetry_equiv_pos_as_xyz
 x,y,z
_cell_length_a 18.1018
_cell_length_b 18.4670
_cell_length_c 17.8553
_cell_angle_alpha 89.993700
_cell_angle_beta 90.143400
_cell_angle_gamma 90.076100
loop_
  _atom_site_label
  _atom_site_type_symbol
  _atom_site_fract_x
  _atom_site_fract_y
  _atom_site_fract_z
C1 C 0.65339 1.00254 -0.43730
 C2 C 0.68821 1.00460 -0.50755
 C3 C 0.64929 0.99687 -0.57512
 C4 C 0.57174 0.98876 -0.57278
 C5 C 0.53486 0.99072 -0.50292
 C6 C 0.57572 0.99315 -0.43503
 C7 C 0.53826 0.97848 -0.36770
 C8 C 0.46206 0.97426 -0.36563
 C9 C 0.42015 0.98145 -0.43132
 C10 C 0.45684 0.98532 -0.50082
 C11 C 0.53068 0.97060 -0.63708
 C12 C 0.45450 0.96699 -0.63494
 C13 C 0.41597 0.98050 -0.56824
 C14 C 0.33777 0.98167 -0.56617
 C15 C 0.30234 0.98031 -0.49629
 C16 C 0.34257 0.98011 -0.42948
 H17 H 0.56695 0.96774 -0.31584
 H18 H 0.43661 0.96339 -0.31203
 H19 H 0.55661 0.95687 -0.68958
 H20 H 0.42641 0.95120 -0.68592
 H21 H 0.74706 1.01549 -0.51011
 H22 H 0.24255 0.98268 -0.49326
 C23 C -0.43645 1.65825 0.00040
 C24 C -0.50457 1.69467 0.00230
 C25 C -0.57308 1.65780 0.00472
 C26 C -0.57199 1.58053 0.00715
 C27 C -0.50385 1.54249 0.00149
 C28 C -0.43607 1.58145 0.00018
 C29 C -0.36953 1.54245 0.00338
 C30 C -0.36895 1.46731 0.00290
 C31 C -0.43488 1.42722 -0.00019
 C32 C -0.50325 1.46496 0.00160
 C33 C -0.63580 1.54024 0.02392
 C34 C -0.63510 1.46509 0.02465
 C35 C -0.57073 1.42573 0.00794
 C36 C -0.57058 1.34837 0.00597
 C37 C -0.50148 1.31276 0.00277
 C38 C -0.43401 1.35047 -0.00017
 H39 H -0.31671 1.56929 0.00830
 H40 H -0.31571 1.44123 0.00720
 H41 H -0.68674 1.56614 0.04025
 H42 H -0.68548 1.43858 0.04183
 H43 H -0.50374 1.75330 -0.00064
 H44 H -0.49965 1.25415 -0.00000
 C45 C 0.02001 0.35007 0.42870
 C46 C 0.02264 0.31361 0.49799
 C47 C 0.01756 0.34972 0.56725
 C48 C 0.01391 0.42672 0.56726
 C49 C 0.01306 0.46527 0.49830
 C50 C 0.01705 0.42717 0.42910
 C51 C 0.02347 0.46773 0.36263
 C52 C 0.01640 0.54248 0.36265
 C53 C 0.00875 0.58103 0.42982
 C54 C 0.01023 0.54261 0.49857
 C55 C 0.01588 0.46672 0.63427
 C56 C 0.00912 0.54138 0.63446
 C57 C 0.00811 0.58123 0.56745
 C58 C 0.00130 0.65812 0.56720
 C59 C -0.00605 0.69396 0.49797
 C60 C -0.00045 0.65701 0.42983
 H61 H 0.03505 0.44262 0.30936
 H62 H 0.01785 0.56962 0.30902
 H63 H 0.02338 0.44139 0.68818
 H64 H 0.00406 0.56679 0.68859
 H65 H 0.02171 0.25490 0.49803
 H66 H -0.01176 0.75243 0.49663
 O67 O -0.18927 1.01049 -0.10986
 O68 O 0.18964 0.99823 -0.09734
 O69 O 0.00511 1.09938 -0.19345
 O70 O 0.00013 0.90791 -0.19392
 O71 O 0.00083 0.81630 -0.10602
 O72 O -0.00016 1.19091 -0.10556
 O73 O 0.09982 0.99563 -0.18899
 O74 O -0.09416 1.00971 -0.19518
 Zr75 Zr 0.00090 1.00378 -0.13045
 O76 O 0.06575 0.93657 -0.06706
 O77 O -0.06718 1.07131 -0.07069
 C78 C -0.16312 1.01127 -0.17768
 C79 C 0.16740 0.99353 -0.16626
 C80 C 0.00363 1.16684 -0.17407
 C81 C 0.00094 0.84037 -0.17446
 H82 H 0.10023 1.09869 -0.09783
 O83 O 0.06688 1.06930 -0.06625
 H84 H -0.10018 0.90874 -0.10381
 O85 O -0.06866 0.93840 -0.07047
 O86 O 0.18349 1.00304 0.10698
 O87 O -0.19468 1.00268 0.09574
 O88 O 0.10262 1.19029 0.00200
 O89 O 0.09931 0.81560 -0.00291
 O90 O -0.10733 0.81741 -0.00360
 O91 O -0.10322 1.19235 -0.00560
 O92 O 0.00027 1.09877 0.18966
 O93 O -0.01224 0.90555 0.18850
 O94 O 0.00092 1.19072 0.10194
 O95 O -0.00750 0.81507 0.09929
 O96 O 0.18910 1.09842 0.00778
 O97 O -0.19267 1.10266 -0.00532
 O98 O -0.19465 0.90898 -0.00294
 O99 O 0.18756 0.90604 0.00328
 O100 O 0.08872 1.00075 0.19265
 O101 O -0.10399 1.00101 0.18626
 Zr102 Zr 0.12719 1.00252 0.00252
 Zr103 Zr -0.13276 1.00542 -0.00527
 Zr104 Zr -0.00098 1.13382 -0.00174
 Zr105 Zr -0.00374 0.87352 -0.00294
 Zr106 Zr -0.00583 1.00275 0.12687
 O107 O -0.07189 0.93738 0.06253
 O108 O 0.06335 1.06944 0.06749
 C109 C 0.15753 1.00066 0.17470
 C110 C -0.17191 0.99949 0.16476
 C111 C 0.17037 1.16609 0.00682
 C112 C 0.16764 0.83873 0.00086
 C113 C -0.17521 0.84143 -0.00192
 C114 C -0.17174 1.16977 -0.00542
 C115 C 0.00326 1.16632 0.17039
 C116 C -0.01122 0.83827 0.16792
 H117 H -0.10110 1.10103 0.09596
 O118 O -0.06986 1.07054 0.06339
 H119 H 0.09154 0.90510 0.09929
 O120 O 0.06145 0.93623 0.06618
 C121 C 0.31384 1.03329 0.30917
 C122 C 0.29444 0.98616 0.36839
 C123 C 0.23013 0.94408 0.36163
 C124 C 0.18769 0.94749 0.29699
 C125 C 0.20800 0.99345 0.23792
 C126 C 0.27153 1.03597 0.24384
 H127 H 0.36098 1.06918 0.31400
 H128 H 0.21369 0.90674 0.40535
 H129 H 0.13848 0.91414 0.29314
 H130 H 0.28665 1.07309 0.19951
 C131 C -0.33177 1.03614 0.29396
 C132 C -0.31012 0.99574 0.35760
 C133 C -0.24531 0.95433 0.35403
 C134 C -0.20350 0.95312 0.28932
 C135 C -0.22481 0.99333 0.22622
 C136 C -0.28989 1.03401 0.22820
 H137 H -0.37979 1.07102 0.29581
 H138 H -0.22720 0.92191 0.40122
 H139 H -0.15282 0.92211 0.28938
 H140 H -0.30612 1.06682 0.18070
 C141 C -0.32340 1.04832 -0.30858
 C142 C -0.30207 1.00774 -0.37224
 C143 C -0.23375 0.97187 -0.37046
 C144 C -0.18985 0.97416 -0.30707
 C145 C -0.21330 1.01026 -0.24228
 C146 C -0.28035 1.04779 -0.24325
 H147 H -0.37319 1.08077 -0.30936
 H148 H -0.21474 0.93969 -0.41733
 H149 H -0.13705 0.94713 -0.30888
 H150 H -0.29805 1.07840 -0.19477
 C151 C 0.31173 1.03850 -0.30745
 C152 C 0.30178 0.98122 -0.35837
 C153 C 0.25242 0.92516 -0.34182
 C154 C 0.21208 0.92711 -0.27578
 C155 C 0.22134 0.98470 -0.22543
 C156 C 0.27213 1.03982 -0.24062
 H157 H 0.34929 1.08251 -0.32018
 H158 H 0.24431 0.88075 -0.38064
 H159 H 0.17170 0.88499 -0.26499
 H160 H 0.27793 1.08554 -0.20304
 C161 C 0.36088 1.24085 0.04926
 C162 C 0.36336 1.30557 0.00746
 C163 C 0.29932 1.32458 -0.03394
 C164 C 0.23489 1.28188 -0.03140
 C165 C 0.23345 1.21770 0.01058
 C166 C 0.29724 1.19794 0.05076
 H167 H 0.40770 1.22385 0.08277
 H168 H 0.29960 1.37144 -0.07040
 H169 H 0.18747 1.29732 -0.06484
 H170 H 0.29812 1.14851 0.08337
 C171 C 0.35648 0.76372 0.04766
 C172 C 0.36025 0.69944 0.00541
 C173 C 0.29706 0.67989 -0.03724
 C174 C 0.23252 0.72251 -0.03643
 C175 C 0.23014 0.78665 0.00556
 C176 C 0.29272 0.80613 0.04793
 H177 H 0.40245 0.78079 0.08239
 H178 H 0.29829 0.63292 -0.07349
 H179 H 0.18591 0.70706 -0.07107
 H180 H 0.29264 0.85516 0.08128
 C181 C -0.35569 0.75520 0.05631
 C182 C -0.36695 0.70272 0.00047
 C183 C -0.31257 0.69449 -0.05535
 C184 C -0.24767 0.73644 -0.05398
 C185 C -0.23721 0.78916 0.00167
 C186 C -0.29199 0.79829 0.05650
 H187 H -0.39663 0.76320 0.09966
 H188 H -0.32055 0.65571 -0.10014
 H189 H -0.20719 0.72985 -0.09802
 H190 H -0.28566 0.83947 0.09929
 C191 C -0.31071 1.31547 -0.05813
 C192 C -0.36370 1.30745 -0.00084
 C193 C -0.35023 1.25665 0.05603
 C194 C -0.28597 1.21464 0.05559
 C195 C -0.23293 1.22280 -0.00116
 C196 C -0.24538 1.27414 -0.05777
 H197 H -0.32029 1.35332 -0.10344
 H198 H -0.38994 1.24903 0.10063
 H199 H -0.27804 1.17465 0.09923
 H200 H -0.20629 1.28002 -0.10319
 C201 C 0.06255 1.24534 0.35564
 C202 C 0.01800 1.30761 0.36199
 C203 C -0.03123 1.32327 0.30243
 C204 C -0.03369 1.27977 0.23804
 C205 C 0.01076 1.21796 0.23299
 C206 C 0.05876 1.20122 0.29231
 H207 H 0.10156 1.23108 0.39930
 H208 H -0.06993 1.36774 0.30660
 H209 H -0.07269 1.29245 0.19386
 H210 H 0.09345 1.15349 0.28971
 C211 C 0.06278 1.24741 -0.35810
 C212 C 0.01501 1.30704 -0.36636
 C213 C -0.03694 1.32024 -0.30883
 C214 C -0.03850 1.27736 -0.24397
 C215 C 0.00973 1.21856 -0.23664
 C216 C 0.06010 1.20395 -0.29430
 H217 H 0.10357 1.23500 -0.40050
 H218 H -0.07790 1.36255 -0.31485
 H219 H -0.07944 1.28807 -0.20126
 H220 H 0.09751 1.15834 -0.29005
 C221 C 0.05534 0.69273 -0.31042
 C222 C 0.00063 0.70042 -0.36653
 C223 C -0.05403 0.75360 -0.35667
 C224 C -0.05527 0.79606 -0.29217
 C225 C -0.00110 0.78815 -0.23665
 C226 C 0.05402 0.73577 -0.24569
 H227 H 0.10035 0.65477 -0.31760
 H228 H -0.09726 0.76107 -0.39804
 H229 H -0.09894 0.83516 -0.28531
 H230 H 0.09742 0.73010 -0.20423
 C231 C 0.05863 0.70888 0.31464
 C232 C -0.00433 0.69986 0.35956
 C233 C -0.07078 0.73317 0.33824
 C234 C -0.07407 0.77540 0.27326
 C235 C -0.01102 0.78489 0.22884
 C236 C 0.05519 0.75090 0.24947
 H237 H 0.11052 0.68412 0.33068
 H238 H -0.11980 0.72691 0.37231
 H239 H -0.12550 0.80142 0.25809
 H240 H 0.10477 0.75909 0.21665
   
