data_POSCAR
  _audit_creation_date              2014-09-24
  _audit_creation_method            'ToBaCCo'
  _symmetry_space_group_name_H-M    'P1'
  _symmetry_Int_Tables_number       1
  _symmetry_cell_setting            triclinic
  loop_
  _symmetry_equiv_pos_as_xyz
 x,y,z
_cell_length_a 51.6029
_cell_length_b 51.6379
_cell_length_c 22.7718
_cell_angle_alpha 89.849300
_cell_angle_beta 90.071600
_cell_angle_gamma 119.610600
loop_
  _atom_site_label
  _atom_site_type_symbol
  _atom_site_fract_x
  _atom_site_fract_y
  _atom_site_fract_z
C1 C 0.16024 0.45485 0.49384
 C2 C 0.16865 0.44675 0.44149
 C3 C 0.18835 0.43531 0.44471
 C4 C 0.20199 0.43488 0.49876
 C5 C 0.19165 0.44198 0.55076
 C6 C 0.17065 0.45172 0.54872
 C7 C 0.22926 0.43105 0.50015
 C8 C 0.24153 0.42829 0.55422
 C9 C 0.27062 0.43283 0.55687
 C10 C 0.28650 0.43680 0.50500
 C11 C 0.27440 0.43752 0.45061
 C12 C 0.24603 0.43484 0.44823
 H13 H 0.14435 0.46276 0.49201
 H14 H 0.19393 0.42826 0.40442
 H15 H 0.20099 0.44200 0.59306
 H16 H 0.22988 0.42472 0.59529
 H17 H 0.30902 0.44033 0.50734
 H18 H 0.23868 0.43812 0.40596
 C19 C 0.53916 -0.29848 0.51541
 C20 C 0.54909 -0.28423 0.46087
 C21 C 0.56095 -0.25319 0.45818
 C22 C 0.56081 -0.23685 0.50808
 C23 C 0.55224 -0.25183 0.56287
 C24 C 0.54151 -0.28262 0.56690
 C25 C 0.56630 -0.20547 0.50157
 C26 C 0.57239 -0.18652 0.55090
 C27 C 0.57201 -0.15952 0.54604
 C28 C 0.56790 -0.15037 0.49046
 C29 C 0.56260 -0.16817 0.44109
 C30 C 0.56163 -0.19556 0.44656
 H31 H 0.53053 -0.32228 0.51837
 H32 H 0.56937 -0.24208 0.41660
 H33 H 0.55171 -0.24039 0.60205
 H34 H 0.57639 -0.19293 0.59365
 H35 H 0.56735 -0.12977 0.48544
 H36 H 0.55495 -0.20973 0.40831
 C37 C 1.29046 0.84336 0.51597
 C38 C 1.27689 0.83732 0.46039
 C39 C 1.24708 0.81430 0.45564
 C40 C 1.23190 0.79572 0.50428
 C41 C 1.24655 0.80250 0.55933
 C42 C 1.27556 0.82634 0.56512
 C43 C 1.20245 0.76769 0.49629
 C44 C 1.18343 0.75314 0.54476
 C45 C 1.15836 0.72447 0.53893
 C46 C 1.15118 0.71158 0.48274
 C47 C 1.16898 0.72587 0.43412
 C48 C 1.19455 0.75357 0.44084
 H49 H 1.31319 0.86127 0.52154
 H50 H 1.23618 0.81039 0.41346
 H51 H 1.23650 0.78848 0.59729
 H52 H 1.18845 0.76359 0.58744
 H53 H 1.13196 0.68969 0.47630
 H54 H 1.20897 0.76283 0.40314
 C55 C 0.84485 0.55716 0.52003
 C56 C 0.83896 0.56422 0.46394
 C57 C 0.81593 0.57107 0.45726
 C58 C 0.79712 0.56841 0.50509
 C59 C 0.80384 0.56120 0.56103
 C60 C 0.82771 0.55590 0.56842
 C61 C 0.76887 0.56968 0.49558
 C62 C 0.75351 0.57372 0.54324
 C63 C 0.72446 0.56940 0.53628
 C64 C 0.71202 0.56367 0.47961
 C65 C 0.72725 0.56093 0.43164
 C66 C 0.75527 0.56357 0.43956
 H67 H 0.86270 0.55211 0.52638
 H68 H 0.81223 0.57740 0.41417
 H69 H 0.78973 0.55773 0.59860
 H70 H 0.76357 0.57928 0.58630
 H71 H 0.68985 0.56043 0.47228
 H72 H 0.76514 0.55885 0.40225
 C73 C 0.46086 0.29389 0.49704
 C74 C 0.45140 0.27720 0.44556
 C75 C 0.43851 0.24625 0.44878
 C76 C 0.43812 0.23195 0.50234
 C77 C 0.44640 0.24929 0.55440
 C78 C 0.45731 0.28027 0.55218
 C79 C 0.43224 0.20023 0.50211
 C80 C 0.42693 0.18329 0.55460
 C81 C 0.42558 0.15527 0.55398
 C82 C 0.42715 0.14336 0.49950
 C83 C 0.43291 0.15968 0.44780
 C84 C 0.43552 0.18783 0.44910
 H85 H 0.47008 0.31779 0.49375
 H86 H 0.43025 0.23387 0.40848
 H87 H 0.44604 0.23944 0.59643
 H88 H 0.42466 0.19191 0.59622
 H89 H 0.42591 0.12182 0.49697
 H90 H 0.44244 0.20053 0.40885
 C91 C 0.70789 0.15936 0.51061
 C92 C 0.72245 0.16673 0.45631
 C93 C 0.75269 0.18857 0.45402
 C94 C 0.76775 0.20509 0.50484
 C95 C 0.75228 0.19680 0.55910
 C96 C 0.72262 0.17386 0.56200
 C97 C 0.79787 0.23274 0.50020
 C98 C 0.81590 0.24585 0.55062
 C99 C 0.84141 0.27437 0.54793
 C100 C 0.85027 0.28841 0.49289
 C101 C 0.83342 0.27573 0.44250
 C102 C 0.80733 0.24821 0.44609
 H103 H 0.68469 0.14213 0.51305
 H104 H 0.76375 0.19334 0.41194
 H105 H 0.76218 0.20903 0.59893
 H106 H 0.80977 0.23453 0.59249
 H107 H 0.87001 0.31014 0.48884
 H108 H 0.79376 0.24030 0.40704
 N109 N 1.02771 0.56185 -0.06863
 N110 N 1.04483 0.58952 -0.08765
 N111 N 0.96388 0.51053 -0.09772
 N112 N 0.94178 0.50354 -0.13461
 N113 N 0.96527 0.52991 -0.05879
 N114 N 0.94426 0.53700 -0.06903
 N115 N 1.02626 0.54269 -0.10814
 N116 N 1.04228 0.55666 -0.15455
 C117 C 1.05415 0.58575 -0.14104
 C118 C 0.92954 0.51989 -0.11602
 N119 N 0.96736 0.43765 -0.06211
 N120 N 0.95033 0.40957 -0.07872
 N121 N 1.02776 0.48790 -0.10901
 N122 N 1.04764 0.49494 -0.15093
 N123 N 1.02984 0.47001 -0.07055
 N124 N 1.05120 0.46419 -0.08576
 N125 N 0.96529 0.45576 -0.10005
 N126 N 0.94677 0.44058 -0.14264
 Mn127 Mn 0.99578 0.49921 -0.10391
 C128 C 0.93713 0.41187 -0.12850
 C129 C 1.06222 0.48025 -0.13583
 N130 N 0.97046 0.53187 0.06849
 N131 N 0.95260 0.54152 0.08833
 N132 N 1.03482 0.54540 0.09672
 N133 N 1.05650 0.56029 0.13436
 N134 N 1.03287 0.56353 0.05871
 N135 N 1.05304 0.59151 0.07037
 N136 N 0.97241 0.51389 0.10694
 N137 N 0.95593 0.51072 0.15338
 Mn138 Mn 0.99907 0.54713 -0.00006
 C139 C 0.94333 0.52760 0.14099
 C140 C 1.06789 0.58890 0.11723
 N141 N 1.03444 0.47119 0.05633
 N142 N 1.05473 0.46323 0.06801
 N143 N 0.97322 0.45869 0.10460
 N144 N 0.95338 0.44497 0.14620
 N145 N 0.97198 0.43961 0.06511
 N146 N 0.95134 0.41218 0.07933
 N147 N 1.03579 0.49056 0.09513
 N148 N 1.05720 0.49675 0.13329
 Mn149 Mn 1.00091 0.45427 -0.00277
 Mn150 Mn 1.00405 0.50210 0.10112
 Cl151 Cl 0.99991 0.50068 -0.00141
 C152 C 1.06908 0.47992 0.11568
 C153 C 0.93980 0.41609 0.12986
 N154 N 0.47297 0.43514 0.05678
 N155 N 0.46517 0.40722 0.07008
 N156 N 0.45875 0.48236 0.10631
 N157 N 0.44501 0.48735 0.14969
 N158 N 0.43948 0.46427 0.06752
 N159 N 0.41190 0.45622 0.08402
 N160 N 0.49261 0.45352 0.09467
 N161 N 0.49915 0.43881 0.13370
 C162 C 0.48228 0.41008 0.11756
 C163 C 0.41592 0.47118 0.13520
 N164 N 0.52952 0.55897 0.06738
 N165 N 0.53694 0.58610 0.08584
 N166 N 0.54613 0.50992 0.09399
 N167 N 0.56209 0.50380 0.13063
 N168 N 0.56333 0.53019 0.05565
 N169 N 0.59172 0.53885 0.06618
 N170 N 0.51249 0.53892 0.10623
 N171 N 0.50765 0.55168 0.15157
 Mn172 Mn 0.50251 0.49617 0.10055
 C173 C 0.52264 0.58097 0.13816
 C174 C 0.59037 0.52167 0.11261
 N175 N 0.43592 0.46650 -0.05961
 N176 N 0.40743 0.45639 -0.07237
 N177 N 0.48708 0.45813 -0.10934
 N178 N 0.49453 0.44572 -0.15153
 N179 N 0.47020 0.43815 -0.07019
 N180 N 0.46551 0.41141 -0.08518
 N181 N 0.45307 0.48686 -0.09783
 N182 N 0.43692 0.49158 -0.13655
 Mn183 Mn 0.45429 0.45066 -0.00140
 C184 C 0.40859 0.47282 -0.11993
 C185 C 0.48113 0.41670 -0.13590
 N186 N 0.55989 0.53316 -0.07151
 N187 N 0.58750 0.54430 -0.09143
 N188 N 0.50646 0.54344 -0.09772
 N189 N 0.49759 0.55764 -0.13316
 N190 N 0.52586 0.56182 -0.05947
 N191 N 0.53109 0.58934 -0.06879
 N192 N 0.54068 0.51513 -0.11049
 N193 N 0.55462 0.51355 -0.15754
 Mn194 Mn 0.54500 0.54639 -0.00200
 Mn195 Mn 0.49681 0.50087 -0.10412
 Cl196 Cl 0.49967 0.49853 -0.00176
 C197 C 0.58373 0.53135 -0.14487
 C198 C 0.51282 0.58612 -0.11450
 N199 N 0.43804 -0.03462 0.06600
 N200 N 0.41039 -0.05232 0.08450
 N201 N 0.48694 0.02828 0.10463
 N202 N 0.49226 0.04805 0.14586
 N203 N 0.46777 0.02791 0.06622
 N204 N 0.45922 0.04736 0.08095
 N205 N 0.45726 -0.03426 0.10435
 N206 N 0.44332 -0.05176 0.14913
 C207 C 0.41420 -0.06331 0.13596
 C208 C 0.47518 0.06002 0.13038
 N209 N 0.56219 0.03054 0.06495
 N210 N 0.58985 0.04984 0.08108
 N211 N 0.51343 -0.03276 0.10259
 N212 N 0.50764 -0.05346 0.14226
 N213 N 0.53250 -0.03201 0.06354
 N214 N 0.54056 -0.05208 0.07637
 N215 N 0.54308 0.02988 0.10376
 N216 N 0.55698 0.04886 0.14643
 Mn217 Mn 0.50020 -0.00222 0.10398
 C218 C 0.58601 0.06145 0.13162
 C219 C 0.52441 -0.06551 0.12529
 N220 N 0.46720 0.02835 -0.06105
 N221 N 0.45636 0.04585 -0.07690
 N222 N 0.45685 -0.03359 -0.10111
 N223 N 0.44301 -0.05451 -0.14072
 N224 N 0.43795 -0.03426 -0.06168
 N225 N 0.41054 -0.05555 -0.07407
 N226 N 0.48594 0.02901 -0.10083
 N227 N 0.48833 0.04688 -0.14437
 Mn228 Mn 0.45242 -0.00317 0.00232
 C229 C 0.47029 0.05768 -0.12857
 C230 C 0.41426 -0.06817 -0.12319
 N231 N 0.53253 -0.03118 -0.06405
 N232 N 0.54386 -0.04791 -0.08206
 N233 N 0.54263 0.03111 -0.10127
 N234 N 0.55626 0.05224 -0.14072
 N235 N 0.56176 0.03141 -0.06273
 N236 N 0.58913 0.05267 -0.07565
 N237 N 0.51364 -0.03140 -0.10310
 N238 N 0.51168 -0.04815 -0.14823
 Mn239 Mn 0.54759 -0.00030 0.00040
 Mn240 Mn 0.49975 -0.00122 -0.10183
 Cl241 Cl 0.49998 -0.00176 0.00117
 C242 C 0.53009 -0.05879 -0.13422
 C243 C 0.58512 0.06566 -0.12408
 C244 C 1.13719 0.46288 0.28649
 N245 N 1.15044 0.44571 0.28578
 N246 N 1.16100 0.44047 0.33552
 C247 C 1.15803 0.45166 0.38774
 N248 N 1.14464 0.46861 0.38747
 N249 N 1.13466 0.47422 0.33819
 C250 C 1.12459 0.46924 0.23420
 N251 N 1.12085 0.49341 0.23568
 N252 N 1.10464 0.49744 0.19525
 C253 C 1.09137 0.47743 0.15156
 N254 N 1.09576 0.45355 0.14856
 N255 N 1.11217 0.44951 0.18931
 C256 C 0.53816 0.66345 0.31551
 N257 N 0.52795 0.65126 0.36905
 N258 N 0.53187 0.66832 0.41535
 C259 C 0.54605 0.69846 0.41063
 N260 N 0.55633 0.71081 0.35667
 N261 N 0.55259 0.69362 0.30997
 C262 C 0.53322 0.64331 0.26600
 N263 N 0.54754 0.65291 0.21360
 N264 N 0.54382 0.63333 0.17149
 C265 C 0.52556 0.60364 0.18049
 N266 N 0.51106 0.59433 0.23240
 N267 N 0.51482 0.61373 0.27422
 C268 C 0.32963 -0.12048 0.31613
 N269 N 0.34084 -0.11440 0.37129
 N270 N 0.32346 -0.12732 0.41741
 C271 C 0.29402 -0.14718 0.41079
 N272 N 0.28257 -0.15294 0.35529
 N273 N 0.30003 -0.13974 0.30878
 C274 C 0.35037 -0.10727 0.26662
 N275 N 0.34136 -0.10490 0.21164
 N276 N 0.36139 -0.09142 0.16882
 C277 C 0.39096 -0.08030 0.17962
 N278 N 0.39966 -0.08317 0.23422
 N279 N 0.37983 -0.09628 0.27680
 C280 C 0.88274 0.55189 0.32008
 N281 N 0.86607 0.56538 0.31201
 N282 N 0.85247 0.56994 0.35756
 C283 C 0.85532 0.56143 0.41278
 N284 N 0.87226 0.54828 0.42031
 N285 N 0.88561 0.54359 0.37508
 C286 C 0.89718 0.54529 0.27122
 N287 N 0.90872 0.52714 0.28136
 N288 N 0.92271 0.52121 0.23909
 C289 C 0.92588 0.53325 0.18486
 N290 N 0.91424 0.55138 0.17417
 N291 N 0.89998 0.55721 0.21666
 C292 C 0.46766 0.32531 0.28843
 N293 N 0.48699 0.33596 0.33405
 N294 N 0.48185 0.32024 0.38315
 C295 C 0.45718 0.29310 0.38881
 N296 N 0.43800 0.28197 0.34266
 N297 N 0.44305 0.29791 0.29339
 C298 C 0.47261 0.34495 0.23780
 N299 N 0.45176 0.33807 0.19510
 N300 N 0.45535 0.35817 0.15412
 C301 C 0.47989 0.38575 0.15466
 N302 N 0.50088 0.39221 0.19650
 N303 N 0.49736 0.37221 0.23707
 C304 C 0.66994 0.12847 0.30622
 N305 N 0.69972 0.13823 0.30422
 N306 N 0.71680 0.15065 0.35153
 C307 C 0.70457 0.15331 0.40256
 N308 N 0.67490 0.14361 0.40392
 N309 N 0.65801 0.13152 0.35688
 C310 C 0.64985 0.11373 0.25634
 N311 N 0.62107 0.10719 0.26094
 N312 N 0.60137 0.09156 0.21962
 C313 C 0.60954 0.08179 0.17178
 N314 N 0.63851 0.08869 0.16622
 N315 N 0.65840 0.10447 0.20787
 C316 C 0.43583 0.11431 -0.29891
 N317 N 0.43401 0.13958 -0.29277
 N318 N 0.42923 0.15237 -0.33969
 C319 C 0.42603 0.14028 -0.39425
 N320 N 0.42669 0.11440 -0.39898
 N321 N 0.43163 0.10185 -0.35268
 C322 C 0.44593 0.10199 -0.25165
 N323 N 0.46260 0.08938 -0.26667
 N324 N 0.47090 0.07623 -0.22660
 C325 C 0.46258 0.07476 -0.16980
 N326 N 0.44596 0.08749 -0.15417
 N327 N 0.43792 0.10112 -0.19446
 C328 C 0.66999 0.56034 -0.32310
 N329 N 0.66008 0.55739 -0.37909
 N330 N 0.67807 0.56138 -0.42401
 C331 C 0.70684 0.56832 -0.41528
 N332 N 0.71699 0.57185 -0.35892
 N333 N 0.69893 0.56801 -0.31365
 C334 C 0.64851 0.55315 -0.27489
 N335 N 0.65709 0.56130 -0.21827
 N336 N 0.63668 0.55444 -0.17606
 C337 C 0.60710 0.53887 -0.18911
 N338 N 0.59876 0.53063 -0.24548
 N339 N 0.61901 0.53771 -0.28747
 C340 C 0.88225 0.32520 -0.30533
 N341 N 0.86041 0.29637 -0.29874
 N342 N 0.84774 0.27928 -0.34590
 C343 C 0.85658 0.29037 -0.40122
 N344 N 0.87910 0.31888 -0.40681
 N345 N 0.89148 0.33591 -0.36016
 C346 C 0.89423 0.34624 -0.25613
 N347 N 0.90393 0.37537 -0.26739
 N348 N 0.91655 0.39570 -0.22563
 C349 C 0.92034 0.38789 -0.17084
 N350 N 0.91049 0.35863 -0.15891
 N351 N 0.89740 0.33805 -0.20088
 C352 C 0.56310 -0.11451 -0.30878
 N353 N 0.56728 -0.13826 -0.30001
 N354 N 0.57148 -0.15202 -0.34569
 C355 C 0.57190 -0.14235 -0.40161
 N356 N 0.56857 -0.11810 -0.40951
 N357 N 0.56417 -0.10458 -0.36428
 C358 C 0.55452 -0.10104 -0.26125
 N359 N 0.53918 -0.08688 -0.27542
 N360 N 0.53110 -0.07410 -0.23431
 C361 C 0.53827 -0.07464 -0.17727
 N362 N 0.55371 -0.08878 -0.16260
 N363 N 0.56151 -0.10201 -0.20394
 C364 C 0.32073 0.45167 -0.28850
 N365 N 0.29292 0.42743 -0.29054
 N366 N 0.27627 0.42145 -0.33906
 C367 C 0.28715 0.43927 -0.38726
 N368 N 0.31474 0.46350 -0.38462
 N369 N 0.33111 0.46961 -0.33629
 C370 C 0.34098 0.45805 -0.23832
 N371 N 0.36757 0.48362 -0.23911
 N372 N 0.38828 0.48866 -0.19915
 C373 C 0.38329 0.46841 -0.15648
 N374 N 0.35638 0.44301 -0.15440
 N375 N 0.33552 0.43790 -0.19474
 C376 C 1.11266 0.67168 -0.31900
 N377 N 1.10520 0.66170 -0.37475
 N378 N 1.11932 0.67923 -0.42007
 C379 C 1.14179 0.70757 -0.41206
 N380 N 1.14892 0.71787 -0.35593
 N381 N 1.13458 0.70027 -0.31020
 C382 C 1.09824 0.65042 -0.27058
 N383 N 1.09873 0.65905 -0.21396
 N384 N 1.08486 0.63871 -0.17177
 C385 C 1.07047 0.60915 -0.18490
 N386 N 1.07035 0.60077 -0.24124
 N387 N 1.08382 0.62094 -0.28316
 C388 C 0.85414 0.53298 -0.27584
 N389 N 0.85063 0.55739 -0.27767
 N390 N 0.84054 0.56397 -0.32629
 C391 C 0.83391 0.54651 -0.37475
 N392 N 0.83692 0.52190 -0.37236
 N393 N 0.84668 0.51520 -0.32380
 C394 C 0.86953 0.52763 -0.22700
 N395 N 0.87358 0.50364 -0.22943
 N396 N 0.89152 0.50062 -0.19161
 C397 C 0.90610 0.52139 -0.14965
 N398 N 0.90147 0.54506 -0.14581
 N399 N 0.88349 0.54815 -0.18398
 C400 C 0.47568 0.33375 -0.30182
 N401 N 0.46084 0.30361 -0.29562
 N402 N 0.45574 0.28605 -0.34230
 C403 C 0.46480 0.29802 -0.39690
 N404 N 0.47999 0.32814 -0.40216
 N405 N 0.48544 0.34557 -0.35579
 C406 C 0.47953 0.35408 -0.25341
 N407 N 0.49757 0.38371 -0.26200
 N408 N 0.49869 0.40330 -0.22302
 C409 C 0.48175 0.39413 -0.17385
 N410 N 0.46406 0.36441 -0.16422
 N411 N 0.46295 0.34467 -0.20346
 C412 C 0.67089 0.14265 -0.28592
 N413 N 0.65996 0.14839 -0.33540
 N414 N 0.67695 0.15951 -0.38278
 C415 C 0.70569 0.16560 -0.38254
 N416 N 0.71704 0.16070 -0.33250
 N417 N 0.69987 0.14926 -0.28502
 C418 C 0.65022 0.12627 -0.23785
 N419 N 0.62133 0.11940 -0.24274
 N420 N 0.60106 0.10110 -0.20458
 C421 C 0.60880 0.08893 -0.15987
 N422 N 0.63785 0.09628 -0.15380
 N423 N 0.65824 0.11464 -0.19229
 C424 C 1.13642 0.47081 -0.30431
 N425 N 1.15214 0.45620 -0.29839
 N426 N 1.16408 0.45066 -0.34549
 C427 C 1.16020 0.45901 -0.40019
 N428 N 1.14470 0.47382 -0.40519
 N429 N 1.13325 0.47973 -0.35844
 C430 C 1.12102 0.47568 -0.25512
 N431 N 1.11047 0.49482 -0.26295
 N432 N 1.09279 0.49691 -0.22328
 C433 C 1.08478 0.47986 -0.17419
 N434 N 1.09579 0.46105 -0.16530
 N435 N 1.11367 0.45900 -0.20521
 C436 C 0.51980 0.66988 -0.27796
 N437 N 0.50879 0.65623 -0.32998
 N438 N 0.51534 0.67182 -0.37942
 C439 C 0.53285 0.70189 -0.37928
 N440 N 0.54308 0.71584 -0.32668
 N441 N 0.53701 0.70005 -0.27691
 C442 C 0.51508 0.65101 -0.22632
 N443 N 0.53589 0.65908 -0.18313
 N444 N 0.53441 0.63894 -0.14420
 C445 C 0.51208 0.61016 -0.14743
 N446 N 0.49084 0.60257 -0.18919
 N447 N 0.49234 0.62254 -0.22785
 C448 C 0.32709 -0.14509 -0.28258
 N449 N 0.29851 -0.15043 -0.28180
 N450 N 0.28120 -0.16133 -0.32922
 C451 C 0.29199 -0.16703 -0.37902
 N452 N 0.32028 -0.16229 -0.37911
 N453 N 0.33741 -0.15168 -0.33180
 C454 C 0.34818 -0.12880 -0.23507
 N455 N 0.37699 -0.12205 -0.24087
 N456 N 0.39763 -0.10371 -0.20338
 C457 C 0.39031 -0.09141 -0.15843
 N458 N 0.36134 -0.09865 -0.15145
 N459 N 0.34060 -0.11700 -0.18929
 C460 C 0.54015 -0.13771 0.28988
 N461 N 0.56238 -0.14461 0.28790
 N462 N 0.56896 -0.15553 0.33533
 C463 C 0.55373 -0.15956 0.38632
 N464 N 0.53139 -0.15296 0.38786
 N465 N 0.52465 -0.14240 0.34053
 C466 C 0.53432 -0.12262 0.24113
 N467 N 0.51122 -0.11726 0.24584
 N468 N 0.50756 -0.10016 0.20690
 C469 C 0.52681 -0.08771 0.16155
 N470 N 0.54963 -0.09356 0.15565
 N471 N 0.55334 -0.11076 0.19490
 C472 C 0.33008 0.45630 0.30431
 N473 N 0.34110 0.46891 0.35722
 N474 N 0.32317 0.46316 0.40304
 C475 C 0.29339 0.44469 0.39788
 N476 N 0.28210 0.43240 0.34459
 N477 N 0.30019 0.43797 0.29859
 C478 C 0.35108 0.46156 0.25623
 N479 N 0.34273 0.44518 0.20602
 N480 N 0.36309 0.44864 0.16587
 C481 C 0.39238 0.46860 0.17479
 N482 N 0.40046 0.48517 0.22440
 N483 N 0.38025 0.48172 0.26428
 C484 C 1.14108 0.67590 0.27998
 N485 N 1.14774 0.66523 0.32878
 N486 N 1.15777 0.68176 0.37692
 C487 C 1.16186 0.70976 0.37804
 N488 N 1.15591 0.72087 0.32884
 N489 N 1.14554 0.70414 0.28063
 C490 C 1.12599 0.65546 0.23097
 N491 N 1.11242 0.66231 0.18717
 N492 N 1.09498 0.64162 0.14832
 C493 C 1.09057 0.61345 0.15219
 N494 N 1.10474 0.60698 0.19500
 N495 N 1.12211 0.62754 0.23354
 C496 C 0.45527 0.12686 0.30014
 N497 N 0.46632 0.12651 0.35395
 N498 N 0.45918 0.13715 0.40041
 C499 C 0.44087 0.14883 0.39492
 N500 N 0.43009 0.14973 0.34087
 N501 N 0.43698 0.13867 0.29422
 C502 C 0.46223 0.11300 0.25110
 N503 N 0.44554 0.10419 0.20125
 N504 N 0.45022 0.08823 0.16080
 C505 C 0.47180 0.08075 0.16901
 N506 N 0.48878 0.09021 0.21809
 N507 N 0.48408 0.10596 0.25833
 C508 C 0.67873 0.53832 0.27537
 N509 N 0.66870 0.52020 0.32305
 N510 N 0.68482 0.52697 0.37192
 C511 C 0.71180 0.55198 0.37487
 N512 N 0.72232 0.56990 0.32682
 N513 N 0.70597 0.56325 0.27790
 C514 C 0.65838 0.53243 0.22574
 N515 N 0.66402 0.55322 0.18344
 N516 N 0.64300 0.54927 0.14445
 C517 C 0.61570 0.52442 0.14667
 N518 N 0.61051 0.50342 0.18788
 N519 N 0.63141 0.50732 0.22654
 C520 C 0.86501 0.32956 0.29312
 N521 N 0.85688 0.30022 0.28970
 N522 N 0.84542 0.28244 0.33645
 C523 C 0.84204 0.29354 0.38817
 N524 N 0.84972 0.32268 0.39100
 N525 N 0.86085 0.34028 0.34439
 C526 C 0.88106 0.35063 0.24541
 N527 N 0.88894 0.37965 0.25251
 N528 N 0.90674 0.40010 0.21408
 C529 C 0.91738 0.39239 0.16690
 N530 N 0.90906 0.36323 0.15873
 N531 N 0.89119 0.34266 0.19748
   
