data_POSCAR
  _audit_creation_date              2014-09-24
  _audit_creation_method            'ToBaCCo'
  _symmetry_space_group_name_H-M    'P1'
  _symmetry_Int_Tables_number       1
  _symmetry_cell_setting            triclinic
  loop_
  _symmetry_equiv_pos_as_xyz
 x,y,z
_cell_length_a 24.7912
_cell_length_b 24.7908
_cell_length_c 24.8439
_cell_angle_alpha 90.124700
_cell_angle_beta 90.125000
_cell_angle_gamma 90.000400
loop_
  _atom_site_label
  _atom_site_type_symbol
  _atom_site_fract_x
  _atom_site_fract_y
  _atom_site_fract_z
O1 O 0.44871 0.95528 -0.55161
 O2 O 0.55384 0.95525 -0.44680
 O3 O 0.44879 0.95587 -0.44679
 O4 O 0.55372 0.95597 -0.55165
 O5 O 0.55363 1.04518 -0.55133
 O6 O 0.44884 1.04508 -0.44661
 O7 O 0.55389 1.04445 -0.44647
 O8 O 0.44860 1.04449 -0.55144
 Cu9 Cu 0.50128 0.94659 -0.49923
 Cu10 Cu 0.50125 1.05380 -0.49893
 C11 C 0.43091 0.99984 -0.56924
 C12 C 0.57162 0.99980 -0.42891
 C13 C 0.43111 1.00050 -0.42903
 C14 C 0.57134 1.00064 -0.56920
 O15 O -0.55459 1.44721 -0.04529
 O16 O -0.44959 1.55217 -0.04539
 O17 O -0.44954 1.44716 -0.04465
 O18 O -0.55464 1.55231 -0.04467
 O19 O -0.55434 1.55248 0.04434
 O20 O -0.44939 1.44748 0.04438
 O21 O -0.44929 1.55248 0.04363
 O22 O -0.55443 1.44738 0.04372
 Cu23 Cu -0.50213 1.49969 -0.05398
 Cu24 Cu -0.50186 1.49998 0.05300
 C25 C -0.57222 1.42953 -0.00081
 C26 C -0.43168 1.57002 -0.00094
 C27 C -0.43172 1.42961 -0.00008
 C28 C -0.57220 1.57016 -0.00012
 O29 O 0.04421 0.44834 0.44855
 O30 O 0.04405 0.55353 0.55360
 O31 O 0.04474 0.44848 0.55337
 O32 O 0.04484 0.55336 0.44874
 O33 O -0.04437 0.55340 0.44837
 O34 O -0.04447 0.44839 0.55314
 O35 O -0.04515 0.55344 0.55323
 O36 O -0.04500 0.44838 0.44832
 Cu37 Cu 0.05346 0.50094 0.50110
 Cu38 Cu -0.05375 0.50091 0.50074
 C39 C -0.00042 0.43063 0.43072
 C40 C -0.00062 0.57122 0.57116
 C41 C 0.00016 0.43071 0.57091
 C42 C 0.00029 0.57105 0.43085
 O43 O -0.07295 0.99796 -0.13884
 O44 O -0.07267 1.00178 0.13833
 O45 O -0.13872 0.92685 -0.00217
 O46 O -0.13871 1.07282 0.00151
 O47 O -0.07284 1.13872 0.00167
 O48 O -0.07285 0.86095 -0.00215
 O49 O -0.13864 1.00170 0.07252
 O50 O -0.13878 0.99803 -0.07318
 Zr51 Zr -0.09481 0.99984 -0.00028
 O52 O -0.04875 1.04885 0.04869
 O53 O -0.04884 0.95083 -0.04913
 C54 C -0.12267 0.99720 -0.12278
 C55 C -0.12242 1.00257 0.12216
 C56 C -0.12257 0.87712 -0.00299
 C57 C -0.12257 1.12256 0.00238
 H58 H -0.07149 0.92821 0.07125
 O59 O -0.04849 0.95120 0.04832
 H60 H -0.07162 1.07149 -0.07173
 O61 O -0.04858 1.04849 -0.04876
 O62 O 0.07329 0.99823 0.13851
 O63 O 0.07305 1.00147 -0.13864
 O64 O 0.00198 0.86104 0.07255
 O65 O -0.00153 1.13880 0.07283
 O66 O 0.00184 1.13865 -0.07283
 O67 O -0.00170 0.86088 -0.07315
 O68 O 0.13904 0.92682 0.00167
 O69 O 0.13904 1.07285 -0.00170
 O70 O 0.07314 0.86095 0.00152
 O71 O 0.07315 1.13872 -0.00171
 O72 O 0.00205 0.92702 0.13834
 O73 O -0.00174 0.92670 -0.13882
 O74 O 0.00180 1.07269 -0.13866
 O75 O -0.00146 1.07298 0.13850
 O76 O 0.13912 0.99815 0.07286
 O77 O 0.13898 1.00154 -0.07281
 Zr78 Zr 0.00026 0.99995 0.09460
 Zr79 Zr 0.00008 0.99974 -0.09493
 Zr80 Zr 0.00016 0.90486 -0.00026
 Zr81 Zr 0.00016 1.09481 -0.00005
 Zr82 Zr 0.09514 0.99984 -0.00004
 O83 O 0.04908 1.04874 -0.04889
 O84 O 0.04917 0.95093 0.04870
 C85 C 0.12300 0.99741 0.12246
 C86 C 0.12279 1.00230 -0.12245
 C87 C 0.00282 0.87727 0.12219
 C88 C -0.00229 1.12269 0.12244
 C89 C 0.00259 1.12244 -0.12247
 C90 C -0.00254 0.87698 -0.12276
 C91 C 0.12288 0.87710 0.00238
 C92 C 0.12287 1.12257 -0.00249
 H93 H 0.07181 0.92805 -0.07172
 O94 O 0.04881 0.95109 -0.04874
 H95 H 0.07196 1.07165 0.07157
 O96 O 0.04892 1.04860 0.04855
 C97 C 0.31386 0.99854 0.31359
 C98 C 0.33536 0.98405 0.25749
 C99 C 0.29654 0.98339 0.21857
 C100 C 0.24003 0.99730 0.23957
 C101 C 0.24635 1.05227 0.26746
 C102 C 0.28516 1.05291 0.30638
 C103 C 0.26852 0.95776 0.32424
 C104 C 0.22970 0.95711 0.28532
 C105 C 0.35564 0.99923 0.35547
 C106 C 0.39000 0.99966 0.38987
 C107 C 0.19825 0.99676 0.19770
 C108 C 0.16389 0.99676 0.16331
 H109 H 0.37737 0.97507 0.24907
 H110 H 0.30529 0.97386 0.17682
 H111 H 0.22244 1.08757 0.25752
 H112 H 0.29450 1.08877 0.32977
 H113 H 0.26705 0.93168 0.35926
 H114 H 0.19498 0.93048 0.28699
 C115 C -0.31231 1.00189 0.31343
 C116 C -0.26537 1.04047 0.32557
 C117 C -0.22680 1.04104 0.28657
 C118 C -0.23896 1.00297 0.23926
 C119 C -0.29502 1.01980 0.21903
 C120 C -0.33359 1.01923 0.25803
 C121 C -0.28579 0.94675 0.30393
 C122 C -0.24722 0.94732 0.26494
 C123 C -0.35383 1.00126 0.35540
 C124 C -0.38798 1.00085 0.38986
 C125 C -0.19742 1.00342 0.19733
 C126 C -0.16321 1.00333 0.16294
 H127 H -0.26266 1.06517 0.36162
 H128 H -0.19106 1.06624 0.28920
 H129 H -0.30366 1.03118 0.17772
 H130 H -0.37528 1.03012 0.25013
 H131 H -0.29636 0.91046 0.32589
 H132 H -0.22476 0.91150 0.25350
 C133 C -0.31354 0.99848 -0.31391
 C134 C -0.33564 1.00701 -0.25685
 C135 C -0.29683 1.00633 -0.21793
 C136 C -0.23972 0.99719 -0.23989
 C137 C -0.23159 1.04162 -0.28205
 C138 C -0.27040 1.04230 -0.32097
 C139 C -0.28206 0.94522 -0.31125
 C140 C -0.24324 0.94454 -0.27233
 C141 C -0.35532 0.99919 -0.35580
 C142 C -0.38968 0.99961 -0.39021
 C143 C -0.19793 0.99660 -0.19802
 C144 C -0.16357 0.99657 -0.16364
 H145 H -0.37804 1.01306 -0.24781
 H146 H -0.30598 1.01179 -0.17555
 H147 H -0.19828 1.07006 -0.28139
 H148 H -0.27035 1.07131 -0.35364
 H149 H -0.28960 0.91104 -0.33761
 H150 H -0.21753 0.90978 -0.26534
 C151 C 0.31398 1.00159 -0.31244
 C152 C 0.31132 0.94938 -0.27946
 C153 C 0.27240 0.94992 -0.24082
 C154 C 0.23994 1.00263 -0.23894
 C155 C 0.21783 1.00990 -0.29622
 C156 C 0.25676 1.00935 -0.33487
 C157 C 0.32118 1.04679 -0.27069
 C158 C 0.28225 1.04734 -0.23204
 C159 C 0.35586 1.00100 -0.35405
 C160 C 0.39024 1.00064 -0.38828
 C161 C 0.19805 1.00307 -0.19735
 C162 C 0.16365 1.00300 -0.16316
 H163 H 0.33769 0.91500 -0.28588
 H164 H 0.26543 0.91601 -0.21414
 H165 H 0.17535 1.01505 -0.30561
 H166 H 0.24762 1.01402 -0.37736
 H167 H 0.35397 1.07581 -0.27142
 H168 H 0.28168 1.07683 -0.19967
 C169 C 0.31326 1.31420 -0.00186
 C170 C 0.30799 1.28403 0.05176
 C171 C 0.26930 1.24500 0.05124
 C172 C 0.23966 1.23994 -0.00286
 C173 C 0.28428 1.23097 -0.04468
 C174 C 0.32299 1.27002 -0.04415
 C175 C 0.25645 1.33571 -0.01392
 C176 C 0.21776 1.29666 -0.01444
 C177 C 0.35492 1.35622 -0.00129
 C178 C 0.38918 1.39073 -0.00095
 C179 C 0.19800 1.19794 -0.00327
 C180 C 0.16372 1.16348 -0.00319
 H181 H 0.33250 1.29257 0.08704
 H182 H 0.26066 1.22010 0.08607
 H183 H 0.28538 1.19697 -0.07227
 H184 H 0.35724 1.26946 -0.07129
 H185 H 0.24741 1.37789 -0.02140
 H186 H 0.17557 1.30540 -0.02238
 C187 C 0.31328 0.68549 0.00116
 C188 C 0.32131 0.72763 0.04585
 C189 C 0.28261 0.76667 0.04651
 C190 C 0.23967 0.75973 0.00243
 C191 C 0.21735 0.70255 0.01039
 C192 C 0.25605 0.66351 0.00972
 C193 C 0.31011 0.71814 -0.05117
 C194 C 0.27141 0.75717 -0.05051
 C195 C 0.35494 0.64347 0.00046
 C196 C 0.38920 0.60896 0.00005
 C197 C 0.19801 0.80172 0.00299
 C198 C 0.16372 0.83619 0.00301
 H199 H 0.35447 0.72687 0.07445
 H200 H 0.28261 0.79934 0.07568
 H201 H 0.17489 0.69352 0.01605
 H202 H 0.24674 0.62104 0.01480
 H203 H 0.33597 0.71121 -0.08572
 H204 H 0.26413 0.78368 -0.08449
 C205 C -0.31414 0.68670 -0.00222
 C206 C -0.27468 0.68120 -0.04947
 C207 C -0.23564 0.71991 -0.05007
 C208 C -0.23990 0.76031 -0.00336
 C209 C -0.23946 0.72564 0.04777
 C210 C -0.27849 0.68695 0.04837
 C211 C -0.33643 0.74431 -0.00639
 C212 C -0.29740 0.78301 -0.00698
 C213 C -0.35615 0.64504 -0.00157
 C214 C -0.39066 0.61080 -0.00115
 C215 C -0.19792 0.80197 -0.00383
 C216 C -0.16347 0.83627 -0.00375
 H217 H -0.27718 0.64969 -0.07979
 H218 H -0.20471 0.72156 -0.08089
 H219 H -0.21100 0.73102 0.08062
 H220 H -0.28346 0.65918 0.08172
 H221 H -0.37911 0.75387 -0.00867
 H222 H -0.30665 0.82573 -0.00979
 C223 C -0.31421 1.31290 0.00126
 C224 C -0.32171 1.27084 0.04590
 C225 C -0.28266 1.23215 0.04655
 C226 C -0.23994 1.23932 0.00251
 C227 C -0.21809 1.29672 0.01055
 C228 C -0.25714 1.33541 0.00990
 C229 C -0.31093 1.28011 -0.05110
 C230 C -0.27189 1.24143 -0.05045
 C231 C -0.35623 1.35455 0.00056
 C232 C -0.39073 1.38881 0.00012
 C233 C -0.19794 1.19768 0.00306
 C234 C -0.16347 1.16340 0.00305
 H235 H -0.35477 1.27140 0.07448
 H236 H -0.28226 1.19958 0.07570
 H237 H -0.17570 1.30615 0.01629
 H238 H -0.24819 1.37798 0.01506
 H239 H -0.33698 1.28669 -0.08566
 H240 H -0.26449 1.21487 -0.08445
 C241 C -0.00150 1.31359 0.31352
 C242 C -0.04497 1.27034 0.32206
 C243 C -0.04553 1.23151 0.28315
 C244 C -0.00257 1.23974 0.23953
 C245 C 0.05113 1.24340 0.27020
 C246 C 0.05170 1.28223 0.30910
 C247 C -0.01200 1.33565 0.25677
 C248 C -0.01257 1.29682 0.21786
 C249 C -0.00090 1.35538 0.35540
 C250 C -0.00054 1.38974 0.38981
 C251 C -0.00303 1.19795 0.19766
 C252 C -0.00297 1.16358 0.16328
 H253 H -0.07285 1.27024 0.35570
 H254 H -0.07389 1.19814 0.28345
 H255 H 0.08568 1.21776 0.26207
 H256 H 0.08672 1.28985 0.33430
 H257 H -0.01843 1.37804 0.24792
 H258 H -0.01949 1.30593 0.17568
 C259 C 0.00141 1.31354 -0.31254
 C260 C 0.00156 1.33607 -0.25494
 C261 C 0.00221 1.29716 -0.21628
 C262 C 0.00264 1.23954 -0.23902
 C263 C 0.05156 1.23752 -0.27673
 C264 C 0.05091 1.27644 -0.31540
 C265 C -0.04737 1.27547 -0.31498
 C266 C -0.04672 1.23656 -0.27633
 C267 C 0.00072 1.35542 -0.35416
 C268 C 0.00032 1.38981 -0.38837
 C269 C 0.00319 1.19767 -0.19741
 C270 C 0.00322 1.16329 -0.16320
 H271 H 0.00120 1.37882 -0.24535
 H272 H 0.00241 1.30658 -0.17358
 H273 H 0.08386 1.20814 -0.27337
 H274 H 0.08266 1.28039 -0.34515
 H275 H -0.07958 1.27878 -0.34446
 H276 H -0.07838 1.20654 -0.27270
 C277 C -0.00186 0.68602 -0.31380
 C278 C 0.04565 0.68221 -0.27427
 C279 C 0.04509 0.72104 -0.23538
 C280 C -0.00294 0.75988 -0.23981
 C281 C -0.05309 0.72357 -0.23947
 C282 C -0.05252 0.68473 -0.27838
 C283 C 0.00051 0.74367 -0.33610
 C284 C -0.00006 0.78250 -0.29720
 C285 C -0.00124 0.64423 -0.35568
 C286 C -0.00084 0.60989 -0.39011
 C287 C -0.00338 0.80169 -0.19796
 C288 C -0.00329 0.83607 -0.16359
 H289 H 0.07698 0.65169 -0.27662
 H290 H 0.07593 0.72378 -0.20440
 H291 H -0.08613 0.72798 -0.21119
 H292 H -0.08508 0.65586 -0.28342
 H293 H 0.00244 0.75316 -0.37869
 H294 H 0.00138 0.82526 -0.30647
 C295 C 0.00168 0.68740 0.31348
 C296 C 0.02883 0.66895 0.26110
 C297 C 0.02950 0.70752 0.22210
 C298 C 0.00295 0.76075 0.23931
 C299 C 0.03253 0.77749 0.29107
 C300 C 0.03186 0.73892 0.33007
 C301 C -0.05472 0.70651 0.29652
 C302 C -0.05406 0.74507 0.25753
 C303 C 0.00097 0.64589 0.35546
 C304 C 0.00052 0.61174 0.38992
 C305 C 0.00351 0.80228 0.19737
 C306 C 0.00350 0.83648 0.16298
 H307 H 0.04602 0.62910 0.25516
 H308 H 0.04726 0.70072 0.18276
 H309 H 0.05227 0.81620 0.29659
 H310 H 0.05102 0.74460 0.36900
 H311 H -0.09191 0.69110 0.31361
 H312 H -0.09069 0.76269 0.24122
   
