data_POSCAR
  _audit_creation_date              2014-09-24
  _audit_creation_method            'ToBaCCo'
  _symmetry_space_group_name_H-M    'P1'
  _symmetry_Int_Tables_number       1
  _symmetry_cell_setting            triclinic
  loop_
  _symmetry_equiv_pos_as_xyz
 x,y,z
_cell_length_a 34.4157
_cell_length_b 34.2362
_cell_length_c 34.4715
_cell_angle_alpha 90.018600
_cell_angle_beta 90.062500
_cell_angle_gamma 90.034400
loop_
  _atom_site_label
  _atom_site_type_symbol
  _atom_site_fract_x
  _atom_site_fract_y
  _atom_site_fract_z
C1 C 0.51954 1.00105 -0.49973
 C2 C 0.48009 1.00142 -0.49983
 C3 C 0.45713 1.00327 -0.53626
 C4 C 0.45692 1.00012 -0.46355
 C5 C 0.54260 1.00201 -0.46332
 C6 C 0.54263 0.99973 -0.53606
 C7 C 0.43154 1.03441 -0.54175
 C8 C 0.40617 1.03501 -0.57330
 C9 C 0.40486 1.00389 -0.60051
 C10 C 0.43232 0.97328 -0.59521
 C11 C 0.45781 0.97297 -0.56347
 C12 C 0.45865 1.03031 -0.43602
 C13 C 0.43295 1.03061 -0.40449
 C14 C 0.40498 1.00088 -0.40023
 C15 C 0.40434 0.97014 -0.42725
 C16 C 0.42988 0.96989 -0.45861
 C17 C 0.54093 0.97149 -0.43618
 C18 C 0.56662 0.97087 -0.40459
 C19 C 0.59451 1.00062 -0.39989
 C20 C 0.59505 1.03172 -0.42648
 C21 C 0.56952 1.03228 -0.45790
 C22 C 0.56890 0.96895 -0.54150
 C23 C 0.59451 0.96913 -0.57281
 C24 C 0.59471 1.00037 -0.59925
 C25 C 0.56746 1.03066 -0.59453
 C26 C 0.54169 1.03041 -0.56306
 H27 H 0.43098 1.05838 -0.52123
 H28 H 0.38862 1.06095 -0.57629
 H29 H 0.43291 0.94775 -0.61357
 H30 H 0.47698 0.94825 -0.55929
 H31 H 0.47887 1.05426 -0.43970
 H32 H 0.43394 1.05485 -0.38434
 H33 H 0.42809 0.94638 -0.47959
 H34 H 0.52078 0.94753 -0.44023
 H35 H 0.56571 0.94638 -0.38476
 H36 H 0.61562 1.05544 -0.42328
 H37 H 0.57126 1.05605 -0.47857
 H38 H 0.57009 0.94506 -0.52092
 H39 H 0.61459 0.94501 -0.57603
 H40 H 0.56713 1.05528 -0.61423
 H41 H 0.52206 1.05478 -0.55897
 H42 H 0.38369 0.94644 -0.42440
 C43 C -0.49992 1.47994 -0.00309
 C44 C -0.49973 1.51952 -0.00265
 C45 C -0.46322 1.54245 -0.00219
 C46 C -0.53606 1.54270 -0.00257
 C47 C -0.53646 1.45709 -0.00381
 C48 C -0.46364 1.45669 -0.00287
 C49 C -0.43682 1.53966 0.02874
 C50 C -0.40505 1.56511 0.03087
 C51 C -0.39949 1.59385 0.00224
 C52 C -0.42530 1.59552 -0.02931
 C53 C -0.45692 1.57020 -0.03139
 C54 C -0.54220 1.56977 0.02730
 C55 C -0.57370 1.59525 0.02587
 C56 C -0.59955 1.59443 -0.00570
 C57 C -0.59412 1.56640 -0.03505
 C58 C -0.56247 1.54079 -0.03357
 C59 C -0.54272 1.43058 -0.03402
 C60 C -0.57449 1.40539 -0.03329
 C61 C -0.60085 1.40551 -0.00186
 C62 C -0.59501 1.43360 0.02776
 C63 C -0.56307 1.45889 0.02683
 C64 C -0.43661 1.45937 -0.03321
 C65 C -0.40495 1.43377 -0.03465
 C66 C -0.40011 1.40500 -0.00592
 C67 C -0.42659 1.40339 0.02503
 C68 C -0.45810 1.42886 0.02642
 H69 H -0.44162 1.51882 0.05187
 H70 H -0.38579 1.56339 0.05567
 H71 H -0.42135 1.61687 -0.05215
 H72 H -0.47704 1.57276 -0.05545
 H73 H -0.52207 1.57164 0.05141
 H74 H -0.57755 1.61603 0.04923
 H75 H -0.55778 1.52051 -0.05722
 H76 H -0.52258 1.42910 -0.05813
 H77 H -0.57836 1.38634 -0.05801
 H78 H -0.61338 1.43473 0.05313
 H79 H -0.55826 1.47879 0.05079
 H80 H -0.44081 1.48026 -0.05642
 H81 H -0.38517 1.43544 -0.05900
 H82 H -0.42322 1.38202 0.04794
 H83 H -0.47870 1.42640 0.05004
 H84 H -0.61340 1.56535 -0.05987
 C85 C -0.00111 0.51990 0.50081
 C86 C -0.00073 0.48026 0.50098
 C87 C -0.00160 0.45695 0.46471
 C88 C 0.00049 0.45730 0.53743
 C89 C -0.00086 0.54307 0.53717
 C90 C -0.00181 0.54274 0.46427
 C91 C -0.03137 0.42967 0.45933
 C92 C -0.03079 0.40423 0.42778
 C93 C 0.00003 0.40487 0.40069
 C94 C 0.02922 0.43363 0.40572
 C95 C 0.02847 0.45916 0.43746
 C96 C -0.02976 0.45904 0.56452
 C97 C -0.03023 0.43362 0.59634
 C98 C -0.00056 0.40545 0.60162
 C99 C 0.03046 0.40536 0.57474
 C100 C 0.03075 0.43068 0.54310
 C101 C 0.03013 0.54092 0.56345
 C102 C 0.03133 0.56557 0.59583
 C103 C 0.00147 0.59316 0.60276
 C104 C -0.02990 0.59426 0.57624
 C105 C -0.03083 0.56978 0.54393
 C106 C 0.02762 0.57020 0.45739
 C107 C 0.02618 0.59425 0.42478
 C108 C -0.00493 0.59157 0.39848
 C109 C -0.03427 0.56374 0.40520
 C110 C -0.03273 0.53951 0.43787
 H111 H -0.05504 0.42781 0.47995
 H112 H -0.05522 0.38464 0.42463
 H113 H 0.05417 0.43522 0.38677
 H114 H 0.05213 0.47963 0.44156
 H115 H -0.05378 0.47899 0.56019
 H116 H -0.05533 0.43477 0.61511
 H117 H 0.05455 0.42920 0.52261
 H118 H 0.05375 0.52064 0.55852
 H119 H 0.05543 0.56212 0.61565
 H120 H -0.05296 0.61553 0.57871
 H121 H -0.05476 0.57220 0.52362
 H122 H 0.05149 0.57336 0.47766
 H123 H 0.04886 0.61582 0.42080
 H124 H -0.05849 0.56091 0.38532
 H125 H -0.05603 0.51889 0.44303
 H126 H 0.05523 0.38627 0.57811
 O127 O -0.09974 1.00057 -0.05156
 O128 O 0.10024 0.99918 -0.05170
 O129 O -0.00173 1.05297 -0.09910
 O130 O 0.00207 0.94682 -0.09916
 O131 O 0.00197 0.89963 -0.05151
 O132 O -0.00145 1.10016 -0.05141
 O133 O 0.05304 0.99912 -0.09923
 O134 O -0.05272 1.00066 -0.09916
 Zr135 Zr 0.00022 0.99989 -0.06779
 O136 O 0.03556 0.96468 -0.03458
 O137 O -0.03499 1.03509 -0.03450
 C138 C -0.08867 1.00102 -0.08756
 C139 C 0.08904 0.99875 -0.08768
 C140 C -0.00257 1.08905 -0.08739
 C141 C 0.00297 0.91074 -0.08749
 H142 H 0.05182 1.05209 -0.05084
 O143 O 0.03535 1.03517 -0.03442
 H144 H -0.05133 0.94766 -0.05080
 O145 O -0.03480 0.96459 -0.03441
 O146 O 0.10042 1.00096 0.05307
 O147 O -0.09955 0.99884 0.05319
 O148 O 0.05246 1.10021 0.00243
 O149 O 0.05269 0.89974 -0.00105
 O150 O -0.05175 0.89955 0.00247
 O151 O -0.05200 1.10002 -0.00092
 O152 O 0.00229 1.05296 0.10064
 O153 O -0.00132 0.94680 0.10062
 O154 O 0.00191 1.10016 0.05300
 O155 O -0.00107 0.89962 0.05293
 O156 O 0.10013 1.05302 0.00260
 O157 O -0.09955 1.05266 -0.00118
 O158 O -0.09941 0.94673 0.00279
 O159 O 0.10024 0.94711 -0.00134
 O160 O 0.05339 1.00085 0.10067
 O161 O -0.05236 0.99895 0.10073
 Zr162 Zr 0.06867 1.00001 0.00071
 Zr163 Zr -0.06798 0.99976 0.00079
 Zr164 Zr 0.00026 1.06819 0.00078
 Zr165 Zr 0.00043 0.93158 0.00072
 Zr166 Zr 0.00046 0.99988 0.06929
 O167 O -0.03478 0.96455 0.03604
 O168 O 0.03560 1.03522 0.03603
 C169 C 0.08934 1.00137 0.08906
 C170 C -0.08835 0.99846 0.08917
 C171 C 0.08846 1.08909 0.00350
 C172 C 0.08865 0.91100 -0.00228
 C173 C -0.08774 0.91067 0.00370
 C174 C -0.08796 1.08877 -0.00212
 C175 C 0.00305 1.08904 0.08897
 C176 C -0.00216 0.91072 0.08891
 H177 H -0.05128 1.05192 0.05236
 O178 O -0.03476 1.03505 0.03595
 H179 H 0.05214 0.94784 0.05227
 O180 O 0.03557 0.96471 0.03589
 C181 C 0.35370 0.97786 0.30766
 C182 C 0.32041 1.00096 0.31044
 C183 C 0.31550 1.02521 0.34252
 C184 C 0.34349 1.02640 0.37184
 C185 C 0.37772 1.00319 0.37009
 C186 C 0.38195 0.97883 0.33694
 C187 C 0.29092 0.99982 0.28073
 C188 C 0.26566 0.99950 0.25641
 C189 C 0.23571 0.99967 0.22831
 C190 C 0.21008 1.00010 0.20439
 C191 C 0.17964 1.00077 0.17563
 C192 C 0.14056 1.00022 0.18690
 C193 C 0.11110 1.00069 0.15886
 C194 C 0.12036 1.00170 0.11908
 C195 C 0.15980 1.00247 0.10816
 C196 C 0.18914 1.00200 0.13622
 H197 H 0.35801 0.95916 0.28266
 H198 H 0.28956 1.04293 0.34523
 H199 H 0.33637 1.04420 0.39667
 H200 H 0.40765 0.96147 0.33205
 H201 H 0.13286 0.99932 0.21735
 H202 H 0.08113 1.00007 0.16837
 H203 H 0.16812 1.00330 0.07788
 H204 H 0.21927 1.00251 0.12714
 C205 C -0.35668 1.01520 0.30271
 C206 C -0.31852 1.00353 0.31090
 C207 C -0.30878 0.99138 0.34839
 C208 C -0.33696 0.99059 0.37749
 C209 C -0.37549 1.00189 0.36957
 C210 C -0.38501 1.01448 0.33188
 C211 C -0.28921 1.00359 0.28106
 C212 C -0.26409 1.00312 0.25666
 C213 C -0.23427 1.00215 0.22852
 C214 C -0.20873 1.00114 0.20458
 C215 C -0.17838 0.99989 0.17581
 C216 C -0.13926 1.00055 0.18703
 C217 C -0.10988 0.99973 0.15898
 C218 C -0.11927 0.99828 0.11922
 C219 C -0.15875 0.99734 0.10834
 C220 C -0.18800 0.99815 0.13642
 H221 H -0.36458 1.02464 0.27376
 H222 H -0.27934 0.98245 0.35515
 H223 H -0.32849 0.98146 0.40636
 H224 H -0.41444 1.02311 0.32482
 H225 H -0.13146 1.00185 0.21746
 H226 H -0.07988 1.00049 0.16845
 H227 H -0.16716 0.99616 0.07808
 H228 H -0.21815 0.99757 0.12737
 C229 C -0.35746 0.98560 -0.30149
 C230 C -0.31905 0.99647 -0.30959
 C231 C -0.30895 1.00807 -0.34713
 C232 C -0.33703 1.00914 -0.37639
 C233 C -0.37580 0.99868 -0.36856
 C234 C -0.38569 0.98660 -0.33082
 C235 C -0.28985 0.99623 -0.27958
 C236 C -0.26477 0.99657 -0.25508
 C237 C -0.23495 0.99742 -0.22686
 C238 C -0.20938 0.99835 -0.20289
 C239 C -0.17896 0.99953 -0.17412
 C240 C -0.18846 1.00111 -0.13472
 C241 C -0.15913 1.00191 -0.10666
 C242 C -0.11968 1.00113 -0.11757
 C243 C -0.11042 0.99983 -0.15734
 C244 C -0.13988 0.99902 -0.18538
 H245 H -0.36564 0.97659 -0.27250
 H246 H -0.27932 1.01638 -0.35382
 H247 H -0.32829 1.01785 -0.40529
 H248 H -0.41531 0.97861 -0.32385
 H249 H -0.21859 1.00158 -0.12565
 H250 H -0.16745 1.00297 -0.07639
 H251 H -0.08044 0.99920 -0.16684
 H252 H -0.13216 0.99786 -0.21582
 C253 C 0.35716 1.01482 -0.30168
 C254 C 0.31871 1.00415 -0.30992
 C255 C 0.30851 0.99301 -0.34762
 C256 C 0.33653 0.99222 -0.37687
 C257 C 0.37535 1.00249 -0.36890
 C258 C 0.38533 1.01409 -0.33100
 C259 C 0.28956 1.00415 -0.27992
 C260 C 0.26454 1.00365 -0.25542
 C261 C 0.23481 1.00265 -0.22718
 C262 C 0.20932 1.00162 -0.20318
 C263 C 0.17901 1.00034 -0.17437
 C264 C 0.13989 1.00083 -0.18557
 C265 C 0.11053 0.99997 -0.15749
 C266 C 0.11994 0.99865 -0.11774
 C267 C 0.15943 0.99789 -0.10688
 C268 C 0.18866 0.99874 -0.13499
 H269 H 0.36541 1.02346 -0.27257
 H270 H 0.27884 0.98487 -0.35441
 H271 H 0.32772 0.98389 -0.40588
 H272 H 0.41499 1.02191 -0.32392
 H273 H 0.13206 1.00202 -0.21600
 H274 H 0.08052 1.00059 -0.16695
 H275 H 0.16786 0.99682 -0.07663
 H276 H 0.21882 0.99829 -0.12596
 C277 C 0.34264 1.31299 -0.01605
 C278 C 0.30931 1.32053 0.00564
 C279 C 0.30526 1.35630 0.02471
 C280 C 0.33461 1.38449 0.02220
 C281 C 0.36871 1.37746 0.00035
 C282 C 0.37197 1.34096 -0.01872
 C283 C 0.27950 1.29122 0.00813
 C284 C 0.25516 1.26599 0.00939
 C285 C 0.22713 1.23598 0.01001
 C286 C 0.20329 1.21023 0.00991
 C287 C 0.17467 1.17967 0.00913
 C288 C 0.13520 1.18918 0.00965
 C289 C 0.10721 1.15971 0.00792
 C290 C 0.11834 1.12018 0.00560
 C291 C 0.15819 1.11090 0.00534
 C292 C 0.18615 1.14051 0.00706
 H293 H 0.34621 1.28518 -0.03065
 H294 H 0.27932 1.36253 0.04138
 H295 H 0.32957 1.41217 0.03642
 H296 H 0.39787 1.33275 -0.03444
 H297 H 0.12602 1.21941 0.01120
 H298 H 0.07685 1.16799 0.00833
 H299 H 0.16780 1.08084 0.00364
 H300 H 0.21670 1.13288 0.00657
 C301 C 0.30233 0.64201 -0.02315
 C302 C 0.31035 0.68079 -0.01294
 C303 C 0.34773 0.69131 -0.00096
 C304 C 0.37697 0.66320 0.00115
 C305 C 0.36920 0.62406 -0.00863
 C306 C 0.33164 0.61376 -0.02111
 C307 C 0.28034 0.70993 -0.01392
 C308 C 0.25584 0.73502 -0.01394
 C309 C 0.22767 0.76485 -0.01317
 C310 C 0.20374 0.79046 -0.01195
 C311 C 0.17503 0.82085 -0.00998
 C312 C 0.18642 0.86005 -0.00799
 C313 C 0.15840 0.88951 -0.00545
 C314 C 0.11860 0.88004 -0.00480
 C315 C 0.10755 0.84046 -0.00692
 C316 C 0.13559 0.81114 -0.00947
 H317 H 0.27341 0.63359 -0.03239
 H318 H 0.35426 0.72125 0.00689
 H319 H 0.40578 0.67216 0.01015
 H320 H 0.32481 0.58382 -0.02860
 H321 H 0.21693 0.86784 -0.00831
 H322 H 0.16795 0.91962 -0.00395
 H323 H 0.07722 0.83202 -0.00663
 H324 H 0.12649 0.78087 -0.01095
 C325 C -0.34656 0.69075 -0.00001
 C326 C -0.30919 0.67990 0.01162
 C327 C -0.30124 0.64087 0.02085
 C328 C -0.33063 0.61271 0.01814
 C329 C -0.36818 0.62336 0.00597
 C330 C -0.37587 0.66274 -0.00279
 C331 C -0.27910 0.70897 0.01319
 C332 C -0.25458 0.73406 0.01366
 C333 C -0.22642 0.76395 0.01335
 C334 C -0.20252 0.78963 0.01249
 C335 C -0.17389 0.82016 0.01087
 C336 C -0.13442 0.81061 0.01065
 C337 C -0.10645 0.84006 0.00831
 C338 C -0.11760 0.87959 0.00612
 C339 C -0.15744 0.88889 0.00652
 C340 C -0.18538 0.85931 0.00885
 H341 H -0.35304 0.72089 -0.00710
 H342 H -0.27233 0.63218 0.02981
 H343 H -0.32386 0.58257 0.02485
 H344 H -0.40467 0.67195 -0.01152
 H345 H -0.12524 0.78038 0.01215
 H346 H -0.07609 0.83175 0.00822
 H347 H -0.16707 0.91896 0.00495
 H348 H -0.21592 0.86697 0.00894
 C349 C -0.30158 1.35790 -0.02213
 C350 C -0.30979 1.31889 -0.01306
 C351 C -0.34743 1.30806 -0.00232
 C352 C -0.37674 1.33609 -0.00027
 C353 C -0.36880 1.37546 -0.00888
 C354 C -0.33097 1.38608 -0.02016
 C355 C -0.27972 1.28980 -0.01392
 C356 C -0.25519 1.26475 -0.01386
 C357 C -0.22700 1.23493 -0.01301
 C358 C -0.20306 1.20933 -0.01175
 C359 C -0.17435 1.17894 -0.00974
 C360 C -0.13491 1.18864 -0.00917
 C361 C -0.10687 1.15932 -0.00664
 C362 C -0.11791 1.11974 -0.00459
 C363 C -0.15772 1.11027 -0.00529
 C364 C -0.18574 1.13973 -0.00781
 H365 H -0.27247 1.36657 -0.03041
 H366 H -0.35410 1.27793 0.00464
 H367 H -0.40574 1.32690 0.00778
 H368 H -0.32400 1.41620 -0.02672
 H369 H -0.12581 1.21892 -0.01061
 H370 H -0.07654 1.16775 -0.00631
 H371 H -0.16727 1.08016 -0.00384
 H372 H -0.21626 1.13194 -0.00818
 C373 C -0.01429 1.31213 0.34446
 C374 C 0.00644 1.32000 0.31061
 C375 C 0.02502 1.35603 0.30621
 C376 C 0.02294 1.38413 0.33567
 C377 C 0.00200 1.37679 0.37025
 C378 C -0.01653 1.34001 0.37390
 C379 C 0.00841 1.29081 0.28061
 C380 C 0.00931 1.26571 0.25611
 C381 C 0.00961 1.23584 0.22789
 C382 C 0.00932 1.21018 0.20394
 C383 C 0.00843 1.17965 0.17525
 C384 C 0.00887 1.18919 0.13582
 C385 C 0.00721 1.15973 0.10782
 C386 C 0.00504 1.12017 0.11887
 C387 C 0.00482 1.11086 0.15865
 C388 C 0.00647 1.14045 0.18662
 H389 H -0.02849 1.28414 0.34833
 H390 H 0.04095 1.36254 0.27991
 H391 H 0.03671 1.41199 0.33032
 H392 H -0.03150 1.33153 0.40012
 H393 H 0.01034 1.21944 0.12669
 H394 H 0.00757 1.16805 0.07752
 H395 H 0.00323 1.08078 0.16822
 H396 H 0.00606 1.13275 0.21710
 C397 C 0.01483 1.31297 -0.34210
 C398 C -0.00639 1.32042 -0.30846
 C399 C -0.02558 1.35611 -0.30419
 C400 C -0.02366 1.38428 -0.33357
 C401 C -0.00227 1.37735 -0.36796
 C402 C 0.01692 1.34092 -0.37147
 C403 C -0.00828 1.29112 -0.27858
 C404 C -0.00912 1.26594 -0.25417
 C405 C -0.00936 1.23598 -0.22606
 C406 C -0.00903 1.21028 -0.20218
 C407 C -0.00809 1.17971 -0.17354
 C408 C -0.00597 1.14053 -0.18497
 C409 C -0.00428 1.11092 -0.15705
 C410 C -0.00462 1.12019 -0.11725
 C411 C -0.00696 1.15973 -0.10614
 C412 C -0.00866 1.18921 -0.13410
 H413 H 0.02952 1.28524 -0.34588
 H414 H -0.04191 1.36230 -0.27804
 H415 H -0.03795 1.41188 -0.32832
 H416 H 0.03229 1.33274 -0.39755
 H417 H -0.00546 1.13287 -0.21547
 H418 H -0.00255 1.08086 -0.16666
 H419 H -0.00743 1.16802 -0.07583
 H420 H -0.01027 1.21944 -0.12492
 C421 C -0.02874 0.66515 -0.32094
 C422 C 0.00718 0.67677 -0.30606
 C423 C 0.04118 0.65946 -0.31993
 C424 C 0.03939 0.63119 -0.34921
 C425 C 0.00335 0.61983 -0.36558
 C426 C -0.03074 0.63703 -0.35022
 C427 C 0.00895 0.70722 -0.27730
 C428 C 0.00970 0.73308 -0.25357
 C429 C 0.00984 0.76352 -0.22595
 C430 C 0.00944 0.78944 -0.20229
 C431 C 0.00846 0.82007 -0.17369
 C432 C 0.00619 0.85924 -0.18511
 C433 C 0.00449 0.88885 -0.15717
 C434 C 0.00497 0.87961 -0.11737
 C435 C 0.00745 0.84008 -0.10628
 C436 C 0.00916 0.81060 -0.13425
 H437 H -0.05534 0.67801 -0.31004
 H438 H 0.06923 0.66839 -0.30867
 H439 H 0.06666 0.62016 -0.36019
 H440 H -0.05935 0.62834 -0.35990
 H441 H 0.00557 0.86689 -0.21561
 H442 H 0.00265 0.91891 -0.16678
 H443 H 0.00804 0.83179 -0.07597
 H444 H 0.01089 0.78038 -0.12508
 C445 C 0.02472 0.65739 0.31513
 C446 C -0.01042 0.67597 0.30645
 C447 C -0.04423 0.66551 0.32646
 C448 C -0.04274 0.63716 0.35565
 C449 C -0.00732 0.61905 0.36526
 C450 C 0.02629 0.62911 0.34431
 C451 C -0.01133 0.70671 0.27798
 C452 C -0.01141 0.73274 0.25445
 C453 C -0.01086 0.76334 0.22703
 C454 C -0.00994 0.78934 0.20347
 C455 C -0.00842 0.81999 0.17495
 C456 C -0.00863 0.81054 0.13549
 C457 C -0.00659 0.84004 0.10759
 C458 C -0.00428 0.87957 0.11875
 C459 C -0.00423 0.88879 0.15856
 C460 C -0.00625 0.85916 0.18645
 H461 H 0.05105 0.66517 0.29975
 H462 H -0.07158 0.67979 0.32003
 H463 H -0.06899 0.63038 0.37158
 H464 H 0.05387 0.61532 0.35072
 H465 H -0.01027 0.78033 0.12626
 H466 H -0.00684 0.83177 0.07726
 H467 H -0.00254 0.91885 0.16822
 H468 H -0.00603 0.86679 0.21695
   
