data_POSCAR
  _audit_creation_date              2014-09-24
  _audit_creation_method            'ToBaCCo'
  _symmetry_space_group_name_H-M    'P1'
  _symmetry_Int_Tables_number       1
  _symmetry_cell_setting            triclinic
  loop_
  _symmetry_equiv_pos_as_xyz
 x,y,z
_cell_length_a 47.5793
_cell_length_b 47.7775
_cell_length_c 47.3950
_cell_angle_alpha 90.033300
_cell_angle_beta 89.977600
_cell_angle_gamma 119.828900
loop_
  _atom_site_label
  _atom_site_type_symbol
  _atom_site_fract_x
  _atom_site_fract_y
  _atom_site_fract_z
C1 C -0.00013 0.50384 1.32959
 C2 C 0.02931 0.51446 1.31516
 C3 C 0.02880 0.51278 1.28550
 C4 C 0.00002 0.50303 1.27012
 C5 C -0.02885 0.49369 1.28526
 C6 C -0.02952 0.49275 1.31495
 C7 C 0.00007 0.50250 1.23840
 C8 C -0.02830 0.48173 1.22318
 C9 C -0.02873 0.48183 1.19355
 C10 C 0.00017 0.50144 1.17893
 C11 C 0.02902 0.52158 1.19341
 C12 C 0.02850 0.52272 1.22302
 H13 H -0.00019 0.50411 1.35243
 H14 H 0.05099 0.51892 1.27444
 H15 H -0.05100 0.48719 1.27399
 H16 H -0.05022 0.46513 1.23421
 H17 H 0.00020 0.50104 1.15610
 H18 H 0.05039 0.53970 1.23388
 C19 C 0.49340 0.49338 1.32295
 C20 C 0.48341 0.51272 1.30861
 C21 C 0.48562 0.51433 1.27897
 C22 C 0.49530 0.49529 1.26351
 C23 C 0.50406 0.47531 1.27859
 C24 C 0.50446 0.47510 1.30829
 C25 C 0.49638 0.49638 1.23178
 C26 C 0.51699 0.48837 1.21665
 C27 C 0.51736 0.48828 1.18701
 C28 C 0.49848 0.49851 1.17231
 C29 C 0.47856 0.50768 1.18671
 C30 C 0.47684 0.50547 1.21629
 H31 H 0.49272 0.49268 1.34579
 H32 H 0.47997 0.53075 1.26803
 H33 H 0.51051 0.45967 1.26730
 H34 H 0.53310 0.48235 1.22776
 H35 H 0.49928 0.49932 1.14948
 H36 H 0.45996 0.51070 1.22705
 C37 C 0.50453 1.00017 1.32535
 C38 C 0.48549 0.97124 1.31069
 C39 C 0.48444 0.97189 1.28111
 C40 C 0.50376 1.00057 1.26589
 C41 C 0.52345 1.02911 1.28122
 C42 C 0.52316 1.02949 1.31095
 C43 C 0.50326 1.00069 1.23418
 C44 C 0.51111 1.02912 1.21907
 C45 C 0.51153 1.02962 1.18943
 C46 C 0.50197 1.00077 1.17472
 C47 C 0.49306 0.97190 1.18911
 C48 C 0.49480 0.97232 1.21870
 H49 H 0.50471 0.99977 1.34819
 H50 H 0.46823 0.94985 1.27011
 H51 H 0.53925 1.05118 1.27010
 H52 H 0.51669 1.05103 1.23019
 H53 H 0.50146 1.00080 1.15188
 H54 H 0.48970 0.95038 1.22950
 C55 C 1.00066 0.49488 0.67111
 C56 C 0.97150 0.48519 0.68559
 C57 C 0.97198 0.48716 0.71517
 C58 C 1.00063 0.49646 0.73061
 C59 C 1.02934 0.50496 0.71548
 C60 C 1.02999 0.50554 0.68575
 C61 C 1.00061 0.49742 0.76233
 C62 C 1.02926 0.51763 0.77750
 C63 C 1.02962 0.51795 0.80713
 C64 C 1.00052 0.49934 0.82177
 C65 C 0.97146 0.47977 0.80738
 C66 C 0.97191 0.47819 0.77780
 H67 H 1.00044 0.49419 0.64827
 H68 H 0.94982 0.48158 0.72599
 H69 H 1.05138 0.51109 0.72677
 H70 H 1.05144 0.53352 0.76646
 H71 H 1.00049 0.50006 0.84460
 H72 H 0.94977 0.46162 0.76705
 C73 C 0.50573 0.50603 0.67700
 C74 C 0.51444 0.48580 0.69130
 C75 C 0.51260 0.48433 0.72089
 C76 C 0.50406 0.50424 0.73643
 C77 C 0.49635 0.52504 0.72137
 C78 C 0.49611 0.52531 0.69175
 C79 C 0.50311 0.50324 0.76814
 C80 C 0.48347 0.51244 0.78332
 C81 C 0.48330 0.51267 0.81297
 C82 C 0.50131 0.50137 0.82762
 C83 C 0.52022 0.49100 0.81312
 C84 C 0.52182 0.49308 0.78353
 H85 H 0.50627 0.50665 0.65417
 H86 H 0.51754 0.46729 0.73159
 H87 H 0.49070 0.54138 0.73249
 H88 H 0.46800 0.51932 0.77225
 H89 H 0.50064 0.50068 0.85045
 H90 H 0.53795 0.48689 0.77267
 C91 C 0.49388 -0.00063 0.67481
 C92 C 0.50592 0.02861 0.68947
 C93 C 0.50559 0.02823 0.71909
 C94 C 0.49592 -0.00055 0.73434
 C95 C 0.48525 -0.02940 0.71885
 C96 C 0.48281 -0.02999 0.68920
 C97 C 0.49710 -0.00046 0.76616
 C98 C 0.47833 -0.02906 0.78178
 C99 C 0.48034 -0.02955 0.81142
 C100 C 0.49944 -0.00024 0.82568
 C101 C 0.51731 0.02879 0.81089
 C102 C 0.51702 0.02822 0.78127
 H103 H 0.49332 -0.00040 0.65198
 H104 H 0.51284 0.05064 0.72999
 H105 H 0.47898 -0.05162 0.72967
 H106 H 0.46182 -0.05116 0.77107
 H107 H 0.50040 0.00010 0.84851
 H108 H 0.53266 0.05039 0.77027
 O109 O 0.37568 0.66588 0.96651
 O110 O 0.38066 0.72224 0.97556
 C111 C 0.36091 0.72849 0.96277
 O112 O 0.33100 0.71482 0.96856
 O113 O 0.27516 0.66356 0.97832
 C114 C 0.26906 0.63859 0.96411
 O115 O 0.28281 0.62211 0.96858
 O116 O 0.33443 0.61697 0.97647
 C117 C 0.35943 0.63574 0.96221
 O118 O 0.37813 0.65704 1.02250
 O119 O 0.38075 0.71230 1.03158
 C120 C 0.36726 0.72879 1.03714
 O121 O 0.34217 0.72513 1.02434
 O122 O 0.28741 0.67242 1.03420
 C123 C 0.27077 0.64243 1.03896
 O124 O 0.27379 0.62148 1.02479
 O125 O 0.32721 0.61944 1.03253
 C126 C 0.35750 0.63280 1.03660
 Cr127 Cr 0.37699 0.68855 0.99909
 Cr128 Cr 0.30976 0.69299 1.00134
 Cr129 Cr 0.30552 0.62180 1.00058
 O130 O 0.33079 0.66781 1.00038
 O131 O 0.62488 0.33485 0.96653
 O132 O 0.62007 0.27856 0.97552
 C133 C 0.63987 0.27233 0.96277
 O134 O 0.66976 0.28601 0.96864
 O135 O 0.72551 0.33736 0.97841
 C136 C 0.73163 0.36234 0.96423
 O137 O 0.71786 0.37881 0.96870
 O138 O 0.66612 0.38378 0.97649
 C139 C 0.64113 0.36498 0.96224
 O140 O 0.62233 0.34358 1.02253
 O141 O 0.61984 0.28840 1.03156
 C142 C 0.63348 0.27207 1.03720
 O143 O 0.65861 0.27580 1.02443
 O144 O 0.71327 0.32858 1.03428
 C145 C 0.72979 0.35857 1.03908
 O146 O 0.72670 0.37947 1.02493
 O147 O 0.67319 0.38137 1.03256
 C148 C 0.64288 0.36786 1.03665
 Cr149 Cr 0.62360 0.31217 0.99908
 Cr150 Cr 0.69095 0.30793 1.00141
 Cr151 Cr 0.69500 0.37905 1.00066
 O152 O 0.66982 0.33302 1.00042
 O153 O 0.66113 0.37797 0.53074
 O154 O 0.71776 0.38274 0.52284
 C155 C 0.72385 0.36392 0.53716
 O156 O 0.70972 0.33374 0.53304
 O157 O 0.65816 0.27749 0.52408
 C158 C 0.63224 0.27151 0.53688
 O159 O 0.61618 0.28536 0.53099
 O160 O 0.61192 0.33677 0.52097
 C161 C 0.63088 0.36174 0.53515
 O162 O 0.65265 0.37848 0.47454
 O163 O 0.70791 0.38007 0.46680
 C164 C 0.72476 0.36658 0.46283
 O165 O 0.72109 0.34238 0.47704
 O166 O 0.66833 0.28728 0.46803
 C167 C 0.63837 0.27092 0.46246
 O168 O 0.61700 0.27470 0.47525
 O169 O 0.61531 0.32757 0.46515
 C170 C 0.62868 0.35755 0.46038
 Cr171 Cr 0.68402 0.37802 0.49874
 Cr172 Cr 0.68834 0.31104 0.50050
 Cr173 Cr 0.61691 0.30707 0.49812
 O174 O 0.66309 0.33201 0.49909
 O175 O 0.34802 0.62152 0.52360
 O176 O 0.29284 0.61916 0.53351
 C177 C 0.27617 0.63254 0.53873
 O178 O 0.27959 0.65713 0.52542
 O179 O 0.33308 0.71218 0.53314
 C180 C 0.36343 0.72868 0.53696
 O181 O 0.38378 0.72516 0.52223
 O182 O 0.38652 0.67266 0.53089
 C183 C 0.37298 0.64283 0.53652
 O184 O 0.33698 0.62115 0.46767
 O185 O 0.28097 0.61675 0.47770
 C186 C 0.27404 0.63566 0.46444
 O187 O 0.28762 0.66571 0.46930
 O188 O 0.33950 0.72201 0.47692
 C189 C 0.36421 0.72792 0.46224
 O190 O 0.38072 0.71411 0.46627
 O191 O 0.38636 0.66312 0.47490
 C192 C 0.36687 0.63747 0.46186
 Cr193 Cr 0.31555 0.62147 0.50060
 Cr194 Cr 0.31096 0.68844 0.50117
 Cr195 Cr 0.38251 0.69276 0.49862
 O196 O 0.33631 0.66752 0.50016
 N197 N 0.45622 0.54280 0.36680
 C198 C 0.44539 0.56051 0.35319
 N199 N 0.44772 0.56287 0.32468
 N200 N 0.46035 0.54778 0.31026
 C201 C 0.47113 0.52976 0.32377
 N202 N 0.46881 0.52774 0.35240
 C203 C 0.43113 0.57592 0.36899
 C204 C 0.41921 0.58815 0.38333
 C205 C 0.40532 0.60200 0.40160
 N206 N 0.42460 0.63037 0.41487
 N207 N 0.41216 0.64202 0.43360
 C208 C 0.38002 0.62567 0.43974
 N209 N 0.36072 0.59736 0.42626
 N210 N 0.37318 0.58570 0.40753
 N211 N 0.43622 0.88398 0.32677
 C212 C 0.43668 0.88399 0.35537
 N213 N 0.45243 0.91249 0.36927
 N214 N 0.46744 0.94014 0.35505
 C215 C 0.46726 0.94039 0.32638
 N216 N 0.45124 0.91170 0.31253
 C217 C 0.42172 0.85433 0.37096
 C218 C 0.40996 0.83012 0.38503
 C219 C 0.39682 0.80225 0.40295
 N220 N 0.36936 0.79348 0.41786
 N221 N 0.35854 0.76922 0.43625
 C222 C 0.37485 0.75297 0.44041
 N223 N 0.40223 0.76166 0.42528
 N224 N 0.41305 0.78593 0.40689
 N225 N 0.08683 0.54183 0.37315
 C226 C 0.11538 0.55330 0.35936
 N227 N 0.11535 0.55130 0.33083
 N228 N 0.08754 0.53836 0.31655
 C229 C 0.05871 0.52695 0.33022
 N230 N 0.05907 0.52893 0.35887
 C231 C 0.14518 0.56802 0.37494
 C232 C 0.16958 0.58039 0.38891
 C233 C 0.19779 0.59492 0.40658
 N234 N 0.21361 0.62715 0.41151
 N235 N 0.23842 0.64032 0.42950
 C236 C 0.24817 0.62165 0.44321
 N237 N 0.23238 0.58941 0.43807
 N238 N 0.20760 0.57626 0.42009
 N239 N 0.54188 0.42638 0.32371
 C240 C 0.54274 0.42725 0.35230
 N241 N 0.53009 0.44322 0.36616
 N242 N 0.51720 0.45809 0.35192
 C243 C 0.51645 0.45767 0.32322
 N244 N 0.52894 0.44127 0.30945
 C245 C 0.55820 0.41294 0.36794
 C246 C 0.57146 0.40204 0.38220
 C247 C 0.58739 0.39030 0.40044
 N248 N 0.57429 0.35826 0.40542
 N249 N 0.58791 0.34771 0.42402
 C250 C 0.61503 0.36886 0.43831
 N251 N 0.62817 0.40090 0.43311
 N252 N 0.61457 0.41143 0.41450
 N253 N 0.55432 0.08628 0.36923
 C254 C 0.57069 0.11485 0.35557
 N255 N 0.57205 0.11507 0.32700
 N256 N 0.55725 0.08747 0.31255
 C257 C 0.54046 0.05864 0.32610
 N258 N 0.53954 0.05875 0.35479
 C259 C 0.58482 0.14440 0.37135
 C260 C 0.59552 0.16845 0.38560
 C261 C 0.60693 0.19609 0.40368
 N262 N 0.58545 0.20276 0.41648
 N263 N 0.59559 0.22706 0.43477
 C264 C 0.62758 0.24552 0.44092
 N265 N 0.64909 0.23892 0.42792
 N266 N 0.63892 0.21458 0.40962
 N267 N 0.88423 0.45474 0.33009
 C268 C 0.88404 0.45324 0.35865
 N269 N 0.91257 0.46560 0.37263
 N270 N 0.94044 0.47884 0.35851
 C271 C 0.94096 0.48026 0.32983
 N272 N 0.91216 0.46802 0.31596
 C273 C 0.85413 0.43764 0.37406
 C274 C 0.82967 0.42430 0.38790
 C275 C 0.80143 0.40836 0.40545
 N276 N 0.79505 0.38119 0.41963
 N277 N 0.77012 0.36744 0.43743
 C278 C 0.75073 0.38041 0.44167
 N279 N 0.75705 0.40752 0.42726
 N280 N 0.78201 0.42127 0.40946
 N281 N 0.55340 0.46567 1.12833
 C282 C 0.56844 0.45196 1.14211
 N283 N 0.56759 0.45093 1.17070
 N284 N 0.55198 0.46309 1.18503
 C285 C 0.53663 0.47668 1.17129
 N286 N 0.53781 0.47778 1.14264
 C287 C 0.58346 0.43723 1.12639
 C288 C 0.59502 0.42448 1.11228
 C289 C 0.60760 0.40899 1.09444
 N290 N 0.63994 0.42234 1.09017
 N291 N 0.65130 0.40885 1.07220
 C292 C 0.63068 0.38159 1.05789
 N293 N 0.59834 0.36821 1.06238
 N294 N 0.58700 0.38168 1.08034
 N295 N 0.91331 0.44526 1.13463
 C296 C 0.88449 0.43012 1.14825
 N297 N 0.88402 0.43103 1.17683
 N298 N 0.91162 0.44680 1.19132
 C299 C 0.94063 0.46228 1.17774
 N300 N 0.94084 0.46102 1.14909
 C301 C 0.85496 0.41518 1.13230
 C302 C 0.83096 0.40387 1.11781
 C303 C 0.80349 0.39184 1.09935
 N304 N 0.78495 0.35977 1.09423
 N305 N 0.76089 0.34902 1.07549
 C306 C 0.75467 0.37000 1.06121
 N307 N 0.77317 0.40205 1.06655
 N308 N 0.79717 0.41278 1.08528
 N309 N 0.54831 0.11667 1.17301
 C310 C 0.54699 0.11635 1.14443
 N311 N 0.53324 0.08770 1.13071
 N312 N 0.52136 0.06019 1.14507
 C313 C 0.52278 0.06026 1.17371
 N314 N 0.53638 0.08910 1.18739
 C315 C 0.56178 0.14585 1.12860
 C316 C 0.57473 0.16987 1.11430
 C317 C 0.59066 0.19746 1.09615
 N318 N 0.57683 0.21564 1.09007
 N319 N 0.59080 0.23993 1.07172
 C320 C 0.61902 0.24676 1.05880
 N321 N 0.63285 0.22860 1.06509
 N322 N 0.61891 0.20437 1.08343
 N323 N 0.44648 0.53427 1.12778
 C324 C 0.43012 0.54663 1.14153
 N325 N 0.42885 0.54550 1.17011
 N326 N 0.44367 0.53256 1.18448
 C327 C 0.46031 0.52030 1.17081
 N328 N 0.46129 0.52137 1.14215
 C329 C 0.41567 0.56193 1.12586
 C330 C 0.40448 0.57509 1.11184
 C331 C 0.39219 0.59093 1.09412
 N332 N 0.41298 0.61815 1.08003
 N333 N 0.40186 0.63190 1.06217
 C334 C 0.36953 0.61887 1.05778
 N335 N 0.34873 0.59169 1.07208
 N336 N 0.35987 0.57794 1.08994
 N337 N 0.11629 0.57205 1.17655
 C338 C 0.11589 0.57191 1.14795
 N339 N 0.08710 0.55616 1.13433
 N340 N 0.05955 0.54081 1.14882
 C341 C 0.05970 0.54061 1.17749
 N342 N 0.08867 0.55669 1.19107
 C343 C 0.14545 0.58657 1.13202
 C344 C 0.16946 0.59767 1.11756
 C345 C 0.19696 0.60953 1.09913
 N346 N 0.21571 0.64158 1.09408
 N347 N 0.23980 0.65220 1.07537
 C348 C 0.24585 0.63111 1.06105
 N349 N 0.22714 0.59906 1.06632
 N350 N 0.20310 0.58846 1.08502
 N351 N 0.46841 0.91384 1.13001
 C352 C 0.45563 0.88519 1.14366
 N353 N 0.45590 0.88489 1.17226
 N354 N 0.46844 0.91244 1.18674
 C355 C 0.48109 0.94128 1.17315
 N356 N 0.48090 0.94134 1.14447
 C357 C 0.44037 0.85567 1.12784
 C358 C 0.42707 0.83159 1.11363
 C359 C 0.41083 0.80387 1.09564
 N360 N 0.42431 0.78533 1.08974
 N361 N 0.41006 0.76088 1.07155
 C362 C 0.38192 0.75424 1.05863
 N363 N 0.36842 0.77276 1.06474
 N364 N 0.38264 0.79716 1.08292
 N365 N 0.53747 0.45138 0.63176
 C366 C 0.55008 0.43510 0.64513
 N367 N 0.55035 0.43466 0.67373
 N368 N 0.53848 0.45024 0.68849
 C369 C 0.52598 0.46681 0.67516
 N370 N 0.52565 0.46693 0.64649
 C371 C 0.56414 0.41981 0.62893
 C372 C 0.57611 0.40794 0.61422
 C373 C 0.59038 0.39484 0.59557
 N374 N 0.62280 0.41091 0.59095
 N375 N 0.63582 0.40006 0.57203
 C376 C 0.61682 0.37284 0.55702
 N377 N 0.58438 0.35672 0.56181
 N378 N 0.57137 0.36758 0.58073
 N379 N 0.54919 0.11601 0.67291
 C380 C 0.54838 0.11576 0.64431
 N381 N 0.53290 0.08712 0.63060
 N382 N 0.51890 0.05955 0.64500
 C383 C 0.51975 0.05953 0.67367
 N384 N 0.53514 0.08839 0.68732
 C385 C 0.56440 0.14524 0.62849
 C386 C 0.57768 0.16928 0.61424
 C387 C 0.59299 0.19704 0.59620
 N388 N 0.57811 0.21429 0.59041
 N389 N 0.59110 0.23856 0.57201
 C390 C 0.61938 0.24638 0.55873
 N391 N 0.63435 0.22920 0.56473
 N392 N 0.62135 0.20491 0.58314
 N393 N 0.91230 0.45825 0.62697
 C394 C 0.88378 0.44665 0.64090
 N395 N 0.88394 0.44825 0.66946
 N396 N 0.91181 0.46092 0.68364
 C397 C 0.94052 0.47248 0.66980
 N398 N 0.94012 0.47090 0.64115
 C399 C 0.85384 0.43211 0.62547
 C400 C 0.82921 0.41980 0.61177
 C401 C 0.80063 0.40522 0.59450
 N402 N 0.78389 0.37279 0.59068
 N403 N 0.75880 0.35947 0.57299
 C404 C 0.74963 0.37815 0.55851
 N405 N 0.76631 0.41059 0.56257
 N406 N 0.79139 0.42389 0.58026
 N407 N 0.45744 0.57407 0.67489
 C408 C 0.45986 0.57588 0.64636
 N409 N 0.47510 0.56218 0.63289
 N410 N 0.48732 0.54689 0.64743
 C411 C 0.48477 0.54467 0.67600
 N412 N 0.46973 0.55876 0.68945
 C413 C 0.44464 0.59004 0.63022
 C414 C 0.43146 0.60064 0.61552
 C415 C 0.41551 0.61187 0.59682
 N416 N 0.38778 0.59038 0.58365
 N417 N 0.37392 0.60035 0.56479
 C418 C 0.38738 0.63215 0.55842
 N419 N 0.41508 0.65367 0.57177
 N420 N 0.42895 0.64368 0.59064
 N421 N 0.45291 0.91277 0.63118
 C422 C 0.44115 0.88425 0.64486
 N423 N 0.44374 0.88418 0.67334
 N424 N 0.45751 0.91187 0.68769
 C425 C 0.46927 0.94067 0.67411
 N426 N 0.46665 0.94039 0.64552
 C427 C 0.42622 0.85467 0.62911
 C428 C 0.41417 0.83062 0.61480
 C429 C 0.40075 0.80303 0.59651
 N430 N 0.42071 0.79594 0.58161
 N431 N 0.40864 0.77181 0.56306
 C432 C 0.37618 0.75395 0.55871
 N433 N 0.35618 0.76095 0.57381
 N434 N 0.36828 0.78515 0.59237
 N435 N 0.11617 0.54203 0.67084
 C436 C 0.11650 0.54342 0.64227
 N437 N 0.08805 0.53140 0.62820
 N438 N 0.06012 0.51861 0.64224
 C439 C 0.05948 0.51735 0.67092
 N440 N 0.08820 0.52920 0.68488
 C441 C 0.14655 0.55893 0.62701
 C442 C 0.17118 0.57245 0.61339
 C443 C 0.19963 0.58894 0.59612
 N444 N 0.20664 0.61706 0.58336
 N445 N 0.23164 0.63141 0.56570
 C446 C 0.25053 0.61815 0.56018
 N447 N 0.24363 0.59010 0.57319
 N448 N 0.21858 0.57572 0.59086
 N449 N 0.44969 0.53829 0.87151
 C450 C 0.43456 0.55179 0.85755
 N451 N 0.43467 0.55183 0.82895
 N452 N 0.44964 0.53890 0.81477
 C453 C 0.46504 0.52546 0.82865
 N454 N 0.46465 0.52539 0.85733
 C455 C 0.41956 0.56670 0.87303
 C456 C 0.40758 0.57928 0.88682
 C457 C 0.39396 0.59409 0.90427
 N458 N 0.41007 0.62648 0.90838
 N459 N 0.39863 0.63994 0.92628
 C460 C 0.37071 0.62144 0.94070
 N461 N 0.35452 0.58904 0.93635
 N462 N 0.36596 0.57560 0.91846
 N463 N 0.08721 0.55417 0.86630
 C464 C 0.11621 0.56795 0.85297
 N465 N 0.11698 0.56627 0.82444
 N466 N 0.08949 0.55102 0.80973
 C467 C 0.06029 0.53689 0.82305
 N468 N 0.05981 0.53894 0.85162
 C469 C 0.14549 0.58268 0.86925
 C470 C 0.16918 0.59409 0.88411
 C471 C 0.19629 0.60671 0.90302
 N472 N 0.20470 0.63397 0.91795
 N473 N 0.22828 0.64440 0.93710
 C474 C 0.24415 0.62785 0.94205
 N475 N 0.23579 0.60065 0.92695
 N476 N 0.21220 0.59021 0.90780
 N477 N 0.43255 0.88479 0.82754
 C478 C 0.43551 0.88492 0.85599
 N479 N 0.45269 0.91345 0.86959
 N480 N 0.46670 0.94101 0.85520
 C481 C 0.46412 0.94122 0.82662
 N482 N 0.44659 0.91243 0.81314
 C483 C 0.42134 0.85534 0.87171
 C484 C 0.41007 0.83119 0.88585
 C485 C 0.39718 0.80332 0.90378
 N486 N 0.36503 0.78647 0.90953
 N487 N 0.35338 0.76207 0.92781
 C488 C 0.37349 0.75374 0.94102
 N489 N 0.40566 0.77053 0.93506
 N490 N 0.41730 0.79493 0.91676
 N491 N 0.56855 0.45156 0.82916
 C492 C 0.56692 0.44981 0.85771
 N493 N 0.55066 0.46214 0.87165
 N494 N 0.53629 0.47564 0.85750
 C495 C 0.53766 0.47737 0.82886
 N496 N 0.55416 0.46508 0.81501
 C497 C 0.58156 0.43451 0.87313
 C498 C 0.59331 0.42171 0.88689
 C499 C 0.60681 0.40678 0.90432
 N500 N 0.59053 0.37440 0.90849
 N501 N 0.60190 0.36087 0.92637
 C502 C 0.62990 0.37930 0.94072
 N503 N 0.64624 0.41168 0.93631
 N504 N 0.63488 0.42519 0.91843
 N505 N 0.88410 0.43159 0.82481
 C506 C 0.88478 0.43202 0.85342
 N507 N 0.91372 0.44725 0.86682
 N508 N 0.94116 0.46183 0.85213
 C509 C 0.94076 0.46174 0.82346
 N510 N 0.91163 0.44620 0.81008
 C511 C 0.85544 0.41767 0.86962
 C512 C 0.83170 0.40649 0.88442
 C513 C 0.80454 0.39401 0.90327
 N514 N 0.79592 0.36668 0.91813
 N515 N 0.77230 0.35633 0.93723
 C516 C 0.75659 0.37304 0.94221
 N517 N 0.76516 0.40033 0.92719
 N518 N 0.78881 0.41068 0.90808
 N519 N 0.55124 0.08750 0.86949
 C520 C 0.56509 0.11609 0.85568
 N521 N 0.56417 0.11621 0.82709
 N522 N 0.54960 0.08850 0.81279
 C523 C 0.53544 0.05970 0.82655
 N524 N 0.53669 0.05986 0.85521
 C525 C 0.57943 0.14568 0.87140
 C526 C 0.59079 0.16982 0.88558
 C527 C 0.60370 0.19765 0.90358
 N528 N 0.58359 0.20612 0.91650
 N529 N 0.59521 0.23047 0.93487
 C530 C 0.62735 0.24713 0.94097
 N531 N 0.64745 0.23872 0.92782
 N532 N 0.63582 0.21438 0.90946
   
