data_POSCAR
  _audit_creation_date              2014-09-24
  _audit_creation_method            'ToBaCCo'
  _symmetry_space_group_name_H-M    'P1'
  _symmetry_Int_Tables_number       1
  _symmetry_cell_setting            triclinic
  loop_
  _symmetry_equiv_pos_as_xyz
 x,y,z
_cell_length_a 56.1213
_cell_length_b 55.0827
_cell_length_c 56.1203
_cell_angle_alpha 90.394200
_cell_angle_beta 89.960500
_cell_angle_gamma 89.728600
loop_
  _atom_site_label
  _atom_site_type_symbol
  _atom_site_fract_x
  _atom_site_fract_y
  _atom_site_fract_z
N1 N 0.59871 0.65829 0.61405
 N2 N 0.58873 0.64847 0.63287
 C3 C 0.56975 0.66205 0.63945
 C4 C 0.56791 0.68121 0.62387
 C5 C 0.58645 0.67838 0.60800
 H6 H 0.55821 0.65839 0.65442
 H7 H 0.59072 0.69009 0.59322
 Cu8 Cu 0.60166 0.61905 0.64698
 Cu9 Cu 0.62684 0.64441 0.59886
 Cu10 Cu 0.65101 0.59262 0.62417
 N11 N 0.61584 0.59038 0.66134
 N12 N 0.63513 0.58011 0.65238
 C13 C 0.64118 0.56085 0.66579
 C14 C 0.62479 0.55911 0.68398
 C15 C 0.60897 0.57800 0.68077
 H16 H 0.65638 0.54910 0.66262
 H17 H 0.59374 0.58242 0.69182
 N18 N 0.66448 0.60804 0.59559
 N19 N 0.65523 0.62779 0.58600
 C20 C 0.66818 0.63385 0.56675
 C21 C 0.68633 0.61716 0.56421
 C22 C 0.68360 0.60102 0.58265
 H23 H 0.66468 0.64919 0.55533
 H24 H 0.69465 0.58534 0.58626
 H25 H 0.62136 0.60892 0.60940
 H26 H 0.64025 0.62819 0.62927
 N27 N 0.90487 0.33183 0.11186
 N28 N 0.91398 0.34256 0.13078
 C29 C 0.93346 0.33015 0.13781
 C30 C 0.93654 0.31076 0.12247
 C31 C 0.91823 0.31223 0.10619
 H32 H 0.94461 0.33485 0.15285
 H33 H 0.91493 0.30007 0.09135
 Cu34 Cu 0.89965 0.37180 0.14426
 Cu35 Cu 0.87648 0.34416 0.09593
 Cu36 Cu 0.85022 0.39586 0.12015
 N37 N 0.88449 0.40054 0.15791
 N38 N 0.86514 0.40985 0.14833
 C39 C 0.85836 0.42955 0.16098
 C40 C 0.87431 0.43264 0.17938
 C41 C 0.89068 0.41404 0.17703
 H42 H 0.84305 0.44083 0.15708
 H43 H 0.90592 0.41071 0.18836
 N44 N 0.83773 0.37914 0.09171
 N45 N 0.84767 0.35943 0.08244
 C46 C 0.83496 0.35239 0.06322
 C47 C 0.81630 0.36846 0.06046
 C48 C 0.81848 0.38514 0.07867
 H49 H 0.83892 0.33678 0.05209
 H50 H 0.80685 0.40047 0.08213
 H51 H 0.88066 0.37997 0.10604
 H52 H 0.86193 0.36065 0.12574
 N53 N 0.39819 0.16232 -0.11248
 N54 N 0.40502 0.15526 -0.13386
 C55 C 0.42380 0.16867 -0.14071
 C56 C 0.42884 0.18489 -0.12261
 C57 C 0.41235 0.18049 -0.10498
 H58 H 0.43301 0.16685 -0.15757
 H59 H 0.41070 0.18989 -0.08808
 Cu60 Cu 0.38857 0.12950 -0.15088
 Cu61 Cu 0.37124 0.14775 -0.09621
 Cu62 Cu 0.34616 0.09716 -0.12295
 N63 N 0.37721 0.09881 -0.16361
 N64 N 0.36062 0.08623 -0.15274
 C65 C 0.35615 0.06594 -0.16547
 C66 C 0.37076 0.06595 -0.18523
 C67 C 0.38390 0.08696 -0.18360
 H68 H 0.34329 0.05222 -0.16073
 H69 H 0.39732 0.09312 -0.19599
 N70 N 0.33418 0.11120 -0.09279
 N71 N 0.34383 0.13049 -0.08261
 C72 C 0.33181 0.13579 -0.06245
 C73 C 0.31386 0.11906 -0.05994
 C74 C 0.31574 0.10371 -0.07935
 H75 H 0.33570 0.15074 -0.05051
 H76 H 0.30447 0.08835 -0.08338
 H77 H 0.37706 0.11416 -0.11210
 H78 H 0.35340 0.13379 -0.12557
 N79 N 0.09922 0.82670 0.38467
 N80 N 0.09204 0.83526 0.36403
 C81 C 0.07233 0.82332 0.35707
 C82 C 0.06706 0.80644 0.37427
 C83 C 0.08434 0.80895 0.39155
 H84 H 0.06251 0.82677 0.34085
 H85 H 0.08588 0.79879 0.40791
 Cu86 Cu 0.10883 0.86131 0.34815
 Cu87 Cu 0.12714 0.83943 0.40107
 Cu88 Cu 0.15271 0.89074 0.37690
 N89 N 0.12063 0.89234 0.33709
 N90 N 0.13780 0.90378 0.34840
 C91 C 0.14260 0.92462 0.33701
 C92 C 0.12760 0.92621 0.31766
 C93 C 0.11386 0.90554 0.31811
 H94 H 0.15597 0.93763 0.34238
 H95 H 0.10003 0.90050 0.30563
 N96 N 0.16521 0.87477 0.40559
 N97 N 0.15552 0.85516 0.41485
 C98 C 0.16822 0.84850 0.43414
 C99 C 0.18662 0.86474 0.43697
 C100 C 0.18430 0.88111 0.41870
 H101 H 0.16450 0.83297 0.44519
 H102 H 0.19579 0.89637 0.41517
 H103 H 0.12165 0.87380 0.38767
 H104 H 0.14441 0.85437 0.37219
 N105 N 0.14729 0.14201 0.15222
 N106 N 0.39775 0.89518 0.60263
 N107 N 0.85085 0.64518 0.35195
 N108 N 0.60309 0.39424 -0.10311
 C109 C -0.04568 0.29393 0.12315
 C110 C -0.02972 0.27925 0.12404
 C111 C -0.01040 0.26205 0.12545
 C112 C -0.01404 0.23922 0.13560
 C113 C 0.00498 0.22291 0.13785
 C114 C 0.02793 0.22925 0.12998
 C115 C 0.03133 0.25213 0.11955
 C116 C 0.01229 0.26841 0.11733
 C117 C 0.04838 0.21237 0.13320
 C118 C 0.06589 0.20982 0.11537
 C119 C 0.08564 0.19470 0.11887
 C120 C 0.08816 0.18192 0.14019
 C121 C 0.07070 0.18408 0.15790
 C122 C 0.05093 0.19917 0.15444
 C123 C 0.10905 0.16728 0.14425
 C124 C 0.12676 0.15537 0.14787
 H125 H -0.03154 0.23411 0.14194
 H126 H 0.00174 0.20533 0.14570
 H127 H 0.04883 0.25769 0.11363
 H128 H 0.01534 0.28608 0.10956
 H129 H 0.06428 0.21950 0.09872
 H130 H 0.09905 0.19315 0.10504
 H131 H 0.07254 0.17436 0.17453
 H132 H 0.03795 0.20099 0.16863
 C133 C 0.55046 0.70036 0.62412
 C134 C 0.53602 0.71663 0.62401
 C135 C 0.51905 0.73629 0.62351
 C136 C 0.52632 0.75990 0.62915
 C137 C 0.51013 0.77920 0.62782
 C138 C 0.48641 0.77514 0.62078
 C139 C 0.47920 0.75128 0.61539
 C140 C 0.49544 0.73200 0.61674
 C141 C 0.46948 0.79580 0.61850
 C142 C 0.45361 0.79692 0.59913
 C143 C 0.43836 0.81685 0.59643
 C144 C 0.43872 0.83589 0.61306
 C145 C 0.45419 0.83480 0.63257
 C146 C 0.46947 0.81489 0.63530
 C147 C 0.42378 0.85688 0.60966
 C148 C 0.41155 0.87464 0.60651
 H149 H 0.54459 0.76344 0.63428
 H150 H 0.51632 0.79738 0.63175
 H151 H 0.46101 0.74753 0.61019
 H152 H 0.48962 0.71379 0.61235
 H153 H 0.45341 0.78268 0.58573
 H154 H 0.42653 0.81757 0.58119
 H155 H 0.45459 0.84944 0.64556
 H156 H 0.48125 0.81441 0.65056
 C157 C 1.04838 0.79083 0.37425
 C158 C 1.03168 0.77714 0.37397
 C159 C 1.01158 0.76103 0.37329
 C160 C 1.01480 0.73646 0.36761
 C161 C 0.99515 0.72101 0.36614
 C162 C 0.97198 0.72997 0.37033
 C163 C 0.96897 0.75466 0.37626
 C164 C 0.98864 0.77007 0.37771
 C165 C 0.95098 0.71381 0.36799
 C166 C 0.93181 0.71571 0.38409
 C167 C 0.91169 0.70110 0.38133
 C168 C 0.91045 0.68440 0.36247
 C169 C 0.92952 0.68217 0.34653
 C170 C 0.94967 0.69675 0.34926
 C171 C 0.88932 0.67010 0.35903
 C172 C 0.87148 0.65839 0.35585
 H173 H 1.03249 0.72927 0.36417
 H174 H 0.99807 0.70204 0.36182
 H175 H 0.95136 0.76219 0.37926
 H176 H 0.98593 0.78909 0.38200
 H177 H 0.93242 0.72845 0.39886
 H178 H 0.89702 0.70296 0.39378
 H179 H 0.92870 0.66938 0.33179
 H180 H 0.96398 0.69508 0.33639
 C181 C 0.44704 0.20312 -0.12231
 C182 C 0.46211 0.21864 -0.12176
 C183 C 0.47983 0.23742 -0.12075
 C184 C 0.49040 0.24353 -0.09897
 C185 C 0.50700 0.26233 -0.09773
 C186 C 0.51323 0.27532 -0.11831
 C187 C 0.50268 0.26887 -0.14019
 C188 C 0.48608 0.25004 -0.14138
 C189 C 0.53020 0.29588 -0.11679
 C190 C 0.52591 0.31739 -0.12952
 C191 C 0.54135 0.33712 -0.12734
 C192 C 0.56129 0.33562 -0.11246
 C193 C 0.56591 0.31421 -0.09997
 C194 C 0.55048 0.29446 -0.10212
 C195 C 0.57654 0.35633 -0.10941
 C196 C 0.58902 0.37389 -0.10659
 H197 H 0.48560 0.23396 -0.08287
 H198 H 0.51454 0.26708 -0.08058
 H199 H 0.50732 0.27832 -0.15638
 H200 H 0.47801 0.24544 -0.15834
 H201 H 0.51029 0.31918 -0.14070
 H202 H 0.53754 0.35366 -0.13699
 H203 H 0.58131 0.31286 -0.08841
 H204 H 0.55444 0.27805 -0.09233
 C205 C 0.12675 -0.05454 0.30054
 C206 C 0.12644 -0.03817 0.28640
 C207 C 0.12654 -0.01838 0.26980
 C208 C 0.12072 0.00510 0.27757
 C209 C 0.12185 0.02456 0.26177
 C210 C 0.12887 0.02080 0.23795
 C211 C 0.13439 -0.00293 0.23022
 C212 C 0.13323 -0.02238 0.24606
 C213 C 0.13111 0.04166 0.22148
 C214 C 0.15052 0.04306 0.20566
 C215 C 0.15322 0.06320 0.19089
 C216 C 0.13656 0.08217 0.19169
 C217 C 0.11702 0.08081 0.20711
 C218 C 0.11428 0.06069 0.22191
 C219 C 0.14002 0.10338 0.17729
 C220 C 0.14326 0.12130 0.16551
 H221 H 0.11564 0.00842 0.29595
 H222 H 0.11782 0.04264 0.26836
 H223 H 0.13957 -0.00645 0.21193
 H224 H 0.13777 -0.04049 0.23985
 H225 H 0.16394 0.02889 0.20514
 H226 H 0.16848 0.06413 0.17911
 H227 H 0.10402 0.09540 0.20786
 H228 H 0.09901 0.06001 0.23368
 C229 C 0.62436 0.54245 -0.29827
 C230 C 0.62367 0.52789 -0.28235
 C231 C 0.62244 0.51081 -0.26310
 C232 C 0.60038 0.50157 -0.25605
 C233 C 0.59896 0.48564 -0.23683
 C234 C 0.61963 0.47875 -0.22435
 C235 C 0.64177 0.48796 -0.23173
 C236 C 0.64315 0.50389 -0.25099
 C237 C 0.61795 0.46255 -0.20337
 C238 C 0.63156 0.46721 -0.18280
 C239 C 0.62920 0.45261 -0.16267
 C240 C 0.61327 0.43315 -0.16282
 C241 C 0.59991 0.42814 -0.18330
 C242 C 0.60223 0.44272 -0.20345
 C243 C 0.60998 0.41890 -0.14168
 C244 C 0.60691 0.40729 -0.12381
 H245 H 0.58422 0.50690 -0.26523
 H246 H 0.58161 0.47916 -0.23138
 H247 H 0.65803 0.48278 -0.22267
 H248 H 0.66033 0.51093 -0.25631
 H249 H 0.64358 0.48252 -0.18206
 H250 H 0.63954 0.45673 -0.14686
 H251 H 0.58752 0.41311 -0.18361
 H252 H 0.59174 0.43848 -0.21911
 C253 C 0.37203 1.04796 0.79617
 C254 C 0.37333 1.03308 0.78036
 C255 C 0.37516 1.01563 0.76124
 C256 C 0.35482 1.00869 0.74854
 C257 C 0.35675 0.99239 0.72941
 C258 C 0.37910 0.98281 0.72274
 C259 C 0.39939 0.98971 0.73581
 C260 C 0.39742 1.00601 0.75491
 C261 C 0.38135 0.96619 0.70190
 C262 C 0.39699 0.94615 0.70254
 C263 C 0.39975 0.93108 0.68257
 C264 C 0.38693 0.93581 0.66172
 C265 C 0.37113 0.95551 0.66099
 C266 C 0.36833 0.97060 0.68094
 C267 C 0.39053 0.92095 0.64083
 C268 C 0.39379 0.90882 0.62313
 H269 H 0.33749 1.01601 0.75331
 H270 H 0.34077 0.98721 0.71990
 H271 H 0.41688 0.98293 0.73092
 H272 H 0.41329 1.01135 0.76455
 H273 H 0.40704 0.94211 0.71850
 H274 H 0.41203 0.91586 0.68333
 H275 H 0.36120 0.95941 0.64490
 H276 H 0.35641 0.98606 0.67976
 C277 C 0.87400 0.45159 0.19708
 C278 C 0.87347 0.46769 0.21173
 C279 C 0.87252 0.48715 0.22896
 C280 C 0.87998 0.51043 0.22264
 C281 C 0.87833 0.52957 0.23905
 C282 C 0.86912 0.52566 0.26203
 C283 C 0.86187 0.50213 0.26829
 C284 C 0.86356 0.48301 0.25184
 C285 C 0.86659 0.54620 0.27916
 C286 C 0.84608 0.54843 0.29347
 C287 C 0.84328 0.56825 0.30893
 C288 C 0.86093 0.58605 0.31036
 C289 C 0.88153 0.58384 0.29644
 C290 C 0.88437 0.56405 0.28094
 C291 C 0.85756 0.60695 0.32553
 C292 C 0.85452 0.62466 0.33795
 H293 H 0.88683 0.51386 0.20493
 H294 H 0.88374 0.54753 0.23357
 H295 H 0.85498 0.49849 0.28593
 H296 H 0.85774 0.46504 0.25692
 H297 H 0.83194 0.53518 0.29228
 H298 H 0.82720 0.56984 0.31955
 H299 H 0.89532 0.59752 0.29742
 H300 H 0.90049 0.56268 0.27040
 C301 C 0.29672 0.11813 -0.04096
 C302 C 0.28259 0.11787 -0.02478
 C303 C 0.26603 0.11814 -0.00519
 C304 C 0.24169 0.12185 -0.00929
 C305 C 0.22581 0.12328 0.00989
 C306 C 0.23409 0.12102 0.03344
 C307 C 0.25855 0.11698 0.03733
 C308 C 0.27439 0.11557 0.01814
 C309 C 0.21747 0.12359 0.05392
 C310 C 0.21983 0.10862 0.07401
 C311 C 0.20485 0.11180 0.09372
 C312 C 0.18731 0.12995 0.09360
 C313 C 0.18459 0.14470 0.07358
 C314 C 0.19954 0.14154 0.05385
 C315 C 0.17268 0.13398 0.11434
 C316 C 0.16074 0.13762 0.13189
 H317 H 0.23503 0.12387 -0.02729
 H318 H 0.20705 0.12611 0.00631
 H319 H 0.26554 0.11553 0.05525
 H320 H 0.29322 0.11285 0.02153
 H321 H 0.23325 0.09445 0.07449
 H322 H 0.20710 0.10027 0.10912
 H323 H 0.17115 0.15888 0.07336
 H324 H 0.19748 0.15357 0.03881
 C325 C 0.70411 0.61671 0.54579
 C326 C 0.71869 0.61686 0.53001
 C327 C 0.73569 0.61765 0.51082
 C328 C 0.72964 0.60836 0.48837
 C329 C 0.74553 0.61039 0.46931
 C330 C 0.76770 0.62181 0.47244
 C331 C 0.77377 0.63075 0.49518
 C332 C 0.75785 0.62869 0.51423
 C333 C 0.78400 0.62514 0.45186
 C334 C 0.79618 0.64719 0.44885
 C335 C 0.81061 0.65080 0.42888
 C336 C 0.81309 0.63246 0.41168
 C337 C 0.80135 0.61033 0.41468
 C338 C 0.78690 0.60667 0.43463
 C339 C 0.82696 0.63670 0.39055
 C340 C 0.83822 0.64054 0.37266
 H341 H 0.71247 0.59993 0.48549
 H342 H 0.74019 0.60364 0.45196
 H343 H 0.79081 0.63937 0.49823
 H344 H 0.76270 0.63597 0.53154
 H345 H 0.79406 0.66189 0.46159
 H346 H 0.81952 0.66805 0.42667
 H347 H 0.80316 0.59600 0.40147
 H348 H 0.77800 0.58940 0.43659
 C349 C 0.79810 0.36809 0.04249
 C350 C 0.78250 0.36837 0.02773
 C351 C 0.76353 0.36938 0.01052
 C352 C 0.74862 0.34937 0.00704
 C353 C 0.72937 0.35092 -0.00871
 C354 C 0.72478 0.37255 -0.02115
 C355 C 0.74012 0.39241 -0.01780
 C356 C 0.75933 0.39082 -0.00205
 C357 C 0.70362 0.37474 -0.03690
 C358 C 0.70503 0.38740 -0.05856
 C359 C 0.68476 0.39055 -0.07271
 C360 C 0.66286 0.38109 -0.06544
 C361 C 0.66135 0.36813 -0.04413
 C362 C 0.68158 0.36495 -0.02996
 C363 C 0.64173 0.38545 -0.07931
 C364 C 0.62383 0.38943 -0.09054
 H365 H 0.75170 0.33269 0.01670
 H366 H 0.71806 0.33523 -0.01112
 H367 H 0.73688 0.40942 -0.02682
 H368 H 0.77067 0.40647 0.00063
 H369 H 0.72179 0.39489 -0.06453
 H370 H 0.68613 0.40060 -0.08918
 H371 H 0.64445 0.36084 -0.03828
 H372 H 0.67983 0.35542 -0.01324
 C373 C 0.20490 0.86458 0.45487
 C374 C 0.22057 0.86498 0.46954
 C375 C 0.23966 0.86603 0.48663
 C376 C 0.23601 0.87703 0.50890
 C377 C 0.25496 0.87933 0.52492
 C378 C 0.27782 0.87067 0.51884
 C379 C 0.28118 0.85929 0.49656
 C380 C 0.26223 0.85703 0.48057
 C381 C 0.29827 0.87422 0.53527
 C382 C 0.31564 0.85595 0.53801
 C383 C 0.33550 0.85982 0.55257
 C384 C 0.33824 0.88198 0.56458
 C385 C 0.32089 0.90013 0.56227
 C386 C 0.30102 0.89629 0.54773
 C387 C 0.35927 0.88644 0.57856
 C388 C 0.37710 0.89042 0.58991
 H389 H 0.21861 0.88409 0.51376
 H390 H 0.25174 0.88791 0.54205
 H391 H 0.29862 0.85276 0.49120
 H392 H 0.26528 0.84863 0.46331
 H393 H 0.31389 0.83866 0.52889
 H394 H 0.34883 0.84564 0.55424
 H395 H 0.32290 0.91740 0.57139
 H396 H 0.28815 0.91084 0.54574
   
