data_POSCAR
  _audit_creation_date              2014-09-24
  _audit_creation_method            'ToBaCCo'
  _symmetry_space_group_name_H-M    'P1'
  _symmetry_Int_Tables_number       1
  _symmetry_cell_setting            triclinic
  loop_
  _symmetry_equiv_pos_as_xyz
 x,y,z
_cell_length_a 24.4570
_cell_length_b 39.4151
_cell_length_c 31.7550
_cell_angle_alpha 90.051800
_cell_angle_beta 89.912600
_cell_angle_gamma 89.990800
loop_
  _atom_site_label
  _atom_site_type_symbol
  _atom_site_fract_x
  _atom_site_fract_y
  _atom_site_fract_z
B1 B -0.03568 -0.02841 0.01703
 B2 B 0.02915 -0.02404 0.03235
 B3 B 0.01490 -0.03568 -0.01692
 B4 B -0.04189 -0.01535 -0.03315
 B5 B -0.06246 0.00992 0.00777
 B6 B -0.01803 0.00400 0.04867
 B7 B 0.03927 0.03032 -0.01704
 B8 B -0.02559 0.02594 -0.03233
 B9 B -0.01132 0.03758 0.01695
 B10 B 0.04548 0.01724 0.03316
 B11 B 0.06604 -0.00803 -0.00775
 B12 B 0.02161 -0.00211 -0.04866
 B13 B 0.52500 0.48767 0.54309
 B14 B 0.45828 0.48588 0.53233
 B15 B 0.48860 0.52340 0.53980
 B16 B 0.55227 0.52194 0.51939
 B17 B 0.56065 0.48231 0.49839
 B18 B 0.50187 0.45993 0.50701
 B19 B 0.47698 0.51350 0.45681
 B20 B 0.54371 0.51531 0.46758
 B21 B 0.51341 0.47779 0.46013
 B22 B 0.44973 0.47925 0.48052
 B23 B 0.44133 0.51889 0.50153
 B24 B 0.50011 0.54128 0.49290
 B25 B 0.53920 0.03115 0.51167
 B26 B 0.47432 0.02703 0.52713
 B27 B 0.48873 0.03863 0.47781
 B28 B 0.54528 0.01807 0.46144
 B29 B 0.56557 -0.00726 0.50223
 B30 B 0.52122 -0.00121 0.54325
 B31 B 0.46364 -0.02727 0.47764
 B32 B 0.52852 -0.02311 0.46221
 B33 B 0.51419 -0.03473 0.51145
 B34 B 0.45759 -0.01419 0.52788
 B35 B 0.43726 0.01118 0.48708
 B36 B 0.48163 0.00508 0.44604
 B37 B -0.02567 0.51379 0.03934
 B38 B 0.04055 0.51667 0.02713
 B39 B 0.01214 0.47872 0.03563
 B40 B -0.05218 0.47889 0.01664
 B41 B -0.06301 0.51816 -0.00458
 B42 B -0.00502 0.54165 0.00247
 B43 B 0.02065 0.48798 -0.04763
 B44 B -0.04560 0.48518 -0.03536
 B45 B -0.01732 0.52308 -0.04397
 B46 B 0.04711 0.52297 -0.02496
 B47 B 0.05794 0.48368 -0.00364
 B48 B -0.00008 0.46020 -0.01075
 B49 B 0.04023 0.47058 0.48543
 B50 B -0.02479 0.47578 0.47099
 B51 B -0.00988 0.46352 0.51989
 B52 B 0.04782 0.48309 0.53576
 B53 B 0.06823 0.50854 0.49501
 B54 B 0.02281 0.50347 0.45457
 B55 B -0.03238 0.52979 0.52139
 B56 B 0.03262 0.52456 0.53581
 B57 B 0.01768 0.53682 0.48689
 B58 B -0.04000 0.51723 0.47106
 B59 B -0.06041 0.49182 0.51179
 B60 B -0.01500 0.49687 0.55225
 B61 B 0.47516 -0.01167 -0.03941
 B62 B 0.54214 -0.01388 -0.02991
 B63 B 0.51208 0.02384 -0.03620
 B64 B 0.44901 0.02249 -0.01467
 B65 B 0.44084 -0.01730 0.00583
 B66 B 0.49907 -0.03987 -0.00423
 B67 B 0.52611 0.01315 0.04638
 B68 B 0.45909 0.01533 0.03690
 B69 B 0.48919 -0.02240 0.04314
 B70 B 0.55225 -0.02102 0.02162
 B71 B 0.56044 0.01877 0.00110
 B72 B 0.50218 0.04136 0.01118
 B73 B 0.46605 0.52753 -0.01542
 B74 B 0.53132 0.52329 -0.02989
 B75 B 0.51571 0.53447 0.01929
 B76 B 0.45857 0.51399 0.03450
 B77 B 0.43910 0.48911 -0.00702
 B78 B 0.48456 0.49542 -0.04727
 B79 B 0.54021 0.46850 0.01876
 B80 B 0.47500 0.47272 0.03332
 B81 B 0.49047 0.46154 -0.01596
 B82 B 0.54768 0.48203 -0.03115
 B83 B 0.56714 0.50693 0.01040
 B84 B 0.52170 0.50063 0.05063
 B85 B 0.02480 0.01132 0.45776
 B86 B -0.04165 0.01326 0.46953
 B87 B -0.01168 -0.02430 0.46158
 B88 B 0.05244 -0.02301 0.48101
 B89 B 0.06147 0.01660 0.50193
 B90 B 0.00260 0.03910 0.49420
 B91 B -0.02150 -0.01445 0.54468
 B92 B 0.04500 -0.01641 0.53297
 B93 B 0.01502 0.02119 0.54089
 B94 B -0.04908 0.01987 0.52143
 B95 B -0.05811 -0.01973 0.50050
 B96 B 0.00074 -0.04225 0.50825
 B97 B 0.77450 0.27958 0.27074
 B98 B 0.70786 0.27089 0.27692
 B99 B 0.73192 0.27960 0.22867
 B100 B 0.79530 0.26353 0.22425
 B101 B 0.81034 0.24336 0.27025
 B102 B 0.75550 0.24788 0.30338
 B103 B 0.72169 0.21187 0.23481
 B104 B 0.78834 0.22123 0.22792
 B105 B 0.76443 0.21173 0.27621
 B106 B 0.70052 0.22834 0.28141
 B107 B 0.68575 0.24809 0.23511
 B108 B 0.74039 0.24350 0.20202
 B109 B 0.73210 0.78976 0.77035
 B110 B 0.71185 0.77977 0.72131
 B111 B 0.77820 0.78788 0.73108
 B112 B 0.79439 0.77211 0.77896
 B113 B 0.73655 0.75399 0.79885
 B114 B 0.68521 0.75905 0.76284
 B115 B 0.76485 0.71999 0.72640
 B116 B 0.78541 0.72991 0.77582
 B117 B 0.71885 0.72187 0.76610
 B118 B 0.70290 0.73747 0.71852
 B119 B 0.76055 0.75603 0.69847
 B120 B 0.81204 0.75085 0.73396
 B121 B 0.27264 0.22044 0.73132
 B122 B 0.20600 0.22893 0.72494
 B123 B 0.22966 0.22030 0.77327
 B124 B 0.29282 0.23653 0.77792
 B125 B 0.30818 0.25675 0.73200
 B126 B 0.25375 0.25210 0.69866
 B127 B 0.21891 0.28801 0.76705
 B128 B 0.28557 0.27883 0.77425
 B129 B 0.26214 0.28825 0.72586
 B130 B 0.19840 0.27146 0.72038
 B131 B 0.18328 0.25168 0.76665
 B132 B 0.23751 0.25645 0.79996
 B133 B 0.22841 0.77902 0.23178
 B134 B 0.29502 0.77034 0.22518
 B135 B 0.27145 0.77914 0.27356
 B136 B 0.20814 0.76305 0.27842
 B137 B 0.19262 0.74280 0.23254
 B138 B 0.24710 0.74729 0.19904
 B139 B 0.28169 0.71139 0.26736
 B140 B 0.21514 0.72073 0.27472
 B141 B 0.23848 0.71117 0.22624
 B142 B 0.30234 0.72778 0.22064
 B143 B 0.31759 0.74762 0.26685
 B144 B 0.26334 0.74309 0.30028
 B145 B 0.27723 0.72071 0.77775
 B146 B 0.30125 0.72923 0.72941
 B147 B 0.23481 0.72003 0.73561
 B148 B 0.21349 0.73630 0.78185
 B149 B 0.26788 0.75696 0.80390
 B150 B 0.32274 0.75256 0.77097
 B151 B 0.24337 0.78790 0.72922
 B152 B 0.21954 0.77862 0.77759
 B153 B 0.28597 0.78847 0.77074
 B154 B 0.30766 0.77182 0.72438
 B155 B 0.25318 0.75160 0.70258
 B156 B 0.19817 0.75593 0.73556
 B157 B 0.20577 0.21263 0.26680
 B158 B 0.27291 0.21996 0.27516
 B159 B 0.25009 0.21028 0.22657
 B160 B 0.18800 0.22892 0.21951
 B161 B 0.17313 0.25007 0.26493
 B162 B 0.22579 0.24436 0.29921
 B163 B 0.26612 0.27785 0.23082
 B164 B 0.19894 0.27135 0.22333
 B165 B 0.22196 0.28009 0.27177
 B166 B 0.28373 0.26177 0.27808
 B167 B 0.29849 0.24039 0.23270
 B168 B 0.24536 0.24647 0.19855
 B169 B 0.78397 0.71149 0.23125
 B170 B 0.71751 0.72107 0.22419
 B171 B 0.74099 0.71198 0.27264
 B172 B 0.80504 0.72829 0.27763
 B173 B 0.82037 0.74752 0.23103
 B174 B 0.76587 0.74285 0.19793
 B175 B 0.73179 0.77978 0.26596
 B176 B 0.79825 0.77082 0.27245
 B177 B 0.77460 0.77916 0.22401
 B178 B 0.71108 0.76333 0.21974
 B179 B 0.69552 0.74377 0.26606
 B180 B 0.75016 0.74836 0.29920
 B181 B 0.72633 0.21911 0.72469
 B182 B 0.70213 0.22786 0.77292
 B183 B 0.76883 0.21930 0.76673
 B184 B 0.78956 0.23537 0.72024
 B185 B 0.73450 0.25521 0.69800
 B186 B 0.67988 0.25051 0.73109
 B187 B 0.75833 0.28710 0.77221
 B188 B 0.78227 0.27765 0.72392
 B189 B 0.71557 0.28682 0.73080
 B190 B 0.69454 0.27039 0.77739
 B191 B 0.74964 0.25099 0.79936
 B192 B 0.80443 0.25559 0.76623
 C193 C 0.17347 0.35932 0.84514
 C194 C 0.13952 0.37951 0.82014
 C195 C 0.13035 0.37054 0.77811
 C196 C 0.15541 0.34162 0.76115
 C197 C 0.04403 0.47208 0.91193
 C198 C 0.19830 0.33043 0.82835
 C199 C 0.11211 0.40810 0.83905
 C200 C 0.08974 0.43062 0.85822
 C201 C 0.06447 0.45459 0.88500
 C202 C 0.19049 0.32142 0.78584
 H203 H 0.18026 0.36569 0.87792
 H204 H 0.10326 0.38556 0.75865
 H205 H 0.14629 0.33487 0.72896
 H206 H 0.22388 0.31528 0.84880
 C207 C 0.36792 0.62800 0.27928
 C208 C 0.35950 0.62006 0.32174
 C209 C 0.32669 0.64111 0.34662
 C210 C 0.30235 0.66990 0.32936
 C211 C 0.45325 0.52908 0.41640
 C212 C 0.34327 0.65684 0.26181
 C213 C 0.38649 0.59167 0.34130
 C214 C 0.40838 0.56949 0.36127
 C215 C 0.43310 0.54608 0.38897
 C216 C 0.30954 0.67800 0.28650
 H217 H 0.39407 0.61223 0.25988
 H218 H 0.32041 0.63550 0.37968
 H219 H 0.27759 0.68567 0.34977
 H220 H 0.35161 0.66278 0.22924
 C221 C 0.82992 0.85681 0.65241
 C222 C 0.86139 0.87792 0.67814
 C223 C 0.86755 0.87011 0.72084
 C224 C 0.84167 0.84147 0.73775
 C225 C 0.95544 0.96990 0.58530
 C226 C 0.80429 0.82825 0.66914
 C227 C 0.88879 0.90651 0.65937
 C228 C 0.91085 0.92894 0.63995
 C229 C 0.93552 0.95268 0.61264
 C230 C 0.80881 0.82046 0.71228
 H231 H 0.82542 0.86233 0.61917
 H232 H 0.89270 0.88591 0.74092
 H233 H 0.84813 0.83567 0.77059
 H234 H 0.78035 0.81252 0.64815
 C235 C 0.67870 0.14079 0.15577
 C236 C 0.64499 0.12010 0.18037
 C237 C 0.63503 0.12869 0.22245
 C238 C 0.65916 0.15773 0.23987
 C239 C 0.55107 0.02846 0.08654
 C240 C 0.70256 0.16977 0.17300
 C241 C 0.61843 0.09150 0.16086
 C242 C 0.59666 0.06913 0.14111
 C243 C 0.57175 0.04551 0.11372
 C244 C 0.69404 0.17842 0.21557
 H245 H 0.68605 0.13473 0.12295
 H246 H 0.60804 0.11328 0.24158
 H247 H 0.64951 0.16418 0.27208
 H248 H 0.72802 0.18527 0.15281
 C249 C 0.85630 0.13944 0.32128
 C250 C 0.81954 0.12061 0.34551
 C251 C 0.76477 0.13079 0.34809
 C252 C 0.74688 0.15958 0.32615
 C253 C 0.91802 0.03012 0.43887
 C254 C 0.83866 0.16815 0.29961
 C255 C 0.84002 0.09262 0.36998
 C256 C 0.86109 0.07070 0.39089
 C257 C 0.89000 0.04739 0.41621
 C258 C 0.78342 0.17833 0.30093
 H259 H 0.89904 0.13228 0.31972
 H260 H 0.73619 0.11689 0.36764
 H261 H 0.70482 0.16745 0.32981
 H262 H 0.86867 0.18237 0.28184
 C263 C 0.26344 0.36924 0.65404
 C264 C 0.31817 0.37941 0.65699
 C265 C 0.35453 0.36060 0.68150
 C266 C 0.33657 0.33191 0.70305
 C267 C 0.41828 0.46921 0.56346
 C268 C 0.24521 0.34046 0.67587
 C269 C 0.33914 0.40729 0.63254
 C270 C 0.36070 0.42905 0.61164
 C271 C 0.39009 0.45213 0.58627
 C272 C 0.28137 0.32170 0.70133
 H273 H 0.23517 0.38312 0.63426
 H274 H 0.39725 0.36776 0.68334
 H275 H 0.36636 0.31769 0.72098
 H276 H 0.20322 0.33257 0.67193
 C277 C 0.64111 0.86405 0.81198
 C278 C 0.67670 0.88138 0.83882
 C279 C 0.73057 0.86999 0.84343
 C280 C 0.74866 0.84133 0.82130
 C281 C 0.58061 0.96958 0.93765
 C282 C 0.65897 0.83542 0.79005
 C283 C 0.65576 0.90869 0.86436
 C284 C 0.63508 0.93003 0.88649
 C285 C 0.60731 0.95273 0.91349
 C286 C 0.71329 0.82384 0.79383
 H287 H 0.59897 0.87214 0.80883
 H288 H 0.75814 0.88269 0.86496
 H289 H 0.78979 0.83240 0.82686
 H290 H 0.62972 0.82213 0.77055
 C291 C 0.14541 0.63973 0.18037
 C292 C 0.18129 0.62168 0.15444
 C293 C 0.23609 0.63174 0.15161
 C294 C 0.25480 0.65978 0.17471
 C295 C 0.08068 0.53401 0.05764
 C296 C 0.16384 0.66769 0.20319
 C297 C 0.15983 0.59472 0.12860
 C298 C 0.13813 0.57361 0.10674
 C299 C 0.10878 0.55101 0.08062
 C300 C 0.21904 0.67791 0.20131
 H301 H 0.10266 0.63264 0.18224
 H302 H 0.26403 0.61843 0.13088
 H303 H 0.29681 0.66768 0.17074
 H304 H 0.13435 0.68147 0.22201
 C305 C 0.35639 0.85756 0.18983
 C306 C 0.39842 0.84831 0.16263
 C307 C 0.40871 0.81375 0.15502
 C308 C 0.37658 0.78868 0.17481
 C309 C 0.47677 0.95203 0.07852
 C310 C 0.32449 0.83295 0.20907
 C311 C 0.42703 0.87520 0.14104
 C312 C 0.44621 0.89951 0.12319
 C313 C 0.46422 0.92847 0.10079
 C314 C 0.33361 0.79797 0.20209
 H315 H 0.34743 0.88409 0.19568
 H316 H 0.44095 0.80623 0.13354
 H317 H 0.38502 0.76220 0.16847
 H318 H 0.29203 0.84195 0.22921
 C319 C 0.59457 0.31445 0.34739
 C320 C 0.60477 0.34899 0.33966
 C321 C 0.64647 0.35818 0.31216
 C322 C 0.67820 0.33352 0.29278
 C323 C 0.52657 0.45249 0.42456
 C324 C 0.62651 0.28933 0.32745
 C325 C 0.57643 0.37591 0.36147
 C326 C 0.55738 0.40019 0.37949
 C327 C 0.53935 0.42906 0.40211
 C328 C 0.66918 0.29856 0.29989
 H329 H 0.56259 0.30698 0.36911
 H330 H 0.65537 0.38469 0.30623
 H331 H 0.71053 0.34247 0.27251
 H332 H 0.61821 0.26286 0.33393
 C333 C 0.90830 0.67447 0.81438
 C334 C 0.88259 0.65327 0.84372
 C335 C 0.82894 0.66030 0.85628
 C336 C 0.79968 0.68657 0.83732
 C337 C 0.96640 0.54744 0.92027
 C338 C 0.87894 0.70088 0.79530
 C339 C 0.90991 0.62382 0.86063
 C340 C 0.93001 0.59887 0.87638
 C341 C 0.95080 0.57024 0.89795
 C342 C 0.82286 0.70555 0.80429
 H343 H 0.95029 0.66987 0.80512
 H344 H 0.80910 0.64484 0.88001
 H345 H 0.75822 0.69103 0.84769
 H346 H 0.89905 0.71582 0.77126
 C347 C 0.09434 0.18483 0.65371
 C348 C 0.10477 0.15034 0.66161
 C349 C 0.14595 0.14137 0.68958
 C350 C 0.17700 0.16618 0.70921
 C351 C 0.02869 0.04647 0.57632
 C352 C 0.12559 0.21012 0.67390
 C353 C 0.07726 0.12327 0.63955
 C354 C 0.05884 0.09888 0.62140
 C355 C 0.04134 0.06993 0.59874
 C356 C 0.16780 0.20109 0.70189
 H357 H 0.06276 0.19214 0.63163
 H358 H 0.15505 0.11489 0.69565
 H359 H 0.20915 0.15738 0.72968
 H360 H 0.11719 0.23653 0.66723
 C361 C 0.13260 0.34631 0.33058
 C362 C 0.16993 0.36067 0.35859
 C363 C 0.22542 0.35235 0.35576
 C364 C 0.24310 0.32850 0.32602
 C365 C 0.07504 0.44275 0.46511
 C366 C 0.14996 0.32247 0.30116
 C367 C 0.14970 0.38277 0.39096
 C368 C 0.12893 0.40104 0.41678
 C369 C 0.10103 0.42288 0.44447
 C370 C 0.20534 0.31270 0.29883
 H371 H 0.08955 0.35269 0.33243
 H372 H 0.25465 0.36344 0.37736
 H373 H 0.28579 0.32133 0.32585
 H374 H 0.11932 0.31077 0.28133
 C375 C 0.37101 0.65869 0.83947
 C376 C 0.33374 0.64126 0.86474
 C377 C 0.27760 0.64699 0.86005
 C378 C 0.25896 0.67097 0.83088
 C379 C 0.43060 0.55554 0.96538
 C380 C 0.35268 0.68260 0.81060
 C381 C 0.35449 0.61799 0.89557
 C382 C 0.37574 0.59876 0.91996
 C383 C 0.40418 0.57595 0.94600
 C384 C 0.29639 0.68941 0.80607
 H385 H 0.41456 0.65429 0.84270
 H386 H 0.24840 0.63348 0.87948
 H387 H 0.21551 0.67579 0.82888
 H388 H 0.38302 0.69623 0.79242
 C389 C 0.63459 0.15628 0.66279
 C390 C 0.67223 0.14029 0.63635
 C391 C 0.72818 0.14660 0.64100
 C392 C 0.74621 0.17002 0.67109
 C393 C 0.57536 0.05865 0.53103
 C394 C 0.65231 0.17968 0.69254
 C395 C 0.65196 0.11826 0.60402
 C396 C 0.63085 0.10007 0.57838
 C397 C 0.60222 0.07835 0.55112
 C398 C 0.70832 0.18737 0.69674
 H399 H 0.59119 0.15138 0.65957
 H400 H 0.75764 0.13416 0.62068
 H401 H 0.78947 0.17551 0.67288
 H402 H 0.62166 0.19251 0.71132
 C403 C 0.77478 0.85247 0.14125
 C404 C 0.83087 0.85856 0.13691
 C405 C 0.86809 0.84157 0.16260
 C406 C 0.84978 0.81770 0.19155
 C407 C 0.92846 0.94375 0.03609
 C408 C 0.75616 0.82853 0.17051
 C409 C 0.85164 0.88168 0.10594
 C410 C 0.87301 0.90079 0.08147
 C411 C 0.90173 0.92346 0.05542
 C412 C 0.79357 0.81052 0.19574
 H413 H 0.74563 0.86562 0.12147
 H414 H 0.91160 0.84625 0.15960
 H415 H 0.88010 0.80435 0.21000
 H416 H 0.71279 0.82337 0.17218
 C417 C 0.86446 0.14142 0.78963
 C418 C 0.85267 0.13524 0.83219
 C419 C 0.81281 0.15443 0.85262
 C420 C 0.78567 0.18015 0.83132
 C421 C 0.94882 0.05022 0.93535
 C422 C 0.83677 0.16727 0.76790
 C423 C 0.88206 0.11047 0.85655
 C424 C 0.90448 0.09089 0.88000
 C425 C 0.92882 0.06886 0.90954
 C426 C 0.79711 0.18714 0.78862
 H427 H 0.89560 0.12676 0.77354
 H428 H 0.80340 0.14999 0.88552
 H429 H 0.75598 0.19482 0.84889
 H430 H 0.84744 0.17221 0.73541
 C431 C 0.19331 0.65378 0.65047
 C432 C 0.15400 0.63431 0.67105
 C433 C 0.14171 0.64081 0.71346
 C434 C 0.16840 0.66724 0.73491
 C435 C 0.05917 0.54842 0.56819
 C436 C 0.21942 0.68008 0.67147
 C437 C 0.12541 0.60905 0.64688
 C438 C 0.10345 0.58917 0.62352
 C439 C 0.07935 0.56699 0.59401
 C440 C 0.20754 0.68737 0.71405
 H441 H 0.20302 0.64912 0.61765
 H442 H 0.11092 0.62596 0.72964
 H443 H 0.15732 0.67242 0.76727
 H444 H 0.24868 0.69494 0.65376
 C445 C 0.68828 0.84634 0.35005
 C446 C 0.64917 0.86553 0.32890
 C447 C 0.63765 0.85870 0.28650
 C448 C 0.66491 0.83222 0.26559
 C449 C 0.55383 0.95246 0.42995
 C450 C 0.71501 0.81999 0.32957
 C451 C 0.62009 0.89093 0.35244
 C452 C 0.59782 0.91102 0.37532
 C453 C 0.57366 0.93353 0.40438
 C454 C 0.70389 0.81240 0.28699
 H455 H 0.69739 0.85130 0.38288
 H456 H 0.60702 0.87334 0.26991
 H457 H 0.65439 0.82677 0.23322
 H458 H 0.74413 0.80536 0.34763
 C459 C 0.31720 0.34040 0.14445
 C460 C 0.35427 0.36075 0.16608
 C461 C 0.36301 0.35551 0.20925
 C462 C 0.33469 0.32962 0.23051
 C463 C 0.44902 0.44806 0.06504
 C464 C 0.28935 0.31472 0.16529
 C465 C 0.38326 0.38620 0.14249
 C466 C 0.40527 0.40635 0.11953
 C467 C 0.42917 0.42899 0.09045
 C468 C 0.29739 0.30884 0.20870
 H469 H 0.31007 0.34417 0.11109
 H470 H 0.39194 0.37112 0.22630
 H471 H 0.34259 0.32561 0.26363
 H472 H 0.26123 0.29955 0.14694
 C473 C 0.60853 0.69251 0.14156
 C474 C 0.61420 0.65730 0.14224
 C475 C 0.64932 0.64208 0.17134
 C476 C 0.68023 0.66205 0.19870
 C477 C 0.52986 0.56878 0.03900
 C478 C 0.63937 0.71256 0.16891
 C479 C 0.58663 0.63658 0.11175
 C480 C 0.56599 0.61753 0.08680
 C481 C 0.54494 0.59266 0.05949
 C482 C 0.67675 0.69768 0.19731
 H483 H 0.58135 0.70454 0.11916
 H484 H 0.65402 0.61475 0.17208
 H485 H 0.70832 0.64942 0.21974
 H486 H 0.63484 0.73979 0.16662
 C487 C 0.11038 0.80664 0.86073
 C488 C 0.11576 0.84188 0.86023
 C489 C 0.15068 0.85728 0.83104
 C490 C 0.18166 0.83748 0.80342
 C491 C 0.02970 0.92991 0.96375
 C492 C 0.14130 0.78676 0.83313
 C493 C 0.08795 0.86245 0.89089
 C494 C 0.06697 0.88135 0.91595
 C495 C 0.04534 0.90608 0.94332
 C496 C 0.17847 0.80183 0.80462
 H497 H 0.08336 0.79446 0.88316
 H498 H 0.15515 0.88463 0.83040
 H499 H 0.20958 0.85026 0.78232
 H500 H 0.13701 0.75951 0.83530
 C501 C 0.39445 0.16417 0.31588
 C502 C 0.38069 0.16027 0.35845
 C503 C 0.33274 0.17470 0.37401
 C504 C 0.29848 0.19291 0.34744
 C505 C 0.47443 0.07295 0.45817
 C506 C 0.36007 0.18265 0.28905
 C507 C 0.41294 0.13961 0.38617
 C508 C 0.43606 0.12088 0.41017
 C509 C 0.45871 0.09651 0.43743
 C510 C 0.31098 0.19681 0.30435
 H511 H 0.43146 0.15286 0.30343
 H512 H 0.32163 0.17179 0.40687
 H513 H 0.26273 0.20439 0.36136
 H514 H 0.37184 0.18574 0.25639
 C515 C 0.84924 0.35651 0.66948
 C516 C 0.88519 0.34120 0.64092
 C517 C 0.89148 0.30601 0.64094
 C518 C 0.86064 0.28608 0.66851
 C519 C 0.97441 0.42911 0.53884
 C520 C 0.81836 0.33666 0.69708
 C521 C 0.91360 0.36180 0.61061
 C522 C 0.93529 0.38068 0.58591
 C523 C 0.95790 0.40535 0.55894
 C524 C 0.82265 0.30104 0.69650
 H525 H 0.84409 0.38381 0.66976
 H526 H 0.91932 0.29389 0.61902
 H527 H 0.86579 0.25886 0.66681
 H528 H 0.78986 0.34936 0.71782
 C529 C 0.82582 0.63986 0.15274
 C530 C 0.86046 0.61962 0.17703
 C531 C 0.87124 0.62856 0.21885
 C532 C 0.84702 0.65758 0.23632
 C533 C 0.95162 0.52914 0.08026
 C534 C 0.80193 0.66881 0.16997
 C535 C 0.88709 0.59122 0.15720
 C536 C 0.90846 0.56911 0.13675
 C537 C 0.93231 0.54590 0.10831
 C538 C 0.81130 0.67785 0.21229
 H539 H 0.81785 0.63353 0.12011
 H540 H 0.89898 0.61347 0.23770
 H541 H 0.85732 0.66439 0.26828
 H542 H 0.77589 0.68401 0.14993
 C543 C 0.67275 0.35802 0.65203
 C544 C 0.63922 0.37877 0.67674
 C545 C 0.62908 0.37009 0.71874
 C546 C 0.65294 0.34093 0.73601
 C547 C 0.54856 0.47185 0.58341
 C548 C 0.69636 0.32891 0.66910
 C549 C 0.61328 0.40767 0.65747
 C550 C 0.59220 0.43035 0.63787
 C551 C 0.56828 0.45439 0.61059
 C552 C 0.68777 0.32023 0.71163
 H553 H 0.68025 0.36415 0.61927
 H554 H 0.60223 0.38556 0.73796
 H555 H 0.64323 0.33444 0.76818
 H556 H 0.72180 0.31341 0.64886
 C557 C 0.13836 0.14968 0.34613
 C558 C 0.12491 0.12211 0.32046
 C559 C 0.13351 0.12416 0.27697
 C560 C 0.15734 0.15331 0.25956
 C561 C 0.04669 0.02701 0.41678
 C562 C 0.16219 0.17862 0.32889
 C563 C 0.10259 0.09217 0.33993
 C564 C 0.08457 0.06889 0.36025
 C565 C 0.06402 0.04451 0.38868
 C566 C 0.17429 0.18035 0.28560
 H567 H 0.13073 0.14873 0.37974
 H568 H 0.12221 0.10325 0.25662
 H569 H 0.16318 0.15437 0.22582
 H570 H 0.17111 0.19953 0.34981
 C571 C 0.32632 0.86027 0.84955
 C572 C 0.35989 0.88114 0.82510
 C573 C 0.37058 0.87249 0.78313
 C574 C 0.34731 0.84318 0.76568
 C575 C 0.45051 0.97307 0.92028
 C576 C 0.30336 0.83103 0.83232
 C577 C 0.38559 0.90995 0.84479
 C578 C 0.40654 0.93243 0.86490
 C579 C 0.43049 0.95605 0.89277
 C580 C 0.31263 0.82228 0.78986
 H581 H 0.31841 0.86637 0.88228
 H582 H 0.39749 0.88806 0.76413
 H583 H 0.35745 0.83668 0.73357
 H584 H 0.27801 0.81541 0.85244
 C585 C 0.24103 0.86831 0.65631
 C586 C 0.18581 0.87764 0.65818
 C587 C 0.14946 0.85846 0.68234
 C588 C 0.16790 0.83024 0.70460
 C589 C 0.08536 0.96678 0.56371
 C590 C 0.25973 0.84000 0.67885
 C591 C 0.16459 0.90519 0.63324
 C592 C 0.14298 0.92674 0.61203
 C593 C 0.11359 0.94970 0.58648
 C594 C 0.22354 0.82088 0.70394
 H595 H 0.26938 0.88249 0.63689
 H596 H 0.10643 0.86499 0.68343
 H597 H 0.13817 0.81575 0.72232
 H598 H 0.30216 0.83277 0.67575
 C599 C 0.73912 0.63093 0.34437
 C600 C 0.68390 0.62164 0.34265
 C601 C 0.64735 0.64113 0.31914
 C602 C 0.66562 0.66961 0.29732
 C603 C 0.58369 0.53199 0.43642
 C604 C 0.75766 0.65951 0.32226
 C605 C 0.66283 0.59382 0.36719
 C606 C 0.64124 0.57211 0.38815
 C607 C 0.61186 0.54905 0.41357
 C608 C 0.72128 0.67893 0.29777
 H609 H 0.76760 0.61650 0.36333
 H610 H 0.60431 0.63461 0.31821
 H611 H 0.63578 0.68426 0.27998
 H612 H 0.80012 0.66667 0.32516
 C613 C 0.29348 0.14749 0.13727
 C614 C 0.30768 0.11832 0.15972
 C615 C 0.29925 0.11725 0.20328
 C616 C 0.27852 0.14570 0.22442
 C617 C 0.41994 0.03158 0.06916
 C618 C 0.27305 0.17593 0.15828
 C619 C 0.33492 0.09097 0.13799
 C620 C 0.35984 0.06998 0.11800
 C621 C 0.39129 0.04791 0.09256
 C622 C 0.26660 0.17588 0.20241
 H623 H 0.29979 0.14867 0.10351
 H624 H 0.30997 0.09478 0.22107
 H625 H 0.27294 0.14411 0.25812
 H626 H 0.26387 0.19822 0.13974
 C627 C 0.75875 0.36801 0.84419
 C628 C 0.81358 0.37804 0.84165
 C629 C 0.85028 0.35917 0.81742
 C630 C 0.83256 0.33053 0.79569
 C631 C 0.91403 0.46788 0.93450
 C632 C 0.74075 0.33927 0.82217
 C633 C 0.83431 0.40588 0.86620
 C634 C 0.85590 0.42761 0.88706
 C635 C 0.88554 0.45068 0.91215
 C636 C 0.77727 0.32047 0.79694
 H637 H 0.73024 0.38196 0.86378
 H638 H 0.89306 0.36624 0.81591
 H639 H 0.86257 0.31626 0.77795
 H640 H 0.69866 0.33146 0.82578
 C641 C 0.64091 0.14098 0.80972
 C642 C 0.60055 0.15054 0.83827
 C643 C 0.59087 0.18517 0.84578
 C644 C 0.62208 0.21000 0.82476
 C645 C 0.52451 0.04904 0.92798
 C646 C 0.67198 0.16540 0.78923
 C647 C 0.57317 0.12403 0.86149
 C648 C 0.55461 0.10026 0.88079
 C649 C 0.53694 0.07203 0.90475
 C650 C 0.66355 0.20042 0.79628
 H651 H 0.64945 0.11439 0.80397
 H652 H 0.55997 0.19294 0.86827
 H653 H 0.61434 0.23653 0.83130
 H654 H 0.70370 0.15625 0.76849
 C655 C 0.36347 0.64220 0.69400
 C656 C 0.40272 0.65149 0.66449
 C657 C 0.41171 0.68605 0.65604
 C658 C 0.38078 0.71108 0.67708
 C659 C 0.47580 0.54858 0.57558
 C660 C 0.33265 0.66677 0.71443
 C661 C 0.42931 0.62466 0.64124
 C662 C 0.44704 0.60051 0.62216
 C663 C 0.46380 0.57184 0.59857
 C664 C 0.34029 0.70173 0.70647
 H665 H 0.35538 0.61566 0.70045
 H666 H 0.44173 0.69360 0.63276
 H667 H 0.38781 0.73754 0.66975
 H668 H 0.30143 0.65769 0.73562
 C669 C 0.09019 0.31676 0.15114
 C670 C 0.10301 0.35108 0.15788
 C671 C 0.14547 0.35961 0.18496
 C672 C 0.17522 0.33444 0.20507
 C673 C 0.02690 0.45410 0.07138
 C674 C 0.12016 0.29116 0.17171
 C675 C 0.07607 0.37827 0.13577
 C676 C 0.05776 0.40250 0.11735
 C677 C 0.04003 0.43107 0.09422
 C678 C 0.16343 0.29968 0.19897
 H679 H 0.05754 0.30981 0.12981
 H680 H 0.15625 0.38596 0.19020
 H681 H 0.20785 0.34279 0.22541
 H682 H 0.10969 0.26486 0.16610
 C683 C 0.86006 0.85785 0.30792
 C684 C 0.89966 0.84850 0.33705
 C685 C 0.90882 0.81394 0.34531
 C686 C 0.87777 0.78896 0.32445
 C687 C 0.97466 0.95071 0.42586
 C688 C 0.82912 0.83331 0.28763
 C689 C 0.92659 0.87522 0.36011
 C690 C 0.94474 0.89921 0.37916
 C691 C 0.96209 0.92765 0.40281
 C692 C 0.83698 0.79835 0.29542
 H693 H 0.85190 0.88440 0.30162
 H694 H 0.93913 0.80636 0.36828
 H695 H 0.88501 0.76249 0.33159
 H696 H 0.79782 0.84236 0.26656
 C697 C 0.78262 0.66125 0.62832
 C698 C 0.82396 0.63928 0.64131
 C699 C 0.84133 0.63967 0.68318
 C700 C 0.81987 0.66339 0.71138
 C701 C 0.93269 0.55771 0.54146
 C702 C 0.76102 0.68492 0.65653
 C703 C 0.85084 0.61758 0.61143
 C704 C 0.87531 0.59948 0.58741
 C705 C 0.90571 0.57763 0.56128
 C706 C 0.78101 0.68745 0.69823
 H707 H 0.76837 0.66092 0.59603
 H708 H 0.87258 0.62218 0.69383
 H709 H 0.83405 0.66244 0.74317
 H710 H 0.73047 0.70235 0.64474
 C711 C 0.73169 0.35219 0.14502
 C712 C 0.67558 0.35837 0.14101
 C713 C 0.63857 0.34210 0.16763
 C714 C 0.65701 0.31864 0.19699
 C715 C 0.57604 0.44075 0.03800
 C716 C 0.75046 0.32870 0.17475
 C717 C 0.65444 0.38064 0.10928
 C718 C 0.63254 0.39901 0.08424
 C719 C 0.60318 0.42091 0.05766
 C720 C 0.71318 0.31118 0.20071
 H721 H 0.76068 0.36483 0.12453
 H722 H 0.59506 0.34685 0.16490
 H723 H 0.62675 0.30566 0.21595
 H724 H 0.79380 0.32334 0.17610
 C725 C 0.27188 0.85338 0.35527
 C726 C 0.32798 0.85967 0.35904
 C727 C 0.36503 0.84255 0.33323
 C728 C 0.34659 0.81833 0.30477
 C729 C 0.42738 0.94504 0.45865
 C730 C 0.25311 0.82910 0.32647
 C731 C 0.34906 0.88302 0.38966
 C732 C 0.37089 0.90220 0.41382
 C733 C 0.40020 0.92484 0.43953
 C734 C 0.29039 0.81092 0.30117
 H735 H 0.24286 0.86663 0.37516
 H736 H 0.40853 0.84736 0.33579
 H737 H 0.37684 0.80488 0.28629
 H738 H 0.20977 0.82378 0.32523
 C739 C 0.23001 0.14717 0.85624
 C740 C 0.17393 0.14100 0.86062
 C741 C 0.13670 0.15750 0.83446
 C742 C 0.15492 0.18115 0.80519
 C743 C 0.07531 0.05800 0.96368
 C744 C 0.24855 0.17086 0.82662
 C745 C 0.15307 0.11849 0.89227
 C746 C 0.13144 0.09995 0.91731
 C747 C 0.10234 0.07790 0.94395
 C748 C 0.21106 0.18861 0.80117
 H749 H 0.25918 0.13435 0.87634
 H750 H 0.09322 0.15273 0.83744
 H751 H 0.12453 0.19424 0.78653
 H752 H 0.29189 0.17615 0.82493
 C753 C 0.18475 0.84416 0.14608
 C754 C 0.14636 0.86415 0.16697
 C755 C 0.13495 0.85813 0.20963
 C756 C 0.16174 0.83174 0.23105
 C757 C 0.05441 0.95153 0.06465
 C758 C 0.21101 0.81794 0.16707
 C759 C 0.11826 0.88973 0.14301
 C760 C 0.09691 0.90993 0.11978
 C761 C 0.07370 0.93255 0.09039
 C762 C 0.20014 0.81121 0.20993
 H763 H 0.19385 0.84849 0.11309
 H764 H 0.10492 0.87341 0.22607
 H765 H 0.15151 0.82702 0.26367
 H766 H 0.23985 0.80286 0.14921
 C767 C 0.81744 0.34485 0.35669
 C768 C 0.85572 0.36496 0.33591
 C769 C 0.86719 0.35901 0.29322
 C770 C 0.84063 0.33256 0.27168
 C771 C 0.94878 0.45183 0.43859
 C772 C 0.79142 0.31856 0.33559
 C773 C 0.88379 0.39051 0.36002
 C774 C 0.90529 0.41064 0.38333
 C775 C 0.92891 0.43309 0.41280
 C776 C 0.80244 0.31186 0.29272
 H777 H 0.80828 0.34911 0.38969
 H778 H 0.89712 0.37439 0.27685
 H779 H 0.85085 0.32792 0.23903
 H780 H 0.76266 0.30338 0.35337
 C781 C 0.31664 0.15592 0.64477
 C782 C 0.35620 0.13644 0.66495
 C783 C 0.36800 0.14239 0.70757
 C784 C 0.34053 0.16827 0.72961
 C785 C 0.44928 0.05137 0.55980
 C786 C 0.28975 0.18163 0.66633
 C787 C 0.38502 0.11156 0.64022
 C788 C 0.40670 0.09196 0.61628
 C789 C 0.43004 0.06997 0.58608
 C790 C 0.30111 0.18838 0.70912
 H791 H 0.30718 0.15165 0.61185
 H792 H 0.39890 0.12749 0.72348
 H793 H 0.35107 0.17300 0.76216
 H794 H 0.26019 0.19642 0.64890
 C795 C 0.67840 0.63023 0.80298
 C796 C 0.63762 0.63740 0.83262
 C797 C 0.61929 0.67066 0.83775
 C798 C 0.64316 0.69690 0.81482
 C799 C 0.55754 0.54815 0.93880
 C800 C 0.70223 0.65654 0.77970
 C801 C 0.61658 0.61139 0.85992
 C802 C 0.59856 0.59078 0.88425
 C803 C 0.57685 0.56760 0.91363
 C804 C 0.68613 0.69045 0.78615
 H805 H 0.69295 0.60449 0.79876
 H806 H 0.58769 0.67652 0.86059
 H807 H 0.62916 0.72244 0.82114
 H808 H 0.73476 0.65019 0.75835
 C809 C 0.35214 0.35724 0.83000
 C810 C 0.38803 0.34164 0.85827
 C811 C 0.39457 0.30649 0.85747
 C812 C 0.36394 0.28685 0.82952
 C813 C 0.47568 0.42744 0.96387
 C814 C 0.32144 0.33766 0.80199
 C815 C 0.41602 0.36179 0.88923
 C816 C 0.43740 0.38013 0.91469
 C817 C 0.45963 0.40413 0.94275
 C818 C 0.32585 0.30204 0.80192
 H819 H 0.34685 0.38453 0.83031
 H820 H 0.42239 0.29415 0.87912
 H821 H 0.36932 0.25963 0.83068
 H822 H 0.29302 0.35052 0.78141
 C823 C 0.85482 0.14281 0.17211
 C824 C 0.88987 0.15839 0.14315
 C825 C 0.89633 0.19355 0.14373
 C826 C 0.86625 0.21322 0.17209
 C827 C 0.97390 0.07189 0.03660
 C828 C 0.82468 0.16241 0.20052
 C829 C 0.91683 0.13818 0.11166
 C830 C 0.93726 0.11968 0.08586
 C831 C 0.95844 0.09542 0.05763
 C832 C 0.82881 0.19804 0.20030
 H833 H 0.84959 0.11551 0.17197
 H834 H 0.92352 0.20587 0.12153
 H835 H 0.87135 0.24045 0.17068
 H836 H 0.79663 0.14955 0.22144
 C837 C 0.60845 0.80808 0.63433
 C838 C 0.61559 0.84319 0.63386
 C839 C 0.65093 0.85851 0.66278
 C840 C 0.68010 0.83872 0.69145
 C841 C 0.52898 0.93085 0.53058
 C842 C 0.63757 0.78822 0.66295
 C843 C 0.58815 0.86369 0.60306
 C844 C 0.56702 0.88248 0.57805
 C845 C 0.54496 0.90708 0.55084
 C846 C 0.67459 0.80317 0.69161
 H847 H 0.58108 0.79598 0.61212
 H848 H 0.65669 0.88577 0.66270
 H849 H 0.70788 0.85138 0.71274
 H850 H 0.63160 0.76105 0.66173
 C851 C 0.15023 0.64223 0.33121
 C852 C 0.11571 0.65776 0.36065
 C853 C 0.10902 0.69291 0.36017
 C854 C 0.13835 0.71263 0.33143
 C855 C 0.03296 0.57114 0.46754
 C856 C 0.17961 0.66187 0.30243
 C857 C 0.08941 0.63750 0.39239
 C858 C 0.06940 0.61897 0.41830
 C859 C 0.04846 0.59468 0.44658
 C860 C 0.17525 0.69750 0.30273
 H861 H 0.15561 0.61495 0.33125
 H862 H 0.08223 0.70519 0.38271
 H863 H 0.13315 0.73985 0.33293
 H864 H 0.20727 0.64906 0.28112
   
