data_POSCAR
  _audit_creation_date              2014-09-24
  _audit_creation_method            'ToBaCCo'
  _symmetry_space_group_name_H-M    'P1'
  _symmetry_Int_Tables_number       1
  _symmetry_cell_setting            triclinic
  loop_
  _symmetry_equiv_pos_as_xyz
 x,y,z
_cell_length_a 45.8796
_cell_length_b 45.4177
_cell_length_c 21.3077
_cell_angle_alpha 89.482000
_cell_angle_beta 89.674900
_cell_angle_gamma 120.254900
loop_
  _atom_site_label
  _atom_site_type_symbol
  _atom_site_fract_x
  _atom_site_fract_y
  _atom_site_fract_z
C1 C 0.14310 0.43970 0.48831
 C2 C 0.16105 0.44572 0.43147
 C3 C 0.19465 0.45305 0.43331
 C4 C 0.20959 0.45178 0.49022
 C5 C 0.19109 0.44672 0.54682
 C6 C 0.15840 0.44226 0.54657
 C7 C 0.24385 0.45482 0.49016
 C8 C 0.26339 0.46398 0.54516
 C9 C 0.29300 0.46235 0.54795
 C10 C 0.30500 0.45430 0.49416
 C11 C 0.28783 0.44786 0.43727
 C12 C 0.25684 0.44715 0.43597
 H13 H 0.11755 0.43512 0.48721
 H14 H 0.20889 0.45920 0.38987
 H15 H 0.20158 0.44569 0.59144
 H16 H 0.25546 0.47150 0.58689
 H17 H 0.32852 0.45416 0.49644
 H18 H 0.24282 0.43963 0.39285
 C19 C 0.56026 -0.30238 0.50501
 C20 C 0.55019 -0.29194 0.45130
 C21 C 0.54846 -0.26209 0.45384
 C22 C 0.55903 -0.24130 0.50724
 C23 C 0.56653 -0.25377 0.56244
 C24 C 0.56641 -0.28494 0.56208
 C25 C 0.56290 -0.20652 0.50323
 C26 C 0.55875 -0.19071 0.55647
 C27 C 0.56192 -0.15827 0.55149
 C28 C 0.56905 -0.14180 0.49261
 C29 C 0.57230 -0.15737 0.43893
 C30 C 0.57018 -0.18908 0.44472
 H31 H 0.56097 -0.32583 0.50337
 H32 H 0.53965 -0.25456 0.41317
 H33 H 0.57352 -0.23895 0.60487
 H34 H 0.55201 -0.20394 0.60132
 H35 H 0.57045 -0.11736 0.48772
 H36 H 0.57435 -0.19989 0.40295
 C37 C 1.29340 0.85999 0.52064
 C38 C 1.28132 0.84846 0.46011
 C39 C 1.24953 0.81869 0.45396
 C40 C 1.23150 0.79875 0.50713
 C41 C 1.24689 0.80923 0.56665
 C42 C 1.27666 0.84047 0.57375
 C43 C 1.19671 0.76780 0.50141
 C44 C 1.17551 0.75488 0.55493
 C45 C 1.14360 0.72543 0.55281
 C46 C 1.13097 0.71076 0.49433
 C47 C 1.15085 0.72308 0.43939
 C48 C 1.18402 0.75099 0.44360
 H49 H 1.31713 0.88347 0.52694
 H50 H 1.23912 0.81142 0.40762
 H51 H 1.23590 0.79381 0.60841
 H52 H 1.18334 0.76775 0.59918
 H53 H 1.10608 0.68835 0.49197
 H54 H 1.19957 0.75912 0.40168
 C55 C 0.85977 0.56534 0.50617
 C56 C 0.84456 0.56058 0.44763
 C57 C 0.81269 0.55733 0.44374
 C58 C 0.79657 0.56138 0.49672
 C59 C 0.81217 0.56539 0.55602
 C60 C 0.84334 0.56646 0.56108
 C61 C 0.76380 0.56119 0.48887
 C62 C 0.74156 0.55416 0.54020
 C63 C 0.71093 0.55401 0.53316
 C64 C 0.70221 0.56010 0.47330
 C65 C 0.72306 0.56589 0.42122
 C66 C 0.75403 0.56737 0.42930
 H67 H 0.88387 0.56646 0.50921
 H68 H 0.80072 0.55162 0.39855
 H69 H 0.80085 0.56826 0.59836
 H70 H 0.74748 0.54792 0.58559
 H71 H 0.67833 0.55905 0.46619
 H72 H 0.77025 0.57387 0.38848
 C73 C 0.42601 0.28604 0.51278
 C74 C 0.43360 0.27759 0.45424
 C75 C 0.43981 0.25042 0.45017
 C76 C 0.43864 0.23165 0.50399
 C77 C 0.43255 0.24189 0.56307
 C78 C 0.42709 0.26964 0.56812
 C79 C 0.44432 0.20194 0.49877
 C80 C 0.45654 0.19216 0.55067
 C81 C 0.45751 0.16178 0.55072
 C82 C 0.44910 0.14261 0.49560
 C83 C 0.44012 0.15341 0.44096
 C84 C 0.43695 0.18262 0.44311
 H85 H 0.42168 0.30733 0.51556
 H86 H 0.44674 0.24479 0.40518
 H87 H 0.43121 0.22796 0.60542
 H88 H 0.46446 0.20770 0.59214
 H89 H 0.45094 0.11976 0.49422
 H90 H 0.42791 0.18943 0.40186
 C91 C 0.69695 0.14769 0.51648
 C92 C 0.70875 0.16717 0.46128
 C93 C 0.74023 0.19708 0.46046
 C94 C 0.76137 0.20658 0.51321
 C95 C 0.74863 0.18648 0.56906
 C96 C 0.71614 0.15745 0.57116
 C97 C 0.79663 0.23675 0.50914
 C98 C 0.81335 0.25393 0.56393
 C99 C 0.84707 0.28069 0.56197
 C100 C 0.86358 0.29161 0.50339
 C101 C 0.84687 0.27692 0.44736
 C102 C 0.81390 0.24877 0.45074
 H103 H 0.67207 0.12512 0.51715
 H104 H 0.74821 0.21229 0.41782
 H105 H 0.76390 0.19243 0.61058
 H106 H 0.80012 0.24661 0.60854
 H107 H 0.88912 0.31306 0.50099
 H108 H 0.80221 0.23635 0.40747
 O109 O 0.95683 0.49374 -0.12162
 O110 O 1.04419 0.53756 0.11396
 O111 O 0.93938 0.49198 0.06915
 O112 O 1.06043 0.56068 -0.07548
 O113 O 0.98747 0.52942 0.10672
 O114 O 1.01108 0.54607 -0.11059
 O115 O 1.05811 0.56741 0.03235
 O116 O 0.94033 0.50437 -0.03823
 C117 C 0.94272 0.50740 -0.09576
 C118 C 1.05633 0.56617 0.09000
 C119 C 0.95674 0.51818 0.10149
 C120 C 1.04116 0.56806 -0.10509
 O121 O 1.04066 0.51032 -0.13050
 O122 O 0.96348 0.46376 0.12043
 O123 O 0.93903 0.44283 -0.06709
 O124 O 1.06590 0.51011 0.05491
 O125 O 1.01940 0.47185 0.09843
 O126 O 0.98673 0.45766 -0.11276
 O127 O 1.05972 0.49848 -0.05200
 O128 O 0.94514 0.43472 0.03951
 Co129 Co 0.99912 0.50192 -0.10727
 Co130 Co 1.00342 0.50073 0.09800
 Co131 Co 0.94638 0.47146 0.00027
 Co132 Co 1.05571 0.53123 -0.00965
 O133 O 1.00117 0.50136 -0.00463
 C134 C 1.05571 0.49649 -0.10909
 C135 C 0.94931 0.43533 0.09658
 C136 C 0.95687 0.43568 -0.10198
 C137 C 1.04984 0.48329 0.08776
 O138 O 0.45910 0.43702 -0.08432
 O139 O 0.47000 0.49289 0.11869
 O140 O 0.50012 0.43460 0.05292
 O141 O 0.45231 0.52536 -0.06256
 O142 O 0.51059 0.47360 0.12273
 O143 O 0.44065 0.47539 -0.07359
 O144 O 0.44082 0.49156 0.03941
 O145 O 0.50223 0.43257 -0.06471
 C146 C 0.47339 0.42023 -0.08685
 C147 C 0.44189 0.48406 0.09531
 C148 C 0.49924 0.44281 0.10836
 C149 C 0.43352 0.49754 -0.08658
 O150 O 0.50127 0.52763 -0.12354
 O151 O 0.55775 0.53447 0.07136
 O152 O 0.55752 0.49079 -0.06729
 O153 O 0.47451 0.55616 0.04543
 O154 O 0.51875 0.55402 0.07116
 O155 O 0.51930 0.48568 -0.13507
 O156 O 0.51471 0.55988 -0.04112
 O157 O 0.56004 0.48963 0.05130
 Co158 Co 0.48147 0.48256 -0.09687
 Co159 Co 0.51302 0.51214 0.08784
 Co160 Co 0.52706 0.46499 -0.00658
 Co161 Co 0.47906 0.52475 0.00086
 O162 O 0.50005 0.49392 -0.00616
 C163 C 0.51723 0.55688 -0.09907
 C164 C 0.57358 0.51912 0.07284
 C165 C 0.54920 0.49317 -0.12222
 C166 C 0.49913 0.56510 0.08420
 O167 O 0.53053 0.02578 -0.11185
 O168 O 0.53887 -0.02116 0.08770
 O169 O 0.55587 0.08294 0.05474
 O170 O 0.49764 -0.06713 -0.04941
 O171 O 0.55587 0.03736 0.08357
 O172 O 0.49126 -0.03542 -0.12042
 O173 O 0.49559 -0.06969 0.06921
 O174 O 0.56194 0.04679 -0.02926
 C175 C 0.55943 0.04082 -0.08702
 C176 C 0.52477 -0.05257 0.09029
 C177 C 0.56563 0.06820 0.09489
 C178 C 0.49987 -0.05702 -0.10515
 O179 O 0.44098 -0.02595 -0.07367
 O180 O 0.49432 0.02284 0.12884
 O181 O 0.52556 0.07226 -0.05418
 O182 O 0.43970 -0.06722 0.06655
 O183 O 0.47750 -0.03705 0.13654
 O184 O 0.47701 0.03185 -0.06572
 O185 O 0.43889 -0.07271 -0.05091
 O186 O 0.49196 0.04950 0.04731
 Co187 Co 0.48605 -0.00111 -0.08560
 Co188 Co 0.51511 0.00002 0.10099
 Co189 Co 0.52605 0.04581 0.01104
 Co190 Co 0.47079 -0.06314 0.00897
 O191 O 0.49746 -0.00673 0.00639
 C192 C 0.42562 -0.05731 -0.07490
 C193 C 0.48454 0.04122 0.10347
 C194 C 0.49806 0.06159 -0.07976
 C195 C 0.44717 -0.05709 0.12164
 C196 C 1.11542 0.44740 0.26620
 N197 N 1.14911 0.45918 0.26718
 N198 N 1.16383 0.45778 0.32008
 C199 C 1.14558 0.44532 0.37429
 N200 N 1.11184 0.43328 0.37254
 N201 N 1.09708 0.43417 0.31968
 C202 C 1.09911 0.45216 0.21122
 N203 N 1.11720 0.47680 0.16747
 N204 N 1.10154 0.48535 0.12465
 C205 C 1.06730 0.46935 0.12395
 N206 N 1.04936 0.44389 0.16621
 N207 N 1.06495 0.43552 0.20907
 C208 C 0.52774 0.65136 0.29032
 N209 N 0.54198 0.64477 0.33993
 N210 N 0.54883 0.66291 0.39187
 C211 C 0.54219 0.68876 0.39624
 N212 N 0.52800 0.69544 0.34614
 N213 N 0.52068 0.67692 0.29423
 C214 C 0.52103 0.63110 0.23379
 N215 N 0.49643 0.62640 0.19295
 N216 N 0.48942 0.60570 0.14418
 C217 C 0.50707 0.58944 0.13464
 N218 N 0.53196 0.59477 0.17484
 N219 N 0.53867 0.61501 0.22368
 C220 C 0.34620 -0.10578 0.30987
 N221 N 0.31500 -0.13313 0.30077
 N222 N 0.29331 -0.14724 0.34875
 C223 C 0.30203 -0.13454 0.40762
 N224 N 0.33296 -0.10656 0.41574
 N225 N 0.35457 -0.09250 0.36802
 C226 C 0.37172 -0.09221 0.25960
 N227 N 0.40384 -0.06774 0.27253
 N228 N 0.42787 -0.05658 0.22849
 C229 C 0.42065 -0.06955 0.16989
 N230 N 0.38846 -0.09384 0.15667
 N231 N 0.36441 -0.10511 0.20087
 C232 C 0.89304 0.55359 0.28605
 N233 N 0.85910 0.54011 0.28733
 N234 N 0.84375 0.54266 0.33846
 C235 C 0.86168 0.55838 0.39045
 N236 N 0.89567 0.57198 0.38889
 N237 N 0.91106 0.56963 0.33765
 C238 C 0.90970 0.54821 0.23227
 N239 N 0.94379 0.56311 0.23033
 N240 N 0.95890 0.55498 0.18593
 C241 C 0.94048 0.53164 0.14192
 N242 N 0.90641 0.51733 0.14290
 N243 N 0.89129 0.52559 0.18720
 C244 C 0.45270 0.34339 0.30084
 N245 N 0.44595 0.35101 0.35844
 N246 N 0.43883 0.32950 0.40646
 C247 C 0.43826 0.29956 0.39897
 N248 N 0.44457 0.29173 0.34093
 N249 N 0.45160 0.31324 0.29267
 C250 C 0.46324 0.36852 0.24982
 N251 N 0.46817 0.36082 0.19077
 N252 N 0.47939 0.38447 0.14536
 C253 C 0.48634 0.41664 0.15767
 N254 N 0.48130 0.42427 0.21663
 N255 N 0.46990 0.40059 0.26189
 C256 C 0.65158 0.13005 0.29874
 N257 N 0.67129 0.16421 0.30656
 N258 N 0.68969 0.17633 0.35823
 C259 C 0.68859 0.15468 0.40395
 N260 N 0.66878 0.12065 0.39585
 N261 N 0.65074 0.10859 0.34420
 C262 C 0.63119 0.11563 0.24280
 N263 N 0.61828 0.08205 0.23153
 N264 N 0.59808 0.06752 0.18328
 C265 C 0.58975 0.08590 0.14467
 N266 N 0.60285 0.11969 0.15528
 N267 N 0.62340 0.13439 0.20360
 C268 C 0.47729 0.12527 -0.28716
 N269 N 0.48411 0.15797 -0.29052
 N270 N 0.47807 0.17000 -0.34315
 C271 C 0.46559 0.15000 -0.39459
 N272 N 0.45953 0.11752 -0.39102
 N273 N 0.46498 0.10533 -0.33825
 C274 C 0.48155 0.11066 -0.22916
 N275 N 0.45936 0.07758 -0.21491
 N276 N 0.46404 0.06272 -0.16515
 C277 C 0.49134 0.08020 -0.12830
 N278 N 0.51349 0.11351 -0.14198
 N279 N 0.50849 0.12862 -0.19143
 C280 C 0.64473 0.53182 -0.31841
 N281 N 0.67478 0.53348 -0.30941
 N282 N 0.69634 0.54084 -0.35718
 C283 C 0.68870 0.54685 -0.41575
 N284 N 0.65864 0.54539 -0.42413
 N285 N 0.63708 0.53797 -0.37655
 C286 C 0.62038 0.52267 -0.26688
 N287 N 0.58928 0.51811 -0.27805
 N288 N 0.56662 0.50888 -0.23179
 C289 C 0.57432 0.50398 -0.17270
 N290 N 0.60549 0.50875 -0.16139
 N291 N 0.62813 0.51788 -0.20773
 C292 C 0.89546 0.33234 -0.27825
 N293 N 0.86220 0.30836 -0.27602
 N294 N 0.84673 0.29095 -0.32719
 C295 C 0.86372 0.29730 -0.38283
 N296 N 0.89713 0.32103 -0.38435
 N297 N 0.91267 0.33812 -0.33316
 C298 C 0.91186 0.35475 -0.22513
 N299 N 0.94566 0.37653 -0.22699
 N300 N 0.96027 0.40095 -0.18472
 C301 C 0.94162 0.40462 -0.13915
 N302 N 0.90791 0.38222 -0.13606
 N303 N 0.89328 0.35760 -0.17826
 C304 C 0.54123 -0.11315 -0.29675
 N305 N 0.54183 -0.14251 -0.28799
 N306 N 0.54888 -0.15676 -0.33579
 C307 C 0.55565 -0.14211 -0.39398
 N308 N 0.55533 -0.11258 -0.40211
 N309 N 0.54823 -0.09842 -0.35458
 C310 C 0.53175 -0.09804 -0.24586
 N311 N 0.52727 -0.07123 -0.25826
 N312 N 0.51737 -0.05801 -0.21319
 C313 C 0.51173 -0.07105 -0.15398
 N314 N 0.51647 -0.09770 -0.14131
 N315 N 0.52623 -0.11105 -0.18655
 C316 C 0.34463 0.47579 -0.28395
 N317 N 0.33151 0.49597 -0.29800
 N318 N 0.31462 0.49158 -0.35117
 C319 C 0.31086 0.46727 -0.39245
 N320 N 0.32402 0.44723 -0.37819
 N321 N 0.34044 0.45130 -0.32487
 C322 C 0.36446 0.48075 -0.22733
 N323 N 0.37054 0.45581 -0.20837
 N324 N 0.39137 0.46091 -0.16131
 C325 C 0.40712 0.49123 -0.13162
 N326 N 0.40069 0.51614 -0.14972
 N327 N 0.37954 0.51092 -0.19669
 C328 C 1.09499 0.67318 -0.28503
 N329 N 1.12654 0.70068 -0.28281
 N330 N 1.14152 0.71865 -0.33479
 C331 C 1.12587 0.70948 -0.39127
 N332 N 1.09396 0.68233 -0.39282
 N333 N 1.07879 0.66467 -0.34075
 C334 C 1.08027 0.65010 -0.23078
 N335 N 1.04692 0.62654 -0.22990
 N336 N 1.03424 0.60173 -0.18677
 C337 C 1.05444 0.59929 -0.14325
 N338 N 1.08771 0.62333 -0.14306
 N339 N 1.10037 0.64843 -0.18595
 C340 C 0.88686 0.55791 -0.27192
 N341 N 0.85322 0.54670 -0.27367
 N342 N 0.83940 0.55113 -0.32543
 C343 C 0.85870 0.56685 -0.37736
 N344 N 0.89239 0.57885 -0.37449
 N345 N 0.90613 0.57451 -0.32304
 C346 C 0.90216 0.54862 -0.22015
 N347 N 0.93360 0.55347 -0.22868
 N348 N 0.94676 0.54163 -0.18704
 C349 C 0.92935 0.52485 -0.13442
 N350 N 0.89809 0.52055 -0.12468
 N351 N 0.88466 0.53213 -0.16700
 C352 C 0.43058 0.31638 -0.26461
 N353 N 0.44028 0.29263 -0.26709
 N354 N 0.43738 0.27596 -0.32017
 C355 C 0.42542 0.28297 -0.37321
 N356 N 0.41510 0.30621 -0.36973
 N357 N 0.41740 0.32235 -0.31662
 C358 C 0.43780 0.33860 -0.21006
 N359 N 0.42191 0.35682 -0.20392
 N360 N 0.43199 0.38135 -0.16161
 C361 C 0.45860 0.38891 -0.12407
 N362 N 0.47411 0.37022 -0.12916
 N363 N 0.46379 0.34539 -0.17122
 C364 C 0.66381 0.10156 -0.26776
 N365 N 0.68915 0.13450 -0.26267
 N366 N 0.70738 0.15196 -0.31310
 C367 C 0.70084 0.13714 -0.37046
 N368 N 0.67623 0.10395 -0.37473
 N369 N 0.65815 0.08657 -0.32459
 C370 C 0.63955 0.08351 -0.21599
 N371 N 0.61075 0.05388 -0.22807
 N372 N 0.58608 0.03941 -0.18534
 C373 C 0.58930 0.05370 -0.12833
 N374 N 0.61849 0.08290 -0.11529
 N375 N 0.64315 0.09762 -0.15845
 C376 C 1.11116 0.45001 -0.29368
 N377 N 1.09513 0.44133 -0.34947
 N378 N 1.10998 0.43757 -0.40000
 C379 C 1.14164 0.44229 -0.39744
 N380 N 1.15739 0.45001 -0.34086
 N381 N 1.14249 0.45390 -0.28999
 C382 C 1.09559 0.45848 -0.24135
 N383 N 1.11028 0.46817 -0.18411
 N384 N 1.09703 0.47896 -0.14009
 C385 C 1.06882 0.48067 -0.15218
 N386 N 1.05410 0.47057 -0.20894
 N387 N 1.06708 0.45957 -0.25241
 C388 C 0.56761 0.66235 -0.28005
 N389 N 0.56514 0.69084 -0.27385
 N390 N 0.56673 0.70935 -0.32438
 C391 C 0.57032 0.69973 -0.38301
 N392 N 0.57404 0.67201 -0.38811
 N393 N 0.57278 0.65382 -0.33802
 C394 C 0.55996 0.63780 -0.22805
 N395 N 0.55762 0.60747 -0.24088
 N396 N 0.54567 0.58243 -0.19827
 C397 C 0.53586 0.58674 -0.14066
 N398 N 0.53907 0.61743 -0.12678
 N399 N 0.55081 0.64252 -0.16985
 C400 C 0.32448 -0.12124 -0.25484
 N401 N 0.32286 -0.10041 -0.29891
 N402 N 0.30672 -0.11291 -0.35242
 C403 C 0.29131 -0.14680 -0.36392
 N404 N 0.29215 -0.16788 -0.31918
 N405 N 0.30866 -0.15528 -0.26573
 C406 C 0.34639 -0.10624 -0.20033
 N407 N 0.36058 -0.07235 -0.18974
 N408 N 0.38439 -0.05721 -0.14675
 C409 C 0.39502 -0.07535 -0.11270
 N410 N 0.38025 -0.10945 -0.12210
 N411 N 0.35629 -0.12465 -0.16504
 C412 C 0.56840 -0.11355 0.26794
 N413 N 0.58654 -0.09362 0.31633
 N414 N 0.58923 -0.10751 0.36969
 C415 C 0.57420 -0.14189 0.37658
 N416 N 0.55691 -0.16180 0.32743
 N417 N 0.55391 -0.14791 0.27422
 C418 C 0.56079 -0.09827 0.21392
 N419 N 0.53421 -0.11777 0.17638
 N420 N 0.52379 -0.10332 0.13415
 C421 C 0.53975 -0.06886 0.12757
 N422 N 0.56692 -0.04947 0.16381
 N423 N 0.57718 -0.06388 0.20628
 C424 C 0.33909 0.44331 0.27711
 N425 N 0.31441 0.45137 0.27146
 N426 N 0.29682 0.45120 0.32179
 C427 C 0.30339 0.44318 0.37969
 N428 N 0.32752 0.43437 0.38471
 N429 N 0.34494 0.43440 0.33458
 C430 C 0.36236 0.44840 0.22466
 N431 N 0.38945 0.44466 0.23537
 N432 N 0.41367 0.45408 0.19215
 C433 C 0.41172 0.46734 0.13608
 N434 N 0.38414 0.47018 0.12435
 N435 N 0.35989 0.46091 0.16793
 C436 C 1.10995 0.66797 0.27365
 N437 N 1.14327 0.69207 0.27564
 N438 N 1.15637 0.71038 0.32743
 C439 C 1.13669 0.70515 0.37919
 N440 N 1.10336 0.68153 0.37620
 N441 N 1.09033 0.66333 0.32480
 C442 C 1.09526 0.64439 0.22068
 N443 N 1.06421 0.61644 0.22826
 N444 N 1.05142 0.59261 0.18461
 C445 C 1.06882 0.59591 0.13088
 N446 N 1.09968 0.62423 0.12221
 N447 N 1.11273 0.64807 0.16649
 C448 C 0.43826 0.10036 0.27949
 N449 N 0.44712 0.13377 0.27507
 N450 N 0.44575 0.15036 0.32551
 C451 C 0.43560 0.13418 0.38228
 N452 N 0.42584 0.10058 0.38589
 N453 N 0.42709 0.08404 0.33568
 C454 C 0.44501 0.08299 0.22794
 N455 N 0.44147 0.05187 0.23904
 N456 N 0.45223 0.03776 0.19728
 C457 C 0.46664 0.05394 0.14221
 N458 N 0.46935 0.08468 0.13001
 N459 N 0.45878 0.09899 0.17219
 C460 C 0.67709 0.56078 0.24954
 N461 N 0.69528 0.54493 0.25748
 N462 N 0.71183 0.54836 0.31073
 C463 C 0.71054 0.56748 0.35821
 N464 N 0.69284 0.58376 0.34969
 N465 N 0.67666 0.58066 0.29629
 C466 C 0.65458 0.55320 0.19555
 N467 N 0.63886 0.57138 0.18614
 N468 N 0.61452 0.56161 0.14391
 C469 C 0.60476 0.53317 0.10956
 N470 N 0.62100 0.51535 0.11788
 N471 N 0.64555 0.52527 0.15993
 C472 C 0.89315 0.33048 0.27993
 N473 N 0.85975 0.30656 0.28103
 N474 N 0.84520 0.28820 0.33316
 C475 C 0.86346 0.29308 0.38620
 N476 N 0.89697 0.31637 0.38413
 N477 N 0.91145 0.33464 0.33228
 C478 C 0.90891 0.35475 0.22681
 N479 N 0.93984 0.38260 0.23453
 N480 N 0.95312 0.40723 0.19109
 C481 C 0.93632 0.40493 0.13752
 N482 N 0.90564 0.37668 0.12868
 N483 N 0.89211 0.35204 0.17271
   
