data_POSCAR
  _audit_creation_date              2014-09-24
  _audit_creation_method            'ToBaCCo'
  _symmetry_space_group_name_H-M    'P1'
  _symmetry_Int_Tables_number       1
  _symmetry_cell_setting            triclinic
  loop_
  _symmetry_equiv_pos_as_xyz
 x,y,z
_cell_length_a 51.2128
_cell_length_b 54.1053
_cell_length_c 30.6391
_cell_angle_alpha 89.958800
_cell_angle_beta 89.817300
_cell_angle_gamma 90.046100
loop_
  _atom_site_label
  _atom_site_type_symbol
  _atom_site_fract_x
  _atom_site_fract_y
  _atom_site_fract_z
C1 C 0.18917 0.26098 0.16129
 C2 C 0.18941 0.23566 0.16178
 C3 C 0.20747 0.22854 0.19314
 N4 N 0.21791 0.24882 0.21208
 C5 C 0.20694 0.26864 0.19246
 C6 C 0.21156 0.20394 0.20775
 C7 C 0.23055 0.19772 0.23972
 C8 C 0.23194 0.17525 0.26162
 C9 C 0.25408 0.17580 0.28663
 C10 C 0.26630 0.19824 0.27857
 N11 N 0.25172 0.21157 0.25019
 C12 C 0.29087 0.20540 0.29600
 C13 C 0.29915 0.23044 0.29628
 C14 C 0.32452 0.23838 0.30386
 C15 C 0.32399 0.26368 0.30353
 C16 C 0.29845 0.27042 0.29499
 N17 N 0.28324 0.25011 0.29053
 C18 C 0.28935 0.29501 0.29366
 C19 C 0.26502 0.30163 0.27555
 C20 C 0.25329 0.32457 0.28003
 C21 C 0.23122 0.32421 0.25461
 C22 C 0.22995 0.30097 0.23559
 N23 N 0.25073 0.28739 0.24835
 C24 C 0.21086 0.29348 0.20508
 H25 H 0.17666 0.27238 0.14125
 H26 H 0.17683 0.22400 0.14237
 H27 H 0.25650 0.27053 0.23533
 H28 H 0.21877 0.15970 0.25962
 H29 H 0.26057 0.16111 0.30796
 H30 H 0.34174 0.22715 0.30879
 H31 H 0.34058 0.27575 0.30851
 H32 H 0.21786 0.33949 0.25029
 H33 H 0.25757 0.22783 0.23491
 H34 H 0.26013 0.34011 0.29907
 C35 C 0.69720 0.26306 0.34916
 C36 C 0.69750 0.23771 0.35046
 C37 C 0.71039 0.22996 0.31305
 N38 N 0.71799 0.24965 0.28906
 C39 C 0.70986 0.26988 0.31096
 C40 C 0.71294 0.20515 0.29946
 C41 C 0.73055 0.19799 0.26610
 C42 C 0.73097 0.17502 0.24604
 C43 C 0.75238 0.17477 0.21882
 C44 C 0.76414 0.19779 0.22225
 N45 N 0.75078 0.21176 0.25124
 C46 C 0.78798 0.20467 0.20231
 C47 C 0.79624 0.22953 0.19867
 C48 C 0.82092 0.23702 0.18553
 C49 C 0.82052 0.26231 0.18420
 C50 C 0.79536 0.26955 0.19522
 N51 N 0.78058 0.24943 0.20435
 C52 C 0.78609 0.29428 0.19566
 C53 C 0.76196 0.30053 0.21566
 C54 C 0.74753 0.32161 0.20651
 C55 C 0.72646 0.32157 0.23437
 C56 C 0.72848 0.30041 0.25964
 N57 N 0.75004 0.28755 0.24780
 C58 C 0.71153 0.29417 0.29443
 H59 H 0.68834 0.27507 0.37325
 H60 H 0.68896 0.22629 0.37577
 H61 H 0.75773 0.27228 0.26400
 H62 H 0.71758 0.15979 0.25103
 H63 H 0.75864 0.15921 0.19931
 H64 H 0.83760 0.22559 0.17774
 H65 H 0.83703 0.27395 0.17615
 H66 H 0.71139 0.33556 0.23585
 H67 H 0.75702 0.22856 0.26402
 H68 H 0.75175 0.33561 0.18222
 C69 C 0.69323 0.76332 0.65521
 C70 C 0.69246 0.73797 0.65616
 C71 C 0.70813 0.73062 0.69063
 N72 N 0.71867 0.75059 0.71035
 C73 C 0.70968 0.77057 0.68866
 C74 C 0.71087 0.70608 0.70576
 C75 C 0.72960 0.69937 0.73746
 C76 C 0.72955 0.67737 0.76076
 C77 C 0.75193 0.67718 0.78546
 C78 C 0.76493 0.69912 0.77673
 N79 N 0.75120 0.71255 0.74754
 C80 C 0.78984 0.70540 0.79282
 C81 C 0.79965 0.72977 0.79171
 C82 C 0.82545 0.73619 0.79893
 C83 C 0.82654 0.76149 0.79761
 C84 C 0.80127 0.76974 0.79027
 N85 N 0.78487 0.75026 0.78632
 C86 C 0.79346 0.79488 0.78875
 C87 C 0.76904 0.80199 0.77083
 C88 C 0.75670 0.82447 0.77820
 C89 C 0.73443 0.82459 0.75338
 C90 C 0.73336 0.80199 0.73221
 N91 N 0.75453 0.78832 0.74294
 C92 C 0.71407 0.79520 0.70163
 H93 H 0.68260 0.77504 0.63283
 H94 H 0.68127 0.72635 0.63439
 H95 H 0.76014 0.77174 0.72848
 H96 H 0.71504 0.66283 0.75980
 H97 H 0.75807 0.66245 0.80704
 H98 H 0.84181 0.72392 0.80429
 H99 H 0.84402 0.77252 0.80140
 H100 H 0.72061 0.83966 0.75126
 H101 H 0.75784 0.72835 0.73160
 H102 H 0.76304 0.83932 0.79931
 C103 C 0.32346 0.73815 0.69627
 C104 C 0.32295 0.76351 0.69631
 C105 C 0.29771 0.77030 0.70742
 N106 N 0.28281 0.75005 0.71416
 C107 C 0.29852 0.73038 0.70741
 C108 C 0.28810 0.79470 0.70780
 C109 C 0.26336 0.80078 0.72512
 C110 C 0.24972 0.82215 0.71538
 C111 C 0.22744 0.82178 0.74044
 C112 C 0.22832 0.80041 0.76561
 N113 N 0.25017 0.78753 0.75554
 C114 C 0.20971 0.79369 0.79803
 C115 C 0.20739 0.76884 0.81266
 C116 C 0.19415 0.76124 0.84988
 C117 C 0.19444 0.73593 0.84984
 C118 C 0.20874 0.72872 0.81346
 N119 N 0.21650 0.74893 0.79072
 C120 C 0.21196 0.70404 0.79871
 C121 C 0.23031 0.69767 0.76574
 C122 C 0.23233 0.67470 0.74564
 C123 C 0.25450 0.67520 0.72029
 C124 C 0.26570 0.69828 0.72588
 N125 N 0.25088 0.71183 0.75355
 C126 C 0.29009 0.70556 0.70838
 H127 H 0.34022 0.72676 0.68861
 H128 H 0.33923 0.77554 0.68864
 H129 H 0.25634 0.72849 0.76775
 H130 H 0.25520 0.83646 0.69238
 H131 H 0.21231 0.83572 0.74008
 H132 H 0.18491 0.77266 0.87443
 H133 H 0.18485 0.72442 0.87385
 H134 H 0.26191 0.66001 0.70092
 H135 H 0.25712 0.77200 0.77191
 H136 H 0.21984 0.65876 0.74983
 O137 O 1.02508 -0.03089 0.01232
 O138 O 0.97375 0.01145 0.05098
 O139 O 0.97467 -0.03015 0.00909
 O140 O 1.02469 0.01112 0.05485
 O141 O 1.02730 0.03093 -0.00798
 O142 O 0.97623 -0.00961 -0.05307
 O143 O 0.97678 0.03252 -0.01062
 O144 O 1.02710 -0.01064 -0.05016
 Cu145 Cu 0.99941 -0.01159 0.03814
 Cu146 Cu 1.00198 0.01282 -0.03676
 C147 C 1.03464 -0.02818 -0.02570
 C148 C 0.96670 0.02933 0.02689
 C149 C 0.96692 -0.02702 -0.02985
 C150 C 1.03458 0.02808 0.03129
 O151 O 0.52550 0.46848 0.50983
 O152 O 0.47569 0.51094 0.55289
 O153 O 0.47495 0.46936 0.51010
 O154 O 0.52657 0.51030 0.55231
 O155 O 0.52558 0.53166 0.49093
 O156 O 0.47605 0.48917 0.44719
 O157 O 0.47510 0.53077 0.48997
 O158 O 0.52699 0.48980 0.44842
 Cu159 Cu 0.50068 0.48774 0.53756
 Cu160 Cu 0.50100 0.51236 0.46282
 C161 C 0.53477 0.47186 0.47181
 C162 C 0.46677 0.52807 0.52880
 C163 C 0.46688 0.47207 0.47122
 C164 C 0.53450 0.52828 0.52909
 O165 O -0.02516 0.52963 0.00665
 O166 O 0.02404 0.48685 0.05032
 O167 O 0.02565 0.52885 0.00832
 O168 O -0.02665 0.48758 0.04781
 O169 O -0.02555 0.46741 -0.01469
 O170 O 0.02582 0.50925 -0.05478
 O171 O 0.02531 0.46728 -0.01279
 O172 O -0.02487 0.50951 -0.05593
 Cu173 Cu -0.00056 0.51023 0.03456
 Cu174 Cu 0.00028 0.48635 -0.04082
 C175 C -0.03350 0.52690 -0.03205
 C176 C 0.03308 0.46972 0.02634
 C177 C 0.03448 0.52626 -0.03022
 C178 C -0.03497 0.47035 0.02335
 O179 O 0.52675 1.01191 0.45432
 O180 O 0.47514 0.96986 0.49385
 O181 O 0.47585 1.01189 0.45193
 O182 O 0.52601 0.96993 0.49532
 O183 O 0.52499 0.98978 0.55818
 O184 O 0.47464 1.03164 0.51486
 O185 O 0.47424 0.98974 0.55665
 O186 O 0.52519 1.03213 0.51683
 Cu187 Cu 0.50100 0.98890 0.46755
 Cu188 Cu 0.49969 1.01279 0.54295
 C189 C 0.53462 1.02933 0.47877
 C190 C 0.46594 0.97254 0.53214
 C191 C 0.46673 1.02903 0.47587
 C192 C 0.53408 0.97265 0.53418
 C193 C 1.16176 0.14867 0.15631
 C194 C 1.16032 0.15517 0.20068
 C195 C 1.17681 0.17332 0.21776
 C196 C 1.19534 0.18514 0.19099
 C197 C 1.19683 0.17860 0.14667
 C198 C 1.18022 0.16059 0.12951
 C199 C 1.14380 0.12990 0.13789
 N200 N 1.14217 0.12648 0.09407
 N201 N 1.12568 0.10997 0.07741
 C202 C 1.11016 0.09610 0.10386
 N203 N 1.11190 0.09942 0.14771
 N204 N 1.12834 0.11599 0.16436
 C205 C 1.09140 0.07813 0.08522
 C206 C 1.07797 0.06139 0.11231
 C207 C 1.05981 0.04487 0.09475
 C208 C 1.05452 0.04487 0.04977
 C209 C 1.06809 0.06148 0.02265
 C210 C 1.08639 0.07784 0.04014
 H211 H 1.14617 0.14653 0.22214
 H212 H 1.17482 0.17844 0.25180
 H213 H 1.21092 0.18747 0.12533
 H214 H 1.18188 0.15602 0.09522
 H215 H 1.08142 0.06105 0.14715
 H216 H 1.04965 0.03232 0.11651
 H217 H 1.06452 0.06190 -0.01216
 H218 H 1.09635 0.09050 0.01832
 C219 C 0.65850 0.65058 0.65573
 C220 C 0.68564 0.64707 0.65362
 C221 C 0.70263 0.66512 0.66967
 C222 C 0.69277 0.68674 0.68899
 C223 C 0.66561 0.68991 0.69217
 C224 C 0.64864 0.67217 0.67516
 C225 C 0.64049 0.63209 0.63706
 N226 N 0.61692 0.63913 0.62117
 N227 N 0.60076 0.62260 0.60373
 C228 C 0.60739 0.59833 0.60188
 N229 N 0.63090 0.59124 0.61805
 N230 N 0.64720 0.60783 0.63507
 C231 C 0.58934 0.58010 0.58257
 C232 C 0.58918 0.55544 0.59693
 C233 C 0.57132 0.53850 0.57963
 C234 C 0.55383 0.54582 0.54686
 C235 C 0.55442 0.57034 0.53184
 C236 C 0.57178 0.58738 0.54989
 H237 H 0.69373 0.63064 0.63864
 H238 H 0.72351 0.66232 0.66685
 H239 H 0.65758 0.70628 0.70748
 H240 H 0.62779 0.67522 0.67756
 H241 H 0.60245 0.54939 0.62221
 H242 H 0.57128 0.51968 0.59168
 H243 H 0.54103 0.57648 0.50678
 H244 H 0.57160 0.60625 0.53806
 C245 C -0.16673 0.35038 0.13820
 C246 C -0.17870 0.35411 0.17899
 C247 C -0.19464 0.33587 0.19738
 C248 C -0.19887 0.31327 0.17567
 C249 C -0.18749 0.30995 0.13415
 C250 C -0.17163 0.32823 0.11572
 C251 C -0.14862 0.36913 0.11985
 N252 N -0.13738 0.36580 0.08007
 N253 N -0.12038 0.38219 0.06428
 C254 C -0.11383 0.40260 0.08762
 N255 N -0.12519 0.40601 0.12729
 N256 N -0.14221 0.38963 0.14305
 C257 C -0.09424 0.42041 0.07065
 C258 C -0.08603 0.44052 0.09625
 C259 C -0.06692 0.45682 0.08080
 C260 C -0.05565 0.45344 0.03936
 C261 C -0.06409 0.43354 0.01355
 C262 C -0.08313 0.41720 0.02902
 H263 H -0.17544 0.37097 0.19717
 H264 H -0.20283 0.33909 0.22952
 H265 H -0.19103 0.29322 0.11570
 H266 H -0.16297 0.32483 0.08401
 H267 H -0.09415 0.44356 0.12846
 H268 H -0.06089 0.47200 0.10147
 H269 H -0.05581 0.43042 -0.01855
 H270 H -0.08901 0.40196 0.00839
 C271 C 0.33647 0.85152 0.65111
 C272 C 0.32853 0.85295 0.69506
 C273 C 0.31253 0.83467 0.71321
 C274 C 0.30419 0.81462 0.68784
 C275 C 0.31156 0.81339 0.64376
 C276 C 0.32759 0.83163 0.62557
 C277 C 0.35441 0.87032 0.63239
 N278 N 0.36309 0.86842 0.59058
 N279 N 0.37981 0.88490 0.57421
 C280 C 0.38857 0.90399 0.59895
 N281 N 0.37977 0.90596 0.64068
 N282 N 0.36307 0.88948 0.65705
 C283 C 0.40777 0.92197 0.58122
 C284 C 0.41687 0.94156 0.60719
 C285 C 0.43555 0.95807 0.59107
 C286 C 0.44559 0.95540 0.54860
 C287 C 0.43629 0.93601 0.52240
 C288 C 0.41759 0.91948 0.53853
 H289 H 0.33492 0.86801 0.71567
 H290 H 0.30697 0.83593 0.74728
 H291 H 0.30511 0.79814 0.62359
 H292 H 0.33321 0.82999 0.59160
 H293 H 0.40973 0.94408 0.64018
 H294 H 0.44226 0.97283 0.61210
 H295 H 0.44361 0.93346 0.48952
 H296 H 0.41101 0.90462 0.51760
 C297 C -0.16086 0.64893 -0.15241
 C298 C -0.16932 0.64736 -0.19599
 C299 C -0.18556 0.66554 -0.21358
 C300 C -0.19366 0.68562 -0.18800
 C301 C -0.18559 0.68710 -0.14438
 C302 C -0.16935 0.66895 -0.12674
 C303 C -0.14293 0.63010 -0.13408
 N304 N -0.13448 0.63180 -0.09221
 N305 N -0.11793 0.61522 -0.07599
 C306 C -0.10908 0.59622 -0.10092
 N307 N -0.11760 0.59446 -0.14275
 N308 N -0.13416 0.61105 -0.15898
 C309 C -0.09020 0.57808 -0.08306
 C310 C -0.08070 0.55864 -0.10905
 C311 C -0.06244 0.54191 -0.09244
 C312 C -0.05327 0.54425 -0.04945
 C313 C -0.06294 0.56355 -0.02334
 C314 C -0.08118 0.58026 -0.03993
 H315 H -0.16321 0.63220 -0.21668
 H316 H -0.19158 0.66414 -0.24735
 H317 H -0.19175 0.70244 -0.12411
 H318 H -0.16329 0.67074 -0.09307
 H319 H -0.08722 0.55638 -0.14239
 H320 H -0.05540 0.52723 -0.11340
 H321 H -0.05631 0.56586 0.00993
 H322 H -0.08808 0.59497 -0.01894
 C323 C 0.34061 1.15085 0.35140
 C324 C 0.33528 1.17292 0.37387
 C325 C 0.31891 1.19079 0.35573
 C326 C 0.30731 1.18710 0.31460
 C327 C 0.31247 1.16482 0.29240
 C328 C 0.32895 1.14699 0.31050
 C329 C 0.35844 1.13215 0.37040
 N330 N 0.36524 1.11161 0.34755
 N331 N 0.38160 1.09505 0.36441
 C332 C 0.39183 1.09828 0.40487
 N333 N 0.38493 1.11876 0.42776
 N334 N 0.36862 1.13533 0.41089
 C335 C 0.41043 1.08011 0.42340
 C336 C 0.41997 1.08299 0.46609
 C337 C 0.43799 1.06625 0.48324
 C338 C 0.44698 1.04626 0.45810
 C339 C 0.43728 1.04322 0.41558
 C340 C 0.41918 1.05993 0.39845
 H341 H 0.34381 1.17649 0.40553
 H342 H 0.31491 1.20739 0.37434
 H343 H 0.30427 1.16146 0.26039
 H344 H 0.33265 1.13021 0.29225
 H345 H 0.41362 1.09827 0.48629
 H346 H 0.44507 1.06914 0.51612
 H347 H 0.44379 1.02800 0.39537
 H348 H 0.41226 1.05713 0.36547
 C349 C 1.15881 -0.15173 -0.14904
 C350 C 1.18533 -0.14641 -0.15597
 C351 C 1.20207 -0.16433 -0.17325
 C352 C 1.19265 -0.18796 -0.18475
 C353 C 1.16582 -0.19286 -0.17868
 C354 C 1.14924 -0.17512 -0.16060
 C355 C 1.14117 -0.13310 -0.12962
 N356 N 1.11919 -0.14022 -0.10811
 N357 N 1.10322 -0.12351 -0.09060
 C358 C 1.10846 -0.09899 -0.09420
 N359 N 1.13041 -0.09184 -0.11582
 N360 N 1.14652 -0.10857 -0.13299
 C361 C 1.09035 -0.08050 -0.07554
 C362 C 1.08922 -0.05645 -0.09274
 C363 C 1.07119 -0.03937 -0.07642
 C364 C 1.05435 -0.04587 -0.04196
 C365 C 1.05596 -0.06971 -0.02404
 C366 C 1.07359 -0.08694 -0.04096
 H367 H 1.19327 -0.12856 -0.14708
 H368 H 1.22261 -0.15988 -0.17651
 H369 H 1.15748 -0.21037 -0.18862
 H370 H 1.12878 -0.17960 -0.15629
 H371 H 1.10184 -0.05101 -0.11950
 H372 H 1.07040 -0.02108 -0.09074
 H373 H 1.04314 -0.07524 0.00242
 H374 H 1.07414 -0.10530 -0.02692
 C375 C 0.65967 0.34948 0.34695
 C376 C 0.68664 0.35404 0.34430
 C377 C 0.70352 0.33605 0.32756
 C378 C 0.69366 0.31341 0.31235
 C379 C 0.66662 0.30913 0.31408
 C380 C 0.64984 0.32684 0.33171
 C381 C 0.64179 0.36802 0.36594
 N382 N 0.61899 0.36084 0.38482
 N383 N 0.60281 0.37742 0.40211
 C384 C 0.60863 0.40190 0.40087
 N385 N 0.63138 0.40913 0.38181
 N386 N 0.64771 0.39250 0.36489
 C387 C 0.59042 0.42018 0.41979
 C388 C 0.58957 0.44453 0.40387
 C389 C 0.57146 0.46142 0.42071
 C390 C 0.55436 0.45440 0.45445
 C391 C 0.55565 0.43022 0.47099
 C392 C 0.57330 0.41321 0.45352
 H393 H 0.69473 0.37130 0.35599
 H394 H 0.72431 0.33972 0.32657
 H395 H 0.65852 0.29197 0.30195
 H396 H 0.62911 0.32294 0.33296
 H397 H 0.60248 0.45035 0.37777
 H398 H 0.57090 0.47997 0.40746
 H399 H 0.54261 0.42427 0.49686
 H400 H 0.57363 0.39461 0.46657
 C401 C 0.84312 -0.15011 -0.15693
 C402 C 0.83145 -0.14648 -0.19788
 C403 C 0.81508 -0.16450 -0.21572
 C404 C 0.81006 -0.18675 -0.19322
 C405 C 0.82180 -0.19025 -0.15215
 C406 C 0.83804 -0.17220 -0.13427
 C407 C 0.86059 -0.13111 -0.13789
 N408 N 0.87034 -0.13397 -0.09704
 N409 N 0.88624 -0.11711 -0.07996
 C410 C 0.89313 -0.09664 -0.10296
 N411 N 0.88335 -0.09373 -0.14382
 N412 N 0.86739 -0.11059 -0.16090
 C413 C 0.91129 -0.07820 -0.08402
 C414 C 0.92035 -0.05806 -0.10889
 C415 C 0.93817 -0.04122 -0.09122
 C416 C 0.94725 -0.04412 -0.04828
 C417 C 0.93786 -0.06402 -0.02324
 C418 C 0.92013 -0.08085 -0.04089
 H419 H 0.83498 -0.12970 -0.21628
 H420 H 0.80680 -0.16128 -0.24772
 H421 H 0.81792 -0.20679 -0.13326
 H422 H 0.84660 -0.17560 -0.10257
 H423 H 0.91393 -0.05544 -0.14221
 H424 H 0.94502 -0.02607 -0.11135
 H425 H 0.94442 -0.06680 0.00997
 H426 H 0.91352 -0.09607 -0.02070
 C427 C 0.33909 0.35115 0.34848
 C428 C 0.33228 0.35184 0.30402
 C429 C 0.31593 0.33376 0.28629
 C430 C 0.30606 0.31470 0.31265
 C431 C 0.31256 0.31408 0.35707
 C432 C 0.32891 0.33211 0.37482
 C433 C 0.35706 0.36986 0.36713
 N434 N 0.36433 0.36868 0.40968
 N435 N 0.38088 0.38515 0.42628
 C436 C 0.39088 0.40354 0.40106
 N437 N 0.38353 0.40479 0.35855
 N438 N 0.36698 0.38831 0.34194
 C439 C 0.40977 0.42154 0.41935
 C440 C 0.42003 0.44065 0.39329
 C441 C 0.43835 0.45720 0.41024
 C442 C 0.44687 0.45502 0.45364
 C443 C 0.43643 0.43609 0.47984
 C444 C 0.41809 0.41956 0.46291
 H445 H 0.33975 0.36622 0.28278
 H446 H 0.31117 0.33446 0.25189
 H447 H 0.30506 0.29951 0.37789
 H448 H 0.33369 0.33100 0.40916
 H449 H 0.41405 0.44276 0.35963
 H450 H 0.44600 0.47158 0.38919
 H451 H 0.44255 0.43391 0.51342
 H452 H 0.41060 0.40510 0.48396
 C453 C 0.16219 0.64871 -0.14932
 C454 C 0.16042 0.65573 -0.19341
 C455 C 0.17687 0.67395 -0.21046
 C456 C 0.19563 0.68544 -0.18395
 C457 C 0.19765 0.67824 -0.14000
 C458 C 0.18100 0.66016 -0.12281
 C459 C 0.14429 0.62976 -0.13116
 N460 N 0.14211 0.62631 -0.08737
 N461 N 0.12560 0.60959 -0.07115
 C462 C 0.11067 0.59553 -0.09805
 N463 N 0.11298 0.59889 -0.14182
 N464 N 0.12939 0.61567 -0.15802
 C465 C 0.09190 0.57724 -0.08018
 C466 C 0.07976 0.56007 -0.10792
 C467 C 0.06148 0.54328 -0.09150
 C468 C 0.05471 0.54339 -0.04702
 C469 C 0.06701 0.56039 -0.01914
 C470 C 0.08550 0.57706 -0.03552
 H471 H 0.14606 0.64739 -0.21469
 H472 H 0.17473 0.67934 -0.24433
 H473 H 0.21221 0.68655 -0.11903
 H474 H 0.18299 0.65507 -0.08880
 H475 H 0.08431 0.55961 -0.14244
 H476 H 0.05234 0.53044 -0.11385
 H477 H 0.06226 0.56090 0.01531
 H478 H 0.09446 0.59007 -0.01327
 C479 C 0.66156 1.15092 0.35696
 C480 C 0.68870 1.14710 0.35689
 C481 C 0.70548 1.16479 0.33871
 C482 C 0.69534 1.18626 0.31933
 C483 C 0.66818 1.18983 0.31882
 C484 C 0.65149 1.17250 0.33793
 C485 C 0.64369 1.13260 0.37673
 N486 N 0.62046 1.13987 0.39386
 N487 N 0.60409 1.12342 0.41119
 C488 C 0.61016 1.09900 0.41167
 N489 N 0.63339 1.09170 0.39445
 N490 N 0.64991 1.10820 0.37753
 C491 C 0.59159 1.08080 0.42993
 C492 C 0.59089 1.05646 0.41403
 C493 C 0.57234 1.03967 0.42985
 C494 C 0.55463 1.04676 0.46262
 C495 C 0.55578 1.07091 0.47927
 C496 C 0.57388 1.08785 0.46272
 H497 H 0.69695 1.13067 0.37156
 H498 H 0.72637 1.16174 0.33969
 H499 H 0.65991 1.20613 0.30369
 H500 H 0.63064 1.17580 0.33721
 H501 H 0.60425 1.05060 0.38861
 H502 H 0.57190 1.02113 0.41659
 H503 H 0.54228 1.07687 0.50442
 H504 H 0.57408 1.10647 0.47569
 C505 C 0.15910 0.34807 0.15126
 C506 C 0.18038 0.33917 0.12674
 C507 C 0.19738 0.32165 0.14445
 C508 C 0.19323 0.31255 0.18675
 C509 C 0.17200 0.32123 0.21127
 C510 C 0.15517 0.33897 0.19382
 C511 C 0.14099 0.36657 0.13253
 N512 N 0.12388 0.37892 0.15849
 N513 N 0.10746 0.39543 0.14168
 C514 C 0.10736 0.40023 0.09816
 N515 N 0.12446 0.38787 0.07216
 N516 N 0.14097 0.37143 0.08901
 C517 C 0.08880 0.41836 0.07951
 C518 C 0.08435 0.41937 0.03428
 C519 C 0.06631 0.43607 0.01693
 C520 C 0.05256 0.45233 0.04439
 C521 C 0.05729 0.45156 0.08952
 C522 C 0.07509 0.43468 0.10690
 H523 H 0.18400 0.34584 0.09394
 H524 H 0.21367 0.31502 0.12513
 H525 H 0.16851 0.31425 0.24392
 H526 H 0.13892 0.34533 0.21349
 H527 H 0.09455 0.40701 0.01228
 H528 H 0.06313 0.43626 -0.01800
 H529 H 0.04698 0.46380 0.11156
 H530 H 0.07813 0.43448 0.14185
 C531 C 0.66229 0.85094 0.65197
 C532 C 0.68391 0.84308 0.62716
 C533 C 0.70092 0.82513 0.64349
 C534 C 0.69641 0.81459 0.68460
 C535 C 0.67485 0.82225 0.70939
 C536 C 0.65803 0.84040 0.69337
 C537 C 0.64410 0.86980 0.63464
 N538 N 0.62673 0.88127 0.66140
 N539 N 0.61012 0.89798 0.64575
 C540 C 0.61008 0.90383 0.60263
 N541 N 0.62746 0.89238 0.57588
 N542 N 0.64417 0.87576 0.59157
 C543 C 0.59115 0.92195 0.58506
 C544 C 0.58658 0.92348 0.53993
 C545 C 0.56811 0.94000 0.52344
 C546 C 0.55403 0.95558 0.55164
 C547 C 0.55891 0.95436 0.59669
 C548 C 0.57715 0.93762 0.61325
 H549 H 0.68777 0.85088 0.59523
 H550 H 0.71749 0.81931 0.62400
 H551 H 0.67113 0.81416 0.74116
 H552 H 0.64150 0.84593 0.71319
 H553 H 0.59698 0.91164 0.51733
 H554 H 0.56485 0.94057 0.48854
 H555 H 0.54833 0.96609 0.61925
 H556 H 0.58029 0.93697 0.64816
 C557 C 0.83925 0.14928 0.14963
 C558 C 0.81555 0.15465 0.12877
 C559 C 0.79885 0.17270 0.14579
 C560 C 0.80521 0.18498 0.18467
 C561 C 0.82851 0.17902 0.20623
 C562 C 0.84561 0.16162 0.18845
 C563 C 0.85761 0.13134 0.13053
 N564 N 0.88366 0.13601 0.13053
 N565 N 0.90036 0.11997 0.11296
 C566 C 0.89167 0.09849 0.09530
 N567 N 0.86563 0.09372 0.09556
 N568 N 0.84888 0.10995 0.11255
 C569 C 0.91027 0.08067 0.07651
 C570 C 0.90715 0.05523 0.08386
 C571 C 0.92561 0.03845 0.06786
 C572 C 0.94693 0.04684 0.04301
 C573 C 0.94963 0.07221 0.03463
 C574 C 0.93168 0.08904 0.05188
 H575 H 0.81036 0.14543 0.09865
 H576 H 0.78100 0.17719 0.12864
 H577 H 0.83367 0.18830 0.23631
 H578 H 0.86374 0.15764 0.20516
 H579 H 0.89083 0.04841 0.10296
 H580 H 0.92317 0.01893 0.07460
 H581 H 0.96603 0.07906 0.01573
 H582 H 0.93439 0.10860 0.04573
 C583 C 0.34043 0.65009 0.65282
 C584 C 0.32999 0.66898 0.62656
 C585 C 0.31356 0.68690 0.64458
 C586 C 0.30732 0.68633 0.68916
 C587 C 0.31753 0.66748 0.71546
 C588 C 0.33392 0.64950 0.69748
 C589 C 0.35822 0.63130 0.63387
 N590 N 0.36799 0.61279 0.65892
 N591 N 0.38429 0.59614 0.64205
 C592 C 0.39153 0.59729 0.59940
 N593 N 0.38169 0.61575 0.57432
 N594 N 0.36538 0.63239 0.59118
 C595 C 0.41014 0.57908 0.58088
 C596 C 0.41853 0.58098 0.53726
 C597 C 0.43668 0.56427 0.52020
 C598 C 0.44683 0.54523 0.54635
 C599 C 0.43818 0.54311 0.58977
 C600 C 0.42007 0.55984 0.60684
 H601 H 0.33453 0.66998 0.59207
 H602 H 0.30573 0.70129 0.62379
 H603 H 0.31289 0.66679 0.74995
 H604 H 0.34159 0.63525 0.71866
 H605 H 0.41129 0.59555 0.51630
 H606 H 0.44292 0.56640 0.48661
 H607 H 0.44561 0.52864 0.61078
 H608 H 0.41401 0.55777 0.64053
   
