data_POSCAR
  _audit_creation_date              2014-09-24
  _audit_creation_method            'ToBaCCo'
  _symmetry_space_group_name_H-M    'P1'
  _symmetry_Int_Tables_number       1
  _symmetry_cell_setting            triclinic
  loop_
  _symmetry_equiv_pos_as_xyz
 x,y,z
_cell_length_a 52.0150
_cell_length_b 52.3171
_cell_length_c 52.4291
_cell_angle_alpha 90.104900
_cell_angle_beta 90.298200
_cell_angle_gamma 89.873000
loop_
  _atom_site_label
  _atom_site_type_symbol
  _atom_site_fract_x
  _atom_site_fract_y
  _atom_site_fract_z
N1 N 0.29265 0.23901 0.22009
 N2 N 0.28203 0.25952 0.21001
 C3 C 0.29518 0.26613 0.18897
 C4 C 0.31495 0.24885 0.18585
 C5 C 0.31290 0.23188 0.20580
 H6 H 0.29065 0.28212 0.17668
 H7 H 0.32505 0.21547 0.20949
 Cu8 Cu 0.25173 0.27516 0.22513
 Cu9 Cu 0.27911 0.22283 0.25066
 Cu10 Cu 0.22537 0.25082 0.27811
 N11 N 0.22177 0.29091 0.24080
 N12 N 0.21158 0.28123 0.26156
 C13 C 0.19094 0.29527 0.26820
 C14 C 0.18818 0.31469 0.25068
 C15 C 0.20792 0.31149 0.23352
 H16 H 0.17867 0.29147 0.28434
 H17 H 0.21165 0.32308 0.21690
 N18 N 0.24211 0.21999 0.29203
 N19 N 0.26258 0.20933 0.28159
 C20 C 0.26911 0.18841 0.29514
 C21 C 0.25195 0.18594 0.31489
 C22 C 0.23508 0.20612 0.31247
 H23 H 0.28491 0.17568 0.29080
 H24 H 0.21874 0.21012 0.32451
 H25 H 0.24148 0.23478 0.24587
 H26 H 0.26274 0.25547 0.26586
 N27 N 0.70507 -0.24295 0.22095
 N28 N 0.71527 -0.26374 0.21106
 C29 C 0.70208 -0.27015 0.18979
 C30 C 0.68269 -0.25245 0.18645
 C31 C 0.68504 -0.23542 0.20638
 H32 H 0.70648 -0.28615 0.17746
 H33 H 0.67339 -0.21862 0.20979
 Cu34 Cu 0.74530 -0.27997 0.22639
 Cu35 Cu 0.71901 -0.22666 0.25138
 Cu36 Cu 0.77335 -0.25407 0.27837
 N37 N 0.77630 -0.29460 0.24141
 N38 N 0.78713 -0.28439 0.26174
 C39 C 0.80841 -0.29780 0.26784
 C40 C 0.81091 -0.31735 0.25038
 C41 C 0.79038 -0.31489 0.23382
 H42 H 0.82127 -0.29347 0.28353
 H43 H 0.78626 -0.32672 0.21737
 N44 N 0.75661 -0.22336 0.29249
 N45 N 0.73586 -0.21295 0.28220
 C46 C 0.72935 -0.19203 0.29576
 C47 C 0.74681 -0.18931 0.31540
 C48 C 0.76385 -0.20933 0.31288
 H49 H 0.71337 -0.17947 0.29151
 H50 H 0.78045 -0.21311 0.32480
 H51 H 0.75635 -0.23902 0.24583
 H52 H 0.73561 -0.25899 0.26685
 N53 N 0.70774 0.23851 0.77856
 N54 N 0.71793 0.25912 0.78884
 C55 C 0.70442 0.26558 0.80975
 C56 C 0.68488 0.24810 0.81255
 C57 C 0.68744 0.23114 0.79257
 H58 H 0.70860 0.28156 0.82220
 H59 H 0.67564 0.21457 0.78871
 Cu60 Cu 0.74822 0.27498 0.77420
 Cu61 Cu 0.72193 0.22244 0.74815
 Cu62 Cu 0.77585 0.25081 0.72169
 N63 N 0.77835 0.29089 0.75925
 N64 N 0.78906 0.28129 0.73865
 C65 C 0.80980 0.29533 0.73259
 C66 C 0.81204 0.31467 0.75032
 C67 C 0.79195 0.31142 0.76703
 H68 H 0.82251 0.29151 0.71676
 H69 H 0.78785 0.32284 0.78374
 N70 N 0.75962 0.21990 0.70734
 N71 N 0.73910 0.20912 0.71742
 C72 C 0.73303 0.18813 0.70375
 C73 C 0.75052 0.18575 0.68427
 C74 C 0.76714 0.20604 0.68699
 H75 H 0.71735 0.17527 0.70784
 H76 H 0.78366 0.21010 0.67525
 H77 H 0.75929 0.23460 0.75362
 H78 H 0.73815 0.25509 0.73329
 N79 N 0.29082 -0.24194 0.77653
 N80 N 0.28077 -0.26260 0.78667
 C81 C 0.29446 -0.26905 0.80759
 C82 C 0.31400 -0.25151 0.81052
 C83 C 0.31121 -0.23454 0.79063
 H84 H 0.29032 -0.28497 0.82003
 H85 H 0.32284 -0.21784 0.78699
 Cu86 Cu 0.25019 -0.27833 0.77200
 Cu87 Cu 0.27622 -0.22566 0.74634
 Cu88 Cu 0.22196 -0.25381 0.71973
 N89 N 0.21988 -0.29414 0.75687
 N90 N 0.20896 -0.28438 0.73638
 C91 C 0.18813 -0.29835 0.73016
 C92 C 0.18605 -0.31781 0.74768
 C93 C 0.20633 -0.31471 0.76442
 H94 H 0.17525 -0.29439 0.71438
 H95 H 0.21061 -0.32627 0.78100
 N96 N 0.23801 -0.22283 0.70566
 N97 N 0.25867 -0.21212 0.71579
 C98 C 0.26456 -0.19105 0.70231
 C99 C 0.24679 -0.18854 0.68291
 C100 C 0.23022 -0.20885 0.68547
 H101 H 0.28032 -0.17824 0.70646
 H102 H 0.21356 -0.21287 0.67374
 H103 H 0.23881 -0.23785 0.75178
 H104 H 0.25969 -0.25824 0.73123
 N105 N 0.70890 -0.23993 0.77919
 N106 N 0.72190 -0.25704 0.79237
 C107 C 0.70854 -0.26317 0.81342
 C108 C 0.68610 -0.24911 0.81328
 C109 C 0.68685 -0.23452 0.79143
 H110 H 0.71486 -0.27646 0.82794
 H111 H 0.67281 -0.22051 0.78532
 Cu112 Cu 0.75530 -0.26917 0.78131
 Cu113 Cu 0.72250 -0.22444 0.74834
 Cu114 Cu 0.78239 -0.24563 0.72842
 N115 N 0.78330 -0.28686 0.76437
 N116 N 0.79386 -0.27756 0.74363
 C117 C 0.81353 -0.29273 0.73658
 C118 C 0.81511 -0.31257 0.75379
 C119 C 0.79580 -0.30837 0.77124
 H120 H 0.82602 -0.28924 0.72054
 H121 H 0.79157 -0.31968 0.78795
 N122 N 0.76293 -0.21868 0.71063
 N123 N 0.73988 -0.21099 0.71787
 C124 C 0.73191 -0.19210 0.70228
 C125 C 0.75080 -0.18792 0.68448
 C126 C 0.77021 -0.20496 0.69019
 H127 H 0.71408 -0.18162 0.70414
 H128 H 0.78843 -0.20684 0.68051
 H129 H 0.74558 -0.25528 0.73810
 H130 H 0.76043 -0.22915 0.75736
 N131 N 0.29576 0.24425 0.77399
 N132 N 0.28565 0.26533 0.78332
 C133 C 0.29894 0.27232 0.80432
 C134 C 0.31832 0.25473 0.80813
 C135 C 0.31584 0.23714 0.78869
 H136 H 0.29459 0.28865 0.81624
 H137 H 0.32744 0.22022 0.78575
 Cu138 Cu 0.25547 0.28114 0.76793
 Cu139 Cu 0.28156 0.22714 0.74413
 Cu140 Cu 0.22674 0.25356 0.71712
 N141 N 0.22409 0.29497 0.75303
 N142 N 0.21297 0.28414 0.73319
 C143 C 0.19137 0.29711 0.72728
 C144 C 0.18896 0.31702 0.74433
 C145 C 0.20988 0.31520 0.76046
 H146 H 0.17819 0.29219 0.71204
 H147 H 0.21413 0.32741 0.77660
 N148 N 0.24352 0.22270 0.70355
 N149 N 0.26443 0.21261 0.71384
 C150 C 0.27082 0.19137 0.70073
 C151 C 0.25309 0.18811 0.68141
 C152 C 0.23605 0.20815 0.68363
 H153 H 0.28688 0.17895 0.70509
 H154 H 0.21927 0.21158 0.67186
 H155 H 0.26457 0.25899 0.72795
 H156 H 0.24420 0.23962 0.74987
 N157 N 0.29527 -0.24295 0.22168
 N158 N 0.28446 -0.26317 0.21123
 C159 C 0.29742 -0.26950 0.18994
 C160 C 0.31727 -0.25235 0.18709
 C161 C 0.31543 -0.23573 0.20742
 H162 H 0.29260 -0.28507 0.17720
 H163 H 0.32756 -0.21939 0.21127
 Cu164 Cu 0.25403 -0.27853 0.22616
 Cu165 Cu 0.28185 -0.22689 0.25243
 Cu166 Cu 0.22775 -0.25439 0.27938
 N167 N 0.22378 -0.29396 0.24140
 N168 N 0.21368 -0.28439 0.26232
 C169 C 0.19279 -0.29808 0.26862
 C170 C 0.18975 -0.31715 0.25071
 C171 C 0.20959 -0.31410 0.23367
 H172 H 0.18050 -0.29425 0.28477
 H173 H 0.21315 -0.32547 0.21680
 N174 N 0.24481 -0.22398 0.29376
 N175 N 0.26540 -0.21350 0.28350
 C176 C 0.27190 -0.19261 0.29711
 C177 C 0.25462 -0.18997 0.31673
 C178 C 0.23768 -0.21001 0.31416
 H179 H 0.28766 -0.17991 0.29280
 H180 H 0.22112 -0.21375 0.32595
 H181 H 0.26508 -0.25937 0.26716
 H182 H 0.24407 -0.23821 0.24738
 N183 N 0.70685 0.24078 0.22302
 N184 N 0.71717 0.26133 0.21294
 C185 C 0.70369 0.26791 0.19193
 C186 C 0.68400 0.25058 0.18889
 C187 C 0.68646 0.23359 0.20881
 H188 H 0.70803 0.28381 0.17953
 H189 H 0.67460 0.21705 0.21243
 Cu190 Cu 0.74768 0.27683 0.22790
 Cu191 Cu 0.72105 0.22437 0.25332
 Cu192 Cu 0.77527 0.25212 0.28042
 N193 N 0.77799 0.29239 0.24324
 N194 N 0.78862 0.28261 0.26387
 C195 C 0.80945 0.29649 0.27027
 C196 C 0.81186 0.31590 0.25274
 C197 C 0.79174 0.31285 0.23581
 H198 H 0.82210 0.29256 0.28623
 H199 H 0.78771 0.32445 0.21919
 N200 N 0.75889 0.22123 0.29431
 N201 N 0.73825 0.21066 0.28398
 C202 C 0.73213 0.18958 0.29734
 C203 C 0.74972 0.18690 0.31687
 C204 C 0.76643 0.20713 0.31451
 H205 H 0.71635 0.17685 0.29299
 H206 H 0.78304 0.21098 0.32638
 H207 H 0.73763 0.25684 0.26859
 H208 H 0.75855 0.23629 0.24823
 C209 C 0.23926 -0.02421 0.55317
 C210 C 0.23948 -0.00086 0.56621
 C211 C 0.24135 0.02240 0.55325
 C212 C 0.24264 0.02252 0.52628
 C213 C 0.24208 -0.00097 0.51272
 C214 C 0.24023 -0.02442 0.52618
 C215 C 0.23882 -0.04737 0.51227
 C216 C 0.24014 -0.04744 0.48577
 C217 C 0.24281 -0.02454 0.47207
 C218 C 0.24324 -0.00103 0.48562
 C219 C 0.24408 0.04551 0.51250
 C220 C 0.24536 0.04544 0.48599
 C221 C 0.24476 0.02242 0.47214
 C222 C 0.24592 0.02217 0.44517
 C223 C 0.24593 -0.00117 0.43215
 C224 C 0.24448 -0.02444 0.44512
 H225 H 0.23640 -0.06556 0.52172
 H226 H 0.23875 -0.06568 0.47612
 H227 H 0.24411 0.06385 0.52204
 H228 H 0.24686 0.06371 0.47649
 H229 H 0.23901 -0.00082 0.58690
 H230 H 0.24711 -0.00122 0.41149
 C231 C 0.75731 0.02171 0.55367
 C232 C 0.75579 -0.00157 0.56662
 C233 C 0.75431 -0.02484 0.55354
 C234 C 0.75402 -0.02500 0.52654
 C235 C 0.75593 -0.00157 0.51308
 C236 C 0.75781 0.02185 0.52667
 C237 C 0.76058 0.04471 0.51291
 C238 C 0.76044 0.04472 0.48637
 C239 C 0.75754 0.02188 0.47249
 C240 C 0.75580 -0.00156 0.48596
 C241 C 0.75130 -0.04786 0.51266
 C242 C 0.75117 -0.04784 0.48612
 C243 C 0.75376 -0.02496 0.47237
 C244 C 0.75377 -0.02477 0.44536
 C245 C 0.75511 -0.00148 0.43241
 C246 C 0.75677 0.02178 0.44550
 H247 H 0.76308 0.06285 0.52254
 H248 H 0.76283 0.06288 0.47683
 H249 H 0.74896 -0.06603 0.52218
 H250 H 0.74871 -0.06600 0.47652
 H251 H 0.75561 -0.00158 0.58732
 H252 H 0.75469 -0.00144 0.41171
 C253 C 0.44553 0.24867 0.02201
 C254 C 0.43261 0.25048 -0.00137
 C255 C 0.44589 0.25038 -0.02449
 C256 C 0.47308 0.24908 -0.02438
 C257 C 0.48651 0.24737 -0.00081
 C258 C 0.47270 0.24704 0.02248
 C259 C 0.48645 0.24566 0.04559
 C260 C 0.51318 0.24450 0.04587
 C261 C 0.52728 0.24522 0.02308
 C262 C 0.51383 0.24637 -0.00051
 C263 C 0.48720 0.25022 -0.04713
 C264 C 0.51393 0.24909 -0.04684
 C265 C 0.52764 0.24686 -0.02378
 C266 C 0.55485 0.24583 -0.02329
 C267 C 0.56779 0.24479 0.00012
 C268 C 0.55448 0.24468 0.02322
 H269 H 0.47672 0.24561 0.06376
 H270 H 0.52266 0.24307 0.06423
 H271 H 0.47777 0.25235 -0.06544
 H272 H 0.52372 0.25033 -0.06495
 H273 H 0.41178 0.25153 -0.00158
 H274 H 0.58864 0.24435 0.00038
 C275 C 0.55400 0.75941 -0.02456
 C276 C 0.56717 0.75943 -0.00124
 C277 C 0.55409 0.75898 0.02198
 C278 C 0.52687 0.75895 0.02205
 C279 C 0.51320 0.75895 -0.00145
 C280 C 0.52678 0.75935 -0.02485
 C281 C 0.51281 0.76039 -0.04785
 C282 C 0.48606 0.76029 -0.04794
 C283 C 0.47218 0.75916 -0.02504
 C284 C 0.48586 0.75887 -0.00155
 C285 C 0.51298 0.75964 0.04497
 C286 C 0.48624 0.75956 0.04487
 C287 C 0.47228 0.75879 0.02185
 C288 C 0.44506 0.75867 0.02159
 C289 C 0.43188 0.75903 -0.00172
 C290 C 0.44496 0.75904 -0.02496
 H291 H 0.52242 0.76162 -0.06606
 H292 H 0.47638 0.76145 -0.06622
 H293 H 0.52264 0.76060 0.06326
 H294 H 0.47664 0.76045 0.06310
 H295 H 0.58803 0.75918 -0.00118
 H296 H 0.41103 0.75866 -0.00178
 C297 C 0.02326 0.55453 0.24789
 C298 C -0.00022 0.56758 0.24820
 C299 C -0.02365 0.55453 0.24798
 C300 C -0.02376 0.52747 0.24777
 C301 C -0.00008 0.51391 0.24751
 C302 C 0.02352 0.52747 0.24763
 C303 C 0.04672 0.51364 0.24837
 C304 C 0.04680 0.48705 0.24861
 C305 C 0.02369 0.47319 0.24817
 C306 C 0.00000 0.48674 0.24781
 C307 C -0.04686 0.51362 0.24873
 C308 C -0.04677 0.48703 0.24906
 C309 C -0.02359 0.47318 0.24841
 C310 C -0.02332 0.44615 0.24922
 C311 C 0.00017 0.43311 0.24966
 C312 C 0.02358 0.44614 0.24899
 H313 H 0.06511 0.52321 0.24920
 H314 H 0.06524 0.47751 0.24960
 H315 H -0.06528 0.52318 0.24968
 H316 H -0.06514 0.47746 0.25028
 H317 H -0.00026 0.58832 0.24836
 H318 H 0.00021 0.41238 0.25025
 C319 C 0.02174 0.44479 0.75453
 C320 C -0.00170 0.43185 0.75599
 C321 C -0.02504 0.44501 0.75788
 C322 C -0.02506 0.47206 0.75876
 C323 C -0.00147 0.48550 0.75690
 C324 C 0.02201 0.47184 0.75462
 C325 C 0.04503 0.48558 0.75189
 C326 C 0.04513 0.51217 0.75212
 C327 C 0.02221 0.52611 0.75510
 C328 C -0.00136 0.51267 0.75715
 C329 C -0.04796 0.48600 0.76191
 C330 C -0.04786 0.51260 0.76217
 C331 C -0.02486 0.52633 0.75929
 C332 C -0.02464 0.55338 0.75890
 C333 C -0.00122 0.56632 0.75719
 C334 C 0.02214 0.55317 0.75546
 H335 H 0.06324 0.47592 0.74926
 H336 H 0.06339 0.52166 0.74965
 H337 H -0.06621 0.47648 0.76440
 H338 H -0.06604 0.52229 0.76485
 H339 H -0.00177 0.41111 0.75548
 H340 H -0.00118 0.58706 0.75701
 C341 C 0.41237 0.22660 0.08224
 C342 C 0.39769 0.24822 0.08837
 C343 C 0.39916 0.27010 0.07311
 C344 C 0.41506 0.27032 0.05171
 C345 C 0.33331 0.24825 0.16546
 C346 C 0.42829 0.22680 0.06081
 C347 C 0.38060 0.24784 0.10988
 C348 C 0.36595 0.24776 0.12763
 C349 C 0.34848 0.24792 0.14815
 C350 C 0.42978 0.24871 0.04546
 H351 H 0.41128 0.20952 0.09384
 H352 H 0.38782 0.28690 0.07761
 H353 H 0.41581 0.28728 0.03992
 H354 H 0.43926 0.20985 0.05603
 C355 C 0.60267 0.77642 0.07304
 C356 C 0.60173 0.75490 0.08886
 C357 C 0.58469 0.73497 0.08316
 C358 C 0.56881 0.73646 0.06160
 C359 C 0.66561 0.74877 0.16677
 C360 C 0.58680 0.77792 0.05150
 C361 C 0.61874 0.75305 0.11053
 C362 C 0.63329 0.75158 0.12845
 C363 C 0.65062 0.74999 0.14920
 C364 C 0.56973 0.75798 0.04565
 H365 H 0.61585 0.79190 0.07721
 H366 H 0.58390 0.71819 0.09520
 H367 H 0.55603 0.72074 0.05714
 H368 H 0.58791 0.79455 0.03927
 C369 C 0.58560 0.22604 -0.08569
 C370 C 0.60246 0.24644 -0.08982
 C371 C 0.60335 0.26678 -0.07245
 C372 C 0.58755 0.26670 -0.05098
 C373 C 0.66641 0.24723 -0.16720
 C374 C 0.56979 0.22592 -0.06418
 C375 C 0.61934 0.24630 -0.11149
 C376 C 0.63384 0.24639 -0.12935
 C377 C 0.65123 0.24672 -0.14992
 C378 C 0.57062 0.24631 -0.04673
 H379 H 0.58486 0.21015 -0.09894
 H380 H 0.61641 0.28260 -0.07539
 H381 H 0.58856 0.28247 -0.03760
 H382 H 0.55709 0.20988 -0.06098
 C383 C 0.41437 0.73561 -0.08639
 C384 C 0.39711 0.75550 -0.09172
 C385 C 0.39604 0.77684 -0.07558
 C386 C 0.41201 0.77820 -0.05410
 C387 C 0.33244 0.74973 -0.16901
 C388 C 0.43037 0.73696 -0.06490
 C389 C 0.37994 0.75376 -0.11328
 C390 C 0.36524 0.75239 -0.13108
 C391 C 0.34769 0.75089 -0.15166
 C392 C 0.42931 0.75829 -0.04863
 H393 H 0.41524 0.71893 -0.09864
 H394 H 0.38265 0.79227 -0.07944
 H395 H 0.41078 0.79468 -0.04162
 H396 H 0.44332 0.72126 -0.06072
 C397 C 0.08569 0.41439 0.22841
 C398 C 0.09095 0.39874 0.24946
 C399 C 0.07455 0.39915 0.27055
 C400 C 0.05286 0.41495 0.27053
 C401 C 0.16809 0.33356 0.24992
 C402 C 0.06397 0.43022 0.22837
 C403 C 0.11264 0.38160 0.24920
 C404 C 0.13045 0.36682 0.24921
 C405 C 0.15092 0.34907 0.24948
 C406 C 0.04744 0.43062 0.24946
 H407 H 0.09817 0.41411 0.21193
 H408 H 0.07837 0.38703 0.28688
 H409 H 0.04017 0.41484 0.28684
 H410 H 0.05984 0.44191 0.21181
 C411 C 0.08605 0.58352 0.77253
 C412 C 0.08947 0.60015 0.75193
 C413 C 0.07121 0.60089 0.73222
 C414 C 0.04951 0.58523 0.73320
 C415 C 0.16697 0.66451 0.74892
 C416 C 0.06433 0.56782 0.77352
 C417 C 0.11125 0.61707 0.75131
 C418 C 0.12916 0.63165 0.75070
 C419 C 0.14974 0.64917 0.74983
 C420 C 0.04593 0.56857 0.75383
 H421 H 0.09997 0.58292 0.78795
 H422 H 0.07358 0.61377 0.71626
 H423 H 0.03538 0.58619 0.71798
 H424 H 0.06168 0.55534 0.78975
 C425 C -0.07450 0.60170 0.26907
 C426 C -0.09128 0.60157 0.24810
 C427 C -0.08624 0.58557 0.22724
 C428 C -0.06439 0.56991 0.22730
 C429 C -0.16967 0.66526 0.24922
 C430 C -0.05269 0.58606 0.26914
 C431 C -0.11324 0.61835 0.24784
 C432 C -0.13134 0.63280 0.24796
 C433 C -0.15217 0.65013 0.24847
 C434 C -0.04751 0.57003 0.24829
 H435 H -0.07815 0.61408 0.28525
 H436 H -0.09903 0.58541 0.21087
 H437 H -0.06048 0.55790 0.21092
 H438 H -0.03975 0.58653 0.28540
 C439 C -0.08838 0.41564 0.73739
 C440 C -0.09224 0.39766 0.75676
 C441 C -0.07458 0.39583 0.77693
 C442 C -0.05300 0.41170 0.77760
 C443 C -0.16894 0.33241 0.75179
 C444 C -0.06678 0.43151 0.73804
 C445 C -0.11376 0.38043 0.75550
 C446 C -0.13146 0.36562 0.75439
 C447 C -0.15183 0.34788 0.75302
 C448 C -0.04894 0.42964 0.75815
 H449 H -0.10183 0.41710 0.72161
 H450 H -0.07730 0.38190 0.79193
 H451 H -0.03930 0.40984 0.79312
 H452 H -0.06371 0.44495 0.72267
 C453 C 0.22692 0.08417 0.41288
 C454 C 0.24858 0.08883 0.39781
 C455 C 0.26957 0.07206 0.39881
 C456 C 0.26885 0.05060 0.41462
 C457 C 0.25107 0.16571 0.33335
 C458 C 0.22620 0.06271 0.42873
 C459 C 0.24904 0.11034 0.38074
 C460 C 0.24958 0.12807 0.36610
 C461 C 0.25034 0.14851 0.34859
 C462 C 0.24718 0.04580 0.42971
 H463 H 0.21051 0.09694 0.41212
 H464 H 0.28637 0.07541 0.38716
 H465 H 0.28509 0.03759 0.41497
 H466 H 0.20919 0.05906 0.43997
 C467 C 0.77680 0.07110 0.60293
 C468 C 0.75635 0.08847 0.60128
 C469 C 0.73658 0.08440 0.58351
 C470 C 0.73715 0.06293 0.56758
 C471 C 0.75190 0.16547 0.66581
 C472 C 0.77739 0.04963 0.58702
 C473 C 0.75524 0.10998 0.61841
 C474 C 0.75424 0.12773 0.63308
 C475 C 0.75301 0.14822 0.65058
 C476 C 0.75760 0.04541 0.56920
 H477 H 0.79211 0.07397 0.61673
 H478 H 0.72055 0.09761 0.58222
 H479 H 0.72148 0.05972 0.55429
 H480 H 0.79314 0.03615 0.58875
 C481 C 0.21937 -0.07441 0.60112
 C482 C 0.24047 -0.09106 0.60047
 C483 C 0.26085 -0.08623 0.58382
 C484 C 0.26020 -0.06475 0.56799
 C485 C 0.24519 -0.16821 0.66459
 C486 C 0.21872 -0.05289 0.58532
 C487 C 0.24157 -0.11262 0.61749
 C488 C 0.24259 -0.13040 0.63205
 C489 C 0.24393 -0.15093 0.64946
 C490 C 0.23912 -0.04793 0.56862
 H491 H 0.20357 -0.07789 0.61404
 H492 H 0.27737 -0.09887 0.58332
 H493 H 0.27628 -0.06100 0.55551
 H494 H 0.20242 -0.04001 0.58624
 C495 C 0.73039 -0.07377 0.39750
 C496 C 0.75043 -0.09168 0.39809
 C497 C 0.77133 -0.08802 0.41466
 C498 C 0.77227 -0.06643 0.43042
 C499 C 0.74773 -0.16901 0.33386
 C500 C 0.73131 -0.05220 0.41323
 C501 C 0.74983 -0.11334 0.38113
 C502 C 0.74924 -0.13117 0.36655
 C503 C 0.74845 -0.15172 0.34908
 C504 C 0.75223 -0.04840 0.42982
 H505 H 0.71420 -0.07634 0.38467
 H506 H 0.78701 -0.10168 0.41516
 H507 H 0.78871 -0.06360 0.44285
 H508 H 0.71581 -0.03836 0.41238
 C509 C 0.60236 0.77785 -0.07485
 C510 C 0.60160 0.75651 -0.09100
 C511 C 0.58472 0.73639 -0.08579
 C512 C 0.56881 0.73751 -0.06439
 C513 C 0.66706 0.75180 -0.16699
 C514 C 0.58647 0.77900 -0.05347
 C515 C 0.61878 0.75500 -0.11238
 C516 C 0.63361 0.75388 -0.12994
 C517 C 0.65144 0.75270 -0.15011
 C518 C 0.56956 0.75886 -0.04812
 H519 H 0.61545 0.79346 -0.07862
 H520 H 0.58410 0.71971 -0.09805
 H521 H 0.55616 0.72164 -0.06028
 H522 H 0.58747 0.79547 -0.04097
 C523 C 0.39912 0.27323 -0.07508
 C524 C 0.39916 0.25255 -0.09208
 C525 C 0.41491 0.23134 -0.08724
 C526 C 0.43045 0.23074 -0.06541
 C527 C 0.33636 0.25410 -0.17105
 C528 C 0.41466 0.27265 -0.05326
 C529 C 0.38252 0.25287 -0.11411
 C530 C 0.36827 0.25319 -0.13231
 C531 C 0.35122 0.25364 -0.15334
 C532 C 0.43048 0.25145 -0.04831
 H533 H 0.38693 0.28968 -0.07857
 H534 H 0.41497 0.21518 -0.10019
 H535 H 0.44228 0.21408 -0.06167
 H536 H 0.41430 0.28868 -0.04015
 C537 C 0.41504 0.73473 0.08268
 C538 C 0.39803 0.75471 0.08836
 C539 C 0.39684 0.77619 0.07250
 C540 C 0.41248 0.77764 0.05096
 C541 C 0.33517 0.74890 0.16637
 C542 C 0.43068 0.73615 0.06112
 C543 C 0.38131 0.75295 0.11006
 C544 C 0.36701 0.75158 0.12802
 C545 C 0.34996 0.75008 0.14881
 C546 C 0.42955 0.75766 0.04517
 H547 H 0.41602 0.71797 0.09476
 H548 H 0.38367 0.79170 0.07666
 H549 H 0.41122 0.79426 0.03873
 H550 H 0.44346 0.72040 0.05669
 C551 C 0.58527 0.26651 0.08509
 C552 C 0.60165 0.24590 0.09048
 C553 C 0.60205 0.22464 0.07423
 C554 C 0.58629 0.22403 0.05257
 C555 C 0.66566 0.24958 0.16836
 C556 C 0.56951 0.26593 0.06341
 C557 C 0.61861 0.24688 0.11222
 C558 C 0.63316 0.24772 0.13016
 C559 C 0.65053 0.24873 0.15090
 C560 C 0.56990 0.24466 0.04704
 H561 H 0.58494 0.28312 0.09744
 H562 H 0.61477 0.20867 0.07814
 H563 H 0.58698 0.20759 0.04000
 H564 H 0.55725 0.28216 0.05919
 C565 C -0.07373 0.60288 0.77880
 C566 C -0.09134 0.60163 0.75853
 C567 C -0.08762 0.58388 0.73885
 C568 C -0.06620 0.56767 0.73927
 C569 C -0.16650 0.66894 0.75470
 C570 C -0.05234 0.58668 0.77924
 C571 C -0.11255 0.61931 0.75746
 C572 C -0.12994 0.63456 0.75657
 C573 C -0.14985 0.65290 0.75554
 C574 C -0.04841 0.56899 0.75946
 H575 H -0.07633 0.61664 0.79403
 H576 H -0.10101 0.58288 0.72298
 H577 H -0.06320 0.55444 0.72365
 H578 H -0.03864 0.58812 0.79481
 C579 C -0.08560 0.41440 0.22913
 C580 C -0.09053 0.39895 0.25033
 C581 C -0.07381 0.39945 0.27134
 C582 C -0.05215 0.41518 0.27110
 C583 C -0.16797 0.33456 0.25170
 C584 C -0.06390 0.43016 0.22887
 C585 C -0.11227 0.38201 0.25033
 C586 C -0.13016 0.36741 0.25054
 C587 C -0.15073 0.34988 0.25105
 C588 C -0.04707 0.43065 0.24989
 H589 H -0.09833 0.41404 0.21271
 H590 H -0.07736 0.38747 0.28779
 H591 H -0.03922 0.41520 0.28737
 H592 H -0.06005 0.44174 0.21222
 C593 C 0.08560 0.41400 0.77119
 C594 C 0.08914 0.39774 0.75024
 C595 C 0.07086 0.39724 0.73055
 C596 C 0.04908 0.41286 0.73182
 C597 C 0.16813 0.33501 0.74580
 C598 C 0.06380 0.42963 0.77249
 C599 C 0.11117 0.38109 0.74918
 C600 C 0.12937 0.36685 0.74820
 C601 C 0.15041 0.34983 0.74695
 C602 C 0.04545 0.42921 0.75275
 H603 H 0.09955 0.41442 0.78660
 H604 H 0.07333 0.38462 0.71433
 H605 H 0.03499 0.41216 0.71655
 H606 H 0.06108 0.44188 0.78893
 C607 C 0.07428 0.60138 0.26923
 C608 C 0.09084 0.60128 0.24825
 C609 C 0.08556 0.58548 0.22728
 C610 C 0.06370 0.56995 0.22723
 C611 C 0.16929 0.66450 0.24950
 C612 C 0.05246 0.58586 0.26920
 C613 C 0.11283 0.61792 0.24810
 C614 C 0.13095 0.63224 0.24825
 C615 C 0.15180 0.64944 0.24877
 C616 C 0.04705 0.57001 0.24823
 H617 H 0.07813 0.61360 0.28550
 H618 H 0.09818 0.58534 0.21091
 H619 H 0.05962 0.55803 0.21079
 H620 H 0.03972 0.58624 0.28547
 C621 C 0.73175 -0.07392 0.60129
 C622 C 0.75190 -0.09170 0.60061
 C623 C 0.77255 -0.08797 0.58399
 C624 C 0.77316 -0.06641 0.56828
 C625 C 0.75116 -0.16816 0.66552
 C626 C 0.73234 -0.05238 0.58559
 C627 C 0.75177 -0.11322 0.61765
 C628 C 0.75162 -0.13090 0.63234
 C629 C 0.75140 -0.15119 0.65002
 C630 C 0.75302 -0.04849 0.56896
 H631 H 0.71577 -0.07655 0.61420
 H632 H 0.78832 -0.10152 0.58346
 H633 H 0.78946 -0.06346 0.55587
 H634 H 0.71679 -0.03861 0.58654
 C635 C 0.26718 -0.08686 0.41617
 C636 C 0.24778 -0.09153 0.39814
 C637 C 0.22700 -0.07460 0.39598
 C638 C 0.22570 -0.05299 0.41162
 C639 C 0.25336 -0.16945 0.33490
 C640 C 0.26590 -0.06524 0.43184
 C641 C 0.24946 -0.11328 0.38139
 C642 C 0.25077 -0.13124 0.36702
 C643 C 0.25221 -0.15198 0.34986
 C644 C 0.24512 -0.04818 0.42969
 H645 H 0.28342 -0.09977 0.41791
 H646 H 0.21194 -0.07799 0.38203
 H647 H 0.20966 -0.03991 0.40956
 H648 H 0.28123 -0.06160 0.44542
 C649 C 0.77603 0.07141 0.39682
 C650 C 0.75561 0.08880 0.39854
 C651 C 0.73590 0.08462 0.41614
 C652 C 0.73651 0.06303 0.43182
 C653 C 0.75112 0.16643 0.33504
 C654 C 0.77667 0.04982 0.41248
 C655 C 0.75450 0.11047 0.38169
 C656 C 0.75350 0.12836 0.36727
 C657 C 0.75225 0.14903 0.35004
 C658 C 0.75693 0.04551 0.43012
 H659 H 0.79131 0.07439 0.38317
 H660 H 0.71992 0.09786 0.41751
 H661 H 0.72092 0.05976 0.44502
 H662 H 0.79242 0.03636 0.41075
 C663 C 0.26671 0.08242 0.58503
 C664 C 0.24587 0.08932 0.60041
 C665 C 0.22341 0.07463 0.59996
 C666 C 0.22180 0.05304 0.58429
 C667 C 0.25181 0.16734 0.66352
 C668 C 0.26511 0.06083 0.56933
 C669 C 0.24771 0.11104 0.61719
 C670 C 0.24911 0.12899 0.63156
 C671 C 0.25062 0.14977 0.64869
 C672 C 0.24260 0.04606 0.56879
 H673 H 0.28426 0.09353 0.58540
 H674 H 0.20726 0.07971 0.61194
 H675 H 0.20441 0.04169 0.58433
 H676 H 0.28149 0.05545 0.55782
   
