data_POSCAR
  _audit_creation_date              2014-09-24
  _audit_creation_method            'ToBaCCo'
  _symmetry_space_group_name_H-M    'P1'
  _symmetry_Int_Tables_number       1
  _symmetry_cell_setting            triclinic
  loop_
  _symmetry_equiv_pos_as_xyz
 x,y,z
_cell_length_a 41.8420
_cell_length_b 31.4367
_cell_length_c 20.1728
_cell_angle_alpha 90.751400
_cell_angle_beta 89.373800
_cell_angle_gamma 90.660600
loop_
  _atom_site_label
  _atom_site_type_symbol
  _atom_site_fract_x
  _atom_site_fract_y
  _atom_site_fract_z
C1 C 0.68288 0.32072 0.52373
 C2 C 0.69216 0.29886 0.58080
 C3 C 0.72142 0.27710 0.57913
 C4 C 0.74107 0.27690 0.52169
 C5 C 0.73099 0.29917 0.46577
 C6 C 0.70173 0.32013 0.46582
 C7 C 0.77225 0.25412 0.51965
 C8 C 0.78393 0.23602 0.45981
 C9 C 0.81434 0.21755 0.45598
 C10 C 0.83222 0.21458 0.51435
 C11 C 0.82030 0.23029 0.57518
 C12 C 0.79074 0.25071 0.57713
 H13 H 0.66192 0.34041 0.52502
 H14 H 0.72846 0.25958 0.62236
 H15 H 0.74598 0.30061 0.42175
 H16 H 0.76948 0.23660 0.41562
 H17 H 0.85413 0.19675 0.51365
 H18 H 0.78232 0.26392 0.62387
 C19 C 0.18217 0.81362 0.46605
 C20 C 0.19753 0.81878 0.52749
 C21 C 0.22614 0.79688 0.53790
 C22 C 0.23969 0.77077 0.48794
 C23 C 0.22360 0.76629 0.42702
 C24 C 0.19509 0.78771 0.41571
 C25 C 0.27117 0.74976 0.49806
 C26 C 0.29183 0.74273 0.44365
 C27 C 0.32088 0.72190 0.45088
 C28 C 0.33047 0.71008 0.51438
 C29 C 0.31117 0.71852 0.57067
 C30 C 0.28099 0.73686 0.56145
 H31 H 0.16011 0.82965 0.45633
 H32 H 0.23852 0.80165 0.58432
 H33 H 0.23292 0.74583 0.38800
 H34 H 0.28538 0.75316 0.39471
 H35 H 0.35186 0.69164 0.51928
 H36 H 0.26528 0.74126 0.60393
 C37 C 0.30851 0.30996 -0.52296
 C38 C 0.29342 0.29041 -0.57742
 C39 C 0.26393 0.26952 -0.56775
 C40 C 0.24876 0.26915 -0.50478
 C41 C 0.26424 0.28975 -0.45146
 C42 C 0.29434 0.30901 -0.45964
 C43 C 0.21659 0.24854 -0.49475
 C44 C 0.20728 0.23214 -0.43247
 C45 C 0.17639 0.21536 -0.42159
 C46 C 0.15563 0.21139 -0.47588
 C47 C 0.16480 0.22589 -0.53895
 C48 C 0.19476 0.24553 -0.54725
 H49 H 0.33041 0.32789 -0.53052
 H50 H 0.25303 0.25361 -0.60981
 H51 H 0.25285 0.29149 -0.40310
 H52 H 0.22392 0.23276 -0.39175
 H53 H 0.13330 0.19433 -0.47011
 H54 H 0.20092 0.25819 -0.59539
 C55 C -0.16405 0.78075 -0.50650
 C56 C -0.17560 0.76581 -0.56808
 C57 C -0.20485 0.74347 -0.56959
 C58 C -0.22319 0.73706 -0.51163
 C59 C -0.21147 0.75349 -0.45104
 C60 C -0.18164 0.77420 -0.44774
 C61 C -0.25418 0.71280 -0.51442
 C62 C -0.26489 0.68918 -0.45947
 C63 C -0.29395 0.66672 -0.46095
 C64 C -0.31170 0.66553 -0.51956
 C65 C -0.30154 0.68840 -0.57538
 C66 C -0.27305 0.71233 -0.57216
 H67 H -0.14242 0.79969 -0.50400
 H68 H -0.21299 0.73043 -0.61647
 H69 H -0.22549 0.75045 -0.40592
 H70 H -0.25067 0.68793 -0.41505
 H71 H -0.33280 0.64543 -0.52242
 H72 H -0.26591 0.73072 -0.61491
 O73 O -0.03238 0.94016 0.11061
 O74 O 0.03659 0.98925 -0.13639
 O75 O -0.05734 0.95593 -0.06777
 O76 O 0.04969 0.93632 0.05198
 O77 O -0.01010 0.94224 -0.10285
 O78 O 0.02405 0.95650 0.13913
 O79 O 0.04875 0.94802 -0.06115
 O80 O -0.06913 0.96791 0.04977
 C81 C -0.05963 0.93844 0.08650
 C82 C 0.05370 0.95995 -0.11846
 C83 C -0.03868 0.93162 -0.09865
 C84 C 0.04256 0.93136 0.11103
 O85 O 0.01350 1.03665 0.13855
 O86 O -0.02042 1.01085 -0.16525
 O87 O -0.05178 1.05239 0.03352
 O88 O 0.05693 1.03539 -0.04080
 O89 O 0.01172 1.05382 -0.08376
 O90 O -0.04569 1.02069 0.12498
 O91 O 0.05716 1.02042 0.08101
 O92 O -0.04538 1.04100 -0.08250
 Co93 Co -0.00958 0.98892 0.11691
 Co94 Co -0.00043 0.99792 -0.08960
 Co95 Co -0.05120 1.00305 -0.01436
 Co96 Co 0.04873 0.98600 0.00733
 O97 O -0.00164 0.99247 0.00960
 C98 C 0.04286 1.04203 0.12588
 C99 C -0.04347 1.03487 -0.14478
 C100 C -0.05466 1.05247 0.09454
 C101 C 0.04019 1.06260 -0.07027
 O102 O 0.47634 0.42250 0.07197
 O103 O 0.52372 0.47939 -0.12730
 O104 O 0.43473 0.46253 -0.06835
 O105 O 0.57538 0.47151 0.05006
 O106 O 0.46687 0.49706 -0.13662
 O107 O 0.53199 0.43752 0.07455
 O108 O 0.54065 0.44281 -0.04367
 O109 O 0.43205 0.45420 0.05625
 C110 C 0.44678 0.42149 0.07212
 C111 C 0.53597 0.44584 -0.10478
 C112 C 0.44486 0.46986 -0.12602
 C113 C 0.56100 0.44437 0.08806
 O114 O 0.52040 0.51450 0.13384
 O115 O 0.47874 0.57316 -0.07500
 O116 O 0.43788 0.53731 0.06970
 O117 O 0.56775 0.51379 -0.05877
 O118 O 0.53243 0.55900 -0.06608
 O119 O 0.46351 0.49666 0.13724
 O120 O 0.54614 0.54150 0.05166
 O121 O 0.43345 0.54398 -0.05393
 Co122 Co 0.49776 0.47039 0.09596
 Co123 Co 0.50017 0.52479 -0.09361
 Co124 Co 0.44010 0.49936 0.00127
 Co125 Co 0.54140 0.49181 0.00590
 O126 O 0.49281 0.49828 -0.00016
 C127 C 0.53825 0.54320 0.11122
 C128 C 0.44931 0.57509 -0.07403
 C129 C 0.44683 0.52903 0.12695
 C130 C 0.56010 0.54879 -0.07995
 C131 C 0.30674 0.29489 0.35451
 C132 C 0.33941 0.30094 0.34215
 C133 C 0.35307 0.31714 0.27904
 C134 C 0.33464 0.33909 0.23293
 C135 C 0.34936 0.35960 0.17928
 C136 C 0.38268 0.35860 0.17028
 C137 C 0.40091 0.33520 0.21502
 C138 C 0.38622 0.31481 0.26867
 C139 C 0.39772 0.38642 0.11944
 C140 C 0.42993 0.38457 0.10074
 H141 H 0.35594 0.29529 0.38195
 H142 H 0.30913 0.34249 0.23980
 H143 H 0.33475 0.37775 0.14611
 H144 H 0.42667 0.33427 0.21130
 H145 H 0.40103 0.29852 0.30376
 H146 H 0.38352 0.41221 0.10083
 H147 H 0.29020 0.29444 0.31363
 H148 H 0.44428 0.35785 0.11488
 C149 C -0.15985 0.77417 0.37139
 C150 C -0.12869 0.79025 0.36594
 C151 C -0.11492 0.80570 0.30290
 C152 C -0.13382 0.82493 0.25464
 C153 C -0.11949 0.84425 0.19950
 C154 C -0.08605 0.84445 0.19178
 C155 C -0.06749 0.82332 0.23836
 C156 C -0.08174 0.80461 0.29371
 C157 C -0.06908 0.86903 0.14002
 C158 C -0.08159 0.90463 0.10905
 H159 H -0.11313 0.79051 0.40838
 H160 H -0.15949 0.82685 0.26091
 H161 H -0.13458 0.85967 0.16414
 H162 H -0.04168 0.82298 0.23361
 H163 H -0.06671 0.79008 0.33029
 H164 H -0.04359 0.86377 0.13504
 H165 H -0.17251 0.76735 0.32580
 H166 H -0.10697 0.91065 0.10913
 C167 C 0.68076 0.68515 0.36133
 C168 C 0.64794 0.67625 0.35932
 C169 C 0.63042 0.66241 0.29903
 C170 C 0.59690 0.66024 0.30210
 C171 C 0.57941 0.64200 0.25014
 C172 C 0.59517 0.62505 0.19399
 C173 C 0.62854 0.62932 0.18916
 C174 C 0.64608 0.64753 0.24125
 C175 C 0.57784 0.60055 0.14198
 C176 C 0.55022 0.57683 0.15608
 H177 H 0.63433 0.67795 0.40524
 H178 H 0.58418 0.67166 0.34577
 H179 H 0.55364 0.64060 0.25471
 H180 H 0.64125 0.61669 0.14629
 H181 H 0.67185 0.64801 0.23703
 H182 H 0.58956 0.59593 0.09429
 H183 H 0.69412 0.68944 0.31566
 H184 H 0.53970 0.57821 0.20528
 C185 C 0.14519 1.21713 0.40148
 C186 C 0.11317 1.20406 0.40430
 C187 C 0.09647 1.18216 0.34887
 C188 C 0.11290 1.16543 0.29328
 C189 C 0.09684 1.14048 0.24619
 C190 C 0.06407 1.13112 0.25406
 C191 C 0.04747 1.14924 0.30807
 C192 C 0.06350 1.17432 0.35503
 C193 C 0.04651 1.10169 0.20901
 C194 C 0.06123 1.07411 0.16348
 H195 H 0.09993 1.20800 0.45028
 H196 H 0.13836 1.17001 0.28670
 H197 H 0.11051 1.12827 0.20455
 H198 H 0.02217 1.14289 0.31515
 H199 H 0.05023 1.18667 0.39735
 H200 H 0.02076 1.09969 0.21501
 H201 H 0.15716 1.21917 0.35384
 H202 H 0.08684 1.07459 0.15614
 C203 C 0.67371 0.30005 -0.36016
 C204 C 0.64165 0.31271 -0.35790
 C205 C 0.62375 0.32469 -0.29675
 C206 C 0.59050 0.32943 -0.30079
 C207 C 0.57305 0.34708 -0.24803
 C208 C 0.58858 0.36080 -0.19003
 C209 C 0.62150 0.35364 -0.18419
 C210 C 0.63904 0.33602 -0.23719
 C211 C 0.57158 0.38512 -0.13725
 C212 C 0.54676 0.41276 -0.15175
 H213 H 0.62855 0.31449 -0.40370
 H214 H 0.57806 0.32074 -0.34590
 H215 H 0.54754 0.35080 -0.25342
 H216 H 0.63399 0.36376 -0.13983
 H217 H 0.66466 0.33340 -0.23237
 H218 H 0.58186 0.38638 -0.08817
 H219 H 0.68463 0.28993 -0.31466
 H220 H 0.53840 0.41491 -0.20216
 C221 C 0.18499 0.84459 -0.42103
 C222 C 0.16012 0.87348 -0.42927
 C223 C 0.14340 0.89550 -0.37399
 C224 C 0.14360 0.88039 -0.30871
 C225 C 0.12504 0.89998 -0.25926
 C226 C 0.10564 0.93479 -0.27431
 C227 C 0.10617 0.95040 -0.33913
 C228 C 0.12470 0.93087 -0.38843
 C229 C 0.08408 0.95534 -0.22509
 C230 C 0.07672 0.93888 -0.16283
 H231 H 0.15267 0.88174 -0.47850
 H232 H 0.15718 0.85269 -0.29583
 H233 H 0.12592 0.88726 -0.20986
 H234 H 0.09163 0.97728 -0.35213
 H235 H 0.12399 0.94306 -0.43838
 H236 H 0.07231 0.98425 -0.23971
 H237 H 0.19579 0.84271 -0.37264
 H238 H 0.08758 0.91013 -0.14558
 C239 C 0.32081 0.70736 -0.36504
 C240 C 0.35273 0.69935 -0.34918
 C241 C 0.36359 0.68150 -0.28577
 C242 C 0.39613 0.68513 -0.27043
 C243 C 0.40868 0.66391 -0.21643
 C244 C 0.38889 0.63827 -0.17616
 C245 C 0.35605 0.63586 -0.19011
 C246 C 0.34345 0.65728 -0.24430
 C247 C 0.40209 0.61002 -0.12483
 C248 C 0.43379 0.61195 -0.10360
 H249 H 0.37138 0.70750 -0.38451
 H250 H 0.41223 0.70330 -0.30189
 H251 H 0.43416 0.66623 -0.20904
 H252 H 0.34027 0.61605 -0.16045
 H253 H 0.31836 0.65306 -0.25532
 H254 H 0.38709 0.58385 -0.10814
 H255 H 0.30311 0.70706 -0.32547
 H256 H 0.44901 0.63866 -0.11637
 C257 C -0.16357 1.22101 -0.36179
 C258 C -0.13097 1.21228 -0.35894
 C259 C -0.11660 1.18624 -0.30670
 C260 C -0.08780 1.16563 -0.32159
 C261 C -0.07498 1.13681 -0.27748
 C262 C -0.09072 1.12801 -0.21722
 C263 C -0.11851 1.15040 -0.20043
 C264 C -0.13149 1.17917 -0.24481
 C265 C -0.07820 1.09653 -0.17064
 C266 C -0.05961 1.06229 -0.19171
 H267 H -0.11606 1.21972 -0.40155
 H268 H -0.07560 1.17091 -0.36847
 H269 H -0.05271 1.12160 -0.29081
 H270 H -0.13061 1.14490 -0.15351
 H271 H -0.15317 1.19535 -0.23040
 H272 H -0.08406 1.10016 -0.11842
 H273 H -0.17866 1.21697 -0.31847
 H274 H -0.05528 1.05651 -0.24401
 C275 C 0.69484 0.64435 -0.40084
 C276 C 0.66235 0.63918 -0.38644
 C277 C 0.64959 0.61947 -0.32541
 C278 C 0.61782 0.62766 -0.30726
 C279 C 0.60418 0.60905 -0.25126
 C280 C 0.62210 0.58172 -0.21184
 C281 C 0.65377 0.57292 -0.23041
 C282 C 0.66752 0.59174 -0.28660
 C283 C 0.60741 0.55971 -0.15453
 C284 C 0.58071 0.57566 -0.12122
 H285 H 0.64517 0.65290 -0.41952
 H286 H 0.60334 0.64833 -0.33690
 H287 H 0.57927 0.61522 -0.24050
 H288 H 0.66781 0.55124 -0.20164
 H289 H 0.69180 0.58364 -0.30014
 H290 H 0.61669 0.52904 -0.14079
 H291 H 0.71240 0.63557 -0.36465
 H292 H 0.57231 0.60728 -0.13159
 C293 C 0.16745 1.20157 -0.35766
 C294 C 0.13559 1.19539 -0.33752
 C295 C 0.12581 1.17698 -0.27319
 C296 C 0.14429 1.14652 -0.24129
 C297 C 0.13204 1.12516 -0.18586
 C298 C 0.10117 1.13375 -0.16125
 C299 C 0.08364 1.16630 -0.19083
 C300 C 0.09571 1.18719 -0.24662
 C301 C 0.08726 1.10560 -0.10938
 C302 C 0.05443 1.10194 -0.09662
 H303 H 0.11654 1.20632 -0.36867
 H304 H 0.16743 1.13752 -0.26105
 H305 H 0.14618 1.10040 -0.16409
 H306 H 0.06028 1.17525 -0.17260
 H307 H 0.08112 1.21081 -0.27009
 H308 H 0.10277 1.08197 -0.08855
 H309 H 0.18590 1.19806 -0.32089
 H310 H 0.03799 1.12405 -0.11787
 C311 C 0.30963 0.32963 -0.40160
 C312 C 0.34274 0.33440 -0.39603
 C313 C 0.35851 0.35515 -0.33860
 C314 C 0.38997 0.37032 -0.34647
 C315 C 0.40572 0.39059 -0.29398
 C316 C 0.39024 0.39607 -0.23226
 C317 C 0.35919 0.37964 -0.22370
 C318 C 0.34341 0.35941 -0.27623
 C319 C 0.40577 0.41800 -0.17564
 C320 C 0.43091 0.44715 -0.18298
 H321 H 0.35801 0.32321 -0.43608
 H322 H 0.40235 0.36673 -0.39363
 H323 H 0.43008 0.40133 -0.30194
 H324 H 0.34698 0.38277 -0.17628
 H325 H 0.31967 0.34675 -0.26714
 H326 H 0.39585 0.41275 -0.12653
 H327 H 0.29413 0.34017 -0.36160
 H328 H 0.44006 0.45496 -0.23171
 C329 C -0.17010 0.79084 -0.38291
 C330 C -0.13757 0.79566 -0.36862
 C331 C -0.12498 0.81585 -0.30707
 C332 C -0.09270 0.81027 -0.29131
 C333 C -0.07902 0.83170 -0.23716
 C334 C -0.09735 0.85974 -0.19773
 C335 C -0.12992 0.86417 -0.21223
 C336 C -0.14360 0.84270 -0.26631
 C337 C -0.08343 0.88706 -0.14431
 C338 C -0.05065 0.89373 -0.13481
 H339 H -0.12022 0.78358 -0.40415
 H340 H -0.07780 0.78971 -0.32176
 H341 H -0.05405 0.82651 -0.22748
 H342 H -0.14468 0.88556 -0.18293
 H343 H -0.16837 0.84862 -0.27722
 H344 H -0.09983 0.90700 -0.11631
 H345 H -0.18776 0.79758 -0.34477
 H346 H -0.03325 0.87501 -0.16183
 C347 C 0.33885 0.70929 0.39019
 C348 C 0.37068 0.69631 0.38985
 C349 C 0.38534 0.67337 0.33293
 C350 C 0.41006 0.64483 0.34505
 C351 C 0.42248 0.61943 0.29384
 C352 C 0.41037 0.62223 0.22928
 C353 C 0.38698 0.65255 0.21644
 C354 C 0.37454 0.67791 0.26765
 C355 C 0.42149 0.59446 0.17416
 C356 C 0.43661 0.55568 0.18337
 H357 H 0.38449 0.69898 0.43474
 H358 H 0.41919 0.64130 0.39470
 H359 H 0.44146 0.59779 0.30533
 H360 H 0.37781 0.65604 0.16681
 H361 H 0.35647 0.70082 0.25572
 H362 H 0.41622 0.60408 0.12408
 H363 H 0.32540 0.70740 0.34476
 H364 H 0.44139 0.54436 0.23261
 C365 C -0.17468 1.20023 0.39523
 C366 C -0.14247 1.19165 0.38168
 C367 C -0.13174 1.16609 0.32383
 C368 C -0.14918 1.13009 0.30263
 C369 C -0.13621 1.10226 0.25514
 C370 C -0.10606 1.11056 0.22670
 C371 C -0.08922 1.14757 0.24566
 C372 C -0.10180 1.17478 0.29458
 C373 C -0.09114 1.07780 0.18387
 C374 C -0.07121 1.08704 0.12997
 H375 H -0.12411 1.20475 0.41364
 H376 H -0.17199 1.12214 0.32541
 H377 H -0.14938 1.07360 0.24175
 H378 H -0.06562 1.15419 0.22549
 H379 H -0.08778 1.20207 0.31088
 H380 H -0.09647 1.04477 0.19476
 H381 H -0.19172 1.19461 0.35588
 H382 H -0.06874 1.11934 0.11247
 C383 C 0.69165 0.34204 0.40512
 C384 C 0.65943 0.34764 0.39060
 C385 C 0.64729 0.36883 0.33098
 C386 C 0.61416 0.36845 0.32137
 C387 C 0.60102 0.38804 0.26671
 C388 C 0.62079 0.40820 0.21954
 C389 C 0.65391 0.40945 0.22961
 C390 C 0.66714 0.38990 0.28475
 C391 C 0.60726 0.42958 0.16147
 C392 C 0.57733 0.41857 0.13664
 H393 H 0.64164 0.33427 0.42394
 H394 H 0.59824 0.35315 0.35669
 H395 H 0.57527 0.38801 0.26271
 H396 H 0.66957 0.42548 0.19461
 H397 H 0.69273 0.39185 0.29075
 H398 H 0.62089 0.45504 0.13847
 H399 H 0.70997 0.35112 0.36974
 H400 H 0.56412 0.39176 0.15643
 C401 C 0.18034 0.78600 0.34924
 C402 C 0.14739 0.78991 0.34126
 C403 C 0.13199 0.80451 0.27990
 C404 C 0.09849 0.80349 0.27726
 C405 C 0.08246 0.82404 0.22671
 C406 C 0.09965 0.84647 0.17790
 C407 C 0.13315 0.84483 0.17747
 C408 C 0.14926 0.82430 0.22826
 C409 C 0.08329 0.87439 0.13072
 C410 C 0.05628 0.89718 0.15026
 H411 H 0.13209 0.78567 0.38443
 H412 H 0.08458 0.78825 0.31605
 H413 H 0.05659 0.82343 0.22714
 H414 H 0.14690 0.86162 0.14004
 H415 H 0.17507 0.82620 0.22866
 H416 H 0.09495 0.88166 0.08393
 H417 H 0.19597 0.78381 0.30629
 H418 H 0.04648 0.89296 0.19966
   
