data_POSCAR
  _audit_creation_date              2014-09-24
  _audit_creation_method            'ToBaCCo'
  _symmetry_space_group_name_H-M    'P1'
  _symmetry_Int_Tables_number       1
  _symmetry_cell_setting            triclinic
  loop_
  _symmetry_equiv_pos_as_xyz
 x,y,z
_cell_length_a 49.9095
_cell_length_b 11.1728
_cell_length_c 13.4825
_cell_angle_alpha 96.074600
_cell_angle_beta 89.974000
_cell_angle_gamma 90.099700
loop_
  _atom_site_label
  _atom_site_type_symbol
  _atom_site_fract_x
  _atom_site_fract_y
  _atom_site_fract_z
C1 C 0.74484 0.21207 0.43805
 C2 C 0.74501 0.20289 0.53890
 C3 C 0.72005 0.18869 0.59815
 C4 C 0.77057 0.21003 0.59548
 C5 C 0.77027 0.21470 0.38036
 C6 C 0.71944 0.22413 0.38248
 C7 C 0.71740 0.24802 0.69481
 C8 C 0.69325 0.24326 0.74691
 C9 C 0.67038 0.18697 0.70114
 C10 C 0.67460 0.11396 0.61025
 C11 C 0.69901 0.11425 0.56054
 C12 C 0.78736 0.31080 0.59480
 C13 C 0.81270 0.31112 0.63855
 C14 C 0.82136 0.21106 0.68408
 C15 C 0.80369 0.11523 0.69292
 C16 C 0.77839 0.11467 0.64877
 C17 C 0.78954 0.12378 0.38436
 C18 C 0.81488 0.13570 0.34244
 C19 C 0.82133 0.23825 0.29564
 C20 C 0.80154 0.32472 0.28482
 C21 C 0.77613 0.31288 0.32685
 C22 C 0.71178 0.13566 0.30587
 C23 C 0.68560 0.13394 0.26806
 C24 C 0.66700 0.22177 0.30541
 C25 C 0.67582 0.31785 0.37303
 C26 C 0.70161 0.31771 0.41241
 H27 H 0.73380 0.30029 0.72962
 H28 H 0.69253 0.28519 0.82303
 H29 H 0.65858 0.06367 0.57164
 H30 H 0.70079 0.06041 0.48999
 H31 H 0.78116 0.38669 0.55697
 H32 H 0.82606 0.38633 0.63230
 H33 H 0.76544 0.03747 0.65198
 H34 H 0.78532 0.04630 0.42378
 H35 H 0.82986 0.06716 0.34961
 H36 H 0.80614 0.40376 0.24790
 H37 H 0.76154 0.38342 0.32207
 H38 H 0.72541 0.06343 0.28064
 H39 H 0.67945 0.06066 0.21377
 H40 H 0.66216 0.38918 0.40006
 H41 H 0.70718 0.38709 0.47006
 H42 H 0.81007 0.03845 0.72937
 C43 C 0.25446 0.78945 0.44859
 C44 C 0.25495 0.79751 0.55044
 C45 C 0.22963 0.78389 0.60612
 C46 C 0.28055 0.81458 0.60744
 C47 C 0.27918 0.78472 0.38790
 C48 C 0.22879 0.78905 0.39511
 C49 C 0.21448 0.88515 0.64141
 C50 C 0.18861 0.87123 0.67921
 C51 C 0.17750 0.75576 0.68157
 C52 C 0.19328 0.65492 0.65072
 C53 C 0.21908 0.66869 0.61297
 C54 C 0.29997 0.89630 0.58009
 C55 C 0.32606 0.89317 0.61593
 C56 C 0.33258 0.81845 0.68905
 C57 C 0.31260 0.74474 0.72406
 C58 C 0.28686 0.74140 0.68260
 C59 C 0.29859 0.69736 0.40104
 C60 C 0.32379 0.70492 0.35826
 C61 C 0.32964 0.79679 0.29798
 C62 C 0.30992 0.88118 0.28086
 C63 C 0.28471 0.87490 0.32539
 C64 C 0.21591 0.68066 0.36272
 C65 C 0.18944 0.68205 0.32934
 C66 C 0.17554 0.79118 0.33109
 C67 C 0.18933 0.89981 0.35583
 C68 C 0.21600 0.89833 0.38614
 H69 H 0.22231 0.97461 0.63612
 H70 H 0.17689 0.95051 0.70333
 H71 H 0.18510 0.56578 0.65244
 H72 H 0.23056 0.58976 0.58587
 H73 H 0.29558 0.95625 0.52490
 H74 H 0.34127 0.94670 0.58435
 H75 H 0.27232 0.67827 0.70632
 H76 H 0.29461 0.62678 0.44832
 H77 H 0.33879 0.63851 0.37167
 H78 H 0.31408 0.95152 0.23351
 H79 H 0.26997 0.94321 0.31444
 H80 H 0.22601 0.59572 0.36707
 H81 H 0.17937 0.59839 0.30581
 H82 H 0.17913 0.98514 0.35606
 H83 H 0.22660 0.98161 0.40639
 H84 H 0.31716 0.68701 0.78093
 C85 C 0.24347 0.29139 -0.44907
 C86 C 0.24519 0.29941 -0.55002
 C87 C 0.27172 0.28326 -0.60131
 C88 C 0.22089 0.31795 -0.61240
 C89 C 0.21755 0.27239 -0.39899
 C90 C 0.26788 0.29837 -0.38573
 C91 C 0.28062 0.36384 -0.66737
 C92 C 0.30631 0.35188 -0.70903
 C93 C 0.32385 0.26169 -0.68257
 C94 C 0.31490 0.18152 -0.61652
 C95 C 0.28871 0.18887 -0.58052
 C96 C 0.19957 0.39082 -0.57432
 C97 C 0.17509 0.38945 -0.62406
 C98 C 0.17143 0.32060 -0.71689
 C99 C 0.19445 0.26628 -0.76290
 C100 C 0.21851 0.26078 -0.70998
 C101 C 0.19982 0.18338 -0.43971
 C102 C 0.17365 0.17951 -0.40546
 C103 C 0.16423 0.26703 -0.33109
 C104 C 0.18310 0.34599 -0.28094
 C105 C 0.20958 0.34879 -0.31501
 C106 C 0.27437 0.20415 -0.32873
 C107 C 0.29946 0.20131 -0.28265
 C108 C 0.31821 0.29323 -0.29236
 C109 C 0.31126 0.38900 -0.34705
 C110 C 0.28613 0.39298 -0.39124
 H111 H 0.26791 0.43714 -0.68509
 H112 H 0.31286 0.41557 -0.75923
 H113 H 0.32783 0.11044 -0.59575
 H114 H 0.28176 0.12308 -0.53344
 H115 H 0.20123 0.44414 -0.50308
 H116 H 0.15870 0.43809 -0.58625
 H117 H 0.23497 0.20893 -0.74461
 H118 H 0.20572 0.12166 -0.50225
 H119 H 0.16048 0.11023 -0.43994
 H120 H 0.17703 0.41273 -0.22111
 H121 H 0.22319 0.41652 -0.28064
 H122 H 0.26060 0.12993 -0.32426
 H123 H 0.30447 0.12639 -0.24129
 H124 H 0.32554 0.45980 -0.35734
 H125 H 0.28142 0.46669 -0.43435
 H126 H 0.19371 0.22456 -0.83907
 C127 C -0.24558 0.71598 -0.44450
 C128 C -0.24465 0.71004 -0.54615
 C129 C -0.21894 0.69775 -0.60166
 C130 C -0.26969 0.71843 -0.60386
 C131 C -0.27167 0.71592 -0.39269
 C132 C -0.22099 0.71785 -0.38269
 C133 C -0.21160 0.78290 -0.66603
 C134 C -0.18540 0.78561 -0.70265
 C135 C -0.16598 0.70464 -0.67356
 C136 C -0.17436 0.61160 -0.61823
 C137 C -0.20057 0.60785 -0.58315
 C138 C -0.28243 0.82950 -0.60534
 C139 C -0.30853 0.83529 -0.64231
 C140 C -0.32251 0.72973 -0.67784
 C141 C -0.30838 0.61969 -0.68486
 C142 C -0.28237 0.61413 -0.64717
 C143 C -0.28593 0.60834 -0.39358
 C144 C -0.31281 0.60945 -0.36553
 C145 C -0.32579 0.71861 -0.33299
 C146 C -0.31025 0.82471 -0.32077
 C147 C -0.28357 0.82379 -0.35271
 C148 C -0.21674 0.62892 -0.31803
 C149 C -0.19232 0.62310 -0.26781
 C150 C -0.17213 0.70748 -0.28044
 C151 C -0.17670 0.79824 -0.34273
 C152 C -0.20096 0.80391 -0.39295
 H153 H -0.22563 0.85160 -0.68315
 H154 H -0.17987 0.85676 -0.74745
 H155 H -0.16039 0.54336 -0.60010
 H156 H -0.20613 0.53844 -0.53703
 H157 H -0.27228 0.91077 -0.57491
 H158 H -0.31796 0.92226 -0.64210
 H159 H -0.27264 0.52783 -0.64724
 H160 H -0.27628 0.52440 -0.41947
 H161 H -0.32360 0.52495 -0.37167
 H162 H -0.31922 0.90985 -0.29331
 H163 H -0.27264 0.90769 -0.35047
 H164 H -0.23195 0.56166 -0.30907
 H165 H -0.18908 0.55270 -0.21975
 H166 H -0.16122 0.86371 -0.35350
 H167 H -0.20384 0.87336 -0.44218
 H168 H -0.31801 0.53634 -0.71348
 N169 N 0.02312 1.19374 -0.12119
 N170 N 0.04337 1.26676 -0.13370
 N171 N -0.03141 1.07442 -0.18179
 N172 N -0.05284 1.06326 -0.23891
 N173 N -0.03301 1.17165 -0.11834
 N174 N -0.05562 1.22943 -0.13142
 N175 N 0.02442 1.09733 -0.18577
 N176 N 0.04538 1.10258 -0.24443
 C177 C 0.05675 1.20940 -0.21196
 C178 C -0.06762 1.16149 -0.20830
 N179 N -0.02474 0.75409 -0.09461
 N180 N -0.04743 0.69389 -0.08755
 N181 N 0.02988 0.84310 -0.17250
 N182 N 0.05150 0.83471 -0.22908
 N183 N 0.03237 0.77764 -0.09764
 N184 N 0.05615 0.72489 -0.10048
 N185 N -0.02613 0.82101 -0.16890
 N186 N -0.04947 0.80683 -0.21424
 Mn187 Mn -0.00078 0.95866 -0.17816
 C188 C -0.06233 0.72525 -0.16461
 C189 C 0.06756 0.75934 -0.18439
 N190 N -0.03268 1.21723 0.09588
 N191 N -0.05622 1.27176 0.09831
 N192 N 0.02561 1.17216 0.16700
 N193 N 0.04898 1.18603 0.21222
 N194 N 0.02425 1.23934 0.09277
 N195 N 0.04695 1.29974 0.08589
 N196 N -0.03054 1.15113 0.17038
 N197 N -0.05228 1.16050 0.22627
 Mn198 Mn -0.00464 1.20718 -0.01264
 C199 C -0.06794 1.23752 0.18149
 C200 C 0.06188 1.26780 0.16271
 N201 N 0.03213 0.82177 0.11742
 N202 N 0.05395 0.76026 0.13420
 N203 N -0.02545 0.89620 0.18426
 N204 N -0.04683 0.89201 0.24126
 N205 N -0.02411 0.79988 0.11942
 N206 N -0.04483 0.72850 0.12989
 N207 N 0.03040 0.91847 0.18138
 N208 N 0.05095 0.92556 0.24288
 Mn209 Mn 0.00402 0.78660 0.01104
 Mn210 Mn -0.00002 1.03491 0.17675
 Cl211 Cl -0.00028 0.99681 -0.00067
 C212 C 0.06532 0.82552 0.21382
 C213 C -0.05848 0.78627 0.20735
 N214 N 0.53299 0.68331 -0.10695
 N215 N 0.55505 0.74540 -0.12179
 N216 N 0.47435 0.62142 -0.17588
 N217 N 0.45241 0.63451 -0.22837
 N218 N 0.47671 0.71066 -0.10477
 N219 N 0.45643 0.78605 -0.10743
 N220 N 0.53031 0.59420 -0.17770
 N221 N 0.55032 0.59222 -0.24108
 C222 C 0.56549 0.68776 -0.20727
 C223 C 0.44128 0.73777 -0.18486
 N224 N 0.46719 0.28393 -0.12102
 N225 N 0.44298 0.23554 -0.12429
 N226 N 0.52510 0.33903 -0.18630
 N227 N 0.54864 0.33198 -0.23080
 N228 N 0.52371 0.26158 -0.11955
 N229 N 0.54632 0.20035 -0.11747
 N230 N 0.46909 0.36268 -0.18640
 N231 N 0.44647 0.36915 -0.23581
 Mn232 Mn 0.49960 0.47910 -0.18245
 C233 C 0.43047 0.28826 -0.19740
 C234 C 0.56142 0.24364 -0.18879
 N235 N 0.47636 0.72606 0.11034
 N236 N 0.45468 0.79432 0.11353
 N237 N 0.53020 0.62221 0.17697
 N238 N 0.55199 0.62227 0.23240
 N239 N 0.53285 0.69806 0.10934
 N240 N 0.55661 0.75074 0.11660
 N241 N 0.47444 0.64796 0.17634
 N242 N 0.45185 0.66251 0.22656
 Mn243 Mn 0.50488 0.70622 0.00234
 C244 C 0.43985 0.75528 0.18797
 C245 C 0.56805 0.70407 0.19490
 N246 N 0.52329 0.27812 0.09509
 N247 N 0.54441 0.20735 0.09985
 N248 N 0.46776 0.38847 0.16510
 N249 N 0.44571 0.38988 0.21980
 N250 N 0.46688 0.29894 0.09369
 N251 N 0.44440 0.23740 0.09829
 N252 N 0.52390 0.36564 0.16816
 N253 N 0.54508 0.35622 0.22476
 Mn254 Mn 0.49526 0.27912 -0.01320
 Mn255 Mn 0.49897 0.50625 0.17272
 Cl256 Cl 0.49960 0.49286 -0.00506
 C257 C 0.55747 0.25635 0.18259
 C258 C 0.43119 0.29522 0.17679
 C259 C 0.39779 0.27770 0.31013
 C260 C 0.37169 0.26755 0.34523
 C261 C 0.35003 0.25227 0.27882
 C262 C 0.35520 0.23321 0.17497
 C263 C 0.38197 0.23744 0.13906
 C264 C 0.40341 0.26623 0.20766
 C265 C 0.38582 0.21969 0.03506
 N266 N 0.36465 0.19871 -0.02722
 N267 N 0.33974 0.19251 0.00669
 C268 C 0.33432 0.20762 0.10549
 H269 H 0.41377 0.29732 0.36382
 H270 H 0.36822 0.28039 0.42504
 H271 H 0.40513 0.22462 0.00148
 H272 H 0.31375 0.19859 0.12864
 C273 C -0.10613 0.74823 0.17145
 C274 C -0.13250 0.73408 0.20150
 C275 C -0.13877 0.71757 0.30087
 C276 C -0.11743 0.71761 0.37179
 C277 C -0.09059 0.73318 0.34042
 C278 C -0.08515 0.75034 0.24006
 C279 C -0.06988 0.73303 0.41120
 N280 N -0.07577 0.72328 0.50808
 N281 N -0.10095 0.71463 0.53888
 C282 C -0.12189 0.71263 0.47471
 H283 H -0.10216 0.76201 0.09451
 H284 H -0.14814 0.73386 0.14572
 H285 H -0.04907 0.74085 0.39040
 H286 H -0.14170 0.71042 0.50589
 C287 C 0.61582 0.65715 0.17285
 C288 C 0.64228 0.66077 0.20541
 C289 C 0.65016 0.73267 0.29284
 C290 C 0.62999 0.80187 0.34878
 C291 C 0.60305 0.79873 0.31376
 C292 C 0.59609 0.72464 0.22618
 C293 C 0.58353 0.86681 0.36970
 N294 N 0.59016 0.92897 0.45793
 N295 N 0.61493 0.92684 0.49405
 C296 C 0.63490 0.86506 0.44339
 H297 H 0.61059 0.59881 0.10631
 H298 H 0.65682 0.60794 0.16007
 H299 H 0.56298 0.86992 0.34462
 H300 H 0.65393 0.86150 0.48060
 C301 C 0.10068 1.39439 0.22149
 C302 C 0.12728 1.40482 0.25300
 C303 C 0.14529 1.30654 0.24004
 C304 C 0.13561 1.19586 0.18837
 C305 C 0.10895 1.18930 0.15082
 C306 C 0.09111 1.28659 0.17283
 C307 C 0.10038 1.08272 0.09481
 N308 N 0.11668 0.98585 0.08310
 N309 N 0.14073 0.98760 0.12544
 C310 C 0.15042 1.08745 0.17939
 H311 H 0.08725 1.46989 0.23855
 H312 H 0.13362 1.49152 0.28870
 H313 H 0.08086 1.07563 0.06022
 H314 H 0.16921 1.07812 0.21625
 C315 C 0.59987 0.11747 -0.24666
 C316 C 0.62656 0.10551 -0.27515
 C317 C 0.64506 0.20232 -0.25963
 C318 C 0.63553 0.31325 -0.20687
 C319 C 0.60859 0.32078 -0.17232
 C320 C 0.59051 0.22533 -0.19859
 C321 C 0.60003 0.42626 -0.11469
 N322 N 0.61656 0.52234 -0.09968
 N323 N 0.64079 0.52084 -0.14050
 C324 C 0.65047 0.42177 -0.19543
 H325 H 0.58624 0.04282 -0.26518
 H326 H 0.63264 0.01763 -0.30893
 H327 H 0.58032 0.43319 -0.08164
 H328 H 0.66935 0.43222 -0.23136
 C329 C 0.11606 0.78704 -0.15367
 C330 C 0.14244 0.79052 -0.18772
 C331 C 0.14936 0.74116 -0.28437
 C332 C 0.12916 0.68296 -0.34661
 C333 C 0.10227 0.68093 -0.31194
 C334 C 0.09566 0.73617 -0.21567
 C335 C 0.08267 0.62401 -0.37539
 N336 N 0.08951 0.57391 -0.46787
 N337 N 0.11457 0.57765 -0.50127
 C338 C 0.13455 0.63061 -0.44421
 H339 H 0.11127 0.82993 -0.08011
 H340 H 0.15753 0.83435 -0.13876
 H341 H 0.06201 0.61823 -0.35197
 H342 H 0.15425 0.63339 -0.47691
 C343 C 0.40624 0.74861 -0.31228
 C344 C 0.38003 0.76552 -0.34297
 C345 C 0.36062 0.81329 -0.27538
 C346 C 0.36817 0.85185 -0.17600
 C347 C 0.39518 0.83826 -0.14460
 C348 C 0.41429 0.78111 -0.21327
 C349 C 0.40123 0.87579 -0.04397
 N350 N 0.38176 0.91997 0.01969
 N351 N 0.35659 0.93139 -0.00999
 C352 C 0.34922 0.90060 -0.10583
 H353 H 0.42024 0.70594 -0.36634
 H354 H 0.37457 0.73637 -0.41954
 H355 H 0.42094 0.87105 -0.01369
 H356 H 0.32856 0.91393 -0.12593
 C357 C -0.11291 1.24881 -0.17985
 C358 C -0.13993 1.25783 -0.20375
 C359 C -0.15003 1.19844 -0.29227
 C360 C -0.13245 1.13342 -0.36051
 C361 C -0.10469 1.12959 -0.33899
 C362 C -0.09510 1.18238 -0.24490
 C363 C -0.08757 1.07605 -0.41423
 N364 N -0.09788 1.02333 -0.50114
 N365 N -0.12411 1.02118 -0.51869
 C366 C -0.14172 1.07427 -0.45144
 H367 H -0.10605 1.29170 -0.10858
 H368 H -0.15317 1.30954 -0.15194
 H369 H -0.06607 1.07902 -0.40719
 H370 H -0.16276 1.07113 -0.47026
 C371 C 0.61062 0.78261 -0.19420
 C372 C 0.63726 0.78832 -0.22445
 C373 C 0.64636 0.72183 -0.31257
 C374 C 0.62702 0.66108 -0.37787
 C375 C 0.59955 0.66190 -0.34950
 C376 C 0.59178 0.71448 -0.25280
 C377 C 0.58067 0.61351 -0.42082
 N378 N 0.58883 0.56163 -0.51104
 N379 N 0.61454 0.55786 -0.53665
 C380 C 0.63377 0.60708 -0.47424
 H381 H 0.60510 0.82656 -0.12161
 H382 H 0.65125 0.83755 -0.17394
 H383 H 0.55938 0.62109 -0.40853
 H384 H 0.65384 0.60873 -0.50347
 C385 C 0.10270 1.28030 -0.17663
 C386 C 0.12917 1.29339 -0.20569
 C387 C 0.13665 1.27347 -0.30679
 C388 C 0.11594 1.25505 -0.38035
 C389 C 0.08908 1.24014 -0.35004
 C390 C 0.08287 1.24742 -0.24744
 C391 C 0.06903 1.22192 -0.42364
 N392 N 0.07547 1.22160 -0.52126
 N393 N 0.10052 1.23942 -0.55005
 C394 C 0.12079 1.25744 -0.48326
 H395 H 0.09804 1.28756 -0.09766
 H396 H 0.14408 1.30885 -0.14739
 H397 H 0.04819 1.21123 -0.40452
 H398 H 0.14031 1.27628 -0.51138
 C399 C 0.38861 0.18396 -0.25482
 C400 C 0.36124 0.18471 -0.27583
 C401 C 0.34569 0.28790 -0.25084
 C402 C 0.35767 0.38933 -0.19686
 C403 C 0.38567 0.39156 -0.18057
 C404 C 0.40122 0.28804 -0.21081
 C405 C 0.39705 0.49732 -0.13259
 N406 N 0.38118 0.59171 -0.10046
 N407 N 0.35471 0.58721 -0.11137
 C408 C 0.34239 0.48859 -0.15731
 H409 H 0.40016 0.10351 -0.27690
 H410 H 0.35237 0.10596 -0.31532
 H411 H 0.41820 0.50513 -0.11685
 H412 H 0.32077 0.48824 -0.16168
 C413 C -0.10178 0.60911 -0.23212
 C414 C -0.12870 0.60525 -0.26057
 C415 C -0.14586 0.70176 -0.23069
 C416 C -0.13637 0.79891 -0.16414
 C417 C -0.10911 0.80292 -0.13550
 C418 C -0.09156 0.70917 -0.17275
 C419 C -0.10014 0.90264 -0.07175
 N420 N -0.11749 0.99110 -0.03842
 N421 N -0.14320 0.98681 -0.06469
 C422 C -0.15325 0.89375 -0.12624
 H423 H -0.08853 0.53730 -0.26170
 H424 H -0.13571 0.53046 -0.31171
 H425 H -0.07965 0.90990 -0.04681
 H426 H -0.17437 0.89406 -0.14407
 C427 C 0.40111 0.88194 0.24983
 C428 C 0.37400 0.89280 0.27579
 C429 C 0.35613 0.79760 0.24942
 C430 C 0.36510 0.69467 0.18909
 C431 C 0.39259 0.68157 0.16621
 C432 C 0.41079 0.77497 0.19872
 C433 C 0.40103 0.57352 0.11271
 N434 N 0.38294 0.48659 0.08353
 N435 N 0.35692 0.50050 0.10230
 C436 C 0.34733 0.60217 0.15307
 H437 H 0.41482 0.95419 0.27481
 H438 H 0.36729 0.97264 0.32160
 H439 H 0.42165 0.55758 0.09178
 H440 H 0.32594 0.60969 0.16478
 C441 C -0.11614 1.23866 0.13891
 C442 C -0.14308 1.23585 0.16660
 C443 C -0.15056 1.25904 0.26688
 C444 C -0.13075 1.29421 0.33947
 C445 C -0.10340 1.29558 0.31157
 C446 C -0.09604 1.26258 0.21098
 C447 C -0.08429 1.33153 0.38554
 N448 N -0.09226 1.36399 0.48078
 N449 N -0.11797 1.36247 0.50698
 C450 C -0.13744 1.32832 0.43969
 H451 H -0.11082 1.21484 0.06152
 H452 H -0.15805 1.21037 0.11009
 H453 H -0.06320 1.33656 0.36817
 H454 H -0.15801 1.32989 0.46449
 C455 C 0.60478 0.20394 0.14501
 C456 C 0.63146 0.19982 0.17533
 C457 C 0.63822 0.21191 0.27694
 C458 C 0.61735 0.21849 0.34928
 C459 C 0.59029 0.22249 0.31827
 C460 C 0.58415 0.22038 0.21559
 C461 C 0.57005 0.22816 0.39153
 N462 N 0.57664 0.23129 0.48925
 N463 N 0.60205 0.22794 0.51856
 C464 C 0.62252 0.22086 0.45214
 H465 H 0.60038 0.20239 0.06616
 H466 H 0.64704 0.19349 0.11903
 H467 H 0.54905 0.22780 0.37202
 H468 H 0.64255 0.21612 0.48061
 C469 C 0.11081 0.74071 0.19028
 C470 C 0.13763 0.73572 0.21739
 C471 C 0.14649 0.79118 0.30953
 C472 C 0.12750 0.84350 0.37945
 C473 C 0.10005 0.84597 0.35281
 C474 C 0.09201 0.80074 0.25483
 C475 C 0.08153 0.89069 0.42652
 N476 N 0.09018 0.93402 0.51869
 N477 N 0.11602 0.93459 0.54275
 C478 C 0.13492 0.89049 0.47662
 H479 H 0.10507 0.70338 0.11587
 H480 H 0.15182 0.69297 0.16409
 H481 H 0.06021 0.88807 0.41351
 H482 H 0.15540 0.88894 0.50205
   
