data_POSCAR
  _audit_creation_date              2014-09-24
  _audit_creation_method            'ToBaCCo'
  _symmetry_space_group_name_H-M    'P1'
  _symmetry_Int_Tables_number       1
  _symmetry_cell_setting            triclinic
  loop_
  _symmetry_equiv_pos_as_xyz
 x,y,z
_cell_length_a 29.5898
_cell_length_b 29.6221
_cell_length_c 31.8905
_cell_angle_alpha 89.954200
_cell_angle_beta 89.996400
_cell_angle_gamma 90.098600
loop_
  _atom_site_label
  _atom_site_type_symbol
  _atom_site_fract_x
  _atom_site_fract_y
  _atom_site_fract_z
Zr1 Zr 0.23035 0.23610 0.32129
 O2 O 0.23244 0.24105 0.38758
 O3 O 0.17603 0.19091 0.33612
 O4 O 0.19815 0.28900 0.35431
 O5 O 0.31907 0.15704 0.31271
 O6 O 0.17368 0.33888 0.30467
 O7 O 0.28109 0.20354 0.35720
 O8 O 0.13595 0.19350 0.27639
 O9 O 0.18131 0.25134 0.27610
 O10 O 0.23344 0.18141 0.27958
 O11 O 0.24968 0.29903 0.29498
 O12 O 0.29675 0.23483 0.29739
 Zr13 Zr 0.26916 0.25977 0.18003
 Zr14 Zr 0.20141 0.31239 0.24813
 Zr15 Zr 0.29870 0.18256 0.25314
 Zr16 Zr 0.18694 0.19851 0.23258
 O17 O 0.36985 0.17678 0.25757
 O18 O 0.12198 0.20922 0.20603
 O19 O 0.25111 0.19667 0.20615
 O20 O 0.20252 0.25941 0.20405
 O21 O 0.26724 0.31366 0.22237
 O22 O 0.31829 0.24372 0.22479
 C23 C 0.14054 0.18161 0.31434
 C24 C 0.31118 0.17310 0.34961
 C25 C 0.17911 0.32622 0.34312
 O26 O 0.13031 0.31458 0.24169
 O27 O 0.18407 0.34254 0.18982
 O28 O 0.22819 0.30362 0.14377
 C29 C 0.19607 0.33156 0.15231
 O30 O 0.33149 0.30554 0.33321
 Zr31 Zr 0.31380 0.29540 0.26922
 O32 O 0.32635 0.30068 0.16352
 O33 O 0.21714 0.38192 0.25177
 O34 O 0.31304 0.36644 0.27824
 O35 O 0.38112 0.27393 0.28036
 O36 O 0.35501 0.32506 0.22543
 C37 C 0.35524 0.32306 0.18569
 O38 O 0.26399 0.25299 0.11402
 O39 O 0.28306 0.11287 0.25083
 O40 O 0.29200 0.20220 0.14703
 O41 O 0.32175 0.15436 0.19573
 O42 O 0.18251 0.12738 0.23876
 O43 O 0.17667 0.17239 0.17132
 C44 C 0.31251 0.16558 0.15757
 H45 H 0.22793 0.15237 0.29414
 H46 H 0.17853 0.26120 0.18262
 H47 H 0.34870 0.24051 0.21221
 H48 H 0.25323 0.32401 0.31521
 H49 H 0.10502 0.18031 0.20743
 H50 H 0.12156 0.34683 0.24299
 H51 H 0.18810 0.39836 0.24949
 H52 H 0.34465 0.37680 0.28204
 H53 H 0.15018 0.11958 0.23519
 H54 H 0.31170 0.09658 0.25615
 H55 H 0.37704 0.14424 0.25495
 H56 H 0.40031 0.30118 0.28359
 H57 H 0.20007 0.14916 0.16613
 H58 H 0.28970 0.26957 0.10116
 H59 H 0.21097 0.21857 0.39927
 H60 H 0.35521 0.32904 0.33520
 Zr61 Zr 0.76790 0.76187 0.32196
 O62 O 0.76580 0.75683 0.38826
 O63 O 0.82179 0.80758 0.33707
 O64 O 0.80082 0.70946 0.35489
 O65 O 0.67785 0.83950 0.31336
 O66 O 0.82600 0.65995 0.30526
 O67 O 0.71602 0.79306 0.35777
 O68 O 0.86168 0.80607 0.27719
 O69 O 0.81718 0.74753 0.27669
 O70 O 0.76398 0.81668 0.28044
 O71 O 0.74975 0.69870 0.29536
 O72 O 0.70155 0.76203 0.29801
 Zr73 Zr 0.72944 0.73830 0.18060
 Zr74 Zr 0.79826 0.68628 0.24842
 Zr75 Zr 0.69875 0.81449 0.25398
 Zr76 Zr 0.81075 0.80052 0.23339
 O77 O 0.62749 0.81892 0.25844
 O78 O 0.87584 0.79089 0.20676
 O79 O 0.74657 0.80146 0.20698
 O80 O 0.79613 0.73954 0.20456
 O81 O 0.73242 0.68417 0.22272
 O82 O 0.68008 0.75320 0.22542
 C83 C 0.85726 0.81722 0.31535
 C84 C 0.68553 0.82317 0.35015
 C85 C 0.82032 0.67251 0.34377
 O86 O 0.86939 0.68526 0.24219
 O87 O 0.81607 0.65704 0.18959
 O88 O 0.77083 0.69539 0.14400
 C89 C 0.80343 0.66790 0.15213
 O90 O 0.66799 0.69083 0.33363
 Zr91 Zr 0.68559 0.70133 0.26965
 O92 O 0.67288 0.69654 0.16392
 O93 O 0.78382 0.61645 0.25160
 O94 O 0.68762 0.63030 0.27877
 O95 O 0.61779 0.72139 0.28056
 O96 O 0.64531 0.67072 0.22577
 C97 C 0.64476 0.67310 0.18605
 O98 O 0.73423 0.74564 0.11461
 O99 O 0.71330 0.88443 0.25189
 O100 O 0.70600 0.79603 0.14802
 O101 O 0.67520 0.84280 0.19692
 O102 O 0.81417 0.87166 0.23989
 O103 O 0.82060 0.82725 0.17226
 C104 C 0.68488 0.83223 0.15878
 H105 H 0.76906 0.84568 0.29515
 H106 H 0.82007 0.73826 0.18307
 H107 H 0.64960 0.75591 0.21286
 H108 H 0.74651 0.67357 0.31550
 H109 H 0.89239 0.82003 0.20828
 H110 H 0.87859 0.65313 0.24343
 H111 H 0.81320 0.60064 0.24932
 H112 H 0.65620 0.61940 0.28263
 H113 H 0.84638 0.87993 0.23639
 H114 H 0.68442 0.90028 0.25723
 H115 H 0.61965 0.85132 0.25587
 H116 H 0.59918 0.69373 0.28370
 H117 H 0.79678 0.85007 0.16713
 H118 H 0.70859 0.72897 0.10175
 H119 H 0.78651 0.77998 0.39998
 H120 H 0.64457 0.66702 0.33558
 Zr121 Zr 0.76391 0.22785 -0.32011
 O122 O 0.75810 0.23170 -0.38629
 O123 O 0.80444 0.17019 -0.33569
 O124 O 0.80789 0.26834 -0.35660
 O125 O 0.65892 0.17460 -0.30489
 O126 O 0.84525 0.31450 -0.31109
 O127 O 0.70624 0.20556 -0.35335
 O128 O 0.82930 0.14277 -0.27345
 O129 O 0.81760 0.23110 -0.27752
 O130 O 0.74801 0.17908 -0.27502
 O131 O 0.76272 0.29472 -0.29681
 O132 O 0.70056 0.24578 -0.29458
 Zr133 Zr 0.73877 0.26765 -0.17917
 Zr134 Zr 0.81537 0.29718 -0.25241
 Zr135 Zr 0.68647 0.19839 -0.24751
 Zr136 Zr 0.79953 0.18478 -0.23036
 O137 O 0.61656 0.21292 -0.25100
 O138 O 0.87069 0.18719 -0.22176
 O139 O 0.73842 0.20121 -0.20280
 O140 O 0.80215 0.24917 -0.20515
 O141 O 0.75393 0.31669 -0.22457
 O142 O 0.68457 0.26369 -0.22153
 C143 C 0.82686 0.14166 -0.31318
 C144 C 0.66989 0.18440 -0.34296
 C145 C 0.83491 0.30137 -0.34850
 O146 O 0.88518 0.28277 -0.24836
 O147 O 0.84144 0.32578 -0.19599
 O148 O 0.79127 0.30144 -0.14638
 C149 C 0.82855 0.32076 -0.15754
 O150 O 0.67596 0.32172 -0.32982
 Zr151 Zr 0.70162 0.31015 -0.26856
 O152 O 0.69164 0.32023 -0.16441
 O153 O 0.81661 0.36816 -0.25945
 O154 O 0.71445 0.37532 -0.29380
 O155 O 0.63020 0.31327 -0.26472
 O156 O 0.69321 0.36019 -0.22426
 C157 C 0.68059 0.35492 -0.18656
 O158 O 0.74405 0.26573 -0.11292
 O159 O 0.68156 0.12730 -0.24207
 O160 O 0.70664 0.21582 -0.14376
 O161 O 0.65964 0.17870 -0.18851
 O162 O 0.77866 0.11752 -0.21784
 O163 O 0.81015 0.16814 -0.16619
 C164 C 0.67576 0.18604 -0.15161
 H165 H 0.74494 0.14849 -0.28718
 H166 H 0.82708 0.24629 -0.18474
 H167 H 0.65509 0.26884 -0.20766
 H168 H 0.76432 0.31825 -0.31866
 H169 H 0.88163 0.15589 -0.21763
 H170 H 0.90118 0.31203 -0.25122
 H171 H 0.84878 0.37745 -0.25819
 H172 H 0.68574 0.39258 -0.29321
 H173 H 0.80609 0.09872 -0.21424
 H174 H 0.64922 0.11942 -0.24553
 H175 H 0.60047 0.18406 -0.24596
 H176 H 0.62205 0.34537 -0.26893
 H177 H 0.83445 0.14534 -0.16396
 H178 H 0.72076 0.28622 -0.10124
 H179 H 0.77447 0.20558 -0.39849
 H180 H 0.65578 0.29616 -0.33703
 Zr181 Zr 0.23688 0.77209 -0.32098
 O182 O 0.24392 0.77430 -0.38714
 O183 O 0.19624 0.83044 -0.33602
 O184 O 0.19522 0.73207 -0.36055
 O185 O 0.34121 0.82430 -0.30145
 O186 O 0.15270 0.68871 -0.31670
 O187 O 0.29844 0.78871 -0.35027
 O188 O 0.17675 0.86123 -0.27370
 O189 O 0.18181 0.77117 -0.28023
 O190 O 0.25313 0.81931 -0.27451
 O191 O 0.23488 0.70482 -0.29881
 O192 O 0.29841 0.75095 -0.29326
 Zr193 Zr 0.25336 0.72755 -0.17909
 Zr194 Zr 0.18022 0.70478 -0.25704
 Zr195 Zr 0.31242 0.79682 -0.24504
 Zr196 Zr 0.20017 0.81512 -0.23119
 O197 O 0.38147 0.77877 -0.24805
 O198 O 0.12858 0.81621 -0.22651
 O199 O 0.25865 0.79451 -0.20189
 O200 O 0.19302 0.75031 -0.20752
 O201 O 0.23871 0.68083 -0.22664
 O202 O 0.30988 0.73099 -0.21950
 C203 C 0.17623 0.86087 -0.31352
 C204 C 0.33297 0.81270 -0.33984
 C205 C 0.16592 0.70058 -0.35360
 O206 O 0.11125 0.72341 -0.25870
 O207 O 0.14723 0.68046 -0.20381
 O208 O 0.19870 0.68860 -0.15115
 C209 C 0.15878 0.67742 -0.16505
 O210 O 0.32146 0.67284 -0.32793
 Zr211 Zr 0.29368 0.68618 -0.26782
 O212 O 0.29912 0.67470 -0.16241
 O213 O 0.17517 0.63382 -0.26284
 O214 O 0.27891 0.62148 -0.29309
 O215 O 0.36488 0.68142 -0.26248
 O216 O 0.29983 0.63584 -0.22291
 C217 C 0.31097 0.64040 -0.18463
 O218 O 0.24028 0.73145 -0.11395
 O219 O 0.32059 0.86719 -0.23618
 O220 O 0.28735 0.77686 -0.14154
 O221 O 0.33739 0.81330 -0.18441
 O222 O 0.22547 0.87984 -0.21475
 O223 O 0.18592 0.83093 -0.16745
 C224 C 0.31975 0.80568 -0.14804
 H225 H 0.25804 0.84994 -0.28613
 H226 H 0.16794 0.75375 -0.18733
 H227 H 0.33863 0.72450 -0.20482
 H228 H 0.23369 0.68127 -0.32063
 H229 H 0.11895 0.84799 -0.22286
 H230 H 0.09351 0.69520 -0.26193
 H231 H 0.14250 0.62649 -0.26408
 H232 H 0.30674 0.60289 -0.29139
 H233 H 0.19957 0.90088 -0.21228
 H234 H 0.35337 0.87364 -0.23846
 H235 H 0.39880 0.80645 -0.24130
 H236 H 0.37224 0.64892 -0.26495
 H237 H 0.16286 0.85507 -0.16626
 H238 H 0.26059 0.70942 -0.10003
 H239 H 0.23263 0.80385 -0.39731
 H240 H 0.34076 0.69884 -0.33585
 Zr241 Zr 1.26925 1.26140 0.82141
 O242 O 1.26722 1.25601 0.88769
 O243 O 1.32402 1.30581 0.83645
 O244 O 1.30082 1.20814 0.85422
 O245 O 1.18204 1.34206 0.81317
 O246 O 1.32460 1.15815 0.80443
 O247 O 1.21873 1.29423 0.85737
 O248 O 1.36422 1.30291 0.77681
 O249 O 1.31812 1.24591 0.77612
 O250 O 1.26689 1.31646 0.78007
 O251 O 1.24929 1.19886 0.79474
 O252 O 1.20285 1.26357 0.79769
 Zr253 Zr 1.23013 1.23953 0.68021
 Zr254 Zr 1.29741 1.18534 0.74775
 Zr255 Zr 1.20162 1.31621 0.75377
 Zr256 Zr 1.31318 1.29920 0.73296
 O257 O 1.13056 1.32258 0.75883
 O258 O 1.37794 1.28796 0.70619
 O259 O 1.24900 1.30215 0.70662
 O260 O 1.29683 1.23877 0.70404
 O261 O 1.23151 1.18516 0.72214
 O262 O 1.18122 1.25559 0.72509
 C263 C 1.35969 1.31466 0.81478
 C264 C 1.18933 1.32538 0.84988
 C265 C 1.31937 1.17077 0.84296
 O266 O 1.36848 1.18240 0.74138
 O267 O 1.31424 1.15584 0.68888
 O268 O 1.27013 1.19560 0.64340
 C269 C 1.30194 1.16721 0.65149
 O270 O 1.16752 1.19326 0.83315
 Zr271 Zr 1.18518 1.20344 0.76915
 O272 O 1.17285 1.19908 0.66345
 O273 O 1.28118 1.11589 0.75078
 O274 O 1.18526 1.13233 0.77788
 O275 O 1.11799 1.22525 0.78040
 O276 O 1.14376 1.17456 0.72519
 C277 C 1.14386 1.17666 0.68545
 O278 O 1.23518 1.24717 0.61426
 O279 O 1.21817 1.38570 0.75131
 O280 O 1.20758 1.29766 0.64782
 O281 O 1.17810 1.34494 0.69700
 O282 O 1.31873 1.37018 0.73972
 O283 O 1.32376 1.32577 0.67188
 C284 C 1.18720 1.33418 0.65881
 H285 H 1.27270 1.34532 0.79478
 H286 H 1.32070 1.23690 0.68250
 H287 H 1.15083 1.25921 0.71256
 H288 H 1.24545 1.17377 0.81483
 H289 H 1.39533 1.31658 0.70798
 H290 H 1.37679 1.15002 0.74243
 H291 H 1.31013 1.09932 0.74837
 H292 H 1.15355 1.12231 0.78169
 H293 H 1.35116 1.37751 0.73616
 H294 H 1.18980 1.40239 0.75679
 H295 H 1.12359 1.35519 0.75646
 H296 H 1.09870 1.19807 0.78367
 H297 H 1.30063 1.34933 0.66689
 H298 H 1.20923 1.23110 0.60128
 H299 H 1.28866 1.27844 0.89949
 H300 H 1.14378 1.16978 0.83516
 Zr301 Zr 0.73060 0.73534 0.82139
 O302 O 0.73262 0.73944 0.88774
 O303 O 0.67653 0.68973 0.83571
 O304 O 0.69732 0.78722 0.85475
 O305 O 0.82149 0.65876 0.81245
 O306 O 0.67184 0.83700 0.80546
 O307 O 0.78161 0.70324 0.85731
 O308 O 0.63735 0.69088 0.77536
 O309 O 0.68152 0.74994 0.77606
 O310 O 0.73531 0.68122 0.77926
 O311 O 0.74865 0.79895 0.79584
 O312 O 0.79714 0.73588 0.79788
 Zr313 Zr 0.76985 0.76138 0.68067
 Zr314 Zr 0.70037 0.81175 0.74881
 Zr315 Zr 0.80074 0.68426 0.75313
 Zr316 Zr 0.68870 0.69767 0.73217
 O317 O 0.87202 0.68037 0.75769
 O318 O 0.62383 0.70707 0.70502
 O319 O 0.75304 0.69771 0.70617
 O320 O 0.70303 0.75927 0.70426
 O321 O 0.76620 0.81486 0.72347
 O322 O 0.81930 0.74618 0.72542
 C323 C 0.64130 0.68015 0.81368
 C324 C 0.81280 0.67402 0.84945
 C325 C 0.67760 0.82416 0.84382
 O326 O 0.62928 0.81302 0.74194
 O327 O 0.68298 0.84201 0.69056
 O328 O 0.72867 0.80488 0.64455
 C329 C 0.69582 0.83186 0.65307
 O330 O 0.83335 0.80907 0.83328
 Zr331 Zr 0.81287 0.79715 0.77035
 O332 O 0.82654 0.80314 0.66472
 O333 O 0.71507 0.88145 0.75325
 O334 O 0.81311 0.86692 0.78550
 O335 O 0.88153 0.77821 0.77697
 O336 O 0.84840 0.83320 0.72667
 C337 C 0.85170 0.82919 0.68725
 O338 O 0.76535 0.75524 0.61456
 O339 O 0.78697 0.61420 0.75050
 O340 O 0.79306 0.70420 0.64730
 O341 O 0.82436 0.65692 0.69557
 O342 O 0.68572 0.62644 0.73804
 O343 O 0.67991 0.67183 0.67061
 C344 C 0.81448 0.66800 0.65753
 H345 H 0.73026 0.65205 0.79372
 H346 H 0.67925 0.76080 0.68262
 H347 H 0.84979 0.74413 0.71277
 H348 H 0.75175 0.82367 0.81639
 H349 H 0.60761 0.67772 0.70592
 H350 H 0.62006 0.84514 0.74343
 H351 H 0.68584 0.89749 0.75072
 H352 H 0.84481 0.87596 0.79130
 H353 H 0.65367 0.61793 0.73374
 H354 H 0.81609 0.59866 0.75554
 H355 H 0.88011 0.64808 0.75478
 H356 H 0.89888 0.80626 0.78239
 H357 H 0.70359 0.64881 0.66573
 H358 H 0.79111 0.77202 0.60203
 H359 H 0.71119 0.71677 0.89921
 H360 H 0.84292 0.77987 0.84552
 Zr361 Zr 1.26329 0.72776 0.18097
 O362 O 1.25690 0.73187 0.11484
 O363 O 1.30343 0.67009 0.16489
 O364 O 1.30716 0.76788 0.14423
 O365 O 1.15801 0.67533 0.19671
 O366 O 1.34535 0.81361 0.18950
 O367 O 1.20543 0.70584 0.14810
 O368 O 1.32845 0.64211 0.22684
 O369 O 1.31735 0.73015 0.22313
 O370 O 1.24719 0.67890 0.22587
 O371 O 1.26289 0.79453 0.20447
 O372 O 1.20029 0.74624 0.20689
 Zr373 Zr 1.23970 0.76711 0.32187
 Zr374 Zr 1.31605 0.79613 0.24839
 Zr375 Zr 1.18607 0.69879 0.25384
 Zr376 Zr 1.29906 0.68382 0.27021
 O377 O 1.11633 0.71419 0.25073
 O378 O 1.37020 0.68494 0.27909
 O379 O 1.23841 0.70082 0.29808
 O380 O 1.30269 0.74805 0.29551
 O381 O 1.25507 0.81621 0.27664
 O382 O 1.18498 0.76392 0.28010
 C383 C 1.32587 0.64138 0.18713
 C384 C 1.16897 0.68506 0.15867
 C385 C 1.33440 0.80073 0.15216
 O386 O 1.38567 0.78066 0.25165
 O387 O 1.34269 0.82372 0.30496
 O388 O 1.29244 0.79980 0.35467
 C389 C 1.32986 0.81849 0.34342
 O390 O 1.17569 0.82180 0.17219
 Zr391 Zr 1.20217 0.81043 0.23317
 O392 O 1.19342 0.82006 0.33707
 O393 O 1.31864 0.86714 0.24191
 O394 O 1.21439 0.87543 0.20734
 O395 O 1.13089 0.81456 0.23847
 O396 O 1.19618 0.86061 0.27768
 C397 C 1.18337 0.85526 0.31530
 O398 O 1.24513 0.76526 0.38813
 O399 O 1.18019 0.62775 0.25918
 O400 O 1.20799 0.71544 0.35734
 O401 O 1.15965 0.67948 0.31305
 O402 O 1.27784 0.61654 0.28210
 O403 O 1.30886 0.66690 0.33444
 C404 C 1.17658 0.68629 0.34971
 H405 H 1.24377 0.64841 0.21356
 H406 H 1.32770 0.74461 0.31574
 H407 H 1.15573 0.76922 0.29435
 H408 H 1.26445 0.81817 0.18272
 H409 H 1.38050 0.65344 0.28330
 H410 H 1.40203 0.80975 0.24909
 H411 H 1.35100 0.87577 0.24305
 H412 H 1.18579 0.89282 0.20881
 H413 H 1.30519 0.59770 0.28597
 H414 H 1.14766 0.62039 0.25628
 H415 H 1.09988 0.68566 0.25635
 H416 H 1.12319 0.84690 0.23528
 H417 H 1.33298 0.64394 0.33686
 H418 H 1.22183 0.78566 0.39994
 H419 H 1.27296 0.70568 0.10240
 H420 H 1.15411 0.79711 0.16586
 Zr421 Zr 0.73826 1.26774 0.17974
 O422 O 0.74544 1.26219 0.11381
 O423 O 0.69789 1.32498 0.16258
 O424 O 0.69488 1.22620 0.14332
 O425 O 0.84278 1.32227 0.19622
 O426 O 0.65631 1.18135 0.18922
 O427 O 0.79634 1.29085 0.14726
 O428 O 0.67204 1.35334 0.22408
 O429 O 0.68384 1.26513 0.22165
 O430 O 0.75332 1.31716 0.22448
 O431 O 0.73900 1.20128 0.20414
 O432 O 0.80132 1.25059 0.20643
 Zr433 Zr 0.76112 1.22991 0.32142
 Zr434 Zr 0.68557 1.19947 0.24788
 Zr435 Zr 0.81442 1.29855 0.25331
 Zr436 Zr 0.70106 1.31214 0.26840
 O437 O 0.88435 1.28389 0.25101
 O438 O 0.62979 1.30968 0.27610
 O439 O 0.76169 1.29615 0.29718
 O440 O 0.69810 1.24815 0.29456
 O441 O 0.74668 1.18038 0.27645
 O442 O 0.81610 1.23353 0.27998
 C443 C 0.67521 1.35393 0.18435
 C444 C 0.83239 1.31242 0.15804
 C445 C 0.66732 1.19357 0.15170
 O446 O 0.61571 1.21392 0.25081
 O447 O 0.65878 1.17198 0.30471
 O448 O 0.70858 1.19682 0.35432
 C449 C 0.67143 1.17749 0.34322
 O450 O 0.82661 1.17550 0.17229
 Zr451 Zr 0.79982 1.18655 0.23320
 O452 O 0.80750 1.17697 0.33711
 O453 O 0.68436 1.12839 0.24190
 O454 O 0.78922 1.12130 0.20737
 O455 O 0.87106 1.18321 0.23929
 O456 O 0.80563 1.13638 0.27776
 C457 C 0.81774 1.14164 0.31559
 O458 O 0.75522 1.23241 0.38762
 O459 O 0.81929 1.36969 0.25806
 O460 O 0.79260 1.28146 0.35716
 O461 O 0.83978 1.31897 0.31281
 O462 O 0.72149 1.37968 0.28010
 O463 O 0.68945 1.33000 0.33213
 C464 C 0.82329 1.31139 0.34960
 H465 H 0.75655 1.34759 0.21196
 H466 H 0.67295 1.25136 0.31468
 H467 H 0.84522 1.22858 0.29458
 H468 H 0.73766 1.17731 0.18271
 H469 H 0.61870 1.34104 0.27933
 H470 H 0.59977 1.18458 0.24854
 H471 H 0.65218 1.11914 0.24319
 H472 H 0.81811 1.10444 0.20920
 H473 H 0.69395 1.39843 0.28301
 H474 H 0.85176 1.37745 0.25549
 H475 H 0.90037 1.31268 0.25646
 H476 H 0.87915 1.15095 0.23632
 H477 H 0.66485 1.35254 0.33364
 H478 H 0.77801 1.21160 0.39971
 H479 H 0.72923 1.28795 0.10074
 H480 H 0.84869 1.19987 0.16634
 O481 O 0.55473 1.08378 0.07573
 O482 O 0.60844 1.04663 0.03667
 C483 C 0.59601 1.07686 0.06428
 O484 O 0.44318 0.91130 0.07533
 O485 O 0.38921 0.94757 0.03580
 C486 C 0.40204 0.91729 0.06323
 O487 O 0.56588 0.92427 0.07837
 O488 O 0.61434 0.96625 0.03762
 C489 C 0.60592 0.93664 0.06684
 O490 O 0.43157 1.07727 0.07302
 O491 O 0.38287 1.03202 0.03559
 C492 C 0.39147 1.06397 0.06260
 Zr493 Zr 0.49501 1.05422 0.05301
 O494 O 0.49208 1.04822 0.11923
 O495 O 0.49050 1.12528 0.05762
 Zr496 Zr 0.50245 0.94246 0.05410
 O497 O 0.50022 0.94935 0.12006
 O498 O 0.51121 0.87162 0.05711
 O499 O 0.54002 1.00116 0.06145
 O500 O 0.45835 0.99571 0.06105
 O501 O 0.43284 1.07517 -0.07503
 O502 O 0.38361 1.03278 -0.03525
 C503 C 0.39271 1.06354 -0.06350
 O504 O 0.56402 0.92093 -0.07579
 O505 O 0.61333 0.96403 -0.03689
 C506 C 0.60418 0.93335 -0.06510
 O507 O 0.44055 0.90985 -0.07196
 O508 O 0.38763 0.94910 -0.03392
 C509 C 0.39926 0.91772 -0.06052
 O510 O 0.55660 1.08105 -0.07640
 O511 O 0.60953 1.04347 -0.03691
 C512 C 0.59789 1.07319 -0.06501
 Zr513 Zr 0.49559 1.05319 -0.05318
 O514 O 0.49190 1.04855 -0.11940
 O515 O 0.49458 1.12466 -0.05518
 Zr516 Zr 0.50140 0.94078 -0.05180
 O517 O 0.49610 0.94264 -0.11807
 O518 O 0.51035 0.86982 -0.05127
 Zr519 Zr 0.56700 1.00208 0.00031
 Zr520 Zr 0.43029 0.99347 0.00059
 O521 O 0.45844 0.99455 -0.05990
 O522 O 0.53956 0.99930 -0.06069
 O523 O 0.45462 1.06045 -0.00021
 O524 O 0.54171 0.93563 0.00109
 O525 O 0.53374 1.06479 -0.00022
 O526 O 0.46236 0.93005 0.00144
 H527 H 0.43763 0.99437 0.08544
 H528 H 0.56304 0.90989 0.00157
 H529 H 0.43779 0.99277 -0.08432
 H530 H 0.55159 1.09307 -0.00084
 H531 H 0.49051 0.85787 0.03638
 H532 H 0.48606 0.85662 -0.03379
 H533 H 0.52278 0.95882 -0.12927
 H534 H 0.52095 1.03640 -0.12975
 H535 H 0.47025 1.13489 -0.03613
 H536 H 0.49838 1.13799 0.02995
 H537 H 0.52115 1.03558 0.12911
 H538 H 0.50300 0.91846 0.13175
 O539 O 1.05687 0.58587 0.57530
 O540 O 1.11036 0.54941 0.53539
 C541 C 1.09797 0.57978 0.56288
 O542 O 0.94497 0.41235 0.57567
 O543 O 0.89104 0.44899 0.53638
 C544 C 0.90383 0.41837 0.56352
 O545 O 1.06772 0.42589 0.57911
 O546 O 1.11602 0.46785 0.53816
 C547 C 1.10772 0.43829 0.56742
 O548 O 0.93345 0.57919 0.57351
 O549 O 0.88469 0.53377 0.53634
 C550 C 0.89334 0.56589 0.56315
 Zr551 Zr 0.99687 0.55589 0.55371
 O552 O 0.99412 0.54970 0.61990
 O553 O 0.99279 0.62693 0.55877
 Zr554 Zr 1.00419 0.44418 0.55506
 O555 O 1.00175 0.45236 0.62087
 O556 O 1.01296 0.37348 0.55965
 O557 O 1.04192 0.50286 0.56222
 O558 O 0.96007 0.49744 0.56192
 O559 O 0.93457 0.57679 0.42554
 O560 O 0.88540 0.53463 0.46559
 C561 C 0.89446 0.56532 0.43723
 O562 O 1.06539 0.42319 0.42390
 O563 O 1.11479 0.46539 0.46353
 C564 C 1.10559 0.43520 0.43485
 O565 O 0.94201 0.41244 0.42856
 O566 O 0.88918 0.45168 0.46675
 C567 C 0.90080 0.42074 0.43981
 O568 O 1.05855 0.58187 0.42436
 O569 O 1.11137 0.54415 0.46386
 C570 C 1.09977 0.57370 0.43573
 Zr571 Zr 0.99724 0.55463 0.44741
 O572 O 0.99316 0.55003 0.38118
 O573 O 0.99656 0.62609 0.44513
 Zr574 Zr 1.00306 0.44223 0.44903
 O575 O 0.99746 0.44134 0.38283
 O576 O 1.01212 0.37131 0.45115
 Zr577 Zr 1.06857 0.50350 0.50094
 Zr578 Zr 0.93208 0.49519 0.50140
 O579 O 0.96020 0.49607 0.44086
 O580 O 1.04112 0.50071 0.43992
 O581 O 0.95645 0.56213 0.50046
 O582 O 1.04337 0.43705 0.50191
 O583 O 1.03526 0.56627 0.50027
 O584 O 0.96409 0.43169 0.50233
 H585 H 0.93923 0.49606 0.58622
 H586 H 1.06478 0.41138 0.50226
 H587 H 0.93974 0.49448 0.41630
 H588 H 1.05269 0.59480 0.49925
 H589 H 0.99590 0.35973 0.53627
 H590 H 0.98600 0.35806 0.46616
 H591 H 1.02049 0.46224 0.37143
 H592 H 1.02262 0.53917 0.37056
 H593 H 0.97209 0.63659 0.46390
 H594 H 0.99814 0.63947 0.53051
 H595 H 1.02386 0.53871 0.62979
 H596 H 1.00406 0.42166 0.63306
 O597 O 1.07757 0.56694 0.07805
 O598 O 1.03422 0.61561 0.03877
 C599 C 1.06519 0.60697 0.06663
 O600 O 1.08626 0.44339 -0.07269
 O601 O 1.04796 0.39006 -0.03407
 C602 C 1.07798 0.40204 -0.06180
 O603 O 1.08531 0.56767 -0.06660
 O604 O 1.03562 0.61555 -0.03353
 C605 C 1.06934 0.60739 -0.05898
 O606 O 1.08338 0.44333 0.08039
 O607 O 1.04885 0.39025 0.03841
 C608 C 1.07770 0.40236 0.06741
 Zr609 Zr 1.05543 0.50348 0.05696
 O610 O 1.12665 0.50596 0.06216
 O611 O 1.04552 0.50325 0.12261
 Zr612 Zr 1.05956 0.50435 -0.04863
 O613 O 1.13082 0.50598 -0.04324
 O614 O 1.06107 0.50956 -0.11485
 O615 O 1.06383 0.54479 0.00459
 O616 O 1.06820 0.46526 0.00404
 O617 O 0.92387 0.43269 0.07718
 O618 O 0.96723 0.38458 0.03755
 C619 C 0.93663 0.39276 0.06598
 O620 O 0.91688 0.55823 -0.07286
 O621 O 0.95401 0.61114 -0.03296
 C622 C 0.92413 0.59932 -0.06089
 O623 O 0.92779 0.43555 -0.07792
 O624 O 0.96828 0.38612 -0.03696
 C625 C 0.93886 0.39533 -0.06641
 O626 O 0.91145 0.55523 0.07431
 O627 O 0.94972 0.60940 0.03656
 C628 C 0.91830 0.59649 0.06292
 Zr629 Zr 0.94355 0.49611 0.05388
 O630 O 0.87257 0.48735 0.05535
 O631 O 0.94937 0.49765 0.11995
 Zr632 Zr 0.94699 0.49761 -0.05231
 O633 O 0.87612 0.48918 -0.05723
 O634 O 0.95602 0.50058 -0.11803
 Zr635 Zr 0.99686 0.56858 0.00267
 Zr636 Zr 1.00524 0.43210 0.00196
 O637 O 0.93892 0.45731 0.00028
 O638 O 0.93350 0.53617 0.00077
 O639 O 1.00187 0.45850 0.06321
 O640 O 1.00102 0.54096 -0.05789
 O641 O 0.99665 0.54017 0.06305
 O642 O 1.00590 0.46013 -0.05879
 H643 H 1.09670 0.44776 0.00425
 H644 H 1.00053 0.56148 -0.08245
 H645 H 0.91297 0.43616 -0.00045
 H646 H 0.99443 0.56070 0.08749
 H647 H 1.04134 0.48545 -0.12612
 H648 H 0.92534 0.50007 -0.13050
 H649 H 0.86192 0.51006 -0.03698
 H650 H 0.85971 0.50677 0.03316
 H651 H 0.91817 0.49567 0.13113
 H652 H 1.07593 0.50642 0.13530
 H653 H 1.13800 0.52074 0.03639
 H654 H 1.14298 0.50602 -0.07221
 O655 O 0.58408 0.94245 0.57963
 O656 O 0.54777 0.88854 0.53995
 C657 C 0.57768 0.90124 0.56772
 O658 O 0.41178 1.05463 0.57734
 O659 O 0.44883 1.10791 0.53746
 C660 C 0.41801 1.09555 0.56462
 O661 O 0.42534 0.93224 0.58396
 O662 O 0.46642 0.88341 0.54294
 C663 C 0.43723 0.89207 0.57257
 O664 O 0.57865 1.06574 0.57580
 O665 O 0.53382 1.11404 0.53761
 C666 C 0.56581 1.10567 0.56464
 Zr667 Zr 0.55514 1.00219 0.55658
 O668 O 0.54591 1.00264 0.62230
 O669 O 0.62619 1.00674 0.56252
 Zr670 Zr 0.44340 0.99500 0.55764
 O671 O 0.45058 0.99865 0.62353
 O672 O 0.37241 0.98658 0.56002
 O673 O 0.50198 0.95744 0.56548
 O674 O 0.49685 1.03926 0.56408
 O675 O 0.57700 1.06290 0.42774
 O676 O 0.53468 1.11253 0.46688
 C677 C 0.56548 1.10315 0.43871
 O678 O 0.42236 0.93203 0.42785
 O679 O 0.46502 0.88308 0.46748
 C680 C 0.43493 0.89202 0.43862
 O681 O 0.41132 1.05500 0.43106
 O682 O 0.45116 1.10853 0.46801
 C683 C 0.41992 1.09640 0.44144
 O684 O 0.58128 0.93961 0.42714
 O685 O 0.54424 0.88702 0.46766
 C686 C 0.57348 0.89849 0.43895
 Zr687 Zr 0.55426 1.00056 0.45029
 O688 O 0.54610 0.99992 0.38442
 O689 O 0.62572 1.00184 0.44714
 Zr690 Zr 0.44226 0.99468 0.45143
 O691 O 0.45005 0.99546 0.38552
 O692 O 0.37087 0.99171 0.44725
 Zr693 Zr 0.50281 0.92983 0.50462
 Zr694 Zr 0.49493 1.06637 0.50323
 O695 O 0.49595 1.03786 0.44301
 O696 O 0.50044 0.95644 0.44332
 O697 O 0.56174 1.04187 0.50289
 O698 O 0.43650 0.95499 0.50493
 O699 O 0.56565 0.96310 0.50368
 O700 O 0.43144 1.03413 0.50428
 H701 H 0.49552 1.06037 0.58815
 H702 H 0.41118 0.93312 0.50577
 H703 H 0.49441 1.05814 0.41831
 H704 H 0.59407 0.94552 0.50303
 H705 H 0.35961 1.00424 0.53651
 H706 H 0.35976 0.97173 0.46984
 H707 H 0.41911 0.99572 0.37361
 H708 H 0.57691 1.00171 0.37232
 H709 H 0.63635 1.02443 0.46778
 H710 H 0.63920 0.99883 0.53498
 H711 H 0.57641 1.00628 0.63467
 H712 H 0.41962 0.99722 0.63533
 O713 O 0.90828 1.06593 0.44011
 O714 O 0.95551 1.02937 0.39417
 C715 C 0.92110 1.05488 0.40275
 O716 O 1.06992 1.09110 0.55536
 O717 O 1.03349 1.04372 0.60128
 C718 C 1.05873 1.07827 0.59273
 O719 O 1.06480 1.09289 0.43871
 O720 O 1.02969 1.04391 0.39316
 C721 C 1.05345 1.07964 0.40151
 O722 O 0.90649 1.06168 0.55654
 O723 O 0.95607 1.02780 0.60229
 C724 C 0.92000 1.05097 0.59388
 Zr725 Zr 0.93576 1.04563 0.49803
 O726 O 0.93232 1.11689 0.49851
 O727 O 0.86447 1.03981 0.49854
 Zr728 Zr 1.04779 1.06483 0.49727
 O729 O 1.02999 1.13389 0.49848
 O730 O 1.11771 1.07939 0.49297
 O731 O 0.99001 1.06344 0.46009
 O732 O 0.99049 1.06337 0.53435
 O733 O 0.93313 0.90766 0.55731
 O734 O 0.97042 0.95544 0.60227
 C735 C 0.94420 0.92147 0.59444
 O736 O 1.09225 0.92988 0.43939
 O737 O 1.04514 0.96700 0.39367
 C738 C 1.07925 0.94110 0.40206
 O739 O 1.09764 0.93502 0.55560
 O740 O 1.04879 0.96985 0.60105
 C741 C 1.08468 0.94638 0.59283
 O742 O 0.93644 0.90397 0.44048
 O743 O 0.97142 0.95215 0.39407
 C744 C 0.94741 0.91672 0.40300
 Zr745 Zr 0.95481 0.93259 0.49844
 O746 O 0.96855 0.86240 0.49621
 O747 O 0.88438 0.92004 0.49620
 Zr748 Zr 1.06734 0.95209 0.49780
 O749 O 1.07836 0.88165 0.50213
 O750 O 1.13761 0.96458 0.49241
 Zr751 Zr 1.00088 0.99830 0.43592
 Zr752 Zr 1.00178 0.99905 0.55986
 O753 O 1.01274 0.93445 0.53472
 O754 O 1.01234 0.93355 0.46090
 O755 O 0.93669 0.98775 0.53520
 O756 O 1.06550 1.00972 0.46123
 O757 O 0.93670 0.98735 0.46209
 O758 O 1.06658 1.01025 0.53468
 H759 H 0.98569 1.08932 0.55344
 H760 H 1.09154 1.01441 0.44216
 H761 H 1.01781 0.90904 0.55433
 H762 H 0.91057 0.98234 0.44325
 H763 H 1.13323 1.06072 0.51426
 H764 H 1.14625 0.98523 0.51542
 H765 H 1.05710 0.86687 0.48249
 H766 H 0.98140 0.85284 0.52342
 H767 H 0.86987 0.93998 0.51712
 H768 H 0.85681 1.00977 0.48712
 H769 H 0.89979 1.12447 0.50036
 H770 H 1.05884 1.15094 0.49818
 O771 O 0.59537 0.43462 0.05312
 O772 O 0.54656 0.46812 0.09972
 C773 C 0.58250 0.44496 0.09066
 O774 O 0.56224 0.59486 -0.06073
 O775 O 0.52718 0.54672 -0.10692
 C776 C 0.55087 0.58233 -0.09808
 O777 O 0.56745 0.59060 0.05540
 O778 O 0.53129 0.54255 0.10089
 C779 C 0.55664 0.57713 0.09270
 O780 O 0.59008 0.43101 -0.06274
 O781 O 0.54289 0.46856 -0.10811
 C782 C 0.57687 0.44228 -0.09997
 Zr783 Zr 0.56528 0.45297 -0.00426
 O784 O 0.63510 0.46795 -0.00901
 O785 O 0.57835 0.38284 -0.00028
 Zr786 Zr 0.54579 0.56465 -0.00297
 O787 O 0.61691 0.57093 -0.00482
 O788 O 0.53630 0.63528 0.00170
 O789 O 0.56427 0.50999 0.03393
 O790 O 0.56312 0.51071 -0.04044
 O791 O 0.43508 0.40387 -0.06085
 O792 O 0.46910 0.45286 -0.10707
 C793 C 0.44601 0.41684 -0.09821
 O794 O 0.40462 0.56245 0.05584
 O795 O 0.45485 0.52901 0.10119
 C796 C 0.41860 0.55193 0.09305
 O797 O 0.40602 0.56676 -0.06076
 O798 O 0.45292 0.53065 -0.10731
 C799 C 0.41840 0.55596 -0.09838
 O800 O 0.43167 0.40644 0.05546
 O801 O 0.46898 0.45337 0.10101
 C802 C 0.44343 0.41904 0.09275
 Zr803 Zr 0.45253 0.43303 -0.00298
 O804 O 0.38203 0.42156 -0.00728
 O805 O 0.46473 0.36278 0.00139
 Zr806 Zr 0.43300 0.54525 -0.00267
 O807 O 0.36272 0.53232 -0.00679
 O808 O 0.42140 0.61558 0.00196
 Zr809 Zr 0.49954 0.49830 0.05899
 Zr810 Zr 0.49840 0.49947 -0.06558
 O811 O 0.43432 0.48778 -0.03921
 O812 O 0.43428 0.48734 0.03470
 O813 O 0.51002 0.43452 -0.04091
 O814 O 0.48820 0.56279 0.03346
 O815 O 0.51084 0.43439 0.03253
 O816 O 0.48753 0.56409 -0.04007
 H817 H 0.58896 0.51570 -0.05966
 H818 H 0.48372 0.58908 0.05223
 H819 H 0.40803 0.48288 -0.05791
 H820 H 0.51595 0.40804 0.05109
 H821 H 0.51170 0.64336 -0.01786
 H822 H 0.43603 0.63018 -0.02244
 H823 H 0.35420 0.51296 0.01723
 H824 H 0.36760 0.43688 0.01678
 H825 H 0.48489 0.35441 -0.02206
 H826 H 0.56002 0.36778 -0.02210
 H827 H 0.64262 0.48938 0.01375
 H828 H 0.62328 0.60378 -0.00439
 C829 C 0.32141 1.13300 0.12368
 C830 C 0.28973 1.12115 0.09385
 C831 C 0.31094 1.09132 0.06787
 C832 C 0.35423 1.08792 0.08336
 O833 O 0.36065 1.11297 0.11739
 H834 H 0.25531 1.13313 0.09133
 H835 H 0.29712 1.07542 0.04014
 C836 C 0.82345 0.63557 0.62359
 C837 C 0.79172 0.62348 0.59388
 C838 C 0.81289 0.59342 0.56812
 C839 C 0.85616 0.59008 0.58365
 O840 O 0.86263 0.61539 0.61748
 H841 H 0.75723 0.63530 0.59136
 H842 H 0.79905 0.57722 0.54057
 C843 C 0.67580 0.86530 0.12539
 C844 C 0.70661 0.87619 0.09447
 C845 C 0.68564 0.90743 0.06982
 C846 C 0.64336 0.91270 0.08720
 O847 O 0.63735 0.88737 0.12110
 H848 H 0.74026 0.86262 0.09033
 H849 H 0.69864 0.92266 0.04143
 C850 C 1.17806 0.36725 0.62557
 C851 C 1.20871 0.37820 0.59456
 C852 C 1.18750 0.40933 0.56998
 C853 C 1.14529 0.41446 0.58754
 O854 O 1.13951 0.38914 0.62144
 H855 H 1.24236 0.36469 0.59029
 H856 H 1.20032 0.42459 0.54152
 C857 C 0.66452 1.15404 -0.11765
 C858 C 0.69572 1.14102 -0.08787
 C859 C 0.67564 1.10724 -0.06574
 C860 C 0.63328 1.10243 -0.08305
 O861 O 0.62645 1.13052 -0.11498
 H862 H 0.72980 1.15361 -0.08384
 H863 H 0.68997 1.08860 -0.03981
 C864 C 1.16603 0.65407 0.38333
 C865 C 1.19802 0.63995 0.41195
 C866 C 1.17811 0.60594 0.43385
 C867 C 1.13516 0.60236 0.41755
 O868 O 1.12778 0.63116 0.38644
 H869 H 1.23242 0.65191 0.41529
 H870 H 1.19295 0.58636 0.45893
 C871 C 0.33160 0.83669 -0.11316
 C872 C 0.30007 0.85106 -0.08422
 C873 C 0.32060 0.88461 -0.06202
 C874 C 0.36369 0.88784 -0.07808
 O875 O 0.37035 0.85920 -0.10969
 H876 H 0.26535 0.83994 -0.08117
 H877 H 0.30573 0.90468 -0.03735
 C878 C 0.83385 0.34296 0.38402
 C879 C 0.80163 0.35681 0.41253
 C880 C 0.82192 0.38927 0.43613
 C881 C 0.86540 0.39224 0.42102
 O882 O 0.87270 0.36459 0.38889
 H883 H 0.76685 0.34569 0.41473
 H884 H 0.80683 0.40850 0.46128
 C885 C 1.16595 0.34368 0.11703
 C886 C 1.16116 0.31632 0.08223
 C887 C 1.12497 0.33272 0.06083
 C888 C 1.11035 0.36924 0.08365
 O889 O 1.13497 0.37594 0.11804
 H890 H 1.18072 0.28672 0.07422
 H891 H 1.11179 0.32047 0.03139
 C892 C 0.66608 0.84373 0.61758
 C893 C 0.66245 0.81680 0.58236
 C894 C 0.62625 0.83272 0.56070
 C895 C 0.61051 0.86849 0.58388
 O896 O 0.63445 0.87527 0.61861
 H897 H 0.68283 0.78779 0.57419
 H898 H 0.61388 0.82082 0.53084
 C899 C 1.12459 0.66634 -0.13856
 C900 C 1.07976 0.67386 -0.14912
 C901 C 1.05490 0.66040 -0.11575
 C902 C 1.08537 0.64320 -0.08747
 O903 O 1.12818 0.64736 -0.10083
 H904 H 1.06650 0.68790 -0.17797
 H905 H 1.01839 0.65805 -0.11448
 C906 C 0.63862 1.16918 0.37739
 C907 C 0.62863 1.20126 0.40742
 C908 C 0.59728 1.18194 0.43322
 C909 C 0.59087 1.13922 0.41742
 O910 O 0.61569 1.13140 0.38332
 H911 H 0.64278 1.23485 0.41017
 H912 H 0.58251 1.19644 0.46114
 C913 C 0.83274 0.65604 0.11605
 C914 C 0.83697 0.68400 0.08153
 C915 C 0.87168 0.66700 0.05847
 C916 C 0.88602 0.62952 0.08004
 O917 O 0.86268 0.62279 0.11528
 H918 H 0.81797 0.71432 0.07473
 H919 H 0.88416 0.67968 0.02894
 C920 C 0.33106 1.15478 0.61556
 C921 C 0.33482 1.18175 0.58031
 C922 C 0.37014 1.16492 0.55797
 C923 C 0.38529 1.12859 0.58073
 O924 O 0.36184 1.12235 0.61592
 H925 H 0.31516 1.21139 0.57259
 H926 H 0.38245 1.17686 0.52812
 C927 C 0.86145 0.32991 -0.12356
 C928 C 0.86982 0.29946 -0.09169
 C929 C 0.90318 0.31824 -0.06784
 C930 C 0.91252 0.35908 -0.08656
 O931 O 0.88743 0.36618 -0.12064
 H932 H 0.85340 0.26724 -0.08653
 H933 H 0.91710 0.30499 -0.03899
 C934 C 0.36291 0.82610 0.37719
 C935 C 0.37401 0.79333 0.40625
 C936 C 0.40549 0.81253 0.43193
 C937 C 0.41074 0.85576 0.41690
 O938 O 0.38522 0.86403 0.38346
 H939 H 0.36048 0.75943 0.40842
 H940 H 0.42102 0.79761 0.45934
 C941 C 1.10355 1.15402 0.33087
 C942 C 1.06758 1.14039 0.30614
 C943 C 1.04430 1.11011 0.32948
 C944 C 1.06756 1.10780 0.36670
 O945 O 1.10354 1.13438 0.36796
 H946 H 1.06019 1.15012 0.27415
 H947 H 1.01405 1.09189 0.32059
 C948 C 0.60333 0.65431 -0.16931
 C949 C 0.56668 0.64197 -0.19374
 C950 C 0.54215 0.61320 -0.16990
 C951 C 0.56533 0.61056 -0.13268
 O952 O 0.60252 0.63542 -0.13189
 H953 H 0.55959 0.65148 -0.22584
 H954 H 0.51134 0.59585 -0.17858
 C955 C 0.85131 1.10363 0.66810
 C956 C 0.86541 1.06730 0.69205
 C957 C 0.89234 1.04255 0.66681
 C958 C 0.89252 1.06530 0.62923
 O959 O 0.86749 1.10240 0.62952
 H960 H 0.85826 1.06064 0.72477
 H961 H 0.91041 1.01202 0.67493
 C962 C 0.35042 0.60373 0.16809
 C963 C 0.36537 0.56763 0.19188
 C964 C 0.39229 0.54334 0.16629
 C965 C 0.39160 0.56610 0.12873
 O966 O 0.36601 0.60278 0.12931
 H967 H 0.35882 0.56085 0.22468
 H968 H 0.41095 0.51309 0.17417
 C969 C 1.15226 0.89460 0.66919
 C970 C 1.13358 0.92899 0.69323
 C971 C 1.10759 0.95326 0.66697
 C972 C 1.11191 0.93245 0.62871
 O973 O 1.13960 0.89710 0.62939
 H974 H 1.13730 0.93493 0.72657
 H975 H 1.08673 0.98198 0.67500
 C976 C 0.65157 0.39213 0.16482
 C977 C 0.63859 0.42928 0.18815
 C978 C 0.61196 0.45405 0.16267
 C979 C 0.61058 0.43054 0.12564
 O980 O 0.63491 0.39293 0.12634
 H981 H 0.64610 0.43651 0.22069
 H982 H 0.59456 0.48506 0.17029
 C983 C 0.89485 0.84392 0.33222
 C984 C 0.93127 0.85659 0.30760
 C985 C 0.95551 0.88589 0.33109
 C986 C 0.93242 0.88864 0.36837
 O987 O 0.89552 0.86324 0.36948
 H988 H 0.93843 0.84683 0.27557
 H989 H 0.98628 0.90326 0.32220
 C990 C 0.39682 0.34174 -0.16848
 C991 C 0.43308 0.35507 -0.19299
 C992 C 0.45611 0.38548 -0.16966
 C993 C 0.43245 0.38808 -0.13268
 O994 O 0.39642 0.36161 -0.13155
 H995 H 0.44073 0.34519 -0.22489
 H996 H 0.48638 0.40374 -0.17847
 C997 C 1.15764 0.33610 -0.11591
 C998 C 1.14438 0.30430 -0.08674
 C999 C 1.11098 0.32411 -0.06405
 C1000 C 1.10676 0.36692 -0.08041
 O1001 O 1.13471 0.37427 -0.11234
 H1002 H 1.15653 0.27002 -0.08350
 H1003 H 1.09216 0.30926 -0.03847
 C1004 C 0.65338 0.83314 0.38432
 C1005 C 0.64069 0.80120 0.41362
 C1006 C 0.60714 0.82063 0.43652
 C1007 C 0.60220 0.86334 0.42012
 O1008 O 0.62989 0.87097 0.38802
 H1009 H 0.65344 0.76715 0.41694
 H1010 H 0.58884 0.80567 0.46240
 C1011 C 0.84453 0.66417 -0.11612
 C1012 C 0.85727 0.69644 -0.08722
 C1013 C 0.89057 0.67715 -0.06394
 C1014 C 0.89507 0.63413 -0.07962
 O1015 O 0.86761 0.62622 -0.11179
 H1016 H 0.84484 0.73067 -0.08454
 H1017 H 0.90927 0.69255 -0.03858
 C1018 C 0.34269 1.16272 0.38421
 C1019 C 0.35697 1.19534 0.41215
 C1020 C 0.38913 1.17527 0.43622
 C1021 C 0.39152 1.13148 0.42201
 O1022 O 0.36380 1.12377 0.38991
 H1023 H 0.34638 1.23027 0.41361
 H1024 H 0.40865 1.19075 0.46101
 C1025 C 1.13635 0.67641 0.12509
 C1026 C 1.12689 0.70689 0.09354
 C1027 C 1.09600 0.68598 0.06846
 C1028 C 1.08963 0.64415 0.08638
 O1029 O 1.11388 0.63827 0.12086
 H1030 H 1.14129 0.74019 0.08920
 H1031 H 1.08177 0.69864 0.03948
 C1032 C 0.63725 1.17545 0.62329
 C1033 C 0.62623 1.20653 0.59268
 C1034 C 0.59539 1.18548 0.56753
 C1035 C 0.59061 1.14291 0.58434
 O1036 O 0.61574 1.13679 0.61833
 H1037 H 0.63927 1.24048 0.58916
 H1038 H 0.57978 1.19881 0.53948
 C1039 C 0.86543 0.32200 0.12457
 C1040 C 0.87673 0.29134 0.09374
 C1041 C 0.90765 0.31276 0.06893
 C1042 C 0.91237 0.35517 0.08609
 O1043 O 0.88696 0.36083 0.12002
 H1044 H 0.86366 0.25746 0.08977
 H1045 H 0.92319 0.29984 0.04069
 C1046 C 0.36202 0.82296 0.62877
 C1047 C 0.36120 0.80114 0.59031
 C1048 C 0.39387 0.82086 0.56671
 C1049 C 0.41163 0.85447 0.59142
 O1050 O 0.39278 0.85572 0.62950
 H1051 H 0.33902 0.77407 0.58037
 H1052 H 0.40094 0.81435 0.53399
 C1053 C 0.32725 1.13786 -0.12307
 C1054 C 0.29581 1.12926 -0.09200
 C1055 C 0.31475 1.09725 -0.06678
 C1056 C 0.35654 1.08910 -0.08405
 O1057 O 0.36417 1.11348 -0.11839
 H1058 H 0.26301 1.14486 -0.08815
 H1059 H 0.30086 1.08339 -0.03816
 C1060 C 0.82867 0.63979 0.37787
 C1061 C 0.79735 0.63094 0.40898
 C1062 C 0.81643 0.59891 0.43410
 C1063 C 0.85823 0.59099 0.41678
 O1064 O 0.86570 0.61550 0.38245
 H1065 H 0.76445 0.64630 0.41288
 H1066 H 0.80258 0.58483 0.46264
 C1067 C 0.65567 1.16345 0.11612
 C1068 C 0.68398 1.15824 0.08199
 C1069 C 0.66714 1.12280 0.05974
 C1070 C 0.62941 1.10896 0.08140
 O1071 O 0.62240 1.13336 0.11591
 H1072 H 0.71445 1.17706 0.07497
 H1073 H 0.67994 1.10964 0.03050
 C1074 C 1.15459 0.67059 0.61078
 C1075 C 1.18209 0.66619 0.57600
 C1076 C 1.16660 0.62919 0.55502
 C1077 C 1.13055 0.61366 0.57815
 O1078 O 1.12321 0.63863 0.61214
 H1079 H 1.21124 0.68649 0.56781
 H1080 H 1.17914 0.61602 0.52571
 C1081 C 0.66912 0.85679 -0.12222
 C1082 C 0.69988 0.86497 -0.09050
 C1083 C 0.68129 0.89816 -0.06648
 C1084 C 0.64042 0.90750 -0.08511
 O1085 O 0.63302 0.88267 -0.11916
 H1086 H 0.73209 0.84850 -0.08553
 H1087 H 0.69462 0.91191 -0.03760
 C1088 C 1.17080 0.35918 0.37694
 C1089 C 1.20178 0.36774 0.40837
 C1090 C 1.18307 0.40071 0.43261
 C1091 C 1.14184 0.40952 0.41446
 O1092 O 1.13436 0.38458 0.38045
 H1093 H 1.23419 0.35159 0.41307
 H1094 H 1.19659 0.41462 0.46136
 C1095 C 0.34499 0.83041 0.11616
 C1096 C 0.31603 0.83469 0.08236
 C1097 C 0.33172 0.87025 0.05960
 C1098 C 0.36945 0.88491 0.08066
 O1099 O 0.37751 0.86111 0.11530
 H1100 H 0.28586 0.81519 0.07591
 H1101 H 0.31810 0.88306 0.03058
 C1102 C 0.84643 0.33077 0.61544
 C1103 C 0.81907 0.33376 0.58039
 C1104 C 0.83499 0.36938 0.55779
 C1105 C 0.87120 0.38547 0.58023
 O1106 O 0.87821 0.36231 0.61546
 H1107 H 0.78982 0.31332 0.57291
 H1108 H 0.82268 0.38116 0.52789
 C1109 C 1.10713 1.15103 0.66608
 C1110 C 1.07021 1.13686 0.68926
 C1111 C 1.04773 1.10760 0.66450
 C1112 C 1.07228 1.10625 0.62792
 O1113 O 1.10839 1.13276 0.62834
 H1114 H 1.06172 1.14555 0.72127
 H1115 H 1.01719 1.08918 0.67218
 C1116 C 0.60799 0.64685 0.16712
 C1117 C 0.57242 0.63097 0.19118
 C1118 C 0.54891 0.60288 0.16610
 C1119 C 0.57150 0.60381 0.12841
 O1120 O 0.60740 0.63069 0.12851
 H1121 H 0.56539 0.63795 0.22385
 H1122 H 0.51903 0.58366 0.17436
 C1123 C 1.15354 0.89072 0.33125
 C1124 C 1.13747 0.92481 0.30563
 C1125 C 1.10668 0.94736 0.32881
 C1126 C 1.10642 0.92567 0.36693
 O1127 O 1.13481 0.89117 0.36881
 H1128 H 1.14622 0.93160 0.27327
 H1129 H 1.08703 0.97640 0.31928
 C1130 C 0.65007 0.39020 -0.17097
 C1131 C 0.63327 0.42354 -0.19709
 C1132 C 0.60275 0.44653 -0.17394
 C1133 C 0.60341 0.42598 -0.13529
 O1134 O 0.63202 0.39161 -0.13312
 H1135 H 0.64160 0.42974 -0.22966
 H1136 H 0.58281 0.47524 -0.18379
 C1137 C 0.84669 1.10559 0.33207
 C1138 C 0.86140 1.07045 0.30700
 C1139 C 0.89193 1.04756 0.33021
 C1140 C 0.89338 1.07003 0.36785
 O1141 O 0.86597 1.10538 0.36941
 H1142 H 0.85197 1.06316 0.27492
 H1143 H 0.91073 1.01784 0.32101
 C1144 C 0.34101 0.60487 -0.16828
 C1145 C 0.35667 0.57038 -0.19363
 C1146 C 0.38841 0.54851 -0.17090
 C1147 C 0.38976 0.57081 -0.13313
 O1148 O 0.36100 0.60516 -0.13115
 H1149 H 0.34713 0.56298 -0.22566
 H1150 H 0.40803 0.51948 -0.18051
 C1151 C 0.88826 0.85652 0.66951
 C1152 C 0.92042 0.87634 0.69511
 C1153 C 0.94563 0.90259 0.66982
 C1154 C 0.92732 0.89685 0.63056
 O1155 O 0.89245 0.86868 0.62985
 H1156 H 0.92414 0.87306 0.72875
 H1157 H 0.97360 0.92405 0.67899
 C1158 C 0.39254 0.34838 0.16664
 C1159 C 0.42912 0.36251 0.19027
 C1160 C 0.45275 0.39080 0.16537
 C1161 C 0.42916 0.39163 0.12820
 O1162 O 0.39256 0.36576 0.12849
 H1163 H 0.43662 0.35443 0.22265
 H1164 H 0.48334 0.40896 0.17345
   
