data_POSCAR
  _audit_creation_date              2014-09-24
  _audit_creation_method            'ToBaCCo'
  _symmetry_space_group_name_H-M    'P1'
  _symmetry_Int_Tables_number       1
  _symmetry_cell_setting            triclinic
  loop_
  _symmetry_equiv_pos_as_xyz
 x,y,z
_cell_length_a 57.4785
_cell_length_b 57.6474
_cell_length_c 41.8860
_cell_angle_alpha 90.065500
_cell_angle_beta 89.935800
_cell_angle_gamma 120.253300
loop_
  _atom_site_label
  _atom_site_type_symbol
  _atom_site_fract_x
  _atom_site_fract_y
  _atom_site_fract_z
C1 C 0.07404 0.54971 0.04652
 C2 C 0.07415 0.52599 0.04650
 C3 C 0.04921 0.50651 0.03513
 N4 N 0.03393 0.51753 0.02797
 C5 C 0.04904 0.54392 0.03515
 C6 C 0.03982 0.47871 0.03450
 C7 C 0.01651 0.46045 0.01750
 C8 C 0.00193 0.43300 0.02260
 C9 C -0.01861 0.42256 0.00057
 C10 C -0.01571 0.44393 -0.01783
 N11 N 0.00563 0.46697 -0.00703
 C12 C -0.03166 0.44230 -0.04452
 C13 C -0.03146 0.46564 -0.05559
 C14 C -0.03681 0.46981 -0.08667
 C15 C -0.03691 0.49349 -0.08667
 C16 C -0.03161 0.50311 -0.05560
 N17 N -0.02773 0.48631 -0.03667
 C18 C -0.03199 0.52617 -0.04454
 C19 C -0.01612 0.54067 -0.01783
 C20 C -0.01920 0.55904 0.00057
 C21 C 0.00134 0.56940 0.02262
 C22 C 0.01609 0.55676 0.01753
 N23 N 0.00532 0.53925 -0.00701
 C24 C 0.03944 0.56212 0.03453
 H25 H 0.09039 0.56895 0.05436
 H26 H 0.09060 0.52335 0.05433
 H27 H 0.01360 0.52871 -0.01770
 H28 H 0.00542 0.42170 0.04069
 H29 H -0.03412 0.40166 -0.00097
 H30 H -0.03989 0.45733 -0.10736
 H31 H -0.04007 0.50277 -0.10738
 H32 H 0.00471 0.58419 0.04071
 H33 H 0.01378 0.48581 -0.01772
 H34 H -0.03481 0.56421 -0.00098
 C35 C 0.51294 0.46743 -0.08085
 C36 C 0.53688 0.49117 -0.07969
 C37 C 0.53821 0.50208 -0.04986
 N38 N 0.51595 0.48576 -0.03256
 C39 C 0.50058 0.46425 -0.05136
 C40 C 0.56062 0.52580 -0.03826
 C41 C 0.55863 0.54054 -0.01260
 C42 C 0.58017 0.56090 0.00387
 C43 C 0.56951 0.57103 0.02551
 C44 C 0.54178 0.55652 0.02162
 N45 N 0.53535 0.53806 -0.00171
 C46 C 0.52317 0.56113 0.03838
 C47 C 0.49528 0.54233 0.03885
 C48 C 0.47564 0.54753 0.05000
 C49 C 0.45179 0.52361 0.04922
 C50 C 0.45763 0.50459 0.03761
 N51 N 0.48421 0.51607 0.03113
 C52 C 0.43914 0.47674 0.03612
 C53 C 0.44442 0.45879 0.01899
 C54 C 0.43096 0.43125 0.02341
 C55 C 0.44155 0.42110 0.00177
 C56 C 0.46093 0.44270 -0.01576
 N57 N 0.46265 0.46565 -0.00485
 C58 C 0.47634 0.44115 -0.04138
 H59 H 0.50544 0.45424 -0.10135
 H60 H 0.55153 0.49962 -0.09879
 H61 H 0.47393 0.48466 -0.01497
 H62 H 0.60136 0.56778 0.00064
 H63 H 0.58090 0.58719 0.04222
 H64 H 0.47824 0.56653 0.05806
 H65 H 0.43239 0.52055 0.05664
 H66 H 0.43592 0.40020 -0.00004
 H67 H 0.51641 0.52628 -0.01190
 H68 H 0.41549 0.41969 0.04085
 C69 C 0.46313 0.95128 0.07935
 C70 C 0.48657 0.95051 0.07934
 C71 C 0.49978 0.96243 0.05111
 N72 N 0.48528 0.97058 0.03394
 C73 C 0.46280 0.96366 0.05114
 C74 C 0.52372 0.96372 0.04041
 C75 C 0.53899 0.98015 0.01468
 C76 C 0.55907 0.97823 -0.00139
 C77 C 0.56960 0.99853 -0.02371
 C78 C 0.55566 1.01224 -0.02054
 N79 N 0.53713 1.00097 0.00292
 C80 C 0.56112 1.03553 -0.03758
 C81 C 0.54318 1.04549 -0.03789
 C82 C 0.55031 1.07150 -0.04601
 C83 C 0.52708 1.07260 -0.04559
 C84 C 0.50631 1.04701 -0.03790
 N85 N 0.51631 1.03051 -0.03269
 C86 C 0.47846 1.03871 -0.03747
 C87 C 0.45978 1.01546 -0.02022
 C88 C 0.43204 1.00117 -0.02471
 C89 C 0.42154 0.98084 -0.00253
 C90 C 0.44309 0.98289 0.01458
 N91 N 0.46631 1.00397 0.00369
 C92 C 0.44089 0.96605 0.04025
 H93 H 0.44796 0.94341 0.09791
 H94 H 0.49304 0.94199 0.09793
 H95 H 0.48529 1.01151 0.01393
 H96 H 0.56545 0.96372 0.00249
 H97 H 0.58571 1.00271 -0.04027
 H98 H 0.57026 1.08806 -0.05127
 H99 H 0.52585 1.09042 -0.05005
 H100 H 0.40045 0.96592 0.00025
 H101 H 0.52579 1.00880 0.01248
 H102 H 0.42041 1.00443 -0.04255
 C103 C 1.03779 0.50759 0.41305
 C104 C 1.03768 0.53125 0.41305
 C105 C 1.03226 0.53545 0.44411
 N106 N 1.02851 0.51480 0.46304
 C107 C 1.03244 0.49800 0.44412
 C108 C 1.03242 0.55879 0.45517
 C109 C 1.01644 0.55719 0.48185
 C110 C 1.01931 0.57857 0.50025
 C111 C 0.99873 0.56816 0.52227
 C112 C 0.98415 0.54070 0.51715
 N113 N 0.99508 0.53416 0.49262
 C114 C 0.96083 0.52246 0.53414
 C115 C 0.95143 0.49465 0.53471
 C116 C 0.92647 0.47519 0.54606
 C117 C 0.92657 0.45146 0.54606
 C118 C 0.95159 0.45725 0.53470
 N119 N 0.96672 0.48363 0.52755
 C120 C 0.96119 0.43904 0.53414
 C121 C 0.98456 0.44436 0.51715
 C122 C 0.99928 0.43171 0.52226
 C123 C 1.01988 0.44206 0.50025
 C124 C 1.01686 0.46044 0.48185
 N125 N 0.99540 0.46186 0.49263
 C126 C 1.03281 0.47495 0.45519
 H127 H 1.04101 0.49829 0.39236
 H128 H 1.04080 0.54371 0.39235
 H129 H 0.98715 0.47242 0.48193
 H130 H 1.03482 0.59947 0.49872
 H131 H 0.99521 0.57947 0.54035
 H132 H 0.91001 0.47784 0.55391
 H133 H 0.91021 0.43223 0.55390
 H134 H 1.03548 0.43688 0.49872
 H135 H 0.98694 0.51531 0.48192
 H136 H 0.99586 0.41692 0.54033
 C137 C 0.53774 0.48542 0.57716
 C138 C 0.51388 0.46151 0.57718
 C139 C 0.50041 0.46098 0.54951
 N140 N 0.51523 0.48381 0.53261
 C141 C 0.53810 0.49876 0.54948
 C142 C 0.47578 0.43885 0.53923
 C143 C 0.46024 0.44053 0.51420
 C144 C 0.43919 0.41870 0.49893
 C145 C 0.42885 0.42884 0.47697
 C146 C 0.44387 0.45659 0.47946
 N147 N 0.46285 0.46354 0.50234
 C148 C 0.43922 0.47469 0.46172
 C149 C 0.45803 0.50250 0.45988
 C150 C 0.45253 0.52154 0.44761
 C151 C 0.47634 0.54550 0.44770
 C152 C 0.49566 0.54034 0.46001
 N153 N 0.48442 0.51403 0.46752
 C154 C 0.52346 0.55939 0.46199
 C155 C 0.54179 0.55495 0.47963
 C156 C 0.56961 0.57017 0.47710
 C157 C 0.57999 0.55999 0.49895
 C158 C 0.55822 0.53883 0.51420
 N159 N 0.53503 0.53600 0.50242
 C160 C 0.56013 0.52342 0.53918
 H161 H 0.55308 0.49218 0.59546
 H162 H 0.50725 0.44625 0.59550
 H163 H 0.51583 0.52362 0.51158
 H164 H 0.43207 0.39763 0.50303
 H165 H 0.41223 0.41709 0.46093
 H166 H 0.43335 0.51853 0.43941
 H167 H 0.47909 0.56453 0.43957
 H168 H 0.60116 0.56729 0.50300
 H169 H 0.47509 0.48273 0.51149
 H170 H 0.58125 0.58682 0.46110
 C171 C 0.53564 0.04772 0.58191
 C172 C 0.51186 0.04786 0.58196
 C173 C 0.49881 0.03576 0.55372
 N174 N 0.51368 0.02807 0.53651
 C175 C 0.53630 0.03554 0.55365
 C176 C 0.47496 0.03437 0.54267
 C177 C 0.46000 0.01778 0.51691
 C178 C 0.44128 0.02064 0.49919
 C179 C 0.43079 0.00011 0.47717
 C180 C 0.44305 -0.01507 0.48248
 N181 N 0.46104 -0.00390 0.50658
 C182 C 0.43734 -0.03904 0.46637
 C183 C 0.45581 -0.04848 0.46797
 C184 C 0.44910 -0.07510 0.46498
 C185 C 0.47277 -0.07534 0.46507
 C186 C 0.49327 -0.04885 0.46809
 N187 N 0.48286 -0.03243 0.47051
 C188 C 0.52119 -0.03987 0.46665
 C189 C 0.53992 -0.01592 0.48262
 C190 C 0.56754 -0.00107 0.47725
 C191 C 0.57802 0.01957 0.49912
 C192 C 0.55653 0.01709 0.51684
 N193 N 0.53343 -0.00447 0.50663
 C194 C 0.55858 0.03386 0.54252
 H195 H 0.55083 0.05594 0.60041
 H196 H 0.50512 0.05619 0.60052
 H197 H 0.51457 -0.01238 0.51738
 H198 H 0.43607 0.03617 0.50147
 H199 H 0.41623 -0.00272 0.45904
 H200 H 0.42917 -0.09263 0.46343
 H201 H 0.47460 -0.09309 0.46361
 H202 H 0.59900 0.03492 0.50131
 H203 H 0.47166 -0.01207 0.51730
 H204 H 0.57911 -0.00418 0.45915
 O205 O 0.18366 0.41383 0.21868
 O206 O 0.22903 0.41314 0.28081
 O207 O 0.18354 0.41359 0.28090
 O208 O 0.22906 0.41327 0.21858
 O209 O 0.25156 0.45763 0.21897
 O210 O 0.20663 0.45795 0.28095
 O211 O 0.25157 0.45751 0.28079
 O212 O 0.20669 0.45819 0.21914
 Cu213 Cu 0.20401 0.40895 0.24973
 Cu214 Cu 0.23138 0.46223 0.24999
 C215 C 0.18744 0.43625 0.20856
 C216 C 0.24817 0.43533 0.29114
 C217 C 0.18732 0.43595 0.29131
 C218 C 0.24819 0.43551 0.20838
 O219 O 0.58444 0.76998 0.22110
 O220 O 0.58437 0.81542 0.28350
 O221 O 0.58463 0.76998 0.28327
 O222 O 0.58402 0.81530 0.22121
 O223 O 0.53953 0.79246 0.22176
 O224 O 0.54013 0.74762 0.28333
 O225 O 0.53988 0.79251 0.28362
 O226 O 0.53995 0.74765 0.22156
 Cu227 Cu 0.58888 0.79499 0.25225
 Cu228 Cu 0.53545 0.76783 0.25260
 C229 C 0.56210 0.75095 0.21094
 C230 C 0.56199 0.81168 0.29400
 C231 C 0.56236 0.75092 0.29359
 C232 C 0.56154 0.81157 0.21109
 O233 O 0.18325 0.77155 0.28121
 O234 O 0.22923 0.81741 0.21908
 O235 O 0.18347 0.77155 0.21900
 O236 O 0.22905 0.81741 0.28141
 O237 O 0.25104 0.79514 0.28128
 O238 O 0.20608 0.74990 0.21933
 O239 O 0.25126 0.79518 0.21945
 O240 O 0.20587 0.74991 0.28110
 Cu241 Cu 0.20400 0.79673 0.25016
 Cu242 Cu 0.23080 0.77037 0.25030
 C243 C 0.18673 0.75278 0.29149
 C244 C 0.24817 0.81406 0.20887
 C245 C 0.18701 0.75278 0.20878
 C246 C 0.24791 0.81404 0.29180
 O247 O 0.77099 0.58661 0.78176
 O248 O 0.81640 0.58628 0.71930
 O249 O 0.77068 0.58619 0.71945
 O250 O 0.81670 0.58662 0.78150
 O251 O 0.79397 0.54226 0.78166
 O252 O 0.74859 0.54183 0.72001
 O253 O 0.79377 0.54192 0.71987
 O254 O 0.74885 0.54225 0.78183
 Cu255 Cu 0.79595 0.59093 0.75048
 Cu256 Cu 0.76906 0.53766 0.75088
 C257 C 0.75207 0.56436 0.79224
 C258 C 0.81283 0.56393 0.70918
 C259 C 0.75170 0.56381 0.70934
 C260 C 0.81318 0.56437 0.79191
 O261 O 0.41457 0.22994 0.72064
 O262 O 0.41443 0.18423 0.78273
 O263 O 0.41435 0.22980 0.78293
 O264 O 0.41461 0.18444 0.72048
 O265 O 0.45911 0.20712 0.72086
 O266 O 0.45884 0.25188 0.78288
 O267 O 0.45892 0.20693 0.78266
 O268 O 0.45906 0.25209 0.72105
 Cu269 Cu 0.40997 0.20484 0.75170
 Cu270 Cu 0.46340 0.23173 0.75189
 C271 C 0.43697 0.24889 0.71045
 C272 C 0.43679 0.18779 0.79303
 C273 C 0.43669 0.24869 0.79332
 C274 C 0.43703 0.18808 0.71023
 O275 O 0.77135 0.18423 0.71876
 O276 O 0.81737 0.22975 0.78111
 O277 O 0.77162 0.18381 0.78101
 O278 O 0.81711 0.23004 0.71889
 O279 O 0.79453 0.25172 0.71983
 O280 O 0.74950 0.20596 0.78146
 O281 O 0.79465 0.25129 0.78163
 O282 O 0.74931 0.20645 0.71965
 Cu283 Cu 0.79662 0.20473 0.74989
 Cu284 Cu 0.76977 0.23103 0.75072
 C285 C 0.75239 0.18762 0.70878
 C286 C 0.81384 0.24841 0.79175
 C287 C 0.75268 0.18700 0.79158
 C288 C 0.81358 0.24888 0.70900
 N289 N 0.07603 0.44364 0.05877
 C290 C 0.08280 0.45213 0.08937
 N291 N 0.07480 0.46857 0.10215
 N292 N 0.06064 0.47649 0.08488
 C293 C 0.05407 0.46834 0.05412
 N294 N 0.06181 0.45156 0.04145
 C295 C 0.10001 0.44573 0.10747
 C296 C 0.11528 0.44214 0.12359
 C297 C 0.13429 0.44003 0.14376
 N298 N 0.12967 0.41587 0.15452
 N299 N 0.14685 0.41448 0.17474
 C300 C 0.16914 0.43722 0.18489
 N301 N 0.17370 0.46130 0.17391
 N302 N 0.15658 0.46268 0.15372
 N303 N 0.53303 0.60658 0.10559
 C304 C 0.54852 0.63111 0.09229
 N305 N 0.55649 0.63280 0.06145
 N306 N 0.54900 0.61057 0.04442
 C307 C 0.53319 0.58595 0.05764
 N308 N 0.52553 0.58440 0.08860
 C309 C 0.55442 0.65471 0.11015
 C310 C 0.55764 0.67351 0.12610
 C311 C 0.55936 0.69453 0.14613
 N312 N 0.58344 0.71453 0.15693
 N313 N 0.58449 0.73296 0.17713
 C314 C 0.56148 0.73189 0.18720
 N315 N 0.53748 0.71192 0.17618
 N316 N 0.53644 0.69357 0.15602
 N317 N 0.38165 0.90649 0.07398
 C318 C 0.36715 0.91707 0.08609
 N319 N 0.37633 0.94368 0.08224
 N320 N 0.39943 0.95923 0.06690
 C321 C 0.41418 0.94868 0.05513
 N322 N 0.40472 0.92199 0.05873
 C323 C 0.34378 0.90053 0.10513
 C324 C 0.32516 0.88565 0.12198
 C325 C 0.30441 0.86692 0.14290
 N326 N 0.28466 0.87123 0.15380
 N327 N 0.26634 0.85419 0.17448
 C328 C 0.26728 0.83236 0.18495
 N329 N 0.28702 0.82813 0.17385
 N330 N 0.30525 0.84510 0.15321
 N331 N 0.92591 0.53257 0.60199
 C332 C 0.91781 0.54894 0.58929
 N333 N 0.92453 0.55741 0.55869
 N334 N 0.93878 0.54955 0.54128
 C335 C 0.94660 0.53283 0.55387
 N336 N 0.94009 0.52469 0.58463
 C337 C 0.90053 0.55523 0.60749
 C338 C 0.88520 0.55869 0.62371
 C339 C 0.86612 0.56063 0.64401
 N340 N 0.84400 0.53788 0.65408
 N341 N 0.82683 0.53910 0.67439
 C342 C 0.83117 0.56312 0.68538
 N343 N 0.85330 0.58596 0.67512
 N344 N 0.87053 0.58473 0.65478
 N345 N 0.47656 0.38010 0.57269
 C346 C 0.45197 0.36627 0.58656
 N347 N 0.43468 0.37571 0.58401
 N348 N 0.44190 0.39843 0.56821
 C349 C 0.46669 0.41250 0.55461
 N350 N 0.48378 0.40278 0.55695
 C351 C 0.44559 0.34333 0.60601
 C352 C 0.44210 0.32504 0.62312
 C353 C 0.44019 0.30459 0.64427
 N354 N 0.41602 0.28473 0.65507
 N355 N 0.41482 0.26661 0.67585
 C356 C 0.43775 0.26786 0.68651
 N357 N 0.46183 0.28771 0.67553
 N358 N 0.46303 0.30575 0.65479
 N359 N 0.62406 0.05767 0.58277
 C360 C 0.63247 0.08404 0.58740
 N361 N 0.61712 0.09403 0.57643
 N362 N 0.59397 0.07817 0.56152
 C363 C 0.58528 0.05169 0.55715
 N364 N 0.60088 0.04176 0.56778
 C365 C 0.65603 0.10090 0.60598
 C366 C 0.67481 0.11594 0.62251
 C367 C 0.69578 0.13478 0.64313
 N368 N 0.69506 0.15666 0.65354
 N369 N 0.71344 0.17366 0.67403
 C370 C 0.73321 0.16938 0.68488
 N371 N 0.73402 0.14750 0.67431
 N372 N 0.71556 0.13043 0.65377
 N373 N 0.43903 0.06891 0.93639
 C374 C 0.45326 0.08307 0.91051
 N375 N 0.47541 0.08211 0.90172
 N376 N 0.48324 0.06761 0.91834
 C377 C 0.46936 0.05350 0.94456
 N378 N 0.44690 0.05433 0.95303
 C379 C 0.44608 0.09996 0.89307
 C380 C 0.44217 0.11517 0.87735
 C381 C 0.44006 0.13432 0.85753
 N382 N 0.41592 0.12966 0.84637
 N383 N 0.41466 0.14696 0.82628
 C384 C 0.43752 0.16939 0.81667
 N385 N 0.46157 0.17398 0.82806
 N386 N 0.46281 0.15676 0.84811
 N387 N 0.61825 0.52399 0.92578
 C388 C 0.63381 0.54949 0.91519
 N389 N 0.62586 0.56767 0.92073
 N390 N 0.60292 0.56043 0.93629
 C391 C 0.58716 0.53476 0.94665
 N392 N 0.59536 0.51675 0.94124
 C393 C 0.65712 0.55617 0.89614
 C394 C 0.67565 0.55975 0.87929
 C395 C 0.69629 0.56157 0.85836
 N396 N 0.71605 0.58559 0.84718
 N397 N 0.73423 0.58667 0.82646
 C398 C 0.73315 0.56376 0.81624
 N399 N 0.71340 0.53983 0.82762
 N400 N 0.69531 0.53876 0.84830
 N401 N 0.94093 0.37374 0.92578
 C402 C 0.91942 0.37046 0.90876
 N403 N 0.91416 0.39082 0.90753
 N404 N 0.92990 0.41377 0.92272
 C405 C 0.95163 0.41746 0.93978
 N406 N 0.95670 0.39680 0.94102
 C407 C 0.90242 0.34616 0.89152
 C408 C 0.88708 0.32685 0.87594
 C409 C 0.86774 0.30540 0.85627
 N410 N 0.84509 0.30536 0.84732
 N411 N 0.82772 0.28679 0.82729
 C412 C 0.83237 0.26757 0.81546
 N413 N 0.85501 0.26748 0.82462
 N414 N 0.87246 0.28614 0.84467
 N415 N 0.56143 0.93157 0.43760
 C416 C 0.54541 0.91511 0.41407
 N417 N 0.52173 0.91388 0.40793
 N418 N 0.51418 0.92853 0.42480
 C419 C 0.52991 0.94502 0.44861
 N420 N 0.55382 0.94627 0.45450
 C421 C 0.55264 0.89849 0.39608
 C422 C 0.55656 0.88348 0.37990
 C423 C 0.55866 0.86456 0.35957
 N424 N 0.58281 0.86934 0.34821
 N425 N 0.58407 0.85225 0.32774
 C426 C 0.56122 0.82991 0.31793
 N427 N 0.53716 0.82520 0.32950
 N428 N 0.53591 0.84222 0.34994
 N429 N 0.36707 0.44192 0.44022
 C430 C 0.36843 0.44825 0.40882
 N431 N 0.39287 0.46237 0.39466
 N432 N 0.41529 0.47014 0.41135
 C433 C 0.41408 0.46412 0.44286
 N434 N 0.38954 0.44967 0.45696
 C435 C 0.34467 0.44234 0.39120
 C436 C 0.32576 0.43918 0.37542
 C437 C 0.30466 0.43758 0.35557
 N438 N 0.28462 0.41365 0.34454
 N439 N 0.26616 0.41275 0.32448
 C440 C 0.26723 0.43576 0.31475
 N441 N 0.28725 0.45960 0.32600
 N442 N 0.30563 0.46049 0.34604
 N443 N 0.05978 0.62729 0.42543
 C444 C 0.08132 0.63058 0.40843
 N445 N 0.08663 0.61025 0.40722
 N446 N 0.07090 0.58731 0.42242
 C447 C 0.04913 0.58361 0.43946
 N448 N 0.04402 0.60425 0.44068
 C449 C 0.09830 0.65486 0.39117
 C450 C 0.11361 0.67416 0.37557
 C451 C 0.13290 0.69561 0.35587
 N452 N 0.15543 0.69554 0.34654
 N453 N 0.17277 0.71415 0.32653
 C454 C 0.16821 0.73352 0.31512
 N455 N 0.14569 0.73372 0.32465
 N456 N 0.12827 0.71501 0.34468
 N457 N 0.94028 0.56685 0.92572
 C458 C 0.91884 0.54842 0.90867
 N459 N 0.91373 0.52283 0.90742
 N460 N 0.92955 0.51583 0.92263
 C461 C 0.95121 0.53407 0.93972
 N462 N 0.95613 0.55977 0.94098
 C463 C 0.90177 0.55552 0.89141
 C464 C 0.88641 0.55936 0.87584
 C465 C 0.86708 0.56138 0.85618
 N466 N 0.87172 0.58541 0.84488
 N467 N 0.85427 0.58658 0.82489
 C468 C 0.83172 0.56375 0.81550
 N469 N 0.82714 0.53982 0.82703
 N470 N 0.84451 0.53866 0.84700
 N471 N 0.43444 0.37352 0.92641
 C472 C 0.45324 0.36918 0.91253
 N473 N 0.47950 0.38845 0.91443
 N474 N 0.48680 0.41141 0.92953
 C475 C 0.46819 0.41621 0.94331
 N476 N 0.44181 0.39657 0.94160
 C477 C 0.44589 0.34516 0.89476
 C478 C 0.44192 0.32612 0.87875
 C479 C 0.43984 0.30501 0.85859
 N480 N 0.46261 0.30553 0.84902
 N481 N 0.46140 0.28721 0.82869
 C482 C 0.43737 0.26769 0.81719
 N483 N 0.41449 0.26704 0.82695
 N484 N 0.41571 0.28546 0.84731
 N485 N 0.63317 0.07219 0.93954
 C486 C 0.63191 0.07970 0.90919
 N487 N 0.60753 0.07199 0.89612
 N488 N 0.58508 0.05739 0.91287
 C489 C 0.58620 0.04999 0.94333
 N490 N 0.61066 0.05751 0.95633
 C491 C 0.65587 0.09741 0.89169
 C492 C 0.67490 0.11312 0.87595
 C493 C 0.69609 0.13265 0.85613
 N494 N 0.71587 0.12857 0.84477
 N495 N 0.73437 0.14616 0.82466
 C496 C 0.73359 0.16831 0.81523
 N497 N 0.71384 0.17233 0.82682
 N498 N 0.69543 0.15482 0.84689
 N499 N 0.08724 0.47834 0.40724
 C500 C 0.08214 0.45275 0.40845
 N501 N 0.06067 0.43432 0.42546
 N502 N 0.04478 0.44138 0.44071
 C503 C 0.04967 0.46708 0.43949
 N504 N 0.07138 0.48533 0.42244
 C505 C 0.09922 0.44566 0.39115
 C506 C 0.11455 0.44175 0.37553
 C507 C 0.13378 0.43955 0.35581
 N508 N 0.12899 0.41544 0.34457
 N509 N 0.14632 0.41408 0.32451
 C510 C 0.16893 0.43680 0.31500
 N511 N 0.17367 0.46082 0.32646
 N512 N 0.15641 0.46217 0.34650
 N513 N 0.55575 0.63145 0.44130
 C514 C 0.54941 0.63028 0.40991
 N515 N 0.53542 0.60601 0.39549
 N516 N 0.52778 0.58355 0.41193
 C517 C 0.53380 0.58457 0.44341
 N518 N 0.54813 0.60894 0.45777
 C519 C 0.55524 0.65407 0.39257
 C520 C 0.55839 0.67303 0.37703
 C521 C 0.56002 0.69422 0.35746
 N522 N 0.53706 0.69339 0.34813
 N523 N 0.53798 0.71185 0.32830
 C524 C 0.56191 0.73181 0.31707
 N525 N 0.58497 0.73275 0.32660
 N526 N 0.58403 0.71421 0.34646
 N527 N 0.36862 0.93346 0.43654
 C528 C 0.36798 0.91701 0.41297
 N529 N 0.39028 0.91544 0.40706
 N530 N 0.41251 0.92975 0.42419
 C531 C 0.41347 0.94623 0.44805
 N532 N 0.39098 0.94783 0.45370
 C533 C 0.34405 0.90067 0.39473
 C534 C 0.32509 0.88580 0.37833
 C535 C 0.30409 0.86695 0.35776
 N536 N 0.28464 0.87152 0.34647
 N537 N 0.26629 0.85444 0.32584
 C538 C 0.26691 0.83232 0.31581
 N539 N 0.28635 0.82782 0.32731
 N540 N 0.30460 0.84483 0.34790
 N541 N 0.52106 0.90383 0.07571
 C542 C 0.54618 0.91404 0.08786
 N543 N 0.56435 0.94048 0.08361
 N544 N 0.55749 0.95623 0.06783
 C545 C 0.53219 0.94607 0.05596
 N546 N 0.51419 0.91954 0.06000
 C547 C 0.55243 0.89733 0.10710
 C548 C 0.55591 0.88247 0.12407
 C549 C 0.55792 0.86391 0.14509
 N550 N 0.58214 0.86844 0.15579
 N551 N 0.58347 0.85157 0.17650
 C552 C 0.56061 0.82969 0.18719
 N553 N 0.53647 0.82523 0.17629
 N554 N 0.53515 0.84204 0.15562
 N555 N 0.39295 0.46503 0.10329
 C556 C 0.36848 0.44949 0.08972
 N557 N 0.36709 0.44201 0.05872
 N558 N 0.38955 0.45005 0.04179
 C559 C 0.41410 0.46595 0.05527
 N560 N 0.41535 0.47308 0.08640
 C561 C 0.34465 0.44323 0.10745
 C562 C 0.32571 0.43986 0.12337
 C563 C 0.30463 0.43813 0.14342
 N564 N 0.30557 0.46098 0.15323
 N565 N 0.28721 0.45998 0.17345
 C566 C 0.26724 0.43607 0.18461
 N567 N 0.26619 0.41312 0.17460
 N568 N 0.28463 0.41414 0.15435
 N569 N 0.07528 0.63360 0.05882
 C570 C 0.08205 0.63202 0.08943
 N571 N 0.07414 0.60758 0.10222
 N572 N 0.06010 0.58539 0.08494
 C573 C 0.05353 0.58684 0.05417
 N574 N 0.06116 0.61136 0.04149
 C575 C 0.09923 0.65575 0.10752
 C576 C 0.11452 0.67469 0.12364
 C577 C 0.13362 0.69587 0.14381
 N578 N 0.12913 0.71545 0.15473
 N579 N 0.14639 0.73404 0.17499
 C580 C 0.16863 0.73355 0.18502
 N581 N 0.17306 0.71399 0.17389
 N582 N 0.15586 0.69549 0.15366
 N583 N 0.47771 0.09463 0.57711
 C584 C 0.45227 0.08477 0.58810
 N585 N 0.43387 0.05848 0.58330
 N586 N 0.44083 0.04251 0.56813
 C587 C 0.46646 0.05230 0.55748
 N588 N 0.48467 0.07871 0.56203
 C589 C 0.44587 0.10167 0.60685
 C590 C 0.44235 0.11669 0.62351
 C591 C 0.44038 0.13545 0.64427
 N592 N 0.41620 0.13093 0.65520
 N593 N 0.41495 0.14792 0.67584
 C594 C 0.43785 0.16991 0.68626
 N595 N 0.46194 0.17436 0.67513
 N596 N 0.46318 0.15744 0.65452
 N597 N 0.61947 0.52328 0.57233
 C598 C 0.63323 0.54784 0.58613
 N599 N 0.62351 0.56489 0.58366
 N600 N 0.60062 0.55747 0.56799
 C601 C 0.58664 0.53271 0.55447
 N602 N 0.59661 0.51585 0.55673
 C603 C 0.65638 0.55444 0.60540
 C604 C 0.67485 0.55810 0.62238
 C605 C 0.69551 0.56017 0.64339
 N606 N 0.69454 0.53749 0.65388
 N607 N 0.71275 0.53882 0.67453
 C608 C 0.73259 0.56290 0.68545
 N609 N 0.73366 0.58568 0.67481
 N610 N 0.71537 0.58433 0.65412
 N611 N 0.92650 0.39392 0.60203
 C612 C 0.91845 0.36941 0.58932
 N613 N 0.92516 0.36767 0.55870
 N614 N 0.93934 0.38983 0.54128
 C615 C 0.94710 0.41441 0.55389
 N616 N 0.94061 0.41603 0.58466
 C617 C 0.90122 0.34578 0.60751
 C618 C 0.88591 0.32692 0.62372
 C619 C 0.86686 0.30583 0.64401
 N620 N 0.84481 0.30641 0.65430
 N621 N 0.82765 0.28792 0.67457
 C622 C 0.83193 0.26818 0.68529
 N623 N 0.85397 0.26750 0.67483
 N624 N 0.87119 0.28606 0.65453
   
