data_POSCAR
  _audit_creation_date              2014-09-24
  _audit_creation_method            'ToBaCCo'
  _symmetry_space_group_name_H-M    'P1'
  _symmetry_Int_Tables_number       1
  _symmetry_cell_setting            triclinic
  loop_
  _symmetry_equiv_pos_as_xyz
 x,y,z
_cell_length_a 39.0727
_cell_length_b 39.0724
_cell_length_c 39.0727
_cell_angle_alpha 89.999500
_cell_angle_beta 89.986800
_cell_angle_gamma 90.000000
loop_
  _atom_site_label
  _atom_site_type_symbol
  _atom_site_fract_x
  _atom_site_fract_y
  _atom_site_fract_z
Zn1 Zn 0.77716 0.72305 0.77696
 Zn2 Zn 0.77717 0.77708 0.72294
 Zn3 Zn 0.72315 0.72306 0.72294
 Zn4 Zn 0.72314 0.77708 0.77697
 O5 O 0.75016 0.75007 0.74995
 O6 O 0.82192 0.73007 0.76995
 O7 O 0.77017 0.77008 0.67818
 O8 O 0.73016 0.67830 0.72994
 O9 O 0.82193 0.77007 0.72995
 O10 O 0.77016 0.67829 0.76994
 O11 O 0.73017 0.73007 0.67819
 O12 O 0.67838 0.77007 0.76995
 O13 O 0.77016 0.82184 0.72996
 O14 O 0.67840 0.73007 0.72995
 O15 O 0.73015 0.82183 0.76996
 O16 O 0.73013 0.77006 0.82172
 O17 O 0.77014 0.73005 0.82172
 C18 C 0.83791 0.75007 0.74995
 C19 C 0.75017 0.75007 0.66219
 C20 C 0.75016 0.66231 0.74994
 C21 C 0.66240 0.75007 0.74995
 C22 C 0.75016 0.83783 0.74996
 C23 C 0.75013 0.75005 0.83771
 Zn24 Zn 0.22315 0.72305 0.72295
 Zn25 Zn 0.22314 0.77709 0.77696
 Zn26 Zn 0.27716 0.72307 0.77697
 Zn27 Zn 0.27718 0.77707 0.72293
 O28 O 0.25016 0.75007 0.74995
 O29 O 0.17839 0.73006 0.72996
 O30 O 0.23013 0.77008 0.82172
 O31 O 0.27016 0.67831 0.76997
 O32 O 0.17838 0.77008 0.76995
 O33 O 0.23016 0.67829 0.72997
 O34 O 0.27014 0.73008 0.82172
 O35 O 0.32193 0.77006 0.72994
 O36 O 0.23016 0.82184 0.76994
 O37 O 0.32192 0.73008 0.76996
 O38 O 0.27017 0.82183 0.72993
 O39 O 0.27017 0.77005 0.67817
 O40 O 0.23017 0.73005 0.67819
 C41 C 0.16240 0.75007 0.74996
 C42 C 0.25013 0.75008 0.83771
 C43 C 0.25017 0.66231 0.74997
 C44 C 0.33792 0.75007 0.74995
 C45 C 0.25016 0.83783 0.74993
 C46 C 0.25017 0.75004 0.66219
 Zn47 Zn 0.72314 0.22306 0.77697
 Zn48 Zn 0.77718 0.22306 0.72295
 Zn49 Zn 0.72315 0.27708 0.72294
 Zn50 Zn 0.77716 0.27708 0.77697
 O51 O 0.75016 0.25007 0.74996
 O52 O 0.73015 0.17830 0.76996
 O53 O 0.77017 0.23005 0.67819
 O54 O 0.67839 0.27007 0.72996
 O55 O 0.77017 0.17830 0.72997
 O56 O 0.67839 0.23007 0.76997
 O57 O 0.73016 0.27005 0.67819
 O58 O 0.77015 0.32184 0.76995
 O59 O 0.82193 0.23007 0.72995
 O60 O 0.73016 0.32183 0.72994
 O61 O 0.82192 0.27008 0.76996
 O62 O 0.77014 0.27008 0.82173
 O63 O 0.73014 0.23007 0.82172
 C64 C 0.75016 0.16231 0.74997
 C65 C 0.75017 0.25005 0.66220
 C66 C 0.66240 0.25007 0.74997
 C67 C 0.75016 0.33783 0.74994
 C68 C 0.83792 0.25008 0.74995
 C69 C 0.75014 0.25007 0.83771
 Zn70 Zn 0.27718 0.22307 0.72294
 Zn71 Zn 0.22314 0.22305 0.77696
 Zn72 Zn 0.27716 0.27707 0.77698
 Zn73 Zn 0.22315 0.27709 0.72295
 O74 O 0.25016 0.25007 0.74996
 O75 O 0.27018 0.17831 0.72994
 O76 O 0.23014 0.23004 0.82171
 O77 O 0.32192 0.27007 0.76997
 O78 O 0.23016 0.17829 0.76993
 O79 O 0.32193 0.23009 0.72994
 O80 O 0.27014 0.27005 0.82174
 O81 O 0.23017 0.32185 0.72997
 O82 O 0.17839 0.23006 0.76995
 O83 O 0.27016 0.32183 0.76998
 O84 O 0.17840 0.27008 0.72997
 O85 O 0.23017 0.27009 0.67819
 O86 O 0.27017 0.23008 0.67818
 C87 C 0.25017 0.16231 0.74993
 C88 C 0.25013 0.25004 0.83771
 C89 C 0.33792 0.25008 0.74995
 C90 C 0.25017 0.33783 0.74998
 C91 C 0.16240 0.25007 0.74996
 C92 C 0.25017 0.25008 0.66220
 Zn93 Zn 0.72302 0.72294 0.22294
 Zn94 Zn 0.77704 0.77696 0.22294
 Zn95 Zn 0.72301 0.77694 0.27697
 Zn96 Zn 0.77704 0.72292 0.27695
 O97 O 0.75003 0.74994 0.24995
 O98 O 0.73003 0.72996 0.17818
 O99 O 0.77004 0.82172 0.22997
 O100 O 0.67825 0.76994 0.26997
 O101 O 0.77004 0.76996 0.17818
 O102 O 0.67827 0.72994 0.22996
 O103 O 0.73002 0.82170 0.26997
 O104 O 0.77003 0.72992 0.32171
 O105 O 0.82180 0.76995 0.22994
 O106 O 0.73003 0.76993 0.32173
 O107 O 0.82179 0.72993 0.26994
 O108 O 0.77003 0.67816 0.26993
 O109 O 0.73003 0.67818 0.22993
 C110 C 0.75003 0.74997 0.16219
 C111 C 0.75003 0.83770 0.24998
 C112 C 0.66227 0.74994 0.24996
 C113 C 0.75003 0.74993 0.33771
 C114 C 0.83779 0.74994 0.24994
 C115 C 0.75003 0.66218 0.24993
 Zn116 Zn 0.27704 0.77696 0.22294
 Zn117 Zn 0.22302 0.72293 0.22294
 Zn118 Zn 0.27704 0.72293 0.27695
 Zn119 Zn 0.22301 0.77695 0.27697
 O120 O 0.25003 0.74994 0.24995
 O121 O 0.27004 0.76994 0.17818
 O122 O 0.23002 0.67817 0.22996
 O123 O 0.32179 0.72993 0.26993
 O124 O 0.23003 0.72994 0.17819
 O125 O 0.32180 0.76995 0.22994
 O126 O 0.27002 0.67817 0.26995
 O127 O 0.23003 0.76995 0.32173
 O128 O 0.17826 0.72995 0.22996
 O129 O 0.27004 0.72995 0.32171
 O130 O 0.17825 0.76994 0.26997
 O131 O 0.23002 0.82171 0.26995
 O132 O 0.27003 0.82171 0.22994
 C133 C 0.25004 0.74994 0.16219
 C134 C 0.25001 0.66218 0.24996
 C135 C 0.33779 0.74994 0.24993
 C136 C 0.25004 0.74995 0.33771
 C137 C 0.16227 0.74994 0.24997
 C138 C 0.25002 0.83770 0.24994
 Zn139 Zn 0.72302 0.27694 0.22295
 Zn140 Zn 0.77704 0.22292 0.22294
 Zn141 Zn 0.77704 0.27696 0.27695
 Zn142 Zn 0.72302 0.22293 0.27698
 O143 O 0.75003 0.24994 0.24996
 O144 O 0.73003 0.26993 0.17819
 O145 O 0.82180 0.22992 0.22994
 O146 O 0.77004 0.32172 0.26993
 O147 O 0.77004 0.22993 0.17818
 O148 O 0.73002 0.32170 0.22995
 O149 O 0.82180 0.26994 0.26994
 O150 O 0.73003 0.22996 0.32174
 O151 O 0.77003 0.17816 0.22996
 O152 O 0.77003 0.26996 0.32171
 O153 O 0.73003 0.17818 0.26999
 O154 O 0.67826 0.22994 0.26998
 O155 O 0.67826 0.26993 0.22997
 C156 C 0.75004 0.24993 0.16220
 C157 C 0.83779 0.24993 0.24994
 C158 C 0.75003 0.33770 0.24993
 C159 C 0.75003 0.24997 0.33771
 C160 C 0.75003 0.16218 0.24998
 C161 C 0.66227 0.24993 0.24997
 Zn162 Zn 0.22302 0.27695 0.22295
 Zn163 Zn 0.27704 0.22293 0.22294
 Zn164 Zn 0.27704 0.27696 0.27696
 Zn165 Zn 0.22302 0.22293 0.27698
 O166 O 0.25003 0.24994 0.24996
 O167 O 0.23004 0.26995 0.17819
 O168 O 0.32180 0.22993 0.22995
 O169 O 0.27003 0.32171 0.26995
 O170 O 0.27004 0.22995 0.17818
 O171 O 0.23001 0.32171 0.22997
 O172 O 0.32180 0.26994 0.26994
 O173 O 0.23004 0.22994 0.32174
 O174 O 0.27002 0.17817 0.22994
 O175 O 0.27004 0.26995 0.32172
 O176 O 0.23003 0.17817 0.26996
 O177 O 0.17826 0.22994 0.26998
 O178 O 0.17826 0.26993 0.22997
 C179 C 0.25004 0.24996 0.16220
 C180 C 0.33779 0.24993 0.24994
 C181 C 0.25002 0.33770 0.24997
 C182 C 0.25004 0.24994 0.33772
 C183 C 0.25002 0.16218 0.24995
 C184 C 0.16227 0.24993 0.24998
 C185 C -0.05210 0.75006 0.74995
 C186 C -0.07006 0.72814 0.77185
 C187 C -0.10585 0.72812 0.77188
 C188 C -0.12416 0.75007 0.74995
 C189 C -0.10583 0.77202 0.72803
 C190 C -0.07005 0.77198 0.72805
 C191 C -0.01527 0.75005 0.74994
 C192 C 0.01558 0.75004 0.74995
 C193 C 0.05241 0.75005 0.74995
 C194 C 0.07038 0.72813 0.72806
 C195 C 0.10616 0.72811 0.72803
 C196 C 0.12447 0.75006 0.74996
 C197 C 0.10615 0.77201 0.77188
 C198 C 0.07036 0.77198 0.77185
 H199 H -0.05641 0.71106 0.78890
 H200 H -0.11914 0.71091 0.78907
 H201 H -0.11912 0.78923 0.71084
 H202 H -0.05639 0.78906 0.71100
 H203 H 0.05673 0.71105 0.71101
 H204 H 0.11946 0.71090 0.71085
 H205 H 0.11943 0.78922 0.78906
 H206 H 0.05670 0.78905 0.78890
 C207 C 0.75015 -0.05219 0.74996
 C208 C 0.77207 -0.07014 0.72807
 C209 C 0.77211 -0.10593 0.72804
 C210 C 0.75016 -0.12425 0.74997
 C211 C 0.72820 -0.10593 0.77190
 C212 C 0.72823 -0.07014 0.77187
 C213 C 0.75014 -0.01536 0.74996
 C214 C 0.75013 0.01550 0.74997
 C215 C 0.75014 0.05232 0.74997
 C216 C 0.77207 0.07027 0.72807
 C217 C 0.77211 0.10606 0.72804
 C218 C 0.75016 0.12438 0.74997
 C219 C 0.72820 0.10607 0.77190
 C220 C 0.72822 0.07028 0.77187
 H221 H 0.78915 -0.05648 0.71101
 H222 H 0.78932 -0.11921 0.71085
 H223 H 0.71100 -0.11922 0.78909
 H224 H 0.71115 -0.05649 0.78892
 H225 H 0.78915 0.05661 0.71102
 H226 H 0.78932 0.11935 0.71085
 H227 H 0.71100 0.11936 0.78909
 H228 H 0.71114 0.05663 0.78893
 C229 C 0.75006 0.74999 -0.05231
 C230 C 0.72817 0.77191 -0.07026
 C231 C 0.72816 0.77196 -0.10604
 C232 C 0.75011 0.75003 -0.12437
 C233 C 0.77203 0.72809 -0.10605
 C234 C 0.77198 0.72809 -0.07026
 C235 C 0.75004 0.74997 -0.01548
 C236 C 0.75003 0.74996 0.01538
 C237 C 0.75002 0.74997 0.05221
 C238 C 0.77193 0.77188 0.07016
 C239 C 0.77196 0.77191 0.10594
 C240 C 0.75002 0.74997 0.12427
 C241 C 0.72809 0.72803 0.10596
 C242 C 0.72811 0.72806 0.07017
 H243 H 0.71109 0.78897 -0.05660
 H244 H 0.71097 0.78917 -0.11933
 H245 H 0.78924 0.71089 -0.11934
 H246 H 0.78904 0.71102 -0.05661
 H247 H 0.78899 0.78895 0.05649
 H248 H 0.78916 0.78911 0.11922
 H249 H 0.71089 0.71084 0.11925
 H250 H 0.71105 0.71099 0.05652
 C251 C 0.55241 0.75005 0.74994
 C252 C 0.57036 0.77195 0.77186
 C253 C 0.60614 0.77198 0.77189
 C254 C 0.62448 0.75006 0.74994
 C255 C 0.60617 0.72814 0.72799
 C256 C 0.57038 0.72816 0.72802
 C257 C 0.51559 0.75003 0.74993
 C258 C 0.48473 0.75003 0.74994
 C259 C 0.44790 0.75005 0.74995
 C260 C 0.42996 0.77195 0.72803
 C261 C 0.39417 0.77199 0.72800
 C262 C 0.37584 0.75007 0.74996
 C263 C 0.39415 0.72814 0.77191
 C264 C 0.42994 0.72816 0.77188
 H265 H 0.55669 0.78900 0.78894
 H266 H 0.61942 0.78917 0.78910
 H267 H 0.61947 0.71095 0.71078
 H268 H 0.55674 0.71110 0.71094
 H269 H 0.44362 0.78900 0.71095
 H270 H 0.38089 0.78918 0.71080
 H271 H 0.38086 0.71096 0.78912
 H272 H 0.44359 0.71111 0.78896
 C273 C 0.25018 -0.05219 0.74990
 C274 C 0.27210 -0.07015 0.72801
 C275 C 0.27212 -0.10593 0.72799
 C276 C 0.25017 -0.12425 0.74992
 C277 C 0.22822 -0.10592 0.77185
 C278 C 0.22825 -0.07014 0.77181
 C279 C 0.25017 -0.01536 0.74989
 C280 C 0.25019 0.01550 0.74989
 C281 C 0.25019 0.05232 0.74990
 C282 C 0.27211 0.07029 0.72801
 C283 C 0.27213 0.10607 0.72799
 C284 C 0.25018 0.12439 0.74992
 C285 C 0.22823 0.10606 0.77185
 C286 C 0.22826 0.07027 0.77181
 H287 H 0.28917 -0.05650 0.71094
 H288 H 0.28933 -0.11923 0.71080
 H289 H 0.21101 -0.11920 0.78904
 H290 H 0.21118 -0.05647 0.78886
 H291 H 0.28919 0.05664 0.71095
 H292 H 0.28934 0.11937 0.71080
 H293 H 0.21102 0.11934 0.78904
 H294 H 0.21119 0.05661 0.78886
 C295 C 0.25006 0.75003 -0.05230
 C296 C 0.22817 0.77195 -0.07026
 C297 C 0.22816 0.77200 -0.10604
 C298 C 0.25011 0.75007 -0.12436
 C299 C 0.27204 0.72812 -0.10605
 C300 C 0.27198 0.72813 -0.07026
 C301 C 0.25003 0.75000 -0.01547
 C302 C 0.25002 0.74999 0.01538
 C303 C 0.25003 0.74998 0.05221
 C304 C 0.27194 0.77188 0.07016
 C305 C 0.27197 0.77189 0.10595
 C306 C 0.25004 0.74995 0.12427
 C307 C 0.22810 0.72802 0.10595
 C308 C 0.22812 0.72806 0.07016
 H309 H 0.21109 0.78901 -0.05660
 H310 H 0.21097 0.78920 -0.11933
 H311 H 0.28924 0.71093 -0.11934
 H312 H 0.28904 0.71106 -0.05661
 H313 H 0.28900 0.78895 0.05651
 H314 H 0.28917 0.78909 0.11924
 H315 H 0.21091 0.71081 0.11924
 H316 H 0.21106 0.71100 0.05651
 C317 C -0.05210 0.25008 0.74995
 C318 C -0.07005 0.22816 0.72805
 C319 C -0.10583 0.22813 0.72802
 C320 C -0.12416 0.25008 0.74995
 C321 C -0.10584 0.27203 0.77187
 C322 C -0.07006 0.27201 0.77185
 C323 C -0.01527 0.25008 0.74995
 C324 C 0.01559 0.25007 0.74996
 C325 C 0.05242 0.25008 0.74996
 C326 C 0.07037 0.22815 0.77186
 C327 C 0.10615 0.22813 0.77189
 C328 C 0.12448 0.25008 0.74996
 C329 C 0.10616 0.27203 0.72804
 C330 C 0.07038 0.27200 0.72807
 H331 H -0.05639 0.21109 0.71100
 H332 H -0.11912 0.21092 0.71084
 H333 H -0.11914 0.28924 0.78906
 H334 H -0.05641 0.28908 0.78890
 H335 H 0.05671 0.21108 0.78891
 H336 H 0.11944 0.21092 0.78907
 H337 H 0.11945 0.28924 0.71086
 H338 H 0.05672 0.28908 0.71101
 C339 C 0.75015 0.55233 0.74991
 C340 C 0.77204 0.57027 0.77183
 C341 C 0.77208 0.60606 0.77187
 C342 C 0.75016 0.62439 0.74993
 C343 C 0.72823 0.60607 0.72797
 C344 C 0.72826 0.57029 0.72799
 C345 C 0.75014 0.51550 0.74990
 C346 C 0.75013 0.48464 0.74991
 C347 C 0.75014 0.44781 0.74992
 C348 C 0.77204 0.42987 0.77184
 C349 C 0.77207 0.39408 0.77188
 C350 C 0.75015 0.37575 0.74993
 C351 C 0.72823 0.39406 0.72798
 C352 C 0.72825 0.42985 0.72800
 H353 H 0.78909 0.55661 0.78890
 H354 H 0.78926 0.61934 0.78908
 H355 H 0.71105 0.61937 0.71077
 H356 H 0.71120 0.55664 0.71092
 H357 H 0.78909 0.44353 0.78891
 H358 H 0.78926 0.38080 0.78909
 H359 H 0.71105 0.38077 0.71078
 H360 H 0.71120 0.44350 0.71092
 C361 C 0.75009 0.25004 -0.05230
 C362 C 0.77201 0.27196 -0.07024
 C363 C 0.77205 0.27200 -0.10603
 C364 C 0.75013 0.25006 -0.12436
 C365 C 0.72818 0.22812 -0.10605
 C366 C 0.72819 0.22813 -0.07027
 C367 C 0.75008 0.25002 -0.01547
 C368 C 0.75006 0.25000 0.01538
 C369 C 0.75005 0.24999 0.05221
 C370 C 0.72814 0.27189 0.07018
 C371 C 0.72811 0.27190 0.10597
 C372 C 0.75004 0.24995 0.12427
 C373 C 0.77198 0.22802 0.10594
 C374 C 0.77196 0.22807 0.07016
 H375 H 0.78907 0.28902 -0.05658
 H376 H 0.78926 0.28920 -0.11931
 H377 H 0.71099 0.21092 -0.11935
 H378 H 0.71112 0.21106 -0.05662
 H379 H 0.71108 0.28896 0.05654
 H380 H 0.71091 0.28909 0.11927
 H381 H 0.78917 0.21081 0.11922
 H382 H 0.78902 0.21101 0.05649
 C383 C 0.55242 0.25007 0.74997
 C384 C 0.57037 0.27197 0.72805
 C385 C 0.60616 0.27200 0.72802
 C386 C 0.62448 0.25008 0.74997
 C387 C 0.60615 0.22815 0.77192
 C388 C 0.57037 0.22818 0.77190
 C389 C 0.51559 0.25005 0.74996
 C390 C 0.48473 0.25005 0.74996
 C391 C 0.44790 0.25007 0.74995
 C392 C 0.42995 0.27197 0.77187
 C393 C 0.39416 0.27200 0.77190
 C394 C 0.37584 0.25008 0.74995
 C395 C 0.39416 0.22816 0.72799
 C396 C 0.42995 0.22818 0.72802
 H397 H 0.55672 0.28902 0.71097
 H398 H 0.61945 0.28919 0.71081
 H399 H 0.61944 0.21097 0.78913
 H400 H 0.55671 0.21112 0.78897
 H401 H 0.44360 0.28902 0.78895
 H402 H 0.38087 0.28919 0.78911
 H403 H 0.38088 0.21097 0.71078
 H404 H 0.44361 0.21112 0.71094
 C405 C 0.25018 0.55233 0.74999
 C406 C 0.27207 0.57029 0.77191
 C407 C 0.27210 0.60607 0.77193
 C408 C 0.25017 0.62439 0.74998
 C409 C 0.22825 0.60606 0.72803
 C410 C 0.22828 0.57027 0.72807
 C411 C 0.25018 0.51550 0.75000
 C412 C 0.25019 0.48464 0.74999
 C413 C 0.25019 0.44781 0.74998
 C414 C 0.27208 0.42985 0.77190
 C415 C 0.27210 0.39407 0.77193
 C416 C 0.25017 0.37575 0.74998
 C417 C 0.22825 0.39408 0.72803
 C418 C 0.22829 0.42986 0.72806
 H419 H 0.28913 0.55663 0.78898
 H420 H 0.28928 0.61937 0.78913
 H421 H 0.21107 0.61934 0.71082
 H422 H 0.21123 0.55661 0.71100
 H423 H 0.28913 0.44351 0.78898
 H424 H 0.28928 0.38077 0.78914
 H425 H 0.21107 0.38080 0.71083
 H426 H 0.21124 0.44353 0.71099
 C427 C 0.25008 0.24999 -0.05230
 C428 C 0.27200 0.27191 -0.07024
 C429 C 0.27204 0.27195 -0.10602
 C430 C 0.25012 0.25002 -0.12436
 C431 C 0.22817 0.22807 -0.10606
 C432 C 0.22818 0.22809 -0.07027
 C433 C 0.25006 0.24997 -0.01547
 C434 C 0.25005 0.24996 0.01538
 C435 C 0.25006 0.24997 0.05221
 C436 C 0.22816 0.27188 0.07017
 C437 C 0.22812 0.27191 0.10596
 C438 C 0.25005 0.24997 0.12427
 C439 C 0.27200 0.22803 0.10595
 C440 C 0.27197 0.22806 0.07017
 H441 H 0.28905 0.28897 -0.05657
 H442 H 0.28925 0.28916 -0.11930
 H443 H 0.21098 0.21088 -0.11936
 H444 H 0.21111 0.21101 -0.05663
 H445 H 0.21109 0.28895 0.05652
 H446 H 0.21092 0.28911 0.11925
 H447 H 0.28919 0.21083 0.11924
 H448 H 0.28904 0.21100 0.05651
 C449 C -0.05223 0.74992 0.24994
 C450 C -0.07019 0.72800 0.27184
 C451 C -0.10598 0.72798 0.27187
 C452 C -0.12429 0.74993 0.24994
 C453 C -0.10596 0.77188 0.22801
 C454 C -0.07018 0.77185 0.22804
 C455 C -0.01540 0.74992 0.24994
 C456 C 0.01546 0.74991 0.24996
 C457 C 0.05228 0.74992 0.24996
 C458 C 0.07025 0.72801 0.22806
 C459 C 0.10604 0.72799 0.22803
 C460 C 0.12435 0.74993 0.24997
 C461 C 0.10601 0.77187 0.27190
 C462 C 0.07023 0.77184 0.27187
 H463 H -0.05654 0.71093 0.28890
 H464 H -0.11927 0.71078 0.28906
 H465 H -0.11924 0.78909 0.21083
 H466 H -0.05651 0.78892 0.21099
 H467 H 0.05660 0.71093 0.21100
 H468 H 0.11933 0.71079 0.21084
 H469 H 0.11929 0.78908 0.28909
 H470 H 0.05656 0.78890 0.28893
 C471 C 0.75002 -0.05231 0.25002
 C472 C 0.77194 -0.07026 0.22811
 C473 C 0.77198 -0.10604 0.22807
 C474 C 0.75003 -0.12438 0.24999
 C475 C 0.72808 -0.10606 0.27194
 C476 C 0.72811 -0.07028 0.27192
 C477 C 0.75002 -0.01549 0.25003
 C478 C 0.75003 0.01537 0.25003
 C479 C 0.75003 0.05220 0.25002
 C480 C 0.77195 0.07014 0.22811
 C481 C 0.77198 0.10593 0.22807
 C482 C 0.75003 0.12426 0.25000
 C483 C 0.72809 0.10594 0.27194
 C484 C 0.72812 0.07016 0.27192
 H485 H 0.78902 -0.05659 0.21105
 H486 H 0.78918 -0.11932 0.21087
 H487 H 0.71088 -0.11936 0.28913
 H488 H 0.71103 -0.05663 0.28899
 H489 H 0.78902 0.05648 0.21105
 H490 H 0.78918 0.11921 0.21087
 H491 H 0.71089 0.11924 0.28913
 H492 H 0.71105 0.05651 0.28899
 C493 C 0.75016 0.75005 0.55221
 C494 C 0.72825 0.72815 0.57018
 C495 C 0.72823 0.72813 0.60596
 C496 C 0.75017 0.75007 0.62427
 C497 C 0.77211 0.77200 0.60593
 C498 C 0.77208 0.77196 0.57015
 C499 C 0.75015 0.75004 0.51538
 C500 C 0.75013 0.75002 0.48452
 C501 C 0.75011 0.74999 0.44769
 C502 C 0.77200 0.72807 0.42973
 C503 C 0.77200 0.72801 0.39395
 C504 C 0.75005 0.74994 0.37563
 C505 C 0.72812 0.77189 0.39396
 C506 C 0.72818 0.77189 0.42975
 H507 H 0.71118 0.71108 0.55653
 H508 H 0.71103 0.71094 0.61926
 H509 H 0.78931 0.78920 0.61921
 H510 H 0.78914 0.78902 0.55648
 H511 H 0.78908 0.71101 0.44338
 H512 H 0.78919 0.71081 0.38065
 H513 H 0.71092 0.78908 0.38068
 H514 H 0.71113 0.78896 0.44341
 C515 C 0.55228 0.74992 0.24995
 C516 C 0.57023 0.77186 0.27184
 C517 C 0.60601 0.77190 0.27187
 C518 C 0.62435 0.74993 0.24996
 C519 C 0.60604 0.72796 0.22805
 C520 C 0.57025 0.72799 0.22807
 C521 C 0.51545 0.74991 0.24995
 C522 C 0.48460 0.74990 0.24994
 C523 C 0.44777 0.74992 0.24994
 C524 C 0.42983 0.77186 0.22806
 C525 C 0.39404 0.77190 0.22803
 C526 C 0.37571 0.74993 0.24994
 C527 C 0.39402 0.72796 0.27184
 C528 C 0.42980 0.72798 0.27182
 H529 H 0.55656 0.78895 0.28888
 H530 H 0.61929 0.78912 0.28905
 H531 H 0.61934 0.71075 0.21088
 H532 H 0.55661 0.71089 0.21103
 H533 H 0.44349 0.78895 0.21102
 H534 H 0.38076 0.78913 0.21086
 H535 H 0.38072 0.71074 0.28902
 H536 H 0.44345 0.71089 0.28886
 C537 C 0.24999 -0.05231 0.24991
 C538 C 0.27191 -0.07027 0.22801
 C539 C 0.27195 -0.10605 0.22799
 C540 C 0.25001 -0.12437 0.24993
 C541 C 0.22806 -0.10605 0.27186
 C542 C 0.22807 -0.07027 0.27182
 C543 C 0.24997 -0.01548 0.24989
 C544 C 0.24997 0.01537 0.24990
 C545 C 0.24998 0.05220 0.24991
 C546 C 0.27191 0.07015 0.22801
 C547 C 0.27195 0.10594 0.22800
 C548 C 0.25001 0.12426 0.24994
 C549 C 0.22806 0.10594 0.27187
 C550 C 0.22807 0.07015 0.27182
 H551 H 0.28898 -0.05661 0.21094
 H552 H 0.28916 -0.11934 0.21080
 H553 H 0.21086 -0.11934 0.28906
 H554 H 0.21100 -0.05661 0.28888
 H555 H 0.28897 0.05650 0.21094
 H556 H 0.28915 0.11923 0.21081
 H557 H 0.21086 0.11923 0.28907
 H558 H 0.21099 0.05650 0.28888
 C559 C 0.25016 0.75000 0.55221
 C560 C 0.22825 0.72810 0.57018
 C561 C 0.22823 0.72808 0.60597
 C562 C 0.25017 0.75003 0.62427
 C563 C 0.27211 0.77195 0.60593
 C564 C 0.27207 0.77191 0.57015
 C565 C 0.25015 0.74998 0.51538
 C566 C 0.25013 0.74997 0.48452
 C567 C 0.25011 0.74997 0.44770
 C568 C 0.27201 0.72805 0.42972
 C569 C 0.27202 0.72802 0.39394
 C570 C 0.25006 0.74995 0.37563
 C571 C 0.22814 0.77189 0.39397
 C572 C 0.22819 0.77187 0.42976
 H573 H 0.21118 0.71103 0.55654
 H574 H 0.21103 0.71089 0.61927
 H575 H 0.28931 0.78916 0.61921
 H576 H 0.28914 0.78897 0.55648
 H577 H 0.28909 0.71099 0.44337
 H578 H 0.28920 0.71082 0.38064
 H579 H 0.21093 0.78909 0.38069
 H580 H 0.21113 0.78894 0.44343
 C581 C -0.05223 0.24990 0.24994
 C582 C -0.07018 0.22798 0.22804
 C583 C -0.10597 0.22796 0.22801
 C584 C -0.12429 0.24992 0.24994
 C585 C -0.10596 0.27186 0.27186
 C586 C -0.07018 0.27183 0.27183
 C587 C -0.01540 0.24989 0.24994
 C588 C 0.01546 0.24989 0.24995
 C589 C 0.05229 0.24990 0.24996
 C590 C 0.07024 0.22799 0.27187
 C591 C 0.10603 0.22797 0.27190
 C592 C 0.12435 0.24992 0.24998
 C593 C 0.10603 0.27186 0.22804
 C594 C 0.07025 0.27182 0.22806
 H595 H -0.05653 0.21090 0.21098
 H596 H -0.11926 0.21076 0.21083
 H597 H -0.11925 0.28907 0.28905
 H598 H -0.05652 0.28890 0.28889
 H599 H 0.05658 0.21091 0.28893
 H600 H 0.11931 0.21077 0.28910
 H601 H 0.11932 0.28907 0.21085
 H602 H 0.05659 0.28889 0.21100
 C603 C 0.75002 0.55220 0.24988
 C604 C 0.77196 0.57014 0.27176
 C605 C 0.77199 0.60592 0.27181
 C606 C 0.75003 0.62426 0.24991
 C607 C 0.72806 0.60595 0.22799
 C608 C 0.72809 0.57016 0.22801
 C609 C 0.75001 0.51537 0.24987
 C610 C 0.75002 0.48451 0.24986
 C611 C 0.75003 0.44768 0.24988
 C612 C 0.77197 0.42974 0.27176
 C613 C 0.77200 0.39395 0.27181
 C614 C 0.75003 0.37562 0.24991
 C615 C 0.72806 0.39393 0.22800
 C616 C 0.72809 0.42972 0.22801
 H617 H 0.78905 0.55647 0.28880
 H618 H 0.78921 0.61921 0.28898
 H619 H 0.71084 0.61924 0.21083
 H620 H 0.71100 0.55651 0.21096
 H621 H 0.78906 0.44341 0.28879
 H622 H 0.78922 0.38067 0.28898
 H623 H 0.71084 0.38063 0.21084
 H624 H 0.71100 0.44337 0.21097
 C625 C 0.75012 0.24999 0.55221
 C626 C 0.77204 0.22810 0.57017
 C627 C 0.77209 0.22809 0.60595
 C628 C 0.75016 0.25003 0.62427
 C629 C 0.72821 0.27196 0.60596
 C630 C 0.72822 0.27191 0.57017
 C631 C 0.75010 0.24997 0.51538
 C632 C 0.75009 0.24996 0.48453
 C633 C 0.75007 0.24997 0.44770
 C634 C 0.72815 0.22806 0.42976
 C635 C 0.72810 0.22804 0.39397
 C636 C 0.75004 0.24997 0.37564
 C637 C 0.77198 0.27191 0.39395
 C638 C 0.77197 0.27188 0.42973
 H639 H 0.78910 0.21102 0.55651
 H640 H 0.78929 0.21090 0.61924
 H641 H 0.71102 0.28917 0.61925
 H642 H 0.71115 0.28897 0.55652
 H643 H 0.71108 0.21100 0.44342
 H644 H 0.71090 0.21084 0.38069
 H645 H 0.78918 0.28910 0.38065
 H646 H 0.78904 0.28894 0.44338
 C647 C 0.55229 0.24990 0.24997
 C648 C 0.57024 0.27184 0.22809
 C649 C 0.60603 0.27188 0.22807
 C650 C 0.62435 0.24992 0.24998
 C651 C 0.60603 0.22795 0.27189
 C652 C 0.57024 0.22797 0.27185
 C653 C 0.51546 0.24987 0.24996
 C654 C 0.48460 0.24987 0.24995
 C655 C 0.44777 0.24989 0.24994
 C656 C 0.42982 0.27184 0.27182
 C657 C 0.39403 0.27189 0.27184
 C658 C 0.37571 0.24992 0.24994
 C659 C 0.39403 0.22795 0.22803
 C660 C 0.42982 0.22796 0.22806
 H661 H 0.55658 0.28892 0.21104
 H662 H 0.61931 0.28911 0.21089
 H663 H 0.61932 0.21074 0.28906
 H664 H 0.55659 0.21087 0.28889
 H665 H 0.44348 0.28893 0.28886
 H666 H 0.38075 0.28911 0.28901
 H667 H 0.38074 0.21073 0.21086
 H668 H 0.44347 0.21086 0.21103
 C669 C 0.24999 0.55220 0.24997
 C670 C 0.27193 0.57015 0.27185
 C671 C 0.27197 0.60594 0.27188
 C672 C 0.25000 0.62426 0.24997
 C673 C 0.22803 0.60594 0.22807
 C674 C 0.22806 0.57016 0.22810
 C675 C 0.24999 0.51537 0.24997
 C676 C 0.24998 0.48452 0.24999
 C677 C 0.24999 0.44769 0.24999
 C678 C 0.27193 0.42973 0.27186
 C679 C 0.27196 0.39395 0.27188
 C680 C 0.25000 0.37563 0.24998
 C681 C 0.22803 0.39394 0.22808
 C682 C 0.22805 0.42973 0.22811
 H683 H 0.28902 0.55649 0.28889
 H684 H 0.28919 0.61922 0.28905
 H685 H 0.21082 0.61923 0.21089
 H686 H 0.21097 0.55650 0.21106
 H687 H 0.28901 0.44339 0.28890
 H688 H 0.28919 0.38066 0.28905
 H689 H 0.21081 0.38065 0.21091
 H690 H 0.21096 0.44339 0.21107
 C691 C 0.25012 0.25004 0.55221
 C692 C 0.27204 0.22814 0.57016
 C693 C 0.27209 0.22813 0.60595
 C694 C 0.25016 0.25008 0.62427
 C695 C 0.22821 0.27201 0.60596
 C696 C 0.22822 0.27196 0.57017
 C697 C 0.25008 0.25000 0.51538
 C698 C 0.25006 0.24998 0.48453
 C699 C 0.25006 0.24997 0.44770
 C700 C 0.22815 0.22806 0.42976
 C701 C 0.22811 0.22802 0.39397
 C702 C 0.25005 0.24995 0.37564
 C703 C 0.27199 0.27189 0.39395
 C704 C 0.27197 0.27187 0.42973
 H705 H 0.28910 0.21107 0.55650
 H706 H 0.28929 0.21094 0.61923
 H707 H 0.21102 0.28921 0.61925
 H708 H 0.21115 0.28901 0.55652
 H709 H 0.21108 0.21100 0.44343
 H710 H 0.21091 0.21082 0.38070
 H711 H 0.28919 0.28908 0.38064
 H712 H 0.28904 0.28894 0.44337
   
