data_POSCAR
  _audit_creation_date              2014-09-24
  _audit_creation_method            'ToBaCCo'
  _symmetry_space_group_name_H-M    'P1'
  _symmetry_Int_Tables_number       1
  _symmetry_cell_setting            triclinic
  loop_
  _symmetry_equiv_pos_as_xyz
 x,y,z
_cell_length_a 42.8986
_cell_length_b 42.2599
_cell_length_c 42.1011
_cell_angle_alpha 88.995900
_cell_angle_beta 89.699500
_cell_angle_gamma 90.272700
loop_
  _atom_site_label
  _atom_site_type_symbol
  _atom_site_fract_x
  _atom_site_fract_y
  _atom_site_fract_z
N1 N 0.18525 1.25000 0.16154
 N2 N 0.16376 1.24904 0.18386
 C3 C 0.14192 1.27091 0.17727
 C4 C 0.15009 1.28671 0.14914
 C5 C 0.17797 1.27269 0.14004
 H6 H 0.12142 1.27448 0.19174
 H7 H 0.19134 1.27740 0.11864
 Cu8 Cu 0.16599 1.21804 0.21832
 Cu9 Cu 0.21943 1.21960 0.16032
 Cu10 Cu 0.21911 1.16056 0.21912
 N11 N 0.16345 1.18347 0.24919
 N12 N 0.18485 1.16135 0.24991
 C13 C 0.17739 1.13979 0.27264
 C14 C 0.14948 1.14862 0.28691
 C15 C 0.14148 1.17666 0.27122
 H16 H 0.19066 1.11854 0.27720
 H17 H 0.12102 1.19093 0.27497
 N18 N 0.25147 1.16396 0.18559
 N19 N 0.25162 1.18640 0.16337
 C20 C 0.27481 1.18070 0.14261
 C21 C 0.28998 1.15320 0.15194
 C22 C 0.27455 1.14342 0.17946
 H23 H 0.27938 1.19486 0.12148
 H24 H 0.27870 1.12200 0.19311
 H25 H 0.19484 1.18360 0.18319
 H26 H 0.22099 1.20822 0.20797
 N27 N 0.81379 0.74974 0.16352
 N28 N 0.83645 0.75110 0.18429
 C29 C 0.85757 0.72865 0.17773
 C30 C 0.84778 0.71235 0.15122
 C31 C 0.81972 0.72644 0.14299
 H32 H 0.87905 0.72534 0.19060
 H33 H 0.80530 0.72124 0.12277
 Cu34 Cu 0.83745 0.78408 0.21587
 Cu35 Cu 0.78001 0.78044 0.16249
 Cu36 Cu 0.78158 0.83923 0.21909
 N37 N 0.83845 0.81705 0.24744
 N38 N 0.81615 0.83816 0.24906
 C39 C 0.82294 0.85880 0.27203
 C40 C 0.85139 0.85050 0.28544
 C41 C 0.86034 0.82368 0.26914
 H42 H 0.80883 0.87916 0.27733
 H43 H 0.88137 0.81010 0.27240
 N44 N 0.74872 0.83617 0.18659
 N45 N 0.74807 0.81366 0.16527
 C46 C 0.72446 0.81929 0.14506
 C47 C 0.70949 0.84682 0.15382
 C48 C 0.72554 0.85674 0.18040
 H49 H 0.71942 0.80504 0.12468
 H50 H 0.72171 0.87826 0.19330
 H51 H 0.80473 0.81751 0.18225
 H52 H 0.78161 0.79159 0.21003
 N53 N 0.81646 1.24931 -0.16260
 N54 N 0.83747 1.24962 -0.18540
 C55 C 0.85911 1.27182 -0.17924
 C56 C 0.85131 1.28624 -0.15098
 C57 C 0.82398 1.27132 -0.14119
 H58 H 0.87934 1.27663 -0.19398
 H59 H 0.81115 1.27527 -0.11947
 Cu60 Cu 0.83587 1.21997 -0.22017
 Cu61 Cu 0.78219 1.21903 -0.16128
 Cu62 Cu 0.78123 1.16230 -0.21955
 N63 N 0.83713 1.18522 -0.24982
 N64 N 0.81523 1.16345 -0.25030
 C65 C 0.82233 1.14212 -0.27255
 C66 C 0.85062 1.15063 -0.28662
 C67 C 0.85915 1.17831 -0.27146
 H68 H 0.80867 1.12110 -0.27681
 H69 H 0.87996 1.19233 -0.27541
 N70 N 0.74898 1.16491 -0.18627
 N71 N 0.74943 1.18643 -0.16399
 C72 C 0.72607 1.18039 -0.14326
 C73 C 0.71012 1.15357 -0.15274
 C74 C 0.72534 1.14457 -0.18027
 H75 H 0.72196 1.19377 -0.12205
 H76 H 0.72059 1.12388 -0.19416
 H77 H 0.80693 1.18448 -0.18463
 H78 H 0.78065 1.21010 -0.20925
 N79 N 0.18875 0.74920 -0.16431
 N80 N 0.16903 0.74885 -0.18808
 C81 C 0.14683 0.72693 -0.18211
 C82 C 0.15303 0.71253 -0.15304
 C83 C 0.17994 0.72721 -0.14251
 H84 H 0.12725 0.72238 -0.19747
 H85 H 0.19129 0.72338 -0.11990
 Cu86 Cu 0.17304 0.77846 -0.22350
 Cu87 Cu 0.22211 0.78068 -0.16179
 Cu88 Cu 0.22259 0.83986 -0.22004
 N89 N 0.16961 0.81427 -0.25259
 N90 N 0.18945 0.83796 -0.25156
 C91 C 0.18112 0.86020 -0.27306
 C92 C 0.15424 0.85016 -0.28837
 C93 C 0.14781 0.82065 -0.27462
 H94 H 0.19317 0.88254 -0.27616
 H95 H 0.12832 0.80519 -0.27938
 N96 N 0.25382 0.83736 -0.18584
 N97 N 0.25365 0.81491 -0.16365
 C98 C 0.27620 0.82113 -0.14248
 C99 C 0.29134 0.84895 -0.15161
 C100 C 0.27648 0.85839 -0.17936
 H101 H 0.28035 0.80707 -0.12128
 H102 H 0.28087 0.87972 -0.19319
 H103 H 0.19699 0.81461 -0.18656
 H104 H 0.22658 0.79215 -0.20960
 C105 C 0.46574 0.98011 -0.01846
 C106 C 0.48214 1.00009 0.00189
 C107 C 0.46581 1.02049 0.02190
 C108 C 0.43316 1.02108 0.02137
 C109 C 0.41689 1.00117 0.00093
 C110 C 0.43309 0.98062 -0.01891
 C111 C 0.51637 1.00004 0.00182
 C112 C 0.53283 1.02039 -0.01899
 C113 C 0.56547 1.02020 -0.01937
 C114 C 0.58163 0.99953 0.00095
 C115 C 0.56529 0.97922 0.02183
 C116 C 0.53263 0.97953 0.02231
 H117 H 0.47833 0.96435 -0.03393
 H118 H 0.47846 1.03600 0.03757
 H119 H 0.52029 1.03630 -0.03479
 H120 H 0.51993 0.96375 0.03835
 H121 H 0.39162 1.00158 0.00057
 H122 H 0.60691 0.99935 0.00060
 C123 C -0.02126 0.46628 0.97966
 C124 C -0.00164 0.48315 0.99997
 C125 C 0.01901 0.46680 1.02004
 C126 C 0.02010 0.43368 1.01973
 C127 C 0.00082 0.41699 0.99910
 C128 C -0.01988 0.43316 0.97905
 C129 C -0.00236 0.51790 0.99979
 C130 C -0.02327 0.53382 1.01956
 C131 C -0.02415 0.56696 1.01900
 C132 C -0.00448 0.58411 0.99831
 C133 C 0.01658 0.56836 0.97862
 C134 C 0.01780 0.53521 0.97961
 H135 H -0.03713 0.47890 0.96407
 H136 H 0.03404 0.47977 1.03588
 H137 H -0.03859 0.52050 1.03545
 H138 H 0.03403 0.52292 0.96439
 H139 H 0.00175 0.39136 0.99881
 H140 H -0.00522 0.60976 0.99788
 C141 C 0.97686 -0.02230 0.46773
 C142 C 0.99680 -0.00212 0.48436
 C143 C 1.01738 0.01808 0.46763
 C144 C 1.01795 0.01825 0.43438
 C145 C 0.99818 -0.00207 0.41789
 C146 C 0.97771 -0.02242 0.43444
 C147 C 0.99671 -0.00239 0.51925
 C148 C 1.01744 -0.02204 0.53594
 C149 C 1.01889 -0.02089 0.56912
 C150 C 0.99974 0.00004 0.58556
 C151 C 0.97862 0.01934 0.56908
 C152 C 0.97701 0.01801 0.53587
 H153 H 0.96113 -0.03810 0.48062
 H154 H 1.03280 0.03368 0.48045
 H155 H 1.03263 -0.03787 0.52314
 H156 H 0.96102 0.03324 0.52299
 H157 H 0.99869 -0.00201 0.39213
 H158 H 1.00105 0.00108 0.61124
 C159 C 0.09749 0.35457 1.09775
 C160 C 0.12762 0.34709 1.08731
 C161 C 0.14524 0.32498 1.10473
 C162 C 0.13299 0.31023 1.13258
 C163 C 0.10288 0.31894 1.14302
 C164 C 0.08499 0.34075 1.12557
 C165 C 0.07833 0.37669 1.07875
 C166 C 0.04773 0.38322 1.08861
 C167 C 0.02906 0.40295 1.06963
 C168 C 0.04094 0.41605 1.04114
 C169 C 0.07180 0.40997 1.03184
 C170 C 0.09063 0.39008 1.05055
 C171 C 0.05453 0.34846 1.13505
 C172 C 0.03617 0.36925 1.11682
 C173 C 0.13935 0.36145 1.05930
 C174 C 0.12118 0.38259 1.04124
 H175 H 0.04460 0.33797 1.15650
 H176 H 0.01262 0.37414 1.12469
 H177 H 0.16266 0.35603 1.05106
 H178 H 0.13096 0.39281 1.01959
 H179 H 0.16838 0.31936 1.09627
 H180 H 0.09267 0.30826 1.16417
 H181 H 0.00512 0.40753 1.07646
 H182 H 0.08065 0.41989 1.00962
 C183 C -0.10016 0.64450 1.09804
 C184 C -0.08755 0.65665 1.12601
 C185 C -0.10500 0.67814 1.14372
 C186 C -0.13480 0.68782 1.13353
 C187 C -0.14728 0.67482 1.10565
 C188 C -0.13001 0.65327 1.08777
 C189 C -0.08142 0.62282 1.07870
 C190 C -0.09374 0.61128 1.05026
 C191 C -0.07528 0.59176 1.03127
 C192 C -0.04479 0.58414 1.04060
 C193 C -0.03293 0.59535 1.06935
 C194 C -0.05118 0.61479 1.08855
 C195 C -0.14176 0.64080 1.05948
 C196 C -0.12393 0.62016 1.04104
 C197 C -0.05744 0.64758 1.13540
 C198 C -0.03955 0.62702 1.11696
 H199 H -0.16479 0.64737 1.05131
 H200 H -0.13372 0.61140 1.01919
 H201 H -0.04746 0.65678 1.15697
 H202 H -0.01630 0.62094 1.12484
 H203 H -0.09492 0.68761 1.16506
 H204 H -0.17015 0.68170 1.09743
 H205 H -0.08413 0.58327 1.00889
 H206 H -0.00927 0.58958 1.07622
 C207 C -0.09516 0.35374 0.90099
 C208 C -0.08111 0.33745 0.87597
 C209 C -0.09894 0.31602 0.85856
 C210 C -0.13052 0.31040 0.86631
 C211 C -0.14430 0.32728 0.89132
 C212 C -0.12672 0.34897 0.90873
 C213 C -0.07625 0.37562 0.91995
 C214 C -0.09020 0.39170 0.94523
 C215 C -0.07185 0.41176 0.96378
 C216 C -0.03978 0.41504 0.95750
 C217 C -0.02616 0.39900 0.93202
 C218 C -0.04436 0.37937 0.91298
 C219 C -0.13991 0.36564 0.93405
 C220 C -0.12198 0.38670 0.95194
 C221 C -0.04931 0.34238 0.86927
 C222 C -0.03122 0.36289 0.88755
 H223 H -0.16423 0.36214 0.94030
 H224 H -0.13299 0.39882 0.97146
 H225 H -0.03822 0.32995 0.85001
 H226 H -0.00668 0.36566 0.88191
 H227 H -0.08787 0.30311 0.83963
 H228 H -0.16861 0.32349 0.89739
 H229 H -0.08213 0.42390 0.98371
 H230 H -0.00137 0.40151 0.92742
 C231 C 0.09571 0.64686 0.89979
 C232 C 0.08239 0.66550 0.87556
 C233 C 0.10143 0.68632 0.85777
 C234 C 0.13348 0.68900 0.86447
 C235 C 0.14649 0.66989 0.88870
 C236 C 0.12772 0.64867 0.90636
 C237 C 0.07563 0.62553 0.91910
 C238 C 0.08892 0.60692 0.94344
 C239 C 0.06956 0.58724 0.96222
 C240 C 0.03720 0.58683 0.95717
 C241 C 0.02424 0.60544 0.93265
 C242 C 0.04341 0.62469 0.91332
 C243 C 0.14020 0.62954 0.93075
 C244 C 0.12115 0.60893 0.94889
 C245 C 0.05018 0.66344 0.87001
 C246 C 0.03099 0.64347 0.88867
 H247 H 0.16487 0.63065 0.93599
 H248 H 0.13168 0.59476 0.96762
 H249 H 0.03963 0.67767 0.85134
 H250 H 0.00621 0.64288 0.88389
 H251 H 0.09105 0.70109 0.83944
 H252 H 0.17116 0.67152 0.89383
 H253 H 0.07940 0.57306 0.98137
 H254 H -0.00075 0.60503 0.92889
 C255 C 1.09622 0.09682 0.35501
 C256 C 1.12641 0.08670 0.34746
 C257 C 1.14425 0.10425 0.32526
 C258 C 1.13218 0.13192 0.31054
 C259 C 1.10202 0.14207 0.31939
 C260 C 1.08391 0.12448 0.34125
 C261 C 1.07680 0.07764 0.37714
 C262 C 1.04613 0.08716 0.38370
 C263 C 1.02721 0.06799 0.40339
 C264 C 1.03892 0.03970 0.41649
 C265 C 1.06986 0.03077 0.41044
 C266 C 1.08893 0.04963 0.39053
 C267 C 1.05339 0.13366 0.34905
 C268 C 1.03478 0.11525 0.36982
 C269 C 1.13797 0.05888 0.36184
 C270 C 1.11956 0.04069 0.38303
 H271 H 1.04362 0.15501 0.33863
 H272 H 1.01121 0.12288 0.37477
 H273 H 1.16133 0.05090 0.35640
 H274 H 1.12923 0.01920 0.39326
 H275 H 1.16742 0.09603 0.31955
 H276 H 1.09194 0.16309 0.30875
 H277 H 1.00324 0.07460 0.40801
 H278 H 1.07862 0.00873 0.42041
 C279 C 1.09938 -0.09756 0.64635
 C280 C 1.12775 -0.08491 0.65675
 C281 C 1.14620 -0.10268 0.67778
 C282 C 1.13644 -0.13293 0.68890
 C283 C 1.10805 -0.14543 0.67743
 C284 C 1.08944 -0.12780 0.65635
 C285 C 1.07940 -0.07847 0.62510
 C286 C 1.05070 -0.09090 0.61515
 C287 C 1.03131 -0.07221 0.59584
 C288 C 1.04047 -0.04135 0.58690
 C289 C 1.06936 -0.02930 0.59665
 C290 C 1.08903 -0.04784 0.61578
 C291 C 1.06077 -0.13961 0.64552
 C292 C 1.04173 -0.12148 0.62526
 C293 C 1.13690 -0.05445 0.64637
 C294 C 1.11783 -0.03620 0.62628
 H295 H 1.05280 -0.16294 0.65304
 H296 H 1.01966 -0.13133 0.61773
 H297 H 1.15882 -0.04447 0.65415
 H298 H 1.12558 -0.01268 0.61915
 H299 H 1.16793 -0.09244 0.68560
 H300 H 1.09984 -0.16854 0.68518
 H301 H 1.00884 -0.08122 0.58839
 H302 H 1.07616 -0.00539 0.58979
 C303 C 0.90300 -0.09933 0.35362
 C304 C 0.91669 -0.12504 0.33833
 C305 C 0.89921 -0.14210 0.31635
 C306 C 0.86830 -0.13327 0.30888
 C307 C 0.85498 -0.10741 0.32485
 C308 C 0.87215 -0.09050 0.34725
 C309 C 0.92158 -0.08081 0.37615
 C310 C 0.90795 -0.05486 0.39125
 C311 C 0.92610 -0.03661 0.41174
 C312 C 0.95766 -0.04392 0.41648
 C313 C 0.97090 -0.07018 0.40158
 C314 C 0.95288 -0.08886 0.38145
 C315 C 0.85919 -0.06465 0.36313
 C316 C 0.87676 -0.04719 0.38483
 C317 C 0.94787 -0.13282 0.34484
 C318 C 0.96570 -0.11495 0.36594
 H319 H 0.83535 -0.05766 0.35851
 H320 H 0.86597 -0.02725 0.39631
 H321 H 0.95873 -0.15261 0.33317
 H322 H 0.98978 -0.12145 0.36992
 H323 H 0.91032 -0.16160 0.30454
 H324 H 0.83125 -0.10024 0.32012
 H325 H 0.91614 -0.01609 0.42303
 H326 H 0.99534 -0.07553 0.40520
 C327 C 0.90312 0.09837 0.64738
 C328 C 0.87197 0.08991 0.65343
 C329 C 0.85447 0.10753 0.67507
 C330 C 0.86776 0.13381 0.69049
 C331 C 0.89893 0.14236 0.68317
 C332 C 0.91678 0.12447 0.66212
 C333 C 0.92204 0.07907 0.62576
 C334 C 0.95365 0.08669 0.62094
 C335 C 0.97193 0.06738 0.60163
 C336 C 0.95861 0.04102 0.58691
 C337 C 0.92678 0.03409 0.59120
 C338 C 0.90840 0.05288 0.61102
 C339 C 0.94829 0.13175 0.65613
 C340 C 0.96647 0.11307 0.63605
 C341 C 0.85906 0.06368 0.63805
 C342 C 0.87693 0.04557 0.61709
 H343 H 0.95914 0.15178 0.66748
 H344 H 0.99081 0.11918 0.63250
 H345 H 0.83501 0.05691 0.64245
 H346 H 0.86615 0.02538 0.60595
 H347 H 0.83051 0.10065 0.67962
 H348 H 0.90997 0.16218 0.69459
 H349 H 0.99655 0.07247 0.59834
 H350 H 0.91675 0.01350 0.58004
 C351 C 0.35684 1.10022 0.09859
 C352 C 0.34892 1.09018 0.12955
 C353 C 0.32786 1.10813 0.14729
 C354 C 0.31442 1.13581 0.13417
 C355 C 0.32335 1.14585 0.10328
 C356 C 0.34437 1.12808 0.08536
 C357 C 0.37792 1.08074 0.07934
 C358 C 0.38503 1.09031 0.04798
 C359 C 0.40396 1.07099 0.02932
 C360 C 0.41571 1.04251 0.04195
 C361 C 0.40895 1.03344 0.07350
 C362 C 0.38984 1.05246 0.09233
 C363 C 0.35256 1.13721 0.05414
 C364 C 0.37251 1.11862 0.03575
 C365 C 0.36169 1.06200 0.14190
 C366 C 0.38181 1.04346 0.12361
 H367 H 0.34312 1.15870 0.04368
 H368 H 0.37791 1.12630 0.01165
 H369 H 0.35576 1.05398 0.16576
 H370 H 0.39082 1.02169 0.13389
 H371 H 0.32165 1.10012 0.17104
 H372 H 0.31343 1.16697 0.09266
 H373 H 0.40914 1.07770 0.00486
 H374 H 0.41785 1.01125 0.08295
 C375 C 0.64190 1.10016 -0.09915
 C376 C 0.65267 1.12911 -0.08752
 C377 C 0.67410 1.14703 -0.10565
 C378 C 0.68511 1.13604 -0.13510
 C379 C 0.67319 1.10732 -0.14675
 C380 C 0.65174 1.08924 -0.12882
 C381 C 0.62065 1.08044 -0.07944
 C382 C 0.61060 1.05101 -0.09069
 C383 C 0.59162 1.03167 -0.07120
 C384 C 0.58297 1.04167 -0.04078
 C385 C 0.59265 1.07139 -0.03001
 C386 C 0.61159 1.09094 -0.04929
 C387 C 0.64056 1.06003 -0.13961
 C388 C 0.62034 1.04123 -0.12086
 C389 C 0.64244 1.13920 -0.05761
 C390 C 0.62227 1.12042 -0.03879
 H391 H 0.64787 1.05142 -0.16255
 H392 H 0.61262 1.01867 -0.12988
 H393 H 0.65046 1.16159 -0.04844
 H394 H 0.61530 1.12885 -0.01567
 H395 H 0.68263 1.16908 -0.09628
 H396 H 0.68103 1.09848 -0.16937
 H397 H 0.58419 1.00861 -0.07924
 H398 H 0.58600 1.07882 -0.00641
 C399 C 0.35735 0.90246 -0.09770
 C400 C 0.34747 0.91419 -0.12734
 C401 C 0.32672 0.89616 -0.14531
 C402 C 0.31545 0.86668 -0.13373
 C403 C 0.32636 0.85500 -0.10421
 C404 C 0.34714 0.87285 -0.08606
 C405 C 0.37818 0.92189 -0.07813
 C406 C 0.38746 0.91044 -0.04811
 C407 C 0.40631 0.92952 -0.02911
 C408 C 0.41561 0.95973 -0.04000
 C409 C 0.40654 0.97079 -0.07020
 C410 C 0.38773 0.95191 -0.08944
 C411 C 0.35737 0.86197 -0.05616
 C412 C 0.37717 0.88046 -0.03750
 C413 C 0.35801 0.94407 -0.13811
 C414 C 0.37776 0.96263 -0.11946
 H415 H 0.34971 0.83912 -0.04693
 H416 H 0.38420 0.87136 -0.01442
 H417 H 0.35060 0.95338 -0.16098
 H418 H 0.38501 0.98570 -0.12847
 H419 H 0.31898 0.90557 -0.16797
 H420 H 0.31832 0.83237 -0.09489
 H421 H 0.41321 0.92129 -0.00565
 H422 H 0.41364 0.99425 -0.07831
 C423 C 0.64160 0.89943 0.10040
 C424 C 0.65451 0.87199 0.08757
 C425 C 0.67578 0.85428 0.10561
 C426 C 0.68461 0.86401 0.13618
 C427 C 0.67065 0.89116 0.14900
 C428 C 0.64925 0.90903 0.13115
 C429 C 0.62040 0.91898 0.08089
 C430 C 0.60804 0.94688 0.09345
 C431 C 0.58896 0.96607 0.07428
 C432 C 0.58268 0.95757 0.04283
 C433 C 0.59481 0.92942 0.03069
 C434 C 0.61368 0.90992 0.04970
 C435 C 0.63592 0.93674 0.14313
 C436 C 0.61566 0.95534 0.12459
 C437 C 0.64656 0.86325 0.05658
 C438 C 0.62655 0.88194 0.03793
 H439 H 0.64153 0.94437 0.16687
 H440 H 0.60625 0.97677 0.13456
 H441 H 0.65627 0.84203 0.04647
 H442 H 0.62142 0.87463 0.01397
 H443 H 0.68607 0.83353 0.09523
 H444 H 0.67672 0.89882 0.17258
 H445 H 0.57973 0.98800 0.08337
 H446 H 0.59000 0.92313 0.00633
   
