data_POSCAR
  _audit_creation_date              2014-09-24
  _audit_creation_method            'ToBaCCo'
  _symmetry_space_group_name_H-M    'P1'
  _symmetry_Int_Tables_number       1
  _symmetry_cell_setting            triclinic
  loop_
  _symmetry_equiv_pos_as_xyz
 x,y,z
_cell_length_a 21.2634
_cell_length_b 21.4782
_cell_length_c 21.4981
_cell_angle_alpha 95.505100
_cell_angle_beta 91.295600
_cell_angle_gamma 82.814500
loop_
  _atom_site_label
  _atom_site_type_symbol
  _atom_site_fract_x
  _atom_site_fract_y
  _atom_site_fract_z
C1 C 0.59583 0.31042 0.02183
 C2 C 0.64805 0.34137 0.02094
 C3 C 0.62662 0.40532 0.02449
 N4 N 0.56241 0.41362 0.02281
 C5 C 0.54341 0.35559 0.02067
 C6 C 0.66533 0.45503 0.03029
 C7 C 0.63878 0.51929 0.03479
 C8 C 0.66850 0.56793 0.06497
 C9 C 0.63022 0.62274 0.05754
 C10 C 0.57799 0.60660 0.02288
 N11 N 0.58218 0.54308 0.01089
 C12 C 0.52744 0.65125 0.00595
 C13 C 0.46460 0.63881 0.01363
 C14 C 0.41561 0.68083 0.04032
 C15 C 0.36355 0.64899 0.03983
 C16 C 0.38280 0.58826 0.01404
 N17 N 0.44488 0.58172 -0.00064
 C18 C 0.34315 0.54057 0.00134
 C19 C 0.36847 0.47636 -0.00915
 C20 C 0.33587 0.42869 -0.03671
 C21 C 0.37378 0.37299 -0.03098
 C22 C 0.42926 0.38803 -0.00147
 N23 N 0.42618 0.45129 0.01104
 C24 C 0.47976 0.34269 0.01390
 H25 H 0.59785 0.26002 0.02123
 H26 H 0.69585 0.31789 0.01664
 H27 H 0.45835 0.47534 0.03809
 H28 H 0.71276 0.56424 0.09101
 H29 H 0.63901 0.66936 0.07677
 H30 H 0.41790 0.72754 0.06313
 H31 H 0.31757 0.66771 0.05873
 H32 H 0.36222 0.32655 -0.04761
 H33 H 0.55139 0.51836 -0.01736
 H34 H 0.28958 0.43314 -0.05889
 C35 C 0.02993 0.62315 0.66355
 C36 C 0.04556 0.66049 0.61967
 C37 C 0.03295 0.63018 0.56144
 N38 N 0.00876 0.57591 0.56908
 C39 C 0.00712 0.57151 0.63140
 C40 C 0.03493 0.65652 0.50329
 C41 C 0.01894 0.62278 0.44630
 C42 C 0.00073 0.64809 0.39060
 C43 C -0.00517 0.59826 0.34645
 C44 C 0.01209 0.54367 0.37542
 N45 N 0.02632 0.55914 0.43616
 C46 C 0.01832 0.48139 0.34592
 C47 C 0.02605 0.42857 0.38071
 C48 C 0.04796 0.36745 0.35717
 C49 C 0.03570 0.32895 0.40153
 C50 C 0.00794 0.36807 0.45093
 N51 N 0.00235 0.42887 0.43835
 C52 C -0.02011 0.34743 0.50248
 C53 C -0.03314 0.38726 0.55786
 C54 C -0.07085 0.37545 0.60600
 C55 C -0.07093 0.42606 0.65064
 C56 C -0.03329 0.46721 0.62827
 N57 N -0.00970 0.44270 0.57224
 C58 C -0.02001 0.52478 0.66013
 H59 H 0.03338 0.63387 0.71364
 H60 H 0.06110 0.70632 0.63055
 H61 H 0.02446 0.46056 0.54752
 H62 H -0.00751 0.69696 0.38152
 H63 H -0.01998 0.60250 0.29849
 H64 H 0.06826 0.35209 0.31172
 H65 H 0.04458 0.27799 0.39739
 H66 H -0.09636 0.43209 0.69428
 H67 H 0.04721 0.52807 0.46717
 H68 H -0.09601 0.33498 0.60850
 C69 C 0.32040 -0.02935 0.55611
 C70 C 0.35572 -0.03150 0.61000
 C71 C 0.41171 -0.00794 0.59872
 N72 N 0.41296 0.00556 0.53864
 C73 C 0.35710 -0.00746 0.51240
 C74 C 0.45887 0.00527 0.64392
 C75 C 0.52027 0.01392 0.62479
 C76 C 0.56173 0.04884 0.65936
 C77 C 0.61616 0.04404 0.62516
 C78 C 0.60688 0.00590 0.57066
 N79 N 0.54760 -0.01098 0.57004
 C80 C 0.65349 -0.01466 0.52447
 C81 C 0.63570 -0.03017 0.46125
 C82 C 0.67467 -0.06351 0.41536
 C83 C 0.64054 -0.06372 0.36049
 C84 C 0.58073 -0.03274 0.37466
 N85 N 0.57803 -0.01197 0.43627
 C86 C 0.53090 -0.02100 0.33071
 C87 C 0.46752 -0.00044 0.34927
 C88 C 0.41812 0.02064 0.31016
 C89 C 0.36365 0.02885 0.34470
 C90 C 0.38066 0.01177 0.40389
 N91 N 0.44395 -0.00614 0.40618
 C92 C 0.33733 0.00615 0.45145
 H93 H 0.27344 -0.04316 0.55081
 H94 H 0.34130 -0.04838 0.65264
 H95 H 0.46829 -0.02855 0.44191
 H96 H 0.55325 0.07630 0.70391
 H97 H 0.65765 0.06681 0.63868
 H98 H 0.72247 -0.08648 0.42048
 H99 H 0.65817 -0.08490 0.31561
 H100 H 0.31650 0.04273 0.32690
 H101 H 0.52919 -0.04278 0.53689
 H102 H 0.41963 0.02744 0.26118
 O103 O 0.42545 -0.00371 -0.08357
 O104 O 0.47094 -0.01956 0.08081
 O105 O 0.43066 0.07409 0.01616
 O106 O 0.46572 -0.09811 -0.01713
 O107 O 0.56474 -0.08735 -0.03847
 O108 O 0.52836 0.08452 -0.01024
 O109 O 0.56978 -0.00842 0.05885
 O110 O 0.52473 0.00289 -0.10753
 Cu111 Cu 0.43813 -0.01277 0.00088
 Cu112 Cu 0.55677 -0.00055 -0.02654
 C113 C 0.46692 0.00237 -0.12343
 C114 C 0.52837 -0.01795 0.09747
 C115 C 0.47341 0.10853 0.00771
 C116 C 0.52185 -0.12204 -0.03129
 O117 O -0.09880 0.52757 1.02212
 O118 O 0.05882 0.58048 1.01116
 O119 O -0.03902 0.57217 0.93637
 O120 O -0.00547 0.54099 1.09966
 O121 O 0.02977 0.44166 1.06898
 O122 O 0.00452 0.47573 0.90566
 O123 O 0.10043 0.48114 0.99182
 O124 O -0.05712 0.42922 0.99540
 Cu125 Cu -0.02466 0.56547 1.02017
 Cu126 Cu 0.02397 0.44825 0.98418
 C127 C -0.10421 0.46913 1.01217
 C128 C 0.10665 0.53930 1.00101
 C129 C -0.02332 0.52899 0.89326
 C130 C 0.01418 0.48517 1.11195
 O131 O 0.00381 -0.09291 0.44806
 O132 O -0.04112 0.07817 0.44203
 O133 O 0.06104 0.00100 0.41634
 O134 O -0.09996 -0.01467 0.46642
 O135 O -0.07009 0.00040 0.56526
 O136 O 0.09037 0.01947 0.51509
 O137 O -0.01134 0.09573 0.54065
 O138 O 0.03668 -0.07415 0.54553
 Cu139 Cu -0.02199 -0.00912 0.43330
 Cu140 Cu 0.01398 0.01186 0.55176
 C141 C 0.02900 -0.11225 0.49798
 C142 C -0.03343 0.11594 0.49007
 C143 C 0.10263 0.01385 0.45716
 C144 C -0.11255 -0.00950 0.52416
 N145 N -0.17059 0.39722 1.05553
 N146 N -0.23512 0.39442 1.06299
 C147 C -0.26757 0.44163 1.03378
 C148 C -0.22427 0.47630 1.00926
 C149 C -0.16485 0.44690 1.02351
 H150 H -0.23456 0.51752 0.98374
 H151 H -0.13399 0.36829 1.07549
 H152 H -0.25312 0.36594 1.09324
 N153 N 0.18274 0.61136 0.97424
 N154 N 0.24491 0.61093 0.97278
 C155 C 0.27309 0.55875 0.99731
 C156 C 0.22626 0.52452 1.01492
 C157 C 0.17002 0.55911 0.99885
 H158 H 0.23205 0.48005 1.03545
 H159 H 0.14991 0.64543 0.95602
 H160 H 0.26734 0.64477 0.95306
 N161 N 0.10405 -0.20011 0.53214
 N162 N 0.10596 -0.26506 0.53276
 C163 C 0.05357 -0.28266 0.50298
 C164 C 0.01803 -0.22965 0.48161
 C165 C 0.05100 -0.17932 0.50137
 H166 H -0.02906 -0.22651 0.46109
 H167 H 0.13697 -0.17291 0.55422
 H168 H 0.14158 -0.29393 0.55418
 N169 N -0.08500 0.20867 0.43992
 N170 N -0.08230 0.26995 0.44409
 C171 C -0.04464 0.28559 0.49290
 C172 C -0.02283 0.23181 0.52169
 C173 C -0.04918 0.18396 0.48602
 H174 H 0.01209 0.22721 0.55891
 H175 H -0.10872 0.18403 0.40433
 H176 H -0.10313 0.29996 0.41189
 N177 N 0.38684 0.03120 -0.20450
 N178 N 0.38478 0.03327 -0.26905
 C179 C 0.44334 0.01270 -0.29156
 C180 C 0.48402 -0.00095 -0.24133
 C181 C 0.44665 0.01055 -0.18827
 H182 H 0.53370 -0.01964 -0.24317
 H183 H 0.34841 0.04472 -0.17472
 H184 H 0.34511 0.05216 -0.29360
 N185 N 0.56645 -0.09205 0.17492
 N186 N 0.56493 -0.09358 0.23615
 C187 C 0.54488 -0.03531 0.26276
 C188 C 0.53320 0.00521 0.21586
 C189 C 0.54738 -0.03285 0.16093
 H190 H 0.51343 0.05434 0.22062
 H191 H 0.57637 -0.13181 0.14308
 H192 H 0.57417 -0.13467 0.25887
 N193 N 0.59901 -0.21835 -0.04315
 N194 N 0.60066 -0.28068 -0.02994
 C195 C 0.54206 -0.28999 -0.01218
 C196 C 0.50150 -0.23419 -0.01801
 C197 C 0.53933 -0.19056 -0.03486
 H198 H 0.45140 -0.22393 -0.00963
 H199 H 0.63860 -0.19699 -0.05327
 H200 H 0.64083 -0.31384 -0.03619
 N201 N 0.41425 0.20695 0.05805
 N202 N 0.41681 0.26823 0.05995
 C203 C 0.46339 0.27860 0.02208
 C204 C 0.49090 0.22116 -0.00610
 C205 C 0.45923 0.17713 0.01903
 H206 H 0.52800 0.21224 -0.04060
 H207 H 0.38316 0.18613 0.08417
 H208 H 0.38769 0.30230 0.08755
 N209 N -0.19338 -0.02702 0.60055
 N210 N -0.25872 -0.02904 0.60004
 C211 C -0.28146 -0.01768 0.54238
 C212 C -0.23096 -0.00848 0.50548
 C213 C -0.17733 -0.01490 0.54326
 H214 H -0.23277 0.00433 0.45795
 H215 H -0.16310 -0.03487 0.63868
 H216 H -0.28369 -0.04118 0.63744
 N217 N 0.17981 0.08169 0.42643
 N218 N 0.24211 0.07999 0.42662
 C219 C 0.26855 0.02193 0.43856
 C220 C 0.22075 -0.01528 0.44518
 C221 C 0.16540 0.02466 0.43779
 H222 H 0.22518 -0.06327 0.45764
 H223 H 0.14793 0.12237 0.42284
 H224 H 0.26591 0.11904 0.42236
 N225 N -0.02074 0.42154 1.18996
 N226 N -0.02269 0.42244 1.25118
 C227 C 0.00927 0.46902 1.27725
 C228 C 0.03150 0.50013 1.22999
 C229 C 0.01134 0.46816 1.17564
 H230 H 0.05851 0.53983 1.23422
 H231 H -0.04351 0.39119 1.15869
 H232 H -0.04692 0.39232 1.27444
 N233 N -0.07301 0.59356 0.81129
 N234 N -0.07315 0.59193 0.74978
 C235 C -0.03772 0.53870 0.72662
 C236 C -0.01438 0.50453 0.77537
 C237 C -0.03752 0.54137 0.82827
 H238 H 0.01767 0.46107 0.77281
 H239 H -0.09579 0.63050 0.84094
 H240 H -0.09565 0.62757 0.72433
   
