data_POSCAR
  _audit_creation_date              2014-09-24
  _audit_creation_method            'ToBaCCo'
  _symmetry_space_group_name_H-M    'P1'
  _symmetry_Int_Tables_number       1
  _symmetry_cell_setting            triclinic
  loop_
  _symmetry_equiv_pos_as_xyz
 x,y,z
_cell_length_a 21.2847
_cell_length_b 21.2847
_cell_length_c 39.5386
_cell_angle_alpha 90.000000
_cell_angle_beta 90.000000
_cell_angle_gamma 119.999900
loop_
  _atom_site_label
  _atom_site_type_symbol
  _atom_site_fract_x
  _atom_site_fract_y
  _atom_site_fract_z
Zn1 Zn 0.95353 0.04740 1.01517
 Zn2 Zn 1.09388 0.04646 1.01517
 Zn3 Zn 0.95259 -0.09389 1.01517
 Zn4 Zn 1.00000 -0.00001 0.95364
 O5 O 1.00000 -0.00001 0.99984
 O6 O 1.01085 0.12468 1.04081
 O7 O 1.11384 -0.01086 1.04081
 O8 O 0.87531 -0.11385 1.04081
 O9 O 1.11452 0.12368 1.04094
 O10 O 0.87631 -0.00918 1.04094
 O11 O 1.00917 -0.11453 1.04094
 O12 O 0.95570 -0.08938 0.93608
 O13 O 1.15950 0.07942 0.98161
 O14 O 0.91994 -0.15951 0.98161
 O15 O 1.08937 0.04506 0.93608
 O16 O 0.95493 0.04429 0.93608
 O17 O 0.92057 0.08005 0.98161
 C18 C 1.07634 0.15116 1.05001
 C19 C 1.07484 -0.07635 1.05001
 C20 C 0.84883 -0.07484 1.05001
 C21 C 0.92446 -0.15152 0.94976
 C22 C 1.15151 0.07597 0.94976
 C23 C 0.92402 0.07553 0.94976
 Zn24 Zn 0.04647 0.95258 0.51517
 Zn25 Zn -0.09388 0.95352 0.51517
 Zn26 Zn 0.04741 1.09387 0.51517
 Zn27 Zn 0.00000 0.99999 0.45364
 O28 O 0.00000 0.99999 0.49984
 O29 O -0.01085 0.87530 0.54081
 O30 O -0.11384 1.01084 0.54081
 O31 O 0.12469 1.11383 0.54081
 O32 O -0.11452 0.87630 0.54094
 O33 O 0.12369 1.00916 0.54094
 O34 O -0.00917 1.11451 0.54094
 O35 O 0.04430 1.08936 0.43608
 O36 O -0.15950 0.92056 0.48161
 O37 O 0.08006 1.15949 0.48161
 O38 O -0.08937 0.95492 0.43608
 O39 O 0.04507 0.95569 0.43608
 O40 O 0.07943 0.91993 0.48161
 C41 C -0.07633 0.84882 0.55001
 C42 C -0.07483 1.07633 0.55001
 C43 C 0.15117 1.07482 0.55001
 C44 C 0.07554 1.15150 0.44976
 C45 C -0.15151 0.92401 0.44976
 C46 C 0.07598 0.92445 0.44976
 O47 O 0.22689 0.56351 0.28870
 O48 O 0.22395 0.68316 0.27841
 C49 C 0.26926 0.73886 0.29480
 O50 O 0.33663 0.77310 0.28870
 O51 O 0.45922 0.77604 0.27841
 C52 C 0.46961 0.73073 0.29480
 O53 O 0.43648 0.66336 0.28870
 O54 O 0.31683 0.54077 0.27841
 C55 C 0.26113 0.53038 0.29480
 O56 O 0.22386 0.54080 0.22144
 O57 O 0.22688 0.66350 0.21115
 C58 C 0.26111 0.73091 0.20511
 O59 O 0.31695 0.77613 0.22144
 O60 O 0.43663 0.77311 0.21115
 C61 C 0.46980 0.73888 0.20511
 O62 O 0.45919 0.68304 0.22144
 O63 O 0.33649 0.56336 0.21115
 C64 C 0.26909 0.53019 0.20511
 Cr65 Cr 0.22950 0.61479 0.24992
 Cr66 Cr 0.38530 0.77050 0.24992
 Cr67 Cr 0.38520 0.61469 0.24992
 O68 O 0.33333 0.66666 0.24991
 O69 O 0.77311 0.43647 0.78870
 O70 O 0.77605 0.31682 0.77841
 C71 C 0.73074 0.26112 0.79480
 O72 O 0.66337 0.22688 0.78870
 O73 O 0.54078 0.22394 0.77841
 C74 C 0.53039 0.26925 0.79480
 O75 O 0.56352 0.33662 0.78870
 O76 O 0.68317 0.45921 0.77841
 C77 C 0.73887 0.46960 0.79480
 O78 O 0.77614 0.45918 0.72144
 O79 O 0.77312 0.33648 0.71115
 C80 C 0.73889 0.26908 0.70511
 O81 O 0.68305 0.22385 0.72144
 O82 O 0.56337 0.22687 0.71115
 C83 C 0.53020 0.26110 0.70511
 O84 O 0.54081 0.31694 0.72144
 O85 O 0.66351 0.43662 0.71115
 C86 C 0.73092 0.46979 0.70511
 Cr87 Cr 0.77051 0.38519 0.74992
 Cr88 Cr 0.61470 0.22949 0.74992
 Cr89 Cr 0.61480 0.38529 0.74992
 O90 O 0.66667 0.33332 0.74991
 C91 C 0.10781 0.21327 0.07188
 C92 C 0.13393 0.26452 0.09082
 C93 C 0.16404 0.32338 0.11365
 C94 C 0.18922 0.37260 0.13372
 C95 C 0.21797 0.42895 0.15789
 C96 C 0.24178 0.47587 0.17912
 C97 C 0.78672 0.89452 0.07188
 C98 C 0.73548 0.86940 0.09082
 C99 C 0.67661 0.84064 0.11365
 C100 C 0.62739 0.81660 0.13372
 C101 C 0.57105 0.78901 0.15789
 C102 C 0.52412 0.76589 0.17912
 C103 C 0.10547 0.89218 0.07188
 C104 C 0.13059 0.86606 0.09082
 C105 C 0.15936 0.83595 0.11365
 C106 C 0.18340 0.81077 0.13372
 C107 C 0.21098 0.78202 0.15789
 C108 C 0.23410 0.75821 0.17912
 C109 C 0.89219 0.78671 0.57188
 C110 C 0.86607 0.73547 0.59082
 C111 C 0.83596 0.67660 0.61365
 C112 C 0.81079 0.62738 0.63372
 C113 C 0.78203 0.57104 0.65789
 C114 C 0.75822 0.52411 0.67912
 C115 C 0.21328 0.10546 0.57188
 C116 C 0.26453 0.13058 0.59082
 C117 C 0.32339 0.15935 0.61365
 C118 C 0.37261 0.18339 0.63372
 C119 C 0.42896 0.21097 0.65789
 C120 C 0.47588 0.23409 0.67912
 C121 C 0.89453 0.10780 0.57188
 C122 C 0.86941 0.13392 0.59082
 C123 C 0.84065 0.16403 0.61365
 C124 C 0.81661 0.18921 0.63372
 C125 C 0.78902 0.21796 0.65789
 C126 C 0.76590 0.24177 0.67912
 C127 C 0.21437 0.10795 0.92837
 C128 C 0.26592 0.13434 0.90962
 C129 C 0.32483 0.16458 0.88682
 C130 C 0.37388 0.18976 0.86668
 C131 C 0.42987 0.21841 0.84233
 C132 C 0.47645 0.24210 0.82094
 C133 C 0.89360 0.78562 0.92837
 C134 C 0.86843 0.73407 0.90962
 C135 C 0.83976 0.67516 0.88682
 C136 C 0.81588 0.62611 0.86668
 C137 C 0.78855 0.57012 0.84233
 C138 C 0.76566 0.52354 0.82094
 C139 C 0.89204 0.10639 0.92837
 C140 C 0.86565 0.13156 0.90962
 C141 C 0.83541 0.16023 0.88682
 C142 C 0.81023 0.18411 0.86668
 C143 C 0.78158 0.21144 0.84233
 C144 C 0.75789 0.23433 0.82094
 C145 C 0.78563 0.89203 0.42837
 C146 C 0.73408 0.86564 0.40962
 C147 C 0.67517 0.83540 0.38682
 C148 C 0.62612 0.81022 0.36668
 C149 C 0.57013 0.78157 0.34233
 C150 C 0.52355 0.75788 0.32094
 C151 C 0.10640 0.21436 0.42837
 C152 C 0.13157 0.26591 0.40962
 C153 C 0.16024 0.32482 0.38682
 C154 C 0.18412 0.37387 0.36668
 C155 C 0.21145 0.42986 0.34233
 C156 C 0.23434 0.47644 0.32094
 C157 C 0.10796 0.89359 0.42837
 C158 C 0.13435 0.86842 0.40962
 C159 C 0.16459 0.83975 0.38682
 C160 C 0.18977 0.81587 0.36668
 C161 C 0.21842 0.78854 0.34233
 C162 C 0.24211 0.76565 0.32094
   
