data_POSCAR
  _audit_creation_date              2014-09-24
  _audit_creation_method            'ToBaCCo'
  _symmetry_space_group_name_H-M    'P1'
  _symmetry_Int_Tables_number       1
  _symmetry_cell_setting            triclinic
  loop_
  _symmetry_equiv_pos_as_xyz
 x,y,z
_cell_length_a 47.5829
_cell_length_b 46.8891
_cell_length_c 46.7372
_cell_angle_alpha 90.278300
_cell_angle_beta 90.560500
_cell_angle_gamma 89.979300
loop_
  _atom_site_label
  _atom_site_type_symbol
  _atom_site_fract_x
  _atom_site_fract_y
  _atom_site_fract_z
N1 N 0.18200 1.24403 0.16371
 N2 N 0.15929 1.23882 0.17852
 C3 C 0.13995 1.25900 0.17294
 C4 C 0.15099 1.27811 0.15337
 C5 C 0.17792 1.26781 0.14818
 H6 H 0.11934 1.25938 0.18239
 H7 H 0.19322 1.27635 0.13360
 Cu8 Cu 0.15631 1.20579 0.20318
 Cu9 Cu 0.21418 1.21824 0.16412
 Cu10 Cu 0.21294 1.16423 0.21428
 N11 N 0.15854 1.17959 0.23515
 N12 N 0.18077 1.16360 0.23967
 C13 C 0.17655 1.14747 0.26297
 C14 C 0.15005 1.15354 0.27375
 C15 C 0.13935 1.17419 0.25536
 H16 H 0.19162 1.13218 0.27103
 H17 H 0.11915 1.18465 0.25638
 N18 N 0.24352 1.16864 0.18658
 N19 N 0.24441 1.18963 0.16789
 C20 C 0.26719 1.18616 0.15132
 C21 C 0.28110 1.16165 0.15980
 C22 C 0.26550 1.15114 0.18223
 H23 H 0.27248 1.19960 0.13343
 H24 H 0.26957 1.13184 0.19412
 H25 H 0.19423 1.18178 0.17803
 H26 H 0.20719 1.20729 0.20620
 N27 N 0.80227 0.74835 0.17361
 N28 N 0.82237 0.74832 0.19311
 C29 C 0.84054 0.72711 0.18730
 C30 C 0.83141 0.71316 0.16269
 C31 C 0.80696 0.72721 0.15470
 H32 H 0.85957 0.72295 0.19942
 H33 H 0.79382 0.72291 0.13617
 Cu34 Cu 0.82375 0.77704 0.22327
 Cu35 Cu 0.77253 0.77696 0.17359
 Cu36 Cu 0.79542 0.83998 0.20474
 N37 N 0.83005 0.81116 0.24618
 N38 N 0.81980 0.83591 0.23816
 C39 C 0.82911 0.85632 0.25617
 C40 C 0.84593 0.84371 0.27706
 C41 C 0.84584 0.81485 0.26996
 H42 H 0.82365 0.87859 0.25414
 H43 H 0.85722 0.79788 0.28051
 N44 N 0.76289 0.83775 0.17831
 N45 N 0.75361 0.81359 0.16720
 C46 C 0.73050 0.81884 0.15126
 C47 C 0.72479 0.84783 0.15243
 C48 C 0.74585 0.85907 0.16985
 H49 H 0.71892 0.80265 0.13959
 H50 H 0.74838 0.88103 0.17647
 H51 H 0.80506 0.80307 0.18219
 H52 H 0.77922 0.80060 0.21189
 N53 N 0.81177 1.24432 -0.16913
 N54 N 0.83204 1.24272 -0.18797
 C55 C 0.85024 1.26425 -0.18330
 C56 C 0.84088 1.28029 -0.16032
 C57 C 0.81629 1.26704 -0.15197
 H58 H 0.86914 1.26774 -0.19542
 H59 H 0.80319 1.27285 -0.13409
 Cu60 Cu 0.83337 1.21163 -0.21560
 Cu61 Cu 0.78226 1.21557 -0.16674
 Cu62 Cu 0.78569 1.15914 -0.21503
 N63 N 0.83471 1.18054 -0.24324
 N64 N 0.81639 1.15964 -0.24234
 C65 C 0.82256 1.14029 -0.26266
 C66 C 0.84609 1.14952 -0.27739
 C67 C 0.85309 1.17531 -0.26436
 H68 H 0.81050 1.12111 -0.26650
 H69 H 0.87062 1.18898 -0.26929
 N70 N 0.75618 1.16259 -0.18590
 N71 N 0.75458 1.18422 -0.16782
 C72 C 0.73250 1.18011 -0.15048
 C73 C 0.71964 1.15460 -0.15793
 C74 C 0.73524 1.14415 -0.18051
 H75 H 0.72676 1.19414 -0.13308
 H76 H 0.73173 1.12444 -0.19205
 H77 H 0.80575 1.18248 -0.18321
 H78 H 0.78337 1.20273 -0.20900
 N79 N 0.19001 0.74988 -0.16752
 N80 N 0.17054 0.75097 -0.18764
 C81 C 0.15129 0.73055 -0.18281
 C82 C 0.15934 0.71564 -0.15860
 C83 C 0.18409 0.72841 -0.14953
 H84 H 0.13263 0.72695 -0.19570
 H85 H 0.19618 0.72326 -0.13053
 Cu86 Cu 0.17144 0.77943 -0.21780
 Cu87 Cu 0.21992 0.77805 -0.16455
 Cu88 Cu 0.22042 0.83124 -0.21565
 N89 N 0.17195 0.80998 -0.24586
 N90 N 0.19082 0.83037 -0.24459
 C91 C 0.18559 0.84934 -0.26547
 C92 C 0.16204 0.84045 -0.28092
 C93 C 0.15409 0.81521 -0.26775
 H94 H 0.19809 0.86821 -0.26892
 H95 H 0.13616 0.80201 -0.27303
 N96 N 0.24870 0.82862 -0.18478
 N97 N 0.24841 0.80853 -0.16513
 C98 C 0.26940 0.81347 -0.14617
 C99 C 0.28367 0.83778 -0.15438
 C100 C 0.26999 0.84672 -0.17900
 H101 H 0.27379 0.80054 -0.12758
 H102 H 0.27460 0.86564 -0.19120
 H103 H 0.19743 0.81011 -0.18468
 H104 H 0.22115 0.78794 -0.20745
 Si105 Si 0.49917 1.00498 0.00183
 Si106 Si -0.00338 0.50224 0.99966
 Si107 Si 1.00388 -0.00208 0.49971
 C108 C 0.10923 0.34780 1.11368
 C109 C 0.13771 0.34250 1.10827
 C110 C 0.15162 0.31973 1.12152
 C111 C 0.13741 0.30179 1.14074
 C112 C 0.10899 0.30783 1.14662
 C113 C 0.09512 0.33039 1.13317
 C114 C 0.09392 0.37086 1.09850
 C115 C 0.06708 0.36568 1.08688
 C116 C 0.05245 0.38720 1.07255
 C117 C 0.06419 0.41455 1.06969
 C118 C 0.09113 0.41971 1.08127
 C119 C 0.10589 0.39805 1.09543
 C120 C 0.04837 0.43732 1.05438
 C121 C 0.06229 0.45667 1.03644
 C122 C 0.04707 0.47695 1.02080
 C123 C 0.01774 0.47817 1.02282
 C124 C 0.00382 0.45929 1.04095
 C125 C 0.01898 0.43924 1.05678
 H126 H 0.14906 0.35555 1.09321
 H127 H 0.17347 0.31632 1.11639
 H128 H 0.09699 0.29500 1.16124
 H129 H 0.07323 0.33426 1.13803
 H130 H 0.05756 0.34478 1.08847
 H131 H 0.03208 0.38222 1.06331
 H132 H 0.10066 0.44060 1.07976
 H133 H 0.12647 0.40267 1.10440
 H134 H 0.08483 0.45555 1.03375
 H135 H 0.05820 0.49102 1.00657
 H136 H -0.01886 0.45983 1.04260
 H137 H 0.00761 0.42508 1.07076
 C138 C -0.12444 0.64768 1.11642
 C139 C -0.14470 0.66463 1.10257
 C140 C -0.15943 0.68549 1.11772
 C141 C -0.15403 0.69003 1.14701
 C142 C -0.13400 0.67281 1.16094
 C143 C -0.11947 0.65174 1.14583
 C144 C -0.10804 0.62636 1.10003
 C145 C -0.10324 0.59894 1.11100
 C146 C -0.08762 0.57899 1.09549
 C147 C -0.07624 0.58613 1.06879
 C148 C -0.08101 0.61366 1.05795
 C149 C -0.09682 0.63348 1.07333
 C150 C -0.05926 0.56513 1.05236
 C151 C -0.06104 0.56404 1.02230
 C152 C -0.04443 0.54499 1.00682
 C153 C -0.02614 0.52631 1.02103
 C154 C -0.02427 0.52719 1.05096
 C155 C -0.04069 0.54641 1.06650
 H156 H -0.14915 0.66174 1.07997
 H157 H -0.17455 0.69848 1.10627
 H158 H -0.12950 0.67562 1.18353
 H159 H -0.10387 0.63905 1.15699
 H160 H -0.11192 0.59281 1.13141
 H161 H -0.08477 0.55784 1.10426
 H162 H -0.07213 0.62012 1.03775
 H163 H -0.09983 0.65462 1.06458
 H164 H -0.07534 0.57783 1.01070
 H165 H -0.04589 0.54481 0.98367
 H166 H -0.00977 0.51349 1.06238
 H167 H -0.03834 0.54707 1.08955
 C168 C -0.11737 0.35088 0.88145
 C169 C -0.10254 0.33254 0.86312
 C170 C -0.11619 0.30996 0.84921
 C171 C -0.14497 0.30501 0.85347
 C172 C -0.15990 0.32351 0.87153
 C173 C -0.14628 0.34623 0.88531
 C174 C -0.10251 0.37424 0.89702
 C175 C -0.10927 0.38076 0.92554
 C176 C -0.09454 0.40190 0.94058
 C177 C -0.07261 0.41689 0.92751
 C178 C -0.06603 0.41065 0.89893
 C179 C -0.08088 0.38964 0.88382
 C180 C -0.05619 0.43841 0.94393
 C181 C -0.02671 0.43894 0.94231
 C182 C -0.01114 0.45841 0.95870
 C183 C -0.02474 0.47799 0.97657
 C184 C -0.05414 0.47758 0.97823
 C185 C -0.06975 0.45797 0.96202
 H186 H -0.08016 0.33514 0.86009
 H187 H -0.10392 0.29595 0.83576
 H188 H -0.18216 0.32053 0.87502
 H189 H -0.15842 0.36022 0.89893
 H190 H -0.12546 0.36900 0.93652
 H191 H -0.09979 0.40598 0.96272
 H192 H -0.04946 0.42214 0.88822
 H193 H -0.07548 0.38552 0.86173
 H194 H -0.01568 0.42379 0.92893
 H195 H 0.01158 0.45797 0.95765
 H196 H -0.06515 0.49194 0.99239
 H197 H -0.09243 0.45808 0.96364
 C198 C 0.11391 0.64984 0.88477
 C199 C 0.09950 0.67055 0.86879
 C200 C 0.11432 0.69156 0.85414
 C201 C 0.14379 0.69258 0.85576
 C202 C 0.15821 0.67183 0.87177
 C203 C 0.14339 0.65042 0.88589
 C204 C 0.09814 0.62812 0.90084
 C205 C 0.10385 0.59897 0.89707
 C206 C 0.08861 0.57851 0.91214
 C207 C 0.06795 0.58699 0.93167
 C208 C 0.06250 0.61615 0.93565
 C209 C 0.07727 0.63654 0.92014
 C210 C 0.05195 0.56554 0.94785
 C211 C 0.05047 0.56738 0.97778
 C212 C 0.03456 0.54773 0.99306
 C213 C 0.01950 0.52628 0.97863
 C214 C 0.02091 0.52439 0.94873
 C215 C 0.03735 0.54368 0.93346
 H216 H 0.07675 0.67041 0.86760
 H217 H 0.10267 0.70742 0.84215
 H218 H 0.18093 0.67207 0.87323
 H219 H 0.15489 0.63468 0.89821
 H220 H 0.11982 0.59206 0.88221
 H221 H 0.09316 0.55611 0.90885
 H222 H 0.04655 0.62310 0.95053
 H223 H 0.07266 0.65893 0.92345
 H224 H 0.06164 0.58406 0.98928
 H225 H 0.03358 0.54961 1.01613
 H226 H 0.00911 0.50839 0.93704
 H227 H 0.03801 0.54209 0.91035
 C228 C 1.10936 0.11478 0.34410
 C229 C 1.13732 0.10796 0.33772
 C230 C 1.15081 0.12083 0.31470
 C231 C 1.13674 0.14108 0.29751
 C232 C 1.10882 0.14823 0.30449
 C233 C 1.09533 0.13516 0.32737
 C234 C 1.09458 0.10010 0.36764
 C235 C 1.06706 0.09002 0.36347
 C236 C 1.05326 0.07554 0.38526
 C237 C 1.06657 0.07097 0.41185
 C238 C 1.09406 0.08131 0.41609
 C239 C 1.10795 0.09563 0.39417
 C240 C 1.05200 0.05488 0.43470
 C241 C 1.06683 0.03541 0.45200
 C242 C 1.05277 0.01905 0.47229
 C243 C 1.02369 0.02192 0.47568
 C244 C 1.00885 0.04144 0.45873
 C245 C 1.02287 0.05797 0.43862
 H246 H 1.14858 0.09214 0.35016
 H247 H 1.17227 0.11463 0.31053
 H248 H 1.09696 0.16365 0.29221
 H249 H 1.07384 0.14107 0.33204
 H250 H 1.05641 0.09275 0.34308
 H251 H 1.03236 0.06734 0.38101
 H252 H 1.10477 0.07853 0.43642
 H253 H 1.12905 0.10348 0.39806
 H254 H 1.08915 0.03207 0.44918
 H255 H 1.06455 0.00353 0.48455
 H256 H 0.98630 0.04365 0.46081
 H257 H 1.01085 0.07303 0.42597
 C258 C 1.12087 -0.11659 0.65077
 C259 C 1.14361 -0.10388 0.66521
 C260 C 1.15751 -0.11822 0.68732
 C261 C 1.14871 -0.14557 0.69595
 C262 C 1.12596 -0.15831 0.68108
 C263 C 1.11237 -0.14405 0.65866
 C264 C 1.10559 -0.10084 0.62806
 C265 C 1.09913 -0.11392 0.60173
 C266 C 1.08468 -0.09887 0.58040
 C267 C 1.07603 -0.07054 0.58513
 C268 C 1.08237 -0.05765 0.61168
 C269 C 1.09715 -0.07254 0.63278
 C270 C 1.06005 -0.05455 0.56281
 C271 C 1.06366 -0.02491 0.55983
 C272 C 1.04730 -0.00955 0.54032
 C273 C 1.02756 -0.02353 0.52287
 C274 C 1.02428 -0.05311 0.52511
 C275 C 1.04032 -0.06850 0.54497
 H276 H 1.15071 -0.08277 0.65933
 H277 H 1.17478 -0.10735 0.69787
 H278 H 1.11848 -0.17934 0.68653
 H279 H 1.09477 -0.15424 0.64789
 H280 H 1.10563 -0.13567 0.59753
 H281 H 1.08057 -0.10936 0.56011
 H282 H 1.07547 -0.03616 0.61644
 H283 H 1.10151 -0.06213 0.65308
 H284 H 1.07900 -0.01348 0.57272
 H285 H 1.04987 0.01336 0.53907
 H286 H 1.00871 -0.06424 0.51226
 H287 H 1.03655 -0.09116 0.54698
 C288 C 0.89040 -0.11528 0.34473
 C289 C 0.87713 -0.09921 0.32332
 C290 C 0.86208 -0.11267 0.30131
 C291 C 0.86044 -0.14269 0.29979
 C292 C 0.87393 -0.15868 0.32143
 C293 C 0.88845 -0.14509 0.34380
 C294 C 0.90664 -0.10086 0.36768
 C295 C 0.90105 -0.10640 0.39656
 C296 C 0.91598 -0.09206 0.41819
 C297 C 0.93712 -0.07247 0.41121
 C298 C 0.94296 -0.06728 0.38231
 C299 C 0.92765 -0.08114 0.36072
 C300 C 0.95292 -0.05711 0.43389
 C301 C 0.98240 -0.05659 0.43358
 C302 C 0.99737 -0.04089 0.45410
 C303 C 0.98311 -0.02515 0.47499
 C304 C 0.95365 -0.02572 0.47548
 C305 C 0.93865 -0.04189 0.45526
 H306 H 0.87832 -0.07613 0.32374
 H307 H 0.85238 -0.09930 0.28523
 H308 H 0.87314 -0.18173 0.32147
 H309 H 0.89864 -0.15789 0.36011
 H310 H 0.88480 -0.12142 0.40233
 H311 H 0.91121 -0.09641 0.44036
 H312 H 0.95905 -0.05212 0.37645
 H313 H 0.93230 -0.07663 0.33856
 H314 H 0.99382 -0.06823 0.41734
 H315 H 1.02011 -0.04052 0.45328
 H316 H 0.94214 -0.01324 0.49093
 H317 H 0.91590 -0.04171 0.45567
 C318 C 0.88854 0.10720 0.65516
 C319 C 0.89605 0.13506 0.66308
 C320 C 0.88211 0.14905 0.68528
 C321 C 0.85995 0.13563 0.69989
 C322 C 0.85217 0.10782 0.69130
 C323 C 0.86645 0.09374 0.66941
 C324 C 0.90402 0.09197 0.63241
 C325 C 0.91383 0.06413 0.63699
 C326 C 0.92884 0.04984 0.61577
 C327 C 0.93400 0.06289 0.58927
 C328 C 0.92395 0.09076 0.58471
 C329 C 0.90929 0.10521 0.60614
 C330 C 0.95004 0.04755 0.56672
 C331 C 0.96856 0.06236 0.54878
 C332 C 0.98414 0.04779 0.52813
 C333 C 0.98157 0.01817 0.52510
 C334 C 0.96340 0.00327 0.54305
 C335 C 0.94749 0.01781 0.56338
 H336 H 0.91316 0.14581 0.65246
 H337 H 0.88883 0.17044 0.69071
 H338 H 0.83545 0.09642 0.70174
 H339 H 0.86017 0.07228 0.66353
 H340 H 0.91036 0.05363 0.65724
 H341 H 0.93682 0.02872 0.62038
 H342 H 0.92712 0.10134 0.56446
 H343 H 0.90168 0.12659 0.60204
 H344 H 0.97162 0.08512 0.55116
 H345 H 0.99869 0.05966 0.51514
 H346 H 0.96154 -0.01970 0.54136
 H347 H 0.93319 0.00570 0.57647
 C348 C 0.35163 1.12178 0.11851
 C349 C 0.33218 1.10547 0.13394
 C350 C 0.30964 1.11850 0.14775
 C351 C 0.30570 1.14812 0.14614
 C352 C 0.32506 1.16453 0.13082
 C353 C 0.34789 1.15153 0.11734
 C354 C 0.37517 1.10761 0.10316
 C355 C 0.38431 1.11788 0.07660
 C356 C 0.40539 1.10369 0.06152
 C357 C 0.41764 1.07862 0.07239
 C358 C 0.40886 1.06866 0.09920
 C359 C 0.38809 1.08308 0.11446
 C360 C 0.43864 1.06231 0.05543
 C361 C 0.46063 1.04734 0.06907
 C362 C 0.47916 1.03054 0.05320
 C363 C 0.47641 1.02882 0.02339
 C364 C 0.45503 1.04416 0.00959
 C365 C 0.43622 1.06062 0.02542
 H366 H 0.33391 1.08247 0.13481
 H367 H 0.29486 1.10521 0.15902
 H368 H 0.32271 1.18745 0.12946
 H369 H 0.36269 1.16486 0.10613
 H370 H 0.37471 1.13651 0.06702
 H371 H 0.41193 1.11231 0.04120
 H372 H 0.41748 1.04927 0.10816
 H373 H 0.38203 1.07483 0.13509
 H374 H 0.46347 1.04846 0.09205
 H375 H 0.49532 1.01869 0.06439
 H376 H 0.45244 1.04286 -0.01343
 H377 H 0.41929 1.07130 0.01416
 C378 C 0.65065 1.11353 -0.11562
 C379 C 0.66832 1.09798 -0.13384
 C380 C 0.69044 1.11139 -0.14782
 C381 C 0.69552 1.14067 -0.14380
 C382 C 0.67763 1.15632 -0.12581
 C383 C 0.65535 1.14290 -0.11195
 C384 C 0.62785 1.09889 -0.10002
 C385 C 0.60098 1.11112 -0.09790
 C386 C 0.57956 1.09696 -0.08337
 C387 C 0.58464 1.07034 -0.07057
 C388 C 0.61165 1.05835 -0.07246
 C389 C 0.63295 1.07240 -0.08708
 C390 C 0.56212 1.05511 -0.05497
 C391 C 0.56009 1.02522 -0.05665
 C392 C 0.54044 1.01059 -0.04035
 C393 C 0.52213 1.02551 -0.02242
 C394 C 0.52340 1.05534 -0.02122
 C395 C 0.54323 1.07006 -0.03740
 H396 H 0.66499 1.07538 -0.13734
 H397 H 0.70382 1.09860 -0.16138
 H398 H 0.68077 1.17894 -0.12244
 H399 H 0.64215 1.15538 -0.09789
 H400 H 0.59642 1.13142 -0.10789
 H401 H 0.55892 1.10663 -0.08254
 H402 H 0.61650 1.03825 -0.06224
 H403 H 0.65360 1.06273 -0.08788
 H404 H 0.57393 1.01308 -0.07034
 H405 H 0.53986 0.98751 -0.04136
 H406 H 0.50975 1.06725 -0.00715
 H407 H 0.54445 1.09304 -0.03536
 C408 C 0.35055 0.88209 -0.11003
 C409 C 0.34600 0.88609 -0.13951
 C410 C 0.32453 0.87146 -0.15393
 C411 C 0.30721 0.85228 -0.13928
 C412 C 0.31213 0.84775 -0.10996
 C413 C 0.33348 0.86257 -0.09547
 C414 C 0.37258 0.89870 -0.09447
 C415 C 0.38855 0.88620 -0.07236
 C416 C 0.40892 0.90206 -0.05751
 C417 C 0.41390 0.93069 -0.06459
 C418 C 0.39807 0.94315 -0.08674
 C419 C 0.37759 0.92739 -0.10144
 C420 C 0.43531 0.94767 -0.04876
 C421 C 0.45354 0.96592 -0.06349
 C422 C 0.47311 0.98262 -0.04853
 C423 C 0.47481 0.98133 -0.01862
 C424 C 0.45664 0.96324 -0.00382
 C425 C 0.43720 0.94635 -0.01876
 H426 H 0.35913 0.90049 -0.15153
 H427 H 0.32161 0.87510 -0.17661
 H428 H 0.29900 0.83334 -0.09797
 H429 H 0.33612 0.85926 -0.07270
 H430 H 0.38556 0.86405 -0.06674
 H431 H 0.42105 0.89183 -0.04073
 H432 H 0.40114 0.96531 -0.09233
 H433 H 0.36531 0.93788 -0.11793
 H434 H 0.45263 0.96726 -0.08660
 H435 H 0.48648 0.99684 -0.06042
 H436 H 0.45734 0.96238 0.01933
 H437 H 0.42314 0.93281 -0.00683
 C438 C 0.65645 0.89317 0.11164
 C439 C 0.65739 0.86322 0.11097
 C440 C 0.67950 0.84852 0.12419
 C441 C 0.70121 0.86341 0.13842
 C442 C 0.70015 0.89338 0.13914
 C443 C 0.67805 0.90806 0.12594
 C444 C 0.63320 0.90887 0.09725
 C445 C 0.63872 0.93399 0.08200
 C446 C 0.61696 0.94879 0.06840
 C447 C 0.58915 0.93884 0.06969
 C448 C 0.58359 0.91371 0.08488
 C449 C 0.60538 0.89890 0.09855
 C450 C 0.56618 0.95451 0.05489
 C451 C 0.54526 0.93970 0.03940
 C452 C 0.52454 0.95457 0.02417
 C453 C 0.52424 0.98446 0.02445
 C454 C 0.54481 0.99928 0.04016
 C455 C 0.56553 0.98447 0.05533
 H456 H 0.64124 0.85114 0.09983
 H457 H 0.67943 0.82548 0.12321
 H458 H 0.71640 0.90570 0.14978
 H459 H 0.67774 0.93112 0.12716
 H460 H 0.65998 0.94196 0.08016
 H461 H 0.62199 0.96778 0.05639
 H462 H 0.56232 0.90572 0.08652
 H463 H 0.60038 0.87985 0.11047
 H464 H 0.54548 0.91663 0.03828
 H465 H 0.50934 0.94263 0.01164
 H466 H 0.54513 1.02238 0.04030
 H467 H 0.58117 0.99648 0.06730
   
