data_POSCAR
  _audit_creation_date              2014-09-24
  _audit_creation_method            'ToBaCCo'
  _symmetry_space_group_name_H-M    'P1'
  _symmetry_Int_Tables_number       1
  _symmetry_cell_setting            triclinic
  loop_
  _symmetry_equiv_pos_as_xyz
 x,y,z
_cell_length_a 31.5482
_cell_length_b 33.9350
_cell_length_c 32.2711
_cell_angle_alpha 90.543200
_cell_angle_beta 90.171500
_cell_angle_gamma 90.012800
loop_
  _atom_site_label
  _atom_site_type_symbol
  _atom_site_fract_x
  _atom_site_fract_y
  _atom_site_fract_z
C1 C 0.28427 0.23251 0.23954
 C2 C 0.26599 0.21541 0.27460
 C3 C 0.23185 0.23327 0.29385
 C4 C 0.21565 0.26882 0.27841
 C5 C 0.23375 0.28564 0.24388
 C6 C 0.26837 0.26746 0.22439
 C7 C 0.31724 0.22131 0.21422
 N8 N 0.32184 0.24872 0.18411
 C9 C 0.29203 0.27709 0.19021
 C10 C 0.21176 0.31963 0.23572
 N11 N 0.18055 0.32416 0.26440
 C12 C 0.18298 0.29313 0.29079
 C13 C 0.22014 0.20947 0.32623
 N14 N 0.24656 0.17776 0.32733
 C15 C 0.27461 0.18133 0.29564
 H16 H 0.33668 0.19528 0.21778
 H17 H 0.28725 0.30250 0.17080
 H18 H 0.21883 0.33998 0.21108
 H19 H 0.16267 0.28822 0.31710
 H20 H 0.19411 0.21507 0.34711
 H21 H 0.29887 0.16012 0.28749
 C22 C 0.71387 -0.24042 0.23842
 C23 C 0.73256 -0.22171 0.27280
 C24 C 0.76593 -0.23945 0.29336
 C25 C 0.78079 -0.27640 0.27992
 C26 C 0.76236 -0.29469 0.24593
 C27 C 0.72846 -0.27668 0.22522
 C28 C 0.68144 -0.22978 0.21229
 N29 N 0.67543 -0.25888 0.18344
 C30 C 0.70437 -0.28774 0.19145
 C31 C 0.78346 -0.32962 0.23947
 N32 N 0.81425 -0.33344 0.26889
 C33 C 0.81256 -0.30081 0.29385
 C34 C 0.77823 -0.21418 0.32484
 N35 N 0.75297 -0.18173 0.32390
 C36 C 0.72489 -0.18622 0.29222
 H37 H 0.66344 -0.20286 0.21495
 H38 H 0.70866 -0.31468 0.17385
 H39 H 0.77602 -0.35105 0.21551
 H40 H 0.83336 -0.29442 0.31974
 H41 H 0.80357 -0.21916 0.34686
 H42 H 0.70109 -0.16485 0.28346
 C43 C 0.71624 0.23441 0.75735
 C44 C 0.73447 0.21533 0.72306
 C45 C 0.76854 0.23218 0.70296
 C46 C 0.78459 0.26863 0.71675
 C47 C 0.76666 0.28726 0.75064
 C48 C 0.73204 0.27016 0.77090
 C49 C 0.68359 0.22444 0.78333
 N50 N 0.67863 0.25346 0.81243
 C51 C 0.70845 0.28159 0.80472
 C52 C 0.78931 0.32123 0.75789
 N53 N 0.82058 0.32421 0.72902
 C54 C 0.81759 0.29191 0.70365
 C55 C 0.78049 0.20647 0.67182
 N56 N 0.75434 0.17462 0.67251
 C57 C 0.72602 0.17994 0.70369
 H58 H 0.66479 0.19800 0.78047
 H59 H 0.71375 0.30820 0.82265
 H60 H 0.78266 0.34229 0.78228
 H61 H 0.83844 0.28481 0.67812
 H62 H 0.80632 0.21067 0.65031
 H63 H 0.70167 0.15909 0.71229
 C64 C 0.27454 -0.22904 0.76276
 C65 C 0.25606 -0.21119 0.72815
 C66 C 0.22271 -0.22932 0.70760
 C67 C 0.20759 -0.26585 0.72135
 C68 C 0.22575 -0.28329 0.75561
 C69 C 0.25972 -0.26490 0.77625
 C70 C 0.30729 -0.21805 0.78856
 N71 N 0.31328 -0.24658 0.81748
 C72 C 0.28405 -0.27540 0.80983
 C73 C 0.20463 -0.31808 0.76214
 N74 N 0.17418 -0.32270 0.73244
 C75 C 0.17602 -0.29067 0.70728
 C76 C 0.21095 -0.20500 0.67560
 N77 N 0.23653 -0.17273 0.67624
 C78 C 0.26426 -0.17643 0.70824
 H79 H 0.32581 -0.19146 0.78534
 H80 H 0.27993 -0.30197 0.82749
 H81 H 0.21194 -0.33899 0.78624
 H82 H 0.15555 -0.28505 0.68106
 H83 H 0.18585 -0.21055 0.65336
 H84 H 0.28828 -0.15504 0.71681
 C85 C 0.71931 -0.23356 0.76444
 C86 C 0.73737 -0.21569 0.72966
 C87 C 0.77020 -0.23408 0.70873
 C88 C 0.78523 -0.27071 0.72213
 C89 C 0.76751 -0.28814 0.75644
 C90 C 0.73412 -0.26961 0.77750
 C91 C 0.68636 -0.22312 0.79013
 N92 N 0.68029 -0.25223 0.81838
 C93 C 0.70976 -0.28074 0.81059
 C94 C 0.78779 -0.32348 0.76209
 N95 N 0.81744 -0.32835 0.73185
 C96 C 0.81577 -0.29601 0.70713
 C97 C 0.78063 -0.21068 0.67572
 N98 N 0.75475 -0.17869 0.67593
 C99 C 0.72819 -0.18154 0.70885
 H100 H 0.66761 -0.19670 0.78722
 H101 H 0.71391 -0.30773 0.82763
 H102 H 0.78036 -0.34458 0.78592
 H103 H 0.83563 -0.29054 0.68055
 H104 H 0.80437 -0.21716 0.65253
 H105 H 0.70382 -0.16043 0.71700
 C106 C 0.28087 0.23454 0.76303
 C107 C 0.26207 0.21626 0.72841
 C108 C 0.22844 0.23404 0.70845
 C109 C 0.21319 0.27052 0.72275
 C110 C 0.23184 0.28851 0.75674
 C111 C 0.26605 0.27051 0.77686
 C112 C 0.31385 0.22404 0.78862
 N113 N 0.31985 0.25297 0.81770
 C114 C 0.29039 0.28152 0.81038
 C115 C 0.21084 0.32336 0.76366
 N116 N 0.17963 0.32717 0.73477
 C117 C 0.18119 0.29491 0.70941
 C118 C 0.21647 0.20957 0.67626
 N119 N 0.24230 0.17745 0.67582
 C120 C 0.27015 0.18142 0.70791
 H121 H 0.33225 0.19740 0.78541
 H122 H 0.28597 0.30830 0.82823
 H123 H 0.21858 0.34466 0.78765
 H124 H 0.16076 0.28918 0.68316
 H125 H 0.19085 0.21518 0.65489
 H126 H 0.29415 0.16025 0.71651
 C127 C 0.27573 -0.23197 0.23318
 C128 C 0.25804 -0.21422 0.26854
 C129 C 0.22388 -0.23159 0.28806
 C130 C 0.20711 -0.26710 0.27256
 C131 C 0.22443 -0.28431 0.23762
 C132 C 0.25915 -0.26683 0.21804
 C133 C 0.30930 -0.22215 0.20817
 N134 N 0.31396 -0.25050 0.17828
 C135 C 0.28301 -0.27789 0.18437
 C136 C 0.20188 -0.31806 0.22929
 N137 N 0.17114 -0.32227 0.25852
 C138 C 0.17452 -0.29107 0.28529
 C139 C 0.21358 -0.20810 0.32152
 N140 N 0.24081 -0.17708 0.32292
 C141 C 0.26812 -0.18065 0.29062
 H142 H 0.32922 -0.19657 0.21250
 H143 H 0.27739 -0.30400 0.16573
 H144 H 0.20854 -0.33832 0.20410
 H145 H 0.15439 -0.28536 0.31166
 H146 H 0.18870 -0.21368 0.34369
 H147 H 0.29334 -0.16019 0.28349
 C148 C 0.71577 0.23241 0.24297
 C149 C 0.73304 0.21448 0.27820
 C150 C 0.76629 0.23217 0.29930
 C151 C 0.78264 0.26823 0.28560
 C152 C 0.76569 0.28565 0.25086
 C153 C 0.73194 0.26779 0.22958
 C154 C 0.68453 0.22133 0.21535
 N155 N 0.68100 0.24939 0.18562
 C156 C 0.71027 0.27780 0.19427
 C157 C 0.78857 0.31921 0.24355
 N158 N 0.81922 0.32313 0.27314
 C159 C 0.81549 0.29184 0.29915
 C160 C 0.77769 0.20742 0.33096
 N161 N 0.75194 0.17523 0.32992
 C162 C 0.72464 0.17946 0.29751
 H163 H 0.66632 0.19445 0.21688
 H164 H 0.71662 0.30349 0.17572
 H165 H 0.78260 0.33922 0.21843
 H166 H 0.83581 0.28558 0.32530
 H167 H 0.80318 0.21265 0.35270
 H168 H 0.70118 0.15808 0.28763
 O169 O 0.20431 0.03879 0.45842
 O170 O 0.20107 -0.03714 0.53911
 O171 O 0.20310 0.03951 0.53921
 O172 O 0.20443 -0.03837 0.45870
 O173 O 0.27436 -0.03876 0.46085
 O174 O 0.27305 0.03850 0.54114
 O175 O 0.27099 -0.03748 0.54150
 O176 O 0.27424 0.03788 0.46020
 Cu177 Cu 0.19619 0.00084 0.49850
 Cu178 Cu 0.28016 0.00001 0.50099
 C179 C 0.23979 0.05125 0.44545
 C180 C 0.23547 -0.05004 0.55435
 C181 C 0.23797 0.05187 0.55430
 C182 C 0.23974 -0.05198 0.44623
 O183 O 0.79305 0.03383 0.53999
 O184 O 0.79284 -0.04297 0.45879
 O185 O 0.79197 0.03386 0.45941
 O186 O 0.79096 -0.04314 0.53931
 O187 O 0.72100 -0.04242 0.53863
 O188 O 0.72199 0.03399 0.45898
 O189 O 0.72290 -0.04225 0.45782
 O190 O 0.72311 0.03406 0.53988
 Cu191 Cu 0.79923 -0.00464 0.49948
 Cu192 Cu 0.71524 -0.00409 0.49883
 C193 C 0.75818 0.04701 0.55392
 C194 C 0.75790 -0.05558 0.44422
 C195 C 0.75701 0.04685 0.44540
 C196 C 0.75567 -0.05591 0.55256
 O197 O 0.46228 0.21648 0.03872
 O198 O 0.54272 0.21950 -0.04365
 O199 O 0.54485 0.21676 0.03718
 O200 O 0.46081 0.21895 -0.04215
 O201 O 0.46014 0.28396 -0.03874
 O202 O 0.54485 0.28179 0.03971
 O203 O 0.54267 0.28453 -0.04053
 O204 O 0.46219 0.28148 0.04171
 Cu205 Cu 0.50269 0.21138 -0.00265
 Cu206 Cu 0.50239 0.28946 0.00091
 C207 C 0.44842 0.24851 0.05422
 C208 C 0.55628 0.25252 -0.05627
 C209 C 0.55940 0.24894 0.05179
 C210 C 0.44627 0.25185 -0.05411
 O211 O 0.53875 0.77731 0.04010
 O212 O 0.45694 0.78186 -0.04124
 O213 O 0.45674 0.77986 0.03960
 O214 O 0.53925 0.77942 -0.04093
 O215 O 0.53729 0.71440 -0.04293
 O216 O 0.45422 0.71486 0.03667
 O217 O 0.45447 0.71686 -0.04353
 O218 O 0.53677 0.71230 0.03747
 Cu219 Cu 0.49820 0.78615 -0.00043
 Cu220 Cu 0.49550 0.70808 -0.00339
 C221 C 0.55159 0.74406 0.05280
 C222 C 0.44159 0.75014 -0.05613
 C223 C 0.44139 0.74739 0.05182
 C224 C 0.55240 0.74679 -0.05559
 O225 O 0.03977 0.46031 0.23757
 O226 O -0.04667 0.53311 0.23994
 O227 O 0.03582 0.53656 0.23551
 O228 O -0.04270 0.45734 0.24108
 O229 O -0.03902 0.45851 0.30942
 O230 O 0.03900 0.53945 0.30383
 O231 O -0.04307 0.53540 0.30823
 O232 O 0.04337 0.46233 0.30588
 Cu233 Cu -0.00370 0.49662 0.23169
 Cu234 Cu 0.00052 0.49910 0.31374
 C235 C 0.05633 0.44885 0.27130
 C236 C -0.05979 0.54657 0.27445
 C237 C 0.05070 0.55170 0.26857
 C238 C -0.05451 0.44453 0.27599
 O239 O 0.03816 0.54044 0.75829
 O240 O -0.04206 0.46172 0.75771
 O241 O 0.04051 0.46446 0.75934
 O242 O -0.04485 0.53779 0.75751
 O243 O -0.04413 0.53707 0.68914
 O244 O 0.04166 0.46337 0.69093
 O245 O -0.04061 0.45997 0.68931
 O246 O 0.03835 0.54010 0.68990
 Cu247 Cu -0.00219 0.50129 0.76506
 Cu248 Cu -0.00118 0.50007 0.68292
 C249 C 0.05221 0.55353 0.72423
 C250 C -0.05492 0.44731 0.72344
 C251 C 0.05584 0.45152 0.72553
 C252 C -0.05927 0.54983 0.72314
 C253 C 0.36698 0.28190 0.13224
 C254 C 0.35269 0.24772 0.15132
 C255 C 0.37069 0.21192 0.13660
 C256 C 0.40170 0.21180 0.10471
 C257 C 0.41587 0.24749 0.08693
 C258 C 0.39708 0.28174 0.10218
 C259 C 0.39823 0.32546 0.09923
 C260 C 0.36425 0.32576 0.13339
 H261 H 0.36075 0.18405 0.14934
 H262 H 0.41467 0.18388 0.09435
 H263 H 0.38647 0.33601 0.06879
 H264 H 0.42916 0.33789 0.10954
 H265 H 0.33301 0.33681 0.12254
 H266 H 0.37564 0.33835 0.16333
 C267 C 0.62132 0.77416 0.14269
 C268 C 0.64586 0.74100 0.15216
 C269 C 0.63783 0.70713 0.12679
 C270 C 0.60704 0.70779 0.09456
 C271 C 0.58376 0.74239 0.08595
 C272 C 0.59263 0.77480 0.11110
 C273 C 0.58050 0.81659 0.11817
 C274 C 0.61296 0.81634 0.15379
 H275 H 0.65437 0.67974 0.13180
 H276 H 0.60179 0.68129 0.07631
 H277 H 0.54714 0.81964 0.12872
 H278 H 0.58978 0.83573 0.09196
 H279 H 0.59809 0.81977 0.18480
 H280 H 0.64091 0.83548 0.14812
 C281 C 0.62389 0.22147 -0.14698
 C282 C 0.64930 0.25410 -0.15625
 C283 C 0.64247 0.28796 -0.13061
 C284 C 0.61206 0.28779 -0.09822
 C285 C 0.58794 0.25368 -0.08973
 C286 C 0.59554 0.22127 -0.11524
 C287 C 0.58234 0.17978 -0.12245
 C288 C 0.61440 0.17953 -0.15824
 H289 H 0.65972 0.31499 -0.13548
 H290 H 0.60779 0.31426 -0.07970
 H291 H 0.54879 0.17746 -0.13284
 H292 H 0.59145 0.16032 -0.09639
 H293 H 0.59911 0.17655 -0.18919
 H294 H 0.64194 0.15979 -0.15281
 C295 C 0.35219 0.72038 -0.12774
 C296 C 0.34333 0.75361 -0.15171
 C297 C 0.36821 0.78757 -0.14197
 C298 C 0.39985 0.78680 -0.11058
 C299 C 0.40835 0.75199 -0.08826
 C300 C 0.38329 0.71961 -0.09839
 C301 C 0.37712 0.67729 -0.08878
 C302 C 0.34209 0.67774 -0.12202
 H303 H 0.36336 0.81509 -0.15781
 H304 H 0.41792 0.81332 -0.10426
 H305 H 0.36506 0.67288 -0.05683
 H306 H 0.40502 0.65908 -0.09759
 H307 H 0.30989 0.67309 -0.10907
 H308 H 0.34986 0.65968 -0.14990
 C309 C 0.13258 0.36880 0.30420
 C310 C 0.15146 0.35702 0.26671
 C311 C 0.14270 0.38018 0.23150
 C312 C 0.11286 0.41100 0.23321
 C313 C 0.09122 0.41984 0.27027
 C314 C 0.10363 0.39969 0.30593
 C315 C 0.07700 0.37983 0.33756
 C316 C 0.10816 0.34579 0.33544
 H317 H 0.15703 0.37330 0.20192
 H318 H 0.10553 0.42678 0.20508
 H319 H 0.04487 0.37213 0.32573
 H320 H 0.07757 0.39574 0.36782
 H321 H 0.09387 0.31847 0.32217
 H322 H 0.12624 0.34180 0.36471
 C323 C 0.14250 0.61859 0.76085
 C324 C 0.14736 0.64568 0.72853
 C325 C 0.12379 0.63822 0.69180
 C326 C 0.09387 0.60735 0.68973
 C327 C 0.08585 0.58379 0.72457
 C328 C 0.11228 0.58889 0.75904
 C329 C 0.10155 0.59315 0.80381
 C330 C 0.13455 0.62569 0.80599
 H331 H 0.12774 0.65628 0.66469
 H332 H 0.07559 0.60328 0.66156
 H333 H 0.11054 0.56663 0.82179
 H334 H 0.06867 0.60392 0.80892
 H335 H 0.16237 0.61784 0.82546
 H336 H 0.12085 0.65531 0.81242
 C337 C -0.15395 0.60738 0.24038
 C338 C -0.15853 0.63528 0.27255
 C339 C -0.13392 0.62915 0.30877
 C340 C -0.10307 0.59910 0.31023
 C341 C -0.09526 0.57495 0.27531
 C342 C -0.12289 0.57846 0.24160
 C343 C -0.11378 0.58155 0.19644
 C344 C -0.14769 0.61326 0.19490
 H345 H -0.13756 0.64782 0.33583
 H346 H -0.08379 0.59632 0.33786
 H347 H -0.12266 0.55427 0.17916
 H348 H -0.08140 0.59291 0.19010
 H349 H -0.17590 0.60417 0.17644
 H350 H -0.13500 0.64297 0.18763
 C351 C -0.14419 0.38185 0.75817
 C352 C -0.15015 0.35397 0.72638
 C353 C -0.12326 0.35865 0.69130
 C354 C -0.09262 0.38935 0.68974
 C355 C -0.08706 0.41580 0.72347
 C356 C -0.11390 0.41038 0.75695
 C357 C -0.12309 0.42572 0.79922
 C358 C -0.15723 0.39344 0.80110
 H359 H -0.12590 0.33932 0.66464
 H360 H -0.07293 0.39188 0.66247
 H361 H -0.13616 0.45613 0.79873
 H362 H -0.09627 0.42095 0.82101
 H363 H -0.18996 0.40551 0.80227
 H364 H -0.15004 0.37016 0.82408
 C365 C 0.20623 0.13347 0.37399
 C366 C 0.24443 0.14484 0.35533
 C367 C 0.28035 0.12100 0.36282
 C368 C 0.27868 0.08976 0.39119
 C369 C 0.24095 0.08120 0.41255
 C370 C 0.20454 0.10220 0.40148
 C371 C 0.17280 0.12226 0.42848
 C372 C 0.17489 0.15671 0.39888
 H373 H 0.31042 0.12758 0.34848
 H374 H 0.30737 0.07332 0.39749
 H375 H 0.18547 0.12931 0.45987
 H376 H 0.14167 0.10692 0.42799
 H377 H 0.18895 0.18358 0.41335
 H378 H 0.14475 0.16149 0.38173
 C379 C 0.72063 0.11766 0.63749
 C380 C 0.75672 0.14034 0.64602
 C381 C 0.79536 0.12786 0.62833
 C382 C 0.79628 0.09643 0.59944
 C383 C 0.75850 0.07718 0.58724
 C384 C 0.72141 0.08713 0.60862
 C385 C 0.67824 0.09697 0.59274
 C386 C 0.67737 0.13038 0.62446
 H387 H 0.82459 0.14309 0.63575
 H388 H 0.82619 0.08863 0.58520
 H389 H 0.65485 0.07335 0.59929
 H390 H 0.67863 0.10735 0.56016
 H391 H 0.65353 0.12593 0.64927
 H392 H 0.67722 0.16014 0.61031
 C393 C 0.27066 -0.11696 0.64092
 C394 C 0.23461 -0.13976 0.64857
 C395 C 0.19652 -0.12866 0.62884
 C396 C 0.19627 -0.09848 0.59907
 C397 C 0.23421 -0.07921 0.58801
 C398 C 0.27055 -0.08772 0.61123
 C399 C 0.31446 -0.09760 0.59749
 C400 C 0.31458 -0.12962 0.63012
 H401 H 0.16726 -0.14398 0.63544
 H402 H 0.16683 -0.09165 0.58337
 H403 H 0.33721 -0.07338 0.60438
 H404 H 0.31551 -0.10937 0.56522
 H405 H 0.33737 -0.12377 0.65579
 H406 H 0.31573 -0.15996 0.61683
 C407 C 0.72005 -0.12454 0.35902
 C408 C 0.75575 -0.14780 0.35087
 C409 C 0.79439 -0.13630 0.36952
 C410 C 0.79557 -0.10526 0.39887
 C411 C 0.75804 -0.08546 0.41061
 C412 C 0.72108 -0.09442 0.38835
 C413 C 0.67745 -0.10363 0.40320
 C414 C 0.67632 -0.13660 0.37098
 H415 H 0.82337 -0.15199 0.36246
 H416 H 0.82543 -0.09819 0.41381
 H417 H 0.65472 -0.07947 0.39653
 H418 H 0.67709 -0.11444 0.43562
 H419 H 0.65297 -0.13137 0.34577
 H420 H 0.67527 -0.16654 0.38467
 C421 C 0.62486 0.77976 -0.14132
 C422 C 0.64976 0.74690 -0.15148
 C423 C 0.64094 0.71235 -0.12820
 C424 C 0.60911 0.71207 -0.09722
 C425 C 0.58549 0.74637 -0.08770
 C426 C 0.59515 0.77953 -0.11076
 C427 C 0.58359 0.82161 -0.11592
 C428 C 0.61720 0.82231 -0.15033
 H429 H 0.65760 0.68508 -0.13401
 H430 H 0.60331 0.68504 -0.08058
 H431 H 0.59215 0.83980 -0.08832
 H432 H 0.55062 0.82527 -0.12750
 H433 H 0.64510 0.84102 -0.14257
 H434 H 0.60336 0.82688 -0.18163
 C435 C 0.37542 0.22065 -0.14277
 C436 C 0.34987 0.25336 -0.15146
 C437 C 0.35743 0.28713 -0.12582
 C438 C 0.38879 0.28688 -0.09417
 C439 C 0.41323 0.25280 -0.08642
 C440 C 0.40474 0.22039 -0.11171
 C441 C 0.41815 0.17910 -0.11975
 C442 C 0.38499 0.17893 -0.15476
 H443 H 0.34012 0.31420 -0.13018
 H444 H 0.39366 0.31334 -0.07574
 H445 H 0.41008 0.15928 -0.09372
 H446 H 0.45138 0.17722 -0.13098
 H447 H 0.35782 0.15887 -0.14894
 H448 H 0.39934 0.17643 -0.18610
 C449 C 0.37146 0.78018 0.14021
 C450 C 0.34435 0.74838 0.14798
 C451 C 0.35075 0.71464 0.12206
 C452 C 0.38242 0.71407 0.09093
 C453 C 0.40837 0.74731 0.08397
 C454 C 0.40109 0.77972 0.10959
 C455 C 0.41587 0.82054 0.11813
 C456 C 0.38237 0.82151 0.15265
 H457 H 0.33225 0.68816 0.12579
 H458 H 0.38628 0.68768 0.07220
 H459 H 0.40876 0.84075 0.09211
 H460 H 0.44903 0.82136 0.12985
 H461 H 0.35600 0.84241 0.14656
 H462 H 0.39649 0.82338 0.18421
 C463 C 0.63290 0.21376 0.13659
 C464 C 0.65301 0.24859 0.15001
 C465 C 0.64604 0.28272 0.12606
 C466 C 0.61679 0.28254 0.09307
 C467 C 0.59380 0.24822 0.08284
 C468 C 0.60438 0.21360 0.10363
 C469 C 0.57607 0.18426 0.12357
 C470 C 0.60681 0.18456 0.15984
 H471 H 0.66123 0.31034 0.13391
 H472 H 0.61089 0.30977 0.07679
 H473 H 0.57549 0.15573 0.10636
 H474 H 0.54439 0.19659 0.13141
 H475 H 0.62352 0.15598 0.16371
 H476 H 0.59288 0.19720 0.18866
 C477 C -0.15140 0.61226 0.75927
 C478 C -0.15641 0.63970 0.72729
 C479 C -0.13323 0.63252 0.69039
 C480 C -0.10303 0.60194 0.68811
 C481 C -0.09448 0.57840 0.72287
 C482 C -0.12093 0.58287 0.75726
 C483 C -0.11041 0.58649 0.80221
 C484 C -0.14368 0.61873 0.80461
 H485 H -0.13740 0.65081 0.66346
 H486 H -0.08467 0.59837 0.66003
 H487 H -0.07766 0.59747 0.80786
 H488 H -0.11923 0.55961 0.81962
 H489 H -0.13025 0.64836 0.81168
 H490 H -0.17149 0.61035 0.82368
 C491 C -0.14498 0.37929 0.24317
 C492 C -0.15119 0.35266 0.27549
 C493 C -0.12416 0.35828 0.31058
 C494 C -0.09296 0.38858 0.31154
 C495 C -0.08713 0.41358 0.27720
 C496 C -0.11430 0.40738 0.24388
 C497 C -0.12316 0.42115 0.20118
 C498 C -0.15779 0.38933 0.19986
 H499 H -0.12699 0.33992 0.33759
 H500 H -0.07304 0.39187 0.33874
 H501 H -0.09640 0.41510 0.17972
 H502 H -0.13571 0.45175 0.20082
 H503 H -0.15095 0.36504 0.17750
 H504 H -0.19032 0.40181 0.19814
 C505 C 0.13054 0.36951 0.69408
 C506 C 0.15106 0.36028 0.73146
 C507 C 0.14403 0.38590 0.76557
 C508 C 0.11422 0.41659 0.76322
 C509 C 0.09085 0.42280 0.72663
 C510 C 0.10159 0.40031 0.69169
 C511 C 0.07346 0.37843 0.66230
 C512 C 0.10463 0.34450 0.66515
 H513 H 0.15957 0.38107 0.79497
 H514 H 0.10821 0.43432 0.79066
 H515 H 0.07266 0.39223 0.63121
 H516 H 0.04190 0.37169 0.67576
 H517 H 0.12131 0.33843 0.63548
 H518 H 0.09094 0.31819 0.68047
 C519 C 0.11696 0.64102 0.29522
 C520 C 0.14222 0.64767 0.26033
 C521 C 0.13574 0.62079 0.22671
 C522 C 0.10579 0.58975 0.22922
 C523 C 0.08189 0.58379 0.26561
 C524 C 0.08919 0.61037 0.29785
 C525 C 0.07625 0.62002 0.34096
 C526 C 0.10774 0.65455 0.33847
 H527 H 0.15273 0.62377 0.19792
 H528 H 0.10171 0.57027 0.20273
 H529 H 0.08595 0.59689 0.36322
 H530 H 0.04256 0.62945 0.34284
 H531 H 0.13558 0.65129 0.35935
 H532 H 0.09197 0.68383 0.33949
 C533 C 0.79068 -0.13667 0.62439
 C534 C 0.75429 -0.14796 0.64557
 C535 C 0.71661 -0.12752 0.63516
 C536 C 0.71678 -0.09753 0.60477
 C537 C 0.75474 -0.08678 0.58435
 C538 C 0.79093 -0.10744 0.59586
 C539 C 0.83723 -0.11094 0.58804
 C540 C 0.83709 -0.14395 0.62049
 H541 H 0.68694 -0.13501 0.64987
 H542 H 0.68728 -0.08280 0.59747
 H543 H 0.85491 -0.08419 0.59818
 H544 H 0.84416 -0.12156 0.55608
 H545 H 0.85463 -0.13619 0.64936
 H546 H 0.84430 -0.17347 0.60710
 C547 C 0.20466 -0.13365 0.37388
 C548 C 0.24131 -0.14615 0.35368
 C549 C 0.27924 -0.12639 0.36515
 C550 C 0.27900 -0.09575 0.39541
 C551 C 0.24075 -0.08362 0.41465
 C552 C 0.20438 -0.10379 0.40228
 C553 C 0.15772 -0.10582 0.40850
 C554 C 0.15791 -0.13951 0.37616
 H555 H 0.30910 -0.13483 0.35126
 H556 H 0.30867 -0.08154 0.40348
 H557 H 0.14132 -0.07880 0.39769
 H558 H 0.14930 -0.11554 0.44023
 H559 H 0.14170 -0.13185 0.34669
 H560 H 0.14924 -0.16854 0.38934
 C561 C 0.79172 0.13085 0.37720
 C562 C 0.75409 0.14144 0.35672
 C563 C 0.71877 0.11629 0.36157
 C564 C 0.72011 0.08458 0.38931
 C565 C 0.75694 0.07686 0.41265
 C566 C 0.79315 0.09905 0.40404
 C567 C 0.82276 0.11942 0.43321
 C568 C 0.82091 0.15445 0.40436
 H569 H 0.68921 0.12224 0.34581
 H570 H 0.69173 0.06718 0.39370
 H571 H 0.85440 0.10504 0.43404
 H572 H 0.80832 0.12534 0.46406
 H573 H 0.85171 0.16055 0.38904
 H574 H 0.80519 0.18053 0.41867
 C575 C 0.20291 0.13461 0.62575
 C576 C 0.24026 0.14432 0.64741
 C577 C 0.27547 0.11911 0.64175
 C578 C 0.27434 0.08825 0.61238
 C579 C 0.23787 0.08145 0.58806
 C580 C 0.20170 0.10364 0.59721
 C581 C 0.17287 0.12511 0.56861
 C582 C 0.17443 0.15921 0.59934
 H583 H 0.30485 0.12434 0.65822
 H584 H 0.30264 0.07073 0.60763
 H585 H 0.14113 0.11101 0.56638
 H586 H 0.18802 0.13186 0.53844
 H587 H 0.14339 0.16506 0.61440
 H588 H 0.19064 0.18561 0.58674
   
