data_POSCAR
  _audit_creation_date              2014-09-24
  _audit_creation_method            'ToBaCCo'
  _symmetry_space_group_name_H-M    'P1'
  _symmetry_Int_Tables_number       1
  _symmetry_cell_setting            triclinic
  loop_
  _symmetry_equiv_pos_as_xyz
 x,y,z
_cell_length_a 31.9033
_cell_length_b 31.8840
_cell_length_c 32.0221
_cell_angle_alpha 89.449300
_cell_angle_beta 90.418500
_cell_angle_gamma 89.781400
loop_
  _atom_site_label
  _atom_site_type_symbol
  _atom_site_fract_x
  _atom_site_fract_y
  _atom_site_fract_z
C1 C 0.23727 0.95244 -0.02797
 C2 C 0.25094 0.95012 0.01424
 C3 C 0.26563 0.98635 0.03365
 C4 C 0.26141 1.02675 0.01589
 C5 C 0.24528 1.03026 -0.02571
 C6 C 0.23264 0.99300 -0.04577
 H7 H 0.22121 0.99555 -0.07753
 H8 H 0.27646 0.98278 0.06571
 C9 C 0.75220 0.52844 0.51638
 C10 C 0.74950 0.53191 0.47238
 C11 C 0.74189 0.49570 0.44885
 C12 C 0.73571 0.45575 0.46715
 C13 C 0.73603 0.45309 0.51152
 C14 C 0.74456 0.48919 0.53469
 H15 H 0.74576 0.48616 0.56843
 H16 H 0.74107 0.49911 0.41515
 C17 C 0.73841 1.01302 0.95115
 C18 C 0.75246 0.97071 0.95197
 C19 C 0.75553 0.95031 0.99112
 C20 C 0.74616 0.96988 1.02941
 C21 C 0.73391 1.01264 1.02796
 C22 C 0.72953 1.03265 0.98911
 H23 H 0.72166 1.06577 0.98866
 H24 H 0.76416 0.91749 0.99145
 C25 C 0.24528 0.47150 0.53432
 C26 C 0.24641 0.51557 0.53001
 C27 C 0.24670 0.53288 0.48970
 C28 C 0.24617 0.50851 0.45350
 C29 C 0.24872 0.46409 0.45740
 C30 C 0.24742 0.44688 0.49821
 H31 H 0.24810 0.41316 0.50251
 H32 H 0.24606 0.56676 0.48608
 C33 C 0.95514 0.26261 -0.01840
 C34 C 0.95119 0.25217 0.02493
 C35 C 0.98815 0.24536 0.04871
 C36 C 1.02886 0.25112 0.03259
 C37 C 1.03224 0.26294 -0.00991
 C38 C 0.99601 0.26846 -0.03382
 H39 H 1.00078 0.27564 -0.06657
 H40 H 0.98460 0.23687 0.08136
 C41 C 0.53311 0.75357 0.52842
 C42 C 0.53024 0.76451 0.48570
 C43 C 0.49050 0.76863 0.46724
 C44 C 0.45310 0.76136 0.48888
 C45 C 0.45553 0.74948 0.53177
 C46 C 0.49576 0.74654 0.55043
 H47 H 0.49832 0.73948 0.58348
 H48 H 0.48865 0.77530 0.43401
 C49 C -0.03052 0.76388 0.04566
 C50 C 0.01396 0.76673 0.04906
 C51 C 0.03808 0.76311 0.01294
 C52 C 0.02111 0.75582 -0.02701
 C53 C -0.02318 0.75577 -0.03122
 C54 C -0.04763 0.75996 0.00485
 H55 H -0.08131 0.75993 0.00036
 H56 H 0.07182 0.76410 0.01701
 C57 C 0.46834 0.25971 0.54425
 C58 C 0.51259 0.25441 0.54680
 C59 C 0.53498 0.24417 0.51078
 C60 C 0.51649 0.24266 0.47113
 C61 C 0.47315 0.25137 0.46751
 C62 C 0.44995 0.25842 0.50403
 H63 H 0.41640 0.26262 0.50061
 H64 H 0.56856 0.23917 0.51372
 C65 C 0.96632 -0.01496 0.22252
 C66 C 0.96835 0.02686 0.23675
 C67 C 1.00824 0.04449 0.24306
 C68 C 1.04586 0.02162 0.23746
 C69 C 1.04302 -0.01973 0.22093
 C70 C 1.00328 -0.03295 0.20707
 H71 H 1.00081 -0.06205 0.19016
 H72 H 1.01003 0.07705 0.25214
 C73 C 0.54818 0.53069 0.73680
 C74 C 0.54949 0.48647 0.74191
 C75 C 0.51306 0.46512 0.75323
 C76 C 0.47406 0.48486 0.75597
 C77 C 0.47131 0.52828 0.74706
 C78 C 0.50858 0.55040 0.73918
 H79 H 0.50646 0.58411 0.73534
 H80 H 0.51502 0.43142 0.75816
 C81 C 1.03102 0.97014 0.76230
 C82 C 0.98899 0.96863 0.77509
 C83 C 0.96913 1.00581 0.78641
 C84 C 0.98533 1.04579 0.77631
 C85 C 1.02827 1.04785 0.76392
 C86 C 1.05016 1.00961 0.75822
 H87 H 1.08322 1.01044 0.75090
 H88 H 0.93762 1.00298 0.79825
 C89 C 0.52428 0.46636 0.24631
 C90 C 0.48020 0.47024 0.24772
 C91 C 0.46284 0.51056 0.24906
 C92 C 0.48717 0.54705 0.24936
 C93 C 0.53151 0.54347 0.25203
 C94 C 0.54883 0.50274 0.24965
 H95 H 0.58255 0.49876 0.25025
 H96 H 0.42899 0.51401 0.24845
 O97 O 0.27300 0.13824 0.17447
 O98 O 0.32098 0.12705 0.23506
 O99 O 0.16322 0.17745 0.24481
 O100 O 0.14551 0.23270 0.28496
 O101 O 0.20167 0.24580 0.13051
 O102 O 0.25911 0.29434 0.11734
 O103 O 0.26615 0.30284 0.34179
 O104 O 0.22299 0.24004 0.35527
 O105 O 0.37680 0.24690 0.28915
 O106 O 0.38605 0.19925 0.22665
 O107 O 0.32041 0.35246 0.23852
 O108 O 0.25719 0.36181 0.18616
 O109 O 0.26173 0.35327 0.29128
 O110 O 0.21673 0.36526 0.23518
 O111 O 0.37257 0.30413 0.23207
 O112 O 0.38690 0.24865 0.18663
 O113 O 0.32796 0.25201 0.34026
 O114 O 0.28209 0.20097 0.35815
 O115 O 0.26148 0.18934 0.12552
 O116 O 0.30493 0.24747 0.11225
 O117 O 0.15478 0.23672 0.18303
 O118 O 0.14354 0.28338 0.24090
 O119 O 0.21543 0.13025 0.23329
 O120 O 0.27377 0.11964 0.27782
 Zr121 Zr 0.26900 0.16843 0.23280
 O122 O 0.30685 0.20580 0.27165
 Zr123 Zr 0.19132 0.23727 0.23772
 O124 O 0.22657 0.27922 0.27428
 Zr125 Zr 0.26048 0.24396 0.16080
 O126 O 0.30039 0.28333 0.19503
 Zr127 Zr 0.27040 0.24506 0.30966
 O128 O 0.23243 0.20218 0.27608
 Zr129 Zr 0.34064 0.24722 0.23362
 O130 O 0.30515 0.20773 0.19438
 Zr131 Zr 0.26375 0.31834 0.23625
 O132 O 0.22309 0.28110 0.19954
 O133 O 0.22595 0.20171 0.19646
 O134 O 0.30640 0.28550 0.27374
 C135 C 0.26829 0.15124 0.13652
 C136 C 0.17709 0.13965 0.24057
 C137 C 0.16420 0.24197 0.14445
 C138 C 0.26298 0.34146 0.32959
 C139 C 0.36589 0.25055 0.32747
 C140 C 0.35926 0.34176 0.23584
 H141 H 0.32538 0.18754 0.28886
 H142 H 0.31621 0.30152 0.17563
 H143 H 0.20814 0.18316 0.17927
 H144 H 0.20729 0.29542 0.29206
 H145 H 0.20683 0.21437 0.34891
 H146 H 0.15629 0.24798 0.30949
 H147 H 0.37538 0.26520 0.16290
 H148 H 0.32861 0.22905 0.12073
 H149 H 0.27747 0.17306 0.34590
 H150 H 0.25320 0.12603 0.29989
 H151 H 0.28462 0.36441 0.17218
 H152 H 0.23717 0.31406 0.12673
 H153 H 0.33971 0.13522 0.21188
 H154 H 0.38531 0.18114 0.25190
 H155 H 0.14988 0.30483 0.21932
 H156 H 0.19272 0.35401 0.25105
 O157 O 0.74681 0.87603 0.20665
 O158 O 0.70052 0.88680 0.26645
 O159 O 0.85743 0.82861 0.26486
 O160 O 0.87116 0.77689 0.31518
 O161 O 0.81094 0.76572 0.16139
 O162 O 0.75070 0.71866 0.14952
 O163 O 0.75144 0.70979 0.37601
 O164 O 0.80086 0.76690 0.38514
 O165 O 0.64429 0.76846 0.32633
 O166 O 0.63248 0.81729 0.26281
 O167 O 0.69163 0.66116 0.26953
 O168 O 0.75485 0.64982 0.22005
 O169 O 0.75269 0.65989 0.32574
 O170 O 0.79328 0.64323 0.26931
 O171 O 0.64106 0.71161 0.26807
 O172 O 0.62641 0.76782 0.22451
 O173 O 0.69526 0.76342 0.37620
 O174 O 0.74385 0.81266 0.38859
 O175 O 0.75073 0.82411 0.15847
 O176 O 0.70697 0.76644 0.14496
 O177 O 0.86132 0.76866 0.21193
 O178 O 0.87185 0.72263 0.26957
 O179 O 0.80609 0.87852 0.26384
 O180 O 0.74820 0.89090 0.30996
 Zr181 Zr 0.75070 0.84333 0.26440
 O182 O 0.71328 0.80720 0.30478
 Zr183 Zr 0.82593 0.77076 0.26693
 O184 O 0.79052 0.73047 0.30532
 Zr185 Zr 0.75276 0.76819 0.19294
 O186 O 0.71280 0.73033 0.22889
 Zr187 Zr 0.75038 0.76666 0.34191
 O188 O 0.78862 0.80782 0.30634
 Zr189 Zr 0.67596 0.76722 0.26873
 O190 O 0.71115 0.80561 0.22776
 Zr191 Zr 0.74972 0.69337 0.26927
 O192 O 0.79024 0.72883 0.23056
 O193 O 0.79031 0.80825 0.22689
 O194 O 0.71059 0.72748 0.30813
 C195 C 0.74797 0.86277 0.16886
 C196 C 0.84453 0.86689 0.26292
 C197 C 0.84958 0.76637 0.17367
 C198 C 0.75286 0.67152 0.36393
 C199 C 0.65697 0.76597 0.36449
 C200 C 0.65296 0.67319 0.26820
 H201 H 0.69653 0.82620 0.32237
 H202 H 0.69536 0.71326 0.20995
 H203 H 0.80765 0.82579 0.20820
 H204 H 0.80976 0.71319 0.32272
 H205 H 0.81803 0.79190 0.37861
 H206 H 0.86481 0.75580 0.33707
 H207 H 0.63691 0.75374 0.19925
 H208 H 0.68359 0.78460 0.15410
 H209 H 0.75814 0.83799 0.37807
 H210 H 0.77180 0.88593 0.32965
 H211 H 0.72866 0.65125 0.20336
 H212 H 0.77286 0.69842 0.15799
 H213 H 0.68040 0.87884 0.24426
 H214 H 0.63466 0.83456 0.28824
 H215 H 0.86266 0.70068 0.24988
 H216 H 0.81918 0.65361 0.28278
 O217 O 0.75553 0.13736 0.79915
 O218 O 0.71648 0.12299 0.74318
 O219 O 0.86457 0.20073 0.75034
 O220 O 0.87777 0.25537 0.71227
 O221 O 0.80078 0.24777 0.85988
 O222 O 0.74619 0.28674 0.87259
 O223 O 0.75582 0.30195 0.63574
 O224 O 0.78681 0.24383 0.62011
 O225 O 0.63984 0.24118 0.69408
 O226 O 0.62356 0.21170 0.75214
 O227 O 0.69656 0.35964 0.75280
 O228 O 0.75555 0.37755 0.78061
 O229 O 0.73682 0.35186 0.68185
 O230 O 0.80083 0.36557 0.73798
 O231 O 0.64634 0.31223 0.73659
 O232 O 0.63514 0.25347 0.79840
 O233 O 0.68650 0.25776 0.64352
 O234 O 0.74586 0.19601 0.63337
 O235 O 0.74510 0.18487 0.85061
 O236 O 0.69542 0.24812 0.86038
 O237 O 0.85301 0.25735 0.81274
 O238 O 0.86326 0.30675 0.74887
 O239 O 0.81763 0.14724 0.74891
 O240 O 0.75839 0.13567 0.69404
 Zr241 Zr 0.75670 0.17531 0.74662
 O242 O 0.71265 0.20982 0.71079
 Zr243 Zr 0.82519 0.25260 0.75184
 O244 O 0.78903 0.28679 0.70785
 Zr245 Zr 0.74866 0.24558 0.82139
 O246 O 0.71306 0.28816 0.78510
 Zr247 Zr 0.74736 0.24926 0.67242
 O248 O 0.79209 0.21461 0.70842
 Zr249 Zr 0.67578 0.25176 0.74642
 O250 O 0.71176 0.20846 0.78275
 Zr251 Zr 0.74916 0.32426 0.74251
 O252 O 0.78520 0.28981 0.78711
 O253 O 0.79164 0.21048 0.78828
 O254 O 0.70871 0.28979 0.70516
 C255 C 0.74901 0.14692 0.83700
 C256 C 0.85543 0.16189 0.75040
 C257 C 0.83886 0.25452 0.85055
 C258 C 0.74459 0.33911 0.64429
 C259 C 0.64876 0.25032 0.65655
 C260 C 0.65904 0.35017 0.74379
 H261 H 0.69520 0.19006 0.69462
 H262 H 0.69635 0.30581 0.80408
 H263 H 0.80961 0.19319 0.80706
 H264 H 0.80789 0.30346 0.68983
 H265 H 0.81570 0.24232 0.63154
 H266 H 0.86682 0.25047 0.68374
 H267 H 0.62701 0.28304 0.80307
 H268 H 0.67948 0.22190 0.85611
 H269 H 0.71646 0.19149 0.62452
 H270 H 0.78525 0.14096 0.67964
 H271 H 0.75842 0.36661 0.80953
 H272 H 0.75156 0.31505 0.86095
 H273 H 0.68845 0.13335 0.75127
 H274 H 0.63524 0.18296 0.75441
 H275 H 0.85800 0.32302 0.77451
 H276 H 0.80332 0.37463 0.70846
 O277 O 0.23486 0.83742 0.81461
 O278 O 0.28424 0.85024 0.75580
 O279 O 0.12642 0.79207 0.75406
 O280 O 0.11151 0.74011 0.70846
 O281 O 0.17773 0.72901 0.85999
 O282 O 0.23748 0.67989 0.86978
 O283 O 0.23639 0.67574 0.64487
 O284 O 0.18183 0.73093 0.63576
 O285 O 0.33946 0.73175 0.69022
 O286 O 0.35361 0.77936 0.75378
 O287 O 0.29194 0.62310 0.75066
 O288 O 0.23104 0.61198 0.79906
 O289 O 0.23384 0.62436 0.69461
 O290 O 0.18882 0.61008 0.75240
 O291 O 0.34167 0.67376 0.74526
 O292 O 0.35999 0.72855 0.79152
 O293 O 0.28768 0.73610 0.64122
 O294 O 0.23147 0.77939 0.63003
 O295 O 0.23742 0.78541 0.86376
 O296 O 0.28256 0.72799 0.87314
 O297 O 0.12631 0.73171 0.81028
 O298 O 0.11517 0.68521 0.75354
 O299 O 0.17817 0.84104 0.75192
 O300 O 0.23713 0.85701 0.71240
 Zr301 Zr 0.23423 0.80688 0.75596
 O302 O 0.27108 0.77205 0.71437
 Zr303 Zr 0.15945 0.73458 0.75430
 O304 O 0.19415 0.69546 0.71463
 Zr305 Zr 0.23468 0.73100 0.82724
 O306 O 0.27334 0.69334 0.78993
 Zr307 Zr 0.23344 0.73269 0.67756
 O308 O 0.19592 0.77251 0.71449
 Zr309 Zr 0.30903 0.73060 0.74890
 O310 O 0.27518 0.76854 0.79114
 Zr311 Zr 0.23516 0.65739 0.75061
 O312 O 0.19621 0.69249 0.79051
 O313 O 0.19545 0.77148 0.79385
 O314 O 0.27336 0.69225 0.71056
 C315 C 0.23631 0.82421 0.85289
 C316 C 0.13952 0.83016 0.75211
 C317 C 0.13907 0.72987 0.84823
 C318 C 0.23574 0.63706 0.65667
 C319 C 0.32634 0.73448 0.65208
 C320 C 0.33008 0.63535 0.74722
 H321 H 0.28774 0.79165 0.69717
 H322 H 0.29133 0.67563 0.80821
 H323 H 0.17778 0.78921 0.81186
 H324 H 0.17503 0.67860 0.69717
 H325 H 0.16242 0.75369 0.64397
 H326 H 0.11734 0.71952 0.68629
 H327 H 0.35087 0.71209 0.81612
 H328 H 0.30582 0.74546 0.86251
 H329 H 0.24665 0.80410 0.64061
 H330 H 0.21988 0.84863 0.68807
 H331 H 0.25566 0.61540 0.81766
 H332 H 0.21422 0.66083 0.86237
 H333 H 0.30402 0.84115 0.77810
 H334 H 0.35018 0.79790 0.72904
 H335 H 0.12513 0.66365 0.77378
 H336 H 0.16607 0.61849 0.73288
 O337 O 0.25062 0.37785 0.71410
 O338 O 0.20448 0.38774 0.77469
 O339 O 0.35948 0.32540 0.77356
 O340 O 0.37418 0.26838 0.81546
 O341 O 0.30887 0.26968 0.66356
 O342 O 0.24785 0.22125 0.65331
 O343 O 0.25679 0.20660 0.87864
 O344 O 0.30527 0.26438 0.88753
 O345 O 0.14694 0.27173 0.83461
 O346 O 0.13529 0.32205 0.77120
 O347 O 0.18747 0.16379 0.76711
 O348 O 0.25280 0.15149 0.72109
 O349 O 0.24319 0.15941 0.82755
 O350 O 0.28729 0.14093 0.77350
 O351 O 0.13942 0.21545 0.77720
 O352 O 0.12445 0.27194 0.73417
 O353 O 0.19911 0.26033 0.88225
 O354 O 0.24870 0.30820 0.89519
 O355 O 0.24558 0.32748 0.66448
 O356 O 0.20585 0.26975 0.64877
 O357 O 0.36025 0.26743 0.71321
 O358 O 0.37048 0.21844 0.76823
 O359 O 0.30934 0.37632 0.76898
 O360 O 0.25428 0.38951 0.81730
 Zr361 Zr 0.25341 0.34302 0.77057
 O362 O 0.21626 0.30732 0.81156
 Zr363 Zr 0.32637 0.26820 0.76927
 O364 O 0.29044 0.22775 0.80726
 Zr365 Zr 0.25135 0.27047 0.69702
 O366 O 0.21052 0.23328 0.73310
 Zr367 Zr 0.25316 0.26437 0.84626
 O368 O 0.29131 0.30529 0.81055
 Zr369 Zr 0.17631 0.26984 0.77566
 O370 O 0.21159 0.30775 0.73416
 Zr371 Zr 0.24683 0.19359 0.77139
 O372 O 0.28807 0.22863 0.73276
 O373 O 0.29128 0.30824 0.73107
 O374 O 0.21068 0.22787 0.81267
 C375 C 0.24636 0.36585 0.67611
 C376 C 0.34741 0.36401 0.77163
 C377 C 0.34782 0.26798 0.67503
 C378 C 0.24945 0.16926 0.86588
 C379 C 0.16069 0.26607 0.87213
 C380 C 0.14945 0.17706 0.77113
 H381 H 0.20084 0.32646 0.83018
 H382 H 0.19196 0.21768 0.71393
 H383 H 0.30868 0.32627 0.71286
 H384 H 0.30927 0.20894 0.82347
 H385 H 0.32229 0.28937 0.88050
 H386 H 0.36575 0.24892 0.83810
 H387 H 0.13345 0.25851 0.70801
 H388 H 0.18058 0.28344 0.66022
 H389 H 0.25843 0.33522 0.88363
 H390 H 0.27782 0.38267 0.83652
 H391 H 0.22800 0.15554 0.70273
 H392 H 0.27185 0.20226 0.65919
 H393 H 0.18449 0.38193 0.75170
 H394 H 0.13817 0.33827 0.79725
 H395 H 0.35927 0.19726 0.74873
 H396 H 0.31493 0.15104 0.78315
 O397 O 0.77731 0.64394 0.67310
 O398 O 0.82398 0.63314 0.73414
 O399 O 0.66651 0.68878 0.73097
 O400 O 0.65045 0.74243 0.77540
 O401 O 0.71377 0.75312 0.62237
 O402 O 0.77279 0.80007 0.61207
 O403 O 0.77434 0.81234 0.83641
 O404 O 0.72334 0.75466 0.84899
 O405 O 0.88067 0.75521 0.79054
 O406 O 0.89215 0.70369 0.73102
 O407 O 0.82973 0.85720 0.74233
 O408 O 0.77382 0.86848 0.68038
 O409 O 0.76438 0.86134 0.78521
 O410 O 0.72773 0.87431 0.72441
 O411 O 0.88076 0.80872 0.73135
 O412 O 0.89534 0.75048 0.68816
 O413 O 0.82978 0.75137 0.83983
 O414 O 0.77508 0.70929 0.85588
 O415 O 0.77341 0.69464 0.62254
 O416 O 0.81839 0.75243 0.61059
 O417 O 0.66427 0.74663 0.67286
 O418 O 0.65138 0.79508 0.72899
 O419 O 0.71824 0.63944 0.73129
 O420 O 0.77525 0.62839 0.77678
 Zr421 Zr 0.77321 0.67590 0.73029
 O422 O 0.81049 0.71267 0.77002
 Zr423 Zr 0.69763 0.74721 0.72947
 O424 O 0.73222 0.78820 0.76773
 Zr425 Zr 0.77098 0.75048 0.65634
 O426 O 0.81014 0.78939 0.69225
 Zr427 Zr 0.77327 0.75326 0.80592
 O428 O 0.73535 0.71148 0.77079
 Zr429 Zr 0.84729 0.75274 0.73328
 O430 O 0.81250 0.71353 0.69311
 Zr431 Zr 0.77248 0.82567 0.73138
 O432 O 0.73278 0.78940 0.69266
 O433 O 0.73355 0.70996 0.69094
 O434 O 0.81216 0.79210 0.77146
 C435 C 0.77632 0.65631 0.63471
 C436 C 0.67948 0.65041 0.73133
 C437 C 0.67555 0.75011 0.63461
 C438 C 0.76886 0.85057 0.82356
 C439 C 0.86829 0.75296 0.82861
 C440 C 0.86837 0.84583 0.73953
 H441 H 0.82777 0.69386 0.78787
 H442 H 0.82743 0.80710 0.67367
 H443 H 0.71627 0.69163 0.67302
 H444 H 0.71261 0.80526 0.78434
 H445 H 0.70412 0.73157 0.84139
 H446 H 0.65720 0.76260 0.79773
 H447 H 0.88651 0.76863 0.66445
 H448 H 0.84093 0.73326 0.62046
 H449 H 0.78541 0.68259 0.84435
 H450 H 0.75556 0.63706 0.79887
 H451 H 0.80346 0.87439 0.67368
 H452 H 0.75180 0.82106 0.62094
 H453 H 0.84416 0.64154 0.71230
 H454 H 0.88992 0.68690 0.75704
 H455 H 0.65898 0.81525 0.70662
 H456 H 0.70167 0.86407 0.73754
 O457 O 0.25774 0.63349 0.30131
 O458 O 0.21782 0.61964 0.24655
 O459 O 0.36325 0.70030 0.26056
 O460 O 0.37610 0.75485 0.22013
 O461 O 0.29802 0.74074 0.36623
 O462 O 0.24236 0.77965 0.37964
 O463 O 0.25668 0.80255 0.14293
 O464 O 0.28682 0.74439 0.12636
 O465 O 0.13941 0.73784 0.19732
 O466 O 0.12277 0.70669 0.25521
 O467 O 0.19198 0.85689 0.25689
 O468 O 0.24729 0.87380 0.29158
 O469 O 0.24023 0.85268 0.18999
 O470 O 0.29715 0.86468 0.25268
 O471 O 0.14351 0.80768 0.24075
 O472 O 0.13269 0.74837 0.30214
 O473 O 0.18601 0.76136 0.14973
 O474 O 0.24392 0.69790 0.13711
 O475 O 0.24246 0.67863 0.35368
 O476 O 0.19221 0.74144 0.36513
 O477 O 0.35002 0.75699 0.32073
 O478 O 0.36142 0.80577 0.25702
 O479 O 0.31846 0.64709 0.24563
 O480 O 0.25606 0.63474 0.19615
 Zr481 Zr 0.25657 0.67307 0.24974
 O482 O 0.21228 0.70787 0.21442
 Zr483 Zr 0.32330 0.75161 0.25938
 O484 O 0.28734 0.78642 0.21571
 Zr485 Zr 0.24605 0.74058 0.32692
 O486 O 0.21014 0.78386 0.29118
 Zr487 Zr 0.24672 0.74949 0.17824
 O488 O 0.29167 0.71466 0.21385
 Zr489 Zr 0.17415 0.74796 0.25077
 O490 O 0.21049 0.70419 0.28629
 Zr491 Zr 0.24622 0.82233 0.25062
 O492 O 0.28209 0.78703 0.29497
 O493 O 0.29015 0.70729 0.29333
 O494 O 0.20705 0.78828 0.21156
 C495 C 0.24900 0.64135 0.33915
 C496 C 0.35558 0.66218 0.25197
 C497 C 0.33577 0.75057 0.35803
 C498 C 0.24805 0.84019 0.15224
 C499 C 0.14826 0.75134 0.16106
 C500 C 0.15500 0.84622 0.24682
 H501 H 0.19540 0.68845 0.19728
 H502 H 0.19267 0.80097 0.30998
 H503 H 0.30839 0.68956 0.31143
 H504 H 0.30653 0.80379 0.19873
 H505 H 0.31555 0.74257 0.13813
 H506 H 0.36561 0.74849 0.19174
 H507 H 0.12345 0.77764 0.30656
 H508 H 0.17650 0.71532 0.35961
 H509 H 0.21520 0.69672 0.12531
 H510 H 0.28126 0.64189 0.17972
 H511 H 0.24688 0.86155 0.32008
 H512 H 0.25015 0.80802 0.36968
 H513 H 0.18936 0.62946 0.25381
 H514 H 0.13503 0.67813 0.25641
 H515 H 0.35618 0.82183 0.28279
 H516 H 0.30507 0.87163 0.22361
 O517 O 0.72694 0.33942 0.30675
 O518 O 0.77764 0.35090 0.24515
 O519 O 0.62027 0.28781 0.24706
 O520 O 0.60816 0.23406 0.20282
 O521 O 0.67472 0.22807 0.35461
 O522 O 0.73763 0.18266 0.36410
 O523 O 0.72856 0.17386 0.13952
 O524 O 0.67805 0.22888 0.12943
 O525 O 0.83558 0.24018 0.18292
 O526 O 0.84607 0.28781 0.24805
 O527 O 0.79433 0.12765 0.24289
 O528 O 0.73646 0.11409 0.29521
 O529 O 0.73688 0.12437 0.19064
 O530 O 0.69230 0.10905 0.24928
 O531 O 0.84216 0.18036 0.24239
 O532 O 0.85852 0.23585 0.28250
 O533 O 0.78386 0.23212 0.13443
 O534 O 0.73050 0.27862 0.12423
 O535 O 0.73191 0.28840 0.35670
 O536 O 0.77912 0.23334 0.36756
 O537 O 0.62336 0.23092 0.30488
 O538 O 0.61433 0.18088 0.24992
 O539 O 0.66977 0.33865 0.24083
 O540 O 0.72600 0.36126 0.20907
 Zr541 Zr 0.72746 0.30778 0.24849
 O542 O 0.76526 0.27389 0.20676
 Zr543 Zr 0.65627 0.23224 0.24874
 O544 O 0.69254 0.19376 0.20984
 Zr545 Zr 0.73154 0.23329 0.32129
 O546 O 0.77227 0.19743 0.28421
 Zr547 Zr 0.72964 0.23156 0.17124
 O548 O 0.69082 0.27070 0.20775
 Zr549 Zr 0.80586 0.23552 0.24208
 O550 O 0.77022 0.27209 0.28431
 Zr551 Zr 0.73604 0.15870 0.24577
 O552 O 0.69515 0.19235 0.28524
 O553 O 0.69050 0.27161 0.28746
 O554 O 0.77223 0.19435 0.20464
 C555 C 0.72956 0.32697 0.34522
 C556 C 0.63160 0.32619 0.24249
 C557 C 0.63600 0.22871 0.34285
 C558 C 0.73256 0.13571 0.15246
 C559 C 0.82230 0.23777 0.14482
 C560 C 0.83208 0.14141 0.24239
 H561 H 0.78034 0.29389 0.18851
 H562 H 0.79146 0.18118 0.30262
 H563 H 0.67207 0.28906 0.30502
 H564 H 0.67381 0.17557 0.19334
 H565 H 0.65832 0.25135 0.13758
 H566 H 0.61541 0.21367 0.18091
 H567 H 0.84866 0.22574 0.31000
 H568 H 0.80146 0.25200 0.35697
 H569 H 0.71195 0.30141 0.13391
 H570 H 0.72804 0.35077 0.18021
 H571 H 0.76228 0.11825 0.31193
 H572 H 0.71559 0.16215 0.35686
 H573 H 0.79442 0.34730 0.27109
 H574 H 0.84329 0.30492 0.22223
 H575 H 0.62527 0.16059 0.27095
 H576 H 0.66879 0.11600 0.23013
 N577 N 0.24714 0.09784 0.03770
 C578 C 0.26738 0.06066 0.04342
 N579 N 0.28887 0.05450 0.07990
 N580 N 0.28979 0.08355 0.10932
 C581 C 0.26936 0.12033 0.10339
 N582 N 0.24850 0.12730 0.06688
 N583 N 0.76051 0.60406 0.53419
 C584 C 0.76353 0.56302 0.54535
 N585 N 0.77432 0.55349 0.58551
 N586 N 0.78009 0.58329 0.61361
 C587 C 0.77567 0.62411 0.60262
 N588 N 0.76640 0.63408 0.56227
 N589 N 0.76296 0.90508 0.06403
 C590 C 0.74789 0.94487 0.06624
 N591 N 0.73304 0.95807 0.10371
 N592 N 0.73350 0.93262 0.13715
 C593 C 0.74833 0.89278 0.13407
 N594 N 0.76308 0.87965 0.09696
 N595 N 0.21769 0.41344 0.57581
 C596 C 0.24163 0.44850 0.57454
 N597 N 0.26571 0.45779 0.60843
 N598 N 0.26578 0.43274 0.64213
 C599 C 0.24230 0.39725 0.64271
 N600 N 0.21817 0.38826 0.60905
 N601 N 0.70730 0.07249 0.91369
 C602 C 0.73679 0.04144 0.91432
 N603 N 0.77035 0.04537 0.88882
 N604 N 0.77420 0.07918 0.86422
 C605 C 0.74574 0.11108 0.86562
 N606 N 0.71153 0.10654 0.88981
 N607 N 0.27568 0.54061 0.39043
 C608 C 0.24172 0.53375 0.41481
 N609 N 0.21003 0.56254 0.41355
 N610 N 0.21236 0.59702 0.38990
 C611 C 0.24686 0.60441 0.36673
 N612 N 0.27767 0.57476 0.36607
 N613 N 0.22030 0.92492 0.90454
 C614 C 0.23233 0.91761 0.94487
 N615 N 0.24438 0.87784 0.95545
 N616 N 0.24512 0.84760 0.92663
 C617 C 0.23448 0.85608 0.88604
 N618 N 0.22137 0.89517 0.87590
 N619 N 0.71909 0.42879 0.39719
 C620 C 0.72963 0.42002 0.43762
 N621 N 0.73890 0.37955 0.44798
 N622 N 0.73820 0.34966 0.41888
 C623 C 0.72871 0.35912 0.37825
 N624 N 0.71865 0.39922 0.36820
 N625 N 0.05812 0.23549 0.10045
 C626 C 0.06372 0.24741 0.05999
 N627 N 0.10321 0.25719 0.04763
 N628 N 0.13546 0.25497 0.07421
 C629 C 0.12942 0.24318 0.11449
 N630 N 0.09019 0.23347 0.12713
 N631 N 0.57462 0.72461 0.58674
 C632 C 0.57315 0.74994 0.55245
 N633 N 0.60704 0.77437 0.54399
 N634 N 0.64081 0.77342 0.56896
 C635 C 0.64152 0.74850 0.60365
 N636 N 0.60790 0.72408 0.61188
 N637 N 0.09161 0.74711 0.94940
 C638 C 0.04981 0.74731 0.94066
 N639 N 0.03758 0.73855 0.90099
 N640 N 0.06591 0.73163 0.87140
 C641 C 0.10754 0.73232 0.88066
 N642 N 0.11984 0.73988 0.92023
 N643 N 0.53805 0.25247 0.39733
 C644 C 0.54517 0.23521 0.43562
 N645 N 0.58215 0.21479 0.44260
 N646 N 0.61095 0.21204 0.41295
 C647 C 0.60367 0.22929 0.37484
 N648 N 0.56658 0.24916 0.36736
 N649 N 0.95264 0.76854 0.12011
 C650 C 0.94071 0.76486 0.07939
 N651 N 0.89896 0.76154 0.07095
 N652 N 0.87045 0.76189 0.10088
 C653 C 0.88221 0.76548 0.14124
 N654 N 0.92390 0.76885 0.15043
 N655 N 0.45012 0.25757 0.62072
 C656 C 0.43897 0.26553 0.58031
 N657 N 0.39808 0.27520 0.57210
 N658 N 0.36949 0.27625 0.60209
 C659 C 0.38036 0.26774 0.64217
 N660 N 0.42141 0.25891 0.65103
 N661 N 0.93195 0.27963 0.91213
 C662 C 0.92253 0.26533 0.95126
 N663 N 0.88370 0.24927 0.95741
 N664 N 0.85674 0.24639 0.92537
 C665 C 0.86770 0.25891 0.88604
 N666 N 0.90549 0.27647 0.88025
 N667 N 0.41342 0.79304 0.43123
 C668 C 0.41490 0.76337 0.46214
 N669 N 0.38899 0.72983 0.45903
 N670 N 0.36328 0.72614 0.42614
 C671 C 0.36380 0.75481 0.39432
 N672 N 0.38847 0.78894 0.39806
 N673 N 0.08455 0.07876 0.27091
 C674 C 0.08533 0.04578 0.24423
 N675 N 0.11850 0.04233 0.21801
 N676 N 0.14887 0.07116 0.21809
 C677 C 0.14670 0.10504 0.24360
 N678 N 0.11435 0.10782 0.27051
 N679 N 0.62461 0.54836 0.74303
 C680 C 0.58511 0.55876 0.73021
 N681 N 0.57809 0.59865 0.71636
 N682 N 0.60826 0.62722 0.71633
 C683 C 0.64727 0.61728 0.73002
 N684 N 0.65521 0.57703 0.74259
 N685 N 0.96235 0.11577 0.75344
 C686 C 0.95515 0.07869 0.77345
 N687 N 0.91508 0.07046 0.78549
 N688 N 0.88356 0.09644 0.77723
 C689 C 0.89049 0.13255 0.75643
 N690 N 0.93064 0.14247 0.74570
 N691 N 0.45567 0.61031 0.27891
 C692 C 0.46216 0.58585 0.24510
 N693 N 0.43352 0.58744 0.21335
 N694 N 0.39944 0.61150 0.21550
 C695 C 0.39243 0.63479 0.24981
 N696 N 0.42193 0.63510 0.28072
 N697 N 0.04623 0.89428 0.77357
 C698 C 0.05704 0.93187 0.75636
 N699 N 0.09431 0.93478 0.73638
 N700 N 0.11983 0.90186 0.73405
 C701 C 0.10897 0.86446 0.75118
 N702 N 0.07157 0.86107 0.77079
 N703 N 0.58195 0.42647 0.21655
 C704 C 0.54741 0.42644 0.24102
 N705 N 0.53904 0.39162 0.26434
 N706 N 0.56455 0.35832 0.26324
 C707 C 0.59957 0.35905 0.23930
 N708 N 0.60758 0.39360 0.21585
 N709 N 0.93576 0.91692 0.21754
 C710 C 0.93239 0.95751 0.22977
 N711 N 0.89942 0.96799 0.25437
 N712 N 0.87110 0.93931 0.26547
 C713 C 0.87575 0.89873 0.25375
 N714 N 0.90823 0.88822 0.22919
 N715 N 0.44467 0.42185 0.78840
 C716 C 0.43827 0.45697 0.76467
 N717 N 0.40127 0.46150 0.74403
 N718 N 0.37186 0.43219 0.74733
 C719 C 0.37888 0.39680 0.77033
 N720 N 0.41564 0.39220 0.79111
 N721 N 0.07506 0.30004 0.93901
 C722 C 0.07156 0.26739 0.96636
 N723 N 0.09866 0.23463 0.96319
 N724 N 0.12818 0.23477 0.93393
 C725 C 0.13052 0.26692 0.90593
 N726 N 0.10394 0.29982 0.90933
 N727 N 0.56220 0.79204 0.42189
 C728 C 0.56637 0.76843 0.45725
 N729 N 0.60115 0.74414 0.46206
 N730 N 0.63060 0.74387 0.43276
 C731 C 0.62559 0.76684 0.39712
 N732 N 0.59112 0.79120 0.39232
 N733 N 0.96028 0.77605 0.89512
 C734 C 0.95304 0.75102 0.92896
 N735 N 0.91858 0.72615 0.92859
 N736 N 0.89243 0.72623 0.89608
 C737 C 0.89970 0.75099 0.86232
 N738 N 0.93439 0.77562 0.86212
 N739 N 0.45530 0.22557 0.39649
 C740 C 0.44967 0.25384 0.42750
 N741 N 0.41806 0.28224 0.42360
 N742 N 0.39265 0.28210 0.39061
 C743 C 0.39812 0.25392 0.35978
 N744 N 0.43010 0.22579 0.36299
 N745 N 0.07158 0.79838 0.08762
 C746 C 0.04007 0.76951 0.08746
 N747 N 0.04484 0.73475 0.11185
 N748 N 0.07943 0.72917 0.13495
 C749 C 0.11171 0.75694 0.13311
 N750 N 0.10648 0.79248 0.11015
 N751 N 0.54460 0.22927 0.61173
 C752 C 0.53990 0.26083 0.58342
 N753 N 0.57194 0.28871 0.57894
 N754 N 0.60720 0.28513 0.60130
 C755 C 0.61216 0.25284 0.62863
 N756 N 0.57957 0.22605 0.63459
 N757 N 0.91386 0.27579 0.08668
 C758 C 0.91221 0.25389 0.05043
 N759 N 0.87980 0.22684 0.04484
 N760 N 0.85040 0.22236 0.07422
 C761 C 0.85315 0.24355 0.11094
 N762 N 0.88513 0.27078 0.11621
 N763 N 0.42643 0.72315 0.59780
 C764 C 0.41911 0.74178 0.56001
 N765 N 0.37985 0.75663 0.55181
 N766 N 0.34978 0.75340 0.58060
 C767 C 0.35800 0.73585 0.61881
 N768 N 0.39679 0.72038 0.62658
 N769 N 0.26888 0.10150 0.95833
 C770 C 0.24442 0.06770 0.94966
 N771 N 0.22148 0.06881 0.91368
 N772 N 0.22286 0.10142 0.88769
 C773 C 0.24708 0.13491 0.89649
 N774 N 0.26989 0.13467 0.93250
 N775 N 0.77948 0.57136 0.41411
 C776 C 0.75482 0.57135 0.44846
 N777 N 0.73004 0.60531 0.45545
 N778 N 0.73073 0.63840 0.42966
 C779 C 0.75536 0.63807 0.39530
 N780 N 0.77966 0.60401 0.38800
 N781 N 0.75893 0.03994 0.09558
 C782 C 0.72973 0.04035 0.06452
 N783 N 0.70153 0.07244 0.06290
 N784 N 0.70245 0.10291 0.09091
 C785 C 0.73163 0.10238 0.12176
 N786 N 0.75934 0.07001 0.12419
 N787 N 0.26034 0.58512 0.55869
 C788 C 0.24540 0.54570 0.56498
 N789 N 0.22680 0.53659 0.60194
 N790 N 0.22384 0.56564 0.63145
 C791 C 0.23844 0.60508 0.62460
 N792 N 0.25686 0.61426 0.58778
 N793 N 0.74145 0.94930 0.87760
 C794 C 0.76171 0.94415 0.91481
 N795 N 0.78575 0.90910 0.92041
 N796 N 0.78841 0.87979 0.89130
 C797 C 0.76733 0.88430 0.85478
 N798 N 0.74463 0.92011 0.84799
 N799 N 0.25056 0.44464 0.38129
 C800 C 0.25271 0.43344 0.42234
 N801 N 0.25888 0.39217 0.43192
 N802 N 0.26235 0.36327 0.40254
 C803 C 0.25997 0.37425 0.36176
 N804 N 0.25410 0.41555 0.35160
 N805 N 0.27210 0.88405 0.04834
 C806 C 0.24339 0.91520 0.04394
 N807 N 0.21698 0.92264 0.07644
 N808 N 0.21869 0.89979 0.11155
 C809 C 0.24772 0.86897 0.11594
 N810 N 0.27346 0.86082 0.08318
 N811 N 0.76082 0.38621 0.54025
 C812 C 0.72983 0.41536 0.53782
 N813 N 0.70324 0.41880 0.57081
 N814 N 0.70787 0.39504 0.60502
 C815 C 0.73978 0.36706 0.60782
 N816 N 0.76504 0.36191 0.57416
 N817 N 0.04983 0.11936 0.78715
 C818 C 0.05441 0.08663 0.76057
 N819 N 0.08949 0.08538 0.73665
 N820 N 0.11920 0.11434 0.73982
 C821 C 0.11517 0.14630 0.76698
 N822 N 0.07938 0.14897 0.78981
 N823 N 0.60310 0.56980 0.26333
 C824 C 0.56182 0.57895 0.25704
 N825 N 0.55025 0.62005 0.25557
 N826 N 0.57901 0.65025 0.25975
 C827 C 0.62033 0.64054 0.26565
 N828 N 0.63168 0.59969 0.26741
 N829 N 0.06597 0.90941 0.20889
 C830 C 0.07443 0.94854 0.22381
 N831 N 0.11000 0.95335 0.24675
 N832 N 0.13525 0.92055 0.25432
 C833 C 0.12560 0.88142 0.24027
 N834 N 0.09080 0.87666 0.21671
 N835 N 0.61517 0.45435 0.76465
 C836 C 0.58532 0.45847 0.73463
 N837 N 0.57929 0.42596 0.70786
 N838 N 0.60183 0.39078 0.71097
 C839 C 0.63083 0.38645 0.74173
 N840 N 0.63811 0.41944 0.76742
 N841 N 0.89434 0.04667 0.22060
 C842 C 0.93103 0.05489 0.24077
 N843 N 0.93458 0.09188 0.26125
 N844 N 0.90301 0.11925 0.26183
 C845 C 0.86632 0.11065 0.24220
 N846 N 0.86239 0.07373 0.22179
 N847 N 0.42974 0.58705 0.71963
 C848 C 0.43167 0.55282 0.74509
 N849 N 0.39846 0.54449 0.77023
 N850 N 0.36483 0.56961 0.76982
 C851 C 0.36363 0.60419 0.74468
 N852 N 0.39662 0.61235 0.71963
 N853 N 0.96630 0.90574 0.73674
 C854 C 0.96146 0.93168 0.76979
 N855 N 0.92569 0.92883 0.79244
 N856 N 0.89585 0.90177 0.78232
 C857 C 0.90059 0.87642 0.74907
 N858 N 0.93676 0.87797 0.72708
 N859 N 0.45922 0.39819 0.22701
 C860 C 0.45007 0.43493 0.24602
 N861 N 0.41069 0.44065 0.26097
 N862 N 0.38164 0.41120 0.25721
 C863 C 0.39087 0.37459 0.23841
 N864 N 0.43026 0.36834 0.22372
   
