data_POSCAR
  _audit_creation_date              2014-09-24
  _audit_creation_method            'ToBaCCo'
  _symmetry_space_group_name_H-M    'P1'
  _symmetry_Int_Tables_number       1
  _symmetry_cell_setting            triclinic
  loop_
  _symmetry_equiv_pos_as_xyz
 x,y,z
_cell_length_a 63.1334
_cell_length_b 61.8171
_cell_length_c 57.2316
_cell_angle_alpha 90.704900
_cell_angle_beta 89.688200
_cell_angle_gamma 87.992200
loop_
  _atom_site_label
  _atom_site_type_symbol
  _atom_site_fract_x
  _atom_site_fract_y
  _atom_site_fract_z
C1 C 0.60378 0.62660 0.64241
 C2 C 0.58761 0.64277 0.64253
 C3 C 0.58943 0.66141 0.62892
 C4 C 0.60754 0.66364 0.61486
 C5 C 0.62360 0.64739 0.61413
 C6 C 0.62180 0.62887 0.62809
 C7 C 0.60228 0.60827 0.65652
 C8 C 0.61878 0.59228 0.65691
 C9 C 0.63651 0.59462 0.64216
 C10 C 0.63799 0.61261 0.62765
 C11 C 0.65543 0.61451 0.61263
 C12 C 0.65710 0.63265 0.59824
 C13 C 0.64130 0.64923 0.59942
 H14 H 0.57375 0.64102 0.65352
 H15 H 0.60894 0.67785 0.60413
 H16 H 0.58842 0.60682 0.66758
 H17 H 0.64926 0.58241 0.64181
 H18 H 0.66770 0.60180 0.61211
 H19 H 0.64246 0.66330 0.58842
 C20 C 0.89973 0.37688 0.13333
 C21 C 0.91562 0.36045 0.13251
 C22 C 0.91345 0.34186 0.11828
 C23 C 0.89505 0.34019 0.10456
 C24 C 0.87931 0.35679 0.10472
 C25 C 0.88160 0.37515 0.11924
 C26 C 0.90155 0.39490 0.14829
 C27 C 0.88536 0.41110 0.14954
 C28 C 0.86764 0.40953 0.13491
 C29 C 0.86573 0.39177 0.11971
 C30 C 0.84809 0.39033 0.10507
 C31 C 0.84584 0.37225 0.09027
 C32 C 0.86135 0.35537 0.09047
 H33 H 0.92950 0.36205 0.14339
 H34 H 0.89303 0.32614 0.09338
 H35 H 0.91532 0.39598 0.15943
 H36 H 0.85521 0.42208 0.13545
 H37 H 0.83604 0.40326 0.10531
 H38 H 0.85972 0.34137 0.07912
 C39 C 0.39743 0.13082 -0.13914
 C40 C 0.41279 0.14667 -0.13867
 C41 C 0.41276 0.16242 -0.12073
 C42 C 0.39710 0.16225 -0.10317
 C43 C 0.38140 0.14675 -0.10363
 C44 C 0.38158 0.13095 -0.12167
 C45 C 0.39767 0.11486 -0.15683
 C46 C 0.38199 0.09916 -0.15766
 C47 C 0.36608 0.09970 -0.14024
 C48 C 0.36591 0.11529 -0.12223
 C49 C 0.35027 0.11540 -0.10475
 C50 C 0.34990 0.13110 -0.08675
 C51 C 0.36549 0.14680 -0.08637
 H52 H 0.42493 0.14661 -0.15214
 H53 H 0.39693 0.17442 -0.08936
 H54 H 0.41001 0.11490 -0.17008
 H55 H 0.35386 0.08781 -0.14039
 H56 H 0.33824 0.10332 -0.10531
 H57 H 0.36540 0.15892 -0.07251
 C58 C 0.09965 0.87003 0.35977
 C59 C 0.08407 0.85442 0.36044
 C60 C 0.08612 0.83645 0.37535
 C61 C 0.10402 0.83462 0.38995
 C62 C 0.11937 0.85049 0.39001
 C63 C 0.11728 0.86815 0.37473
 C64 C 0.09800 0.88736 0.34417
 C65 C 0.11394 0.90266 0.34309
 C66 C 0.13118 0.90096 0.35848
 C67 C 0.13284 0.88396 0.37441
 C68 C 0.14983 0.88255 0.39003
 C69 C 0.15176 0.86530 0.40574
 C70 C 0.13668 0.84909 0.40530
 H71 H 0.07056 0.85612 0.34891
 H72 H 0.10589 0.82108 0.40171
 H73 H 0.08463 0.88858 0.33241
 H74 H 0.14335 0.91289 0.35806
 H75 H 0.16158 0.89492 0.38994
 H76 H 0.13808 0.83570 0.41731
 N77 N 0.09978 0.15749 0.11637
 N78 N 0.08555 0.14433 0.12429
 C79 C 0.06667 0.15504 0.12594
 C80 C 0.06932 0.17611 0.11898
 C81 C 0.09053 0.17717 0.11314
 H82 H 0.05220 0.14820 0.13224
 H83 H 0.09857 0.19111 0.10675
 Cu84 Cu 0.09327 0.11495 0.13331
 Cu85 Cu 0.12913 0.14795 0.11057
 Cu86 Cu 0.13915 0.09268 0.11404
 N87 N 0.10533 0.08871 0.14712
 N88 N 0.12352 0.08015 0.13965
 C89 C 0.12859 0.06262 0.15241
 C90 C 0.11270 0.06007 0.16875
 C91 C 0.09812 0.07685 0.16488
 H92 H 0.14288 0.05262 0.15013
 H93 H 0.08364 0.08046 0.17459
 N94 N 0.15785 0.11192 0.09738
 N95 N 0.15460 0.13312 0.09680
 C96 C 0.17012 0.14170 0.08396
 C97 C 0.18363 0.12502 0.07614
 C98 C 0.17539 0.10640 0.08499
 H99 H 0.17107 0.15868 0.07988
 H100 H 0.18156 0.09000 0.08235
 H101 H 0.11901 0.11813 0.10168
 H102 H 0.13133 0.12046 0.13117
 N103 N 0.39824 0.84077 0.61481
 N104 N 0.41058 0.85459 0.62522
 C105 C 0.42920 0.84449 0.63032
 C106 C 0.42837 0.82320 0.62285
 C107 C 0.40851 0.82135 0.61314
 H108 H 0.44227 0.85200 0.63901
 H109 H 0.40220 0.80705 0.60507
 Cu110 Cu 0.40112 0.88427 0.63198
 Cu111 Cu 0.37044 0.84938 0.60279
 Cu112 Cu 0.35033 0.89928 0.62125
 N113 N 0.38765 0.90969 0.64686
 N114 N 0.36762 0.91503 0.64319
 C115 C 0.36201 0.93228 0.65667
 C116 C 0.37949 0.93813 0.66936
 C117 C 0.39555 0.92353 0.66268
 H118 H 0.34633 0.93990 0.65738
 H119 H 0.41155 0.92261 0.66938
 N120 N 0.33540 0.88078 0.59907
 N121 N 0.34278 0.86142 0.59241
 C122 C 0.32941 0.85310 0.57666
 C123 C 0.31299 0.86806 0.57317
 C124 C 0.31727 0.88538 0.58763
 H125 H 0.33188 0.83774 0.56762
 H126 H 0.30811 0.90045 0.58920
 H127 H 0.37401 0.88244 0.60208
 H128 H 0.36577 0.87046 0.63062
 N129 N 0.90274 0.66298 0.38738
 N130 N 0.91552 0.64932 0.37588
 C131 C 0.93379 0.65903 0.37115
 C132 C 0.93221 0.67995 0.37993
 C133 C 0.91231 0.68197 0.39005
 H134 H 0.94709 0.65157 0.36174
 H135 H 0.90555 0.69602 0.39918
 Cu136 Cu 0.90697 0.62048 0.36704
 Cu137 Cu 0.87552 0.65448 0.39983
 Cu138 Cu 0.85704 0.60629 0.37874
 N139 N 0.89399 0.59669 0.35054
 N140 N 0.87431 0.59160 0.35482
 C141 C 0.86892 0.57557 0.34018
 C142 C 0.88615 0.57026 0.32602
 C143 C 0.90186 0.58391 0.33307
 H144 H 0.85352 0.56846 0.33965
 H145 H 0.91758 0.58491 0.32562
 N146 N 0.84196 0.62375 0.40286
 N147 N 0.84861 0.64255 0.41047
 C148 C 0.83523 0.65027 0.42728
 C149 C 0.81959 0.63546 0.43042
 C150 C 0.82432 0.61888 0.41469
 H151 H 0.83718 0.66506 0.43720
 H152 H 0.81579 0.60414 0.41243
 H153 H 0.88054 0.62138 0.39811
 H154 H 0.87113 0.63526 0.37080
 N155 N 0.59531 0.33885 -0.11138
 N156 N 0.58615 0.34811 -0.12946
 C157 C 0.56890 0.33705 -0.13529
 C158 C 0.56707 0.32019 -0.11988
 C159 C 0.58403 0.32181 -0.10489
 H160 H 0.55839 0.34095 -0.14961
 H161 H 0.58805 0.31115 -0.09062
 Cu162 Cu 0.59746 0.37377 -0.14360
 Cu163 Cu 0.62162 0.34898 -0.09826
 Cu164 Cu 0.64344 0.39326 -0.12452
 N165 N 0.61019 0.39850 -0.15822
 N166 N 0.62853 0.40551 -0.15115
 C167 C 0.63411 0.42208 -0.16462
 C168 C 0.61833 0.42581 -0.18082
 C169 C 0.60334 0.41062 -0.17629
 H170 H 0.64845 0.43098 -0.16261
 H171 H 0.58872 0.40844 -0.18565
 N172 N 0.65622 0.37876 -0.09735
 N173 N 0.64817 0.36163 -0.08755
 C174 C 0.66070 0.35534 -0.06969
 C175 C 0.67721 0.36935 -0.06810
 C176 C 0.67388 0.38399 -0.08581
 H177 H 0.65790 0.34179 -0.05844
 H178 H 0.68370 0.39742 -0.08996
 H179 H 0.61732 0.38085 -0.10799
 H180 H 0.63219 0.36237 -0.12885
 C181 C -0.04008 0.29313 0.11718
 N182 N -0.03690 0.31210 0.12858
 N183 N -0.05193 0.32778 0.12900
 C184 C -0.07067 0.32525 0.11784
 N185 N -0.07369 0.30624 0.10631
 N186 N -0.05877 0.29046 0.10610
 C187 C -0.02365 0.27574 0.11701
 N188 N -0.02856 0.25512 0.11140
 N189 N -0.01371 0.23926 0.11157
 C190 C 0.00663 0.24350 0.11708
 N191 N 0.01157 0.26415 0.12254
 N192 N -0.00333 0.27997 0.12263
 C193 C 0.02294 0.22601 0.11737
 N194 N 0.04383 0.23053 0.11691
 N195 N 0.05863 0.21462 0.11723
 C196 C 0.05305 0.19365 0.11829
 N197 N 0.03217 0.18913 0.11885
 N198 N 0.01738 0.20502 0.11827
 C199 C 0.54121 0.70984 0.62940
 N200 N 0.53683 0.68913 0.63473
 N201 N 0.55218 0.67377 0.63478
 C202 C 0.57244 0.67850 0.62927
 N203 N 0.57677 0.69923 0.62389
 N204 N 0.56147 0.71463 0.62405
 C205 C 0.52430 0.72675 0.62914
 N206 N 0.52910 0.74797 0.62839
 N207 N 0.51377 0.76332 0.62792
 C208 C 0.49308 0.75801 0.62796
 N209 N 0.48829 0.73678 0.62865
 N210 N 0.50362 0.72144 0.62934
 C211 C 0.47621 0.77492 0.62696
 N212 N 0.45601 0.76976 0.62185
 N213 N 0.44077 0.78515 0.62053
 C214 C 0.44514 0.80622 0.62449
 N215 N 0.46530 0.81137 0.62975
 N216 N 0.48058 0.79600 0.63086
 C217 C 1.04060 0.79010 0.37621
 N218 N 1.03725 0.80880 0.36442
 N219 N 1.05200 0.82369 0.36402
 C220 C 1.07059 0.82064 0.37564
 N221 N 1.07377 0.80190 0.38755
 N222 N 1.05915 0.78688 0.38770
 C223 C 1.02442 0.77365 0.37654
 N224 N 1.02976 0.75275 0.38150
 N225 N 1.01508 0.73778 0.38172
 C226 C 0.99449 0.74324 0.37730
 N227 N 0.98912 0.76416 0.37248
 N228 N 1.00385 0.77907 0.37195
 C229 C 0.97829 0.72681 0.37782
 N230 N 0.95754 0.73266 0.38105
 N231 N 0.94286 0.71772 0.38181
 C232 C 0.94837 0.69641 0.37906
 N233 N 0.96910 0.69057 0.37566
 N234 N 0.98381 0.70549 0.37521
 C235 C 0.45877 0.20974 -0.12004
 N236 N 0.44943 0.20365 -0.09986
 N237 N 0.43475 0.18868 -0.10007
 C238 C 0.42900 0.17908 -0.12045
 N239 N 0.43845 0.18513 -0.14061
 N240 N 0.45298 0.20024 -0.14042
 C241 C 0.47485 0.22633 -0.11988
 N242 N 0.48072 0.23583 -0.14006
 N243 N 0.49527 0.25092 -0.13995
 C244 C 0.50463 0.25692 -0.11970
 N245 N 0.49883 0.24737 -0.09953
 N246 N 0.48413 0.23241 -0.09960
 C247 C 0.52079 0.27344 -0.11966
 N248 N 0.53351 0.27609 -0.10086
 N249 N 0.54831 0.29094 -0.10095
 C250 C 0.55077 0.30381 -0.11975
 N251 N 0.53798 0.30124 -0.13849
 N252 N 0.52332 0.28626 -0.13849
 C253 C 0.11200 -0.04906 0.29218
 N254 N 0.09393 -0.05852 0.29901
 N255 N 0.09447 -0.07379 0.31527
 C256 C 0.11306 -0.08002 0.32546
 N257 N 0.13107 -0.07040 0.31869
 N258 N 0.13056 -0.05528 0.30233
 C259 C 0.11169 -0.03267 0.27383
 N260 N 0.13010 -0.02657 0.26396
 N261 N 0.12998 -0.01191 0.24711
 C262 C 0.11147 -0.00267 0.23962
 N263 N 0.09303 -0.00868 0.24956
 N264 N 0.09313 -0.02349 0.26631
 C265 C 0.11154 0.01350 0.22105
 N266 N 0.09392 0.02591 0.21639
 N267 N 0.09424 0.04077 0.19972
 C268 C 0.11212 0.04360 0.18699
 N269 N 0.12967 0.03110 0.19157
 N270 N 0.12940 0.01639 0.20835
 C271 C 0.61672 0.54076 -0.29795
 N272 N 0.63428 0.54403 -0.31100
 N273 N 0.63478 0.56046 -0.32579
 C274 C 0.61785 0.57448 -0.32800
 N275 N 0.60025 0.57110 -0.31488
 N276 N 0.59966 0.55452 -0.30023
 C277 C 0.61656 0.52300 -0.28116
 N278 N 0.59812 0.51660 -0.27154
 N279 N 0.59818 0.50068 -0.25602
 C280 C 0.61670 0.49078 -0.24940
 N281 N 0.63510 0.49722 -0.25900
 N282 N 0.63502 0.51296 -0.27467
 C283 C 0.61699 0.47369 -0.23180
 N284 N 0.63536 0.46790 -0.22097
 N285 N 0.63573 0.45266 -0.20472
 C286 C 0.61779 0.44248 -0.19889
 N287 N 0.59942 0.44815 -0.20982
 N288 N 0.59901 0.46357 -0.22591
 C289 C 0.38228 1.05227 0.79029
 N290 N 0.36594 1.05433 0.80571
 N291 N 0.36592 1.06940 0.82253
 C292 C 0.38214 1.08321 0.82452
 N293 N 0.39845 1.08114 0.80891
 N294 N 0.39857 1.06592 0.79220
 C295 C 0.38219 1.03553 0.77186
 N296 N 0.40011 1.02993 0.75968
 N297 N 0.39993 1.01451 0.74319
 C298 C 0.38177 1.00432 0.73815
 N299 N 0.36385 1.01003 0.75025
 N300 N 0.36408 1.02527 0.76687
 C301 C 0.38138 0.98733 0.72002
 N302 N 0.36260 0.98056 0.71174
 N303 N 0.36207 0.96502 0.69546
 C304 C 0.38029 0.95553 0.68701
 N305 N 0.39910 0.96224 0.69531
 N306 N 0.39963 0.97795 0.71146
 C307 C 0.88773 0.46127 0.19948
 N308 N 0.86931 0.45683 0.18861
 N309 N 0.86870 0.44115 0.17250
 C310 C 0.88645 0.42919 0.16668
 N311 N 0.90491 0.43370 0.17754
 N312 N 0.90556 0.44949 0.19358
 C313 C 0.88803 0.47807 0.21782
 N314 N 0.90658 0.48456 0.22704
 N315 N 0.90661 0.49953 0.24402
 C316 C 0.88808 0.50840 0.25248
 N317 N 0.86958 0.50189 0.24324
 N318 N 0.86955 0.48706 0.22619
 C319 C 0.88784 0.52453 0.27155
 N320 N 0.86930 0.53046 0.28231
 N321 N 0.86886 0.54495 0.29971
 C322 C 0.88692 0.55417 0.30691
 N323 N 0.90550 0.54832 0.29612
 N324 N 0.90596 0.53368 0.27879
 C325 C 0.30219 0.13042 -0.03540
 N326 N 0.30689 0.11258 -0.04872
 N327 N 0.32205 0.11284 -0.06495
 C328 C 0.33322 0.13092 -0.06845
 N329 N 0.32858 0.14875 -0.05498
 N330 N 0.31331 0.14853 -0.03881
 C331 C 0.28516 0.13001 -0.01784
 N332 N 0.27801 0.14843 -0.00676
 N333 N 0.26219 0.14791 0.00874
 C334 C 0.25306 0.12894 0.01380
 N335 N 0.26031 0.11054 0.00281
 N336 N 0.27602 0.11108 -0.01276
 C337 C 0.23538 0.12817 0.03053
 N338 N 0.22798 0.10881 0.03711
 N339 N 0.21165 0.10789 0.05183
 C340 C 0.20203 0.12629 0.06044
 N341 N 0.20943 0.14569 0.05391
 N342 N 0.22586 0.14662 0.03925
 C343 C 0.70687 0.63534 0.54957
 N344 N 0.70145 0.61621 0.55888
 N345 N 0.68586 0.61546 0.57456
 C346 C 0.67495 0.63378 0.58146
 N347 N 0.68039 0.65295 0.57212
 N348 N 0.69612 0.65372 0.55654
 C349 C 0.72378 0.63588 0.53189
 N350 N 0.73180 0.65492 0.52507
 N351 N 0.74708 0.65520 0.50889
 C352 C 0.75471 0.63647 0.49884
 N353 N 0.74663 0.61748 0.50564
 N354 N 0.73150 0.61718 0.52192
 C355 C 0.77139 0.63655 0.48087
 N356 N 0.77612 0.61833 0.46815
 N357 N 0.79133 0.61813 0.45195
 C358 C 0.80249 0.63609 0.44795
 N359 N 0.79780 0.65434 0.46067
 N360 N 0.78245 0.65459 0.47679
 C361 C 0.79433 0.37013 0.04436
 N362 N 0.80095 0.38930 0.05292
 N363 N 0.81716 0.38989 0.06766
 C364 C 0.82752 0.37137 0.07429
 N365 N 0.82092 0.35217 0.06567
 N366 N 0.80456 0.35156 0.05105
 C367 C 0.77662 0.36968 0.02787
 N368 N 0.76719 0.35086 0.02246
 N369 N 0.75116 0.35062 0.00740
 C370 C 0.74411 0.36917 -0.00292
 N371 N 0.75358 0.38794 0.00245
 N372 N 0.76948 0.38821 0.01763
 C373 C 0.72667 0.36904 -0.01979
 N374 N 0.72269 0.38649 -0.03345
 N375 N 0.70697 0.38650 -0.04887
 C376 C 0.69454 0.36914 -0.05108
 N377 N 0.69844 0.35169 -0.03736
 N378 N 0.71430 0.35161 -0.02205
 C379 C 0.20032 0.86424 0.45553
 N380 N 0.19066 0.84572 0.44948
 N381 N 0.17528 0.84598 0.43360
 C382 C 0.16913 0.86472 0.42302
 N383 N 0.17893 0.88318 0.42902
 N384 N 0.19417 0.88296 0.44501
 C385 C 0.21694 0.86427 0.47337
 N386 N 0.22356 0.88329 0.48231
 N387 N 0.23856 0.88354 0.49856
 C388 C 0.24761 0.86477 0.50636
 N389 N 0.24106 0.84571 0.49738
 N390 N 0.22592 0.84546 0.48123
 C391 C 0.26430 0.86528 0.52411
 N392 N 0.27633 0.84727 0.52900
 N393 N 0.29180 0.84807 0.54473
 C394 C 0.29566 0.86685 0.55624
 N395 N 0.28352 0.88478 0.55146
 N396 N 0.26818 0.88403 0.53564
   
