data_POSCAR
  _audit_creation_date              2014-09-24
  _audit_creation_method            'ToBaCCo'
  _symmetry_space_group_name_H-M    'P1'
  _symmetry_Int_Tables_number       1
  _symmetry_cell_setting            triclinic
  loop_
  _symmetry_equiv_pos_as_xyz
 x,y,z
_cell_length_a 32.9313
_cell_length_b 22.5612
_cell_length_c 10.9456
_cell_angle_alpha 89.354800
_cell_angle_beta 90.222900
_cell_angle_gamma 89.961400
loop_
  _atom_site_label
  _atom_site_type_symbol
  _atom_site_fract_x
  _atom_site_fract_y
  _atom_site_fract_z
C1 C 0.71921 0.28330 0.55643
 C2 C 0.72028 0.28479 0.42689
 C3 C 0.74930 0.25174 0.36492
 C4 C 0.77718 0.21510 0.42692
 C5 C 0.77600 0.21184 0.55737
 C6 C 0.74727 0.24674 0.61920
 H7 H 0.74516 0.24295 0.71788
 H8 H 0.75083 0.25591 0.26612
 C9 C 0.21369 0.76928 0.55997
 C10 C 0.21693 0.77611 0.43225
 C11 C 0.24734 0.74574 0.36967
 C12 C 0.27524 0.70937 0.43204
 C13 C 0.27024 0.69850 0.56054
 C14 C 0.23961 0.72999 0.62206
 H15 H 0.23567 0.72415 0.71974
 H16 H 0.25051 0.75293 0.27204
 C17 C 0.27788 0.29093 -0.55932
 C18 C 0.27589 0.28770 -0.43043
 C19 C 0.24406 0.25677 -0.37528
 C20 C 0.21614 0.22390 -0.44455
 C21 C 0.21769 0.22714 -0.57557
 C22 C 0.24783 0.26333 -0.62950
 H23 H 0.24853 0.26960 -0.72780
 H24 H 0.24314 0.25443 -0.27623
 C25 C -0.21913 0.78158 -0.57353
 C26 C -0.22134 0.78317 -0.44559
 C27 C -0.25344 0.75460 -0.38557
 C28 C -0.28340 0.72341 -0.45095
 C29 C -0.27959 0.71874 -0.58097
 C30 C -0.24801 0.74994 -0.63944
 H31 H -0.24630 0.75111 -0.73840
 H32 H -0.25488 0.75636 -0.28666
 O33 O -0.05515 0.90006 0.21663
 O34 O -0.10127 0.95230 0.09994
 C35 C -0.09200 0.91219 0.18137
 O36 O 0.05536 1.12245 0.17940
 O37 O 0.10059 1.06211 0.08265
 C38 C 0.09219 1.10710 0.15143
 O39 O -0.05826 1.11337 0.19691
 O40 O -0.10192 1.05259 0.09572
 C41 C -0.09482 1.09586 0.16896
 O42 O 0.05887 0.90227 0.20996
 O43 O 0.10252 0.95614 0.09093
 C44 C 0.09527 0.91682 0.17521
 Zr45 Zr 0.00125 0.93362 0.15336
 O46 O 0.00447 0.94550 0.34491
 O47 O 0.00252 0.84105 0.18324
 Zr48 Zr -0.00077 1.08197 0.13709
 O49 O 0.00191 1.07476 0.32956
 O50 O -0.00336 1.17537 0.14883
 O51 O -0.03636 1.00732 0.17034
 O52 O 0.03630 1.00925 0.16581
 O53 O 0.05679 0.89389 -0.21212
 O54 O 0.10130 0.95137 -0.10556
 C55 C 0.09354 0.90926 -0.18149
 O56 O -0.05894 1.10522 -0.23902
 O57 O -0.10217 1.05082 -0.11800
 C58 C -0.09482 1.08933 -0.20372
 O59 O 0.05402 1.10984 -0.23635
 O60 O 0.09969 1.05451 -0.12435
 C61 C 0.09062 1.09439 -0.20602
 O62 O -0.05863 0.89787 -0.22065
 O63 O -0.10255 0.95059 -0.10295
 C64 C -0.09527 0.91238 -0.18700
 Zr65 Zr -0.00064 0.92696 -0.15692
 O66 O 0.00301 0.92380 -0.34981
 O67 O -0.00422 0.83327 -0.14988
 Zr68 Zr -0.00199 1.07624 -0.17221
 O69 O 0.00085 1.06950 -0.36492
 O70 O -0.00604 1.16980 -0.18371
 Zr71 Zr -0.06083 1.00302 -0.00752
 Zr72 Zr 0.05997 1.00564 -0.01209
 O73 O 0.03393 1.00173 -0.18777
 O74 O -0.03785 1.00046 -0.18691
 O75 O 0.03623 0.91897 -0.00194
 O76 O -0.03659 1.08919 -0.01757
 O77 O -0.03420 0.91812 0.00017
 O78 O 0.03455 1.09143 -0.02017
 H79 H 0.05565 1.01157 0.23520
 H80 H -0.05492 1.12398 -0.02084
 H81 H 0.05183 1.00024 -0.26008
 H82 H -0.05146 0.88223 0.00153
 H83 H -0.00794 1.19062 0.06497
 H84 H 0.01561 1.18618 -0.13099
 H85 H -0.02390 1.04867 -0.39269
 H86 H -0.02017 0.94677 -0.38328
 H87 H 0.01911 0.81878 -0.10073
 H88 H 0.00920 0.82313 0.10388
 H89 H -0.02209 0.96103 0.37208
 H90 H 0.00176 1.11593 0.36000
 O91 O 0.44947 0.40412 0.23396
 O92 O 0.40151 0.45271 0.12078
 C93 C 0.41208 0.41577 0.20739
 O94 O 0.55858 0.62142 0.17031
 O95 O 0.60248 0.56098 0.06972
 C96 C 0.59499 0.60576 0.13920
 O97 O 0.44648 0.61254 0.20480
 O98 O 0.40033 0.55273 0.11025
 C99 C 0.40973 0.59443 0.18671
 O100 O 0.56187 0.40211 0.20843
 O101 O 0.60377 0.45826 0.08681
 C102 C 0.59738 0.41824 0.17052
 Zr103 Zr 0.50424 0.43360 0.15519
 O104 O 0.51193 0.43909 0.34705
 O105 O 0.50392 0.33985 0.15961
 Zr106 Zr 0.50162 0.58291 0.13122
 O107 O 0.51084 0.58908 0.32189
 O108 O 0.49485 0.67615 0.11854
 O109 O 0.46716 0.50782 0.17369
 O110 O 0.53855 0.51017 0.16078
 O111 O 0.55613 0.38765 -0.20381
 O112 O 0.60106 0.45241 -0.11804
 C113 C 0.59300 0.40607 -0.18251
 O114 O 0.43727 0.59813 -0.23683
 O115 O 0.39569 0.54670 -0.10476
 C116 C 0.40180 0.58277 -0.19581
 O117 O 0.55181 0.61033 -0.23668
 O118 O 0.59934 0.55479 -0.13229
 C119 C 0.58912 0.59619 -0.20919
 O120 O 0.44095 0.38998 -0.20204
 O121 O 0.39711 0.44715 -0.09009
 C122 C 0.40469 0.40522 -0.16703
 Zr123 Zr 0.49898 0.42367 -0.15188
 O124 O 0.50008 0.42187 -0.34527
 O125 O 0.49756 0.33002 -0.14602
 Zr126 Zr 0.49610 0.57234 -0.17632
 O127 O 0.49820 0.55955 -0.36767
 O128 O 0.48989 0.66438 -0.20874
 Zr129 Zr 0.43960 0.50121 0.00037
 Zr130 Zr 0.56055 0.50538 -0.01869
 O131 O 0.53282 0.49856 -0.19159
 O132 O 0.46056 0.49598 -0.18156
 O133 O 0.53789 0.41848 -0.00169
 O134 O 0.46341 0.58742 -0.01840
 O135 O 0.46657 0.41667 0.00895
 O136 O 0.53448 0.59072 -0.02966
 H137 H 0.55819 0.51312 0.22926
 H138 H 0.44465 0.62177 -0.02019
 H139 H 0.55070 0.49700 -0.26413
 H140 H 0.44929 0.38096 0.01732
 H141 H 0.51623 0.69148 0.06341
 H142 H 0.50066 0.68427 -0.13558
 H143 H 0.47185 0.54254 -0.39312
 H144 H 0.47387 0.43798 -0.37524
 H145 H 0.51124 0.31776 -0.06916
 H146 H 0.50761 0.32776 0.24625
 H147 H 0.48778 0.45927 0.38049
 H148 H 0.49353 0.55855 0.36064
 C149 C 0.35268 0.29688 0.39114
 C150 C 0.31286 0.31923 0.37738
 C151 C 0.30642 0.37051 0.30752
 C152 C 0.33891 0.40035 0.25376
 C153 C 0.37943 0.38283 0.27554
 C154 C 0.38651 0.33162 0.35228
 C155 C 0.35937 0.24026 0.44346
 C156 C 0.39836 0.22120 0.47298
 C157 C 0.43116 0.25838 0.45185
 C158 C 0.42553 0.31291 0.39291
 H159 H 0.33437 0.21062 0.46309
 H160 H 0.40296 0.17829 0.51608
 H161 H 0.46127 0.24482 0.48084
 H162 H 0.45221 0.33986 0.38685
 H163 H 0.27593 0.38752 0.29421
 H164 H 0.33210 0.43887 0.19736
 C165 C -0.15206 0.78177 0.31596
 C166 C -0.18651 0.81245 0.35866
 C167 C -0.19115 0.87287 0.33196
 C168 C -0.16103 0.90401 0.26926
 C169 C -0.12522 0.87571 0.23347
 C170 C -0.12167 0.81323 0.24983
 C171 C -0.14746 0.72019 0.33644
 C172 C -0.11446 0.68978 0.28837
 C173 C -0.08588 0.71981 0.21794
 C174 C -0.08953 0.78072 0.19783
 H175 H -0.16940 0.69500 0.38886
 H176 H -0.11144 0.64251 0.30397
 H177 H -0.06091 0.69572 0.17781
 H178 H -0.06780 0.80137 0.13774
 H179 H -0.21810 0.89614 0.36141
 H180 H -0.16506 0.95109 0.25260
 C181 C 0.70200 0.65326 0.24398
 C182 C 0.69120 0.69005 0.34428
 C183 C 0.65002 0.70252 0.36306
 C184 C 0.62003 0.67682 0.29233
 C185 C 0.62948 0.63946 0.19463
 C186 C 0.67116 0.63136 0.16391
 C187 C 0.74252 0.63435 0.22578
 C188 C 0.75319 0.60183 0.12341
 C189 C 0.72391 0.58731 0.03722
 C190 C 0.68337 0.60195 0.05666
 H191 H 0.76628 0.64369 0.29116
 H192 H 0.78445 0.58865 0.10998
 H193 H 0.73255 0.56400 -0.04462
 H194 H 0.66243 0.59148 -0.01551
 H195 H 0.64058 0.73317 0.43288
 H196 H 0.58884 0.68604 0.31668
 C197 C 0.19838 1.16792 0.23867
 C198 C 0.18828 1.19897 0.34788
 C199 C 0.14703 1.20317 0.37921
 C200 C 0.11707 1.17393 0.31378
 C201 C 0.12605 1.14226 0.20763
 C202 C 0.16679 1.14345 0.16415
 C203 C 0.23914 1.15811 0.20345
 C204 C 0.24835 1.13541 0.08903
 C205 C 0.21733 1.11957 0.00959
 C206 C 0.17707 1.12226 0.04745
 H207 H 0.26438 1.16781 0.26325
 H208 H 0.27971 1.13039 0.06165
 H209 H 0.22450 1.10395 -0.08087
 H210 H 0.15433 1.10972 -0.01770
 H211 H 0.13752 1.22922 0.45648
 H212 H 0.08632 1.17605 0.34823
 C213 C 0.70039 0.35140 -0.27454
 C214 C 0.68989 0.31554 -0.37618
 C215 C 0.64868 0.30944 -0.40670
 C216 C 0.61849 0.33834 -0.34195
 C217 C 0.62758 0.37304 -0.23979
 C218 C 0.66915 0.37726 -0.20172
 C219 C 0.74144 0.36434 -0.24654
 C220 C 0.75178 0.39569 -0.14222
 C221 C 0.72165 0.41478 -0.06369
 C222 C 0.68094 0.40558 -0.09260
 H223 H 0.76600 0.35094 -0.30538
 H224 H 0.78336 0.40435 -0.12125
 H225 H 0.72980 0.43724 0.01981
 H226 H 0.65949 0.41938 -0.02582
 H227 H 0.63935 0.28072 -0.48017
 H228 H 0.58744 0.33326 -0.37309
 C229 C 0.19754 0.86081 -0.31669
 C230 C 0.18539 0.80626 -0.36793
 C231 C 0.14604 0.78576 -0.34932
 C232 C 0.11784 0.81973 -0.28719
 C233 C 0.12790 0.87529 -0.23782
 C234 C 0.16916 0.89541 -0.24849
 C235 C 0.23767 0.88150 -0.33266
 C236 C 0.25034 0.93433 -0.28089
 C237 C 0.22350 0.96750 -0.21225
 C238 C 0.18352 0.94877 -0.19615
 H239 H 0.25970 0.85694 -0.38498
 H240 H 0.28120 0.94955 -0.29382
 H241 H 0.23365 1.00849 -0.17206
 H242 H 0.16506 0.97794 -0.14341
 H243 H 0.13678 0.74329 -0.38526
 H244 H 0.08748 0.80182 -0.27812
 C245 C 0.31260 0.60693 -0.41325
 C246 C 0.29736 0.66191 -0.37007
 C247 C 0.31380 0.68423 -0.26051
 C248 C 0.34713 0.65726 -0.20405
 C249 C 0.36588 0.60829 -0.25659
 C250 C 0.34895 0.58290 -0.36233
 C251 C 0.29214 0.57460 -0.50428
 C252 C 0.30979 0.52427 -0.55452
 C253 C 0.34769 0.50492 -0.51367
 C254 C 0.36710 0.53356 -0.41793
 H255 H 0.26276 0.58877 -0.53840
 H256 H 0.29421 0.50074 -0.62635
 H257 H 0.36167 0.46635 -0.55271
 H258 H 0.39564 0.51548 -0.38528
 H259 H 0.30308 0.72551 -0.22270
 H260 H 0.35956 0.67644 -0.12163
 C261 C -0.18674 1.11643 -0.40677
 C262 C -0.19711 1.17533 -0.37287
 C263 C -0.17630 1.20069 -0.27366
 C264 C -0.14346 1.17176 -0.21893
 C265 C -0.12971 1.11761 -0.26363
 C266 C -0.15081 1.08990 -0.35937
 C267 C -0.21171 1.08269 -0.48450
 C268 C -0.19846 1.02828 -0.52876
 C269 C -0.16084 1.00572 -0.49271
 C270 C -0.13724 1.03585 -0.40803
 H271 H -0.24133 1.09871 -0.51238
 H272 H -0.21750 1.00364 -0.59084
 H273 H -0.15054 0.96335 -0.52511
 H274 H -0.10907 1.01554 -0.37808
 H275 H -0.18363 1.24489 -0.24293
 H276 H -0.12774 1.19276 -0.14380
 C277 C 0.65828 0.72457 -0.30574
 C278 C 0.68560 0.69408 -0.38412
 C279 C 0.68153 0.63250 -0.39636
 C280 C 0.65034 0.60146 -0.33868
 C281 C 0.62228 0.63087 -0.26540
 C282 C 0.62697 0.69233 -0.24439
 C283 C 0.65993 0.78674 -0.29122
 C284 C 0.63380 0.81545 -0.21129
 C285 C 0.60497 0.78329 -0.14596
 C286 C 0.60128 0.72241 -0.16265
 H287 H 0.68102 0.81397 -0.34195
 H288 H 0.63593 0.86296 -0.20002
 H289 H 0.58503 0.80573 -0.08310
 H290 H 0.57834 0.69922 -0.11033
 H291 H 0.70334 0.60817 -0.44960
 H292 H 0.64790 0.55407 -0.35209
 C293 C 0.18257 1.12644 -0.40646
 C294 C 0.18854 1.18740 -0.37970
 C295 C 0.16430 1.21378 -0.28984
 C296 C 0.13260 1.18281 -0.23551
 C297 C 0.12423 1.12448 -0.26831
 C298 C 0.14897 1.09567 -0.35475
 C299 C 0.21006 1.09477 -0.47982
 C300 C 0.20238 1.03616 -0.51100
 C301 C 0.16732 1.00797 -0.47038
 C302 C 0.14098 1.03707 -0.39160
 H303 H 0.23781 1.11493 -0.51275
 H304 H 0.22389 1.01255 -0.56632
 H305 H 0.16127 0.96266 -0.49643
 H306 H 0.11484 1.01299 -0.35845
 H307 H 0.16846 1.25987 -0.26600
 H308 H 0.11409 1.20480 -0.16798
 C309 C 0.33573 0.28073 -0.28208
 C310 C 0.30736 0.31508 -0.35092
 C311 C 0.30866 0.37694 -0.34376
 C312 C 0.33869 0.40499 -0.27558
 C313 C 0.36981 0.37245 -0.21898
 C314 C 0.36761 0.30968 -0.21738
 C315 C 0.33357 0.21818 -0.27751
 C316 C 0.36196 0.18510 -0.21102
 C317 C 0.39284 0.21341 -0.14729
 C318 C 0.39566 0.27504 -0.14972
 H319 H 0.31026 0.19411 -0.32582
 H320 H 0.35992 0.13722 -0.20873
 H321 H 0.41458 0.18748 -0.09493
 H322 H 0.41942 0.29513 -0.09596
 H323 H 0.28629 0.40372 -0.39185
 H324 H 0.33833 0.45270 -0.26985
 C325 C -0.20087 0.87332 -0.32519
 C326 C -0.19135 0.81733 -0.37371
 C327 C -0.15237 0.79416 -0.35850
 C328 C -0.12251 0.82582 -0.29733
 C329 C -0.13046 0.88170 -0.24679
 C330 C -0.17085 0.90557 -0.25840
 C331 C -0.23961 0.89861 -0.34586
 C332 C -0.24924 0.95414 -0.30121
 C333 C -0.22069 0.98545 -0.23497
 C334 C -0.18239 0.96140 -0.21155
 H335 H -0.26253 0.87648 -0.39954
 H336 H -0.27872 0.97347 -0.32013
 H337 H -0.22780 1.02983 -0.20583
 H338 H -0.16231 0.98935 -0.16157
 H339 H -0.14482 0.75129 -0.39585
 H340 H -0.09268 0.80589 -0.28923
 C341 C 0.35136 0.69722 0.40399
 C342 C 0.31122 0.68802 0.36211
 C343 C 0.30478 0.65230 0.25994
 C344 C 0.33693 0.62241 0.20551
 C345 C 0.37646 0.62516 0.25407
 C346 C 0.38338 0.66117 0.35906
 C347 C 0.35992 0.73989 0.49388
 C348 C 0.39793 0.74206 0.54965
 C349 C 0.42768 0.70145 0.51790
 C350 C 0.42049 0.66111 0.42470
 H351 H 0.33694 0.77083 0.52356
 H352 H 0.40381 0.77391 0.62076
 H353 H 0.45650 0.70110 0.56571
 H354 H 0.44372 0.62867 0.40983
 H355 H 0.27434 0.64565 0.22487
 H356 H 0.33050 0.59603 0.12566
 C357 C -0.20325 1.14769 0.25905
 C358 C -0.19289 1.18625 0.35635
 C359 C -0.15188 1.19524 0.38449
 C360 C -0.12143 1.16614 0.32154
 C361 C -0.13019 1.12775 0.22460
 C362 C -0.17194 1.12012 0.18917
 C363 C -0.24432 1.13247 0.23586
 C364 C -0.25476 1.09471 0.14186
 C365 C -0.22487 1.07210 0.06729
 C366 C -0.18418 1.08554 0.08800
 H367 H -0.26889 1.14790 0.29239
 H368 H -0.28626 1.08327 0.12624
 H369 H -0.23340 1.04331 -0.00627
 H370 H -0.16364 1.06886 0.02110
 H371 H -0.14319 1.22492 0.45724
 H372 H -0.09044 1.17366 0.35092
 C373 C 0.69309 0.38512 0.35716
 C374 C 0.69262 0.32244 0.35224
 C375 C 0.66389 0.29390 0.27903
 C376 C 0.63400 0.32616 0.21796
 C377 C 0.63239 0.38793 0.22667
 C378 C 0.66229 0.41815 0.29515
 C379 C 0.72325 0.41561 0.42338
 C380 C 0.72214 0.47716 0.43191
 C381 C 0.69119 0.50909 0.37470
 C382 C 0.66152 0.48022 0.30702
 H383 H 0.74781 0.39222 0.46877
 H384 H 0.74523 0.50015 0.48363
 H385 H 0.69001 0.55651 0.38239
 H386 H 0.63798 0.50697 0.26531
 H387 H 0.66357 0.24597 0.27354
 H388 H 0.61131 0.30260 0.16547
 C389 C 0.20040 0.86859 0.30573
 C390 C 0.18847 0.81460 0.36226
 C391 C 0.14852 0.79531 0.35116
 C392 C 0.11982 0.82929 0.28980
 C393 C 0.12967 0.88428 0.23564
 C394 C 0.17092 0.90435 0.24234
 C395 C 0.24112 0.88787 0.31208
 C396 C 0.25324 0.94001 0.25411
 C397 C 0.22484 0.97529 0.19386
 C398 C 0.18407 0.95880 0.19041
 H399 H 0.26404 0.86277 0.36121
 H400 H 0.28468 0.95384 0.25834
 H401 H 0.23438 1.01644 0.15176
 H402 H 0.16391 0.99015 0.14759
 H403 H 0.13938 0.75311 0.39042
 H404 H 0.08932 0.81156 0.28442
   
