data_POSCAR
  _audit_creation_date              2014-09-24
  _audit_creation_method            'ToBaCCo'
  _symmetry_space_group_name_H-M    'P1'
  _symmetry_Int_Tables_number       1
  _symmetry_cell_setting            triclinic
  loop_
  _symmetry_equiv_pos_as_xyz
 x,y,z
_cell_length_a 41.7821
_cell_length_b 41.7160
_cell_length_c 41.8793
_cell_angle_alpha 89.999900
_cell_angle_beta 90.089500
_cell_angle_gamma 89.899600
loop_
  _atom_site_label
  _atom_site_type_symbol
  _atom_site_fract_x
  _atom_site_fract_y
  _atom_site_fract_z
C1 C 0.32545 0.36689 1.37208
 N2 N 0.33750 0.38141 1.34565
 C3 C 0.36413 0.36968 1.33121
 N4 N 0.37872 0.34321 1.34328
 C5 C 0.36692 0.32847 1.36968
 N6 N 0.34025 0.34040 1.38399
 C7 C 1.16786 0.63143 0.86898
 N8 N 1.15347 0.65814 0.88078
 C9 C 1.12704 0.67056 0.86639
 N10 N 1.11498 0.65601 0.83995
 C11 C 1.12916 0.62924 0.82798
 N12 N 1.15560 0.61708 0.84253
 C13 C 0.67390 -0.13313 0.12816
 N14 N 0.65921 -0.15963 0.11630
 C15 C 0.63268 -0.17161 0.13075
 N16 N 0.62097 -0.15692 0.15724
 C17 C 0.63552 -0.13045 0.16926
 N18 N 0.66201 -0.11866 0.15468
 C19 C -0.16789 1.13142 -0.36980
 N20 N -0.15350 1.15803 -0.38174
 C21 C -0.12701 1.17036 -0.36745
 N22 N -0.11492 1.15585 -0.34099
 C23 C -0.12909 1.12920 -0.32890
 N24 N -0.15558 1.11711 -0.34334
 C25 C 0.66675 0.63115 0.63129
 N26 N 0.65250 0.65789 0.61940
 C27 C 0.62620 0.67048 0.63378
 N28 N 0.61418 0.65609 0.66029
 C29 C 0.62829 0.62930 0.67234
 N30 N 0.65461 0.61695 0.65781
 C31 C 0.82518 0.36639 0.12806
 N32 N 0.83734 0.38081 0.15453
 C33 C 0.86403 0.36902 0.16891
 N34 N 0.87857 0.34260 0.15673
 C35 C 0.86667 0.32796 0.13029
 N36 N 0.83994 0.33995 0.11604
 C37 C 0.33206 0.13053 0.86934
 N38 N 0.34649 0.15709 0.88136
 C39 C 0.37295 0.16938 0.86712
 N40 N 0.38498 0.15501 0.84063
 C41 C 0.37076 0.12840 0.82845
 N42 N 0.34429 0.11628 0.84283
 C43 C 0.17513 0.86717 0.37166
 N44 N 0.16034 0.84079 0.38367
 C45 C 0.13366 0.82893 0.36935
 N46 N 0.12183 0.84350 0.34284
 C47 C 0.13642 0.86985 0.33067
 N48 N 0.16305 0.88158 0.34511
 Zn49 Zn 0.04248 0.98106 0.00775
 Zn50 Zn 0.01080 1.03961 -0.01809
 Zn51 Zn -0.02156 0.97578 -0.02425
 Zn52 Zn -0.01545 1.00756 0.03971
 O53 O 0.00402 1.00095 0.00123
 O54 O 0.07574 1.00375 -0.00686
 O55 O -0.00859 1.04237 -0.05595
 O56 O -0.00236 0.93890 -0.03571
 O57 O 0.05222 1.04742 -0.02572
 O58 O 0.04480 0.94310 -0.01182
 O59 O -0.03282 0.99543 -0.06088
 O60 O -0.05322 0.98787 0.04232
 O61 O -0.00398 1.07285 0.00465
 O62 O -0.05830 0.96448 -0.00491
 O63 O -0.02355 1.04897 0.04757
 O64 O 0.00761 0.99307 0.07282
 O65 O 0.05059 0.97327 0.04903
 C66 C 0.07718 1.03090 -0.02043
 C67 C -0.02600 1.02307 -0.07160
 C68 C 0.02519 0.92776 -0.02919
 C69 C -0.06893 0.97077 0.02279
 C70 C -0.01808 1.07410 0.03143
 C71 C 0.03457 0.97909 0.07409
 Zn72 Zn 0.48440 0.00768 0.45985
 Zn73 Zn 0.47830 -0.02414 0.52375
 Zn74 Zn 0.54236 -0.01882 0.49198
 Zn75 Zn 0.51065 0.03968 0.51778
 O76 O 0.50388 0.00105 0.49839
 O77 O 0.44661 -0.01200 0.45710
 O78 O 0.49751 -0.06100 0.53525
 O79 O 0.55043 -0.02663 0.45071
 O80 O 0.44157 -0.03545 0.50429
 O81 O 0.50745 -0.00681 0.42681
 O82 O 0.54470 -0.05678 0.51158
 O83 O 0.55206 0.04753 0.52550
 O84 O 0.46702 -0.00454 0.56034
 O85 O 0.57563 0.00392 0.50663
 O86 O 0.49126 0.04240 0.55559
 O87 O 0.49587 0.07293 0.49501
 O88 O 0.47633 0.04911 0.45198
 C89 C 0.43092 -0.02914 0.47657
 C90 C 0.52508 -0.07212 0.52885
 C91 C 0.53440 -0.02081 0.42562
 C92 C 0.57705 0.03106 0.52021
 C93 C 0.47383 0.02308 0.57114
 C94 C 0.48181 0.07421 0.46817
 Zn95 Zn 1.01574 0.50697 0.45970
 Zn96 Zn 1.02187 0.47512 0.52366
 Zn97 Zn 0.98937 0.53900 0.51752
 Zn98 Zn 0.95784 0.48055 0.49157
 O99 O 0.99626 0.50035 0.49816
 O100 O 1.05358 0.48726 0.45713
 O101 O 1.03306 0.49473 0.56033
 O102 O 1.00406 0.57223 0.49480
 O103 O 1.05866 0.46380 0.50433
 O104 O 1.02373 0.54839 0.45187
 O105 O 1.00875 0.54171 0.55537
 O106 O 0.92451 0.50326 0.50618
 O107 O 1.00271 0.43824 0.53504
 O108 O 0.94794 0.54685 0.52516
 O109 O 0.95559 0.44259 0.51107
 O110 O 0.94979 0.47281 0.45027
 O111 O 0.99278 0.49251 0.42654
 C112 C 1.06931 0.47013 0.47665
 C113 C 1.02619 0.52239 0.57104
 C114 C 1.01817 0.57350 0.46804
 C115 C 0.92301 0.53038 0.51982
 C116 C 0.97518 0.42718 0.52844
 C117 C 0.96584 0.47857 0.42524
 Zn118 Zn 0.48906 0.53994 0.98302
 Zn119 Zn 0.45752 0.48148 1.00883
 Zn120 Zn 0.52151 0.47607 0.97688
 Zn121 Zn 0.51551 0.50781 1.04085
 O122 O 0.49595 0.50127 1.00235
 O123 O 0.44763 0.54781 0.97529
 O124 O 0.45524 0.44352 0.98931
 O125 O 0.53267 0.49570 0.94026
 O126 O 0.42419 0.50422 0.99414
 O127 O 0.50840 0.54270 0.94520
 O128 O 0.50234 0.43923 0.96543
 O129 O 0.55333 0.48803 1.04349
 O130 O 0.44950 0.47373 1.05011
 O131 O 0.55831 0.46468 0.99624
 O132 O 0.49254 0.49335 1.07395
 O133 O 0.52353 0.54921 1.04874
 O134 O 0.50378 0.57312 1.00582
 C135 C 0.42269 0.53135 0.98054
 C136 C 0.47483 0.42813 0.97197
 C137 C 0.52581 0.52337 0.92956
 C138 C 0.56901 0.47091 1.02395
 C139 C 0.46558 0.47947 1.07518
 C140 C 0.51794 0.57435 1.03260
 N141 N 1.25566 0.41569 0.38731
 C142 C 1.24294 0.40089 0.41314
 N143 N 1.25800 0.37487 0.42551
 N144 N 1.28494 0.36397 0.41237
 C145 C 1.29772 0.37868 0.38637
 N146 N 1.28257 0.40481 0.37417
 C147 C 1.21336 0.41216 0.42645
 C148 C 1.18821 0.42203 0.43659
 C149 C 1.15797 0.43432 0.44728
 N150 N 1.14671 0.42742 0.47687
 N151 N 1.11844 0.43882 0.48639
 C152 C 1.10054 0.45748 0.46661
 N153 N 1.11194 0.46430 0.43705
 N154 N 1.14015 0.45292 0.42756
 N155 N 0.23497 0.62301 0.92284
 C156 C 0.24992 0.59687 0.91067
 N157 N 0.23722 0.58205 0.88479
 N158 N 0.21043 0.59309 0.87141
 C159 C 0.19542 0.61937 0.88343
 N160 N 0.20818 0.63406 0.90947
 C161 C 0.27933 0.58559 0.92441
 C162 C 0.30430 0.57628 0.93552
 C163 C 0.33433 0.56530 0.94813
 N164 N 0.33635 0.53678 0.96354
 N165 N 0.36447 0.52614 0.97429
 C166 C 0.39149 0.54367 0.96998
 N167 N 0.38934 0.57228 0.95464
 N168 N 0.36122 0.58291 0.94390
 N169 N -0.25719 0.87537 0.07399
 C170 C -0.24229 0.90148 0.08627
 N171 N -0.25513 0.91637 0.11202
 N172 N -0.28200 0.90548 0.12517
 C173 C -0.29696 0.87931 0.11302
 N174 N -0.28410 0.86448 0.08714
 C175 C -0.21275 0.91275 0.07297
 C176 C -0.18763 0.92262 0.06284
 C177 C -0.15744 0.93493 0.05216
 N178 N -0.13967 0.95349 0.07191
 N179 N -0.11151 0.96488 0.06242
 C180 C -0.10011 0.95812 0.03283
 N181 N -0.11796 0.93951 0.01303
 N182 N -0.14618 0.92809 0.02255
 N183 N 0.76271 0.08222 0.61483
 C184 C 0.74991 0.09697 0.58894
 N185 N 0.76479 0.12301 0.57661
 N186 N 0.79164 0.13403 0.58983
 C187 C 0.80450 0.11941 0.61588
 N188 N 0.78955 0.09323 0.62807
 C189 C 0.72046 0.08569 0.57536
 C190 C 0.69546 0.07633 0.56443
 C191 C 0.66542 0.06525 0.55205
 N192 N 0.63844 0.08281 0.55641
 N193 N 0.61032 0.07209 0.54588
 C194 C 0.60824 0.04344 0.53063
 N195 N 0.63532 0.02595 0.52620
 N196 N 0.66345 0.03668 0.53674
 N197 N 0.42163 0.26180 0.37770
 C198 C 0.40955 0.24651 0.40356
 N199 N 0.38340 0.25880 0.41831
 N200 N 0.36970 0.28556 0.40748
 C201 C 0.38165 0.30091 0.38149
 N202 N 0.40794 0.28854 0.36687
 C203 C 0.42369 0.21718 0.41463
 C204 C 0.43517 0.19228 0.42377
 C205 C 0.44824 0.16235 0.43457
 N206 N 0.44387 0.13530 0.41718
 N207 N 0.45501 0.10726 0.42767
 C208 C 0.47092 0.10535 0.45591
 N209 N 0.47538 0.13252 0.47322
 N210 N 0.46423 0.16056 0.46272
 N211 N 0.88749 0.23997 0.58346
 C212 C 0.91333 0.25305 0.59806
 N213 N 0.92597 0.23826 0.62403
 N214 N 0.91308 0.21124 0.63508
 C215 C 0.88707 0.19813 0.62058
 N216 N 0.87460 0.21299 0.59450
 C217 C 0.92633 0.28273 0.58665
 C218 C 0.93622 0.30795 0.57668
 C219 C 0.94663 0.33826 0.56430
 N220 N 0.97605 0.35001 0.57144
 N221 N 0.98531 0.37836 0.56000
 C222 C 0.96542 0.39585 0.54108
 N223 N 0.93602 0.38396 0.53401
 N224 N 0.92679 0.35567 0.54542
 N225 N 0.07418 0.73878 -0.12527
 C226 C 0.08681 0.75352 -0.09929
 N227 N 0.11260 0.74031 -0.08464
 N228 N 0.12544 0.71325 -0.09564
 C229 C 0.11298 0.69843 -0.12173
 N230 N 0.08703 0.71168 -0.13628
 C231 C 0.07385 0.78326 -0.08788
 C232 C 0.06402 0.80852 -0.07787
 C233 C 0.05366 0.83885 -0.06539
 N234 N 0.02422 0.85072 -0.07240
 N235 N 0.01500 0.87907 -0.06085
 C236 C 0.03494 0.89644 -0.04194
 N237 N 0.06436 0.88443 -0.03500
 N238 N 0.07356 0.85614 -0.04653
 N239 N 0.61617 0.75878 1.08214
 C240 C 0.59016 0.74646 1.09703
 N241 N 0.57819 0.76171 1.12298
 N242 N 0.59185 0.78845 1.13376
 C243 C 0.61800 0.80084 1.11899
 N244 N 0.62984 0.78552 1.09291
 C245 C 0.57604 0.71716 1.08600
 C246 C 0.56457 0.69228 1.07690
 C247 C 0.55150 0.66239 1.06614
 N248 N 0.53539 0.66066 1.03807
 N249 N 0.52423 0.63265 1.02760
 C250 C 0.52881 0.60545 1.04486
 N251 N 0.54484 0.60731 1.07303
 N252 N 0.55599 0.63532 1.08350
 N253 N 0.37247 0.42406 1.26242
 C254 C 0.39862 0.41185 1.24760
 N255 N 0.41363 0.38605 1.26045
 N256 N 0.40279 0.37280 1.28727
 C257 C 0.37656 0.38490 1.30215
 N258 N 0.36162 0.41081 1.28926
 C259 C 0.40981 0.42543 1.21819
 C260 C 0.41925 0.43626 1.19324
 C261 C 0.43055 0.44843 1.16327
 N262 N 0.45896 0.46398 1.16149
 N263 N 0.46997 0.47425 1.13345
 C264 C 0.45293 0.46927 1.10625
 N265 N 0.42444 0.45377 1.10814
 N266 N 0.41344 0.44352 1.13618
 N267 N 0.58636 -0.11423 0.24033
 C268 C 0.60132 -0.08843 0.25312
 N269 N 0.62733 -0.07617 0.23817
 N270 N 0.63809 -0.08938 0.21126
 C271 C 0.62320 -0.11529 0.19843
 N272 N 0.59711 -0.12744 0.21344
 C273 C 0.59021 -0.07487 0.28258
 C274 C 0.58080 -0.06405 0.30756
 C275 C 0.56949 -0.05188 0.33754
 N276 N 0.54111 -0.03618 0.33931
 N277 N 0.53009 -0.02591 0.36735
 C278 C 0.54708 -0.03102 0.39456
 N279 N 0.57555 -0.04666 0.39268
 N280 N 0.58656 -0.05693 0.36464
 N281 N -0.12006 1.07499 -0.26000
 C282 C -0.09408 1.08746 -0.24512
 N283 N -0.07939 1.11338 -0.25796
 N284 N -0.09037 1.12649 -0.28485
 C285 C -0.11644 1.11413 -0.29979
 N286 N -0.13105 1.08810 -0.28691
 C287 C -0.08278 1.07418 -0.21557
 C288 C -0.07303 1.06394 -0.19045
 C289 C -0.06097 1.05304 -0.16024
 N290 N -0.04211 1.07252 -0.14248
 N291 N -0.03101 1.06284 -0.11428
 C292 C -0.03838 1.03332 -0.10281
 N293 N -0.05729 1.01379 -0.12064
 N294 N -0.06842 1.02351 -0.14891
 N295 N 1.12018 0.57473 0.75934
 C296 C 1.09423 0.58724 0.74434
 N297 N 1.07955 0.61330 0.75703
 N298 N 1.09051 0.62650 0.78386
 C299 C 1.11654 0.61410 0.79891
 N300 N 1.13114 0.58793 0.78619
 C301 C 1.08295 0.57383 0.71485
 C302 C 1.07320 0.56350 0.68978
 C303 C 1.06113 0.55251 0.65961
 N304 N 1.04220 0.57196 0.64183
 N305 N 1.03110 0.56222 0.61365
 C306 C 1.03855 0.53268 0.60224
 N307 N 1.05754 0.51317 0.62010
 N308 N 1.06866 0.52295 0.64834
 N309 N 0.73755 0.58107 0.61505
 C310 C 0.75022 0.59581 0.58914
 N311 N 0.73525 0.62190 0.57685
 N312 N 0.70845 0.63297 0.59011
 C313 C 0.69574 0.61833 0.61612
 N314 N 0.71075 0.59214 0.62832
 C315 C 0.77964 0.58452 0.57552
 C316 C 0.80461 0.57521 0.56451
 C317 C 0.83464 0.56424 0.55200
 N318 N 0.86153 0.58186 0.55634
 N319 N 0.88965 0.57126 0.54567
 C320 C 0.89181 0.54268 0.53030
 N321 N 0.86480 0.52514 0.52588
 N322 N 0.83668 0.53575 0.53656
 N323 N 0.75542 0.41538 1.11313
 C324 C 0.74256 0.40072 1.08725
 N325 N 0.75751 0.37473 1.07475
 N326 N 0.78449 0.36371 1.08781
 C327 C 0.79740 0.37827 1.11385
 N328 N 0.78236 0.40437 1.12619
 C329 C 0.71296 0.41215 1.07401
 C330 C 0.68781 0.42217 1.06393
 C331 C 0.65759 0.43464 1.05327
 N332 N 0.64623 0.42790 1.02366
 N333 N 0.61799 0.43947 1.01415
 C334 C 0.60022 0.45813 1.03398
 N335 N 0.61172 0.46480 1.06358
 N336 N 0.63990 0.45326 1.07306
 N337 N 0.26491 1.12213 -0.07709
 C338 C 0.24993 1.09615 -0.08947
 N339 N 0.26260 1.08143 -0.11541
 N340 N 0.28942 1.09241 -0.12862
 C341 C 0.30447 1.11853 -0.11638
 N342 N 0.29174 1.13312 -0.09029
 C343 C 0.22050 1.08494 -0.07590
 C344 C 0.19552 1.07567 -0.06493
 C345 C 0.16550 1.06472 -0.05247
 N346 N 0.16351 1.03619 -0.03709
 N347 N 0.13541 1.02559 -0.02647
 C348 C 0.10836 1.04318 -0.03087
 N349 N 0.11047 1.07180 -0.04617
 N350 N 0.13858 1.08239 -0.05679
 N351 N 0.24261 -0.12466 0.42519
 C352 C 0.25761 -0.09875 0.41270
 N353 N 0.24485 -0.08408 0.38675
 N354 N 0.21795 -0.09501 0.37361
 C355 C 0.20286 -0.12104 0.38594
 N356 N 0.21567 -0.13561 0.41205
 C357 C 0.28716 -0.08741 0.42604
 C358 C 0.31227 -0.07748 0.43620
 C359 C 0.34245 -0.06511 0.44696
 N360 N 0.36017 -0.04650 0.42726
 N361 N 0.38831 -0.03505 0.43683
 C362 C 0.39975 -0.04183 0.46643
 N363 N 0.38195 -0.06049 0.48618
 N364 N 0.35375 -0.07195 0.47658
 N365 N 0.57368 -0.26104 0.62529
 C366 C 0.58629 -0.24646 0.59925
 N367 N 0.61193 -0.25985 0.58461
 N368 N 0.62467 -0.28695 0.59568
 C369 C 0.61224 -0.30162 0.62183
 N370 N 0.58642 -0.28818 0.63637
 C371 C 0.57344 -0.21667 0.58777
 C372 C 0.56370 -0.19140 0.57770
 C373 C 0.55342 -0.16105 0.56519
 N374 N 0.52397 -0.14916 0.57204
 N375 N 0.51480 -0.12081 0.56044
 C376 C 0.53480 -0.10344 0.54165
 N377 N 0.56423 -0.11546 0.53487
 N378 N 0.57337 -0.14377 0.54644
 N379 N 1.07828 0.76094 0.37794
 C380 C 1.09040 0.74563 0.40383
 N381 N 1.11655 0.75788 0.41864
 N382 N 1.13020 0.78461 0.40784
 C383 C 1.11817 0.79996 0.38185
 N384 N 1.09192 0.78766 0.36714
 C385 C 1.07630 0.71633 0.41488
 C386 C 1.06483 0.69147 0.42396
 C387 C 1.05176 0.66157 0.43467
 N388 N 1.05618 0.63451 0.41728
 N389 N 1.04502 0.60651 0.42769
 C390 C 1.02904 0.60462 0.45584
 N391 N 1.02453 0.63179 0.47314
 N392 N 1.03570 0.65981 0.46273
 N393 N -0.07857 1.26138 0.12200
 C394 C -0.09072 1.24617 0.09609
 N395 N -0.11694 1.25848 0.08140
 N396 N -0.13064 1.28518 0.09232
 C397 C -0.11862 1.30046 0.11836
 N398 N -0.09226 1.28807 0.13293
 C399 C -0.07656 1.21689 0.08493
 C400 C -0.06504 1.19203 0.07575
 C401 C -0.05191 1.16214 0.06496
 N402 N -0.03588 1.16041 0.03688
 N403 N -0.02464 1.13241 0.02640
 C404 C -0.02904 1.10521 0.04367
 N405 N -0.04499 1.10707 0.07185
 N406 N -0.05622 1.13506 0.08231
 N407 N 0.42620 0.23915 0.87618
 C408 C 0.41366 0.25374 0.90227
 N409 N 0.38807 0.24040 0.91699
 N410 N 0.37533 0.21333 0.90594
 C411 C 0.38774 0.19868 0.87978
 N412 N 0.41345 0.21205 0.86512
 C413 C 0.42649 0.28351 0.91368
 C414 C 0.43624 0.30878 0.92365
 C415 C 0.44653 0.33915 0.93603
 N416 N 0.42663 0.35651 0.95483
 N417 N 0.43577 0.38483 0.96626
 C418 C 0.46513 0.39680 0.95929
 N419 N 0.48508 0.37936 0.94045
 N420 N 0.47591 0.35098 0.92899
 N421 N 0.61934 0.57509 0.74120
 C422 C 0.59352 0.58779 0.75618
 N423 N 0.57893 0.61388 0.74342
 N424 N 0.58983 0.62692 0.71653
 C425 C 0.61573 0.61433 0.70149
 N426 N 0.63025 0.58814 0.71429
 C427 C 0.58229 0.57453 0.78572
 C428 C 0.57260 0.56430 0.81082
 C429 C 0.56061 0.55338 0.84101
 N430 N 0.54176 0.57289 0.85876
 N431 N 0.53071 0.56319 0.88694
 C432 C 0.53813 0.53364 0.89838
 N433 N 0.55703 0.51408 0.88054
 N434 N 0.56810 0.52381 0.85230
 N435 N 0.37966 0.07444 0.75937
 C436 C 0.40564 0.08695 0.74458
 N437 N 0.42035 0.11281 0.75755
 N438 N 0.40941 0.12583 0.78445
 C439 C 0.38335 0.11343 0.79930
 N440 N 0.36871 0.08746 0.78630
 C441 C 0.41691 0.07376 0.71502
 C442 C 0.42668 0.06362 0.68989
 C443 C 0.43875 0.05281 0.65970
 N444 N 0.45762 0.07236 0.64207
 N445 N 0.46876 0.06275 0.61388
 C446 C 0.46141 0.03326 0.60231
 N447 N 0.44250 0.01367 0.62002
 N448 N 0.43134 0.02330 0.64827
 N449 N 0.12803 0.92390 0.26158
 C450 C 0.10187 0.91171 0.24675
 N451 N 0.08688 0.88602 0.25969
 N452 N 0.09774 0.87287 0.28660
 C453 C 0.12397 0.88495 0.30149
 N454 N 0.13890 0.91075 0.28851
 C455 C 0.09065 0.92520 0.21727
 C456 C 0.08117 0.93597 0.19227
 C457 C 0.06979 0.94809 0.16226
 N458 N 0.08683 0.94305 0.13519
 N459 N 0.07578 0.95329 0.10712
 C460 C 0.04728 0.96889 0.10518
 N461 N 0.03032 0.97399 0.13235
 N462 N 0.04138 0.96375 0.16043
 N463 N 0.87259 0.42321 0.23784
 C464 C 0.89878 0.41097 0.25264
 N465 N 0.91375 0.38520 0.23973
 N466 N 0.90283 0.37202 0.21287
 C467 C 0.87656 0.38416 0.19802
 N468 N 0.86166 0.41003 0.21097
 C469 C 0.91004 0.42448 0.28208
 C470 C 0.91951 0.43528 0.30706
 C471 C 0.93083 0.44745 0.33707
 N472 N 0.95921 0.46306 0.33891
 N473 N 0.97021 0.47335 0.36698
 C474 C 0.95320 0.46835 0.39414
 N475 N 0.92473 0.45279 0.39218
 N476 N 0.91375 0.44251 0.36411
   
