data_POSCAR
  _audit_creation_date              2014-09-24
  _audit_creation_method            'ToBaCCo'
  _symmetry_space_group_name_H-M    'P1'
  _symmetry_Int_Tables_number       1
  _symmetry_cell_setting            triclinic
  loop_
  _symmetry_equiv_pos_as_xyz
 x,y,z
_cell_length_a 22.3050
_cell_length_b 37.6952
_cell_length_c 28.8103
_cell_angle_alpha 90.052800
_cell_angle_beta 89.888300
_cell_angle_gamma 89.640500
loop_
  _atom_site_label
  _atom_site_type_symbol
  _atom_site_fract_x
  _atom_site_fract_y
  _atom_site_fract_z
B1 B -0.04226 -0.02509 0.02517
 B2 B 0.02927 -0.02283 0.04296
 B3 B 0.01411 -0.03590 -0.01166
 B4 B -0.04593 -0.01263 -0.03083
 B5 B -0.06671 0.01567 0.01267
 B6 B -0.01937 0.00903 0.05827
 B7 B 0.04726 0.03276 -0.01419
 B8 B -0.02463 0.02989 -0.03221
 B9 B -0.00887 0.04320 0.02253
 B10 B 0.05132 0.01992 0.04166
 B11 B 0.07220 -0.00832 -0.00152
 B12 B 0.02518 -0.00166 -0.04761
 B13 B 0.54547 0.48796 0.54605
 B14 B 0.47311 0.48185 0.53120
 B15 B 0.49819 0.52269 0.54730
 B16 B 0.56878 0.52730 0.52649
 B17 B 0.58638 0.48958 0.49691
 B18 B 0.52740 0.46186 0.50008
 B19 B 0.49098 0.52114 0.45366
 B20 B 0.56371 0.52541 0.46814
 B21 B 0.53741 0.48577 0.45227
 B22 B 0.46717 0.48117 0.47310
 B23 B 0.44940 0.51888 0.50271
 B24 B 0.50973 0.54672 0.49901
 B25 B 0.54771 0.03237 0.51904
 B26 B 0.47655 0.02708 0.53727
 B27 B 0.49029 0.03831 0.48167
 B28 B 0.55348 0.01736 0.46387
 B29 B 0.57795 -0.00743 0.50927
 B30 B 0.52992 -0.00136 0.55497
 B31 B 0.46760 -0.03177 0.48469
 B32 B 0.53855 -0.02616 0.46609
 B33 B 0.52462 -0.03750 0.52163
 B34 B 0.46147 -0.01665 0.53939
 B35 B 0.43672 0.00839 0.49422
 B36 B 0.48431 0.00192 0.44839
 B37 B -0.00194 0.52090 0.03411
 B38 B 0.07196 0.52461 0.02359
 B39 B 0.04290 0.48445 0.03443
 B40 B -0.02566 0.48247 0.01011
 B41 B -0.03918 0.52192 -0.01677
 B42 B 0.02181 0.54833 -0.00807
 B43 B 0.05882 0.49145 -0.05831
 B44 B -0.01510 0.48606 -0.04735
 B45 B 0.01342 0.52680 -0.05861
 B46 B 0.08225 0.52917 -0.03403
 B47 B 0.09566 0.48973 -0.00727
 B48 B 0.03564 0.46331 -0.01610
 B49 B 0.03038 0.46909 0.47869
 B50 B -0.04224 0.47106 0.46344
 B51 B -0.02350 0.45944 0.51779
 B52 B 0.03688 0.48319 0.53418
 B53 B 0.05495 0.51030 0.48919
 B54 B 0.00540 0.50263 0.44509
 B55 B -0.05856 0.52788 0.51868
 B56 B 0.01396 0.52596 0.53459
 B57 B -0.00421 0.53760 0.47987
 B58 B -0.06482 0.51381 0.46345
 B59 B -0.08282 0.48668 0.50851
 B60 B -0.03352 0.49442 0.55267
 B61 B 0.47711 -0.02154 -0.05307
 B62 B 0.54725 -0.01860 -0.03190
 B63 B 0.51214 0.01808 -0.05127
 B64 B 0.43828 0.01520 -0.03729
 B65 B 0.42847 -0.02381 -0.00837
 B66 B 0.49652 -0.04473 -0.00535
 B67 B 0.50498 0.01744 0.04231
 B68 B 0.43490 0.01458 0.02133
 B69 B 0.47040 -0.02223 0.04053
 B70 B 0.54390 -0.01916 0.02656
 B71 B 0.55359 0.01973 -0.00212
 B72 B 0.48571 0.04064 -0.00554
 B73 B 0.43866 0.53353 -0.00829
 B74 B 0.51130 0.53127 -0.02481
 B75 B 0.49258 0.54160 0.03080
 B76 B 0.43184 0.51752 0.04607
 B77 B 0.41352 0.49196 -0.00016
 B78 B 0.46259 0.50083 -0.04430
 B79 B 0.52691 0.47304 0.02800
 B80 B 0.45428 0.47473 0.04393
 B81 B 0.47218 0.46459 -0.01138
 B82 B 0.53302 0.48851 -0.02674
 B83 B 0.55128 0.51444 0.01977
 B84 B 0.50183 0.50549 0.06351
 B85 B 0.01594 0.01522 0.44985
 B86 B -0.05517 0.01408 0.46907
 B87 B -0.02056 -0.02371 0.45249
 B88 B 0.05225 -0.02167 0.46837
 B89 B 0.06243 0.01792 0.49545
 B90 B -0.00447 0.04015 0.49592
 B91 B -0.01875 -0.02055 0.54623
 B92 B 0.05262 -0.01938 0.52689
 B93 B 0.01839 0.01853 0.54346
 B94 B -0.05471 0.01643 0.52762
 B95 B -0.06496 -0.02320 0.50030
 B96 B 0.00192 -0.04548 0.50007
 B97 B 0.76220 0.27607 0.27122
 B98 B 0.68848 0.27081 0.28230
 B99 B 0.71195 0.27857 0.22756
 B100 B 0.77813 0.25757 0.21954
 B101 B 0.79528 0.23598 0.26990
 B102 B 0.73928 0.24442 0.30893
 B103 B 0.69039 0.20842 0.23677
 B104 B 0.76396 0.21414 0.22516
 B105 B 0.74098 0.20586 0.27970
 B106 B 0.67423 0.22709 0.28850
 B107 B 0.65708 0.24863 0.23794
 B108 B 0.71294 0.23996 0.19917
 B109 B 0.73996 0.78623 0.78529
 B110 B 0.70698 0.78039 0.73340
 B111 B 0.78118 0.78835 0.73639
 B112 B 0.80925 0.76733 0.78360
 B113 B 0.75112 0.74627 0.80995
 B114 B 0.68724 0.75467 0.77879
 B115 B 0.76493 0.71838 0.72236
 B116 B 0.79838 0.72349 0.77406
 B117 B 0.72407 0.71609 0.77211
 B118 B 0.69631 0.73677 0.72475
 B119 B 0.75442 0.75827 0.69840
 B120 B 0.81809 0.74988 0.72947
 B121 B 0.27462 0.21745 0.73300
 B122 B 0.20272 0.22646 0.71919
 B123 B 0.22218 0.21913 0.77482
 B124 B 0.29041 0.23647 0.78438
 B125 B 0.31328 0.25573 0.73404
 B126 B 0.25901 0.24901 0.69304
 B127 B 0.21118 0.28967 0.76253
 B128 B 0.28274 0.28054 0.77670
 B129 B 0.26401 0.28817 0.72086
 B130 B 0.19529 0.27060 0.71076
 B131 B 0.17243 0.25184 0.76167
 B132 B 0.22713 0.25795 0.80229
 B133 B 0.21633 0.78439 0.24249
 B134 B 0.29022 0.77782 0.23389
 B135 B 0.26450 0.78449 0.28788
 B136 B 0.19646 0.76541 0.29290
 B137 B 0.18130 0.74519 0.24107
 B138 B 0.24031 0.75317 0.20454
 B139 B 0.28203 0.71431 0.27733
 B140 B 0.20812 0.72184 0.28619
 B141 B 0.23500 0.71410 0.23239
 B142 B 0.30273 0.73372 0.22670
 B143 B 0.31805 0.75326 0.27835
 B144 B 0.25958 0.74578 0.31527
 B145 B 0.25857 0.71618 0.77783
 B146 B 0.27929 0.72013 0.72196
 B147 B 0.20590 0.71700 0.73531
 B148 B 0.19387 0.73846 0.78611
 B149 B 0.26130 0.75599 0.80307
 B150 B 0.31404 0.74456 0.76292
 B151 B 0.22989 0.78605 0.72024
 B152 B 0.20962 0.78124 0.77658
 B153 B 0.28239 0.78528 0.76158
 B154 B 0.29515 0.76338 0.71135
 B155 B 0.22865 0.74619 0.69430
 B156 B 0.17490 0.75765 0.73460
 B157 B 0.19782 0.20663 0.25808
 B158 B 0.27071 0.21153 0.27182
 B159 B 0.24888 0.20839 0.21568
 B160 B 0.18236 0.23027 0.20960
 B161 B 0.16381 0.24671 0.26272
 B162 B 0.21828 0.23454 0.30122
 B163 B 0.26973 0.27714 0.23558
 B164 B 0.19653 0.27336 0.22287
 B165 B 0.21798 0.27538 0.27892
 B166 B 0.28405 0.25408 0.28436
 B167 B 0.30257 0.23726 0.23109
 B168 B 0.24752 0.24924 0.19271
 B169 B 0.79180 0.71133 0.22121
 B170 B 0.71701 0.71932 0.22174
 B171 B 0.75414 0.71011 0.27120
 B172 B 0.82255 0.72942 0.26933
 B173 B 0.82781 0.75053 0.21722
 B174 B 0.76256 0.74367 0.18815
 B175 B 0.73499 0.78071 0.26670
 B176 B 0.80979 0.77346 0.26580
 B177 B 0.77308 0.78209 0.21610
 B178 B 0.70499 0.76314 0.21851
 B179 B 0.69972 0.74161 0.27049
 B180 B 0.76525 0.74825 0.29955
 B181 B 0.72264 0.21905 0.72719
 B182 B 0.69981 0.22714 0.78193
 B183 B 0.77234 0.21715 0.77097
 B184 B 0.79177 0.23536 0.72004
 B185 B 0.73073 0.25747 0.69933
 B186 B 0.67321 0.25244 0.73799
 B187 B 0.76319 0.28820 0.78142
 B188 B 0.78552 0.27943 0.72678
 B189 B 0.71339 0.28980 0.73772
 B190 B 0.69335 0.27157 0.78936
 B191 B 0.75507 0.24940 0.80986
 B192 B 0.81191 0.25491 0.77080
 C193 C 0.13684 0.42774 0.83337
 C194 C 0.17428 0.44006 0.86873
 C195 C 0.15192 0.46435 0.90058
 C196 C 0.09265 0.47677 0.89661
 C197 C 0.06236 0.46998 0.85476
 N198 N 0.08335 0.44424 0.82561
 C199 C 0.14832 0.39218 0.81435
 N200 N 0.14750 0.38557 0.76793
 C201 C 0.16220 0.35294 0.75060
 C202 C 0.17998 0.32535 0.78063
 C203 C 0.17545 0.33135 0.82864
 C204 C 0.16008 0.36453 0.84540
 H205 H 0.17935 0.47056 0.93040
 H206 H 0.01850 0.48133 0.84839
 H207 H 0.16173 0.34902 0.71355
 H208 H 0.18684 0.31114 0.85379
 H209 H 0.21769 0.42787 0.87485
 H210 H 0.15877 0.36882 0.88259
 C211 C 0.40360 0.58817 0.34919
 C212 C 0.45753 0.59871 0.36870
 C213 C 0.48620 0.57661 0.39994
 C214 C 0.46357 0.54268 0.41042
 C215 C 0.41056 0.53230 0.38786
 N216 N 0.38120 0.55545 0.35915
 C217 C 0.36651 0.61588 0.32784
 N218 N 0.33519 0.63772 0.35662
 C219 C 0.30913 0.66822 0.34172
 C220 C 0.31425 0.67877 0.29516
 C221 C 0.34756 0.65677 0.26494
 C222 C 0.37387 0.62534 0.28122
 H223 H 0.52392 0.58770 0.41812
 H224 H 0.39037 0.50694 0.39551
 H225 H 0.28623 0.68455 0.36688
 H226 H 0.35341 0.66382 0.22880
 H227 H 0.47464 0.62520 0.36291
 H228 H 0.40115 0.60923 0.25818
 C229 C 0.90453 0.91035 0.65335
 C230 C 0.95896 0.90099 0.63269
 C231 C 0.98557 0.92406 0.60120
 C232 C 0.95980 0.95750 0.59134
 C233 C 0.90674 0.96662 0.61532
 N234 N 0.87995 0.94279 0.64429
 C235 C 0.86985 0.88286 0.67775
 N236 N 0.82679 0.86516 0.65396
 C237 C 0.79825 0.83646 0.67182
 C238 C 0.81209 0.82384 0.71660
 C239 C 0.85691 0.84180 0.74151
 C240 C 0.88602 0.87114 0.72213
 H241 H 1.02413 0.91430 0.58231
 H242 H 0.88421 0.99157 0.60851
 H243 H 0.76521 0.82330 0.65056
 H244 H 0.87096 0.83263 0.77534
 H245 H 0.97835 0.87489 0.63816
 H246 H 0.92168 0.88404 0.74106
 C247 C 0.56231 0.08942 0.15272
 C248 C 0.58252 0.05405 0.15427
 C249 C 0.56141 0.02974 0.12118
 C250 C 0.52007 0.04076 0.08725
 C251 C 0.49833 0.07589 0.08964
 N252 N 0.52037 0.09887 0.12108
 C253 C 0.59195 0.11844 0.17765
 N254 N 0.59848 0.14955 0.15453
 C255 C 0.62698 0.17777 0.17295
 C256 C 0.65212 0.17577 0.21752
 C257 C 0.64111 0.14488 0.24363
 C258 C 0.61262 0.11569 0.22335
 H259 H 0.57973 0.00307 0.12060
 H260 H 0.46626 0.08612 0.06489
 H261 H 0.63065 0.20147 0.15203
 H262 H 0.65434 0.14307 0.27957
 H263 H 0.61709 0.04598 0.17845
 H264 H 0.60587 0.09170 0.24327
 C265 C 0.82539 0.08049 0.38437
 C266 C 0.85520 0.05155 0.36372
 C267 C 0.88859 0.02827 0.39114
 C268 C 0.89277 0.03324 0.43942
 C269 C 0.85817 0.06077 0.45909
 N270 N 0.82695 0.08363 0.43149
 C271 C 0.79836 0.10992 0.35662
 N272 N 0.78272 0.14052 0.37885
 C273 C 0.76282 0.16989 0.35600
 C274 C 0.75869 0.17013 0.30724
 C275 C 0.77302 0.13847 0.28378
 C276 C 0.79208 0.10844 0.30808
 H277 H 0.91535 0.00849 0.37350
 H278 H 0.85938 0.06587 0.49603
 H279 H 0.75163 0.19323 0.37616
 H280 H 0.76878 0.13648 0.24655
 H281 H 0.85677 0.04781 0.32661
 H282 H 0.80196 0.08473 0.28843
 C283 C 0.36800 0.40270 0.60932
 C284 C 0.42730 0.39591 0.59669
 C285 C 0.45893 0.42093 0.57216
 C286 C 0.43266 0.45363 0.55942
 C287 C 0.37091 0.45794 0.56866
 N288 N 0.34062 0.43301 0.59400
 C289 C 0.33790 0.37720 0.64051
 N290 N 0.28159 0.36524 0.63156
 C291 C 0.25662 0.33831 0.65661
 C292 C 0.28901 0.32168 0.69266
 C293 C 0.34742 0.33360 0.70124
 C294 C 0.37096 0.36176 0.67659
 H295 H 0.50501 0.41429 0.56411
 H296 H 0.34732 0.48142 0.55688
 H297 H 0.21235 0.32921 0.64731
 H298 H 0.37592 0.32093 0.72669
 H299 H 0.44967 0.37141 0.60634
 H300 H 0.41591 0.37057 0.68462
 C301 C 0.67137 0.91240 0.89308
 C302 C 0.67657 0.91466 0.94139
 C303 C 0.64133 0.93935 0.96559
 C304 C 0.60179 0.96211 0.94157
 C305 C 0.60404 0.96165 0.89280
 N306 N 0.63634 0.93628 0.87026
 C307 C 0.69188 0.88061 0.86786
 N308 N 0.65036 0.86207 0.84370
 C309 C 0.66425 0.83221 0.81970
 C310 C 0.72388 0.81994 0.81710
 C311 C 0.76730 0.83809 0.84321
 C312 C 0.75134 0.86836 0.86895
 H313 H 0.64191 0.93868 1.00314
 H314 H 0.57526 0.97877 0.87249
 H315 H 0.62850 0.81869 0.80176
 H316 H 0.81334 0.82897 0.84388
 H317 H 0.70329 0.89552 0.96043
 H318 H 0.78501 0.88234 0.88874
 C319 C 0.17467 0.58995 0.11971
 C320 C 0.14033 0.56199 0.13741
 C321 C 0.11118 0.53933 0.10683
 C322 C 0.11600 0.54430 0.05861
 C323 C 0.15477 0.57083 0.04251
 N324 N 0.18161 0.59307 0.07298
 C325 C 0.19545 0.61926 0.14940
 N326 N 0.20319 0.65155 0.12942
 C327 C 0.21632 0.68097 0.15437
 C328 C 0.22164 0.67914 0.20291
 C329 C 0.21583 0.64572 0.22400
 C330 C 0.20296 0.61579 0.19750
 H331 H 0.08091 0.51994 0.12123
 H332 H 0.16081 0.57563 0.00580
 H333 H 0.22151 0.70574 0.13594
 H334 H 0.22041 0.64253 0.26110
 H335 H 0.13189 0.55911 0.17416
 H336 H 0.19867 0.59046 0.21473
 C337 C 0.41039 0.89425 0.13483
 C338 C 0.47193 0.89939 0.12853
 C339 C 0.49165 0.92859 0.10280
 C340 C 0.45017 0.95222 0.08223
 C341 C 0.38895 0.94643 0.09101
 N342 N 0.37106 0.91827 0.11686
 C343 C 0.38642 0.86398 0.16133
 N344 N 0.34191 0.87062 0.19215
 C345 C 0.31390 0.84450 0.21573
 C346 C 0.32815 0.80846 0.20801
 C347 C 0.37496 0.80094 0.17663
 C348 C 0.40464 0.82868 0.15352
 H349 H 0.53932 0.93133 0.09686
 H350 H 0.35492 0.96300 0.07522
 H351 H 0.28059 0.85245 0.24061
 H352 H 0.38808 0.77378 0.16951
 H353 H 0.50425 0.88097 0.14306
 H354 H 0.43972 0.82260 0.12868
 C355 C 0.59351 0.40085 0.36197
 C356 C 0.63690 0.42438 0.37863
 C357 C 0.61893 0.45495 0.40197
 C358 C 0.55770 0.46233 0.40865
 C359 C 0.51603 0.44059 0.38558
 N360 N 0.53461 0.41029 0.36402
 C361 C 0.61101 0.36495 0.34637
 N362 N 0.58279 0.34935 0.30986
 C363 C 0.60144 0.31752 0.29234
 C364 C 0.65257 0.30051 0.31074
 C365 C 0.67686 0.31416 0.35183
 C366 C 0.65689 0.34647 0.36930
 H367 H 0.65308 0.47101 0.41821
 H368 H 0.46838 0.44568 0.38851
 H369 H 0.57968 0.30727 0.26164
 H370 H 0.71345 0.30093 0.36935
 H371 H 0.68427 0.41817 0.37606
 H372 H 0.67803 0.35724 0.40000
 C373 C 0.95188 0.60837 0.84558
 C374 C 1.00992 0.61079 0.86380
 C375 C 1.03294 0.58264 0.88995
 C376 C 0.99824 0.55211 0.89832
 C377 C 0.94329 0.54947 0.87516
 N378 N 0.92152 0.57736 0.85047
 C379 C 0.91992 0.63883 0.82426
 N380 N 0.87033 0.63168 0.79888
 C381 C 0.83362 0.65740 0.78231
 C382 C 0.84439 0.69342 0.79188
 C383 C 0.89610 0.70164 0.81744
 C384 C 0.93396 0.67450 0.83370
 H385 H 1.07614 0.58607 0.90634
 H386 H 0.91535 0.52655 0.87935
 H387 H 0.79449 0.64910 0.76363
 H388 H 0.90670 0.72891 0.82570
 H389 H 1.03649 0.63448 0.85952
 H390 H 0.97205 0.68148 0.85492
 C391 C 0.08201 0.10497 0.63223
 C392 C 0.02066 0.09649 0.63296
 C393 C 0.00031 0.06653 0.60873
 C394 C 0.04082 0.04473 0.58412
 C395 C 0.10226 0.05297 0.58746
 N396 N 0.12063 0.08256 0.61015
 C397 C 0.10633 0.13842 0.65209
 N398 N 0.15756 0.15200 0.63360
 C399 C 0.18508 0.18120 0.65118
 C400 C 0.16292 0.19779 0.69150
 C401 C 0.10799 0.18556 0.70933
 C402 C 0.07976 0.15593 0.68998
 H403 H -0.04745 0.06180 0.60693
 H404 H 0.13568 0.03730 0.56930
 H405 H 0.22644 0.18991 0.63532
 H406 H 0.08749 0.19812 0.73912
 H407 H -0.01174 0.11380 0.64960
 H408 H 0.03905 0.14614 0.70578
 C409 C 0.13607 0.38736 0.40577
 C410 C 0.13911 0.38856 0.45441
 C411 C 0.10756 0.41530 0.47841
 C412 C 0.07384 0.44072 0.45384
 C413 C 0.07602 0.43949 0.40495
 N414 N 0.10521 0.41291 0.38282
 C415 C 0.15860 0.35735 0.37810
 N416 N 0.12128 0.34370 0.34561
 C417 C 0.13882 0.31818 0.31537
 C418 C 0.19846 0.30584 0.31489
 C419 C 0.23756 0.31899 0.34913
 C420 C 0.21769 0.34473 0.38095
 H421 H 0.10838 0.41550 0.51590
 H422 H 0.05185 0.45836 0.38373
 H423 H 0.10618 0.30837 0.29086
 H424 H 0.28350 0.30969 0.35108
 H425 H 0.16300 0.36822 0.47352
 H426 H 0.24843 0.35545 0.40631
 C427 C 0.33409 0.61245 0.91633
 C428 C 0.38002 0.62383 0.94557
 C429 C 0.40987 0.59930 0.97321
 C430 C 0.39449 0.56325 0.97155
 C431 C 0.34421 0.55365 0.94484
 N432 N 0.31634 0.57805 0.91745
 C433 C 0.31326 0.63588 0.87914
 N434 N 0.25507 0.64666 0.87689
 C435 C 0.23599 0.67026 0.84425
 C436 C 0.27644 0.68401 0.81128
 C437 C 0.33635 0.67227 0.81304
 C438 C 0.35471 0.64831 0.84670
 H439 H 0.44802 0.60847 0.99240
 H440 H 0.32986 0.52634 0.94282
 H441 H 0.18965 0.67890 0.84493
 H442 H 0.36975 0.68220 0.78912
 H443 H 0.39521 0.65106 0.94469
 H444 H 0.40125 0.63994 0.84798
 C445 C 0.65421 0.11116 0.59242
 C446 C 0.66384 0.07520 0.60114
 C447 C 0.63290 0.05034 0.57533
 C448 C 0.59232 0.06102 0.54044
 C449 C 0.59009 0.09713 0.52905
 N450 N 0.61880 0.12117 0.55618
 C451 C 0.67406 0.13780 0.62604
 N452 N 0.63619 0.16494 0.63650
 C453 C 0.64902 0.18920 0.66964
 C454 C 0.70305 0.18703 0.69472
 C455 C 0.74321 0.15942 0.68370
 C456 C 0.72859 0.13454 0.64982
 H457 H 0.63871 0.02274 0.58474
 H458 H 0.56261 0.10665 0.50088
 H459 H 0.61740 0.21064 0.67517
 H460 H 0.78679 0.15762 0.69989
 H461 H 0.69123 0.06634 0.62992
 H462 H 0.76008 0.11346 0.64165
 C463 C 0.84011 0.90055 0.09706
 C464 C 0.85064 0.93385 0.11639
 C465 C 0.88538 0.95794 0.09231
 C466 C 0.91027 0.94912 0.04873
 C467 C 0.89395 0.91672 0.02868
 N468 N 0.86079 0.89320 0.05346
 C469 C 0.81343 0.87234 0.12563
 N470 N 0.80839 0.87671 0.17247
 C471 C 0.79232 0.84988 0.20127
 C472 C 0.78234 0.81585 0.18338
 C473 C 0.78399 0.81165 0.13468
 C474 C 0.79946 0.83963 0.10597
 H475 H 0.89404 0.98304 0.10911
 H476 H 0.91014 0.90922 -0.00534
 H477 H 0.79021 0.85494 0.23816
 H478 H 0.77540 0.78646 0.11808
 H479 H 0.83429 0.94078 0.15066
 H480 H 0.80260 0.83526 0.06888
 C481 C 0.89363 0.09761 0.86074
 C482 C 0.95511 0.08988 0.85845
 C483 C 0.98086 0.06766 0.89153
 C484 C 0.94602 0.05368 0.92773
 C485 C 0.88363 0.05977 0.92629
 N486 N 0.85953 0.08171 0.89379
 C487 C 0.86639 0.12523 0.83120
 N488 N 0.80809 0.12259 0.81775
 C489 C 0.77893 0.14953 0.79561
 C490 C 0.80744 0.18228 0.78854
 C491 C 0.86872 0.18440 0.80002
 C492 C 0.89807 0.15616 0.82109
 H493 H 1.02800 0.06163 0.88843
 H494 H 0.85415 0.04830 0.95199
 H495 H 0.73309 0.14557 0.78489
 H496 H 0.89432 0.20828 0.79439
 H497 H 0.98318 0.10118 0.83162
 H498 H 0.94421 0.15943 0.83180
 C499 C 0.07979 0.60162 0.63991
 C500 C 0.09618 0.56569 0.64340
 C501 C 0.07581 0.54158 0.60988
 C502 C 0.03920 0.55310 0.57293
 C503 C 0.02295 0.58913 0.57195
 N504 N 0.04384 0.61196 0.60434
 C505 C 0.10549 0.62981 0.66951
 N506 N 0.10781 0.66287 0.65116
 C507 C 0.13492 0.69025 0.67276
 C508 C 0.16394 0.68544 0.71578
 C509 C 0.15659 0.65237 0.73767
 C510 C 0.12865 0.62421 0.71427
 H511 H 0.08920 0.51403 0.61280
 H512 H -0.00492 0.59975 0.54482
 H513 H 0.13516 0.71547 0.65494
 H514 H 0.17493 0.64749 0.77163
 H515 H 0.12591 0.55647 0.67051
 H516 H 0.12574 0.59854 0.73085
 C517 C 0.62715 0.89968 0.36987
 C518 C 0.65804 0.91220 0.40879
 C519 C 0.63047 0.93635 0.43845
 C520 C 0.57172 0.94812 0.42992
 C521 C 0.54408 0.93703 0.38843
 N522 N 0.57168 0.91291 0.36015
 C523 C 0.65208 0.86967 0.34307
 N524 N 0.65120 0.86924 0.29576
 C525 C 0.67606 0.84199 0.27084
 C526 C 0.70413 0.81336 0.29370
 C527 C 0.70108 0.81275 0.34250
 C528 C 0.67629 0.84079 0.36699
 H529 H 0.65540 0.94536 0.46824
 H530 H 0.49968 0.94642 0.37939
 H531 H 0.67395 0.84275 0.23335
 H532 H 0.71752 0.79053 0.36253
 H533 H 0.70278 0.90269 0.41678
 H534 H 0.67529 0.83967 0.40456
 C535 C 0.39255 0.39482 0.14423
 C536 C 0.42806 0.38506 0.10622
 C537 C 0.44525 0.41025 0.07437
 C538 C 0.42946 0.44597 0.08000
 C539 C 0.39527 0.45518 0.11954
 N540 N 0.37714 0.42962 0.15007
 C541 C 0.36735 0.36631 0.17344
 N542 N 0.36849 0.33306 0.15559
 C543 C 0.34235 0.30525 0.17642
 C544 C 0.31031 0.30969 0.21814
 C545 C 0.31363 0.34309 0.23998
 C546 C 0.34066 0.37186 0.21705
 H547 H 0.47062 0.40103 0.04504
 H548 H 0.38259 0.48250 0.12598
 H549 H 0.34520 0.27999 0.15874
 H550 H 0.29333 0.34750 0.27353
 H551 H 0.44151 0.35778 0.10015
 H552 H 0.34015 0.39793 0.23284
 C553 C 0.55131 0.63060 0.11626
 C554 C 0.50416 0.60949 0.13225
 C555 C 0.48125 0.58318 0.10320
 C556 C 0.50549 0.57761 0.05844
 C557 C 0.54893 0.60146 0.04289
 N558 N 0.57068 0.62659 0.07179
 C559 C 0.58477 0.65538 0.14603
 N560 N 0.62113 0.67879 0.12429
 C561 C 0.66058 0.69926 0.14735
 C562 C 0.66768 0.69593 0.19571
 C563 C 0.62707 0.67408 0.21947
 C564 C 0.58624 0.65323 0.19477
 H565 H 0.44704 0.56591 0.11705
 H566 H 0.56792 0.59953 0.00882
 H567 H 0.68710 0.71747 0.12708
 H568 H 0.62736 0.67265 0.25696
 H569 H 0.48624 0.61237 0.16697
 H570 H 0.55808 0.63497 0.21364
 C571 C 0.08318 0.87343 0.91048
 C572 C 0.10922 0.88215 0.95326
 C573 C 0.08446 0.90915 0.98004
 C574 C 0.03142 0.92638 0.96625
 C575 C 0.00312 0.91405 0.92565
 N576 N 0.02996 0.88881 0.89867
 C577 C 0.11527 0.85056 0.87647
 N578 N 0.08450 0.83360 0.84225
 C579 C 0.11248 0.81299 0.80969
 C580 C 0.17535 0.80901 0.80981
 C581 C 0.20706 0.82595 0.84553
 C582 C 0.17785 0.84719 0.87776
 H583 H 0.10961 0.91799 1.00987
 H584 H -0.03778 0.92637 0.91332
 H585 H 0.08536 0.79904 0.78460
 H586 H 0.25477 0.82225 0.84986
 H587 H 0.15008 0.86964 0.96524
 H588 H 0.20480 0.86082 0.90320
 C589 C 0.41561 0.12314 0.39669
 C590 C 0.47594 0.11327 0.39032
 C591 C 0.50214 0.08872 0.42043
 C592 C 0.46864 0.07393 0.45690
 C593 C 0.40976 0.08636 0.46366
 N594 N 0.38509 0.10985 0.43360
 C595 C 0.38171 0.14497 0.36298
 N596 N 0.32097 0.14605 0.36705
 C597 C 0.28551 0.16495 0.33784
 C598 C 0.31072 0.18426 0.30108
 C599 C 0.37366 0.18416 0.29700
 C600 C 0.40913 0.16442 0.32740
 H601 H 0.54753 0.07988 0.41339
 H602 H 0.38167 0.07573 0.49088
 H603 H 0.23791 0.16582 0.34479
 H604 H 0.39604 0.20025 0.27124
 H605 H 0.50207 0.12258 0.36123
 H606 H 0.45725 0.16550 0.32348
 C607 C 0.92262 0.36923 0.60148
 C608 C 0.98156 0.38118 0.60528
 C609 C 1.00143 0.40788 0.57551
 C610 C 0.96276 0.42215 0.54165
 C611 C 0.90533 0.40726 0.53728
 N612 N 0.88660 0.38211 0.56749
 C613 C 0.89620 0.34648 0.63689
 N614 N 0.85793 0.36113 0.66834
 C615 C 0.82618 0.34111 0.69870
 C616 C 0.82986 0.30389 0.69698
 C617 C 0.87130 0.28858 0.66565
 C618 C 0.90457 0.30982 0.63568
 H619 H 1.04543 0.41888 0.58134
 H620 H 0.87354 0.41731 0.51214
 H621 H 0.79609 0.35444 0.72251
 H622 H 0.87697 0.26014 0.66294
 H623 H 1.01049 0.37157 0.63275
 H624 H 0.93455 0.29774 0.61054
 C625 C 0.90184 0.58558 0.13734
 C626 C 0.87914 0.55197 0.12625
 C627 C 0.91203 0.52952 0.09646
 C628 C 0.96663 0.54096 0.07720
 C629 C 0.98725 0.57486 0.09034
 N630 N 0.95505 0.59573 0.11938
 C631 C 0.86631 0.61291 0.16130
 N632 N 0.88330 0.62430 0.20409
 C633 C 0.86014 0.65431 0.22365
 C634 C 0.81933 0.67577 0.19890
 C635 C 0.80273 0.66463 0.15422
 C636 C 0.82531 0.63307 0.13570
 H637 H 0.89322 0.50422 0.08651
 H638 H 1.02677 0.58638 0.07511
 H639 H 0.87458 0.66163 0.25816
 H640 H 0.77362 0.68060 0.13284
 H641 H 0.83572 0.54380 0.13911
 H642 H 0.81365 0.62552 0.10058
 C643 C 0.62055 0.42129 0.65496
 C644 C 0.56603 0.43879 0.66415
 C645 C 0.54440 0.46382 0.63212
 C646 C 0.57622 0.47034 0.59075
 C647 C 0.63407 0.45573 0.58669
 N648 N 0.65350 0.43134 0.61762
 C649 C 0.63991 0.38860 0.67886
 N650 N 0.67284 0.36524 0.65343
 C651 C 0.69370 0.33429 0.67075
 C652 C 0.68385 0.32538 0.71747
 C653 C 0.64769 0.34839 0.74418
 C654 C 0.62562 0.38015 0.72502
 H655 H 0.50045 0.47539 0.63766
 H656 H 0.66240 0.46114 0.55710
 H657 H 0.71963 0.31736 0.64789
 H658 H 0.63626 0.34191 0.77961
 H659 H 0.53835 0.43138 0.69341
 H660 H 0.59882 0.39794 0.74617
 C661 C 0.07893 0.08250 0.33553
 C662 C 0.10256 0.04787 0.33971
 C663 C 0.08019 0.02517 0.37414
 C664 C 0.03414 0.03668 0.40400
 C665 C 0.01008 0.07083 0.39665
 N666 N 0.03286 0.09230 0.36361
 C667 C 0.10582 0.11081 0.30658
 N668 N 0.07867 0.14329 0.30711
 C669 C 0.10431 0.17275 0.28901
 C670 C 0.16217 0.17099 0.26998
 C671 C 0.18934 0.13728 0.26616
 C672 C 0.16159 0.10725 0.28441
 H673 H 0.10089 -0.00061 0.37870
 H674 H -0.02458 0.08169 0.41879
 H675 H 0.08054 0.19774 0.29202
 H676 H 0.23399 0.13415 0.25221
 H677 H 0.13910 0.03857 0.31818
 H678 H 0.18559 0.08230 0.28331
 C679 C 0.41256 0.90749 0.83720
 C680 C 0.39348 0.94323 0.83726
 C681 C 0.41734 0.96699 0.86976
 C682 C 0.46054 0.95546 0.90186
 C683 C 0.48150 0.92023 0.89792
 N684 N 0.45697 0.89764 0.86678
 C685 C 0.38265 0.87890 0.81023
 N686 N 0.40662 0.84556 0.81180
 C687 C 0.37828 0.81664 0.79429
 C688 C 0.32092 0.81992 0.77464
 C689 C 0.29660 0.85438 0.77087
 C690 C 0.32699 0.88372 0.78844
 H691 H 0.39986 0.99383 0.87115
 H692 H 0.51502 0.90976 0.92135
 H693 H 0.39965 0.79095 0.79785
 H694 H 0.25208 0.85880 0.75749
 H695 H 0.35925 0.95280 0.81388
 H696 H 0.30493 0.90927 0.78707
 C697 C 0.16682 0.91245 0.61113
 C698 C 0.13815 0.94144 0.63216
 C699 C 0.10719 0.96584 0.60487
 C700 C 0.10467 0.96159 0.55640
 C701 C 0.14014 0.93446 0.53649
 N702 N 0.16877 0.91037 0.56400
 C703 C 0.18411 0.88140 0.63934
 N704 N 0.23768 0.86457 0.63281
 C705 C 0.25332 0.83506 0.65752
 C706 C 0.21332 0.82047 0.69020
 C707 C 0.15726 0.83702 0.69575
 C708 C 0.14292 0.86753 0.67108
 H709 H 0.08011 0.98549 0.62252
 H710 H 0.14069 0.93033 0.49932
 H711 H 0.29682 0.82306 0.65150
 H712 H 0.12384 0.82637 0.71877
 H713 H 0.13569 0.94360 0.66961
 H714 H 0.09913 0.87963 0.67576
 C715 C 0.68575 0.58875 0.38315
 C716 C 0.65018 0.56310 0.36163
 C717 C 0.61293 0.54202 0.38862
 C718 C 0.61146 0.54598 0.43715
 C719 C 0.65106 0.57028 0.45743
 N720 N 0.68585 0.59112 0.43028
 C721 C 0.71520 0.61656 0.35546
 N722 N 0.71558 0.61451 0.30827
 C723 C 0.73206 0.64224 0.28115
 C724 C 0.74599 0.67506 0.30140
 C725 C 0.75017 0.67667 0.35006
 C726 C 0.73528 0.64754 0.37703
 H727 H 0.58273 0.52427 0.37095
 H728 H 0.65255 0.57413 0.49461
 H729 H 0.73069 0.63904 0.24391
 H730 H 0.76270 0.70077 0.36788
 H731 H 0.64819 0.56080 0.32420
 H732 H 0.73601 0.65014 0.41447
 C733 C 0.31624 0.08499 0.10038
 C734 C 0.31060 0.08413 0.05191
 C735 C 0.34357 0.05902 0.02631
 C736 C 0.38129 0.03442 0.04897
 C737 C 0.37959 0.03389 0.09784
 N738 N 0.34950 0.05949 0.12172
 C739 C 0.29617 0.11592 0.12812
 N740 N 0.33498 0.12956 0.15964
 C741 C 0.32160 0.15837 0.18608
 C742 C 0.26531 0.17509 0.18286
 C743 C 0.22441 0.16148 0.15019
 C744 C 0.23992 0.13216 0.12243
 H745 H 0.34291 0.06070 -0.01118
 H746 H 0.40758 0.01582 0.11732
 H747 H 0.35544 0.16810 0.20926
 H748 H 0.18046 0.17336 0.14606
 H749 H 0.28518 0.10440 0.03384
 H750 H 0.20810 0.12197 0.09749
 C751 C 0.87078 0.40991 0.87757
 C752 C 0.84411 0.44112 0.89501
 C753 C 0.88012 0.46641 0.91750
 C754 C 0.94248 0.46098 0.92172
 C755 C 0.96597 0.42873 0.90474
 N756 N 0.93054 0.40501 0.88323
 C757 C 0.83856 0.38129 0.85301
 N758 N 0.87283 0.35802 0.82845
 C759 C 0.85015 0.32941 0.80657
 C760 C 0.78841 0.32231 0.80818
 C761 C 0.75182 0.34552 0.83423
 C762 C 0.77658 0.37527 0.85640
 H763 H 0.85909 0.48984 0.93216
 H764 H 1.01249 0.42147 0.90939
 H765 H 0.88101 0.31245 0.78775
 H766 H 0.70450 0.34042 0.83828
 H767 H 0.79652 0.44602 0.89144
 H768 H 0.74793 0.39248 0.87688
 C769 C 0.57676 0.10446 0.86179
 C770 C 0.51575 0.09553 0.85957
 C771 C 0.49526 0.06513 0.88266
 C772 C 0.53543 0.04330 0.90744
 C773 C 0.59686 0.05165 0.90472
 N774 N 0.61529 0.08185 0.88346
 C775 C 0.60038 0.13867 0.84403
 N776 N 0.64741 0.15397 0.86638
 C777 C 0.67474 0.18382 0.85050
 C778 C 0.65735 0.19904 0.80803
 C779 C 0.60619 0.18509 0.78621
 C780 C 0.57768 0.15501 0.80398
 H781 H 0.44750 0.06026 0.88389
 H782 H 0.62997 0.03592 0.92297
 H783 H 0.71312 0.19381 0.86921
 H784 H 0.58952 0.19642 0.75428
 H785 H 0.48362 0.11298 0.84296
 H786 H 0.54030 0.14374 0.78529
 C787 C 0.41639 0.59998 0.64084
 C788 C 0.39354 0.56525 0.63936
 C789 C 0.42414 0.53886 0.61478
 C790 C 0.47694 0.54661 0.59066
 C791 C 0.50133 0.58081 0.59696
 N792 N 0.47029 0.60636 0.62046
 C793 C 0.38163 0.63005 0.66140
 N794 N 0.39355 0.66420 0.64863
 C795 C 0.36188 0.69262 0.66557
 C796 C 0.31468 0.68755 0.69734
 C797 C 0.30243 0.65241 0.71038
 C798 C 0.33557 0.62404 0.69331
 H799 H 0.40413 0.51314 0.61255
 H800 H 0.54255 0.58830 0.57981
 H801 H 0.37405 0.71906 0.65461
 H802 H 0.26905 0.64628 0.73581
 H803 H 0.35064 0.55858 0.65434
 H804 H 0.32559 0.59785 0.70629
 C805 C 0.09531 0.39812 0.12713
 C806 C 0.13708 0.42441 0.11594
 C807 C 0.11921 0.45379 0.09008
 C808 C 0.05923 0.45783 0.07604
 C809 C 0.01811 0.43163 0.09040
 N810 N 0.03705 0.40258 0.11454
 C811 C 0.11469 0.36638 0.15329
 N812 N 0.10297 0.33286 0.13785
 C813 C 0.12573 0.30335 0.15943
 C814 C 0.16281 0.30676 0.19872
 C815 C 0.17284 0.34141 0.21508
 C816 C 0.14941 0.37084 0.19283
 H817 H 0.15327 0.47225 0.07890
 H818 H -0.02846 0.43306 0.08014
 H819 H 0.11611 0.27742 0.14525
 H820 H 0.19951 0.34661 0.24505
 H821 H 0.18383 0.42144 0.12541
 H822 H 0.15911 0.39708 0.20614
 C823 C 0.92652 0.89416 0.35333
 C824 C 0.98538 0.90692 0.35133
 C825 C 1.00192 0.93526 0.38017
 C826 C 0.95960 0.95127 0.41010
 C827 C 0.90009 0.93930 0.40771
 N828 N 0.88579 0.91108 0.38079
 C829 C 0.90813 0.86063 0.33112
 N830 N 0.87267 0.83856 0.35608
 C831 C 0.84749 0.80918 0.33756
 C832 C 0.85382 0.80159 0.29004
 C833 C 0.89498 0.82211 0.26458
 C834 C 0.92216 0.85183 0.28499
 H835 H 1.04844 0.94313 0.38090
 H836 H 0.86538 0.95083 0.42934
 H837 H 0.82023 0.79292 0.35988
 H838 H 0.90323 0.81655 0.22824
 H839 H 1.01897 0.89369 0.33022
 H840 H 0.95080 0.86872 0.26433
 C841 C 0.82898 0.60661 0.58954
 C842 C 0.85210 0.61468 0.54558
 C843 C 0.88376 0.58879 0.52090
 C844 C 0.89486 0.55549 0.54093
 C845 C 0.86630 0.54772 0.58340
 N846 N 0.83530 0.57325 0.60661
 C847 C 0.80726 0.63495 0.62034
 N848 N 0.83900 0.66547 0.62254
 C849 C 0.82641 0.69126 0.65385
 C850 C 0.77907 0.68728 0.68590
 C851 C 0.74413 0.65647 0.68270
 C852 C 0.75903 0.62984 0.65077
 H853 H 0.90237 0.59573 0.48760
 H854 H 0.87081 0.52193 0.59949
 H855 H 0.85397 0.71474 0.65344
 H856 H 0.70640 0.65241 0.70542
 H857 H 0.84760 0.64112 0.53129
 H858 H 0.73333 0.60557 0.64982
 C859 C 0.63660 0.39691 0.10645
 C860 C 0.63593 0.43270 0.11921
 C861 C 0.60483 0.45697 0.09210
 C862 C 0.57407 0.44615 0.05178
 C863 C 0.58306 0.41107 0.03690
 N864 N 0.61217 0.38741 0.06487
 C865 C 0.66049 0.36910 0.13794
 N866 N 0.67324 0.33660 0.12011
 C867 C 0.69121 0.30898 0.14697
 C868 C 0.69626 0.31264 0.19570
 C869 C 0.68476 0.34634 0.21449
 C870 C 0.66653 0.37439 0.18609
 H871 H 0.60329 0.48415 0.10418
 H872 H 0.56352 0.40177 0.00488
 H873 H 0.70042 0.28409 0.12971
 H874 H 0.68990 0.35134 0.25115
 H875 H 0.65782 0.44205 0.15029
 H876 H 0.65571 0.39947 0.20236
 C877 C 0.35814 0.88690 0.41980
 C878 C 0.33072 0.91865 0.43346
 C879 C 0.36462 0.94389 0.45678
 C880 C 0.42548 0.93729 0.46682
 C881 C 0.44904 0.90366 0.45644
 N882 N 0.41581 0.88008 0.43230
 C883 C 0.33016 0.86329 0.38604
 N884 N 0.36617 0.84888 0.35305
 C885 C 0.34537 0.82652 0.32034
 C886 C 0.28464 0.81669 0.31989
 C887 C 0.24644 0.83140 0.35382
 C888 C 0.26889 0.85526 0.38656
 H889 H 0.34362 0.96912 0.46472
 H890 H 0.49495 0.89681 0.46459
 H891 H 0.37732 0.81551 0.29593
 H892 H 0.19982 0.82375 0.35597
 H893 H 0.28516 0.92497 0.42335
 H894 H 0.23938 0.86615 0.41291
 C895 C 0.14923 0.11038 0.90738
 C896 C 0.16611 0.07466 0.90431
 C897 C 0.13741 0.04992 0.93265
 C898 C 0.09254 0.06094 0.96416
 C899 C 0.08285 0.09750 0.96959
 N900 N 0.10973 0.12078 0.94070
 C901 C 0.16727 0.13630 0.87211
 N902 N 0.22337 0.13585 0.85351
 C903 C 0.24103 0.16040 0.82175
 C904 C 0.20076 0.18682 0.80636
 C905 C 0.14271 0.18718 0.82539
 C906 C 0.12594 0.16209 0.85791
 H907 H 0.14733 0.02204 0.92746
 H908 H 0.05119 0.10796 0.99412
 H909 H 0.28697 0.15983 0.80972
 H910 H 0.11035 0.20756 0.81667
 H911 H 0.19756 0.06570 0.87806
 H912 H 0.08092 0.16297 0.87210
 C913 C 0.09420 0.90222 0.14871
 C914 C 0.11161 0.93782 0.15177
 C915 C 0.09092 0.96201 0.11841
 C916 C 0.05281 0.95070 0.08244
 C917 C 0.03460 0.91513 0.08259
 N918 N 0.05626 0.89219 0.11448
 C919 C 0.12243 0.87384 0.17601
 N920 N 0.13274 0.84271 0.15380
 C921 C 0.16022 0.81490 0.17433
 C922 C 0.17974 0.81714 0.22067
 C923 C 0.16608 0.84844 0.24534
 C924 C 0.13859 0.87724 0.22281
 H925 H 0.10569 0.98926 0.12034
 H926 H 0.00554 0.90473 0.05614
 H927 H 0.16687 0.79127 0.15365
 H928 H 0.17825 0.85120 0.28134
 H929 H 0.14297 0.94643 0.17804
 H930 H 0.12962 0.90155 0.24170
 C931 C 0.88543 0.39296 0.36477
 C932 C 0.86960 0.42883 0.35967
 C933 C 0.89236 0.45384 0.39093
 C934 C 0.93089 0.44318 0.42705
 C935 C 0.94647 0.40706 0.42971
 N936 N 0.92323 0.38338 0.39950
 C937 C 0.85815 0.36433 0.33723
 N938 N 0.85276 0.33218 0.35785
 C939 C 0.82600 0.30438 0.33689
 C940 C 0.80101 0.30798 0.29229
 C941 C 0.81134 0.33995 0.26858
 C942 C 0.83848 0.36856 0.29131
 H943 H 0.87929 0.48137 0.38699
 H944 H 0.97687 0.39722 0.45586
 H945 H 0.82295 0.27985 0.35613
 H946 H 0.79864 0.34301 0.23271
 H947 H 0.83852 0.43730 0.33304
 H948 H 0.84472 0.39334 0.27303
 C949 C 0.39250 0.09914 0.63895
 C950 C 0.38443 0.06250 0.64375
 C951 C 0.41125 0.03950 0.61162
 C952 C 0.44550 0.05292 0.57446
 C953 C 0.45191 0.08980 0.57138
 N954 N 0.42601 0.11149 0.60314
 C955 C 0.36529 0.12549 0.67044
 N956 N 0.39244 0.15749 0.67409
 C957 C 0.36703 0.18529 0.69660
 C958 C 0.30922 0.18242 0.71580
 C959 C 0.28170 0.14893 0.71451
 C960 C 0.30951 0.12041 0.69188
 H961 H 0.40502 0.01126 0.61608
 H962 H 0.47614 0.10185 0.54341
 H963 H 0.39124 0.21003 0.69703
 H964 H 0.23725 0.14512 0.72857
 H965 H 0.35858 0.05169 0.67219
 H966 H 0.28590 0.09554 0.68881
 C967 C 0.59811 0.60284 0.87376
 C968 C 0.53688 0.59509 0.86911
 C969 C 0.50953 0.57199 0.90059
 C970 C 0.54210 0.55725 0.93774
 C971 C 0.60404 0.56406 0.93920
 N972 N 0.62956 0.58675 0.90840
 C973 C 0.62951 0.62938 0.84433
 N974 N 0.68223 0.64263 0.86013
 C975 C 0.71323 0.66811 0.83729
 C976 C 0.69205 0.68211 0.79503
 C977 C 0.63756 0.66881 0.77795
 C978 C 0.60658 0.64231 0.80207
 H979 H 0.46276 0.56582 0.89556
 H980 H 0.63208 0.55232 0.96572
 H981 H 0.75354 0.67813 0.85326
 H982 H 0.61823 0.67928 0.74632
 H983 H 0.50968 0.60707 0.84231
 H984 H 0.56516 0.63249 0.78768
 C985 C 0.41201 0.37510 0.90370
 C986 C 0.37678 0.38665 0.94088
 C987 C 0.39812 0.41310 0.97009
 C988 C 0.45510 0.42813 0.96288
 C989 C 0.49016 0.41438 0.92622
 N990 N 0.46773 0.38890 0.89751
 C991 C 0.38525 0.35191 0.86837
 N992 N 0.39286 0.31614 0.87046
 C993 C 0.36336 0.29372 0.84135
 C994 C 0.32235 0.30699 0.80826
 C995 C 0.31541 0.34407 0.80546
 C996 C 0.34642 0.36643 0.83538
 H997 H 0.36841 0.42297 0.99696
 H998 H 0.53392 0.42521 0.91875
 H999 H 0.37105 0.26552 0.84504
 H1000 H 0.28565 0.35611 0.78044
 H1001 H 0.33188 0.37650 0.94584
 H1002 H 0.33916 0.39484 0.83355
 C1003 C 0.91689 0.13200 0.09934
 C1004 C 0.90707 0.13061 0.05128
 C1005 C 0.93578 0.10461 0.02499
 C1006 C 0.97499 0.08039 0.04617
 C1007 C 0.99039 0.08648 0.09295
 N1008 N 0.96009 0.11106 0.11832
 C1009 C 0.87768 0.15277 0.13047
 N1010 N 0.89746 0.16166 0.17359
 C1011 C 0.86220 0.17927 0.20464
 C1012 C 0.80301 0.18864 0.19296
 C1013 C 0.78165 0.17868 0.14909
 C1014 C 0.81840 0.16068 0.11808
 H1015 H 0.92502 0.10289 -0.01123
 H1016 H 1.02225 0.06954 0.11071
 H1017 H 0.88084 0.18634 0.23800
 H1018 H 0.73701 0.18554 0.13777
 H1019 H 0.87563 0.14827 0.03432
 H1020 H 0.79984 0.15272 0.08505
 C1021 C 0.57966 0.87614 0.61194
 C1022 C 0.51962 0.87759 0.59802
 C1023 C 0.50193 0.90332 0.56571
 C1024 C 0.54447 0.92658 0.54651
 C1025 C 0.60490 0.92178 0.55897
 N1026 N 0.62036 0.89762 0.59143
 C1027 C 0.60044 0.85342 0.64987
 N1028 N 0.58762 0.81826 0.65011
 C1029 C 0.61586 0.79542 0.67943
 C1030 C 0.66133 0.80760 0.70940
 C1031 C 0.67069 0.84431 0.71211
 C1032 C 0.64084 0.86715 0.68220
 H1033 H 0.45471 0.90632 0.55796
 H1034 H 0.63975 0.93894 0.54620
 H1035 H 0.60537 0.76753 0.67687
 H1036 H 0.70424 0.85539 0.73482
 H1037 H 0.48645 0.86065 0.61401
 H1038 H 0.65154 0.89514 0.68263
 C1039 C 0.05778 0.62841 0.39920
 C1040 C 0.00232 0.61329 0.38809
 C1041 C -0.02059 0.58635 0.41623
 C1042 C 0.01142 0.57452 0.45547
 C1043 C 0.06543 0.59168 0.46609
 N1044 N 0.08671 0.61760 0.43819
 C1045 C 0.08868 0.65418 0.36915
 N1046 N 0.13058 0.67518 0.38908
 C1047 C 0.16671 0.69666 0.36409
 C1048 C 0.16412 0.69684 0.31530
 C1049 C 0.11854 0.67698 0.29408
 C1050 C 0.08122 0.65527 0.32076
 H1051 H -0.06195 0.57372 0.40596
 H1052 H 0.09311 0.58308 0.49474
 H1053 H 0.19764 0.71327 0.38286
 H1054 H 0.11215 0.67782 0.25688
 H1055 H -0.02246 0.62154 0.35767
 H1056 H 0.04865 0.63876 0.30346
   
