data_POSCAR
  _audit_creation_date              2014-09-24
  _audit_creation_method            'ToBaCCo'
  _symmetry_space_group_name_H-M    'P1'
  _symmetry_Int_Tables_number       1
  _symmetry_cell_setting            triclinic
  loop_
  _symmetry_equiv_pos_as_xyz
 x,y,z
_cell_length_a 47.8865
_cell_length_b 39.1845
_cell_length_c 48.4963
_cell_angle_alpha 87.690300
_cell_angle_beta 89.429700
_cell_angle_gamma 89.445700
loop_
  _atom_site_label
  _atom_site_type_symbol
  _atom_site_fract_x
  _atom_site_fract_y
  _atom_site_fract_z
C1 C 0.28868 0.30607 0.23572
 H2 H 0.29197 0.30547 0.25777
 C3 C 0.30504 0.32723 0.21839
 H4 H 0.32088 0.34283 0.22729
 C5 C 0.26486 0.28534 0.19731
 H6 H 0.24933 0.26884 0.18910
 C7 C 0.28079 0.30603 0.17924
 H8 H 0.27699 0.30556 0.15729
 N9 N 0.26895 0.28577 0.22502
 C10 C 0.20323 0.26624 0.28638
 H11 H 0.19946 0.23957 0.28304
 C12 C 0.18588 0.28383 0.30437
 H13 H 0.16925 0.27029 0.31527
 C14 C 0.22912 0.31637 0.27590
 H15 H 0.24562 0.32926 0.26452
 C16 C 0.21241 0.33487 0.29385
 H17 H 0.21635 0.36179 0.29606
 Zn18 Zn 0.24759 0.25649 0.24911
 N19 N 0.22465 0.28248 0.27287
 C20 C 0.26142 0.20830 0.29187
 N21 N 0.27205 0.22771 0.27045
 C22 C 0.29977 0.22660 0.26404
 C23 C 0.31807 0.20626 0.27996
 C24 C 0.27895 0.18755 0.30830
 C25 C 0.20118 0.24403 0.21625
 C26 C 0.18378 0.22503 0.19991
 C27 C 0.21401 0.17602 0.20824
 C28 C 0.23075 0.19591 0.22454
 N29 N 0.22419 0.22930 0.22805
 H30 H 0.23933 0.20905 0.29642
 H31 H 0.30780 0.24129 0.24644
 H32 H 0.34003 0.20569 0.27448
 H33 H 0.27014 0.17294 0.32565
 H34 H 0.19655 0.27069 0.21932
 H35 H 0.16583 0.23734 0.19025
 H36 H 0.21954 0.14948 0.20561
 H37 H 0.24920 0.18479 0.23408
 C38 C 0.19057 0.31854 0.30849
 C39 C 0.30122 0.32732 0.18973
 C40 C 0.19023 0.19060 0.19558
 C41 C 0.30774 0.18658 0.30258
 C42 C 0.78793 0.79694 0.23523
 H43 H 0.78956 0.79885 0.25734
 C44 C 0.80591 0.81575 0.21771
 H45 H 0.82137 0.83139 0.22710
 C46 C 0.76700 0.77195 0.19708
 H47 H 0.75180 0.75488 0.18901
 C48 C 0.78471 0.78992 0.17883
 H49 H 0.78175 0.78688 0.15700
 N50 N 0.76881 0.77571 0.22473
 C51 C 0.69859 0.76364 0.28244
 H52 H 0.69423 0.73698 0.27981
 C53 C 0.68080 0.78293 0.29879
 H54 H 0.66328 0.77063 0.30923
 C55 C 0.72644 0.81209 0.27176
 H56 H 0.74393 0.82365 0.26095
 C57 C 0.70929 0.83228 0.28809
 H58 H 0.71390 0.85913 0.28966
 Zn59 Zn 0.74485 0.74947 0.24875
 N60 N 0.72122 0.77821 0.26969
 C61 C 0.75322 0.70176 0.29310
 N62 N 0.76655 0.72083 0.27303
 C63 C 0.79482 0.71927 0.27008
 C64 C 0.81082 0.69864 0.28814
 C65 C 0.76839 0.68076 0.31156
 C66 C 0.69990 0.73691 0.21407
 C67 C 0.68313 0.71783 0.19719
 C68 C 0.71221 0.66838 0.20789
 C69 C 0.72832 0.68837 0.22473
 N70 N 0.72202 0.72200 0.22734
 H71 H 0.73076 0.70280 0.29487
 H72 H 0.80509 0.73377 0.25359
 H73 H 0.83327 0.69763 0.28535
 H74 H 0.75735 0.66637 0.32771
 H75 H 0.69553 0.76379 0.21636
 H76 H 0.66592 0.73026 0.18636
 H77 H 0.71755 0.64167 0.20595
 H78 H 0.74613 0.67716 0.23535
 C79 C 0.68627 0.81764 0.30206
 C80 C 0.80476 0.81241 0.18885
 C81 C 0.68936 0.68315 0.19377
 C82 C 0.79761 0.67916 0.30933
 C83 C 0.79190 0.28527 0.73334
 H84 H 0.79462 0.28521 0.75545
 C85 C 0.80998 0.30411 0.71597
 H86 H 0.82659 0.31849 0.72490
 C87 C 0.76761 0.26558 0.69483
 H88 H 0.75116 0.25045 0.68659
 C89 C 0.78526 0.28392 0.67673
 H90 H 0.78191 0.28304 0.65473
 N91 N 0.77104 0.26672 0.72259
 C92 C 0.70108 0.25756 0.78036
 H93 H 0.69528 0.23148 0.77693
 C94 C 0.68433 0.27752 0.79719
 H95 H 0.66602 0.26635 0.80708
 C96 C 0.73193 0.30371 0.77163
 H97 H 0.75027 0.31408 0.76148
 C98 C 0.71587 0.32452 0.78846
 H99 H 0.72209 0.35069 0.79101
 Zn100 Zn 0.74673 0.24114 0.74662
 N101 N 0.72462 0.27066 0.76828
 C102 C 0.75511 0.19559 0.79226
 N103 N 0.76798 0.21130 0.77025
 C104 C 0.79552 0.20581 0.76508
 C105 C 0.81141 0.18458 0.78278
 C106 C 0.77011 0.17427 0.81061
 C107 C 0.70083 0.23130 0.71239
 C108 C 0.68308 0.21319 0.69575
 C109 C 0.71036 0.16215 0.70619
 C110 C 0.72747 0.18119 0.72281
 N111 N 0.72255 0.21515 0.72540
 H112 H 0.73315 0.20004 0.79598
 H113 H 0.80524 0.21754 0.74691
 H114 H 0.83285 0.18027 0.77668
 H115 H 0.75874 0.16444 0.82848
 H116 H 0.69753 0.25838 0.71471
 H117 H 0.66620 0.22658 0.68512
 H118 H 0.71461 0.13516 0.70424
 H119 H 0.74494 0.16896 0.73329
 C120 C 0.69184 0.31137 0.80166
 C121 C 0.80676 0.30358 0.68724
 C122 C 0.68790 0.17820 0.69231
 C123 C 0.79912 0.16829 0.80654
 C124 C 0.28775 0.79685 0.73893
 H125 H 0.29015 0.79757 0.76105
 C126 C 0.30588 0.81542 0.72143
 H127 H 0.32215 0.83042 0.73027
 C128 C 0.26452 0.77508 0.70057
 H129 H 0.24855 0.75912 0.69245
 C130 C 0.28222 0.79315 0.68235
 H131 H 0.27934 0.79127 0.66035
 N132 N 0.26752 0.77717 0.72832
 C133 C 0.19878 0.76466 0.78750
 H134 H 0.19388 0.73823 0.78441
 C135 C 0.18173 0.78385 0.80465
 H136 H 0.16417 0.77172 0.81517
 C137 C 0.22739 0.81260 0.77735
 H138 H 0.24491 0.82398 0.76646
 C139 C 0.21100 0.83266 0.79447
 H140 H 0.21618 0.85927 0.79655
 Zn141 Zn 0.24400 0.75057 0.75245
 N142 N 0.22140 0.77903 0.77459
 C143 C 0.25371 0.70282 0.79655
 N144 N 0.26625 0.72111 0.77553
 C145 C 0.29421 0.71826 0.77073
 C146 C 0.31078 0.69719 0.78789
 C147 C 0.26948 0.68138 0.81418
 C148 C 0.19807 0.73938 0.71852
 C149 C 0.18073 0.72077 0.70183
 C150 C 0.20938 0.67073 0.71171
 C151 C 0.22607 0.69024 0.72835
 N152 N 0.22028 0.72395 0.73125
 H153 H 0.23146 0.70492 0.79980
 H154 H 0.30376 0.73207 0.75344
 H155 H 0.33297 0.69519 0.78367
 H156 H 0.25916 0.66764 0.83114
 H157 H 0.19409 0.76629 0.72107
 H158 H 0.16346 0.73362 0.69140
 H159 H 0.21432 0.64394 0.70954
 H160 H 0.24393 0.67859 0.73858
 C161 C 0.18796 0.81823 0.80856
 C162 C 0.30333 0.81354 0.69271
 C163 C 0.18645 0.68604 0.69808
 C164 C 0.29846 0.67857 0.81008
 C165 C -0.02475 -0.00950 0.02701
 C166 C -0.00965 0.00600 0.00508
 C167 C -0.02395 0.02198 -0.01705
 C168 C -0.05327 0.02281 -0.01733
 C169 C -0.06818 0.00690 0.00465
 C170 C -0.05409 -0.00947 0.02685
 C171 C 0.02115 0.00530 0.00513
 C172 C 0.03594 -0.01010 -0.01622
 C173 C 0.06526 -0.01098 -0.01636
 C174 C 0.07967 0.00428 0.00496
 C175 C 0.06510 0.02004 0.02637
 C176 C 0.03577 0.02016 0.02642
 H177 H -0.01361 -0.02178 0.04410
 H178 H -0.01219 0.03376 -0.03404
 H179 H 0.02456 -0.02143 -0.03270
 H180 H 0.02425 0.03197 0.04292
 H181 H -0.09080 0.00717 0.00445
 H182 H 0.10230 0.00394 0.00486
 C183 C -0.02607 0.48786 0.52505
 C184 C -0.01084 0.50401 0.50353
 C185 C -0.02497 0.52079 0.48168
 C186 C -0.05430 0.52199 0.48133
 C187 C -0.06934 0.50532 0.50290
 C188 C -0.05540 0.48796 0.52474
 C189 C 0.01994 0.50330 0.50385
 C190 C 0.03494 0.48782 0.48269
 C191 C 0.06426 0.48685 0.48291
 C192 C 0.07844 0.50207 0.50440
 C193 C 0.06364 0.51788 0.52563
 C194 C 0.03432 0.51813 0.52531
 H195 H -0.01500 0.47505 0.54194
 H196 H -0.01303 0.53301 0.46501
 H197 H 0.02374 0.47649 0.46609
 H198 H 0.02262 0.52995 0.54168
 H199 H -0.09196 0.50580 0.50266
 H200 H 0.10106 0.50162 0.50458
 C201 C 0.47114 -0.01318 0.52264
 C202 C 0.48528 0.00121 0.49959
 C203 C 0.46997 0.01569 0.47748
 C204 C 0.44064 0.01624 0.47836
 C205 C 0.42677 0.00149 0.50151
 C206 C 0.44182 -0.01345 0.52367
 C207 C 0.51612 0.00122 0.49869
 C208 C 0.53056 -0.01325 0.47665
 C209 C 0.55989 -0.01367 0.47583
 C210 C 0.57466 0.00102 0.49718
 C211 C 0.56046 0.01581 0.51927
 C212 C 0.53115 0.01561 0.51994
 H213 H 0.48302 -0.02428 0.53972
 H214 H 0.48097 0.02668 0.45967
 H215 H 0.51893 -0.02433 0.46023
 H216 H 0.51996 0.02671 0.53698
 H217 H 0.40416 0.00163 0.50228
 H218 H 0.59728 0.00090 0.49663
 C219 C 0.48048 0.48344 0.01825
 C220 C 0.49550 0.50066 -0.00289
 C221 C 0.48117 0.51792 -0.02438
 C222 C 0.45183 0.51852 -0.02472
 C223 C 0.43702 0.50084 -0.00353
 C224 C 0.45117 0.48299 0.01792
 C225 C 0.52627 0.50028 -0.00269
 C226 C 0.54126 0.48500 -0.02395
 C227 C 0.57058 0.48406 -0.02378
 C228 C 0.58477 0.49924 -0.00227
 C229 C 0.56997 0.51494 0.01902
 C230 C 0.54064 0.51506 0.01877
 H231 H 0.49171 0.47016 0.03482
 H232 H 0.49295 0.53089 -0.04080
 H233 H 0.53002 0.47372 -0.04055
 H234 H 0.52893 0.52671 0.03522
 H235 H 0.41441 0.50084 -0.00379
 H236 H 0.60739 0.49883 -0.00210
 C237 C 0.14158 -0.16382 -0.17197
 C238 C 0.12556 -0.14524 -0.15344
 C239 C 0.13835 -0.12371 -0.13495
 C240 C 0.16769 -0.12132 -0.13534
 C241 C 0.18368 -0.13973 -0.15400
 C242 C 0.17081 -0.16129 -0.17241
 C243 C 0.12043 -0.10567 -0.11490
 C244 C 0.12891 -0.07901 -0.10067
 C245 C 0.11141 -0.06180 -0.07980
 C246 C 0.11967 -0.02964 -0.07122
 C247 C 0.10458 -0.01297 -0.05086
 C248 C 0.08085 -0.02814 -0.03855
 C249 C 0.07246 -0.06025 -0.04712
 C250 C 0.08764 -0.07704 -0.06737
 H251 H 0.13108 -0.18006 -0.18606
 H252 H 0.10306 -0.14779 -0.15352
 H253 H 0.17861 -0.10608 -0.12090
 H254 H 0.20621 -0.13784 -0.15350
 H255 H 0.09917 -0.11444 -0.11250
 H256 H 0.14936 -0.06842 -0.10480
 H257 H 0.13794 -0.01736 -0.08027
 H258 H 0.11140 0.01188 -0.04480
 H259 H 0.05455 -0.07281 -0.03760
 H260 H 0.08096 -0.10223 -0.07254
 C261 C 0.14392 0.33319 0.32915
 C262 C 0.12749 0.35093 0.34789
 C263 C 0.13969 0.37343 0.36601
 C264 C 0.16890 0.37746 0.36517
 C265 C 0.18528 0.35990 0.34630
 C266 C 0.17299 0.33756 0.32813
 C267 C 0.12138 0.39095 0.38603
 C268 C 0.12900 0.41862 0.39950
 C269 C 0.11121 0.43576 0.42018
 C270 C 0.11920 0.46809 0.42864
 C271 C 0.10386 0.48483 0.44878
 C272 C 0.08009 0.46960 0.46094
 C273 C 0.07192 0.43737 0.45248
 C274 C 0.08737 0.42048 0.43247
 H275 H 0.13386 0.31629 0.31527
 H276 H 0.10511 0.34710 0.34819
 H277 H 0.17942 0.39344 0.37937
 H278 H 0.20771 0.36319 0.34636
 H279 H 0.10056 0.38096 0.38894
 H280 H 0.14901 0.43014 0.39483
 H281 H 0.13749 0.48045 0.41969
 H282 H 0.11051 0.50978 0.45478
 H283 H 0.05396 0.42480 0.46189
 H284 H 0.08079 0.39524 0.42737
 C285 C 0.63922 -0.16525 0.32051
 C286 C 0.62254 -0.14674 0.33854
 C287 C 0.63458 -0.12433 0.35682
 C288 C 0.66385 -0.12091 0.35669
 C289 C 0.68049 -0.13927 0.33854
 C290 C 0.66839 -0.16178 0.32038
 C291 C 0.61604 -0.10657 0.37651
 C292 C 0.62371 -0.07924 0.39036
 C293 C 0.60587 -0.06249 0.41123
 C294 C 0.61371 -0.03024 0.41996
 C295 C 0.59857 -0.01415 0.44060
 C296 C 0.57519 -0.02997 0.45302
 C297 C 0.56708 -0.06206 0.44417
 C298 C 0.58232 -0.07829 0.42364
 H299 H 0.62929 -0.18224 0.30661
 H300 H 0.60012 -0.15009 0.33827
 H301 H 0.67422 -0.10496 0.37101
 H302 H 0.70296 -0.13662 0.33929
 H303 H 0.59508 -0.11628 0.37904
 H304 H 0.64384 -0.06787 0.38605
 H305 H 0.63179 -0.01750 0.41092
 H306 H 0.60516 0.01071 0.44687
 H307 H 0.54942 -0.07509 0.45374
 H308 H 0.57591 -0.10352 0.41832
 C309 C 0.64571 0.33177 -0.17994
 C310 C 0.62995 0.35085 -0.16156
 C311 C 0.64307 0.37118 -0.14241
 C312 C 0.67247 0.37190 -0.14201
 C313 C 0.68821 0.35296 -0.16051
 C314 C 0.67502 0.33255 -0.17956
 C315 C 0.62535 0.38965 -0.12247
 C316 C 0.63442 0.41543 -0.10758
 C317 C 0.61699 0.43284 -0.08680
 C318 C 0.62550 0.46480 -0.07802
 C319 C 0.61035 0.48160 -0.05776
 C320 C 0.58634 0.46674 -0.04577
 C321 C 0.57778 0.43477 -0.05448
 C322 C 0.59299 0.41787 -0.07463
 H323 H 0.63497 0.31646 -0.19453
 H324 H 0.60738 0.34962 -0.16224
 H325 H 0.68357 0.38618 -0.12706
 H326 H 0.71078 0.35350 -0.15938
 H327 H 0.60375 0.38200 -0.12069
 H328 H 0.65527 0.42512 -0.11109
 H329 H 0.64398 0.47683 -0.08686
 H330 H 0.61733 0.50634 -0.05157
 H331 H 0.55967 0.42240 -0.04517
 H332 H 0.58618 0.39278 -0.07994
 C333 C -0.19849 0.12513 -0.15575
 C334 C -0.18293 0.10571 -0.13651
 C335 C -0.15385 0.10824 -0.13567
 C336 C -0.14045 0.12990 -0.15528
 C337 C -0.15590 0.14952 -0.17454
 C338 C -0.18552 0.14814 -0.17517
 C339 C -0.13850 0.08757 -0.11427
 C340 C -0.11243 0.09436 -0.10626
 C341 C -0.09761 0.07489 -0.08380
 C342 C -0.07414 0.08969 -0.07211
 C343 C -0.05965 0.07272 -0.05070
 C344 C -0.06831 0.04045 -0.04048
 C345 C -0.09148 0.02529 -0.05240
 C346 C -0.10588 0.04216 -0.07396
 H347 H -0.22067 0.12049 -0.15561
 H348 H -0.19382 0.08857 -0.12207
 H349 H -0.11796 0.13197 -0.15602
 H350 H -0.14404 0.16688 -0.18779
 H351 H -0.15002 0.06730 -0.10370
 H352 H -0.10179 0.11636 -0.11529
 H353 H -0.06715 0.11472 -0.07936
 H354 H -0.04196 0.08510 -0.04179
 H355 H -0.09823 0.00012 -0.04528
 H356 H -0.12315 0.02913 -0.08293
 C357 C -0.19530 0.62519 0.33825
 C358 C -0.18004 0.60531 0.35746
 C359 C -0.15485 0.61719 0.36790
 C360 C -0.14535 0.64970 0.35886
 C361 C -0.16062 0.66955 0.33963
 C362 C -0.18580 0.65758 0.32916
 C363 C -0.13994 0.59560 0.38899
 C364 C -0.11273 0.59878 0.39467
 C365 C -0.09815 0.57811 0.41653
 C366 C -0.07370 0.59109 0.42769
 C367 C -0.05943 0.57284 0.44859
 C368 C -0.06918 0.54097 0.45868
 C369 C -0.09334 0.52759 0.44714
 C370 C -0.10764 0.54586 0.42623
 H371 H -0.21449 0.61509 0.33038
 H372 H -0.18793 0.58049 0.36416
 H373 H -0.12662 0.66045 0.36706
 H374 H -0.15306 0.69471 0.33348
 H375 H -0.15217 0.57645 0.40019
 H376 H -0.10048 0.61791 0.38348
 H377 H -0.06582 0.61574 0.42050
 H378 H -0.04102 0.58400 0.45722
 H379 H -0.10100 0.50274 0.45405
 H380 H -0.12577 0.53429 0.41752
 C381 C 0.35300 0.17835 0.32774
 C382 C 0.37065 0.15912 0.34523
 C383 C 0.36259 0.12684 0.35591
 C384 C 0.33677 0.11365 0.34793
 C385 C 0.31910 0.13292 0.33046
 C386 C 0.32690 0.16561 0.32037
 C387 C 0.38174 0.10798 0.37513
 C388 C 0.37330 0.08345 0.39338
 C389 C 0.39197 0.06603 0.41385
 C390 C 0.38374 0.03442 0.42575
 C391 C 0.39981 0.01790 0.44624
 C392 C 0.42441 0.03279 0.45548
 C393 C 0.43283 0.06429 0.44343
 C394 C 0.41676 0.08083 0.42292
 H395 H 0.35953 0.20355 0.32048
 H396 H 0.39048 0.16981 0.35087
 H397 H 0.33017 0.08838 0.35476
 H398 H 0.29941 0.12210 0.32462
 H399 H 0.40337 0.11565 0.37467
 H400 H 0.35167 0.07573 0.39384
 H401 H 0.36471 0.02251 0.41926
 H402 H 0.39294 -0.00654 0.45490
 H403 H 0.45138 0.07672 0.45052
 H404 H 0.42343 0.10566 0.41504
 C405 C 0.30615 0.62466 -0.16111
 C406 C 0.32222 0.60447 -0.14279
 C407 C 0.34831 0.61567 -0.13400
 C408 C 0.35789 0.64785 -0.14380
 C409 C 0.34183 0.66799 -0.16217
 C410 C 0.31577 0.65668 -0.17098
 C411 C 0.36408 0.59375 -0.11378
 C412 C 0.39154 0.59670 -0.10922
 C413 C 0.40677 0.57564 -0.08808
 C414 C 0.43120 0.58872 -0.07695
 C415 C 0.44592 0.57012 -0.05656
 C416 C 0.43666 0.53780 -0.04701
 C417 C 0.41260 0.52428 -0.05866
 C418 C 0.39784 0.54291 -0.07902
 H419 H 0.28626 0.61510 -0.16771
 H420 H 0.31424 0.57992 -0.13547
 H421 H 0.37734 0.65814 -0.13688
 H422 H 0.34952 0.69287 -0.16894
 H423 H 0.35228 0.57455 -0.10217
 H424 H 0.40347 0.61592 -0.12063
 H425 H 0.43865 0.61374 -0.08370
 H426 H 0.46424 0.58137 -0.04785
 H427 H 0.40534 0.49908 -0.05222
 H428 H 0.37975 0.53132 -0.08782
 C429 C -0.16972 -0.18178 0.14443
 C430 C -0.15178 -0.16377 0.12638
 C431 C -0.14071 -0.13242 0.13347
 C432 C -0.14729 -0.11979 0.15946
 C433 C -0.16500 -0.13795 0.17775
 C434 C -0.17685 -0.16925 0.17053
 C435 C -0.12191 -0.11421 0.11354
 C436 C -0.11921 -0.08015 0.11214
 C437 C -0.10169 -0.06218 0.09092
 C438 C -0.10935 -0.02904 0.08167
 C439 C -0.09382 -0.01179 0.06100
 C440 C -0.07003 -0.02717 0.04948
 C441 C -0.06185 -0.05992 0.05934
 C442 C -0.07750 -0.07728 0.07985
 H443 H -0.17695 -0.20627 0.13805
 H444 H -0.14662 -0.17436 0.10665
 H445 H -0.13860 -0.09603 0.16590
 H446 H -0.17009 -0.12644 0.19708
 H447 H -0.11151 -0.12934 0.09824
 H448 H -0.13180 -0.06463 0.12555
 H449 H -0.12770 -0.01671 0.09011
 H450 H -0.10036 0.01364 0.05406
 H451 H -0.04363 -0.07240 0.05081
 H452 H -0.07050 -0.10238 0.08707
 C453 C -0.16430 0.30900 0.64393
 C454 C -0.14689 0.32770 0.62580
 C455 C -0.13932 0.36120 0.63139
 C456 C -0.14891 0.37536 0.65601
 C457 C -0.16625 0.35657 0.67423
 C458 C -0.17431 0.32329 0.66828
 C459 C -0.12100 0.38009 0.61137
 C460 C -0.12027 0.41429 0.60877
 C461 C -0.10291 0.43286 0.58770
 C462 C -0.11125 0.46576 0.57844
 C463 C -0.09579 0.48378 0.55815
 C464 C -0.07144 0.46938 0.54689
 C465 C -0.06269 0.43680 0.55667
 C466 C -0.07818 0.41876 0.57690
 H467 H -0.16974 0.28320 0.63902
 H468 H -0.13952 0.31603 0.60717
 H469 H -0.14286 0.40071 0.66149
 H470 H -0.17367 0.36828 0.69282
 H471 H -0.10910 0.36503 0.59709
 H472 H -0.13420 0.42940 0.62119
 H473 H -0.13001 0.47739 0.58668
 H474 H -0.10279 0.50907 0.55137
 H475 H -0.04407 0.42499 0.54834
 H476 H -0.07054 0.39395 0.58413
 C477 C 0.33340 -0.18348 0.65010
 C478 C 0.35147 -0.16591 0.63188
 C479 C 0.35916 -0.13219 0.63656
 C480 C 0.34900 -0.11665 0.66039
 C481 C 0.33098 -0.13430 0.67869
 C482 C 0.32281 -0.16780 0.67361
 C483 C 0.37801 -0.11450 0.61632
 C484 C 0.37910 -0.08042 0.61265
 C485 C 0.39636 -0.06319 0.59078
 C486 C 0.38791 -0.03092 0.58021
 C487 C 0.40287 -0.01451 0.55872
 C488 C 0.42683 -0.02991 0.54754
 C489 C 0.43589 -0.06167 0.55880
 C490 C 0.42088 -0.07813 0.58024
 H491 H 0.32793 -0.20950 0.64591
 H492 H 0.35924 -0.17863 0.61388
 H493 H 0.35510 -0.09107 0.66518
 H494 H 0.32315 -0.12156 0.69664
 H495 H 0.38986 -0.13042 0.60261
 H496 H 0.36528 -0.06448 0.62449
 H497 H 0.36932 -0.01865 0.58822
 H498 H 0.39567 0.01024 0.55080
 H499 H 0.45427 -0.07417 0.55060
 H500 H 0.42861 -0.10244 0.58847
 C501 C 0.32510 0.38273 0.17744
 C502 C 0.34143 0.40325 0.15952
 C503 C 0.35197 0.39052 0.13483
 C504 C 0.34533 0.35697 0.12809
 C505 C 0.32894 0.33651 0.14595
 C506 C 0.31868 0.34912 0.17083
 C507 C 0.36880 0.41325 0.11615
 C508 C 0.38758 0.40149 0.09805
 C509 C 0.40406 0.42379 0.07872
 C510 C 0.42883 0.41074 0.06737
 C511 C 0.44437 0.43019 0.04806
 C512 C 0.43533 0.46310 0.03947
 C513 C 0.41059 0.47629 0.05087
 C514 C 0.39506 0.45685 0.07024
 H515 H 0.31714 0.39333 0.19627
 H516 H 0.34593 0.42913 0.16503
 H517 H 0.35228 0.34655 0.10885
 H518 H 0.32446 0.31067 0.14034
 H519 H 0.36633 0.44049 0.11833
 H520 H 0.39192 0.37434 0.09788
 H521 H 0.43608 0.38524 0.07330
 H522 H 0.46310 0.41911 0.03932
 H523 H 0.40317 0.50163 0.04473
 H524 H 0.37571 0.46753 0.07787
 C525 C 0.14340 0.17307 0.17846
 C526 C 0.12694 0.15457 0.16080
 C527 C 0.13930 0.13286 0.14174
 C528 C 0.16865 0.13025 0.14059
 C529 C 0.18508 0.14861 0.15836
 C530 C 0.17265 0.17030 0.17741
 C531 C 0.12096 0.11486 0.12264
 C532 C 0.12913 0.08756 0.10864
 C533 C 0.11136 0.07038 0.08854
 C534 C 0.11943 0.03780 0.08018
 C535 C 0.10423 0.02124 0.06032
 C536 C 0.08057 0.03693 0.04831
 C537 C 0.07230 0.06939 0.05675
 C538 C 0.08758 0.08608 0.07650
 H539 H 0.13322 0.18942 0.19306
 H540 H 0.10443 0.15729 0.16202
 H541 H 0.17919 0.11489 0.12560
 H542 H 0.20760 0.14654 0.15667
 H543 H 0.09971 0.12419 0.12082
 H544 H 0.14959 0.07648 0.11235
 H545 H 0.13770 0.02516 0.08895
 H546 H 0.11097 -0.00390 0.05436
 H547 H 0.05444 0.08235 0.04744
 H548 H 0.08103 0.11156 0.08154
 C549 C 0.13990 0.66990 0.67940
 C550 C 0.12371 0.65177 0.66126
 C551 C 0.13628 0.62949 0.64275
 C552 C 0.16559 0.62595 0.64266
 C553 C 0.18174 0.64392 0.66092
 C554 C 0.16910 0.66616 0.67941
 C555 C 0.11824 0.61189 0.62313
 C556 C 0.12641 0.58439 0.60938
 C557 C 0.10900 0.56755 0.58879
 C558 C 0.11705 0.53495 0.58047
 C559 C 0.10218 0.51863 0.56024
 C560 C 0.07885 0.53459 0.54783
 C561 C 0.07059 0.56710 0.55619
 C562 C 0.08557 0.58354 0.57630
 H563 H 0.12957 0.68672 0.69354
 H564 H 0.10123 0.65523 0.66167
 H565 H 0.17634 0.61013 0.62813
 H566 H 0.20425 0.64111 0.66005
 H567 H 0.09722 0.62174 0.62067
 H568 H 0.14659 0.57286 0.61366
 H569 H 0.13506 0.52207 0.58957
 H570 H 0.10888 0.49345 0.55434
 H571 H 0.05299 0.58024 0.54659
 H572 H 0.07904 0.60904 0.58129
 C573 C 0.64099 0.16362 0.67367
 C574 C 0.62436 0.14609 0.65553
 C575 C 0.63638 0.12340 0.63700
 C576 C 0.66560 0.11876 0.63699
 C577 C 0.68219 0.13611 0.65528
 C578 C 0.67009 0.15883 0.67371
 C579 C 0.61786 0.10657 0.61734
 C580 C 0.62547 0.07932 0.60299
 C581 C 0.60753 0.06329 0.58238
 C582 C 0.61540 0.03109 0.57303
 C583 C 0.60000 0.01551 0.55279
 C584 C 0.57629 0.03179 0.54141
 C585 C 0.56822 0.06388 0.55079
 C586 C 0.58373 0.07962 0.57090
 H587 H 0.63107 0.18084 0.68778
 H588 H 0.60197 0.15039 0.65591
 H589 H 0.67600 0.10256 0.62251
 H590 H 0.70463 0.13247 0.65447
 H591 H 0.59694 0.11687 0.61531
 H592 H 0.64559 0.06738 0.60673
 H593 H 0.63367 0.01796 0.58134
 H594 H 0.60658 -0.00937 0.54608
 H595 H 0.55030 0.07726 0.54200
 H596 H 0.57725 0.10484 0.57670
 C597 C 0.64336 0.66604 0.17449
 C598 C 0.62768 0.64767 0.15608
 C599 C 0.64081 0.62566 0.13772
 C600 C 0.67015 0.62252 0.13814
 C601 C 0.68578 0.64073 0.15668
 C602 C 0.67258 0.66280 0.17494
 C603 C 0.62327 0.60797 0.11772
 C604 C 0.63203 0.58112 0.10348
 C605 C 0.61492 0.56439 0.08258
 C606 C 0.62323 0.53197 0.07405
 C607 C 0.60853 0.51574 0.05364
 C608 C 0.58514 0.53163 0.04126
 C609 C 0.57671 0.56400 0.04978
 C610 C 0.59151 0.58034 0.07007
 H611 H 0.63260 0.68270 0.18846
 H612 H 0.60518 0.65079 0.15613
 H613 H 0.68133 0.60688 0.12380
 H614 H 0.70833 0.63829 0.15618
 H615 H 0.60205 0.61722 0.11534
 H616 H 0.65240 0.57004 0.10758
 H617 H 0.64125 0.51915 0.08316
 H618 H 0.61537 0.49068 0.04761
 H619 H 0.55908 0.57710 0.04019
 H620 H 0.58484 0.60575 0.07519
   
