data_POSCAR
  _audit_creation_date              2014-09-24
  _audit_creation_method            'ToBaCCo'
  _symmetry_space_group_name_H-M    'P1'
  _symmetry_Int_Tables_number       1
  _symmetry_cell_setting            triclinic
  loop_
  _symmetry_equiv_pos_as_xyz
 x,y,z
_cell_length_a 32.6347
_cell_length_b 31.7335
_cell_length_c 38.4923
_cell_angle_alpha 89.960500
_cell_angle_beta 89.988600
_cell_angle_gamma 90.197800
loop_
  _atom_site_label
  _atom_site_type_symbol
  _atom_site_fract_x
  _atom_site_fract_y
  _atom_site_fract_z
B1 B 0.27060 0.23854 0.21690
 B2 B 0.27805 0.28943 0.22704
 B3 B 0.23025 0.27208 0.22025
 B4 B 0.22634 0.22239 0.23580
 B5 B 0.27289 0.20982 0.25333
 B6 B 0.30507 0.25196 0.24762
 B7 B 0.24222 0.27704 0.28974
 B8 B 0.23430 0.22593 0.27894
 B9 B 0.28238 0.24386 0.28630
 B10 B 0.28632 0.29343 0.27047
 B11 B 0.23997 0.30574 0.25316
 B12 B 0.20748 0.26430 0.25875
 B13 B 0.73148 0.76564 0.21773
 B14 B 0.72348 0.71525 0.22925
 B15 B 0.77119 0.73117 0.21978
 B16 B 0.77735 0.78119 0.23408
 B17 B 0.73250 0.79541 0.25345
 B18 B 0.69874 0.75425 0.25047
 B19 B 0.76395 0.72839 0.28952
 B20 B 0.77223 0.77867 0.27781
 B21 B 0.72443 0.76271 0.28747
 B22 B 0.71816 0.71264 0.27301
 B23 B 0.76307 0.69854 0.25385
 B24 B 0.79680 0.73960 0.25675
 B25 B 0.72932 0.22960 -0.21923
 B26 B 0.71642 0.27912 -0.22950
 B27 B 0.76499 0.26870 -0.21826
 B28 B 0.77733 0.22049 -0.23391
 B29 B 0.73553 0.20196 -0.25576
 B30 B 0.69754 0.23865 -0.25306
 B31 B 0.76145 0.27440 -0.28799
 B32 B 0.77444 0.22486 -0.27763
 B33 B 0.72592 0.23544 -0.28897
 B34 B 0.71345 0.28360 -0.27322
 B35 B 0.75528 0.30210 -0.25147
 B36 B 0.79330 0.26540 -0.25419
 B37 B 0.27073 0.75937 -0.28987
 B38 B 0.22223 0.76955 -0.27826
 B39 B 0.23608 0.71972 -0.28664
 B40 B 0.28455 0.71252 -0.27228
 B41 B 0.29988 0.75900 -0.25435
 B42 B 0.26111 0.79466 -0.25800
 B43 B 0.23389 0.72974 -0.21719
 B44 B 0.28244 0.71970 -0.22875
 B45 B 0.26866 0.76950 -0.22042
 B46 B 0.22018 0.77666 -0.23472
 B47 B 0.20478 0.73021 -0.25275
 B48 B 0.24361 0.69451 -0.24906
 B49 B 1.23864 1.27353 0.71156
 B50 B 1.23077 1.22335 0.72369
 B51 B 1.27850 1.23950 0.71421
 B52 B 1.28422 1.28983 0.72818
 B53 B 1.23902 1.30386 0.74699
 B54 B 1.20562 1.26248 0.74423
 B55 B 1.27070 1.23749 0.78392
 B56 B 1.27852 1.28776 0.77196
 B57 B 1.23082 1.27157 0.78128
 B58 B 1.22514 1.22135 0.76735
 B59 B 1.27029 1.20729 0.74853
 B60 B 1.30375 1.24868 0.75132
 B61 B 0.77240 0.73239 0.77958
 B62 B 0.72457 0.71583 0.77135
 B63 B 0.73234 0.76646 0.78221
 B64 B 0.77757 0.78232 0.76464
 B65 B 0.79674 0.74063 0.74194
 B66 B 0.76352 0.69927 0.74600
 B67 B 0.72315 0.76250 0.71267
 B68 B 0.77105 0.77910 0.72101
 B69 B 0.76302 0.72856 0.71004
 B70 B 0.71789 0.71257 0.72773
 B71 B 0.69874 0.75425 0.75032
 B72 B 0.73197 0.79571 0.74618
 B73 B 1.23398 0.72854 0.21748
 B74 B 1.28243 0.71843 0.22927
 B75 B 1.26898 0.76813 0.22014
 B76 B 1.22052 0.77588 0.23421
 B77 B 1.20476 0.72993 0.25295
 B78 B 1.24339 0.69393 0.24989
 B79 B 1.27077 0.75947 0.28973
 B80 B 1.22239 0.76972 0.27782
 B81 B 1.23590 0.72000 0.28705
 B82 B 1.28438 0.71218 0.27290
 B83 B 1.30007 0.75818 0.25427
 B84 B 1.26149 0.79414 0.25729
 B85 B 0.76452 1.26905 0.21831
 B86 B 0.71586 1.27947 0.22925
 B87 B 0.72900 1.22982 0.21967
 B88 B 0.77699 1.22117 0.23459
 B89 B 0.79267 1.26649 0.25434
 B90 B 0.75452 1.30298 0.25107
 B91 B 0.72528 1.23679 0.28932
 B92 B 0.77392 1.22627 0.27825
 B93 B 0.76066 1.27591 0.28796
 B94 B 0.71267 1.28466 0.27294
 B95 B 0.69705 1.23931 0.25329
 B96 B 0.73519 1.20282 0.25656
 N97 N 0.57346 1.04013 0.03771
 N98 N 0.60514 1.06421 0.04568
 N99 N 0.54206 0.95301 0.06243
 N100 N 0.55310 0.92809 0.08841
 N101 N 0.56982 0.95188 0.03764
 N102 N 0.60000 0.92622 0.04605
 N103 N 0.54550 1.04149 0.06231
 N104 N 0.55775 1.06656 0.08774
 C105 C 0.59459 1.08098 0.07655
 C106 C 0.58884 0.91099 0.07736
 N107 N 0.42429 0.95821 0.03761
 N108 N 0.39264 0.93404 0.04559
 N109 N 0.45569 1.04533 0.06262
 N110 N 0.44494 1.07053 0.08850
 N111 N 0.42787 1.04652 0.03789
 N112 N 0.39791 1.07250 0.04625
 N113 N 0.45227 0.95677 0.06219
 N114 N 0.44010 0.93155 0.08757
 Mn115 Mn 0.49888 0.99915 0.06266
 C116 C 0.40327 0.91710 0.07641
 C117 C 0.40926 1.08784 0.07748
 N118 N 0.56997 0.95213 -0.03729
 N119 N 0.60037 0.92684 -0.04593
 N120 N 0.54559 1.04192 -0.06154
 N121 N 0.55780 1.06722 -0.08686
 N122 N 0.57353 1.04041 -0.03695
 N123 N 0.60517 1.06462 -0.04481
 N124 N 0.54224 0.95341 -0.06209
 N125 N 0.55355 0.92899 -0.08831
 Mn126 Mn 0.57163 0.99612 0.00028
 C127 C 0.58941 0.91199 -0.07740
 C128 C 0.59460 1.08164 -0.07561
 N129 N 0.42806 1.04678 -0.03702
 N130 N 0.39839 1.07322 -0.04509
 N131 N 0.45234 0.95721 -0.06178
 N132 N 0.44002 0.93241 -0.08737
 N133 N 0.42432 0.95850 -0.03720
 N134 N 0.39255 0.93463 -0.04539
 N135 N 0.45592 1.04575 -0.06172
 N136 N 0.44552 1.07153 -0.08731
 Mn137 Mn 0.42617 1.00250 0.00031
 Mn138 Mn 0.49901 0.99956 -0.06206
 Cl139 Cl 0.49891 0.99930 0.00030
 C140 C 0.41002 1.08899 -0.07611
 C141 C 0.40310 0.91803 -0.07634
 N142 N 0.95812 0.57357 0.53802
 N143 N 0.92900 0.60165 0.54347
 N144 N 1.04389 0.54116 0.56153
 N145 N 1.07486 0.54587 0.58328
 N146 N 1.04475 0.57052 0.53748
 N147 N 1.07632 0.59605 0.54225
 N148 N 0.95723 0.54420 0.56208
 N149 N 0.92747 0.55157 0.58458
 C150 C 0.90989 0.58723 0.57237
 C151 C 1.09505 0.57985 0.57060
 N152 N 1.04017 0.42137 0.53732
 N153 N 1.06967 0.39356 0.54244
 N154 N 0.95436 0.45338 0.56166
 N155 N 0.92338 0.44856 0.58340
 N156 N 0.95352 0.42412 0.53756
 N157 N 0.92193 0.39862 0.54221
 N158 N 1.04101 0.45052 0.56153
 N159 N 1.07112 0.44337 0.58371
 Mn160 Mn 0.99910 0.49731 0.56214
 C161 C 1.08895 0.40802 0.57125
 C162 C 0.90320 0.41464 0.57060
 N163 N 1.04422 0.57074 0.46281
 N164 N 1.07584 0.59619 0.45796
 N165 N 0.95644 0.54468 0.43898
 N166 N 0.92672 0.55248 0.41657
 N167 N 0.95765 0.57387 0.46314
 N168 N 0.92880 0.60229 0.45782
 N169 N 1.04305 0.54157 0.43864
 N170 N 1.07385 0.54635 0.41671
 Mn171 Mn 1.00120 0.57268 0.50036
 C172 C 1.09425 0.58016 0.42942
 C173 C 0.90948 0.58819 0.42894
 N174 N 0.95286 0.42441 0.46301
 N175 N 0.92125 0.39888 0.45845
 N176 N 1.03993 0.45084 0.43812
 N177 N 1.06928 0.44345 0.41528
 N178 N 1.03942 0.42151 0.46221
 N179 N 1.06839 0.39333 0.45638
 N180 N 0.95338 0.45390 0.43905
 N181 N 0.92218 0.44922 0.41753
 Mn182 Mn 0.99654 0.42233 0.50004
 Mn183 Mn 0.99818 0.49776 0.43827
 Cl184 Cl 0.99877 0.49751 0.50020
 C185 C 0.90218 0.41515 0.43030
 C186 C 1.08690 0.40770 0.42718
 N187 N 1.04376 0.54367 0.06217
 N188 N 1.06906 0.55409 0.08767
 N189 N 0.95904 0.57592 0.03753
 N190 N 0.93545 0.60821 0.04553
 N191 N 0.95767 0.54700 0.06201
 N192 N 0.93305 0.55917 0.08738
 N193 N 1.04485 0.57250 0.03760
 N194 N 1.07084 0.60290 0.04565
 C195 C 1.08622 0.59065 0.07654
 C196 C 0.91895 0.59699 0.07631
 N197 N 0.95788 0.54774 -0.06189
 N198 N 0.93381 0.56047 -0.08746
 N199 N 1.04498 0.57297 -0.03713
 N200 N 1.07080 0.60361 -0.04508
 N201 N 1.04396 0.54440 -0.06186
 N202 N 1.06912 0.55523 -0.08737
 N203 N 0.95918 0.57640 -0.03723
 N204 N 0.93607 0.60905 -0.04532
 Mn205 Mn 1.00201 0.57443 0.00020
 C206 C 0.91992 0.59834 -0.07633
 C207 C 1.08614 0.59176 -0.07608
 N208 N 0.95394 0.45477 0.06188
 N209 N 0.92900 0.44388 0.08752
 N210 N 1.03876 0.42274 0.03730
 N211 N 1.06218 0.39031 0.04536
 N212 N 1.04001 0.45148 0.06189
 N213 N 1.06437 0.43907 0.08736
 N214 N 0.95293 0.42610 0.03720
 N215 N 0.92733 0.39533 0.04537
 Mn216 Mn 0.99884 0.49924 0.06227
 C217 C 0.91210 0.40721 0.07641
 C218 C 1.07845 0.40128 0.07628
 N219 N 1.04026 0.45228 -0.06197
 N220 N 1.06543 0.44060 -0.08709
 N221 N 0.95308 0.42654 -0.03768
 N222 N 0.92743 0.39589 -0.04599
 N223 N 0.95416 0.45542 -0.06222
 N224 N 0.92922 0.44479 -0.08792
 N225 N 1.03892 0.42328 -0.03756
 N226 N 1.06307 0.39136 -0.04539
 Mn227 Mn 0.99905 0.49995 -0.06228
 Mn228 Mn 0.99592 0.42465 -0.00020
 Cl229 Cl 0.99893 0.49955 0.00000
 C230 C 1.07986 0.40294 -0.07598
 C231 C 0.91225 0.40805 -0.07698
 N232 N 0.57103 1.04082 0.53703
 N233 N 0.59868 1.07064 0.54235
 N234 N 0.54000 0.95261 0.56160
 N235 N 0.54546 0.92156 0.58400
 N236 N 0.56835 0.95177 0.53739
 N237 N 0.59383 0.92013 0.54265
 N238 N 0.54274 1.04173 0.56129
 N239 N 0.55038 1.07222 0.58377
 C240 C 0.58503 1.09027 0.57130
 C241 C 0.57876 0.90126 0.57149
 N242 N 0.42324 0.95593 0.53779
 N243 N 0.39626 0.92542 0.54286
 N244 N 0.45447 1.04433 0.56140
 N245 N 0.44937 1.07571 0.58351
 N246 N 0.42594 1.04501 0.53734
 N247 N 0.40064 1.07685 0.54247
 N248 N 0.45173 0.95517 0.56187
 N249 N 0.44486 0.92409 0.58403
 Mn250 Mn 0.49722 0.99845 0.56198
 C251 C 0.41045 0.90561 0.57152
 C252 C 0.41605 1.09602 0.57105
 N253 N 0.56820 0.95137 0.46271
 N254 N 0.59428 0.92035 0.45719
 N255 N 0.54223 1.04098 0.43808
 N256 N 0.54942 1.07159 0.41554
 N257 N 0.57070 1.04038 0.46220
 N258 N 0.59799 1.07051 0.45674
 N259 N 0.53972 0.95185 0.43861
 N260 N 0.54573 0.92114 0.41601
 Mn261 Mn 0.57003 0.99609 0.49983
 C262 C 0.57946 0.90141 0.42832
 C263 C 0.58400 1.08998 0.42783
 N264 N 0.42543 1.04416 0.46250
 N265 N 0.39921 1.07499 0.45658
 N266 N 0.45135 0.95417 0.43892
 N267 N 0.44409 0.92314 0.41687
 N268 N 0.42298 0.95528 0.46311
 N269 N 0.39568 0.92503 0.45819
 N270 N 0.45377 1.04316 0.43828
 N271 N 0.44762 1.07333 0.41523
 Mn272 Mn 0.42393 1.00013 0.50021
 Mn273 Mn 0.49677 0.99754 0.43804
 Cl274 Cl 0.49699 0.99809 0.50000
 C275 C 0.41382 1.09312 0.42726
 C276 C 0.40959 0.90499 0.42954
 N277 N 1.08050 1.03414 0.53959
 N278 N 1.11318 1.05489 0.55066
 N279 N 1.03920 0.94960 0.55922
 N280 N 1.04481 0.92290 0.58491
 N281 N 1.06895 0.94690 0.53634
 N282 N 1.09591 0.91837 0.54630
 N283 N 1.05076 1.03675 0.56248
 N284 N 1.06210 1.05938 0.58944
 C285 C 1.10061 1.07094 0.58144
 C286 C 1.07956 0.90305 0.57608
 N287 N 0.92411 0.96601 0.53527
 N288 N 0.89055 0.94555 0.54491
 N289 N 0.96432 1.04843 0.56153
 N290 N 0.95754 1.07265 0.58864
 N291 N 0.93557 1.05331 0.53800
 N292 N 0.90823 1.08095 0.54878
 N293 N 0.95302 0.96117 0.55867
 N294 N 0.94029 0.93713 0.58435
 Mn295 Mn 1.00184 0.99902 0.56046
 C296 C 0.90180 0.92702 0.57516
 C297 C 0.92319 1.09336 0.57991
 N298 N 1.07034 0.95087 0.46105
 N299 N 1.09644 0.92165 0.45092
 N300 N 1.05351 1.04344 0.44065
 N301 N 1.06635 1.06839 0.41556
 N302 N 1.08228 1.03818 0.46412
 N303 N 1.11573 1.05933 0.45525
 N304 N 1.04174 0.95620 0.43746
 N305 N 1.04729 0.93075 0.41096
 Mn306 Mn 1.07600 0.99246 0.50027
 C307 C 1.08082 0.90891 0.42008
 C308 C 1.10469 1.07867 0.42531
 N309 N 0.93694 1.05714 0.46277
 N310 N 0.90908 1.08449 0.45242
 N311 N 0.95533 0.96776 0.43635
 N312 N 0.94416 0.94451 0.40966
 N313 N 0.92587 0.96977 0.45956
 N314 N 0.89357 0.94801 0.44898
 N315 N 0.96677 1.05496 0.43988
 N316 N 0.96012 1.08082 0.41376
 Mn317 Mn 0.93018 1.01155 0.49888
 Mn318 Mn 1.00437 1.00563 0.43855
 Cl319 Cl 1.00308 1.00219 0.49952
 C320 C 0.92478 1.09972 0.42241
 C321 C 0.90602 0.93197 0.41814
 N322 N 0.58235 0.52660 0.03909
 N323 N 0.61682 0.54385 0.05053
 N324 N 0.53251 0.44674 0.05904
 N325 N 0.53649 0.42125 0.08575
 N326 N 0.56222 0.44102 0.03650
 N327 N 0.58752 0.41169 0.04788
 N328 N 0.55285 0.53221 0.06182
 N329 N 0.56597 0.55356 0.08885
 C330 C 0.60545 0.56103 0.08132
 C331 C 0.57010 0.39891 0.07802
 N332 N 0.41952 0.47553 0.03575
 N333 N 0.38434 0.45855 0.04585
 N334 N 0.46870 0.55319 0.06099
 N335 N 0.46478 0.57770 0.08828
 N336 N 0.44004 0.56100 0.03793
 N337 N 0.41548 0.59090 0.04942
 N338 N 0.44827 0.46768 0.05870
 N339 N 0.43391 0.44494 0.08449
 Mn340 Mn 0.50057 0.49995 0.06006
 C341 C 0.39450 0.43895 0.07592
 C342 C 0.43232 0.60167 0.08031
 N343 N 0.56322 0.44390 -0.03892
 N344 N 0.58773 0.41394 -0.05036
 N345 N 0.55478 0.53716 -0.05982
 N346 N 0.56906 0.55939 -0.08593
 N347 N 0.58369 0.52936 -0.03698
 N348 N 0.61892 0.54585 -0.04756
 N349 N 0.53452 0.45165 -0.06197
 N350 N 0.53838 0.42705 -0.08922
 Mn351 Mn 0.57342 0.48517 -0.00008
 C352 C 0.57085 0.40310 -0.08122
 C353 C 0.60860 0.56512 -0.07777
 N354 N 0.44115 0.56397 -0.03736
 N355 N 0.41615 0.59373 -0.04840
 N356 N 0.45028 0.47262 -0.06279
 N357 N 0.43713 0.45098 -0.08964
 N358 N 0.42084 0.47840 -0.04005
 N359 N 0.38639 0.46091 -0.05125
 N360 N 0.47066 0.55811 -0.06005
 N361 N 0.46684 0.58392 -0.08657
 Mn362 Mn 0.42986 0.51979 -0.00093
 Mn363 Mn 0.50257 0.50487 -0.06108
 Cl364 Cl 0.50162 0.50244 -0.00051
 C365 C 0.43355 0.60661 -0.07851
 C366 C 0.39768 0.44348 -0.08195
 C367 C 0.33586 1.16506 0.13630
 C368 C 0.29507 1.15487 0.14462
 C369 C 0.27264 1.18011 0.16791
 C370 C 0.29073 1.21589 0.18335
 C371 C 0.33127 1.22640 0.17345
 C372 C 0.35329 1.20154 0.15017
 C373 C 0.36113 1.13746 0.11528
 C374 C 0.38332 1.11492 0.09820
 H375 H 0.28107 1.12666 0.13408
 H376 H 0.24198 1.17037 0.17515
 H377 H 0.34718 1.25285 0.18501
 H378 H 0.38470 1.20994 0.14412
 C379 C 0.82805 0.65774 0.62787
 C380 C 0.84614 0.69271 0.64359
 C381 C 0.82442 0.71656 0.66764
 C382 C 0.78342 0.70669 0.67638
 C383 C 0.76465 0.67248 0.65919
 C384 C 0.78689 0.64806 0.63516
 C385 C 0.85372 0.63088 0.60671
 C386 C 0.87825 0.61017 0.59048
 H387 H 0.87792 0.70055 0.63844
 H388 H 0.84086 0.74168 0.68059
 H389 H 0.73356 0.66329 0.66552
 H390 H 0.77247 0.62086 0.62329
 C391 C 0.66343 0.83633 0.13705
 C392 C 0.64565 0.80176 0.15364
 C393 C 0.66824 0.77792 0.17720
 C394 C 0.70969 0.78754 0.18465
 C395 C 0.72798 0.82141 0.16666
 C396 C 0.70496 0.84566 0.14306
 C397 C 0.63782 0.86296 0.11559
 C398 C 0.61524 0.88473 0.09827
 H399 H 0.61366 0.79409 0.14938
 H400 H 0.65227 0.75286 0.19068
 H401 H 0.75940 0.83036 0.17195
 H402 H 0.71919 0.87245 0.13039
 C403 C 1.17204 0.34011 0.62765
 C404 C 1.21332 0.35019 0.63408
 C405 C 1.23594 0.32723 0.65886
 C406 C 1.21743 0.29412 0.67768
 C407 C 1.17622 0.28392 0.66993
 C408 C 1.15415 0.30627 0.64514
 C409 C 1.14599 0.36568 0.60572
 C410 C 1.12106 0.38555 0.58919
 H411 H 1.22757 0.37659 0.62087
 H412 H 1.26717 0.33666 0.66439
 H413 H 1.15996 0.25962 0.68408
 H414 H 1.12227 0.29820 0.64073
 C415 C 0.66684 1.15613 -0.13685
 C416 C 0.64504 1.18346 -0.15815
 C417 C 0.66527 1.20737 -0.18304
 C418 C 0.70829 1.20521 -0.18714
 C419 C 0.73039 1.17842 -0.16486
 C420 C 0.70970 1.15386 -0.13986
 C421 C 0.64372 1.12934 -0.11374
 C422 C 0.62172 1.10760 -0.09593
 H423 H 0.61197 1.18553 -0.15620
 H424 H 0.64654 1.22719 -0.19943
 H425 H 0.76330 1.17556 -0.16738
 H426 H 0.72693 1.13255 -0.12349
 C427 C 1.17406 0.64610 0.36942
 C428 C 1.21703 0.64530 0.36730
 C429 C 1.23744 0.66952 0.34189
 C430 C 1.21492 0.69443 0.31841
 C431 C 1.17179 0.69487 0.32148
 C432 C 1.15186 0.67131 0.34668
 C433 C 1.15082 0.62063 0.39337
 C434 C 1.12666 0.60122 0.41097
 H435 H 1.23458 0.62569 0.38483
 H436 H 1.27052 0.66819 0.34023
 H437 H 1.15279 0.71348 0.30436
 H438 H 1.11868 0.67228 0.34800
 C439 C 0.33111 0.84516 -0.13915
 C440 C 0.28805 0.84482 -0.14056
 C441 C 0.26754 0.82017 -0.16562
 C442 C 0.29000 0.79589 -0.18953
 C443 C 0.33326 0.79653 -0.18716
 C444 C 0.35333 0.82057 -0.16231
 C445 C 0.35393 0.87137 -0.11535
 C446 C 0.37586 0.89263 -0.09707
 H447 H 0.27045 0.86391 -0.12269
 H448 H 0.23440 0.82063 -0.16664
 H449 H 0.35230 0.77835 -0.20454
 H450 H 0.38654 0.82043 -0.16155
 C451 C 0.82186 0.34876 0.37122
 C452 C 0.84396 0.32212 0.34957
 C453 C 0.82415 0.29869 0.32427
 C454 C 0.78119 0.30053 0.32006
 C455 C 0.75870 0.32671 0.34258
 C456 C 0.77902 0.35091 0.36805
 C457 C 0.84521 0.37455 0.39484
 C458 C 0.86953 0.39408 0.41216
 H459 H 0.87704 0.32015 0.35166
 H460 H 0.84317 0.27930 0.30777
 H461 H 0.72577 0.32926 0.33997
 H462 H 0.76155 0.37167 0.38468
 C463 C 1.15204 0.33041 0.13906
 C464 C 1.17511 0.35498 0.16172
 C465 C 1.19979 0.33619 0.18658
 C466 C 1.20266 0.29183 0.18952
 C467 C 1.17980 0.26698 0.16617
 C468 C 1.15448 0.28622 0.14106
 C469 C 1.12540 0.35218 0.11510
 C470 C 1.10391 0.37382 0.09681
 H471 H 1.17366 0.38908 0.16051
 H472 H 1.21679 0.35716 0.20342
 H473 H 1.18108 0.23293 0.16760
 H474 H 1.13661 0.26675 0.12359
 C475 C 0.64640 0.82224 0.63148
 C476 C 0.64678 0.77806 0.63423
 C477 C 0.67197 0.75826 0.65913
 C478 C 0.69674 0.78259 0.68147
 C479 C 0.69599 0.82689 0.67773
 C480 C 0.67147 0.84621 0.65307
 C481 C 0.62016 0.84501 0.60791
 C482 C 0.60024 0.86894 0.59035
 H483 H 0.62736 0.75908 0.61760
 H484 H 0.67148 0.72425 0.66133
 H485 H 0.71432 0.84736 0.69399
 H486 H 0.67162 0.88031 0.65126
 C487 C 1.16276 0.66522 -0.13502
 C488 C 1.15518 0.70791 -0.14216
 C489 C 1.17973 0.72995 -0.16618
 C490 C 1.21206 0.70945 -0.18349
 C491 C 1.22000 0.66693 -0.17481
 C492 C 1.19589 0.64534 -0.15080
 C493 C 1.13549 0.64035 -0.11358
 C494 C 1.11309 0.61809 -0.09645
 H495 H 1.12947 0.72372 -0.13013
 H496 H 1.17212 0.76225 -0.17243
 H497 H 1.24383 0.64928 -0.18775
 H498 H 1.20212 0.61239 -0.14566
 C499 C 0.65397 1.17187 0.37127
 C500 C 0.68579 1.15141 0.35409
 C501 C 0.70960 1.17287 0.32986
 C502 C 0.70284 1.21589 0.32243
 C503 C 0.67173 1.23690 0.34092
 C504 C 0.64732 1.21494 0.36515
 C505 C 0.62725 1.14669 0.39292
 C506 C 0.60664 1.12210 0.40946
 H507 H 0.69124 1.11814 0.35839
 H508 H 0.73245 1.15485 0.31601
 H509 H 0.66506 1.26967 0.33561
 H510 H 0.62258 1.23116 0.37820
 C511 C 0.84567 0.66928 0.13813
 C512 C 0.84514 0.71353 0.14005
 C513 C 0.82058 0.73393 0.16501
 C514 C 0.79658 0.71017 0.18834
 C515 C 0.79736 0.66572 0.18540
 C516 C 0.82127 0.64578 0.16061
 C517 C 0.87205 0.64648 0.11469
 C518 C 0.89345 0.62442 0.09672
 H519 H 0.86410 0.73215 0.12274
 H520 H 0.82104 0.76799 0.16654
 H521 H 0.77960 0.64564 0.20244
 H522 H 0.82131 0.61164 0.15949
 C523 C 0.35136 1.17693 0.63176
 C524 C 0.32823 1.15369 0.65537
 C525 C 0.30515 1.17383 0.68057
 C526 C 0.30395 1.21828 0.68290
 C527 C 0.32683 1.24184 0.65861
 C528 C 0.35057 1.22121 0.63314
 C529 C 0.37612 1.15337 0.60754
 C530 C 0.39514 1.12887 0.58976
 H531 H 0.32841 1.11953 0.65466
 H532 H 0.28809 1.15387 0.69822
 H533 H 0.32686 1.27593 0.65962
 H534 H 0.36849 1.23965 0.61493
 C535 C 0.83662 0.33503 -0.13716
 C536 C 0.80546 0.35561 -0.15510
 C537 C 0.78151 0.33381 -0.17906
 C538 C 0.78761 0.29041 -0.18556
 C539 C 0.81809 0.26942 -0.16635
 C540 C 0.84250 0.29164 -0.14234
 C541 C 0.86351 0.35971 -0.11523
 C542 C 0.88562 0.38183 -0.09773
 H543 H 0.80053 0.38908 -0.15147
 H544 H 0.75896 0.35173 -0.19335
 H545 H 0.82420 0.23636 -0.17084
 H546 H 0.86666 0.27528 -0.12863
 C547 C 0.33964 0.82292 0.37355
 C548 C 0.30762 0.84334 0.35661
 C549 C 0.28441 0.82223 0.33183
 C550 C 0.29194 0.77956 0.32365
 C551 C 0.32312 0.75849 0.34204
 C552 C 0.34697 0.78014 0.36678
 C553 C 0.36624 0.84805 0.39523
 C554 C 0.38685 0.87271 0.41161
 H555 H 0.30173 0.87643 0.36138
 H556 H 0.26162 0.84035 0.31800
 H557 H 0.33042 0.72603 0.33615
 H558 H 0.37192 0.76399 0.37962
 C559 C 1.17185 1.14349 0.35428
 C560 C 1.14914 1.17116 0.33367
 C561 C 1.16854 1.19533 0.30821
 C562 C 1.21130 1.19285 0.30351
 C563 C 1.23318 1.16220 0.32235
 C564 C 1.21368 1.13812 0.34795
 C565 C 1.15145 1.12039 0.38138
 C566 C 1.13174 1.10146 0.40277
 H567 H 1.11650 1.17479 0.33781
 H568 H 1.15021 1.21749 0.29361
 H569 H 1.26552 1.15731 0.31799
 H570 H 1.23130 1.11576 0.36304
 C571 C 0.67340 0.62824 -0.15053
 C572 C 0.66575 0.62098 -0.18593
 C573 C 0.68130 0.64884 -0.21109
 C574 C 0.70413 0.68439 -0.20090
 C575 C 0.71118 0.69078 -0.16502
 C576 C 0.69613 0.66309 -0.14031
 C577 C 0.65443 0.60327 -0.12402
 C578 C 0.63589 0.58495 -0.10167
 H579 H 0.64743 0.59420 -0.19400
 H580 H 0.67546 0.64259 -0.23828
 H581 H 0.72893 0.71707 -0.15546
 H582 H 0.70173 0.66935 -0.11303
 C583 C 0.85548 1.15699 0.65036
 C584 C 0.86047 1.15154 0.68622
 C585 C 0.83453 1.17254 0.70940
 C586 C 0.80340 1.19897 0.69674
 C587 C 0.79902 1.20363 0.66045
 C588 C 0.82474 1.18290 0.63762
 C589 C 0.88068 1.13540 0.62594
 C590 C 0.90042 1.11702 0.60458
 H591 H 0.88430 1.13116 0.69620
 H592 H 0.83903 1.16824 0.73703
 H593 H 0.77601 1.22383 0.64921
 H594 H 0.82060 1.18715 0.60989
 C595 C 0.36685 0.66025 0.15462
 C596 C 0.37239 0.65271 0.19020
 C597 C 0.34525 0.67035 0.21432
 C598 C 0.31238 0.69524 0.20278
 C599 C 0.30757 0.70188 0.16673
 C600 C 0.33446 0.68465 0.14306
 C601 C 0.39224 0.64131 0.12901
 C602 C 0.41120 0.62458 0.10632
 H603 H 0.39746 0.63327 0.19919
 H604 H 0.35014 0.66478 0.24175
 H605 H 0.28341 0.72120 0.15625
 H606 H 0.32982 0.69033 0.11555
 C607 C 1.14249 0.83524 0.64716
 C608 C 1.17120 0.80633 0.63553
 C609 C 1.19593 0.78563 0.65919
 C610 C 1.19247 0.79321 0.69523
 C611 C 1.16291 0.82213 0.70680
 C612 C 1.13806 0.84318 0.68278
 C613 C 1.11945 0.85801 0.62190
 C614 C 1.10125 0.87765 0.60029
 H615 H 1.17504 0.80027 0.60801
 H616 H 1.21834 0.76420 0.64869
 H617 H 1.15928 0.82886 0.73419
 H618 H 1.11584 0.86592 0.69189
 C619 C 0.63487 0.34051 0.15315
 C620 C 0.62819 0.34744 0.18869
 C621 C 0.65428 0.32900 0.21329
 C622 C 0.68720 0.30382 0.20231
 C623 C 0.69319 0.29787 0.16628
 C624 C 0.66740 0.31595 0.14214
 C625 C 0.61010 0.35960 0.12710
 C626 C 0.59139 0.37623 0.10416
 H627 H 0.60297 0.36693 0.19729
 H628 H 0.64846 0.33407 0.24065
 H629 H 0.71729 0.27821 0.15615
 H630 H 0.67287 0.31062 0.11471
 C631 C 0.83835 0.86319 0.34992
 C632 C 0.84408 0.86758 0.31400
 C633 C 0.82298 0.84117 0.29088
 C634 C 0.79606 0.81001 0.30354
 C635 C 0.79065 0.80650 0.33984
 C636 C 0.81149 0.83276 0.36267
 C637 C 0.86110 0.88833 0.37417
 C638 C 0.88078 0.90837 0.39480
 H639 H 0.86512 0.89106 0.30391
 H640 H 0.82805 0.84496 0.26327
 H641 H 0.77058 0.78305 0.35107
 H642 H 0.80701 0.82892 0.39039
 C643 C 0.33342 0.37685 -0.15312
 C644 C 0.31036 0.34279 -0.14158
 C645 C 0.29398 0.31463 -0.16531
 C646 C 0.30007 0.31976 -0.20143
 C647 C 0.32331 0.35446 -0.21294
 C648 C 0.34012 0.38281 -0.18881
 C649 C 0.35299 0.40282 -0.12762
 C650 C 0.37142 0.42220 -0.10583
 H651 H 0.30539 0.33759 -0.11406
 H652 H 0.27603 0.28901 -0.15480
 H653 H 0.32848 0.35971 -0.24039
 H654 H 0.35859 0.40901 -0.19791
 C655 C 1.15514 0.33241 -0.13743
 C656 C 1.15648 0.28819 -0.13923
 C657 C 1.18143 0.26819 -0.16410
 C658 C 1.20502 0.29232 -0.18747
 C659 C 1.20349 0.33673 -0.18467
 C660 C 1.17916 0.35631 -0.15995
 C661 C 1.12821 0.35465 -0.11408
 C662 C 1.10617 0.37612 -0.09619
 H663 H 1.13783 0.26927 -0.12189
 H664 H 1.18158 0.23412 -0.16553
 H665 H 1.22097 0.35701 -0.20177
 H666 H 1.17848 0.39044 -0.15891
 C667 C 0.64862 0.82323 0.36869
 C668 C 0.64816 0.77910 0.36565
 C669 C 0.67337 0.75905 0.34097
 C670 C 0.69905 0.78306 0.31909
 C671 C 0.69929 0.82730 0.32317
 C672 C 0.67473 0.84689 0.34770
 C673 C 0.62195 0.84609 0.39185
 C674 C 0.60155 0.86970 0.40930
 H675 H 0.62792 0.76036 0.38180
 H676 H 0.67199 0.72511 0.33842
 H677 H 0.71818 0.84746 0.30707
 H678 H 0.67548 0.88097 0.34971
 C679 C 0.84806 0.67126 -0.13893
 C680 C 0.84672 0.71553 -0.14063
 C681 C 0.82208 0.73569 -0.16573
 C682 C 0.79880 0.71168 -0.18937
 C683 C 0.80053 0.66721 -0.18669
 C684 C 0.82451 0.64753 -0.16183
 C685 C 0.87409 0.64856 -0.11510
 C686 C 0.89505 0.62627 -0.09691
 H687 H 0.86499 0.73434 -0.12296
 H688 H 0.82173 0.76977 -0.16698
 H689 H 0.78322 0.64685 -0.20381
 H690 H 0.82512 0.61339 -0.16086
 C691 C 0.35630 1.18088 0.36728
 C692 C 0.32283 1.20564 0.37729
 C693 C 0.30091 1.22867 0.35230
 C694 C 0.31155 1.22643 0.31687
 C695 C 0.34694 1.20333 0.30782
 C696 C 0.36889 1.18091 0.33268
 C697 C 0.37605 1.15227 0.39106
 C698 C 0.39317 1.12612 0.40859
 H699 H 0.31282 1.20600 0.40411
 H700 H 0.27475 1.24641 0.36070
 H701 H 0.35688 1.20049 0.28111
 H702 H 0.39475 1.16199 0.32453
 C703 C 1.16305 0.66350 0.13559
 C704 C 1.19555 0.64335 0.15208
 C705 C 1.21959 0.66501 0.17606
 C706 C 1.21219 0.70783 0.18399
 C707 C 1.18051 0.72853 0.16600
 C708 C 1.15603 0.70644 0.14200
 C709 C 1.13580 0.63873 0.11412
 C710 C 1.11332 0.61665 0.09697
 H711 H 1.20134 0.61021 0.14748
 H712 H 1.24298 0.64726 0.18950
 H713 H 1.17334 0.76109 0.17165
 H714 H 1.13081 0.72245 0.12941
 C715 C 0.65546 1.17093 0.62845
 C716 C 0.68618 1.14993 0.64661
 C717 C 0.70969 1.17114 0.67117
 C718 C 0.70368 1.21442 0.67797
 C719 C 0.67368 1.23592 0.65854
 C720 C 0.64959 1.21423 0.63398
 C721 C 0.62888 1.14617 0.60642
 C722 C 0.60814 1.12195 0.58968
 H723 H 0.69101 1.11647 0.64277
 H724 H 0.73177 1.15285 0.68566
 H725 H 0.66766 1.26894 0.66330
 H726 H 0.62569 1.23087 0.62016
 C727 C 0.83639 0.33430 0.13668
 C728 C 0.80505 0.35505 0.15423
 C729 C 0.78104 0.33355 0.17837
 C730 C 0.78727 0.29030 0.18544
 C731 C 0.81794 0.26911 0.16660
 C732 C 0.84241 0.29103 0.14242
 C733 C 0.86335 0.35876 0.11461
 C734 C 0.88548 0.38085 0.09707
 H735 H 0.80001 0.38843 0.15017
 H736 H 0.75834 0.35162 0.19235
 H737 H 0.82415 0.23616 0.17154
 H738 H 0.86672 0.27454 0.12901
 C739 C 0.34065 0.82264 0.62684
 C740 C 0.30761 0.84260 0.64268
 C741 C 0.28399 0.82141 0.66715
 C742 C 0.29213 0.77908 0.67611
 C743 C 0.32433 0.75838 0.65873
 C744 C 0.34859 0.78014 0.63431
 C745 C 0.36753 0.84805 0.60560
 C746 C 0.38809 0.87299 0.58944
 H747 H 0.30123 0.87548 0.63736
 H748 H 0.26050 0.83933 0.68027
 H749 H 0.33214 0.72622 0.66527
 H750 H 0.37434 0.76435 0.62233
 C751 C 0.33721 1.16647 -0.13490
 C752 C 0.29569 1.15752 -0.14123
 C753 C 0.27311 1.18210 -0.16485
 C754 C 0.29183 1.21590 -0.18261
 C755 C 0.33319 1.22534 -0.17471
 C756 C 0.35538 1.20112 -0.15110
 C757 C 0.36236 1.13909 -0.11370
 C758 C 0.38436 1.11644 -0.09663
 H759 H 0.28116 1.13069 -0.12886
 H760 H 0.24172 1.17331 -0.17045
 H761 H 0.34941 1.25039 -0.18800
 H762 H 0.38739 1.20850 -0.14657
 C763 C 0.82887 0.65909 0.37262
 C764 C 0.84772 0.69257 0.35534
 C765 C 0.82620 0.71593 0.33083
 C766 C 0.78472 0.70704 0.32317
 C767 C 0.76527 0.67438 0.34186
 C768 C 0.78728 0.65045 0.36635
 C769 C 0.85409 0.63243 0.39429
 C770 C 0.87825 0.61159 0.41078
 H771 H 0.87984 0.69955 0.35970
 H772 H 0.84301 0.73995 0.31681
 H773 H 0.73373 0.66603 0.33643
 H774 H 0.77229 0.62441 0.37945
 C775 C 0.66680 1.15528 0.13785
 C776 C 0.70968 1.15319 0.14086
 C777 C 0.73028 1.17799 0.16574
 C778 C 0.70807 1.20484 0.18787
 C779 C 0.66503 1.20675 0.18378
 C780 C 0.64490 1.18261 0.15904
 C781 C 0.64376 1.12846 0.11476
 C782 C 0.62174 1.10678 0.09694
 H783 H 0.72700 1.13190 0.12457
 H784 H 0.76321 1.17534 0.16824
 H785 H 0.64620 1.22663 0.20001
 H786 H 0.61182 1.18456 0.15707
 C787 C 1.17470 0.64529 0.63104
 C788 C 1.21771 0.64544 0.63274
 C789 C 1.23794 0.66958 0.65830
 C790 C 1.21520 0.69346 0.68232
 C791 C 1.17202 0.69289 0.67971
 C792 C 1.15227 0.66939 0.65441
 C793 C 1.15161 0.62013 0.60677
 C794 C 1.12750 0.60089 0.58903
 H795 H 1.23545 0.62672 0.61471
 H796 H 1.27108 0.66913 0.65953
 H797 H 1.15282 0.71082 0.69713
 H798 H 1.11906 0.66966 0.65340
 C799 C 0.66461 0.83792 -0.13725
 C800 C 0.70573 0.84817 -0.14434
 C801 C 0.72878 0.82371 -0.16779
 C802 C 0.71099 0.78869 -0.18458
 C803 C 0.67000 0.77823 -0.17603
 C804 C 0.64739 0.80227 -0.15262
 C805 C 0.63881 0.86453 -0.11586
 C806 C 0.61605 0.88610 -0.09849
 H807 H 0.71956 0.87579 -0.13264
 H808 H 0.75978 0.83339 -0.17397
 H809 H 0.65430 0.75235 -0.18862
 H810 H 0.61574 0.79384 -0.14754
 C811 C 1.17593 0.34536 0.37265
 C812 C 1.20064 0.36731 0.34906
 C813 C 1.22504 0.34537 0.32526
 C814 C 1.22471 0.30081 0.32401
 C815 C 1.20252 0.27944 0.35012
 C816 C 1.17818 0.30141 0.37394
 C817 C 1.14585 0.36755 0.39329
 C818 C 1.11944 0.38591 0.40930
 H819 H 1.19967 0.40141 0.34795
 H820 H 1.24224 0.36362 0.30645
 H821 H 1.20307 0.24576 0.35227
 H822 H 1.15992 0.28390 0.39255
 C823 C 0.33153 0.84314 0.13857
 C824 C 0.28851 0.84343 0.14034
 C825 C 0.26794 0.81878 0.16537
 C826 C 0.29032 0.79388 0.18891
 C827 C 0.33355 0.79381 0.18616
 C828 C 0.35367 0.81785 0.16129
 C829 C 0.35436 0.86966 0.11501
 C830 C 0.37620 0.89126 0.09692
 H831 H 0.27098 0.86310 0.12284
 H832 H 0.23483 0.81985 0.16674
 H833 H 0.35248 0.77522 0.20335
 H834 H 0.38686 0.81727 0.16026
 C835 C 0.82290 0.34741 0.62908
 C836 C 0.78015 0.35018 0.63257
 C837 C 0.75970 0.32571 0.65779
 C838 C 0.78198 0.29862 0.67974
 C839 C 0.82484 0.29608 0.67517
 C840 C 0.84479 0.31979 0.65008
 C841 C 0.84636 0.37364 0.60587
 C842 C 0.87066 0.39345 0.58875
 H843 H 0.76287 0.37171 0.61644
 H844 H 0.72687 0.32889 0.66074
 H845 H 0.84368 0.27613 0.69137
 H846 H 0.87781 0.31737 0.64774
 C847 C 1.16770 1.13741 0.65111
 C848 C 1.19432 1.16814 0.63865
 C849 C 1.21413 1.19485 0.66166
 C850 C 1.20798 1.19143 0.69788
 C851 C 1.18139 1.15985 0.71029
 C852 C 1.16121 1.13301 0.68694
 C853 C 1.14542 1.11260 0.62649
 C854 C 1.12596 1.09331 0.60533
 H855 H 1.19923 1.17204 0.61098
 H856 H 1.23385 1.21868 0.65055
 H857 H 1.17581 1.15615 0.73785
 H858 H 1.14023 1.10929 0.69674
 C859 C 0.66890 0.62696 0.15344
 C860 C 0.66228 0.62039 0.18908
 C861 C 0.67881 0.64857 0.21351
 C862 C 0.70167 0.68371 0.20236
 C863 C 0.70758 0.68947 0.16626
 C864 C 0.69150 0.66151 0.14226
 C865 C 0.64974 0.60112 0.12761
 C866 C 0.63160 0.58196 0.10551
 H867 H 0.64415 0.59381 0.19791
 H868 H 0.67383 0.64279 0.24091
 H869 H 0.72537 0.71534 0.15598
 H870 H 0.69641 0.66718 0.11479
 C871 C 1.14270 0.83833 0.35038
 C872 C 1.17096 0.80942 0.36284
 C873 C 1.19570 0.78776 0.33982
 C874 C 1.19268 0.79438 0.30364
 C875 C 1.16357 0.82329 0.29124
 C876 C 1.13871 0.84530 0.31460
 C877 C 1.11979 0.86220 0.37494
 C878 C 1.10185 0.88271 0.39611
 H879 H 1.17444 0.80413 0.39051
 H880 H 1.21773 0.76631 0.35089
 H881 H 1.16028 0.82929 0.26370
 H882 H 1.11686 0.86805 0.30486
 C883 C 0.63505 0.34226 -0.15515
 C884 C 0.62883 0.34847 -0.19081
 C885 C 0.65506 0.32931 -0.21487
 C886 C 0.68766 0.30415 -0.20319
 C887 C 0.69322 0.29891 -0.16706
 C888 C 0.66727 0.31770 -0.14344
 C889 C 0.61026 0.36226 -0.12966
 C890 C 0.59168 0.37967 -0.10709
 H891 H 0.60387 0.36798 -0.19994
 H892 H 0.64960 0.33385 -0.24235
 H893 H 0.71711 0.27934 -0.15644
 H894 H 0.67238 0.31297 -0.11588
 C895 C 0.85592 1.16139 0.35148
 C896 C 0.86119 1.15539 0.31570
 C897 C 0.83488 1.17531 0.29215
 C898 C 0.80308 1.20120 0.30435
 C899 C 0.79841 1.20640 0.34056
 C900 C 0.82449 1.18674 0.36377
 C901 C 0.88150 1.14080 0.37625
 C902 C 0.90157 1.12303 0.39777
 H903 H 0.88553 1.13543 0.30607
 H904 H 0.83965 1.17067 0.26459
 H905 H 0.77491 1.22627 0.35146
 H906 H 0.82012 1.19140 0.39142
 C907 C 0.36740 0.66407 -0.15309
 C908 C 0.37308 0.65589 -0.18855
 C909 C 0.34577 0.67269 -0.21296
 C910 C 0.31257 0.69738 -0.20185
 C911 C 0.30763 0.70470 -0.16590
 C912 C 0.33469 0.68830 -0.14193
 C913 C 0.39294 0.64580 -0.12721
 C914 C 0.41210 0.62941 -0.10445
 H915 H 0.39838 0.63656 -0.19723
 H916 H 0.35080 0.66662 -0.24030
 H917 H 0.28320 0.72391 -0.15574
 H918 H 0.32992 0.69446 -0.11452
 C919 C 0.83285 0.86245 0.64513
 C920 C 0.80582 0.83140 0.63391
 C921 C 0.78635 0.80559 0.65793
 C922 C 0.79327 0.81022 0.69399
 C923 C 0.82022 0.84214 0.70513
 C924 C 0.84001 0.86806 0.68077
 C925 C 0.85507 0.88629 0.61963
 C926 C 0.87503 0.90502 0.59835
 H927 H 0.80035 0.82650 0.60643
 H928 H 0.76629 0.78146 0.64776
 H929 H 0.82641 0.84677 0.73249
 H930 H 0.86131 0.89198 0.68967
 C931 C 0.32852 0.37603 0.14801
 C932 C 0.30487 0.34163 0.13813
 C933 C 0.28963 0.31435 0.16313
 C934 C 0.29751 0.32080 0.19886
 C935 C 0.32108 0.35600 0.20866
 C936 C 0.33672 0.38338 0.18328
 C937 C 0.34795 0.40046 0.12143
 C938 C 0.36694 0.41876 0.09937
 H939 H 0.29886 0.33530 0.11093
 H940 H 0.27151 0.28811 0.15397
 H941 H 0.32761 0.36223 0.23575
 H942 H 0.35571 0.40980 0.19106
   
