data_POSCAR
  _audit_creation_date              2014-09-24
  _audit_creation_method            'ToBaCCo'
  _symmetry_space_group_name_H-M    'P1'
  _symmetry_Int_Tables_number       1
  _symmetry_cell_setting            triclinic
  loop_
  _symmetry_equiv_pos_as_xyz
 x,y,z
_cell_length_a 53.6929
_cell_length_b 54.8753
_cell_length_c 54.9775
_cell_angle_alpha 90.111200
_cell_angle_beta 90.215900
_cell_angle_gamma 90.547500
loop_
  _atom_site_label
  _atom_site_type_symbol
  _atom_site_fract_x
  _atom_site_fract_y
  _atom_site_fract_z
Si1 Si 0.24890 0.49589 0.99983
 Si2 Si 0.74847 0.50267 -0.00109
 Si3 Si 0.00035 0.25164 0.49439
 Si4 Si 1.00135 0.74773 0.50482
 Si5 Si 0.49899 -0.00521 0.24897
 Si6 Si 0.50173 0.00344 0.75169
 C7 C 0.28860 0.01846 0.46925
 H8 H 0.29089 0.03236 0.48308
 C9 C 0.30464 0.01792 0.44937
 H10 H 0.31943 0.03141 0.44807
 C11 C 0.26689 -0.01645 0.45461
 H12 H 0.25210 -0.02977 0.45676
 C13 C 0.28267 -0.01780 0.43451
 H14 H 0.27982 -0.03213 0.42119
 N15 N 0.27017 0.00146 0.47148
 C16 C 0.21460 0.03617 0.51737
 H17 H 0.21363 0.02365 0.53252
 C18 C 0.19894 0.05630 0.51674
 H19 H 0.18606 0.05921 0.53155
 C20 C 0.23143 0.04667 0.47898
 H21 H 0.24379 0.04266 0.46407
 C22 C 0.21596 0.06694 0.47753
 H23 H 0.21690 0.07858 0.46167
 Zn24 Zn 0.25006 0.00299 0.49953
 N25 N 0.23050 0.03173 0.49869
 C26 C 0.26977 0.01991 0.54514
 N27 N 0.27184 0.00325 0.52691
 C28 C 0.29056 -0.01327 0.52694
 C29 C 0.30775 -0.01385 0.54603
 C30 C 0.28645 0.01985 0.56471
 C31 C 0.20350 -0.02128 0.49768
 C32 C 0.18690 -0.04089 0.49927
 C33 C 0.22173 -0.06755 0.50610
 C34 C 0.23770 -0.04734 0.50461
 N35 N 0.22839 -0.02467 0.50076
 H36 H 0.25535 0.03342 0.54462
 H37 H 0.29257 -0.02565 0.51179
 H38 H 0.32276 -0.02687 0.54536
 H39 H 0.28411 0.03297 0.57923
 H40 H 0.19638 -0.00337 0.49382
 H41 H 0.16716 -0.03778 0.49679
 H42 H 0.22940 -0.08540 0.50955
 H43 H 0.25751 -0.04982 0.50661
 C44 C 0.19937 0.07189 0.49654
 C45 C 0.30186 -0.00046 0.43174
 C46 C 0.19593 -0.06436 0.50373
 C47 C 0.30579 0.00279 0.56535
 C48 C 0.71118 0.01478 0.52772
 H49 H 0.70865 0.02640 0.51204
 C50 C 0.69473 0.01623 0.54725
 H51 H 0.67944 0.02891 0.54631
 C52 C 0.73360 -0.01663 0.54728
 H53 H 0.74864 -0.02955 0.54711
 C54 C 0.71767 -0.01569 0.56729
 H55 H 0.72095 -0.02771 0.58254
 N56 N 0.73015 -0.00143 0.52808
 C57 C 0.79109 0.02385 0.48277
 H58 H 0.79331 0.00804 0.47123
 C59 C 0.80846 0.04289 0.48183
 H60 H 0.82398 0.04178 0.46937
 C61 C 0.76846 0.04426 0.51352
 H62 H 0.75314 0.04450 0.52618
 C63 C 0.78519 0.06392 0.51288
 H64 H 0.78262 0.07918 0.52509
 Zn65 Zn 0.75073 -0.00309 0.50030
 N66 N 0.77171 0.02475 0.49858
 C67 C 0.73182 0.01242 0.45480
 N68 N 0.72974 -0.00464 0.47261
 C69 C 0.71162 -0.02212 0.47180
 C70 C 0.69476 -0.02301 0.45241
 C71 C 0.71525 0.01231 0.43517
 C72 C 0.79120 -0.02938 0.51771
 C73 C 0.80863 -0.04806 0.51856
 C74 C 0.78509 -0.06951 0.48754
 C75 C 0.76831 -0.05020 0.48697
 N76 N 0.77163 -0.03066 0.50196
 H77 H 0.74608 0.02640 0.45596
 H78 H 0.71005 -0.03514 0.48648
 H79 H 0.68020 -0.03680 0.45227
 H80 H 0.71717 0.02603 0.42116
 H81 H 0.79354 -0.01352 0.52925
 H82 H 0.82430 -0.04663 0.53096
 H83 H 0.78245 -0.08480 0.47528
 H84 H 0.75295 -0.05071 0.47427
 C85 C 0.80566 0.06317 0.49711
 C86 C 0.69783 0.00085 0.56743
 C87 C 0.80571 -0.06836 0.50325
 C88 C 0.69635 -0.00551 0.43387
 C89 C 0.47732 0.22353 1.04625
 H90 H 0.46045 0.23231 1.04025
 C91 C 0.47654 0.20756 1.06598
 H92 H 0.45908 0.20458 1.07534
 C93 C 0.52041 0.21626 1.04096
 H94 H 0.53731 0.21945 1.03075
 C95 C 0.52047 0.20015 1.06057
 H96 H 0.53753 0.19088 1.06526
 N97 N 0.49899 0.22737 1.03407
 C98 C 0.45513 0.26630 0.98516
 H99 H 0.45837 0.25388 0.97030
 C100 C 0.43484 0.28204 0.98399
 H101 H 0.42274 0.28152 0.96819
 C102 C 0.46635 0.28178 1.02393
 H103 H 0.47838 0.28142 1.03967
 C104 C 0.44624 0.29770 1.02357
 H105 H 0.44350 0.30988 1.03882
 Zn106 Zn 0.49957 0.24667 1.00565
 N107 N 0.47075 0.26676 1.00473
 C108 C 0.50127 0.23464 0.95507
 N109 N 0.49988 0.22555 0.97807
 C110 C 0.49792 0.20113 0.98200
 C111 C 0.49729 0.18486 0.96250
 C112 C 0.50089 0.21895 0.93499
 C113 C 0.53216 0.28088 1.02684
 C114 C 0.55167 0.29781 1.02792
 C115 C 0.56487 0.28448 0.98819
 C116 C 0.54501 0.26780 0.98784
 N117 N 0.52860 0.26688 1.00666
 H118 H 0.50239 0.25413 0.95230
 H119 H 0.49657 0.19414 1.00029
 H120 H 0.49584 0.16550 0.96608
 H121 H 0.50174 0.22648 0.91682
 H122 H 0.51978 0.27903 1.04214
 H123 H 0.55386 0.30908 1.04399
 H124 H 0.57712 0.28565 0.97263
 H125 H 0.54256 0.25602 0.97229
 C126 C 0.43035 0.29819 1.00327
 C127 C 0.49825 0.19536 1.07317
 C128 C 0.56797 0.30019 1.00818
 C129 C 0.49870 0.19370 0.93862
 C130 C 0.47930 0.78787 -0.03406
 H131 H 0.46476 0.78799 -0.02049
 C132 C 0.47882 0.80462 -0.05314
 H133 H 0.46383 0.81765 -0.05413
 C134 C 0.51721 0.77155 -0.04844
 H135 H 0.53241 0.75898 -0.04630
 C136 C 0.51755 0.78808 -0.06772
 H137 H 0.53282 0.78771 -0.08053
 N138 N 0.49826 0.77172 -0.03210
 C139 C 0.47142 0.71191 0.01322
 H140 H 0.48656 0.71122 0.02624
 C141 C 0.45232 0.69452 0.01409
 H142 H 0.45308 0.68037 0.02775
 C143 C 0.45294 0.73058 -0.02112
 H144 H 0.45345 0.74442 -0.03505
 C145 C 0.43336 0.71362 -0.02083
 H146 H 0.41870 0.71499 -0.03432
 Zn147 Zn 0.49899 0.75122 -0.00445
 N148 N 0.47137 0.72953 -0.00412
 C149 C 0.48169 0.76881 0.04125
 N150 N 0.49881 0.77165 0.02328
 C151 C 0.51600 0.78998 0.02406
 C152 C 0.51661 0.80626 0.04358
 C153 C 0.48172 0.78461 0.06122
 C154 C 0.53013 0.71490 -0.02241
 C155 C 0.55038 0.69914 -0.02269
 C156 C 0.56584 0.71854 0.01393
 C157 C 0.54531 0.73396 0.01348
 N158 N 0.52800 0.73191 -0.00455
 H159 H 0.46794 0.75436 0.04014
 H160 H 0.52915 0.79203 0.00932
 H161 H 0.53017 0.82097 0.04355
 H162 H 0.46819 0.78180 0.07552
 H163 H 0.51585 0.71339 -0.03628
 H164 H 0.55146 0.68541 -0.03680
 H165 H 0.57947 0.72048 0.02839
 H166 H 0.54307 0.74729 0.02777
 C167 C 0.43290 0.69520 -0.00310
 C168 C 0.49826 0.80501 -0.07016
 C169 C 0.56850 0.70074 -0.00425
 C170 C 0.49933 0.80369 0.06256
 C171 C 1.02727 0.48508 0.21335
 H172 H 1.01215 0.47192 0.21274
 C173 C 1.04657 0.48371 0.19648
 H174 H 1.04598 0.46951 0.18280
 C175 C 1.04549 0.52033 0.23122
 H176 H 1.04477 0.53487 0.24444
 C177 C 1.06527 0.51954 0.21481
 H178 H 1.07987 0.53322 0.21607
 N179 N 1.02708 0.50315 0.23029
 C180 C 0.97885 0.47550 0.28772
 H181 H 0.96489 0.48959 0.28787
 C182 C 0.97731 0.45628 0.30421
 H183 H 0.96174 0.45551 0.31665
 C184 C 1.01596 0.45958 0.27110
 H185 H 1.03126 0.46124 0.25848
 C186 C 1.01530 0.44015 0.28749
 H187 H 1.03026 0.42707 0.28730
 Zn188 Zn 0.99909 0.50439 0.25108
 N189 N 0.99783 0.47671 0.27148
 C190 C 0.95259 0.48797 0.23180
 N191 N 0.97050 0.50564 0.23088
 C192 C 0.96942 0.52387 0.21422
 C193 C 0.94977 0.52480 0.19753
 C194 C 0.93254 0.48828 0.21558
 C195 C 1.02031 0.53284 0.28779
 C196 C 1.02200 0.55152 0.30495
 C197 C 0.98339 0.56769 0.28943
 C198 C 0.98259 0.54879 0.27234
 N199 N 1.00090 0.53184 0.27187
 H200 H 0.95402 0.47330 0.24476
 H201 H 0.98416 0.53743 0.21359
 H202 H 0.94968 0.53909 0.18399
 H203 H 0.91842 0.47413 0.21676
 H204 H 1.03439 0.51887 0.28727
 H205 H 1.03782 0.55206 0.31720
 H206 H 0.96824 0.58055 0.28998
 H207 H 0.96697 0.54729 0.25996
 C208 C 0.99581 0.43834 0.30444
 C209 C 1.06593 0.50113 0.19700
 C210 C 1.00321 0.56914 0.30619
 C211 C 0.93105 0.50673 0.19795
 C212 C -0.03546 0.47565 0.78292
 H213 H -0.02181 0.46129 0.78366
 C214 C -0.05564 0.47538 0.79888
 H215 H -0.05738 0.46074 0.81196
 C216 C -0.04891 0.51293 0.76584
 H217 H -0.04596 0.52780 0.75331
 C218 C -0.06927 0.51344 0.78154
 H219 H -0.08207 0.52855 0.78060
 N220 N -0.03244 0.49428 0.76689
 C221 C 0.01806 0.46722 0.71129
 H222 H 0.03247 0.48111 0.71233
 C223 C 0.01970 0.44864 0.69405
 H224 H 0.03577 0.44812 0.68225
 C225 C -0.02036 0.45130 0.72553
 H226 H -0.03622 0.45274 0.73747
 C227 C -0.01960 0.43250 0.70837
 H228 H -0.03501 0.41967 0.70730
 Zn229 Zn -0.00311 0.49522 0.74797
 N230 N -0.00164 0.46814 0.72670
 C231 C 0.04228 0.47830 0.76874
 N232 N 0.02421 0.49547 0.76987
 C233 C 0.02437 0.51275 0.78762
 C234 C 0.04338 0.51341 0.80501
 C235 C 0.06175 0.47839 0.78566
 C236 C -0.01976 0.52389 0.70980
 C237 C -0.02035 0.54353 0.69376
 C238 C 0.01394 0.56194 0.71591
 C239 C 0.01400 0.54181 0.73144
 N240 N -0.00282 0.52338 0.72821
 H241 H 0.04158 0.46435 0.75488
 H242 H 0.00949 0.52588 0.78841
 H243 H 0.04283 0.52705 0.81924
 H244 H 0.07613 0.46479 0.78416
 H245 H -0.03268 0.50882 0.70745
 H246 H -0.03365 0.54322 0.67891
 H247 H 0.02723 0.57659 0.71901
 H248 H 0.02755 0.54091 0.74597
 C249 C 0.00058 0.43106 0.69221
 C250 C -0.07266 0.49465 0.79854
 C251 C -0.00337 0.56297 0.69668
 C252 C 0.06246 0.49607 0.80419
 C253 C 0.06947 0.20061 0.49093
 C254 C 0.06750 0.21807 0.50957
 C255 C 0.04725 0.23385 0.51029
 C256 C 0.02865 0.23250 0.49239
 C257 C 0.03058 0.21527 0.47368
 C258 C 0.05089 0.19957 0.47283
 C259 C 0.09026 0.18302 0.49088
 N260 N 0.09356 0.16760 0.47183
 N261 N 0.11167 0.15118 0.47221
 C262 C 0.12720 0.14943 0.49168
 N263 N 0.12399 0.16495 0.51066
 N264 N 0.10593 0.18142 0.51025
 C265 C 0.14663 0.13043 0.49256
 C266 C 0.15994 0.12605 0.51417
 C267 C 0.17730 0.10727 0.51537
 C268 C 0.18189 0.09260 0.49494
 C269 C 0.16903 0.09731 0.47318
 C270 C 0.15154 0.11597 0.47202
 H271 H 0.08143 0.21936 0.52381
 H272 H 0.04599 0.24671 0.52515
 H273 H 0.01618 0.21374 0.45990
 H274 H 0.05173 0.18627 0.45829
 H275 H 0.15666 0.13685 0.53032
 H276 H 0.18715 0.10420 0.53230
 H277 H 0.17200 0.08612 0.45722
 H278 H 0.14167 0.11886 0.45507
 C279 C 0.69889 0.57224 -0.00097
 C280 C 0.70385 0.55962 0.02075
 C281 C 0.71922 0.53922 0.02070
 C282 C 0.73002 0.53116 -0.00098
 C283 C 0.72558 0.54389 -0.02260
 C284 C 0.71017 0.56428 -0.02260
 C285 C 0.68131 0.59292 -0.00120
 N286 N 0.67519 0.60415 -0.02237
 N287 N 0.65857 0.62202 -0.02270
 C288 C 0.64736 0.62944 -0.00189
 N289 N 0.65365 0.61835 0.01930
 N290 N 0.67025 0.60048 0.01964
 C291 C 0.62805 0.64859 -0.00239
 C292 C 0.61630 0.65597 0.01918
 C293 C 0.59728 0.67316 0.01861
 C294 C 0.58954 0.68338 -0.00355
 C295 C 0.60155 0.67633 -0.02508
 C296 C 0.62061 0.65916 -0.02450
 H297 H 0.69548 0.56518 0.03774
 H298 H 0.72230 0.52946 0.03753
 H299 H 0.73350 0.53780 -0.03960
 H300 H 0.70677 0.57353 -0.03965
 H301 H 0.62152 0.64821 0.03654
 H302 H 0.58819 0.67798 0.03547
 H303 H 0.59622 0.68412 -0.04239
 H304 H 0.62930 0.65398 -0.04146
 C305 C 0.93552 -0.19726 0.50097
 C306 C 0.95568 -0.19556 0.48482
 C307 C 0.97481 -0.21260 0.48565
 C308 C 0.97431 -0.23145 0.50279
 C309 C 0.95421 -0.23328 0.51891
 C310 C 0.93481 -0.21648 0.51782
 C311 C 0.91581 -0.17859 0.50074
 N312 N 0.89307 -0.18324 0.51054
 N313 N 0.87555 -0.16619 0.51070
 C314 C 0.88016 -0.14374 0.50127
 N315 N 0.90291 -0.13911 0.49149
 N316 N 0.92033 -0.15620 0.49116
 C317 C 0.86100 -0.12456 0.50189
 C318 C 0.86798 -0.09987 0.50031
 C319 C 0.85001 -0.08166 0.50107
 C320 C 0.82465 -0.08777 0.50300
 C321 C 0.81758 -0.11242 0.50437
 C322 C 0.83561 -0.13066 0.50407
 H323 H 0.95672 -0.18101 0.47157
 H324 H 0.99028 -0.21079 0.47317
 H325 H 0.95356 -0.24738 0.53259
 H326 H 0.91963 -0.21814 0.53064
 H327 H 0.88740 -0.09459 0.49872
 H328 H 0.85589 -0.06277 0.49978
 H329 H 0.79812 -0.11754 0.50595
 H330 H 0.82968 -0.14953 0.50524
 C331 C 0.30221 0.42895 0.99934
 C332 C 0.30115 0.44503 0.97947
 C333 C 0.28498 0.46482 0.97973
 C334 C 0.26935 0.46875 0.99966
 C335 C 0.27033 0.45286 1.01955
 C336 C 0.28657 0.43310 1.01938
 C337 C 0.31992 0.40836 0.99938
 N338 N 0.32260 0.39407 1.01935
 N339 N 0.33897 0.37597 1.01959
 C340 C 0.35331 0.37134 0.99984
 N341 N 0.35051 0.38552 0.97982
 N342 N 0.33418 0.40364 0.97959
 C343 C 0.37214 0.35172 1.00038
 C344 C 0.38628 0.34636 0.97959
 C345 C 0.40478 0.32864 0.98040
 C346 C 0.40966 0.31592 1.00204
 C347 C 0.39523 0.32094 1.02269
 C348 C 0.37665 0.33859 1.02186
 H349 H 0.31301 0.44251 0.96380
 H350 H 0.28471 0.47713 0.96435
 H351 H 0.25890 0.45584 1.03541
 H352 H 0.28699 0.42119 1.03505
 H353 H 0.38329 0.35608 0.96273
 H354 H 0.41576 0.32536 0.96426
 H355 H 0.39834 0.31121 1.03953
 H356 H 0.36607 0.34216 1.03819
 C357 C 0.93507 0.19489 0.49843
 C358 C 0.93370 0.21451 0.48208
 C359 C 0.95297 0.23180 0.48093
 C360 C 0.97363 0.23000 0.49646
 C361 C 0.97481 0.21077 0.51313
 C362 C 0.95579 0.19328 0.51402
 C363 C 0.91544 0.17578 0.49875
 N364 N 0.92030 0.15338 0.50796
 N365 N 0.90293 0.13591 0.50775
 C366 C 0.87990 0.14015 0.49848
 N367 N 0.87496 0.16262 0.48943
 N368 N 0.89241 0.18005 0.48946
 C369 C 0.86078 0.12057 0.49803
 C370 C 0.83534 0.12612 0.49616
 C371 C 0.81736 0.10750 0.49601
 C372 C 0.82454 0.08299 0.49724
 C373 C 0.84995 0.07743 0.49887
 C374 C 0.86787 0.09602 0.49947
 H375 H 0.91805 0.21615 0.46973
 H376 H 0.95176 0.24632 0.46774
 H377 H 0.99068 0.20906 0.52521
 H378 H 0.95733 0.17845 0.52689
 H379 H 0.82931 0.14487 0.49510
 H380 H 0.79785 0.11219 0.49465
 H381 H 0.85591 0.05867 0.50006
 H382 H 0.88733 0.09116 0.50082
 C383 C 0.30451 0.56202 -0.00086
 C384 C 0.30304 0.54637 0.01932
 C385 C 0.28629 0.52673 0.01937
 C386 C 0.27040 0.52263 -0.00050
 C387 C 0.27183 0.53807 -0.02072
 C388 C 0.28875 0.55760 -0.02092
 C389 C 0.32265 0.58255 -0.00112
 N390 N 0.32756 0.59486 -0.02200
 N391 N 0.34420 0.61303 -0.02230
 C392 C 0.35655 0.61974 -0.00170
 N393 N 0.35154 0.60751 0.01920
 N394 N 0.33498 0.58928 0.01948
 C395 C 0.37543 0.63962 -0.00208
 C396 C 0.38521 0.64913 0.01974
 C397 C 0.40351 0.66740 0.01941
 C398 C 0.41265 0.67649 -0.00277
 C399 C 0.40267 0.66714 -0.02460
 C400 C 0.38422 0.64900 -0.02426
 H401 H 0.31504 0.54908 0.03498
 H402 H 0.28571 0.51472 0.03498
 H403 H 0.26021 0.53493 -0.03655
 H404 H 0.28947 0.56922 -0.03680
 H405 H 0.37870 0.64248 0.03715
 H406 H 0.41042 0.67448 0.03657
 H407 H 0.40953 0.67343 -0.04201
 H408 H 0.37719 0.64200 -0.04141
 C409 C 0.06901 -0.19824 0.50961
 C410 C 0.04973 -0.19762 0.52686
 C411 C 0.03000 -0.21433 0.52562
 C412 C 0.02913 -0.23195 0.50719
 C413 C 0.04841 -0.23292 0.49012
 C414 C 0.06828 -0.21628 0.49139
 C415 C 0.08914 -0.17956 0.51014
 N416 N 0.10898 -0.18105 0.49495
 N417 N 0.12652 -0.16370 0.49484
 C418 C 0.12490 -0.14409 0.50986
 N419 N 0.10515 -0.14270 0.52514
 N420 N 0.08768 -0.16007 0.52530
 C421 C 0.14373 -0.12417 0.50905
 C422 C 0.13941 -0.10207 0.52123
 C423 C 0.15648 -0.08281 0.51964
 C424 C 0.17838 -0.08523 0.50600
 C425 C 0.18305 -0.10747 0.49425
 C426 C 0.16582 -0.12671 0.49565
 H427 H 0.04969 -0.18403 0.54116
 H428 H 0.01515 -0.21323 0.53886
 H429 H 0.04800 -0.24618 0.47555
 H430 H 0.08275 -0.21722 0.47777
 H431 H 0.12262 -0.09946 0.53173
 H432 H 0.15258 -0.06597 0.52914
 H433 H 0.19973 -0.10976 0.48351
 H434 H 0.16975 -0.14351 0.48610
 C435 C 0.69268 0.43639 1.00155
 C436 C 0.68405 0.46047 1.00252
 C437 C 0.70070 0.48011 1.00150
 C438 C 0.72638 0.47616 0.99972
 C439 C 0.73511 0.45217 0.99856
 C440 C 0.71842 0.43244 0.99941
 C441 C 0.67476 0.41571 1.00290
 N442 N 0.68204 0.39245 0.99858
 N443 N 0.66571 0.37402 0.99973
 C444 C 0.64147 0.37810 1.00535
 N445 N 0.63427 0.40134 1.00972
 N446 N 0.65054 0.41973 1.00849
 C447 C 0.62308 0.35780 1.00655
 C448 C 0.59898 0.36202 1.01544
 C449 C 0.58133 0.34323 1.01621
 C450 C 0.58726 0.31974 1.00802
 C451 C 0.61136 0.31540 0.99921
 C452 C 0.62914 0.33423 0.99858
 H453 H 0.66436 0.46424 1.00399
 H454 H 0.69328 0.49833 1.00220
 H455 H 0.75485 0.44870 0.99697
 H456 H 0.72570 0.41412 0.99858
 H457 H 0.59364 0.37992 1.02175
 H458 H 0.56282 0.34722 1.02276
 H459 H 0.61649 0.29742 0.99293
 H460 H 0.64752 0.33036 0.99163
 C461 C 0.49789 0.06168 1.19638
 C462 C 0.47842 0.04435 1.19639
 C463 C 0.47894 0.02456 1.21230
 C464 C 0.49876 0.02181 1.22865
 C465 C 0.51832 0.03889 1.22868
 C466 C 0.51787 0.05871 1.21273
 C467 C 0.49748 0.08243 1.17914
 N468 N 0.51658 0.09884 1.17836
 N469 N 0.51632 0.11720 1.16253
 C470 C 0.49696 0.11994 1.14682
 N471 N 0.47783 0.10359 1.14769
 N472 N 0.47809 0.08525 1.16350
 C473 C 0.49690 0.13994 1.12870
 C474 C 0.47695 0.14230 1.11226
 C475 C 0.47724 0.16052 1.09455
 C476 C 0.49747 0.17686 1.09285
 C477 C 0.51725 0.17477 1.10951
 C478 C 0.51696 0.15653 1.12725
 H479 H 0.46280 0.04594 1.18400
 H480 H 0.46381 0.01136 1.21183
 H481 H 0.53410 0.03686 1.24076
 H482 H 0.53325 0.07161 1.21312
 H483 H 0.46120 0.12985 1.11279
 H484 H 0.46189 0.16139 1.08177
 H485 H 0.53296 0.18726 1.10884
 H486 H 0.53259 0.15533 1.13968
 C487 C -0.00247 0.69358 0.57032
 C488 C 0.01717 0.71062 0.56862
 C489 C 0.01806 0.72725 0.54942
 C490 C -0.00063 0.72712 0.53156
 C491 C -0.02018 0.71012 0.53309
 C492 C -0.02125 0.69364 0.55242
 C493 C -0.00298 0.67544 0.59023
 N494 N -0.02380 0.66193 0.59463
 N495 N -0.02404 0.64519 0.61214
 C496 C -0.00344 0.64117 0.62593
 N497 N 0.01735 0.65473 0.62158
 N498 N 0.01756 0.67155 0.60414
 C499 C -0.00348 0.62196 0.64484
 C500 C 0.01899 0.61379 0.65501
 C501 C 0.01903 0.59487 0.67200
 C502 C -0.00343 0.58382 0.67941
 C503 C -0.02594 0.59243 0.66964
 C504 C -0.02595 0.61118 0.65248
 H505 H 0.03196 0.71105 0.58207
 H506 H 0.03362 0.73985 0.54841
 H507 H -0.03453 0.70945 0.51919
 H508 H -0.03652 0.68063 0.55304
 H509 H 0.03665 0.62162 0.64942
 H510 H 0.03673 0.58849 0.67884
 H511 H -0.04361 0.58470 0.67528
 H512 H -0.04361 0.61720 0.64520
 C513 C 0.50164 0.93693 -0.19523
 C514 C 0.52174 0.95355 -0.19573
 C515 C 0.52170 0.97317 -0.21188
 C516 C 0.50181 0.97636 -0.22806
 C517 C 0.48171 0.95989 -0.22769
 C518 C 0.48163 0.94032 -0.21144
 C519 C 0.50135 0.91653 -0.17758
 N520 N 0.48065 0.90243 -0.17464
 N521 N 0.48026 0.88445 -0.15839
 C522 C 0.50058 0.87976 -0.14442
 N523 N 0.52131 0.89379 -0.14746
 N524 N 0.52168 0.91180 -0.16366
 C525 C 0.50005 0.86009 -0.12596
 C526 C 0.52184 0.85381 -0.11327
 C527 C 0.52129 0.83573 -0.09542
 C528 C 0.49891 0.82357 -0.08975
 C529 C 0.47715 0.82970 -0.10252
 C530 C 0.47772 0.84769 -0.12049
 H531 H 0.53738 0.95162 -0.18342
 H532 H 0.53720 0.98596 -0.21166
 H533 H 0.46586 0.96228 -0.23959
 H534 H 0.46580 0.92794 -0.21148
 H535 H 0.53937 0.86296 -0.11700
 H536 H 0.53830 0.83162 -0.08568
 H537 H 0.45969 0.82047 -0.09868
 H538 H 0.46059 0.85205 -0.12991
 C539 C 0.99444 0.30660 0.42981
 C540 C 0.97736 0.30709 0.44912
 C541 C 0.97881 0.29007 0.46791
 C542 C 0.99739 0.27233 0.46782
 C543 C 1.01437 0.27162 0.44855
 C544 C 1.01279 0.28848 0.42958
 C545 C 0.99368 0.32542 0.41054
 N546 N 1.00686 0.32278 0.38967
 N547 N 1.00671 0.34009 0.37270
 C548 C 0.99350 0.36083 0.37598
 N549 N 0.98027 0.36341 0.39682
 N550 N 0.98032 0.34606 0.41371
 C551 C 0.99387 0.38045 0.35752
 C552 C 0.98565 0.40392 0.36350
 C553 C 0.98639 0.42263 0.34634
 C554 C 0.99507 0.41829 0.32263
 C555 C 1.00316 0.39473 0.31661
 C556 C 1.00268 0.37606 0.33389
 H557 H 0.96297 0.32076 0.44984
 H558 H 0.96568 0.29104 0.48279
 H559 H 1.02916 0.25841 0.44824
 H560 H 1.02635 0.28771 0.41508
 H561 H 0.97899 0.40800 0.38162
 H562 H 0.98052 0.44063 0.35184
 H563 H 1.00961 0.39062 0.29844
 H564 H 1.00901 0.35813 0.32866
 C565 C 0.50012 0.92949 0.19428
 C566 C 0.47942 0.93292 0.20949
 C567 C 0.47916 0.95206 0.22631
 C568 C 0.49955 0.96809 0.22818
 C569 C 0.52015 0.96483 0.21301
 C570 C 0.52055 0.94559 0.19636
 C571 C 0.50016 0.90968 0.17591
 N572 N 0.52131 0.90412 0.16370
 N573 N 0.52125 0.88676 0.14674
 C574 C 0.50001 0.87427 0.14119
 N575 N 0.47887 0.87977 0.15345
 N576 N 0.47896 0.89707 0.17049
 C577 C 0.49982 0.85551 0.12175
 C578 C 0.47722 0.84593 0.11275
 C579 C 0.47706 0.82898 0.09372
 C580 C 0.49949 0.82108 0.08336
 C581 C 0.52210 0.83033 0.09270
 C582 C 0.52226 0.84739 0.11160
 H583 H 0.46335 0.92091 0.20831
 H584 H 0.46281 0.95453 0.23743
 H585 H 0.53589 0.97729 0.21395
 H586 H 0.53671 0.94362 0.18482
 H587 H 0.45960 0.85187 0.12006
 H588 H 0.45930 0.82252 0.08676
 H589 H 0.53973 0.82430 0.08548
 H590 H 0.54001 0.85423 0.11823
 C591 C 0.00347 0.30497 0.56072
 C592 C 0.02027 0.30735 0.54128
 C593 C 0.01954 0.29092 0.52187
 C594 C 0.00199 0.27188 0.52146
 C595 C -0.01468 0.26925 0.54084
 C596 C -0.01385 0.28557 0.56041
 C597 C 0.00366 0.32304 0.58078
 N598 N -0.00969 0.31915 0.60139
 N599 N -0.00986 0.33573 0.61914
 C600 C 0.00320 0.35694 0.61696
 N601 N 0.01657 0.36078 0.59638
 N602 N 0.01683 0.34418 0.57870
 C603 C 0.00265 0.37570 0.63636
 C604 C 0.01172 0.39935 0.63185
 C605 C 0.01097 0.41723 0.64992
 C606 C 0.00136 0.41187 0.67308
 C607 C -0.00763 0.38816 0.67764
 C608 C -0.00709 0.37030 0.65946
 H609 H 0.03391 0.32200 0.54095
 H610 H 0.03248 0.29328 0.50697
 H611 H -0.02854 0.25482 0.54080
 H612 H -0.02712 0.28328 0.57503
 H613 H 0.01912 0.40421 0.61420
 H614 H 0.01756 0.43540 0.64555
 H615 H -0.01484 0.38330 0.69536
 H616 H -0.01411 0.35222 0.66357
 C617 C 0.49835 0.06872 0.80634
 C618 C 0.47916 0.05111 0.80518
 C619 C 0.48024 0.03197 0.78847
 C620 C 0.50041 0.03008 0.77253
 C621 C 0.51959 0.04755 0.77351
 C622 C 0.51852 0.06680 0.79019
 C623 C 0.49756 0.08846 0.82478
 N624 N 0.51522 0.10636 0.82535
 N625 N 0.51479 0.12366 0.84240
 C626 C 0.49670 0.12375 0.85962
 N627 N 0.47899 0.10593 0.85894
 N628 N 0.47940 0.08869 0.84189
 C629 C 0.49663 0.14238 0.87921
 C630 C 0.47990 0.14024 0.89872
 C631 C 0.48043 0.15707 0.91778
 C632 C 0.49758 0.17655 0.91776
 C633 C 0.51395 0.17909 0.89803
 C634 C 0.51355 0.16211 0.87898
 H635 H 0.46336 0.05196 0.81731
 H636 H 0.46538 0.01849 0.78812
 H637 H 0.53559 0.04621 0.76172
 H638 H 0.53369 0.07993 0.79070
 H639 H 0.46656 0.12534 0.89949
 H640 H 0.46736 0.15486 0.93259
 H641 H 0.52746 0.19386 0.89762
 H642 H 0.52665 0.16435 0.86421
 C643 C 1.00505 0.69469 0.43833
 C644 C 0.98741 0.71347 0.43867
 C645 C 0.98638 0.72967 0.45831
 C646 C 1.00319 0.72756 0.47773
 C647 C 1.02104 0.70913 0.47730
 C648 C 1.02195 0.69280 0.45783
 C649 C 1.00545 0.67673 0.41817
 N650 N 1.01863 0.65585 0.42033
 N651 N 1.01853 0.63934 0.40255
 C652 C 1.00533 0.64303 0.38179
 N653 N 0.99227 0.66400 0.37953
 N654 N 0.99227 0.68048 0.39737
 C655 C 1.00493 0.62436 0.36228
 C656 C 0.99575 0.62979 0.33895
 C657 C 0.99534 0.61199 0.32068
 C658 C 1.00390 0.58830 0.32539
 C659 C 1.01294 0.58292 0.34880
 C660 C 1.01358 0.60074 0.36695
 H661 H 0.97405 0.71536 0.42401
 H662 H 0.97227 0.74360 0.45835
 H663 H 1.03410 0.70717 0.49223
 H664 H 1.03583 0.67862 0.45813
 H665 H 0.98907 0.64785 0.33473
 H666 H 0.98856 0.61688 0.30279
 H667 H 1.01916 0.56476 0.35329
 H668 H 1.02054 0.59585 0.38478
 C669 C 1.19463 0.49688 0.06616
 C670 C 1.19567 0.47660 0.05053
 C671 C 1.21212 0.47643 0.03091
 C672 C 1.22816 0.49626 0.02681
 C673 C 1.22723 0.51654 0.04229
 C674 C 1.21060 0.51687 0.06181
 C675 C 1.17662 0.49737 0.08651
 N676 N 1.17181 0.51847 0.09851
 N677 N 1.15516 0.51901 0.11641
 C678 C 1.14269 0.49846 0.12313
 N679 N 1.14762 0.47734 0.11124
 N680 N 1.16419 0.47682 0.09329
 C681 C 1.12371 0.49915 0.14263
 C682 C 1.11396 0.47745 0.15243
 C683 C 1.09555 0.47809 0.17031
 C684 C 1.08626 0.50045 0.17869
 C685 C 1.09620 0.52216 0.16903
 C686 C 1.11477 0.52152 0.15130
 H687 H 1.18349 0.46101 0.05320
 H688 H 1.21227 0.46079 0.01886
 H689 H 1.23896 0.53233 0.03915
 H690 H 1.21021 0.53281 0.07342
 H691 H 1.12058 0.45990 0.14631
 H692 H 1.08866 0.46103 0.17765
 H693 H 1.08923 0.53970 0.17474
 H694 H 1.12175 0.53858 0.14404
 C695 C 0.56951 0.00481 0.69857
 C696 C 0.56586 -0.01506 0.71433
 C697 C 0.54605 -0.01530 0.73076
 C698 C 0.52957 0.00431 0.73173
 C699 C 0.53311 0.02415 0.71610
 C700 C 0.55301 0.02453 0.69980
 C701 C 0.58984 0.00463 0.68040
 N702 N 0.59527 0.02485 0.66715
 N703 N 0.61300 0.02446 0.65028
 C704 C 0.62602 0.00382 0.64586
 N705 N 0.62067 -0.01637 0.65919
 N706 N 0.60299 -0.01596 0.67612
 C707 C 0.64512 0.00317 0.62647
 C708 C 0.65538 -0.01908 0.61898
 C709 C 0.67262 -0.01980 0.60001
 C710 C 0.68015 0.00171 0.58817
 C711 C 0.67022 0.02401 0.59598
 C712 C 0.65286 0.02472 0.61484
 H713 H 0.57816 -0.03058 0.71382
 H714 H 0.54338 -0.03109 0.74223
 H715 H 0.52029 0.03928 0.71632
 H716 H 0.55513 0.04004 0.68783
 H717 H 0.64975 -0.03604 0.62745
 H718 H 0.67958 -0.03733 0.59424
 H719 H 0.67594 0.04098 0.58757
 H720 H 0.64549 0.04220 0.62027
 C721 C -0.19964 0.50148 0.93057
 C722 C -0.21761 0.48298 0.93389
 C723 C -0.23353 0.48344 0.95397
 C724 C -0.23151 0.50216 0.97128
 C725 C -0.21399 0.52089 0.96772
 C726 C -0.19824 0.52060 0.94759
 C727 C -0.18218 0.50075 0.90977
 N728 N -0.16713 0.52013 0.90485
 N729 N -0.15090 0.51932 0.88663
 C730 C -0.14893 0.49906 0.87257
 N731 N -0.16404 0.47968 0.87742
 N732 N -0.18036 0.48052 0.89561
 C733 C -0.13022 0.49800 0.85284
 C734 C -0.12525 0.47596 0.84077
 C735 C -0.10676 0.47488 0.82294
 C736 C -0.09301 0.49584 0.81667
 C737 C -0.09828 0.51793 0.82843
 C738 C -0.11661 0.51900 0.84633
 H739 H -0.21941 0.46815 0.92097
 H740 H -0.24731 0.46910 0.95582
 H741 H -0.21242 0.53584 0.98048
 H742 H -0.18474 0.53523 0.94556
 H743 H -0.13538 0.45945 0.84533
 H744 H -0.10324 0.45765 0.81403
 H745 H -0.08777 0.53432 0.82422
 H746 H -0.11994 0.53628 0.85522
 C747 C 0.43085 -0.00605 0.30165
 C748 C 0.44716 -0.02592 0.30049
 C749 C 0.46723 -0.02566 0.28439
 C750 C 0.47115 -0.00576 0.26892
 C751 C 0.45488 0.01402 0.26985
 C752 C 0.43489 0.01389 0.28605
 C753 C 0.41027 -0.00576 0.31954
 N754 N 0.39699 0.01482 0.32341
 N755 N 0.37908 0.01536 0.34008
 C756 C 0.37361 -0.00469 0.35357
 N757 N 0.38674 -0.02534 0.34956
 N758 N 0.40471 -0.02586 0.33293
 C759 C 0.35432 -0.00382 0.37277
 C760 C 0.34678 -0.02516 0.38492
 C761 C 0.32936 -0.02414 0.40373
 C762 C 0.31927 -0.00174 0.41091
 C763 C 0.32650 0.01953 0.39855
 C764 C 0.34376 0.01850 0.37962
 H765 H 0.44472 -0.04150 0.31233
 H766 H 0.47985 -0.04095 0.28415
 H767 H 0.45782 0.02984 0.25847
 H768 H 0.42276 0.02952 0.28651
 H769 H 0.35449 -0.04266 0.38007
 H770 H 0.32428 -0.04080 0.41308
 H771 H 0.31879 0.03701 0.40353
 H772 H 0.34910 0.03529 0.37065
 C773 C 0.19295 0.49638 0.93447
 C774 C 0.19515 0.51649 0.95025
 C775 C 0.21210 0.51620 0.96958
 C776 C 0.22746 0.49605 0.97324
 C777 C 0.22540 0.47595 0.95759
 C778 C 0.20828 0.47609 0.93836
 C779 C 0.17444 0.49644 0.91440
 N780 N 0.16875 0.47564 0.90205
 N781 N 0.15170 0.47562 0.88438
 C782 C 0.13968 0.49641 0.87824
 N783 N 0.14548 0.51723 0.89050
 N784 N 0.16245 0.51723 0.90823
 C785 C 0.12037 0.49633 0.85890
 C786 C 0.11090 0.51833 0.84987
 C787 C 0.09235 0.51825 0.83197
 C788 C 0.08266 0.49617 0.82279
 C789 C 0.09224 0.47416 0.83177
 C790 C 0.11093 0.47424 0.84953
 H791 H 0.18352 0.53233 0.94793
 H792 H 0.21317 0.53173 0.98174
 H793 H 0.23666 0.45995 0.96038
 H794 H 0.20700 0.46028 0.92660
 H795 H 0.11788 0.53568 0.85655
 H796 H 0.08573 0.53554 0.82518
 H797 H 0.08495 0.45681 0.82543
 H798 H 0.11769 0.45696 0.85619
 C799 C 0.56536 -0.00454 0.30428
 C800 C 0.56192 -0.02440 0.28836
 C801 C 0.54243 -0.02453 0.27141
 C802 C 0.52608 -0.00483 0.27009
 C803 C 0.52930 0.01490 0.28602
 C804 C 0.54888 0.01518 0.30282
 C805 C 0.58565 -0.00456 0.32265
 N806 N 0.59107 0.01582 0.33576
 N807 N 0.60896 0.01572 0.35260
 C808 C 0.62215 -0.00478 0.35713
 N809 N 0.61677 -0.02516 0.34398
 N810 N 0.59893 -0.02504 0.32707
 C811 C 0.64166 -0.00498 0.37629
 C812 C 0.65244 -0.02698 0.38382
 C813 C 0.67028 -0.02717 0.40242
 C814 C 0.67788 -0.00534 0.41373
 C815 C 0.66736 0.01668 0.40600
 C816 C 0.64940 0.01685 0.38755
 H817 H 0.57421 -0.03992 0.28905
 H818 H 0.53997 -0.04025 0.25973
 H819 H 0.51656 0.03009 0.28553
 H820 H 0.55083 0.03068 0.31491
 H821 H 0.64691 -0.04413 0.37555
 H822 H 0.67824 -0.04438 0.40788
 H823 H 0.67265 0.03375 0.41457
 H824 H 0.64152 0.03413 0.38220
 C825 C 0.80184 0.50488 0.06656
 C826 C 0.79819 0.52571 0.05218
 C827 C 0.78203 0.52493 0.03222
 C828 C 0.76916 0.50338 0.02622
 C829 C 0.77217 0.48278 0.04093
 C830 C 0.78848 0.48346 0.06081
 C831 C 0.81980 0.50537 0.08710
 N832 N 0.82643 0.48443 0.09846
 N833 N 0.84313 0.48475 0.11643
 C834 C 0.85386 0.50602 0.12389
 N835 N 0.84710 0.52698 0.11265
 N836 N 0.83045 0.52665 0.09462
 C837 C 0.87298 0.50624 0.14341
 C838 C 0.88168 0.52835 0.15340
 C839 C 0.90024 0.52852 0.17132
 C840 C 0.91064 0.50660 0.17956
 C841 C 0.90178 0.48449 0.16967
 C842 C 0.88313 0.48431 0.15190
 H843 H 0.80803 0.54257 0.05616
 H844 H 0.77951 0.54128 0.02156
 H845 H 0.76218 0.46604 0.03714
 H846 H 0.79063 0.46715 0.07164
 H847 H 0.87416 0.54557 0.14740
 H848 H 0.90635 0.54584 0.17881
 H849 H 0.90967 0.46729 0.17524
 H850 H 0.87699 0.46696 0.14450
 C851 C 0.43550 0.00218 0.69628
 C852 C 0.43863 0.02200 0.71231
 C853 C 0.45806 0.02229 0.72931
 C854 C 0.47470 0.00281 0.73053
 C855 C 0.47176 -0.01690 0.71453
 C856 C 0.45222 -0.01734 0.69770
 C857 C 0.41532 0.00208 0.67781
 N858 N 0.40979 -0.01844 0.66496
 N859 N 0.39204 -0.01842 0.64798
 C860 C 0.37912 0.00216 0.64304
 N861 N 0.38460 0.02268 0.65593
 N862 N 0.40229 0.02263 0.67299
 C863 C 0.35984 0.00231 0.62368
 C864 C 0.35003 0.02439 0.61521
 C865 C 0.33245 0.02455 0.59640
 C866 C 0.32408 0.00262 0.58574
 C867 C 0.33364 -0.01948 0.59450
 C868 C 0.35136 -0.01963 0.61316
 H869 H 0.42613 0.03735 0.71166
 H870 H 0.46026 0.03794 0.74113
 H871 H 0.48468 -0.03193 0.71499
 H872 H 0.45049 -0.03280 0.68552
 H873 H 0.35626 0.04163 0.62280
 H874 H 0.32581 0.04193 0.58987
 H875 H 0.32729 -0.03672 0.58702
 H876 H 0.35838 -0.03698 0.61938
   
