data_POSCAR
  _audit_creation_date              2014-09-24
  _audit_creation_method            'ToBaCCo'
  _symmetry_space_group_name_H-M    'P1'
  _symmetry_Int_Tables_number       1
  _symmetry_cell_setting            triclinic
  loop_
  _symmetry_equiv_pos_as_xyz
 x,y,z
_cell_length_a 36.9275
_cell_length_b 37.1271
_cell_length_c 29.1564
_cell_angle_alpha 90.044000
_cell_angle_beta 89.821500
_cell_angle_gamma 85.693200
loop_
  _atom_site_label
  _atom_site_type_symbol
  _atom_site_fract_x
  _atom_site_fract_y
  _atom_site_fract_z
O1 O -0.05112 0.27398 0.04637
 O2 O 0.03047 0.27899 -0.02840
 O3 O -0.04144 0.29109 -0.03881
 O4 O 0.01801 0.27968 0.06109
 O5 O 0.02254 0.22053 0.05108
 O6 O -0.03782 0.23208 -0.04975
 O7 O 0.03265 0.21973 -0.03625
 O8 O -0.04595 0.21471 0.03781
 Cu9 Cu -0.01087 0.28626 0.01039
 Cu10 Cu -0.00735 0.21649 -0.00073
 C11 C -0.06219 0.24284 0.05469
 C12 C 0.04559 0.24959 -0.04467
 C13 C -0.05001 0.26385 -0.06129
 C14 C 0.03088 0.24848 0.07295
 O15 O 0.46525 0.81841 0.54263
 O16 O 0.53370 0.79176 0.45419
 O17 O 0.46246 0.79368 0.45906
 O18 O 0.53605 0.81704 0.53680
 O19 O 0.54051 0.76071 0.56156
 O20 O 0.46528 0.73846 0.48766
 O21 O 0.53568 0.73537 0.47881
 O22 O 0.47052 0.76274 0.56971
 Cu23 Cu 0.49890 0.81087 0.49534
 Cu24 Cu 0.50352 0.74372 0.52706
 C25 C 0.45617 0.79489 0.57119
 C26 C 0.54645 0.75905 0.45170
 C27 C 0.45089 0.76230 0.46093
 C28 C 0.55112 0.79248 0.56205
 O29 O 1.04203 0.72436 0.04956
 O30 O 0.96821 0.71985 -0.03538
 O31 O 1.03945 0.71353 -0.03834
 O32 O 0.97135 0.72441 0.05383
 O33 O 0.97009 0.78380 0.04740
 O34 O 1.03531 0.77253 -0.04856
 O35 O 0.96280 0.77955 -0.03736
 O36 O 1.03802 0.78376 0.04252
 Cu37 Cu 1.00556 0.71451 0.00806
 Cu38 Cu 1.00246 0.78540 -0.00137
 C39 C 1.05242 0.75515 0.06055
 C40 C 0.95226 0.74934 -0.04955
 C41 C 1.04901 0.74116 -0.05928
 C42 C 0.95921 0.75580 0.06648
 O43 O 0.53115 0.21160 0.55330
 O44 O 0.45378 0.19360 0.47908
 O45 O 0.52487 0.18769 0.47027
 O46 O 0.46000 0.22044 0.56115
 O47 O 0.45960 0.27543 0.53230
 O48 O 0.52327 0.24302 0.44214
 O49 O 0.45408 0.24863 0.45042
 O50 O 0.53135 0.26649 0.52425
 Cu51 Cu 0.49240 0.19784 0.51896
 Cu52 Cu 0.49191 0.26411 0.48503
 C53 C 0.54512 0.24173 0.55029
 C54 C 0.44098 0.21797 0.45185
 C55 C 0.53505 0.21004 0.44070
 C56 C 0.44825 0.25354 0.56142
 O57 O 0.71482 -0.04934 0.05124
 O58 O 0.68890 0.01641 -0.04019
 O59 O 0.69450 -0.05417 -0.03380
 O60 O 0.71070 0.02158 0.04382
 O61 O 0.76797 0.01939 0.02128
 O62 O 0.75166 -0.05537 -0.05669
 O63 O 0.74607 0.01388 -0.06298
 O64 O 0.77198 -0.05090 0.02837
 Cu65 Cu 0.69651 -0.01625 0.00778
 Cu66 Cu 0.76517 -0.01844 -0.01960
 C67 C 0.74776 -0.06158 0.05500
 C68 C 0.71323 0.02634 -0.06728
 C69 C 0.72042 -0.06740 -0.05879
 C70 C 0.74199 0.03370 0.04521
 O71 O 0.21394 0.47350 0.56338
 O72 O 0.19530 0.54561 0.47671
 O73 O 0.18999 0.47528 0.47908
 O74 O 0.21243 0.54413 0.56291
 O75 O 0.27011 0.53685 0.54232
 O76 O 0.24673 0.47072 0.45431
 O77 O 0.25303 0.53959 0.45609
 O78 O 0.27047 0.46623 0.53806
 Cu79 Cu 0.19717 0.51015 0.52272
 Cu80 Cu 0.26579 0.50268 0.49567
 C81 C 0.24555 0.45724 0.56464
 C82 C 0.22143 0.55505 0.45198
 C83 C 0.21427 0.46150 0.45217
 C84 C 0.24498 0.55241 0.56683
 O85 O 0.31363 1.03914 0.04631
 O86 O 0.28925 0.97202 -0.04010
 O87 O 0.28924 1.04302 -0.03674
 O88 O 0.31427 0.96861 0.04351
 O89 O 0.25799 0.97232 0.06986
 O90 O 0.23271 1.04542 -0.01146
 O91 O 0.23330 0.97490 -0.01261
 O92 O 0.25719 1.04215 0.07190
 Cu93 Cu 0.30724 1.00530 0.00040
 Cu94 Cu 0.23967 1.00909 0.03195
 C95 C 0.28924 1.05240 0.07357
 C96 C 0.25722 0.96154 -0.04027
 C97 C 0.25686 1.05737 -0.03720
 C98 C 0.29021 0.95769 0.07023
 O99 O 0.78948 0.44290 0.45808
 O100 O 0.77986 0.51454 0.54536
 O101 O 0.78231 0.44432 0.54726
 O102 O 0.78407 0.51416 0.45641
 O103 O 0.72447 0.51397 0.45020
 O104 O 0.72248 0.44691 0.54213
 O105 O 0.72015 0.51637 0.53895
 O106 O 0.72977 0.44406 0.45253
 Cu107 Cu 0.78998 0.47873 0.50215
 Cu108 Cu 0.71828 0.48025 0.49525
 C109 C 0.76126 0.43133 0.44038
 C110 C 0.74842 0.52770 0.55694
 C111 C 0.75177 0.43441 0.56068
 C112 C 0.75425 0.52607 0.43818
 C113 C 0.30336 0.34449 0.31152
 C114 C 0.32895 0.31585 0.31274
 C115 C 0.31230 0.28608 0.29663
 N116 N 0.27727 0.29565 0.28593
 C117 C 0.27179 0.33144 0.29460
 C118 C 0.32853 0.25033 0.29625
 C119 C 0.31197 0.22084 0.27660
 C120 C 0.32363 0.18469 0.28218
 C121 C 0.30148 0.16507 0.25551
 C122 C 0.27731 0.18977 0.23379
 N123 N 0.28402 0.22362 0.24663
 C124 C 0.25140 0.18112 0.20079
 C125 C 0.22395 0.20624 0.18438
 C126 C 0.20410 0.20163 0.14486
 C127 C 0.17928 0.23082 0.14194
 C128 C 0.18418 0.25198 0.18036
 N129 N 0.21174 0.23698 0.20615
 C130 C 0.16215 0.28348 0.19244
 C131 C 0.17308 0.30870 0.22514
 C132 C 0.15088 0.33701 0.24323
 C133 C 0.17231 0.35639 0.27125
 C134 C 0.20702 0.33929 0.26976
 N135 N 0.20724 0.31049 0.24122
 C136 C 0.23794 0.35184 0.29161
 H137 H 0.30748 0.37164 0.32282
 H138 H 0.35642 0.31682 0.32522
 H139 H 0.23017 0.29545 0.22924
 H140 H 0.34597 0.17344 0.30282
 H141 H 0.30344 0.13597 0.25195
 H142 H 0.20749 0.17972 0.12034
 H143 H 0.16000 0.23581 0.11440
 H144 H 0.16332 0.38064 0.28989
 H145 H 0.27289 0.24730 0.23173
 H146 H 0.12230 0.34336 0.23654
 C147 C 0.70139 0.70977 0.38388
 C148 C 0.72809 0.68212 0.38306
 C149 C 0.75144 0.68931 0.34744
 N150 N 0.73994 0.72081 0.32693
 C151 C 0.70896 0.73312 0.34859
 C152 C 0.78417 0.66834 0.33692
 C153 C 0.80886 0.67788 0.30259
 C154 C 0.84460 0.66372 0.29888
 C155 C 0.85888 0.67864 0.26025
 C156 C 0.83135 0.70115 0.24100
 N157 N 0.80094 0.70038 0.26691
 C158 C 0.83417 0.71987 0.19905
 C159 C 0.80683 0.74534 0.18278
 C160 C 0.80342 0.75690 0.13768
 C161 C 0.77536 0.78323 0.13683
 C162 C 0.76268 0.78705 0.18149
 N163 N 0.78187 0.76377 0.20950
 C164 C 0.73523 0.81305 0.19640
 C165 C 0.71816 0.81115 0.23965
 C166 C 0.69604 0.83886 0.25917
 C167 C 0.68298 0.82569 0.29948
 C168 C 0.69759 0.79026 0.30372
 N169 N 0.71885 0.78160 0.26689
 C170 C 0.68887 0.76639 0.33924
 H171 H 0.67962 0.71267 0.40880
 H172 H 0.73052 0.66001 0.40725
 H173 H 0.72958 0.75587 0.25809
 H174 H 0.85901 0.64460 0.32156
 H175 H 0.88629 0.67308 0.24751
 H176 H 0.81936 0.74722 0.10836
 H177 H 0.76543 0.79778 0.10671
 H178 H 0.66442 0.84057 0.32263
 H179 H 0.77527 0.71135 0.25793
 H180 H 0.68964 0.86571 0.24562
 C181 C 0.63075 0.30168 0.30580
 C182 C 0.65442 0.32833 0.30679
 C183 C 0.68528 0.31522 0.28308
 N184 N 0.68133 0.28126 0.26822
 C185 C 0.64789 0.27300 0.28167
 C186 C 0.71742 0.33339 0.27906
 C187 C 0.74707 0.32147 0.25047
 C188 C 0.78049 0.33626 0.24971
 C189 C 0.80068 0.31895 0.21544
 C190 C 0.77902 0.29423 0.19577
 N191 N 0.74636 0.29613 0.21711
 C192 C 0.78898 0.27246 0.15725
 C193 C 0.76901 0.24337 0.14261
 C194 C 0.77315 0.22614 0.10053
 C195 C 0.74993 0.19896 0.10049
 C196 C 0.73233 0.20033 0.14259
 N197 N 0.74408 0.22749 0.16831
 C198 C 0.70656 0.17622 0.15714
 C199 C 0.68362 0.18283 0.19568
 C200 C 0.66210 0.15774 0.21504
 C201 C 0.64121 0.17553 0.24833
 C202 C 0.65078 0.21092 0.24883
 N203 N 0.67652 0.21514 0.21650
 C204 C 0.63375 0.23895 0.27591
 H205 H 0.60429 0.30307 0.32203
 H206 H 0.64956 0.35414 0.32384
 H207 H 0.68518 0.23954 0.20511
 H208 H 0.78942 0.35781 0.27085
 H209 H 0.82804 0.32439 0.20572
 H210 H 0.79068 0.23274 0.07244
 H211 H 0.74611 0.18070 0.07228
 H212 H 0.62085 0.16373 0.26907
 H213 H 0.72364 0.28386 0.20596
 H214 H 0.66095 0.12967 0.20555
 C215 C 0.20203 0.76989 0.12391
 C216 C 0.22162 0.79966 0.12742
 C217 C 0.23851 0.79751 0.16977
 N218 N 0.22959 0.76774 0.19252
 C219 C 0.20706 0.75089 0.16464
 C220 C 0.25947 0.82416 0.18815
 C221 C 0.28244 0.81792 0.22641
 C222 C 0.29791 0.84454 0.25143
 C223 C 0.31993 0.82714 0.28374
 C224 C 0.31708 0.79038 0.27772
 N225 N 0.29430 0.78500 0.24260
 C226 C 0.33670 0.76286 0.30275
 C227 C 0.32643 0.72684 0.30357
 C228 C 0.34743 0.69722 0.32023
 C229 C 0.32599 0.66861 0.31953
 C230 C 0.29286 0.68138 0.30126
 N231 N 0.29317 0.71701 0.29173
 C232 C 0.26202 0.66122 0.29750
 C233 C 0.23198 0.67178 0.26917
 C234 C 0.19985 0.65464 0.26695
 C235 C 0.17926 0.67130 0.23275
 C236 C 0.19943 0.69790 0.21462
 N237 N 0.23159 0.69778 0.23667
 C238 C 0.18869 0.72025 0.17716
 H239 H 0.18565 0.76326 0.09482
 H240 H 0.22330 0.82051 0.10173
 H241 H 0.25357 0.71186 0.22672
 H242 H 0.29391 0.87348 0.24685
 H243 H 0.33610 0.84013 0.30887
 H244 H 0.37522 0.69624 0.33208
 H245 H 0.33404 0.64153 0.33115
 H246 H 0.15267 0.66419 0.22205
 H247 H 0.29017 0.76027 0.22745
 H248 H 0.19212 0.63186 0.28681
 C249 C 0.68091 0.28251 0.66578
 C250 C 0.70954 0.30353 0.66025
 C251 C 0.74023 0.28354 0.67608
 N252 N 0.73122 0.25041 0.68940
 C253 C 0.69501 0.24954 0.68264
 C254 C 0.77626 0.29452 0.67462
 C255 C 0.80531 0.27696 0.69961
 C256 C 0.84152 0.28429 0.69541
 C257 C 0.86055 0.26404 0.72815
 C258 C 0.83555 0.24472 0.75123
 N259 N 0.80194 0.25305 0.73407
 C260 C 0.84395 0.22070 0.78790
 C261 C 0.82064 0.19458 0.80253
 C262 C 0.82688 0.17233 0.84032
 C263 C 0.79997 0.14895 0.84058
 C264 C 0.77801 0.15785 0.80317
 N265 N 0.79072 0.18569 0.77984
 C266 C 0.74851 0.13846 0.78945
 C267 C 0.72261 0.15127 0.75663
 C268 C 0.69707 0.13065 0.73687
 C269 C 0.67634 0.15324 0.70829
 C270 C 0.68988 0.18706 0.71123
 N271 N 0.71792 0.18566 0.74106
 C272 C 0.67533 0.21836 0.68807
 H273 H 0.65296 0.29072 0.65763
 H274 H 0.70730 0.33044 0.64608
 H275 H 0.73069 0.20770 0.75345
 H276 H 0.85307 0.30283 0.67183
 H277 H 0.88949 0.26352 0.73415
 H278 H 0.84879 0.17256 0.86486
 H279 H 0.79701 0.12769 0.86539
 H280 H 0.65401 0.14548 0.68744
 H281 H 0.77771 0.24569 0.74821
 H282 H 0.69367 0.10229 0.74247
 C283 C 0.27604 0.70394 0.63270
 C284 C 0.30603 0.72323 0.63715
 C285 C 0.30198 0.74195 0.67818
 N286 N 0.27080 0.73444 0.69925
 C287 C 0.25495 0.71099 0.67159
 C288 C 0.32790 0.76379 0.69673
 C289 C 0.32009 0.78831 0.73304
 C290 C 0.34584 0.80432 0.75903
 C291 C 0.32715 0.82826 0.78819
 C292 C 0.29049 0.82616 0.77916
 N293 N 0.28647 0.80175 0.74545
 C294 C 0.26197 0.84785 0.80004
 C295 C 0.22530 0.83935 0.79699
 C296 C 0.19532 0.86227 0.80860
 C297 C 0.16565 0.84225 0.80584
 C298 C 0.17832 0.80795 0.79146
 N299 N 0.21478 0.80627 0.78621
 C300 C 0.15712 0.77789 0.78839
 C301 C 0.16854 0.74589 0.76394
 C302 C 0.15013 0.71461 0.76276
 C303 C 0.16874 0.69112 0.73295
 C304 C 0.19783 0.70868 0.71616
 N305 N 0.19725 0.74213 0.73487
 C306 C 0.22263 0.69453 0.68235
 H307 H 0.27044 0.68686 0.60389
 H308 H 0.32814 0.72369 0.61274
 H309 H 0.21319 0.76259 0.72467
 H310 H 0.37507 0.79945 0.75702
 H311 H 0.33926 0.84531 0.81308
 H312 H 0.19479 0.89037 0.81858
 H313 H 0.13800 0.85199 0.81373
 H314 H 0.16128 0.66433 0.72419
 H315 H 0.26252 0.79749 0.72824
 H316 H 0.12530 0.70929 0.78037
 C317 C 0.21025 0.24644 0.91221
 C318 C 0.23674 0.21851 0.90970
 C319 C 0.25165 0.21962 0.86606
 N320 N 0.23537 0.24742 0.84203
 C321 C 0.20999 0.26378 0.87013
 C322 C 0.27827 0.19416 0.84777
 C323 C 0.29817 0.20102 0.80767
 C324 C 0.31894 0.17505 0.78291
 C325 C 0.33634 0.19296 0.74905
 C326 C 0.32581 0.22942 0.75412
 N327 N 0.30243 0.23406 0.78984
 C328 C 0.33973 0.25756 0.72836
 C329 C 0.32232 0.29285 0.72818
 C330 C 0.33763 0.32385 0.71365
 C331 C 0.31050 0.35127 0.71527
 C332 C 0.27962 0.33614 0.73104
 N333 N 0.28696 0.30052 0.73919
 C334 C 0.24457 0.35420 0.73430
 C335 C 0.21725 0.34165 0.76294
 C336 C 0.18093 0.35438 0.76247
 C337 C 0.16410 0.33712 0.79744
 C338 C 0.19053 0.31418 0.81812
 N339 N 0.22285 0.31720 0.79705
 C340 C 0.18481 0.29240 0.85675
 H341 H 0.19313 0.25319 0.94164
 H342 H 0.24415 0.19966 0.93697
 H343 H 0.24795 0.30599 0.80826
 H344 H 0.32159 0.14620 0.78887
 H345 H 0.35487 0.18047 0.72387
 H346 H 0.36540 0.32653 0.70305
 H347 H 0.31321 0.37915 0.70595
 H348 H 0.13564 0.34102 0.80654
 H349 H 0.29340 0.25866 0.80461
 H350 H 0.16783 0.37417 0.73953
 C351 C 0.82323 0.81838 0.80113
 C352 C 0.84973 0.79048 0.80216
 C353 C 0.83378 0.75996 0.78723
 N354 N 0.79855 0.76837 0.77669
 C355 C 0.79201 0.80409 0.78509
 C356 C 0.85063 0.72443 0.78762
 C357 C 0.83789 0.69626 0.76097
 C358 C 0.85050 0.66017 0.76381
 C359 C 0.83258 0.64208 0.73064
 C360 C 0.80928 0.66757 0.70886
 N361 N 0.81297 0.70053 0.72715
 C362 C 0.78624 0.66034 0.67206
 C363 C 0.75666 0.68451 0.65892
 C364 C 0.73652 0.68187 0.61913
 C365 C 0.70792 0.70746 0.62230
 C366 C 0.71205 0.72549 0.66334
 N367 N 0.74179 0.71145 0.68574
 C368 C 0.68700 0.75255 0.68090
 C369 C 0.69582 0.77701 0.71553
 C370 C 0.67132 0.80127 0.73772
 C371 C 0.69127 0.82163 0.76636
 C372 C 0.72732 0.80866 0.76163
 N373 N 0.72982 0.78191 0.73006
 C374 C 0.75730 0.82282 0.78349
 H375 H 0.82651 0.84584 0.81189
 H376 H 0.87745 0.79236 0.81333
 H377 H 0.75375 0.77032 0.71572
 H378 H 0.87062 0.64806 0.78716
 H379 H 0.83606 0.61338 0.72367
 H380 H 0.74154 0.66318 0.59093
 H381 H 0.68659 0.71240 0.59721
 H382 H 0.68025 0.84360 0.78778
 H383 H 0.80173 0.72495 0.71419
 H384 H 0.64218 0.80448 0.73325
 C385 C 0.29749 0.07943 0.10439
 C386 C 0.27260 0.09439 0.13355
 C387 C 0.27857 0.12726 0.15986
 C388 C 0.25093 0.14371 0.18331
 H389 H 0.24600 0.08389 0.13568
 H390 H 0.30403 0.13982 0.15663
 H391 H 0.32421 0.08965 0.10291
 H392 H 0.22499 0.13179 0.18382
 C393 C 0.74417 0.55675 0.59113
 C394 C 0.77248 0.57264 0.60821
 C395 C 0.76652 0.60420 0.63836
 C396 C 0.79317 0.62560 0.64718
 H397 H 0.79991 0.56386 0.59763
 H398 H 0.73931 0.61154 0.65102
 H399 H 0.71681 0.56646 0.60097
 H400 H 0.82067 0.61767 0.63612
 C401 C 0.75860 0.91104 0.08982
 C402 C 0.73454 0.89368 0.11406
 C403 C 0.74687 0.86419 0.14540
 C404 C 0.72327 0.84369 0.16576
 H405 H 0.70568 0.90016 0.10935
 H406 H 0.77574 0.85853 0.15111
 H407 H 0.78737 0.90362 0.09391
 H408 H 0.69438 0.85031 0.16156
 C409 C 0.25400 0.42674 0.59577
 C410 C 0.23531 0.42119 0.63401
 C411 C 0.24558 0.38932 0.66239
 C412 C 0.23532 0.38712 0.70623
 H413 H 0.21318 0.44024 0.64462
 H414 H 0.26199 0.36709 0.64687
 H415 H 0.27739 0.40850 0.58726
 H416 H 0.21801 0.40900 0.72105
 C417 C 0.90586 0.23807 0.08373
 C418 C 0.88147 0.26477 0.09586
 C419 C 0.84880 0.25624 0.12178
 C420 C 0.82188 0.28126 0.13107
 H421 H 0.88487 0.29230 0.08531
 H422 H 0.84639 0.22868 0.13306
 H423 H 0.90123 0.21060 0.09353
 H424 H 0.82475 0.30916 0.12170
 C425 C 0.42743 0.80460 0.60500
 C426 C 0.41487 0.77964 0.63260
 C427 C 0.38146 0.78685 0.65954
 C428 C 0.36510 0.75928 0.67761
 H429 H 0.42759 0.75234 0.63235
 H430 H 0.36850 0.81402 0.66120
 H431 H 0.41437 0.83174 0.60451
 H432 H 0.37712 0.73195 0.67296
 C433 C 0.07992 0.75844 0.09245
 C434 C 0.09925 0.73030 0.11110
 C435 C 0.12951 0.73699 0.14178
 C436 C 0.15606 0.71159 0.15079
 H437 H 0.09431 0.70282 0.10181
 H438 H 0.13145 0.76411 0.15497
 H439 H 0.08665 0.78557 0.10119
 H440 H 0.15390 0.68412 0.13910
 C441 C 0.57892 0.24767 0.57490
 C442 C 0.59219 0.22572 0.60814
 C443 C 0.62867 0.22964 0.62691
 C444 C 0.63805 0.21713 0.66858
 H445 H 0.57645 0.20437 0.62100
 H446 H 0.64822 0.24226 0.60567
 H447 H 0.59416 0.27002 0.56396
 H448 H 0.61828 0.20342 0.68828
 C449 C 0.70389 0.05197 0.89884
 C450 C 0.72806 0.06139 0.86758
 C451 C 0.72116 0.09289 0.83736
 C452 C 0.74733 0.10172 0.80874
 H453 H 0.75481 0.04714 0.86625
 H454 H 0.69701 0.11098 0.84222
 H455 H 0.67671 0.06523 0.89892
 H456 H 0.77206 0.08410 0.80610
 C457 C 0.21543 0.58480 0.41885
 C458 C 0.24087 0.59146 0.38783
 C459 C 0.23739 0.62327 0.35777
 C460 C 0.26181 0.62746 0.32460
 H461 H 0.26541 0.57359 0.38528
 H462 H 0.21568 0.64406 0.36385
 H463 H 0.19035 0.60190 0.42065
 H464 H 0.28408 0.60706 0.31983
 C465 C 0.24726 0.93254 0.92891
 C466 C 0.26819 0.91962 0.89432
 C467 C 0.25732 0.88851 0.86768
 C468 C 0.27177 0.88005 0.82662
 H469 H 0.29313 0.93179 0.88581
 H470 H 0.23716 0.87206 0.88228
 H471 H 0.22169 0.92091 0.93560
 H472 H 0.29291 0.89588 0.81319
 C473 C 0.76531 0.40253 0.40574
 C474 C 0.73934 0.39778 0.37507
 C475 C 0.74253 0.36753 0.34239
 C476 C 0.71958 0.36642 0.30722
 H477 H 0.71515 0.41625 0.37433
 H478 H 0.76262 0.34519 0.34828
 H479 H 0.79035 0.38531 0.40495
 H480 H 0.69893 0.38840 0.30235
 C481 C 0.07692 0.24882 0.92846
 C482 C 0.09515 0.27761 0.91845
 C483 C 0.12925 0.27226 0.89201
 C484 C 0.15026 0.29914 0.88287
 H485 H 0.08580 0.30431 0.93061
 H486 H 0.13782 0.24525 0.88009
 H487 H 0.08757 0.22254 0.91601
 H488 H 0.14125 0.32659 0.89239
 C489 C 0.57474 0.74820 0.41791
 C490 C 0.59809 0.77134 0.40296
 C491 C 0.62862 0.75908 0.37300
 C492 C 0.65773 0.77817 0.36938
 H493 H 0.59598 0.79903 0.41516
 H494 H 0.62790 0.73365 0.35482
 H495 H 0.57846 0.71996 0.40824
 H496 H 0.65822 0.80372 0.38729
 C497 C 0.92017 0.74946 0.92112
 C498 C 0.91509 0.72393 0.89012
 C499 C 0.88265 0.72802 0.86109
 C500 C 0.88252 0.71602 0.81790
 H501 H 0.93551 0.70183 0.88444
 H502 H 0.85896 0.74372 0.87442
 H503 H 0.90083 0.77289 0.92338
 H504 H 0.90581 0.69971 0.80467
 C505 C 0.41001 0.21093 0.42238
 C506 C 0.40285 0.23021 0.38439
 C507 C 0.36932 0.22712 0.35801
 C508 C 0.36468 0.24435 0.31802
 H509 H 0.42140 0.24987 0.37348
 H510 H 0.34731 0.21325 0.37289
 H511 H 0.39256 0.19006 0.43240
 H512 H 0.38649 0.25919 0.30434
 C513 C 0.71440 0.90248 0.91003
 C514 C 0.73622 0.89516 0.87405
 C515 C 0.73334 0.86271 0.84576
 C516 C 0.75278 0.85816 0.80721
 H517 H 0.75748 0.91283 0.86611
 H518 H 0.71728 0.84140 0.85804
 H519 H 0.69202 0.88597 0.91692
 H520 H 0.76977 0.87912 0.79620
 C521 C 0.20466 0.43361 0.41937
 C522 C 0.22450 0.42548 0.38189
 C523 C 0.21763 0.39400 0.35323
 C524 C 0.23550 0.38794 0.31375
 H525 H 0.24720 0.44119 0.37340
 H526 H 0.20035 0.37399 0.36637
 H527 H 0.18100 0.41896 0.42674
 H528 H 0.25366 0.40752 0.30162
 C529 C 0.24749 0.08725 0.93507
 C530 C 0.27210 0.10437 0.91132
 C531 C 0.26173 0.13828 0.88693
 C532 C 0.28711 0.15916 0.87151
 H533 H 0.30053 0.09462 0.91203
 H534 H 0.23320 0.14676 0.88266
 H535 H 0.21940 0.09817 0.93516
 H536 H 0.31551 0.14974 0.87463
 C537 C 0.75295 0.55450 0.40296
 C538 C 0.77917 0.57696 0.39666
 C539 C 0.77288 0.60786 0.36514
 C540 C 0.79404 0.63554 0.36485
 H541 H 0.80379 0.57412 0.41690
 H542 H 0.74882 0.60933 0.34374
 H543 H 0.72784 0.55896 0.38389
 H544 H 0.81848 0.63445 0.38542
 C545 C 0.07555 0.73645 0.90665
 C546 C 0.08553 0.76332 0.88000
 C547 C 0.11682 0.75741 0.84882
 C548 C 0.12235 0.78011 0.81441
 H549 H 0.07134 0.78994 0.88186
 H550 H 0.13661 0.73495 0.85549
 H551 H 0.08892 0.70964 0.90214
 H552 H 0.10296 0.80305 0.80880
 C553 C 0.56201 0.19830 0.40536
 C554 C 0.56543 0.21792 0.36735
 C555 C 0.59721 0.21285 0.33679
 C556 C 0.59896 0.23343 0.29937
 H557 H 0.54571 0.24042 0.36052
 H558 H 0.62064 0.19554 0.34738
 H559 H 0.58057 0.17487 0.41191
 H560 H 0.57576 0.25167 0.29033
 C561 C 0.92472 0.26954 0.89994
 C562 C 0.91793 0.24318 0.87074
 C563 C 0.88842 0.24817 0.83685
 C564 C 0.87972 0.22053 0.81088
 H565 H 0.93265 0.21690 0.87380
 H566 H 0.87129 0.27322 0.83654
 H567 H 0.91036 0.29594 0.89632
 H568 H 0.89587 0.19497 0.81318
 C569 C 0.41977 0.75302 0.43322
 C570 C 0.40750 0.77250 0.39730
 C571 C 0.37558 0.76190 0.37200
 C572 C 0.36884 0.77313 0.32914
 H573 H 0.42138 0.79565 0.38601
 H574 H 0.35754 0.74422 0.38867
 H575 H 0.40669 0.72885 0.44254
 H576 H 0.38638 0.79185 0.31353
 C577 C 0.29956 0.92684 0.10080
 C578 C 0.27410 0.91196 0.12555
 C579 C 0.28186 0.87814 0.15109
 C580 C 0.25438 0.86071 0.16783
 H581 H 0.24630 0.92368 0.12476
 H582 H 0.30953 0.86634 0.15382
 H583 H 0.32722 0.91479 0.10070
 H584 H 0.22671 0.87175 0.16222
 C585 C 0.74938 0.40874 0.59873
 C586 C 0.77616 0.38406 0.60945
 C587 C 0.77040 0.35740 0.64560
 C588 C 0.78513 0.32356 0.64228
 H589 H 0.80095 0.38174 0.58930
 H590 H 0.75170 0.36477 0.67337
 H591 H 0.72366 0.40872 0.61680
 H592 H 0.80417 0.31649 0.61476
 C593 C 0.74858 0.06512 0.07404
 C594 C 0.72144 0.08668 0.09166
 C595 C 0.72860 0.11950 0.11750
 C596 C 0.70124 0.14313 0.12995
 H597 H 0.69353 0.08077 0.08562
 H598 H 0.75629 0.12452 0.12621
 H599 H 0.77640 0.07182 0.07874
 H600 H 0.67360 0.13710 0.12241
 C601 C 0.25384 0.58086 0.59937
 C602 C 0.22813 0.60368 0.61819
 C603 C 0.23774 0.63414 0.64702
 C604 C 0.21334 0.66172 0.65660
 H605 H 0.19978 0.60114 0.61018
 H606 H 0.26547 0.63477 0.65892
 H607 H 0.28223 0.58449 0.60584
 H608 H 0.18545 0.66019 0.64572
 C609 C 0.93155 0.76043 0.10279
 C610 C 0.91639 0.73261 0.12224
 C611 C 0.88583 0.73923 0.15435
 C612 C 0.86739 0.71233 0.17067
 H613 H 0.92516 0.70510 0.11268
 H614 H 0.87696 0.76690 0.16316
 H615 H 0.92211 0.78780 0.11224
 H616 H 0.87679 0.68451 0.16360
 C617 C 0.41977 0.26699 0.59396
 C618 C 0.41033 0.24842 0.63078
 C619 C 0.37854 0.26129 0.65865
 C620 C 0.37346 0.24862 0.70094
 H621 H 0.42554 0.22334 0.63987
 H622 H 0.35841 0.28034 0.64342
 H623 H 0.40533 0.29283 0.58651
 H624 H 0.39355 0.22875 0.71469
 C625 C 0.05680 0.24421 0.11127
 C626 C 0.07290 0.27217 0.12910
 C627 C 0.10354 0.26601 0.16111
 C628 C 0.12679 0.29143 0.16852
 H629 H 0.06581 0.29933 0.11681
 H630 H 0.10924 0.23921 0.17533
 H631 H 0.06522 0.21699 0.12231
 H632 H 0.12056 0.31849 0.15543
 C633 C 0.58209 0.80059 0.59103
 C634 C 0.59787 0.77554 0.61882
 C635 C 0.63224 0.78056 0.64248
 C636 C 0.64933 0.75245 0.66387
 H637 H 0.58642 0.74958 0.62200
 H638 H 0.64485 0.80590 0.63958
 H639 H 0.59326 0.82663 0.58763
 H640 H 0.63728 0.72668 0.66388
   
