data_POSCAR
  _audit_creation_date              2014-09-24
  _audit_creation_method            'ToBaCCo'
  _symmetry_space_group_name_H-M    'P1'
  _symmetry_Int_Tables_number       1
  _symmetry_cell_setting            triclinic
  loop_
  _symmetry_equiv_pos_as_xyz
 x,y,z
_cell_length_a 38.0847
_cell_length_b 36.5179
_cell_length_c 38.3819
_cell_angle_alpha 90.341300
_cell_angle_beta 89.966500
_cell_angle_gamma 89.990800
loop_
  _atom_site_label
  _atom_site_type_symbol
  _atom_site_fract_x
  _atom_site_fract_y
  _atom_site_fract_z
C1 C 0.26737 0.40507 0.01394
 C2 C 0.28777 0.39828 0.04328
 C3 C 0.31910 0.37884 0.03980
 C4 C 0.32841 0.36229 0.00750
 C5 C 0.30833 0.37166 -0.02239
 C6 C 0.27798 0.39359 -0.01942
 C7 C 0.35548 0.33201 0.00628
 C8 C 0.36887 0.31785 -0.02577
 C9 C 0.38800 0.28470 -0.02670
 C10 C 0.39588 0.26753 0.00501
 C11 C 0.38562 0.28244 0.03685
 C12 C 0.36521 0.31403 0.03750
 H13 H 0.24350 0.42086 0.01742
 H14 H 0.33472 0.37540 0.06298
 H15 H 0.31465 0.36045 -0.04769
 H16 H 0.36344 0.33137 -0.05011
 H17 H 0.41156 0.24276 0.00537
 H18 H 0.35567 0.32261 0.06269
 C19 C 0.73378 0.59612 -0.01266
 C20 C 0.71914 0.60143 0.02031
 C21 C 0.68903 0.62317 0.02365
 C22 C 0.67538 0.64287 -0.00526
 C23 C 0.69088 0.63637 -0.03848
 C24 C 0.71972 0.61281 -0.04206
 C25 C 0.64790 0.67241 -0.00006
 C26 C 0.63125 0.68985 -0.02880
 C27 C 0.61023 0.72133 -0.02397
 C28 C 0.60392 0.73357 0.01019
 C29 C 0.61799 0.71571 0.03885
 C30 C 0.64012 0.68577 0.03390
 H31 H 0.75651 0.57846 -0.01563
 H32 H 0.67769 0.62531 0.04929
 H33 H 0.68225 0.65042 -0.06156
 H34 H 0.63504 0.67994 -0.05504
 H35 H 0.58721 0.75710 0.01507
 H36 H 0.65204 0.67474 0.05700
 C37 C 0.73971 0.38094 1.00157
 C38 C 0.72210 0.37571 0.97010
 C39 C 0.69080 0.35565 0.96971
 C40 C 0.67855 0.33766 1.00018
 C41 C 0.69689 0.34430 1.03191
 C42 C 0.72714 0.36618 1.03254
 C43 C 0.64935 0.30963 0.99811
 C44 C 0.63382 0.29472 1.02865
 C45 C 0.61163 0.26386 1.02678
 C46 C 0.60299 0.24976 0.99380
 C47 C 0.61509 0.26591 0.96332
 C48 C 0.63852 0.29520 0.96539
 H49 H 0.76323 0.39767 1.00212
 H50 H 0.67728 0.35351 0.94513
 H51 H 0.68922 0.33166 1.05605
 H52 H 0.63947 0.30604 1.05405
 H53 H 0.58496 0.22691 0.99143
 H54 H 0.64889 0.30500 0.94106
 C55 C 0.26333 0.61539 0.99675
 C56 C 0.28064 0.62170 0.96537
 C57 C 0.31163 0.64211 0.96529
 C58 C 0.32358 0.65988 0.99607
 C59 C 0.30583 0.65220 1.02782
 C60 C 0.27608 0.62948 1.02820
 C61 C 0.35183 0.68875 0.99421
 C62 C 0.36917 0.70188 1.02463
 C63 C 0.39143 0.73272 1.02328
 C64 C 0.39795 0.74873 0.99073
 C65 C 0.38315 0.73492 0.96027
 C66 C 0.35984 0.70561 0.96194
 H67 H 0.23994 0.59846 0.99662
 H68 H 0.32507 0.64503 0.94071
 H69 H 0.31362 0.66483 1.05210
 H70 H 0.36500 0.68890 1.04948
 H71 H 0.41579 0.77173 0.98848
 H72 H 0.34720 0.69768 0.93793
 C73 C -0.00516 0.28106 0.40606
 C74 C 0.02858 0.29027 0.39491
 C75 C 0.03282 0.31886 0.37098
 C76 C 0.00335 0.33881 0.35846
 C77 C -0.03027 0.32995 0.37225
 C78 C -0.03453 0.30013 0.39456
 C79 C 0.00705 0.36518 0.32841
 C80 C -0.02266 0.37490 0.30802
 C81 C -0.01915 0.39483 0.27705
 C82 C 0.01467 0.40436 0.26593
 C83 C 0.04433 0.39668 0.28589
 C84 C 0.04050 0.37828 0.31763
 H85 H -0.00886 0.25825 0.42366
 H86 H 0.05891 0.32347 0.36096
 H87 H -0.05368 0.34458 0.36489
 H88 H -0.04862 0.36548 0.31459
 H89 H 0.01827 0.41934 0.24188
 H90 H 0.06387 0.37343 0.33281
 C91 C -0.00448 0.71764 0.59256
 C92 C 0.02779 0.70158 0.60021
 C93 C 0.02881 0.67090 0.62181
 C94 C -0.00182 0.65875 0.63947
 C95 C -0.03438 0.67550 0.63076
 C96 C -0.03564 0.70453 0.60698
 C97 C 0.00111 0.63248 0.66961
 C98 C -0.02909 0.61558 0.68440
 C99 C -0.02693 0.59678 0.71633
 C100 C 0.00625 0.59247 0.73174
 C101 C 0.03654 0.60649 0.71668
 C102 C 0.03405 0.62678 0.68616
 H103 H -0.00534 0.74101 0.57525
 H104 H 0.05406 0.65829 0.62591
 H105 H -0.05854 0.66808 0.64360
 H106 H -0.05446 0.61795 0.67210
 H107 H 0.00912 0.57705 0.75562
 H108 H 0.05794 0.63932 0.67705
 C109 C 0.98837 0.74538 0.38877
 C110 C 0.95705 0.73329 0.37407
 C111 C 0.95772 0.70529 0.34913
 C112 C 0.98984 0.68832 0.33922
 C113 C 1.02098 0.69931 0.35706
 C114 C 1.02067 0.72888 0.38083
 C115 C 0.99107 0.66216 0.30846
 C116 C 1.02336 0.65357 0.29163
 C117 C 1.02409 0.63417 0.25988
 C118 C 0.99209 0.62464 0.24424
 C119 C 0.96010 0.63000 0.26120
 C120 C 0.95972 0.64760 0.29375
 H121 H 0.98702 0.76722 0.40798
 H122 H 0.93310 0.69853 0.33686
 H123 H 1.04577 0.68605 0.35205
 H124 H 1.04812 0.66295 0.30188
 H125 H 0.99198 0.60993 0.21965
 H126 H 0.93471 0.65022 0.30671
 C127 C 1.01128 0.25421 0.61119
 C128 C 0.97864 0.26963 0.61891
 C129 C 0.97663 0.29766 0.64390
 C130 C 1.00659 0.30815 0.66362
 C131 C 1.03939 0.29186 0.65492
 C132 C 1.04163 0.26537 0.62846
 C133 C 1.00306 0.33341 0.69468
 C134 C 1.03291 0.35054 0.70984
 C135 C 1.03032 0.36971 0.74171
 C136 C 0.99711 0.37336 0.75723
 C137 C 0.96687 0.35987 0.74130
 C138 C 0.96986 0.33933 0.71063
 H139 H 1.01334 0.23334 0.59107
 H140 H 0.95133 0.31017 0.64822
 H141 H 1.06304 0.29806 0.66926
 H142 H 1.05827 0.34880 0.69737
 H143 H 0.99409 0.38922 0.78098
 H144 H 0.94605 0.32746 0.70042
 C145 C 0.39249 0.00600 0.26380
 C146 C 0.38111 0.03637 0.28260
 C147 C 0.35938 0.03174 0.31136
 C148 C 0.34553 -0.00325 0.31951
 C149 C 0.35928 -0.03419 0.30123
 C150 C 0.38334 -0.02973 0.27357
 C151 C 0.31471 -0.00642 0.34413
 C152 C 0.30325 -0.04076 0.35720
 C153 C 0.27164 -0.04343 0.37593
 C154 C 0.25258 -0.01169 0.38363
 C155 C 0.26416 0.02261 0.37301
 C156 C 0.29453 0.02511 0.35281
 H157 H 0.40992 0.01076 0.24193
 H158 H 0.35255 0.05603 0.32597
 H159 H 0.35027 -0.06153 0.30687
 H160 H 0.31792 -0.06558 0.35246
 H161 H 0.22904 -0.01361 0.39942
 H162 H 0.30095 0.05194 0.34320
 C163 C 0.61293 0.02003 0.74224
 C164 C 0.61935 0.05001 0.72084
 C165 C 0.63920 0.04544 0.69044
 C166 C 0.65467 0.01105 0.68233
 C167 C 0.64553 -0.01943 0.70344
 C168 C 0.62428 -0.01523 0.73314
 C169 C 0.68229 0.00752 0.65423
 C170 C 0.69344 -0.02746 0.64225
 C171 C 0.72361 -0.03110 0.62179
 C172 C 0.74099 0.00009 0.61017
 C173 C 0.72919 0.03518 0.61888
 C174 C 0.70030 0.03885 0.64141
 H175 H 0.59675 0.02420 0.76518
 H176 H 0.64308 0.06908 0.67413
 H177 H 0.65616 -0.04631 0.69848
 H178 H 0.67995 -0.05226 0.64942
 H179 H 0.76363 -0.00325 0.59329
 H180 H 0.69333 0.06618 0.64968
 C181 C 0.39753 1.01244 0.72514
 C182 C 0.39430 0.97668 0.71252
 C183 C 0.37406 0.97015 0.68258
 C184 C 0.35451 0.99884 0.66684
 C185 C 0.35838 1.03486 0.68075
 C186 C 0.38019 1.04153 0.70943
 C187 C 0.32839 0.99089 0.63809
 C188 C 0.31366 1.01973 0.61811
 C189 C 0.28532 1.01343 0.59530
 C190 C 0.27428 0.97722 0.58975
 C191 C 0.28945 0.94805 0.60740
 C192 C 0.31580 0.95475 0.63200
 H193 H 0.41395 1.01794 0.74765
 H194 H 0.37307 0.94246 0.67268
 H195 H 0.34367 1.05781 0.67091
 H196 H 0.32322 1.04740 0.62076
 H197 H 0.25318 0.97120 0.57163
 H198 H 0.32490 0.93170 0.64693
 C199 C 0.60116 0.98737 0.27354
 C200 C 0.61555 0.95760 0.29084
 C201 C 0.63658 0.96330 0.32008
 C202 C 0.64263 0.99919 0.33325
 C203 C 0.62535 1.02884 0.31643
 C204 C 0.60580 1.02333 0.28568
 C205 C 0.66872 1.00576 0.36236
 C206 C 0.68223 1.04136 0.36913
 C207 C 0.70901 1.04679 0.39349
 C208 C 0.72357 1.01689 0.41058
 C209 C 0.71144 0.98133 0.40441
 C210 C 0.68299 0.97612 0.38169
 H211 H 0.58543 0.98187 0.25055
 H212 H 0.64884 0.93940 0.33099
 H213 H 0.62745 1.05642 0.32634
 H214 H 0.67374 1.06505 0.35478
 H215 H 0.74511 1.02156 0.42854
 H216 H 0.67334 0.94858 0.37866
 O217 O 0.82113 0.86655 0.54545
 O218 O 0.86506 0.82702 0.46984
 O219 O 0.81847 0.87719 0.48001
 O220 O 0.86878 0.81771 0.53679
 O221 O 0.82783 0.77499 0.53408
 O222 O 0.77678 0.83553 0.47431
 O223 O 0.82512 0.78337 0.46606
 O224 O 0.77806 0.82626 0.54085
 Cu225 Cu 0.84761 0.85100 0.50835
 Cu226 Cu 0.79787 0.80044 0.50341
 C227 C 0.79152 0.85446 0.55514
 C228 C 0.85318 0.79837 0.45526
 C229 C 0.78884 0.86740 0.46822
 C230 C 0.85730 0.78651 0.54541
 O231 O 0.12031 0.17328 0.47083
 O232 O 0.17482 0.11414 0.52409
 O233 O 0.12913 0.16497 0.53742
 O234 O 0.16489 0.12177 0.45925
 O235 O 0.20914 0.16092 0.45906
 O236 O 0.16939 0.20842 0.53556
 O237 O 0.21697 0.15567 0.52588
 O238 O 0.16259 0.21449 0.46780
 Cu239 Cu 0.14291 0.13976 0.49820
 Cu240 Cu 0.19375 0.18931 0.49704
 C241 C 0.13187 0.20363 0.45984
 C242 C 0.20536 0.12397 0.53329
 C243 C 0.14224 0.19435 0.54941
 C244 C 0.19386 0.13264 0.44679
 O245 O 0.18215 0.85952 0.46723
 O246 O 0.13360 0.81026 0.53359
 O247 O 0.18624 0.85457 0.53483
 O248 O 0.12905 0.81668 0.46827
 O249 O 0.16397 0.76908 0.46009
 O250 O 0.22329 0.80848 0.52858
 O251 O 0.16812 0.76209 0.52701
 O252 O 0.21926 0.81353 0.46044
 Cu253 Cu 0.15464 0.84013 0.50175
 Cu254 Cu 0.19764 0.78357 0.49361
 C255 C 0.20860 0.84534 0.45232
 C256 C 0.14114 0.77728 0.54034
 C257 C 0.21452 0.83863 0.54304
 C258 C 0.13563 0.78628 0.45358
 O259 O 0.87399 0.18137 0.52514
 O260 O 0.81654 0.14351 0.45881
 O261 O 0.86561 0.19172 0.45976
 O262 O 0.82364 0.13444 0.52515
 O263 O 0.78464 0.17761 0.53668
 O264 O 0.82820 0.23661 0.47059
 O265 O 0.77670 0.18605 0.46961
 O266 O 0.83649 0.22597 0.53678
 Cu267 Cu 0.84860 0.15843 0.49112
 Cu268 Cu 0.80239 0.21106 0.50430
 C269 C 0.86586 0.21022 0.54176
 C270 C 0.78666 0.15742 0.45326
 C271 C 0.85505 0.22417 0.45472
 C272 C 0.79702 0.14576 0.54192
 O273 O 0.47624 0.88527 0.82337
 O274 O 0.53413 0.83324 0.87982
 O275 O 0.54250 0.88506 0.83416
 O276 O 0.46766 0.83701 0.87024
 O277 O 0.47343 0.79245 0.83147
 O278 O 0.54786 0.84422 0.79183
 O279 O 0.54157 0.79081 0.83927
 O280 O 0.48007 0.84287 0.78226
 Cu281 Cu 0.50495 0.86427 0.85592
 Cu282 Cu 0.51149 0.81315 0.80704
 C283 C 0.46818 0.87336 0.79333
 C284 C 0.54702 0.80288 0.86995
 C285 C 0.55681 0.87437 0.80611
 C286 C 0.45803 0.80644 0.85786
 O287 O 0.52733 0.16771 0.13025
 O288 O 0.45822 0.13074 0.18486
 O289 O 0.46077 0.17436 0.13381
 O290 O 0.52476 0.12061 0.18086
 O291 O 0.53370 0.16510 0.21904
 O292 O 0.46770 0.22076 0.17039
 O293 O 0.46629 0.17470 0.22387
 O294 O 0.53589 0.21377 0.16680
 Cu295 Cu 0.49240 0.14380 0.15385
 Cu296 Cu 0.50187 0.19832 0.19886
 C297 C 0.54240 0.19760 0.13808
 C298 C 0.45063 0.14580 0.21370
 C299 C 0.45335 0.20661 0.14349
 C300 C 0.53921 0.13252 0.20838
 O301 O 0.52087 0.13857 0.80640
 O302 O 0.45729 0.18324 0.86291
 O303 O 0.45235 0.13908 0.80969
 O304 O 0.52375 0.17855 0.86003
 O305 O 0.52381 0.22808 0.82719
 O306 O 0.45285 0.18560 0.77322
 O307 O 0.45539 0.23165 0.82881
 O308 O 0.52180 0.18628 0.77125
 Cu309 Cu 0.48798 0.15490 0.83779
 Cu310 Cu 0.48797 0.21282 0.79641
 C311 C 0.53314 0.15492 0.78003
 C312 C 0.44664 0.21544 0.85677
 C313 C 0.44100 0.15455 0.78252
 C314 C 0.53582 0.20991 0.85283
 O315 O 0.47891 0.82469 0.12893
 O316 O 0.54363 0.86356 0.18777
 O317 O 0.54501 0.81807 0.13784
 O318 O 0.47700 0.87246 0.17920
 O319 O 0.46532 0.82887 0.21708
 O320 O 0.53478 0.77222 0.17377
 O321 O 0.53318 0.82028 0.22639
 O322 O 0.46731 0.77973 0.16539
 Cu323 Cu 0.51181 0.84921 0.15488
 Cu324 Cu 0.49905 0.79574 0.19962
 C325 C 0.46290 0.79526 0.13614
 C326 C 0.54962 0.84891 0.21697
 C327 C 0.55133 0.78587 0.14806
 C328 C 0.46000 0.86091 0.20530
 O329 O 0.87194 0.52310 0.82067
 O330 O 0.81914 0.46242 0.87286
 O331 O 0.86777 0.45372 0.82828
 O332 O 0.82210 0.53239 0.86561
 O333 O 0.78124 0.52911 0.82491
 O334 O 0.83002 0.45114 0.78464
 O335 O 0.77908 0.45801 0.83144
 O336 O 0.83339 0.52219 0.77776
 Cu337 Cu 0.84900 0.49352 0.85097
 Cu338 Cu 0.80181 0.49009 0.80030
 C339 C 0.86285 0.53228 0.79024
 C340 C 0.79050 0.44949 0.86152
 C341 C 0.85735 0.43932 0.79999
 C342 C 0.79337 0.54339 0.85271
 O343 O 0.18684 0.47511 0.13752
 O344 O 0.13014 0.54469 0.17447
 O345 O 0.17986 0.54459 0.12932
 O346 O 0.13882 0.47557 0.18429
 O347 O 0.17687 0.48676 0.22642
 O348 O 0.21974 0.55629 0.16965
 O349 O 0.16816 0.55708 0.21632
 O350 O 0.22747 0.48609 0.17728
 Cu351 Cu 0.15509 0.50892 0.15246
 Cu352 Cu 0.20208 0.52254 0.20177
 C353 C 0.21694 0.46910 0.15013
 C354 C 0.13867 0.56246 0.20157
 C355 C 0.20696 0.56176 0.13952
 C356 C 0.15016 0.46970 0.21480
 O357 O 0.82499 0.52160 0.11702
 O358 O 0.87990 0.46230 0.16837
 O359 O 0.82971 0.45192 0.12406
 O360 O 0.87060 0.53172 0.16544
 O361 O 0.83145 0.53045 0.20789
 O362 O 0.78821 0.45146 0.16426
 O363 O 0.84040 0.45977 0.21043
 O364 O 0.78365 0.52230 0.15738
 Cu365 Cu 0.85518 0.49186 0.13976
 Cu366 Cu 0.80676 0.49081 0.18922
 C367 C 0.79513 0.53194 0.12757
 C368 C 0.87060 0.45162 0.19825
 C369 C 0.80140 0.43885 0.13627
 C370 C 0.85874 0.54415 0.19409
 O371 O 0.12654 0.46734 0.83249
 O372 O 0.17804 0.53985 0.87187
 O373 O 0.13107 0.53703 0.82459
 O374 O 0.17419 0.47073 0.88036
 O375 O 0.21564 0.46084 0.84114
 O376 O 0.17129 0.52893 0.78378
 O377 O 0.22063 0.53129 0.83357
 O378 O 0.16649 0.45803 0.79168
 Cu379 Cu 0.14837 0.50437 0.85614
 Cu380 Cu 0.19771 0.49393 0.80832
 C381 C 0.13680 0.45084 0.80521
 C382 C 0.20832 0.54744 0.86042
 C383 C 0.14322 0.54414 0.79467
 C384 C 0.20259 0.45534 0.87120
 N385 N 0.23997 0.40094 0.08504
 C386 C 0.27364 0.40973 0.07738
 N387 N 0.29053 0.43466 0.09783
 N388 N 0.27358 0.45138 0.12399
 C389 C 0.23929 0.44356 0.13056
 N390 N 0.22317 0.41753 0.11101
 N391 N 0.72137 0.57571 0.08053
 C392 C 0.73796 0.58619 0.05073
 N393 N 0.77312 0.58124 0.04827
 N394 N 0.79094 0.56550 0.07375
 C395 C 0.77456 0.55404 0.10304
 N396 N 0.73937 0.55966 0.10624
 N397 N 0.71971 0.40464 0.91143
 C398 C 0.73861 0.39023 0.93818
 N399 N 0.77409 0.39235 0.93700
 N400 N 0.79016 0.40943 0.91115
 C401 C 0.77156 0.42502 0.88512
 N402 N 0.73595 0.42191 0.88531
 N403 N 0.28183 0.58851 0.90880
 C404 C 0.26396 0.60842 0.93309
 N405 N 0.22870 0.61180 0.92991
 N406 N 0.21159 0.59468 0.90453
 C407 C 0.22897 0.57349 0.88111
 N408 N 0.26456 0.57116 0.88326
 N409 N 0.09015 0.28195 0.41510
 C410 C 0.05816 0.26749 0.40721
 N411 N 0.05209 0.23177 0.41452
 N412 N 0.07638 0.21148 0.42992
 C413 C 0.10789 0.22596 0.43879
 N414 N 0.11464 0.26151 0.43070
 N415 N 0.08879 0.70157 0.57685
 C416 C 0.06003 0.72019 0.58834
 N417 N 0.06029 0.75726 0.58722
 N418 N 0.08748 0.77514 0.57400
 C419 C 0.11572 0.75680 0.56139
 N420 N 0.11611 0.71959 0.56328
 N421 N 0.89777 0.73014 0.39985
 C422 C 0.92431 0.75063 0.38644
 N423 N 0.92425 0.78727 0.39244
 N424 N 0.89972 0.80268 0.41228
 C425 C 0.87415 0.78214 0.42702
 N426 N 0.87303 0.74566 0.41976
 N427 N 0.91702 0.27378 0.59730
 C428 C 0.94721 0.25430 0.60146
 N429 N 0.94889 0.21991 0.58810
 N430 N 0.92218 0.20579 0.57045
 C431 C 0.89242 0.22532 0.56545
 N432 N 0.89008 0.25957 0.57940
 N433 N 0.41502 0.09356 0.28632
 C434 C 0.39090 0.07259 0.26941
 N435 N 0.38301 0.08043 0.23586
 N436 N 0.39972 0.10699 0.21921
 C437 C 0.42494 0.12692 0.23543
 N438 N 0.43175 0.12038 0.26959
 N439 N 0.60814 0.09547 0.76573
 C440 C 0.60432 0.08537 0.73191
 N441 N 0.57947 0.10243 0.71238
 N442 N 0.55836 0.12762 0.72672
 C443 C 0.56140 0.13637 0.76107
 N444 N 0.58708 0.12034 0.78001
 N445 N 0.42286 0.91540 0.71810
 C446 C 0.41083 0.94699 0.73290
 N447 N 0.41585 0.95235 0.76752
 N448 N 0.43296 0.92796 0.78650
 C449 C 0.44582 0.89696 0.77182
 N450 N 0.44023 0.89081 0.73725
 N451 N 0.61627 0.91461 0.24263
 C452 C 0.60809 0.92107 0.27646
 N453 N 0.58402 0.89916 0.29218
 N454 N 0.56764 0.87284 0.27416
 C455 C 0.57467 0.86777 0.23977
 N456 N 0.59992 0.88851 0.22468
 N457 N 0.41069 0.23246 0.94327
 C458 C 0.39940 0.26767 0.94210
 N459 N 0.40087 0.28537 0.91091
 N460 N 0.41464 0.26880 0.88278
 C461 C 0.42655 0.23368 0.88471
 N462 N 0.42381 0.21590 0.91538
 N463 N 0.57985 0.77393 0.95476
 C464 C 0.59583 0.74140 0.94805
 N465 N 0.59720 0.72952 0.91431
 N466 N 0.58241 0.74908 0.88880
 C467 C 0.56631 0.78152 0.89609
 N468 N 0.56553 0.79348 0.92949
 N469 N 0.42487 0.78045 0.05009
 C470 C 0.40736 0.74826 0.05312
 N471 N 0.40641 0.73204 0.08503
 N472 N 0.42321 0.74706 0.11223
 C473 C 0.44102 0.77913 0.10853
 N474 N 0.44123 0.79550 0.07704
 N475 N 0.58153 0.21369 0.05293
 C476 C 0.59746 0.24674 0.05653
 N477 N 0.59785 0.26265 0.08877
 N478 N 0.58157 0.24672 0.11565
 C479 C 0.56506 0.21393 0.11135
 N480 N 0.56581 0.19769 0.07961
 N481 N 0.23646 0.03455 0.56197
 C482 C 0.26658 0.04223 0.57941
 N483 N 0.27670 0.07797 0.58208
 N484 N 0.25755 0.10458 0.56760
 C485 C 0.22723 0.09638 0.55054
 N486 N 0.21724 0.06092 0.54799
 N487 N 0.75944 0.08712 0.39173
 C488 C 0.72508 0.08275 0.39985
 N489 N 0.70974 0.10709 0.42206
 N490 N 0.72855 0.13399 0.43661
 C491 C 0.76338 0.13725 0.42957
 N492 N 0.77817 0.11382 0.40626
 N493 N 0.77417 0.92891 0.61560
 C494 C 0.73894 0.93313 0.61266
 N495 N 0.72025 0.90738 0.59492
 N496 N 0.73666 0.87948 0.57918
 C497 C 0.77222 0.87643 0.58080
 N498 N 0.79046 0.90120 0.59997
 N499 N 0.27709 0.89687 0.40598
 C500 C 0.25707 0.92161 0.38856
 N501 N 0.22168 0.91759 0.38897
 N502 N 0.20664 0.89124 0.40735
 C503 C 0.22633 0.86749 0.42594
 N504 N 0.26193 0.87016 0.42436
 N505 N 0.09099 0.39083 0.74180
 C506 C 0.05940 0.38651 0.75803
 N507 N 0.05548 0.40078 0.79052
 N508 N 0.08106 0.41952 0.80572
 C509 C 0.11197 0.42500 0.78924
 N510 N 0.11677 0.41001 0.75703
 N511 N 0.05457 0.60855 0.21120
 C512 C 0.05556 0.62218 0.24414
 N513 N 0.08635 0.61977 0.26213
 N514 N 0.11411 0.60250 0.24828
 C515 C 0.11211 0.58759 0.21577
 N516 N 0.08211 0.59176 0.19737
 N517 N 0.95692 0.41879 0.22443
 C518 C 0.95165 0.40551 0.25692
 N519 N 0.91815 0.40496 0.26960
 N520 N 0.89150 0.41848 0.25092
 C521 C 0.89740 0.43230 0.21862
 N522 N 0.93049 0.43169 0.20574
 N523 N 0.94750 0.57147 0.76739
 C524 C 0.94351 0.58275 0.73404
 N525 N 0.91109 0.57947 0.71916
 N526 N 0.88443 0.56428 0.73678
 C527 C 0.88920 0.55266 0.77011
 N528 N 0.92112 0.55694 0.78494
 N529 N 0.77266 0.60705 0.92300
 C530 C 0.73712 0.60525 0.92435
 N531 N 0.71983 0.58728 0.89841
 N532 N 0.73766 0.57031 0.87302
 C533 C 0.77337 0.57065 0.87283
 N534 N 0.79039 0.59012 0.89780
 N535 N 0.27055 0.40259 0.91828
 C536 C 0.25795 0.40450 0.95151
 N537 N 0.22601 0.42010 0.95671
 N538 N 0.20795 0.43422 0.93051
 C539 C 0.22097 0.43369 0.89771
 N540 N 0.25253 0.41727 0.89187
 N541 N 0.27501 0.61165 0.09049
 C542 C 0.25739 0.61941 0.06060
 N543 N 0.22258 0.61171 0.05893
 N544 N 0.20627 0.59552 0.08525
 C545 C 0.22399 0.58639 0.11453
 N546 N 0.25857 0.59539 0.11704
 N547 N 0.78196 0.37775 0.06344
 C548 C 0.74643 0.37526 0.06481
 N549 N 0.72946 0.38952 0.09296
 N550 N 0.74735 0.40719 0.11783
 C551 C 0.78277 0.41123 0.11535
 N552 N 0.79974 0.39538 0.08814
 N553 N 0.90400 0.70738 0.58309
 C554 C 0.93178 0.72445 0.59848
 N555 N 0.93249 0.76155 0.59917
 N556 N 0.90724 0.78093 0.58417
 C557 C 0.88015 0.76413 0.56769
 N558 N 0.87853 0.72691 0.56798
 N559 N 0.90812 0.30186 0.42480
 C560 C 0.93088 0.28451 0.40295
 N561 N 0.92519 0.24879 0.39500
 N562 N 0.89872 0.23057 0.40928
 C563 C 0.87670 0.24729 0.43209
 N564 N 0.88141 0.28353 0.43911
 N565 N 0.07527 0.21052 0.61554
 C566 C 0.07470 0.24758 0.61791
 N567 N 0.09998 0.26696 0.60110
 N568 N 0.12400 0.24984 0.58153
 C569 C 0.12335 0.21278 0.57791
 N570 N 0.09909 0.19349 0.59600
 N571 N 0.08285 0.72524 0.39615
 C572 C 0.05130 0.74298 0.39679
 N573 N 0.04929 0.77535 0.41419
 N574 N 0.07677 0.78913 0.43079
 C575 C 0.10784 0.77123 0.43107
 N576 N 0.11059 0.73894 0.41333
 N577 N 0.61229 0.91997 0.74028
 C578 C 0.61295 0.95482 0.75325
 N579 N 0.59879 0.96100 0.78519
 N580 N 0.58335 0.93431 0.80276
 C581 C 0.58101 0.90010 0.78919
 N582 N 0.59619 0.89316 0.75775
 N583 N 0.41685 0.94750 0.22557
 C584 C 0.39876 0.94065 0.25530
 N585 N 0.39858 0.90566 0.26756
 N586 N 0.41701 0.87930 0.25137
 C587 C 0.43575 0.88698 0.22207
 N588 N 0.43476 0.92140 0.20935
 N589 N 0.59056 0.08770 0.27826
 C590 C 0.59110 0.05240 0.26642
 N591 N 0.57658 0.04515 0.23485
 N592 N 0.56160 0.07129 0.21626
 C593 C 0.56030 0.10617 0.22823
 N594 N 0.57512 0.11409 0.25964
 N595 N 0.40455 0.10388 0.70839
 C596 C 0.38521 0.07808 0.72513
 N597 N 0.38007 0.08179 0.75993
 N598 N 0.39502 0.10900 0.77763
 C599 C 0.41573 0.13377 0.76134
 N600 N 0.41949 0.13133 0.72617
 N601 N 0.58852 0.71116 0.09566
 C602 C 0.60947 0.73031 0.07360
 N603 N 0.61480 0.76642 0.07982
 N604 N 0.59868 0.78319 0.10612
 C605 C 0.57647 0.76462 0.12726
 N606 N 0.57228 0.72803 0.12212
 N607 N 0.41195 0.28241 0.09573
 C608 C 0.39658 0.26375 0.06899
 N609 N 0.39679 0.22668 0.06955
 N610 N 0.41284 0.20884 0.09501
 C611 C 0.42945 0.22725 0.12098
 N612 N 0.42822 0.26445 0.12131
 N613 N 0.59631 0.21519 0.92625
 C614 C 0.60175 0.25168 0.92980
 N615 N 0.58842 0.27455 0.90525
 N616 N 0.56916 0.26134 0.87893
 C617 C 0.56265 0.22482 0.87637
 N618 N 0.57722 0.20206 0.90009
 N619 N 0.41127 0.73258 0.90261
 C620 C 0.39336 0.75203 0.92718
 N621 N 0.39308 0.78905 0.92514
 N622 N 0.41123 0.80611 0.90056
 C623 C 0.43053 0.78693 0.87701
 N624 N 0.42957 0.74975 0.87789
 N625 N 0.76416 0.95582 0.43144
 C626 C 0.73092 0.95021 0.41996
 N627 N 0.71692 0.91602 0.42280
 N628 N 0.73534 0.88891 0.43735
 C629 C 0.76855 0.89499 0.44908
 N630 N 0.78249 0.92890 0.44570
 N631 N 0.29042 0.88841 0.57757
 C632 C 0.27456 0.91147 0.60067
 N633 N 0.24015 0.90613 0.60814
 N634 N 0.22194 0.87990 0.59219
 C635 C 0.23729 0.85780 0.56807
 N636 N 0.27216 0.86191 0.56166
 N637 N 0.26226 0.08612 0.39549
 C638 C 0.24486 0.05544 0.38504
 N639 N 0.20988 0.05309 0.39125
 N640 N 0.19320 0.07949 0.40853
 C641 C 0.21074 0.10937 0.42036
 N642 N 0.24551 0.11260 0.41298
 N643 N 0.73136 0.09936 0.59735
 C644 C 0.74787 0.06701 0.60371
 N645 N 0.78122 0.06252 0.59198
 N646 N 0.79709 0.08848 0.57374
 C647 C 0.78040 0.12026 0.56643
 N648 N 0.74735 0.12556 0.57900
 N649 N 0.92711 0.61233 0.20913
 C650 C 0.92819 0.61476 0.24442
 N651 N 0.90303 0.59721 0.26314
 N652 N 0.87881 0.57669 0.24706
 C653 C 0.87898 0.57303 0.21176
 N654 N 0.90315 0.59184 0.19316
 N655 N 0.92972 0.37470 0.79123
 C656 C 0.93263 0.37084 0.75618
 N657 N 0.90728 0.38561 0.73563
 N658 N 0.88106 0.40506 0.74964
 C659 C 0.87939 0.41043 0.78468
 N660 N 0.90369 0.39409 0.80516
 N661 N 0.07169 0.60452 0.76949
 C662 C 0.07013 0.59950 0.73451
 N663 N 0.09605 0.57994 0.71861
 N664 N 0.12170 0.56468 0.73735
 C665 C 0.12217 0.56845 0.77262
 N666 N 0.09716 0.58936 0.78811
 N667 N 0.08491 0.40081 0.23720
 C668 C 0.07860 0.40789 0.27136
 N669 N 0.09956 0.43239 0.28825
 N670 N 0.12491 0.45011 0.27107
 C671 C 0.13000 0.44403 0.23641
 N672 N 0.10998 0.41850 0.22010
   
