data_POSCAR
  _audit_creation_date              2014-09-24
  _audit_creation_method            'ToBaCCo'
  _symmetry_space_group_name_H-M    'P1'
  _symmetry_Int_Tables_number       1
  _symmetry_cell_setting            triclinic
  loop_
  _symmetry_equiv_pos_as_xyz
 x,y,z
_cell_length_a 42.3380
_cell_length_b 29.5405
_cell_length_c 37.9345
_cell_angle_alpha 89.869600
_cell_angle_beta 89.964600
_cell_angle_gamma 90.212700
loop_
  _atom_site_label
  _atom_site_type_symbol
  _atom_site_fract_x
  _atom_site_fract_y
  _atom_site_fract_z
C1 C 0.23414 0.22306 0.21582
 C2 C 0.23546 0.27123 0.21595
 C3 C 0.25702 0.29342 0.23799
 C4 C 0.27777 0.26965 0.25997
 C5 C 0.27733 0.22139 0.25986
 C6 C 0.25537 0.19929 0.23771
 H7 H 0.25474 0.16267 0.23754
 H8 H 0.25762 0.33014 0.23808
 C9 C 0.78166 0.26898 0.23816
 C10 C 0.77914 0.22076 0.23707
 C11 C 0.75572 0.19873 0.25699
 C12 C 0.73421 0.22292 0.27760
 C13 C 0.73682 0.27062 0.27942
 C14 C 0.76002 0.29289 0.25940
 H15 H 0.76207 0.32932 0.26197
 H16 H 0.75326 0.16225 0.25511
 C17 C 0.72916 0.71896 0.72566
 C18 C 0.72554 0.76647 0.72665
 C19 C 0.74497 0.79210 0.74894
 C20 C 0.76679 0.77167 0.77212
 C21 C 0.76889 0.72339 0.77245
 C22 C 0.75022 0.69810 0.74896
 H23 H 0.75286 0.66161 0.74801
 H24 H 0.74158 0.82845 0.74969
 C25 C 0.26373 0.76917 0.71891
 C26 C 0.26555 0.72136 0.72094
 C27 C 0.24630 0.69815 0.74511
 C28 C 0.22528 0.72092 0.76768
 C29 C 0.22292 0.76893 0.76475
 C30 C 0.24259 0.79218 0.74095
 H31 H 0.24041 0.82861 0.73840
 H32 H 0.24911 0.66182 0.74756
 O33 O 1.02574 0.06652 -0.00078
 O34 O 0.96606 0.00433 -0.05277
 O35 O 0.96473 0.06069 -0.00055
 O36 O 1.02770 0.01284 -0.05545
 O37 O 1.02980 -0.04717 -0.02076
 O38 O 0.96967 0.00417 0.03714
 O39 O 0.96873 -0.05244 -0.01504
 O40 O 1.03114 0.00689 0.03382
 Cu41 Cu 0.99581 0.04181 -0.03116
 Cu42 Cu 1.00034 -0.02796 0.01242
 C43 C 1.03862 0.04717 0.02548
 C44 C 0.95672 -0.03440 -0.04227
 C45 C 0.95662 0.04105 0.02785
 C46 C 1.03917 -0.02559 -0.04788
 O47 O 0.52747 0.42198 0.49862
 O48 O 0.46725 0.48378 0.55001
 O49 O 0.46574 0.42704 0.49747
 O50 O 0.52822 0.47531 0.55299
 O51 O 0.53345 0.53273 0.51613
 O52 O 0.46945 0.48523 0.46116
 O53 O 0.47272 0.54220 0.51411
 O54 O 0.53082 0.47972 0.46183
 Cu55 Cu 0.49665 0.44612 0.52831
 Cu56 Cu 0.50189 0.51572 0.48458
 C57 C 0.53955 0.44057 0.47146
 C58 C 0.46028 0.52406 0.54113
 C59 C 0.45680 0.44771 0.46989
 C60 C 0.54160 0.51215 0.54417
 O61 O -0.02913 0.57906 0.00118
 O62 O 0.02961 0.52449 0.05878
 O63 O 0.03185 0.57703 0.00408
 O64 O -0.03203 0.52693 0.05740
 O65 O -0.03054 0.46533 0.02465
 O66 O 0.03037 0.51805 -0.03147
 O67 O 0.03072 0.46561 0.02312
 O68 O -0.03115 0.51748 -0.03159
 Cu69 Cu -0.00013 0.55785 0.03390
 Cu70 Cu -0.00042 0.48558 -0.00728
 C71 C -0.03997 0.55769 -0.02523
 C72 C 0.04073 0.48610 0.05032
 C73 C 0.04191 0.55628 -0.02296
 C74 C -0.04160 0.48707 0.05072
 O75 O 0.52985 0.99286 0.45837
 O76 O 0.46413 0.95161 0.51317
 O77 O 0.46860 1.00081 0.45613
 O78 O 0.52547 0.94603 0.51628
 O79 O 0.52920 1.00957 0.54654
 O80 O 0.47061 1.06266 0.48860
 O81 O 0.46734 1.01297 0.54600
 O82 O 0.53107 1.05653 0.48877
 Cu83 Cu 0.49667 0.96652 0.48287
 Cu84 Cu 0.49963 1.04156 0.52089
 C85 C 0.54137 1.03196 0.46386
 C86 C 0.45472 0.97484 0.53921
 C87 C 0.46026 1.04142 0.46193
 C88 C 0.53749 0.96890 0.54129
 C89 C 1.22161 0.15736 0.17834
 C90 C 1.20070 0.13347 0.15673
 C91 C 1.17025 0.14972 0.15064
 C92 C 1.16032 0.18925 0.16770
 C93 C 1.18091 0.21263 0.19003
 C94 C 1.21236 0.19809 0.19482
 N95 N 1.14980 0.12530 0.12735
 N96 N 1.12573 0.14361 0.11327
 C97 C 1.10485 0.11889 0.09063
 C98 C 1.08340 0.14267 0.06959
 C99 C 1.06238 0.11943 0.04762
 C100 C 1.06207 0.07187 0.04701
 C101 C 1.08360 0.04805 0.06821
 C102 C 1.10502 0.07135 0.08961
 H103 H 1.24549 0.14478 0.18072
 H104 H 1.20855 0.10281 0.14387
 H105 H 1.13649 0.20167 0.16421
 H106 H 1.17181 0.24162 0.20407
 H107 H 1.08300 0.17931 0.07022
 H108 H 1.04589 0.13862 0.03176
 H109 H 1.08389 0.01139 0.06823
 H110 H 1.12128 0.05224 0.10580
 C111 C 0.71248 0.70137 0.66380
 C112 C 0.69350 0.67771 0.63999
 C113 C 0.67387 0.64260 0.65173
 C114 C 0.67414 0.63035 0.68759
 C115 C 0.69301 0.65418 0.71148
 C116 C 0.71174 0.69059 0.69989
 N117 N 0.65283 0.62156 0.62714
 N118 N 0.63490 0.58874 0.63586
 C119 C 0.61278 0.56906 0.61177
 C120 C 0.59548 0.53104 0.62246
 C121 C 0.57268 0.51215 0.60028
 C122 C 0.56658 0.53132 0.56701
 C123 C 0.58419 0.56934 0.55618
 C124 C 0.60718 0.58801 0.57833
 H125 H 0.72710 0.72897 0.65426
 H126 H 0.69357 0.68736 0.61244
 H127 H 0.65916 0.60328 0.69730
 H128 H 0.69212 0.64532 0.73919
 H129 H 0.59951 0.51626 0.64822
 H130 H 0.55949 0.48292 0.60945
 H131 H 0.58010 0.58482 0.53070
 H132 H 0.62018 0.61757 0.56955
 C133 C -0.16392 0.27735 0.21512
 C134 C -0.14193 0.30036 0.19416
 C135 C -0.14993 0.34110 0.17775
 C136 C -0.18015 0.35919 0.18301
 C137 C -0.20240 0.33584 0.20343
 C138 C -0.19501 0.29372 0.21908
 N139 N -0.12736 0.36262 0.15504
 N140 N -0.13058 0.40320 0.14430
 C141 C -0.10845 0.42363 0.12046
 C142 C -0.10753 0.47082 0.11721
 C143 C -0.08581 0.49163 0.09450
 C144 C -0.06524 0.46534 0.07396
 C145 C -0.06674 0.41793 0.07664
 C146 C -0.08794 0.39723 0.09994
 H147 H -0.15625 0.24703 0.22859
 H148 H -0.11849 0.28647 0.19083
 H149 H -0.18691 0.39066 0.17048
 H150 H -0.22593 0.34986 0.20534
 H151 H -0.12333 0.49151 0.13274
 H152 H -0.08521 0.52823 0.09286
 H153 H -0.05106 0.39687 0.06125
 H154 H -0.08846 0.36065 0.10175
 C155 C 0.28260 0.78568 0.65738
 C156 C 0.30222 0.80929 0.63401
 C157 C 0.32194 0.84401 0.64622
 C158 C 0.32143 0.85551 0.68215
 C159 C 0.30200 0.83168 0.70558
 C160 C 0.28286 0.79601 0.69351
 N161 N 0.34313 0.86561 0.62195
 N162 N 0.36045 0.89909 0.63066
 C163 C 0.38264 0.91908 0.60663
 C164 C 0.39935 0.95786 0.61686
 C165 C 0.42233 0.97676 0.59467
 C166 C 0.42917 0.95675 0.56196
 C167 C 0.41202 0.91815 0.55159
 C168 C 0.38891 0.89956 0.57363
 H169 H 0.26762 0.75882 0.64739
 H170 H 0.30236 0.80018 0.60638
 H171 H 0.33650 0.88218 0.69223
 H172 H 0.30249 0.84027 0.73332
 H173 H 0.39480 0.97315 0.64227
 H174 H 0.43518 1.00642 0.60345
 H175 H 0.41664 0.90200 0.52651
 H176 H 0.37639 0.86950 0.56514
 C177 C -0.21984 0.66183 -0.18399
 C178 C -0.19938 0.63846 -0.16161
 C179 C -0.16760 0.65108 -0.15928
 C180 C -0.15599 0.68601 -0.18098
 C181 C -0.17625 0.70850 -0.20425
 C182 C -0.20862 0.69767 -0.20504
 N183 N -0.14772 0.62824 -0.13450
 N184 N -0.12289 0.64665 -0.12213
 C185 C -0.10284 0.62368 -0.09758
 C186 C -0.08178 0.64905 -0.07714
 C187 C -0.06195 0.62766 -0.05286
 C188 C -0.06233 0.58029 -0.04933
 C189 C -0.08330 0.55480 -0.07010
 C190 C -0.10367 0.57635 -0.09377
 H191 H -0.24461 0.65254 -0.18439
 H192 H -0.20852 0.61136 -0.14521
 H193 H -0.13133 0.69571 -0.18002
 H194 H -0.16688 0.73515 -0.22094
 H195 H -0.08088 0.68553 -0.07989
 H196 H -0.04579 0.64808 -0.03743
 H197 H -0.08401 0.51824 -0.06793
 H198 H -0.11966 0.55604 -0.10948
 C199 C 0.28714 1.15423 0.29687
 C200 C 0.30690 1.12869 0.31862
 C201 C 0.33776 1.14304 0.32536
 C202 C 0.34928 1.18222 0.30871
 C203 C 0.32983 1.20723 0.28626
 C204 C 0.29797 1.19471 0.28090
 N205 N 0.35675 1.11779 0.34959
 N206 N 0.38073 1.13542 0.36446
 C207 C 0.40010 1.11086 0.38872
 C208 C 0.42064 1.13505 0.41057
 C209 C 0.43970 1.11241 0.43483
 C210 C 0.43905 1.06491 0.43707
 C211 C 0.41869 1.04052 0.41478
 C212 C 0.39907 1.06336 0.39100
 H213 H 0.26286 1.14318 0.29409
 H214 H 0.29778 1.09843 0.33123
 H215 H 0.37342 1.19324 0.31279
 H216 H 0.34007 1.23596 0.27265
 H217 H 0.42167 1.17164 0.40897
 H218 H 0.45539 1.13205 0.45142
 H219 H 0.41779 1.00390 0.41596
 H220 H 0.38346 1.04398 0.37417
 C221 C 1.16629 -0.21852 -0.21812
 C222 C 1.14351 -0.19670 -0.19773
 C223 C 1.15180 -0.15970 -0.17669
 C224 C 1.18321 -0.14408 -0.17673
 C225 C 1.20620 -0.16655 -0.19653
 C226 C 1.19808 -0.20468 -0.21672
 N227 N 1.12828 -0.14000 -0.15441
 N228 N 1.13169 -0.10109 -0.14057
 C229 C 1.10854 -0.08285 -0.11708
 C230 C 1.10694 -0.03595 -0.11240
 C231 C 1.08423 -0.01725 -0.09002
 C232 C 1.06342 -0.04540 -0.07108
 C233 C 1.06558 -0.09254 -0.07510
 C234 C 1.08771 -0.11113 -0.09825
 H235 H 1.15934 -0.24722 -0.23408
 H236 H 1.11935 -0.20889 -0.19806
 H237 H 1.19014 -0.11557 -0.16058
 H238 H 1.23051 -0.15514 -0.19519
 H239 H 1.12298 -0.01383 -0.12660
 H240 H 1.08313 0.01920 -0.08721
 H241 H 1.04972 -0.11492 -0.06087
 H242 H 1.08878 -0.14754 -0.10119
 C243 C 0.69816 0.33363 0.28786
 C244 C 0.67597 0.35647 0.30843
 C245 C 0.67089 0.34386 0.34357
 C246 C 0.68932 0.30935 0.35853
 C247 C 0.71183 0.28691 0.33813
 C248 C 0.71575 0.29793 0.30231
 N249 N 0.64645 0.36591 0.36310
 N250 N 0.63741 0.35211 0.39329
 C251 C 0.61273 0.37436 0.41237
 C252 C 0.60210 0.35575 0.44423
 C253 C 0.57797 0.37676 0.46336
 C254 C 0.56427 0.41704 0.45092
 C255 C 0.57499 0.43552 0.41884
 C256 C 0.59891 0.41437 0.39971
 H257 H 0.70084 0.34276 0.26034
 H258 H 0.66203 0.38320 0.29668
 H259 H 0.68608 0.29940 0.38578
 H260 H 0.72556 0.26002 0.34998
 H261 H 0.61253 0.32488 0.45425
 H262 H 0.57032 0.36178 0.48801
 H263 H 0.56493 0.46647 0.40849
 H264 H 0.60668 0.42945 0.37514
 C265 C 0.79854 -0.15951 -0.21988
 C266 C 0.81888 -0.13282 -0.19968
 C267 C 0.82650 -0.14541 -0.16524
 C268 C 0.81230 -0.18408 -0.15045
 C269 C 0.79167 -0.21065 -0.17050
 C270 C 0.78545 -0.19987 -0.20607
 N271 N 0.84945 -0.11922 -0.14641
 N272 N 0.86012 -0.13152 -0.11656
 C273 C 0.88373 -0.10600 -0.09819
 C274 C 0.89570 -0.12313 -0.06655
 C275 C 0.91943 -0.09990 -0.04844
 C276 C 0.93156 -0.05882 -0.06166
 C277 C 0.91931 -0.04144 -0.09334
 C278 C 0.89563 -0.06487 -0.11152
 H279 H 0.79453 -0.14970 -0.24703
 H280 H 0.82954 -0.10292 -0.21130
 H281 H 0.81728 -0.19394 -0.12353
 H282 H 0.78052 -0.23953 -0.15799
 H283 H 0.88676 -0.15481 -0.05606
 H284 H 0.92826 -0.11417 -0.02406
 H285 H 0.92812 -0.00989 -0.10418
 H286 H 0.88675 -0.05095 -0.13599
 C287 C 0.31807 0.33035 0.27031
 C288 C 0.33788 0.35511 0.29259
 C289 C 0.33782 0.34694 0.32892
 C290 C 0.31694 0.31443 0.34300
 C291 C 0.29684 0.28996 0.32076
 C292 C 0.29777 0.29701 0.28412
 N293 N 0.35974 0.37118 0.35067
 N294 N 0.36342 0.36194 0.38319
 C295 C 0.38584 0.38542 0.40480
 C296 C 0.39124 0.36973 0.43905
 C297 C 0.41406 0.39029 0.46031
 C298 C 0.43173 0.42739 0.44773
 C299 C 0.42575 0.44383 0.41358
 C300 C 0.40309 0.42289 0.39219
 H301 H 0.31904 0.33649 0.24217
 H302 H 0.35379 0.38011 0.28145
 H303 H 0.31631 0.30774 0.37106
 H304 H 0.28099 0.26494 0.33199
 H305 H 0.37809 0.34093 0.44907
 H306 H 0.41797 0.37694 0.48655
 H307 H 0.43899 0.47229 0.40314
 H308 H 0.39927 0.43572 0.36579
 C309 C 0.19440 0.65304 -0.21691
 C310 C 0.17494 0.62934 -0.19348
 C311 C 0.16841 0.64688 -0.16011
 C312 C 0.18275 0.68761 -0.14967
 C313 C 0.20237 0.71126 -0.17294
 C314 C 0.20757 0.69529 -0.20749
 N315 N 0.14627 0.62364 -0.13795
 N316 N 0.13724 0.63982 -0.10859
 C317 C 0.11426 0.61741 -0.08697
 C318 C 0.10437 0.63830 -0.05585
 C319 C 0.08099 0.61835 -0.03489
 C320 C 0.06713 0.57693 -0.04477
 C321 C 0.07743 0.55570 -0.07584
 C322 C 0.10076 0.57579 -0.09681
 H323 H 0.19756 0.63937 -0.24313
 H324 H 0.16410 0.59785 -0.20176
 H325 H 0.17857 0.70141 -0.12368
 H326 H 0.21357 0.74203 -0.16375
 H327 H 0.11457 0.67043 -0.04804
 H328 H 0.07365 0.63552 -0.01108
 H329 H 0.06726 0.52378 -0.08415
 H330 H 0.10802 0.55899 -0.12080
 C331 C 0.71559 1.16124 0.31821
 C332 C 0.69163 1.13985 0.33752
 C333 C 0.66030 1.15503 0.33485
 C334 C 0.65309 1.19043 0.31173
 C335 C 0.67687 1.21111 0.29185
 C336 C 0.70850 1.19774 0.29582
 N337 N 0.63573 1.13672 0.35655
 N338 N 0.63832 1.09889 0.37234
 C339 C 0.61401 1.08257 0.39537
 C340 C 0.61177 1.03616 0.40244
 C341 C 0.58796 1.01948 0.42455
 C342 C 0.56667 1.04931 0.44076
 C343 C 0.56941 1.09597 0.43426
 C344 C 0.59266 1.11245 0.41143
 H345 H 0.73978 1.15025 0.32158
 H346 H 0.69772 1.11261 0.35537
 H347 H 0.62901 1.20226 0.30936
 H348 H 0.67072 1.23844 0.27409
 H349 H 0.62821 1.01285 0.39037
 H350 H 0.58638 0.98338 0.42932
 H351 H 0.55319 1.11960 0.44635
 H352 H 0.59420 1.14853 0.40662
 C353 C 0.21676 0.29323 0.15544
 C354 C 0.19650 0.31783 0.13356
 C355 C 0.17597 0.34998 0.14786
 C356 C 0.17644 0.35817 0.18435
 C357 C 0.19646 0.33334 0.20626
 C358 C 0.21624 0.29994 0.19209
 N359 N 0.15394 0.37230 0.12514
 N360 N 0.13585 0.40355 0.13616
 C361 C 0.11281 0.42447 0.11389
 C362 C 0.09617 0.46196 0.12645
 C363 C 0.07288 0.48234 0.10573
 C364 C 0.06560 0.46504 0.07220
 C365 C 0.08235 0.42733 0.05967
 C366 C 0.10585 0.40732 0.08026
 H367 H 0.23216 0.26805 0.14396
 H368 H 0.19641 0.31132 0.10549
 H369 H 0.16080 0.38286 0.19603
 H370 H 0.19581 0.33913 0.23444
 H371 H 0.10124 0.47534 0.15240
 H372 H 0.06035 0.51128 0.11613
 H373 H 0.07737 0.41333 0.03390
 H374 H 0.11827 0.37818 0.07005
 C375 C 0.66920 0.77403 0.70689
 C376 C 0.64603 0.79442 0.68614
 C377 C 0.65343 0.83196 0.66518
 C378 C 0.68447 0.84905 0.66513
 C379 C 0.70789 0.82800 0.68529
 C380 C 0.70055 0.78990 0.70602
 N381 N 0.62922 0.85147 0.64374
 N382 N 0.63184 0.89090 0.63048
 C383 C 0.60789 0.90964 0.60824
 C384 C 0.60718 0.95646 0.60282
 C385 C 0.58398 0.97578 0.58144
 C386 C 0.56157 0.94831 0.56436
 C387 C 0.56261 0.90121 0.56933
 C388 C 0.58539 0.88201 0.59142
 H389 H 0.66272 0.74549 0.72337
 H390 H 0.62216 0.78113 0.68656
 H391 H 0.69074 0.87798 0.64898
 H392 H 0.73184 0.84093 0.68424
 H393 H 0.62448 0.97805 0.61551
 H394 H 0.58384 1.01216 0.57782
 H395 H 0.54560 0.87932 0.55648
 H396 H 0.58568 0.84565 0.59502
 C397 C 0.81614 0.15633 0.22661
 C398 C 0.83555 0.13095 0.20442
 C399 C 0.83727 0.14097 0.16840
 C400 C 0.81844 0.17584 0.15448
 C401 C 0.79883 0.20099 0.17661
 C402 C 0.79817 0.19220 0.21300
 N403 N 0.85905 0.11643 0.14685
 N404 N 0.86390 0.12693 0.11475
 C405 C 0.88625 0.10354 0.09318
 C406 C 0.89207 0.11971 0.05913
 C407 C 0.91475 0.09916 0.03783
 C408 C 0.93193 0.06169 0.05021
 C409 C 0.92563 0.04492 0.08423
 C410 C 0.90304 0.06577 0.10563
 H411 H 0.81577 0.14882 0.25458
 H412 H 0.84985 0.10410 0.21542
 H413 H 0.81917 0.18400 0.12666
 H414 H 0.78471 0.22801 0.16553
 H415 H 0.87928 0.14878 0.04927
 H416 H 0.91892 0.11280 0.01172
 H417 H 0.93848 0.01614 0.09450
 H418 H 0.89891 0.05263 0.13189
 C419 C 0.27657 0.65595 0.68091
 C420 C 0.29715 0.62973 0.66075
 C421 C 0.32899 0.64182 0.65771
 C422 C 0.34032 0.68003 0.67583
 C423 C 0.31991 0.70565 0.69674
 C424 C 0.28768 0.69433 0.69899
 N425 N 0.34934 0.61465 0.63636
 N426 N 0.37567 0.62953 0.62494
 C427 C 0.39636 0.60228 0.60408
 C428 C 0.41981 0.62360 0.58401
 C429 C 0.44022 0.59811 0.56310
 C430 C 0.43801 0.55063 0.56266
 C431 C 0.41479 0.52913 0.58327
 C432 C 0.39384 0.55480 0.60355
 H433 H 0.25188 0.64637 0.68229
 H434 H 0.28818 0.60027 0.64701
 H435 H 0.36499 0.68959 0.67426
 H436 H 0.32929 0.73424 0.71120
 H437 H 0.42204 0.66013 0.58432
 H438 H 0.45810 0.61551 0.54770
 H439 H 0.41263 0.49259 0.58339
 H440 H 0.37600 0.53762 0.61911
   
