data_POSCAR
  _audit_creation_date              2014-09-24
  _audit_creation_method            'ToBaCCo'
  _symmetry_space_group_name_H-M    'P1'
  _symmetry_Int_Tables_number       1
  _symmetry_cell_setting            triclinic
  loop_
  _symmetry_equiv_pos_as_xyz
 x,y,z
_cell_length_a 41.7129
_cell_length_b 42.5915
_cell_length_c 40.2563
_cell_angle_alpha 91.832300
_cell_angle_beta 88.843600
_cell_angle_gamma 92.172900
loop_
  _atom_site_label
  _atom_site_type_symbol
  _atom_site_fract_x
  _atom_site_fract_y
  _atom_site_fract_z
C1 C 0.18283 0.21580 0.21407
 C2 C 0.18478 0.24014 0.19121
 C3 C 0.21046 0.24218 0.16893
 C4 C 0.23454 0.22007 0.16919
 C5 C 0.23272 0.19652 0.19186
 C6 C 0.20673 0.19435 0.21436
 C7 C 0.16008 0.20673 0.23758
 N8 N 0.16958 0.18018 0.25231
 C9 C 0.19833 0.17277 0.23788
 C10 C 0.25829 0.17772 0.18560
 N11 N 0.27586 0.18894 0.15925
 C12 C 0.26120 0.21509 0.14925
 C13 C 0.20555 0.26704 0.14892
 N14 N 0.17755 0.28033 0.15841
 C15 C 0.16471 0.26396 0.18430
 H16 H 0.13830 0.21896 0.24316
 H17 H 0.21214 0.15255 0.24280
 H18 H 0.26239 0.15647 0.19859
 H19 H 0.26892 0.22971 0.12892
 H20 H 0.22131 0.27484 0.12891
 H21 H 0.14197 0.26842 0.19664
 C22 C -0.20337 0.78614 0.22430
 C23 C -0.20307 0.76168 0.19997
 C24 C -0.22661 0.75948 0.17618
 C25 C -0.25074 0.78153 0.17634
 C26 C -0.25113 0.80527 0.20037
 C27 C -0.22728 0.80761 0.22448
 C28 C -0.18270 0.79542 0.24935
 N29 N -0.19338 0.82219 0.26494
 C30 C -0.22088 0.82947 0.24951
 C31 C -0.27598 0.82412 0.19344
 N32 N -0.29088 0.81272 0.16541
 C33 C -0.27532 0.78641 0.15502
 C34 C -0.21953 0.73475 0.15483
 N35 N -0.19226 0.72173 0.16496
 C36 C -0.18207 0.73812 0.19262
 H37 H -0.16137 0.78326 0.25519
 H38 H -0.23507 0.84979 0.25481
 H39 H -0.28133 0.84552 0.20726
 H40 H -0.28089 0.77165 0.13342
 H41 H -0.23327 0.72695 0.13338
 H42 H -0.16038 0.73393 0.20584
 C43 C -0.21405 0.22581 -0.25294
 C44 C -0.21493 0.25206 -0.23083
 C45 C -0.24118 0.25572 -0.20973
 C46 C -0.26659 0.23334 -0.21005
 C47 C -0.26571 0.20760 -0.23153
 C48 C -0.23930 0.20389 -0.25330
 C49 C -0.19077 0.21457 -0.27449
 N50 N -0.20114 0.18625 -0.28820
 C51 C -0.23100 0.17984 -0.27496
 C52 C -0.29139 0.18795 -0.22327
 N53 N -0.30782 0.20088 -0.19679
 C54 C -0.29260 0.22902 -0.18907
 C55 C -0.23448 0.28094 -0.18866
 N56 N -0.20463 0.29285 -0.19607
 C57 C -0.19253 0.27541 -0.22203
 H58 H -0.16786 0.22645 -0.27911
 H59 H -0.24568 0.15874 -0.27936
 H60 H -0.29589 0.16491 -0.23458
 H61 H -0.29858 0.24501 -0.16873
 H62 H -0.24996 0.28931 -0.16866
 H63 H -0.16850 0.27823 -0.23244
 C64 C 0.19711 0.78082 -0.25261
 C65 C 0.19890 0.75448 -0.23255
 C66 C 0.22609 0.75067 -0.21423
 C67 C 0.25157 0.77293 -0.21530
 C68 C 0.24976 0.79878 -0.23468
 C69 C 0.22239 0.80268 -0.25362
 C70 C 0.17306 0.79211 -0.27141
 N71 N 0.18297 0.82042 -0.28401
 C72 C 0.21332 0.82675 -0.27283
 C73 C 0.27598 0.81823 -0.22754
 N74 N 0.29372 0.80503 -0.20380
 C75 C 0.27870 0.77695 -0.19669
 C76 C 0.22041 0.72524 -0.19465
 N77 N 0.19028 0.71335 -0.20022
 C78 C 0.17696 0.73100 -0.22359
 H79 H 0.14983 0.78046 -0.27461
 H80 H 0.22823 0.84746 -0.27756
 H81 H 0.28039 0.84104 -0.23804
 H82 H 0.28528 0.76110 -0.17778
 H83 H 0.23685 0.71665 -0.17689
 H84 H 0.15253 0.72816 -0.23205
 C85 C 0.22832 1.19967 0.76057
 C86 C 0.24746 1.19559 0.78825
 C87 C 0.24495 1.21557 0.81592
 C88 C 0.22331 1.24008 0.81612
 C89 C 0.20499 1.24422 0.78859
 C90 C 0.20741 1.22387 0.76077
 C91 C 0.22260 1.18152 0.73226
 N92 N 0.19827 1.19389 0.71521
 C93 C 0.18934 1.22021 0.73272
 C94 C 0.18423 1.26760 0.79640
 N95 N 0.18899 1.27807 0.82835
 C96 C 0.21312 1.26113 0.84048
 C97 C 0.26435 1.20441 0.83984
 N98 N 0.27865 1.17828 0.82730
 C99 C 0.26828 1.17274 0.79578
 H100 H 0.23464 1.16009 0.72589
 H101 H 0.16955 1.23474 0.72733
 H102 H 0.16564 1.27466 0.78021
 H103 H 0.22254 1.26325 0.86530
 H104 H 0.26756 1.21448 0.86463
 H105 H 0.27449 1.15286 0.77983
 C106 C 0.79668 0.80622 0.76220
 C107 C 0.77468 0.80975 0.78876
 C108 C 0.77426 0.78910 0.81463
 C109 C 0.79594 0.76467 0.81427
 C110 C 0.81736 0.76121 0.78801
 C111 C 0.81785 0.78219 0.76192
 C112 C 0.80456 0.82441 0.73541
 N113 N 0.83040 0.81225 0.71878
 C114 C 0.83831 0.78611 0.73510
 C115 C 0.83695 0.73732 0.79518
 N116 N 0.82831 0.72586 0.82547
 C117 C 0.80299 0.74272 0.83716
 C118 C 0.75206 0.79945 0.83786
 N119 N 0.73904 0.82588 0.82674
 C120 C 0.75282 0.83227 0.79669
 H121 H 0.79317 0.84600 0.73010
 H122 H 0.85791 0.77101 0.72886
 H123 H 0.85715 0.73035 0.77980
 H124 H 0.79048 0.73986 0.86070
 H125 H 0.74668 0.78911 0.86164
 H126 H 0.74756 0.85202 0.78171
 C127 C 0.23433 0.78583 1.27343
 C128 C 0.25569 0.78957 1.24636
 C129 C 0.25435 0.76860 1.21935
 C130 C 0.23150 0.74340 1.21922
 C131 C 0.21084 0.73971 1.24624
 C132 C 0.21222 0.76106 1.27333
 C133 C 0.22658 0.80546 1.29995
 N134 N 0.19976 0.79354 1.31590
 C135 C 0.19139 0.76591 1.29966
 C136 C 0.18873 0.71625 1.23812
 N137 N 0.19503 0.70546 1.20667
 C138 C 0.22136 0.72180 1.19493
 C139 C 0.27552 0.78015 1.19552
 N140 N 0.28957 0.80752 1.20743
 C141 C 0.27744 0.81334 1.23851
 H142 H 0.23840 0.82806 1.30500
 H143 H 0.17045 0.75101 1.30465
 H144 H 0.16872 0.70848 1.25370
 H145 H 0.23111 0.71964 1.16988
 H146 H 0.27927 0.77009 1.17078
 H147 H 0.28352 0.83369 1.25423
 C148 C 0.78508 1.19834 1.26582
 C149 C 0.76150 1.19566 1.24142
 C150 C 0.76080 1.21755 1.21675
 C151 C 0.78383 1.24256 1.21626
 C152 C 0.80683 1.24510 1.24057
 C153 C 0.80747 1.22287 1.26533
 C154 C 0.79388 1.17858 1.29015
 N155 N 0.82150 1.19028 1.30441
 C156 C 0.82954 1.21774 1.28921
 C157 C 0.82783 1.26933 1.23259
 N158 N 0.81851 1.28173 1.20384
 C159 C 0.79143 1.26561 1.19372
 C160 C 0.73703 1.20745 1.19516
 N161 N 0.72338 1.18003 1.20611
 C162 C 0.73831 1.17277 1.23442
 H163 H 0.78182 1.15628 1.29509
 H164 H 0.85049 1.23279 1.29383
 H165 H 0.84892 1.27680 1.24640
 H166 H 0.77917 1.26922 1.17079
 H167 H 0.73104 1.21863 1.17244
 H168 H 0.73302 1.15211 1.24881
 O169 O 0.52943 0.96654 0.94004
 O170 O 0.46600 0.98779 1.07477
 O171 O 0.55972 0.97976 1.02825
 O172 O 0.45323 0.94661 0.97942
 O173 O 0.51605 0.96270 1.05155
 O174 O 0.46978 0.96728 0.93412
 O175 O 0.45738 0.95539 1.03600
 O176 O 0.56525 0.99271 0.96974
 C177 C 0.55757 0.97049 0.94965
 C178 C 0.45233 0.96295 1.06544
 C179 C 0.54478 0.95917 1.04452
 C180 C 0.45599 0.94534 0.94885
 O181 O 0.47127 1.02755 0.93851
 O182 O 0.52217 1.01407 1.08527
 O183 O 0.54176 1.05038 0.98507
 O184 O 0.43806 1.01707 1.03048
 O185 O 0.48205 1.03981 1.04943
 O186 O 0.53177 1.02789 0.93780
 O187 O 0.43340 1.00591 0.97028
 O188 O 0.54001 1.03924 1.04257
 Co189 Co 0.50051 0.99733 0.94346
 Co190 Co 0.50005 1.00141 1.04862
 Co191 Co 0.54713 1.01386 1.00580
 Co192 Co 0.44961 0.98269 1.00390
 O193 O 0.49798 0.99763 0.99819
 C194 C 0.44259 1.02527 0.94845
 C195 C 0.54343 1.03349 1.07290
 C196 C 0.54107 1.05153 0.95442
 C197 C 0.45261 1.04058 1.04414
 O198 O 0.03531 0.48323 0.04845
 O199 O 0.02901 0.52995 -0.06892
 O200 O 0.00520 0.43594 -0.03398
 O201 O 0.04321 0.54105 0.03290
 O202 O 0.03136 0.47145 -0.06313
 O203 O 0.01078 0.53257 0.07185
 O204 O 0.05114 0.54517 -0.02362
 O205 O 0.01691 0.44073 0.02492
 C206 C 0.03816 0.45489 0.04161
 C207 C 0.05146 0.54377 -0.05422
 C208 C 0.02822 0.44403 -0.05313
 C209 C 0.03612 0.54570 0.06251
 O210 O -0.04308 0.51764 0.04659
 O211 O -0.03092 0.46762 -0.06649
 O212 O -0.04350 0.46074 0.03796
 O213 O -0.00989 0.56445 -0.03204
 O214 O -0.03218 0.52706 -0.06427
 O215 O -0.01741 0.47762 0.08139
 O216 O -0.01958 0.56044 0.02832
 O217 O -0.05431 0.45880 -0.01987
 Co218 Co -0.00410 0.49940 0.04545
 Co219 Co -0.00066 0.49906 -0.05980
 Co220 Co -0.01729 0.45347 0.00168
 Co221 Co 0.01475 0.54881 0.00119
 O222 O -0.00061 0.50151 -0.00494
 C223 C -0.04343 0.54659 0.04215
 C224 C -0.05490 0.45791 -0.05055
 C225 C -0.03782 0.45739 0.06839
 C226 C -0.02998 0.55520 -0.05388
 O227 O 1.06056 0.03658 0.46748
 O228 O 0.93231 0.00928 0.53339
 O229 O 0.97631 0.02177 0.43667
 O230 O 1.02398 0.05126 0.54920
 O231 O 0.95429 0.03677 0.48282
 O232 O 1.06781 0.03349 0.52878
 O233 O 0.96939 0.04179 0.54437
 O234 O 1.03298 0.01024 0.42991
 C235 C 1.05107 0.03335 0.43840
 C236 C 0.94094 0.03361 0.54872
 C237 C 0.96043 0.04143 0.45313
 C238 C 1.05335 0.05379 0.54520
 O239 O 1.06538 -0.02674 0.52522
 O240 O 0.92236 -0.01492 0.47447
 O241 O 1.01944 -0.04852 0.45312
 O242 O 0.97545 -0.02073 0.56108
 O243 O 0.95752 -0.04165 0.51462
 O244 O 1.06458 -0.02476 0.46262
 O245 O 1.03395 -0.00888 0.56588
 O246 O 0.96377 -0.03878 0.45494
 Co247 Co 1.05900 0.00441 0.49612
 Co248 Co 0.95772 -0.00247 0.49764
 Co249 Co 0.99879 -0.01229 0.44842
 Co250 Co 1.00082 0.01456 0.55073
 O251 O 1.00628 0.00230 0.49976
 C252 C 1.05603 -0.02647 0.55513
 C253 C 0.93436 -0.03351 0.45187
 C254 C 1.04902 -0.04912 0.45427
 C255 C 0.96215 -0.04358 0.54508
 C256 C 1.15066 0.12065 0.31581
 C257 C 1.11919 0.12759 0.32485
 C258 C 1.10462 0.15259 0.31019
 C259 C 1.12137 0.17039 0.28632
 C260 C 1.15318 0.16342 0.27643
 C261 C 1.16748 0.13825 0.29204
 C262 C 1.10218 0.10870 0.34907
 C263 C 1.08904 0.09211 0.36937
 C264 C 1.07481 0.07201 0.39325
 C265 C 1.06354 0.05448 0.41375
 H266 H 1.16231 0.10149 0.32717
 H267 H 1.08020 0.15822 0.31702
 H268 H 1.10882 0.18909 0.27540
 H269 H 1.19186 0.13194 0.28655
 C270 C 0.86706 -0.15002 0.32687
 C271 C 0.85210 -0.12406 0.34147
 C272 C 0.82164 -0.11658 0.33117
 C273 C 0.80633 -0.13461 0.30612
 C274 C 0.82122 -0.16071 0.29048
 C275 C 0.85187 -0.16821 0.30179
 C276 C 0.86832 -0.10460 0.36637
 C277 C 0.88224 -0.08810 0.38678
 C278 C 0.89924 -0.06875 0.41016
 C279 C 0.91463 -0.05244 0.42957
 H280 H 0.89072 -0.15605 0.33463
 H281 H 0.80972 -0.09659 0.34239
 H282 H 0.78272 -0.12777 0.29949
 H283 H 0.86482 -0.18763 0.29107
 C284 C 0.86492 0.15485 0.65866
 C285 C 0.85035 0.12722 0.64554
 C286 C 0.81845 0.11960 0.65402
 C287 C 0.80123 0.13927 0.67573
 C288 C 0.81559 0.16723 0.68974
 C289 C 0.84784 0.17467 0.68040
 C290 C 0.86830 0.10644 0.62383
 C291 C 0.88370 0.08909 0.60597
 C292 C 0.90246 0.06906 0.58547
 C293 C 0.91938 0.05246 0.56840
 H294 H 0.88968 0.16101 0.65228
 H295 H 0.80683 0.09831 0.64390
 H296 H 0.77661 0.13222 0.68104
 H297 H 0.86051 0.19544 0.69003
 C298 C 1.16081 -0.11194 0.66629
 C299 C 1.13025 -0.12168 0.65577
 C300 C 1.11716 -0.15076 0.66535
 C301 C 1.13455 -0.17007 0.68537
 C302 C 1.16564 -0.16069 0.69633
 C303 C 1.17831 -0.13107 0.68624
 C304 C 1.11274 -0.10179 0.63481
 C305 C 1.09883 -0.08472 0.61706
 C306 C 1.08330 -0.06442 0.59594
 C307 C 1.07060 -0.04704 0.57756
 H308 H 1.17125 -0.08945 0.65900
 H309 H 1.09350 -0.15863 0.65725
 H310 H 1.12331 -0.19235 0.69178
 H311 H 1.20170 -0.12205 0.69353
 C312 C 0.34289 1.13536 1.14440
 C313 C 0.35375 1.14410 1.11289
 C314 C 0.33978 1.16902 1.09751
 C315 C 0.31445 1.18464 1.11326
 C316 C 0.30225 1.17532 1.14467
 C317 C 0.31757 1.15074 1.16018
 C318 C 0.37769 1.12584 1.09582
 C319 C 0.39677 1.10881 1.08240
 C320 C 0.41780 1.08691 1.06781
 C321 C 0.43449 1.06660 1.05639
 H322 H 0.35364 1.11616 1.15663
 H323 H 0.34794 1.17590 1.07298
 H324 H 0.30386 1.20309 1.09989
 H325 H 0.31036 1.14310 1.18461
 C326 C 0.35456 0.86485 0.82520
 C327 C 0.36863 0.84908 0.85071
 C328 C 0.35961 0.81778 0.85623
 C329 C 0.33564 0.80264 0.83721
 C330 C 0.31971 0.81871 0.81242
 C331 C 0.33055 0.84989 0.80612
 C332 C 0.39043 0.86593 0.87267
 C333 C 0.40742 0.88146 0.89118
 C334 C 0.42584 0.90154 0.91247
 C335 C 0.44033 0.92050 0.92982
 H336 H 0.36149 0.88914 0.82065
 H337 H 0.37054 0.80527 0.87583
 H338 H 0.32956 0.77852 0.84277
 H339 H 0.32008 0.86356 0.78732
 C340 C 0.64418 0.86663 1.14841
 C341 C 0.63621 0.85711 1.11602
 C342 C 0.65139 0.83167 1.10065
 C343 C 0.67505 0.81626 1.11733
 C344 C 0.68433 0.82628 1.14974
 C345 C 0.66782 0.85144 1.16514
 C346 C 0.61403 0.87503 1.09814
 C347 C 0.59637 0.89172 1.08403
 C348 C 0.57690 0.91323 1.06873
 C349 C 0.56147 0.93329 1.05689
 H350 H 0.63246 0.88626 1.16062
 H351 H 0.64548 0.82419 1.07546
 H352 H 0.68665 0.79735 1.10394
 H353 H 0.67282 0.85970 1.19019
 C354 C 0.63288 1.18441 0.87093
 C355 C 0.62081 1.15474 0.86078
 C356 C 0.63056 1.14160 0.83018
 C357 C 0.65336 1.15743 0.81034
 C358 C 0.66726 1.18680 0.82091
 C359 C 0.65564 1.20042 0.85120
 C360 C 0.60058 1.13649 0.88280
 C361 C 0.58495 1.11972 0.90098
 C362 C 0.56816 1.09815 0.92138
 C363 C 0.55508 1.07789 0.93749
 H364 H 0.62543 1.19482 0.89463
 H365 H 0.62119 1.11863 0.82199
 H366 H 0.66014 1.14604 0.78707
 H367 H 0.66465 1.22289 0.86082
 C368 C 0.15528 0.33719 0.09389
 C369 C 0.13462 0.35657 0.11220
 C370 C 0.12863 0.35120 0.14593
 C371 C 0.14294 0.32638 0.16122
 C372 C 0.16347 0.30651 0.14294
 C373 C 0.16966 0.31238 0.10913
 C374 C 0.11786 0.38059 0.09596
 C375 C 0.10249 0.39981 0.08253
 C376 C 0.08254 0.42099 0.06728
 C377 C 0.06350 0.43756 0.05497
 H378 H 0.15983 0.34088 0.06769
 H379 H 0.11253 0.36595 0.16033
 H380 H 0.13800 0.32279 0.18733
 H381 H 0.18493 0.29732 0.09419
 C382 C -0.17870 0.34649 -0.12495
 C383 C -0.15442 0.36486 -0.14002
 C384 C -0.14690 0.35983 -0.17380
 C385 C -0.16351 0.33634 -0.19238
 C386 C -0.18785 0.31759 -0.17735
 C387 C -0.19529 0.32306 -0.14341
 C388 C -0.13602 0.38750 -0.12024
 C389 C -0.11982 0.40552 -0.10337
 C390 C -0.09939 0.42537 -0.08380
 C391 C -0.08021 0.44107 -0.06786
 H392 H -0.18446 0.34991 -0.09874
 H393 H -0.12798 0.37381 -0.18568
 H394 H -0.15740 0.33289 -0.21846
 H395 H -0.21338 0.30872 -0.13080
 C396 C 0.16818 0.65862 -0.13144
 C397 C 0.14347 0.64013 -0.14582
 C398 C 0.13428 0.64553 -0.17837
 C399 C 0.14971 0.66948 -0.19642
 C400 C 0.17453 0.68830 -0.18207
 C401 C 0.18358 0.68251 -0.14936
 C402 C 0.12648 0.61687 -0.12637
 C403 C 0.11159 0.59831 -0.10950
 C404 C 0.09281 0.57777 -0.08958
 C405 C 0.07507 0.56143 -0.07293
 H406 H 0.17522 0.65492 -0.10614
 H407 H 0.11501 0.63144 -0.18967
 H408 H 0.14237 0.67319 -0.22158
 H409 H 0.20208 0.69690 -0.13724
 C410 C -0.14091 0.65179 0.15007
 C411 C -0.14383 0.64658 0.11573
 C412 C -0.16319 0.66579 0.09775
 C413 C -0.17934 0.69025 0.11394
 C414 C -0.17629 0.69594 0.14842
 C415 C -0.15702 0.67627 0.16632
 C416 C -0.12553 0.62271 0.09873
 C417 C -0.10911 0.60348 0.08470
 C418 C -0.08829 0.58206 0.06881
 C419 C -0.06884 0.56500 0.05602
 H420 H -0.12588 0.63716 0.16424
 H421 H -0.16539 0.66219 0.07111
 H422 H -0.19355 0.70517 0.09929
 H423 H -0.15446 0.67974 0.19289
 C424 C 1.14029 0.18116 0.64707
 C425 C 1.14695 0.15057 0.63646
 C426 C 1.17259 0.13551 0.64999
 C427 C 1.19065 0.15037 0.67518
 C428 C 1.18315 0.18067 0.68778
 C429 C 1.15828 0.19619 0.67223
 C430 C 1.12601 0.13350 0.61382
 C431 C 1.10833 0.11778 0.59619
 C432 C 1.08801 0.09755 0.57705
 C433 C 1.07146 0.07854 0.56188
 H434 H 1.12060 0.19314 0.63653
 H435 H 1.17799 0.11176 0.64183
 H436 H 1.20950 0.13718 0.68535
 H437 H 1.15196 0.21979 0.67952
 C438 C 0.85263 -0.13420 0.65066
 C439 C 0.88279 -0.14488 0.64113
 C440 C 0.89466 -0.17106 0.65605
 C441 C 0.87686 -0.18601 0.68117
 C442 C 0.84680 -0.17478 0.69224
 C443 C 0.83476 -0.14896 0.67579
 C444 C 0.90228 -0.12737 0.61782
 C445 C 0.91802 -0.11100 0.59933
 C446 C 0.93528 -0.08972 0.57898
 C447 C 0.94859 -0.06966 0.56278
 H448 H 0.84315 -0.11396 0.63912
 H449 H 0.91808 -0.17946 0.64890
 H450 H 0.88767 -0.20555 0.69246
 H451 H 0.81160 -0.13973 0.68211
 C452 C 1.13210 -0.18685 0.37303
 C453 C 1.14212 -0.15696 0.38467
 C454 C 1.17268 -0.14498 0.37611
 C455 C 1.19260 -0.16207 0.35453
 C456 C 1.18213 -0.19152 0.34057
 C457 C 1.15191 -0.20411 0.35149
 C458 C 1.12015 -0.13729 0.40277
 C459 C 1.10206 -0.11945 0.41641
 C460 C 1.08181 -0.09683 0.43082
 C461 C 1.06584 -0.07591 0.44204
 H462 H 1.10848 -0.19642 0.37967
 H463 H 1.18078 -0.12187 0.38525
 H464 H 1.21577 -0.15144 0.34846
 H465 H 1.14247 -0.22672 0.34271
 C466 C 0.84705 0.13181 0.36375
 C467 C 0.87801 0.14333 0.37090
 C468 C 0.88942 0.17151 0.35754
 C469 C 0.87032 0.18772 0.33625
 C470 C 0.83932 0.17582 0.32751
 C471 C 0.82784 0.14784 0.34246
 C472 C 0.89853 0.12509 0.39035
 C473 C 0.91504 0.10841 0.40582
 C474 C 0.93304 0.08707 0.42306
 C475 C 0.94675 0.06716 0.43714
 H476 H 0.83791 0.11002 0.37418
 H477 H 0.91342 0.18064 0.36295
 H478 H 0.88078 0.20895 0.32608
 H479 H 0.80414 0.13784 0.33783
 C480 C 0.13043 0.33988 -0.15442
 C481 C 0.13141 0.34278 -0.11986
 C482 C 0.15275 0.32517 -0.10250
 C483 C 0.17261 0.30413 -0.11968
 C484 C 0.17120 0.30010 -0.15467
 C485 C 0.15006 0.31894 -0.17167
 C486 C 0.10994 0.36362 -0.10267
 C487 C 0.09129 0.38135 -0.08974
 C488 C 0.06909 0.40252 -0.07604
 C489 C 0.05020 0.42113 -0.06525
 H490 H 0.11425 0.35374 -0.16815
 H491 H 0.15374 0.32735 -0.07565
 H492 H 0.18808 0.29043 -0.10512
 H493 H 0.14860 0.31807 -0.19842
 C494 C -0.11320 0.33330 0.17268
 C495 C -0.12910 0.35370 0.15270
 C496 C -0.16241 0.35021 0.14918
 C497 C -0.17975 0.32644 0.16579
 C498 C -0.16391 0.30599 0.18617
 C499 C -0.13040 0.30964 0.18925
 C500 C -0.11079 0.37764 0.13546
 C501 C -0.09450 0.39703 0.12104
 C502 C -0.07476 0.41892 0.10378
 C503 C -0.05776 0.43690 0.08825
 H504 H -0.08741 0.33559 0.17534
 H505 H -0.17495 0.36584 0.13364
 H506 H -0.20551 0.32432 0.16310
 H507 H -0.11733 0.29392 0.20411
 C508 C -0.14612 0.67485 -0.10769
 C509 C -0.12259 0.65772 -0.12453
 C510 C -0.11640 0.66240 -0.15821
 C511 C -0.13311 0.68457 -0.17499
 C512 C -0.15648 0.70285 -0.15835
 C513 C -0.16303 0.69710 -0.12439
 C514 C -0.10406 0.63578 -0.10737
 C515 C -0.08772 0.61745 -0.09395
 C516 C -0.06790 0.59595 -0.07923
 C517 C -0.05064 0.57746 -0.06735
 H518 H -0.15110 0.67136 -0.08152
 H519 H -0.09839 0.64900 -0.17156
 H520 H -0.12758 0.68685 -0.20112
 H521 H -0.18039 0.71026 -0.11005
 C522 C 0.12234 0.65825 0.17819
 C523 C 0.13542 0.63913 0.15295
 C524 C 0.16827 0.64195 0.14514
 C525 C 0.18799 0.66382 0.16267
 C526 C 0.17501 0.68302 0.18825
 C527 C 0.14191 0.68001 0.19566
 C528 C 0.11466 0.61735 0.13468
 C529 C 0.09657 0.59981 0.11941
 C530 C 0.07505 0.58008 0.10099
 C531 C 0.05689 0.56395 0.08423
 H532 H 0.09691 0.65650 0.18421
 H533 H 0.17862 0.62733 0.12551
 H534 H 0.21336 0.66547 0.15652
 H535 H 0.13093 0.69486 0.21463
 C536 C 0.31851 1.13727 0.89581
 C537 C 0.34116 1.11991 0.87773
 C538 C 0.34354 1.12225 0.84319
 C539 C 0.32322 1.14162 0.82670
 C540 C 0.30016 1.15899 0.84455
 C541 C 0.29814 1.15672 0.87935
 C542 C 0.36199 1.09959 0.89439
 C543 C 0.37977 1.08242 0.90767
 C544 C 0.40106 1.06229 0.92250
 C545 C 0.41973 1.04524 0.93462
 H546 H 0.31645 1.13561 0.92257
 H547 H 0.36109 1.10904 0.82896
 H548 H 0.32573 1.14320 0.80000
 H549 H 0.28043 1.16947 0.89376
 C550 C 0.35463 0.83536 1.14806
 C551 C 0.35599 0.86773 1.15553
 C552 C 0.33540 0.88018 1.17999
 C553 C 0.31360 0.86044 1.19696
 C554 C 0.31203 0.82784 1.18973
 C555 C 0.33280 0.81554 1.16502
 C556 C 0.37794 0.88836 1.13767
 C557 C 0.39586 0.90583 1.12243
 C558 C 0.41627 0.92624 1.10387
 C559 C 0.43312 0.94334 1.08705
 H560 H 0.37042 0.82545 1.12911
 H561 H 0.33603 0.90520 1.18582
 H562 H 0.29764 0.87084 1.21536
 H563 H 0.33243 0.79057 1.15908
 C564 C 0.65195 1.15638 1.15415
 C565 C 0.65013 1.12381 1.15815
 C566 C 0.67242 1.10986 1.17796
 C567 C 0.69641 1.12830 1.19370
 C568 C 0.69852 1.16107 1.18986
 C569 C 0.67598 1.17490 1.16987
 C570 C 0.62595 1.10452 1.14135
 C571 C 0.60618 1.08810 1.12692
 C572 C 0.58359 1.06879 1.10930
 C573 C 0.56488 1.05247 1.09334
 H574 H 0.63485 1.16745 1.13882
 H575 H 0.67142 1.08466 1.18106
 H576 H 0.71364 1.11677 1.20839
 H577 H 0.67671 1.20005 1.16667
 C578 C 0.67048 0.84873 0.88334
 C579 C 0.66957 0.88099 0.87801
 C580 C 0.69169 0.89509 0.85599
 C581 C 0.71454 0.87703 0.83923
 C582 C 0.71560 0.84453 0.84425
 C583 C 0.69336 0.83060 0.86661
 C584 C 0.64571 0.89966 0.89466
 C585 C 0.62568 0.91560 0.90809
 C586 C 0.60214 0.93456 0.92321
 C587 C 0.58189 0.95091 0.93559
 H588 H 0.65338 0.83755 0.90025
 H589 H 0.69125 0.92006 0.85173
 H590 H 0.73160 0.88860 0.82265
 H591 H 0.69331 0.80562 0.87075
   
