data_POSCAR
  _audit_creation_date              2014-09-24
  _audit_creation_method            'ToBaCCo'
  _symmetry_space_group_name_H-M    'P1'
  _symmetry_Int_Tables_number       1
  _symmetry_cell_setting            triclinic
  loop_
  _symmetry_equiv_pos_as_xyz
 x,y,z
_cell_length_a 25.7387
_cell_length_b 25.3056
_cell_length_c 7.3506
_cell_angle_alpha 83.038200
_cell_angle_beta 91.535900
_cell_angle_gamma 89.733100
loop_
  _atom_site_label
  _atom_site_type_symbol
  _atom_site_fract_x
  _atom_site_fract_y
  _atom_site_fract_z
C1 C 0.40848 0.28415 0.30788
 C2 C 0.40733 0.23572 0.41406
 C3 C 0.35641 0.21846 0.40783
 N4 N 0.32638 0.25465 0.30235
 C5 C 0.35814 0.29496 0.24178
 C6 C 0.33789 0.17250 0.51258
 C7 C 0.28755 0.15185 0.49136
 C8 C 0.26675 0.11129 0.61061
 C9 C 0.21768 0.10216 0.54392
 C10 C 0.20970 0.13744 0.38560
 N11 N 0.25299 0.16684 0.35239
 C12 C 0.16254 0.14173 0.28130
 C13 C 0.15009 0.18469 0.14539
 C14 C 0.10236 0.19147 0.05357
 C15 C 0.10264 0.24135 -0.04397
 C16 C 0.15074 0.26310 -0.01063
 N17 N 0.17970 0.22844 0.10499
 C18 C 0.16323 0.31681 -0.06518
 C19 C 0.21283 0.33946 -0.03998
 C20 C 0.22195 0.39386 -0.06726
 C21 C 0.27207 0.40152 -0.00794
 C22 C 0.29226 0.35177 0.05573
 N23 N 0.25665 0.31379 0.02959
 C24 C 0.34153 0.34390 0.14420
 H25 H 0.44236 0.30896 0.28427
 H26 H 0.44000 0.21581 0.48947
 H27 H 0.26220 0.27289 0.05510
 H28 H 0.28485 0.09078 0.73422
 H29 H 0.19053 0.07345 0.60709
 H30 H 0.06986 0.16436 0.06347
 H31 H 0.07052 0.26027 -0.12561
 H32 H 0.29070 0.43964 -0.00413
 H33 H 0.26004 0.19270 0.23536
 H34 H 0.19474 0.42528 -0.11784
 C35 C 0.90000 0.21151 0.07806
 C36 C 0.89999 0.26546 0.03027
 C37 C 0.85018 0.28335 0.05641
 N38 N 0.81965 0.24196 0.11648
 C39 C 0.84989 0.19777 0.12979
 C40 C 0.83359 0.33679 0.01479
 C41 C 0.78162 0.35424 0.01999
 C42 C 0.76352 0.40360 -0.05944
 C43 C 0.71208 0.40696 -0.01515
 C44 C 0.70035 0.35973 0.09113
 N45 N 0.74316 0.32796 0.11289
 C46 C 0.65205 0.34945 0.17459
 C47 C 0.63834 0.29930 0.26777
 C48 C 0.59086 0.28747 0.34759
 C49 C 0.59457 0.23607 0.43168
 C50 C 0.64371 0.21781 0.39710
 N51 N 0.66996 0.25621 0.29566
 C52 C 0.66440 0.16798 0.47128
 C53 C 0.71258 0.14676 0.42359
 C54 C 0.73294 0.09832 0.50361
 C55 C 0.78000 0.09159 0.42473
 C56 C 0.78778 0.13651 0.30105
 N57 N 0.74582 0.16929 0.29717
 C58 C 0.83413 0.14609 0.20317
 H59 H 0.93422 0.18654 0.08149
 H60 H 0.93319 0.28849 -0.01865
 H61 H 0.73896 0.20323 0.20565
 H62 H 0.78534 0.43431 -0.13894
 H63 H 0.68647 0.44072 -0.05415
 H64 H 0.55694 0.31287 0.34693
 H65 H 0.56456 0.21451 0.50928
 H66 H 0.80642 0.05827 0.45983
 H67 H 0.74840 0.29368 0.20395
 H68 H 0.71577 0.07077 0.60910
 C69 C 0.91083 0.71995 0.87790
 C70 C 0.91039 0.77395 0.88166
 C71 C 0.86054 0.79152 0.82868
 N72 N 0.83087 0.75014 0.79104
 C73 C 0.86125 0.70625 0.82293
 C74 C 0.84158 0.84323 0.84252
 C75 C 0.78929 0.85926 0.80609
 C76 C 0.76903 0.90633 0.85371
 C77 C 0.71706 0.90702 0.80696
 C78 C 0.70684 0.86036 0.73169
 N79 N 0.75141 0.83207 0.72628
 C80 C 0.65639 0.84551 0.67773
 C81 C 0.64206 0.79442 0.63832
 C82 C 0.59164 0.77995 0.59781
 C83 C 0.59279 0.72617 0.58670
 C84 C 0.64394 0.70964 0.62067
 N85 N 0.67381 0.75159 0.65152
 C86 C 0.66139 0.65616 0.63268
 C87 C 0.71300 0.63918 0.67834
 C88 C 0.72965 0.58667 0.68911
 C89 C 0.78138 0.58578 0.74206
 C90 C 0.79502 0.63787 0.76030
 N91 N 0.75321 0.67003 0.72126
 C92 C 0.84447 0.65328 0.82151
 H93 H 0.94343 0.69348 0.91727
 H94 H 0.94250 0.79682 0.92754
 H95 H 0.75161 0.70985 0.73743
 H96 H 0.78933 0.93651 0.91978
 H97 H 0.68958 0.93782 0.83067
 H98 H 0.55735 0.80522 0.58302
 H99 H 0.55936 0.70206 0.56173
 H100 H 0.80616 0.55078 0.76517
 H101 H 0.75603 0.79820 0.66165
 H102 H 0.70675 0.55243 0.66348
 C103 C 0.08886 0.71875 0.86080
 C104 C 0.09104 0.76602 0.93552
 C105 C 0.14229 0.78243 0.92628
 N106 N 0.17141 0.74636 0.85347
 C107 C 0.13914 0.70741 0.81334
 C108 C 0.16177 0.82853 0.99288
 C109 C 0.21239 0.84832 0.95894
 C110 C 0.23322 0.89120 1.03582
 C111 C 0.28259 0.89841 0.97067
 C112 C 0.29098 0.85916 0.85837
 N113 N 0.24762 0.82963 0.84770
 C114 C 0.33831 0.85214 0.77134
 C115 C 0.35450 0.80349 0.71389
 C116 C 0.40493 0.79233 0.66767
 C117 C 0.40652 0.73917 0.64528
 C118 C 0.35688 0.71990 0.67584
 N119 N 0.32528 0.75924 0.71780
 C120 C 0.34157 0.66722 0.65799
 C121 C 0.28958 0.64969 0.66687
 C122 C 0.27228 0.60313 0.60476
 C123 C 0.21923 0.60244 0.62172
 C124 C 0.20568 0.64789 0.69844
 N125 N 0.24905 0.67576 0.72969
 C126 C 0.15392 0.66231 0.73126
 H127 H 0.05448 0.69504 0.84545
 H128 H 0.05870 0.78627 0.98890
 H129 H 0.25144 0.70914 0.79770
 H130 H 0.21473 0.91477 1.12959
 H131 H 0.30977 0.92833 1.00584
 H132 H 0.43771 0.81905 0.65823
 H133 H 0.44023 0.71730 0.60951
 H134 H 0.19344 0.57205 0.58091
 H135 H 0.24167 0.80139 0.75809
 H136 H 0.29502 0.57366 0.54626
 O137 O 0.98353 -0.04269 -0.12349
 O138 O 1.06787 0.04328 0.12793
 O139 O 1.07300 -0.05642 0.05025
 O140 O 0.97364 0.05200 -0.01760
 O141 O 0.93763 0.01975 0.24169
 O142 O 1.03605 -0.08602 0.31023
 O143 O 1.02995 0.01219 0.38452
 O144 O 0.94584 -0.07290 0.13435
 Cu145 Cu 1.02830 0.00216 -0.01605
 Cu146 Cu 0.98423 -0.03524 0.29251
 C147 C 0.94998 -0.07180 -0.03788
 C148 C 1.06242 0.04293 0.29923
 C149 C 1.07079 -0.08991 0.19377
 C150 C 0.93894 0.05420 0.10179
 O151 O 0.54403 0.44809 0.49848
 O152 O 0.44435 0.54610 0.57557
 O153 O 0.44381 0.44798 0.49007
 O154 O 0.54509 0.54553 0.56939
 O155 O 0.54082 0.57423 0.27330
 O156 O 0.44213 0.47349 0.19177
 O157 O 0.43944 0.57166 0.27754
 O158 O 0.54329 0.47503 0.20109
 Cu159 Cu 0.49421 0.49390 0.56234
 Cu160 Cu 0.49106 0.52695 0.20674
 C161 C 0.56063 0.44444 0.34012
 C162 C 0.42520 0.57612 0.43903
 C163 C 0.42696 0.44275 0.32951
 C164 C 0.55997 0.57686 0.43258
 O165 O 0.02324 0.54424 -0.42007
 O166 O -0.05625 0.43776 -0.20912
 O167 O -0.06087 0.53956 -0.22096
 O168 O 0.03681 0.44020 -0.33986
 O169 O 0.07318 0.44454 -0.06666
 O170 O -0.02134 0.53833 0.05042
 O171 O -0.01701 0.44045 0.06095
 O172 O 0.06306 0.55135 -0.15454
 Cu173 Cu -0.01769 0.49064 -0.32482
 Cu174 Cu 0.03034 0.49559 -0.00601
 C175 C 0.05567 0.56691 -0.32499
 C176 C -0.05180 0.42179 -0.03956
 C177 C -0.05836 0.55340 -0.05939
 C178 C 0.07076 0.42422 -0.21531
 O179 O 0.45675 1.06026 0.86790
 O180 O 0.55130 0.96008 0.76361
 O181 O 0.55803 1.05537 0.85536
 O182 O 0.45242 0.96227 0.80165
 O183 O 0.44722 0.98698 0.50293
 O184 O 0.55163 1.08423 0.55962
 O185 O 0.54692 0.98960 0.46817
 O186 O 0.44842 1.08664 0.57103
 Cu187 Cu 0.50533 1.00674 0.85104
 Cu188 Cu 0.49728 1.04073 0.49627
 C189 C 0.43553 1.08990 0.73470
 C190 C 0.56543 0.95773 0.60048
 C191 C 0.57369 1.08482 0.71635
 C192 C 0.43262 0.95758 0.64484
 N193 N 1.12560 0.10821 0.33561
 N194 N 1.09208 0.07747 0.40116
 N195 N 0.62425 0.61554 0.60616
 N196 N 0.59819 0.61623 0.45660
 N197 N -0.12921 0.37562 -0.05193
 N198 N -0.08774 0.38359 0.03862
 N199 N 0.37561 0.89369 0.77494
 N200 N 0.39395 0.91810 0.62937
 N201 N -0.12565 0.61636 -0.09057
 N202 N -0.09819 0.58419 0.00743
 N203 N 0.36823 1.14906 0.64469
 N204 N 0.39607 1.12673 0.77012
 N205 N 1.13346 -0.14968 0.11022
 N206 N 1.10751 -0.13265 0.22931
 N207 N 0.61634 0.39343 0.17263
 N208 N 0.59817 0.40385 0.32348
 N209 N 0.87437 -0.12147 -0.06847
 N210 N 0.91679 -0.10404 -0.13632
 N211 N 0.37392 0.38985 0.15298
 N212 N 0.39223 0.40000 0.30751
 N213 N 0.11700 0.63487 -0.33784
 N214 N 0.08321 0.61078 -0.41453
 N215 N 0.63947 1.14179 0.60656
 N216 N 0.61730 1.11814 0.73841
 N217 N 0.12034 0.35341 -0.08769
 N218 N 0.10683 0.38239 -0.23542
 N219 N 0.61549 0.88254 0.69557
 N220 N 0.60346 0.91928 0.56778
 N221 N 0.86982 0.10190 0.20750
 N222 N 0.90215 0.09706 0.08214
 N223 N 0.38096 0.62952 0.62509
 N224 N 0.38731 0.61563 0.46646
   
