data_POSCAR
  _audit_creation_date              2014-09-24
  _audit_creation_method            'ToBaCCo'
  _symmetry_space_group_name_H-M    'P1'
  _symmetry_Int_Tables_number       1
  _symmetry_cell_setting            triclinic
  loop_
  _symmetry_equiv_pos_as_xyz
 x,y,z
_cell_length_a 41.8537
_cell_length_b 43.8568
_cell_length_c 42.1868
_cell_angle_alpha 88.927700
_cell_angle_beta 87.147300
_cell_angle_gamma 88.071800
loop_
  _atom_site_label
  _atom_site_type_symbol
  _atom_site_fract_x
  _atom_site_fract_y
  _atom_site_fract_z
C1 C 0.27683 0.47657 1.00019
 C2 C 0.26344 0.50610 1.00379
 C3 C 0.28327 0.53074 1.00810
 C4 C 0.31669 0.52625 1.00943
 C5 C 0.32961 0.49633 1.00555
 C6 C 0.31006 0.47156 1.00089
 C7 C 0.22865 0.51165 1.00241
 C8 C 0.21007 0.51797 1.03031
 C9 C 0.17728 0.52613 1.02911
 C10 C 0.16369 0.52753 0.99914
 C11 C 0.18188 0.52043 0.97129
 C12 C 0.21434 0.51217 0.97305
 H13 H 0.26144 0.45778 0.99624
 H14 H 0.27234 0.55337 1.01072
 H15 H 0.22155 0.51721 1.05280
 H16 H 0.22863 0.50697 0.95158
 H17 H 0.35517 0.49195 1.00487
 H18 H 0.13830 0.53199 0.99715
 C19 C 0.71810 0.46762 0.01153
 C20 C 0.73716 0.49336 0.00955
 C21 C 0.72300 0.52252 0.00514
 C22 C 0.68972 0.52610 0.00246
 C23 C 0.67100 0.50009 0.00453
 C24 C 0.68481 0.47088 0.00957
 C25 C 0.77191 0.48986 0.01305
 C26 C 0.79249 0.48350 -0.01344
 C27 C 0.82589 0.48010 -0.01047
 C28 C 0.83794 0.48436 0.01980
 C29 C 0.81749 0.49085 0.04637
 C30 C 0.78439 0.49325 0.04290
 H31 H 0.72914 0.44522 0.01535
 H32 H 0.73806 0.54214 0.00335
 H33 H 0.78214 0.48082 -0.03624
 H34 H 0.76839 0.49865 0.06316
 H35 H 0.64538 0.50260 0.00228
 H36 H 0.86336 0.48375 0.02313
 C37 C 0.01677 0.21054 0.48973
 C38 C -0.01078 0.22867 0.48446
 C39 C -0.03936 0.21487 0.47758
 C40 C -0.04063 0.18289 0.47633
 C41 C -0.01271 0.16512 0.48135
 C42 C 0.01595 0.17868 0.48840
 C43 C -0.00994 0.26200 0.48795
 C44 C -0.01214 0.28156 0.46136
 C45 C -0.00923 0.31342 0.46427
 C46 C -0.00501 0.32480 0.49489
 C47 C -0.00375 0.30551 0.52179
 C48 C -0.00576 0.27398 0.51795
 H49 H 0.03867 0.22128 0.49545
 H50 H -0.06050 0.22908 0.47361
 H51 H -0.01459 0.27127 0.43860
 H52 H -0.00367 0.25853 0.53812
 H53 H -0.01340 0.14050 0.48018
 H54 H -0.00341 0.34911 0.49822
 C55 C 1.03816 0.78669 0.52629
 C56 C 1.00894 0.77182 0.52823
 C57 C 0.97998 0.78878 0.53038
 C58 C 0.98001 0.82069 0.53054
 C59 C 1.00931 0.83538 0.52773
 C60 C 1.03884 0.81885 0.52583
 C61 C 1.00877 0.73839 0.52658
 C62 C 1.00659 0.72055 0.55455
 C63 C 1.00700 0.68835 0.55324
 C64 C 1.00984 0.67494 0.52300
 C65 C 1.01237 0.69267 0.49507
 C66 C 1.01140 0.72445 0.49693
 H67 H 1.05990 0.77277 0.52373
 H68 H 0.95752 0.77710 0.53180
 H69 H 1.00397 0.73232 0.57683
 H70 H 1.01332 0.73833 0.47543
 H71 H 1.00889 0.86008 0.52684
 H72 H 1.01032 0.65036 0.52077
 C73 C 0.49460 0.02305 0.19302
 C74 C 0.50157 -0.00454 0.20893
 C75 C 0.50764 -0.03129 0.19162
 C76 C 0.50695 -0.03062 0.15840
 C77 C 0.49988 -0.00281 0.14273
 C78 C 0.49360 0.02412 0.15983
 C79 C 0.50234 -0.00541 0.24377
 C80 C 0.47405 -0.00031 0.26239
 C81 C 0.47441 -0.00241 0.29554
 C82 C 0.50343 -0.00855 0.30997
 C83 C 0.53228 -0.01213 0.29168
 C84 C 0.53135 -0.01133 0.25839
 H85 H 0.48994 0.04363 0.20654
 H86 H 0.51290 -0.05258 0.20407
 H87 H 0.45167 0.00425 0.25104
 H88 H 0.55300 -0.01517 0.24368
 H89 H 0.49928 -0.00214 0.11712
 H90 H 0.50357 -0.00940 0.33566
 C91 C 0.49586 0.02791 0.78696
 C92 C 0.49322 -0.00089 0.77383
 C93 C 0.48805 -0.02644 0.79366
 C94 C 0.48521 -0.02361 0.82696
 C95 C 0.48791 0.00576 0.83964
 C96 C 0.49314 0.03149 0.81993
 C97 C 0.49638 -0.00430 0.73918
 C98 C 0.52630 -0.00093 0.72314
 C99 C 0.52935 -0.00329 0.68998
 C100 C 0.50214 -0.00899 0.67319
 C101 C 0.47213 -0.01244 0.68894
 C102 C 0.46935 -0.00995 0.72206
 H103 H 0.50059 0.04733 0.77139
 H104 H 0.48620 -0.04849 0.78282
 H105 H 0.54689 0.00406 0.73650
 H106 H 0.44622 -0.01215 0.73448
 H107 H 0.48718 0.00902 0.86496
 H108 H 0.50424 -0.01029 0.64755
 C109 C 0.30348 0.02747 0.46245
 H110 H 0.30177 0.04783 0.47661
 C111 C 0.32754 0.02433 0.43844
 H112 H 0.34423 0.04244 0.43397
 C113 C 0.28495 -0.02171 0.45214
 H114 H 0.26878 -0.03987 0.45806
 C115 C 0.30916 -0.02612 0.42856
 H116 H 0.31120 -0.04751 0.41609
 N117 N 0.28273 0.00465 0.46872
 C118 C 0.20498 0.04696 0.52693
 H119 H 0.20423 0.03036 0.54623
 C120 C 0.18146 0.07016 0.52578
 H121 H 0.16290 0.07150 0.54458
 C122 C 0.22897 0.06398 0.47799
 H123 H 0.24659 0.06064 0.45869
 C124 C 0.20593 0.08771 0.47596
 H125 H 0.20633 0.10239 0.45506
 Zn126 Zn 0.25345 0.00766 0.50420
 N127 N 0.22787 0.04403 0.50309
 C128 C 0.27752 0.02837 0.56182
 N129 N 0.27760 0.00520 0.54084
 C130 C 0.29696 -0.02003 0.54407
 C131 C 0.31737 -0.02272 0.56915
 C132 C 0.29773 0.02670 0.58726
 C133 C 0.20401 -0.02288 0.47985
 C134 C 0.17887 -0.04284 0.47941
 C135 C 0.19708 -0.06663 0.52771
 C136 C 0.22170 -0.04582 0.52751
 N137 N 0.22443 -0.02432 0.50393
 H138 H 0.26258 0.04861 0.55832
 H139 H 0.29691 -0.03788 0.52671
 H140 H 0.33282 -0.04292 0.57097
 H141 H 0.29812 0.04600 0.60280
 H142 H 0.20667 -0.00540 0.46155
 H143 H 0.16236 -0.04087 0.46045
 H144 H 0.19448 -0.08306 0.54708
 H145 H 0.23779 -0.04622 0.54675
 C146 C 0.18136 0.09062 0.49980
 C147 C 0.33092 -0.00300 0.42174
 C148 C 0.17482 -0.06462 0.50392
 C149 C 0.31824 0.00093 0.59108
 C150 C 0.70058 0.02722 0.51482
 H151 H 0.70307 0.04171 0.49386
 C152 C 0.67595 0.03323 0.53753
 H153 H 0.66019 0.05296 0.53416
 C154 C 0.71782 -0.01657 0.54386
 H155 H 0.73338 -0.03661 0.54560
 C156 C 0.69336 -0.01148 0.56712
 H157 H 0.69061 -0.02762 0.58672
 N158 N 0.72059 0.00244 0.51809
 C159 C 0.79538 0.02195 0.44557
 H160 H 0.79350 0.00238 0.43061
 C161 C 0.81934 0.04284 0.43880
 H162 H 0.83520 0.03945 0.41804
 C163 C 0.77717 0.04945 0.49114
 H164 H 0.76144 0.05136 0.51215
 C165 C 0.80084 0.07086 0.48531
 H166 H 0.80280 0.08918 0.50188
 Zn167 Zn 0.74801 -0.00719 0.48255
 N168 N 0.77522 0.02533 0.47161
 C169 C 0.71762 0.00291 0.42379
 N170 N 0.72058 -0.01549 0.44985
 C171 C 0.70088 -0.03913 0.45581
 C172 C 0.67646 -0.04465 0.43562
 C173 C 0.69324 -0.00165 0.40302
 C174 C 0.79388 -0.03969 0.51612
 C175 C 0.81605 -0.06315 0.52253
 C176 C 0.79887 -0.08998 0.47720
 C177 C 0.77674 -0.06608 0.47189
 N178 N 0.77474 -0.04156 0.49123
 H179 H 0.73312 0.02199 0.41990
 H180 H 0.70360 -0.05319 0.47691
 H181 H 0.66118 -0.06366 0.44104
 H182 H 0.69038 0.01394 0.38308
 H183 H 0.79222 -0.01963 0.53074
 H184 H 0.83116 -0.06090 0.54240
 H185 H 0.80075 -0.10844 0.46055
 H186 H 0.76204 -0.06665 0.45157
 C187 C 0.82297 0.06720 0.45940
 C188 C 0.67137 0.01310 0.56355
 C189 C 0.81915 -0.08868 0.50277
 C190 C 0.67164 -0.02515 0.40937
 C191 C 0.47247 0.21262 1.03379
 H192 H 0.45601 0.21399 1.01480
 C193 C 0.46887 0.19037 1.05761
 H194 H 0.44922 0.17498 1.05698
 C195 C 0.51944 0.22963 1.05609
 H196 H 0.53996 0.24397 1.05451
 C197 C 0.51678 0.20763 1.08039
 H198 H 0.53547 0.20553 1.09719
 N199 N 0.49776 0.23127 1.03310
 C200 C 0.47265 0.29843 0.96043
 H201 H 0.49240 0.29415 0.94339
 C202 C 0.45071 0.32240 0.95520
 H203 H 0.45341 0.33594 0.93359
 C204 C 0.44598 0.28621 1.00967
 H205 H 0.44493 0.27270 1.03136
 C206 C 0.42354 0.31011 1.00546
 H207 H 0.40525 0.31463 1.02399
 Zn208 Zn 0.50516 0.25425 0.99537
 N209 N 0.47028 0.28128 0.98754
 C210 C 0.49008 0.22170 0.94044
 N211 N 0.51158 0.22514 0.96313
 C212 C 0.53637 0.20476 0.96667
 C213 C 0.53970 0.17907 0.94771
 C214 C 0.49244 0.19617 0.92096
 C215 C 0.53946 0.29967 1.02141
 C216 C 0.56352 0.32063 1.02353
 C217 C 0.59110 0.29791 0.97770
 C218 C 0.56648 0.27721 0.97655
 N219 N 0.54127 0.27858 0.99817
 H220 H 0.47009 0.23777 0.93856
 H221 H 0.55284 0.20786 0.98523
 H222 H 0.55948 0.16306 0.95128
 H223 H 0.47432 0.19306 0.90396
 H224 H 0.51886 0.30057 1.03794
 H225 H 0.56127 0.33743 1.04207
 H226 H 0.61014 0.29713 0.95942
 H227 H 0.56696 0.26085 0.95768
 C228 C 0.42643 0.32925 0.97845
 C229 C 0.49167 0.18706 1.08087
 C230 C 0.58968 0.32025 1.00130
 C231 C 0.51686 0.17391 0.92525
 C232 C 0.46592 0.79380 -0.03713
 H233 H 0.45033 0.79389 -0.01589
 C234 C 0.46337 0.81745 -0.05951
 H235 H 0.44549 0.83558 -0.05545
 C236 C 0.50922 0.77078 -0.06727
 H237 H 0.52783 0.75319 -0.06961
 C238 C 0.50732 0.79392 -0.09044
 H239 H 0.52463 0.79376 -0.11037
 N240 N 0.48875 0.77125 -0.04118
 C241 C 0.45805 0.69782 0.02288
 H242 H 0.47866 0.69601 0.03737
 C243 C 0.43405 0.67659 0.02674
 H244 H 0.43627 0.65862 0.04453
 C245 C 0.43118 0.72261 -0.01903
 H246 H 0.43076 0.73994 -0.03756
 C247 C 0.40646 0.70189 -0.01585
 H248 H 0.38732 0.70354 -0.03218
 Zn249 Zn 0.49325 0.74358 -0.00662
 N250 N 0.45645 0.71998 0.00002
 C251 C 0.47772 0.76866 0.05415
 N252 N 0.49949 0.76759 0.02913
 C253 C 0.52444 0.78667 0.02692
 C254 C 0.52772 0.80859 0.04998
 C255 C 0.48010 0.79025 0.07781
 C256 C 0.52606 0.69668 -0.03915
 C257 C 0.54797 0.67229 -0.04358
 C258 C 0.57389 0.68720 0.00335
 C259 C 0.55159 0.71155 0.00671
 N260 N 0.52794 0.71546 -0.01412
 H261 H 0.45757 0.75385 0.05500
 H262 H 0.54107 0.78566 0.00647
 H263 H 0.54725 0.82416 0.04723
 H264 H 0.46151 0.79169 0.09652
 H265 H 0.50677 0.70009 -0.05513
 H266 H 0.54577 0.65776 -0.06373
 H267 H 0.59169 0.68369 0.02094
 H268 H 0.55226 0.72636 0.02684
 C269 C 0.40805 0.67813 0.00693
 C270 C 0.48443 0.81792 -0.08644
 C271 C 0.57165 0.66657 -0.02150
 C272 C 0.50504 0.81103 0.07557
 C273 C 1.05659 0.50368 0.23893
 H274 H 1.05357 0.48467 0.25528
 C275 C 1.08201 0.50284 0.21599
 H276 H 1.09777 0.48279 0.21459
 C277 C 1.03928 0.55233 0.22003
 H278 H 1.02284 0.57176 0.22184
 C279 C 1.06408 0.55240 0.19682
 H280 H 1.06612 0.57183 0.18069
 N281 N 1.03520 0.52779 0.23979
 C282 C 0.99007 0.50411 0.32751
 H283 H 0.98582 0.52768 0.33377
 C284 C 0.98986 0.48198 0.35156
 H285 H 0.98496 0.48916 0.37576
 C286 C 0.99965 0.46641 0.28846
 H287 H 1.00327 0.46046 0.26375
 C288 C 0.99988 0.44337 0.31200
 H289 H 1.00398 0.41983 0.30518
 Zn290 Zn 0.99714 0.52934 0.26643
 N291 N 0.99552 0.49626 0.29662
 C292 C 0.94562 0.50362 0.23521
 N293 N 0.96192 0.52944 0.23960
 C294 C 0.95629 0.55509 0.22184
 C295 C 0.93557 0.55475 0.19701
 C296 C 0.92439 0.50236 0.21068
 C297 C 1.02530 0.57309 0.30138
 C298 C 1.02651 0.59662 0.32296
 C299 C 0.96970 0.60617 0.31835
 C300 C 0.96956 0.58229 0.29682
 N301 N 0.99705 0.56603 0.28927
 H302 H 0.95023 0.48348 0.24959
 H303 H 0.96877 0.57564 0.22619
 H304 H 0.93233 0.57513 0.18248
 H305 H 0.91286 0.48118 0.20639
 H306 H 1.04667 0.55941 0.29542
 H307 H 1.04906 0.60112 0.33321
 H308 H 0.94728 0.61769 0.32542
 H309 H 0.94724 0.57568 0.28755
 C310 C 0.99568 0.45116 0.34415
 C311 C 1.08540 0.52715 0.19401
 C312 C 0.99837 0.61306 0.33231
 C313 C 0.92029 0.52778 0.19041
 C314 C -0.03068 0.44797 0.80139
 H315 H -0.00982 0.43274 0.80180
 C316 C -0.05485 0.44589 0.82532
 H317 H -0.05259 0.42876 0.84397
 C318 C -0.05786 0.49020 0.77781
 H319 H -0.05835 0.50826 0.76008
 C320 C -0.08278 0.48865 0.80102
 H321 H -0.10213 0.50565 0.80073
 N322 N -0.03227 0.47027 0.77865
 C323 C 0.03783 0.44686 0.70226
 H324 H 0.05420 0.46507 0.70515
 C325 C 0.04197 0.42795 0.67612
 H326 H 0.06241 0.43118 0.65984
 C327 C -0.00913 0.42158 0.71984
 H328 H -0.02962 0.42000 0.73637
 C329 C -0.00610 0.40230 0.69368
 H330 H -0.02427 0.38577 0.69051
 Zn331 Zn 0.00470 0.47612 0.75179
 N332 N 0.01232 0.44378 0.72314
 C333 C 0.06584 0.46123 0.77649
 N334 N 0.03946 0.48022 0.77827
 C335 C 0.03598 0.50211 0.80064
 C336 C 0.05948 0.50552 0.82248
 C337 C 0.09012 0.46397 0.79779
 C338 C -0.02283 0.50914 0.70341
 C339 C -0.02568 0.53171 0.67998
 C340 C 0.01595 0.55908 0.70372
 C341 C 0.01817 0.53578 0.72671
 N342 N -0.00085 0.51127 0.72584
 H343 H 0.06796 0.44360 0.75891
 H344 H 0.01456 0.51664 0.80180
 H345 H 0.05572 0.52283 0.84037
 H346 H 0.11093 0.44878 0.79541
 H347 H -0.03739 0.48924 0.70311
 H348 H -0.04298 0.52926 0.66203
 H349 H 0.03197 0.57795 0.70396
 H350 H 0.03594 0.53674 0.74435
 C351 C 0.01907 0.40615 0.67073
 C352 C -0.08109 0.46671 0.82561
 C353 C -0.00551 0.55666 0.67943
 C354 C 0.08694 0.48608 0.82162
 C355 C 0.10091 0.15054 0.48818
 C356 C 0.09812 0.12275 0.50491
 N357 N 0.06899 0.11408 0.51659
 C358 C 0.04233 0.13179 0.51197
 C359 C 0.04480 0.15951 0.49478
 N360 N 0.07426 0.16835 0.48358
 N361 N 0.13013 0.15891 0.47625
 C362 C 0.15664 0.14056 0.47999
 C363 C 0.15384 0.11244 0.49644
 N364 N 0.12448 0.10452 0.50866
 H365 H 0.01947 0.12434 0.52180
 H366 H 0.17957 0.14795 0.47031
 C367 C 0.62832 0.58450 -0.02030
 C368 C 0.63933 0.61114 -0.00735
 N369 N 0.66753 0.61007 0.00733
 C370 C 0.68503 0.58344 0.00996
 C371 C 0.67363 0.55644 -0.00239
 N372 N 0.64552 0.55797 -0.01738
 N373 N 0.59995 0.58521 -0.03443
 C374 C 0.58180 0.61138 -0.03609
 C375 C 0.59235 0.63831 -0.02276
 N376 N 0.62108 0.63734 -0.00868
 H377 H 0.70690 0.58325 0.02258
 H378 H 0.55882 0.61061 -0.04659
 C379 C 0.89744 -0.15160 0.51393
 C380 C 0.89580 -0.12341 0.52913
 N381 N 0.92044 -0.11501 0.54633
 C382 C 0.94715 -0.13322 0.54837
 C383 C 0.94964 -0.16097 0.53201
 N384 N 0.92432 -0.16972 0.51559
 N385 N 0.87262 -0.15983 0.49679
 C386 C 0.84652 -0.14083 0.49355
 C387 C 0.84534 -0.11187 0.50771
 N388 N 0.87007 -0.10434 0.52555
 H389 H 0.96642 -0.12585 0.56226
 H390 H 0.82720 -0.14842 0.47993
 C391 C 0.37126 0.41202 0.97763
 C392 C 0.35852 0.38557 0.99164
 N393 N 0.32910 0.38719 1.00683
 C394 C 0.31211 0.41420 1.00905
 C395 C 0.32541 0.44097 0.99595
 N396 N 0.35463 0.43893 0.98033
 N397 N 0.40071 0.41073 0.96278
 C398 C 0.41832 0.38419 0.96154
 C399 C 0.40614 0.35757 0.97621
 N400 N 0.37631 0.35904 0.99090
 H401 H 0.28913 0.41495 1.02199
 H402 H 0.44215 0.38439 0.95043
 C403 C 0.90430 0.12255 0.45536
 C404 C 0.87472 0.13380 0.46799
 N405 N 0.87276 0.16183 0.48124
 C406 C 0.89918 0.17893 0.48289
 C407 C 0.92917 0.16727 0.47118
 N408 N 0.93069 0.13933 0.45747
 N409 N 0.90652 0.09435 0.44266
 C410 C 0.88055 0.07661 0.44232
 C411 C 0.85083 0.08736 0.45572
 N412 N 0.84880 0.11594 0.46813
 H413 H 0.89692 0.20071 0.49455
 H414 H 0.88363 0.05386 0.43299
 C415 C 0.34436 0.60479 0.00790
 C416 C 0.37603 0.60044 0.01662
 N417 N 0.38721 0.57208 0.02428
 C418 C 0.36843 0.54756 0.02291
 C419 C 0.33659 0.55135 0.01321
 N420 N 0.32539 0.58032 0.00659
 N421 N 0.33340 0.63329 -0.00006
 C422 C 0.35291 0.65756 -0.00008
 C423 C 0.38495 0.65315 0.00825
 N424 N 0.39543 0.62455 0.01668
 H425 H 0.37840 0.52569 0.03023
 H426 H 0.34344 0.67997 -0.00647
 C427 C 0.09227 -0.11761 0.51164
 C428 C 0.12239 -0.13103 0.51692
 N429 N 0.12472 -0.16117 0.52473
 C430 C 0.09829 -0.17853 0.52749
 C431 C 0.06766 -0.16502 0.52268
 N432 N 0.06599 -0.13470 0.51491
 N433 N 0.08963 -0.08765 0.50340
 C434 C 0.11591 -0.07036 0.50023
 C435 C 0.14625 -0.08351 0.50591
 N436 N 0.14874 -0.11366 0.51431
 H437 H 0.10149 -0.20219 0.53446
 H438 H 0.11303 -0.04639 0.49405
 C439 C 0.65483 0.39257 1.00091
 C440 C 0.62419 0.39541 1.01575
 N441 N 0.61442 0.42208 1.02939
 C442 C 0.63373 0.44635 1.02840
 C443 C 0.66424 0.44404 1.01279
 N444 N 0.67420 0.41690 0.99975
 N445 N 0.66438 0.36574 0.98731
 C446 C 0.64449 0.34176 0.98747
 C447 C 0.61336 0.34477 1.00174
 N448 N 0.60435 0.37164 1.01577
 H449 H 0.62528 0.46725 1.03972
 H450 H 0.65308 0.32069 0.97667
 C451 C 0.49530 0.10667 1.13817
 C452 C 0.47975 0.10754 1.10949
 N453 N 0.46750 0.08173 1.09858
 C454 C 0.47069 0.05481 1.11475
 C455 C 0.48724 0.05349 1.14303
 N456 N 0.49873 0.07974 1.15426
 N457 N 0.50771 0.13256 1.14885
 C458 C 0.50589 0.15916 1.13178
 C459 C 0.49124 0.15989 1.10239
 N460 N 0.47817 0.13394 1.09236
 H461 H 0.46050 0.03468 1.10547
 H462 H 0.51601 0.17934 1.14102
 C463 C -0.00214 0.61884 0.60156
 C464 C 0.00099 0.62915 0.63239
 N465 N 0.00557 0.65922 0.63694
 C466 C 0.00723 0.67948 0.61205
 C467 C 0.00459 0.66915 0.58069
 N468 N -0.00007 0.63883 0.57683
 N469 N -0.00686 0.58892 0.59666
 C470 C -0.00860 0.56868 0.62134
 C471 C -0.00522 0.57872 0.65246
 N472 N -0.00032 0.60888 0.65719
 H473 H 0.01154 0.70296 0.61711
 H474 H -0.01175 0.54485 0.61653
 C475 C 0.48587 0.89605 -0.14724
 C476 C 0.47662 0.89829 -0.11502
 N477 N 0.46911 0.92602 -0.10262
 C478 C 0.47102 0.95186 -0.12079
 C479 C 0.48110 0.95011 -0.15328
 N480 N 0.48770 0.92181 -0.16553
 N481 N 0.49367 0.86822 -0.15953
 C482 C 0.49299 0.84254 -0.14087
 C483 C 0.48407 0.84476 -0.10833
 N484 N 0.47584 0.87276 -0.09642
 H485 H 0.46384 0.97314 -0.10971
 H486 H 0.49922 0.82071 -0.15140
 C487 C 0.99887 0.38466 0.41843
 C488 C 0.98969 0.37671 0.38834
 N489 N 0.98114 0.34764 0.38342
 C490 C 0.98134 0.32616 0.40723
 C491 C 0.99026 0.33411 0.43791
 N492 N 0.99876 0.36347 0.44215
 N493 N 1.00785 0.41344 0.42361
 C494 C 1.00758 0.43495 0.40009
 C495 C 0.99744 0.42756 0.36986
 N496 N 0.98909 0.39827 0.36470
 H497 H 0.97371 0.30364 0.40200
 H498 H 1.01556 0.45748 0.40505
 C499 C 0.50331 0.88825 0.13487
 C500 C 0.51804 0.88900 0.10430
 N501 N 0.53033 0.91534 0.09257
 C502 C 0.52801 0.94125 0.10979
 C503 C 0.51237 0.94097 0.14014
 N504 N 0.50080 0.91418 0.15208
 N505 N 0.49085 0.86185 0.14640
 C506 C 0.49188 0.83629 0.12850
 C507 C 0.50581 0.83717 0.09738
 N508 N 0.51889 0.86362 0.08638
 H509 H 0.53817 0.96187 0.09978
 H510 H 0.48182 0.81565 0.13850
 C511 C 0.01739 0.36009 0.58321
 C512 C 0.00410 0.34698 0.61119
 N513 N -0.01071 0.31998 0.60984
 C514 C -0.01299 0.30560 0.58173
 C515 C -0.00005 0.31894 0.55346
 N516 N 0.01489 0.34594 0.55520
 N517 N 0.03170 0.38727 0.58426
 C518 C 0.03332 0.40211 0.61206
 C519 C 0.01986 0.38928 0.64040
 N520 N 0.00545 0.36188 0.63906
 H521 H -0.02566 0.28453 0.58146
 H522 H 0.04401 0.42421 0.61159
 C523 C 0.51309 0.08975 0.87795
 C524 C 0.50203 0.11694 0.86363
 N525 N 0.48886 0.11601 0.83490
 C526 C 0.48614 0.08907 0.81989
 C527 C 0.49686 0.06165 0.83441
 N528 N 0.51011 0.06290 0.86317
 N529 N 0.52597 0.09048 0.90675
 C530 C 0.52826 0.11722 0.92205
 C531 C 0.51696 0.14469 0.90803
 N532 N 0.50400 0.14371 0.87903
 H533 H 0.47497 0.08905 0.79732
 H534 H 0.53780 0.11670 0.94541
 C535 C 0.99762 0.66948 0.41291
 C536 C 1.01973 0.64493 0.40892
 N537 N 1.03994 0.63753 0.43219
 C538 C 1.03871 0.65326 0.45964
 C539 C 1.01616 0.67748 0.46414
 N540 N 0.99633 0.68529 0.44040
 N541 N 0.97694 0.67624 0.38976
 C542 C 0.97703 0.65924 0.36304
 C543 C 0.99876 0.63418 0.35931
 N544 N 1.01977 0.62803 0.38240
 H545 H 1.05488 0.64668 0.47800
 H546 H 0.96023 0.66518 0.34508
 C547 C 1.14912 0.52185 0.11272
 C548 C 1.11960 0.53775 0.11196
 N549 N 1.11031 0.55082 0.08447
 C550 C 1.12882 0.54814 0.05728
 C551 C 1.15834 0.53143 0.05734
 N552 N 1.16788 0.51927 0.08558
 N553 N 1.15798 0.50835 0.14035
 C554 C 1.13842 0.50982 0.16715
 C555 C 1.10860 0.52562 0.16632
 N556 N 1.10025 0.53936 0.13859
 H557 H 1.12060 0.55973 0.03624
 H558 H 1.14615 0.49891 0.18879
 C559 C 0.58725 0.01534 0.62367
 C560 C 0.61634 0.00415 0.63506
 N561 N 0.61696 -0.00787 0.66495
 C562 C 0.58967 -0.00956 0.68382
 C563 C 0.56027 0.00083 0.67205
 N564 N 0.56006 0.01322 0.64223
 N565 N 0.58632 0.02698 0.59375
 C566 C 0.61319 0.02769 0.57441
 C567 C 0.64249 0.01589 0.58531
 N568 N 0.64321 0.00443 0.61559
 H569 H 0.59081 -0.01997 0.70721
 H570 H 0.61119 0.03618 0.55034
 C571 C -0.14539 0.47383 0.90621
 C572 C -0.11340 0.46430 0.90914
 N573 N -0.10221 0.45893 0.93836
 C574 C -0.12132 0.46326 0.96498
 C575 C -0.15353 0.47371 0.96252
 N576 N -0.16462 0.47811 0.93277
 N577 N -0.15642 0.47956 0.87688
 C578 C -0.13669 0.47666 0.85038
 C579 C -0.10434 0.46760 0.85328
 N580 N -0.09372 0.46135 0.88278
 H581 H -0.11123 0.45772 0.98749
 H582 H -0.14616 0.48149 0.82735
 C583 C 0.41136 -0.01642 0.35842
 C584 C 0.39108 0.00953 0.35541
 N585 N 0.39770 0.03054 0.33214
 C586 C 0.42385 0.02688 0.31189
 C587 C 0.44469 0.00137 0.31550
 N588 N 0.43783 -0.01968 0.33875
 N589 N 0.40443 -0.03781 0.38114
 C590 C 0.37819 -0.03437 0.40120
 C591 C 0.35827 -0.00805 0.39886
 N592 N 0.36526 0.01336 0.37595
 H593 H 0.42881 0.04408 0.29374
 H594 H 0.37339 -0.05161 0.41935
 C595 C 0.15099 0.49346 0.89610
 C596 C 0.12970 0.51752 0.88840
 N597 N 0.12758 0.54283 0.90647
 C598 C 0.14533 0.54491 0.93238
 C599 C 0.16605 0.52050 0.94079
 N600 N 0.16868 0.49542 0.92211
 N601 N 0.15224 0.46782 0.87851
 C602 C 0.13291 0.46495 0.85379
 C603 C 0.11095 0.48885 0.84628
 N604 N 0.11033 0.51462 0.86391
 H605 H 0.14275 0.56512 0.94675
 H606 H 0.13404 0.44373 0.84116
 C607 C 0.58921 -0.02857 0.35513
 C608 C 0.61790 -0.01750 0.34160
 N609 N 0.61870 -0.00622 0.31140
 C610 C 0.59199 -0.00521 0.29420
 C611 C 0.56290 -0.01574 0.30794
 N612 N 0.56253 -0.02728 0.33816
 N613 N 0.58808 -0.03927 0.38548
 C614 C 0.61435 -0.03928 0.40312
 C615 C 0.64327 -0.02785 0.38990
 N616 N 0.64416 -0.01721 0.35928
 H617 H 0.59334 0.00483 0.27060
 H618 H 0.61210 -0.04709 0.42755
 C619 C 0.87283 0.51773 0.10509
 C620 C 0.86033 0.50492 0.13361
 N621 N 0.83332 0.48858 0.13341
 C622 C 0.81841 0.48430 0.10593
 C623 C 0.83143 0.49646 0.07719
 N624 N 0.85836 0.51297 0.07767
 N625 N 0.89958 0.53429 0.10511
 C626 C 0.91462 0.53857 0.13238
 C627 C 0.90265 0.52532 0.16104
 N628 N 0.87569 0.50867 0.16088
 H629 H 0.79719 0.47084 0.10637
 H630 H 0.93631 0.55136 0.13143
 C631 C 0.39096 -0.00126 0.65788
 C632 C 0.39357 -0.01926 0.63069
 N633 N 0.42064 -0.03635 0.62435
 C634 C 0.44565 -0.03570 0.64359
 C635 C 0.44372 -0.01681 0.67027
 N636 N 0.41607 -0.00037 0.67704
 N637 N 0.36388 0.01601 0.66389
 C638 C 0.33955 0.01661 0.64359
 C639 C 0.34255 -0.00063 0.61564
 N640 N 0.36951 -0.01845 0.61035
 H641 H 0.46708 -0.04937 0.63776
 H642 H 0.31829 0.03048 0.64930
   
