data_POSCAR
  _audit_creation_date              2014-09-24
  _audit_creation_method            'ToBaCCo'
  _symmetry_space_group_name_H-M    'P1'
  _symmetry_Int_Tables_number       1
  _symmetry_cell_setting            triclinic
  loop_
  _symmetry_equiv_pos_as_xyz
 x,y,z
_cell_length_a 26.0304
_cell_length_b 26.1105
_cell_length_c 30.1889
_cell_angle_alpha 89.995400
_cell_angle_beta 90.162200
_cell_angle_gamma 120.103800
loop_
  _atom_site_label
  _atom_site_type_symbol
  _atom_site_fract_x
  _atom_site_fract_y
  _atom_site_fract_z
O1 O 0.34684 0.57749 0.28622
 O2 O 0.24943 0.58006 0.30058
 C3 C 0.22178 0.60742 0.30871
 O4 O 0.22917 0.65177 0.28612
 O5 O 0.32935 0.74915 0.30070
 C6 C 0.38455 0.77677 0.30902
 O7 O 0.42164 0.76932 0.28661
 O8 O 0.41894 0.66951 0.30089
 C9 C 0.39141 0.61447 0.30892
 O10 O 0.32933 0.58034 0.19821
 O11 O 0.22907 0.57733 0.21258
 C12 C 0.22131 0.61400 0.18976
 O13 O 0.24929 0.66907 0.19811
 O14 O 0.34663 0.76914 0.21273
 C15 C 0.39129 0.77682 0.19031
 O16 O 0.41892 0.74943 0.19856
 O17 O 0.42163 0.65233 0.21285
 C18 C 0.38453 0.60788 0.19018
 Cr19 Cr 0.29025 0.58196 0.24939
 Cr20 Cr 0.29019 0.70820 0.24942
 Cr21 Cr 0.41712 0.70857 0.24972
 O22 O 0.33254 0.66626 0.24955
 O23 O 0.58047 0.33022 0.69897
 O24 O 0.57773 0.23039 0.71325
 C25 C 0.61477 0.22289 0.69082
 O26 O 0.66997 0.25048 0.69912
 O27 O 0.77019 0.34779 0.71362
 C28 C 0.77773 0.39226 0.69113
 O29 O 0.75020 0.41973 0.69933
 O30 O 0.65272 0.42224 0.71347
 C31 C 0.60807 0.38524 0.69085
 O32 O 0.57777 0.34737 0.78699
 O33 O 0.58051 0.25028 0.80128
 C34 C 0.60814 0.22288 0.80953
 O35 O 0.65280 0.23056 0.78712
 O36 O 0.75031 0.33057 0.80162
 C37 C 0.77788 0.38558 0.80990
 O38 O 0.77025 0.42248 0.78741
 O39 O 0.67002 0.41953 0.80153
 C40 C 0.61483 0.39193 0.80959
 Cr41 Cr 0.58230 0.29116 0.75013
 Cr42 Cr 0.70923 0.29143 0.75037
 Cr43 Cr 0.70921 0.41783 0.75043
 O44 O 0.66691 0.33347 0.75032
 C45 C 0.48879 -0.10751 0.39135
 C46 C 0.44922 -0.09784 0.41630
 C47 C 0.38854 -0.12907 0.40621
 C48 C 0.36745 -0.16983 0.37132
 C49 C 0.40687 -0.17990 0.34596
 C50 C 0.46784 -0.14824 0.35643
 C51 C 0.47084 -0.05590 0.45223
 C52 C 0.48892 -0.02078 0.48233
 C53 C 0.51011 0.02036 0.51756
 C54 C 0.52825 0.05550 0.54765
 C55 C 0.54994 0.09746 0.58358
 C56 C 0.51041 0.10718 0.60854
 C57 C 0.53141 0.14793 0.64345
 C58 C 0.59239 0.17955 0.65388
 C59 C 0.63177 0.16944 0.62851
 C60 C 0.61062 0.12866 0.59362
 H61 H 0.53586 -0.08358 0.39889
 H62 H 0.35751 -0.12194 0.42534
 H63 H 0.32027 -0.19344 0.36425
 H64 H 0.49941 -0.15493 0.33768
 H65 H 0.46333 0.08328 0.60102
 H66 H 0.49988 0.15465 0.66221
 H67 H 0.67895 0.19302 0.63556
 H68 H 0.64162 0.12149 0.57449
 C69 C 1.10631 0.59584 0.39087
 C70 C 1.09678 0.54684 0.41603
 C71 C 1.12796 0.51756 0.40611
 C72 C 1.16855 0.53715 0.37117
 C73 C 1.17851 0.58641 0.34562
 C74 C 1.14688 0.61554 0.35591
 C75 C 1.05507 0.52665 0.45206
 C76 C 1.02017 0.50972 0.48224
 C77 C 0.97933 0.48991 0.51759
 C78 C 0.94443 0.47301 0.54778
 C79 C 0.90274 0.45284 0.58381
 C80 C 0.89306 0.40372 0.60889
 C81 C 0.85249 0.38402 0.64385
 C82 C 0.82101 0.41328 0.65423
 C83 C 0.83111 0.46266 0.62877
 C84 C 0.87171 0.48225 0.59383
 H85 H 1.08241 0.61886 0.39829
 H86 H 1.12093 0.47959 0.42540
 H87 H 1.19215 0.51372 0.36424
 H88 H 1.15348 0.65362 0.33701
 H89 H 0.91684 0.38061 0.60139
 H90 H 0.84577 0.34585 0.66267
 H91 H 0.80763 0.48619 0.63577
 H92 H 0.87885 0.52031 0.57461
 C93 C 0.40301 0.51046 0.39089
 C94 C 0.45230 0.54991 0.41615
 C95 C 0.48176 0.61043 0.40638
 C96 C 0.46205 0.63148 0.37148
 C97 C 0.41251 0.59218 0.34583
 C98 C 0.38319 0.53137 0.35597
 C99 C 0.47262 0.52833 0.45211
 C100 C 0.48965 0.51028 0.48223
 C101 C 0.50963 0.48918 0.51750
 C102 C 0.52671 0.47117 0.54761
 C103 C 0.54710 0.44963 0.58356
 C104 C 0.59647 0.48912 0.60874
 C105 C 0.61633 0.46825 0.64367
 C106 C 0.58696 0.40747 0.65391
 C107 C 0.53734 0.36814 0.62833
 C108 C 0.51760 0.38914 0.59343
 H109 H 0.37985 0.46351 0.39819
 H110 H 0.51995 0.64136 0.42574
 H111 H 0.48562 0.67853 0.36466
 H112 H 0.34489 0.49990 0.33699
 H113 H 0.61966 0.53604 0.60136
 H114 H 0.65468 0.49974 0.66259
 H115 H 0.51373 0.32111 0.63523
 H116 H 0.47933 0.35819 0.57413
 C117 C 0.48173 -0.12873 1.09335
 C118 C 0.45217 -0.09780 1.08333
 C119 C 0.40275 -0.10778 1.10824
 C120 C 0.38292 -0.14850 1.14307
 C121 C 0.41236 -0.17984 1.15347
 C122 C 0.46202 -0.16948 1.12815
 C123 C 0.47253 -0.05588 1.04748
 C124 C 0.48960 -0.02077 1.01746
 C125 C 0.50963 0.02035 0.98231
 C126 C 0.52675 0.05549 0.95230
 C127 C 0.54716 0.09745 0.91648
 C128 C 0.51765 0.12843 0.90648
 C129 C 0.53741 0.16921 0.87169
 C130 C 0.58704 0.17954 0.84636
 C131 C 0.61642 0.14813 0.85674
 C132 C 0.59656 0.10738 0.89155
 H133 H 0.52003 -0.12136 1.07425
 H134 H 0.37951 -0.08409 1.10074
 H135 H 0.34453 -0.15543 1.16179
 H136 H 0.48568 -0.19284 1.13518
 H137 H 0.47937 0.12109 0.92559
 H138 H 0.51378 0.19262 0.86469
 H139 H 0.65479 0.15502 0.83801
 H140 H 0.61975 0.08365 0.89903
 C141 C 1.10853 0.51156 1.11049
 C142 C 1.09908 0.55092 1.08516
 C143 C 1.13057 0.61140 1.09491
 C144 C 1.17142 0.63264 1.12986
 C145 C 1.18162 0.59354 1.15592
 C146 C 1.14930 0.53247 1.14550
 C147 C 1.05708 0.52924 1.04912
 C148 C 1.02192 0.51112 1.01894
 C149 C 0.98075 0.48994 0.98359
 C150 C 0.94558 0.47187 0.95341
 C151 C 0.90357 0.45025 0.91738
 C152 C 0.87243 0.38978 0.90732
 C153 C 0.83158 0.36869 0.87235
 C154 C 0.82134 0.40792 0.84690
 C155 C 0.85291 0.46868 0.85734
 C156 C 0.89373 0.48963 0.89234
 H157 H 1.08435 0.46459 1.10317
 H158 H 1.12357 0.64227 1.07545
 H159 H 1.19491 0.67986 1.13626
 H160 H 1.15532 0.50047 1.16426
 H161 H 0.87970 0.35890 0.92652
 H162 H 0.80804 0.32167 0.86530
 H163 H 0.84608 0.50010 0.83852
 H164 H 0.91759 0.53655 0.89987
 C165 C 0.48881 0.59642 1.10839
 C166 C 0.44923 0.54727 1.08316
 C167 C 0.38853 0.51791 1.09287
 C168 C 0.36742 0.53755 1.12767
 C169 C 0.40686 0.58693 1.15331
 C170 C 0.46785 0.61617 1.14321
 C171 C 0.47087 0.52696 1.04734
 C172 C 0.48898 0.50992 1.01734
 C173 C 0.51018 0.48996 0.98224
 C174 C 0.52832 0.47292 0.95226
 C175 C 0.55001 0.45261 0.91647
 C176 C 0.51048 0.40332 0.89134
 C177 C 0.53149 0.38355 0.85656
 C178 C 0.59247 0.41291 0.84641
 C179 C 0.63185 0.46243 0.87194
 C180 C 0.61070 0.48209 0.90671
 H181 H 0.53590 0.61950 1.10113
 H182 H 0.35749 0.47982 1.07353
 H183 H 0.32023 0.51404 1.13446
 H184 H 0.49942 0.65435 1.16219
 H185 H 0.46341 0.38015 0.89864
 H186 H 0.49996 0.34527 0.83766
 H187 H 0.67902 0.48604 0.86511
 H188 H 0.64169 0.52029 0.92597
   
