data_POSCAR
  _audit_creation_date              2014-09-24
  _audit_creation_method            'ToBaCCo'
  _symmetry_space_group_name_H-M    'P1'
  _symmetry_Int_Tables_number       1
  _symmetry_cell_setting            triclinic
  loop_
  _symmetry_equiv_pos_as_xyz
 x,y,z
_cell_length_a 24.7120
_cell_length_b 24.7341
_cell_length_c 44.2831
_cell_angle_alpha 86.542900
_cell_angle_beta 91.775800
_cell_angle_gamma 120.340400
loop_
  _atom_site_label
  _atom_site_type_symbol
  _atom_site_fract_x
  _atom_site_fract_y
  _atom_site_fract_z
C1 C 0.02326 0.10352 0.54242
 H2 H 0.06621 0.10198 0.54199
 C3 C 0.01978 0.14683 0.55975
 H4 H 0.06046 0.17870 0.57257
 C5 C -0.08065 0.06580 0.52475
 H6 H -0.11911 0.03492 0.51057
 C7 C -0.08604 0.10886 0.54166
 H8 H -0.12928 0.11002 0.54080
 N9 N -0.02648 0.06408 0.52544
 C10 C 0.01283 -0.08460 0.50955
 H11 H 0.01467 -0.08136 0.48509
 C12 C 0.01533 -0.13368 0.52556
 H13 H 0.01920 -0.16797 0.51315
 C14 C 0.00023 -0.04653 0.55510
 H15 H -0.00783 -0.01383 0.56647
 C16 C 0.00272 -0.09474 0.57201
 H17 H -0.00164 -0.09740 0.59638
 Zn18 Zn -0.01232 0.01303 0.50062
 N19 N 0.00462 -0.04277 0.52442
 C20 C 0.11157 0.06957 0.47632
 N21 N 0.05600 0.06855 0.47553
 C22 C 0.04836 0.11160 0.45831
 C23 C 0.09775 0.15824 0.44094
 C24 C 0.16250 0.11578 0.45935
 C25 C -0.13591 -0.08168 0.49189
 C26 C -0.18610 -0.12817 0.47617
 C27 C -0.12779 -0.08279 0.42982
 C28 C -0.07881 -0.03724 0.44654
 N29 N -0.08328 -0.03809 0.47704
 H30 H 0.11691 0.03560 0.49064
 H31 H 0.00397 0.11033 0.45863
 H32 H 0.09103 0.19295 0.42798
 H33 H 0.20660 0.11630 0.46030
 H34 H -0.13810 -0.08149 0.51625
 H35 H -0.22719 -0.16021 0.48930
 H36 H -0.11902 -0.08168 0.40600
 H37 H -0.03577 -0.00340 0.43521
 C38 C 0.00899 -0.13996 0.55720
 C39 C -0.03520 0.15029 0.55934
 C40 C -0.18265 -0.13137 0.44444
 C41 C 0.15597 0.16116 0.44152
 C42 C 1.12081 0.04675 0.12332
 H43 H 1.12022 0.09021 0.12313
 C44 C 1.16513 0.04312 0.10622
 H45 H 1.19872 0.08418 0.09295
 C46 C 1.07957 -0.05839 0.14231
 H47 H 1.04686 -0.09730 0.15689
 C48 C 1.12357 -0.06396 0.12566
 H49 H 1.12370 -0.10775 0.12714
 N50 N 1.07918 -0.00351 0.14084
 C51 C 0.93025 0.03687 0.15578
 H52 H 0.93136 0.03770 0.18020
 C53 C 0.88224 0.03958 0.13955
 H54 H 0.84667 0.04264 0.15174
 C55 C 0.97236 0.02621 0.11065
 H56 H 1.00613 0.01870 0.09955
 C57 C 0.92534 0.02897 0.09354
 H58 H 0.92470 0.02541 0.06926
 Zn59 Zn 1.02701 0.01076 0.16539
 N60 N 0.97348 0.02936 0.14124
 C61 C 1.08212 0.13308 0.18890
 N62 N 1.08151 0.07774 0.18940
 C63 C 1.12430 0.06909 0.20568
 C64 C 1.17053 0.11731 0.22220
 C65 C 1.12767 0.18276 0.20523
 C66 C 0.92947 -0.11222 0.17614
 C67 C 0.88163 -0.16241 0.19289
 C68 C 0.92687 -0.10666 0.23833
 C69 C 0.97381 -0.05750 0.22070
 N70 N 0.97372 -0.06077 0.19015
 H71 H 1.04838 0.13927 0.17530
 H72 H 1.12301 0.02475 0.20538
 H73 H 1.20411 0.10934 0.23502
 H74 H 1.12856 0.22705 0.20411
 H75 H 0.92968 -0.11289 0.15174
 H76 H 0.84528 -0.20168 0.18113
 H77 H 0.92704 -0.10272 0.26255
 H78 H 1.00849 -0.01564 0.23136
 C79 C 0.87853 0.03420 0.10804
 C80 C 1.16730 -0.01257 0.10744
 C81 C 0.87910 -0.15938 0.22436
 C82 C 1.17314 0.17535 0.22184
 C83 C 0.05308 0.94155 0.87549
 H84 H 0.00852 0.89820 0.87522
 C85 C 0.10258 0.94425 0.89260
 H86 H 0.09575 0.90258 0.90542
 C87 C 0.11663 1.04741 0.85763
 H88 H 0.12203 1.08698 0.84347
 C89 C 0.16771 1.05206 0.87431
 H90 H 0.21203 1.09581 0.87328
 N91 N 0.06081 0.99259 0.85851
 C92 C -0.13043 0.95215 0.84300
 H93 H -0.13214 0.95228 0.81856
 C94 C -0.18009 0.94834 0.85906
 H95 H -0.21867 0.94640 0.84603
 C96 C -0.07366 0.96174 0.88827
 H97 H -0.03140 0.96870 0.89955
 C98 C -0.12217 0.95801 0.90528
 H99 H -0.11670 0.95885 0.92958
 Zn100 Zn -0.00783 0.97973 0.83377
 N101 N -0.07820 0.95973 0.85768
 C102 C -0.07767 0.85812 0.80960
 N103 N -0.02311 0.91417 0.80885
 C104 C 0.02625 0.92433 0.79179
 C105 C 0.02203 0.87719 0.77445
 C106 C -0.08380 0.80930 0.79269
 C107 C 0.01793 1.10303 0.82488
 C108 C 0.02016 1.15453 0.80890
 C109 C 0.00642 1.10242 0.76247
 C110 C 0.00420 1.05181 0.77936
 N111 N 0.00921 1.05271 0.81002
 H112 H -0.11584 0.85071 0.82383
 H113 H 0.06951 0.96896 0.79217
 H114 H 0.06244 0.88588 0.76157
 H115 H -0.12730 0.76474 0.79362
 H116 H 0.02027 1.10185 0.84933
 H117 H 0.02436 1.19287 0.82131
 H118 H 0.00149 1.10044 0.73812
 H119 H -0.00424 1.01083 0.76799
 C120 C -0.17621 0.95306 0.89082
 C121 C 0.16102 0.99983 0.89195
 C122 C 0.01305 1.15411 0.77729
 C123 C -0.03331 0.81855 0.77495
 C124 C 0.45825 -0.00939 -0.01637
 C125 C 0.46143 -0.00678 0.01536
 C126 C 0.51305 -0.00369 0.03091
 C127 C 0.56065 -0.00500 0.01517
 C128 C 0.55560 -0.01132 -0.01636
 C129 C 0.50487 -0.01257 -0.03202
 H130 H 0.50168 -0.01602 -0.05639
 H131 H 0.51622 -0.00020 0.05528
 C132 C -0.02483 0.44130 0.65165
 C133 C -0.02266 0.43941 0.68350
 C134 C -0.02368 0.48656 0.69905
 C135 C -0.02484 0.53660 0.68307
 C136 C -0.02336 0.54034 0.65121
 C137 C -0.02437 0.49216 0.63567
 H138 H -0.02441 0.49444 0.61113
 H139 H -0.02319 0.48452 0.72359
 C140 C 0.55996 0.56448 0.31825
 C141 C 0.55319 0.56609 0.34961
 C142 C 0.50139 0.51652 0.36481
 C143 C 0.45554 0.46615 0.34890
 C144 C 0.46069 0.46618 0.31732
 C145 C 0.51324 0.51494 0.30223
 H146 H 0.51786 0.51425 0.27799
 H147 H 0.49682 0.51707 0.38905
 C148 C -0.03473 0.29699 0.60674
 C149 C -0.06201 0.28265 0.57801
 C150 C -0.06372 0.23378 0.56287
 C151 C -0.03789 0.19884 0.57629
 C152 C -0.01168 0.21286 0.60543
 C153 C -0.01022 0.26156 0.62056
 C154 C -0.03116 0.34842 0.62200
 C155 C -0.02799 0.39118 0.63517
 H156 H -0.08118 0.30976 0.56714
 H157 H -0.08352 0.22456 0.54033
 H158 H 0.00788 0.18628 0.61647
 H159 H 0.01057 0.27198 0.64290
 C160 C 0.71726 0.69884 0.27354
 C161 C 0.74414 0.68178 0.25135
 C162 C 0.79750 0.72764 0.23570
 C163 C 0.82471 0.79123 0.24210
 C164 C 0.79771 0.80773 0.26475
 C165 C 0.74438 0.76182 0.28034
 C166 C 0.66157 0.65183 0.28917
 C167 C 0.61505 0.61231 0.30231
 H168 H 0.72364 0.63308 0.24600
 H169 H 0.81751 0.71338 0.21862
 H170 H 0.81681 0.85633 0.26987
 H171 H 0.72386 0.77555 0.29743
 C172 C 0.31522 -0.00188 -0.06144
 C173 C 0.32414 0.02795 -0.09024
 C174 C 0.27438 0.02994 -0.10514
 C175 C 0.21501 0.00186 -0.09142
 C176 C 0.20686 -0.02704 -0.06224
 C177 C 0.25669 -0.02878 -0.04735
 C178 C 0.36592 -0.00506 -0.04628
 C179 C 0.40805 -0.00755 -0.03307
 H180 H 0.36932 0.04905 -0.10131
 H181 H 0.28186 0.05186 -0.12772
 H182 H 0.16189 -0.04839 -0.05097
 H183 H 0.24945 -0.05150 -0.02494
 C184 C -0.00715 0.69603 0.60513
 C185 C 0.03619 0.72566 0.58155
 C186 C 0.04231 0.77962 0.56625
 C187 C 0.00506 0.80463 0.57436
 C188 C -0.03791 0.77475 0.59834
 C189 C -0.04384 0.72093 0.61363
 C190 C -0.01373 0.64035 0.62079
 C191 C -0.01877 0.59425 0.63430
 H192 H 0.06515 0.70700 0.57495
 H193 H 0.07631 0.80188 0.54816
 H194 H -0.06804 0.79210 0.60484
 H195 H -0.07741 0.69843 0.63191
 C196 C 0.32127 0.32623 0.26960
 C197 C 0.26020 0.31606 0.27043
 C198 C 0.21192 0.26735 0.25469
 C199 C 0.22421 0.22804 0.23807
 C200 C 0.28586 0.23897 0.23724
 C201 C 0.33399 0.28772 0.25290
 C202 C 0.37083 0.37571 0.28608
 C203 C 0.41214 0.41693 0.30010
 H204 H 0.24983 0.34553 0.28339
 H205 H 0.16485 0.25971 0.25596
 H206 H 0.29697 0.21012 0.22426
 H207 H 0.38111 0.29529 0.25203
 C208 C 0.68534 -0.03183 -0.06154
 C209 C 0.67007 -0.06211 -0.08874
 C210 C 0.71500 -0.06837 -0.10414
 C211 C 0.77669 -0.04416 -0.09269
 C212 C 0.79054 -0.01485 -0.06472
 C213 C 0.74539 -0.00882 -0.04943
 C214 C 0.63954 -0.02413 -0.04606
 C215 C 0.60136 -0.01783 -0.03280
 H216 H 0.62331 -0.08096 -0.09810
 H217 H 0.70011 -0.09381 -0.12462
 H218 H 0.83704 0.00670 -0.05501
 H219 H 0.75773 0.01482 -0.02834
 C220 C 0.31662 -0.01315 0.06065
 C221 C 0.29940 -0.04166 0.08974
 C222 C 0.24971 -0.04297 0.10471
 C223 C 0.21682 -0.01551 0.09076
 C224 C 0.23378 0.01199 0.06129
 C225 C 0.28330 0.01305 0.04634
 C226 C 0.36854 -0.01048 0.04542
 C227 C 0.41148 -0.00833 0.03214
 H228 H 0.32483 -0.06221 0.10098
 H229 H 0.23819 -0.06382 0.12750
 H230 H 0.20882 0.03283 0.04985
 H231 H 0.29591 0.03476 0.02371
 C232 C 0.68052 0.71596 0.39658
 C233 C 0.68314 0.71121 0.42805
 C234 C 0.72751 0.76210 0.44403
 C235 C 0.77126 0.81975 0.42889
 C236 C 0.76629 0.82344 0.39684
 C237 C 0.72172 0.77226 0.38106
 C238 C 0.63578 0.66287 0.38021
 C239 C 0.59831 0.61855 0.36641
 H240 H 0.65150 0.66757 0.44032
 H241 H 0.72889 0.75349 0.46814
 H242 H 0.79480 0.86617 0.38341
 H243 H 0.71939 0.77675 0.35663
 C244 C -0.00470 0.30103 0.72950
 C245 C 0.03926 0.31554 0.75285
 C246 C 0.04589 0.26803 0.76810
 C247 C 0.00856 0.20529 0.76018
 C248 C -0.03506 0.19139 0.73645
 C249 C -0.04150 0.23897 0.72120
 C250 C -0.01183 0.34977 0.71388
 C251 C -0.01739 0.39050 0.70039
 H252 H 0.06830 0.36355 0.75930
 H253 H 0.08036 0.28039 0.78601
 H254 H -0.06528 0.14353 0.73010
 H255 H -0.07556 0.22726 0.70310
 C256 C 0.71653 0.01591 0.06009
 C257 C 0.74388 0.05895 0.08278
 C258 C 0.79726 0.06587 0.09804
 C259 C 0.82397 0.02974 0.09079
 C260 C 0.79644 -0.01288 0.06767
 C261 C 0.74319 -0.01961 0.05242
 C262 C 0.66107 0.00801 0.04469
 C263 C 0.61494 0.00160 0.03151
 H264 H 0.72380 0.08695 0.08876
 H265 H 0.81770 0.09955 0.11545
 H266 H 0.81508 -0.04220 0.06187
 H267 H 0.72242 -0.05300 0.03487
 C268 C 0.31055 0.31629 0.39399
 C269 C 0.31969 0.29556 0.42277
 C270 C 0.26976 0.24418 0.43799
 C271 C 0.20996 0.21299 0.42460
 C272 C 0.20153 0.23363 0.39545
 C273 C 0.25154 0.28489 0.38025
 C274 C 0.36162 0.36977 0.37853
 C275 C 0.40431 0.41415 0.36529
 H276 H 0.36524 0.31950 0.43358
 H277 H 0.27751 0.22990 0.46054
 H278 H 0.15623 0.21010 0.38442
 H279 H 0.24410 0.30027 0.35787
 C280 C -0.03433 0.67132 0.72779
 C281 C -0.00972 0.73138 0.71385
 C282 C -0.01079 0.77890 0.72888
 C283 C -0.03670 0.76690 0.75806
 C284 C -0.06271 0.70598 0.77159
 C285 C -0.06139 0.65853 0.75655
 C286 C -0.03098 0.62325 0.71266
 C287 C -0.02792 0.58358 0.69955
 H288 H 0.01090 0.74163 0.69149
 H289 H 0.00890 0.82516 0.71776
 H290 H -0.08230 0.69554 0.79416
 H291 H -0.08064 0.61215 0.76752
   
