data_POSCAR
  _audit_creation_date              2014-09-24
  _audit_creation_method            'ToBaCCo'
  _symmetry_space_group_name_H-M    'P1'
  _symmetry_Int_Tables_number       1
  _symmetry_cell_setting            triclinic
  loop_
  _symmetry_equiv_pos_as_xyz
 x,y,z
_cell_length_a 37.3631
_cell_length_b 37.3531
_cell_length_c 29.7675
_cell_angle_alpha 89.963100
_cell_angle_beta 89.891800
_cell_angle_gamma 89.780900
loop_
  _atom_site_label
  _atom_site_type_symbol
  _atom_site_fract_x
  _atom_site_fract_y
  _atom_site_fract_z
O1 O 0.02762 0.31008 -0.02359
 O2 O -0.04303 0.30358 0.06322
 O3 O 0.02711 0.30333 0.06375
 O4 O -0.04336 0.30852 -0.02342
 O5 O -0.04172 0.24952 -0.02940
 O6 O 0.02742 0.24436 0.05712
 O7 O -0.04191 0.24461 0.05654
 O8 O 0.02821 0.25106 -0.02926
 Cu9 Cu -0.00785 0.31243 0.02040
 Cu10 Cu -0.00680 0.24152 0.01294
 C11 C 0.04025 0.28148 -0.04043
 C12 C -0.05471 0.27287 0.07392
 C13 C 0.03913 0.27274 0.07496
 C14 C -0.05510 0.27954 -0.04004
 O15 O 0.47012 0.80495 0.51434
 O16 O 0.54239 0.79321 0.43013
 O17 O 0.47242 0.79596 0.42754
 O18 O 0.54092 0.80294 0.51675
 O19 O 0.53863 0.74427 0.52616
 O20 O 0.47078 0.73733 0.43771
 O21 O 0.54003 0.73460 0.44031
 O22 O 0.46867 0.74626 0.52379
 Cu23 Cu 0.50665 0.80525 0.47137
 Cu24 Cu 0.50430 0.73480 0.48317
 C25 C 0.45680 0.77729 0.53265
 C26 C 0.55345 0.76179 0.42128
 C27 C 0.45998 0.76535 0.41779
 C28 C 0.55182 0.77452 0.53583
 O29 O 0.97065 0.70288 -0.07218
 O30 O 1.04312 0.69580 0.01217
 O31 O 0.97237 0.69291 0.01452
 O32 O 1.04062 0.70541 -0.07442
 O33 O 1.03805 0.76395 -0.06373
 O34 O 0.97055 0.75154 0.02443
 O35 O 1.04043 0.75440 0.02211
 O36 O 0.96882 0.76144 -0.06147
 Cu37 Cu 1.00690 0.69326 -0.03085
 Cu38 Cu 1.00422 0.76364 -0.01844
 C39 C 0.95749 0.73351 -0.08086
 C40 C 1.05443 0.72421 0.03068
 C41 C 0.95951 0.72038 0.03389
 C42 C 1.05094 0.73690 -0.08381
 O43 O 0.52806 0.20141 0.56238
 O44 O 0.45807 0.19733 0.47491
 O45 O 0.52881 0.19733 0.47478
 O46 O 0.45818 0.20339 0.56201
 O47 O 0.45938 0.26242 0.55618
 O48 O 0.52885 0.25638 0.46967
 O49 O 0.45894 0.25639 0.46991
 O50 O 0.52852 0.26044 0.55655
 Cu51 Cu 0.49327 0.19383 0.51886
 Cu52 Cu 0.49405 0.26478 0.51232
 C53 C 0.54002 0.23173 0.57421
 C54 C 0.44620 0.22636 0.45839
 C55 C 0.54105 0.22610 0.45803
 C56 C 0.44685 0.23416 0.57357
 O57 O 0.69928 0.02984 -0.02785
 O58 O 0.70506 -0.04483 0.05406
 O59 O 0.70250 0.02524 0.05968
 O60 O 0.69871 -0.04053 -0.03285
 O61 O 0.75778 -0.03953 -0.03746
 O62 O 0.76152 0.02603 0.05427
 O63 O 0.76408 -0.04326 0.04871
 O64 O 0.75834 0.03010 -0.03256
 Cu65 Cu 0.69538 -0.00759 0.01373
 Cu66 Cu 0.76630 -0.00651 0.00766
 C67 C 0.72813 0.04270 -0.04369
 C68 C 0.73578 -0.05679 0.06476
 C69 C 0.73270 0.03684 0.07239
 C70 C 0.72776 -0.05154 -0.05023
 O71 O 0.19625 0.54058 0.45198
 O72 O 0.19369 0.47259 0.54203
 O73 O 0.19824 0.54300 0.53933
 O74 O 0.19617 0.47025 0.45453
 O75 O 0.25535 0.46894 0.45512
 O76 O 0.25736 0.53998 0.53935
 O77 O 0.25284 0.47044 0.54178
 O78 O 0.25541 0.53846 0.45271
 Cu79 Cu 0.19007 0.50680 0.49701
 Cu80 Cu 0.26111 0.50424 0.49732
 C81 C 0.22633 0.55128 0.43757
 C82 C 0.22289 0.45967 0.55658
 C83 C 0.22847 0.55402 0.55305
 C84 C 0.22574 0.45721 0.44090
 O85 O 0.30035 1.04131 0.04185
 O86 O 0.30278 0.97346 -0.04837
 O87 O 0.29770 1.04368 -0.04550
 O88 O 0.30113 0.97075 0.03908
 O89 O 0.24196 0.96943 0.03942
 O90 O 0.23860 1.04066 -0.04465
 O91 O 0.24364 0.97127 -0.04731
 O92 O 0.24122 1.03916 0.04192
 Cu93 Cu 0.30650 1.00752 -0.00324
 Cu94 Cu 0.23549 1.00489 -0.00255
 C95 C 0.27030 1.05211 0.05655
 C96 C 0.27355 0.96065 -0.06268
 C97 C 0.26727 1.05464 -0.05889
 C98 C 0.27181 0.95754 0.05298
 O99 O 0.80783 0.45557 0.47106
 O100 O 0.80402 0.53033 0.55285
 O101 O 0.80436 0.46004 0.55768
 O102 O 0.81021 0.52624 0.46556
 O103 O 0.75115 0.52697 0.46104
 O104 O 0.74533 0.46108 0.55217
 O105 O 0.74500 0.53058 0.54746
 O106 O 0.74879 0.45729 0.46622
 Cu107 Cu 0.81264 0.49310 0.51218
 Cu108 Cu 0.74170 0.49418 0.50613
 C109 C 0.77859 0.44331 0.45582
 C110 C 0.77363 0.54311 0.56366
 C111 C 0.77378 0.44890 0.56974
 C112 C 0.78152 0.53813 0.44824
 C113 C 0.20019 0.20279 0.17011
 C114 C 0.23379 0.19067 0.18369
 C115 C 0.25190 0.20818 0.21849
 C116 C 0.23564 0.23716 0.24173
 C117 C 0.20092 0.24804 0.22808
 C118 C 0.18398 0.23165 0.19172
 C119 C 0.25461 0.25617 0.27939
 C120 C 0.24370 0.29088 0.29318
 C121 C 0.26034 0.30800 0.32925
 C122 C 0.28942 0.29189 0.35046
 C123 C 0.30157 0.25832 0.33669
 C124 C 0.28383 0.24007 0.30221
 H125 H 0.18669 0.18985 0.14228
 H126 H 0.27863 0.19915 0.22649
 H127 H 0.18653 0.26914 0.24518
 H128 H 0.22251 0.30522 0.27626
 H129 H 0.30271 0.30559 0.37788
 H130 H 0.29300 0.21341 0.29397
 C131 C 0.80472 0.77838 0.14848
 C132 C 0.77591 0.79435 0.17050
 C133 C 0.75962 0.77694 0.20669
 C134 C 0.77059 0.74209 0.21981
 C135 C 0.79964 0.72615 0.19632
 C136 C 0.81701 0.74468 0.16159
 C137 C 0.75176 0.72285 0.25752
 C138 C 0.76830 0.69409 0.28083
 C139 C 0.75034 0.67658 0.31591
 C140 C 0.71660 0.68843 0.32952
 C141 C 0.70005 0.71698 0.30771
 C142 C 0.71689 0.73338 0.27116
 H143 H 0.81769 0.79230 0.12091
 H144 H 0.73862 0.79114 0.22425
 H145 H 0.80887 0.69944 0.20424
 H146 H 0.79511 0.68530 0.27265
 H147 H 0.70321 0.67548 0.35752
 H148 H 0.70231 0.75425 0.25388
 C149 C 0.79383 0.19476 0.17887
 C150 C 0.80517 0.22820 0.19351
 C151 C 0.78747 0.24521 0.22898
 C152 C 0.75926 0.22798 0.25232
 C153 C 0.74860 0.19361 0.23721
 C154 C 0.76531 0.17768 0.20000
 C155 C 0.74120 0.24596 0.29162
 C156 C 0.70680 0.23527 0.30660
 C157 C 0.69037 0.25238 0.34316
 C158 C 0.70705 0.28135 0.36382
 C159 C 0.74056 0.29278 0.34920
 C160 C 0.75804 0.27459 0.31446
 H161 H 0.80712 0.18206 0.15056
 H162 H 0.79592 0.27197 0.23745
 H163 H 0.72761 0.17886 0.25386
 H164 H 0.69225 0.21414 0.29006
 H165 H 0.69380 0.29521 0.39127
 H166 H 0.78472 0.28324 0.30583
 C167 C 0.21171 0.78934 0.13771
 C168 C 0.20000 0.75549 0.15074
 C169 C 0.21768 0.73709 0.18529
 C170 C 0.24634 0.75327 0.20884
 C171 C 0.25693 0.78813 0.19570
 C172 C 0.24030 0.80552 0.15967
 C173 C 0.26490 0.73422 0.24686
 C174 C 0.29974 0.74438 0.26060
 C175 C 0.31624 0.72777 0.29731
 C176 C 0.29930 0.69959 0.31924
 C177 C 0.26549 0.68838 0.30570
 C178 C 0.24792 0.70599 0.27046
 H179 H 0.19839 0.80326 0.11039
 H180 H 0.20889 0.71028 0.19316
 H181 H 0.27777 0.80234 0.21327
 H182 H 0.31444 0.76508 0.24328
 H183 H 0.31238 0.68651 0.34738
 H184 H 0.22101 0.69772 0.26241
 C185 C 0.69807 0.29628 0.67896
 C186 C 0.68149 0.26728 0.69964
 C187 C 0.69747 0.25076 0.73686
 C188 C 0.73150 0.26199 0.75244
 C189 C 0.74825 0.29079 0.72959
 C190 C 0.73110 0.30832 0.69408
 C191 C 0.74952 0.24388 0.79171
 C192 C 0.77832 0.26056 0.81439
 C193 C 0.79631 0.24311 0.84927
 C194 C 0.78459 0.20979 0.86417
 C195 C 0.75553 0.19321 0.84365
 C196 C 0.73862 0.20959 0.80695
 H197 H 0.68530 0.30939 0.65061
 H198 H 0.68295 0.22942 0.75308
 H199 H 0.77471 0.29984 0.73838
 H200 H 0.78726 0.28711 0.80563
 H201 H 0.79828 0.19660 0.89176
 H202 H 0.71745 0.19501 0.79059
 C203 C 0.29733 0.71949 0.63912
 C204 C 0.30979 0.75294 0.65261
 C205 C 0.29209 0.77170 0.68696
 C206 C 0.26257 0.75624 0.70983
 C207 C 0.25145 0.72162 0.69637
 C208 C 0.26804 0.70400 0.66049
 C209 C 0.24351 0.77568 0.74736
 C210 C 0.20875 0.76514 0.76122
 C211 C 0.19184 0.78166 0.79769
 C212 C 0.20810 0.81036 0.81916
 C213 C 0.24167 0.82222 0.80537
 C214 C 0.25978 0.80460 0.77042
 H215 H 0.31058 0.70537 0.61187
 H216 H 0.30153 0.79820 0.69509
 H217 H 0.23014 0.70767 0.71343
 H218 H 0.19432 0.74413 0.74430
 H219 H 0.19468 0.82335 0.84716
 H220 H 0.28649 0.81343 0.76224
 C221 C 0.28705 0.30591 0.67084
 C222 C 0.25380 0.31855 0.68507
 C223 C 0.23569 0.30129 0.72018
 C224 C 0.25168 0.27199 0.74310
 C225 C 0.28614 0.26064 0.72880
 C226 C 0.30300 0.27680 0.69213
 C227 C 0.23274 0.25317 0.78111
 C228 C 0.24380 0.21861 0.79531
 C229 C 0.22732 0.20169 0.83173
 C230 C 0.19815 0.21778 0.85290
 C231 C 0.18578 0.25116 0.83869
 C232 C 0.20341 0.26926 0.80387
 H233 H 0.30053 0.31870 0.64280
 H234 H 0.20921 0.31081 0.72865
 H235 H 0.30044 0.23936 0.74559
 H236 H 0.26500 0.20418 0.77850
 H237 H 0.18498 0.20421 0.88058
 H238 H 0.19403 0.29577 0.79533
 C239 C 0.70624 0.71006 0.64893
 C240 C 0.73500 0.69392 0.67082
 C241 C 0.75151 0.71129 0.70678
 C242 C 0.74075 0.74618 0.71985
 C243 C 0.71183 0.76233 0.69648
 C244 C 0.69425 0.74390 0.66197
 C245 C 0.75964 0.76533 0.75739
 C246 C 0.74291 0.79377 0.78111
 C247 C 0.76090 0.81135 0.81596
 C248 C 0.79488 0.79991 0.82891
 C249 C 0.81162 0.77164 0.80675
 C250 C 0.79471 0.75509 0.77045
 H251 H 0.69311 0.69621 0.62152
 H252 H 0.77252 0.69707 0.72425
 H253 H 0.70289 0.78915 0.70435
 H254 H 0.71592 0.80222 0.77342
 H255 H 0.80832 0.81296 0.85672
 H256 H 0.80931 0.73438 0.75285
 C257 C 0.26874 0.07917 0.08693
 C258 C 0.26521 0.10414 0.11223
 C259 C 0.25798 0.13417 0.13962
 C260 C 0.24877 0.16005 0.16095
 C261 C 0.77092 0.57347 0.59295
 C262 C 0.76585 0.59998 0.61516
 C263 C 0.75716 0.63193 0.63804
 C264 C 0.74786 0.65988 0.65467
 C265 C 0.73900 0.91439 0.09227
 C266 C 0.74433 0.88795 0.11453
 C267 C 0.75328 0.85611 0.13753
 C268 C 0.76278 0.82827 0.15428
 C269 C 0.22256 0.43113 0.58885
 C270 C 0.22482 0.40603 0.61416
 C271 C 0.23084 0.37574 0.64153
 C272 C 0.23932 0.34956 0.66273
 C273 C 0.91744 0.26971 0.10285
 C274 C 0.89187 0.26443 0.12659
 C275 C 0.86146 0.25505 0.15198
 C276 C 0.83554 0.24428 0.17182
 C277 C 0.42653 0.78026 0.56228
 C278 C 0.40010 0.77941 0.58562
 C279 C 0.36852 0.77444 0.61107
 C280 C 0.34151 0.76666 0.63105
 C281 C 0.08481 0.72315 0.06016
 C282 C 0.11114 0.72551 0.08336
 C283 C 0.14238 0.73204 0.10870
 C284 C 0.16895 0.74090 0.12875
 C285 C 0.56793 0.23405 0.60705
 C286 C 0.59236 0.23821 0.63286
 C287 C 0.62218 0.24569 0.66024
 C288 C 0.64871 0.25433 0.68039
 C289 C 0.72739 0.07310 0.92675
 C290 C 0.72984 0.09957 0.90374
 C291 C 0.73595 0.13147 0.87940
 C292 C 0.74364 0.15933 0.86135
 C293 C 0.22807 0.57945 0.40490
 C294 C 0.23200 0.60399 0.37909
 C295 C 0.23984 0.63336 0.35099
 C296 C 0.24969 0.65860 0.32905
 C297 C 0.27381 0.93254 0.90448
 C298 C 0.27148 0.90791 0.87852
 C299 C 0.26530 0.87824 0.85028
 C300 C 0.25659 0.85259 0.82836
 C301 C 0.77819 0.41163 0.42866
 C302 C 0.77427 0.38415 0.40808
 C303 C 0.76587 0.35177 0.38619
 C304 C 0.75578 0.32446 0.36886
 C305 C 0.07007 0.28272 0.92916
 C306 C 0.09621 0.28061 0.90549
 C307 C 0.12751 0.27436 0.87997
 C308 C 0.15430 0.26567 0.86009
 C309 C 0.58273 0.75643 0.39075
 C310 C 0.60829 0.74984 0.36736
 C311 C 0.63923 0.74004 0.34297
 C312 C 0.66651 0.73018 0.32509
 C313 C 0.92979 0.73682 0.88999
 C314 C 0.90419 0.74183 0.86619
 C315 C 0.87305 0.75012 0.84149
 C316 C 0.84550 0.75904 0.82362
 C317 C 0.41653 0.22596 0.42784
 C318 C 0.39058 0.22849 0.40404
 C319 C 0.35951 0.23497 0.37833
 C320 C 0.33288 0.24375 0.35827
 C321 C 0.72735 0.92067 0.91653
 C322 C 0.72983 0.89623 0.89027
 C323 C 0.73639 0.86678 0.86171
 C324 C 0.74551 0.84136 0.83948
 C325 C 0.22654 0.42738 0.41061
 C326 C 0.23050 0.40118 0.38749
 C327 C 0.23842 0.36952 0.36357
 C328 C 0.24744 0.34179 0.34615
 C329 C 0.26459 0.08304 0.91287
 C330 C 0.25939 0.10917 0.89000
 C331 C 0.25031 0.14064 0.86632
 C332 C 0.24061 0.16815 0.84893
 C333 C 0.78268 0.56608 0.41515
 C334 C 0.78061 0.59074 0.38911
 C335 C 0.77438 0.62050 0.36087
 C336 C 0.76549 0.64620 0.33898
 C337 C 0.07740 0.74211 0.88563
 C338 C 0.10196 0.74860 0.86066
 C339 C 0.13201 0.75834 0.83469
 C340 C 0.15875 0.76824 0.81579
 C341 C 0.57062 0.22519 0.42720
 C342 C 0.59673 0.22743 0.40351
 C343 C 0.62847 0.23326 0.37878
 C344 C 0.65636 0.24073 0.36068
 C345 C 0.91419 0.27965 0.93119
 C346 C 0.88722 0.27612 0.90955
 C347 C 0.85515 0.26810 0.88680
 C348 C 0.82797 0.25822 0.86906
 C349 C 0.43201 0.76199 0.38515
 C350 C 0.40725 0.75707 0.36005
 C351 C 0.37685 0.74901 0.33395
 C352 C 0.34976 0.74026 0.31507
 C353 C 0.27158 0.92719 0.08250
 C354 C 0.26815 0.90044 0.10474
 C355 C 0.26092 0.86810 0.12749
 C356 C 0.25250 0.83984 0.14389
 C357 C 0.77078 0.42045 0.60182
 C358 C 0.76580 0.39531 0.62638
 C359 C 0.75695 0.36506 0.65243
 C360 C 0.74669 0.33903 0.67251
 C361 C 0.73468 0.06390 0.10646
 C362 C 0.73833 0.08798 0.13296
 C363 C 0.74507 0.11776 0.16080
 C364 C 0.75305 0.14449 0.18104
 C365 C 0.23091 0.58427 0.58252
 C366 C 0.23609 0.61071 0.60472
 C367 C 0.24513 0.64253 0.62752
 C368 C 0.25479 0.67027 0.64414
 C369 C 0.93059 0.71706 0.06547
 C370 C 0.90513 0.71767 0.09044
 C371 C 0.87447 0.72252 0.11766
 C372 C 0.84809 0.73045 0.13893
 C373 C 0.41826 0.23770 0.60540
 C374 C 0.39322 0.24341 0.62992
 C375 C 0.36283 0.25287 0.65546
 C376 C 0.33599 0.26292 0.67411
 C377 C 0.06771 0.26955 0.10674
 C378 C 0.09290 0.26409 0.13101
 C379 C 0.12355 0.25489 0.15610
 C380 C 0.15065 0.24511 0.17429
 C381 C 0.58097 0.77568 0.56718
 C382 C 0.60651 0.77354 0.59180
 C383 C 0.63712 0.76729 0.61853
 C384 C 0.66336 0.75857 0.63946
   
