data_POSCAR
  _audit_creation_date              2014-09-24
  _audit_creation_method            'ToBaCCo'
  _symmetry_space_group_name_H-M    'P1'
  _symmetry_Int_Tables_number       1
  _symmetry_cell_setting            triclinic
  loop_
  _symmetry_equiv_pos_as_xyz
 x,y,z
_cell_length_a 32.1652
_cell_length_b 30.3965
_cell_length_c 30.2293
_cell_angle_alpha 89.395700
_cell_angle_beta 90.084900
_cell_angle_gamma 89.985100
loop_
  _atom_site_label
  _atom_site_type_symbol
  _atom_site_fract_x
  _atom_site_fract_y
  _atom_site_fract_z
C1 C 0.31472 0.30895 0.23456
 H2 H 0.31590 0.30980 0.27031
 C3 C 0.34262 0.33411 0.20958
 H4 H 0.36526 0.35464 0.22607
 C5 C 0.28413 0.28076 0.16927
 H6 H 0.26178 0.25943 0.15366
 C7 C 0.31148 0.30539 0.14305
 H8 H 0.30976 0.30334 0.10734
 N9 N 0.28590 0.28337 0.21416
 C10 C 0.18630 0.26666 0.31075
 H11 H 0.18408 0.23115 0.31175
 C12 C 0.15955 0.29200 0.33643
 H13 H 0.13673 0.27602 0.35744
 C14 C 0.21847 0.33101 0.28185
 H15 H 0.24104 0.34612 0.26009
 C16 C 0.19231 0.35757 0.30698
 H17 H 0.19509 0.39305 0.30484
 Zn18 Zn 0.25005 0.24949 0.25061
 N19 N 0.21538 0.28639 0.28460
 C20 C 0.28140 0.21664 0.33272
 N21 N 0.28412 0.21437 0.28786
 C22 C 0.31253 0.18792 0.26803
 C23 C 0.33900 0.16151 0.29354
 C24 C 0.30732 0.19076 0.35946
 C25 C 0.18703 0.23394 0.18875
 C26 C 0.15998 0.20914 0.16280
 C27 C 0.19010 0.14292 0.19408
 C28 C 0.21660 0.16893 0.21944
 N29 N 0.21497 0.21359 0.21594
 H30 H 0.25940 0.23863 0.34788
 H31 H 0.31447 0.18732 0.23232
 H32 H 0.36137 0.14035 0.27751
 H33 H 0.30492 0.19260 0.39514
 H34 H 0.18591 0.26950 0.18719
 H35 H 0.13805 0.22557 0.14098
 H36 H 0.19173 0.10739 0.19687
 H37 H 0.23820 0.15335 0.24203
 C38 C 0.16272 0.33785 0.33462
 C39 C 0.34088 0.33237 0.16342
 C40 C 0.16167 0.16322 0.16542
 C41 C 0.33626 0.16287 0.33966
 C42 C 0.81458 0.81135 0.23146
 H43 H 0.81668 0.81139 0.26719
 C44 C 0.84131 0.83774 0.20630
 H45 H 0.86401 0.85826 0.22272
 C46 C 0.78266 0.78425 0.16642
 H47 H 0.76019 0.76296 0.15097
 C48 C 0.80879 0.81011 0.13999
 H49 H 0.80601 0.80887 0.10429
 N50 N 0.78560 0.78578 0.21132
 C51 C 0.68762 0.76739 0.30946
 H52 H 0.68539 0.73188 0.31005
 C53 C 0.66138 0.79242 0.33602
 H54 H 0.63888 0.77620 0.35726
 C55 C 0.71934 0.83208 0.28076
 H56 H 0.74150 0.84748 0.25875
 C57 C 0.69367 0.85833 0.30677
 H58 H 0.69643 0.89382 0.30500
 Zn59 Zn 0.75057 0.75106 0.24798
 N60 N 0.71626 0.78744 0.28299
 C61 C 0.78310 0.71800 0.32940
 N62 N 0.78532 0.71570 0.28450
 C63 C 0.81355 0.68921 0.26440
 C64 C 0.84027 0.66279 0.28967
 C65 C 0.80926 0.69214 0.35588
 C66 C 0.68648 0.73621 0.18711
 C67 C 0.65932 0.71179 0.16092
 C68 C 0.69059 0.64517 0.18993
 C69 C 0.71719 0.67082 0.21557
 N70 N 0.71506 0.71553 0.21327
 H71 H 0.76130 0.74003 0.34482
 H72 H 0.81515 0.68858 0.22867
 H73 H 0.86245 0.64158 0.27342
 H74 H 0.80718 0.69402 0.39158
 H75 H 0.68501 0.77178 0.18647
 H76 H 0.63693 0.72852 0.13988
 H77 H 0.69266 0.60962 0.19170
 H78 H 0.73933 0.65492 0.23733
 C79 C 0.66458 0.83829 0.33478
 C80 C 0.83825 0.83726 0.16012
 C81 C 0.66154 0.66585 0.16223
 C82 C 0.83798 0.66419 0.33583
 C83 C 0.81152 0.31139 0.73437
 H84 H 0.81299 0.31208 0.77011
 C85 C 0.83813 0.33798 0.70925
 H86 H 0.86012 0.35936 0.72563
 C87 C 0.78152 0.28226 0.66920
 H88 H 0.75993 0.26003 0.65367
 C89 C 0.80757 0.30829 0.64287
 H90 H 0.80565 0.30632 0.60716
 N91 N 0.78358 0.28464 0.71411
 C92 C 0.68471 0.26381 0.81098
 H93 H 0.68356 0.22824 0.81194
 C94 C 0.65728 0.28822 0.83680
 H95 H 0.63501 0.27146 0.85789
 C96 C 0.71484 0.32925 0.78206
 H97 H 0.73686 0.34517 0.76025
 C98 C 0.68797 0.35488 0.80731
 H99 H 0.68970 0.39043 0.80522
 Zn100 Zn 0.74905 0.24912 0.75054
 N101 N 0.71314 0.28454 0.78477
 C102 C 0.78113 0.21641 0.83244
 N103 N 0.78429 0.21495 0.78757
 C104 C 0.81359 0.18968 0.76763
 C105 C 0.84044 0.16351 0.79297
 C106 C 0.80737 0.19077 0.85907
 C107 C 0.68653 0.23154 0.68865
 C108 C 0.66062 0.20591 0.66223
 C109 C 0.69341 0.14070 0.69258
 C110 C 0.71872 0.16753 0.71842
 N111 N 0.71525 0.21212 0.71559
 H112 H 0.75839 0.23747 0.84772
 H113 H 0.81582 0.18969 0.73192
 H114 H 0.86338 0.14324 0.77661
 H115 H 0.80435 0.19201 0.89475
 H116 H 0.68396 0.26703 0.68760
 H117 H 0.63805 0.22163 0.64063
 H118 H 0.69648 0.10525 0.69485
 H119 H 0.74091 0.15262 0.74081
 C120 C 0.65907 0.33416 0.83506
 C121 C 0.83601 0.33649 0.66308
 C122 C 0.66425 0.16009 0.66411
 C123 C 0.83716 0.16388 0.83914
 C124 C 0.31116 0.81181 0.73361
 H125 H 0.31298 0.81273 0.76933
 C126 C 0.33797 0.83767 0.70803
 H127 H 0.36047 0.85875 0.72402
 C128 C 0.28003 0.78276 0.66899
 H129 H 0.25791 0.76083 0.65387
 C130 C 0.30629 0.80808 0.64218
 H131 H 0.30401 0.80590 0.60651
 N132 N 0.28259 0.78545 0.71384
 C133 C 0.18501 0.76707 0.81243
 H134 H 0.18357 0.73153 0.81398
 C135 C 0.15814 0.79215 0.83826
 H136 H 0.13603 0.77595 0.85995
 C137 C 0.21525 0.83177 0.78195
 H138 H 0.23707 0.84712 0.75951
 C139 C 0.18895 0.85806 0.80719
 H140 H 0.19093 0.89356 0.80446
 Zn141 Zn 0.24814 0.75081 0.75107
 N142 N 0.21320 0.78712 0.78542
 C143 C 0.28176 0.71967 0.83281
 N144 N 0.28366 0.71680 0.78793
 C145 C 0.31240 0.69089 0.76790
 C146 C 0.34005 0.66566 0.79323
 C147 C 0.30885 0.69498 0.85936
 C148 C 0.18444 0.73400 0.69056
 C149 C 0.15776 0.70882 0.66456
 C150 C 0.19012 0.64306 0.69421
 C151 C 0.21622 0.66946 0.71967
 N152 N 0.21332 0.71409 0.71695
 H153 H 0.25948 0.74126 0.84813
 H154 H 0.31372 0.68983 0.73217
 H155 H 0.36261 0.64485 0.77703
 H156 H 0.30699 0.69722 0.89505
 H157 H 0.18238 0.76952 0.68957
 H158 H 0.13514 0.72494 0.64332
 H159 H 0.19281 0.60757 0.69628
 H160 H 0.23864 0.65421 0.74158
 C161 C 0.16027 0.83805 0.83570
 C162 C 0.33542 0.83585 0.66192
 C163 C 0.16078 0.66295 0.66628
 C164 C 0.33816 0.66766 0.83937
 Si165 Si -0.00029 0.00221 -0.00029
 Si166 Si 0.00122 0.49962 0.49983
 Si167 Si 0.50197 -0.00194 0.50023
 Si168 Si 0.50128 0.49966 0.00001
 C169 C 0.08467 -0.08593 -0.08821
 C170 C 0.04220 -0.08216 -0.09764
 C171 C 0.01680 -0.05576 -0.07139
 C172 C 0.13328 -0.13540 -0.13765
 C173 C 0.07621 -0.03704 -0.02606
 C174 C 0.10158 -0.06342 -0.05229
 C175 C 0.11095 -0.11295 -0.11520
 C176 C 0.03367 -0.03262 -0.03567
 H177 H 0.02871 -0.09968 -0.12519
 H178 H -0.01592 -0.05371 -0.07908
 H179 H 0.08995 -0.02066 0.00195
 H180 H 0.13435 -0.06638 -0.04446
 C181 C 0.08668 0.41330 0.41080
 C182 C 0.05727 0.44137 0.39122
 C183 C 0.03149 0.46717 0.41765
 C184 C 0.13577 0.36455 0.36118
 C185 C 0.06454 0.43697 0.48333
 C186 C 0.09028 0.41120 0.45691
 C187 C 0.11332 0.38683 0.38367
 C188 C 0.03477 0.46493 0.46392
 H189 H 0.05436 0.44340 0.35554
 H190 H 0.00929 0.48887 0.40175
 H191 H 0.06795 0.43525 0.51895
 H192 H 0.11306 0.38976 0.47243
 C193 C 0.58910 -0.08657 0.41187
 C194 C 0.56075 -0.05746 0.39206
 C195 C 0.53460 -0.03191 0.41829
 C196 C 0.63802 -0.13527 0.36201
 C197 C 0.56529 -0.06421 0.48428
 C198 C 0.59143 -0.08978 0.45805
 C199 C 0.61576 -0.11307 0.38479
 C200 C 0.53638 -0.03553 0.46456
 H201 H 0.55890 -0.05449 0.35637
 H202 H 0.51326 -0.00936 0.40224
 H203 H 0.56745 -0.06698 0.51996
 H204 H 0.61340 -0.11203 0.47374
 C205 C 0.58239 0.40885 -0.08867
 C206 C 0.58455 0.40546 -0.04250
 C207 C 0.55977 0.43246 -0.01625
 C208 C 0.63158 0.36007 -0.13818
 C209 C 0.53012 0.46594 -0.08219
 C210 C 0.55490 0.43891 -0.10845
 C211 C 0.60893 0.38210 -0.11567
 C212 C 0.53291 0.46335 -0.03591
 H213 H 0.60559 0.38222 -0.02682
 H214 H 0.56193 0.42963 0.01943
 H215 H 0.50902 0.48875 -0.09820
 H216 H 0.55281 0.44163 -0.14415
 C217 C -0.08834 0.08989 -0.08730
 C218 C -0.05578 0.10930 -0.06378
 C219 C -0.02932 0.08331 -0.03772
 C220 C -0.13821 0.13936 -0.13654
 C221 C -0.06808 0.01838 -0.05829
 C222 C -0.09456 0.04439 -0.08435
 C223 C -0.11551 0.11675 -0.11410
 C224 C -0.03486 0.03753 -0.03529
 H225 H -0.05093 0.14455 -0.06547
 H226 H -0.00486 0.09934 -0.01952
 H227 H -0.07406 -0.01657 -0.05559
 H228 H -0.11999 0.02906 -0.10197
 C229 C -0.08545 0.58761 0.41223
 C230 C -0.05315 0.60688 0.43636
 C231 C -0.02705 0.58070 0.46269
 C232 C -0.13492 0.63718 0.36260
 C233 C -0.06549 0.51586 0.44090
 C234 C -0.09157 0.54204 0.41458
 C235 C -0.11233 0.61458 0.38517
 C236 C -0.03307 0.53504 0.46504
 H237 H -0.04812 0.64211 0.43478
 H238 H -0.00215 0.59620 0.48088
 H239 H -0.07056 0.48065 0.44239
 H240 H -0.11647 0.52677 0.39608
 C241 C 0.41320 0.08634 0.41545
 C242 C 0.41115 0.04045 0.41273
 C243 C 0.43787 0.01427 0.43827
 C244 C 0.36325 0.13593 0.36652
 C245 C 0.46862 0.07975 0.46954
 C246 C 0.44188 0.10593 0.44401
 C247 C 0.38596 0.11332 0.38890
 C248 C 0.46709 0.03376 0.46643
 H249 H 0.38895 0.02493 0.39089
 H250 H 0.43589 -0.02120 0.43592
 H251 H 0.49018 0.09561 0.49170
 H252 H 0.44352 0.14141 0.44657
 C253 C 0.41535 0.59169 -0.08441
 C254 C 0.45865 0.59469 -0.08824
 C255 C 0.48426 0.56730 -0.06258
 C256 C 0.36590 0.64142 -0.13386
 C257 C 0.42339 0.53422 -0.02886
 C258 C 0.39783 0.56160 -0.05446
 C259 C 0.38873 0.61903 -0.11136
 C260 C 0.46676 0.53641 -0.03325
 H261 H 0.47257 0.61801 -0.11116
 H262 H 0.51769 0.56989 -0.06592
 H263 H 0.40903 0.51154 -0.00576
 H264 H 0.36438 0.55922 -0.05098
 C265 C -0.08690 -0.08677 0.08600
 C266 C -0.09314 -0.04119 0.08409
 C267 C -0.06705 -0.01468 0.05821
 C268 C -0.13624 -0.13696 0.13495
 C269 C -0.02836 -0.07921 0.03604
 C270 C -0.05446 -0.10571 0.06192
 C271 C -0.11373 -0.11409 0.11264
 C272 C -0.03450 -0.03354 0.03409
 H273 H -0.11814 -0.02618 0.10257
 H274 H -0.07223 0.02052 0.05702
 H275 H -0.00338 -0.09448 0.01784
 H276 H -0.04934 -0.14093 0.06318
 C277 C -0.08687 0.41262 0.58721
 C278 C -0.09312 0.45809 0.58380
 C279 C -0.06666 0.48387 0.55760
 C280 C -0.13684 0.36350 0.63650
 C281 C -0.02784 0.41877 0.53775
 C282 C -0.05429 0.39301 0.56397
 C283 C -0.11409 0.38599 0.61409
 C284 C -0.03341 0.46453 0.53489
 H285 H -0.11858 0.47358 0.60116
 H286 H -0.07268 0.51878 0.55455
 H287 H -0.00336 0.40258 0.51978
 H288 H -0.04942 0.35777 0.56598
 C289 C 0.41307 -0.08906 0.58575
 C290 C 0.44151 -0.10906 0.55727
 C291 C 0.46832 -0.08325 0.53152
 C292 C 0.36275 -0.13778 0.63495
 C293 C 0.43813 -0.01734 0.56243
 C294 C 0.41136 -0.04314 0.58818
 C295 C 0.38567 -0.11562 0.61246
 C296 C 0.46708 -0.03723 0.53433
 H297 H 0.44290 -0.14458 0.55493
 H298 H 0.48970 -0.09940 0.50942
 H299 H 0.43639 0.01817 0.56456
 H300 H 0.38935 -0.02730 0.60995
 C301 C 0.41946 0.40725 0.08807
 C302 C 0.41802 0.40443 0.04190
 C303 C 0.44323 0.43170 0.01587
 C304 C 0.36900 0.35839 0.13701
 C305 C 0.47197 0.46424 0.08203
 C306 C 0.44676 0.43692 0.10809
 C307 C 0.39224 0.38047 0.11478
 C308 C 0.46978 0.46233 0.03574
 H309 H 0.39713 0.38149 0.02605
 H310 H 0.44149 0.42945 -0.01983
 H311 H 0.49280 0.48687 0.09821
 H312 H 0.44829 0.43920 0.14380
 C313 C 0.08505 0.08852 0.08900
 C314 C 0.05544 0.06071 0.10850
 C315 C 0.02969 0.03487 0.08201
 C316 C 0.13440 0.13697 0.13872
 C317 C 0.06316 0.06454 0.01645
 C318 C 0.08888 0.09033 0.04292
 C319 C 0.11178 0.11490 0.11618
 C320 C 0.03321 0.03683 0.03576
 H321 H 0.05238 0.05888 0.14416
 H322 H 0.00731 0.01338 0.09782
 H323 H 0.06673 0.06605 -0.01916
 H324 H 0.11182 0.11156 0.02746
 C325 C 0.08577 0.58736 0.58888
 C326 C 0.04303 0.58461 0.59707
 C327 C 0.01776 0.55847 0.57037
 C328 C 0.13406 0.63639 0.63924
 C329 C 0.07780 0.53806 0.52695
 C330 C 0.10305 0.56417 0.55365
 C331 C 0.11190 0.61409 0.61638
 C332 C 0.03500 0.53458 0.53540
 H333 H 0.02925 0.60269 0.62405
 H334 H -0.01516 0.55718 0.57713
 H335 H 0.09188 0.52109 0.49953
 H336 H 0.13603 0.56637 0.54673
 C337 C 0.58955 0.08318 0.58778
 C338 C 0.59187 0.08583 0.54159
 C339 C 0.56573 0.05994 0.51561
 C340 C 0.63799 0.13301 0.63713
 C341 C 0.53516 0.02834 0.58190
 C342 C 0.56132 0.05421 0.60787
 C343 C 0.61597 0.11027 0.61458
 C344 C 0.53683 0.03151 0.53561
 H345 H 0.61374 0.10797 0.52568
 H346 H 0.56778 0.06238 0.47991
 H347 H 0.51383 0.00600 0.59816
 H348 H 0.55948 0.05168 0.64359
 C349 C 0.58583 0.59071 0.08509
 C350 C 0.54248 0.59336 0.08840
 C351 C 0.51732 0.56625 0.06253
 C352 C 0.63432 0.63992 0.13510
 C353 C 0.57873 0.53416 0.02962
 C354 C 0.60386 0.56126 0.05545
 C355 C 0.61195 0.61776 0.11232
 C356 C 0.53530 0.53601 0.03349
 H357 H 0.52816 0.61617 0.11108
 H358 H 0.48383 0.56856 0.06549
 H359 H 0.59344 0.51194 0.00678
 H360 H 0.63735 0.55914 0.05239
   
