data_POSCAR
  _audit_creation_date              2014-09-24
  _audit_creation_method            'ToBaCCo'
  _symmetry_space_group_name_H-M    'P1'
  _symmetry_Int_Tables_number       1
  _symmetry_cell_setting            triclinic
  loop_
  _symmetry_equiv_pos_as_xyz
 x,y,z
_cell_length_a 29.6195
_cell_length_b 29.9053
_cell_length_c 15.2151
_cell_angle_alpha 89.946400
_cell_angle_beta 90.094000
_cell_angle_gamma 119.954600
loop_
  _atom_site_label
  _atom_site_type_symbol
  _atom_site_fract_x
  _atom_site_fract_y
  _atom_site_fract_z
C1 C 0.42263 0.86193 0.49800
 C2 C 0.43633 0.88778 0.57907
 C3 C 0.46705 0.94203 0.57818
 C4 C 0.47650 0.97065 0.49947
 C5 C 0.45790 0.94269 0.42004
 C6 C 0.43471 0.88869 0.41809
 C7 C 0.50571 1.02909 0.50019
 C8 C 0.52494 1.05776 0.42151
 C9 C 0.54843 1.11197 0.42057
 C10 C 0.56052 1.13782 0.50163
 C11 C 0.54579 1.11106 0.58153
 C12 C 0.51498 1.05701 0.57958
 H13 H 0.40249 0.82012 0.49678
 H14 H 0.48454 0.96149 0.63876
 H15 H 0.46050 0.96238 0.35956
 H16 H 0.52307 1.03838 0.36101
 H17 H 0.58218 1.17964 0.50283
 H18 H 0.49783 1.03724 0.63999
 C19 C 0.13926 0.56319 0.49623
 C20 C 0.11346 0.54437 0.57692
 C21 C 0.05858 0.51450 0.57582
 C22 C 0.02956 0.50693 0.49784
 C23 C 0.05731 0.52864 0.41923
 C24 C 0.11202 0.55470 0.41681
 C25 C -0.02938 0.47642 0.49850
 C26 C -0.05794 0.45436 0.42049
 C27 C -0.11288 0.42769 0.41927
 C28 C -0.13907 0.42003 0.49979
 C29 C -0.11221 0.43897 0.57934
 C30 C -0.05759 0.46926 0.57707
 H31 H 0.18147 0.58520 0.49504
 H32 H 0.03823 0.49738 0.63562
 H33 H 0.03638 0.52535 0.35989
 H34 H -0.03732 0.45868 0.36045
 H35 H -0.18130 0.39932 0.50086
 H36 H -0.03713 0.48775 0.63620
 C37 C 0.44243 0.58183 0.50086
 C38 C 0.46058 0.57387 0.58161
 C39 C 0.48813 0.54668 0.58085
 C40 C 0.49445 0.52465 0.50292
 C41 C 0.47384 0.53220 0.42409
 C42 C 0.45016 0.56284 0.42145
 C43 C 0.52198 0.49354 0.50380
 C44 C 0.54289 0.48553 0.42578
 C45 C 0.56641 0.45469 0.42485
 C46 C 0.57341 0.43579 0.50503
 C47 C 0.55540 0.44474 0.58459
 C48 C 0.52771 0.47161 0.58248
 H49 H 0.42123 0.60268 0.49945
 H50 H 0.50384 0.54184 0.64125
 H51 H 0.47547 0.51356 0.36508
 H52 H 0.54084 0.50323 0.36580
 H53 H 0.59327 0.41363 0.50549
 H54 H 0.51083 0.47549 0.64213
 O55 O 0.41684 0.66155 -0.07290
 O56 O 0.40941 0.74303 -0.10303
 C57 C 0.38269 0.76396 -0.12256
 O58 O 0.34280 0.75637 -0.07896
 O59 O 0.26091 0.66693 -0.10890
 C60 C 0.23967 0.61919 -0.12564
 O61 O 0.24681 0.58806 -0.07856
 O62 O 0.33738 0.59629 -0.10362
 C63 C 0.38565 0.62313 -0.11984
 O64 O 0.41097 0.67609 0.10190
 O65 O 0.40858 0.76046 0.07127
 C66 C 0.37363 0.76364 0.11489
 O67 O 0.32572 0.73821 0.09551
 O68 O 0.24131 0.65119 0.06591
 C69 C 0.23829 0.61461 0.11318
 O70 O 0.26393 0.59208 0.09696
 O71 O 0.35185 0.59448 0.07170
 C72 C 0.38852 0.62830 0.11885
 Cr73 Cr 0.40879 0.70883 -0.00073
 Cr74 Cr 0.29413 0.70197 -0.00657
 Cr75 Cr 0.30118 0.59535 -0.00338
 O76 O 0.33472 0.66875 -0.00359
 O77 O 0.58905 0.34769 -0.06624
 O78 O 0.58687 0.26119 -0.09613
 C79 C 0.60959 0.23620 -0.11533
 O80 O 0.64792 0.23979 -0.07145
 O81 O 0.73484 0.32474 -0.10180
 C82 C 0.76015 0.37256 -0.11865
 O83 O 0.75713 0.40611 -0.07153
 O84 O 0.67102 0.40738 -0.09724
 C85 C 0.62260 0.38455 -0.11331
 O86 O 0.59311 0.33186 0.10844
 O87 O 0.58589 0.24291 0.07830
 C88 C 0.61844 0.23582 0.12217
 O89 O 0.66631 0.25729 0.10291
 O90 O 0.75535 0.33940 0.07307
 C91 C 0.76240 0.37759 0.12007
 O92 O 0.74070 0.40399 0.10373
 O93 O 0.65775 0.41111 0.07799
 C94 C 0.61943 0.37967 0.12500
 Cr95 Cr 0.59138 0.29713 0.00605
 Cr96 Cr 0.69989 0.29173 0.00071
 Cr97 Cr 0.70524 0.40453 0.00324
 O98 O 0.66548 0.33109 0.00334
 C99 C 0.42259 0.85774 -0.34075
 C100 C 0.45742 0.83386 -0.32577
 C101 C 0.44487 0.80324 -0.25355
 C102 C 0.39818 0.79875 -0.20170
 C103 C 0.41297 0.85466 -0.18092
 C104 C 0.42542 0.88557 -0.25331
 C105 C 0.36630 0.81147 -0.34105
 C106 C 0.35399 0.78052 -0.26926
 H107 H 0.48988 0.84102 -0.36804
 H108 H 0.46691 0.78468 -0.23476
 H109 H 0.41141 0.86818 -0.11541
 H110 H 0.43270 0.92478 -0.24803
 H111 H 0.33783 0.80440 -0.39211
 H112 H 0.31562 0.74697 -0.26017
 C113 C 0.14394 0.56076 -0.34265
 C114 C 0.11720 0.53553 -0.25428
 C115 C 0.14888 0.55547 -0.18274
 C116 C 0.20444 0.59819 -0.20469
 C117 C 0.22391 0.57382 -0.27273
 C118 C 0.19228 0.55393 -0.34417
 C119 C 0.16593 0.61896 -0.32772
 C120 C 0.19736 0.63844 -0.25642
 H121 H 0.07854 0.50251 -0.24675
 H122 H 0.13620 0.54043 -0.11689
 H123 H 0.25910 0.57148 -0.26458
 H124 H 0.20043 0.53413 -0.39618
 H125 H 0.15699 0.64295 -0.36966
 H126 H 0.21494 0.67883 -0.23837
 C127 C 0.44438 0.58771 -0.33785
 C128 C 0.38609 0.55029 -0.32119
 C129 C 0.36660 0.56153 -0.24935
 C130 C 0.40696 0.60949 -0.19889
 C131 C 0.45141 0.59879 -0.17813
 C132 C 0.47140 0.58780 -0.25034
 C133 C 0.44978 0.64182 -0.33967
 C134 C 0.42981 0.65281 -0.26774
 H135 H 0.36202 0.51709 -0.36243
 H136 H 0.32613 0.53778 -0.23007
 H137 H 0.46776 0.60240 -0.11285
 H138 H 0.50593 0.58429 -0.24446
 H139 H 0.46895 0.66975 -0.39194
 H140 H 0.43125 0.68955 -0.25967
 C141 C 0.56203 0.14218 -0.33343
 C142 C 0.53193 0.17107 -0.31927
 C143 C 0.54694 0.20182 -0.24699
 C144 C 0.59119 0.20135 -0.19445
 C145 C 0.57087 0.14417 -0.17365
 C146 C 0.55576 0.11310 -0.24609
 C147 C 0.61998 0.18459 -0.33337
 C148 C 0.63490 0.21566 -0.26153
 H149 H 0.50073 0.16701 -0.36206
 H150 H 0.52821 0.22368 -0.22853
 H151 H 0.57013 0.12964 -0.10794
 H152 H 0.54358 0.07250 -0.24069
 H153 H 0.64733 0.18920 -0.38482
 H154 H 0.67461 0.24695 -0.25246
 C155 C 0.85617 0.42360 -0.33557
 C156 C 0.88481 0.44492 -0.24699
 C157 C 0.85289 0.42762 -0.17546
 C158 C 0.79541 0.39073 -0.19776
 C159 C 0.78109 0.42048 -0.26390
 C160 C 0.81288 0.43786 -0.33536
 C161 C 0.82734 0.36463 -0.32325
 C162 C 0.79569 0.34746 -0.25191
 H163 H 0.92607 0.47144 -0.23890
 H164 H 0.86730 0.43925 -0.10892
 H165 H 0.74889 0.42763 -0.25495
 H166 H 0.80793 0.46018 -0.38691
 H167 H 0.83204 0.33848 -0.36676
 H168 H 0.77365 0.30677 -0.23527
 C169 C 0.57053 0.42839 -0.33026
 C170 C 0.54752 0.43375 -0.24215
 C171 C 0.56519 0.41967 -0.17033
 C172 C 0.60389 0.40132 -0.19212
 C173 C 0.57533 0.35777 -0.25935
 C174 C 0.55761 0.37170 -0.33096
 C175 C 0.62987 0.45991 -0.31641
 C176 C 0.64730 0.44591 -0.24487
 H177 H 0.51845 0.44530 -0.23502
 H178 H 0.55185 0.42040 -0.10419
 H179 H 0.56908 0.31905 -0.25090
 H180 H 0.53578 0.34458 -0.38300
 H181 H 0.65608 0.49133 -0.35910
 H182 H 0.68827 0.46559 -0.22720
 C183 C 0.85699 0.41372 0.33852
 C184 C 0.88402 0.41391 0.25111
 C185 C 0.85288 0.40268 0.17879
 C186 C 0.79749 0.39151 0.19930
 C187 C 0.77700 0.34820 0.26816
 C188 C 0.80812 0.35943 0.34024
 C189 C 0.83598 0.45079 0.32165
 C190 C 0.80509 0.43931 0.24967
 H191 H 0.92225 0.41783 0.24526
 H192 H 0.86567 0.39927 0.11357
 H193 H 0.74154 0.31133 0.26005
 H194 H 0.79931 0.33160 0.39263
 H195 H 0.84516 0.48394 0.36282
 H196 H 0.78828 0.46281 0.23021
 C197 C 0.56469 0.14199 0.34037
 C198 C 0.55442 0.18786 0.34044
 C199 C 0.57303 0.21882 0.26865
 C200 C 0.59921 0.20101 0.20130
 C201 C 0.64169 0.19707 0.25342
 C202 C 0.62367 0.16644 0.32564
 C203 C 0.53963 0.11400 0.25289
 C204 C 0.55806 0.14493 0.18049
 H205 H 0.53289 0.19465 0.39135
 H206 H 0.56807 0.25212 0.25942
 H207 H 0.68246 0.21601 0.23477
 H208 H 0.64915 0.15964 0.36809
 H209 H 0.50767 0.07465 0.24756
 H210 H 0.54292 0.13130 0.11494
 C211 C 0.58110 0.43738 0.34042
 C212 C 0.54637 0.37874 0.32799
 C213 C 0.55865 0.35942 0.25714
 C214 C 0.60484 0.40038 0.20357
 C215 C 0.58948 0.44099 0.18050
 C216 C 0.57715 0.46053 0.25159
 C217 C 0.63720 0.44675 0.34136
 C218 C 0.64941 0.42717 0.27038
 H219 H 0.51417 0.35438 0.37118
 H220 H 0.53680 0.31871 0.24061
 H221 H 0.58934 0.45406 0.11395
 H222 H 0.56759 0.49078 0.24333
 H223 H 0.66520 0.46762 0.39309
 H224 H 0.68757 0.43097 0.26206
 C225 C 0.14325 0.57094 0.33132
 C226 C 0.11438 0.56549 0.24348
 C227 C 0.14583 0.57949 0.17133
 C228 C 0.20315 0.59788 0.19245
 C229 C 0.21886 0.64148 0.25969
 C230 C 0.18751 0.62762 0.33168
 C231 C 0.17073 0.53940 0.31699
 C232 C 0.20188 0.55333 0.24507
 H233 H 0.07360 0.55377 0.23661
 H234 H 0.13138 0.57860 0.10535
 H235 H 0.25165 0.68017 0.25102
 H236 H 0.19337 0.65475 0.38385
 H237 H 0.16550 0.50802 0.35963
 H238 H 0.22291 0.53364 0.22702
 C239 C 0.41993 0.85760 0.33304
 C240 C 0.43558 0.81553 0.33334
 C241 C 0.41949 0.78448 0.26147
 C242 C 0.39002 0.79847 0.19401
 C243 C 0.34503 0.79758 0.24606
 C244 C 0.36071 0.82831 0.31838
 C245 C 0.44292 0.88678 0.24582
 C246 C 0.42701 0.85573 0.17334
 H247 H 0.45838 0.81114 0.38505
 H248 H 0.42799 0.75342 0.25261
 H249 H 0.30430 0.77550 0.22723
 H250 H 0.33339 0.83210 0.36083
 H251 H 0.47144 0.92746 0.24056
 H252 H 0.44094 0.87034 0.10772
 C253 C 0.43394 0.57810 0.33620
 C254 C 0.46395 0.63709 0.32409
 C255 C 0.44933 0.65401 0.25259
 C256 C 0.40580 0.61048 0.19814
 C257 C 0.42680 0.57419 0.17604
 C258 C 0.44159 0.55717 0.24770
 C259 C 0.37608 0.56313 0.33553
 C260 C 0.36154 0.58025 0.26394
 H261 H 0.49484 0.66345 0.36780
 H262 H 0.46789 0.69469 0.23603
 H263 H 0.42997 0.56294 0.10951
 H264 H 0.45702 0.53141 0.23970
 H265 H 0.34871 0.54058 0.38693
 H266 H 0.32197 0.57263 0.25470
   
