data_POSCAR
  _audit_creation_date              2014-09-24
  _audit_creation_method            'ToBaCCo'
  _symmetry_space_group_name_H-M    'P1'
  _symmetry_Int_Tables_number       1
  _symmetry_cell_setting            triclinic
  loop_
  _symmetry_equiv_pos_as_xyz
 x,y,z
_cell_length_a 28.4739
_cell_length_b 28.4908
_cell_length_c 28.4891
_cell_angle_alpha 90.934200
_cell_angle_beta 88.868000
_cell_angle_gamma 88.921300
loop_
  _atom_site_label
  _atom_site_type_symbol
  _atom_site_fract_x
  _atom_site_fract_y
  _atom_site_fract_z
C1 C 0.58429 0.38169 -0.02756
 C2 C 0.61808 0.41533 -0.02873
 C3 C 0.59778 0.45595 -0.00907
 N4 N 0.55245 0.44846 0.00310
 C5 C 0.54427 0.40307 -0.00807
 C6 C 0.62120 0.49862 -0.00059
 C7 C 0.59548 0.54096 0.00909
 C8 C 0.61276 0.57956 0.03302
 C9 C 0.57839 0.61396 0.03265
 C10 C 0.54089 0.59559 0.00851
 N11 N 0.55121 0.55068 -0.00499
 C12 C 0.49898 0.62084 -0.00178
 C13 C 0.45670 0.59696 -0.01031
 C14 C 0.41687 0.61625 -0.03039
 C15 C 0.38322 0.58248 -0.02908
 C16 C 0.40384 0.54343 -0.00911
 N17 N 0.44876 0.55221 0.00224
 C18 C 0.38052 0.50143 0.00094
 C19 C 0.40493 0.45950 0.01158
 C20 C 0.38468 0.42009 0.03076
 C21 C 0.41915 0.38560 0.03094
 C22 C 0.45941 0.40499 0.01188
 N23 N 0.45052 0.45009 0.00043
 C24 C 0.50180 0.38013 0.00166
 H25 H 0.58856 0.34572 -0.03997
 H26 H 0.65349 0.41039 -0.04263
 H27 H 0.47254 0.47126 -0.01926
 H28 H 0.64659 0.58257 0.04935
 H29 H 0.58066 0.64853 0.04866
 H30 H 0.41246 0.65099 -0.04465
 H31 H 0.34775 0.58611 -0.04171
 H32 H 0.41483 0.35006 0.04292
 H33 H 0.53114 0.52960 -0.02677
 H34 H 0.34861 0.41631 0.04257
 C35 C -0.02500 0.58469 0.61951
 C36 C -0.02580 0.61866 0.58601
 C37 C -0.00751 0.59811 0.54490
 N38 N 0.00358 0.55244 0.55203
 C39 C -0.00707 0.54429 0.59763
 C40 C 0.00006 0.62159 0.50194
 C41 C 0.00821 0.59617 0.45915
 C42 C 0.02906 0.61417 0.41897
 C43 C 0.02773 0.57972 0.38477
 C44 C 0.00683 0.54130 0.40509
 N45 N -0.00475 0.55142 0.45050
 C46 C -0.00345 0.49926 0.38078
 C47 C -0.01189 0.45678 0.40389
 C48 C -0.02762 0.41607 0.38261
 C49 C -0.02707 0.38213 0.41625
 C50 C -0.01105 0.40336 0.45686
 N51 N -0.00173 0.44894 0.44920
 C52 C -0.00214 0.38009 0.49919
 C53 C 0.00814 0.40427 0.54132
 C54 C 0.02683 0.38361 0.58073
 C55 C 0.02812 0.41807 0.61503
 C56 C 0.01018 0.45877 0.59558
 N57 N -0.00181 0.45012 0.55065
 C58 C 0.00156 0.50146 0.62035
 H59 H -0.03675 0.58908 0.65570
 H60 H -0.03877 0.65433 0.59135
 H61 H -0.02096 0.47272 0.52965
 H62 H 0.04375 0.64862 0.41464
 H63 H 0.04080 0.58258 0.34902
 H64 H -0.03794 0.41120 0.34652
 H65 H -0.03695 0.34593 0.41126
 H66 H 0.04024 0.41349 0.65046
 H67 H -0.02500 0.53087 0.47267
 H68 H 0.03787 0.34734 0.58457
 C69 C 0.38309 -0.02925 0.58223
 C70 C 0.41674 -0.03049 0.61598
 C71 C 0.45657 -0.01038 0.59664
 N72 N 0.44863 0.00213 0.55188
 C73 C 0.40372 -0.00928 0.54314
 C74 C 0.49885 -0.00180 0.62047
 C75 C 0.54077 0.00850 0.59518
 C76 C 0.57828 0.03265 0.61351
 C77 C 0.61266 0.03299 0.57909
 C78 C 0.59537 0.00903 0.54051
 N79 N 0.55109 -0.00504 0.55027
 C80 C 0.62110 -0.00067 0.49816
 C81 C 0.59767 -0.00913 0.45551
 C82 C 0.61795 -0.02878 0.41486
 C83 C 0.58417 -0.02758 0.38124
 C84 C 0.54417 -0.00809 0.40266
 N85 N 0.55236 0.00306 0.44806
 C86 C 0.50171 0.00166 0.37977
 C87 C 0.45931 0.01182 0.40467
 C88 C 0.41906 0.03084 0.38531
 C89 C 0.38457 0.03059 0.41983
 C90 C 0.40482 0.01141 0.45921
 N91 N 0.45041 0.00032 0.44976
 C92 C 0.38040 0.00070 0.50115
 H93 H 0.34763 -0.04192 0.58589
 H94 H 0.41234 -0.04472 0.65074
 H95 H 0.47244 -0.01936 0.47091
 H96 H 0.58056 0.04868 0.64807
 H97 H 0.64651 0.04932 0.58205
 H98 H 0.65335 -0.04269 0.40988
 H99 H 0.58842 -0.03997 0.34526
 H100 H 0.34850 0.04235 0.41607
 H101 H 0.53100 -0.02684 0.52921
 H102 H 0.41474 0.04285 0.34978
 O103 O 0.46238 -0.00010 -0.06456
 O104 O 0.46266 0.00094 0.06476
 O105 O 0.46265 0.06508 0.00063
 O106 O 0.46242 -0.06425 -0.00039
 O107 O 0.54011 -0.06591 -0.00213
 O108 O 0.54035 0.06345 -0.00111
 O109 O 0.54035 -0.00070 0.06304
 O110 O 0.54008 -0.00174 -0.06631
 Cu111 Cu 0.45470 0.00058 0.00028
 Cu112 Cu 0.54806 -0.00139 -0.00181
 C113 C 0.50118 -0.00106 -0.08727
 C114 C 0.50155 0.00028 0.08574
 C115 C 0.50154 0.08609 -0.00007
 C116 C 0.50122 -0.08691 -0.00139
 O117 O -0.06554 0.53965 1.00162
 O118 O 0.06384 0.53989 1.00091
 O119 O 0.00003 0.53986 0.93664
 O120 O -0.00173 0.53967 1.06591
 O121 O -0.00009 0.46202 1.06448
 O122 O 0.00167 0.46220 0.93523
 O123 O 0.06547 0.46224 0.99949
 O124 O -0.06388 0.46200 1.00021
 Cu125 Cu -0.00101 0.54761 1.00141
 Cu126 Cu 0.00096 0.45428 0.99972
 C127 C -0.08654 0.50078 1.00100
 C128 C 0.08649 0.50111 1.00011
 C129 C 0.00110 0.50106 0.91412
 C130 C -0.00118 0.50081 1.08701
 O131 O 0.00148 -0.06540 0.46178
 O132 O 0.00000 0.06383 0.46144
 O133 O 0.06543 -0.00122 0.46179
 O134 O -0.06393 -0.00035 0.46148
 O135 O -0.06569 0.00115 0.53914
 O136 O 0.06367 0.00029 0.53945
 O137 O -0.00176 0.06534 0.53910
 O138 O -0.00028 -0.06390 0.53943
 Cu139 Cu 0.00093 -0.00094 0.45378
 Cu140 Cu -0.00118 0.00087 0.54712
 C141 C 0.00080 -0.08646 0.50066
 C142 C -0.00110 0.08639 0.50021
 C143 C 0.08638 -0.00056 0.50068
 C144 C -0.08664 0.00051 0.50026
 C145 C -0.22976 0.50010 1.00082
 C146 C -0.25482 0.53589 0.97877
 C147 C -0.30389 0.53545 0.97836
 C148 C -0.32888 0.49898 0.99989
 C149 C -0.30299 0.46329 1.02224
 C150 C -0.25393 0.46388 1.02261
 C151 C -0.17923 0.50046 1.00100
 C152 C -0.13690 0.50066 1.00106
 H153 H -0.23643 0.56405 0.96167
 H154 H -0.32229 0.56311 0.96013
 H155 H -0.32072 0.43549 1.04058
 H156 H -0.23487 0.43617 1.04011
 C157 C 0.22972 0.50136 1.00016
 C158 C 0.25569 0.47164 0.96935
 C159 C 0.30479 0.47166 0.96956
 C160 C 0.32834 0.50141 1.00064
 C161 C 0.30211 0.53116 1.03146
 C162 C 0.25302 0.53112 1.03120
 C163 C 0.17919 0.50127 1.00002
 C164 C 0.13685 0.50120 1.00000
 H165 H 0.23801 0.44849 0.94518
 H166 H 0.32448 0.44861 0.94546
 H167 H 0.31971 0.55422 1.05575
 H168 H 0.23326 0.55423 1.05520
 C169 C 0.00113 -0.22955 0.50106
 C170 C -0.02300 -0.25431 0.46663
 C171 C -0.02332 -0.30335 0.46685
 C172 C 0.00047 -0.32856 0.50171
 C173 C 0.02482 -0.30299 0.53608
 C174 C 0.02507 -0.25396 0.53571
 C175 C 0.00119 -0.17907 0.50090
 C176 C 0.00110 -0.13677 0.50079
 H177 H -0.04181 -0.23572 0.43972
 H178 H -0.04317 -0.32156 0.44035
 H179 H 0.04466 -0.32097 0.56266
 H180 H 0.04413 -0.23510 0.56238
 C181 C -0.00190 0.22948 0.49965
 C182 C -0.03476 0.25521 0.52734
 C183 C -0.03489 0.30427 0.52714
 C184 C -0.00214 0.32799 0.49920
 C185 C 0.03080 0.30203 0.47158
 C186 C 0.03087 0.25298 0.47178
 C187 C -0.00174 0.17900 0.49989
 C188 C -0.00150 0.13671 0.50006
 H189 H -0.06025 0.23737 0.54904
 H190 H -0.06050 0.32381 0.54864
 H191 H 0.05644 0.31982 0.45002
 H192 H 0.05648 0.23339 0.45029
 C193 C 0.50029 -0.00150 -0.23048
 C194 C 0.46303 0.02005 -0.25366
 C195 C 0.46243 0.02001 -0.30271
 C196 C 0.49916 -0.00176 -0.32961
 C197 C 0.53665 -0.02308 -0.30560
 C198 C 0.53710 -0.02300 -0.25654
 C199 C 0.50076 -0.00144 -0.17995
 C200 C 0.50102 -0.00131 -0.13763
 H201 H 0.43453 0.03716 -0.23381
 H202 H 0.43378 0.03820 -0.31957
 H203 H 0.56517 -0.04087 -0.32482
 H204 H 0.56609 -0.03989 -0.23894
 C205 C 0.50166 0.00108 0.22896
 C206 C 0.47318 -0.02989 0.25380
 C207 C 0.47318 -0.02971 0.30288
 C208 C 0.50167 0.00149 0.32759
 C209 C 0.53015 0.03249 0.30250
 C210 C 0.53014 0.03226 0.25342
 C211 C 0.50166 0.00084 0.17843
 C212 C 0.50164 0.00061 0.13610
 H213 H 0.45103 -0.05417 0.23524
 H214 H 0.45111 -0.05395 0.32166
 H215 H 0.55224 0.05687 0.32099
 H216 H 0.55229 0.05638 0.23455
 C217 C 0.50040 -0.23012 -0.00166
 C218 C 0.46314 -0.25331 0.01995
 C219 C 0.46256 -0.30236 0.01998
 C220 C 0.49929 -0.32924 -0.00178
 C221 C 0.53679 -0.30522 -0.02315
 C222 C 0.53722 -0.25616 -0.02314
 C223 C 0.50084 -0.17959 -0.00167
 C224 C 0.50108 -0.13727 -0.00160
 H225 H 0.43462 -0.23348 0.03705
 H226 H 0.43390 -0.31923 0.03821
 H227 H 0.56532 -0.32442 -0.04092
 H228 H 0.56622 -0.23855 -0.04007
 C229 C 0.50168 0.22932 0.00087
 C230 C 0.53017 0.25375 0.03206
 C231 C 0.53021 0.30283 0.03236
 C232 C 0.50174 0.32795 0.00142
 C233 C 0.47324 0.30327 -0.02979
 C234 C 0.47321 0.25419 -0.03004
 C235 C 0.50166 0.17879 0.00057
 C236 C 0.50162 0.13646 0.00029
 H237 H 0.55231 0.23486 0.05614
 H238 H 0.55229 0.32129 0.05676
 H239 H 0.45118 0.32208 -0.05399
 H240 H 0.45106 0.23566 -0.05433
 C241 C -0.22986 0.00054 0.49957
 C242 C -0.25397 0.02236 0.46336
 C243 C -0.30303 0.02206 0.46280
 C244 C -0.32898 -0.00025 0.49850
 C245 C -0.30406 -0.02180 0.53497
 C246 C -0.25499 -0.02145 0.53539
 C247 C -0.17933 0.00065 0.49992
 C248 C -0.13700 0.00065 0.50011
 H249 H -0.23484 0.03983 0.43564
 H250 H -0.32069 0.04042 0.43500
 H251 H -0.32252 -0.03999 0.56265
 H252 H -0.23666 -0.03857 0.56355
 C253 C 0.22961 -0.00039 0.50105
 C254 C 0.25284 0.03068 0.53083
 C255 C 0.30193 0.03104 0.53088
 C256 C 0.32823 0.00028 0.50114
 C257 C 0.30475 -0.03085 0.47138
 C258 C 0.25565 -0.03115 0.47133
 C259 C 0.17908 -0.00061 0.50091
 C260 C 0.13675 -0.00066 0.50080
 H261 H 0.23303 0.05465 0.55393
 H262 H 0.31948 0.05537 0.55396
 H263 H 0.32449 -0.05490 0.44832
 H264 H 0.23802 -0.05534 0.44817
 C265 C -0.00239 0.50023 1.23012
 C266 C 0.02978 0.47176 1.25364
 C267 C 0.02948 0.47139 1.30270
 C268 C -0.00315 0.49942 1.32865
 C269 C -0.03523 0.52803 1.30489
 C270 C -0.03486 0.52840 1.25582
 C271 C -0.00206 0.50054 1.17963
 C272 C -0.00171 0.50071 1.13733
 H273 H 0.05511 0.44992 1.23408
 H274 H 0.05468 0.44938 1.32050
 H275 H -0.06055 0.54992 1.32439
 H276 H -0.05987 0.55058 1.23795
 C277 C 0.00185 0.50110 0.77101
 C278 C -0.03061 0.47420 0.74658
 C279 C -0.03068 0.47427 0.69753
 C280 C 0.00175 0.50127 0.67248
 C281 C 0.03426 0.52815 0.69715
 C282 C 0.03428 0.52806 0.74622
 C283 C 0.00175 0.50112 0.82150
 C284 C 0.00154 0.50111 0.86380
 H285 H -0.05587 0.45324 0.76544
 H286 H -0.05608 0.45346 0.67903
 H287 H 0.05959 0.54906 0.67835
 H288 H 0.05955 0.54899 0.76479
   
