data_POSCAR
  _audit_creation_date              2014-09-24
  _audit_creation_method            'ToBaCCo'
  _symmetry_space_group_name_H-M    'P1'
  _symmetry_Int_Tables_number       1
  _symmetry_cell_setting            triclinic
  loop_
  _symmetry_equiv_pos_as_xyz
 x,y,z
_cell_length_a 30.1021
_cell_length_b 29.3039
_cell_length_c 30.7448
_cell_angle_alpha 87.387600
_cell_angle_beta 92.117300
_cell_angle_gamma 90.386200
loop_
  _atom_site_label
  _atom_site_type_symbol
  _atom_site_fract_x
  _atom_site_fract_y
  _atom_site_fract_z
N1 N 0.62610 0.62119 0.62370
 N2 N 0.87869 0.37829 0.14040
 N3 N 0.38704 0.10672 -0.11815
 N4 N 0.12410 0.87963 0.37416
 N5 N 0.07460 0.19102 0.07827
 N6 N 0.05908 0.17653 0.11589
 C7 C 0.02495 0.20336 0.12560
 C8 C 0.01884 0.23617 0.09210
 C9 C 0.05072 0.22719 0.06261
 H10 H 0.00552 0.19884 0.15436
 H11 H 0.05620 0.24583 0.03209
 Cu12 Cu 0.08381 0.12306 0.14783
 Cu13 Cu 0.12509 0.16272 0.05278
 Cu14 Cu 0.16863 0.06606 0.10683
 N15 N 0.10723 0.06697 0.17612
 N16 N 0.14053 0.04518 0.16012
 C17 C 0.15035 0.00816 0.18611
 C18 C 0.12152 0.00639 0.22000
 C19 C 0.09452 0.04426 0.21275
 H20 H 0.17647 -0.01589 0.18077
 H21 H 0.06796 0.05471 0.23276
 N22 N 0.19260 0.09239 0.05245
 N23 N 0.17623 0.12951 0.03207
 C24 C 0.20048 0.13984 -0.00303
 C25 C 0.23340 0.10757 -0.00498
 C26 C 0.22752 0.07794 0.03070
 H27 H 0.19498 0.16894 -0.02544
 H28 H 0.24774 0.04869 0.04062
 H29 H 0.11250 0.09814 0.07975
 H30 H 0.15326 0.13445 0.11011
 N31 N 0.43364 0.80919 0.60248
 N32 N 0.45310 0.82728 0.63664
 C33 C 0.49106 0.80461 0.64708
 C34 C 0.49570 0.77074 0.61784
 C35 C 0.45862 0.77453 0.58992
 H36 H 0.51368 0.81188 0.67405
 H37 H 0.45006 0.75340 0.56291
 Cu38 Cu 0.42666 0.87834 0.66437
 Cu39 Cu 0.37708 0.83148 0.57728
 Cu40 Cu 0.33032 0.92383 0.62519
 N41 N 0.40030 0.93027 0.69080
 N42 N 0.36246 0.94774 0.67546
 C43 C 0.35125 0.98247 0.70000
 C44 C 0.38386 0.98717 0.73228
 C45 C 0.41455 0.95345 0.72554
 H46 H 0.32149 1.00278 0.69493
 H47 H 0.44461 0.94596 0.74476
 N48 N 0.30283 0.89477 0.57418
 N49 N 0.32014 0.85902 0.55653
 C50 C 0.29334 0.84666 0.52297
 C51 C 0.25763 0.87621 0.51930
 C52 C 0.26480 0.90633 0.55205
 H53 H 0.29973 0.81879 0.50226
 H54 H 0.24365 0.93451 0.55918
 H55 H 0.38521 0.89775 0.59652
 H56 H 0.35391 0.85780 0.63336
 N57 N 0.91826 0.70372 0.39375
 N58 N 0.93741 0.68373 0.36197
 C59 C 0.97267 0.70900 0.34951
 C60 C 0.97575 0.74672 0.37501
 C61 C 0.94083 0.74217 0.40278
 H62 H 0.99466 0.70033 0.32418
 H63 H 0.93248 0.76526 0.42765
 Cu64 Cu 0.91482 0.62638 0.34023
 Cu65 Cu 0.86543 0.67858 0.42083
 Cu66 Cu 0.82235 0.57825 0.38066
 N67 N 0.88968 0.57044 0.31768
 N68 N 0.85315 0.55222 0.33314
 C69 C 0.84256 0.51465 0.31129
 C70 C 0.87427 0.50881 0.28076
 C71 C 0.90371 0.54488 0.28559
 H72 H 0.81394 0.49303 0.31716
 H73 H 0.93270 0.55235 0.26675
 N74 N 0.79592 0.60963 0.42869
 N75 N 0.81220 0.64793 0.44392
 C76 C 0.78711 0.66061 0.47667
 C77 C 0.75351 0.62865 0.48227
 C78 C 0.76017 0.59686 0.45145
 H79 H 0.79320 0.69051 0.49536
 H80 H 0.74038 0.56653 0.44627
 H81 H 0.87680 0.61109 0.40815
 H82 H 0.84212 0.64496 0.36683
 N83 N 0.57143 0.30343 -0.09168
 N84 N 0.55471 0.32184 -0.12844
 C85 C 0.51956 0.29672 -0.14179
 C86 C 0.51380 0.26098 -0.11167
 C87 C 0.54737 0.26619 -0.08025
 H88 H 0.49942 0.30382 -0.17114
 H89 H 0.55411 0.24441 -0.05147
 Cu90 Cu 0.58028 0.37696 -0.15509
 Cu91 Cu 0.62337 0.32879 -0.06164
 Cu92 Cu 0.67121 0.42561 -0.10970
 N93 N 0.60785 0.43090 -0.18193
 N94 N 0.64381 0.44933 -0.16443
 C95 C 0.65614 0.48563 -0.18968
 C96 C 0.62612 0.49045 -0.22460
 C97 C 0.59591 0.45507 -0.21878
 H98 H 0.68454 0.50733 -0.18294
 H99 H 0.56763 0.44733 -0.23989
 N100 N 0.69400 0.39656 -0.05431
 N101 N 0.67601 0.35945 -0.03624
 C102 C 0.69913 0.34778 0.00091
 C103 C 0.73297 0.37915 0.00665
 C104 C 0.72885 0.40962 -0.02897
 H105 H 0.69189 0.31873 0.02248
 H106 H 0.74985 0.43886 -0.03610
 H107 H 0.61462 0.39556 -0.08494
 H108 H 0.65072 0.35878 -0.11673
 C109 C -0.08946 0.34192 0.14688
 C110 C -0.07128 0.32260 0.11327
 C111 C -0.03824 0.28593 0.12011
 C112 C -0.01470 0.27254 0.08703
 H113 H -0.08018 0.33475 0.08029
 H114 H -0.03265 0.27046 0.15252
 H115 H -0.07848 0.33154 0.17983
 H116 H -0.01926 0.28964 0.05517
 C117 C 0.59308 0.65659 0.62436
 C118 C 0.57267 0.67355 0.58770
 C119 C 0.53678 0.70778 0.58709
 C120 C 0.53214 0.73736 0.61858
 H121 H 0.58065 0.65983 0.55684
 H122 H 0.51446 0.70938 0.55867
 H123 H 0.58230 0.66667 0.65570
 H124 H 0.55608 0.73802 0.64568
 C125 C 1.08905 0.84592 0.37700
 C126 C 1.07244 0.82587 0.34155
 C127 C 1.03856 0.78917 0.34293
 C128 C 1.00912 0.78377 0.37444
 H129 H 1.08620 0.83467 0.31020
 H130 H 1.03699 0.76706 0.31568
 H131 H 1.07881 0.83422 0.40902
 H132 H 1.00843 0.80768 0.40021
 C133 C 0.42074 0.14190 -0.11877
 C134 C 0.43651 0.16009 -0.08202
 C135 C 0.47169 0.19544 -0.08080
 C136 C 0.47914 0.22535 -0.11404
 H137 H 0.42489 0.14689 -0.05097
 H138 H 0.49043 0.19810 -0.05030
 H139 H 0.43509 0.15190 -0.14958
 H140 H 0.45843 0.22500 -0.14356
 C141 C 0.12550 -0.08605 0.33916
 C142 C 0.08848 -0.06777 0.32026
 C143 C 0.08903 -0.03221 0.28461
 C144 C 0.12148 -0.02860 0.25595
 H145 H 0.05641 -0.07752 0.33264
 H146 H 0.06042 -0.01004 0.28073
 H147 H 0.15769 -0.07290 0.32994
 H148 H 0.14849 -0.05289 0.25777
 C149 C 0.62815 0.58578 -0.34229
 C150 C 0.59171 0.57082 -0.32212
 C151 C 0.59228 0.53416 -0.28756
 C152 C 0.62709 0.52612 -0.25992
 H153 H 0.55948 0.58415 -0.33282
 H154 H 0.56166 0.51521 -0.28330
 H155 H 0.65977 0.56929 -0.33461
 H156 H 0.65657 0.54738 -0.26183
 C157 C 0.38405 1.07490 0.84744
 C158 C 0.42035 1.05977 0.82869
 C159 C 0.41906 1.02629 0.79415
 C160 C 0.38406 1.02060 0.76668
 H161 H 0.45290 1.07034 0.84071
 H162 H 0.44922 1.00724 0.79029
 H163 H 0.35168 1.06126 0.83835
 H164 H 0.35487 1.04169 0.76842
 C165 C 0.87546 0.41214 0.17268
 C166 C 0.91156 0.42790 0.19414
 C167 C 0.91015 0.46435 0.22571
 C168 C 0.87478 0.47221 0.24945
 H169 H 0.94409 0.41584 0.18626
 H170 H 0.94038 0.48390 0.23072
 H171 H 0.84330 0.42713 0.17742
 H172 H 0.84561 0.45055 0.24703
 C173 C 0.35161 0.10883 -0.08807
 C174 C 0.33054 0.07113 -0.07321
 C175 C 0.29531 0.07178 -0.04105
 C176 C 0.26814 0.10733 -0.03749
 H177 H 0.34133 0.03800 -0.08280
 H178 H 0.29063 0.04087 -0.02110
 H179 H 0.34386 0.14159 -0.07533
 H180 H 0.27047 0.13699 -0.05961
 C181 C 0.65955 0.62103 0.59136
 C182 C 0.67598 0.65975 0.57317
 C183 C 0.71121 0.66089 0.54088
 C184 C 0.71835 0.62679 0.51443
 H185 H 0.66498 0.69232 0.58395
 H186 H 0.73045 0.69211 0.53777
 H187 H 0.67371 0.58852 0.58402
 H188 H 0.69727 0.59673 0.51535
 C189 C 0.84536 0.37624 0.10565
 C190 C 0.82688 0.41411 0.08693
 C191 C 0.79383 0.41368 0.05021
 C192 C 0.76610 0.37860 0.04318
 H193 H 0.83825 0.44722 0.09713
 H194 H 0.79109 0.44457 0.02966
 H195 H 0.83725 0.34327 0.09283
 H196 H 0.76644 0.34893 0.06548
 C197 C 0.15895 0.88060 0.40743
 C198 C 0.17320 0.84256 0.42938
 C199 C 0.21050 0.84215 0.46195
 C200 C 0.22024 0.87735 0.48698
 H201 H 0.15921 0.80979 0.42116
 H202 H 0.22904 0.81068 0.46670
 H203 H 0.17602 0.91269 0.41254
 H204 H 0.19954 0.90750 0.48488
   
