data_POSCAR
  _audit_creation_date              2014-09-24
  _audit_creation_method            'ToBaCCo'
  _symmetry_space_group_name_H-M    'P1'
  _symmetry_Int_Tables_number       1
  _symmetry_cell_setting            triclinic
  loop_
  _symmetry_equiv_pos_as_xyz
 x,y,z
_cell_length_a 27.1754
_cell_length_b 26.6397
_cell_length_c 31.0884
_cell_angle_alpha 90.003200
_cell_angle_beta 90.013500
_cell_angle_gamma 89.985900
loop_
  _atom_site_label
  _atom_site_type_symbol
  _atom_site_fract_x
  _atom_site_fract_y
  _atom_site_fract_z
B1 B 0.27007 0.22379 0.28924
 B2 B 0.21084 0.20762 0.27603
 B3 B 0.22368 0.26820 0.29007
 B4 B 0.28020 0.28269 0.26993
 B5 B 0.30067 0.23170 0.24334
 B6 B 0.25847 0.18488 0.24736
 B7 B 0.21674 0.26260 0.20203
 B8 B 0.27584 0.27879 0.21530
 B9 B 0.26336 0.21825 0.20131
 B10 B 0.20664 0.20362 0.22135
 B11 B 0.18611 0.25475 0.24814
 B12 B 0.22839 0.30125 0.24410
 B13 B 0.73174 0.77499 0.29053
 B14 B 0.79087 0.78906 0.27651
 B15 B 0.77589 0.72822 0.28887
 B16 B 0.71824 0.71746 0.26965
 B17 B 0.69906 0.77041 0.24462
 B18 B 0.74415 0.81420 0.24903
 B19 B 0.78096 0.73678 0.20108
 B20 B 0.72191 0.72273 0.21505
 B21 B 0.73671 0.78342 0.20253
 B22 B 0.79442 0.79449 0.22184
 B23 B 0.81367 0.74150 0.24703
 B24 B 0.76842 0.69797 0.24257
 B25 B 0.73659 0.21827 -0.20147
 B26 B 0.72440 0.27892 -0.21531
 B27 B 0.78337 0.26235 -0.20193
 B28 B 0.79333 0.20345 -0.22138
 B29 B 0.74157 0.18505 -0.24757
 B30 B 0.69950 0.23203 -0.24357
 B31 B 0.77682 0.26842 -0.28994
 B32 B 0.78940 0.20773 -0.27604
 B33 B 0.73028 0.22414 -0.28939
 B34 B 0.72026 0.28304 -0.26996
 B35 B 0.77203 0.30128 -0.24390
 B36 B 0.81413 0.25462 -0.24796
 B37 B 0.26373 0.78223 -0.20103
 B38 B 0.27592 0.72160 -0.21495
 B39 B 0.21688 0.73817 -0.20181
 B40 B 0.20707 0.79715 -0.22120
 B41 B 0.25898 0.81560 -0.24713
 B42 B 0.30102 0.76857 -0.24303
 B43 B 0.22388 0.73232 -0.28983
 B44 B 0.21125 0.79300 -0.27589
 B45 B 0.27044 0.77658 -0.28900
 B46 B 0.28035 0.71764 -0.26960
 B47 B 0.22843 0.69938 -0.24382
 B48 B 0.18637 0.74606 -0.24797
 B49 B 1.22368 1.26817 0.70990
 B50 B 1.21087 1.20752 0.72376
 B51 B 1.27012 1.22381 0.71077
 B52 B 1.28012 1.28265 0.73023
 B53 B 1.22821 1.30107 0.75595
 B54 B 1.18600 1.25454 0.75169
 B55 B 1.26311 1.21802 0.79867
 B56 B 1.27559 1.27860 0.78483
 B57 B 1.21647 1.26229 0.79790
 B58 B 1.20649 1.20336 0.77843
 B59 B 1.25842 1.18476 0.75255
 B60 B 1.30056 1.23161 0.75678
 B61 B 0.77590 0.72843 0.71109
 B62 B 0.79085 0.78924 0.72363
 B63 B 0.73177 0.77520 0.70941
 B64 B 0.71820 0.71762 0.73012
 B65 B 0.76828 0.69805 0.75729
 B66 B 0.81355 0.74159 0.75304
 B67 B 0.73643 0.78338 0.79745
 B68 B 0.72169 0.72273 0.78473
 B69 B 0.78071 0.73673 0.79891
 B70 B 0.79422 0.79450 0.77832
 B71 B 0.74403 0.81431 0.75103
 B72 B 0.69893 0.77050 0.75521
 B73 B 1.22407 0.73171 0.28954
 B74 B 1.21013 0.79186 0.27591
 B75 B 1.26987 0.77682 0.28942
 B76 B 1.28130 0.71857 0.26973
 B77 B 1.23023 0.69950 0.24367
 B78 B 1.18658 0.74451 0.24696
 B79 B 1.26370 0.78385 0.20175
 B80 B 1.27712 0.72269 0.21506
 B81 B 1.21863 0.73793 0.20120
 B82 B 1.20656 0.79656 0.22120
 B83 B 1.25752 0.81585 0.24821
 B84 B 1.30122 0.77030 0.24335
 B85 B 0.77665 1.26837 0.29010
 B86 B 0.78924 1.20773 0.27598
 B87 B 0.73008 1.22414 0.28914
 B88 B 0.72020 1.28314 0.26990
 B89 B 0.77212 1.30149 0.24417
 B90 B 0.81417 1.25476 0.24824
 B91 B 0.73690 1.21877 0.20120
 B92 B 0.72465 1.27932 0.21526
 B93 B 0.78371 1.26281 0.20211
 B94 B 0.79349 1.20378 0.22133
 B95 B 0.74156 1.18525 0.24719
 B96 B 0.69955 1.23229 0.24320
 N97 N 0.44781 1.08980 0.04582
 N98 N 0.40918 1.11941 0.05057
 N99 N 0.55273 1.05549 0.07496
 N100 N 0.59141 1.06053 0.10021
 N101 N 0.55236 1.09053 0.04539
 N102 N 0.59072 1.12057 0.04996
 N103 N 0.44807 1.05473 0.07537
 N104 N 0.40957 1.05947 0.10090
 C105 C 0.38494 1.09948 0.08466
 C106 C 0.61547 1.10079 0.08388
 N107 N 0.55419 0.91335 0.04625
 N108 N 0.59245 0.88338 0.05212
 N109 N 0.44928 0.94772 0.07588
 N110 N 0.41125 0.94286 0.10182
 N111 N 0.44936 0.91212 0.04676
 N112 N 0.41119 0.88196 0.05229
 N113 N 0.55356 0.94873 0.07556
 N114 N 0.59123 0.94394 0.10194
 Mn115 Mn 0.50087 1.00168 0.07608
 C116 C 0.61581 0.90344 0.08674
 C117 C 0.38723 0.90205 0.08657
 N118 N 0.55158 1.08998 -0.04641
 N119 N 0.59007 1.11972 -0.05121
 N120 N 0.44683 1.05391 -0.07505
 N121 N 0.40816 1.05865 -0.10038
 N122 N 0.44709 1.08931 -0.04578
 N123 N 0.40863 1.11914 -0.05054
 N124 N 0.55149 1.05480 -0.07589
 N125 N 0.59002 1.05957 -0.10138
 Mn126 Mn 0.49974 1.09076 -0.00026
 C127 C 0.61443 1.09976 -0.08522
 C128 C 0.38394 1.09900 -0.08430
 N129 N 0.44869 0.91151 -0.04534
 N130 N 0.41072 0.88098 -0.05013
 N131 N 0.55230 0.94789 -0.07573
 N132 N 0.58982 0.94310 -0.10227
 N133 N 0.55346 0.91284 -0.04613
 N134 N 0.59190 0.88310 -0.05199
 N135 N 0.44785 0.94678 -0.07476
 N136 N 0.40932 0.94129 -0.10013
 Mn137 Mn 0.50149 0.91149 0.00038
 Mn138 Mn 0.49957 1.00085 -0.07603
 Cl139 Cl 0.50043 1.00112 0.00003
 C140 C 0.38574 0.90061 -0.08402
 C141 C 0.61483 0.90296 -0.08690
 N142 N 1.08825 0.55304 0.54601
 N143 N 1.12468 0.58369 0.55614
 N144 N 1.05465 0.44774 0.57605
 N145 N 1.06724 0.41668 0.60721
 N146 N 1.08879 0.44815 0.54614
 N147 N 1.12524 0.41746 0.55612
 N148 N 1.05416 0.55315 0.57601
 N149 N 1.06683 0.58397 0.60734
 C150 C 1.11032 0.60367 0.59402
 C151 C 1.11078 0.39717 0.59385
 N152 N 0.91289 0.44730 0.54623
 N153 N 0.87644 0.41672 0.55638
 N154 N 0.94627 0.55237 0.57629
 N155 N 0.93222 0.58144 0.60841
 N156 N 0.91246 0.55222 0.54603
 N157 N 0.87503 0.58136 0.55661
 N158 N 0.94702 0.44714 0.57619
 N159 N 0.93435 0.41639 0.60756
 Mn160 Mn 1.00056 0.50011 0.57652
 C161 C 0.89082 0.39677 0.59426
 C162 C 0.88821 0.59999 0.59527
 N163 N 1.08871 0.44787 0.45400
 N164 N 1.12520 0.41726 0.44398
 N165 N 1.05408 0.55266 0.42371
 N166 N 1.06696 0.58297 0.39207
 N167 N 1.08819 0.55272 0.45371
 N168 N 1.12480 0.58300 0.44330
 N169 N 1.05446 0.44729 0.42416
 N170 N 1.06703 0.41617 0.39304
 Mn171 Mn 1.08855 0.50047 0.49997
 C172 C 1.11066 0.39681 0.40633
 C173 C 1.11058 0.60253 0.40521
 N174 N 0.91237 0.55196 0.45395
 N175 N 0.87495 0.58108 0.44334
 N176 N 0.94686 0.44674 0.42418
 N177 N 0.93412 0.41587 0.39291
 N178 N 0.91279 0.44704 0.45416
 N179 N 0.87630 0.41644 0.44413
 N180 N 0.94612 0.55196 0.42365
 N181 N 0.93202 0.58091 0.39146
 Mn182 Mn 0.91263 0.49965 0.50009
 Mn183 Mn 1.00041 0.49968 0.42354
 Cl184 Cl 1.00053 0.50005 0.50003
 C185 C 0.88805 0.59953 0.40461
 C186 C 0.89061 0.39631 0.40631
 N187 N 1.08700 0.55446 0.04505
 N188 N 1.11716 0.59292 0.05001
 N189 N 1.05286 0.44863 0.07577
 N190 N 1.05788 0.41024 0.10215
 N191 N 1.08697 0.44766 0.04596
 N192 N 1.11633 0.40856 0.05154
 N193 N 1.05242 0.55530 0.07443
 N194 N 1.05813 0.59436 0.10007
 C195 C 1.09820 0.61827 0.08403
 C196 C 1.09723 0.38493 0.08648
 N197 N 0.91393 0.44634 0.04645
 N198 N 0.88504 0.40699 0.05209
 N199 N 0.94710 0.55449 0.07473
 N200 N 0.94153 0.59402 0.09984
 N201 N 0.91221 0.55297 0.04565
 N202 N 0.88199 0.59143 0.05026
 N203 N 0.94816 0.44779 0.07614
 N204 N 0.94355 0.40943 0.10265
 Mn205 Mn 1.00014 0.50169 0.07595
 C206 C 0.90443 0.38368 0.08701
 C207 C 0.90120 0.61747 0.08377
 N208 N 1.08639 0.44697 -0.04639
 N209 N 1.11590 0.40799 -0.05193
 N210 N 1.05135 0.55393 -0.07580
 N211 N 1.05620 0.59264 -0.10187
 N212 N 1.08627 0.55390 -0.04671
 N213 N 1.11578 0.59282 -0.05223
 N214 N 1.05192 0.44744 -0.07590
 N215 N 1.05688 0.40884 -0.10207
 Mn216 Mn 1.08756 0.50063 -0.00053
 C217 C 1.09654 0.38393 -0.08656
 C218 C 1.09617 0.61723 -0.08654
 N219 N 0.91167 0.55229 -0.04577
 N220 N 0.88168 0.59095 -0.05030
 N221 N 0.94741 0.44662 -0.07539
 N222 N 0.94260 0.40808 -0.10162
 N223 N 0.91335 0.44559 -0.04558
 N224 N 0.88424 0.40630 -0.05095
 N225 N 0.94621 0.55330 -0.07516
 N226 N 0.94063 0.59271 -0.10041
 Mn227 Mn 0.91195 0.49914 0.00020
 Mn228 Mn 0.99921 0.50044 -0.07621
 Cl229 Cl 0.99976 0.50045 -0.00013
 C230 C 0.90066 0.61658 -0.08411
 C231 C 0.90347 0.38260 -0.08578
 N232 N 0.55313 0.91040 0.45481
 N233 N 0.56547 0.87251 0.42953
 N234 N 0.58803 0.94502 0.54472
 N235 N 0.62496 0.93105 0.56964
 N236 N 0.55347 0.91043 0.54489
 N237 N 0.56584 0.87264 0.57025
 N238 N 0.58771 0.94498 0.45486
 N239 N 0.62458 0.93092 0.42993
 C240 C 0.60980 0.88613 0.41367
 C241 C 0.61021 0.88631 0.58601
 N242 N 0.55376 1.09045 0.54465
 N243 N 0.56640 1.12824 0.56991
 N244 N 0.58749 1.05527 0.45464
 N245 N 0.62388 1.06851 0.42890
 N246 N 0.55344 1.09038 0.45497
 N247 N 0.56597 1.12816 0.42964
 N248 N 0.58782 1.05535 0.54486
 N249 N 0.62434 1.06861 0.57046
 Mn250 Mn 0.58802 1.00020 0.49977
 C251 C 0.61022 1.11385 0.58633
 C252 C 0.60971 1.11373 0.41305
 N253 N 0.44717 0.91035 0.54507
 N254 N 0.43458 0.87253 0.57034
 N255 N 0.41270 0.94550 0.45523
 N256 N 0.37594 0.93225 0.42989
 N257 N 0.44671 0.91036 0.45534
 N258 N 0.43376 0.87251 0.43025
 N259 N 0.41315 0.94548 0.54543
 N260 N 0.37672 0.93223 0.57114
 Mn261 Mn 0.50015 0.91041 0.50002
 C262 C 0.39084 0.88695 0.58693
 C263 C 0.38981 0.88693 0.41407
 N264 N 0.44704 1.09057 0.45525
 N265 N 0.43441 1.12827 0.42987
 N266 N 0.41336 1.05554 0.54536
 N267 N 0.37695 1.06877 0.57106
 N268 N 0.44737 1.09065 0.54498
 N269 N 0.43478 1.12847 0.57027
 N270 N 0.41295 1.05553 0.45515
 N271 N 0.37643 1.06871 0.42950
 Mn272 Mn 0.50041 1.09050 0.49996
 Mn273 Mn 0.41279 1.00052 0.50030
 Cl274 Cl 0.50035 1.00038 0.50001
 C275 C 0.39056 1.11385 0.41349
 C276 C 0.39104 1.11402 0.58685
 N277 N 0.94660 0.91254 0.54610
 N278 N 0.94301 0.88496 0.58125
 N279 N 0.91242 0.94725 0.45470
 N280 N 0.88487 0.94431 0.41985
 N281 N 0.94626 0.91217 0.45456
 N282 N 0.94262 0.88448 0.41948
 N283 N 0.91269 0.94754 0.54586
 N284 N 0.88514 0.94466 0.58071
 C285 C 0.90490 0.90591 0.60294
 C286 C 0.90455 0.90544 0.39773
 N287 N 0.94732 1.08870 0.45420
 N288 N 0.94423 1.11602 0.41886
 N289 N 0.91350 1.05412 0.54563
 N290 N 0.88665 1.05687 0.58086
 N291 N 0.94759 1.08892 0.54564
 N292 N 0.94465 1.11640 0.58091
 N293 N 0.91323 1.05389 0.45441
 N294 N 0.88618 1.05655 0.41926
 Mn295 Mn 0.91217 1.00073 0.50014
 C296 C 0.90636 1.09499 0.39695
 C297 C 0.90690 1.09540 0.60301
 N298 N 1.05125 0.91130 0.45430
 N299 N 1.05446 0.88332 0.41932
 N300 N 1.08579 0.94650 0.54545
 N301 N 1.11332 0.94354 0.58031
 N302 N 1.05166 0.91172 0.54580
 N303 N 1.05521 0.88410 0.58097
 N304 N 1.08533 0.94614 0.45415
 N305 N 1.11246 0.94286 0.41910
 Mn306 Mn 0.99893 0.91098 0.50021
 C307 C 1.09238 0.90400 0.39721
 C308 C 1.09342 0.90493 0.60262
 N309 N 1.05252 1.08839 0.54532
 N310 N 1.05605 1.11609 0.58042
 N311 N 1.08590 1.05296 0.45391
 N312 N 1.11311 1.05579 0.41885
 N313 N 1.05219 1.08817 0.45393
 N314 N 1.05567 1.11592 0.41886
 N315 N 1.08632 1.05327 0.54521
 N316 N 1.11364 1.05610 0.58021
 Mn317 Mn 0.99990 1.08948 0.49978
 Mn318 Mn 1.08665 0.99971 0.49967
 Cl319 Cl 0.99944 1.00020 0.49995
 C320 C 1.09389 1.09498 0.60232
 C321 C 1.09338 1.09474 0.39683
 N322 N 0.58806 0.55178 0.04744
 N323 N 0.62499 0.57927 0.06220
 N324 N 0.55207 0.44765 0.07591
 N325 N 0.56315 0.41990 0.10956
 N326 N 0.58764 0.44696 0.04728
 N327 N 0.62421 0.41860 0.06137
 N328 N 0.55176 0.55215 0.07538
 N329 N 0.56243 0.58017 0.10891
 C330 C 0.60767 0.59753 0.10018
 C331 C 0.60761 0.40110 0.09982
 N332 N 0.41234 0.44657 0.04740
 N333 N 0.37599 0.41794 0.06147
 N334 N 0.44766 0.55188 0.07565
 N335 N 0.43662 0.57933 0.10946
 N336 N 0.41129 0.55134 0.04777
 N337 N 0.37399 0.57809 0.06284
 N338 N 0.44799 0.44737 0.07598
 N339 N 0.43719 0.41941 0.10956
 Mn340 Mn 0.49988 0.49980 0.07539
 C341 C 0.39284 0.40036 0.09983
 C342 C 0.39106 0.59608 0.10098
 N343 N 0.58747 0.44691 -0.04765
 N344 N 0.62394 0.41840 -0.06170
 N345 N 0.55153 0.55208 -0.07575
 N346 N 0.56214 0.58008 -0.10930
 N347 N 0.58790 0.55174 -0.04784
 N348 N 0.62478 0.57922 -0.06265
 N349 N 0.55184 0.44758 -0.07624
 N350 N 0.56277 0.41966 -0.10982
 Mn351 Mn 0.58843 0.49933 -0.00020
 C352 C 0.60721 0.40076 -0.10008
 C353 C 0.60740 0.59745 -0.10061
 N354 N 0.41162 0.55184 -0.04737
 N355 N 0.37508 0.58039 -0.06133
 N356 N 0.44779 0.44740 -0.07612
 N357 N 0.43693 0.41933 -0.10962
 N358 N 0.41221 0.44673 -0.04751
 N359 N 0.37584 0.41802 -0.06144
 N360 N 0.44742 0.55177 -0.07580
 N361 N 0.43655 0.58007 -0.10915
 Mn362 Mn 0.41120 0.49911 0.00004
 Mn363 Mn 0.49965 0.49974 -0.07565
 Cl364 Cl 0.49978 0.49953 -0.00010
 C365 C 0.39197 0.59862 -0.09947
 C366 C 0.39260 0.40031 -0.09978
 C367 C 0.29420 1.18424 0.16316
 C368 C 0.28789 1.19548 0.11458
 C369 C 0.31690 1.16739 0.08779
 C370 C 0.34925 1.12908 0.11133
 C371 C 0.37860 1.15941 0.14333
 C372 C 0.35107 1.18712 0.16996
 C373 C 0.28413 1.12687 0.16505
 C374 C 0.31295 1.09831 0.13850
 H375 H 0.25978 1.21855 0.10086
 H376 H 0.31375 1.16925 0.05301
 H377 H 0.41832 1.15680 0.14696
 H378 H 0.37016 1.20447 0.19631
 H379 H 0.25527 1.10996 0.18432
 H380 H 0.30877 1.05791 0.13582
 C381 C 0.80446 0.68964 0.67555
 C382 C 0.81028 0.63375 0.68989
 C383 C 0.83745 0.60465 0.66287
 C384 C 0.85609 0.63247 0.62303
 C385 C 0.80915 0.65465 0.60268
 C386 C 0.78182 0.68341 0.63040
 C387 C 0.85864 0.70563 0.66787
 C388 C 0.88453 0.67708 0.64023
 H389 H 0.79196 0.61656 0.71710
 H390 H 0.84255 0.56468 0.66812
 H391 H 0.79532 0.64351 0.57135
 H392 H 0.74404 0.69287 0.62314
 H393 H 0.87771 0.73381 0.68610
 H394 H 0.92342 0.68342 0.63424
 C395 C 0.70705 0.82053 0.16631
 C396 C 0.70146 0.87676 0.17919
 C397 C 0.67259 0.90453 0.15235
 C398 C 0.65180 0.87471 0.11411
 C399 C 0.69772 0.85229 0.09244
 C400 C 0.72714 0.82525 0.11999
 C401 C 0.65277 0.80360 0.16116
 C402 C 0.62510 0.83070 0.13409
 H403 H 0.72138 0.89496 0.20506
 H404 H 0.66799 0.94473 0.15643
 H405 H 0.70955 0.86258 0.06029
 H406 H 0.76471 0.81644 0.11154
 H407 H 0.63466 0.77612 0.18077
 H408 H 0.58594 0.82369 0.13027
 C409 C 1.19431 0.30370 0.67182
 C410 C 1.20609 0.36064 0.67551
 C411 C 1.17876 0.39115 0.64963
 C412 C 1.14213 0.36303 0.62096
 C413 C 1.17370 0.32456 0.59673
 C414 C 1.20123 0.29426 0.62298
 C415 C 1.13728 0.30211 0.67757
 C416 C 1.11101 0.33208 0.65145
 H417 H 1.23536 0.37597 0.69529
 H418 H 1.18438 0.43147 0.64828
 H419 H 1.17679 0.32341 0.56193
 H420 H 1.22805 0.26998 0.60874
 H421 H 1.11736 0.28201 0.70194
 H422 H 1.07118 0.33443 0.65361
 C423 C 0.70551 1.18433 -0.16347
 C424 C 0.64869 1.18718 -0.17055
 C425 C 0.62102 1.15950 -0.14401
 C426 C 0.65020 1.12927 -0.11182
 C427 C 0.68670 1.09845 -0.13878
 C428 C 0.71565 1.12696 -0.16524
 C429 C 0.71151 1.19568 -0.11487
 C430 C 0.68236 1.16764 -0.08819
 H431 H 0.62974 1.20458 -0.19696
 H432 H 0.58132 1.15691 -0.14779
 H433 H 0.69088 1.05805 -0.13604
 H434 H 0.74461 1.11003 -0.18439
 H435 H 0.73946 1.21881 -0.10102
 H436 H 0.68528 1.16959 -0.05340
 C437 C 1.19455 0.69568 0.32721
 C438 C 1.13754 0.69736 0.32131
 C439 C 1.11112 0.66749 0.34740
 C440 C 1.14208 0.63642 0.37793
 C441 C 1.17871 0.60823 0.34924
 C442 C 1.20617 0.63872 0.32338
 C443 C 1.20140 0.70495 0.37606
 C444 C 1.17374 0.67475 0.40221
 H445 H 1.11780 0.71685 0.29645
 H446 H 1.07133 0.66487 0.34487
 H447 H 1.18412 0.56787 0.35045
 H448 H 1.23528 0.62338 0.30344
 H449 H 1.22835 0.72902 0.39035
 H450 H 1.17685 0.67582 0.43701
 C451 C 0.29478 0.81596 -0.16272
 C452 C 0.28464 0.87331 -0.16428
 C453 C 0.31351 0.90169 -0.13763
 C454 C 0.35003 0.87081 -0.11068
 C455 C 0.31785 0.83230 -0.08727
 C456 C 0.28872 0.80439 -0.11414
 C457 C 0.35163 0.81319 -0.16968
 C458 C 0.37926 0.84074 -0.14294
 H459 H 0.25572 0.89031 -0.18344
 H460 H 0.30925 0.94206 -0.13474
 H461 H 0.31485 0.83021 -0.05250
 H462 H 0.26066 0.78128 -0.10044
 H463 H 0.37064 0.79585 -0.19609
 H464 H 0.41898 0.84332 -0.14659
 C465 C 0.80634 0.30365 0.32820
 C466 C 0.79947 0.29414 0.37703
 C467 C 0.82724 0.32415 0.40330
 C468 C 0.85901 0.36248 0.37912
 C469 C 0.88987 0.33142 0.34852
 C470 C 0.86337 0.30173 0.32236
 C471 C 0.79490 0.36069 0.32466
 C472 C 0.82249 0.39094 0.35058
 H473 H 0.77248 0.27003 0.39124
 H474 H 0.82419 0.32293 0.43810
 H475 H 0.92970 0.33363 0.34623
 H476 H 0.88311 0.28177 0.29778
 H477 H 0.76570 0.37628 0.30496
 H478 H 0.81713 0.43129 0.35201
 C479 C 1.17977 0.29243 0.16568
 C480 C 1.19532 0.34815 0.16087
 C481 C 1.16844 0.37611 0.13387
 C482 C 1.12584 0.34834 0.11363
 C483 C 1.14865 0.30206 0.09174
 C484 C 1.17554 0.27226 0.11920
 C485 C 1.12445 0.29708 0.17838
 C486 C 1.09684 0.32633 0.15165
 H487 H 1.22073 0.36734 0.18142
 H488 H 1.17423 0.41633 0.13080
 H489 H 1.13860 0.28991 0.05960
 H490 H 1.18421 0.23399 0.11065
 H491 H 1.10679 0.27615 0.20398
 H492 H 1.05734 0.33029 0.15560
 C493 C 0.69751 0.80413 0.67033
 C494 C 0.69532 0.86225 0.67688
 C495 C 0.66643 0.88780 0.64933
 C496 C 0.64088 0.85505 0.61635
 C497 C 0.68214 0.82541 0.59447
 C498 C 0.71086 0.79841 0.62218
 C499 C 0.64229 0.78906 0.67065
 C500 C 0.61300 0.81559 0.64296
 H501 H 0.71179 0.88315 0.70280
 H502 H 0.66065 0.92801 0.65227
 H503 H 0.68545 0.82185 0.55980
 H504 H 0.73540 0.77104 0.60905
 H505 H 0.62737 0.75884 0.69006
 H506 H 0.57392 0.80816 0.63965
 C507 C 1.17957 0.70880 -0.16558
 C508 C 1.12418 0.70486 -0.17834
 C509 C 1.09622 0.67590 -0.15169
 C510 C 1.12497 0.65351 -0.11371
 C511 C 1.16727 0.62523 -0.13397
 C512 C 1.19453 0.65291 -0.16084
 C513 C 1.17555 0.72897 -0.11911
 C514 C 1.14830 0.69946 -0.09172
 H515 H 1.10675 0.72613 -0.20387
 H516 H 1.05667 0.67246 -0.15564
 H517 H 1.17272 0.58497 -0.13084
 H518 H 1.22008 0.63352 -0.18113
 H519 H 1.18478 0.76707 -0.11048
 H520 H 1.13842 0.71163 -0.05955
 C521 C 0.69310 1.19580 0.32599
 C522 C 0.63805 1.18835 0.31310
 C523 C 0.61069 1.16145 0.34187
 C524 C 0.63959 1.14459 0.38173
 C525 C 0.68313 1.11546 0.36387
 C526 C 0.70968 1.14116 0.33474
 C527 C 0.68813 1.22061 0.37051
 C528 C 0.66135 1.19355 0.39979
 H529 H 0.62062 1.20450 0.28497
 H530 H 0.57165 1.15460 0.33737
 H531 H 0.68921 1.07565 0.36918
 H532 H 0.73491 1.12068 0.31488
 H533 H 0.69656 1.25970 0.37616
 H534 H 0.65105 1.20889 0.43086
 C535 C 0.81510 0.70658 0.16272
 C536 C 0.87072 0.72009 0.16350
 C537 C 0.89969 0.69189 0.13677
 C538 C 0.87100 0.65275 0.11055
 C539 C 0.84373 0.62169 0.14340
 C540 C 0.81568 0.64858 0.17021
 C541 C 0.80259 0.71155 0.11429
 C542 C 0.83112 0.68316 0.08735
 H543 H 0.88607 0.75062 0.18230
 H544 H 0.93895 0.69828 0.13341
 H545 H 0.84851 0.58142 0.14737
 H546 H 0.80025 0.62843 0.19694
 H547 H 0.77813 0.73867 0.10066
 H548 H 0.82834 0.68570 0.05258
 C549 C 0.30725 1.19568 0.67392
 C550 C 0.29073 1.14110 0.66493
 C551 C 0.31743 1.11555 0.63580
 C552 C 0.36104 1.14478 0.61817
 C553 C 0.33930 1.19381 0.60021
 C554 C 0.31237 1.22071 0.62950
 C555 C 0.36227 1.18820 0.68694
 C556 C 0.38976 1.16145 0.65816
 H557 H 0.26526 1.12058 0.68452
 H558 H 0.31132 1.07579 0.63027
 H559 H 0.34973 1.20930 0.56923
 H560 H 0.30395 1.25983 0.62398
 H561 H 0.37962 1.20427 0.71514
 H562 H 0.42881 1.15464 0.66272
 C563 C 0.82041 0.29149 -0.16541
 C564 C 0.80533 0.34731 -0.16042
 C565 C 0.83242 0.37483 -0.13329
 C566 C 0.87467 0.34646 -0.11305
 C567 C 0.85134 0.30033 -0.09137
 C568 C 0.82427 0.27098 -0.11903
 C569 C 0.87583 0.29558 -0.17795
 C570 C 0.90362 0.32436 -0.15104
 H571 H 0.77981 0.36678 -0.18070
 H572 H 0.82687 0.41505 -0.12991
 H573 H 0.86124 0.28787 -0.05928
 H574 H 0.81531 0.23271 -0.11070
 H575 H 0.89343 0.27449 -0.20349
 H576 H 0.94319 0.32784 -0.15481
 C577 C 0.30643 0.80523 0.32666
 C578 C 0.31193 0.77986 0.37092
 C579 C 0.33862 0.80680 0.40038
 C580 C 0.35975 0.85626 0.38273
 C581 C 0.38857 0.84032 0.34263
 C582 C 0.36139 0.81352 0.31373
 C583 C 0.28923 0.85951 0.33610
 C584 C 0.31573 0.88514 0.36537
 H585 H 0.30414 0.74055 0.37616
 H586 H 0.34935 0.79111 0.43121
 H587 H 0.42755 0.84753 0.33812
 H588 H 0.37910 0.79777 0.28558
 H589 H 0.26323 0.87979 0.31684
 H590 H 0.30904 0.92471 0.37137
 C591 C 1.17452 1.17225 0.30697
 C592 C 1.18788 1.17893 0.35461
 C593 C 1.16038 1.15324 0.38275
 C594 C 1.12081 1.12146 0.36193
 C595 C 1.09080 1.15782 0.33405
 C596 C 1.11867 1.18356 0.30486
 C597 C 1.17559 1.11481 0.30002
 C598 C 1.14817 1.08816 0.32916
 H599 H 1.22000 1.19756 0.36585
 H600 H 1.16864 1.15298 0.41697
 H601 H 1.05087 1.15899 0.33379
 H602 H 1.10136 1.20411 0.27885
 H603 H 1.19476 1.09673 0.27359
 H604 H 1.14440 1.04766 0.32767
 C605 C 0.68724 0.68519 -0.18454
 C606 C 0.63172 0.68377 -0.19463
 C607 C 0.60482 0.65506 -0.16680
 C608 C 0.63600 0.62886 -0.13176
 C609 C 0.67495 0.59972 -0.15714
 C610 C 0.70085 0.62877 -0.18529
 C611 C 0.68967 0.69971 -0.13661
 C612 C 0.66340 0.67088 -0.10946
 H613 H 0.61504 0.70251 -0.22199
 H614 H 0.56538 0.65024 -0.17039
 H615 H 0.67773 0.55906 -0.15696
 H616 H 0.72264 0.61138 -0.21034
 H617 H 0.70644 0.73293 -0.12469
 H618 H 0.66022 0.67937 -0.07540
 C619 C 0.82583 1.17250 0.69306
 C620 C 0.81255 1.17940 0.64544
 C621 C 0.84011 1.15389 0.61725
 C622 C 0.87967 1.12203 0.63801
 C623 C 0.90964 1.15826 0.66602
 C624 C 0.88170 1.18383 0.69528
 C625 C 0.82480 1.11505 0.69984
 C626 C 0.85230 1.08856 0.67064
 H627 H 0.78046 1.19810 0.63419
 H628 H 0.83193 1.15386 0.58302
 H629 H 0.94956 1.15939 0.66634
 H630 H 0.89895 1.20418 0.72143
 H631 H 0.80566 1.09686 0.72621
 H632 H 0.85616 1.04805 0.67203
 C633 C 0.31109 0.68447 0.18449
 C634 C 0.36649 0.68227 0.19502
 C635 C 0.39335 0.65326 0.16741
 C636 C 0.36229 0.62755 0.13205
 C637 C 0.32264 0.59889 0.15706
 C638 C 0.29672 0.62827 0.18503
 C639 C 0.30939 0.69909 0.13655
 C640 C 0.33564 0.66998 0.10960
 H641 H 0.38316 0.70084 0.22247
 H642 H 0.43269 0.64796 0.17133
 H643 H 0.31933 0.55828 0.15675
 H644 H 0.27433 0.61122 0.20981
 H645 H 0.29310 0.73248 0.12449
 H646 H 0.33927 0.67847 0.07558
 C647 C 1.17484 0.82820 0.69297
 C648 C 1.11900 0.81669 0.69505
 C649 C 1.09103 0.84211 0.66570
 C650 C 1.12089 0.87841 0.63768
 C651 C 1.14809 0.91200 0.67036
 C652 C 1.17564 0.88567 0.69965
 C653 C 1.18826 0.82131 0.64537
 C654 C 1.16064 0.84667 0.61707
 H655 H 1.10173 0.79634 0.72118
 H656 H 1.05111 0.84080 0.66594
 H657 H 1.14412 0.95249 0.67168
 H658 H 1.19470 0.90398 0.72602
 H659 H 1.22049 0.80277 0.63424
 H660 H 1.16891 0.84673 0.58286
 C661 C 0.68935 0.31599 0.18446
 C662 C 0.69029 0.37289 0.19402
 C663 C 0.66362 0.40132 0.16571
 C664 C 0.63694 0.37036 0.13098
 C665 C 0.67676 0.33991 0.10909
 C666 C 0.70361 0.31224 0.13661
 C667 C 0.63361 0.30466 0.18516
 C668 C 0.60650 0.33210 0.15668
 H669 H 0.70886 0.38933 0.22153
 H670 H 0.66015 0.44175 0.16887
 H671 H 0.68515 0.34167 0.07497
 H672 H 0.73522 0.29319 0.12494
 H673 H 0.61561 0.28329 0.21024
 H674 H 0.56657 0.33076 0.15625
 C675 C 0.82583 0.82533 0.30783
 C676 C 0.82230 0.80907 0.35509
 C677 C 0.84840 0.83622 0.38325
 C678 C 0.87736 0.87848 0.36280
 C679 C 0.90880 0.85327 0.32770
 C680 C 0.88177 0.82607 0.29863
 C681 C 0.81297 0.88191 0.30862
 C682 C 0.83930 0.90948 0.33769
 H683 H 0.80535 0.77549 0.36590
 H684 H 0.85066 0.82607 0.41706
 H685 H 0.94835 0.85794 0.32496
 H686 H 0.89858 0.80787 0.27107
 H687 H 0.79018 0.90022 0.28473
 H688 H 0.83675 0.95009 0.33937
 C689 C 0.31100 0.31507 -0.18433
 C690 C 0.29677 0.31128 -0.13648
 C691 C 0.32358 0.33900 -0.10897
 C692 C 0.36337 0.36944 -0.13088
 C693 C 0.39385 0.33116 -0.15656
 C694 C 0.36673 0.30369 -0.18503
 C695 C 0.31009 0.37195 -0.19392
 C696 C 0.33671 0.40039 -0.16562
 H697 H 0.26534 0.29197 -0.12478
 H698 H 0.31531 0.34063 -0.07483
 H699 H 0.43377 0.32980 -0.15609
 H700 H 0.38474 0.28223 -0.21007
 H701 H 0.29162 0.38840 -0.22148
 H702 H 0.34022 0.44081 -0.16882
 C703 C 1.17937 0.29190 -0.16580
 C704 C 1.12407 0.29643 -0.17860
 C705 C 1.09634 0.32553 -0.15186
 C706 C 1.12522 0.34749 -0.11375
 C707 C 1.14811 0.30122 -0.09191
 C708 C 1.17511 0.27157 -0.11939
 C709 C 1.19480 0.34764 -0.16085
 C710 C 1.16779 0.37545 -0.13386
 H711 H 1.10651 0.27552 -0.20426
 H712 H 1.05683 0.32938 -0.15586
 H713 H 1.13801 0.28895 -0.05982
 H714 H 1.18383 0.23328 -0.11092
 H715 H 1.22042 0.36689 -0.18115
 H716 H 1.17356 0.41565 -0.13061
 C717 C 0.69732 0.80388 0.32954
 C718 C 0.71051 0.79812 0.37772
 C719 C 0.68171 0.82511 0.40537
 C720 C 0.64052 0.85479 0.38340
 C721 C 0.66618 0.88754 0.35051
 C722 C 0.69515 0.86201 0.32303
 C723 C 0.64208 0.78883 0.32906
 C724 C 0.61271 0.81536 0.35669
 H725 H 0.73500 0.77072 0.39090
 H726 H 0.68491 0.82152 0.44005
 H727 H 0.66040 0.92775 0.34755
 H728 H 0.71168 0.88293 0.29717
 H729 H 0.62723 0.75863 0.30958
 H730 H 0.57362 0.80794 0.35989
 C731 C 0.81476 0.70631 -0.16277
 C732 C 0.81499 0.64830 -0.17028
 C733 C 0.84296 0.62122 -0.14355
 C734 C 0.87052 0.65208 -0.11075
 C735 C 0.89936 0.69108 -0.13700
 C736 C 0.87047 0.71948 -0.16363
 C737 C 0.80244 0.71132 -0.11431
 C738 C 0.83089 0.68272 -0.08744
 H739 H 0.79944 0.62826 -0.19702
 H740 H 0.84751 0.58093 -0.14758
 H741 H 0.93866 0.69723 -0.13370
 H742 H 0.88593 0.74998 -0.18240
 H743 H 0.77814 0.73857 -0.10062
 H744 H 0.82822 0.68524 -0.05266
 C745 C 0.30704 1.19552 0.32617
 C746 C 0.31211 1.22057 0.37058
 C747 C 0.33891 1.19364 0.39995
 C748 C 0.36060 1.14455 0.38207
 C749 C 0.31700 1.11538 0.36436
 C750 C 0.29041 1.14096 0.33514
 C751 C 0.36207 1.18792 0.31327
 C752 C 0.38945 1.16114 0.34213
 H753 H 0.30379 1.25973 0.37606
 H754 H 0.34930 1.20915 0.43094
 H755 H 0.31082 1.07564 0.36991
 H756 H 0.26498 1.12049 0.31546
 H757 H 0.37951 1.20388 0.28508
 H758 H 0.42848 1.15421 0.33763
 C759 C 1.18407 0.70762 0.16318
 C760 C 1.12852 0.72135 0.16370
 C761 C 1.09960 0.69308 0.13691
 C762 C 1.12831 0.65360 0.11098
 C763 C 1.16842 0.68369 0.08786
 C764 C 1.19683 0.71217 0.11480
 C765 C 1.18314 0.64971 0.17107
 C766 C 1.15526 0.62269 0.14418
 H767 H 1.11319 0.75193 0.18247
 H768 H 1.06035 0.69949 0.13342
 H769 H 1.17135 0.68613 0.05310
 H770 H 1.22125 0.73928 0.10117
 H771 H 1.19761 0.62991 0.19843
 H772 H 1.14997 0.58256 0.14857
 C773 C 0.69344 1.19585 0.67358
 C774 C 0.68852 1.22074 0.62908
 C775 C 0.66182 1.19369 0.59972
 C776 C 0.64009 1.14467 0.61769
 C777 C 0.68363 1.11556 0.63556
 C778 C 0.71010 1.14124 0.66477
 C779 C 0.63837 1.18831 0.68635
 C780 C 0.61111 1.16142 0.65751
 H781 H 0.69692 1.25985 0.62349
 H782 H 0.65156 1.20906 0.56865
 H783 H 0.68983 1.07579 0.63013
 H784 H 0.73545 1.12079 0.68455
 H785 H 0.62081 1.20445 0.71442
 H786 H 0.57206 1.15454 0.66192
 C787 C 0.82107 0.29221 0.16601
 C788 C 0.82531 0.27189 0.11962
 C789 C 0.85260 0.30137 0.09227
 C790 C 0.87570 0.34747 0.11422
 C791 C 0.83323 0.37570 0.13426
 C792 C 0.80593 0.34802 0.16110
 C793 C 0.87641 0.29637 0.17894
 C794 C 0.90439 0.32534 0.15232
 H795 H 0.81625 0.23371 0.11107
 H796 H 0.86269 0.28910 0.06017
 H797 H 0.82763 0.41592 0.13096
 H798 H 0.78010 0.36733 0.18119
 H799 H 0.89383 0.27527 0.20458
 H800 H 0.94391 0.32897 0.15638
 C801 C 0.30739 0.80490 0.67407
 C802 C 0.31243 0.78002 0.62958
 C803 C 0.33922 0.80705 0.60027
 C804 C 0.36091 0.85609 0.61828
 C805 C 0.31730 0.88518 0.63606
 C806 C 0.29073 0.85949 0.66520
 C807 C 0.36242 0.81246 0.68698
 C808 C 0.38977 0.83934 0.65819
 H809 H 0.30394 0.74093 0.62394
 H810 H 0.34952 0.79170 0.56921
 H811 H 0.31106 0.92493 0.63058
 H812 H 0.26523 0.87990 0.68487
 H813 H 0.37986 0.79638 0.71513
 H814 H 0.42880 0.84624 0.66270
 C815 C 0.29376 1.18398 -0.16311
 C816 C 0.28332 1.12667 -0.16485
 C817 C 0.31194 1.09804 -0.13819
 C818 C 0.34844 1.12869 -0.11109
 C819 C 0.37799 1.15868 -0.14318
 C820 C 0.35063 1.18648 -0.16990
 C821 C 0.28752 1.19547 -0.11456
 C822 C 0.31635 1.16730 -0.08768
 H823 H 0.25438 1.10989 -0.18412
 H824 H 0.30751 1.05768 -0.13540
 H825 H 0.41770 1.15585 -0.14675
 H826 H 0.36985 1.20372 -0.19623
 H827 H 0.25958 1.21878 -0.10090
 H828 H 0.31322 1.16932 -0.05291
 C829 C 0.80437 0.68935 0.32439
 C830 C 0.81019 0.63349 0.30996
 C831 C 0.83733 0.60432 0.33696
 C832 C 0.85594 0.63205 0.37687
 C833 C 0.88441 0.67669 0.35977
 C834 C 0.85855 0.70532 0.33217
 C835 C 0.78169 0.68304 0.36950
 C836 C 0.80898 0.65420 0.39720
 H837 H 0.79186 0.61636 0.28271
 H838 H 0.84241 0.56436 0.33165
 H839 H 0.92329 0.68302 0.36583
 H840 H 0.87765 0.73356 0.31404
 H841 H 0.74393 0.69256 0.37675
 H842 H 0.79514 0.64303 0.42851
 C843 C 0.70609 1.18514 0.16280
 C844 C 0.64924 1.18776 0.16972
 C845 C 0.62174 1.16030 0.14286
 C846 C 0.65111 1.13044 0.11057
 C847 C 0.68324 1.16908 0.08729
 C848 C 0.71225 1.19694 0.11428
 C849 C 0.71638 1.12781 0.16422
 C850 C 0.68762 1.09949 0.13745
 H851 H 0.63013 1.20474 0.19625
 H852 H 0.58203 1.15756 0.14651
 H853 H 0.68631 1.17130 0.05252
 H854 H 0.74031 1.22014 0.10068
 H855 H 0.74530 1.11079 0.18336
 H856 H 0.69195 1.05913 0.13445
 C857 C 1.19426 0.69680 0.67214
 C858 C 1.20601 0.63982 0.67566
 C859 C 1.17854 0.60942 0.64975
 C860 C 1.14179 0.63767 0.62125
 C861 C 1.11084 0.66854 0.65194
 C862 C 1.13724 0.69837 0.67809
 C863 C 1.20098 0.70635 0.62331
 C864 C 1.17331 0.67620 0.59706
 H865 H 1.23528 0.62440 0.69537
 H866 H 1.18410 0.56909 0.64832
 H867 H 1.07103 0.66605 0.65433
 H868 H 1.11746 0.71815 0.70275
 H869 H 1.22792 0.73050 0.60907
 H870 H 1.17636 0.67741 0.56226
 C871 C 0.70656 0.82037 -0.16633
 C872 C 0.72646 0.82504 -0.11994
 C873 C 0.69689 0.85197 -0.09243
 C874 C 0.65099 0.87434 -0.11420
 C875 C 0.67184 0.90426 -0.15234
 C876 C 0.70088 0.87662 -0.17914
 C877 C 0.65229 0.80332 -0.16136
 C878 C 0.62447 0.83030 -0.13432
 H879 H 0.76400 0.81623 -0.11137
 H880 H 0.70858 0.86219 -0.06022
 H881 H 0.66715 0.94446 -0.15637
 H882 H 0.72082 0.89491 -0.20493
 H883 H 0.63425 0.77603 -0.18120
 H884 H 0.58529 0.82326 -0.13069
 C885 C 1.19427 0.30362 0.32820
 C886 C 1.20609 0.36056 0.32470
 C887 C 1.17873 0.39098 0.35064
 C888 C 1.14203 0.36277 0.37915
 C889 C 1.11095 0.33196 0.34850
 C890 C 1.13725 0.30208 0.32233
 C891 C 1.20108 0.29398 0.37703
 C892 C 1.17352 0.32418 0.40332
 H893 H 1.23538 0.37595 0.30500
 H894 H 1.18437 0.43130 0.35211
 H895 H 1.07113 0.33434 0.34627
 H896 H 1.11738 0.28210 0.29785
 H897 H 1.22786 0.26963 0.39124
 H898 H 1.17655 0.32289 0.43812
 C899 C 0.29409 0.82015 0.16522
 C900 C 0.27465 0.82494 0.11867
 C901 C 0.30472 0.85158 0.09134
 C902 C 0.35061 0.87356 0.11344
 C903 C 0.32964 0.90372 0.15134
 C904 C 0.30009 0.87644 0.17788
 C905 C 0.34825 0.80251 0.16050
 C906 C 0.37657 0.82929 0.13374
 H907 H 0.23707 0.81670 0.10985
 H908 H 0.29339 0.86196 0.05906
 H909 H 0.33425 0.94395 0.15519
 H910 H 0.27958 0.89525 0.20306
 H911 H 0.36572 0.77437 0.17989
 H912 H 0.41562 0.82158 0.13004
 C913 C 0.80661 0.30389 0.67218
 C914 C 0.86361 0.30215 0.67825
 C915 C 0.89014 0.33193 0.65216
 C916 C 0.85929 0.36288 0.62145
 C917 C 0.82773 0.32446 0.59717
 C918 C 0.79994 0.29438 0.62334
 C919 C 0.79499 0.36089 0.67573
 C920 C 0.82258 0.39123 0.64990
 H921 H 0.88329 0.28236 0.70297
 H922 H 0.92994 0.33435 0.65465
 H923 H 0.82474 0.32328 0.56237
 H924 H 0.77296 0.27034 0.60904
 H925 H 0.76573 0.37637 0.69541
 H926 H 0.81715 0.43158 0.64849
 C927 C 1.17470 1.17222 0.69262
 C928 C 1.11884 1.18350 0.69458
 C929 C 1.09109 1.15785 0.66524
 C930 C 1.12122 1.12159 0.63735
 C931 C 1.16086 1.15345 0.61674
 C932 C 1.18823 1.17906 0.64505
 C933 C 1.17577 1.11476 0.69944
 C934 C 1.14846 1.08820 0.67013
 H935 H 1.10142 1.20393 0.72060
 H936 H 1.05116 1.15899 0.66538
 H937 H 1.16923 1.15332 0.58255
 H938 H 1.22037 1.19777 0.63395
 H939 H 1.19482 1.09661 0.72589
 H940 H 1.14469 1.04770 0.67152
 C941 C 0.68754 0.68525 0.18418
 C942 C 0.70131 0.62886 0.18475
 C943 C 0.67541 0.59983 0.15658
 C944 C 0.63631 0.62894 0.13133
 C945 C 0.60516 0.65497 0.16647
 C946 C 0.63204 0.68368 0.19431
 C947 C 0.68981 0.69994 0.13627
 C948 C 0.66356 0.67110 0.10909
 H949 H 0.72328 0.61146 0.20967
 H950 H 0.67832 0.55918 0.15626
 H951 H 0.56573 0.65008 0.17007
 H952 H 0.61536 0.70239 0.22169
 H953 H 0.70639 0.73328 0.12441
 H954 H 0.66024 0.67971 0.07506
 C955 C 1.17340 0.82669 0.30698
 C956 C 1.18689 0.81995 0.35460
 C957 C 1.15934 0.84545 0.38285
 C958 C 1.11957 0.87713 0.36219
 C959 C 1.14668 0.91059 0.32940
 C960 C 1.17414 0.88416 0.30015
 C961 C 1.11760 0.81512 0.30494
 C962 C 1.08966 0.84068 0.33428
 H963 H 1.21912 0.80141 0.36577
 H964 H 1.16767 0.84562 0.41705
 H965 H 1.14272 0.95108 0.32798
 H966 H 1.19314 0.90242 0.27374
 H967 H 1.10039 0.79466 0.27884
 H968 H 1.04974 0.83937 0.33409
 C969 C 0.68895 0.31551 -0.18457
 C970 C 0.63318 0.30444 -0.18561
 C971 C 0.60600 0.33193 -0.15719
 C972 C 0.63648 0.36993 -0.13120
 C973 C 0.67599 0.33917 -0.10920
 C974 C 0.70287 0.31145 -0.13666
 C975 C 0.69020 0.37244 -0.19395
 C976 C 0.66352 0.40089 -0.16569
 H977 H 0.61525 0.28318 -0.21082
 H978 H 0.56607 0.33078 -0.15695
 H979 H 0.68411 0.34066 -0.07502
 H980 H 0.73420 0.29204 -0.12487
 H981 H 0.70895 0.38891 -0.22135
 H982 H 0.66024 0.44135 -0.16877
 C983 C 0.82548 1.17228 0.30688
 C984 C 0.88137 1.18345 0.30473
 C985 C 0.90920 1.15777 0.33399
 C986 C 0.87911 1.12160 0.36195
 C987 C 0.83961 1.15354 0.38269
 C988 C 0.81215 1.17916 0.35449
 C989 C 0.82431 1.11483 0.30004
 C990 C 0.85170 1.08823 0.32927
 H991 H 0.89871 1.20377 0.27862
 H992 H 0.94913 1.15879 0.33371
 H993 H 0.83137 1.15346 0.41691
 H994 H 0.78008 1.19792 0.36569
 H995 H 0.80519 1.09673 0.27361
 H996 H 0.85547 1.04771 0.32784
 C997 C 0.31105 0.68477 -0.18406
 C998 C 0.30980 0.62790 -0.19375
 C999 C 0.33613 0.59917 -0.16544
 C1000 C 0.36291 0.62979 -0.13056
 C1001 C 0.39369 0.66796 -0.15613
 C1002 C 0.36684 0.69573 -0.18460
 C1003 C 0.29673 0.68850 -0.13621
 C1004 C 0.32327 0.66047 -0.10869
 H1005 H 0.29129 0.61166 -0.22139
 H1006 H 0.33936 0.55874 -0.16873
 H1007 H 0.43361 0.66906 -0.15557
 H1008 H 0.38504 0.71717 -0.20953
 H1009 H 0.26548 0.70810 -0.12452
 H1010 H 0.31492 0.65880 -0.07456
 C1011 C 0.82592 0.82559 0.69248
 C1012 C 0.82250 0.80948 0.64518
 C1013 C 0.84869 0.83670 0.61715
 C1014 C 0.87762 0.87888 0.63776
 C1015 C 0.83951 0.90982 0.66286
 C1016 C 0.81309 0.88218 0.69180
 C1017 C 0.88184 0.82627 0.70182
 C1018 C 0.90896 0.85354 0.67288
 H1019 H 0.80562 0.77591 0.63426
 H1020 H 0.85106 0.82663 0.58332
 H1021 H 0.83699 0.95044 0.66126
 H1022 H 0.79023 0.90043 0.71566
 H1023 H 0.89856 0.80796 0.72937
 H1024 H 0.94850 0.85816 0.67571
 C1025 C 0.31132 0.31529 0.18454
 C1026 C 0.29721 0.31126 0.13667
 C1027 C 0.32400 0.33893 0.10914
 C1028 C 0.36366 0.36957 0.13102
 C1029 C 0.33686 0.40060 0.16562
 C1030 C 0.31028 0.37221 0.19397
 C1031 C 0.36708 0.30407 0.18541
 C1032 C 0.39419 0.33148 0.15690
 H1033 H 0.26592 0.29173 0.12495
 H1034 H 0.31583 0.34034 0.07497
 H1035 H 0.34031 0.44103 0.16874
 H1036 H 0.29182 0.38870 0.22151
 H1037 H 0.38507 0.28283 0.21060
 H1038 H 0.43412 0.33026 0.15654
   
