data_POSCAR
  _audit_creation_date              2014-09-24
  _audit_creation_method            'ToBaCCo'
  _symmetry_space_group_name_H-M    'P1'
  _symmetry_Int_Tables_number       1
  _symmetry_cell_setting            triclinic
  loop_
  _symmetry_equiv_pos_as_xyz
 x,y,z
_cell_length_a 24.7323
_cell_length_b 24.7275
_cell_length_c 24.8159
_cell_angle_alpha 89.097000
_cell_angle_beta 89.953400
_cell_angle_gamma 89.965000
loop_
  _atom_site_label
  _atom_site_type_symbol
  _atom_site_fract_x
  _atom_site_fract_y
  _atom_site_fract_z
N1 N 0.55550 0.11925 0.01724
 N2 N 0.59466 0.15168 0.03305
 N3 N 0.44179 0.11276 -0.03444
 N4 N 0.39816 0.13536 -0.05508
 N5 N 0.44178 0.11594 0.01818
 N6 N 0.39808 0.14095 0.03511
 N7 N 0.55519 0.11570 -0.03535
 N8 N 0.59396 0.14551 -0.05699
 C9 C 0.61841 0.16753 -0.01383
 C10 C 0.37145 0.15269 -0.01117
 N11 N 0.44278 -0.02508 -0.10814
 N12 N 0.40351 -0.04364 -0.13943
 N13 N 0.55574 0.02997 -0.11025
 N14 N 0.59479 0.05007 -0.14024
 N15 N 0.55745 -0.02302 -0.10835
 N16 N 0.60078 -0.04087 -0.13962
 N17 N 0.44304 0.02799 -0.10984
 N18 N 0.40456 0.04689 -0.14137
 Mn19 Mn 0.49900 0.07175 -0.07270
 C20 C 0.37978 0.00226 -0.15952
 C21 C 0.62216 0.00665 -0.15808
 N22 N 0.44415 0.03995 0.10594
 N23 N 0.40646 0.06101 0.13681
 N24 N 0.55905 -0.01032 0.10909
 N25 N 0.59800 -0.02488 0.14283
 N26 N 0.55711 0.04252 0.10406
 N27 N 0.59653 0.06613 0.13566
 N28 N 0.44463 -0.01302 0.11065
 N29 N 0.40682 -0.02930 0.14519
 Mn30 Mn 0.49961 0.07974 0.06166
 C31 C 0.38308 0.01756 0.16087
 C32 C 0.62065 0.02251 0.15858
 N33 N 0.55996 -0.10248 -0.02027
 N34 N 0.59787 -0.13656 -0.03640
 N35 N 0.44660 -0.10069 0.03378
 N36 N 0.40880 -0.13177 0.05538
 N37 N 0.44599 -0.10401 -0.01911
 N38 N 0.40777 -0.13759 -0.03471
 N39 N 0.56044 -0.09882 0.03261
 N40 N 0.59858 -0.13023 0.05349
 Mn41 Mn 0.50151 -0.06439 -0.06456
 Mn42 Mn 0.50274 -0.05629 0.07207
 Cl43 Cl 0.50072 0.00731 -0.00081
 C44 C 0.62204 -0.15331 0.01008
 C45 C 0.38474 -0.15429 0.01222
 N46 N 0.11481 0.44467 0.03482
 N47 N 0.13938 0.40400 0.05942
 N48 N 0.11872 0.55111 -0.03208
 N49 N 0.15045 0.58742 -0.05549
 N50 N 0.11798 0.55743 0.02020
 N51 N 0.14926 0.59813 0.03405
 N52 N 0.11467 0.43820 -0.01745
 N53 N 0.13910 0.39290 -0.03018
 C54 C 0.15415 0.37216 0.01822
 C55 C 0.16902 0.61661 -0.01367
 N56 N -0.01457 0.54688 -0.11490
 N57 N -0.02975 0.58673 -0.14780
 N58 N 0.03484 0.43141 -0.10006
 N59 N 0.05471 0.39266 -0.13003
 N60 N -0.01817 0.43280 -0.10308
 N61 N -0.03555 0.39453 -0.13581
 N62 N 0.03833 0.54341 -0.11348
 N63 N 0.06134 0.58258 -0.14670
 Mn64 Mn 0.07688 0.49091 -0.06597
 C65 C 0.01743 0.60811 -0.16694
 C66 C 0.01066 0.36934 -0.15171
 N67 N 0.03581 0.56757 0.10001
 N68 N 0.05665 0.60801 0.12666
 N69 N -0.01937 0.45461 0.11496
 N70 N -0.03699 0.41645 0.14892
 N71 N 0.03368 0.45540 0.11465
 N72 N 0.05353 0.41842 0.14778
 N73 N -0.01723 0.56879 0.10144
 N74 N -0.03395 0.61057 0.12961
 Mn75 Mn 0.07579 0.50644 0.06768
 C76 C 0.01287 0.63481 0.14449
 C77 C 0.00938 0.39422 0.16901
 N78 N -0.10212 0.44396 -0.02102
 N79 N -0.13477 0.40447 -0.03530
 N80 N -0.10035 0.56239 0.01891
 N81 N -0.13360 0.60173 0.03298
 N82 N -0.09973 0.55741 -0.03384
 N83 N -0.13266 0.59322 -0.05670
 N84 N -0.10220 0.44910 0.03171
 N85 N -0.13489 0.41333 0.05452
 Mn86 Mn -0.05930 0.49530 -0.06879
 Mn87 Mn -0.06041 0.50871 0.06732
 Cl88 Cl 0.00783 0.50034 -0.00001
 C89 C -0.15464 0.38559 0.01228
 C90 C -0.15323 0.62104 -0.01460
 N91 N 0.01808 0.10524 0.44538
 N92 N 0.03465 0.14048 0.40800
 N93 N -0.03461 0.09942 0.55897
 N94 N -0.05504 0.13033 0.59663
 N95 N 0.01858 0.10081 0.55969
 N96 N 0.03543 0.13328 0.59836
 N97 N -0.03512 0.10350 0.44622
 N98 N -0.05584 0.13685 0.40988
 C99 C -0.01219 0.15950 0.38595
 C100 C -0.01125 0.15104 0.62131
 N101 N -0.11481 -0.03661 0.55641
 N102 N -0.14261 -0.05854 0.59623
 N103 N -0.11687 0.02048 0.44424
 N104 N -0.14811 0.03888 0.40471
 N105 N -0.11569 -0.03246 0.44426
 N106 N -0.14552 -0.05177 0.40533
 N107 N -0.11600 0.01627 0.55827
 N108 N -0.14510 0.03202 0.59989
 Mn109 Mn -0.07601 0.06039 0.50190
 C110 C -0.16112 -0.01542 0.62312
 C111 C -0.16534 -0.00708 0.38078
 N112 N 0.10291 0.01627 0.55728
 N113 N 0.13630 0.03150 0.59602
 N114 N 0.10092 -0.03226 0.44242
 N115 N 0.13326 -0.05142 0.40515
 N116 N 0.10265 0.02093 0.44293
 N117 N 0.13689 0.03905 0.40552
 N118 N 0.10153 -0.03687 0.55512
 N119 N 0.13342 -0.05890 0.59184
 Mn120 Mn 0.06134 0.06159 0.50134
 C121 C 0.15471 -0.01611 0.61741
 C122 C 0.15528 -0.00687 0.38199
 N123 N -0.03512 -0.11282 0.44176
 N124 N -0.05597 -0.13928 0.40130
 N125 N 0.01852 -0.11848 0.55427
 N126 N 0.03590 -0.15081 0.59356
 N127 N -0.03439 -0.11713 0.55391
 N128 N -0.05473 -0.14797 0.59241
 N129 N 0.01779 -0.11371 0.44022
 N130 N 0.03464 -0.14123 0.39810
 Mn131 Mn -0.07508 -0.07483 0.49911
 Mn132 Mn 0.06016 -0.07568 0.49798
 Cl133 Cl -0.00702 -0.00675 0.50008
 C134 C -0.01221 -0.15667 0.37429
 C135 C -0.01063 -0.16854 0.61700
 C136 C -0.27548 0.26539 0.02505
 C137 C -0.25438 0.28103 -0.02538
 N138 N -0.27421 0.25847 -0.07075
 C139 C -0.31454 0.22120 -0.06807
 C140 C -0.33632 0.20595 -0.01771
 N141 N -0.31597 0.22836 0.02777
 N142 N -0.25577 0.28818 0.07038
 C143 C -0.21617 0.32626 0.06757
 C144 C -0.19548 0.34257 0.01707
 N145 N -0.21507 0.31925 -0.02824
 H146 H -0.32976 0.20410 -0.10496
 H147 H -0.20148 0.34403 0.10435
 C148 C 0.28392 0.74247 -0.02673
 C149 C 0.26316 0.72621 0.02364
 N150 N 0.28135 0.75014 0.06898
 C151 C 0.31976 0.78938 0.06634
 C152 C 0.34121 0.80532 0.01606
 N153 N 0.32248 0.78151 -0.02940
 N154 N 0.26589 0.71823 -0.07202
 C155 C 0.22827 0.67815 -0.06920
 C156 C 0.20793 0.66133 -0.01874
 N157 N 0.22583 0.68608 0.02649
 H158 H 0.33377 0.80750 0.10321
 H159 H 0.21484 0.65932 -0.10592
 C160 C 0.26175 0.24236 0.03103
 C161 C 0.23899 0.25731 -0.01886
 N162 N 0.25668 0.23395 -0.06466
 C163 C 0.29750 0.19735 -0.06305
 C164 C 0.32215 0.18454 -0.01352
 N165 N 0.30302 0.20656 0.03251
 N166 N 0.24497 0.26683 0.07663
 C167 C 0.20752 0.30695 0.07435
 C168 C 0.18700 0.32376 0.02408
 N169 N 0.20249 0.29784 -0.02117
 H170 H 0.31188 0.18016 -0.10027
 H171 H 0.19572 0.32693 0.11104
 C172 C -0.27393 0.74372 -0.02833
 C173 C -0.25336 0.72788 0.02221
 N174 N -0.27300 0.75147 0.06724
 C175 C -0.31239 0.78995 0.06421
 C176 C -0.33367 0.80584 0.01375
 N177 N -0.31358 0.78215 -0.03148
 N178 N -0.25423 0.71999 -0.07332
 C179 C -0.21516 0.68108 -0.07014
 C180 C -0.19465 0.66464 -0.01953
 N181 N -0.21446 0.68883 0.02549
 H182 H -0.32718 0.80770 0.10098
 H183 H -0.20057 0.66289 -0.10677
 C184 C -0.02533 -0.26187 0.24334
 C185 C 0.02566 -0.24394 0.26068
 N186 N 0.07099 -0.26319 0.23702
 C187 C 0.06772 -0.30044 0.19757
 C188 C 0.01682 -0.31997 0.18163
 N189 N -0.02861 -0.29970 0.20455
 N190 N -0.07066 -0.24287 0.26714
 C191 C -0.06736 -0.20746 0.30820
 C192 C -0.01634 -0.19090 0.32689
 N193 N 0.02906 -0.20916 0.30225
 H194 H 0.10464 -0.31579 0.18002
 H195 H -0.10427 -0.19344 0.32684
 C196 C -0.02616 0.26697 0.74522
 C197 C 0.02507 0.24807 0.72955
 N198 N 0.06980 0.26786 0.75385
 C199 C 0.06580 0.30588 0.79270
 C200 C 0.01466 0.32570 0.80804
 N201 N -0.03028 0.30542 0.78383
 N202 N -0.07090 0.24701 0.72106
 C203 C -0.06686 0.20936 0.68186
 C204 C -0.01563 0.19075 0.66538
 N205 N 0.02928 0.21066 0.68995
 H206 H 0.10243 0.32094 0.81096
 H207 H -0.10346 0.19451 0.66337
 C208 C -0.02739 0.28388 0.26695
 C209 C 0.02393 0.26679 0.28482
 N210 N 0.06870 0.29109 0.26434
 C211 C 0.06466 0.33172 0.22704
 C212 C 0.01339 0.34942 0.20921
 N213 N -0.03161 0.32479 0.22969
 N214 N -0.07214 0.25944 0.28744
 C215 C -0.06803 0.21903 0.32506
 C216 C -0.01674 0.20208 0.34352
 N217 N 0.02815 0.22650 0.32266
 H218 H 0.10133 0.35017 0.21164
 H219 H -0.10461 0.20060 0.34068
 C220 C -0.02188 -0.28682 0.74026
 C221 C 0.02883 -0.26923 0.72124
 N222 N 0.07446 -0.29205 0.74127
 C223 C 0.07183 -0.33214 0.77909
 C224 C 0.02097 -0.35088 0.79750
 N225 N -0.02469 -0.32723 0.77772
 N226 N -0.06754 -0.26396 0.72015
 C227 C -0.06481 -0.22475 0.68137
 C228 C -0.01411 -0.20796 0.66142
 N229 N 0.03161 -0.23043 0.68216
 H230 H 0.10928 -0.34951 0.79392
 H231 H -0.10196 -0.20752 0.66572
 C232 C 0.27388 -0.03407 0.73963
 C233 C 0.25425 0.01743 0.72459
 N234 N 0.27449 0.06177 0.74871
 C235 C 0.31377 0.05723 0.78672
 C236 C 0.33448 0.00590 0.80142
 N237 N 0.31366 -0.03880 0.77752
 N238 N 0.25337 -0.07836 0.71537
 C239 C 0.21458 -0.07353 0.67670
 C240 C 0.19538 -0.02194 0.66094
 N241 N 0.21576 0.02238 0.68563
 H242 H 0.32908 0.09367 0.80485
 H243 H 0.19931 -0.10970 0.65802
 C244 C -0.27914 -0.01699 0.25526
 C245 C -0.26074 0.03363 0.27264
 N246 N -0.28117 0.07941 0.24990
 C247 C -0.31967 0.07697 0.21104
 C248 C -0.33935 0.02621 0.19452
 N249 N -0.31801 -0.01953 0.21697
 N250 N -0.25866 -0.06283 0.27774
 C251 C -0.22103 -0.06042 0.31732
 C252 C -0.20344 -0.00982 0.33576
 N253 N -0.22353 0.03616 0.31268
 H254 H -0.33526 0.11446 0.19407
 H255 H -0.20570 -0.09778 0.33475
 C256 C 0.27634 -0.01946 0.26122
 C257 C 0.25874 0.03163 0.27817
 N258 N 0.28142 0.07672 0.25599
 C259 C 0.32090 0.07312 0.21794
 C260 C 0.33913 0.02200 0.20124
 N261 N 0.31610 -0.02317 0.22343
 N262 N 0.25361 -0.06459 0.28306
 C263 C 0.21435 -0.06113 0.32121
 C264 C 0.19685 -0.01013 0.33898
 N265 N 0.21960 0.03526 0.31674
 H266 H 0.33819 0.10991 0.20122
 H267 H 0.19730 -0.09808 0.33783
 C268 C -0.27266 -0.03030 0.75044
 C269 C -0.25603 0.02091 0.73138
 N270 N -0.27859 0.06600 0.75184
 C271 C -0.31789 0.06238 0.78981
 C272 C -0.33620 0.01104 0.80779
 N273 N -0.31236 -0.03412 0.78803
 N274 N -0.25028 -0.07540 0.72953
 C275 C -0.21273 -0.07161 0.68972
 C276 C -0.19736 -0.02038 0.66948
 N277 N -0.21903 0.02473 0.69126
 H278 H -0.33526 0.09945 0.80479
 H279 H -0.19602 -0.10830 0.67326
   
