data_POSCAR
  _audit_creation_date              2014-09-24
  _audit_creation_method            'ToBaCCo'
  _symmetry_space_group_name_H-M    'P1'
  _symmetry_Int_Tables_number       1
  _symmetry_cell_setting            triclinic
  loop_
  _symmetry_equiv_pos_as_xyz
 x,y,z
_cell_length_a 54.1984
_cell_length_b 40.5400
_cell_length_c 35.9418
_cell_angle_alpha 89.981400
_cell_angle_beta 90.026700
_cell_angle_gamma 90.034900
loop_
  _atom_site_label
  _atom_site_type_symbol
  _atom_site_fract_x
  _atom_site_fract_y
  _atom_site_fract_z
C1 C 0.23323 0.23070 0.22522
 C2 C 0.23549 0.26543 0.22069
 C3 C 0.25551 0.28200 0.23677
 C4 C 0.27321 0.26543 0.25815
 C5 C 0.27124 0.23073 0.26328
 C6 C 0.25087 0.21424 0.24735
 H7 H 0.25004 0.18759 0.24928
 H8 H 0.25654 0.30865 0.23442
 C9 C 0.77095 0.26794 0.23581
 C10 C 0.77128 0.23279 0.23710
 C11 C 0.75253 0.21589 0.25616
 C12 C 0.73324 0.23272 0.27377
 C13 C 0.73248 0.26751 0.27206
 C14 C 0.75118 0.28455 0.25312
 H15 H 0.75058 0.31128 0.25307
 H16 H 0.75278 0.18914 0.25689
 C17 C 0.72877 0.73165 0.73659
 C18 C 0.73027 0.76630 0.73305
 C19 C 0.74970 0.78330 0.75028
 C20 C 0.76749 0.76689 0.77216
 C21 C 0.76585 0.73191 0.77549
 C22 C 0.74643 0.71501 0.75800
 H23 H 0.74567 0.68832 0.75969
 H24 H 0.74990 0.80999 0.74840
 C25 C 0.26844 0.76680 0.73154
 C26 C 0.26757 0.73202 0.72967
 C27 C 0.24867 0.71502 0.74818
 C28 C 0.23046 0.73168 0.76900
 C29 C 0.23121 0.76682 0.77003
 C30 C 0.25019 0.78367 0.75147
 H31 H 0.25063 0.81042 0.75219
 H32 H 0.24880 0.68830 0.74725
 O33 O 1.02331 -0.04178 -0.00299
 O34 O 0.97578 0.00636 0.04610
 O35 O 0.97531 -0.04175 -0.00176
 O36 O 1.02386 0.00606 0.04537
 O37 O 1.02354 0.04224 -0.00047
 O38 O 0.97493 -0.00562 -0.04765
 O39 O 0.97546 0.04249 0.00022
 O40 O 1.02294 -0.00560 -0.04883
 Cu41 Cu 0.99961 -0.02138 0.02629
 Cu42 Cu 0.99920 0.02202 -0.02876
 C43 C 1.03124 -0.03196 -0.03437
 C44 C 0.96743 0.03263 0.03151
 C45 C 0.96678 -0.03189 -0.03275
 C46 C 1.03203 0.03233 0.03054
 O47 O 0.52297 0.45912 0.49642
 O48 O 0.47480 0.50780 0.54331
 O49 O 0.47500 0.45976 0.49536
 O50 O 0.52285 0.50702 0.54478
 O51 O 0.52369 0.54322 0.49898
 O52 O 0.47579 0.49591 0.44951
 O53 O 0.47563 0.54397 0.49747
 O54 O 0.52378 0.49531 0.45061
 Cu55 Cu 0.49884 0.47982 0.52458
 Cu56 Cu 0.49983 0.52324 0.46957
 C57 C 0.53157 0.46882 0.46540
 C58 C 0.46691 0.53419 0.52837
 C59 C 0.46720 0.46971 0.46397
 C60 C 0.53147 0.53322 0.53039
 O61 O -0.02406 0.54281 0.00164
 O62 O 0.02455 0.49520 0.04914
 O63 O 0.02402 0.54325 0.00117
 O64 O -0.02346 0.49501 0.05014
 O65 O -0.02370 0.45878 0.00438
 O66 O 0.02384 0.50707 -0.04464
 O67 O 0.02429 0.45903 0.00332
 O68 O -0.02423 0.50657 -0.04411
 Cu69 Cu 0.00026 0.52271 0.03010
 Cu70 Cu 0.00001 0.47925 -0.02486
 C71 C -0.03246 0.53283 -0.02940
 C72 C 0.03276 0.46895 0.03432
 C73 C 0.03213 0.53339 -0.03005
 C74 C -0.03168 0.46859 0.03572
 O75 O 0.52408 1.00693 0.45458
 O76 O 0.47611 0.95801 0.50191
 O77 O 0.47601 1.00615 0.45385
 O78 O 0.52411 0.95844 0.50201
 O79 O 0.52376 0.99425 0.54820
 O80 O 0.47557 1.04204 0.49994
 O81 O 0.47575 0.99390 0.54801
 O82 O 0.52365 1.04274 0.50075
 Cu83 Cu 0.50010 0.97881 0.47345
 Cu84 Cu 0.49962 1.02184 0.52883
 C85 C 0.53213 1.03318 0.46963
 C86 C 0.46776 0.96755 0.53314
 C87 C 0.46754 1.03226 0.46860
 C88 C 0.53218 0.96814 0.53334
 C89 C 1.18892 0.20070 0.15266
 C90 C 1.17768 0.17438 0.17119
 C91 C 1.18505 0.16636 0.20735
 C92 C 1.20344 0.18477 0.22509
 C93 C 1.21463 0.21192 0.20710
 C94 C 1.20729 0.21916 0.17028
 C95 C 1.15864 0.15557 0.15300
 C96 C 1.14268 0.13995 0.13765
 C97 C 1.12398 0.12176 0.11958
 C98 C 1.10800 0.10626 0.10411
 C99 C 1.08891 0.08775 0.08565
 C100 C 1.07974 0.05882 0.10178
 C101 C 1.06122 0.04078 0.08388
 C102 C 1.05161 0.05148 0.04955
 C103 C 1.06095 0.08062 0.03357
 C104 C 1.07948 0.09861 0.05153
 H105 H 1.18362 0.20681 0.12441
 H106 H 1.17648 0.14598 0.22197
 H107 H 1.20819 0.17840 0.25346
 H108 H 1.21629 0.23841 0.15444
 H109 H 1.08691 0.05018 0.12818
 H110 H 1.05445 0.01847 0.09693
 H111 H 1.05396 0.08953 0.00719
 H112 H 1.08644 0.12099 0.03880
 C113 C 0.68875 0.69691 0.65942
 C114 C 0.67362 0.67508 0.67919
 C115 C 0.67668 0.67151 0.71767
 C116 C 0.69471 0.68982 0.73635
 C117 C 0.70978 0.71203 0.71673
 C118 C 0.70679 0.71520 0.67804
 C119 C 0.65500 0.65635 0.65994
 C120 C 0.63943 0.64075 0.64368
 C121 C 0.62121 0.62255 0.62453
 C122 C 0.60565 0.60702 0.60814
 C123 C 0.58707 0.58849 0.58858
 C124 C 0.57751 0.55954 0.60415
 C125 C 0.55943 0.54152 0.58522
 C126 C 0.55067 0.55225 0.55039
 C127 C 0.56041 0.58139 0.53495
 C128 C 0.57849 0.59936 0.55395
 H129 H 0.68662 0.69976 0.62961
 H130 H 0.66509 0.65465 0.73323
 H131 H 0.69675 0.68698 0.76616
 H132 H 0.71847 0.73179 0.66229
 H133 H 0.58401 0.55090 0.63094
 H134 H 0.55232 0.51922 0.59789
 H135 H 0.55407 0.59032 0.50821
 H136 H 0.58577 0.62174 0.54163
 C137 C -0.19769 0.33387 0.18037
 C138 C -0.17300 0.32428 0.18313
 C139 C -0.16671 0.29646 0.20405
 C140 C -0.18507 0.27801 0.22176
 C141 C -0.21019 0.28680 0.21849
 C142 C -0.21610 0.31550 0.19803
 C143 C -0.15416 0.34297 0.16434
 C144 C -0.13852 0.35867 0.14836
 C145 C -0.12034 0.37711 0.12945
 C146 C -0.10489 0.39292 0.11320
 C147 C -0.08651 0.41188 0.09375
 C148 C -0.07773 0.40122 0.05918
 C149 C -0.05991 0.41967 0.04022
 C150 C -0.05063 0.44908 0.05565
 C151 C -0.05960 0.45958 0.09043
 C152 C -0.07741 0.44109 0.10932
 H153 H -0.20277 0.35541 0.16424
 H154 H -0.14758 0.28909 0.20686
 H155 H -0.17941 0.25744 0.23894
 H156 H -0.23509 0.32311 0.19430
 H157 H -0.08466 0.37865 0.04686
 H158 H -0.05340 0.41089 0.01353
 H159 H -0.05285 0.48209 0.10309
 H160 H -0.08409 0.44958 0.13606
 C161 C 0.30045 0.82881 0.66927
 C162 C 0.32530 0.82259 0.67722
 C163 C 0.33161 0.79838 0.70334
 C164 C 0.31312 0.78034 0.72132
 C165 C 0.28815 0.78620 0.71312
 C166 C 0.28196 0.81077 0.68719
 C167 C 0.34428 0.84110 0.65852
 C168 C 0.36004 0.85672 0.64272
 C169 C 0.37837 0.87518 0.62414
 C170 C 0.39394 0.89107 0.60826
 C171 C 0.41248 0.91021 0.58936
 C172 C 0.42164 0.89982 0.55491
 C173 C 0.43961 0.91847 0.53653
 C174 C 0.44865 0.94782 0.55243
 C175 C 0.43929 0.95805 0.58708
 C176 C 0.42133 0.93936 0.60538
 H177 H 0.29536 0.84751 0.64915
 H178 H 0.35078 0.79346 0.70980
 H179 H 0.31827 0.76180 0.74158
 H180 H 0.26282 0.81565 0.68051
 H181 H 0.41489 0.87730 0.54225
 H182 H 0.44642 0.90990 0.50992
 H183 H 0.44586 0.98050 0.60008
 H184 H 0.41436 0.94765 0.63203
 C185 C -0.17144 0.69626 -0.20046
 C186 C -0.17758 0.67421 -0.17194
 C187 C -0.20226 0.67052 -0.16116
 C188 C -0.22069 0.68907 -0.17854
 C189 C -0.21460 0.71168 -0.20672
 C190 C -0.18986 0.71480 -0.21790
 C191 C -0.15856 0.65558 -0.15351
 C192 C -0.14264 0.64008 -0.13793
 C193 C -0.12401 0.62199 -0.11958
 C194 C -0.10810 0.60656 -0.10388
 C195 C -0.08911 0.58809 -0.08517
 C196 C -0.07990 0.55913 -0.10111
 C197 C -0.06147 0.54114 -0.08298
 C198 C -0.05199 0.55191 -0.04859
 C199 C -0.06138 0.58107 -0.03279
 C200 C -0.07982 0.59902 -0.05099
 H201 H -0.15242 0.69921 -0.20912
 H202 H -0.20721 0.65348 -0.13916
 H203 H -0.23966 0.68623 -0.16963
 H204 H -0.18483 0.73175 -0.23993
 H205 H -0.08696 0.55044 -0.12755
 H206 H -0.05465 0.51881 -0.09590
 H207 H -0.05449 0.59004 -0.00637
 H208 H -0.08682 0.62142 -0.03840
 C209 C 0.33255 1.20059 0.29746
 C210 C 0.32538 1.17459 0.32060
 C211 C 0.30038 1.16680 0.32429
 C212 C 0.28256 1.18513 0.30522
 C213 C 0.28941 1.21199 0.28238
 C214 C 0.31480 1.21898 0.27836
 C215 C 0.34372 1.15584 0.34040
 C216 C 0.35916 1.14023 0.35692
 C217 C 0.37731 1.12200 0.37616
 C218 C 0.39287 1.10643 0.39246
 C219 C 0.41152 1.08777 0.41171
 C220 C 0.42094 1.05891 0.39583
 C221 C 0.43914 1.04082 0.41435
 C222 C 0.44819 1.05139 0.44907
 C223 C 0.43858 1.08044 0.46484
 C224 C 0.42036 1.09849 0.44625
 H225 H 0.35191 1.20651 0.29392
 H226 H 0.29462 1.14666 0.34211
 H227 H 0.26333 1.17895 0.30955
 H228 H 0.32114 1.23797 0.25949
 H229 H 0.41423 1.05039 0.36910
 H230 H 0.44614 1.01858 0.40144
 H231 H 0.44514 1.08925 0.49151
 H232 H 0.41321 1.12082 0.45879
 C233 C 1.19879 -0.17052 -0.16902
 C234 C 1.17410 -0.17530 -0.17915
 C235 C 1.16808 -0.19855 -0.20651
 C236 C 1.18666 -0.21717 -0.22342
 C237 C 1.21143 -0.21291 -0.21286
 C238 C 1.21738 -0.18914 -0.18587
 C239 C 1.15498 -0.15659 -0.16111
 C240 C 1.13911 -0.14093 -0.14565
 C241 C 1.12067 -0.12260 -0.12722
 C242 C 1.10502 -0.10694 -0.11127
 C243 C 1.08642 -0.08820 -0.09206
 C244 C 1.07718 -0.05914 -0.10778
 C245 C 1.05922 -0.04082 -0.08903
 C246 C 1.05026 -0.05135 -0.05424
 C247 C 1.05966 -0.08063 -0.03869
 C248 C 1.07762 -0.09890 -0.05750
 H249 H 1.20365 -0.15257 -0.14793
 H250 H 1.14904 -0.20237 -0.21463
 H251 H 1.18174 -0.23508 -0.24452
 H252 H 1.23636 -0.18543 -0.17743
 H253 H 1.08388 -0.05062 -0.13451
 H254 H 1.05238 -0.01841 -0.10178
 H255 H 1.05316 -0.08942 -0.01198
 H256 H 1.08466 -0.12136 -0.04507
 C257 C 0.69947 0.32923 0.33335
 C258 C 0.67476 0.32325 0.32421
 C259 C 0.66887 0.29922 0.29764
 C260 C 0.68764 0.28116 0.28040
 C261 C 0.71246 0.28683 0.28977
 C262 C 0.71822 0.31118 0.31618
 C263 C 0.65552 0.34182 0.34215
 C264 C 0.63961 0.35755 0.35741
 C265 C 0.62116 0.37613 0.37550
 C266 C 0.60552 0.39213 0.39105
 C267 C 0.58694 0.41134 0.40970
 C268 C 0.57835 0.44064 0.39370
 C269 C 0.56037 0.45940 0.41184
 C270 C 0.55073 0.44907 0.44629
 C271 C 0.55951 0.41958 0.46216
 C272 C 0.57749 0.40087 0.44396
 H273 H 0.70423 0.34778 0.35384
 H274 H 0.64982 0.29447 0.29027
 H275 H 0.68283 0.26277 0.25978
 H276 H 0.73724 0.31590 0.32378
 H277 H 0.58555 0.44899 0.36721
 H278 H 0.55401 0.48196 0.39886
 H279 H 0.55248 0.41093 0.48862
 H280 H 0.58403 0.37824 0.45661
 C281 C 0.81455 -0.16774 -0.20851
 C282 C 0.82198 -0.17605 -0.17247
 C283 C 0.81111 -0.20291 -0.15441
 C284 C 0.79305 -0.22164 -0.17243
 C285 C 0.78569 -0.21410 -0.20917
 C286 C 0.79649 -0.18640 -0.22663
 C287 C 0.84076 -0.15698 -0.15404
 C288 C 0.85655 -0.14105 -0.13871
 C289 C 0.87510 -0.12245 -0.12083
 C290 C 0.89098 -0.10663 -0.10557
 C291 C 0.90998 -0.08782 -0.08731
 C292 C 0.91951 -0.09847 -0.05318
 C293 C 0.93800 -0.08029 -0.03541
 C294 C 0.94721 -0.05116 -0.05160
 C295 C 0.93750 -0.04066 -0.08593
 C296 C 0.91900 -0.05889 -0.10364
 H297 H 0.82285 -0.14696 -0.22276
 H298 H 0.81646 -0.20925 -0.12625
 H299 H 0.78431 -0.24134 -0.15698
 H300 H 0.79171 -0.17979 -0.25492
 H301 H 0.91266 -0.12084 -0.04030
 H302 H 0.94507 -0.08906 -0.00902
 H303 H 0.94418 -0.01836 -0.09913
 H304 H 0.91175 -0.05044 -0.13007
 C305 C 0.32419 0.32714 0.27750
 C306 C 0.32642 0.32476 0.31621
 C307 C 0.31104 0.30328 0.33605
 C308 C 0.29361 0.28410 0.31723
 C309 C 0.29154 0.28601 0.27831
 C310 C 0.30678 0.30796 0.25863
 C311 C 0.34456 0.34421 0.33555
 C312 C 0.35983 0.36039 0.35172
 C313 C 0.37779 0.37919 0.37066
 C314 C 0.39319 0.39513 0.38687
 C315 C 0.41165 0.41399 0.40628
 C316 C 0.42029 0.40334 0.44095
 C317 C 0.43833 0.42149 0.45977
 C318 C 0.44799 0.45058 0.44412
 C319 C 0.43915 0.46112 0.40926
 C320 C 0.42109 0.44292 0.39050
 H321 H 0.33597 0.34373 0.26189
 H322 H 0.31255 0.30133 0.36603
 H323 H 0.28178 0.26769 0.33297
 H324 H 0.30540 0.30987 0.22864
 H325 H 0.41311 0.38097 0.45341
 H326 H 0.44473 0.41269 0.48654
 H327 H 0.44619 0.48340 0.39645
 H328 H 0.41454 0.45138 0.36366
 C329 C 0.18436 0.66586 -0.20872
 C330 C 0.17658 0.67545 -0.17327
 C331 C 0.18702 0.70324 -0.15647
 C332 C 0.20494 0.72165 -0.17521
 C333 C 0.21257 0.71285 -0.21145
 C334 C 0.20227 0.68419 -0.22755
 C335 C 0.15782 0.65683 -0.15424
 C336 C 0.14202 0.64125 -0.13849
 C337 C 0.12343 0.62303 -0.12019
 C338 C 0.10753 0.60750 -0.10462
 C339 C 0.08852 0.58897 -0.08602
 C340 C 0.07931 0.59978 -0.05177
 C341 C 0.06091 0.58176 -0.03359
 C342 C 0.05146 0.55265 -0.04948
 C343 C 0.06081 0.54203 -0.08398
 C344 C 0.07922 0.56009 -0.10210
 H345 H 0.17640 0.64434 -0.22199
 H346 H 0.18141 0.71061 -0.12876
 H347 H 0.21332 0.74219 -0.16073
 H348 H 0.20727 0.67657 -0.25542
 H349 H 0.08638 0.62211 -0.03908
 H350 H 0.05413 0.59061 -0.00708
 H351 H 0.05394 0.51973 -0.09696
 H352 H 0.08621 0.55151 -0.12862
 C353 C 0.68261 1.17067 0.29302
 C354 C 0.67760 1.17669 0.33062
 C355 C 0.69103 1.20078 0.34986
 C356 C 0.70932 1.21891 0.33152
 C357 C 0.71421 1.21324 0.29366
 C358 C 0.70085 1.18879 0.27465
 C359 C 0.65864 1.15816 0.34933
 C360 C 0.64270 1.14255 0.36472
 C361 C 0.62398 1.12419 0.38252
 C362 C 0.60797 1.10846 0.39760
 C363 C 0.58885 1.08964 0.41558
 C364 C 0.57926 1.10009 0.44973
 C365 C 0.56075 1.08178 0.46729
 C366 C 0.55159 1.05272 0.45088
 C367 C 0.56133 1.04246 0.41648
 C368 C 0.57984 1.06082 0.39898
 H369 H 0.67234 1.15207 0.27788
 H370 H 0.68737 1.20556 0.37899
 H371 H 0.71963 1.23736 0.34679
 H372 H 0.70435 1.18406 0.24547
 H373 H 0.58610 1.12236 0.46282
 H374 H 0.55366 1.09036 0.49373
 H375 H 0.55469 1.02023 0.40312
 H376 H 0.58714 1.05252 0.37254
 C377 C 0.20312 0.32751 0.15869
 C378 C 0.17869 0.32469 0.17094
 C379 C 0.17285 0.30279 0.19974
 C380 C 0.19134 0.28362 0.21610
 C381 C 0.21584 0.28597 0.20357
 C382 C 0.22163 0.30834 0.17500
 C383 C 0.15959 0.34409 0.15377
 C384 C 0.14358 0.36019 0.13922
 C385 C 0.12482 0.37887 0.12198
 C386 C 0.10880 0.39467 0.10705
 C387 C 0.08968 0.41333 0.08893
 C388 C 0.08059 0.44221 0.10526
 C389 C 0.06204 0.46034 0.08755
 C390 C 0.05234 0.44978 0.05323
 C391 C 0.06160 0.42069 0.03708
 C392 C 0.08014 0.40262 0.05483
 H393 H 0.20784 0.34441 0.13644
 H394 H 0.15402 0.30050 0.20951
 H395 H 0.18656 0.26690 0.23847
 H396 H 0.24042 0.31059 0.16504
 H397 H 0.08786 0.45072 0.13166
 H398 H 0.05533 0.48261 0.10072
 H399 H 0.05454 0.41188 0.01070
 H400 H 0.08704 0.38030 0.04195
 C401 C 0.69984 0.82645 0.66663
 C402 C 0.67495 0.82300 0.67630
 C403 C 0.66813 0.80098 0.70450
 C404 C 0.68611 0.78250 0.72298
 C405 C 0.71111 0.78567 0.71325
 C406 C 0.71785 0.80794 0.68507
 C407 C 0.65642 0.84220 0.65751
 C408 C 0.64085 0.85827 0.64186
 C409 C 0.62258 0.87705 0.62359
 C410 C 0.60695 0.89302 0.60797
 C411 C 0.58824 0.91197 0.58925
 C412 C 0.57897 0.94076 0.60553
 C413 C 0.56073 0.95910 0.58737
 C414 C 0.55153 0.94883 0.55263
 C415 C 0.56100 0.91986 0.53649
 C416 C 0.57922 0.90157 0.55470
 H417 H 0.70532 0.84345 0.64488
 H418 H 0.64893 0.79822 0.71231
 H419 H 0.68056 0.76586 0.74503
 H420 H 0.73702 0.81080 0.67721
 H421 H 0.58582 0.94902 0.63228
 H422 H 0.55385 0.98127 0.60054
 H423 H 0.55432 0.91127 0.50979
 H424 H 0.58627 0.87932 0.54185
 C425 C 0.82107 0.17015 0.21541
 C426 C 0.82440 0.17498 0.17718
 C427 C 0.81000 0.19828 0.15830
 C428 C 0.79249 0.21689 0.17765
 C429 C 0.78939 0.21257 0.21617
 C430 C 0.80360 0.18875 0.23481
 C431 C 0.84278 0.15627 0.15748
 C432 C 0.85833 0.14063 0.14127
 C433 C 0.87666 0.12235 0.12254
 C434 C 0.89240 0.10677 0.10668
 C435 C 0.91124 0.08818 0.08784
 C436 C 0.92030 0.09895 0.05347
 C437 C 0.93862 0.08093 0.03515
 C438 C 0.94814 0.05185 0.05102
 C439 C 0.93892 0.04125 0.08562
 C440 C 0.92060 0.05932 0.10388
 H441 H 0.83209 0.15216 0.23028
 H442 H 0.81237 0.20214 0.12869
 H443 H 0.78148 0.23483 0.16271
 H444 H 0.80143 0.18500 0.26446
 H445 H 0.91320 0.12127 0.04081
 H446 H 0.94530 0.08976 0.00856
 H447 H 0.94584 0.01898 0.09859
 H448 H 0.91372 0.05077 0.13049
 C449 C 0.31794 0.67040 0.70771
 C450 C 0.32215 0.67661 0.66992
 C451 C 0.30822 0.70065 0.65142
 C452 C 0.29025 0.71854 0.67069
 C453 C 0.28618 0.71269 0.70874
 C454 C 0.30002 0.68828 0.72701
 C455 C 0.34084 0.65839 0.65033
 C456 C 0.35662 0.64299 0.63432
 C457 C 0.37518 0.62482 0.61597
 C458 C 0.39109 0.60919 0.60057
 C459 C 0.41013 0.59041 0.58243
 C460 C 0.41988 0.60110 0.54845
 C461 C 0.43839 0.58286 0.53086
 C462 C 0.44739 0.55363 0.54706
 C463 C 0.43748 0.54311 0.58125
 C464 C 0.41897 0.56140 0.59878
 H465 H 0.32860 0.65185 0.72229
 H466 H 0.31127 0.70559 0.62215
 H467 H 0.27956 0.73698 0.65601
 H468 H 0.29716 0.68343 0.75633
 H469 H 0.41317 0.62354 0.53556
 H470 H 0.44562 0.59163 0.50457
 H471 H 0.44399 0.52073 0.59446
 H472 H 0.41156 0.55290 0.62509
   
