data_POSCAR
  _audit_creation_date              2014-09-24
  _audit_creation_method            'ToBaCCo'
  _symmetry_space_group_name_H-M    'P1'
  _symmetry_Int_Tables_number       1
  _symmetry_cell_setting            triclinic
  loop_
  _symmetry_equiv_pos_as_xyz
 x,y,z
_cell_length_a 77.0434
_cell_length_b 76.9712
_cell_length_c 44.8730
_cell_angle_alpha 89.973900
_cell_angle_beta 89.908600
_cell_angle_gamma 90.101500
loop_
  _atom_site_label
  _atom_site_type_symbol
  _atom_site_fract_x
  _atom_site_fract_y
  _atom_site_fract_z
C1 C -0.00176 0.26622 -0.01474
 C2 C -0.00110 0.26619 0.01564
 C3 C -0.01711 0.26704 0.03410
 C4 C 0.01565 0.26501 0.03190
 C5 C 0.01425 0.26721 -0.03316
 C6 C -0.01850 0.26495 -0.03101
 C7 C -0.02929 0.28041 0.03001
 C8 C -0.04460 0.28069 0.04678
 C9 C -0.04780 0.26772 0.06804
 C10 C -0.03549 0.25461 0.07272
 C11 C -0.02021 0.25432 0.05592
 C12 C 0.01989 0.27753 0.05345
 C13 C 0.03574 0.27670 0.06851
 C14 C 0.04743 0.26327 0.06235
 C15 C 0.04314 0.25055 0.04130
 C16 C 0.02729 0.25135 0.02626
 C17 C 0.01744 0.25451 -0.05495
 C18 C 0.03279 0.25489 -0.07157
 C19 C 0.04504 0.26804 -0.06677
 C20 C 0.04175 0.28100 -0.04562
 C21 C 0.02639 0.28065 -0.02900
 C22 C -0.03011 0.25121 -0.02540
 C23 C -0.04595 0.25032 -0.04046
 C24 C -0.05028 0.26303 -0.06149
 C25 C -0.03862 0.27655 -0.06761
 C26 C -0.02278 0.27747 -0.05254
 H27 H -0.02699 0.29052 0.01368
 H28 H -0.05394 0.29097 0.04295
 H29 H -0.03773 0.24449 0.08910
 H30 H -0.01094 0.24397 0.05950
 H31 H 0.01103 0.28808 0.05826
 H32 H 0.03891 0.28658 0.08482
 H33 H 0.02411 0.24137 0.01016
 H34 H 0.00821 0.24410 -0.05859
 H35 H 0.03520 0.24481 -0.08790
 H36 H 0.05112 0.29127 -0.04180
 H37 H 0.02403 0.29074 -0.01269
 H38 H -0.02690 0.24123 -0.00931
 H39 H -0.05483 0.23975 -0.03567
 H40 H -0.04182 0.28642 -0.08391
 H41 H -0.01395 0.28808 -0.05732
 H42 H 0.05206 0.24004 0.03648
 C43 C 0.50065 0.76749 0.48527
 C44 C 0.50092 0.76762 0.51566
 C45 C 0.48470 0.76632 0.53348
 C46 C 0.51747 0.76866 0.53255
 C47 C 0.51686 0.76600 0.46750
 C48 C 0.48411 0.76844 0.46835
 C49 C 0.48106 0.77881 0.55541
 C50 C 0.46574 0.77779 0.57206
 C51 C 0.45399 0.76420 0.56712
 C52 C 0.45769 0.75153 0.54567
 C53 C 0.47301 0.75252 0.52903
 C54 C 0.52951 0.78202 0.52698
 C55 C 0.54529 0.78250 0.54232
 C56 C 0.54909 0.76975 0.56358
 C57 C 0.53698 0.75665 0.56973
 C58 C 0.52122 0.75614 0.55438
 C59 C 0.52845 0.75220 0.47229
 C60 C 0.54378 0.75103 0.45572
 C61 C 0.54758 0.76353 0.43399
 C62 C 0.53593 0.77713 0.42870
 C63 C 0.52060 0.77832 0.44529
 C64 C 0.48031 0.75578 0.44676
 C65 C 0.46459 0.75624 0.43132
 C66 C 0.45255 0.76941 0.43711
 C67 C 0.45639 0.78229 0.45813
 C68 C 0.47213 0.78187 0.47357
 H69 H 0.48997 0.78947 0.55932
 H70 H 0.46302 0.78763 0.58867
 H71 H 0.44874 0.74090 0.54179
 H72 H 0.47575 0.74256 0.51266
 H73 H 0.52673 0.79198 0.51062
 H74 H 0.55455 0.79273 0.53748
 H75 H 0.51208 0.74579 0.55910
 H76 H 0.52563 0.74237 0.48890
 H77 H 0.55266 0.74041 0.45988
 H78 H 0.53873 0.78684 0.41188
 H79 H 0.51177 0.78897 0.44112
 H80 H 0.48940 0.74538 0.44230
 H81 H 0.46175 0.74623 0.41506
 H82 H 0.44719 0.79258 0.46270
 H83 H 0.47495 0.79193 0.48973
 H84 H 0.53978 0.74674 0.58617
 C85 C 1.00107 0.73313 -0.01579
 C86 C 1.00096 0.73318 0.01461
 C87 C 1.01728 0.73464 0.03205
 C88 C 0.98450 0.73221 0.03187
 C89 C 0.98477 0.73457 -0.03325
 C90 C 1.01753 0.73207 -0.03303
 C91 C 1.02106 0.72232 0.05420
 C92 C 1.03647 0.72351 0.07050
 C93 C 1.04815 0.73709 0.06498
 C94 C 1.04431 0.74958 0.04331
 C95 C 1.02891 0.74843 0.02703
 C96 C 0.97243 0.71882 0.02675
 C97 C 0.95677 0.71838 0.04251
 C98 C 0.95309 0.73119 0.06373
 C99 C 0.96524 0.74432 0.06941
 C100 C 0.98089 0.74480 0.05365
 C101 C 0.97322 0.74841 -0.02838
 C102 C 0.95784 0.74956 -0.04471
 C103 C 0.95392 0.73701 -0.06626
 C104 C 0.96552 0.72338 -0.07161
 C105 C 0.98091 0.72220 -0.05527
 C106 C 1.02124 0.74459 -0.05490
 C107 C 1.03691 0.74407 -0.07058
 C108 C 1.04900 0.73093 -0.06473
 C109 C 1.04521 0.71816 -0.04342
 C110 C 1.02952 0.71867 -0.02775
 H111 H 1.01220 0.71168 0.05855
 H112 H 1.03930 0.71380 0.08728
 H113 H 1.05322 0.76020 0.03898
 H114 H 1.02605 0.75826 0.01049
 H115 H 0.97511 0.70881 0.01045
 H116 H 0.94749 0.70812 0.03802
 H117 H 0.99005 0.75518 0.05803
 H118 H 0.97613 0.75828 -0.01194
 H119 H 0.94900 0.76021 -0.04051
 H120 H 0.96264 0.71363 -0.08830
 H121 H 0.98971 0.71152 -0.05950
 H122 H 1.01214 0.75498 -0.05939
 H123 H 1.03965 0.75402 -0.08704
 H124 H 1.05441 0.70787 -0.03874
 H125 H 1.02676 0.70870 -0.01137
 H126 H 0.96254 0.75429 0.08581
 C127 C 0.49938 0.23303 0.48373
 C128 C 0.49868 0.23290 0.51411
 C129 C 0.51466 0.23184 0.53252
 C130 C 0.48192 0.23418 0.53041
 C131 C 0.48340 0.23231 0.46527
 C132 C 0.51616 0.23420 0.46746
 C133 C 0.52674 0.21839 0.52827
 C134 C 0.54203 0.21795 0.54498
 C135 C 0.54531 0.23081 0.56631
 C136 C 0.53312 0.24398 0.57116
 C137 C 0.51784 0.24446 0.55445
 C138 C 0.47755 0.22162 0.55188
 C139 C 0.46173 0.22259 0.56709
 C140 C 0.45020 0.23619 0.56117
 C141 C 0.45461 0.24892 0.54018
 C142 C 0.47043 0.24798 0.52498
 C143 C 0.48046 0.24511 0.44355
 C144 C 0.46522 0.24493 0.42672
 C145 C 0.45282 0.23187 0.43125
 C146 C 0.45583 0.21884 0.45239
 C147 C 0.47109 0.21899 0.46922
 C148 C 0.52788 0.24782 0.47318
 C149 C 0.54374 0.24864 0.45807
 C150 C 0.54796 0.23598 0.43687
 C151 C 0.53620 0.22258 0.43066
 C152 C 0.52035 0.22174 0.44579
 H153 H 0.52438 0.20836 0.51185
 H154 H 0.55135 0.20766 0.54112
 H155 H 0.53551 0.25399 0.58763
 H156 H 0.50866 0.25488 0.55816
 H157 H 0.48629 0.21096 0.55653
 H158 H 0.45847 0.21270 0.58336
 H159 H 0.47372 0.25799 0.50895
 H160 H 0.48982 0.25544 0.44007
 H161 H 0.46302 0.25506 0.41040
 H162 H 0.44635 0.20864 0.45599
 H163 H 0.47326 0.20882 0.48547
 H164 H 0.52474 0.25776 0.48938
 H165 H 0.55270 0.25912 0.46293
 H166 H 0.53932 0.21275 0.41424
 H167 H 0.51144 0.21122 0.44092
 H168 H 0.44582 0.25956 0.53555
 C169 C 0.73316 -0.00087 -0.01174
 C170 C 0.73336 -0.00096 0.01865
 C171 C 0.73258 -0.01744 0.03590
 C172 C 0.73477 0.01540 0.03606
 C173 C 0.73200 0.01559 -0.02896
 C174 C 0.73452 -0.01718 -0.02928
 C175 C 0.71925 -0.02960 0.03099
 C176 C 0.71904 -0.04534 0.04655
 C177 C 0.73205 -0.04900 0.06742
 C178 C 0.74511 -0.03674 0.07294
 C179 C 0.74533 -0.02101 0.05736
 C180 C 0.72244 0.01920 0.05818
 C181 C 0.72345 0.03474 0.07420
 C182 C 0.73689 0.04655 0.06843
 C183 C 0.74944 0.04267 0.04685
 C184 C 0.74845 0.02713 0.03085
 C185 C 0.74444 0.01932 -0.05097
 C186 C 0.74380 0.03496 -0.06673
 C187 C 0.73062 0.04700 -0.06084
 C188 C 0.71794 0.04321 -0.03936
 C189 C 0.71857 0.02754 -0.02361
 C190 C 0.74840 -0.02871 -0.02477
 C191 C 0.74953 -0.04404 -0.04134
 C192 C 0.73692 -0.04791 -0.06280
 C193 C 0.72321 -0.03632 -0.06773
 C194 C 0.72206 -0.02100 -0.05114
 H195 H 0.70911 -0.02695 0.01493
 H196 H 0.70882 -0.05467 0.04213
 H197 H 0.75524 -0.03938 0.08904
 H198 H 0.75566 -0.01178 0.06157
 H199 H 0.71188 0.01026 0.06266
 H200 H 0.71371 0.03761 0.09091
 H201 H 0.75828 0.02427 0.01430
 H202 H 0.75485 0.01025 -0.05553
 H203 H 0.75368 0.03771 -0.08332
 H204 H 0.70763 0.05237 -0.03464
 H205 H 0.70867 0.02477 -0.00712
 H206 H 0.75833 -0.02582 -0.00846
 H207 H 0.76026 -0.05283 -0.03740
 H208 H 0.71339 -0.03912 -0.08432
 H209 H 0.71135 -0.01220 -0.05509
 H210 H 0.75994 0.05167 0.04231
 C211 C 0.23268 0.50012 0.48140
 C212 C 0.23280 0.50019 0.51180
 C213 C 0.23187 0.48382 0.52932
 C214 C 0.23423 0.51661 0.52904
 C215 C 0.23163 0.51651 0.46397
 C216 C 0.23394 0.48369 0.46415
 C217 C 0.21843 0.47175 0.52461
 C218 C 0.21798 0.45620 0.54070
 C219 C 0.23084 0.45265 0.56185
 C220 C 0.24404 0.46479 0.56709
 C221 C 0.24451 0.48032 0.55100
 C222 C 0.22195 0.52046 0.55122
 C223 C 0.22314 0.53591 0.56744
 C224 C 0.23669 0.54761 0.56181
 C225 C 0.24914 0.54373 0.54006
 C226 C 0.24798 0.52827 0.52385
 C227 C 0.24419 0.52014 0.44211
 C228 C 0.24376 0.53582 0.42643
 C229 C 0.23069 0.54797 0.43227
 C230 C 0.21787 0.54426 0.45350
 C231 C 0.21827 0.52856 0.46917
 C232 C 0.24768 0.47204 0.46903
 C233 C 0.24861 0.45650 0.45302
 C234 C 0.23593 0.45253 0.43175
 C235 C 0.22241 0.46424 0.42635
 C236 C 0.22146 0.47978 0.44238
 H237 H 0.20837 0.47435 0.50839
 H238 H 0.20768 0.44692 0.53656
 H239 H 0.25404 0.46218 0.58344
 H240 H 0.25492 0.48949 0.55506
 H241 H 0.21134 0.51158 0.55570
 H242 H 0.21347 0.53876 0.58429
 H243 H 0.25779 0.52538 0.50727
 H244 H 0.25454 0.51099 0.43767
 H245 H 0.25372 0.53856 0.41003
 H246 H 0.20766 0.55354 0.45811
 H247 H 0.20829 0.52587 0.48555
 H248 H 0.25764 0.47497 0.48529
 H249 H 0.25918 0.44757 0.45725
 H250 H 0.21256 0.46132 0.40988
 H251 H 0.21085 0.48866 0.43814
 H252 H 0.25973 0.55265 0.53564
 C253 C 0.26639 1.00021 -0.01944
 C254 C 0.26653 1.00054 0.01095
 C255 C 0.26740 1.01713 0.02780
 C256 C 0.26545 0.98432 0.02884
 C257 C 0.26750 0.98363 -0.03630
 C258 C 0.26478 1.01641 -0.03724
 C259 C 0.28065 1.02930 0.02226
 C260 C 0.28104 1.04506 0.03774
 C261 C 0.26830 1.04873 0.05913
 C262 C 0.25529 1.03649 0.06520
 C263 C 0.25488 1.02076 0.04970
 C264 C 0.27798 0.98090 0.05075
 C265 C 0.27714 0.96564 0.06758
 C266 C 0.26367 0.95372 0.06284
 C267 C 0.25097 0.95719 0.04137
 C268 C 0.25180 0.97245 0.02456
 C269 C 0.25483 0.97959 -0.05768
 C270 C 0.25533 0.96374 -0.07282
 C271 C 0.26860 0.95180 -0.06693
 C272 C 0.28153 0.95593 -0.04616
 C273 C 0.28104 0.97180 -0.03104
 C274 C 0.25091 1.02792 -0.03239
 C275 C 0.24972 1.04333 -0.04874
 C276 C 0.26227 1.04731 -0.07033
 C277 C 0.27591 1.03570 -0.07573
 C278 C 0.27710 1.02029 -0.05936
 H279 H 0.29061 1.02661 0.00585
 H280 H 0.29123 1.05437 0.03290
 H281 H 0.24536 1.03914 0.08172
 H282 H 0.24461 1.01152 0.05441
 H283 H 0.28853 0.98995 0.05453
 H284 H 0.28700 0.96310 0.08420
 H285 H 0.24180 0.97502 0.00820
 H286 H 0.24434 0.98857 -0.06216
 H287 H 0.24526 0.96074 -0.08886
 H288 H 0.29191 0.94685 -0.04145
 H289 H 0.29111 0.97480 -0.01503
 H290 H 0.24108 1.02499 -0.01585
 H291 H 0.23905 1.05214 -0.04442
 H292 H 0.28568 1.03858 -0.09242
 H293 H 0.28781 1.01151 -0.06355
 H294 H 0.24045 0.94810 0.03764
 C295 C 0.76686 0.49951 0.48946
 C296 C 0.76688 0.49955 0.51986
 C297 C 0.76810 0.51598 0.53709
 C298 C 0.76534 0.48319 0.53728
 C299 C 0.76771 0.48307 0.47216
 C300 C 0.76569 0.51588 0.47201
 C301 C 0.78166 0.52786 0.53187
 C302 C 0.78223 0.54362 0.54730
 C303 C 0.76938 0.54758 0.56833
 C304 C 0.75612 0.53560 0.57421
 C305 C 0.75552 0.51985 0.55876
 C306 C 0.77771 0.47922 0.55919
 C307 C 0.77654 0.46371 0.57529
 C308 C 0.76291 0.45209 0.56983
 C309 C 0.75034 0.45613 0.54844
 C310 C 0.75148 0.47164 0.53235
 C311 C 0.75512 0.47957 0.45036
 C312 C 0.75553 0.46398 0.43444
 C313 C 0.76860 0.45179 0.43998
 C314 C 0.78140 0.45534 0.46124
 C315 C 0.78102 0.47095 0.47716
 C316 C 0.75208 0.52768 0.47693
 C317 C 0.75118 0.54310 0.46056
 C318 C 0.76376 0.54680 0.43891
 C319 C 0.77718 0.53496 0.43353
 C320 C 0.77810 0.51954 0.44992
 H321 H 0.79166 0.52499 0.51564
 H322 H 0.79258 0.55278 0.54266
 H323 H 0.74613 0.53853 0.59045
 H324 H 0.74502 0.51083 0.56322
 H325 H 0.78842 0.48801 0.56345
 H326 H 0.78631 0.46072 0.59185
 H327 H 0.74161 0.47463 0.51599
 H328 H 0.74481 0.48878 0.44606
 H329 H 0.74558 0.46137 0.41800
 H330 H 0.79161 0.44603 0.46561
 H331 H 0.79103 0.47355 0.49348
 H332 H 0.74218 0.52493 0.49344
 H333 H 0.74069 0.55213 0.46478
 H334 H 0.78695 0.53767 0.41677
 H335 H 0.78862 0.51055 0.44565
 H336 H 0.73968 0.44728 0.54415
 O337 O 0.24802 0.22302 0.24349
 O338 O 0.24260 0.26531 0.28079
 O339 O 0.22398 0.24673 0.24412
 O340 O 0.26652 0.24146 0.28029
 O341 O 0.27921 0.25455 0.24212
 O342 O 0.23663 0.25981 0.20593
 O343 O 0.25527 0.27837 0.24260
 O344 O 0.26069 0.23611 0.20532
 Cu345 Cu 0.24399 0.24282 0.26603
 Cu346 Cu 0.25921 0.25855 0.22015
 C347 C 0.25527 0.22243 0.21810
 C348 C 0.24809 0.27897 0.26803
 C349 C 0.22313 0.25408 0.21887
 C350 C 0.28004 0.24711 0.26732
 O351 O 0.75273 0.77463 0.24577
 O352 O 0.75800 0.73220 0.28254
 O353 O 0.77670 0.75081 0.24604
 O354 O 0.73406 0.75594 0.28216
 O355 O 0.72148 0.74305 0.24379
 O356 O 0.76413 0.73791 0.20767
 O357 O 0.74542 0.71929 0.24419
 O358 O 0.74015 0.76176 0.20738
 Cu359 Cu 0.75665 0.75471 0.26797
 Cu360 Cu 0.74154 0.73921 0.22186
 C361 C 0.74556 0.77537 0.22037
 C362 C 0.75253 0.71859 0.26964
 C363 C 0.77761 0.74350 0.22076
 C364 C 0.72058 0.75029 0.26913
 O365 O 0.77959 0.24558 0.25546
 O366 O 0.73702 0.24014 0.29186
 O367 O 0.75575 0.22158 0.25531
 O368 O 0.76097 0.26402 0.29206
 O369 O 0.74828 0.27686 0.25378
 O370 O 0.74306 0.23441 0.21701
 O371 O 0.72434 0.25297 0.25356
 O372 O 0.76689 0.25841 0.21719
 Cu373 Cu 0.75960 0.24152 0.27754
 Cu374 Cu 0.74435 0.25694 0.23152
 C375 C 0.78042 0.25292 0.23018
 C376 C 0.72351 0.24571 0.27890
 C377 C 0.74860 0.22083 0.22990
 C378 C 0.75551 0.27761 0.27912
 O379 O 0.25779 0.76859 0.21918
 O380 O 0.25237 0.72583 0.25485
 O381 O 0.23393 0.74472 0.21865
 O382 O 0.27632 0.74979 0.25545
 O383 O 0.26348 0.76230 0.29396
 O384 O 0.22107 0.75723 0.25715
 O385 O 0.23953 0.73833 0.29337
 O386 O 0.24495 0.78111 0.25767
 Cu387 Cu 0.25642 0.74596 0.23318
 Cu388 Cu 0.24098 0.76099 0.27946
 C389 C 0.25220 0.78205 0.23232
 C390 C 0.24502 0.72486 0.28011
 C391 C 0.22036 0.75019 0.23162
 C392 C 0.27706 0.75691 0.28091
 O393 O 0.75546 0.26411 0.71827
 O394 O 0.75005 0.22163 0.75508
 O395 O 0.73174 0.23999 0.71794
 O396 O 0.77390 0.24561 0.75526
 O397 O 0.76081 0.25841 0.79323
 O398 O 0.71860 0.25280 0.75587
 O399 O 0.73694 0.23446 0.79301
 O400 O 0.74235 0.27690 0.75623
 Cu401 Cu 0.75412 0.24156 0.73281
 Cu402 Cu 0.73837 0.25695 0.77841
 C403 C 0.74975 0.27767 0.73100
 C404 C 0.74258 0.22088 0.78027
 C405 C 0.71805 0.24543 0.73059
 C406 C 0.77447 0.25288 0.78060
 O407 O 0.28019 0.74367 0.75783
 O408 O 0.23745 0.73818 0.79352
 O409 O 0.25629 0.71982 0.75692
 O410 O 0.26142 0.76213 0.79432
 O411 O 0.24895 0.77514 0.75600
 O412 O 0.24382 0.73286 0.71863
 O413 O 0.22498 0.75120 0.75521
 O414 O 0.26772 0.75670 0.71952
 Cu415 Cu 0.26008 0.73964 0.77955
 Cu416 Cu 0.24509 0.75530 0.73351
 C417 C 0.28116 0.75105 0.73259
 C418 C 0.22400 0.74376 0.78039
 C419 C 0.24928 0.71922 0.73138
 C420 C 0.25607 0.77578 0.78144
 O421 O 0.21934 0.24600 0.74543
 O422 O 0.26174 0.24080 0.70838
 O423 O 0.24310 0.22199 0.74485
 O424 O 0.23787 0.26467 0.70889
 O425 O 0.25078 0.27726 0.74722
 O426 O 0.25600 0.23457 0.78319
 O427 O 0.27463 0.25338 0.74674
 O428 O 0.23227 0.25859 0.78375
 Cu429 Cu 0.23923 0.24207 0.72302
 Cu430 Cu 0.25474 0.25720 0.76910
 C431 C 0.21866 0.25319 0.77085
 C432 C 0.27533 0.24631 0.72125
 C433 C 0.25036 0.22108 0.77015
 C434 C 0.24345 0.27817 0.72198
 O435 O 0.74946 0.72567 0.74438
 O436 O 0.74416 0.76821 0.78072
 O437 O 0.72554 0.74958 0.74427
 O438 O 0.76801 0.74441 0.78072
 O439 O 0.78079 0.75717 0.74232
 O440 O 0.73830 0.76234 0.70587
 O441 O 0.75693 0.78099 0.74233
 O442 O 0.76223 0.73842 0.70596
 Cu443 Cu 0.74549 0.74567 0.76637
 Cu444 Cu 0.76083 0.76100 0.72021
 C445 C 0.75677 0.72486 0.71906
 C446 C 0.74973 0.78176 0.76774
 C447 C 0.72475 0.75684 0.71893
 C448 C 0.78156 0.74999 0.76774
 C449 C 0.26837 0.06425 0.07372
 C450 C 0.26818 0.07799 0.08659
 C451 C 0.26765 0.09441 0.10189
 C452 C 0.26254 0.09512 0.13180
 C453 C 0.26153 0.11111 0.14647
 C454 C 0.26560 0.12662 0.13136
 C455 C 0.27085 0.12575 0.10134
 C456 C 0.27186 0.10974 0.08673
 C457 C 0.26411 0.14365 0.14671
 C458 C 0.25712 0.15811 0.13179
 C459 C 0.25548 0.17407 0.14636
 C460 C 0.26081 0.17581 0.17601
 C461 C 0.26784 0.16153 0.19103
 C462 C 0.26948 0.14555 0.17650
 C463 C 0.25895 0.19222 0.19102
 C464 C 0.25730 0.20600 0.20347
 H465 H 0.25917 0.08334 0.14371
 H466 H 0.25722 0.11137 0.16945
 H467 H 0.27429 0.13743 0.08922
 H468 H 0.27585 0.10933 0.06358
 H469 H 0.25265 0.15701 0.10900
 H470 H 0.24997 0.18503 0.13455
 H471 H 0.27205 0.16275 0.21396
 H472 H 0.27511 0.13472 0.18847
 C473 C 0.76952 0.56410 0.58331
 C474 C 0.76937 0.57801 0.59565
 C475 C 0.76891 0.59467 0.61015
 C476 C 0.76153 0.59628 0.63852
 C477 C 0.76059 0.61255 0.65226
 C478 C 0.76701 0.62745 0.63774
 C479 C 0.77453 0.62567 0.60930
 C480 C 0.77546 0.60938 0.59562
 C481 C 0.76563 0.64480 0.65202
 C482 C 0.76102 0.65948 0.63510
 C483 C 0.75943 0.67575 0.64864
 C484 C 0.76243 0.67759 0.67922
 C485 C 0.76711 0.66309 0.69622
 C486 C 0.76870 0.64680 0.68274
 C487 C 0.76053 0.69430 0.69321
 C488 C 0.75885 0.70827 0.70498
 H489 H 0.75634 0.58499 0.64990
 H490 H 0.75453 0.61352 0.67397
 H491 H 0.77978 0.63685 0.59772
 H492 H 0.78122 0.60828 0.57365
 H493 H 0.75834 0.65832 0.61151
 H494 H 0.75574 0.68688 0.63529
 H495 H 0.76950 0.66437 0.71991
 H496 H 0.77248 0.63579 0.69628
 C497 C 0.73225 0.93543 0.08186
 C498 C 0.73270 0.92162 0.09452
 C499 C 0.73356 0.90511 0.10951
 C500 C 0.72255 0.89151 0.10102
 C501 C 0.72373 0.87533 0.11508
 C502 C 0.73599 0.87255 0.13780
 C503 C 0.74691 0.88635 0.14630
 C504 C 0.74570 0.90251 0.13223
 C505 C 0.73752 0.85528 0.15236
 C506 C 0.75395 0.84836 0.15908
 C507 C 0.75543 0.83211 0.17275
 C508 C 0.74053 0.82255 0.17990
 C509 C 0.72412 0.82930 0.17330
 C510 C 0.72261 0.84556 0.15959
 C511 C 0.74212 0.80586 0.19409
 C512 C 0.74361 0.79191 0.20605
 H513 H 0.71315 0.89336 0.08336
 H514 H 0.71528 0.86492 0.10779
 H515 H 0.75631 0.88469 0.16398
 H516 H 0.75427 0.91295 0.13900
 H517 H 0.76568 0.85540 0.15341
 H518 H 0.76819 0.82698 0.17769
 H519 H 0.71249 0.82203 0.17882
 H520 H 0.70979 0.85062 0.15502
 C521 C 0.23074 0.43645 0.57784
 C522 C 0.23095 0.42286 0.59119
 C523 C 0.23155 0.40662 0.60705
 C524 C 0.22328 0.39192 0.59544
 C525 C 0.22432 0.37602 0.61042
 C526 C 0.23371 0.37463 0.63720
 C527 C 0.24185 0.38954 0.64880
 C528 C 0.24078 0.40542 0.63380
 C529 C 0.23523 0.35766 0.65271
 C530 C 0.25112 0.35253 0.66537
 C531 C 0.25264 0.33646 0.67964
 C532 C 0.23831 0.32532 0.68150
 C533 C 0.22243 0.33031 0.66909
 C534 C 0.22089 0.34637 0.65477
 C535 C 0.23999 0.30870 0.69590
 C536 C 0.24151 0.29477 0.70787
 H537 H 0.21617 0.39269 0.57467
 H538 H 0.21810 0.36474 0.60073
 H539 H 0.24897 0.38894 0.66956
 H540 H 0.24722 0.41673 0.64299
 H541 H 0.26246 0.36081 0.66378
 H542 H 0.26501 0.33270 0.68908
 H543 H 0.21125 0.32178 0.67045
 H544 H 0.20843 0.35003 0.64557
 C545 C 0.93764 0.26760 0.08306
 C546 C 0.92417 0.26724 0.09678
 C547 C 0.90806 0.26650 0.11298
 C548 C 0.89284 0.27297 0.10015
 C549 C 0.87707 0.27174 0.11548
 C550 C 0.87631 0.26398 0.14385
 C551 C 0.89172 0.25764 0.15666
 C552 C 0.90748 0.25890 0.14130
 C553 C 0.85949 0.26224 0.15980
 C554 C 0.85542 0.24689 0.17540
 C555 C 0.83946 0.24513 0.18997
 C556 C 0.82738 0.25867 0.18920
 C557 C 0.83133 0.27402 0.17389
 C558 C 0.84727 0.27581 0.15927
 C559 C 0.81085 0.25671 0.20383
 C560 C 0.79697 0.25501 0.21594
 H561 H 0.89313 0.27880 0.07817
 H562 H 0.86541 0.27653 0.10486
 H563 H 0.89161 0.25181 0.17862
 H564 H 0.91919 0.25386 0.15144
 H565 H 0.86444 0.23613 0.17587
 H566 H 0.83651 0.23317 0.20167
 H567 H 0.82207 0.28460 0.17321
 H568 H 0.85011 0.28786 0.14778
 C569 C 0.43809 0.76329 0.58392
 C570 C 0.42471 0.76253 0.59782
 C571 C 0.40868 0.76158 0.61421
 C572 C 0.39565 0.77388 0.60923
 C573 C 0.37994 0.77281 0.62478
 C574 C 0.37706 0.75938 0.64552
 C575 C 0.39029 0.74713 0.65047
 C576 C 0.40599 0.74823 0.63490
 C577 C 0.36026 0.75804 0.66162
 C578 C 0.35236 0.74175 0.66611
 C579 C 0.33642 0.74050 0.68089
 C580 C 0.32817 0.75548 0.69140
 C581 C 0.33595 0.77174 0.68717
 C582 C 0.35189 0.77303 0.67238
 C583 C 0.31164 0.75413 0.70619
 C584 C 0.29775 0.75283 0.71837
 H585 H 0.39758 0.78422 0.59318
 H586 H 0.36994 0.78230 0.62019
 H587 H 0.38855 0.73678 0.66656
 H588 H 0.41600 0.73866 0.63897
 H589 H 0.35835 0.73001 0.65774
 H590 H 0.33048 0.72785 0.68394
 H591 H 0.32969 0.78341 0.69527
 H592 H 0.35775 0.78572 0.66959
 C593 C 0.06414 0.73816 0.08140
 C594 C 0.07760 0.73908 0.09496
 C595 C 0.09375 0.74023 0.11090
 C596 C 0.10863 0.74646 0.09649
 C597 C 0.12434 0.74762 0.11190
 C598 C 0.12537 0.74257 0.14199
 C599 C 0.11033 0.73629 0.15627
 C600 C 0.09463 0.73515 0.14081
 C601 C 0.14205 0.74386 0.15836
 C602 C 0.14721 0.73064 0.17812
 C603 C 0.16301 0.73183 0.19330
 C604 C 0.17383 0.74623 0.18897
 C605 C 0.16878 0.75948 0.16946
 C606 C 0.15301 0.75831 0.15425
 C607 C 0.19017 0.74743 0.20433
 C608 C 0.20392 0.74859 0.21694
 H609 H 0.10810 0.75037 0.07331
 H610 H 0.13572 0.75227 0.10017
 H611 H 0.11066 0.73250 0.17950
 H612 H 0.08317 0.73035 0.15219
 H613 H 0.13916 0.71926 0.18148
 H614 H 0.16682 0.72148 0.20829
 H615 H 0.17704 0.77071 0.16601
 H616 H 0.14930 0.76881 0.13952
 C617 C 0.56133 0.23080 0.58273
 C618 C 0.57481 0.23108 0.59633
 C619 C 0.59096 0.23174 0.61237
 C620 C 0.59182 0.24016 0.63996
 C621 C 0.60762 0.24132 0.65512
 C622 C 0.62280 0.23411 0.64281
 C623 C 0.62175 0.22554 0.61517
 C624 C 0.60594 0.22438 0.60006
 C625 C 0.63968 0.23577 0.65851
 C626 C 0.65496 0.23947 0.64247
 C627 C 0.67081 0.24130 0.65727
 C628 C 0.67162 0.23945 0.68826
 C629 C 0.65652 0.23570 0.70441
 C630 C 0.64064 0.23387 0.68966
 C631 C 0.68794 0.24150 0.70342
 C632 C 0.70166 0.24328 0.71594
 H633 H 0.58032 0.24598 0.64962
 H634 H 0.60804 0.24819 0.67616
 H635 H 0.63315 0.21966 0.60530
 H636 H 0.60541 0.21783 0.57871
 H637 H 0.65461 0.24125 0.61854
 H638 H 0.68241 0.24426 0.64455
 H639 H 0.65701 0.23419 0.72841
 H640 H 0.62915 0.23082 0.70259
 C641 C 0.73035 0.06246 0.92438
 C642 C 0.73039 0.07617 0.91137
 C643 C 0.73074 0.09255 0.89594
 C644 C 0.73726 0.09351 0.86686
 C645 C 0.73814 0.10950 0.85216
 C646 C 0.73253 0.12478 0.86641
 C647 C 0.72587 0.12366 0.89557
 C648 C 0.72499 0.10764 0.91022
 C649 C 0.73391 0.14185 0.85111
 C650 C 0.73939 0.15669 0.86682
 C651 C 0.74097 0.17269 0.85233
 C652 C 0.73709 0.17410 0.82197
 C653 C 0.73155 0.15944 0.80616
 C654 C 0.72997 0.14341 0.82061
 C655 C 0.73893 0.19056 0.80706
 C656 C 0.74056 0.20438 0.79473
 H657 H 0.74183 0.08191 0.85566
 H658 H 0.74355 0.10997 0.82989
 H659 H 0.72124 0.13515 0.90699
 H660 H 0.71991 0.10705 0.93273
 H661 H 0.74275 0.15586 0.89020
 H662 H 0.74532 0.18395 0.86476
 H663 H 0.72847 0.16039 0.78267
 H664 H 0.72552 0.13228 0.80799
 C665 C 0.23073 0.56441 0.41700
 C666 C 0.23105 0.57824 0.40440
 C667 C 0.23174 0.59480 0.38954
 C668 C 0.23842 0.59601 0.36060
 C669 C 0.23965 0.61217 0.34651
 C670 C 0.23420 0.62736 0.36123
 C671 C 0.22735 0.62598 0.39023
 C672 C 0.22615 0.60981 0.40428
 C673 C 0.23591 0.64459 0.34657
 C674 C 0.22274 0.65713 0.34944
 C675 C 0.22448 0.67341 0.33589
 C676 C 0.23939 0.67736 0.31933
 C677 C 0.25253 0.66497 0.31630
 C678 C 0.25082 0.64869 0.32981
 C679 C 0.24126 0.69415 0.30555
 C680 C 0.24293 0.70819 0.29396
 H681 H 0.24278 0.58447 0.34899
 H682 H 0.24476 0.61277 0.32405
 H683 H 0.22326 0.63745 0.40228
 H684 H 0.22104 0.60903 0.42675
 H685 H 0.21103 0.65430 0.36189
 H686 H 0.21421 0.68290 0.33831
 H687 H 0.26415 0.66791 0.30362
 H688 H 0.26128 0.63941 0.32754
 C689 C 0.26868 0.93609 0.91911
 C690 C 0.26851 0.92214 0.90690
 C691 C 0.26803 0.90544 0.89250
 C692 C 0.26416 0.90425 0.86211
 C693 C 0.26320 0.88800 0.84829
 C694 C 0.26609 0.87270 0.86473
 C695 C 0.27009 0.87405 0.89523
 C696 C 0.27105 0.89031 0.90900
 C697 C 0.26468 0.85541 0.85021
 C698 C 0.25661 0.84145 0.86506
 C699 C 0.25504 0.82526 0.85122
 C700 C 0.26154 0.82277 0.82240
 C701 C 0.26966 0.83654 0.80749
 C702 C 0.27123 0.85276 0.82127
 C703 C 0.25970 0.80616 0.80803
 C704 C 0.25808 0.79227 0.79593
 H705 H 0.26171 0.91587 0.84916
 H706 H 0.25987 0.88739 0.82488
 H707 H 0.27260 0.86253 0.90840
 H708 H 0.27408 0.89109 0.93253
 H709 H 0.25123 0.84314 0.88717
 H710 H 0.24867 0.81470 0.86293
 H711 H 0.27477 0.83475 0.78519
 H712 H 0.27770 0.86317 0.80940
 C713 C 0.76865 0.43555 0.42413
 C714 C 0.76843 0.42193 0.41091
 C715 C 0.76785 0.40565 0.39519
 C716 C 0.76195 0.40509 0.36573
 C717 C 0.76087 0.38922 0.35071
 C718 C 0.76567 0.37368 0.36500
 C719 C 0.77173 0.37441 0.39455
 C720 C 0.77279 0.39030 0.40953
 C721 C 0.76412 0.35677 0.34932
 C722 C 0.77701 0.34397 0.35249
 C723 C 0.77539 0.32797 0.33802
 C724 C 0.76088 0.32454 0.32022
 C725 C 0.74802 0.33720 0.31685
 C726 C 0.74962 0.35321 0.33127
 C727 C 0.75909 0.30800 0.30564
 C728 C 0.75750 0.29412 0.29349
 H729 H 0.75811 0.41691 0.35442
 H730 H 0.75638 0.38912 0.32786
 H731 H 0.77531 0.36266 0.40628
 H732 H 0.77730 0.39058 0.43239
 H733 H 0.78842 0.34640 0.36593
 H734 H 0.78544 0.31827 0.34073
 H735 H 0.73671 0.33466 0.30321
 H736 H 0.73937 0.36270 0.32872
 C737 C 0.06116 0.26793 0.91701
 C738 C 0.07475 0.26757 0.90365
 C739 C 0.09103 0.26683 0.88797
 C740 C 0.09157 0.26126 0.85829
 C741 C 0.10746 0.26000 0.84336
 C742 C 0.12304 0.26426 0.85797
 C743 C 0.12235 0.26998 0.88773
 C744 C 0.10644 0.27125 0.90260
 C745 C 0.13997 0.26250 0.84239
 C746 C 0.15448 0.25570 0.85742
 C747 C 0.17038 0.25388 0.84271
 C748 C 0.17202 0.25882 0.81283
 C749 C 0.15769 0.26562 0.79768
 C750 C 0.14176 0.26744 0.81234
 C751 C 0.18840 0.25688 0.79777
 C752 C 0.20219 0.25520 0.78536
 H753 H 0.07972 0.25772 0.84680
 H754 H 0.10758 0.25535 0.82059
 H755 H 0.13409 0.27358 0.89945
 H756 H 0.10618 0.27558 0.92557
 H757 H 0.15346 0.25155 0.88041
 H758 H 0.18137 0.24856 0.85463
 H759 H 0.15883 0.26953 0.77456
 H760 H 0.13090 0.27290 0.80027
 C761 C 0.56350 0.76247 0.41728
 C762 C 0.57689 0.76156 0.40347
 C763 C 0.59296 0.76045 0.38719
 C764 C 0.60346 0.77517 0.38385
 C765 C 0.61921 0.77403 0.36847
 C766 C 0.62468 0.75811 0.35627
 C767 C 0.61397 0.74340 0.35963
 C768 C 0.59822 0.74458 0.37500
 C769 C 0.64156 0.75681 0.34040
 C770 C 0.65233 0.74228 0.34466
 C771 C 0.66828 0.74110 0.32993
 C772 C 0.67369 0.75439 0.31076
 C773 C 0.66306 0.76889 0.30631
 C774 C 0.64710 0.77010 0.32104
 C775 C 0.69017 0.75315 0.29582
 C776 C 0.70404 0.75195 0.28351
 H777 H 0.59953 0.78751 0.39330
 H778 H 0.62726 0.78553 0.36659
 H779 H 0.61771 0.73103 0.35016
 H780 H 0.59017 0.73311 0.37741
 H781 H 0.64855 0.73195 0.35973
 H782 H 0.67644 0.72984 0.33361
 H783 H 0.66710 0.77924 0.29146
 H784 H 0.63900 0.78135 0.31703
 C785 C 0.93796 0.73809 0.91726
 C786 C 0.92453 0.73903 0.90362
 C787 C 0.90843 0.74021 0.88756
 C788 C 0.89574 0.75208 0.89662
 C789 C 0.88005 0.75322 0.88116
 C790 C 0.87684 0.74248 0.85640
 C791 C 0.88969 0.73058 0.84747
 C792 C 0.90538 0.72947 0.86296
 C793 C 0.86014 0.74367 0.84004
 C794 C 0.85164 0.72856 0.83007
 C795 C 0.83580 0.72971 0.81503
 C796 C 0.82828 0.74595 0.80972
 C797 C 0.83668 0.76105 0.81940
 C798 C 0.85250 0.75994 0.83446
 C799 C 0.81185 0.74716 0.79466
 C800 C 0.79804 0.74834 0.78225
 H801 H 0.89795 0.76041 0.91571
 H802 H 0.87034 0.76233 0.88883
 H803 H 0.88769 0.72229 0.82829
 H804 H 0.91514 0.72027 0.85573
 H805 H 0.85708 0.71584 0.83436
 H806 H 0.82937 0.71793 0.80772
 H807 H 0.83098 0.77369 0.81535
 H808 H 0.85884 0.77181 0.84148
 C809 C 0.43686 0.23212 0.41463
 C810 C 0.42346 0.23262 0.40083
 C811 C 0.40743 0.23354 0.38451
 C812 C 0.39275 0.22458 0.39470
 C813 C 0.37704 0.22590 0.37933
 C814 C 0.37579 0.23625 0.35356
 C815 C 0.39067 0.24510 0.34337
 C816 C 0.40637 0.24374 0.35876
 C817 C 0.35900 0.23803 0.33764
 C818 C 0.35371 0.25427 0.32649
 C819 C 0.33778 0.25601 0.31190
 C820 C 0.32695 0.24157 0.30823
 C821 C 0.33211 0.22534 0.31912
 C822 C 0.34803 0.22357 0.33374
 C823 C 0.31045 0.24345 0.29360
 C824 C 0.29659 0.24510 0.28151
 H825 H 0.39341 0.21671 0.41469
 H826 H 0.36578 0.21912 0.38795
 H827 H 0.39018 0.25298 0.32339
 H828 H 0.41765 0.25072 0.35066
 H829 H 0.36174 0.26569 0.32950
 H830 H 0.33388 0.26865 0.30366
 H831 H 0.32383 0.21407 0.31635
 H832 H 0.35183 0.21086 0.34175
 C833 C 0.73797 0.93710 0.92120
 C834 C 0.73890 0.92380 0.90712
 C835 C 0.74004 0.90789 0.89042
 C836 C 0.75430 0.89689 0.89423
 C837 C 0.75540 0.88138 0.87817
 C838 C 0.74220 0.87665 0.85807
 C839 C 0.72792 0.88781 0.85438
 C840 C 0.72686 0.90333 0.87046
 C841 C 0.74331 0.86010 0.84120
 C842 C 0.72848 0.84967 0.83713
 C843 C 0.72961 0.83393 0.82169
 C844 C 0.74555 0.82844 0.81008
 C845 C 0.76034 0.83877 0.81383
 C846 C 0.75925 0.85449 0.82927
 C847 C 0.74682 0.81205 0.79481
 C848 C 0.74805 0.79826 0.78229
 H849 H 0.76454 0.90027 0.90971
 H850 H 0.76643 0.87295 0.88182
 H851 H 0.71767 0.88464 0.83882
 H852 H 0.71578 0.91178 0.86729
 H853 H 0.71608 0.85351 0.84636
 H854 H 0.71809 0.82599 0.81902
 H855 H 0.77274 0.83464 0.80489
 H856 H 0.77084 0.86234 0.83168
 C857 C 0.23674 0.43639 0.41562
 C858 C 0.23742 0.42282 0.40225
 C859 C 0.23824 0.40657 0.38646
 C860 C 0.24664 0.40563 0.35883
 C861 C 0.24758 0.38981 0.34363
 C862 C 0.24011 0.37470 0.35587
 C863 C 0.23164 0.37580 0.38361
 C864 C 0.23072 0.39164 0.39878
 C865 C 0.24129 0.35783 0.33991
 C866 C 0.22705 0.34636 0.33930
 C867 C 0.22824 0.33041 0.32451
 C868 C 0.24368 0.32572 0.31015
 C869 C 0.25790 0.33705 0.31056
 C870 C 0.25672 0.35300 0.32531
 C871 C 0.24501 0.30923 0.29522
 C872 C 0.24630 0.29541 0.28277
 H873 H 0.25246 0.41712 0.34905
 H874 H 0.25399 0.38943 0.32215
 H875 H 0.22597 0.36437 0.39380
 H876 H 0.22424 0.39221 0.42020
 H877 H 0.21492 0.34979 0.35000
 H878 H 0.21714 0.32175 0.32428
 H879 H 0.26993 0.33352 0.29961
 H880 H 0.26799 0.36143 0.32571
 C881 C 0.26132 0.06253 0.91426
 C882 C 0.26047 0.07608 0.90087
 C883 C 0.25943 0.09235 0.88518
 C884 C 0.24342 0.10071 0.88209
 C885 C 0.24241 0.11669 0.86736
 C886 C 0.25744 0.12453 0.85553
 C887 C 0.27346 0.11596 0.85860
 C888 C 0.27443 0.09999 0.87336
 C889 C 0.25640 0.14162 0.84027
 C890 C 0.26614 0.14489 0.81429
 C891 C 0.26511 0.16100 0.79997
 C892 C 0.25438 0.17404 0.81144
 C893 C 0.24468 0.17093 0.83729
 C894 C 0.24568 0.15484 0.85163
 C895 C 0.25320 0.19060 0.79666
 C896 C 0.25202 0.20450 0.78446
 H897 H 0.23172 0.09490 0.89111
 H898 H 0.22986 0.12283 0.86500
 H899 H 0.28528 0.12176 0.85007
 H900 H 0.28690 0.09365 0.87574
 H901 H 0.27435 0.13491 0.80481
 H902 H 0.27263 0.16325 0.77991
 H903 H 0.23637 0.18096 0.84640
 H904 H 0.23822 0.15282 0.87181
 C905 C 0.76295 0.56278 0.42231
 C906 C 0.76230 0.57621 0.40852
 C907 C 0.76154 0.59228 0.39220
 C908 C 0.76196 0.59219 0.36102
 C909 C 0.76120 0.60782 0.34519
 C910 C 0.76003 0.62377 0.36038
 C911 C 0.75962 0.62372 0.39174
 C912 C 0.76037 0.60807 0.40751
 C913 C 0.75913 0.64040 0.34363
 C914 C 0.76824 0.65513 0.35368
 C915 C 0.76717 0.67085 0.33819
 C916 C 0.75700 0.67207 0.31246
 C917 C 0.74797 0.65747 0.30218
 C918 C 0.74904 0.64173 0.31762
 C919 C 0.75557 0.68839 0.29699
 C920 C 0.75426 0.70214 0.28433
 H921 H 0.76291 0.58004 0.34895
 H922 H 0.76175 0.60745 0.32108
 H923 H 0.75848 0.63575 0.40406
 H924 H 0.75998 0.60829 0.43165
 H925 H 0.77631 0.65446 0.37338
 H926 H 0.77423 0.68207 0.34632
 H927 H 0.74000 0.65829 0.28236
 H928 H 0.74170 0.63069 0.30954
 C929 C 0.06450 0.73081 0.92065
 C930 C 0.07826 0.73096 0.90780
 C931 C 0.09471 0.73146 0.89258
 C932 C 0.09562 0.73725 0.86305
 C933 C 0.11166 0.73829 0.84853
 C934 C 0.12701 0.73355 0.86339
 C935 C 0.12593 0.72760 0.89299
 C936 C 0.10988 0.72658 0.90748
 C937 C 0.14411 0.73509 0.84825
 C938 C 0.15689 0.72224 0.85205
 C939 C 0.17306 0.72385 0.83809
 C940 C 0.17666 0.73831 0.82018
 C941 C 0.16402 0.75112 0.81618
 C942 C 0.14785 0.74953 0.83009
 C943 C 0.19337 0.74009 0.80610
 C944 C 0.20736 0.74171 0.79434
 H945 H 0.08396 0.74105 0.85130
 H946 H 0.11204 0.74271 0.82562
 H947 H 0.13753 0.72407 0.90516
 H948 H 0.10932 0.72216 0.93039
 H949 H 0.15433 0.71087 0.86559
 H950 H 0.18274 0.71383 0.84129
 H951 H 0.16670 0.76240 0.80245
 H952 H 0.13838 0.75976 0.82706
 C953 C 0.56441 0.23668 0.42165
 C954 C 0.57821 0.23721 0.40900
 C955 C 0.59473 0.23782 0.39401
 C956 C 0.59648 0.23097 0.36529
 C957 C 0.61253 0.23154 0.35074
 C958 C 0.62708 0.23897 0.36479
 C959 C 0.62519 0.24581 0.39370
 C960 C 0.60911 0.24524 0.40818
 C961 C 0.64414 0.23966 0.34935
 C962 C 0.65959 0.23639 0.36506
 C963 C 0.67565 0.23727 0.35059
 C964 C 0.67651 0.24142 0.32026
 C965 C 0.66122 0.24462 0.30440
 C966 C 0.64513 0.24373 0.31881
 C967 C 0.69308 0.24270 0.30556
 C968 C 0.70697 0.24396 0.29334
 H969 H 0.58544 0.22515 0.35415
 H970 H 0.61362 0.22598 0.32866
 H971 H 0.63607 0.25183 0.40494
 H972 H 0.60790 0.25062 0.43039
 H973 H 0.65924 0.23299 0.38847
 H974 H 0.68741 0.23475 0.36308
 H975 H 0.66173 0.24792 0.28094
 H976 H 0.63350 0.24654 0.30619
 C977 C 0.93329 0.26227 0.92337
 C978 C 0.91948 0.26168 0.91081
 C979 C 0.90295 0.26099 0.89593
 C980 C 0.89849 0.27379 0.87518
 C981 C 0.88240 0.27316 0.86082
 C982 C 0.87055 0.25970 0.86707
 C983 C 0.87518 0.24689 0.88797
 C984 C 0.89127 0.24754 0.90229
 C985 C 0.85346 0.25900 0.85182
 C986 C 0.83840 0.25422 0.86763
 C987 C 0.82235 0.25335 0.85319
 C988 C 0.82113 0.25724 0.82281
 C989 C 0.83601 0.26208 0.80691
 C990 C 0.85208 0.26298 0.82130
 C991 C 0.80466 0.25596 0.80786
 C992 C 0.79086 0.25468 0.79539
 H993 H 0.90741 0.28429 0.87017
 H994 H 0.87914 0.28333 0.84512
 H995 H 0.86645 0.23624 0.89296
 H996 H 0.89462 0.23754 0.91826
 H997 H 0.83899 0.25131 0.89121
 H998 H 0.81091 0.24960 0.86572
 H999 H 0.83523 0.26505 0.78335
 H1000 H 0.86346 0.26648 0.80844
 C1001 C 0.43615 0.76948 0.42182
 C1002 C 0.42239 0.76926 0.40906
 C1003 C 0.40596 0.76867 0.39388
 C1004 C 0.40488 0.76153 0.36528
 C1005 C 0.38885 0.76045 0.35082
 C1006 C 0.37367 0.76652 0.36483
 C1007 C 0.37492 0.77382 0.39350
 C1008 C 0.39097 0.77486 0.40792
 C1009 C 0.35658 0.76501 0.34976
 C1010 C 0.34437 0.77855 0.35154
 C1011 C 0.32825 0.77702 0.33751
 C1012 C 0.32411 0.76196 0.32157
 C1013 C 0.33616 0.74843 0.31964
 C1014 C 0.35229 0.74993 0.33362
 C1015 C 0.30748 0.76031 0.30726
 C1016 C 0.29357 0.75881 0.29525
 H1017 H 0.41641 0.75671 0.35420
 H1018 H 0.38836 0.75499 0.32861
 H1019 H 0.36345 0.77840 0.40501
 H1020 H 0.39165 0.78035 0.43012
 H1021 H 0.34737 0.79040 0.36349
 H1022 H 0.31902 0.78759 0.33909
 H1023 H 0.33307 0.73668 0.30744
 H1024 H 0.36131 0.73919 0.33219
 C1025 C 0.26292 0.93791 0.07991
 C1026 C 0.26229 0.92463 0.09411
 C1027 C 0.26153 0.90872 0.11091
 C1028 C 0.24949 0.90685 0.13407
 C1029 C 0.24858 0.89131 0.15013
 C1030 C 0.25974 0.87741 0.14323
 C1031 C 0.27187 0.87946 0.12000
 C1032 C 0.27274 0.89502 0.10395
 C1033 C 0.25858 0.86078 0.15990
 C1034 C 0.27371 0.85169 0.16791
 C1035 C 0.27257 0.83587 0.18316
 C1036 C 0.25632 0.82895 0.19059
 C1037 C 0.24121 0.83794 0.18286
 C1038 C 0.24232 0.85375 0.16764
 C1039 C 0.25509 0.81249 0.20566
 C1040 C 0.25388 0.79863 0.21800
 H1041 H 0.24078 0.91740 0.13969
 H1042 H 0.23927 0.89021 0.16813
 H1043 H 0.28046 0.86894 0.11388
 H1044 H 0.28207 0.89631 0.08600
 H1045 H 0.28642 0.85687 0.16260
 H1046 H 0.28435 0.82903 0.18907
 H1047 H 0.22856 0.83266 0.18838
 H1048 H 0.23044 0.86031 0.16143
 C1049 C 0.76190 0.43595 0.58595
 C1050 C 0.76106 0.42236 0.59926
 C1051 C 0.76003 0.40607 0.61493
 C1052 C 0.77387 0.39434 0.61366
 C1053 C 0.77279 0.37841 0.62853
 C1054 C 0.75780 0.37398 0.64485
 C1055 C 0.74399 0.38590 0.64609
 C1056 C 0.74511 0.40183 0.63122
 C1057 C 0.75653 0.35695 0.66031
 C1058 C 0.74090 0.34745 0.65994
 C1059 C 0.73972 0.33139 0.67435
 C1060 C 0.75410 0.32459 0.68933
 C1061 C 0.76970 0.33393 0.68986
 C1062 C 0.77092 0.35000 0.67544
 C1063 C 0.75280 0.30804 0.70413
 C1064 C 0.75152 0.29417 0.71644
 H1065 H 0.78546 0.39747 0.60103
 H1066 H 0.78354 0.36943 0.62683
 H1067 H 0.73238 0.38297 0.65878
 H1068 H 0.73433 0.41083 0.63240
 H1069 H 0.72967 0.35233 0.64814
 H1070 H 0.72759 0.32425 0.67373
 H1071 H 0.78090 0.32881 0.70147
 H1072 H 0.78306 0.35708 0.67643
 C1073 C 0.73771 0.06275 0.08435
 C1074 C 0.73841 0.07642 0.09741
 C1075 C 0.73928 0.09283 0.11269
 C1076 C 0.73738 0.09354 0.14369
 C1077 C 0.73831 0.10950 0.15850
 C1078 C 0.74117 0.12496 0.14245
 C1079 C 0.74301 0.12409 0.11128
 C1080 C 0.74207 0.10813 0.09653
 C1081 C 0.74232 0.14192 0.15813
 C1082 C 0.75476 0.15435 0.14947
 C1083 C 0.75584 0.17031 0.16419
 C1084 C 0.74453 0.17408 0.18773
 C1085 C 0.73212 0.16181 0.19654
 C1086 C 0.73101 0.14582 0.18186
 C1087 C 0.74574 0.19053 0.20282
 C1088 C 0.74693 0.20435 0.21528
 H1089 H 0.73526 0.08176 0.15642
 H1090 H 0.73706 0.10972 0.18253
 H1091 H 0.74499 0.13578 0.09826
 H1092 H 0.74350 0.10773 0.07252
 H1093 H 0.76380 0.15164 0.13158
 H1094 H 0.76554 0.17970 0.15726
 H1095 H 0.72327 0.16461 0.21469
 H1096 H 0.72117 0.13661 0.18880
 C1097 C 0.23779 0.56361 0.57828
 C1098 C 0.23871 0.57705 0.59198
 C1099 C 0.23982 0.59313 0.60820
 C1100 C 0.23449 0.59390 0.63801
 C1101 C 0.23556 0.60954 0.65375
 C1102 C 0.24201 0.62463 0.63986
 C1103 C 0.24731 0.62372 0.60987
 C1104 C 0.24621 0.60807 0.59418
 C1105 C 0.24322 0.64125 0.65655
 C1106 C 0.25772 0.65220 0.65294
 C1107 C 0.25882 0.66789 0.66848
 C1108 C 0.24546 0.67288 0.68782
 C1109 C 0.23100 0.66207 0.69164
 C1110 C 0.22988 0.64635 0.67613
 C1111 C 0.24659 0.68914 0.70352
 C1112 C 0.24771 0.70283 0.71641
 H1113 H 0.22955 0.58240 0.64910
 H1114 H 0.23158 0.60977 0.67690
 H1115 H 0.25210 0.63515 0.59844
 H1116 H 0.25032 0.60764 0.57108
 H1117 H 0.26831 0.64853 0.63836
 H1118 H 0.27009 0.67614 0.66541
 H1119 H 0.22056 0.66582 0.70649
 H1120 H 0.21846 0.63831 0.67911
 C1121 C 0.93676 0.73111 0.07932
 C1122 C 0.92305 0.73133 0.09230
 C1123 C 0.90667 0.73191 0.10771
 C1124 C 0.90536 0.74050 0.13509
 C1125 C 0.88936 0.74155 0.14970
 C1126 C 0.87443 0.73401 0.13708
 C1127 C 0.87592 0.72526 0.10966
 C1128 C 0.89194 0.72424 0.09508
 C1129 C 0.85734 0.73549 0.15224
 C1130 C 0.84576 0.72133 0.15288
 C1131 C 0.82962 0.72284 0.16693
 C1132 C 0.82483 0.73849 0.18048
 C1133 C 0.83626 0.75263 0.18000
 C1134 C 0.85241 0.75116 0.16599
 C1135 C 0.80816 0.74011 0.19473
 C1136 C 0.79421 0.74159 0.20663
 H1137 H 0.91669 0.74647 0.14508
 H1138 H 0.88868 0.74817 0.17096
 H1139 H 0.86463 0.71952 0.09919
 H1140 H 0.89279 0.71762 0.07382
 H1141 H 0.84926 0.70905 0.14280
 H1142 H 0.82088 0.71179 0.16723
 H1143 H 0.83266 0.76483 0.19033
 H1144 H 0.86092 0.76236 0.16551
 C1145 C 0.43381 0.23703 0.57654
 C1146 C 0.42006 0.23771 0.58932
 C1147 C 0.40361 0.23852 0.60450
 C1148 C 0.39164 0.25148 0.59715
 C1149 C 0.37564 0.25228 0.61184
 C1150 C 0.37140 0.24010 0.63411
 C1151 C 0.38352 0.22710 0.64131
 C1152 C 0.39951 0.22634 0.62660
 C1153 C 0.35442 0.24098 0.64977
 C1154 C 0.34508 0.22572 0.65640
 C1155 C 0.32906 0.22660 0.67101
 C1156 C 0.32217 0.24271 0.67922
 C1157 C 0.33137 0.25796 0.67279
 C1158 C 0.34738 0.25711 0.65817
 C1159 C 0.30564 0.24368 0.69411
 C1160 C 0.29179 0.24473 0.70654
 H1161 H 0.39465 0.26094 0.58001
 H1162 H 0.36651 0.26229 0.60551
 H1163 H 0.38073 0.21768 0.65859
 H1164 H 0.40870 0.21627 0.63251
 H1165 H 0.35005 0.21313 0.64989
 H1166 H 0.32202 0.21472 0.67580
 H1167 H 0.32618 0.27050 0.67912
 H1168 H 0.35435 0.26907 0.65376
 C1169 C 0.06388 0.26261 0.07746
 C1170 C 0.07770 0.26211 0.09000
 C1171 C 0.09424 0.26155 0.10485
 C1172 C 0.09577 0.26739 0.13426
 C1173 C 0.11184 0.26686 0.14867
 C1174 C 0.12661 0.26049 0.13380
 C1175 C 0.12493 0.25467 0.10422
 C1176 C 0.10885 0.25519 0.08987
 C1177 C 0.14369 0.25984 0.14911
 C1178 C 0.15902 0.26424 0.13375
 C1179 C 0.17511 0.26341 0.14807
 C1180 C 0.17609 0.25818 0.17789
 C1181 C 0.16091 0.25386 0.19341
 C1182 C 0.14481 0.25470 0.17914
 C1183 C 0.19269 0.25697 0.19242
 C1184 C 0.20659 0.25577 0.20453
 H1185 H 0.08455 0.27239 0.14603
 H1186 H 0.11275 0.27164 0.17130
 H1187 H 0.13600 0.24947 0.09231
 H1188 H 0.10780 0.25060 0.06712
 H1189 H 0.15857 0.26847 0.11075
 H1190 H 0.18677 0.26681 0.13586
 H1191 H 0.16153 0.24973 0.21646
 H1192 H 0.13328 0.25102 0.19145
 C1193 C 0.56555 0.76986 0.57871
 C1194 C 0.57936 0.76967 0.59128
 C1195 C 0.59587 0.76915 0.60619
 C1196 C 0.61126 0.77021 0.58967
 C1197 C 0.62732 0.76918 0.60402
 C1198 C 0.62819 0.76705 0.63514
 C1199 C 0.61264 0.76613 0.65156
 C1200 C 0.59660 0.76717 0.63716
 C1201 C 0.64524 0.76553 0.65032
 C1202 C 0.64761 0.75342 0.67346
 C1203 C 0.66372 0.75181 0.68746
 C1204 C 0.67767 0.76227 0.67857
 C1205 C 0.67544 0.77440 0.65566
 C1206 C 0.65934 0.77603 0.64161
 C1207 C 0.69429 0.76045 0.69282
 C1208 C 0.70821 0.75884 0.70474
 H1209 H 0.61085 0.77166 0.56566
 H1210 H 0.63905 0.76971 0.59072
 H1211 H 0.61288 0.76472 0.67557
 H1212 H 0.58476 0.76635 0.65016
 H1213 H 0.63709 0.74499 0.68039
 H1214 H 0.66533 0.74233 0.70510
 H1215 H 0.68615 0.78260 0.64866
 H1216 H 0.65787 0.78562 0.62413
   
