data_POSCAR
  _audit_creation_date              2014-09-24
  _audit_creation_method            'ToBaCCo'
  _symmetry_space_group_name_H-M    'P1'
  _symmetry_Int_Tables_number       1
  _symmetry_cell_setting            triclinic
  loop_
  _symmetry_equiv_pos_as_xyz
 x,y,z
_cell_length_a 45.8601
_cell_length_b 45.9031
_cell_length_c 45.7767
_cell_angle_alpha 90.003800
_cell_angle_beta 89.995800
_cell_angle_gamma 89.904000
loop_
  _atom_site_label
  _atom_site_type_symbol
  _atom_site_fract_x
  _atom_site_fract_y
  _atom_site_fract_z
C1 C 0.15645 0.17671 0.19954
 C2 C 0.15648 0.19832 0.17789
 C3 C 0.17787 0.19829 0.15651
 C4 C 0.19948 0.17665 0.15652
 C5 C 0.19946 0.15528 0.17792
 C6 C 0.17782 0.15531 0.19956
 C7 C 0.13864 0.17165 0.22324
 N8 N 0.14881 0.14779 0.23739
 C9 C 0.17268 0.13756 0.22327
 C10 C 0.22314 0.13748 0.17281
 N11 N 0.23727 0.14766 0.14892
 C12 C 0.22317 0.17152 0.13872
 C13 C 0.17279 0.22196 0.13873
 N14 N 0.14893 0.23611 0.14890
 C15 C 0.13873 0.22200 0.17277
 H16 H 0.11988 0.18443 0.22981
 H17 H 0.18543 0.11880 0.22988
 H18 H 0.22971 0.11873 0.18559
 H19 H 0.22976 0.18427 0.11995
 H20 H 0.18555 0.22854 0.11996
 H21 H 0.11996 0.22863 0.18552
 C22 C -0.15627 0.82329 0.19945
 C23 C -0.15630 0.80168 0.17780
 C24 C -0.17770 0.80169 0.15643
 C25 C -0.19932 0.82332 0.15644
 C26 C -0.19931 0.84469 0.17784
 C27 C -0.17765 0.84468 0.19947
 C28 C -0.13846 0.82836 0.22313
 N29 N -0.14863 0.85222 0.23728
 C30 C -0.17252 0.86244 0.22318
 C31 C -0.22300 0.86247 0.17274
 N32 N -0.23714 0.85228 0.14886
 C33 C -0.22302 0.82842 0.13866
 C34 C -0.17261 0.77802 0.13865
 N35 N -0.14875 0.76387 0.14882
 C36 C -0.13854 0.77800 0.17268
 H37 H -0.11970 0.81558 0.22969
 H38 H -0.18527 0.88120 0.22979
 H39 H -0.22959 0.88123 0.18552
 H40 H -0.22961 0.81566 0.11989
 H41 H -0.18537 0.77142 0.11988
 H42 H -0.11977 0.77138 0.18542
 C43 C -0.15700 0.17699 -0.19938
 C44 C -0.15706 0.19865 -0.17779
 C45 C -0.17846 0.19874 -0.15641
 C46 C -0.20006 0.17715 -0.15637
 C47 C -0.20000 0.15572 -0.17771
 C48 C -0.17835 0.15564 -0.19935
 C49 C -0.13918 0.17182 -0.22305
 N50 N -0.14931 0.14794 -0.23714
 C51 C -0.17318 0.13781 -0.22301
 C52 C -0.22365 0.13798 -0.17257
 N53 N -0.23781 0.14824 -0.14872
 C54 C -0.22374 0.17211 -0.13857
 C55 C -0.17337 0.22244 -0.13868
 N56 N -0.14952 0.23649 -0.14889
 C57 C -0.13932 0.22229 -0.17273
 H58 H -0.12044 0.18455 -0.22965
 H59 H -0.18590 0.11905 -0.22957
 H60 H -0.23019 0.11920 -0.18530
 H61 H -0.23036 0.18491 -0.11982
 H62 H -0.18613 0.22910 -0.11991
 H63 H -0.12055 0.22882 -0.18548
 C64 C 0.15694 0.82297 -0.19928
 C65 C 0.15697 0.80133 -0.17765
 C66 C 0.17835 0.80127 -0.15626
 C67 C 0.19997 0.82284 -0.15624
 C68 C 0.19995 0.84423 -0.17762
 C69 C 0.17831 0.84429 -0.19927
 C70 C 0.13915 0.82810 -0.22297
 N71 N 0.14931 0.85194 -0.23709
 C72 C 0.17318 0.86209 -0.22296
 C73 C 0.22361 0.86196 -0.17251
 N74 N 0.23775 0.85172 -0.14863
 C75 C 0.22366 0.82788 -0.13845
 C76 C 0.17326 0.77759 -0.13851
 N77 N 0.14940 0.76353 -0.14872
 C78 C 0.13922 0.77770 -0.17257
 H79 H 0.12040 0.81538 -0.22956
 H80 H 0.18592 0.88082 -0.22955
 H81 H 0.23017 0.88071 -0.18526
 H82 H 0.23026 0.81510 -0.11968
 H83 H 0.18601 0.77093 -0.11975
 H84 H 0.12046 0.77116 -0.18534
 C85 C 0.17450 1.15437 0.80264
 C86 C 0.19613 1.15438 0.82428
 C87 C 0.19617 1.17579 0.84562
 C88 C 0.17457 1.19744 0.84559
 C89 C 0.15318 1.19744 0.82419
 C90 C 0.15314 1.17578 0.80260
 C91 C 0.16949 1.13666 0.77889
 N92 N 0.14569 1.14691 0.76468
 C93 C 0.13546 1.17076 0.77881
 C94 C 0.13553 1.22124 0.82916
 N95 N 0.14582 1.23542 0.85296
 C96 C 0.16962 1.22124 0.86324
 C97 C 0.21996 1.17078 0.86330
 N98 N 0.23411 1.14695 0.85309
 C99 C 0.21989 1.13670 0.82930
 H100 H 0.18231 1.11794 0.77228
 H101 H 0.11678 1.18360 0.77211
 H102 H 0.11684 1.22790 0.81631
 H103 H 0.18247 1.22790 0.88193
 H104 H 0.22667 1.18361 0.88197
 H105 H 0.22653 1.11798 0.81651
 C106 C 0.82582 0.84565 0.80282
 C107 C 0.80417 0.84564 0.82444
 C108 C 0.80411 0.82423 0.84578
 C109 C 0.82571 0.80258 0.84576
 C110 C 0.84713 0.80259 0.82439
 C111 C 0.84719 0.82425 0.80280
 C112 C 0.83084 0.86335 0.77906
 N113 N 0.85465 0.85309 0.76487
 C114 C 0.86488 0.82926 0.77901
 C115 C 0.86476 0.77878 0.82936
 N116 N 0.85444 0.76458 0.85314
 C117 C 0.83064 0.77877 0.86340
 C118 C 0.78029 0.82923 0.86343
 N119 N 0.76615 0.85305 0.85321
 C120 C 0.78040 0.86331 0.82944
 H121 H 0.81801 0.88204 0.77243
 H122 H 0.88356 0.81641 0.77232
 H123 H 0.88347 0.77212 0.81652
 H124 H 0.81775 0.77210 0.88207
 H125 H 0.77356 0.81639 0.88208
 H126 H 0.77376 0.88202 0.81664
 C127 C 0.17487 0.84618 1.19725
 C128 C 0.19650 0.84614 1.17560
 C129 C 0.19652 0.82478 1.15421
 C130 C 0.17492 0.80320 1.15421
 C131 C 0.15354 0.80323 1.17560
 C132 C 0.15351 0.82484 1.19725
 C133 C 0.16987 0.86384 1.22105
 N134 N 0.14608 0.85363 1.23525
 C135 C 0.13584 0.82986 1.22107
 C136 C 0.13592 0.77949 1.17060
 N137 N 0.14619 0.76530 1.14678
 C138 C 0.16996 0.77945 1.13653
 C139 C 0.22030 0.82972 1.13653
 N140 N 0.23447 0.85347 1.14678
 C141 C 0.22027 0.86373 1.17060
 H142 H 0.18270 0.88249 1.22771
 H143 H 0.11717 0.81705 1.22774
 H144 H 0.11725 0.77283 1.18343
 H145 H 0.18280 0.77277 1.11783
 H146 H 0.22700 0.81690 1.11783
 H147 H 0.22694 0.88239 1.18343
 C148 C 0.82429 1.15455 1.19823
 C149 C 0.80268 1.15457 1.17656
 C150 C 0.80265 1.17593 1.15518
 C151 C 0.82421 1.19754 1.15522
 C152 C 0.84558 1.19754 1.17663
 C153 C 0.84562 1.17591 1.19826
 C154 C 0.82933 1.13684 1.22199
 N155 N 0.85312 1.14706 1.23619
 C156 C 0.86332 1.17087 1.22205
 C157 C 0.86321 1.22127 1.17161
 N158 N 0.85296 1.23543 1.14777
 C159 C 0.82919 1.22127 1.13752
 C160 C 0.77893 1.17092 1.13745
 N161 N 0.76481 1.14712 1.14765
 C162 C 0.77898 1.13689 1.17150
 H163 H 0.81655 1.11815 1.22860
 H164 H 0.88199 1.18367 1.22872
 H165 H 0.88190 1.22792 1.18442
 H166 H 0.81639 1.22792 1.11879
 H167 H 0.77226 1.18372 1.11873
 H168 H 0.77235 1.11820 1.18428
 N169 N 0.46925 1.03120 0.94810
 N170 N 0.44671 1.03444 0.93045
 N171 N 0.53057 1.05154 0.96840
 N172 N 0.55293 1.06931 0.96501
 N173 N 0.53064 1.03131 0.94810
 N174 N 0.55305 1.03474 0.93033
 N175 N 0.46919 1.05144 0.96840
 N176 N 0.44661 1.06902 0.96513
 C177 C 0.43296 1.05814 0.94136
 C178 C 0.56660 1.05853 0.94117
 N179 N 0.53061 1.03129 1.05159
 N180 N 0.55310 1.03460 1.06928
 N181 N 0.46916 1.05144 1.03131
 N182 N 0.44670 1.06915 1.03473
 N183 N 0.46922 1.03120 1.05159
 N184 N 0.44681 1.03456 1.06938
 N185 N 0.53055 1.05153 1.03131
 N186 N 0.55300 1.06919 1.03461
 Mn187 Mn 0.49987 1.05184 0.99985
 C188 C 0.56670 1.05835 1.05840
 C189 C 0.43311 1.05832 1.05857
 N190 N 0.53084 0.96857 0.94810
 N191 N 0.55338 0.96533 0.93045
 N192 N 0.46951 0.94822 0.96837
 N193 N 0.44715 0.93047 0.96498
 N194 N 0.46945 0.96846 0.94808
 N195 N 0.44704 0.96504 0.93031
 N196 N 0.53090 0.94834 0.96840
 N197 N 0.55348 0.93076 0.96513
 Mn198 Mn 0.50004 0.99989 0.94774
 C199 C 0.56713 0.94164 0.94135
 C200 C 0.43348 0.94125 0.94114
 N201 N 0.46943 0.96847 1.05157
 N202 N 0.44689 0.96520 1.06919
 N203 N 0.53090 0.94833 1.03131
 N204 N 0.55337 0.93063 1.03473
 N205 N 0.53081 0.96856 1.05160
 N206 N 0.55322 0.96520 1.06940
 N207 N 0.46950 0.94824 1.03128
 N208 N 0.44701 0.93062 1.03452
 Mn209 Mn 0.50002 0.99988 1.05194
 Mn210 Mn 0.50021 0.94792 0.99984
 Cl211 Cl 0.50004 0.99988 0.99984
 C212 C 0.43328 0.94147 1.05828
 C213 C 0.56694 0.94145 1.05858
 N214 N -0.03141 0.46934 -0.05222
 N215 N -0.03482 0.44694 -0.06999
 N216 N -0.05158 0.53074 -0.03193
 N217 N -0.06916 0.55331 -0.03519
 N218 N -0.03132 0.53068 -0.05222
 N219 N -0.03454 0.55321 -0.06986
 N220 N -0.05166 0.46941 -0.03193
 N221 N -0.06942 0.44706 -0.03531
 C222 C -0.05863 0.43340 -0.05914
 C223 C -0.05825 0.56696 -0.05896
 N224 N -0.03134 0.53069 0.05127
 N225 N -0.03472 0.55309 0.06906
 N226 N -0.05164 0.46941 0.03098
 N227 N -0.06932 0.44699 0.03431
 N228 N -0.03139 0.46937 0.05127
 N229 N -0.03471 0.44691 0.06897
 N230 N -0.05159 0.53075 0.03098
 N231 N -0.06933 0.55317 0.03439
 Mn232 Mn -0.05197 0.50008 -0.00047
 C233 C -0.05851 0.56676 0.05824
 C234 C -0.05847 0.43332 0.05811
 N235 N 0.03148 0.53051 -0.05222
 N236 N 0.03487 0.55293 -0.06996
 N237 N 0.05165 0.46911 -0.03192
 N238 N 0.06924 0.44655 -0.03519
 N239 N 0.03140 0.46917 -0.05221
 N240 N 0.03464 0.44665 -0.06987
 N241 N 0.05173 0.53044 -0.03193
 N242 N 0.06947 0.55282 -0.03528
 Mn243 Mn 0.00004 0.49992 -0.05258
 C244 C 0.05867 0.56649 -0.05910
 C245 C 0.05835 0.43291 -0.05897
 N246 N 0.03140 0.46919 0.05128
 N247 N 0.03479 0.44681 0.06908
 N248 N 0.05171 0.53046 0.03097
 N249 N 0.06934 0.55294 0.03423
 N250 N 0.03145 0.53052 0.05126
 N251 N 0.03471 0.55303 0.06889
 N252 N 0.05166 0.46913 0.03099
 N253 N 0.06941 0.44671 0.03441
 Mn254 Mn 0.00003 0.49994 0.05162
 Mn255 Mn 0.05204 0.49978 -0.00047
 Cl256 Cl 0.00004 0.49993 -0.00048
 C257 C 0.05859 0.43314 0.05826
 C258 C 0.05845 0.56665 0.05800
 N259 N 1.03131 0.05152 0.53094
 N260 N 1.03453 0.06915 0.55349
 N261 N 1.05163 0.03135 0.46943
 N262 N 1.06937 0.03477 0.44698
 N263 N 1.03131 0.05155 0.46943
 N264 N 1.03466 0.06930 0.44699
 N265 N 1.05163 0.03132 0.53093
 N266 N 1.06926 0.03463 0.55349
 C267 C 1.05831 0.05833 0.56719
 C268 C 1.05850 0.05854 0.43334
 N269 N 1.03163 -0.05165 0.46940
 N270 N 1.03493 -0.06924 0.44681
 N271 N 1.05185 -0.03141 0.53089
 N272 N 1.06963 -0.03478 0.55333
 N273 N 1.03167 -0.05168 0.53090
 N274 N 1.03514 -0.06942 0.55334
 N275 N 1.05182 -0.03139 0.46939
 N276 N 1.06943 -0.03461 0.44680
 Mn277 Mn 1.05209 -0.00003 0.50016
 C278 C 1.05861 -0.05833 0.43309
 C279 C 1.05891 -0.05858 0.56698
 N280 N 0.96851 0.05144 0.46947
 N281 N 0.96514 0.06910 0.44696
 N282 N 0.94833 0.03116 0.53097
 N283 N 0.93055 0.03453 0.55340
 N284 N 0.96852 0.05143 0.53097
 N285 N 0.96504 0.06917 0.55342
 N286 N 0.94832 0.03118 0.46947
 N287 N 0.93064 0.03447 0.44695
 Mn288 Mn 0.99991 0.05184 0.50020
 C289 C 0.94141 0.05823 0.43327
 C290 C 0.94127 0.05832 0.56706
 N291 N 0.96888 -0.05178 0.53092
 N292 N 0.96569 -0.06940 0.55349
 N293 N 0.94852 -0.03156 0.46944
 N294 N 0.93076 -0.03496 0.44700
 N295 N 0.96884 -0.05176 0.46942
 N296 N 0.96548 -0.06949 0.44695
 N297 N 0.94856 -0.03158 0.53094
 N298 N 0.93096 -0.03488 0.55353
 Mn299 Mn 1.00026 -0.05208 0.50016
 Mn300 Mn 0.94808 -0.00020 0.50021
 Cl301 Cl 1.00008 -0.00012 0.50018
 C302 C 0.94193 -0.05858 0.56722
 C303 C 0.94163 -0.05871 0.43333
 C304 C 1.11485 0.11423 0.31044
 C305 C 1.11845 0.08108 0.31299
 C306 C 1.10694 0.06977 0.33798
 C307 C 1.09297 0.09273 0.35798
 C308 C 1.07048 0.10843 0.33874
 C309 C 1.08199 0.11974 0.31375
 C310 C 1.12855 0.12659 0.33841
 C311 C 1.11705 0.11529 0.36340
 C312 C 1.12726 0.12645 0.28357
 C313 C 1.13751 0.13658 0.26155
 C314 C 1.08062 0.08057 0.38491
 C315 C 1.07051 0.07056 0.40703
 H316 H 1.12908 0.06766 0.29661
 H317 H 1.10772 0.04666 0.34300
 H318 H 1.04754 0.11048 0.34425
 H319 H 1.06890 0.13147 0.29785
 H320 H 1.14577 0.14279 0.33858
 H321 H 1.12442 0.12181 0.38497
 C322 C 0.88532 -0.11428 0.31036
 C323 C 0.91838 -0.11885 0.31315
 C324 C 0.92987 -0.10757 0.33817
 C325 C 0.90718 -0.09283 0.35794
 C326 C 0.88386 -0.11617 0.36332
 C327 C 0.87237 -0.12745 0.33831
 C328 C 0.88078 -0.08128 0.31346
 C329 C 0.89227 -0.07001 0.33847
 C330 C 0.87292 -0.12646 0.28347
 C331 C 0.86267 -0.13658 0.26145
 C332 C 0.91952 -0.08070 0.38488
 C333 C 0.92962 -0.07070 0.40702
 H334 H 0.93159 -0.12995 0.29691
 H335 H 0.95293 -0.10901 0.34335
 H336 H 0.87698 -0.12323 0.38488
 H337 H 0.85565 -0.14416 0.33845
 H338 H 0.86954 -0.06795 0.29742
 H339 H 0.89087 -0.04701 0.34385
 C340 C 0.88472 0.11416 0.68989
 C341 C 0.87109 0.12660 0.66190
 C342 C 0.88261 0.11524 0.63693
 C343 C 0.90663 0.09255 0.64237
 C344 C 0.89257 0.06966 0.66234
 C345 C 0.88105 0.08102 0.68732
 C346 C 0.91760 0.11948 0.68664
 C347 C 0.92912 0.10812 0.66166
 C348 C 0.87228 0.12644 0.71674
 C349 C 0.86201 0.13664 0.73873
 C350 C 0.91900 0.08035 0.61546
 C351 C 0.92916 0.07032 0.59334
 H352 H 0.85391 0.14290 0.66171
 H353 H 0.87529 0.12181 0.61535
 H354 H 0.89175 0.04656 0.65730
 H355 H 0.87036 0.06766 0.70368
 H356 H 0.93069 0.13113 0.70257
 H357 H 0.95207 0.11003 0.65619
 C358 C 1.11537 -0.11435 0.68987
 C359 C 1.08227 -0.11854 0.68723
 C360 C 1.07077 -0.10720 0.66223
 C361 C 1.09350 -0.09278 0.64232
 C362 C 1.11660 -0.11641 0.63691
 C363 C 1.12809 -0.12775 0.66190
 C364 C 1.12019 -0.08142 0.68666
 C365 C 1.10868 -0.07008 0.66166
 C366 C 1.12778 -0.12661 0.71674
 C367 C 1.13802 -0.13679 0.73875
 C368 C 1.08114 -0.08060 0.61540
 C369 C 1.07100 -0.07057 0.59328
 H370 H 1.06903 -0.12944 0.70356
 H371 H 1.04768 -0.10838 0.65715
 H372 H 1.12334 -0.12360 0.61534
 H373 H 1.14468 -0.14465 0.66173
 H374 H 1.13161 -0.06818 0.70261
 H375 H 1.11026 -0.04712 0.65621
 C376 C 0.31027 1.11398 1.11500
 C377 C 0.31419 1.08131 1.12100
 C378 C 0.33917 1.06998 1.10950
 C379 C 0.35779 1.09245 1.09313
 C380 C 0.36310 1.11698 1.11527
 C381 C 0.33812 1.12830 1.12677
 C382 C 0.31231 1.11701 1.08166
 C383 C 0.33729 1.10569 1.07016
 C384 C 0.28342 1.12622 1.12740
 C385 C 0.26142 1.13639 1.13764
 C386 C 0.38470 1.08029 1.08077
 C387 C 0.40682 1.07029 1.07064
 H388 H 0.29871 1.06821 1.13320
 H389 H 0.34508 1.04719 1.11185
 H390 H 0.38459 1.12478 1.12139
 H391 H 0.33822 1.14579 1.14273
 H392 H 0.29559 1.12715 1.06827
 H393 H 0.34197 1.10612 1.04692
 C394 C 0.31073 0.88535 0.88516
 C395 C 0.31251 0.88310 0.91857
 C396 C 0.33748 0.89447 0.92997
 C397 C 0.35822 0.90697 0.90684
 C398 C 0.33985 0.92920 0.88980
 C399 C 0.31489 0.91784 0.87840
 C400 C 0.33857 0.87050 0.87393
 C401 C 0.36354 0.88186 0.88532
 C402 C 0.28388 0.87309 0.87285
 C403 C 0.26189 0.86293 0.86265
 C404 C 0.38512 0.91918 0.91908
 C405 C 0.40722 0.92923 0.92914
 H406 H 0.29565 0.87344 0.93209
 H407 H 0.34201 0.89455 0.95325
 H408 H 0.34592 0.95188 0.88696
 H409 H 0.29957 0.93078 0.86579
 H410 H 0.33867 0.85263 0.85839
 H411 H 0.38502 0.87372 0.87955
 C412 C 0.68982 0.88588 1.11497
 C413 C 0.68738 0.91908 1.11821
 C414 C 0.66239 0.93038 1.10673
 C415 C 0.64228 0.90737 1.09312
 C416 C 0.63697 0.88507 1.11754
 C417 C 0.66196 0.87378 1.12902
 C418 C 0.68630 0.88007 1.08214
 C419 C 0.66130 0.89137 1.07065
 C420 C 0.71669 0.87366 1.12736
 C421 C 0.73871 0.86352 1.13759
 C422 C 0.61535 0.91951 1.08078
 C423 C 0.59323 0.92950 1.07065
 H424 H 0.70384 0.93253 1.12860
 H425 H 0.65744 0.95351 1.10727
 H426 H 0.61548 0.87872 1.12514
 H427 H 0.66187 0.85774 1.14646
 H428 H 0.70205 0.86814 1.06906
 H429 H 0.65565 0.88912 1.04773
 C430 C 0.68926 1.11457 0.88512
 C431 C 0.68592 1.08173 0.87973
 C432 C 0.66097 1.07034 0.89114
 C433 C 0.64180 1.09290 0.90682
 C434 C 0.63640 1.11692 0.88411
 C435 C 0.66135 1.12831 0.87271
 C436 C 0.68675 1.11824 0.91836
 C437 C 0.66180 1.10685 0.92977
 C438 C 0.71609 1.12686 0.87279
 C439 C 0.73807 1.13702 0.86258
 C440 C 0.61492 1.08065 0.91907
 C441 C 0.59284 1.07058 0.92914
 H442 H 0.70176 1.06858 0.86801
 H443 H 0.65544 1.04743 0.88919
 H444 H 0.61488 1.12433 0.87757
 H445 H 0.66119 1.14548 0.85640
 H446 H 0.70313 1.12885 0.93176
 H447 H 0.65680 1.10770 0.95294
 C448 C 0.11458 0.31045 0.11444
 C449 C 0.08157 0.31351 0.11909
 C450 C 0.07017 0.33847 0.10767
 C451 C 0.09291 0.35792 0.09270
 C452 C 0.10760 0.33826 0.06989
 C453 C 0.11900 0.31330 0.08132
 C454 C 0.12776 0.33830 0.12743
 C455 C 0.11637 0.36326 0.11600
 C456 C 0.12688 0.28361 0.12677
 C457 C 0.13705 0.26162 0.13698
 C458 C 0.08066 0.38480 0.08042
 C459 C 0.07060 0.40689 0.07033
 H460 H 0.06831 0.29748 0.13037
 H461 H 0.04715 0.34382 0.10915
 H462 H 0.10893 0.34347 0.04679
 H463 H 0.13009 0.29713 0.06801
 H464 H 0.14456 0.33842 0.14414
 H465 H 0.12341 0.38475 0.12292
 C466 C -0.11497 0.31077 -0.11472
 C467 C -0.08181 0.31316 -0.11861
 C468 C -0.07032 0.33811 -0.10733
 C469 C -0.09312 0.35822 -0.09326
 C470 C -0.10866 0.33921 -0.07049
 C471 C -0.12014 0.31427 -0.08177
 C472 C -0.12741 0.33863 -0.12850
 C473 C -0.11592 0.36357 -0.11722
 C474 C -0.12737 0.28394 -0.12691
 C475 C -0.13760 0.26197 -0.13703
 C476 C -0.08079 0.38509 -0.08113
 C477 C -0.07068 0.40717 -0.07113
 H478 H -0.06852 0.29671 -0.12928
 H479 H -0.04719 0.34302 -0.10833
 H480 H -0.11047 0.34485 -0.04753
 H481 H -0.13179 0.29853 -0.06848
 H482 H -0.14379 0.33875 -0.14562
 H483 H -0.12248 0.38506 -0.12468
 C484 C 0.11490 0.68922 -0.11456
 C485 C 0.11798 0.68684 -0.08125
 C486 C 0.10651 0.66188 -0.06998
 C487 C 0.09309 0.64174 -0.09313
 C488 C 0.11758 0.63643 -0.11536
 C489 C 0.12905 0.66138 -0.12663
 C490 C 0.08216 0.68567 -0.12055
 C491 C 0.07069 0.66071 -0.10928
 C492 C 0.12728 0.71606 -0.12674
 C493 C 0.13750 0.73804 -0.13686
 C494 C 0.08077 0.61485 -0.08102
 C495 C 0.07068 0.59276 -0.07105
 H496 H 0.12824 0.70331 -0.06771
 H497 H 0.10695 0.65697 -0.04679
 H498 H 0.12526 0.61495 -0.12170
 H499 H 0.14654 0.66127 -0.14261
 H500 H 0.06913 0.70139 -0.13257
 H501 H 0.04784 0.65505 -0.11165
 C502 C -0.11441 0.68952 0.11438
 C503 C -0.11824 0.68696 0.08117
 C504 C -0.10687 0.66199 0.06975
 C505 C -0.09279 0.64201 0.09266
 C506 C -0.11671 0.63671 0.11549
 C507 C -0.12808 0.66169 0.12691
 C508 C -0.08152 0.68611 0.11962
 C509 C -0.07015 0.66113 0.10820
 C510 C -0.12669 0.71637 0.12671
 C511 C -0.13686 0.73836 0.13690
 C512 C -0.08057 0.61511 0.08039
 C513 C -0.07052 0.59301 0.07029
 H514 H -0.12893 0.70333 0.06779
 H515 H -0.10782 0.65697 0.04659
 H516 H -0.12408 0.61524 0.12211
 H517 H -0.14518 0.66160 0.14331
 H518 H -0.06831 0.70192 0.13126
 H519 H -0.04720 0.65555 0.11005
 C520 C 1.11275 0.11360 0.69108
 C521 C 1.12596 0.12701 0.66336
 C522 C 1.11491 0.11575 0.63816
 C523 C 1.09174 0.09218 0.64313
 C524 C 1.06865 0.10662 0.66266
 C525 C 1.07970 0.11789 0.68787
 C526 C 1.11764 0.08066 0.68789
 C527 C 1.10659 0.06940 0.66268
 C528 C 1.12470 0.12576 0.71817
 C529 C 1.13465 0.13581 0.74035
 C530 C 1.07986 0.08008 0.61598
 C531 C 1.07007 0.07016 0.59368
 H532 H 1.14253 0.14387 0.66352
 H533 H 1.12202 0.12296 0.61672
 H534 H 1.04565 0.10788 0.65717
 H535 H 1.06617 0.12880 0.70398
 H536 H 1.12878 0.06735 0.70403
 H537 H 1.10826 0.04644 0.65721
 C538 C 0.88757 -0.11369 0.69121
 C539 C 0.92058 -0.11816 0.68791
 C540 C 0.93163 -0.10693 0.66267
 C541 C 0.90858 -0.09235 0.64322
 C542 C 0.89390 -0.06950 0.66284
 C543 C 0.88285 -0.08072 0.68807
 C544 C 0.87421 -0.12701 0.66352
 C545 C 0.88526 -0.11578 0.63829
 C546 C 0.87563 -0.12581 0.71832
 C547 C 0.86568 -0.13584 0.74052
 C548 C 0.92044 -0.08029 0.61605
 C549 C 0.93022 -0.07039 0.59373
 H550 H 0.93410 -0.12915 0.70398
 H551 H 0.95461 -0.10831 0.65713
 H552 H 0.89233 -0.04653 0.65740
 H553 H 0.87182 -0.06737 0.70424
 H554 H 0.85755 -0.14377 0.66371
 H555 H 0.87805 -0.12294 0.61687
 C556 C 1.11313 -0.11322 0.30897
 C557 C 1.12753 -0.12556 0.33661
 C558 C 1.11647 -0.11438 0.36186
 C559 C 1.09209 -0.09195 0.35701
 C560 C 1.06933 -0.10772 0.33822
 C561 C 1.08039 -0.11891 0.31296
 C562 C 1.11649 -0.08005 0.31152
 C563 C 1.10543 -0.06886 0.33678
 C564 C 1.12509 -0.12530 0.28183
 C565 C 1.13504 -0.13531 0.25961
 C566 C 1.08020 -0.07993 0.38421
 C567 C 1.07039 -0.07008 0.40655
 H568 H 1.14489 -0.14167 0.33636
 H569 H 1.12436 -0.12090 0.38325
 H570 H 1.04653 -0.10990 0.34421
 H571 H 1.06707 -0.13068 0.29731
 H572 H 1.12663 -0.06654 0.29493
 H573 H 1.10610 -0.04576 0.34183
 C574 C 0.88633 0.11364 0.30966
 C575 C 0.89482 0.08137 0.30721
 C576 C 0.90600 0.07007 0.33237
 C577 C 0.90759 0.09216 0.35750
 C578 C 0.87639 0.10387 0.36079
 C579 C 0.86521 0.11516 0.33564
 C580 C 0.91407 0.12910 0.32015
 C581 C 0.92525 0.11780 0.34531
 C582 C 0.87425 0.12583 0.28263
 C583 C 0.86422 0.13592 0.26048
 C584 C 0.91961 0.08003 0.38459
 C585 C 0.92952 0.07009 0.40684
 H586 H 0.89229 0.06853 0.28746
 H587 H 0.91305 0.04755 0.33417
 H588 H 0.86415 0.10332 0.38109
 H589 H 0.84340 0.12429 0.33439
 H590 H 0.92406 0.14731 0.30883
 H591 H 0.94482 0.12633 0.35553
 C592 C 0.11287 0.30905 -0.11394
 C593 C 0.12731 0.33658 -0.12627
 C594 C 0.11624 0.36179 -0.11509
 C595 C 0.09181 0.35700 -0.09268
 C596 C 0.10510 0.33680 -0.06949
 C597 C 0.11617 0.31158 -0.08067
 C598 C 0.08015 0.31309 -0.11976
 C599 C 0.06908 0.33830 -0.10858
 C600 C 0.12484 0.28195 -0.12601
 C601 C 0.13479 0.25976 -0.13600
 C602 C 0.07991 0.38415 -0.08066
 C603 C 0.07010 0.40644 -0.07079
 H604 H 0.14470 0.33630 -0.14236
 H605 H 0.12415 0.38310 -0.12160
 H606 H 0.10574 0.34184 -0.04632
 H607 H 0.12629 0.29502 -0.06708
 H608 H 0.06684 0.29751 -0.13160
 H609 H 0.04628 0.34433 -0.11084
 C610 C -0.11336 0.31010 0.11370
 C611 C -0.09434 0.32717 0.13531
 C612 C -0.08321 0.35226 0.12400
 C613 C -0.09219 0.35781 0.09218
 C614 C -0.12565 0.35691 0.09231
 C615 C -0.13678 0.33182 0.10363
 C616 C -0.09390 0.30524 0.08684
 C617 C -0.08277 0.33033 0.07552
 C618 C -0.12538 0.28313 0.12591
 C619 C -0.13535 0.26104 0.13600
 C620 C -0.08022 0.38482 0.08002
 C621 C -0.07034 0.40699 0.07002
 H622 H -0.08998 0.32016 0.15754
 H623 H -0.06932 0.36674 0.13654
 H624 H -0.13939 0.37441 0.08422
 H625 H -0.16005 0.32784 0.10522
 H626 H -0.08927 0.28398 0.07754
 H627 H -0.06861 0.33056 0.05652
 C628 C -0.11269 0.69091 -0.11380
 C629 C -0.11789 0.68737 -0.08086
 C630 C -0.10682 0.66214 -0.06971
 C631 C -0.09164 0.64293 -0.09259
 C632 C -0.06851 0.66263 -0.10659
 C633 C -0.07958 0.68786 -0.11775
 C634 C -0.12562 0.66337 -0.12769
 C635 C -0.11456 0.63815 -0.11654
 C636 C -0.12464 0.71802 -0.12585
 C637 C -0.13456 0.74023 -0.13583
 C638 C -0.07976 0.61577 -0.08060
 C639 C -0.06997 0.59345 -0.07075
 H640 H -0.12925 0.70328 -0.06748
 H641 H -0.10870 0.65645 -0.04677
 H642 H -0.04548 0.65725 -0.10764
 H643 H -0.06602 0.70408 -0.12836
 H644 H -0.14202 0.66366 -0.14479
 H645 H -0.12148 0.61683 -0.12409
 C646 C 0.11277 0.69039 0.11298
 C647 C 0.08087 0.68486 0.12144
 C648 C 0.06985 0.65967 0.11024
 C649 C 0.09182 0.64248 0.09168
 C650 C 0.11829 0.63782 0.11167
 C651 C 0.12930 0.66301 0.12287
 C652 C 0.11324 0.68923 0.07946
 C653 C 0.10222 0.66403 0.06826
 C654 C 0.12468 0.71746 0.12507
 C655 C 0.13458 0.73962 0.13508
 C656 C 0.07998 0.61536 0.07966
 C657 C 0.07020 0.59309 0.06978
 H658 H 0.06806 0.69945 0.13502
 H659 H 0.04760 0.65268 0.11423
 H660 H 0.12756 0.61661 0.11661
 H661 H 0.14802 0.66337 0.13739
 H662 H 0.12149 0.70665 0.06574
 H663 H 0.10103 0.65988 0.04495
 C664 C 0.30908 1.11312 0.88672
 C665 C 0.31200 1.11691 0.91991
 C666 C 0.33721 1.10570 0.93100
 C667 C 0.35702 1.09180 0.90781
 C668 C 0.36189 1.11579 0.88497
 C669 C 0.33669 1.12699 0.87389
 C670 C 0.31265 1.08029 0.88138
 C671 C 0.33786 1.06908 0.89247
 C672 C 0.28199 1.12522 0.87474
 C673 C 0.25981 1.13524 0.86477
 C674 C 0.38417 1.07977 0.91973
 C675 C 0.40647 1.06990 0.92956
 H676 H 0.29571 1.12745 0.93350
 H677 H 0.34251 1.10663 0.95410
 H678 H 0.38325 1.12331 0.87811
 H679 H 0.33646 1.14412 0.85753
 H680 H 0.29677 1.06701 0.86991
 H681 H 0.34358 1.04620 0.89050
 C682 C 0.30945 0.88694 1.11306
 C683 C 0.31271 0.88232 1.08001
 C684 C 0.33792 0.89339 1.06886
 C685 C 0.35739 0.90799 1.09186
 C686 C 0.36227 0.88463 1.11535
 C687 C 0.33706 0.87356 1.12650
 C688 C 0.31267 0.91992 1.11759
 C689 C 0.33788 0.93098 1.10644
 C690 C 0.28236 0.87499 1.12511
 C691 C 0.26018 0.86508 1.13510
 C692 C 0.38453 0.91989 1.07989
 C693 C 0.40682 0.92970 1.07005
 H694 H 0.29664 0.87134 1.06655
 H695 H 0.34344 0.89189 1.04584
 H696 H 0.38363 0.87741 1.12259
 H697 H 0.33684 0.85686 1.14329
 H698 H 0.29657 0.93339 1.12857
 H699 H 0.34338 0.95394 1.10787
 C700 C 0.69011 1.11333 1.11364
 C701 C 0.66240 1.12729 1.12626
 C702 C 0.63729 1.11612 1.11501
 C703 C 0.64234 1.09208 1.09225
 C704 C 0.66143 1.06935 1.10777
 C705 C 0.68655 1.08052 1.11902
 C706 C 0.68742 1.11706 1.08042
 C707 C 0.66230 1.10589 1.06917
 C708 C 0.71710 1.12540 1.12579
 C709 C 0.73920 1.13541 1.13587
 C710 C 0.61530 1.08007 1.08018
 C711 C 0.59308 1.07019 1.07026
 H712 H 0.66249 1.14445 1.14258
 H713 H 0.61587 1.12370 1.12171
 H714 H 0.65572 1.04648 1.10974
 H715 H 0.70236 1.06723 1.13062
 H716 H 0.70380 1.12754 1.06693
 H717 H 0.65716 1.10679 1.04604
 C718 C 0.69111 0.88682 0.88677
 C719 C 0.68751 0.88176 0.91972
 C720 C 0.66227 0.89293 0.93079
 C721 C 0.64312 0.90806 0.90783
 C722 C 0.63831 0.88510 0.88395
 C723 C 0.66353 0.87393 0.87288
 C724 C 0.68816 0.91989 0.88269
 C725 C 0.66293 0.93106 0.89377
 C726 C 0.71823 0.87475 0.87480
 C727 C 0.74042 0.86475 0.86486
 C728 C 0.61595 0.92005 0.91974
 C729 C 0.59364 0.92989 0.92956
 H730 H 0.70338 0.87041 0.93316
 H731 H 0.65653 0.89116 0.95374
 H732 H 0.61696 0.87821 0.87640
 H733 H 0.66380 0.85747 0.85584
 H734 H 0.70446 0.93334 0.87205
 H735 H 0.65761 0.95409 0.89263
   
