data_POSCAR
  _audit_creation_date              2014-09-24
  _audit_creation_method            'ToBaCCo'
  _symmetry_space_group_name_H-M    'P1'
  _symmetry_Int_Tables_number       1
  _symmetry_cell_setting            triclinic
  loop_
  _symmetry_equiv_pos_as_xyz
 x,y,z
_cell_length_a 17.6711
_cell_length_b 17.6735
_cell_length_c 17.6983
_cell_angle_alpha 90.139000
_cell_angle_beta 90.106400
_cell_angle_gamma 90.009700
loop_
  _atom_site_label
  _atom_site_type_symbol
  _atom_site_fract_x
  _atom_site_fract_y
  _atom_site_fract_z
O1 O 0.42644 0.93693 -0.57175
 O2 O 0.57232 0.93651 -0.42346
 O3 O 0.42503 0.94162 -0.42607
 O4 O 0.57467 0.93760 -0.57060
 O5 O 0.57305 1.06253 -0.57535
 O6 O 0.43084 1.06647 -0.42408
 O7 O 0.57818 1.06096 -0.42806
 O8 O 0.42731 1.06194 -0.57226
 Cu9 Cu 0.49960 0.92562 -0.49788
 Cu10 Cu 0.50247 1.07554 -0.49979
 C11 C 0.40167 0.99938 -0.59694
 C12 C 0.60079 0.99846 -0.40049
 C13 C 0.40289 1.00489 -0.40010
 C14 C 0.59846 0.99946 -0.59833
 O15 O -0.57569 1.42661 0.06071
 O16 O -0.42960 1.57538 0.05853
 O17 O -0.57608 1.57394 0.06137
 O18 O -0.42765 1.42839 0.06223
 O19 O -0.43386 1.42050 -0.06224
 O20 O -0.57300 1.57617 -0.06306
 O21 O -0.42487 1.56770 -0.06594
 O22 O -0.58017 1.42890 -0.06369
 Cu23 Cu -0.50221 1.50106 0.07321
 Cu24 Cu -0.50306 1.49837 -0.07626
 C25 C -0.60380 1.40281 -0.00120
 C26 C -0.40155 1.59605 -0.00415
 C27 C -0.59933 1.60108 -0.00088
 C28 C -0.40621 1.39893 0.00040
 O29 O -0.06346 0.42800 0.42824
 O30 O -0.06075 0.57620 0.57384
 O31 O -0.05806 0.57530 0.42783
 O32 O -0.06035 0.42980 0.57649
 O33 O 0.06465 0.42750 0.57593
 O34 O 0.06673 0.56919 0.42416
 O35 O 0.06395 0.57547 0.57257
 O36 O 0.06139 0.42226 0.43054
 Cu37 Cu -0.07318 0.50230 0.50146
 Cu38 Cu 0.07679 0.49877 0.50087
 C39 C -0.00183 0.39946 0.40492
 C40 C 0.00190 0.60172 0.59813
 C41 C 0.00477 0.59664 0.40037
 C42 C 0.00194 0.40401 0.60158
 O43 O -0.10165 0.99955 -0.19516
 O44 O -0.10255 0.99649 0.19393
 O45 O -0.19309 0.89427 -0.00254
 O46 O -0.19709 1.09837 0.00022
 O47 O -0.10645 1.19222 0.00609
 O48 O -0.09935 0.80330 -0.00731
 O49 O -0.19476 0.99996 0.10141
 O50 O -0.19426 0.99408 -0.10335
 Zr51 Zr -0.13317 0.99740 -0.00070
 O52 O -0.07028 1.06601 0.06969
 O53 O -0.06741 0.93066 -0.07017
 C54 C -0.17144 0.99594 -0.17294
 C55 C -0.17241 0.99876 0.17129
 C56 C -0.16964 0.82480 -0.00598
 C57 C -0.17598 1.16863 0.00388
 H58 H -0.09905 0.89587 0.09821
 O59 O -0.06724 0.92908 0.06654
 H60 H -0.10201 1.09978 -0.09948
 O61 O -0.06937 1.06767 -0.06743
 O62 O 0.10232 0.99376 0.19424
 O63 O 0.10250 1.00442 -0.19417
 O64 O 0.00700 0.80325 0.09888
 O65 O -0.00764 1.19218 0.10615
 O66 O -0.00303 1.19612 -0.09857
 O67 O 0.00212 0.80629 -0.10554
 O68 O 0.19667 0.90110 0.00092
 O69 O 0.19248 1.10606 -0.00007
 O70 O 0.10590 0.80691 -0.00087
 O71 O 0.09819 1.19664 0.00131
 O72 O 0.00224 0.89436 0.19244
 O73 O -0.00019 0.90008 -0.19621
 O74 O 0.00358 1.10502 -0.19214
 O75 O -0.00205 1.09835 0.19660
 O76 O 0.19476 1.00161 0.10256
 O77 O 0.19467 1.00890 -0.10164
 Zr78 Zr -0.00014 0.99738 0.13273
 Zr79 Zr 0.00035 1.00154 -0.13291
 Zr80 Zr 0.00237 0.86641 -0.00238
 Zr81 Zr -0.00289 1.13282 0.00247
 Zr82 Zr 0.13312 1.00244 0.00035
 O83 O 0.06731 1.07083 -0.06710
 O84 O 0.06999 0.93115 0.06745
 C85 C 0.17222 0.99698 0.17212
 C86 C 0.17224 1.00802 -0.17150
 C87 C 0.00578 0.82485 0.16903
 C88 C -0.00589 1.16850 0.17551
 C89 C 0.00114 1.17458 -0.16860
 C90 C 0.00064 0.82997 -0.17480
 C91 C 0.17526 0.83085 0.00061
 C92 C 0.16843 1.17537 -0.00003
 H93 H 0.10268 0.90253 -0.10161
 O94 O 0.06967 0.93370 -0.06900
 H95 H 0.09840 1.10062 0.10240
 O96 O 0.06673 1.06821 0.06952
 C97 C 0.34431 1.05249 0.28577
 C98 C 0.34265 0.99907 0.34429
 C99 C 0.28462 0.94480 0.34581
 C100 C 0.22832 0.94472 0.29021
 C101 C 0.23087 0.99725 0.23100
 C102 C 0.28945 1.05080 0.22880
 H103 H 0.38883 1.09457 0.28341
 H104 H 0.28225 0.90327 0.39066
 H105 H 0.18350 0.90296 0.29266
 H106 H 0.29194 1.09208 0.18370
 C107 C -0.34972 1.04706 0.27991
 C108 C -0.34365 0.99837 0.34219
 C109 C -0.28124 0.94974 0.34788
 C110 C -0.22476 0.95094 0.29276
 C111 C -0.23131 0.99874 0.22988
 C112 C -0.29456 1.04628 0.22340
 H113 H -0.39765 1.08490 0.27457
 H114 H -0.27541 0.91214 0.39579
 H115 H -0.17646 0.91387 0.29867
 H116 H -0.30046 1.08378 0.17541
 C117 C -0.30764 1.06550 -0.32077
 C118 C -0.34271 0.99776 -0.34443
 C119 C -0.31997 0.92921 -0.31045
 C120 C -0.26433 0.92866 -0.25419
 C121 C -0.22978 0.99625 -0.23163
 C122 C -0.25136 1.06455 -0.26519
 H123 H -0.32325 1.11937 -0.34534
 H124 H -0.34544 0.87586 -0.32679
 H125 H -0.24795 0.87552 -0.22852
 H126 H -0.22495 1.11719 -0.24794
 C127 C 0.34614 1.06045 -0.28331
 C128 C 0.34370 1.00662 -0.34178
 C129 C 0.28427 0.95399 -0.34413
 C130 C 0.22755 0.95570 -0.28935
 C131 C 0.23080 1.00850 -0.23014
 C132 C 0.29066 1.06055 -0.22704
 H133 H 0.39172 1.10135 -0.28042
 H134 H 0.28119 0.91224 -0.38895
 H135 H 0.18191 0.91483 -0.29227
 H136 H 0.29383 1.10176 -0.18171
 C137 C 0.31330 1.31611 0.06782
 C138 C 0.33914 1.34733 -0.00073
 C139 C 0.30685 1.32123 -0.06900
 C140 C 0.25069 1.26556 -0.06861
 C141 C 0.22594 1.23483 -0.00024
 C142 C 0.25734 1.26017 0.06791
 H143 H 0.33653 1.33439 0.12153
 H144 H 0.32494 1.34360 -0.12296
 H145 H 0.22685 1.24607 -0.12166
 H146 H 0.23863 1.23649 0.12111
 C147 C 0.31531 0.68562 0.06802
 C148 C 0.34571 0.65864 -0.00067
 C149 C 0.31950 0.69049 -0.06887
 C150 C 0.26443 0.74731 -0.06824
 C151 C 0.23456 0.77317 0.00030
 C152 C 0.26010 0.74221 0.06835
 H153 H 0.33370 0.66280 0.12175
 H154 H 0.34127 0.67154 -0.12287
 H155 H 0.24468 0.77076 -0.12125
 H156 H 0.23704 0.76166 0.12166
 C157 C -0.34366 0.71394 0.04723
 C158 C -0.34171 0.65408 -0.00496
 C159 C -0.28239 0.65033 -0.05760
 C160 C -0.22518 0.70515 -0.05720
 C161 C -0.22811 0.76567 -0.00583
 C162 C -0.28795 0.76995 0.04599
 H163 H -0.38905 0.71807 0.08809
 H164 H -0.27973 0.60441 -0.09815
 H165 H -0.17951 0.70119 -0.09778
 H166 H -0.29092 0.81614 0.08625
 C167 C -0.35581 1.27449 -0.04343
 C168 C -0.34802 1.33956 0.00151
 C169 C -0.28389 1.34788 0.04756
 C170 C -0.22748 1.29256 0.04756
 C171 C -0.23573 1.22672 0.00384
 C172 C -0.30062 1.21778 -0.04128
 H173 H -0.40506 1.26713 -0.07924
 H174 H -0.27670 1.39799 0.08221
 H175 H -0.17768 1.30090 0.08215
 H176 H -0.30774 1.16777 -0.07609
 C177 C -0.05917 1.34040 0.29029
 C178 C -0.00370 1.33944 0.34715
 C179 C 0.05023 1.28109 0.34797
 C180 C 0.04826 1.22417 0.29301
 C181 C -0.00616 1.22625 0.23525
 C182 C -0.05961 1.28481 0.23404
 H183 H -0.10113 1.38503 0.28848
 H184 H 0.09329 1.27914 0.39156
 H185 H 0.09022 1.17950 0.29451
 H186 H -0.10212 1.28696 0.19011
 C187 C -0.05196 1.34790 -0.28088
 C188 C 0.00173 1.34572 -0.33920
 C189 C 0.05559 1.28735 -0.34062
 C190 C 0.05489 1.23109 -0.28533
 C191 C 0.00193 1.23390 -0.22649
 C192 C -0.05105 1.29299 -0.22413
 H193 H -0.09376 1.39267 -0.27866
 H194 H 0.09730 1.28453 -0.38533
 H195 H 0.09625 1.18590 -0.28786
 H196 H -0.09261 1.29568 -0.17926
 C197 C 0.07052 0.68827 -0.31767
 C198 C 0.00206 0.65889 -0.34646
 C199 C -0.06677 0.68780 -0.31805
 C200 C -0.06705 0.74393 -0.26238
 C201 C 0.00120 0.77226 -0.23408
 C202 C 0.06995 0.74447 -0.26186
 H203 H 0.12460 0.66777 -0.33787
 H204 H -0.12073 0.66698 -0.33849
 H205 H -0.12052 0.76504 -0.24110
 H206 H 0.12311 0.76611 -0.24013
 C207 C 0.05756 0.65029 0.28089
 C208 C 0.00553 0.65448 0.34071
 C209 C -0.04614 0.71463 0.34334
 C210 C -0.04500 0.77050 0.28779
 C211 C 0.00604 0.76582 0.22738
 C212 C 0.05694 0.70500 0.22379
 H213 H 0.09772 0.60411 0.27776
 H214 H -0.08649 0.71910 0.38915
 H215 H -0.08477 0.81686 0.29132
 H216 H 0.09697 0.70069 0.17768
   
