data_POSCAR
  _audit_creation_date              2014-09-24
  _audit_creation_method            'ToBaCCo'
  _symmetry_space_group_name_H-M    'P1'
  _symmetry_Int_Tables_number       1
  _symmetry_cell_setting            triclinic
  loop_
  _symmetry_equiv_pos_as_xyz
 x,y,z
_cell_length_a 19.1341
_cell_length_b 18.5859
_cell_length_c 52.3047
_cell_angle_alpha 82.811000
_cell_angle_beta 96.961700
_cell_angle_gamma 118.030300
loop_
  _atom_site_label
  _atom_site_type_symbol
  _atom_site_fract_x
  _atom_site_fract_y
  _atom_site_fract_z
C1 C 0.00627 0.23035 0.50920
 H2 H 0.06263 0.25639 0.50071
 C3 C -0.00563 0.27450 0.52638
 H4 H 0.04136 0.33458 0.53042
 C5 C -0.11853 0.11635 0.51705
 H6 H -0.16016 0.05311 0.51436
 C7 C -0.13234 0.15813 0.53468
 H8 H -0.18513 0.12712 0.54535
 N9 N -0.04878 0.15192 0.50548
 C10 C 0.01881 -0.04265 0.51526
 H11 H 0.01895 -0.05633 0.49577
 C12 C 0.02334 -0.09552 0.53620
 H13 H 0.02714 -0.14982 0.53279
 C14 C 0.00892 0.04167 0.54357
 H15 H 0.00290 0.09483 0.54657
 C16 C 0.01378 -0.00900 0.56493
 H17 H 0.01085 0.00597 0.58395
 Zn18 Zn -0.01779 0.08370 0.49111
 N19 N 0.00813 0.02248 0.51923
 C20 C 0.13648 0.13538 0.47410
 N21 N 0.07163 0.14859 0.47151
 C22 C 0.06712 0.20707 0.45397
 C23 C 0.12719 0.25207 0.43732
 C24 C 0.19842 0.17956 0.45779
 C25 C -0.14050 -0.07036 0.47672
 C26 C -0.18962 -0.12707 0.45904
 C27 C -0.16628 -0.01532 0.42661
 C28 C -0.11737 0.03913 0.44489
 N29 N -0.10218 0.01081 0.46910
 H30 H 0.13938 0.08917 0.48828
 H31 H 0.01640 0.21853 0.45277
 H32 H 0.12149 0.29658 0.42290
 H33 H 0.24841 0.16665 0.45939
 H34 H -0.13081 -0.09187 0.49631
 H35 H -0.21598 -0.19132 0.46545
 H36 H -0.17408 0.00827 0.40704
 H37 H -0.08866 0.10366 0.43921
 C38 C 0.01803 -0.08014 0.56127
 C39 C -0.07406 0.23697 0.54014
 C40 C -0.20019 -0.09989 0.43325
 C41 C 0.19303 0.23755 0.43888
 C42 C 1.22147 0.00974 0.15381
 H43 H 1.24631 0.06662 0.16285
 C44 C 1.26559 -0.00048 0.13655
 H45 H 1.32436 0.04820 0.13304
 C46 C 1.11140 -0.11788 0.14492
 H47 H 1.04996 -0.16141 0.14739
 C48 C 1.15327 -0.13002 0.12716
 H49 H 1.12414 -0.18344 0.11616
 N50 N 1.14522 -0.04765 0.15722
 C51 C 0.95359 0.01767 0.15190
 H52 H 0.94202 0.01586 0.17177
 C53 C 0.89964 0.02185 0.13188
 H54 H 0.84668 0.02357 0.13636
 C55 C 1.03364 0.01233 0.12174
 H56 H 1.08548 0.00806 0.11769
 C57 C 0.98186 0.01703 0.10127
 H58 H 0.99502 0.01612 0.08184
 Zn59 Zn 1.07915 -0.01895 0.17329
 N60 N 1.01712 0.00908 0.14656
 C61 C 1.13087 0.13850 0.19152
 N62 N 1.14300 0.07140 0.19331
 C63 C 1.20038 0.06541 0.21016
 C64 C 1.24551 0.12615 0.22691
 C65 C 1.17535 0.20131 0.20791
 C66 C 0.93119 -0.14862 0.18772
 C67 C 0.87615 -0.19942 0.20554
 C68 C 0.98442 -0.17442 0.23791
 C69 C 1.03737 -0.12360 0.21954
 N70 N 1.00990 -0.10827 0.19529
 H71 H 1.08551 0.14256 0.17786
 H72 H 1.21104 0.01307 0.21067
 H73 H 1.28924 0.11917 0.24076
 H74 H 1.16352 0.25312 0.20694
 H75 H 0.91032 -0.13860 0.16815
 H76 H 0.81353 -0.22700 0.19950
 H77 H 1.00676 -0.18208 0.25756
 H78 H 1.09986 -0.09314 0.22525
 C79 C 0.91225 0.01838 0.10631
 C80 C 1.23041 -0.06960 0.12232
 C81 C 0.90268 -0.20969 0.23123
 C82 C 1.23246 0.19441 0.22609
 C83 C 0.01956 0.89936 0.87781
 H84 H -0.03875 0.84705 0.87751
 C85 C 0.07677 0.90250 0.89737
 H86 H 0.06258 0.85226 0.91213
 C87 C 0.10822 1.02944 0.85921
 H88 H 0.11940 1.07918 0.84450
 C89 C 0.16752 1.03525 0.87866
 H90 H 0.22458 1.08932 0.87874
 N91 N 0.03604 0.96188 0.85917
 C92 C -0.20116 0.86375 0.85975
 H93 H -0.21620 0.81279 0.84848
 C94 C -0.25101 0.85651 0.87858
 H95 H -0.30464 0.79975 0.88150
 C96 C -0.11022 0.99799 0.87078
 H97 H -0.05410 1.05211 0.86808
 C98 C -0.15825 0.99396 0.88932
 H99 H -0.13880 1.04566 0.90078
 Zn100 Zn -0.05175 0.94819 0.83569
 N101 N -0.13188 0.93358 0.85653
 C102 C -0.13799 0.84271 0.79666
 N103 N -0.07993 0.85822 0.81611
 C104 C -0.03292 0.82067 0.81854
 C105 C -0.04038 0.76872 0.80018
 C106 C -0.14704 0.79150 0.77772
 C107 C -0.07976 1.07459 0.80879
 C108 C -0.07344 1.13284 0.78841
 C109 C 0.03612 1.12082 0.77443
 C110 C 0.02781 1.06263 0.79516
 N111 N -0.03009 1.04005 0.81166
 H112 H -0.17342 0.87468 0.79485
 H113 H 0.01431 0.83522 0.83364
 H114 H 0.00058 0.74323 0.80174
 H115 H -0.18999 0.78362 0.76141
 H116 H -0.12731 1.05397 0.82141
 H117 H -0.11533 1.15747 0.78578
 H118 H 0.08044 1.13587 0.76091
 H119 H 0.06513 1.03268 0.79744
 C120 C -0.22873 0.92200 0.89393
 C121 C 0.15144 0.97111 0.89802
 C122 C -0.01619 1.15509 0.77067
 C123 C -0.09588 0.75632 0.77895
 C124 C 0.32163 -0.05387 0.00840
 C125 C 0.35280 -0.04187 -0.01549
 C126 C 0.42598 -0.04109 -0.01651
 C127 C 0.46670 -0.05653 0.00615
 C128 C 0.43271 -0.07093 0.02996
 C129 C 0.36164 -0.06738 0.03119
 C130 C 0.54461 -0.05643 0.00497
 C131 C 0.60136 -0.03583 0.02639
 C132 C 0.67424 -0.03552 0.02524
 C133 C 0.69224 -0.05268 0.00239
 C134 C 0.63817 -0.07119 -0.01923
 C135 C 0.56385 -0.07520 -0.01776
 H136 H 0.26596 -0.05246 0.00928
 H137 H 0.45100 -0.02771 -0.03499
 H138 H 0.46122 -0.08461 0.04764
 H139 H 0.59013 -0.01860 0.04384
 H140 H 0.74953 -0.05032 0.00129
 H141 H 0.52185 -0.09256 -0.03444
 C142 C -0.04842 0.69631 0.66733
 C143 C -0.06961 0.63776 0.68838
 C144 C -0.07544 0.56072 0.68607
 C145 C -0.05688 0.54295 0.66307
 C146 C -0.03422 0.60378 0.64228
 C147 C -0.03186 0.67935 0.64416
 C148 C -0.05982 0.46210 0.66075
 C149 C -0.07560 0.42996 0.63644
 C150 C -0.07294 0.35723 0.63390
 C151 C -0.05901 0.31334 0.65589
 C152 C -0.04578 0.34244 0.68033
 C153 C -0.04471 0.41734 0.68263
 H154 H -0.04486 0.75553 0.66899
 H155 H -0.09417 0.51519 0.70223
 H156 H -0.01749 0.59323 0.62465
 H157 H -0.08909 0.46163 0.61936
 H158 H -0.05763 0.25693 0.65370
 H159 H -0.03095 0.44059 0.70153
 C160 C 0.72141 0.71698 0.33294
 C161 C 0.69918 0.66566 0.31285
 C162 C 0.62725 0.59327 0.31316
 C163 C 0.57496 0.57365 0.33275
 C164 C 0.59794 0.62764 0.35243
 C165 C 0.67171 0.69778 0.35293
 C166 C 0.49703 0.49740 0.33267
 C167 C 0.46108 0.45850 0.35600
 C168 C 0.38739 0.38829 0.35583
 C169 C 0.35098 0.35396 0.33255
 C170 C 0.38601 0.38999 0.30932
 C171 C 0.45773 0.46255 0.30927
 H172 H 0.77773 0.77220 0.33301
 H173 H 0.61247 0.55275 0.29805
 H174 H 0.55895 0.61564 0.36747
 H175 H 0.48976 0.48221 0.37435
 H176 H 0.29478 0.29857 0.33252
 H177 H 0.48242 0.49105 0.29097
 C178 C -0.09181 0.36623 0.58088
 C179 C -0.02073 0.36013 0.57183
 C180 C -0.07773 0.27352 0.56366
 C181 C -0.14892 0.27907 0.57237
 C182 C -0.06470 0.23605 0.59064
 C183 C -0.00770 0.32270 0.59892
 C184 C -0.07855 0.32843 0.60779
 C185 C -0.13567 0.24194 0.59965
 H186 H -0.10328 0.41991 0.57665
 H187 H 0.02669 0.41000 0.56058
 H188 H -0.20702 0.26096 0.56118
 H189 H -0.05332 0.18221 0.59453
 H190 H 0.05055 0.34065 0.61002
 H191 H -0.18292 0.19351 0.61133
 C192 C 0.84148 0.72184 0.29368
 C193 C 0.83450 0.67485 0.27024
 C194 C 0.84549 0.75070 0.25211
 C195 C 0.85299 0.79793 0.27533
 C196 C 0.75511 0.72042 0.24908
 C197 C 0.74332 0.64406 0.26749
 C198 C 0.75122 0.69170 0.29066
 C199 C 0.76244 0.76747 0.27246
 H200 H 0.87672 0.72225 0.31220
 H201 H 0.86460 0.63693 0.26911
 H202 H 0.89839 0.86170 0.27846
 H203 H 0.71835 0.71935 0.23088
 H204 H 0.69836 0.58034 0.26413
 H205 H 0.73253 0.80562 0.27353
 C206 C 0.22078 -0.10064 -0.04594
 C207 C 0.19204 -0.03495 -0.05174
 C208 C 0.21105 -0.02575 -0.08008
 C209 C 0.23958 -0.09132 -0.07442
 C210 C 0.29566 0.04211 -0.07398
 C211 C 0.27709 0.03266 -0.04533
 C212 C 0.30535 -0.03314 -0.03967
 C213 C 0.32482 -0.02373 -0.06801
 H214 H 0.19014 -0.15958 -0.03426
 H215 H 0.13697 -0.03952 -0.04516
 H216 H 0.22370 -0.14243 -0.08658
 H217 H 0.32665 0.10116 -0.08555
 H218 H 0.29298 0.08366 -0.03312
 H219 H 0.37940 -0.01912 -0.07497
 C220 C -0.00050 0.73565 0.59365
 C221 C -0.05957 0.76948 0.58343
 C222 C 0.00920 0.85710 0.58348
 C223 C 0.06855 0.82413 0.59341
 C224 C -0.00485 0.86295 0.61138
 C225 C -0.07366 0.77499 0.61143
 C226 C -0.01451 0.74194 0.62150
 C227 C 0.05435 0.82936 0.62157
 H228 H 0.00126 0.68334 0.58612
 H229 H -0.10663 0.74524 0.56758
 H230 H 0.12735 0.84512 0.58583
 H231 H -0.00697 0.91427 0.61944
 H232 H -0.13256 0.75422 0.61891
 H233 H 0.10127 0.85342 0.63746
 C234 C 0.36809 0.37338 0.25692
 C235 C 0.36425 0.28944 0.25425
 C236 C 0.27492 0.25432 0.24626
 C237 C 0.27801 0.33758 0.24855
 C238 C 0.25495 0.22803 0.27461
 C239 C 0.34435 0.26323 0.28276
 C240 C 0.34767 0.34638 0.28526
 C241 C 0.25841 0.31157 0.27718
 H242 H 0.41478 0.43353 0.24961
 H243 H 0.40757 0.27993 0.24464
 H244 H 0.25067 0.36830 0.23435
 H245 H 0.20805 0.16777 0.28180
 H246 H 0.37192 0.23282 0.29700
 H247 H 0.21508 0.32108 0.28679
 C248 C 0.69503 -0.14182 -0.04721
 C249 C 0.65574 -0.15297 -0.07512
 C250 C 0.72845 -0.08352 -0.08467
 C251 C 0.76976 -0.07134 -0.05873
 C252 C 0.69961 -0.02392 -0.08254
 C253 C 0.62269 -0.09317 -0.07150
 C254 C 0.66445 -0.08016 -0.04401
 C255 C 0.74028 -0.00949 -0.05505
 H256 H 0.69417 -0.19163 -0.03291
 H257 H 0.62186 -0.21210 -0.08404
 H258 H 0.83142 -0.06258 -0.05431
 H259 H 0.70303 0.02418 -0.09800
 H260 H 0.56162 -0.10250 -0.07767
 H261 H 0.77732 0.05122 -0.04730
 C262 C 0.32092 -0.00054 0.06439
 C263 C 0.23583 -0.06029 0.07186
 C264 C 0.26924 -0.07252 0.09942
 C265 C 0.35426 -0.01277 0.09207
 C266 C 0.27781 -0.14518 0.09179
 C267 C 0.24477 -0.13275 0.06393
 C268 C 0.32966 -0.07287 0.05661
 C269 C 0.36335 -0.08532 0.08413
 H270 H 0.33873 0.05913 0.05295
 H271 H 0.18308 -0.04980 0.06692
 H272 H 0.40068 0.03685 0.10342
 H273 H 0.25983 -0.20471 0.10332
 H274 H 0.19995 -0.18211 0.05213
 H275 H 0.41591 -0.09590 0.08942
 C276 C 0.65583 0.74565 0.39871
 C277 C 0.72927 0.75487 0.41682
 C278 C 0.76193 0.84452 0.41336
 C279 C 0.69276 0.84022 0.39660
 C280 C 0.80635 0.85130 0.39132
 C281 C 0.77268 0.75758 0.39340
 C282 C 0.70036 0.75085 0.37522
 C283 C 0.73516 0.84490 0.37259
 H284 H 0.59323 0.70319 0.40268
 H285 H 0.72694 0.71755 0.43529
 H286 H 0.66163 0.87632 0.39893
 H287 H 0.86954 0.89644 0.38917
 H288 H 0.80768 0.72435 0.39266
 H289 H 0.73870 0.88448 0.35454
 C290 C -0.08938 0.26279 0.72634
 C291 C -0.09116 0.17853 0.72724
 C292 C -0.01796 0.20797 0.74666
 C293 C -0.01606 0.29189 0.74600
 C294 C 0.03762 0.23865 0.72446
 C295 C -0.03580 0.20946 0.70483
 C296 C -0.03401 0.29347 0.70409
 C297 C 0.03936 0.32328 0.72346
 H298 H -0.14191 0.27286 0.72693
 H299 H -0.14504 0.11847 0.72893
 H300 H -0.00773 0.32549 0.76315
 H301 H 0.09045 0.22941 0.72352
 H302 H -0.04400 0.17363 0.68828
 H303 H 0.09308 0.38342 0.72167
 C304 C 0.73030 -0.00181 0.07581
 C305 C 0.76361 -0.06245 0.08598
 C306 C 0.84871 0.00823 0.08499
 C307 C 0.81631 0.06918 0.07519
 C308 C 0.85207 -0.00764 0.05705
 C309 C 0.76679 -0.07834 0.05796
 C310 C 0.73440 -0.01759 0.04794
 C311 C 0.81926 0.05319 0.04702
 H312 H 0.67995 0.00043 0.08357
 H313 H 0.74114 -0.11023 0.10218
 H314 H 0.83749 0.13021 0.08242
 H315 H 0.90067 -0.01067 0.04841
 H316 H 0.74588 -0.13947 0.05083
 H317 H 0.84168 0.10087 0.03080
 C318 C 0.36971 0.37151 0.40815
 C319 C 0.28966 0.37133 0.41055
 C320 C 0.25222 0.27919 0.41877
 C321 C 0.33157 0.27861 0.41675
 C322 C 0.22689 0.25882 0.39046
 C323 C 0.26443 0.35105 0.38208
 C324 C 0.34369 0.35069 0.37985
 C325 C 0.30653 0.25862 0.38817
 H326 H 0.42879 0.41802 0.41547
 H327 H 0.28228 0.41746 0.41994
 H328 H 0.35940 0.24879 0.43112
 H329 H 0.16768 0.21212 0.38326
 H330 H 0.23699 0.38113 0.36765
 H331 H 0.31387 0.21247 0.37877
 C332 C -0.13774 0.69747 0.71590
 C333 C -0.16172 0.64655 0.74209
 C334 C -0.09263 0.71700 0.75598
 C335 C -0.06886 0.76806 0.73004
 C336 C -0.03658 0.68032 0.75345
 C337 C -0.10552 0.60944 0.73924
 C338 C -0.08160 0.66105 0.71338
 C339 C -0.01284 0.73134 0.72739
 H340 H -0.17931 0.70437 0.70023
 H341 H -0.22310 0.61187 0.74838
 H342 H -0.05361 0.83374 0.72634
 H343 H 0.00549 0.67226 0.76865
 H344 H -0.12090 0.54381 0.74313
 H345 H 0.04863 0.76631 0.72118
   
