data_POSCAR
  _audit_creation_date              2014-09-24
  _audit_creation_method            'ToBaCCo'
  _symmetry_space_group_name_H-M    'P1'
  _symmetry_Int_Tables_number       1
  _symmetry_cell_setting            triclinic
  loop_
  _symmetry_equiv_pos_as_xyz
 x,y,z
_cell_length_a 35.6444
_cell_length_b 35.5801
_cell_length_c 39.3142
_cell_angle_alpha 89.951300
_cell_angle_beta 90.017000
_cell_angle_gamma 121.109900
loop_
  _atom_site_label
  _atom_site_type_symbol
  _atom_site_fract_x
  _atom_site_fract_y
  _atom_site_fract_z
C1 C 0.04159 0.51420 1.32173
 C2 C 0.00169 0.49851 1.33892
 C3 C -0.03819 0.48346 1.32183
 C4 C -0.03791 0.48539 1.28569
 C5 C 0.00158 0.49896 1.26760
 C6 C 0.04126 0.51279 1.28557
 C7 C 0.07887 0.52234 1.26687
 C8 C 0.07890 0.52300 1.23156
 C9 C 0.04097 0.51289 1.21332
 C10 C 0.00149 0.49909 1.23134
 C11 C -0.07510 0.47744 1.26716
 C12 C -0.07507 0.47781 1.23183
 C13 C -0.03789 0.48605 1.21321
 C14 C -0.03800 0.48509 1.17695
 C15 C 0.00219 0.50133 1.15994
 C16 C 0.04134 0.51538 1.17747
 H17 H 0.10869 0.52879 1.27928
 H18 H 0.10897 0.53102 1.21868
 H19 H -0.10444 0.47206 1.27976
 H20 H -0.10433 0.47278 1.21931
 H21 H 0.00171 0.49824 1.36649
 H22 H 0.00315 0.50151 1.13237
 C23 C 0.48113 0.51967 1.32178
 C24 C 0.49863 0.49809 1.33935
 C25 C 0.51837 0.47788 1.32247
 C26 C 0.51887 0.47809 1.28619
 C27 C 0.50155 0.50042 1.26804
 C28 C 0.48277 0.52135 1.28591
 C29 C 0.46607 0.54340 1.26748
 C30 C 0.46649 0.54381 1.23212
 C31 C 0.48434 0.52285 1.21376
 C32 C 0.50209 0.50100 1.23184
 C33 C 0.53300 0.45392 1.26744
 C34 C 0.53389 0.45483 1.23208
 C35 C 0.51944 0.47887 1.21376
 C36 C 0.52004 0.47972 1.17777
 C37 C 0.50182 0.50082 1.16041
 C38 C 0.48393 0.52218 1.17778
 H39 H 0.45222 0.56042 1.28021
 H40 H 0.45231 0.56050 1.21934
 H41 H 0.54241 0.43287 1.27975
 H42 H 0.54503 0.43546 1.21923
 H43 H 0.49819 0.49864 1.36693
 H44 H 0.50196 0.50103 1.13280
 C45 C 0.50673 1.04004 1.17895
 C46 C 0.48833 0.99961 1.16186
 C47 C 0.47518 0.96040 1.17909
 C48 C 0.47985 0.96068 1.21476
 C49 C 0.49560 1.00040 1.23302
 C50 C 0.50825 1.04001 1.21519
 C51 C 0.51837 1.07752 1.23423
 C52 C 0.52061 1.07752 1.26951
 C53 C 0.51293 1.04003 1.28760
 C54 C 0.49771 1.00031 1.26926
 C55 C 0.46860 0.92213 1.23266
 C56 C 0.47166 0.92223 1.26788
 C57 C 0.48390 0.96035 1.28697
 C58 C 0.48477 0.96009 1.32315
 C59 C 0.50211 1.00018 1.34050
 C60 C 0.51658 1.04023 1.32366
 H61 H 0.52331 1.10705 1.22213
 H62 H 0.52715 1.10711 1.28243
 H63 H 0.45739 0.89135 1.21962
 H64 H 0.46457 0.89190 1.27984
 H65 H 0.48655 0.99853 1.13431
 H66 H 0.50393 1.00014 1.36802
 C67 C 1.04180 0.51657 0.82314
 C68 C 1.00120 0.49512 0.83999
 C69 C 0.96158 0.47761 0.82250
 C70 C 0.96159 0.47981 0.78664
 C71 C 1.00198 0.50022 0.76870
 C72 C 1.04223 0.51886 0.78687
 C73 C 1.08141 0.53720 0.76809
 C74 C 1.08151 0.54002 0.73284
 C75 C 1.04224 0.52132 0.71416
 C76 C 1.00200 0.50183 0.73245
 C77 C 0.92223 0.46241 0.76832
 C78 C 0.92227 0.46423 0.73303
 C79 C 0.96171 0.48405 0.71462
 C80 C 0.96182 0.48625 0.67878
 C81 C 1.00150 0.50640 0.66118
 C82 C 1.04191 0.52341 0.67791
 H83 H 1.11279 0.54941 0.78021
 H84 H 1.11316 0.55757 0.72063
 H85 H 0.89084 0.44713 0.78109
 H86 H 0.89091 0.44993 0.72032
 H87 H 1.00022 0.49381 0.86758
 H88 H 1.00048 0.50678 0.63359
 C89 C 0.47670 0.51438 0.82204
 C90 C 0.49587 0.49415 0.83937
 C91 C 0.51720 0.47620 0.82200
 C92 C 0.51916 0.47792 0.78604
 C93 C 0.49920 0.49765 0.76803
 C94 C 0.47776 0.51580 0.78605
 C95 C 0.45692 0.53377 0.76761
 C96 C 0.45804 0.53497 0.73224
 C97 C 0.48001 0.51820 0.71387
 C98 C 0.50024 0.49875 0.73189
 C99 C 0.53975 0.45971 0.76761
 C100 C 0.54113 0.46117 0.73225
 C101 C 0.52115 0.48006 0.71384
 C102 C 0.52177 0.48106 0.67786
 C103 C 0.50217 0.50083 0.66051
 C104 C 0.48140 0.51935 0.67789
 H105 H 0.43899 0.54663 0.78032
 H106 H 0.44103 0.54880 0.71947
 H107 H 0.55487 0.44389 0.78032
 H108 H 0.55803 0.44722 0.71950
 H109 H 0.49494 0.49313 0.86695
 H110 H 0.50285 0.50157 0.63292
 C111 C 0.47398 -0.03989 0.82190
 C112 C 0.49317 0.00074 0.83875
 C113 C 0.51484 0.04057 0.82121
 C114 C 0.51687 0.04070 0.78535
 C115 C 0.49668 0.00026 0.76748
 C116 C 0.47472 -0.04017 0.78563
 C117 C 0.45114 -0.07938 0.76690
 C118 C 0.45199 -0.07932 0.73154
 C119 C 0.47548 -0.03994 0.71321
 C120 C 0.49724 0.00033 0.73128
 C121 C 0.53710 0.08024 0.76689
 C122 C 0.53794 0.08024 0.73154
 C123 C 0.51845 0.04071 0.71320
 C124 C 0.51817 0.04043 0.67720
 C125 C 0.49703 0.00042 0.65984
 C126 C 0.47603 -0.03963 0.67721
 H127 H 0.43045 -0.11063 0.77922
 H128 H 0.43298 -0.11054 0.71872
 H129 H 0.55187 0.11169 0.77957
 H130 H 0.55339 0.11169 0.71876
 H131 H 0.49360 0.00175 0.86633
 H132 H 0.49727 0.00047 0.63224
 O133 O 0.40299 0.65782 0.97047
 O134 O 0.40084 0.72938 0.96022
 C135 C 0.38021 0.74897 0.95482
 O136 O 0.34683 0.74184 0.97177
 O137 O 0.27440 0.66691 0.96144
 C138 C 0.25401 0.62610 0.95551
 O139 O 0.26076 0.59918 0.97161
 O140 O 0.33477 0.60266 0.96040
 C141 C 0.37546 0.62364 0.95431
 O142 O 0.40208 0.66983 1.03809
 O143 O 0.40363 0.74326 1.02789
 C144 C 0.37644 0.74872 1.04479
 O145 O 0.33560 0.72748 1.03932
 O146 O 0.26132 0.65432 1.02901
 C147 C 0.25504 0.62067 1.04521
 O148 O 0.27545 0.60106 1.03906
 O149 O 0.34771 0.60117 1.02783
 C150 C 0.38163 0.62902 1.04407
 Cr151 Cr 0.39992 0.69880 0.99918
 Cr152 Cr 0.30579 0.69647 1.00036
 Cr153 Cr 0.30591 0.60349 0.99972
 O154 O 0.33720 0.66623 0.99973
 O155 O 0.60316 0.33231 0.96083
 O156 O 0.59942 0.25821 0.97230
 C157 C 0.62639 0.25144 0.95644
 O158 O 0.66699 0.27131 0.96291
 O159 O 0.74185 0.34383 0.97315
 C160 C 0.74905 0.37722 0.95604
 O161 O 0.72954 0.39798 0.96126
 O162 O 0.65825 0.40054 0.97099
 C163 C 0.62425 0.37306 0.95469
 O164 O 0.60119 0.34519 1.02821
 O165 O 0.60071 0.27272 1.03970
 C166 C 0.62023 0.25233 1.04634
 O167 O 0.65409 0.25861 1.03058
 O168 O 0.72737 0.33305 1.04078
 C169 C 0.74853 0.37404 1.04599
 O170 O 0.74293 0.40104 1.02891
 O171 O 0.66966 0.39969 1.03868
 C172 C 0.62886 0.37913 1.04451
 Cr173 Cr 0.60361 0.30334 1.00028
 Cr174 Cr 0.69638 0.30294 1.00183
 Cr175 Cr 0.69882 0.39734 0.99998
 O176 O 0.66625 0.33452 1.00071
 O177 O 0.65807 0.40235 0.52770
 O178 O 0.73029 0.40206 0.53825
 C179 C 0.75040 0.38209 0.54427
 O180 O 0.74394 0.34852 0.52785
 O181 O 0.66980 0.27529 0.53849
 C182 C 0.62904 0.25434 0.54437
 O183 O 0.60180 0.26023 0.52795
 O184 O 0.60382 0.33380 0.53846
 C185 C 0.62439 0.37466 0.54423
 O186 O 0.66998 0.40069 0.46013
 O187 O 0.74397 0.40390 0.47065
 C188 C 0.75019 0.37689 0.45423
 O189 O 0.72993 0.33610 0.46026
 O190 O 0.65760 0.26121 0.47094
 C191 C 0.62385 0.25413 0.45455
 O192 O 0.60353 0.27394 0.46039
 O193 O 0.60193 0.34564 0.47090
 C194 C 0.62919 0.37962 0.45440
 Cr195 Cr 0.69935 0.39978 0.49919
 Cr196 Cr 0.69911 0.30650 0.49938
 Cr197 Cr 0.60523 0.30467 0.49942
 O198 O 0.66789 0.33698 0.49934
 O199 O 0.34486 0.59896 0.52880
 O200 O 0.27239 0.59912 0.53870
 C201 C 0.25197 0.61893 0.54407
 O202 O 0.25849 0.65227 0.52724
 O203 O 0.33228 0.72570 0.53813
 C204 C 0.37292 0.74674 0.54450
 O205 O 0.40058 0.74094 0.52866
 O206 O 0.39885 0.66756 0.53957
 C207 C 0.37843 0.62671 0.54538
 O208 O 0.33358 0.60042 0.46118
 O209 O 0.25928 0.59682 0.47101
 C210 C 0.25318 0.62361 0.45409
 O211 O 0.27345 0.66447 0.45974
 O212 O 0.34540 0.73961 0.47066
 C213 C 0.37953 0.74692 0.45477
 O214 O 0.39994 0.72735 0.46113
 O215 O 0.40152 0.65575 0.47204
 C216 C 0.37439 0.62176 0.45548
 Cr217 Cr 0.30376 0.60130 0.49992
 Cr218 Cr 0.30363 0.69431 0.49897
 Cr219 Cr 0.39775 0.69662 0.50034
 O220 O 0.33508 0.66410 0.49977
 C221 C 0.42509 0.57583 0.38531
 C222 C 0.39819 0.54116 0.36339
 C223 C 0.41651 0.52347 0.34197
 C224 C 0.46189 0.54047 0.34226
 C225 C 0.48872 0.57551 0.36401
 C226 C 0.47041 0.59316 0.38537
 C227 C 0.40627 0.59226 0.40905
 C228 C 0.39128 0.60584 0.42982
 H229 H 0.36305 0.52730 0.36333
 H230 H 0.39533 0.49604 0.32565
 H231 H 0.52374 0.58870 0.36474
 H232 H 0.49148 0.61978 0.40238
 C233 C 0.43134 0.84685 0.38575
 C234 C 0.40782 0.84760 0.35753
 C235 C 0.42573 0.88451 0.33633
 C236 C 0.46771 0.92125 0.34290
 C237 C 0.49086 0.91989 0.37155
 C238 C 0.47293 0.88297 0.39258
 C239 C 0.41225 0.81018 0.40886
 C240 C 0.39695 0.78063 0.42928
 H241 H 0.37526 0.82007 0.35233
 H242 H 0.40594 0.88499 0.31561
 H243 H 0.52325 0.94724 0.37747
 H244 H 0.49135 0.88284 0.41447
 C245 C 0.15442 0.57024 0.38448
 C246 C 0.15435 0.59192 0.35480
 C247 C 0.11760 0.57302 0.33350
 C248 C 0.08035 0.53191 0.34151
 C249 C 0.08115 0.51054 0.37152
 C250 C 0.11789 0.52944 0.39263
 C251 C 0.19085 0.59035 0.40765
 C252 C 0.22004 0.60614 0.42827
 H253 H 0.18227 0.62386 0.34851
 H254 H 0.11764 0.59148 0.31157
 H255 H 0.05346 0.47878 0.37851
 H256 H 0.11756 0.51241 0.41560
 C257 C 0.57691 0.42576 0.38577
 C258 C 0.53489 0.41745 0.39290
 C259 C 0.51549 0.43419 0.37177
 C260 C 0.53755 0.45917 0.34269
 C261 C 0.58013 0.46760 0.33596
 C262 C 0.59952 0.45084 0.35727
 C263 C 0.59693 0.40961 0.40864
 C264 C 0.61237 0.39593 0.42894
 H265 H 0.51715 0.39824 0.41499
 H266 H 0.48271 0.42677 0.37786
 H267 H 0.59911 0.48849 0.31493
 H268 H 0.63240 0.45806 0.35183
 C269 C 0.57186 0.15354 0.38625
 C270 C 0.59269 0.15420 0.35589
 C271 C 0.57423 0.11716 0.33481
 C272 C 0.53440 0.07888 0.34370
 C273 C 0.51405 0.07886 0.37451
 C274 C 0.53249 0.11586 0.39540
 C275 C 0.59131 0.19058 0.40895
 C276 C 0.60663 0.22032 0.42917
 H277 H 0.62356 0.18302 0.34880
 H278 H 0.59196 0.11794 0.31220
 H279 H 0.48324 0.05040 0.38223
 H280 H 0.51614 0.11492 0.41889
 C281 C 0.84908 0.42895 0.38467
 C282 C 0.84842 0.40747 0.35468
 C283 C 0.88517 0.42588 0.33337
 C284 C 0.92314 0.46625 0.34170
 C285 C 0.92302 0.48745 0.37199
 C286 C 0.88630 0.46906 0.39311
 C287 C 0.81261 0.40934 0.40784
 C288 C 0.78340 0.39396 0.42845
 H289 H 0.81992 0.37607 0.34816
 H290 H 0.88451 0.40756 0.31116
 H291 H 0.95121 0.51873 0.37920
 H292 H 0.88717 0.48593 0.41630
 C293 C 0.57777 0.42528 1.11413
 C294 C 0.60369 0.45789 1.13783
 C295 C 0.58472 0.47495 1.15922
 C296 C 0.53966 0.45938 1.15714
 C297 C 0.51382 0.42640 1.13354
 C298 C 0.53277 0.40937 1.11222
 C299 C 0.59730 0.40930 1.09064
 C300 C 0.61247 0.39571 1.07005
 H301 H 0.63858 0.47063 1.13935
 H302 H 0.60524 0.50085 1.17694
 H303 H 0.47909 0.41428 1.13141
 H304 H 0.51247 0.38431 1.09385
 C305 C 0.84871 0.42779 1.11447
 C306 C 0.84871 0.40713 1.14475
 C307 C 0.88566 0.42642 1.16584
 C308 C 0.92324 0.46694 1.15707
 C309 C 0.92255 0.48723 1.12639
 C310 C 0.88559 0.46794 1.10548
 C311 C 0.81181 0.40740 1.09172
 C312 C 0.78216 0.39145 1.07147
 H313 H 0.82052 0.37570 1.15172
 H314 H 0.88544 0.40861 1.18827
 H315 H 0.95040 0.51853 1.11875
 H316 H 0.88598 0.48420 1.08204
 C317 C 0.56449 0.15304 1.11582
 C318 C 0.52321 0.11709 1.10795
 C319 C 0.50368 0.08034 1.12918
 C320 C 0.52492 0.07892 1.15906
 C321 C 0.56648 0.11568 1.16679
 C322 C 0.58598 0.15241 1.14539
 C323 C 0.58530 0.18948 1.09255
 C324 C 0.60183 0.21884 1.07200
 H325 H 0.50628 0.11720 1.08508
 H326 H 0.47157 0.05318 1.12237
 H327 H 0.58496 0.11529 1.18852
 H328 H 0.61826 0.17984 1.15148
 C329 C 0.42926 0.57965 1.11407
 C330 C 0.40923 0.53396 1.11628
 C331 C 0.42664 0.51537 1.13763
 C332 C 0.46413 0.54229 1.15712
 C333 C 0.48397 0.58810 1.15510
 C334 C 0.46653 0.60671 1.13366
 C335 C 0.41260 0.59838 1.09040
 C336 C 0.39848 0.61294 1.06969
 H337 H 0.38058 0.51274 1.10107
 H338 H 0.41121 0.47999 1.13870
 H339 H 0.51326 0.60928 1.16966
 H340 H 0.48246 0.64210 1.13195
 C341 C 0.15613 0.56860 1.11483
 C342 C 0.12293 0.52451 1.11147
 C343 C 0.08603 0.50684 1.13248
 C344 C 0.08208 0.53310 1.15715
 C345 C 0.11572 0.57716 1.16072
 C346 C 0.15263 0.59481 1.13968
 C347 C 0.19234 0.58743 1.09141
 C348 C 0.22162 0.60287 1.07083
 H349 H 0.12516 0.50403 1.09216
 H350 H 0.06024 0.47289 1.12921
 H351 H 0.11290 0.59803 1.17930
 H352 H 0.17795 0.62906 1.14230
 C353 C 0.42311 0.84675 1.11525
 C354 C 0.39875 0.86674 1.12163
 C355 C 0.41541 0.90317 1.14309
 C356 C 0.45650 0.91982 1.15853
 C357 C 0.48072 0.89951 1.15236
 C358 C 0.46401 0.86302 1.13082
 C359 C 0.40691 0.81109 1.09134
 C360 C 0.39308 0.78209 1.07051
 H361 H 0.36723 0.85464 1.10953
 H362 H 0.39659 0.91880 1.14734
 H363 H 0.51274 0.91239 1.16375
 H364 H 0.48328 0.84802 1.12585
 C365 C 0.57742 0.42459 0.61421
 C366 C 0.59572 0.47014 0.61493
 C367 C 0.57812 0.48855 0.63625
 C368 C 0.54218 0.46159 0.65720
 C369 C 0.52410 0.41593 0.65661
 C370 C 0.54173 0.39751 0.63523
 C371 C 0.59403 0.40578 0.59059
 C372 C 0.60791 0.39099 0.56991
 H373 H 0.62313 0.49135 0.59859
 H374 H 0.59216 0.52378 0.63617
 H375 H 0.49595 0.39465 0.67226
 H376 H 0.52711 0.36221 0.63467
 C377 C 0.57746 0.15508 0.61393
 C378 C 0.53185 0.12729 0.61460
 C379 C 0.51260 0.09042 0.63574
 C380 C 0.53877 0.08109 0.65655
 C381 C 0.58450 0.10919 0.65602
 C382 C 0.60377 0.14612 0.63482
 C383 C 0.59699 0.19141 0.59053
 C384 C 0.61224 0.22079 0.56997
 H385 H 0.51122 0.13374 0.59839
 H386 H 0.47731 0.06886 0.63565
 H387 H 0.60516 0.10210 0.67162
 H388 H 0.63911 0.16722 0.63430
 C389 C 0.84799 0.43028 0.61506
 C390 C 0.85863 0.46712 0.63501
 C391 C 0.89515 0.48491 0.65655
 C392 C 0.92115 0.46587 0.65828
 C393 C 0.91002 0.42870 0.63854
 C394 C 0.87357 0.41095 0.61710
 C395 C 0.81232 0.41341 0.59114
 C396 C 0.78348 0.39912 0.57019
 H397 H 0.83922 0.48251 0.63346
 H398 H 0.90366 0.51390 0.67137
 H399 H 0.93000 0.41389 0.63941
 H400 H 0.86581 0.38263 0.60164
 C401 C 0.42571 0.57650 0.61489
 C402 C 0.40866 0.53115 0.61424
 C403 C 0.42634 0.51252 0.63528
 C404 C 0.46112 0.53905 0.65730
 C405 C 0.47796 0.58450 0.65808
 C406 C 0.46025 0.60314 0.63697
 C407 C 0.40902 0.59558 0.59158
 C408 C 0.39502 0.61044 0.57104
 H409 H 0.38216 0.51029 0.59709
 H410 H 0.41322 0.47747 0.63419
 H411 H 0.50518 0.60547 0.67462
 H412 H 0.47391 0.63831 0.63747
 C413 C 0.41929 0.84586 0.61392
 C414 C 0.40354 0.87464 0.61258
 C415 C 0.42144 0.91143 0.63375
 C416 C 0.45513 0.91969 0.65659
 C417 C 0.47060 0.89054 0.65806
 C418 C 0.45267 0.85371 0.63685
 C419 C 0.40260 0.80966 0.59051
 C420 C 0.38888 0.78033 0.56999
 H421 H 0.37794 0.86903 0.59479
 H422 H 0.40938 0.93377 0.63209
 H423 H 0.49701 0.89679 0.67520
 H424 H 0.46533 0.83184 0.63789
 C425 C 0.15279 0.57263 0.61337
 C426 C 0.12194 0.58520 0.60860
 C427 C 0.08579 0.56932 0.63017
 C428 C 0.08004 0.54099 0.65741
 C429 C 0.11112 0.52807 0.66168
 C430 C 0.14734 0.54400 0.63993
 C431 C 0.18907 0.58834 0.59013
 C432 C 0.21841 0.60207 0.56962
 H433 H 0.12567 0.60713 0.58799
 H434 H 0.06262 0.57992 0.62589
 H435 H 0.10665 0.50446 0.68108
 H436 H 0.17065 0.53344 0.64349
 C437 C 0.42166 0.57200 0.88517
 C438 C 0.40377 0.52649 0.88535
 C439 C 0.42119 0.50766 0.86427
 C440 C 0.45653 0.53416 0.84266
 C441 C 0.47422 0.57977 0.84240
 C442 C 0.45677 0.59859 0.86352
 C443 C 0.40524 0.59133 0.90845
 C444 C 0.39159 0.60665 0.92887
 H445 H 0.37681 0.50566 0.90218
 H446 H 0.40743 0.47249 0.86501
 H447 H 0.50192 0.60073 0.82624
 H448 H 0.47109 0.63387 0.86339
 C449 C 0.15374 0.57408 0.88698
 C450 C 0.11986 0.53076 0.89224
 C451 C 0.08328 0.51181 0.87093
 C452 C 0.08013 0.53562 0.84348
 C453 C 0.11429 0.57954 0.83877
 C454 C 0.15089 0.59848 0.86024
 C455 C 0.19041 0.59361 0.91000
 C456 C 0.22007 0.60894 0.93026
 H457 H 0.12155 0.51167 0.91303
 H458 H 0.05771 0.47806 0.87556
 H459 H 0.11203 0.59975 0.81922
 H460 H 0.17658 0.63235 0.85633
 C461 C 0.42448 0.84820 0.88561
 C462 C 0.44972 0.85193 0.85713
 C463 C 0.46552 0.88843 0.83564
 C464 C 0.45596 0.92164 0.84216
 C465 C 0.43073 0.91738 0.87117
 C466 C 0.41496 0.88092 0.89248
 C467 C 0.40930 0.81177 0.90869
 C468 C 0.39620 0.78242 0.92918
 H469 H 0.45784 0.82707 0.85188
 H470 H 0.48660 0.89145 0.81466
 H471 H 0.42244 0.94196 0.87709
 H472 H 0.39557 0.87843 0.91453
 C473 C 0.57405 0.42027 0.88507
 C474 C 0.52847 0.40077 0.88335
 C475 C 0.51000 0.41859 0.86228
 C476 C 0.53695 0.45596 0.84258
 C477 C 0.58264 0.47529 0.84419
 C478 C 0.60111 0.45743 0.86531
 C479 C 0.59282 0.40337 0.90848
 C480 C 0.60767 0.38939 0.92905
 H481 H 0.50725 0.37223 0.89872
 H482 H 0.47471 0.40355 0.86155
 H483 H 0.60388 0.50450 0.82949
 H484 H 0.63643 0.47300 0.86668
 C485 C 0.84753 0.42473 0.88594
 C486 C 0.85438 0.39660 0.86543
 C487 C 0.89106 0.41377 0.84409
 C488 C 0.92103 0.45920 0.84308
 C489 C 0.91377 0.48722 0.86343
 C490 C 0.87716 0.47007 0.88470
 C491 C 0.81154 0.40720 0.90962
 C492 C 0.78243 0.39324 0.93035
 H493 H 0.83184 0.36143 0.86639
 H494 H 0.89651 0.39171 0.82881
 H495 H 0.93680 0.52230 0.86313
 H496 H 0.87237 0.49210 0.90061
 C497 C 0.57444 0.15409 0.88545
 C498 C 0.52875 0.12732 0.88389
 C499 C 0.50936 0.09102 0.86222
 C500 C 0.53550 0.08129 0.84176
 C501 C 0.58131 0.10849 0.84308
 C502 C 0.60070 0.14484 0.86481
 C503 C 0.59407 0.18958 0.90953
 C504 C 0.60945 0.21834 0.93054
 H505 H 0.50815 0.13403 0.89990
 H506 H 0.47401 0.07008 0.86175
 H507 H 0.60192 0.10100 0.82783
 H508 H 0.63609 0.16515 0.86601
   
