data_POSCAR
  _audit_creation_date              2014-09-24
  _audit_creation_method            'ToBaCCo'
  _symmetry_space_group_name_H-M    'P1'
  _symmetry_Int_Tables_number       1
  _symmetry_cell_setting            triclinic
  loop_
  _symmetry_equiv_pos_as_xyz
 x,y,z
_cell_length_a 51.2658
_cell_length_b 51.1639
_cell_length_c 51.2989
_cell_angle_alpha 93.145700
_cell_angle_beta 91.141300
_cell_angle_gamma 93.880800
loop_
  _atom_site_label
  _atom_site_type_symbol
  _atom_site_fract_x
  _atom_site_fract_y
  _atom_site_fract_z
C1 C 0.27596 0.47732 1.00380
 C2 C 0.26426 0.50097 1.00036
 C3 C 0.27998 0.52395 0.99660
 C4 C 0.30727 0.52332 0.99655
 C5 C 0.31880 0.49962 0.99971
 C6 C 0.30319 0.47662 1.00320
 C7 C 0.23562 0.50166 1.00068
 C8 C 0.22219 0.49763 1.02387
 C9 C 0.19493 0.49852 1.02419
 C10 C 0.18106 0.50290 1.00121
 C11 C 0.19435 0.50666 0.97800
 C12 C 0.22164 0.50632 0.97778
 H13 H 0.26386 0.45951 1.00653
 H14 H 0.27095 0.54226 0.99413
 H15 H 0.23301 0.49419 1.04160
 H16 H 0.23194 0.50923 0.95980
 H17 H 0.33992 0.49903 0.99948
 H18 H 0.15993 0.50335 1.00134
 C19 C 0.72020 0.47704 0.00388
 C20 C 0.73586 0.49990 -0.00048
 C21 C 0.72410 0.52336 -0.00465
 C22 C 0.69684 0.52400 -0.00416
 C23 C 0.68131 0.50109 -0.00008
 C24 C 0.69293 0.47759 0.00381
 C25 C 0.76452 0.49927 -0.00064
 C26 C 0.77801 0.50259 -0.02392
 C27 C 0.80527 0.50173 -0.02408
 C28 C 0.81908 0.49809 -0.00087
 C29 C 0.80574 0.49505 0.02242
 C30 C 0.77845 0.49535 0.02250
 H31 H 0.72922 0.45885 0.00692
 H32 H 0.73614 0.54109 -0.00784
 H33 H 0.76723 0.50545 -0.04183
 H34 H 0.76811 0.49299 0.04054
 H35 H 0.66019 0.50155 0.00008
 H36 H 0.84022 0.49767 -0.00088
 C37 C 0.02359 0.22466 0.49978
 C38 C -0.00039 0.23636 0.50037
 C39 C -0.02383 0.22068 0.50147
 C40 C -0.02329 0.19338 0.50188
 C41 C 0.00066 0.18178 0.50137
 C42 C 0.02410 0.19737 0.50036
 C43 C -0.00095 0.26500 0.49987
 C44 C -0.00035 0.27708 0.47595
 C45 C -0.00097 0.30440 0.47550
 C46 C -0.00203 0.31960 0.49897
 C47 C -0.00255 0.30761 0.52285
 C48 C -0.00209 0.28031 0.52331
 H49 H 0.04172 0.23677 0.49898
 H50 H -0.04237 0.22970 0.50187
 H51 H 0.00050 0.26520 0.45785
 H52 H -0.00249 0.27099 0.54179
 H53 H 0.00107 0.16063 0.50174
 H54 H -0.00243 0.34077 0.49870
 C55 C 1.02397 0.77999 0.49717
 C56 C 1.00073 0.76423 0.49949
 C57 C 0.97675 0.77584 0.50119
 C58 C 0.97600 0.80309 0.50041
 C59 C 0.99923 0.81878 0.49827
 C60 C 1.02323 0.80729 0.49673
 C61 C 1.00151 0.73561 0.50013
 C62 C 0.99982 0.72353 0.52401
 C63 C 1.00068 0.69625 0.52460
 C64 C 1.00291 0.68105 0.50129
 C65 C 1.00443 0.69304 0.47744
 C66 C 1.00390 0.72032 0.47686
 H67 H 1.04250 0.77098 0.49597
 H68 H 0.95877 0.76368 0.50290
 H69 H 0.99802 0.73539 0.54199
 H70 H 1.00508 0.72963 0.45839
 H71 H 0.99858 0.83991 0.49783
 H72 H 1.00341 0.65990 0.50166
 C73 C 0.49545 0.02241 0.22327
 C74 C 0.50003 -0.00087 0.23538
 C75 C 0.50491 -0.02353 0.22003
 C76 C 0.50491 -0.02296 0.19277
 C77 C 0.50063 0.00037 0.18083
 C78 C 0.49604 0.02308 0.19604
 C79 C 0.49970 -0.00154 0.26404
 C80 C 0.47668 0.00300 0.27746
 C81 C 0.47633 0.00210 0.30469
 C82 C 0.49910 -0.00275 0.31858
 C83 C 0.52218 -0.00699 0.30534
 C84 C 0.52242 -0.00669 0.27807
 H85 H 0.49188 0.04000 0.23505
 H86 H 0.50823 -0.04160 0.22928
 H87 H 0.45905 0.00680 0.26670
 H88 H 0.54030 -0.00996 0.26781
 H89 H 0.50083 0.00084 0.15972
 H90 H 0.49888 -0.00318 0.33970
 C91 C 0.49518 0.02259 0.78017
 C92 C 0.49936 -0.00031 0.76490
 C93 C 0.50330 -0.02371 0.77706
 C94 C 0.50278 -0.02424 0.80433
 C95 C 0.49888 -0.00127 0.81946
 C96 C 0.49522 0.02215 0.80743
 C97 C 0.49957 0.00022 0.73625
 C98 C 0.52273 -0.00362 0.72282
 C99 C 0.52295 -0.00282 0.69558
 C100 C 0.49994 0.00125 0.68171
 C101 C 0.47674 0.00480 0.69496
 C102 C 0.47659 0.00457 0.72224
 H103 H 0.49232 0.04073 0.77085
 H104 H 0.50633 -0.04144 0.76526
 H105 H 0.54055 -0.00680 0.73358
 H106 H 0.45862 0.00733 0.73253
 H107 H 0.49869 -0.00156 0.84060
 H108 H 0.50007 0.00162 0.66058
 C109 C 0.29069 0.03854 0.46549
 H110 H 0.29152 0.05385 0.48096
 C111 C 0.30915 0.03922 0.44586
 H112 H 0.32421 0.05515 0.44612
 C113 C 0.27099 -0.00176 0.44707
 H114 H 0.25661 -0.01808 0.44808
 C115 C 0.28912 -0.00184 0.42708
 H116 H 0.28851 -0.01813 0.41262
 N117 N 0.27221 0.01819 0.46584
 C118 C 0.21271 0.04649 0.51778
 H119 H 0.21277 0.03169 0.53205
 C120 C 0.19448 0.06553 0.51932
 H121 H 0.18052 0.06551 0.53490
 C122 C 0.22986 0.06374 0.47917
 H123 H 0.24316 0.06247 0.46315
 C124 C 0.21189 0.08313 0.47998
 H125 H 0.21154 0.09690 0.46469
 Zn126 Zn 0.25084 0.01691 0.49542
 N127 N 0.22982 0.04584 0.49786
 C128 C 0.27461 0.03595 0.54434
 N129 N 0.27369 0.01678 0.52478
 C130 C 0.29060 -0.00259 0.52449
 C131 C 0.30934 -0.00330 0.54447
 C132 C 0.29313 0.03598 0.56475
 C133 C 0.20936 -0.01566 0.47355
 C134 C 0.19020 -0.03645 0.47204
 C135 C 0.20904 -0.05264 0.51109
 C136 C 0.22788 -0.03153 0.51187
 N137 N 0.22767 -0.01356 0.49326
 H138 H 0.26141 0.05152 0.54388
 H139 H 0.28972 -0.01730 0.50846
 H140 H 0.32290 -0.01866 0.54390
 H141 H 0.29403 0.05145 0.58009
 H142 H 0.20936 -0.00082 0.45932
 H143 H 0.17542 -0.03772 0.45655
 H144 H 0.20899 -0.06658 0.52623
 H145 H 0.24214 -0.02916 0.52776
 C146 C 0.19388 0.08383 0.50009
 C147 C 0.30854 0.01869 0.42667
 C148 C 0.18993 -0.05499 0.49109
 C149 C 0.31071 0.01621 0.56470
 C150 C 0.70931 0.00338 0.53300
 H151 H 0.71002 0.01741 0.51796
 C152 C 0.69078 0.00492 0.55247
 H153 H 0.67721 0.02026 0.55252
 C154 C 0.72541 -0.03446 0.55068
 H155 H 0.73850 -0.05014 0.54951
 C156 C 0.70710 -0.03364 0.57052
 H157 H 0.70628 -0.04857 0.58472
 N158 N 0.72614 -0.01608 0.53244
 C159 C 0.78949 0.01282 0.48407
 H160 H 0.78909 -0.00318 0.46934
 C161 C 0.80854 0.03357 0.48350
 H162 H 0.82285 0.03364 0.46824
 C163 C 0.77192 0.03182 0.52254
 H164 H 0.75801 0.03074 0.53805
 C165 C 0.79071 0.05296 0.52271
 H166 H 0.79109 0.06824 0.53822
 Zn167 Zn 0.74835 -0.01795 0.50353
 N168 N 0.77165 0.01232 0.50335
 C169 C 0.72746 -0.00181 0.45572
 N170 N 0.72639 -0.02081 0.47330
 C171 C 0.70775 -0.04110 0.47122
 C172 C 0.68897 -0.04266 0.45100
 C173 C 0.70904 -0.00263 0.43520
 C174 C 0.78685 -0.04628 0.52525
 C175 C 0.80511 -0.06524 0.52623
 C176 C 0.78682 -0.08526 0.48553
 C177 C 0.76883 -0.06591 0.48532
 N178 N 0.76930 -0.04685 0.50495
 H179 H 0.74195 0.01453 0.45809
 H180 H 0.70704 -0.05564 0.48578
 H181 H 0.67378 -0.05850 0.44989
 H182 H 0.70957 0.01295 0.42170
 H183 H 0.78711 -0.03059 0.54030
 H184 H 0.81943 -0.06424 0.54213
 H185 H 0.78685 -0.09996 0.46951
 H186 H 0.75517 -0.06561 0.46905
 C187 C 0.80924 0.05375 0.50306
 C188 C 0.68954 -0.01385 0.57128
 C189 C 0.80530 -0.08472 0.50604
 C190 C 0.68946 -0.02308 0.43301
 C191 C 0.46047 0.21060 1.04467
 H192 H 0.44534 0.20976 1.02959
 C193 C 0.45950 0.19224 1.06383
 H194 H 0.44349 0.17726 1.06361
 C195 C 0.50074 0.23008 1.06242
 H196 H 0.51719 0.24428 1.06127
 C197 C 0.50052 0.21204 1.08193
 H198 H 0.51671 0.21256 1.09589
 N199 N 0.48098 0.22888 1.04417
 C200 C 0.45444 0.28781 0.99343
 H201 H 0.46957 0.28725 0.97904
 C202 C 0.43560 0.30614 0.99213
 H203 H 0.43610 0.31969 0.97661
 C204 C 0.43607 0.27169 1.03200
 H205 H 0.43678 0.25871 1.04788
 C206 C 0.41684 0.28981 1.03145
 H207 H 0.40264 0.29060 1.04678
 Zn208 Zn 0.48292 0.24969 1.01486
 N209 N 0.45441 0.27112 1.01318
 C210 C 0.46431 0.22517 0.96595
 N211 N 0.48314 0.22615 0.98515
 C212 C 0.50221 0.20891 0.98474
 C213 C 0.50300 0.18981 0.96435
 C214 C 0.46436 0.20630 0.94516
 C215 C 0.51569 0.29141 1.03652
 C216 C 0.53652 0.31053 1.03762
 C217 C 0.55270 0.29053 0.99789
 C218 C 0.53156 0.27177 0.99753
 N219 N 0.51355 0.27259 1.01666
 H220 H 0.44896 0.23863 0.96697
 H221 H 0.51665 0.20985 1.00050
 H222 H 0.51814 0.17603 0.96432
 H223 H 0.44919 0.20540 0.93008
 H224 H 0.50082 0.29190 1.05118
 H225 H 0.53778 0.32576 1.05320
 H226 H 0.56664 0.29012 0.98230
 H227 H 0.52917 0.25712 0.98153
 C228 C 0.41679 0.30732 1.01143
 C229 C 0.47988 0.19275 1.08240
 C230 C 0.55505 0.31020 1.01799
 C231 C 0.48386 0.18843 0.94445
 C232 C 0.49583 0.78845 -0.04263
 H233 H 0.48155 0.78767 -0.02739
 C234 C 0.49444 0.80691 -0.06154
 H235 H 0.47897 0.82034 -0.06096
 C236 C 0.53416 0.77272 -0.06129
 H237 H 0.54996 0.75981 -0.06068
 C238 C 0.53351 0.79098 -0.08058
 H239 H 0.54871 0.79195 -0.09494
 N240 N 0.51548 0.77188 -0.04279
 C241 C 0.48669 0.70887 0.00504
 H242 H 0.50249 0.70969 0.01943
 C243 C 0.46610 0.68969 0.00587
 H244 H 0.46595 0.67570 0.02098
 C245 C 0.46798 0.72558 -0.03276
 H246 H 0.46910 0.73924 -0.04809
 C247 C 0.44699 0.70664 -0.03266
 H248 H 0.43186 0.70589 -0.04778
 Zn249 Zn 0.51715 0.75010 -0.01431
 N250 N 0.48724 0.72638 -0.01400
 C251 C 0.50004 0.77154 0.03425
 N252 N 0.51919 0.77266 0.01625
 C253 C 0.53918 0.79161 0.01829
 C254 C 0.54034 0.81061 0.03896
 C255 C 0.50048 0.79018 0.05524
 C256 C 0.54661 0.71148 -0.03690
 C257 C 0.56570 0.69328 -0.03803
 C258 C 0.58419 0.71268 0.00283
 C259 C 0.56474 0.73057 0.00321
 N260 N 0.54634 0.72949 -0.01640
 H261 H 0.48396 0.75679 0.03193
 H262 H 0.55384 0.79234 0.00341
 H263 H 0.55599 0.82599 0.04011
 H264 H 0.48484 0.78956 0.06914
 H265 H 0.53142 0.71073 -0.05191
 H266 H 0.56531 0.67852 -0.05403
 H267 H 0.59828 0.71309 0.01889
 H268 H 0.56378 0.74456 0.01965
 C269 C 0.44613 0.68850 -0.01320
 C270 C 0.51356 0.80834 -0.08054
 C271 C 0.58444 0.69367 -0.01781
 C272 C 0.52067 0.81002 0.05745
 C273 C 1.03470 0.46413 0.20936
 H274 H 1.01904 0.44881 0.20874
 C275 C 1.05433 0.46346 0.19092
 H276 H 1.05388 0.44752 0.17608
 C277 C 1.05361 0.50444 0.22854
 H278 H 1.05280 0.52076 0.24270
 C279 C 1.07361 0.50454 0.21041
 H280 H 1.08828 0.52083 0.21081
 N281 N 1.03459 0.48448 0.22758
 C282 C 0.98247 0.45586 0.28740
 H283 H 0.96829 0.47058 0.28720
 C284 C 0.98079 0.43676 0.30580
 H285 H 0.96521 0.43666 0.31976
 C286 C 1.02097 0.43885 0.27041
 H287 H 1.03700 0.44024 0.25710
 C288 C 1.02003 0.41941 0.28856
 H289 H 1.03523 0.40572 0.28903
 Zn290 Zn 1.00504 0.48564 0.24896
 N291 N 1.00239 0.45665 0.27027
 C292 C 0.95593 0.46638 0.22545
 N293 N 0.97561 0.48569 0.22618
 C294 C 0.97599 0.50512 0.20909
 C295 C 0.95600 0.50572 0.19035
 C296 C 0.93552 0.46624 0.20692
 C297 C 1.02730 0.51817 0.29005
 C298 C 1.02894 0.53882 0.30909
 C299 C 0.98991 0.55485 0.29026
 C300 C 0.98899 0.53389 0.27154
 N301 N 1.00752 0.51605 0.27181
 H302 H 0.95633 0.45078 0.23878
 H303 H 0.99212 0.51993 0.20983
 H304 H 0.95665 0.52110 0.17663
 H305 H 0.92009 0.45064 0.20615
 H306 H 1.04145 0.50342 0.29011
 H307 H 1.04447 0.54007 0.32383
 H308 H 0.97481 0.56867 0.29028
 H309 H 0.97304 0.53150 0.25734
 C310 C 0.99990 0.41856 0.30657
 C311 C 1.07378 0.48399 0.19127
 C312 C 1.00996 0.55719 0.30931
 C313 C 0.93566 0.48604 0.18915
 C314 C -0.03357 0.49373 0.79023
 H315 H -0.01870 0.47968 0.78962
 C316 C -0.05306 0.49209 0.80877
 H317 H -0.05333 0.47667 0.82243
 C318 C -0.05071 0.53173 0.77395
 H319 H -0.04929 0.54752 0.76081
 C320 C -0.07056 0.53082 0.79226
 H321 H -0.08454 0.54579 0.79301
 N322 N -0.03271 0.51332 0.77333
 C323 C 0.01578 0.48515 0.71041
 H324 H 0.03065 0.50122 0.71084
 C325 C 0.01626 0.46462 0.69142
 H326 H 0.03160 0.46479 0.67719
 C327 C -0.02300 0.46578 0.72780
 H328 H -0.03858 0.46664 0.74162
 C329 C -0.02326 0.44484 0.70906
 H330 H -0.03893 0.42951 0.70863
 Zn331 Zn -0.00368 0.51546 0.75122
 N332 N -0.00362 0.48537 0.72812
 C333 C 0.04401 0.49947 0.77238
 N334 N 0.02653 0.51837 0.77324
 C335 C 0.02871 0.53860 0.79168
 C336 C 0.04894 0.54023 0.81047
 C337 C 0.06454 0.50037 0.79082
 C338 C -0.02510 0.54393 0.71253
 C339 C -0.02591 0.56302 0.69418
 C340 C 0.01494 0.58314 0.71240
 C341 C 0.01498 0.56366 0.73049
 N342 N -0.00481 0.54449 0.73010
 H343 H 0.04157 0.48318 0.75805
 H344 H 0.01424 0.55305 0.79222
 H345 H 0.05013 0.55603 0.82548
 H346 H 0.07795 0.48488 0.79046
 H347 H -0.04028 0.52816 0.71234
 H348 H -0.04182 0.56203 0.67986
 H349 H 0.03108 0.59794 0.71231
 H350 H 0.03124 0.56337 0.74416
 C351 C -0.00351 0.44437 0.69064
 C352 C -0.07160 0.51092 0.80993
 C353 C -0.00557 0.58261 0.69392
 C354 C 0.06683 0.52077 0.81019
 C355 C 0.09188 0.15890 0.49990
 C356 C 0.10846 0.16176 0.47549
 C357 C 0.12997 0.14747 0.47550
 C358 C 0.13276 0.13173 0.49993
 C359 C 0.10685 0.11503 0.50120
 C360 C 0.08540 0.12929 0.50119
 C361 C 0.11089 0.16635 0.52304
 C362 C 0.13240 0.15206 0.52306
 C363 C 0.06842 0.17380 0.49993
 C364 C 0.04852 0.18506 0.50006
 C365 C 0.15554 0.11586 0.49997
 C366 C 0.17348 0.10180 0.50002
 H367 H 0.10375 0.17397 0.45963
 H368 H 0.14370 0.14743 0.45966
 H369 H 0.10547 0.09382 0.50205
 H370 H 0.06565 0.12029 0.50201
 H371 H 0.10775 0.18155 0.53805
 H372 H 0.14770 0.15500 0.53807
 C373 C 0.65865 0.59136 -0.01140
 C374 C 0.64658 0.60017 0.01449
 C375 C 0.63248 0.62166 0.01284
 C376 C 0.63181 0.63227 -0.01456
 C377 C 0.62145 0.60884 -0.03268
 C378 C 0.63555 0.58735 -0.03102
 C379 C 0.67477 0.61570 -0.01993
 C380 C 0.66063 0.63724 -0.02159
 C381 C 0.67338 0.56793 -0.00939
 C382 C 0.68457 0.54814 -0.00727
 C383 C 0.61613 0.65510 -0.01615
 C384 C 0.60222 0.67312 -0.01710
 H385 H 0.64894 0.59041 0.03258
 H386 H 0.62277 0.63030 0.02950
 H387 H 0.60454 0.60912 -0.04572
 H388 H 0.63071 0.56923 -0.04264
 H389 H 0.69542 0.61598 -0.02428
 H390 H 0.66917 0.65599 -0.02736
 C391 C 0.90792 -0.15897 0.50313
 C392 C 0.88821 -0.16758 0.52367
 C393 C 0.86654 -0.15348 0.52428
 C394 C 0.86677 -0.13220 0.50430
 C395 C 0.87058 -0.14675 0.47782
 C396 C 0.89223 -0.16083 0.47721
 C397 C 0.91403 -0.12949 0.50934
 C398 C 0.89243 -0.11544 0.50996
 C399 C 0.93152 -0.17365 0.50239
 C400 C 0.95152 -0.18476 0.50160
 C401 C 0.84383 -0.11654 0.50493
 C402 C 0.82579 -0.10259 0.50543
 H403 H 0.89100 -0.18335 0.53654
 H404 H 0.85077 -0.15718 0.53769
 H405 H 0.85741 -0.14610 0.46107
 H406 H 0.89760 -0.17225 0.45992
 H407 H 0.93363 -0.12044 0.51297
 H408 H 0.89354 -0.09435 0.51412
 C409 C 0.34156 0.40911 1.00838
 C410 C 0.33832 0.39474 1.03375
 C411 C 0.35264 0.37326 1.03473
 C412 C 0.36876 0.36832 1.01025
 C413 C 0.38538 0.39404 1.00736
 C414 C 0.37111 0.41544 1.00639
 C415 C 0.33456 0.38811 0.98636
 C416 C 0.34887 0.36666 0.98734
 C417 C 0.32666 0.43251 1.00711
 C418 C 0.31542 0.45234 1.00559
 C419 C 0.38465 0.34558 1.01111
 C420 C 0.39876 0.32768 1.01145
 H421 H 0.32586 0.40084 1.04950
 H422 H 0.35245 0.36097 1.05132
 H423 H 0.40655 0.39533 1.00620
 H424 H 0.38006 0.43506 1.00439
 H425 H 0.31965 0.38991 0.97137
 H426 H 0.34621 0.35007 0.97319
 C427 C 0.91029 0.14387 0.50329
 C428 C 0.89735 0.14271 0.52997
 C429 C 0.87620 0.12506 0.53015
 C430 C 0.87009 0.11033 0.50361
 C431 C 0.89554 0.09794 0.49618
 C432 C 0.91664 0.11554 0.49601
 C433 C 0.88826 0.14952 0.48411
 C434 C 0.86711 0.13187 0.48428
 C435 C 0.93332 0.16248 0.50301
 C436 C 0.95282 0.17699 0.50259
 C437 C 0.84763 0.09099 0.50370
 C438 C 0.82978 0.07438 0.50353
 H439 H 0.90416 0.15472 0.54719
 H440 H 0.86489 0.12195 0.54751
 H441 H 0.89687 0.07713 0.49146
 H442 H 0.93604 0.10981 0.49114
 H443 H 0.88918 0.16594 0.47155
 H444 H 0.84990 0.13317 0.47187
 C445 C 0.35591 0.58791 -0.00932
 C446 C 0.35464 0.60822 0.01371
 C447 C 0.37231 0.62923 0.01248
 C448 C 0.38950 0.62787 -0.01165
 C449 C 0.37019 0.62442 -0.03507
 C450 C 0.35251 0.60338 -0.03384
 C451 C 0.38444 0.58057 -0.00951
 C452 C 0.40207 0.60155 -0.01073
 C453 C 0.33728 0.56502 -0.00776
 C454 C 0.32279 0.54568 -0.00597
 C455 C 0.40886 0.65022 -0.01275
 C456 C 0.42550 0.66800 -0.01319
 H457 H 0.34103 0.60629 0.02954
 H458 H 0.37383 0.64531 0.02727
 H459 H 0.37037 0.63736 -0.05115
 H460 H 0.33754 0.59830 -0.04886
 H461 H 0.39029 0.56061 -0.00877
 H462 H 0.42302 0.59956 -0.01104
 C463 C 0.08825 -0.14418 0.49325
 C464 C 0.08128 -0.11546 0.49421
 C465 C 0.10244 -0.09798 0.49350
 C466 C 0.12856 -0.11089 0.49189
 C467 C 0.12554 -0.13013 0.46779
 C468 C 0.10433 -0.14765 0.46851
 C469 C 0.10784 -0.14580 0.51604
 C470 C 0.12904 -0.12829 0.51532
 C471 C 0.06519 -0.16268 0.49416
 C472 C 0.04571 -0.17714 0.49522
 C473 C 0.15112 -0.09173 0.49126
 C474 C 0.16912 -0.07531 0.49103
 H475 H 0.06143 -0.10936 0.49535
 H476 H 0.10072 -0.07692 0.49402
 H477 H 0.13890 -0.13002 0.45163
 H478 H 0.09951 -0.16255 0.45296
 H479 H 0.10531 -0.15951 0.53135
 H480 H 0.14467 -0.12700 0.53002
 C481 C 0.64382 0.41175 1.01152
 C482 C 0.64087 0.39402 0.98637
 C483 C 0.62347 0.37289 0.98815
 C484 C 0.61070 0.37156 1.01490
 C485 C 0.59859 0.39800 1.01945
 C486 C 0.61599 0.41911 1.01768
 C487 C 0.65107 0.39352 1.03294
 C488 C 0.63363 0.37236 1.03472
 C489 C 0.66222 0.43473 1.00938
 C490 C 0.67661 0.45405 1.00711
 C491 C 0.59163 0.34905 1.01657
 C492 C 0.57529 0.33105 1.01747
 H493 H 0.65156 0.39769 0.96874
 H494 H 0.61925 0.35848 0.97203
 H495 H 0.57814 0.39998 1.02373
 H496 H 0.61042 0.43916 1.02044
 H497 H 0.66835 0.39692 1.04557
 H498 H 0.63597 0.35763 1.04887
 C499 C 0.48769 0.09022 1.15716
 C500 C 0.48024 0.08355 1.12833
 C501 C 0.47825 0.10503 1.11409
 C502 C 0.48389 0.13113 1.13004
 C503 C 0.51113 0.12933 1.14251
 C504 C 0.51312 0.10783 1.15676
 C505 C 0.46697 0.10841 1.16713
 C506 C 0.46497 0.12995 1.15285
 C507 C 0.49007 0.06681 1.17208
 C508 C 0.49252 0.04709 1.18346
 C509 C 0.48195 0.15399 1.11422
 C510 C 0.48079 0.17207 1.10024
 H511 H 0.47680 0.06368 1.11984
 H512 H 0.47309 0.10354 1.09341
 H513 H 0.52740 0.14371 1.14038
 H514 H 0.53111 0.10379 1.16684
 H515 H 0.45497 0.10471 1.18391
 H516 H 0.45125 0.14472 1.15739
 C517 C -0.00214 0.65796 0.59123
 C518 C -0.02122 0.66751 0.61181
 C519 C -0.02193 0.65316 0.63347
 C520 C -0.00348 0.63071 0.63237
 C521 C 0.02364 0.64386 0.62742
 C522 C 0.02434 0.65819 0.60578
 C523 C -0.01050 0.62884 0.58539
 C524 C -0.01121 0.61453 0.60698
 C525 C -0.00132 0.67293 0.56764
 C526 C -0.00047 0.68431 0.54768
 C527 C -0.00422 0.61479 0.65531
 C528 C -0.00482 0.60067 0.67337
 H529 H -0.03308 0.68407 0.60958
 H530 H -0.03439 0.65743 0.64980
 H531 H 0.04075 0.64213 0.63984
 H532 H 0.04207 0.66874 0.59967
 H533 H -0.01547 0.62019 0.56597
 H534 H -0.01678 0.59364 0.60605
 C535 C 0.50907 0.90994 -0.15695
 C536 C 0.53306 0.89430 -0.16258
 C537 C 0.53440 0.87289 -0.14799
 C538 C 0.51162 0.86928 -0.12924
 C539 C 0.48681 0.86854 -0.14660
 C540 C 0.48547 0.88992 -0.16117
 C541 C 0.51051 0.91666 -0.12742
 C542 C 0.51185 0.89532 -0.11288
 C543 C 0.50738 0.93324 -0.17215
 C544 C 0.50547 0.95297 -0.18366
 C545 C 0.51284 0.84660 -0.11307
 C546 C 0.51339 0.82872 -0.09877
 H547 H 0.54766 0.89954 -0.17678
 H548 H 0.55015 0.85978 -0.14969
 H549 H 0.47167 0.85260 -0.14743
 H550 H 0.46918 0.89229 -0.17449
 H551 H 0.51050 0.93647 -0.11868
 H552 H 0.51299 0.89687 -0.09168
 C553 C 0.99964 0.34289 0.40900
 C554 C 0.99646 0.37217 0.41515
 C555 C 0.99652 0.38658 0.39363
 C556 C 0.99976 0.37034 0.36800
 C557 C 0.97766 0.34850 0.36752
 C558 C 0.97760 0.33405 0.38909
 C559 C 1.02494 0.34194 0.39356
 C560 C 1.02501 0.35639 0.37199
 C561 C 0.99954 0.32782 0.43251
 C562 C 0.99935 0.31638 0.45244
 C563 C 0.99981 0.38636 0.34514
 C564 C 0.99985 0.40051 0.32711
 H565 H 0.99434 0.38085 0.43472
 H566 H 0.99444 0.40759 0.39479
 H567 H 0.96336 0.34468 0.35163
 H568 H 0.96325 0.31786 0.39169
 H569 H 1.04133 0.33087 0.39905
 H570 H 1.04144 0.35769 0.35899
 C571 C 0.51352 0.91145 0.14467
 C572 C 0.51742 0.91877 0.11634
 C573 C 0.51939 0.89769 0.09929
 C574 C 0.51727 0.87131 0.11221
 C575 C 0.49126 0.87093 0.12655
 C576 C 0.48929 0.89203 0.14361
 C577 C 0.53654 0.89496 0.15100
 C578 C 0.53851 0.87383 0.13391
 C579 C 0.51112 0.93437 0.16270
 C580 C 0.50859 0.95363 0.17680
 C581 C 0.51913 0.84882 0.09350
 C582 C 0.52011 0.83084 0.07742
 H583 H 0.51857 0.93878 0.11020
 H584 H 0.52223 0.89966 0.07855
 H585 H 0.47578 0.85543 0.12361
 H586 H 0.47212 0.89460 0.15528
 H587 H 0.55006 0.89947 0.16744
 H588 H 0.55373 0.86023 0.13570
 C589 C -0.00396 0.35595 0.58938
 C590 C -0.01308 0.38289 0.58304
 C591 C -0.01324 0.40012 0.60421
 C592 C -0.00426 0.38876 0.62969
 C593 C 0.02284 0.37902 0.62401
 C594 C 0.02299 0.36177 0.60281
 C595 C -0.02201 0.34650 0.61099
 C596 C -0.02217 0.36377 0.63221
 C597 C -0.00369 0.33776 0.56629
 C598 C -0.00327 0.32359 0.54676
 C599 C -0.00431 0.40770 0.65222
 C600 C -0.00409 0.42402 0.67009
 H601 H -0.01893 0.38799 0.56361
 H602 H -0.01923 0.41997 0.60290
 H603 H 0.04035 0.38510 0.63563
 H604 H 0.04064 0.35307 0.59628
 H605 H -0.03361 0.32790 0.60974
 H606 H -0.03390 0.35997 0.64916
 C607 C 0.48833 0.08791 0.85576
 C608 C 0.49124 0.08115 0.88440
 C609 C 0.48982 0.10213 0.90168
 C610 C 0.48562 0.12786 0.88868
 C611 C 0.46087 0.12202 0.87141
 C612 C 0.46230 0.10098 0.85408
 C613 C 0.50950 0.11003 0.85219
 C614 C 0.50807 0.13104 0.86950
 C615 C 0.49013 0.06504 0.83753
 C616 C 0.49216 0.04573 0.82336
 C617 C 0.48435 0.15020 0.90768
 C618 C 0.48384 0.16797 0.92406
 H619 H 0.49415 0.06158 0.89059
 H620 H 0.49151 0.10051 0.92266
 H621 H 0.44378 0.13340 0.87265
 H622 H 0.44643 0.09434 0.84048
 H623 H 0.52426 0.10929 0.83733
 H624 H 0.52161 0.14830 0.86947
 C625 C 1.00799 0.64483 0.41104
 C626 C 1.02946 0.65240 0.39184
 C627 C 1.03014 0.63524 0.37059
 C628 C 1.00930 0.61223 0.37067
 C629 C 0.98319 0.62502 0.37338
 C630 C 0.98250 0.64217 0.39461
 C631 C 1.01297 0.61676 0.41793
 C632 C 1.01366 0.59964 0.39673
 C633 C 1.00711 0.66293 0.43414
 C634 C 1.00606 0.67706 0.45363
 C635 C 1.00990 0.59343 0.34808
 C636 C 1.01008 0.57727 0.33009
 H637 H 1.04289 0.66971 0.39467
 H638 H 1.04417 0.63784 0.35520
 H639 H 0.96671 0.62102 0.35980
 H640 H 0.96543 0.65285 0.39921
 H641 H 1.01574 0.61084 0.43775
 H642 H 1.01702 0.57906 0.39840
 C643 C 1.15331 0.49129 0.08958
 C644 C 1.15763 0.51485 0.10940
 C645 C 1.14231 0.51307 0.13073
 C646 C 1.12418 0.48789 0.13014
 C647 C 1.14237 0.46538 0.12660
 C648 C 1.15771 0.46717 0.10524
 C649 C 1.12390 0.48940 0.08296
 C650 C 1.10861 0.48762 0.10425
 C651 C 1.16939 0.49341 0.06636
 C652 C 1.18177 0.49559 0.04676
 C653 C 1.10726 0.48614 0.15279
 C654 C 1.09246 0.48501 0.17073
 H655 H 1.17154 0.53144 0.10694
 H656 H 1.14309 0.52813 0.14654
 H657 H 1.14316 0.44949 0.13970
 H658 H 1.17165 0.45281 0.10005
 H659 H 1.11579 0.48944 0.06325
 H660 H 1.08740 0.48613 0.10277
 C661 C 0.58917 -0.00908 0.65255
 C662 C 0.60108 -0.03585 0.65178
 C663 C 0.62217 -0.03717 0.63607
 C664 C 0.62924 -0.01159 0.62270
 C665 C 0.63298 0.00963 0.64506
 C666 C 0.61190 0.01095 0.66076
 C667 C 0.58305 -0.00415 0.62390
 C668 C 0.60408 -0.00547 0.60824
 C669 C 0.56620 -0.00744 0.66900
 C670 C 0.54676 -0.00560 0.68162
 C671 C 0.65160 -0.01282 0.60539
 C672 C 0.66929 -0.01347 0.59028
 H673 H 0.59365 -0.05228 0.66264
 H674 H 0.63281 -0.05473 0.63347
 H675 H 0.65064 0.02244 0.64830
 H676 H 0.61151 0.02489 0.67746
 H677 H 0.56385 -0.00001 0.61655
 H678 H 0.60287 -0.00244 0.58748
 C679 C -0.15253 0.50688 0.91070
 C680 C -0.13679 0.53332 0.90904
 C681 C -0.12117 0.53441 0.88789
 C682 C -0.12282 0.50895 0.87046
 C683 C -0.15200 0.50357 0.86331
 C684 C -0.16764 0.50248 0.88450
 C685 C -0.13206 0.48632 0.90991
 C686 C -0.11647 0.48741 0.88879
 C687 C -0.16891 0.50551 0.93377
 C688 C -0.18147 0.50395 0.95331
 C689 C -0.10558 0.50998 0.84801
 C690 C -0.09053 0.51054 0.83025
 H691 H -0.13786 0.54976 0.92319
 H692 H -0.10887 0.55178 0.88393
 H693 H -0.15968 0.50089 0.84340
 H694 H -0.18873 0.49886 0.88275
 H695 H -0.13001 0.47212 0.92466
 H696 H -0.10107 0.47414 0.88545
 C697 C 0.41000 0.01051 0.34712
 C698 C 0.39047 -0.01364 0.34448
 C699 C 0.36922 -0.01160 0.35982
 C700 C 0.36959 0.01439 0.37631
 C701 C 0.37260 0.03585 0.35658
 C702 C 0.39388 0.03381 0.34122
 C703 C 0.41688 0.01414 0.37640
 C704 C 0.39567 0.01618 0.39172
 C705 C 0.43312 0.00810 0.33100
 C706 C 0.45260 0.00563 0.31858
 C707 C 0.34700 0.01638 0.39324
 C708 C 0.32908 0.01763 0.40802
 H709 H 0.39306 -0.03080 0.33163
 H710 H 0.35362 -0.02702 0.36012
 H711 H 0.35921 0.05125 0.35482
 H712 H 0.39872 0.04746 0.32629
 H713 H 0.43671 0.01507 0.38441
 H714 H 0.39733 0.01884 0.41285
 C715 C 0.14969 0.51471 0.91191
 C716 C 0.12234 0.52297 0.91883
 C717 C 0.10629 0.52476 0.89764
 C718 C 0.11912 0.51812 0.87155
 C719 C 0.12882 0.49063 0.87417
 C720 C 0.14489 0.48884 0.89538
 C721 C 0.16014 0.53476 0.89278
 C722 C 0.14404 0.53656 0.87153
 C723 C 0.16661 0.51251 0.93497
 C724 C 0.17969 0.51014 0.95438
 C725 C 0.10142 0.51976 0.84897
 C726 C 0.08607 0.52054 0.83096
 H727 H 0.11613 0.52710 0.93866
 H728 H 0.08633 0.53042 0.89933
 H729 H 0.12358 0.47404 0.86053
 H730 H 0.15341 0.47072 0.89990
 H731 H 0.17853 0.54648 0.89566
 H732 H 0.14863 0.54982 0.85620
 C733 C 0.58796 -0.01605 0.35009
 C734 C 0.58106 -0.01783 0.37894
 C735 C 0.60217 -0.01987 0.39502
 C736 C 0.62818 -0.01993 0.38072
 C737 C 0.62952 0.00524 0.36569
 C738 C 0.60838 0.00728 0.34959
 C739 C 0.60307 -0.04038 0.34350
 C740 C 0.62425 -0.04242 0.35963
 C741 C 0.56498 -0.01355 0.33315
 C742 C 0.54566 -0.01088 0.32004
 C743 C 0.65070 -0.02182 0.39843
 C744 C 0.66868 -0.02274 0.41379
 H745 H 0.56129 -0.01755 0.38612
 H746 H 0.60048 -0.02134 0.41596
 H747 H 0.64568 0.02012 0.36749
 H748 H 0.60643 0.02391 0.33761
 H749 H 0.59764 -0.05469 0.32758
 H750 H 0.63696 -0.05849 0.35753
 C751 C 0.85081 0.48906 0.08864
 C752 C 0.84470 0.50791 0.11169
 C753 C 0.86111 0.50678 0.13279
 C754 C 0.88200 0.48691 0.12874
 C755 C 0.89601 0.49475 0.10390
 C756 C 0.87964 0.49587 0.08285
 C757 C 0.85024 0.46185 0.09992
 C758 C 0.86666 0.46071 0.12103
 C759 C 0.83360 0.49054 0.06566
 C760 C 0.82039 0.49231 0.04621
 C761 C 0.90010 0.48595 0.15113
 C762 C 0.91586 0.48571 0.16885
 H763 H 0.82884 0.52094 0.11149
 H764 H 0.85931 0.51884 0.15066
 H765 H 0.91700 0.49903 0.10291
 H766 H 0.88661 0.50112 0.06385
 H767 H 0.83800 0.44499 0.09206
 H768 H 0.86849 0.44289 0.13126
 C769 C 0.41086 0.01189 0.64974
 C770 C 0.41813 0.01362 0.62099
 C771 C 0.39717 0.01507 0.60457
 C772 C 0.37093 0.01464 0.61846
 C773 C 0.37408 0.03732 0.63941
 C774 C 0.39511 0.03587 0.65589
 C775 C 0.39091 -0.01185 0.65013
 C776 C 0.36992 -0.01040 0.63369
 C777 C 0.43374 0.01005 0.66700
 C778 C 0.45309 0.00796 0.68025
 C779 C 0.34863 0.01591 0.60033
 C780 C 0.33096 0.01636 0.58453
 H781 H 0.43803 0.01374 0.61412
 H782 H 0.39913 0.01642 0.58364
 H783 H 0.36096 0.05308 0.64118
 H784 H 0.40001 0.05039 0.67176
 H785 H 0.39305 -0.02831 0.66230
 H786 H 0.35407 -0.02562 0.63177
   
