data_POSCAR
  _audit_creation_date              2014-09-24
  _audit_creation_method            'ToBaCCo'
  _symmetry_space_group_name_H-M    'P1'
  _symmetry_Int_Tables_number       1
  _symmetry_cell_setting            triclinic
  loop_
  _symmetry_equiv_pos_as_xyz
 x,y,z
_cell_length_a 31.0721
_cell_length_b 31.0497
_cell_length_c 72.3878
_cell_angle_alpha 83.228800
_cell_angle_beta 93.555100
_cell_angle_gamma 120.209400
loop_
  _atom_site_label
  _atom_site_type_symbol
  _atom_site_fract_x
  _atom_site_fract_y
  _atom_site_fract_z
C1 C 0.00373 0.10583 0.52205
 H2 H 0.03843 0.10578 0.52153
 C3 C 0.00047 0.13875 0.53260
 H4 H 0.03271 0.16344 0.54044
 C5 C -0.08039 0.07321 0.51241
 H6 H -0.11144 0.04808 0.50426
 C7 C -0.08536 0.10560 0.52289
 H8 H -0.12045 0.10515 0.52274
 N9 N -0.03629 0.07390 0.51226
 C10 C -0.00648 -0.04588 0.50517
 H11 H -0.00412 -0.04291 0.49018
 C12 C -0.00581 -0.08588 0.51601
 H13 H -0.00271 -0.11348 0.50923
 C14 C -0.01733 -0.01555 0.53204
 H15 H -0.02341 0.01093 0.53822
 C16 C -0.01681 -0.05486 0.54338
 H17 H -0.02114 -0.05730 0.55826
 Zn18 Zn -0.02432 0.03444 0.49770
 N19 N -0.01277 -0.01209 0.51328
 C20 C 0.07403 0.07747 0.48290
 N21 N 0.03142 0.07974 0.48278
 C22 C 0.02747 0.11717 0.47252
 C23 C 0.06717 0.15421 0.46168
 C24 C 0.11483 0.11388 0.47219
 C25 C -0.12162 -0.04117 0.49084
 C26 C -0.15993 -0.07610 0.48036
 C27 C -0.11133 -0.03187 0.45268
 C28 C -0.07398 0.00188 0.46375
 N29 N -0.07935 -0.00372 0.48248
 H30 H 0.07668 0.04792 0.49146
 H31 H -0.00674 0.11825 0.47285
 H32 H 0.06291 0.18330 0.45345
 H33 H 0.14875 0.11203 0.47260
 H34 H -0.12485 -0.04497 0.50582
 H35 H -0.19300 -0.10429 0.48782
 H36 H -0.10281 -0.02698 0.43809
 H37 H -0.03951 0.03094 0.45737
 C38 C -0.01208 -0.09131 0.53536
 C39 C -0.04438 0.13920 0.53305
 C40 C -0.15518 -0.07326 0.46081
 C41 C 0.11172 0.15308 0.46148
 C42 C 1.14494 0.06354 0.14148
 H43 H 1.14587 0.09895 0.14103
 C44 C 1.17924 0.05988 0.13123
 H45 H 1.20602 0.09256 0.12267
 C46 C 1.10829 -0.02205 0.15317
 H47 H 1.08098 -0.05357 0.16197
 C48 C 1.14199 -0.02744 0.14307
 H49 H 1.14035 -0.06332 0.14418
 N50 N 1.11030 0.02295 0.15209
 C51 C 0.99008 0.05400 0.15735
 H52 H 0.98976 0.05491 0.17224
 C53 C 0.95192 0.05476 0.14630
 H54 H 0.92248 0.05653 0.15280
 C55 C 1.02654 0.04601 0.13110
 H56 H 1.05456 0.04077 0.12530
 C57 C 0.98922 0.04674 0.11955
 H58 H 0.98988 0.04348 0.10486
 Zn59 Zn 1.06833 0.03476 0.16591
 N60 N 1.02587 0.04879 0.14968
 C61 C 1.10886 0.13186 0.17877
 N62 N 1.11073 0.08882 0.17975
 C63 C 1.14545 0.08295 0.19033
 C64 C 1.17992 0.12101 0.20067
 C65 C 1.14274 0.17105 0.18896
 C66 C 0.98986 -0.06303 0.17449
 C67 C 0.95178 -0.10197 0.18556
 C68 C 0.98980 -0.05615 0.21229
 C69 C 1.02702 -0.01811 0.20072
 N70 N 1.02596 -0.02179 0.18214
 H71 H 1.08147 0.13601 0.16999
 H72 H 1.14625 0.04842 0.19071
 H73 H 1.20672 0.11514 0.20922
 H74 H 1.14116 0.20530 0.18794
 H75 H 0.98924 -0.06446 0.15961
 H76 H 0.92209 -0.13338 0.17907
 H77 H 0.99078 -0.05204 0.22698
 H78 H 1.05529 0.01534 0.20651
 C79 C 0.95049 0.04978 0.12719
 C80 C 1.17822 0.01400 0.13198
 C81 C 0.95075 -0.09816 0.20466
 C82 C 1.17900 0.16588 0.20004
 C83 C 0.01895 0.90648 0.86202
 H84 H -0.01500 0.87088 0.86129
 C85 C 0.05796 0.90945 0.87341
 H86 H 0.05384 0.87577 0.88134
 C87 C 0.06583 0.99309 0.85187
 H88 H 0.06879 1.02537 0.84327
 C89 C 0.10599 0.99776 0.86310
 H90 H 0.13945 1.03402 0.86327
 N91 N 0.02331 0.94793 0.85166
 C92 C -0.12948 0.91488 0.84223
 H93 H -0.13202 0.91590 0.82722
 C94 C -0.16824 0.91107 0.85240
 H95 H -0.20106 0.90688 0.84487
 C96 C -0.08290 0.91927 0.86975
 H97 H -0.04870 0.92479 0.87643
 C98 C -0.12076 0.91520 0.88049
 H99 H -0.11369 0.91824 0.89522
 Zn100 Zn -0.03177 0.93731 0.83623
 N101 N -0.08753 0.91977 0.85096
 C102 C -0.08699 0.84253 0.82106
 N103 N -0.04292 0.88615 0.82160
 C104 C -0.00244 0.89468 0.81218
 C105 C -0.00518 0.85874 0.80159
 C106 C -0.09144 0.80539 0.81054
 C107 C -0.01388 1.03560 0.82887
 C108 C -0.01275 1.07649 0.81802
 C109 C -0.02229 1.03506 0.79057
 C110 C -0.02328 0.99502 0.80193
 N111 N -0.01965 0.99572 0.82072
 H112 H -0.11844 0.83626 0.82893
 H113 H 0.03221 0.92959 0.81299
 H114 H 0.02743 0.86664 0.79404
 H115 H -0.12652 0.77058 0.81038
 H116 H -0.01226 1.03467 0.84388
 H117 H -0.01005 1.10702 0.82481
 H118 H -0.02586 1.03349 0.77566
 H119 H -0.02897 0.96259 0.79571
 C120 C -0.16406 0.91248 0.87191
 C121 C 0.10223 0.95552 0.87409
 C122 C -0.01804 1.07605 0.79862
 C123 C -0.04999 0.81323 0.80075
 O124 O 0.44932 -0.06509 -0.01247
 O125 O 0.54777 -0.05221 0.02169
 O126 O 0.46282 -0.05470 0.02283
 O127 O 0.53107 -0.06919 -0.01317
 O128 O 0.57237 0.01258 -0.02052
 O129 O 0.50219 0.02706 0.01543
 O130 O 0.58726 0.02957 0.01435
 O131 O 0.49068 0.01666 -0.01990
 Cu132 Cu 0.49380 -0.06845 0.00545
 Cu133 Cu 0.54222 0.02962 -0.00339
 C134 C 0.45322 -0.02608 -0.02196
 C135 C 0.58444 -0.00882 0.02383
 C136 C 0.47018 -0.01168 0.02522
 C137 C 0.56352 -0.03109 -0.02296
 O138 O -0.08506 0.40985 0.68480
 O139 O -0.08428 0.50504 0.64863
 O140 O -0.08744 0.41940 0.64861
 O141 O -0.08816 0.49235 0.68479
 O142 O -0.00604 0.53431 0.68510
 O143 O -0.00532 0.45991 0.64897
 O144 O -0.00216 0.54539 0.64898
 O145 O -0.00294 0.45197 0.68512
 Cu146 Cu -0.09444 0.45255 0.66667
 Cu147 Cu 0.00406 0.50200 0.66708
 C148 C -0.04382 0.41476 0.69109
 C149 C -0.04277 0.54168 0.64267
 C150 C -0.04650 0.42673 0.64266
 C151 C -0.04746 0.52601 0.69108
 O152 O 0.50511 0.47656 0.31751
 O153 O 0.57751 0.56214 0.35325
 O154 O 0.49535 0.47604 0.35292
 O155 O 0.59057 0.55934 0.31831
 O156 O 0.55129 0.60171 0.31119
 O157 O 0.45428 0.51660 0.34577
 O158 O 0.53647 0.60273 0.34612
 O159 O 0.46591 0.51900 0.31037
 Cu160 Cu 0.54619 0.51444 0.33620
 Cu161 Cu 0.49804 0.56420 0.32766
 C162 C 0.47285 0.48320 0.30788
 C163 C 0.56919 0.59720 0.35575
 C164 C 0.45829 0.48150 0.35520
 C165 C 0.58762 0.59488 0.30887
 C166 C -0.05088 0.24089 0.56670
 C167 C -0.00936 0.25692 0.55553
 C168 C -0.00781 0.22416 0.54428
 C169 C -0.04779 0.17477 0.54407
 C170 C -0.08993 0.15931 0.55501
 C171 C -0.09137 0.19219 0.56630
 C172 C -0.05093 0.27395 0.57906
 C173 C -0.05021 0.30161 0.58959
 C174 C -0.04906 0.33426 0.60241
 C175 C -0.00349 0.37113 0.60905
 C176 C -0.00246 0.40175 0.62199
 C177 C -0.04711 0.39577 0.62846
 C178 C -0.09269 0.35893 0.62153
 C179 C -0.09361 0.32841 0.60861
 H180 H 0.02212 0.29456 0.55569
 H181 H 0.02481 0.23741 0.53578
 H182 H -0.12106 0.12141 0.55526
 H183 H -0.12366 0.17936 0.57495
 H184 H 0.03123 0.37591 0.60435
 H185 H 0.03321 0.42970 0.62705
 H186 H -0.12774 0.35332 0.62622
 H187 H -0.12908 0.29995 0.60358
 C188 C 0.82384 0.79397 0.23777
 C189 C 0.84299 0.77793 0.22480
 C190 C 0.88454 0.81283 0.21409
 C191 C 0.90753 0.86421 0.21630
 C192 C 0.88795 0.87983 0.22940
 C193 C 0.84647 0.84496 0.24005
 C194 C 0.78138 0.75835 0.24894
 C195 C 0.74626 0.72906 0.25861
 C196 C 0.70516 0.69440 0.27056
 C197 C 0.70543 0.65287 0.28028
 C198 C 0.66684 0.62022 0.29254
 C199 C 0.62733 0.62868 0.29529
 C200 C 0.62700 0.67020 0.28527
 C201 C 0.66576 0.70289 0.27300
 H202 H 0.82585 0.73848 0.22298
 H203 H 0.89893 0.79963 0.20421
 H204 H 0.90413 0.91917 0.23118
 H205 H 0.83193 0.85780 0.25002
 H206 H 0.73578 0.64600 0.27854
 H207 H 0.66825 0.58861 0.30001
 H208 H 0.59716 0.67775 0.28708
 H209 H 0.66528 0.73505 0.26557
 C210 C 0.22314 -0.03861 -0.09190
 C211 C 0.23277 -0.01148 -0.10949
 C212 C 0.19360 -0.01267 -0.12047
 C213 C 0.14425 -0.04114 -0.11399
 C214 C 0.13510 -0.06776 -0.09620
 C215 C 0.17428 -0.06648 -0.08525
 C216 C 0.26327 -0.03778 -0.08061
 C217 C 0.29671 -0.03693 -0.07098
 C218 C 0.33669 -0.03507 -0.05930
 C219 C 0.38053 0.01070 -0.05791
 C220 C 0.41871 0.01335 -0.04600
 C221 C 0.41359 -0.02986 -0.03527
 C222 C 0.36969 -0.07593 -0.03698
 C223 C 0.33144 -0.07846 -0.04892
 H224 H 0.27050 0.01028 -0.11476
 H225 H 0.20176 0.00774 -0.13419
 H226 H 0.09762 -0.08943 -0.09071
 H227 H 0.16644 -0.08734 -0.07161
 H228 H 0.38497 0.04451 -0.06586
 H229 H 0.45201 0.04941 -0.04503
 H230 H 0.36458 -0.10981 -0.02890
 H231 H 0.29758 -0.11410 -0.04989
 C232 C -0.02624 0.77839 0.56896
 C233 C -0.05683 0.79774 0.57222
 C234 C -0.05204 0.84016 0.56133
 C235 C -0.01647 0.86396 0.54701
 C236 C 0.01400 0.84410 0.54377
 C237 C 0.00918 0.80163 0.55471
 C238 C -0.03058 0.73542 0.58054
 C239 C -0.03387 0.70000 0.59056
 C240 C -0.03677 0.65873 0.60289
 C241 C -0.08291 0.61920 0.60943
 C242 C -0.08518 0.58047 0.62215
 C243 C -0.04121 0.58099 0.62851
 C244 C 0.00488 0.62055 0.62162
 C245 C 0.00701 0.65909 0.60892
 H246 H -0.08438 0.78005 0.58319
 H247 H -0.07669 0.85393 0.56396
 H248 H 0.04196 0.86179 0.53295
 H249 H 0.03322 0.78708 0.55213
 H250 H -0.11706 0.61865 0.60488
 H251 H -0.12119 0.55059 0.62720
 H252 H 0.03944 0.62211 0.62620
 H253 H 0.04292 0.68953 0.60399
 C254 C 0.28427 0.28004 0.23341
 C255 C 0.29952 0.25402 0.22351
 C256 C 0.26552 0.21762 0.21237
 C257 C 0.21567 0.20664 0.21101
 C258 C 0.20091 0.23369 0.22074
 C259 C 0.23502 0.27010 0.23190
 C260 C 0.31881 0.31599 0.24549
 C261 C 0.34735 0.34576 0.25580
 C262 C 0.38056 0.38120 0.26829
 C263 C 0.41573 0.37307 0.27876
 C264 C 0.44651 0.40665 0.29146
 C265 C 0.44231 0.44871 0.29385
 C266 C 0.40730 0.45683 0.28305
 C267 C 0.37668 0.42330 0.27039
 H268 H 0.33758 0.26154 0.22453
 H269 H 0.27820 0.19798 0.20482
 H270 H 0.16272 0.22574 0.22012
 H271 H 0.22281 0.28998 0.23955
 H272 H 0.41897 0.34051 0.27726
 H273 H 0.47303 0.39932 0.29957
 H274 H 0.40310 0.48883 0.28452
 H275 H 0.34956 0.42993 0.26238
 C276 C 0.73331 -0.07492 -0.09601
 C277 C 0.73659 -0.06148 -0.11519
 C278 C 0.76910 -0.06711 -0.12589
 C279 C 0.79957 -0.08599 -0.11756
 C280 C 0.79428 -0.10090 -0.09820
 C281 C 0.76165 -0.09530 -0.08761
 C282 C 0.70203 -0.06665 -0.08477
 C283 C 0.67658 -0.05976 -0.07493
 C284 C 0.64672 -0.05223 -0.06268
 C285 C 0.65746 -0.00377 -0.06013
 C286 C 0.62995 0.00333 -0.04741
 C287 C 0.59144 -0.03805 -0.03707
 C288 C 0.58055 -0.08659 -0.03997
 C289 C 0.60801 -0.09356 -0.05267
 H290 H 0.71485 -0.04552 -0.12184
 H291 H 0.77205 -0.05367 -0.14048
 H292 H 0.81445 -0.11794 -0.09107
 H293 H 0.75888 -0.10651 -0.07278
 H294 H 0.68750 0.02852 -0.06777
 H295 H 0.63927 0.04113 -0.04550
 H296 H 0.55113 -0.11928 -0.03227
 H297 H 0.59947 -0.13121 -0.05449
 C298 C 0.28330 0.00477 0.09909
 C299 C 0.29863 0.04643 0.10888
 C300 C 0.26468 0.04897 0.11984
 C301 C 0.21480 0.00985 0.12115
 C302 C 0.19996 -0.03232 0.11154
 C303 C 0.23401 -0.03476 0.10056
 C304 C 0.31778 0.00318 0.08719
 C305 C 0.34623 0.00175 0.07702
 C306 C 0.37927 -0.00077 0.06467
 C307 C 0.41414 0.04237 0.05402
 C308 C 0.44456 0.03921 0.04140
 C309 C 0.44030 -0.00725 0.03926
 C310 C 0.40566 -0.05019 0.05027
 C311 C 0.37540 -0.04692 0.06286
 H312 H 0.33672 0.07716 0.10789
 H313 H 0.27743 0.08158 0.12730
 H314 H 0.16175 -0.06277 0.11212
 H315 H 0.22174 -0.06716 0.09300
 H316 H 0.41737 0.07830 0.05530
 H317 H 0.47079 0.07291 0.03312
 H318 H 0.40143 -0.08653 0.04899
 H319 H 0.34850 -0.08054 0.07101
 C320 C 0.74326 0.81257 0.42848
 C321 C 0.77512 0.86039 0.42000
 C322 C 0.80784 0.89869 0.43069
 C323 C 0.81001 0.89025 0.45037
 C324 C 0.77572 0.84157 0.45865
 C325 C 0.74315 0.80342 0.44781
 C326 C 0.71148 0.77286 0.41722
 C327 C 0.68553 0.74034 0.40740
 C328 C 0.65496 0.70267 0.39519
 C329 C 0.61601 0.70520 0.38535
 C330 C 0.58773 0.67041 0.37274
 C331 C 0.59805 0.63251 0.36976
 C332 C 0.63683 0.62975 0.37993
 C333 C 0.66516 0.66471 0.39255
 H334 H 0.77484 0.86816 0.40501
 H335 H 0.82996 0.93515 0.42322
 H336 H 0.77550 0.83084 0.47339
 H337 H 0.71860 0.76634 0.45454
 H338 H 0.60788 0.73448 0.38724
 H339 H 0.55813 0.67360 0.36517
 H340 H 0.64571 0.60107 0.37795
 H341 H 0.69537 0.66253 0.40007
 C342 C -0.03061 0.19287 0.76486
 C343 C -0.06097 0.14288 0.76132
 C344 C -0.05670 0.10502 0.77226
 C345 C -0.02186 0.11664 0.78691
 C346 C 0.00840 0.16702 0.79043
 C347 C 0.00409 0.20489 0.77943
 C348 C -0.03441 0.23175 0.75324
 C349 C -0.03724 0.26410 0.74320
 C350 C -0.03958 0.30276 0.73086
 C351 C -0.08543 0.29613 0.72395
 C352 C -0.08712 0.33291 0.71123
 C353 C -0.04288 0.37668 0.70524
 C354 C 0.00289 0.38323 0.71251
 C355 C 0.00447 0.34652 0.72520
 H356 H -0.08797 0.13314 0.75009
 H357 H -0.08118 0.06655 0.76941
 H358 H 0.03579 0.17717 0.80151
 H359 H 0.02796 0.24353 0.78223
 H360 H -0.11977 0.26229 0.72821
 H361 H -0.12291 0.32674 0.70589
 H362 H 0.03765 0.41648 0.70822
 H363 H 0.04015 0.35201 0.73043
 C364 C 0.82305 0.03024 0.09421
 C365 C 0.84542 0.00186 0.09186
 C366 C 0.88710 0.00865 0.10246
 C367 C 0.90714 0.04408 0.11557
 C368 C 0.88444 0.07253 0.11783
 C369 C 0.84268 0.06569 0.10717
 C370 C 0.78029 0.02311 0.08312
 C371 C 0.74489 0.01702 0.07354
 C372 C 0.70341 0.01025 0.06171
 C373 C 0.66360 -0.03788 0.05948
 C374 C 0.62440 -0.04429 0.04734
 C375 C 0.62468 -0.00254 0.03725
 C376 C 0.66463 0.04569 0.03979
 C377 C 0.70366 0.05197 0.05192
 H378 H 0.83050 -0.02573 0.08189
 H379 H 0.90305 -0.01455 0.10064
 H380 H 0.89919 0.10031 0.12771
 H381 H 0.82576 0.08802 0.10904
 H382 H 0.66312 -0.07047 0.06696
 H383 H 0.59424 -0.08187 0.04569
 H384 H 0.66603 0.07865 0.03227
 H385 H 0.73432 0.08938 0.05351
 C386 C 0.23303 0.26807 0.42769
 C387 C 0.20495 0.28038 0.43806
 C388 C 0.16599 0.24309 0.44925
 C389 C 0.15451 0.19286 0.45020
 C390 C 0.18344 0.18095 0.43994
 C391 C 0.22241 0.21835 0.42873
 C392 C 0.27218 0.30632 0.41577
 C393 C 0.30485 0.33812 0.40567
 C394 C 0.34394 0.37541 0.39349
 C395 C 0.33872 0.41372 0.38325
 C396 C 0.37621 0.44887 0.37096
 C397 C 0.41933 0.44597 0.36876
 C398 C 0.42439 0.40764 0.37929
 C399 C 0.38695 0.37265 0.39155
 H400 H 0.21297 0.31877 0.43742
 H401 H 0.14492 0.25358 0.45721
 H402 H 0.17521 0.14259 0.44024
 H403 H 0.24390 0.20841 0.42073
 H404 H 0.30550 0.41614 0.38464
 H405 H 0.37118 0.47787 0.36304
 H406 H 0.45708 0.40431 0.37795
 H407 H 0.39136 0.34314 0.39939
 C408 C -0.05494 0.70583 0.76702
 C409 C -0.09545 0.71383 0.76708
 C410 C -0.09452 0.74789 0.77838
 C411 C -0.05287 0.77453 0.78968
 C412 C -0.01287 0.76533 0.78981
 C413 C -0.01391 0.73128 0.77854
 C414 C -0.05446 0.67299 0.75467
 C415 C -0.05330 0.64626 0.74414
 C416 C -0.05163 0.61503 0.73133
 C417 C -0.09592 0.57626 0.72477
 C418 C -0.09449 0.54694 0.71185
 C419 C -0.04864 0.55605 0.70529
 C420 C -0.00425 0.59478 0.71212
 C421 C -0.00580 0.62408 0.72506
 H422 H -0.12736 0.69439 0.75816
 H423 H -0.12565 0.75450 0.77787
 H424 H 0.01936 0.78467 0.79858
 H425 H 0.01758 0.72529 0.77864
 H426 H -0.13160 0.56897 0.72952
 H427 H -0.12935 0.51743 0.70689
 H428 H 0.03161 0.60276 0.70734
 H429 H 0.02873 0.65408 0.73003
   
