data_POSCAR
  _audit_creation_date              2014-09-24
  _audit_creation_method            'ToBaCCo'
  _symmetry_space_group_name_H-M    'P1'
  _symmetry_Int_Tables_number       1
  _symmetry_cell_setting            triclinic
  loop_
  _symmetry_equiv_pos_as_xyz
 x,y,z
_cell_length_a 40.3736
_cell_length_b 40.4305
_cell_length_c 23.9013
_cell_angle_alpha 90.057700
_cell_angle_beta 89.902700
_cell_angle_gamma 87.060800
loop_
  _atom_site_label
  _atom_site_type_symbol
  _atom_site_fract_x
  _atom_site_fract_y
  _atom_site_fract_z
C1 C -0.03252 0.25947 0.05260
 C2 C -0.03029 0.25797 -0.00706
 C3 C 0.00120 0.25912 -0.03244
 C4 C 0.03080 0.25758 -0.00103
 C5 C 0.02828 0.25690 0.05837
 C6 C -0.00303 0.25840 0.08373
 H7 H -0.00418 0.26049 0.12893
 H8 H 0.00296 0.25685 -0.07754
 C9 C 0.47556 0.78921 0.50992
 C10 C 0.47499 0.78401 0.45112
 C11 C 0.50518 0.77863 0.42221
 C12 C 0.53571 0.77872 0.45015
 C13 C 0.53627 0.78643 0.50795
 C14 C 0.50623 0.79116 0.53711
 H15 H 0.50679 0.79566 0.58181
 H16 H 0.50494 0.77366 0.37764
 C17 C 1.03994 0.71682 0.00964
 C18 C 1.03887 0.71861 -0.04997
 C19 C 1.00798 0.72060 -0.07730
 C20 C 0.97779 0.72175 -0.04756
 C21 C 0.97907 0.72272 0.01186
 C22 C 1.00971 0.71962 0.03929
 H23 H 1.00969 0.71922 0.08463
 H24 H 1.00766 0.72087 -0.12261
 C25 C 0.53342 0.23486 0.55102
 C26 C 0.53055 0.22607 0.49385
 C27 C 0.49910 0.22565 0.46944
 C28 C 0.47051 0.23294 0.50100
 C29 C 0.47302 0.23869 0.55916
 C30 C 0.50457 0.23988 0.58348
 H31 H 0.50670 0.24559 0.62761
 H32 H 0.49686 0.22068 0.42504
 C33 C 0.71654 -0.03011 0.02377
 C34 C 0.71692 -0.03066 -0.03595
 C35 C 0.71672 -0.00073 -0.06569
 C36 C 0.71638 0.02995 -0.03848
 C37 C 0.71457 0.03087 0.02060
 C38 C 0.71425 0.00104 0.05059
 H39 H 0.71426 0.00245 0.09585
 H40 H 0.71752 -0.00139 -0.11103
 C41 C 0.21235 0.47754 0.54280
 C42 C 0.21955 0.47693 0.48479
 C43 C 0.22132 0.50703 0.45596
 C44 C 0.21756 0.53759 0.48386
 C45 C 0.21212 0.53792 0.54238
 C46 C 0.20875 0.50799 0.57090
 H47 H 0.20486 0.50832 0.61581
 H48 H 0.22596 0.50660 0.41126
 C49 C 0.24861 1.03309 0.04531
 C50 C 0.25007 1.03666 -0.01442
 C51 C 0.25237 1.00763 -0.04770
 C52 C 0.25073 0.97599 -0.02442
 C53 C 0.24781 0.97254 0.03396
 C54 C 0.24728 1.00087 0.06772
 H55 H 0.24719 0.99733 0.11267
 H56 H 0.25235 1.00944 -0.09294
 C57 C 0.75880 0.52953 0.52054
 C58 C 0.75940 0.52792 0.46159
 C59 C 0.76146 0.49692 0.43530
 C60 C 0.76236 0.46735 0.46628
 C61 C 0.76091 0.46906 0.52564
 C62 C 0.75955 0.50025 0.55171
 H63 H 0.75867 0.50183 0.59700
 H64 H 0.76157 0.49586 0.38995
 O65 O 0.22621 0.27390 0.20627
 O66 O 0.30270 0.25579 0.28663
 O67 O 0.27287 0.22697 0.20328
 O68 O 0.25615 0.30236 0.28827
 O69 O 0.22787 0.27341 0.34841
 O70 O 0.24463 0.19829 0.26372
 O71 O 0.27496 0.22587 0.34623
 O72 O 0.19864 0.24457 0.26680
 Cu73 Cu 0.26744 0.26759 0.24009
 Cu74 Cu 0.23390 0.23268 0.31271
 C75 C 0.19934 0.26205 0.22276
 C76 C 0.30179 0.23779 0.33003
 C77 C 0.26101 0.19984 0.21846
 C78 C 0.23880 0.30079 0.33249
 O79 O 0.76167 0.79930 0.22391
 O80 O 0.77538 0.72366 0.30778
 O81 O 0.80983 0.75432 0.23385
 O82 O 0.72681 0.76803 0.29660
 O83 O 0.70487 0.74233 0.22501
 O84 O 0.78871 0.72178 0.17016
 O85 O 0.75009 0.69518 0.24314
 O86 O 0.74430 0.76929 0.15345
 Cu87 Cu 0.77056 0.76430 0.27241
 Cu88 Cu 0.74476 0.72916 0.19116
 C89 C 0.75150 0.79700 0.17392
 C90 C 0.76444 0.69665 0.29028
 C91 C 0.81335 0.73523 0.19183
 C92 C 0.70171 0.75804 0.27085
 O93 O 0.79936 0.23132 0.27717
 O94 O 0.71483 0.21993 0.32838
 O95 O 0.75600 0.18687 0.26320
 O96 O 0.75768 0.26394 0.34428
 O97 O 0.73947 0.29234 0.27050
 O98 O 0.73356 0.21446 0.19191
 O99 O 0.69451 0.24967 0.25781
 O100 O 0.77884 0.25791 0.20343
 Cu101 Cu 0.75920 0.22271 0.31046
 Cu102 Cu 0.73467 0.25640 0.22344
 C103 C 0.80355 0.24608 0.23098
 C104 C 0.69025 0.23348 0.30253
 C105 C 0.74400 0.18737 0.21414
 C106 C 0.74861 0.29116 0.32127
 O107 O 0.27293 0.76649 0.15630
 O108 O 0.26604 0.68965 0.23732
 O109 O 0.22746 0.72303 0.16717
 O110 O 0.31023 0.73335 0.22849
 O111 O 0.28706 0.76295 0.29707
 O112 O 0.20458 0.75165 0.23708
 O113 O 0.24261 0.71837 0.30675
 O114 O 0.24868 0.79505 0.22512
 Cu115 Cu 0.27144 0.72529 0.19023
 Cu116 Cu 0.24356 0.75988 0.27357
 C117 C 0.26163 0.79384 0.17663
 C118 C 0.25333 0.69091 0.28595
 C119 C 0.20184 0.73574 0.19165
 C120 C 0.31271 0.74978 0.27352
 O121 O 0.77872 0.26897 0.67141
 O122 O 0.76675 0.19447 0.75590
 O123 O 0.73071 0.22876 0.68431
 O124 O 0.81424 0.23534 0.74425
 O125 O 0.79261 0.26749 0.81128
 O126 O 0.70914 0.25719 0.75583
 O127 O 0.74782 0.22572 0.82618
 O128 O 0.75498 0.29965 0.73817
 Cu129 Cu 0.77473 0.22879 0.70694
 Cu130 Cu 0.74894 0.26593 0.78945
 C131 C 0.76853 0.29704 0.69019
 C132 C 0.75586 0.19749 0.80561
 C133 C 0.70575 0.24125 0.71068
 C134 C 0.81740 0.25249 0.78827
 O135 O 0.31213 0.75333 0.72788
 O136 O 0.23882 0.74319 0.81740
 O137 O 0.27077 0.70731 0.74052
 O138 O 0.28207 0.78832 0.80589
 O139 O 0.24814 0.81211 0.74374
 O140 O 0.23801 0.73093 0.67643
 O141 O 0.20645 0.76563 0.75162
 O142 O 0.27975 0.77734 0.66363
 Cu143 Cu 0.27909 0.74565 0.77952
 Cu144 Cu 0.24006 0.77418 0.70225
 C145 C 0.30818 0.76661 0.68012
 C146 C 0.21023 0.75258 0.79952
 C147 C 0.25287 0.70535 0.69714
 C148 C 0.26657 0.81389 0.78662
 O149 O 0.19037 0.25252 0.75773
 O150 O 0.27031 0.23627 0.68684
 O151 O 0.23454 0.20314 0.75437
 O152 O 0.22690 0.28633 0.69111
 O153 O 0.25364 0.30655 0.76305
 O154 O 0.26014 0.22386 0.82720
 O155 O 0.29650 0.25703 0.75888
 O156 O 0.21642 0.27243 0.83074
 Cu157 Cu 0.22784 0.24262 0.71520
 Cu158 Cu 0.25919 0.26720 0.80228
 C159 C 0.18990 0.26458 0.80673
 C160 C 0.29699 0.24386 0.71059
 C161 C 0.24854 0.19949 0.80167
 C162 C 0.23957 0.31044 0.71588
 O163 O 0.81164 0.76330 0.72041
 O164 O 0.72775 0.77325 0.65906
 O165 O 0.76397 0.80843 0.72450
 O166 O 0.77683 0.72841 0.65317
 O167 O 0.75448 0.70337 0.72509
 O168 O 0.74263 0.78356 0.79740
 O169 O 0.70707 0.74826 0.73231
 O170 O 0.79062 0.73767 0.79266
 Cu171 Cu 0.77205 0.77085 0.68184
 Cu172 Cu 0.74676 0.74069 0.76933
 C173 C 0.81540 0.74882 0.76732
 C174 C 0.70308 0.76233 0.68519
 C175 C 0.75138 0.80969 0.77318
 C176 C 0.76757 0.70234 0.67675
 C177 C 0.23035 0.06040 0.13283
 C178 C 0.24983 0.06003 0.08364
 C179 C 0.27010 0.08699 0.07402
 C180 C 0.26926 0.11432 0.11059
 C181 C 0.24894 0.11434 0.15871
 C182 C 0.22999 0.08711 0.16979
 C183 C 0.24729 0.14188 0.19450
 C184 C 0.26523 0.16994 0.18256
 C185 C 0.28571 0.16961 0.13487
 C186 C 0.28788 0.14196 0.09941
 H187 H 0.28644 0.08684 0.03799
 H188 H 0.21417 0.08679 0.20645
 H189 H 0.23124 0.14175 0.23091
 H190 H 0.30361 0.14246 0.06268
 H191 H 0.21393 0.04071 0.14170
 H192 H 0.29981 0.19086 0.12464
 C193 C 0.72421 0.57162 0.57341
 C194 C 0.75511 0.56123 0.55097
 C195 C 0.78270 0.58022 0.55997
 C196 C 0.77914 0.61037 0.58884
 C197 C 0.74797 0.62061 0.61191
 C198 C 0.72068 0.60101 0.60411
 C199 C 0.74463 0.65036 0.64204
 C200 C 0.77164 0.67060 0.64724
 C201 C 0.80222 0.66081 0.62291
 C202 C 0.80612 0.63059 0.59468
 H203 H 0.80683 0.57152 0.54444
 H204 H 0.69662 0.60852 0.62134
 H205 H 0.72087 0.65826 0.66014
 H206 H 0.83007 0.62325 0.57681
 H207 H 0.70289 0.55680 0.56741
 H208 H 0.82318 0.67635 0.62654
 C209 C 0.70283 0.93892 0.10880
 C210 C 0.71988 0.94080 0.05728
 C211 C 0.74104 0.91348 0.04131
 C212 C 0.74336 0.88453 0.07359
 C213 C 0.72621 0.88332 0.12502
 C214 C 0.70621 0.91070 0.14238
 C215 C 0.72931 0.85470 0.15812
 C216 C 0.74826 0.82687 0.13921
 C217 C 0.76447 0.82782 0.08737
 C218 C 0.76249 0.85665 0.05513
 H219 H 0.75648 0.91477 0.00441
 H220 H 0.69264 0.91010 0.18150
 H221 H 0.71656 0.85377 0.19803
 H222 H 0.77560 0.85705 0.01555
 H223 H 0.68587 0.95886 0.12270
 H224 H 0.77925 0.80646 0.07249
 C225 C 0.18159 0.43093 0.58248
 C226 C 0.21141 0.44684 0.57600
 C227 C 0.24040 0.43353 0.60130
 C228 C 0.23989 0.40380 0.63146
 C229 C 0.21017 0.38679 0.63500
 C230 C 0.18107 0.40075 0.61083
 C231 C 0.21010 0.35616 0.66265
 C232 C 0.23902 0.34306 0.68867
 C233 C 0.26801 0.36075 0.68696
 C234 C 0.26859 0.39068 0.65793
 H235 H 0.26326 0.44629 0.59721
 H236 H 0.15797 0.38836 0.61385
 H237 H 0.18760 0.34266 0.66446
 H238 H 0.29149 0.40351 0.65604
 H239 H 0.15892 0.44146 0.56414
 H240 H 0.29053 0.35085 0.70669
 C241 C 0.91057 0.28429 0.06072
 C242 C 0.93689 0.26369 0.08189
 C243 C 0.93193 0.24677 0.13264
 C244 C 0.90092 0.24847 0.15919
 C245 C 0.87436 0.26776 0.13561
 C246 C 0.87962 0.28610 0.08702
 C247 C 0.84280 0.26777 0.16026
 C248 C 0.83740 0.24858 0.20817
 C249 C 0.86429 0.23038 0.23236
 C250 C 0.89576 0.23029 0.20805
 H251 H 0.95149 0.23045 0.14977
 H252 H 0.85968 0.30150 0.06888
 H253 H 0.82234 0.28211 0.14137
 H254 H 0.91590 0.21545 0.22684
 H255 H 0.91383 0.29899 0.02345
 H256 H 0.86084 0.21543 0.26929
 C257 C 0.43922 0.81599 0.58438
 C258 C 0.44489 0.79060 0.54475
 C259 C 0.42181 0.76588 0.53986
 C260 C 0.39317 0.76680 0.57324
 C261 C 0.38788 0.79224 0.61347
 C262 C 0.41104 0.81676 0.61856
 C263 C 0.35973 0.79246 0.64821
 C264 C 0.33672 0.76786 0.64235
 C265 C 0.34174 0.74315 0.60162
 C266 C 0.36984 0.74251 0.56741
 H267 H 0.42629 0.74579 0.51030
 H268 H 0.40738 0.83649 0.64900
 H269 H 0.35577 0.81150 0.67985
 H270 H 0.37342 0.72294 0.53665
 H271 H 0.45668 0.83528 0.58885
 H272 H 0.32414 0.72398 0.59705
 C273 C 0.09676 0.69210 0.02121
 C274 C 0.07014 0.71327 0.04005
 C275 C 0.07461 0.73178 0.08933
 C276 C 0.10547 0.73119 0.11632
 C277 C 0.13239 0.71139 0.09484
 C278 C 0.12756 0.69141 0.04793
 C279 C 0.16377 0.71234 0.12010
 C280 C 0.16851 0.73285 0.16672
 C281 C 0.14122 0.75171 0.18855
 C282 C 0.11006 0.75095 0.16356
 H283 H 0.05483 0.74850 0.10480
 H284 H 0.14772 0.67554 0.03145
 H285 H 0.18452 0.69750 0.10300
 H286 H 0.08966 0.76623 0.18071
 H287 H 0.09385 0.67608 -0.01457
 H288 H 0.14406 0.76771 0.22441
 C289 C 0.58734 0.26279 0.55027
 C290 C 0.56608 0.24103 0.57639
 C291 C 0.57638 0.22479 0.62576
 C292 C 0.60815 0.22918 0.64750
 C293 C 0.62995 0.24983 0.61914
 C294 C 0.61916 0.26679 0.57095
 C295 C 0.66212 0.25328 0.63961
 C296 C 0.67237 0.23712 0.68886
 C297 C 0.65048 0.21738 0.71772
 C298 C 0.61866 0.21312 0.69686
 H299 H 0.55995 0.20827 0.64643
 H300 H 0.63533 0.28309 0.54920
 H301 H 0.67904 0.26884 0.61784
 H302 H 0.60227 0.19737 0.71932
 H303 H 0.57946 0.27627 0.51307
 H304 H 0.65824 0.20492 0.75598
 C305 C 0.69920 0.06566 0.87982
 C306 C 0.71960 0.06015 0.92684
 C307 C 0.74376 0.08288 0.93934
 C308 C 0.74667 0.11134 0.90661
 C309 C 0.72634 0.11636 0.85891
 C310 C 0.70272 0.09335 0.84586
 C311 C 0.72989 0.14438 0.82530
 C312 C 0.75264 0.16792 0.84005
 C313 C 0.77207 0.16333 0.88822
 C314 C 0.76946 0.13497 0.92093
 H315 H 0.76022 0.07846 0.97460
 H316 H 0.68679 0.09691 0.80969
 H317 H 0.71461 0.14827 0.78836
 H318 H 0.78501 0.13167 0.95761
 H319 H 0.68046 0.04844 0.86939
 H320 H 0.78959 0.18151 0.90001
 C321 C 0.19532 0.59452 0.45683
 C322 C 0.21977 0.56871 0.45113
 C323 C 0.24587 0.57232 0.41296
 C324 C 0.24775 0.60146 0.38146
 C325 C 0.22364 0.62771 0.38910
 C326 C 0.19750 0.62395 0.42682
 C327 C 0.22582 0.65707 0.35833
 C328 C 0.25122 0.66017 0.31874
 C329 C 0.27467 0.63371 0.31062
 C330 C 0.27318 0.60473 0.34215
 H331 H 0.26472 0.55246 0.40788
 H332 H 0.17849 0.64357 0.43255
 H333 H 0.20741 0.67725 0.36438
 H334 H 0.29177 0.58483 0.33554
 H335 H 0.17426 0.59181 0.48416
 H336 H 0.29451 0.63566 0.28043
 C337 C 0.21708 0.93648 0.92287
 C338 C 0.24832 0.94741 0.93743
 C339 C 0.27705 0.93111 0.91569
 C340 C 0.27464 0.90306 0.88150
 C341 C 0.24303 0.89224 0.86668
 C342 C 0.21441 0.90930 0.88727
 C343 C 0.24061 0.86401 0.83288
 C344 C 0.26934 0.84566 0.81591
 C345 C 0.30058 0.85627 0.83138
 C346 C 0.30325 0.88508 0.86310
 H347 H 0.30117 0.93965 0.92698
 H348 H 0.19001 0.90126 0.87665
 H349 H 0.21644 0.85541 0.82200
 H350 H 0.32765 0.89283 0.87442
 H351 H 0.19477 0.94904 0.93921
 H352 H 0.32292 0.84214 0.81896
 C353 C 0.78776 0.43051 0.39207
 C354 C 0.76400 0.43562 0.43470
 C355 C 0.74162 0.41089 0.44560
 C356 C 0.74380 0.38096 0.41581
 C357 C 0.76743 0.37638 0.37231
 C358 C 0.78925 0.40132 0.36077
 C359 C 0.76882 0.34694 0.34113
 C360 C 0.74772 0.32166 0.35435
 C361 C 0.72508 0.32581 0.39865
 C362 C 0.72282 0.35545 0.42880
 H363 H 0.72267 0.41487 0.47742
 H364 H 0.80764 0.39816 0.32786
 H365 H 0.78645 0.34348 0.30707
 H366 H 0.70479 0.35839 0.46231
 H367 H 0.80524 0.44924 0.38298
 H368 H 0.70866 0.30634 0.40903
 C369 C 0.08797 0.23346 0.98851
 C370 C 0.06160 0.25499 0.97000
 C371 C 0.06629 0.27343 0.92066
 C372 C 0.09685 0.27167 0.89247
 C373 C 0.12348 0.25151 0.91391
 C374 C 0.11868 0.23229 0.96158
 C375 C 0.15426 0.25034 0.88657
 C376 C 0.15833 0.26811 0.83693
 C377 C 0.13166 0.28745 0.81493
 C378 C 0.10123 0.28967 0.84302
 H379 H 0.04655 0.29010 0.90504
 H380 H 0.13855 0.21592 0.97757
 H381 H 0.17476 0.23485 0.90281
 H382 H 0.08102 0.30507 0.82573
 H383 H 0.08480 0.21684 1.02331
 H384 H 0.13453 0.30099 0.77629
 C385 C 0.58819 0.74346 0.44021
 C386 C 0.56663 0.76887 0.41920
 C387 C 0.57530 0.78552 0.37014
 C388 C 0.60599 0.77800 0.34400
 C389 C 0.62824 0.75361 0.36743
 C390 C 0.61888 0.73616 0.41500
 C391 C 0.65956 0.74723 0.34312
 C392 C 0.66862 0.76437 0.29502
 C393 C 0.64620 0.78777 0.27082
 C394 C 0.61514 0.79477 0.29541
 H395 H 0.55863 0.80493 0.35344
 H396 H 0.63541 0.71709 0.43301
 H397 H 0.67690 0.72894 0.36141
 H398 H 0.59840 0.81340 0.27668
 H399 H 0.58155 0.72979 0.47716
 H400 H 0.65303 0.80107 0.23356
 C401 C 0.92080 0.70350 0.94282
 C402 C 0.94724 0.72176 0.92282
 C403 C 0.94251 0.73976 0.87255
 C404 C 0.91163 0.74109 0.84524
 C405 C 0.88512 0.72382 0.86762
 C406 C 0.89012 0.70476 0.91594
 C407 C 0.85396 0.72604 0.84157
 C408 C 0.84877 0.74534 0.79315
 C409 C 0.87549 0.76195 0.77058
 C410 C 0.90660 0.75990 0.79642
 H411 H 0.96217 0.75422 0.85606
 H412 H 0.87029 0.69076 0.93304
 H413 H 0.83368 0.71292 0.85933
 H414 H 0.92662 0.77329 0.77851
 H415 H 0.92396 0.68745 0.97877
 H416 H 0.87224 0.77700 0.73335
 C417 C 0.42805 0.27141 0.45809
 C418 C 0.43899 0.23882 0.47074
 C419 C 0.42066 0.21229 0.45274
 C420 C 0.39097 0.21837 0.42323
 C421 C 0.38054 0.25130 0.40926
 C422 C 0.39920 0.27763 0.42703
 C423 C 0.35159 0.25734 0.37790
 C424 C 0.33222 0.23108 0.36235
 C425 C 0.34194 0.19860 0.37804
 C426 C 0.37143 0.19221 0.40757
 H427 H 0.42930 0.18712 0.46246
 H428 H 0.39143 0.30299 0.41705
 H429 H 0.34373 0.28249 0.36647
 H430 H 0.37884 0.16689 0.41840
 H431 H 0.44224 0.29200 0.47158
 H432 H 0.32705 0.17816 0.36635
 C433 C 0.69349 0.91442 0.94082
 C434 C 0.71673 0.93842 0.93049
 C435 C 0.74084 0.93261 0.88877
 C436 C 0.74262 0.90276 0.85904
 C437 C 0.72021 0.87803 0.87149
 C438 C 0.69547 0.88426 0.91202
 C439 C 0.72310 0.84752 0.84338
 C440 C 0.74760 0.84184 0.80212
 C441 C 0.76905 0.86699 0.78901
 C442 C 0.76678 0.89709 0.81757
 H443 H 0.75880 0.95106 0.88052
 H444 H 0.67785 0.86575 0.92170
 H445 H 0.70624 0.82832 0.85328
 H446 H 0.78403 0.91587 0.80741
 H447 H 0.67440 0.91873 0.97226
 H448 H 0.78814 0.86307 0.75746
 C449 C 0.25799 0.44167 0.42494
 C450 C 0.22772 0.44559 0.45391
 C451 C 0.20554 0.41994 0.45227
 C452 C 0.21402 0.39023 0.42397
 C453 C 0.24439 0.38671 0.39452
 C454 C 0.26617 0.41262 0.39520
 C455 C 0.25239 0.35744 0.36468
 C456 C 0.23083 0.33122 0.36516
 C457 C 0.20116 0.33459 0.39592
 C458 C 0.19264 0.36398 0.42456
 H459 H 0.18155 0.42322 0.47225
 H460 H 0.28961 0.41034 0.37302
 H461 H 0.27549 0.35492 0.34147
 H462 H 0.16936 0.36615 0.44724
 H463 H 0.27538 0.46120 0.42548
 H464 H 0.18415 0.31473 0.39670
 C465 C 0.22264 0.09251 0.97792
 C466 C 0.24552 0.06769 0.95775
 C467 C 0.26281 0.07398 0.90770
 C468 C 0.25855 0.10460 0.88032
 C469 C 0.23705 0.12975 0.90332
 C470 C 0.21899 0.12334 0.95177
 C471 C 0.23390 0.16084 0.87730
 C472 C 0.25121 0.16668 0.82769
 C473 C 0.27167 0.14136 0.80395
 C474 C 0.27563 0.11059 0.83042
 H475 H 0.28058 0.05556 0.89091
 H476 H 0.20175 0.14205 0.96916
 H477 H 0.21787 0.18043 0.89527
 H478 H 0.29205 0.09154 0.81196
 H479 H 0.20710 0.08807 1.01380
 H480 H 0.28515 0.14570 0.76564
 C481 C 0.72755 0.56289 0.39232
 C482 C 0.75570 0.55792 0.42626
 C483 C 0.78047 0.58099 0.42496
 C484 C 0.77652 0.60960 0.39204
 C485 C 0.74817 0.61437 0.35774
 C486 C 0.72388 0.59080 0.35805
 C487 C 0.74460 0.64264 0.32385
 C488 C 0.76848 0.66669 0.32516
 C489 C 0.79617 0.66210 0.36031
 C490 C 0.80039 0.63358 0.39298
 H491 H 0.80291 0.57654 0.44904
 H492 H 0.70196 0.59406 0.33212
 H493 H 0.72297 0.64626 0.29728
 H494 H 0.82214 0.63041 0.41930
 H495 H 0.70841 0.54507 0.39245
 H496 H 0.81485 0.68038 0.36180
 C497 C 0.07428 0.70168 0.86718
 C498 C 0.06917 0.72164 0.91492
 C499 C 0.09303 0.74441 0.92909
 C500 C 0.12245 0.74580 0.89810
 C501 C 0.12717 0.72580 0.84989
 C502 C 0.10284 0.70400 0.83459
 C503 C 0.15617 0.72795 0.81790
 C504 C 0.18092 0.74890 0.83477
 C505 C 0.17662 0.76787 0.88358
 C506 C 0.14739 0.76664 0.91476
 H507 H 0.08903 0.76045 0.96510
 H508 H 0.10612 0.68838 0.79793
 H509 H 0.15963 0.71327 0.78012
 H510 H 0.14430 0.78190 0.95188
 H511 H 0.05628 0.68397 0.85544
 H512 H 0.19552 0.78432 0.89663
 C513 C 0.58509 0.19566 0.47541
 C514 C 0.56011 0.21889 0.45826
 C515 C 0.56444 0.23719 0.40917
 C516 C 0.59438 0.23401 0.37952
 C517 C 0.62014 0.21193 0.39884
 C518 C 0.61496 0.19228 0.44603
 C519 C 0.65102 0.21077 0.37192
 C520 C 0.65659 0.23156 0.32611
 C521 C 0.63035 0.25231 0.30570
 C522 C 0.59949 0.25354 0.33222
 H523 H 0.54520 0.25516 0.39584
 H524 H 0.63433 0.17502 0.46112
 H525 H 0.67099 0.19447 0.38778
 H526 H 0.57994 0.27046 0.31672
 H527 H 0.58186 0.18102 0.51277
 H528 H 0.63398 0.26851 0.27041
 C529 C 0.91891 0.22845 0.97633
 C530 C 0.94216 0.25120 0.95868
 C531 C 0.93751 0.26659 0.90603
 C532 C 0.90899 0.26145 0.87426
 C533 C 0.88495 0.24032 0.89486
 C534 C 0.89047 0.22344 0.94524
 C535 C 0.85545 0.23688 0.86528
 C536 C 0.84980 0.25395 0.81505
 C537 C 0.87407 0.27394 0.79340
 C538 C 0.90353 0.27778 0.82297
 H539 H 0.95502 0.28405 0.89113
 H540 H 0.87264 0.20655 0.96089
 H541 H 0.83655 0.22142 0.88176
 H542 H 0.92171 0.29397 0.80634
 H543 H 0.92265 0.21441 1.01455
 H544 H 0.86976 0.28733 0.75463
 C545 C 0.41845 0.80891 0.42666
 C546 C 0.44339 0.78373 0.41904
 C547 C 0.43789 0.75785 0.38134
 C548 C 0.40754 0.75656 0.35304
 C549 C 0.38210 0.78121 0.36299
 C550 C 0.38795 0.80746 0.39945
 C551 C 0.35122 0.77908 0.33658
 C552 C 0.34565 0.75295 0.29943
 C553 C 0.37146 0.72916 0.28854
 C554 C 0.40204 0.73079 0.31544
 H555 H 0.45696 0.73834 0.37500
 H556 H 0.36890 0.82681 0.40708
 H557 H 0.33157 0.79773 0.34489
 H558 H 0.42131 0.71176 0.30710
 H559 H 0.42244 0.82950 0.45443
 H560 H 0.36772 0.70876 0.26024
 C561 C 0.21883 0.93557 0.09961
 C562 C 0.24483 0.93988 0.06158
 C563 C 0.26877 0.91384 0.05314
 C564 C 0.26664 0.88381 0.08214
 C565 C 0.24080 0.88014 0.12129
 C566 C 0.21688 0.90605 0.12936
 C567 C 0.23947 0.85074 0.15215
 C568 C 0.26319 0.82457 0.14357
 C569 C 0.28819 0.82801 0.10335
 C570 C 0.29011 0.85752 0.07326
 H571 H 0.28951 0.91725 0.02537
 H572 H 0.19680 0.90358 0.15896
 H573 H 0.21980 0.84811 0.18253
 H574 H 0.30996 0.85980 0.04315
 H575 H 0.20018 0.95536 0.10677
 H576 H 0.30666 0.80809 0.09600
 C577 C 0.73422 0.43833 0.60265
 C578 C 0.75934 0.43936 0.56198
 C579 C 0.78225 0.41217 0.55635
 C580 C 0.77919 0.38377 0.58941
 C581 C 0.75388 0.38318 0.63033
 C582 C 0.73166 0.41065 0.63681
 C583 C 0.75091 0.35499 0.66371
 C584 C 0.77232 0.32692 0.65578
 C585 C 0.79708 0.32747 0.61441
 C586 C 0.80071 0.35579 0.58187
 H587 H 0.80198 0.41292 0.52565
 H588 H 0.71201 0.41055 0.66774
 H589 H 0.73149 0.35465 0.69507
 H590 H 0.82011 0.35568 0.55048
 H591 H 0.71622 0.45894 0.60754
 H592 H 0.81389 0.30610 0.60765
 C593 C 0.69194 0.08888 0.04038
 C594 C 0.71458 0.06234 0.05265
 C595 C 0.73809 0.06593 0.09515
 C596 C 0.73942 0.09579 0.12454
 C597 C 0.71720 0.12273 0.11090
 C598 C 0.69344 0.11897 0.06891
 C599 C 0.71907 0.15285 0.13972
 C600 C 0.74235 0.15605 0.18283
 C601 C 0.76394 0.12892 0.19650
 C602 C 0.76268 0.09914 0.16730
 H603 H 0.75571 0.04558 0.10469
 H604 H 0.67603 0.13925 0.05819
 H605 H 0.70209 0.17357 0.12929
 H606 H 0.77982 0.07868 0.17831
 H607 H 0.67337 0.08639 0.00822
 H608 H 0.78212 0.13087 0.22945
 C609 C 0.18504 0.58463 0.59756
 C610 C 0.21384 0.56875 0.57533
 C611 C 0.24461 0.58259 0.58343
 C612 C 0.24666 0.61247 0.61275
 C613 C 0.21738 0.62923 0.63291
 C614 C 0.18671 0.61495 0.62544
 C615 C 0.21938 0.65989 0.66020
 C616 C 0.25037 0.67316 0.66936
 C617 C 0.27933 0.65583 0.65093
 C618 C 0.27748 0.62591 0.62216
 H619 H 0.26688 0.57003 0.56678
 H620 H 0.16407 0.62723 0.64110
 H621 H 0.19704 0.67319 0.67497
 H622 H 0.30015 0.61328 0.60733
 H623 H 0.16120 0.57400 0.59177
 H624 H 0.30335 0.66591 0.65769
 C625 C 0.93151 0.76165 0.03784
 C626 C 0.94924 0.73129 0.04627
 C627 C 0.93773 0.70872 0.08551
 C628 C 0.90770 0.71568 0.11392
 C629 C 0.88974 0.74618 0.10455
 C630 C 0.90209 0.76915 0.06701
 C631 C 0.85931 0.75282 0.13179
 C632 C 0.84627 0.72904 0.16701
 C633 C 0.86402 0.69885 0.17615
 C634 C 0.89475 0.69232 0.15024
 H635 H 0.95137 0.68522 0.09181
 H636 H 0.88865 0.79258 0.05930
 H637 H 0.84527 0.77600 0.12439
 H638 H 0.90805 0.66878 0.15769
 H639 H 0.94027 0.77933 0.00793
 H640 H 0.85398 0.68031 0.20315
 C641 C 0.43911 0.27061 0.63127
 C642 C 0.44299 0.24344 0.59474
 C643 C 0.41793 0.22070 0.59173
 C644 C 0.38846 0.22595 0.62206
 C645 C 0.38457 0.25346 0.65847
 C646 C 0.41020 0.27545 0.66324
 C647 C 0.35492 0.25870 0.68871
 C648 C 0.32880 0.23744 0.68136
 C649 C 0.33283 0.21043 0.64462
 C650 C 0.36259 0.20446 0.61573
 H651 H 0.42127 0.19901 0.56530
 H652 H 0.40764 0.29671 0.69084
 H653 H 0.35177 0.27983 0.71655
 H654 H 0.36515 0.18339 0.58771
 H655 H 0.45823 0.28835 0.63436
 H656 H 0.31298 0.19375 0.63856
 C657 C 0.06008 0.23176 0.13820
 C658 C 0.05731 0.25618 0.09646
 C659 C 0.08235 0.27889 0.09087
 C660 C 0.11083 0.27587 0.12447
 C661 C 0.11346 0.25086 0.16576
 C662 C 0.08778 0.22926 0.17281
 C663 C 0.14205 0.24727 0.19858
 C664 C 0.16864 0.26774 0.18995
 C665 C 0.16594 0.29256 0.14884
 C666 C 0.13711 0.29680 0.11667
 H667 H 0.08012 0.29804 0.05918
 H668 H 0.08947 0.20994 0.20423
 H669 H 0.14395 0.22781 0.22977
 H670 H 0.13561 0.31601 0.08507
 H671 H 0.04099 0.21410 0.14315
 H672 H 0.18613 0.30866 0.14153
 C673 C 0.59264 0.80916 0.51883
 C674 C 0.56798 0.78885 0.53883
 C675 C 0.57443 0.76920 0.58635
 C676 C 0.60568 0.76859 0.61205
 C677 C 0.63082 0.78804 0.59022
 C678 C 0.62385 0.80863 0.54409
 C679 C 0.66256 0.78622 0.61442
 C680 C 0.66943 0.76538 0.66051
 C681 C 0.64396 0.74678 0.68257
 C682 C 0.61245 0.74828 0.65847
 H683 H 0.55553 0.75345 0.60193
 H684 H 0.64268 0.82392 0.52703
 H685 H 0.68190 0.80086 0.59724
 H686 H 0.59348 0.73326 0.67582
 H687 H 0.58794 0.82479 0.48264
 H688 H 0.64854 0.73052 0.71799
   
