data_POSCAR
  _audit_creation_date              2014-09-24
  _audit_creation_method            'ToBaCCo'
  _symmetry_space_group_name_H-M    'P1'
  _symmetry_Int_Tables_number       1
  _symmetry_cell_setting            triclinic
  loop_
  _symmetry_equiv_pos_as_xyz
 x,y,z
_cell_length_a 17.5930
_cell_length_b 18.2758
_cell_length_c 18.6617
_cell_angle_alpha 87.452400
_cell_angle_beta 88.705700
_cell_angle_gamma 90.992600
loop_
  _atom_site_label
  _atom_site_type_symbol
  _atom_site_fract_x
  _atom_site_fract_y
  _atom_site_fract_z
Si1 Si 0.01276 0.49743 0.23347
 Si2 Si 0.00559 0.51726 0.76321
 Si3 Si 0.23765 -0.00964 0.50565
 Si4 Si 0.77548 -0.01511 0.50886
 Si5 Si 0.49106 0.28131 1.00126
 Si6 Si 0.47804 0.73139 0.98038
 B7 B 0.97742 1.07832 0.05368
 B8 B 1.02944 1.00569 0.08555
 B9 B 0.93195 0.99532 0.08004
 B10 B 0.90388 1.04385 0.00400
 B11 B 0.98492 1.08340 -0.03772
 B12 B 1.06320 1.05749 0.01176
 B13 B 0.99669 0.93111 -0.04004
 B14 B 0.94319 1.00323 -0.06944
 B15 B 1.04091 1.01417 -0.06631
 B16 B 1.07080 0.96487 0.01084
 B17 B 0.99022 0.92634 0.05432
 B18 B 0.91056 0.94845 0.00552
 B19 B 0.58758 0.49259 0.44118
 B20 B 0.50528 0.53308 0.41338
 B21 B 0.51002 0.43957 0.42119
 B22 B 0.56309 0.41371 0.49358
 B23 B 0.59356 0.49517 0.53099
 B24 B 0.55470 0.56861 0.48358
 B25 B 0.43427 0.48565 0.54451
 B26 B 0.51737 0.44443 0.57021
 B27 B 0.51329 0.53838 0.56375
 B28 B 0.45769 0.56207 0.49012
 B29 B 0.42985 0.48135 0.45149
 B30 B 0.46508 0.40908 0.50295
 C31 C 1.07001 1.40384 0.13069
 C32 C 1.01018 1.41575 0.17918
 C33 C 0.95138 1.36342 0.18952
 C34 C 0.95638 1.29617 0.15746
 C35 C 1.01731 1.28336 0.11033
 C36 C 1.07328 1.33807 0.09578
 C37 C 1.02215 1.21581 0.07890
 C38 C 0.97034 1.15719 0.09462
 C39 C 0.91048 1.17272 0.14292
 C40 C 0.90270 1.24066 0.17312
 H41 H 0.90262 1.37362 0.22358
 H42 H 1.12077 1.32898 0.05948
 H43 H 1.06826 1.21081 0.04290
 H44 H 0.85499 1.24930 0.20936
 H45 H 1.11524 1.44437 0.12156
 H46 H 0.86713 1.13451 0.15673
 C47 C 0.92342 0.59434 0.14878
 C48 C 0.99637 0.57992 0.17457
 C49 C 1.05213 0.63499 0.16983
 C50 C 1.03202 0.70692 0.15354
 C51 C 0.95769 0.72328 0.13245
 C52 C 0.90373 0.66621 0.12862
 C53 C 0.93981 0.79638 0.11485
 C54 C 0.99783 0.84998 0.10440
 C55 C 1.06512 0.83457 0.14161
 C56 C 1.08361 0.76366 0.16323
 H57 H 1.11008 0.62337 0.18394
 H58 H 0.84635 0.67734 0.11191
 H59 H 0.88126 0.81100 0.11300
 H60 H 1.13952 0.75305 0.18421
 H61 H 0.87992 0.55158 0.15078
 H62 H 1.11006 0.87335 0.14376
 C63 C 1.08183 1.41542 -0.13871
 C64 C 1.02023 1.42764 -0.18441
 C65 C 0.97465 1.36709 -0.20009
 C66 C 0.97833 1.30179 -0.16018
 C67 C 1.04133 1.28712 -0.11817
 C68 C 1.09476 1.34429 -0.10884
 C69 C 1.04801 1.21597 -0.08649
 C70 C 0.98446 1.16616 -0.07979
 C71 C 0.91900 1.19012 -0.11480
 C72 C 0.91774 1.25251 -0.15938
 H73 H 0.93602 1.36849 -0.24388
 H74 H 1.14409 1.33491 -0.07623
 H75 H 1.10183 1.20292 -0.06546
 H76 H 0.86637 1.26539 -0.18809
 H77 H 1.12150 1.45965 -0.12906
 H78 H 0.86704 1.16283 -0.10834
 C79 C 0.91383 0.62904 -0.17737
 C80 C 0.98853 0.60346 -0.18705
 C81 C 1.04942 0.65070 -0.17319
 C82 C 1.03595 0.72293 -0.15405
 C83 C 0.96124 0.74812 -0.14532
 C84 C 0.90034 0.70063 -0.15750
 C85 C 0.94929 0.81965 -0.12217
 C86 C 1.00931 0.86055 -0.09368
 C87 C 1.08164 0.84085 -0.12033
 C88 C 1.09580 0.77219 -0.14679
 H89 H 1.10727 0.63248 -0.18020
 H90 H 0.84229 0.71861 -0.15136
 H91 H 0.89293 0.84178 -0.12392
 H92 H 1.15386 0.75698 -0.15878
 H93 H 0.86482 0.59508 -0.18682
 H94 H 1.13066 0.87327 -0.11323
 C95 C 1.24903 0.96151 0.35637
 C96 C 1.19828 0.98305 0.41116
 C97 C 1.12692 1.00895 0.39036
 C98 C 1.10758 1.01306 0.31678
 C99 C 1.15810 0.98869 0.26329
 C100 C 1.22893 0.96297 0.28413
 C101 C 1.13718 0.99074 0.19002
 C102 C 1.06373 1.01239 0.16877
 C103 C 1.02011 1.04574 0.22290
 C104 C 1.03976 1.04395 0.29510
 H105 H 1.08783 1.02824 0.43076
 H106 H 1.26961 0.94516 0.24437
 H107 H 1.17788 0.97395 0.15025
 H108 H 1.00100 1.06630 0.33410
 H109 H 1.30610 0.94486 0.36847
 H110 H 0.96670 1.06961 0.21190
 C111 C 1.23839 0.93896 -0.34582
 C112 C 1.19803 0.98051 -0.39784
 C113 C 1.14162 1.02719 -0.37282
 C114 C 1.12602 1.03177 -0.29824
 C115 C 1.16717 0.99038 -0.24708
 C116 C 1.22360 0.94412 -0.27191
 C117 C 1.14990 0.99480 -0.17238
 C118 C 1.08365 1.03005 -0.14798
 C119 C 1.04961 1.07673 -0.20098
 C120 C 1.07047 1.07812 -0.27368
 H121 H 1.11170 1.06170 -0.41113
 H122 H 1.25640 0.91165 -0.23417
 H123 H 1.18791 0.97046 -0.13386
 H124 H 1.03866 1.11168 -0.31138
 H125 H 1.28456 0.90440 -0.36116
 H126 H 0.99899 1.10582 -0.19066
 C127 C 0.87194 0.91473 0.40910
 C128 C 0.81731 0.96835 0.41965
 C129 C 0.78382 1.00284 0.36019
 C130 C 0.80883 0.98857 0.29101
 C131 C 0.86949 0.94100 0.28072
 C132 C 0.89966 0.90262 0.34002
 C133 C 0.90252 0.93665 0.21225
 C134 C 0.87815 0.98131 0.15332
 C135 C 0.80966 1.01875 0.16433
 C136 C 0.77608 1.02341 0.23200
 H137 H 0.73789 1.04059 0.36726
 H138 H 0.94473 0.86372 0.33299
 H139 H 0.95454 0.90748 0.21003
 H140 H 0.72732 1.05815 0.23859
 H141 H 0.89248 0.88140 0.45336
 H142 H 0.78460 1.05213 0.12311
 C143 C 0.90806 0.94653 -0.40573
 C144 C 0.83649 0.97914 -0.41187
 C145 C 0.80114 1.00619 -0.35172
 C146 C 0.83534 1.00191 -0.28634
 C147 C 0.90467 0.96645 -0.27733
 C148 C 0.94147 0.93884 -0.33798
 C149 C 0.93647 0.96260 -0.20860
 C150 C 0.90335 0.99949 -0.14981
 C151 C 0.83779 1.03893 -0.16683
 C152 C 0.80187 1.03675 -0.23082
 H153 H 0.74546 1.03074 -0.35531
 H154 H 0.99608 0.91277 -0.33326
 H155 H 0.99054 0.93661 -0.20439
 H156 H 0.75002 1.06737 -0.23826
 H157 H 0.93795 0.92658 -0.45162
 H158 H 0.81145 1.07588 -0.13494
 C159 C 1.39376 1.18734 -0.07359
 C160 C 1.41084 1.21498 -0.00675
 C161 C 1.35969 1.20250 0.05120
 C162 C 1.28953 1.16773 0.04139
 C163 C 1.27049 1.14368 -0.02669
 C164 C 1.32394 1.15192 -0.08358
 C165 C 1.19833 1.11226 -0.03687
 C166 C 1.14428 1.10219 0.02031
 C167 C 1.16586 1.12785 0.08753
 C168 C 1.23676 1.15980 0.09796
 H169 H 1.37260 1.22254 0.10334
 H170 H 1.31091 1.13287 -0.13617
 H171 H 1.18530 1.09715 -0.08972
 H172 H 1.24963 1.17966 0.15029
 H173 H 1.43271 1.19600 -0.11897
 H174 H 1.12663 1.12827 0.13231
 C175 C 0.65049 1.29019 0.01360
 C176 C 0.58776 1.24347 0.00256
 C177 C 0.59879 1.16995 -0.00868
 C178 C 0.67218 1.14251 -0.00730
 C179 C 0.73478 1.18729 0.01001
 C180 C 0.72340 1.26185 0.01959
 C181 C 0.80782 1.15731 0.01407
 C182 C 0.82031 1.08328 -0.00115
 C183 C 0.75702 1.04480 -0.02668
 C184 C 0.68447 1.07217 -0.02782
 H185 H 0.55084 1.13472 -0.02036
 H186 H 0.77063 1.29811 0.03079
 H187 H 0.85492 1.19397 0.02210
 H188 H 0.63879 1.03961 -0.04897
 H189 H 0.64239 1.34810 0.02045
 H190 H 0.76431 0.99510 -0.05437
 C191 C 1.43667 0.87513 -0.00055
 C192 C 1.41211 0.80310 -0.01745
 C193 C 1.33711 0.77955 -0.01677
 C194 C 1.27999 0.82602 -0.00015
 C195 C 1.29539 0.90004 0.01155
 C196 C 1.37422 0.92405 0.01208
 C197 C 1.23100 0.94685 0.01928
 C198 C 1.15366 0.91908 0.01463
 C199 C 1.14671 0.84227 0.01297
 C200 C 1.20715 0.79721 0.00491
 H201 H 1.32321 0.72257 -0.02625
 H202 H 1.38712 0.98169 0.01719
 H203 H 1.24280 1.00246 0.03080
 H204 H 1.19592 0.73916 -0.00066
 H205 H 1.50042 0.91070 -0.02687
 H206 H 1.09250 0.81445 0.01170
 C207 C 0.54738 0.86307 0.00782
 C208 C 0.56016 0.78917 -0.01145
 C209 C 0.63208 0.75785 -0.01429
 C210 C 0.69673 0.79928 -0.00057
 C211 C 0.68901 0.86886 0.02641
 C212 C 0.61431 0.89969 0.03212
 C213 C 0.75707 0.90778 0.04225
 C214 C 0.83079 0.89064 0.01201
 C215 C 0.83406 0.81668 -0.00662
 C216 C 0.76937 0.77170 -0.01220
 H217 H 0.63785 0.70163 -0.02954
 H218 H 0.60914 0.95572 0.04756
 H219 H 0.74859 0.95564 0.07068
 H220 H 0.77638 0.71566 -0.02751
 H221 H 0.88764 0.79012 -0.01073
 C222 C 0.92703 0.42580 0.34652
 C223 C 0.93904 0.49080 0.30474
 C224 C 0.88803 0.54766 0.30967
 C225 C 0.81699 0.53389 0.34118
 C226 C 0.80031 0.46567 0.37643
 C227 C 0.85733 0.41315 0.38263
 C228 C 0.72687 0.45092 0.40370
 C229 C 0.66873 0.50247 0.39679
 C230 C 0.68819 0.56936 0.35941
 C231 C 0.76077 0.58544 0.33298
 H232 H 0.90054 0.60088 0.28417
 H233 H 0.84640 0.36100 0.41126
 H234 H 0.71678 0.39954 0.43033
 H235 H 0.77222 0.63761 0.30445
 H236 H 0.96837 0.38258 0.34586
 H237 H 0.64775 0.61026 0.34888
 C238 C 0.12085 0.57166 0.31301
 C239 C 0.10155 0.50509 0.28291
 C240 C 0.14821 0.44447 0.29292
 C241 C 0.21618 0.45194 0.32944
 C242 C 0.23962 0.52136 0.35123
 C243 C 0.19158 0.58109 0.34320
 C244 C 0.31023 0.52984 0.38213
 C245 C 0.35157 0.46994 0.40720
 C246 C 0.32891 0.40129 0.38123
 C247 C 0.26257 0.39219 0.34286
 H248 H 0.13138 0.39174 0.27348
 H249 H 0.20761 0.63418 0.36236
 H250 H 0.33286 0.58368 0.38436
 H251 H 0.24785 0.33867 0.32395
 H252 H 0.08261 0.61743 0.31054
 H253 H 0.36548 0.35469 0.38581
 C254 C 0.85323 0.47124 0.75419
 C255 C 0.91434 0.50605 0.71564
 C256 C 0.90193 0.53695 0.64680
 C257 C 0.83054 0.52664 0.61571
 C258 C 0.77676 0.47826 0.64976
 C259 C 0.78784 0.45157 0.71968
 C260 C 0.70914 0.46206 0.61649
 C261 C 0.68187 0.50579 0.55986
 C262 C 0.73505 0.55866 0.52924
 C263 C 0.80945 0.56580 0.55376
 H264 H 0.94577 0.57072 0.61946
 H265 H 0.74423 0.41907 0.74895
 H266 H 0.67468 0.42099 0.64177
 H267 H 0.84840 0.60528 0.52706
 H268 H 0.85793 0.45498 0.81041
 H269 H 0.72121 0.59526 0.48556
 C270 C 0.12348 0.59445 0.68060
 C271 C 0.09237 0.52575 0.70293
 C272 C 0.13461 0.46264 0.69095
 C273 C 0.20898 0.46834 0.66267
 C274 C 0.24145 0.53754 0.64423
 C275 C 0.19802 0.60050 0.65266
 C276 C 0.31658 0.54235 0.61698
 C277 C 0.35613 0.48014 0.59633
 C278 C 0.32699 0.41304 0.62720
 C279 C 0.25371 0.40647 0.65734
 H280 H 0.11125 0.40890 0.70627
 H281 H 0.22180 0.65433 0.63813
 H282 H 0.34272 0.59505 0.61133
 H283 H 0.23272 0.35318 0.67749
 H284 H 0.09149 0.64378 0.68734
 H285 H 0.36129 0.36537 0.63233
 C286 C 0.40991 0.71736 0.12498
 C287 C 0.46041 0.68580 0.07476
 C288 C 0.50798 0.63091 0.10150
 C289 C 0.50596 0.60954 0.17552
 C290 C 0.45513 0.64133 0.22453
 C291 C 0.40651 0.69483 0.19778
 C292 C 0.45544 0.62082 0.29933
 C293 C 0.50540 0.56694 0.32689
 C294 C 0.55656 0.53909 0.27446
 C295 C 0.55671 0.55894 0.20181
 H296 H 0.54936 0.60764 0.06555
 H297 H 0.36746 0.72140 0.23363
 H298 H 0.42016 0.65021 0.33579
 H299 H 0.59689 0.53373 0.16598
 H300 H 0.37469 0.76288 0.11080
 H301 H 0.59655 0.49760 0.28698
 C302 C 0.42125 0.72910 0.83536
 C303 C 0.47122 0.69634 0.88546
 C304 C 0.52272 0.64547 0.86000
 C305 C 0.52398 0.62767 0.78695
 C306 C 0.47269 0.65925 0.73778
 C307 C 0.42151 0.71046 0.76308
 C308 C 0.47304 0.63829 0.66490
 C309 C 0.52048 0.58171 0.64127
 C310 C 0.57430 0.55709 0.69177
 C311 C 0.57643 0.57877 0.76213
 H312 H 0.56291 0.62086 0.89658
 H313 H 0.38185 0.73659 0.72691
 H314 H 0.43586 0.66589 0.62825
 H315 H 0.61697 0.55381 0.79822
 H316 H 0.38254 0.77106 0.85058
 H317 H 0.60965 0.51318 0.68172
 C318 C 0.42016 0.37147 0.10216
 C319 C 0.48091 0.32559 0.08750
 C320 C 0.53171 0.30653 0.14169
 C321 C 0.52623 0.33745 0.20780
 C322 C 0.46539 0.38307 0.22284
 C323 C 0.41227 0.40016 0.16987
 C324 C 0.46013 0.41316 0.28968
 C325 C 0.51336 0.39835 0.34421
 C326 C 0.57895 0.36069 0.32237
 C327 C 0.58333 0.32695 0.25737
 H328 H 0.57580 0.26716 0.13392
 H329 H 0.36489 0.43542 0.18087
 H330 H 0.41993 0.45617 0.29378
 H331 H 0.63332 0.29578 0.24452
 H332 H 0.37770 0.38327 0.06259
 H333 H 0.62847 0.35728 0.35449
 C334 C 0.44179 0.39642 0.90517
 C335 C 0.49200 0.33882 0.91783
 C336 C 0.53623 0.31360 0.86128
 C337 C 0.52998 0.34392 0.79256
 C338 C 0.47952 0.40120 0.77899
 C339 C 0.43622 0.42826 0.83591
 C340 C 0.47370 0.43050 0.70894
 C341 C 0.51852 0.40478 0.65127
 C342 C 0.56751 0.34697 0.66841
 C343 C 0.57319 0.31669 0.73711
 H344 H 0.57317 0.26734 0.86909
 H345 H 0.39704 0.47260 0.82653
 H346 H 0.43750 0.47684 0.70186
 H347 H 0.61264 0.27261 0.74690
 H348 H 0.40564 0.41554 0.94760
 H349 H 0.60507 0.32551 0.62958
 C350 C 0.70848 0.86217 0.59071
 C351 C 0.70688 0.90494 0.52587
 C352 C 0.66973 0.87571 0.46758
 C353 C 0.64143 0.80310 0.47185
 C354 C 0.64774 0.75949 0.53555
 C355 C 0.67910 0.79054 0.59554
 C356 C 0.62386 0.68536 0.53804
 C357 C 0.59145 0.65296 0.47805
 C358 C 0.58302 0.70009 0.41645
 C359 C 0.60889 0.77266 0.41262
 H360 H 0.66763 0.90735 0.41723
 H361 H 0.68367 0.75852 0.64550
 H362 H 0.63284 0.65306 0.58663
 H363 H 0.60184 0.80541 0.36343
 H364 H 0.73601 0.88138 0.63742
 H365 H 0.55407 0.68318 0.37060
 C366 C 0.79154 0.13865 0.53558
 C367 C 0.74339 0.08424 0.50839
 C368 C 0.67368 0.10596 0.48069
 C369 C 0.65233 0.18014 0.48090
 C370 C 0.69811 0.23333 0.51294
 C371 C 0.76843 0.21162 0.53970
 C372 C 0.67299 0.30686 0.51717
 C373 C 0.60322 0.32993 0.48704
 C374 C 0.56341 0.27438 0.45036
 C375 C 0.58596 0.20200 0.44868
 H376 H 0.63665 0.06541 0.45807
 H377 H 0.80603 0.25114 0.56306
 H378 H 0.70828 0.34558 0.54360
 H379 H 0.55036 0.16280 0.42239
 H380 H 0.84716 0.12468 0.55497
 H381 H 0.50987 0.28457 0.42535
 C382 C 0.38407 0.91992 0.49996
 C383 C 0.30480 0.91182 0.50355
 C384 C 0.27185 0.84132 0.50247
 C385 C 0.31691 0.77898 0.49836
 C386 C 0.39696 0.78736 0.49671
 C387 C 0.42973 0.85800 0.49756
 C388 C 0.44497 0.72729 0.49378
 C389 C 0.40871 0.64910 0.49080
 C390 C 0.32321 0.64610 0.49263
 C391 C 0.28164 0.70985 0.49612
 H392 H 0.21038 0.83515 0.50420
 H393 H 0.49097 0.86549 0.49546
 H394 H 0.43713 0.67955 0.49164
 H395 H 0.22013 0.70487 0.49799
 H396 H 0.41092 0.97352 0.49779
 H397 H 0.29170 0.59509 0.49452
 C398 C 0.22475 0.14384 0.47846
 C399 C 0.27179 0.08765 0.50497
 C400 C 0.33849 0.10667 0.53910
 C401 C 0.36181 0.18030 0.54016
 C402 C 0.31664 0.23642 0.51076
 C403 C 0.24653 0.21768 0.48198
 C404 C 0.34353 0.30980 0.50942
 C405 C 0.42077 0.32705 0.52274
 C406 C 0.45766 0.27041 0.56225
 C407 C 0.42988 0.19896 0.57048
 H408 H 0.37211 0.06469 0.56511
 H409 H 0.20982 0.25972 0.46020
 H410 H 0.30340 0.35258 0.49942
 H411 H 0.46464 0.15745 0.59617
 H412 H 0.17044 0.13111 0.45583
 H413 H 0.51332 0.27605 0.57985
   
