data_POSCAR
  _audit_creation_date              2014-09-24
  _audit_creation_method            'ToBaCCo'
  _symmetry_space_group_name_H-M    'P1'
  _symmetry_Int_Tables_number       1
  _symmetry_cell_setting            triclinic
  loop_
  _symmetry_equiv_pos_as_xyz
 x,y,z
_cell_length_a 28.8996
_cell_length_b 28.9390
_cell_length_c 72.2681
_cell_angle_alpha 87.331500
_cell_angle_beta 91.310500
_cell_angle_gamma 120.104200
loop_
  _atom_site_label
  _atom_site_type_symbol
  _atom_site_fract_x
  _atom_site_fract_y
  _atom_site_fract_z
C1 C 0.01741 0.09215 0.52492
 H2 H 0.05555 0.09372 0.52437
 C3 C 0.01119 0.12654 0.53613
 H4 H 0.04459 0.15463 0.54432
 C5 C -0.07264 0.05383 0.51478
 H6 H -0.10491 0.02578 0.50627
 C7 C -0.08058 0.08766 0.52586
 H8 H -0.11914 0.08539 0.52600
 N9 N -0.02428 0.05640 0.51467
 C10 C 0.01192 -0.07054 0.50689
 H11 H 0.01431 -0.06979 0.49195
 C12 C 0.01515 -0.11032 0.51761
 H13 H 0.02046 -0.14011 0.51094
 C14 C -0.00106 -0.03464 0.53385
 H15 H -0.00912 -0.00628 0.54013
 C16 C 0.00204 -0.07359 0.54505
 H17 H -0.00299 -0.07459 0.55990
 Zn18 Zn -0.00938 0.01331 0.49986
 N19 N 0.00363 -0.03393 0.51512
 C20 C 0.09674 0.05797 0.48531
 N21 N 0.05098 0.06055 0.48534
 C22 C 0.04680 0.09919 0.47527
 C23 C 0.08930 0.13669 0.46430
 C24 C 0.14039 0.09486 0.47448
 C25 C -0.11379 -0.06862 0.49233
 C26 C -0.15528 -0.10567 0.48141
 C27 C -0.10132 -0.06114 0.45419
 C28 C -0.06092 -0.02510 0.46562
 N29 N -0.06763 -0.02961 0.48432
 H30 H 0.09953 0.02753 0.49368
 H31 H 0.01017 0.10064 0.47575
 H32 H 0.08541 0.16708 0.45624
 H33 H 0.17665 0.09256 0.47439
 H34 H -0.11759 -0.07200 0.50726
 H35 H -0.19130 -0.13739 0.48799
 H36 H -0.09484 -0.05783 0.43935
 H37 H -0.02352 0.00513 0.45952
 C38 C 0.00957 -0.11213 0.53684
 C39 C -0.03821 0.12424 0.53665
 C40 C -0.14868 -0.10225 0.46216
 C41 C 0.13645 0.13447 0.46386
 C42 C 1.11498 0.04637 0.14181
 H43 H 1.11666 0.08450 0.14224
 C44 C 1.15081 0.04115 0.13073
 H45 H 1.18014 0.07531 0.12254
 C46 C 1.07484 -0.04471 0.15206
 H47 H 1.04548 -0.07781 0.16055
 C48 C 1.11008 -0.05167 0.14112
 H49 H 1.10757 -0.09028 0.14107
 N50 N 1.07765 0.00369 0.15203
 C51 C 0.94938 0.03898 0.15914
 H52 H 0.94798 0.03970 0.17406
 C53 C 0.91094 0.04319 0.14824
 H54 H 0.88005 0.04758 0.15476
 C55 C 0.98930 0.02917 0.13240
 H56 H 1.01868 0.02192 0.12627
 C57 C 0.95176 0.03330 0.12102
 H58 H 0.95286 0.02987 0.10619
 Zn59 Zn 1.03245 0.01705 0.16660
 N60 N 0.98732 0.03176 0.15110
 C61 C 1.07493 0.12126 0.18116
 N62 N 1.07770 0.07566 0.18116
 C63 C 1.11501 0.07031 0.19135
 C64 C 1.15084 0.11134 0.20244
 C65 C 1.11016 0.16345 0.19212
 C66 C 0.94931 -0.08808 0.17410
 C67 C 0.91088 -0.13079 0.18502
 C68 C 0.95175 -0.08001 0.21221
 C69 C 0.98928 -0.03828 0.20082
 N70 N 0.98727 -0.04285 0.18212
 H71 H 1.04558 0.12501 0.17270
 H72 H 1.11666 0.03385 0.19089
 H73 H 1.18013 0.10648 0.21061
 H74 H 1.10768 0.19956 0.19221
 H75 H 0.94789 -0.09020 0.15918
 H76 H 0.87997 -0.16612 0.17852
 H77 H 0.95287 -0.07548 0.22704
 H78 H 1.01868 -0.00161 0.20693
 C79 C 0.91187 0.03970 0.12903
 C80 C 1.14828 -0.00828 0.13034
 C81 C 0.91183 -0.12638 0.20423
 C82 C 1.14833 0.15824 0.20288
 C83 C 0.04744 0.94721 0.85789
 H84 H 0.01082 0.90904 0.85738
 C85 C 0.08984 0.95226 0.86890
 H86 H 0.08589 0.91795 0.87697
 C87 C 0.09744 1.03849 0.84788
 H88 H 0.10028 1.07174 0.83950
 C89 C 0.14098 1.04530 0.85875
 H90 H 0.17723 1.08394 0.85886
 N91 N 0.05169 0.99005 0.84782
 C92 C -0.11297 0.95431 0.84073
 H93 H -0.11666 0.95392 0.82579
 C94 C -0.15449 0.94989 0.85162
 H95 H -0.19044 0.94565 0.84506
 C96 C -0.06034 0.96362 0.86748
 H97 H -0.02300 0.97079 0.87360
 C98 C -0.10080 0.95927 0.87887
 H99 H -0.09452 0.96245 0.89371
 Zn100 Zn -0.00856 0.97687 0.83326
 N101 N -0.06691 0.96143 0.84877
 C102 C -0.07176 0.87305 0.81832
 N103 N -0.02338 0.91888 0.81845
 C104 C 0.01836 0.92489 0.80822
 C105 C 0.01218 0.88430 0.79700
 C106 C -0.07968 0.83128 0.80723
 C107 C 0.01264 1.08200 0.82625
 C108 C 0.01579 1.12500 0.81554
 C109 C 0.00299 1.07528 0.78809
 C110 C -0.00004 1.03325 0.79928
 N111 N 0.00452 1.03717 0.81801
 H112 H -0.10409 0.86879 0.82680
 H113 H 0.05653 0.96151 0.80879
 H114 H 0.04563 0.88965 0.78883
 H115 H -0.11826 0.79495 0.80707
 H116 H 0.01493 1.08359 0.84119
 H117 H 0.02094 1.16004 0.82221
 H118 H -0.00196 1.07129 0.77323
 H119 H -0.00797 0.99686 0.79300
 C120 C -0.14801 0.95306 0.87086
 C121 C 0.13696 1.00172 0.86937
 C122 C 0.01032 1.12128 0.79630
 C123 C -0.03724 0.83714 0.79646
 C124 C 0.36820 -0.00161 -0.00995
 C125 C 0.36722 -0.00575 0.00902
 C126 C 0.41305 -0.00668 0.01454
 N127 N 0.44162 -0.00366 -0.00048
 C128 C 0.41434 -0.00066 -0.01549
 C129 C 0.42837 -0.00808 0.03319
 C130 C 0.47741 -0.00399 0.03894
 C131 C 0.49695 0.00572 0.05690
 C132 C 0.54601 0.00895 0.05681
 C133 C 0.55522 0.00076 0.03880
 N134 N 0.51272 -0.00799 0.02808
 C135 C 0.60207 0.00137 0.03301
 C136 C 0.61440 -0.00201 0.01447
 C137 C 0.65979 -0.00256 0.00896
 C138 C 0.65752 -0.00491 -0.00996
 C139 C 0.61095 -0.00543 -0.01547
 N140 N 0.58482 -0.00370 -0.00050
 C141 C 0.59310 -0.00878 -0.03401
 C142 C 0.54625 -0.00808 -0.03979
 C143 C 0.52679 -0.01614 -0.05780
 C144 C 0.48097 -0.01288 -0.05789
 C145 C 0.47321 -0.00329 -0.03991
 N146 N 0.51375 0.00062 -0.02906
 C147 C 0.42892 0.00077 -0.03415
 H148 H 0.33796 -0.00015 -0.01867
 H149 H 0.33651 -0.00722 0.01774
 H150 H 0.52074 0.01238 -0.01549
 H151 H 0.47831 0.01105 0.06881
 H152 H 0.57213 0.01690 0.06866
 H153 H 0.69132 -0.00141 0.01766
 H154 H 0.68689 -0.00607 -0.01866
 H155 H 0.45564 -0.01812 -0.06980
 H156 H 0.50627 -0.01987 0.01453
 H157 H 0.54358 -0.02402 -0.06967
 C158 C -0.05729 0.32827 0.65819
 C159 C -0.05408 0.32835 0.67717
 C160 C -0.04233 0.37879 0.68218
 N161 N -0.03762 0.40961 0.66690
 C162 C -0.04703 0.37879 0.65222
 C163 C -0.03285 0.39648 0.70048
 C164 C -0.02779 0.44528 0.70572
 C165 C -0.01214 0.46617 0.72314
 C166 C -0.01521 0.51212 0.72298
 C167 C -0.03227 0.51830 0.70542
 N168 N -0.04045 0.47708 0.69508
 C169 C -0.04176 0.56012 0.69965
 C170 C -0.04655 0.57342 0.68093
 C171 C -0.05673 0.61373 0.67498
 C172 C -0.05376 0.61674 0.65600
 C173 C -0.04225 0.57792 0.65097
 N174 N -0.03744 0.55186 0.66623
 C175 C -0.03305 0.56956 0.63264
 C176 C -0.02811 0.52576 0.62741
 C177 C -0.01255 0.52047 0.60997
 C178 C -0.01573 0.47139 0.61014
 C179 C -0.03278 0.44817 0.62771
 N180 N -0.04083 0.48128 0.63806
 C181 C -0.04238 0.39680 0.63350
 H182 H -0.06526 0.29512 0.64976
 H183 H -0.05938 0.29518 0.68622
 H184 H -0.05941 0.47150 0.65090
 H185 H -0.00026 0.44974 0.73484
 H186 H -0.00584 0.53808 0.73448
 H187 H -0.06448 0.63903 0.68343
 H188 H -0.05907 0.64461 0.64695
 H189 H -0.00644 0.45476 0.59864
 H190 H -0.05905 0.46827 0.68225
 H191 H -0.00064 0.54878 0.59827
 C192 C 0.36786 0.37066 0.34341
 C193 C 0.36683 0.37395 0.32444
 C194 C 0.41288 0.42060 0.31891
 N195 N 0.44164 0.44595 0.33392
 C196 C 0.41426 0.41566 0.34894
 C197 C 0.42827 0.43732 0.30026
 C198 C 0.47746 0.48220 0.29452
 C199 C 0.49713 0.49191 0.27657
 C200 C 0.54625 0.53776 0.27666
 C201 C 0.55536 0.55529 0.29464
 N202 N 0.51275 0.52159 0.30536
 C203 C 0.60215 0.60165 0.30041
 C204 C 0.61443 0.61739 0.31894
 C205 C 0.65968 0.66356 0.32443
 C206 C 0.65746 0.66353 0.34337
 C207 C 0.61107 0.61721 0.34889
 N208 N 0.58500 0.58929 0.33393
 C209 C 0.59337 0.60249 0.36745
 C210 C 0.54659 0.55477 0.37325
 C211 C 0.52734 0.54312 0.39129
 C212 C 0.48148 0.49399 0.39138
 C213 C 0.47348 0.47687 0.37337
 N214 N 0.51392 0.51368 0.36249
 C215 C 0.42901 0.42860 0.36760
 H216 H 0.33749 0.33898 0.35213
 H217 H 0.33596 0.34486 0.31573
 H218 H 0.52068 0.50913 0.34888
 H219 H 0.47853 0.46786 0.26467
 H220 H 0.57246 0.55588 0.26481
 H221 H 0.69108 0.69415 0.31572
 H222 H 0.68675 0.69418 0.35205
 H223 H 0.45626 0.47374 0.40332
 H224 H 0.50617 0.52716 0.31889
 H225 H 0.54429 0.56766 0.40319
 C226 C -0.04000 0.30547 0.57375
 C227 C -0.00112 0.28321 0.57421
 C228 C -0.04883 0.22696 0.57130
 C229 C -0.08775 0.24859 0.57064
 C230 C -0.04777 0.29427 0.59477
 C231 C -0.09551 0.23804 0.59189
 C232 C -0.00891 0.27259 0.59540
 C233 C -0.05659 0.21584 0.59233
 C234 C -0.04770 0.18967 0.55854
 C235 C -0.04465 0.15946 0.54838
 C236 C -0.04630 0.33145 0.60815
 C237 C -0.04459 0.36150 0.61950
 H238 H -0.03311 0.34278 0.56628
 H239 H 0.03771 0.30138 0.56679
 H240 H -0.12017 0.23825 0.56031
 H241 H -0.13430 0.21991 0.59933
 H242 H 0.02354 0.28287 0.60572
 H243 H -0.06345 0.17858 0.59983
 C244 C 0.76950 0.74657 0.26735
 C245 C 0.79990 0.72982 0.25435
 C246 C 0.79249 0.76249 0.23839
 C247 C 0.76270 0.77975 0.25122
 C248 C 0.71662 0.69767 0.26172
 C249 C 0.70920 0.73034 0.24577
 C250 C 0.74634 0.68030 0.24891
 C251 C 0.73962 0.71360 0.23272
 C252 C 0.83502 0.80008 0.22575
 C253 C 0.87009 0.83266 0.21573
 C254 C 0.67499 0.66263 0.27506
 C255 C 0.64149 0.63463 0.28640
 H256 H 0.78129 0.75976 0.28174
 H257 H 0.83764 0.72999 0.25773
 H258 H 0.76988 0.82105 0.25205
 H259 H 0.67145 0.73017 0.24240
 H260 H 0.73907 0.63897 0.24811
 H261 H 0.72785 0.70045 0.21834
 C262 C 0.29846 -0.03230 -0.08858
 C263 C 0.24448 -0.03769 -0.08304
 C264 C 0.25592 0.00966 -0.09644
 C265 C 0.30933 0.01509 -0.10220
 C266 C 0.32604 0.00736 -0.07314
 C267 C 0.33760 0.05478 -0.08652
 C268 C 0.27261 0.00194 -0.06742
 C269 C 0.28350 0.04932 -0.08100
 C270 C 0.21538 0.00932 -0.10907
 C271 C 0.18047 0.00706 -0.11909
 C272 C 0.36386 0.00532 -0.05977
 C273 C 0.39387 0.00326 -0.04835
 H274 H 0.30503 -0.06587 -0.09154
 H275 H 0.20574 -0.07571 -0.08173
 H276 H 0.32399 0.02056 -0.11664
 H277 H 0.37638 0.09276 -0.08780
 H278 H 0.25791 -0.00354 -0.05298
 H279 H 0.27693 0.08289 -0.07803
 C280 C -0.01700 0.73543 0.59919
 C281 C 0.03405 0.77196 0.58768
 C282 C -0.00113 0.76473 0.57056
 C283 C -0.05208 0.72881 0.58191
 C284 C -0.01350 0.68658 0.59377
 C285 C -0.04870 0.67931 0.57666
 C286 C 0.03749 0.72244 0.58243
 C287 C 0.00239 0.71591 0.56510
 C288 C 0.00463 0.80859 0.55804
 C289 C 0.00785 0.84478 0.54815
 C290 C -0.02066 0.64382 0.60710
 C291 C -0.02650 0.60956 0.61849
 H292 H -0.02510 0.74295 0.61336
 H293 H 0.06815 0.81051 0.59207
 H294 H -0.08885 0.73192 0.58157
 H295 H -0.08280 0.64074 0.57229
 H296 H 0.07422 0.71927 0.58280
 H297 H 0.01048 0.70842 0.55093
 C298 C 0.29632 0.27832 0.26331
 C299 C 0.24226 0.27419 0.25795
 C300 C 0.25441 0.27257 0.23749
 C301 C 0.30796 0.27617 0.24267
 C302 C 0.32357 0.33947 0.26107
 C303 C 0.33580 0.33790 0.24061
 C304 C 0.27003 0.33593 0.25590
 C305 C 0.28160 0.33372 0.23521
 C306 C 0.21601 0.23378 0.22470
 C307 C 0.18481 0.20023 0.21455
 C308 C 0.36166 0.37548 0.27456
 C309 C 0.39234 0.40401 0.28604
 H310 H 0.30280 0.25594 0.27501
 H311 H 0.20338 0.24762 0.26495
 H312 H 0.32314 0.25116 0.23709
 H313 H 0.37472 0.36451 0.23365
 H314 H 0.25490 0.36094 0.26150
 H315 H 0.27506 0.35603 0.22351
 C316 C 0.73379 -0.03177 -0.06685
 C317 C 0.71542 -0.07892 -0.07986
 C318 C 0.74671 -0.03877 -0.09578
 C319 C 0.76556 0.00828 -0.08294
 C320 C 0.68447 -0.02759 -0.07259
 C321 C 0.71576 0.01257 -0.08850
 C322 C 0.66550 -0.07468 -0.08542
 C323 C 0.69740 -0.03458 -0.10155
 C324 C 0.78294 -0.04371 -0.10833
 C325 C 0.81449 -0.04614 -0.11829
 C326 C 0.65096 -0.02091 -0.05931
 C327 C 0.62432 -0.01530 -0.04801
 H328 H 0.74840 -0.03049 -0.05244
 H329 H 0.71565 -0.11660 -0.07645
 H330 H 0.80710 0.04235 -0.08204
 H331 H 0.71553 0.05026 -0.09190
 H332 H 0.62393 -0.10869 -0.08628
 H333 H 0.68283 -0.03585 -0.11597
 C334 C 0.28928 -0.06197 0.08573
 C335 C 0.30307 -0.02232 0.10145
 C336 C 0.25448 -0.01667 0.09584
 C337 C 0.24007 -0.05628 0.08035
 C338 C 0.32373 -0.01454 0.07234
 C339 C 0.27513 -0.00889 0.06677
 C340 C 0.33814 0.02507 0.08782
 C341 C 0.28899 0.03069 0.08243
 C342 C 0.21604 -0.01620 0.10858
 C343 C 0.18481 -0.01380 0.11870
 C344 C 0.36184 -0.01257 0.05888
 C345 C 0.39250 -0.01054 0.04741
 H346 H 0.28990 -0.10003 0.08693
 H347 H 0.31407 -0.02791 0.11585
 H348 H 0.19933 -0.08974 0.07743
 H349 H 0.26411 -0.00330 0.05236
 H350 H 0.37888 0.05853 0.09073
 H351 H 0.28845 0.06880 0.08120
 C352 C 0.66497 0.73448 0.42094
 C353 C 0.70337 0.72917 0.43509
 C354 C 0.74741 0.78593 0.42921
 C355 C 0.70962 0.79192 0.41528
 C356 C 0.68503 0.71255 0.40603
 C357 C 0.72909 0.76932 0.40018
 C358 C 0.72283 0.70657 0.41996
 C359 C 0.76735 0.76391 0.41429
 C360 C 0.78372 0.82708 0.44177
 C361 C 0.81535 0.86103 0.45172
 C362 C 0.65141 0.67238 0.39276
 C363 C 0.62468 0.64017 0.38145
 H364 H 0.62244 0.72183 0.42351
 H365 H 0.69318 0.71315 0.44960
 H366 H 0.70458 0.82744 0.41350
 H367 H 0.73932 0.78534 0.38568
 H368 H 0.72789 0.67106 0.42173
 H369 H 0.80985 0.77648 0.41168
 C370 C -0.00550 0.30603 0.76033
 C371 C -0.04645 0.24567 0.76347
 C372 C -0.00051 0.23358 0.76257
 C373 C 0.04056 0.29330 0.75965
 C374 C -0.01293 0.29923 0.73933
 C375 C 0.03301 0.28713 0.73843
 C376 C -0.05393 0.23951 0.74226
 C377 C -0.00794 0.22690 0.74155
 C378 C 0.00528 0.19555 0.77510
 C379 C 0.00854 0.16261 0.78500
 C380 C -0.02019 0.33474 0.72599
 C381 C -0.02614 0.36310 0.71461
 H382 H -0.00463 0.33899 0.76789
 H383 H -0.07905 0.22822 0.77391
 H384 H 0.07949 0.31497 0.76694
 H385 H 0.06558 0.30457 0.72797
 H386 H -0.09286 0.21779 0.73497
 H387 H -0.00884 0.19399 0.73395
 C388 C 0.76911 0.02340 0.06602
 C389 C 0.80004 0.07097 0.07883
 C390 C 0.79246 0.03124 0.09494
 C391 C 0.76212 -0.01623 0.08231
 C392 C 0.71655 0.02006 0.07166
 C393 C 0.70896 -0.01967 0.08777
 C394 C 0.74682 0.06758 0.08428
 C395 C 0.73992 0.02791 0.10061
 C396 C 0.83501 0.03626 0.10756
 C397 C 0.87010 0.03882 0.11755
 C398 C 0.67492 0.01342 0.05834
 C399 C 0.64142 0.00785 0.04702
 H400 H 0.78060 0.02141 0.05165
 H401 H 0.83795 0.10830 0.07530
 H402 H 0.76887 -0.05065 0.08162
 H403 H 0.67105 -0.05701 0.09129
 H404 H 0.73999 0.10195 0.08493
 H405 H 0.72845 0.02988 0.11499
 C406 C 0.27261 0.27075 0.40080
 C407 C 0.28334 0.23407 0.41432
 C408 C 0.25574 0.24599 0.42980
 C409 C 0.24446 0.28210 0.41645
 C410 C 0.32606 0.31872 0.40656
 C411 C 0.29846 0.33065 0.42203
 C412 C 0.33746 0.28268 0.41989
 C413 C 0.30917 0.29394 0.43559
 C414 C 0.21508 0.20562 0.44238
 C415 C 0.18007 0.17282 0.45237
 C416 C 0.36394 0.35873 0.39321
 C417 C 0.39397 0.39093 0.38179
 H418 H 0.25799 0.26170 0.38635
 H419 H 0.27669 0.19392 0.41129
 H420 H 0.20577 0.28141 0.41516
 H421 H 0.30511 0.37080 0.42505
 H422 H 0.37619 0.28344 0.42115
 H423 H 0.32376 0.30297 0.45005
 C424 C -0.07672 0.68849 0.73518
 C425 C -0.09793 0.67331 0.75534
 C426 C -0.04782 0.72374 0.76184
 C427 C -0.02665 0.73944 0.74188
 C428 C -0.04677 0.65745 0.73838
 C429 C 0.00328 0.70789 0.74489
 C430 C -0.06797 0.64162 0.75833
 C431 C -0.01787 0.69270 0.76504
 C432 C -0.04669 0.76219 0.77458
 C433 C -0.04365 0.79547 0.78474
 C434 C -0.04537 0.62170 0.72500
 C435 C -0.04379 0.59331 0.71366
 H436 H -0.10085 0.68636 0.72274
 H437 H -0.13953 0.65954 0.75979
 H438 H -0.00969 0.78005 0.73524
 H439 H 0.04490 0.72172 0.74046
 H440 H -0.08489 0.60097 0.76493
 H441 H 0.00631 0.69483 0.77747
   
