data_POSCAR
  _audit_creation_date              2014-09-24
  _audit_creation_method            'ToBaCCo'
  _symmetry_space_group_name_H-M    'P1'
  _symmetry_Int_Tables_number       1
  _symmetry_cell_setting            triclinic
  loop_
  _symmetry_equiv_pos_as_xyz
 x,y,z
_cell_length_a 20.3945
_cell_length_b 19.0094
_cell_length_c 24.7529
_cell_angle_alpha 90.332500
_cell_angle_beta 92.764700
_cell_angle_gamma 85.039600
loop_
  _atom_site_label
  _atom_site_type_symbol
  _atom_site_fract_x
  _atom_site_fract_y
  _atom_site_fract_z
C1 C 1.18283 0.24826 0.20551
 C2 C 1.23841 0.28394 0.18094
 C3 C 1.29109 0.29144 0.21527
 C4 C 1.28263 0.26313 0.27274
 C5 C 1.21546 0.17843 0.22860
 C6 C 1.26709 0.18603 0.26454
 C7 C 1.16457 0.29235 0.25541
 C8 C 1.21680 0.30018 0.29073
 H9 H 1.23685 0.29953 0.13880
 H10 H 1.32536 0.26870 0.30137
 H11 H 1.19471 0.12847 0.22151
 H12 H 1.11466 0.31290 0.26304
 C13 C 0.67733 -0.25284 0.19937
 C14 C 0.73427 -0.22135 0.17326
 C15 C 0.78893 -0.21902 0.20649
 C16 C 0.78177 -0.24864 0.26335
 C17 C 0.70582 -0.32526 0.22059
 C18 C 0.75971 -0.32318 0.25492
 C19 C 0.66560 -0.20819 0.25070
 C20 C 0.72030 -0.20693 0.28450
 H21 H 0.73127 -0.20221 0.13198
 H22 H 0.82661 -0.24641 0.29031
 H23 H 0.68044 -0.37244 0.21371
 H24 H 0.61754 -0.18683 0.26258
 C25 C 0.68307 0.24252 -0.29678
 C26 C 0.73517 0.27821 -0.31982
 C27 C 0.79085 0.28512 -0.28391
 C28 C 0.78299 0.25555 -0.22989
 C29 C 0.71465 0.17520 -0.27683
 C30 C 0.76883 0.18194 -0.23861
 C31 C 0.66548 0.28248 -0.24805
 C32 C 0.72086 0.29017 -0.21076
 H33 H 0.73303 0.29615 -0.36147
 H34 H 0.82652 0.25972 -0.20204
 H35 H 0.69244 0.12593 -0.28333
 H36 H 0.61542 0.30166 -0.23956
 C37 C 1.17617 -0.25081 -0.29884
 C38 C 1.23328 -0.22007 -0.32537
 C39 C 1.28826 -0.21807 -0.29244
 C40 C 1.28101 -0.24658 -0.23523
 C41 C 1.20444 -0.32326 -0.27728
 C42 C 1.25892 -0.32116 -0.24351
 C43 C 1.16491 -0.20568 -0.24775
 C44 C 1.21963 -0.20427 -0.21408
 H45 H 1.23084 -0.20318 -0.36721
 H46 H 1.32599 -0.24423 -0.20845
 H47 H 1.17970 -0.37075 -0.28475
 H48 H 1.11688 -0.18435 -0.23576
 C49 C 0.19723 0.21173 0.78503
 C50 C 0.24862 0.22865 0.82501
 C51 C 0.30272 0.25916 0.80199
 C52 C 0.29391 0.26928 0.74365
 C53 C 0.17613 0.28131 0.75639
 C54 C 0.22644 0.31177 0.73476
 C55 C 0.23229 0.16539 0.74246
 C56 C 0.28290 0.19560 0.72102
 H57 H 0.24759 0.21692 0.86772
 H58 H 0.33404 0.29429 0.72436
 H59 H 0.12527 0.30309 0.75163
 H60 H 0.22204 0.11132 0.73399
 C61 C 0.70655 0.70773 0.78795
 C62 C 0.75657 0.72757 0.82850
 C63 C 0.80658 0.76513 0.80603
 C64 C 0.79506 0.77875 0.74841
 C65 C 0.67987 0.77433 0.76294
 C66 C 0.72884 0.81400 0.74144
 C67 C 0.74341 0.66931 0.74571
 C68 C 0.79068 0.71008 0.72217
 H69 H 0.75895 0.71133 0.87049
 H70 H 0.83334 0.80943 0.73234
 H71 H 0.62759 0.78992 0.75697
 H72 H 0.72865 0.62082 0.72741
 C73 C 0.68986 0.20247 0.27975
 C74 C 0.74497 0.20927 0.32324
 C75 C 0.79370 0.24750 0.30777
 C76 C 0.78340 0.27579 0.24971
 C77 C 0.66642 0.27848 0.26313
 C78 C 0.71510 0.31661 0.24664
 C79 C 0.72490 0.17094 0.23056
 C80 C 0.77310 0.21025 0.21414
 H81 H 0.74570 0.18573 0.36305
 H82 H 0.82377 0.30699 0.23737
 H83 H 0.61477 0.29648 0.25655
 H84 H 0.70726 0.12777 0.20683
 C85 C 0.20088 0.70427 0.28666
 C86 C 0.25783 0.71608 0.32778
 C87 C 0.30638 0.75032 0.30670
 C88 C 0.29351 0.77067 0.24724
 C89 C 0.17763 0.77832 0.26532
 C90 C 0.22595 0.81288 0.24432
 C91 C 0.23342 0.66603 0.23839
 C92 C 0.28128 0.70179 0.21722
 H93 H 0.25991 0.69848 0.36941
 H94 H 0.33361 0.79888 0.23080
 H95 H 0.12615 0.79797 0.26110
 H96 H 0.21372 0.62118 0.21819
 O97 O 1.09469 0.08209 0.05865
 O98 O 0.90351 -0.04647 0.07560
 O99 O 0.93490 0.12781 0.04652
 O100 O 1.06820 -0.08570 0.08826
 O101 O 0.85831 0.05933 0.03110
 O102 O 1.14232 -0.03324 0.05138
 O103 O 0.96866 -0.13678 0.06004
 O104 O 1.03446 0.15787 0.01276
 C105 C 1.06839 0.14254 0.05481
 C106 C 0.93035 -0.10408 0.09083
 C107 C 0.88008 0.11058 0.05639
 C108 C 1.12195 -0.06050 0.09237
 O109 O 1.11702 -0.02816 -0.05937
 O110 O 0.88038 -0.00733 -0.06739
 O111 O 0.99711 0.10231 -0.08537
 O112 O 1.00658 -0.14145 -0.04253
 O113 O 0.90698 -0.11665 -0.02128
 O114 O 1.09470 0.09621 -0.05120
 O115 O 1.11557 -0.11845 -0.01025
 O116 O 0.88785 0.10113 -0.05356
 Co117 Co 1.10148 0.02645 -0.00010
 Co118 Co 0.89775 -0.02491 0.00419
 Co119 Co 0.96745 0.11029 -0.01804
 Co120 Co 1.03593 -0.10860 0.02183
 O121 O 1.00044 0.00081 0.00225
 C122 C 1.13261 -0.09160 -0.05247
 C123 C 0.87171 0.05355 -0.08469
 C124 C 1.05605 0.10682 -0.09128
 C125 C 0.94705 -0.14496 -0.05327
 O126 O 1.08141 0.62387 0.52622
 O127 O 0.89400 0.40178 0.55318
 O128 O 0.87635 0.61592 0.51228
 O129 O 1.09898 0.40651 0.56613
 O130 O 0.86977 0.52933 0.56364
 O131 O 1.10511 0.51742 0.57823
 O132 O 0.99078 0.39522 0.58858
 O133 O 0.98199 0.64504 0.54574
 C134 C 1.04027 0.65390 0.55600
 C135 C 0.93186 0.38874 0.59358
 C136 C 0.86303 0.59410 0.55725
 C137 C 1.11775 0.45623 0.59460
 O138 O 1.13682 0.44761 0.48743
 O139 O 0.84838 0.53374 0.45102
 O140 O 1.02372 0.63590 0.44248
 O141 O 0.96221 0.34446 0.48676
 O142 O 0.89564 0.41956 0.44477
 O143 O 1.09081 0.54529 0.43439
 O144 O 1.06707 0.37869 0.45853
 O145 O 0.92492 0.58408 0.41501
 Co146 Co 1.09242 0.53084 0.50615
 Co147 Co 0.88805 0.47453 0.50380
 Co148 Co 0.95555 0.60961 0.48129
 Co149 Co 1.02593 0.39275 0.52262
 O150 O 0.99055 0.50190 0.50356
 C151 C 1.12097 0.40279 0.45374
 C152 C 0.87085 0.55946 0.41011
 C153 C 1.06366 0.60004 0.41478
 C154 C 0.92363 0.35977 0.44698
 O155 O 0.59636 0.07985 0.55568
 O156 O 0.40885 -0.05473 0.57557
 O157 O 0.44050 0.12295 0.54960
 O158 O 0.57024 -0.09318 0.58643
 O159 O 0.36515 0.05287 0.53638
 O160 O 0.64232 -0.03533 0.55056
 O161 O 0.47065 -0.14529 0.55630
 O162 O 0.53664 0.15532 0.50975
 C163 C 0.57115 0.14060 0.55165
 C164 C 0.43372 -0.11375 0.58858
 C165 C 0.39361 0.09486 0.56685
 C166 C 0.62254 -0.06481 0.59108
 O167 O 0.61791 -0.03302 0.43896
 O168 O 0.38152 -0.00882 0.43435
 O169 O 0.49237 0.10029 0.41394
 O170 O 0.50895 -0.14536 0.45456
 O171 O 0.40875 -0.11965 0.47531
 O172 O 0.59214 0.09015 0.44442
 O173 O 0.61834 -0.12230 0.48907
 O174 O 0.38515 0.09872 0.45207
 Co175 Co 0.60209 0.02281 0.49754
 Co176 Co 0.40064 -0.02979 0.50499
 Co177 Co 0.46731 0.10749 0.48293
 Co178 Co 0.53792 -0.11399 0.51951
 O179 O 0.50182 -0.00339 0.50136
 C180 C 0.63465 -0.09599 0.44654
 C181 C 0.37018 0.05264 0.41924
 C182 C 0.55143 0.10020 0.40535
 C183 C 0.44935 -0.14917 0.44401
 O184 O 0.58800 0.61811 0.02465
 O185 O 0.39978 0.39970 0.04993
 O186 O 0.38264 0.61390 0.00773
 O187 O 0.60559 0.40053 0.06217
 O188 O 0.37567 0.52714 0.05917
 O189 O 0.61018 0.51104 0.07512
 O190 O 0.49697 0.39086 0.08486
 O191 O 0.48785 0.64017 0.04229
 C192 C 0.54589 0.64857 0.05356
 C193 C 0.43779 0.38672 0.09024
 C194 C 0.36736 0.59167 0.05210
 C195 C 0.62109 0.45011 0.09231
 O196 O 0.64254 0.44165 -0.01709
 O197 O 0.35561 0.53068 -0.05343
 O198 O 0.53208 0.63238 -0.05989
 O199 O 0.46709 0.34027 -0.01657
 O200 O 0.40093 0.41617 -0.05814
 O201 O 0.59753 0.54072 -0.06864
 O202 O 0.57156 0.37376 -0.04554
 O203 O 0.43258 0.58114 -0.08905
 Co204 Co 0.59863 0.52523 0.00305
 Co205 Co 0.39394 0.47158 0.00006
 Co206 Co 0.46265 0.60580 -0.02239
 Co207 Co 0.53157 0.38793 0.01886
 O208 O 0.49674 0.49751 -0.00012
 C209 C 0.62585 0.39664 -0.05063
 C210 C 0.37847 0.55651 -0.09421
 C211 C 0.57222 0.59671 -0.08754
 C212 C 0.43002 0.35704 -0.05686
 C213 C 1.12824 0.23867 0.16412
 C214 C 1.08474 0.29219 0.14266
 C215 C 1.05399 0.26302 0.09873
 C216 C 1.08188 0.19445 0.09667
 O217 O 1.12660 0.17972 0.13600
 H218 H 1.07876 0.34664 0.15585
 H219 H 1.01753 0.28904 0.07065
 C220 C 1.11778 0.74248 0.66251
 C221 C 1.05567 0.77695 0.66619
 C222 C 1.01828 0.74960 0.62546
 C223 C 1.06017 0.70081 0.59993
 O224 O 1.12054 0.69675 0.62199
 H225 H 1.03887 0.81635 0.69523
 H226 H 0.96670 0.76346 0.61579
 C227 C 0.63067 0.23416 0.66347
 C228 C 0.58631 0.28789 0.64298
 C229 C 0.55614 0.26014 0.59801
 C230 C 0.58492 0.19213 0.59412
 O231 O 0.62971 0.17652 0.63336
 H232 H 0.57934 0.34171 0.65749
 H233 H 0.51918 0.28672 0.57066
 C234 C 0.61942 0.73957 0.16051
 C235 C 0.55542 0.76787 0.16644
 C236 C 0.51924 0.73907 0.12560
 C237 C 0.56381 0.69583 0.09776
 O238 O 0.62444 0.69619 0.11863
 H239 H 0.53647 0.80298 0.19760
 H240 H 0.46645 0.74695 0.11800
 C241 C 0.84857 -0.18985 0.18834
 C242 C 0.91184 -0.20861 0.20862
 C243 C 0.95172 -0.17615 0.17564
 C244 C 0.90953 -0.13890 0.13877
 O245 O 0.84714 -0.14749 0.14608
 H246 H 0.92727 -0.24473 0.24135
 H247 H 1.00506 -0.18091 0.17705
 C248 C 0.84680 0.31454 0.69764
 C249 C 0.90611 0.31912 0.72639
 C250 C 0.94612 0.34813 0.69130
 C251 C 0.90838 0.35970 0.64386
 O252 O 0.84836 0.33942 0.64767
 H253 H 0.91958 0.30230 0.76740
 H254 H 0.99695 0.35896 0.69917
 C255 C 0.34945 -0.19416 0.68773
 C256 C 0.41224 -0.21914 0.70566
 C257 C 0.45327 -0.19084 0.67122
 C258 C 0.41229 -0.14972 0.63585
 O259 O 0.34947 -0.15191 0.64552
 H260 H 0.42623 -0.25648 0.73789
 H261 H 0.50638 -0.20018 0.67107
 C262 C 0.35080 0.31985 0.19542
 C263 C 0.41092 0.32017 0.22344
 C264 C 0.45204 0.34635 0.18789
 C265 C 0.41386 0.36021 0.14094
 O266 O 0.35265 0.34421 0.14547
 H267 H 0.42389 0.30194 0.26419
 H268 H 0.50384 0.35346 0.19500
 C269 C 0.79485 0.12541 -0.20524
 C270 C 0.78297 0.05556 -0.21386
 C271 C 0.81184 0.01928 -0.17054
 C272 C 0.83869 0.06938 -0.13801
 O273 O 0.82920 0.13377 -0.15905
 H274 H 0.75564 0.03340 -0.24725
 H275 H 0.81190 -0.03676 -0.16290
 C276 C 0.78257 0.61855 0.29218
 C277 C 0.74764 0.56114 0.30205
 C278 C 0.77871 0.52875 0.34624
 C279 C 0.83017 0.56865 0.36004
 O280 O 0.83278 0.62302 0.32749
 H281 H 0.70223 0.54712 0.28216
 H282 H 0.76374 0.48367 0.36755
 C283 C 0.29698 0.12689 0.29855
 C284 C 0.29439 0.05673 0.28502
 C285 C 0.32187 0.01960 0.32842
 C286 C 0.33900 0.06988 0.36559
 O287 O 0.32441 0.13520 0.34756
 H288 H 0.27396 0.03550 0.24806
 H289 H 0.32813 -0.03727 0.33272
 C290 C 0.28601 0.61898 -0.20921
 C291 C 0.25739 0.55617 -0.20398
 C292 C 0.29096 0.52225 -0.16144
 C293 C 0.33778 0.56647 -0.14425
 O294 O 0.33506 0.62499 -0.17303
 H295 H 0.21454 0.53890 -0.22594
 H296 H 0.28069 0.47281 -0.14350
 C297 C 1.21565 -0.17880 -0.15786
 C298 C 1.25530 -0.20712 -0.11523
 C299 C 1.22949 -0.17720 -0.06998
 C300 C 1.17684 -0.13202 -0.08838
 O301 O 1.16788 -0.13298 -0.14163
 H302 H 1.29587 -0.24760 -0.11655
 H303 H 1.24625 -0.18784 -0.02843
 C304 C 1.20966 0.33531 0.34352
 C305 C 1.26103 0.36193 0.37296
 C306 C 1.23408 0.38971 0.41831
 C307 C 1.16838 0.37736 0.41363
 O308 O 1.15308 0.34455 0.36807
 H309 H 1.31179 0.36249 0.36228
 H310 H 1.25920 0.41646 0.45089
 C311 C 0.71655 -0.18242 0.34083
 C312 C 0.75625 -0.21151 0.38318
 C313 C 0.73083 -0.18201 0.42865
 C314 C 0.67841 -0.13635 0.41056
 O315 O 0.66918 -0.13655 0.35739
 H316 H 0.79666 -0.25211 0.38154
 H317 H 0.74771 -0.19315 0.47011
 C318 C 0.71471 0.32202 -0.15946
 C319 C 0.76732 0.33776 -0.12540
 C320 C 0.74024 0.36765 -0.08079
 C321 C 0.67317 0.36724 -0.08986
 O322 O 0.65715 0.34002 -0.13774
 H323 H 0.81944 0.33043 -0.13206
 H324 H 0.76634 0.38739 -0.04553
 C325 C 1.13985 0.17830 -0.19377
 C326 C 1.08331 0.16667 -0.22444
 C327 C 1.04335 0.13765 -0.18985
 C328 C 1.07924 0.13296 -0.14125
 O329 O 1.13758 0.15739 -0.14337
 H330 H 1.07239 0.17910 -0.26671
 H331 H 0.99416 0.12206 -0.19875
 C332 C 1.14512 0.66816 0.30869
 C333 C 1.08525 0.66233 0.28105
 C334 C 1.04589 0.63598 0.31761
 C335 C 1.08521 0.62659 0.36417
 O336 O 1.14523 0.64586 0.35910
 H337 H 1.07131 0.67839 0.23992
 H338 H 0.99478 0.62534 0.31135
 C339 C 0.63464 0.16298 0.29859
 C340 C 0.57616 0.15495 0.26952
 C341 C 0.53609 0.12797 0.30547
 C342 C 0.57371 0.12127 0.35325
 O343 O 0.63309 0.14205 0.34909
 H344 H 0.56322 0.17075 0.22817
 H345 H 0.48521 0.11689 0.29835
 C346 C 0.65539 0.66947 -0.19141
 C347 C 0.60155 0.64960 -0.22239
 C348 C 0.56243 0.62036 -0.18709
 C349 C 0.59537 0.62402 -0.13751
 O350 O 0.65161 0.65341 -0.13973
 H351 H 0.59152 0.65720 -0.26540
 H352 H 0.51571 0.59886 -0.19626
 C353 C 0.86308 -0.21570 -0.16500
 C354 C 0.92221 -0.20717 -0.18835
 C355 C 0.96257 -0.18467 -0.14796
 C356 C 0.92506 -0.17954 -0.10313
 O357 O 0.86478 -0.19919 -0.11290
 H358 H 0.93508 -0.21668 -0.22983
 H359 H 1.01237 -0.17009 -0.15138
 C360 C 0.85023 0.25965 0.34488
 C361 C 0.89346 0.20620 0.36655
 C362 C 0.92953 0.23716 0.40656
 C363 C 0.90486 0.30697 0.40676
 O364 O 0.85674 0.32076 0.36941
 H365 H 0.89611 0.15073 0.35604
 H366 H 0.96707 0.21144 0.43386
 C367 C 0.36611 -0.23224 0.33758
 C368 C 0.42797 -0.23879 0.31706
 C369 C 0.46814 -0.21144 0.35577
 C370 C 0.42748 -0.18927 0.39663
 O371 O 0.36540 -0.20188 0.38581
 H372 H 0.44173 -0.25971 0.27804
 H373 H 0.52028 -0.20561 0.35357
 C374 C 0.35899 0.27601 -0.16747
 C375 C 0.41933 0.28545 -0.18830
 C376 C 0.45773 0.30648 -0.14571
 C377 C 0.41818 0.30941 -0.10210
 O378 O 0.35828 0.29081 -0.11517
 H379 H 0.43363 0.27989 -0.22972
 H380 H 0.50634 0.32491 -0.14752
 C381 C 1.21058 -0.12746 0.20728
 C382 C 1.25575 -0.08272 0.19151
 C383 C 1.22609 -0.04684 0.14819
 C384 C 1.16536 -0.07306 0.14064
 O385 O 1.15564 -0.12154 0.17656
 H386 H 1.30585 -0.07997 0.20735
 H387 H 1.24779 -0.00975 0.12287
 C388 C 1.21255 0.37312 0.69944
 C389 C 1.25077 0.42889 0.69469
 C390 C 1.21691 0.47276 0.65719
 C391 C 1.16165 0.43909 0.64176
 O392 O 1.15909 0.37909 0.66731
 H393 H 1.29743 0.43637 0.71569
 H394 H 1.23251 0.52092 0.64079
 C395 C 0.71319 -0.13005 0.70549
 C396 C 0.75728 -0.08429 0.68874
 C397 C 0.72619 -0.04878 0.64601
 C398 C 0.66580 -0.07580 0.63958
 O399 O 0.65710 -0.12394 0.67619
 H400 H 0.80717 -0.07907 0.70414
 H401 H 0.74679 -0.01131 0.62029
 C402 C 0.69969 0.37708 0.21021
 C403 C 0.73636 0.43431 0.20715
 C404 C 0.70847 0.47309 0.16431
 C405 C 0.65842 0.43497 0.14360
 O406 O 0.65312 0.37679 0.17125
 H407 H 0.77945 0.44505 0.23202
 H408 H 0.72517 0.52081 0.14806
 C409 C 0.79966 0.20232 0.16011
 C410 C 0.81207 0.25918 0.12911
 C411 C 0.83847 0.23082 0.08392
 C412 C 0.83995 0.15869 0.09032
 O413 O 0.81630 0.14082 0.13671
 H414 H 0.80421 0.31475 0.13877
 H415 H 0.85785 0.25921 0.05130
 C416 C 0.81464 0.69615 0.67052
 C417 C 0.83151 0.74888 0.63687
 C418 C 0.84734 0.71670 0.59021
 C419 C 0.84168 0.64609 0.59841
 O420 O 0.82050 0.63286 0.64697
 H421 H 0.83053 0.80501 0.64381
 H422 H 0.86333 0.74188 0.55462
 C423 C 0.33098 0.15574 0.68858
 C424 C 0.39567 0.14148 0.70618
 C425 C 0.42586 0.11146 0.66318
 C426 C 0.37714 0.10945 0.62269
 O427 O 0.31906 0.13656 0.63779
 H428 H 0.41833 0.15374 0.74512
 H429 H 0.47801 0.09620 0.66048
 C430 C 0.30431 0.68944 0.16217
 C431 C 0.31105 0.74427 0.12725
 C432 C 0.33317 0.71371 0.08148
 C433 C 0.33913 0.64219 0.09157
 O434 O 0.32115 0.62669 0.14064
 H435 H 0.30102 0.80019 0.13408
 H436 H 0.34514 0.74057 0.04527
   
