data_POSCAR
  _audit_creation_date              2014-09-24
  _audit_creation_method            'ToBaCCo'
  _symmetry_space_group_name_H-M    'P1'
  _symmetry_Int_Tables_number       1
  _symmetry_cell_setting            triclinic
  loop_
  _symmetry_equiv_pos_as_xyz
 x,y,z
_cell_length_a 43.6034
_cell_length_b 42.1373
_cell_length_c 50.2058
_cell_angle_alpha 89.874900
_cell_angle_beta 90.057200
_cell_angle_gamma 119.049100
loop_
  _atom_site_label
  _atom_site_type_symbol
  _atom_site_fract_x
  _atom_site_fract_y
  _atom_site_fract_z
O1 O 0.03393 0.53954 1.27871
 O2 O -0.03439 0.51135 1.22719
 O3 O -0.03416 0.50428 1.27870
 O4 O 0.03395 0.54539 1.22700
 O5 O 0.03456 0.49359 1.22297
 O6 O -0.03427 0.45220 1.27393
 O7 O -0.03380 0.45968 1.22245
 O8 O 0.03384 0.48738 1.27468
 Cu9 Cu -0.00018 0.53035 1.25331
 Cu10 Cu 0.00015 0.46804 1.24801
 C11 C 0.04536 0.51821 1.28572
 C12 C -0.04587 0.48068 1.21592
 C13 C -0.04584 0.47122 1.28519
 C14 C 0.04597 0.52647 1.21616
 O15 O 0.46703 0.50322 1.27255
 O16 O 0.50457 0.46893 1.22166
 O17 O 0.50148 0.46722 1.27351
 O18 O 0.46983 0.50456 1.22066
 O19 O 0.51945 0.55633 1.22244
 O20 O 0.55155 0.51855 1.27494
 O21 O 0.55420 0.52071 1.22309
 O22 O 0.51704 0.55449 1.27432
 Cu23 Cu 0.48074 0.48082 1.24695
 Cu24 Cu 0.54054 0.54268 1.24887
 C25 C 0.48569 0.53474 1.28231
 C26 C 0.53578 0.48907 1.21356
 C27 C 0.53190 0.48642 1.28329
 C28 C 0.48921 0.53679 1.21244
 O29 O 0.50046 0.96468 1.27791
 O30 O 0.53071 1.03348 1.22512
 O31 O 0.53192 1.03545 1.27700
 O32 O 0.49571 0.96296 1.22613
 O33 O 0.44512 0.96277 1.22846
 O34 O 0.48161 1.03588 1.27778
 O35 O 0.48006 1.03329 1.22588
 O36 O 0.45022 0.96513 1.28020
 Cu37 Cu 0.51972 0.99913 1.25143
 Cu38 Cu 0.45924 0.99930 1.25327
 C39 C 0.47031 0.95302 1.28824
 C40 C 0.51067 1.04501 1.21623
 C41 C 0.51287 1.04825 1.28602
 C42 C 0.46404 0.95048 1.21864
 O43 O 0.96621 0.51092 0.72681
 O44 O 1.03476 0.53962 0.77805
 O45 O 1.03458 0.54417 0.72622
 O46 O 0.96662 0.50503 0.77844
 O47 O 0.96600 0.45262 0.77439
 O48 O 1.03453 0.49202 0.72293
 O49 O 1.03414 0.48713 0.77478
 O50 O 0.96609 0.45876 0.72278
 Cu51 Cu 1.00062 0.53019 0.75271
 Cu52 Cu 1.00020 0.46743 0.74829
 C53 C 0.95436 0.47995 0.71601
 C54 C 1.04596 0.51824 0.78542
 C55 C 1.04630 0.52480 0.71561
 C56 C 0.95471 0.47207 0.78537
 O57 O 0.48840 0.45152 0.72625
 O58 O 0.45735 0.49277 0.77655
 O59 O 0.45818 0.49155 0.72463
 O60 O 0.48847 0.45334 0.77817
 O61 O 0.54024 0.50270 0.77755
 O62 O 0.50967 0.54131 0.72469
 O63 O 0.50916 0.54209 0.77655
 O64 O 0.53988 0.50128 0.72563
 Cu65 Cu 0.46792 0.46733 0.75148
 Cu66 Cu 0.52992 0.52679 0.75110
 C67 C 0.51936 0.46948 0.71713
 C68 C 0.47792 0.52442 0.78523
 C69 C 0.47881 0.52297 0.71544
 C70 C 0.51960 0.47148 0.78700
 O71 O 0.54215 0.03187 0.72185
 O72 O 0.50493 -0.03789 0.77344
 O73 O 0.50268 -0.03842 0.72166
 O74 O 0.53989 0.03275 0.77363
 O75 O 0.49147 0.03703 0.77250
 O76 O 0.45409 -0.03453 0.72223
 O77 O 0.45650 -0.03360 0.77406
 O78 O 0.49353 0.03579 0.72070
 Cu79 Cu 0.52724 -0.00333 0.74767
 Cu80 Cu 0.46907 0.00159 0.74733
 C81 C 0.52444 0.04577 0.71230
 C82 C 0.47461 -0.04771 0.78274
 C83 C 0.47170 -0.04881 0.71316
 C84 C 0.52184 0.04712 0.78185
 O85 O 0.37741 0.65546 0.97375
 O86 O 0.37514 0.71581 0.96790
 C87 C 0.35863 0.73340 0.96499
 O88 O 0.33371 0.72922 0.98031
 O89 O 0.27524 0.66912 0.97282
 C90 C 0.25905 0.63574 0.96673
 O91 O 0.26430 0.61204 0.97855
 O92 O 0.32243 0.61212 0.96692
 C93 C 0.35463 0.62837 0.96076
 O94 O 0.37973 0.66457 1.02697
 O95 O 0.38118 0.72674 1.02104
 C96 C 0.36067 0.73150 1.03648
 O97 O 0.32771 0.71542 1.03321
 O98 O 0.26753 0.65710 1.02580
 C99 C 0.26321 0.62862 1.03781
 O100 O 0.27878 0.61124 1.03088
 O101 O 0.33572 0.60880 1.01921
 C102 C 0.36322 0.63080 1.03186
 Cr103 Cr 0.37647 0.68971 0.99749
 Cr104 Cr 0.30198 0.69169 1.00293
 Cr105 Cr 0.30127 0.61303 0.99893
 O106 O 0.32653 0.66475 0.99979
 O107 O 0.62156 0.34244 0.97729
 O108 O 0.62482 0.28335 0.96789
 C109 C 0.64203 0.26696 0.96298
 O110 O 0.66806 0.27129 0.97697
 O111 O 0.72521 0.33332 0.97069
 C112 C 0.74082 0.36736 0.96679
 O113 O 0.73512 0.38901 0.98093
 O114 O 0.67590 0.38834 0.97210
 C115 C 0.64378 0.37132 0.96557
 O116 O 0.62006 0.32919 1.03007
 O117 O 0.62076 0.26878 1.02076
 C118 C 0.64236 0.26345 1.03455
 O119 O 0.67515 0.28003 1.03018
 O120 O 0.73422 0.34004 1.02388
 C121 C 0.73805 0.36651 1.03822
 O122 O 0.72154 0.38380 1.03383
 O123 O 0.66357 0.38588 1.02499
 C124 C 0.63595 0.36236 1.03671
 Cr125 Cr 0.62375 0.30694 0.99906
 Cr126 Cr 0.69965 0.30716 1.00044
 Cr127 Cr 0.69808 0.38474 1.00289
 O128 O 0.67379 0.33298 1.00080
 O129 O 0.66683 0.39444 0.52263
 O130 O 0.72184 0.38748 0.53304
 C131 C 0.73644 0.36840 0.53785
 O132 O 0.73123 0.34128 0.52367
 O133 O 0.66971 0.28383 0.52905
 C134 C 0.63678 0.26909 0.53249
 O135 O 0.61709 0.27655 0.51811
 O136 O 0.62107 0.33912 0.52787
 C137 C 0.63873 0.37223 0.53447
 O138 O 0.68069 0.39613 0.47013
 O139 O 0.73716 0.39202 0.48065
 C140 C 0.74128 0.36931 0.46658
 O141 O 0.72368 0.33529 0.47029
 O142 O 0.66388 0.27583 0.47569
 C143 C 0.63910 0.27370 0.46113
 O144 O 0.62373 0.29213 0.46556
 O145 O 0.62487 0.35354 0.47517
 C146 C 0.64868 0.38133 0.46339
 Cr147 Cr 0.70058 0.39054 0.50153
 Cr148 Cr 0.69626 0.31014 0.49967
 Cr149 Cr 0.62360 0.31622 0.49676
 O150 O 0.67346 0.33898 0.49931
 O151 O 0.33419 0.60192 0.51927
 O152 O 0.27741 0.60499 0.53051
 C153 C 0.26257 0.62294 0.53787
 O154 O 0.26792 0.65214 0.52646
 O155 O 0.32855 0.70993 0.53398
 C156 C 0.36147 0.72533 0.53739
 O157 O 0.38171 0.71995 0.52213
 O158 O 0.37912 0.65712 0.52721
 C159 C 0.36183 0.62333 0.53203
 O160 O 0.32218 0.60634 0.46681
 O161 O 0.26434 0.60724 0.47804
 C162 C 0.25924 0.63140 0.46682
 O163 O 0.27551 0.66457 0.47350
 O164 O 0.33454 0.72397 0.48113
 C165 C 0.35976 0.72848 0.46602
 O166 O 0.37615 0.71072 0.46884
 O167 O 0.37716 0.64954 0.47382
 C168 C 0.35440 0.62267 0.46068
 Cr169 Cr 0.30056 0.60717 0.49871
 Cr170 Cr 0.30257 0.68656 0.50364
 Cr171 Cr 0.37658 0.68337 0.49807
 O172 O 0.32652 0.65898 0.50014
 C173 C 0.49259 0.58236 0.31344
 C174 C 0.47918 0.59503 0.33353
 C175 C 0.44485 0.57373 0.34269
 C176 C 0.42374 0.53939 0.33137
 C177 C 0.43710 0.52652 0.31129
 C178 C 0.47183 0.54778 0.30210
 N179 N 0.43250 0.58743 0.36380
 N180 N 0.40130 0.57032 0.37278
 C181 C 0.38980 0.58429 0.39431
 C182 C 0.35485 0.56500 0.40275
 C183 C 0.34312 0.57757 0.42411
 C184 C 0.36633 0.60968 0.43753
 C185 C 0.40137 0.62910 0.42883
 C186 C 0.41298 0.61659 0.40744
 H187 H 0.51939 0.59965 0.30701
 H188 H 0.49571 0.62154 0.34213
 H189 H 0.39709 0.52240 0.33817
 H190 H 0.42021 0.49982 0.30312
 H191 H 0.33671 0.54006 0.39282
 H192 H 0.31598 0.56194 0.43028
 H193 H 0.41993 0.65397 0.43862
 H194 H 0.44015 0.63202 0.40133
 C195 C 0.48139 0.91271 0.31693
 C196 C 0.47075 0.88648 0.33699
 C197 C 0.43814 0.87371 0.34930
 C198 C 0.41595 0.88741 0.34119
 C199 C 0.42643 0.91358 0.32097
 C200 C 0.45939 0.92668 0.30856
 N201 N 0.42837 0.84689 0.36987
 N202 N 0.40002 0.83534 0.38306
 C203 C 0.39051 0.80847 0.40358
 C204 C 0.36015 0.79880 0.41847
 C205 C 0.35023 0.77292 0.43877
 C206 C 0.37050 0.75599 0.44447
 C207 C 0.40091 0.76559 0.42933
 C208 C 0.41090 0.79167 0.40912
 H209 H 0.50692 0.92189 0.30797
 H210 H 0.48807 0.87611 0.34306
 H211 H 0.39053 0.87787 0.35041
 H212 H 0.40871 0.92355 0.31516
 H213 H 0.34419 0.81148 0.41437
 H214 H 0.32656 0.76608 0.44992
 H215 H 0.41709 0.75310 0.43318
 H216 H 0.43447 0.79862 0.39783
 C217 C 0.08330 0.50515 0.31648
 C218 C 0.10774 0.51534 0.33718
 C219 C 0.12139 0.54970 0.34882
 C220 C 0.11043 0.57402 0.33940
 C221 C 0.08594 0.56385 0.31876
 C222 C 0.07200 0.52926 0.30711
 N223 N 0.14602 0.55910 0.37024
 N224 N 0.15999 0.59021 0.38122
 C225 C 0.18444 0.59970 0.40276
 C226 C 0.20007 0.63505 0.41282
 C227 C 0.22424 0.64537 0.43370
 C228 C 0.23308 0.62029 0.44503
 C229 C 0.21709 0.58466 0.43497
 C230 C 0.19304 0.57446 0.41399
 H231 H 0.07305 0.47830 0.30798
 H232 H 0.11598 0.49636 0.34427
 H233 H 0.12060 0.60075 0.34806
 H234 H 0.07781 0.58307 0.31201
 H235 H 0.19361 0.65473 0.40435
 H236 H 0.23602 0.67300 0.44094
 H237 H 0.22337 0.56469 0.44315
 H238 H 0.18124 0.54692 0.40658
 C239 C 0.52189 0.43662 0.31525
 C240 C 0.53331 0.42241 0.33572
 C241 C 0.56728 0.44232 0.34595
 C242 C 0.58996 0.47683 0.33540
 C243 C 0.57854 0.49118 0.31494
 C244 C 0.54433 0.47122 0.30468
 N245 N 0.57776 0.42696 0.36718
 N246 N 0.60850 0.44276 0.37706
 C247 C 0.61818 0.42696 0.39854
 C248 C 0.65277 0.44461 0.40786
 C249 C 0.66286 0.42985 0.42889
 C250 C 0.63832 0.39716 0.44105
 C251 C 0.60358 0.37955 0.43159
 C252 C 0.59361 0.39425 0.41053
 H253 H 0.49539 0.42056 0.30783
 H254 H 0.51561 0.39580 0.34373
 H255 H 0.61635 0.49275 0.34303
 H256 H 0.59646 0.51789 0.30722
 H257 H 0.67193 0.46985 0.39879
 H258 H 0.68981 0.44411 0.43568
 H259 H 0.58403 0.35429 0.44041
 H260 H 0.56668 0.38007 0.40372
 C261 C 0.50527 0.09073 0.31471
 C262 C 0.51810 0.11803 0.33396
 C263 C 0.55186 0.13116 0.34428
 C264 C 0.57304 0.11693 0.33488
 C265 C 0.56036 0.08971 0.31547
 C266 C 0.52616 0.07604 0.30520
 N267 N 0.56364 0.15848 0.36453
 N268 N 0.59314 0.17010 0.37607
 C269 C 0.60459 0.19703 0.39659
 C270 C 0.63591 0.20616 0.40996
 C271 C 0.64724 0.23128 0.43075
 C272 C 0.62745 0.24799 0.43847
 C273 C 0.59628 0.23929 0.42464
 C274 C 0.58486 0.21391 0.40394
 H275 H 0.47886 0.08116 0.30736
 H276 H 0.50155 0.12879 0.34105
 H277 H 0.59931 0.12674 0.34257
 H278 H 0.57731 0.07924 0.30870
 H279 H 0.65137 0.19340 0.40445
 H280 H 0.67148 0.23751 0.44084
 H281 H 0.58045 0.25165 0.43008
 H282 H 0.56056 0.20736 0.39383
 C283 C 0.91213 0.41769 0.31240
 C284 C 0.88710 0.40248 0.33264
 C285 C 0.87678 0.42406 0.34708
 C286 C 0.89152 0.46115 0.34084
 C287 C 0.91640 0.47636 0.32056
 C288 C 0.92712 0.45485 0.30619
 N289 N 0.85154 0.40789 0.36801
 N290 N 0.84286 0.42685 0.38265
 C291 C 0.81769 0.41155 0.40367
 C292 C 0.81077 0.43482 0.41917
 C293 C 0.78621 0.42109 0.43973
 C294 C 0.76796 0.38360 0.44514
 C295 C 0.77503 0.36020 0.42954
 C296 C 0.79977 0.37407 0.40896
 H297 H 0.91979 0.40038 0.30167
 H298 H 0.87590 0.37386 0.33723
 H299 H 0.88390 0.47842 0.35167
 H300 H 0.92745 0.50505 0.31629
 H301 H 0.82442 0.46374 0.41524
 H302 H 0.78138 0.43992 0.45125
 H303 H 0.76140 0.33121 0.43315
 H304 H 0.80472 0.35556 0.39717
 C305 C 0.58452 0.49867 1.18248
 C306 C 0.59849 0.48649 1.16245
 C307 C 0.57920 0.45130 1.15233
 C308 C 0.54557 0.42816 1.16258
 C309 C 0.53149 0.44034 1.18258
 C310 C 0.55079 0.47579 1.19271
 N311 N 0.59420 0.44001 1.13150
 N312 N 0.57864 0.40812 1.12180
 C313 C 0.59366 0.39721 1.10074
 C314 C 0.57573 0.36135 1.09168
 C315 C 0.58948 0.34991 1.07098
 C316 C 0.62149 0.37434 1.05885
 C317 C 0.63948 0.41037 1.06807
 C318 C 0.62573 0.42170 1.08883
 H319 H 0.60008 0.52612 1.18980
 H320 H 0.62441 0.50457 1.15470
 H321 H 0.53012 0.40082 1.15505
 H322 H 0.50546 0.42204 1.19003
 H323 H 0.55099 0.34222 1.10067
 H324 H 0.57492 0.32199 1.06440
 H325 H 0.66421 0.42987 1.05925
 H326 H 0.64010 0.44960 1.09547
 C327 C 0.91415 0.49280 1.18886
 C328 C 0.88837 0.48219 1.16914
 C329 C 0.87601 0.44880 1.15627
 C330 C 0.88962 0.42584 1.16346
 C331 C 0.91533 0.43630 1.18321
 C332 C 0.92808 0.47001 1.19618
 N333 N 0.84995 0.43897 1.13587
 N334 N 0.83869 0.40948 1.12290
 C335 C 0.81290 0.39919 1.10228
 C336 C 0.80349 0.36717 1.08823
 C337 C 0.77906 0.35652 1.06756
 C338 C 0.76337 0.37773 1.06060
 C339 C 0.77253 0.40972 1.07501
 C340 C 0.79718 0.42044 1.09565
 H341 H 0.92314 0.51892 1.19831
 H342 H 0.87809 0.50013 1.16378
 H343 H 0.88047 0.39984 1.15382
 H344 H 0.92524 0.41791 1.18820
 H345 H 0.81539 0.35056 1.09319
 H346 H 0.77254 0.33164 1.05702
 H347 H 0.76094 0.42665 1.07016
 H348 H 0.80401 0.44531 1.10630
 C349 C 0.50106 0.08344 1.18238
 C350 C 0.51316 0.10837 1.16128
 C351 C 0.54756 0.12242 1.15187
 C352 C 0.56990 0.11132 1.16391
 C353 C 0.55787 0.08639 1.18489
 C354 C 0.52329 0.07206 1.19434
 N355 N 0.55917 0.14759 1.13005
 N356 N 0.59045 0.16179 1.12124
 C357 C 0.60262 0.18681 1.09936
 C358 C 0.63790 0.20251 1.09190
 C359 C 0.65084 0.22724 1.07078
 C360 C 0.62853 0.23659 1.05659
 C361 C 0.59296 0.22053 1.06404
 C362 C 0.58012 0.19592 1.08526
 H363 H 0.47429 0.07288 1.18917
 H364 H 0.49566 0.11670 1.15218
 H365 H 0.59661 0.12174 1.15704
 H366 H 0.57571 0.07827 1.19364
 H367 H 0.65548 0.19566 1.10260
 H368 H 0.67833 0.23906 1.06561
 H369 H 0.57507 0.22721 1.05362
 H370 H 0.55270 0.18408 1.09063
 C371 C 0.49663 0.58772 1.18243
 C372 C 0.48468 0.60133 1.16184
 C373 C 0.45260 0.57907 1.14935
 C374 C 0.43231 0.54290 1.15780
 C375 C 0.44413 0.52928 1.17842
 C376 C 0.47648 0.55151 1.19092
 N377 N 0.44122 0.59376 1.12821
 N378 N 0.41297 0.57449 1.11540
 C379 C 0.40137 0.58908 1.09435
 C380 C 0.37042 0.56603 1.08080
 C381 C 0.35812 0.57944 1.06034
 C382 C 0.37666 0.61633 1.05310
 C383 C 0.40786 0.63941 1.06673
 C384 C 0.42014 0.62591 1.08714
 H385 H 0.52163 0.60554 1.19166
 H386 H 0.50052 0.62927 1.15552
 H387 H 0.40736 0.52515 1.14848
 H388 H 0.42800 0.50127 1.18447
 H389 H 0.35573 0.53760 1.08620
 H390 H 0.33397 0.56094 1.05033
 H391 H 0.42278 0.66795 1.06170
 H392 H 0.44416 0.64429 1.09735
 C393 C 0.08426 0.57801 1.18581
 C394 C 0.10963 0.59293 1.16577
 C395 C 0.12460 0.57299 1.15504
 C396 C 0.11398 0.53782 1.16464
 C397 C 0.08854 0.52281 1.18457
 C398 C 0.07332 0.54270 1.19535
 N399 N 0.15003 0.58875 1.13419
 N400 N 0.16535 0.57236 1.12430
 C401 C 0.19032 0.58748 1.10312
 C402 C 0.20679 0.56823 1.09395
 C403 C 0.23071 0.58170 1.07290
 C404 C 0.23846 0.61477 1.06054
 C405 C 0.22201 0.63420 1.06995
 C406 C 0.19817 0.62070 1.09107
 H407 H 0.07302 0.59401 1.19367
 H408 H 0.11757 0.62004 1.15851
 H409 H 0.12513 0.52182 1.15663
 H410 H 0.08075 0.49558 1.19150
 H411 H 0.20092 0.54258 1.10307
 H412 H 0.24288 0.56603 1.06619
 H413 H 0.22744 0.65978 1.06094
 H414 H 0.18572 0.63607 1.09782
 C415 C 0.41297 0.90556 1.19190
 C416 C 0.39861 0.87926 1.17200
 C417 C 0.41974 0.86869 1.15787
 C418 C 0.45560 0.88436 1.16416
 C419 C 0.47003 0.91061 1.18421
 C420 C 0.44889 0.92170 1.19815
 N421 N 0.40415 0.84253 1.13701
 N422 N 0.42187 0.83283 1.12230
 C423 C 0.40589 0.80698 1.10128
 C424 C 0.42704 0.79856 1.08512
 C425 C 0.41238 0.77403 1.06409
 C426 C 0.37613 0.75735 1.05889
 C427 C 0.35490 0.76566 1.07534
 C428 C 0.36963 0.79029 1.09631
 H429 H 0.39592 0.91337 1.20230
 H430 H 0.37095 0.86734 1.16735
 H431 H 0.47245 0.87654 1.15350
 H432 H 0.49777 0.92255 1.18854
 H433 H 0.45500 0.81123 1.08875
 H434 H 0.42950 0.76816 1.05191
 H435 H 0.32690 0.75329 1.07193
 H436 H 0.35270 0.79633 1.10855
 C437 C 0.50973 0.41778 0.68727
 C438 C 0.52081 0.40320 0.66683
 C439 C 0.55362 0.42399 0.65489
 C440 C 0.57561 0.45955 0.66390
 C441 C 0.56465 0.47411 0.68437
 C442 C 0.53148 0.45349 0.69617
 N443 N 0.56385 0.40868 0.63349
 N444 N 0.59262 0.42709 0.62107
 C445 C 0.60334 0.41252 0.59953
 C446 C 0.63493 0.43513 0.58659
 C447 C 0.64630 0.42209 0.56540
 C448 C 0.62620 0.38595 0.55677
 C449 C 0.59441 0.36321 0.56986
 C450 C 0.58302 0.37639 0.59106
 H451 H 0.48405 0.40117 0.69596
 H452 H 0.50364 0.37575 0.66009
 H453 H 0.60117 0.47616 0.65503
 H454 H 0.58202 0.50169 0.69075
 H455 H 0.65079 0.46301 0.59295
 H456 H 0.67096 0.44034 0.55587
 H457 H 0.57833 0.33525 0.56375
 H458 H 0.55847 0.35839 0.60080
 C459 C 0.57564 0.08693 0.68404
 C460 C 0.59089 0.11289 0.66396
 C461 C 0.57125 0.12604 0.65059
 C462 C 0.53595 0.11314 0.65769
 C463 C 0.52063 0.08720 0.67792
 C464 C 0.54031 0.07370 0.69122
 N465 N 0.58783 0.15224 0.62985
 N466 N 0.57139 0.16432 0.61588
 C467 C 0.58837 0.19048 0.59515
 C468 C 0.56851 0.20165 0.57988
 C469 C 0.58420 0.22702 0.55945
 C470 C 0.62024 0.24181 0.55396
 C471 C 0.64017 0.23057 0.56940
 C472 C 0.62438 0.20507 0.58979
 H473 H 0.59159 0.07722 0.69392
 H474 H 0.61810 0.12267 0.65868
 H475 H 0.52026 0.12301 0.64761
 H476 H 0.49338 0.07753 0.68300
 H477 H 0.54077 0.19062 0.58383
 H478 H 0.56807 0.23516 0.54804
 H479 H 0.66796 0.24144 0.56573
 H480 H 0.64031 0.19686 0.60136
 C481 C 0.91282 0.49138 0.68833
 C482 C 0.88686 0.48078 0.66877
 C483 C 0.87437 0.44736 0.65591
 C484 C 0.88805 0.42439 0.66292
 C485 C 0.91398 0.43491 0.68251
 C486 C 0.92673 0.46858 0.69539
 N487 N 0.84818 0.43764 0.63564
 N488 N 0.83634 0.40801 0.62278
 C489 C 0.81049 0.39827 0.60226
 C490 C 0.80009 0.36601 0.58825
 C491 C 0.77578 0.35614 0.56753
 C492 C 0.76129 0.37842 0.56048
 C493 C 0.77138 0.41059 0.57490
 C494 C 0.79584 0.42050 0.59559
 H495 H 0.92202 0.51746 0.69788
 H496 H 0.87654 0.49872 0.66353
 H497 H 0.87881 0.39839 0.65325
 H498 H 0.92412 0.41673 0.68749
 H499 H 0.81115 0.34865 0.59324
 H500 H 0.76852 0.33111 0.55694
 H501 H 0.76073 0.42836 0.57000
 H502 H 0.80345 0.44557 0.60619
 C503 C 0.48850 0.57399 0.68467
 C504 C 0.47763 0.58818 0.66378
 C505 C 0.44525 0.56695 0.65135
 C506 C 0.42354 0.53123 0.66027
 C507 C 0.43429 0.51704 0.68126
 C508 C 0.46697 0.53822 0.69363
 N509 N 0.43512 0.58229 0.62983
 N510 N 0.40687 0.56391 0.61678
 C511 C 0.39660 0.57927 0.59535
 C512 C 0.36565 0.55709 0.58148
 C513 C 0.35455 0.57124 0.56071
 C514 C 0.37427 0.60806 0.55347
 C515 C 0.40551 0.63025 0.56738
 C516 C 0.41661 0.61599 0.58811
 H517 H 0.51380 0.59104 0.69378
 H518 H 0.49457 0.61576 0.65713
 H519 H 0.39832 0.51429 0.65102
 H520 H 0.41712 0.48939 0.68765
 H521 H 0.35000 0.52875 0.58688
 H522 H 0.33032 0.55338 0.55052
 H523 H 0.42132 0.65871 0.56237
 H524 H 0.44065 0.63372 0.59855
 C525 C 0.42200 0.91200 0.68489
 C526 C 0.40682 0.88513 0.66548
 C527 C 0.42575 0.86968 0.65422
 C528 C 0.46026 0.88120 0.66281
 C529 C 0.47554 0.90802 0.68242
 C530 C 0.45664 0.92394 0.69367
 N531 N 0.40930 0.84272 0.63398
 N532 N 0.42533 0.82885 0.62156
 C533 C 0.40850 0.80217 0.60116
 C534 C 0.42834 0.79022 0.58671
 C535 C 0.41302 0.76510 0.56612
 C536 C 0.37735 0.75127 0.55970
 C537 C 0.35731 0.76288 0.57456
 C538 C 0.37276 0.78820 0.59505
 H539 H 0.40641 0.92335 0.69299
 H540 H 0.38021 0.87645 0.65901
 H541 H 0.47540 0.86956 0.65438
 H542 H 0.50220 0.91636 0.68859
 H543 H 0.45587 0.80072 0.59125
 H544 H 0.42918 0.75660 0.55519
 H545 H 0.32980 0.75277 0.57014
 H546 H 0.35682 0.79695 0.60600
 C547 C 0.08508 0.57552 0.68673
 C548 C 0.11048 0.58984 0.66665
 C549 C 0.12372 0.56875 0.65516
 C550 C 0.11126 0.53294 0.66404
 C551 C 0.08577 0.51847 0.68403
 C552 C 0.07222 0.53952 0.69567
 N553 N 0.14936 0.58412 0.63436
 N554 N 0.16346 0.56685 0.62386
 C555 C 0.18870 0.58182 0.60277
 C556 C 0.20400 0.56170 0.59299
 C557 C 0.22822 0.57512 0.57209
 C558 C 0.23748 0.60902 0.56046
 C559 C 0.22217 0.62928 0.57046
 C560 C 0.19804 0.61585 0.59144
 H561 H 0.07544 0.59269 0.69510
 H562 H 0.11984 0.61748 0.65996
 H563 H 0.12103 0.51603 0.65545
 H564 H 0.07669 0.49069 0.69027
 H565 H 0.19700 0.53543 0.60154
 H566 H 0.23945 0.55878 0.56491
 H567 H 0.22874 0.65550 0.56204
 H568 H 0.18655 0.63192 0.59864
 C569 C 0.48853 0.57465 0.81693
 C570 C 0.47687 0.58967 0.83663
 C571 C 0.44205 0.57124 0.84539
 C572 C 0.41879 0.53747 0.83411
 C573 C 0.43042 0.52235 0.81447
 C574 C 0.46546 0.54073 0.80571
 N575 N 0.43118 0.58701 0.86604
 N576 N 0.39968 0.57207 0.87440
 C577 C 0.38887 0.58736 0.89544
 C578 C 0.35365 0.56971 0.90322
 C579 C 0.34237 0.58323 0.92421
 C580 C 0.36631 0.61473 0.93789
 C581 C 0.40166 0.63264 0.92981
 C582 C 0.41285 0.61910 0.90876
 H583 H 0.51568 0.58949 0.81064
 H584 H 0.49505 0.61568 0.84521
 H585 H 0.39173 0.52265 0.84058
 H586 H 0.41198 0.49621 0.80621
 H587 H 0.33493 0.54521 0.89310
 H588 H 0.31497 0.56876 0.92988
 H589 H 0.42077 0.65700 0.93985
 H590 H 0.44025 0.63324 0.90310
 C591 C 0.08372 0.50557 0.81667
 C592 C 0.10809 0.51610 0.83746
 C593 C 0.12182 0.55072 0.84866
 C594 C 0.11109 0.57496 0.83870
 C595 C 0.08670 0.56447 0.81799
 C596 C 0.07263 0.52960 0.80680
 N597 N 0.14630 0.56051 0.87023
 N598 N 0.16008 0.59183 0.88085
 C599 C 0.18439 0.60193 0.90252
 C600 C 0.19974 0.63750 0.91212
 C601 C 0.22382 0.64847 0.93307
 C602 C 0.23285 0.62385 0.94494
 C603 C 0.21712 0.58798 0.93538
 C604 C 0.19315 0.57712 0.91431
 H605 H 0.07335 0.47852 0.80851
 H606 H 0.11616 0.49718 0.84496
 H607 H 0.12133 0.60190 0.84702
 H608 H 0.07874 0.58365 0.81085
 H609 H 0.19315 0.65684 0.90321
 H610 H 0.23540 0.67627 0.93993
 H611 H 0.22356 0.56836 0.94399
 H612 H 0.18154 0.54942 0.90725
 C613 C 0.47939 0.90605 0.81093
 C614 C 0.46721 0.88010 0.83116
 C615 C 0.43637 0.87190 0.84484
 C616 C 0.41736 0.88972 0.83785
 C617 C 0.42945 0.91569 0.81741
 C618 C 0.46076 0.92426 0.80387
 N619 N 0.42543 0.84565 0.86582
 N620 N 0.39869 0.83755 0.88029
 C621 C 0.38887 0.81125 0.90124
 C622 C 0.36007 0.80416 0.91733
 C623 C 0.35021 0.77893 0.93811
 C624 C 0.36907 0.76028 0.94309
 C625 C 0.39790 0.76739 0.92677
 C626 C 0.40774 0.79265 0.90609
 H627 H 0.50352 0.91186 0.80085
 H628 H 0.48201 0.86647 0.83637
 H629 H 0.39335 0.88371 0.84818
 H630 H 0.41456 0.92928 0.81243
 H631 H 0.34530 0.81830 0.91380
 H632 H 0.32779 0.77401 0.95023
 H633 H 0.41297 0.75351 0.93000
 H634 H 0.43012 0.79761 0.89391
 C635 C 0.50911 0.42236 0.81999
 C636 C 0.52071 0.40827 0.84050
 C637 C 0.55520 0.42764 0.84988
 C638 C 0.57816 0.46146 0.83843
 C639 C 0.56660 0.47562 0.81797
 C640 C 0.53191 0.45626 0.80852
 N641 N 0.56614 0.41252 0.87106
 N642 N 0.59729 0.42849 0.88021
 C643 C 0.60827 0.41357 0.90149
 C644 C 0.64316 0.43234 0.91005
 C645 C 0.65477 0.41867 0.93083
 C646 C 0.63152 0.38586 0.94351
 C647 C 0.59643 0.36705 0.93483
 C648 C 0.58490 0.38075 0.91400
 H649 H 0.48224 0.40677 0.81321
 H650 H 0.50275 0.38219 0.84916
 H651 H 0.60496 0.47698 0.84534
 H652 H 0.58484 0.50179 0.80957
 H653 H 0.66142 0.45767 0.90057
 H654 H 0.68195 0.43387 0.93696
 H655 H 0.57782 0.34169 0.94408
 H656 H 0.55777 0.36572 0.90775
 C657 C 0.91291 0.41925 0.81327
 C658 C 0.88786 0.40437 0.83351
 C659 C 0.87718 0.42604 0.84745
 C660 C 0.89169 0.46296 0.84072
 C661 C 0.91667 0.47788 0.82040
 C662 C 0.92768 0.45622 0.80651
 N663 N 0.85182 0.40996 0.86835
 N664 N 0.84198 0.42840 0.88249
 C665 C 0.81668 0.41242 0.90344
 C666 C 0.80796 0.43472 0.91857
 C667 C 0.78346 0.42014 0.93920
 C668 C 0.76709 0.38277 0.94505
 C669 C 0.77588 0.36040 0.92975
 C670 C 0.80049 0.37508 0.90915
 H671 H 0.92076 0.40179 0.80295
 H672 H 0.87686 0.37589 0.83849
 H673 H 0.88381 0.48028 0.85118
 H674 H 0.92754 0.50643 0.81570
 H675 H 0.82023 0.46352 0.91436
 H676 H 0.77727 0.43817 0.95048
 H677 H 0.76377 0.33153 0.93367
 H678 H 0.80678 0.35726 0.89770
 C679 C 0.51667 0.09322 0.80993
 C680 C 0.52908 0.11964 0.82980
 C681 C 0.56070 0.12906 0.84277
 C682 C 0.58023 0.11196 0.83539
 C683 C 0.56789 0.08552 0.81537
 C684 C 0.53583 0.07572 0.80254
 N685 N 0.57190 0.15559 0.86354
 N686 N 0.59971 0.16484 0.87699
 C687 C 0.61017 0.19108 0.89796
 C688 C 0.64034 0.19913 0.91263
 C689 C 0.65079 0.22390 0.93365
 C690 C 0.63118 0.24119 0.94036
 C691 C 0.60105 0.23333 0.92537
 C692 C 0.59060 0.20846 0.90439
 H693 H 0.49194 0.08644 0.80042
 H694 H 0.51383 0.13264 0.83531
 H695 H 0.60482 0.11885 0.84516
 H696 H 0.58323 0.07253 0.81014
 H697 H 0.65565 0.18594 0.90787
 H698 H 0.67420 0.22939 0.94468
 H699 H 0.58538 0.24617 0.92996
 H700 H 0.56716 0.20272 0.89331
   
