data_POSCAR
  _audit_creation_date              2014-09-24
  _audit_creation_method            'ToBaCCo'
  _symmetry_space_group_name_H-M    'P1'
  _symmetry_Int_Tables_number       1
  _symmetry_cell_setting            triclinic
  loop_
  _symmetry_equiv_pos_as_xyz
 x,y,z
_cell_length_a 19.3850
_cell_length_b 19.1202
_cell_length_c 19.0099
_cell_angle_alpha 90.106800
_cell_angle_beta 90.240500
_cell_angle_gamma 89.909700
loop_
  _atom_site_label
  _atom_site_type_symbol
  _atom_site_fract_x
  _atom_site_fract_y
  _atom_site_fract_z
C1 C 0.44363 1.03324 -0.54254
 C2 C 0.44188 1.02184 -0.46887
 C3 C 0.50530 1.01703 -0.43255
 C4 C 0.56996 1.01513 -0.46668
 C5 C 0.57073 1.01904 -0.54158
 C6 C 0.50771 1.03121 -0.57673
 H7 H 0.50831 1.03942 -0.63322
 H8 H 0.50405 1.01198 -0.37581
 C9 C -0.52907 1.43179 0.00419
 C10 C -0.45627 1.43072 0.00500
 C11 C -0.42044 1.49455 0.00610
 C12 C -0.45372 1.56036 0.00411
 C13 C -0.52714 1.56099 0.00215
 C14 C -0.56275 1.49682 0.00291
 H15 H -0.61865 1.49746 0.00261
 H16 H -0.36464 1.49216 0.00535
 C17 C -0.05570 0.53457 0.56592
 C18 C -0.02904 0.46478 0.56865
 C19 C -0.01911 0.42979 0.50375
 C20 C -0.02814 0.46241 0.43849
 C21 C -0.04869 0.53282 0.43666
 C22 C -0.06710 0.56570 0.49972
 H23 H -0.08366 0.61992 0.49712
 H24 H -0.00620 0.37467 0.50281
 O25 O -0.08207 0.99609 -0.18621
 O26 O -0.09096 0.99636 0.17697
 O27 O -0.17003 0.90012 -0.00899
 O28 O -0.17140 1.08836 -0.00358
 O29 O -0.08775 1.17423 -0.00433
 O30 O -0.08476 0.81599 -0.00384
 O31 O -0.17228 0.99476 0.08809
 O32 O -0.16726 0.99565 -0.10166
 Zr33 Zr -0.11387 0.99478 -0.00527
 O34 O -0.05780 1.05903 0.06045
 O35 O -0.05342 0.93151 -0.06763
 C36 C -0.14615 0.99770 -0.16624
 C37 C -0.15400 0.99511 0.15387
 C38 C -0.14888 0.83577 -0.00576
 C39 C -0.15145 1.15299 -0.00504
 H40 H -0.08578 0.90233 0.08938
 O41 O -0.05615 0.93243 0.06011
 H42 H -0.08134 1.08861 -0.09732
 O43 O -0.05314 1.05833 -0.06647
 O44 O 0.09349 0.99307 0.18372
 O45 O 0.10468 0.99770 -0.18042
 O46 O 0.00818 0.81581 0.09373
 O47 O -0.00043 1.17649 0.09327
 O48 O 0.01153 1.17667 -0.09445
 O49 O 0.00907 0.81519 -0.09472
 O50 O 0.18638 0.90240 0.00652
 O51 O 0.18530 1.09082 0.00292
 O52 O 0.10221 0.81723 0.00150
 O53 O 0.10026 1.17550 0.00349
 O54 O 0.00547 0.90165 0.17904
 O55 O 0.00868 0.89927 -0.18192
 O56 O 0.01616 1.09195 -0.18105
 O57 O -0.00448 1.09086 0.17846
 O58 O 0.18142 0.99479 0.10204
 O59 O 0.18690 0.99632 -0.09191
 Zr60 Zr 0.00346 0.99602 0.12214
 Zr61 Zr 0.01032 0.99568 -0.12565
 Zr62 Zr 0.00826 0.87318 -0.00106
 Zr63 Zr 0.00678 1.11863 -0.00084
 Zr64 Zr 0.12921 0.99642 0.00304
 O65 O 0.07141 1.05932 -0.06300
 O66 O 0.06879 0.93280 0.06482
 C67 C 0.15789 0.99247 0.16614
 C68 C 0.16790 0.99690 -0.15777
 C69 C 0.00734 0.83690 0.15863
 C70 C -0.00635 1.15548 0.15770
 C71 C 0.01579 1.15663 -0.15939
 C72 C 0.00851 0.83485 -0.15976
 C73 C 0.16599 0.83787 0.00354
 C74 C 0.16428 1.15520 0.00472
 H75 H 0.10125 0.90357 -0.09192
 O76 O 0.07134 0.93354 -0.06258
 H77 H 0.09515 1.08915 0.09667
 O78 O 0.06752 1.05924 0.06480
 C79 C 0.38606 1.09982 0.36579
 C80 C 0.38537 1.04385 0.41408
 C81 C 0.33489 0.99156 0.40639
 C82 C 0.29049 0.99194 0.34738
 C83 C 0.29442 1.04691 0.29763
 C84 C 0.34069 1.10177 0.30883
 C85 C 0.25297 1.04556 0.23678
 C86 C 0.20721 0.99014 0.22516
 C87 C 0.20309 0.93602 0.27478
 C88 C 0.24444 0.93670 0.33528
 H89 H 0.33454 0.94742 0.44212
 H90 H 0.34398 1.14466 0.27180
 H91 H 0.25528 1.08809 0.19918
 H92 H 0.24070 0.89385 0.37228
 H93 H 0.42427 1.14090 0.37066
 H94 H 0.16793 0.89298 0.26637
 C95 C -0.30797 1.05170 0.43353
 C96 C -0.36926 1.01588 0.41602
 C97 C -0.37246 0.98036 0.35094
 C98 C -0.31783 0.98266 0.30353
 C99 C -0.25647 1.01786 0.32198
 C100 C -0.25168 1.05148 0.38752
 C101 C -0.20187 1.02013 0.27375
 C102 C -0.20967 0.99092 0.20619
 C103 C -0.27130 0.95651 0.18854
 C104 C -0.32452 0.95149 0.23715
 H105 H -0.41826 0.95095 0.33664
 H106 H -0.20534 1.07971 0.40212
 H107 H -0.15417 1.04575 0.28819
 H108 H -0.37146 0.92439 0.22232
 H109 H -0.30422 1.08228 0.48135
 H110 H -0.27801 0.93258 0.13726
 C111 C -0.31836 0.95679 -0.44029
 C112 C -0.37059 1.00563 -0.42381
 C113 C -0.36488 1.04329 -0.36031
 C114 C -0.30949 1.03259 -0.31432
 C115 C -0.25700 0.98420 -0.33156
 C116 C -0.26182 0.94681 -0.39503
 C117 C -0.20176 0.97337 -0.28421
 C118 C -0.20043 1.00909 -0.21944
 C119 C -0.25303 1.05710 -0.20354
 C120 C -0.30665 1.06922 -0.25068
 H121 H -0.40354 1.08210 -0.34679
 H122 H -0.22268 0.90877 -0.40895
 H123 H -0.16136 0.93610 -0.29657
 H124 H -0.34648 1.10659 -0.23685
 H125 H -0.32213 0.92463 -0.48707
 H126 H -0.25240 1.08583 -0.15432
 C127 C 0.32447 1.06894 -0.43291
 C128 C 0.37760 1.01926 -0.42537
 C129 C 0.37442 0.97195 -0.36859
 C130 C 0.32307 0.97774 -0.31723
 C131 C 0.27013 1.02788 -0.32515
 C132 C 0.27043 1.07218 -0.38409
 C133 C 0.21901 1.03379 -0.27306
 C134 C 0.22237 0.99267 -0.21174
 C135 C 0.27619 0.94416 -0.20389
 C136 C 0.32546 0.93590 -0.25669
 H137 H 0.41437 0.93268 -0.36228
 H138 H 0.23053 1.11140 -0.39075
 H139 H 0.17759 1.07123 -0.27939
 H140 H 0.36611 0.89755 -0.24964
 H141 H 0.32605 1.10727 -0.47466
 H142 H 0.27905 0.91132 -0.15757
 C143 C 0.43846 1.31386 -0.04648
 C144 C 0.42701 1.36784 0.00249
 C145 C 0.36772 1.36527 0.04483
 C146 C 0.31846 1.31264 0.03549
 C147 C 0.33024 1.25854 -0.01378
 C148 C 0.39114 1.25891 -0.05354
 C149 C 0.28003 1.20630 -0.02352
 C150 C 0.21724 1.20970 0.01320
 C151 C 0.20586 1.26438 0.06110
 C152 C 0.25642 1.31484 0.07296
 H153 H 0.35841 1.40631 0.08309
 H154 H 0.40087 1.21822 -0.09201
 H155 H 0.28889 1.16419 -0.06070
 H156 H 0.24651 1.35624 0.11062
 H157 H 0.48271 1.31535 -0.08098
 H158 H 0.15821 1.26719 0.09053
 C159 C 0.44080 0.67814 0.05535
 C160 C 0.42936 0.62533 0.00500
 C161 C 0.37025 0.62911 -0.03784
 C162 C 0.32078 0.68120 -0.02735
 C163 C 0.33268 0.73465 0.02269
 C164 C 0.39369 0.73340 0.06284
 C165 C 0.28242 0.78694 0.03271
 C166 C 0.21923 0.78341 -0.00384
 C167 C 0.20739 0.72839 -0.05125
 C168 C 0.25823 0.67868 -0.06419
 H169 H 0.36096 0.58898 -0.07714
 H170 H 0.40353 0.77343 0.10201
 H171 H 0.29150 0.82899 0.06993
 H172 H 0.24800 0.63737 -0.10191
 H173 H 0.48515 0.67571 0.09005
 H174 H 0.15899 0.72463 -0.07944
 C175 C -0.42797 0.67889 -0.04244
 C176 C -0.41156 0.62121 0.00091
 C177 C -0.34768 0.62215 0.03684
 C178 C -0.29977 0.67547 0.02613
 C179 C -0.31651 0.73260 -0.01765
 C180 C -0.38141 0.73441 -0.05066
 C181 C -0.26745 0.78585 -0.02836
 C182 C -0.20129 0.78045 0.00214
 C183 C -0.18548 0.72254 0.04454
 C184 C -0.23445 0.67116 0.05734
 H185 H -0.33442 0.58059 0.07322
 H186 H -0.39511 0.77741 -0.08506
 H187 H -0.28008 0.83040 -0.06118
 H188 H -0.22079 0.62742 0.09085
 H189 H -0.47487 0.67971 -0.07341
 H190 H -0.13534 0.71770 0.06919
 C191 C -0.42384 1.31272 0.05507
 C192 C -0.41403 1.36566 0.00490
 C193 C -0.35728 1.36134 -0.04064
 C194 C -0.30794 1.30858 -0.03278
 C195 C -0.31740 1.25584 0.01826
 C196 C -0.37649 1.25746 0.06082
 C197 C -0.26653 1.20393 0.02695
 C198 C -0.20541 1.20659 -0.01261
 C199 C -0.19665 1.25963 -0.06253
 C200 C -0.24785 1.30963 -0.07334
 H201 H -0.34956 1.40162 -0.07993
 H202 H -0.38455 1.21770 0.10047
 H203 H -0.27341 1.16290 0.06558
 H204 H -0.23981 1.34993 -0.11247
 H205 H -0.46662 1.31546 0.09140
 H206 H -0.15053 1.26151 -0.09421
 C207 C 0.03000 1.43277 0.32352
 C208 C -0.01991 1.41847 0.37485
 C209 C -0.05881 1.35691 0.36999
 C210 C -0.04652 1.30853 0.31646
 C211 C 0.00342 1.32294 0.26448
 C212 C 0.04077 1.38581 0.26791
 C213 C 0.01606 1.27332 0.21135
 C214 C -0.01878 1.20886 0.21187
 C215 C -0.06768 1.19532 0.26415
 C216 C -0.08212 1.24497 0.31556
 H217 H -0.09707 1.34552 0.40986
 H218 H 0.07964 1.39759 0.22891
 H219 H 0.05398 1.28387 0.17103
 H220 H -0.12040 1.23320 0.35520
 H221 H 0.06144 1.47940 0.32729
 H222 H -0.09563 1.14652 0.26442
 C223 C -0.06156 1.43383 -0.30878
 C224 C -0.01910 1.42516 -0.36842
 C225 C 0.02886 1.36915 -0.36761
 C226 C 0.02797 1.31847 -0.31473
 C227 C -0.01623 1.32680 -0.25670
 C228 C -0.05910 1.38591 -0.25305
 C229 C -0.01838 1.27463 -0.20479
 C230 C 0.02000 1.21250 -0.21263
 C231 C 0.06306 1.20456 -0.27112
 C232 C 0.06829 1.25777 -0.32095
 H233 H 0.06573 1.36300 -0.40988
 H234 H -0.09375 1.39291 -0.20899
 H235 H -0.05157 1.28122 -0.15965
 H236 H 0.10215 1.25042 -0.36559
 H237 H -0.10063 1.47411 -0.30672
 H238 H 0.09325 1.15749 -0.27781
 C239 C -0.11795 0.62413 -0.36865
 C240 C -0.05968 0.58051 -0.37614
 C241 C -0.00060 0.59446 -0.33524
 C242 C 0.00218 0.65467 -0.29263
 C243 C -0.05617 0.69907 -0.28750
 C244 C -0.11661 0.68200 -0.32399
 C245 C -0.05284 0.76029 -0.24670
 C246 C 0.00825 0.77787 -0.21142
 C247 C 0.06615 0.73421 -0.21720
 C248 C 0.06324 0.67301 -0.25742
 H249 H 0.04526 0.56256 -0.34168
 H250 H -0.16191 0.71509 -0.32039
 H251 H -0.09797 0.79342 -0.24107
 H252 H 0.10870 0.64018 -0.26107
 H253 H -0.16410 0.61448 -0.39955
 H254 H 0.11348 0.74730 -0.18994
 C255 C -0.07327 0.56171 0.30881
 C256 C -0.04168 0.57758 0.37352
 C257 C -0.00356 0.63958 0.38033
 C258 C 0.00115 0.68659 0.32469
 C259 C -0.02949 0.67018 0.25920
 C260 C -0.06613 0.60719 0.25153
 C261 C -0.02454 0.71812 0.20357
 C262 C 0.00714 0.78348 0.21430
 C263 C 0.03589 0.79939 0.28027
 C264 C 0.03432 0.75080 0.33452
 H265 H 0.02127 0.65205 0.43005
 H266 H -0.09070 0.59408 0.20194
 H267 H -0.04748 0.70575 0.15309
 H268 H 0.05726 0.76428 0.38483
 H269 H -0.10379 0.51469 0.30280
 H270 H 0.05931 0.84977 0.29011
   
