data_POSCAR
  _audit_creation_date              2014-09-24
  _audit_creation_method            'ToBaCCo'
  _symmetry_space_group_name_H-M    'P1'
  _symmetry_Int_Tables_number       1
  _symmetry_cell_setting            triclinic
  loop_
  _symmetry_equiv_pos_as_xyz
 x,y,z
_cell_length_a 23.7518
_cell_length_b 20.9548
_cell_length_c 21.6163
_cell_angle_alpha 91.183300
_cell_angle_beta 91.417600
_cell_angle_gamma 88.499100
loop_
  _atom_site_label
  _atom_site_type_symbol
  _atom_site_fract_x
  _atom_site_fract_y
  _atom_site_fract_z
C1 C 0.31226 0.37253 0.23859
 H2 H 0.30221 0.37483 0.28714
 C3 C 0.35374 0.41143 0.21623
 H4 H 0.37434 0.44454 0.24784
 C5 C 0.29878 0.32458 0.13933
 H6 H 0.27925 0.28879 0.10999
 C7 C 0.33989 0.36250 0.11505
 H8 H 0.35057 0.35560 0.06698
 N9 N 0.28568 0.33025 0.20010
 C10 C 0.14205 0.27283 0.30577
 H11 H 0.14647 0.22203 0.29658
 C12 C 0.10332 0.29560 0.34874
 H13 H 0.07703 0.26216 0.37137
 C14 C 0.17286 0.37767 0.28900
 H15 H 0.20087 0.40919 0.26652
 C16 C 0.13383 0.40270 0.33109
 H17 H 0.13208 0.45362 0.34070
 Zn18 Zn 0.23661 0.27237 0.23543
 N19 N 0.17742 0.31347 0.27893
 C20 C 0.27096 0.23507 0.35450
 N21 N 0.28057 0.22450 0.29334
 C22 C 0.32239 0.18342 0.27447
 C23 C 0.35449 0.14861 0.31804
 C24 C 0.30147 0.20118 0.39918
 C25 C 0.17522 0.24652 0.12524
 C26 C 0.14771 0.20893 0.08037
 C27 C 0.17394 0.11561 0.13938
 C28 C 0.20248 0.15470 0.18203
 N29 N 0.20278 0.21891 0.17419
 H30 H 0.23996 0.27036 0.36917
 H31 H 0.33027 0.17714 0.22562
 H32 H 0.38663 0.11481 0.30248
 H33 H 0.29271 0.21032 0.44752
 H34 H 0.17459 0.29790 0.12115
 H35 H 0.12609 0.23139 0.04151
 H36 H 0.17345 0.06462 0.14654
 H37 H 0.22300 0.13390 0.22226
 C38 C 0.09997 0.36103 0.36305
 C39 C 0.36853 0.40611 0.15380
 C40 C 0.14642 0.14279 0.08776
 C41 C 0.34319 0.15664 0.38121
 C42 C 0.84927 0.85055 0.23821
 H43 H 0.85139 0.83890 0.28675
 C44 C 0.89492 0.87859 0.21124
 H45 H 0.93116 0.88917 0.24053
 C46 C 0.79840 0.85043 0.14265
 H47 H 0.76109 0.83813 0.11590
 C48 C 0.84270 0.87996 0.11393
 H49 H 0.83836 0.88940 0.06504
 N50 N 0.80278 0.83584 0.20359
 C51 C 0.65739 0.82255 0.32021
 H52 H 0.64821 0.77245 0.31441
 C53 C 0.62161 0.86284 0.35435
 H54 H 0.58490 0.84290 0.37446
 C55 C 0.71555 0.90905 0.29854
 H56 H 0.75199 0.92690 0.27616
 C57 C 0.68096 0.95107 0.33243
 H58 H 0.69200 1.00073 0.33638
 Zn59 Zn 0.74744 0.78999 0.24389
 N60 N 0.70326 0.84614 0.29318
 C61 C 0.77684 0.72168 0.35460
 N62 N 0.78577 0.72790 0.29303
 C63 C 0.82284 0.68864 0.26280
 C64 C 0.84950 0.63791 0.29320
 C65 C 0.80399 0.67227 0.38740
 C66 C 0.66068 0.78311 0.15184
 C67 C 0.62183 0.75263 0.11226
 C68 C 0.66336 0.65108 0.14195
 C69 C 0.70042 0.68321 0.18165
 N70 N 0.69890 0.74813 0.18575
 H71 H 0.74816 0.75429 0.37810
 H72 H 0.83010 0.69558 0.21420
 H73 H 0.87788 0.60627 0.26791
 H74 H 0.79611 0.66693 0.43612
 H75 H 0.65949 0.83461 0.15673
 H76 H 0.59095 0.78093 0.08642
 H77 H 0.66472 0.59939 0.14077
 H78 H 0.72924 0.65562 0.21023
 C79 C 0.63303 0.92820 0.36070
 C80 C 0.89281 0.89269 0.14779
 C81 C 0.62302 0.68573 0.10718
 C82 C 0.83960 0.62884 0.35598
 C83 C 0.83439 0.33576 0.75193
 H84 H 0.83754 0.33489 0.80183
 C85 C 0.86356 0.38135 0.72031
 H86 H 0.89039 0.41349 0.74654
 C87 C 0.79422 0.29606 0.65799
 H88 H 0.76613 0.26386 0.63386
 C89 C 0.82318 0.34072 0.62433
 H90 H 0.81733 0.34182 0.57454
 N91 N 0.80059 0.29404 0.72073
 C92 C 0.72411 0.27108 0.89243
 H93 H 0.74514 0.22689 0.90567
 C94 C 0.69392 0.30709 0.93623
 H95 H 0.69224 0.28988 0.98295
 C96 C 0.69817 0.34486 0.81448
 H97 H 0.69938 0.35863 0.76658
 C98 C 0.66747 0.38215 0.85662
 H99 H 0.64595 0.42513 0.84073
 Zn100 Zn 0.75902 0.23855 0.77030
 N101 N 0.72504 0.29008 0.83272
 C102 C 0.85126 0.19283 0.84533
 N103 N 0.80768 0.17500 0.80736
 C104 C 0.79742 0.11217 0.79646
 C105 C 0.83221 0.06469 0.82270
 C106 C 0.88682 0.14690 0.87322
 C107 C 0.64663 0.20690 0.74358
 C108 C 0.60195 0.17589 0.71415
 C109 C 0.66742 0.12694 0.64280
 C110 C 0.71110 0.15929 0.67362
 N111 N 0.70012 0.19820 0.72336
 H112 H 0.85829 0.24282 0.85467
 H113 H 0.76185 0.09832 0.76776
 H114 H 0.82183 0.01563 0.81277
 H115 H 0.92115 0.16336 0.90262
 H116 H 0.63827 0.23715 0.78346
 H117 H 0.56007 0.18467 0.73137
 H118 H 0.67735 0.09539 0.60414
 H119 H 0.75401 0.15205 0.65882
 C120 C 0.66433 0.36297 0.91828
 C121 C 0.85805 0.38452 0.65565
 C122 C 0.61191 0.13462 0.66344
 C123 C 0.87809 0.08132 0.86183
 C124 C 0.32960 0.82404 0.69411
 H125 H 0.31411 0.84357 0.73733
 C126 C 0.36426 0.86029 0.65793
 H127 H 0.37427 0.90835 0.67299
 C128 C 0.33477 0.73791 0.62139
 H129 H 0.32320 0.68995 0.60780
 C130 C 0.36886 0.77262 0.58360
 H131 H 0.38334 0.75109 0.54070
 N132 N 0.31522 0.76432 0.67488
 C133 C 0.23085 0.74236 0.84127
 H134 H 0.25738 0.70213 0.85438
 C135 C 0.19682 0.77188 0.88558
 H136 H 0.19793 0.75388 0.93219
 C137 C 0.19717 0.81473 0.76539
 H138 H 0.19746 0.83145 0.71853
 C139 C 0.16281 0.84625 0.80863
 H140 H 0.13619 0.88624 0.79425
 Zn141 Zn 0.26853 0.71286 0.72095
 N142 N 0.22914 0.76255 0.78182
 C143 C 0.29238 0.60002 0.79022
 N144 N 0.31496 0.65009 0.76116
 C145 C 0.37122 0.66085 0.76550
 C146 C 0.40677 0.62173 0.80139
 C147 C 0.32681 0.55847 0.82501
 C148 C 0.18341 0.71766 0.62979
 C149 C 0.14077 0.69582 0.58984
 C150 C 0.16474 0.58806 0.61995
 C151 C 0.20754 0.61196 0.65877
 N152 N 0.21490 0.67606 0.66459
 H153 H 0.24730 0.59397 0.78879
 H154 H 0.38837 0.70158 0.74343
 H155 H 0.45109 0.63225 0.80623
 H156 H 0.30813 0.51987 0.84923
 H157 H 0.19133 0.76809 0.63296
 H158 H 0.11538 0.73016 0.56397
 H159 H 0.15892 0.53702 0.61670
 H160 H 0.23448 0.57902 0.68408
 C161 C 0.16118 0.82343 0.86908
 C162 C 0.38353 0.83480 0.60144
 C163 C 0.13031 0.63036 0.58546
 C164 C 0.38444 0.57021 0.83185
 C165 C 0.02498 -0.03163 -0.00924
 C166 C -0.02996 0.49908 0.49524
 C167 C 0.48364 0.01858 0.50638
 C168 C 0.51090 0.50556 0.01378
 N169 N 0.06199 -0.14776 -0.01050
 N170 N 0.09769 -0.18445 -0.04169
 C171 C 0.12062 -0.14985 -0.08584
 C172 C 0.09823 -0.08806 -0.08269
 C173 C 0.06169 -0.08796 -0.03316
 H174 H 0.10735 -0.04908 -0.11245
 H175 H 0.03740 -0.16480 0.02462
 H176 H 0.10459 -0.23306 -0.03376
 N177 N 0.01655 0.38689 0.49819
 N178 N 0.05002 0.35140 0.46280
 C179 C 0.06280 0.38483 0.41266
 C180 C 0.03653 0.44428 0.41646
 C181 C 0.00631 0.44346 0.47070
 H182 H 0.03809 0.48269 0.38388
 H183 H 0.00268 0.37241 0.54096
 H184 H 0.06492 0.30563 0.47396
 N185 N 0.55494 0.05947 0.43106
 N186 N 0.59410 0.03623 0.39380
 C187 C 0.59487 -0.02808 0.39606
 C188 C 0.55437 -0.04608 0.43677
 C189 C 0.52917 0.01073 0.45762
 H190 H 0.54556 -0.09394 0.45080
 H191 H 0.54690 0.10816 0.43899
 H192 H 0.61945 0.06455 0.36745
 N193 N 0.59229 0.43156 0.04953
 N194 N 0.63233 0.39512 0.02466
 C195 C 0.62843 0.39941 -0.03742
 C196 C 0.58393 0.44085 -0.05241
 C197 C 0.56129 0.45973 0.00398
 H198 H 0.56909 0.45441 -0.09811
 H199 H 0.58692 0.43661 0.09711
 H200 H 0.66188 0.36834 0.05036
 N201 N -0.04554 -0.06057 -0.09049
 N202 N -0.08745 -0.02928 -0.12556
 C203 C -0.08591 0.03383 -0.11144
 C204 C -0.04323 0.04339 -0.06692
 C205 C -0.01833 -0.01648 -0.05556
 H206 H -0.03224 0.08782 -0.04394
 H207 H -0.03860 -0.10999 -0.09062
 H208 H -0.11369 -0.05263 -0.15756
 N209 N -0.08836 0.48304 0.39561
 N210 N -0.12265 0.51722 0.35972
 C211 C -0.13285 0.57426 0.38751
 C212 C -0.10483 0.57599 0.44445
 C213 C -0.07473 0.51813 0.44671
 H214 H -0.10185 0.61614 0.47657
 H215 H -0.07376 0.43706 0.38389
 H216 H -0.13733 0.50217 0.31601
 N217 N 0.38497 0.06622 0.51402
 N218 N 0.34868 0.10149 0.48178
 C219 C 0.37264 0.11804 0.42896
 C220 C 0.42686 0.09186 0.42748
 C221 C 0.43382 0.06007 0.48340
 H222 H 0.45605 0.09485 0.39018
 H223 H 0.37455 0.04370 0.55456
 H224 H 0.30733 0.11151 0.49497
 N225 N 0.45093 0.45269 -0.07096
 N226 N 0.41763 0.46918 -0.11814
 C227 C 0.41995 0.53269 -0.12483
 C228 C 0.45605 0.55775 -0.08004
 C229 C 0.47378 0.50564 -0.04515
 H230 H 0.46557 0.60754 -0.07275
 H231 H 0.45696 0.40588 -0.05596
 H232 H 0.39344 0.43743 -0.14472
 N233 N 0.03010 -0.06787 0.09878
 N234 N -0.00663 -0.08800 0.14314
 C235 C -0.05945 -0.08404 0.11883
 C236 C -0.05729 -0.05950 0.05944
 C237 C -0.00040 -0.04964 0.04831
 H238 H -0.09237 -0.05169 0.02743
 H239 H 0.07395 -0.07193 0.10300
 H240 H 0.00681 -0.10848 0.18471
 N241 N -0.06203 0.51724 0.60653
 N242 N -0.09143 0.48745 0.64765
 C243 C -0.11109 0.43310 0.62177
 C244 C -0.09422 0.42902 0.56076
 C245 C -0.06124 0.48219 0.55340
 H246 H -0.10214 0.39108 0.52720
 H247 H -0.04342 0.56118 0.61533
 H248 H -0.09790 0.50479 0.69260
 N249 N 0.43467 -0.08190 0.47246
 N250 N 0.40868 -0.12986 0.49680
 C251 C 0.41489 -0.12589 0.55879
 C252 C 0.44757 -0.07378 0.57446
 C253 C 0.45893 -0.04642 0.51813
 H254 H 0.45836 -0.05664 0.62059
 H255 H 0.43325 -0.07175 0.42532
 H256 H 0.38405 -0.16200 0.47124
 N257 N 0.49400 0.49346 0.12861
 N258 N 0.45697 0.46861 0.16514
 C259 C 0.41549 0.44294 0.12989
 C260 C 0.42665 0.45258 0.06821
 C261 C 0.47747 0.48410 0.06891
 H262 H 0.40091 0.43826 0.02880
 H263 H 0.53025 0.51628 0.14471
 H264 H 0.46139 0.46804 0.21329
 N265 N 0.08457 0.06083 -0.04344
 N266 N 0.11543 0.10677 -0.01855
 C267 C 0.11488 0.10221 0.04336
 C268 C 0.08152 0.05234 0.05854
 C269 C 0.06303 0.02611 0.00207
 H270 H 0.07203 0.03887 0.10498
 H271 H 0.07773 0.05430 -0.09101
 H272 H 0.13708 0.13986 -0.04377
 N273 N 0.01886 0.60378 0.47293
 N274 N 0.06128 0.63688 0.49617
 C275 C 0.08306 0.60684 0.54614
 C276 C 0.05314 0.55208 0.55490
 C277 C 0.01150 0.55253 0.50856
 H278 H 0.06008 0.51681 0.59034
 H279 H -0.00273 0.61548 0.43194
 H280 H 0.07578 0.67839 0.47671
 N281 N 0.48017 0.06448 0.61698
 N282 N 0.51325 0.09453 0.65725
 C283 C 0.56447 0.10023 0.63284
 C284 C 0.56384 0.07131 0.57454
 C285 C 0.50911 0.04955 0.56540
 H286 H 0.59816 0.06842 0.54264
 H287 H 0.43845 0.05466 0.62584
 H288 H 0.50024 0.11032 0.70082
 N289 N 0.49564 0.62244 0.04302
 N290 N 0.52509 0.67008 0.06667
 C291 C 0.57973 0.65152 0.07028
 C292 C 0.58531 0.58989 0.04627
 C293 C 0.53084 0.57262 0.02981
 H294 H 0.62305 0.55985 0.04629
 H295 H 0.45167 0.62267 0.03993
 H296 H 0.50724 0.71240 0.08461
   
