data_POSCAR
  _audit_creation_date              2014-09-24
  _audit_creation_method            'ToBaCCo'
  _symmetry_space_group_name_H-M    'P1'
  _symmetry_Int_Tables_number       1
  _symmetry_cell_setting            triclinic
  loop_
  _symmetry_equiv_pos_as_xyz
 x,y,z
_cell_length_a 46.2900
_cell_length_b 45.7436
_cell_length_c 14.3094
_cell_angle_alpha 89.857600
_cell_angle_beta 89.481800
_cell_angle_gamma 120.086900
loop_
  _atom_site_label
  _atom_site_type_symbol
  _atom_site_fract_x
  _atom_site_fract_y
  _atom_site_fract_z
C1 C 0.27410 0.53378 0.53521
 C2 C 0.27065 0.53171 0.44071
 C3 C 0.23732 0.51588 0.39690
 C4 C 0.29940 0.53927 0.37894
 C5 C 0.30507 0.53894 0.58024
 C6 C 0.24500 0.52337 0.59870
 C7 C 0.21397 0.48209 0.41667
 C8 C 0.18294 0.46640 0.37383
 C9 C 0.17428 0.48406 0.30917
 C10 C 0.19832 0.51802 0.28838
 C11 C 0.22957 0.53362 0.33143
 C12 C 0.29934 0.51319 0.32726
 C13 C 0.32804 0.51878 0.27905
 C14 C 0.35686 0.55079 0.27978
 C15 C 0.35649 0.57721 0.32860
 C16 C 0.32803 0.57141 0.37855
 C17 C 0.32013 0.56319 0.65061
 C18 C 0.34459 0.56309 0.70722
 C19 C 0.35395 0.53862 0.69405
 C20 C 0.34007 0.51544 0.62117
 C21 C 0.31574 0.51551 0.56486
 C22 C 0.22608 0.53961 0.59708
 C23 C 0.19769 0.52796 0.65458
 C24 C 0.18775 0.49967 0.71299
 C25 C 0.20727 0.48419 0.71615
 C26 C 0.23573 0.49606 0.66010
 H27 H 0.21993 0.46768 0.46505
 H28 H 0.16619 0.44034 0.39255
 H29 H 0.19330 0.53283 0.23916
 H30 H 0.24763 0.55964 0.31424
 H31 H 0.27752 0.48812 0.32768
 H32 H 0.32767 0.49818 0.24095
 H33 H 0.32850 0.59171 0.41857
 H34 H 0.31156 0.58084 0.66506
 H35 H 0.35445 0.58048 0.76511
 H36 H 0.34632 0.49573 0.61224
 H37 H 0.30344 0.49561 0.51409
 H38 H 0.23299 0.56084 0.55039
 H39 H 0.18280 0.54012 0.65053
 H40 H 0.20026 0.46252 0.76112
 H41 H 0.24993 0.48312 0.66237
 H42 H 0.37852 0.60208 0.33034
 C43 C 0.49571 -0.24940 0.52959
 C44 C 0.49258 -0.25203 0.43492
 C45 C 0.50626 -0.26969 0.37973
 C46 C 0.48091 -0.23278 0.37920
 C47 C 0.48895 -0.22545 0.58249
 C48 C 0.51017 -0.26721 0.58094
 C49 C 0.53753 -0.25065 0.33566
 C50 C 0.55136 -0.26660 0.28432
 C51 C 0.53368 -0.30176 0.27392
 C52 C 0.50194 -0.32080 0.31627
 C53 C 0.48845 -0.30485 0.36975
 C54 C 0.49975 -0.19751 0.37508
 C55 C 0.49051 -0.17951 0.31559
 C56 C 0.46231 -0.19643 0.25811
 C57 C 0.44328 -0.23189 0.26329
 C58 C 0.45265 -0.24989 0.32298
 C59 C 0.45784 -0.22701 0.57825
 C60 C 0.45423 -0.20017 0.61159
 C61 C 0.48162 -0.17164 0.64989
 C62 C 0.51199 -0.17112 0.65949
 C63 C 0.51553 -0.19795 0.62705
 C64 C 0.48989 -0.29466 0.63943
 C65 C 0.50235 -0.31408 0.67909
 C66 C 0.53539 -0.30667 0.66012
 C67 C 0.55598 -0.27790 0.60476
 C68 C 0.54359 -0.25829 0.56661
 H69 H 0.55144 -0.22341 0.34235
 H70 H 0.57567 -0.25142 0.25161
 H71 H 0.48788 -0.34802 0.30956
 H72 H 0.46419 -0.31980 0.40295
 H73 H 0.52211 -0.18397 0.41632
 H74 H 0.50619 -0.15235 0.31350
 H75 H 0.43805 -0.27724 0.32474
 H76 H 0.43700 -0.24806 0.54431
 H77 H 0.43076 -0.20076 0.60224
 H78 H 0.53352 -0.14907 0.68759
 H79 H 0.53977 -0.19608 0.63059
 H80 H 0.46406 -0.30176 0.65182
 H81 H 0.48538 -0.33566 0.72132
 H82 H 0.58181 -0.27008 0.59041
 H83 H 0.55989 -0.23654 0.52367
 H84 H 0.42132 -0.24589 0.22108
 C85 C 1.22423 0.76120 0.55827
 C86 C 1.22236 0.75625 0.46395
 C87 C 1.24550 0.78211 0.39474
 C88 C 1.20058 0.72196 0.42654
 C89 C 1.20569 0.73165 0.62187
 C90 C 1.24815 0.79437 0.60071
 C91 C 1.23301 0.78645 0.31004
 C92 C 1.25453 0.80851 0.24104
 C93 C 1.28922 0.82755 0.25570
 C94 C 1.30165 0.82348 0.34132
 C95 C 1.28021 0.80025 0.40838
 C96 C 1.16755 0.71092 0.40081
 C97 C 1.14770 0.67844 0.36445
 C98 C 1.16056 0.65646 0.35447
 C99 C 1.19343 0.66763 0.38385
 C100 C 1.21327 0.70010 0.41818
 C101 C 1.22074 0.71310 0.64923
 C102 C 1.20357 0.68448 0.70557
 C103 C 1.17024 0.67278 0.73396
 C104 C 1.15467 0.69077 0.70284
 C105 C 1.17242 0.72019 0.64816
 C106 C 1.27059 0.79625 0.66905
 C107 C 1.29679 0.82739 0.69744
 C108 C 1.30143 0.85781 0.65853
 C109 C 1.27724 0.85583 0.59533
 C110 C 1.25081 0.82454 0.56762
 H111 H 1.20647 0.77253 0.29671
 H112 H 1.24358 0.81109 0.17735
 H113 H 1.32816 0.83682 0.35504
 H114 H 1.29094 0.79610 0.47038
 H115 H 1.15737 0.72759 0.40795
 H116 H 1.12255 0.67083 0.34325
 H117 H 1.23861 0.70819 0.43912
 H118 H 1.24584 0.72058 0.62570
 H119 H 1.21646 0.67106 0.72317
 H120 H 1.12913 0.68277 0.72238
 H121 H 1.16013 0.73377 0.62537
 H122 H 1.26922 0.77374 0.69769
 H123 H 1.31398 0.82707 0.74739
 H124 H 1.27863 0.87813 0.56499
 H125 H 1.23330 0.82387 0.51673
 H126 H 1.20437 0.65166 0.38045
 C127 C 0.77274 0.52212 0.55367
 C128 C 0.76937 0.52333 0.45884
 C129 C 0.79220 0.51918 0.39159
 C130 C 0.73734 0.51769 0.41994
 C131 C 0.74511 0.51669 0.61973
 C132 C 0.79820 0.51482 0.59149
 C133 C 0.82724 0.53716 0.40046
 C134 C 0.84707 0.52667 0.35234
 C135 C 0.83226 0.49862 0.29269
 C136 C 0.79787 0.48340 0.27597
 C137 C 0.77817 0.49338 0.32484
 C138 C 0.73630 0.54166 0.36097
 C139 C 0.70635 0.53442 0.31803
 C140 C 0.67737 0.50283 0.33227
 C141 C 0.67846 0.47931 0.39302
 C142 C 0.70814 0.48655 0.43584
 C143 C 0.73065 0.48796 0.67788
 C144 C 0.70107 0.47843 0.72702
 C145 C 0.68471 0.49733 0.72017
 C146 C 0.70051 0.52752 0.66666
 C147 C 0.73039 0.53711 0.61745
 C148 C 0.79545 0.48359 0.57202
 C149 C 0.81818 0.47537 0.60813
 C150 C 0.84414 0.49789 0.66667
 C151 C 0.84765 0.52990 0.68336
 C152 C 0.82445 0.53807 0.64714
 H153 H 0.83901 0.55788 0.44910
 H154 H 0.87362 0.53943 0.36544
 H155 H 0.78564 0.46282 0.22724
 H156 H 0.75149 0.47925 0.31409
 H157 H 0.75873 0.56561 0.34703
 H158 H 0.70619 0.55290 0.27098
 H159 H 0.70861 0.46745 0.47963
 H160 H 0.74118 0.47156 0.68195
 H161 H 0.69118 0.45569 0.76876
 H162 H 0.68947 0.54335 0.65959
 H163 H 0.74119 0.55965 0.57408
 H164 H 0.77538 0.46540 0.52885
 H165 H 0.81517 0.45119 0.58869
 H166 H 0.86721 0.54803 0.72772
 H167 H 0.82686 0.56235 0.66266
 H168 H 0.65646 0.45499 0.40649
 C169 C 0.50515 0.25894 0.55628
 C170 C 0.50362 0.25726 0.46133
 C171 C 0.49627 0.28050 0.40746
 C172 C 0.50632 0.23049 0.41042
 C173 C 0.51072 0.23561 0.61535
 C174 C 0.49683 0.28151 0.60871
 C175 C 0.46437 0.27683 0.41209
 C176 C 0.45866 0.30165 0.37427
 C177 C 0.48469 0.33053 0.33027
 C178 C 0.51621 0.33321 0.32108
 C179 C 0.52196 0.30838 0.35966
 C180 C 0.47907 0.20644 0.35900
 C181 C 0.47820 0.17700 0.32809
 C182 C 0.50448 0.17114 0.34873
 C183 C 0.53280 0.19643 0.39399
 C184 C 0.53386 0.22601 0.42370
 C185 C 0.53735 0.24899 0.67773
 C186 C 0.54094 0.22815 0.74225
 C187 C 0.51773 0.19318 0.74657
 C188 C 0.49139 0.17983 0.68164
 C189 C 0.48782 0.20085 0.61741
 C190 C 0.52082 0.31520 0.62557
 C191 C 0.51278 0.33522 0.68154
 C192 C 0.48036 0.32193 0.72034
 C193 C 0.45659 0.28793 0.70238
 C194 C 0.46488 0.26798 0.64796
 H195 H 0.44420 0.25533 0.44813
 H196 H 0.43391 0.29838 0.38096
 H197 H 0.53678 0.35521 0.28799
 H198 H 0.54678 0.31164 0.35576
 H199 H 0.45753 0.20937 0.34810
 H200 H 0.45615 0.15797 0.29294
 H201 H 0.55532 0.24451 0.46201
 H202 H 0.55518 0.27584 0.67740
 H203 H 0.56203 0.24000 0.78831
 H204 H 0.47278 0.15330 0.68109
 H205 H 0.46666 0.19010 0.57098
 H206 H 0.54579 0.32580 0.59641
 H207 H 0.53189 0.36121 0.69232
 H208 H 0.43170 0.27597 0.73212
 H209 H 0.44632 0.24174 0.63664
 H210 H 0.55383 0.19303 0.40865
 C211 C 0.74388 0.23649 0.54936
 C212 C 0.74173 0.22971 0.45613
 C213 C 0.71421 0.19825 0.41687
 C214 C 0.76938 0.25111 0.39098
 C215 C 0.77209 0.26818 0.58785
 C216 C 0.71962 0.21178 0.61816
 C217 C 0.72129 0.17436 0.37815
 C218 C 0.69555 0.14358 0.34623
 C219 C 0.66242 0.13660 0.34979
 C220 C 0.65536 0.16098 0.38528
 C221 C 0.68111 0.19153 0.41975
 C222 C 0.79989 0.25188 0.39829
 C223 C 0.82612 0.27183 0.33717
 C224 C 0.82244 0.29172 0.26871
 C225 C 0.79203 0.29132 0.26192
 C226 C 0.76536 0.27056 0.32180
 C227 C 0.78163 0.29978 0.54763
 C228 C 0.81010 0.32878 0.57810
 C229 C 0.82897 0.32719 0.65265
 C230 C 0.81760 0.29588 0.69812
 C231 C 0.78980 0.26667 0.66511
 C232 C 0.70514 0.22275 0.68577
 C233 C 0.68422 0.20060 0.75515
 C234 C 0.67712 0.16696 0.75752
 C235 C 0.69126 0.15575 0.68960
 C236 C 0.71294 0.17819 0.62161
 H237 H 0.74668 0.17913 0.37535
 H238 H 0.70157 0.12528 0.31822
 H239 H 0.62989 0.15597 0.38871
 H240 H 0.67529 0.20980 0.44911
 H241 H 0.80326 0.23687 0.45110
 H242 H 0.84949 0.27202 0.34414
 H243 H 0.74182 0.27007 0.31546
 H244 H 0.76734 0.30199 0.49140
 H245 H 0.81677 0.35247 0.54378
 H246 H 0.83115 0.29333 0.75579
 H247 H 0.78268 0.24266 0.69835
 H248 H 0.71028 0.24861 0.68524
 H249 H 0.67331 0.20971 0.80642
 H250 H 0.68636 0.12997 0.69100
 H251 H 0.72499 0.16950 0.57298
 H252 H 0.78874 0.30641 0.20925
 O253 O 0.96019 0.51352 -0.15777
 O254 O 0.92123 0.46628 -0.07750
 C255 C 0.92964 0.48940 -0.14075
 O256 O 1.05240 0.45550 -0.15839
 O257 O 1.08716 0.49812 -0.06030
 C258 C 1.08158 0.47647 -0.12592
 O259 O 0.96103 0.41828 -0.19767
 O260 O 0.92135 0.41894 -0.10196
 C261 C 0.93051 0.40977 -0.17698
 O262 O 1.05481 0.56371 -0.12556
 O263 O 1.08751 0.54813 -0.04382
 C264 C 1.08366 0.56851 -0.09828
 Zr265 Zr 1.00583 0.52247 -0.09474
 O266 O 1.01027 0.53435 -0.23922
 O267 O 1.00427 0.56676 -0.06336
 Zr268 Zr 1.00511 0.44857 -0.12240
 O269 O 1.01461 0.45842 -0.26735
 O270 O 0.99948 0.40005 -0.14073
 O271 O 0.97677 0.47206 -0.13216
 O272 O 1.03493 0.50041 -0.11950
 O273 O 1.04451 0.54745 0.19827
 O274 O 1.08250 0.54036 0.11146
 C275 C 1.07482 0.55446 0.17768
 O276 O 0.94990 0.39432 0.13948
 O277 O 0.91565 0.40825 0.05995
 C278 C 0.92085 0.38812 0.11204
 O279 O 1.04190 0.43859 0.15470
 O280 O 1.08182 0.48994 0.09595
 C281 C 1.07261 0.46260 0.14468
 O282 O 0.94975 0.49921 0.18346
 O283 O 0.91618 0.45761 0.08065
 C284 C 0.92066 0.47731 0.15068
 Zr285 Zr 0.99837 0.51013 0.13872
 O286 O 0.99666 0.50359 0.28554
 O287 O 0.99630 0.55506 0.15383
 Zr288 Zr 0.99743 0.43621 0.11207
 O289 O 0.99513 0.43422 0.26008
 O290 O 0.99612 0.38937 0.11172
 Zr291 Zr 0.95222 0.45455 -0.00181
 Zr292 Zr 1.05111 0.50310 0.01870
 O293 O 1.02630 0.48633 0.14846
 O294 O 0.96749 0.45745 0.13772
 O295 O 1.03206 0.53633 0.03010
 O296 O 0.97247 0.42267 -0.01427
 O297 O 0.97295 0.50700 0.01728
 O298 O 1.03057 0.45079 -0.00091
 H299 H 1.05196 0.51021 -0.17008
 H300 H 0.95735 0.39841 -0.02737
 H301 H 1.03972 0.49080 0.20570
 H302 H 0.95786 0.51651 0.01907
 H303 H 1.01579 0.39858 -0.09961
 H304 H 0.99250 0.38150 0.04638
 H305 H 0.97192 0.42707 0.27947
 H306 H 0.97681 0.48143 0.30047
 H307 H 1.01457 0.57266 0.11495
 H308 H 1.00505 0.57737 -0.12445
 H309 H 1.02549 0.52748 -0.26753
 H310 H 1.00196 0.46940 -0.28799
 O311 O 0.58720 0.53036 0.15827
 O312 O 0.56467 0.47855 0.08772
 C313 C 0.58512 0.50125 0.14469
 O314 O 0.44783 0.51363 0.15646
 O315 O 0.46848 0.55858 0.05444
 C316 C 0.44877 0.54041 0.12149
 O317 O 0.47494 0.44903 0.19011
 O318 O 0.51132 0.43966 0.10300
 C319 C 0.49017 0.43238 0.17148
 O320 O 0.56617 0.59939 0.12543
 O321 O 0.52357 0.59874 0.04245
 C322 C 0.54856 0.61275 0.09899
 Zr323 Zr 0.55917 0.55080 0.09742
 O324 O 0.56341 0.56116 0.24230
 O325 O 0.61013 0.58637 0.07336
 Zr326 Zr 0.47759 0.49142 0.12171
 O327 O 0.48059 0.50148 0.26671
 O328 O 0.42753 0.45195 0.13863
 O329 O 0.52628 0.50068 0.13548
 O330 O 0.51136 0.54253 0.11894
 O331 O 0.55965 0.58525 -0.19604
 O332 O 0.52041 0.59189 -0.11454
 C333 C 0.54343 0.60104 -0.17829
 O334 O 0.46653 0.43243 -0.14238
 O335 O 0.50873 0.43255 -0.05891
 C336 C 0.48366 0.41871 -0.11522
 O337 O 0.43763 0.49504 -0.14665
 O338 O 0.46320 0.54980 -0.09555
 C339 C 0.43891 0.52375 -0.13546
 O340 O 0.58207 0.51716 -0.17733
 O341 O 0.56277 0.47268 -0.07359
 C342 C 0.58196 0.49087 -0.14222
 Zr343 Zr 0.55361 0.53986 -0.13671
 O344 O 0.54685 0.53310 -0.28288
 O345 O 0.60489 0.57530 -0.15665
 Zr346 Zr 0.47279 0.48044 -0.11292
 O347 O 0.47298 0.48039 -0.26099
 O348 O 0.42271 0.44061 -0.11636
 Zr349 Zr 0.52833 0.48001 0.00559
 Zr350 Zr 0.50301 0.55104 -0.02038
 O351 O 0.50506 0.53022 -0.14944
 O352 O 0.52051 0.48783 -0.13505
 O353 O 0.55506 0.57121 -0.02891
 O354 O 0.47651 0.46090 0.01389
 O355 O 0.56962 0.52891 -0.01347
 O356 O 0.46140 0.50221 -0.00117
 H357 H 0.50855 0.55556 0.16988
 H358 H 0.46127 0.43636 0.02391
 H359 H 0.49932 0.53864 -0.20615
 H360 H 0.59250 0.53227 -0.01376
 H361 H 0.41383 0.45649 0.09468
 H362 H 0.41473 0.43595 -0.05076
 H363 H 0.48389 0.46761 -0.28178
 H364 H 0.54167 0.50980 -0.29703
 H365 H 0.61116 0.59231 -0.10678
 H366 H 0.61970 0.59517 0.13560
 H367 H 0.55299 0.53920 0.27569
 H368 H 0.49835 0.49784 0.29209
 O369 O 0.48653 -0.07678 0.12804
 O370 O 0.44635 -0.09777 0.01517
 C371 C 0.46253 -0.10147 0.08348
 O372 O 0.45789 0.03558 0.19799
 O373 O 0.51035 0.07269 0.14073
 C374 C 0.48540 0.06466 0.19670
 O375 O 0.40017 -0.05586 0.13452
 O376 O 0.40418 -0.08670 0.01360
 C377 C 0.38875 -0.08308 0.08473
 O378 O 0.54951 0.01209 0.18594
 O379 O 0.55323 0.06170 0.13711
 C380 C 0.56315 0.04473 0.18680
 Zr381 Zr 0.50816 -0.02432 0.10977
 O382 O 0.50341 -0.03608 0.25426
 O383 O 0.54718 -0.03528 0.09410
 Zr384 Zr 0.44428 -0.00821 0.11576
 O385 O 0.43583 -0.01930 0.26048
 O386 O 0.40242 -0.00123 0.11041
 O387 O 0.45631 -0.04640 0.10760
 O388 O 0.49340 0.00935 0.15188
 O389 O 0.56960 0.04557 -0.12400
 O390 O 0.56294 0.07709 -0.01018
 C391 C 0.58009 0.07298 -0.07522
 O392 O 0.42052 -0.02032 -0.19578
 O393 O 0.41443 -0.07040 -0.14126
 C394 C 0.40610 -0.05303 -0.19526
 O395 O 0.47827 0.06842 -0.12044
 O396 O 0.51974 0.08846 -0.01128
 C397 C 0.50269 0.09278 -0.07557
 O398 O 0.50843 -0.04243 -0.20485
 O399 O 0.45726 -0.08167 -0.14404
 C400 C 0.48198 -0.07224 -0.20286
 Zr401 Zr 0.52293 -0.00052 -0.11626
 O402 O 0.53529 0.01773 -0.25538
 O403 O 0.56056 -0.01395 -0.11846
 Zr404 Zr 0.45918 0.01562 -0.11118
 O405 O 0.47032 0.03365 -0.25078
 O406 O 0.41718 0.02243 -0.10822
 Zr407 Zr 0.45201 -0.05203 -0.03885
 Zr408 Zr 0.51486 0.04276 0.03786
 O409 O 0.51041 0.03675 -0.10805
 O410 O 0.47331 -0.01903 -0.15452
 O411 O 0.53920 0.01473 0.01938
 O412 O 0.42879 -0.02288 -0.01955
 O413 O 0.50156 -0.04156 -0.02583
 O414 O 0.46564 0.03347 0.02555
 H415 H 0.49964 0.01786 0.21645
 H416 H 0.40443 -0.03344 -0.02939
 H417 H 0.52346 0.05642 -0.15004
 H418 H 0.50664 -0.05984 -0.03804
 H419 H 0.41084 0.02302 0.09782
 H420 H 0.42089 0.03901 -0.05885
 H421 H 0.47021 0.01566 -0.28922
 H422 H 0.51442 0.00680 -0.29154
 H423 H 0.57497 -0.00321 -0.06385
 H424 H 0.54966 -0.04348 0.15599
 H425 H 0.47928 -0.04992 0.26860
 H426 H 0.43602 -0.04055 0.27136
 N427 N 1.08910 0.43050 0.24161
 N428 N 1.11765 0.43640 0.28873
 C429 C 1.14227 0.46821 0.26818
 C430 C 1.12982 0.48271 0.20560
 C431 C 1.09650 0.45854 0.19244
 H432 H 1.14242 0.50806 0.17698
 H433 H 1.06591 0.40840 0.24788
 H434 H 1.11807 0.41875 0.33400
 N435 N 0.58531 0.66804 0.17514
 N436 N 0.58123 0.69071 0.22154
 C437 C 0.54862 0.68152 0.22028
 C438 C 0.53141 0.65227 0.16908
 C439 C 0.55553 0.64458 0.14183
 H440 H 0.50478 0.63743 0.15853
 H441 H 0.60786 0.66812 0.16932
 H442 H 0.60020 0.71105 0.25732
 N443 N 0.33169 -0.12846 0.04552
 N444 N 0.30340 -0.15269 0.09376
 C445 C 0.31101 -0.15062 0.18543
 C446 C 0.34387 -0.12459 0.19721
 C447 C 0.35565 -0.11151 0.10859
 H448 H 0.35759 -0.11587 0.26162
 H449 H 0.33330 -0.12415 -0.02657
 H450 H 0.28139 -0.17028 0.06137
 N451 N 0.86011 0.44592 0.18483
 N452 N 0.83695 0.45145 0.22044
 C453 C 0.85143 0.48352 0.25157
 C454 C 0.88585 0.49884 0.23669
 C455 C 0.89008 0.47404 0.19319
 H456 H 0.90478 0.52469 0.25055
 H457 H 0.85525 0.42322 0.15413
 H458 H 0.81166 0.43316 0.22316
 N459 N 0.45808 0.39150 0.29872
 N460 N 0.45629 0.36471 0.33939
 C461 C 0.47911 0.35837 0.29972
 C462 C 0.49632 0.38254 0.23023
 C463 C 0.48199 0.40297 0.23187
 H464 H 0.51617 0.38484 0.18474
 H465 H 0.44306 0.40170 0.31689
 H466 H 0.44005 0.35156 0.39484
 N467 N 0.60873 0.04999 0.28836
 N468 N 0.63509 0.07424 0.33046
 C469 C 0.63551 0.10364 0.31763
 C470 C 0.60823 0.09792 0.26490
 C471 C 0.59208 0.06357 0.24719
 H472 H 0.60191 0.11631 0.23960
 H473 H 0.60289 0.02479 0.28587
 H474 H 0.65259 0.07062 0.36653
 N475 N 0.53867 0.15515 -0.06527
 N476 N 0.54348 0.18320 -0.11673
 C477 C 0.52055 0.17224 -0.18549
 C478 C 0.50079 0.13718 -0.17813
 C479 C 0.51298 0.12764 -0.10305
 H480 H 0.48095 0.12017 -0.22358
 H481 H 0.55356 0.15586 -0.00993
 H482 H 0.56195 0.20786 -0.10178
 N483 N 0.60670 0.45385 -0.15298
 N484 N 0.63576 0.45603 -0.18903
 C485 C 0.65324 0.48585 -0.23540
 C486 C 0.63511 0.50277 -0.23055
 C487 C 0.60652 0.48207 -0.17803
 H488 H 0.64225 0.52765 -0.25730
 H489 H 0.58917 0.43415 -0.11074
 H490 H 0.64171 0.43706 -0.17981
 N491 N 0.90612 0.40525 -0.33186
 N492 N 0.87682 0.38315 -0.37776
 C493 C 0.85909 0.35595 -0.32159
 C494 C 0.87642 0.36064 -0.23837
 C495 C 0.90543 0.39159 -0.24810
 H496 H 0.86884 0.34421 -0.17762
 H497 H 0.92435 0.42889 -0.35725
 H498 H 0.87148 0.38693 -0.44593
 N499 N 0.49849 -0.08658 -0.35313
 N500 N 0.49835 -0.11279 -0.39178
 C501 C 0.48094 -0.14006 -0.33636
 C502 C 0.46918 -0.13084 -0.25851
 C503 C 0.48116 -0.09645 -0.27195
 H504 H 0.45687 -0.14597 -0.19700
 H505 H 0.51177 -0.06196 -0.37977
 H506 H 0.51149 -0.11159 -0.45279
 N507 N 0.37827 0.50017 -0.13245
 N508 N 0.35575 0.50446 -0.17619
 C509 C 0.37156 0.53167 -0.23266
 C510 C 0.40585 0.54562 -0.22445
 C511 C 0.40883 0.52459 -0.16012
 H512 H 0.42544 0.56582 -0.26567
 H513 H 0.37271 0.47991 -0.08760
 H514 H 0.33002 0.48783 -0.17157
 N515 N 1.14501 0.60192 -0.11265
 N516 N 1.16908 0.63036 -0.16038
 C517 C 1.15341 0.64378 -0.20827
 C518 C 1.11895 0.62404 -0.19130
 C519 C 1.11489 0.59798 -0.13218
 H520 H 1.09925 0.62721 -0.22083
 H521 H 1.15010 0.58624 -0.07124
 H522 H 1.19466 0.63957 -0.15449
 N523 N 0.87839 0.45227 -0.22382
 N524 N 0.85506 0.45422 -0.27930
 C525 C 0.86431 0.48715 -0.28898
 C526 C 0.89438 0.50686 -0.24143
 C527 C 0.90212 0.48381 -0.20208
 H528 H 0.90823 0.53403 -0.23391
 H529 H 0.87639 0.42972 -0.20040
 H530 H 0.83289 0.43299 -0.29956
 N531 N 0.44077 0.36095 -0.15796
 N532 N 0.43978 0.33372 -0.20406
 C533 C 0.47156 0.34205 -0.22546
 C534 C 0.49322 0.37420 -0.19076
 C535 C 0.47296 0.38491 -0.14994
 H536 H 0.52013 0.38883 -0.19724
 H537 H 0.41990 0.36255 -0.13743
 H538 H 0.41764 0.31239 -0.22395
 N539 N 0.62820 0.12870 -0.03661
 N540 N 0.65359 0.15388 -0.08100
 C541 C 0.65516 0.14395 -0.16849
 C542 C 0.62993 0.11072 -0.18001
 C543 C 0.61307 0.10227 -0.09495
 H544 H 0.62278 0.09621 -0.24380
 H545 H 0.62046 0.13026 0.03110
 H546 H 0.66877 0.17775 -0.05246
 N547 N 1.10764 0.44442 -0.18455
 N548 N 1.13564 0.45045 -0.22608
 C549 C 1.15572 0.48413 -0.23538
 C550 C 1.13996 0.50038 -0.19659
 C551 C 1.10954 0.47409 -0.16524
 H552 H 1.14869 0.52720 -0.19506
 H553 H 1.08735 0.42032 -0.17121
 H554 H 1.14016 0.43165 -0.25100
 N555 N 0.57814 0.64766 -0.29059
 N556 N 0.57604 0.67378 -0.33460
 C557 C 0.54728 0.67219 -0.30625
 C558 C 0.53104 0.64540 -0.24291
 C559 C 0.55102 0.63090 -0.23527
 H560 H 0.50746 0.63690 -0.20705
 H561 H 0.59737 0.64229 -0.30065
 H562 H 0.59333 0.68993 -0.38433
 N563 N 0.36734 -0.05603 -0.31886
 N564 N 0.33762 -0.08078 -0.35798
 C565 C 0.32989 -0.11089 -0.31928
 C566 C 0.35479 -0.10564 -0.25565
 C567 C 0.37740 -0.07127 -0.25735
 H568 H 0.35620 -0.12394 -0.21089
 H569 H 0.37879 -0.03021 -0.33375
 H570 H 0.32466 -0.07565 -0.40858
 N571 N 0.43125 -0.16481 0.07590
 N572 N 0.43112 -0.18993 0.12256
 C573 C 0.45361 -0.17692 0.19221
 C574 C 0.46838 -0.14211 0.18922
 C575 C 0.45378 -0.13549 0.11483
 H576 H 0.48739 -0.12365 0.23415
 H577 H 0.41647 -0.16780 0.01799
 H578 H 0.41624 -0.21533 0.10507
 N579 N 0.43128 0.58308 0.14055
 N580 N 0.40751 0.58612 0.18277
 C581 C 0.38712 0.55704 0.22825
 C582 C 0.39865 0.53449 0.21532
 C583 C 0.42685 0.55220 0.15942
 H584 H 0.38790 0.50889 0.24172
 H585 H 0.44994 0.60182 0.09839
 H586 H 0.40491 0.60747 0.17793
 N587 N 1.13127 0.57679 0.23971
 N588 N 1.15381 0.60315 0.28567
 C589 C 1.14082 0.62272 0.31019
 C590 C 1.10793 0.60741 0.27869
 C591 C 1.10320 0.57850 0.23376
 H592 H 1.09061 0.61673 0.28274
 H593 H 1.13552 0.55833 0.21062
 H594 H 1.17799 0.60774 0.29592
 N595 N 0.51003 0.09564 0.34159
 N596 N 0.51662 0.12461 0.37934
 C597 C 0.50163 0.13807 0.32887
 C598 C 0.48442 0.11639 0.25605
 C599 C 0.49032 0.08973 0.26723
 H600 H 0.47159 0.12059 0.19930
 H601 H 0.52026 0.08102 0.36374
 H602 H 0.53163 0.13505 0.43782
 N603 N 0.60107 0.46066 0.20458
 N604 N 0.62498 0.46093 0.25447
 C605 C 0.64658 0.49299 0.27957
 C606 C 0.63575 0.51414 0.24423
 C607 C 0.60676 0.49247 0.19724
 H608 H 0.64742 0.54128 0.25067
 H609 H 0.58129 0.43895 0.17579
 H610 H 0.62673 0.43946 0.26845
 N611 N 0.89684 0.32692 0.13037
 N612 N 0.87095 0.30133 0.17163
 C613 C 0.85042 0.31195 0.20403
 C614 C 0.86352 0.34587 0.18067
 C615 C 0.89330 0.35434 0.13508
 H616 H 0.85466 0.36264 0.20279
 H617 H 0.91739 0.32594 0.10335
 H618 H 0.86825 0.27742 0.18084
   
