data_POSCAR
  _audit_creation_date              2014-09-24
  _audit_creation_method            'ToBaCCo'
  _symmetry_space_group_name_H-M    'P1'
  _symmetry_Int_Tables_number       1
  _symmetry_cell_setting            triclinic
  loop_
  _symmetry_equiv_pos_as_xyz
 x,y,z
_cell_length_a 54.6760
_cell_length_b 41.3025
_cell_length_c 39.6232
_cell_angle_alpha 90.070800
_cell_angle_beta 90.016900
_cell_angle_gamma 90.052000
loop_
  _atom_site_label
  _atom_site_type_symbol
  _atom_site_fract_x
  _atom_site_fract_y
  _atom_site_fract_z
C1 C 0.25047 0.26592 0.24849
 C2 C 0.25031 0.23290 0.24886
 C3 C 0.23248 0.21392 0.22856
 C4 C 0.26799 0.21415 0.26956
 C5 C 0.27014 0.28484 0.26531
 C6 C 0.23097 0.28471 0.23125
 C7 C 0.21792 0.19048 0.24413
 C8 C 0.20071 0.17292 0.22555
 C9 C 0.19748 0.17808 0.19038
 C10 C 0.21292 0.20150 0.17503
 C11 C 0.23014 0.21889 0.19379
 C12 C 0.27039 0.21992 0.30434
 C13 C 0.28756 0.20277 0.32334
 C14 C 0.30245 0.17923 0.30800
 C15 C 0.29958 0.17299 0.27333
 C16 C 0.28246 0.19021 0.25434
 C17 C 0.29487 0.27915 0.25781
 C18 C 0.31323 0.29639 0.27455
 C19 C 0.30720 0.31994 0.29882
 C20 C 0.28240 0.32613 0.30564
 C21 C 0.26406 0.30881 0.28895
 C22 C 0.23726 0.30792 0.20695
 C23 C 0.21908 0.32513 0.18992
 C24 C 0.19423 0.31963 0.19708
 C25 C 0.18800 0.29689 0.22203
 C26 C 0.20621 0.27969 0.23906
 H27 H 0.21942 0.18634 0.27105
 H28 H 0.18918 0.15675 0.23986
 H29 H 0.21291 0.20579 0.14816
 H30 H 0.24181 0.23620 0.18105
 H31 H 0.25901 0.23780 0.31672
 H32 H 0.28904 0.20770 0.35011
 H33 H 0.28082 0.18533 0.22756
 H34 H 0.29993 0.26125 0.23908
 H35 H 0.33215 0.29150 0.26831
 H36 H 0.27718 0.34389 0.32442
 H37 H 0.24509 0.31363 0.29500
 H38 H 0.25628 0.31235 0.20080
 H39 H 0.22446 0.34288 0.17126
 H40 H 0.16903 0.29197 0.22797
 H41 H 0.20099 0.26227 0.25816
 H42 H 0.31094 0.15524 0.26072
 C43 C 0.75027 0.23358 0.24995
 C44 C 0.75015 0.26660 0.24971
 C45 C 0.76782 0.28544 0.22908
 C46 C 0.73228 0.28548 0.26998
 C47 C 0.73082 0.21471 0.26723
 C48 C 0.76983 0.21472 0.23288
 C49 C 0.78235 0.30928 0.24442
 C50 C 0.79944 0.32664 0.22548
 C51 C 0.80222 0.32063 0.19075
 C52 C 0.78727 0.29718 0.17531
 C53 C 0.77013 0.27989 0.19426
 C54 C 0.73000 0.28054 0.30489
 C55 C 0.71265 0.29780 0.32350
 C56 C 0.69739 0.32054 0.30759
 C57 C 0.70016 0.32598 0.27277
 C58 C 0.71750 0.30870 0.25419
 C59 C 0.70603 0.21966 0.25952
 C60 C 0.68787 0.20243 0.27663
 C61 C 0.69416 0.17972 0.30157
 C62 C 0.71903 0.17427 0.30862
 C63 C 0.73717 0.19151 0.29151
 C64 C 0.76358 0.19104 0.20899
 C65 C 0.78180 0.17384 0.19201
 C66 C 0.80665 0.17981 0.19880
 C67 C 0.81284 0.20301 0.22338
 C68 C 0.79459 0.22020 0.24036
 H69 H 0.78078 0.31400 0.27123
 H70 H 0.81085 0.34431 0.23817
 H71 H 0.78867 0.29243 0.14850
 H72 H 0.75869 0.26209 0.18180
 H73 H 0.74153 0.26311 0.31766
 H74 H 0.71086 0.29292 0.35023
 H75 H 0.71915 0.31308 0.22734
 H76 H 0.70077 0.23707 0.24045
 H77 H 0.66888 0.20732 0.27078
 H78 H 0.72446 0.15653 0.32726
 H79 H 0.75620 0.18713 0.29757
 H80 H 0.74457 0.18625 0.20310
 H81 H 0.77645 0.15573 0.17365
 H82 H 0.83180 0.20830 0.22902
 H83 H 0.79978 0.23800 0.25914
 H84 H 0.68898 0.34373 0.25991
 C85 C 0.74931 0.76684 0.75145
 C86 C 0.74930 0.73382 0.75163
 C87 C 0.72965 0.71484 0.73484
 C88 C 0.76890 0.71508 0.76871
 C89 C 0.76716 0.78585 0.77170
 C90 C 0.73143 0.78557 0.73109
 C91 C 0.70493 0.72022 0.74263
 C92 C 0.68659 0.70287 0.72597
 C93 C 0.69263 0.67953 0.70149
 C94 C 0.71743 0.67366 0.69437
 C95 C 0.73575 0.69109 0.71097
 C96 C 0.76273 0.69177 0.79296
 C97 C 0.78101 0.67464 0.80990
 C98 C 0.80582 0.68033 0.80270
 C99 C 0.81193 0.70316 0.77778
 C100 C 0.79363 0.72027 0.76084
 C101 C 0.78163 0.80942 0.75606
 C102 C 0.79886 0.82697 0.77460
 C103 C 0.80209 0.82155 0.80959
 C104 C 0.78692 0.79814 0.82513
 C105 C 0.76965 0.78074 0.80648
 C106 C 0.72893 0.78012 0.69627
 C107 C 0.71157 0.79726 0.67758
 C108 C 0.69653 0.82039 0.69331
 C109 C 0.69950 0.82631 0.72803
 C110 C 0.71685 0.80916 0.74669
 H111 H 0.69986 0.73795 0.76153
 H112 H 0.66768 0.70751 0.73244
 H113 H 0.72266 0.65608 0.67542
 H114 H 0.75472 0.68650 0.70472
 H115 H 0.74375 0.68720 0.79915
 H116 H 0.77571 0.65681 0.82854
 H117 H 0.79876 0.73778 0.74178
 H118 H 0.77999 0.81369 0.72918
 H119 H 0.81034 0.84362 0.76076
 H120 H 0.78754 0.79381 0.85201
 H121 H 0.75812 0.76328 0.81924
 H122 H 0.74031 0.76240 0.68365
 H123 H 0.70963 0.79201 0.65094
 H124 H 0.68849 0.84437 0.74074
 H125 H 0.71866 0.81392 0.77346
 H126 H 0.83087 0.70822 0.77181
 C127 C 0.25004 0.73347 0.75027
 C128 C 0.24986 0.76649 0.74993
 C129 C 0.26933 0.78536 0.73268
 C130 C 0.23020 0.78535 0.76678
 C131 C 0.23230 0.71460 0.77077
 C132 C 0.26798 0.71460 0.73012
 C133 C 0.29410 0.78052 0.74052
 C134 C 0.31227 0.79778 0.72346
 C135 C 0.30599 0.82042 0.69843
 C136 C 0.28113 0.82575 0.69125
 C137 C 0.26299 0.80848 0.70832
 C138 C 0.23627 0.80931 0.79034
 C139 C 0.21800 0.82669 0.80700
 C140 C 0.19295 0.82071 0.80046
 C141 C 0.18715 0.79691 0.77599
 C142 C 0.20552 0.77968 0.75931
 C143 C 0.21799 0.69063 0.75543
 C144 C 0.20085 0.67319 0.77418
 C145 C 0.19755 0.67911 0.80907
 C146 C 0.21255 0.70295 0.82432
 C147 C 0.22974 0.72023 0.80546
 C148 C 0.27031 0.71944 0.69520
 C149 C 0.28767 0.70211 0.67668
 C150 C 0.30290 0.67939 0.69269
 C151 C 0.30011 0.67409 0.72753
 C152 C 0.28275 0.69143 0.74602
 H153 H 0.29935 0.76318 0.75967
 H154 H 0.33125 0.79299 0.72942
 H155 H 0.27571 0.84343 0.67254
 H156 H 0.24396 0.81278 0.70215
 H157 H 0.25526 0.81402 0.79648
 H158 H 0.22382 0.84367 0.82616
 H159 H 0.20045 0.76190 0.74044
 H160 H 0.21969 0.68595 0.72863
 H161 H 0.18950 0.65619 0.76055
 H162 H 0.21187 0.70771 0.85113
 H163 H 0.24113 0.73803 0.81799
 H164 H 0.25878 0.73682 0.68235
 H165 H 0.28948 0.70688 0.64993
 H166 H 0.31126 0.65635 0.74047
 H167 H 0.28107 0.68713 0.77288
 H168 H 0.16848 0.79212 0.76853
 O169 O 1.02452 0.04080 0.00316
 O170 O 0.97533 -0.00211 -0.04200
 O171 O 0.97694 0.04137 0.00556
 O172 O 1.02291 -0.00267 -0.04444
 O173 O 1.02364 -0.04133 -0.00611
 O174 O 0.97766 0.00272 0.04391
 O175 O 0.97605 -0.04077 -0.00366
 O176 O 1.02525 0.00214 0.04149
 Cu177 Cu 0.99985 0.02322 -0.02327
 Cu178 Cu 1.00073 -0.02318 0.02275
 C179 C 1.03331 0.02883 0.03007
 C180 C 0.96726 -0.02879 -0.03057
 C181 C 0.96941 0.02960 0.03329
 C182 C 1.03116 -0.02955 -0.03385
 O183 O 0.52410 0.45871 0.49669
 O184 O 0.47501 0.50157 0.54196
 O185 O 0.47651 0.45826 0.49418
 O186 O 0.52258 0.50199 0.54447
 O187 O 0.52344 0.54081 0.50632
 O188 O 0.47737 0.49708 0.45602
 O189 O 0.47586 0.54038 0.50379
 O190 O 0.52495 0.49752 0.45853
 Cu191 Cu 0.49946 0.47624 0.52315
 Cu192 Cu 0.50049 0.52283 0.47734
 C193 C 0.53293 0.47077 0.46984
 C194 C 0.46703 0.52833 0.53065
 C195 C 0.46905 0.47017 0.46648
 C196 C 0.53090 0.52890 0.53401
 O197 O -0.02398 0.45933 0.00295
 O198 O 0.02499 0.50263 -0.04210
 O199 O 0.02361 0.45885 0.00506
 O200 O -0.02260 0.50311 -0.04423
 O201 O -0.02323 0.54152 -0.00552
 O202 O 0.02299 0.49725 0.04377
 O203 O 0.02437 0.54104 -0.00340
 O204 O -0.02461 0.49775 0.04165
 Cu205 Cu 0.00057 0.47713 -0.02346
 Cu206 Cu -0.00018 0.52324 0.02300
 C207 C -0.03270 0.47112 0.03002
 C208 C 0.03308 0.52925 -0.03047
 C209 C 0.03123 0.47046 0.03285
 C210 C -0.03084 0.52990 -0.03332
 O211 O 0.47598 1.04125 0.49668
 O212 O 0.52477 0.99799 0.54208
 O213 O 0.52359 1.04153 0.49464
 O214 O 0.47718 0.99769 0.54410
 O215 O 0.47645 0.95909 0.50560
 O216 O 0.52285 1.00292 0.45615
 O217 O 0.52404 0.95939 0.50359
 O218 O 0.47524 1.00264 0.45819
 Cu219 Cu 0.50046 1.02349 0.52323
 Cu220 Cu 0.49957 0.97714 0.47702
 C221 C 0.46725 1.02935 0.46965
 C222 C 0.53276 0.97127 0.53063
 C223 C 0.53117 1.02974 0.46692
 C224 C 0.46886 0.97087 0.53332
 C225 C 1.14380 0.12731 0.13498
 C226 C 1.15363 0.15598 0.12233
 C227 C 1.17154 0.17278 0.14048
 C228 C 1.18017 0.16135 0.17216
 C229 C 1.16987 0.13193 0.18418
 C230 C 1.15200 0.11530 0.16583
 C231 C 1.12510 0.11033 0.11649
 C232 C 1.10933 0.09610 0.10120
 C233 C 1.09041 0.07910 0.08316
 C234 C 1.08073 0.09211 0.05343
 C235 C 1.06218 0.07574 0.03609
 C236 C 1.05306 0.04611 0.04830
 C237 C 1.06297 0.03320 0.07818
 C238 C 1.08151 0.04962 0.09547
 H239 H 1.14720 0.16570 0.09853
 H240 H 1.17732 0.19563 0.12995
 H241 H 1.17613 0.12033 0.20700
 H242 H 1.14467 0.09283 0.17570
 H243 H 1.08748 0.11493 0.04370
 H244 H 1.05496 0.08633 0.01317
 H245 H 1.05637 0.01046 0.08825
 H246 H 1.08887 0.03935 0.11848
 C247 C 0.63672 0.62808 0.64706
 C248 C 0.65762 0.61176 0.65823
 C249 C 0.67574 0.62840 0.67615
 C250 C 0.67316 0.66164 0.68313
 C251 C 0.65200 0.67778 0.67198
 C252 C 0.63392 0.66109 0.65404
 C253 C 0.61832 0.61106 0.62805
 C254 C 0.60299 0.59683 0.61194
 C255 C 0.58479 0.57986 0.59252
 C256 C 0.57555 0.55022 0.60390
 C257 C 0.55799 0.53362 0.58491
 C258 C 0.54944 0.54650 0.55423
 C259 C 0.55882 0.57635 0.54304
 C260 C 0.57638 0.59290 0.56208
 H261 H 0.65995 0.58619 0.65303
 H262 H 0.69167 0.61523 0.68476
 H263 H 0.64965 0.70344 0.67656
 H264 H 0.61785 0.67399 0.64539
 H265 H 0.58195 0.53990 0.62743
 H266 H 0.55115 0.51071 0.59424
 H267 H 0.55263 0.58694 0.51955
 H268 H 0.58342 0.61583 0.55303
 C269 C -0.14314 0.37210 0.13410
 C270 C -0.15733 0.38844 0.15806
 C271 C -0.17523 0.37179 0.17632
 C272 C -0.17916 0.33852 0.17084
 C273 C -0.16491 0.32235 0.14653
 C274 C -0.14701 0.33905 0.12832
 C275 C -0.12441 0.38915 0.11580
 C276 C -0.10863 0.40344 0.10066
 C277 C -0.08970 0.42052 0.08279
 C278 C -0.08079 0.44993 0.09534
 C279 C -0.06226 0.46644 0.07817
 C280 C -0.05239 0.45371 0.04816
 C281 C -0.06152 0.42414 0.03571
 C282 C -0.08005 0.40768 0.05294
 H283 H -0.15452 0.41403 0.16268
 H284 H -0.18611 0.38498 0.19454
 H285 H -0.16728 0.29667 0.14206
 H286 H -0.13606 0.32615 0.10991
 H287 H -0.08812 0.46007 0.11845
 H288 H -0.05565 0.48914 0.08843
 H289 H -0.05432 0.41369 0.01269
 H290 H -0.08681 0.38491 0.04302
 C291 C 0.36183 0.87162 0.64377
 C292 C 0.36429 0.86669 0.67854
 C293 C 0.34614 0.85006 0.69639
 C294 C 0.32528 0.83818 0.67963
 C295 C 0.32300 0.84327 0.64466
 C296 C 0.34117 0.85988 0.62688
 C297 C 0.38049 0.88867 0.62533
 C298 C 0.39602 0.90291 0.60965
 C299 C 0.41445 0.91986 0.59067
 C300 C 0.42378 0.94932 0.60251
 C301 C 0.44152 0.96592 0.58391
 C302 C 0.45017 0.95324 0.55316
 C303 C 0.44070 0.92355 0.54152
 C304 C 0.42297 0.90701 0.56018
 H305 H 0.38019 0.87575 0.69187
 H306 H 0.34828 0.84685 0.72334
 H307 H 0.30734 0.83402 0.63096
 H308 H 0.33913 0.86346 0.59994
 H309 H 0.41730 0.95949 0.62609
 H310 H 0.44842 0.98870 0.59357
 H311 H 0.44696 0.91312 0.51798
 H312 H 0.41585 0.88422 0.55077
 C313 C -0.13800 0.62948 -0.14303
 C314 C -0.15869 0.64093 -0.12603
 C315 C -0.17696 0.65743 -0.14368
 C316 C -0.17477 0.66272 -0.17863
 C317 C -0.15387 0.65115 -0.19549
 C318 C -0.13562 0.63462 -0.17778
 C319 C -0.11926 0.61246 -0.12474
 C320 C -0.10368 0.59822 -0.10918
 C321 C -0.08521 0.58123 -0.09036
 C322 C -0.07664 0.59394 -0.05981
 C323 C -0.05890 0.57731 -0.04127
 C324 C -0.04949 0.54767 -0.05307
 C325 C -0.05819 0.53514 -0.08388
 C326 C -0.07593 0.55183 -0.10237
 H327 H -0.16067 0.63718 -0.09911
 H328 H -0.19264 0.66644 -0.12990
 H329 H -0.15179 0.65452 -0.22244
 H330 H -0.11970 0.62578 -0.19120
 H331 H -0.08372 0.61667 -0.05027
 H332 H -0.05260 0.58762 -0.01768
 H333 H -0.05133 0.51240 -0.09367
 H334 H -0.08246 0.54176 -0.12598
 C335 C 0.35711 1.12812 0.36486
 C336 C 0.34283 1.11162 0.34110
 C337 C 0.32494 1.12816 0.32276
 C338 C 0.32109 1.16148 0.32797
 C339 C 0.33545 1.17781 0.35208
 C340 C 0.35335 1.16122 0.37037
 C341 C 0.37581 1.11116 0.38328
 C342 C 0.39156 1.09692 0.39851
 C343 C 0.41044 1.07989 0.41650
 C344 C 0.41927 1.05038 0.40412
 C345 C 0.43773 1.03389 0.42142
 C346 C 0.44763 1.04674 0.45138
 C347 C 0.43860 1.07641 0.46364
 C348 C 0.42013 1.09285 0.44629
 H349 H 0.34556 1.08598 0.33669
 H350 H 0.31397 1.11485 0.30469
 H351 H 0.33315 1.20353 0.35633
 H352 H 0.36437 1.17425 0.38863
 H353 H 0.41190 1.04014 0.38107
 H354 H 0.44426 1.01112 0.41130
 H355 H 0.44581 1.08696 0.48662
 H356 H 0.41344 1.11569 0.45608
 C357 C 1.13741 -0.12860 -0.14591
 C358 C 1.13250 -0.15897 -0.15985
 C359 C 1.15063 -0.17558 -0.17771
 C360 C 1.17428 -0.16216 -0.18196
 C361 C 1.17874 -0.13123 -0.16776
 C362 C 1.16052 -0.11474 -0.15000
 C363 C 1.11885 -0.11175 -0.12709
 C364 C 1.10341 -0.09760 -0.11114
 C365 C 1.08510 -0.08067 -0.09192
 C366 C 1.07589 -0.05110 -0.10348
 C367 C 1.05829 -0.03447 -0.08464
 C368 C 1.04968 -0.04724 -0.05393
 C369 C 1.05903 -0.07704 -0.04258
 C370 C 1.07662 -0.09362 -0.06147
 H371 H 1.11468 -0.17006 -0.15659
 H372 H 1.14615 -0.19958 -0.18672
 H373 H 1.19600 -0.11887 -0.17119
 H374 H 1.16445 -0.09104 -0.13954
 H375 H 1.08235 -0.04085 -0.12701
 H376 H 1.05148 -0.01160 -0.09409
 H377 H 1.05279 -0.08753 -0.01907
 H378 H 1.08365 -0.11649 -0.05228
 C379 C 0.64252 0.37183 0.36401
 C380 C 0.63728 0.36020 0.33163
 C381 C 0.65512 0.34355 0.31328
 C382 C 0.67849 0.33830 0.32711
 C383 C 0.68358 0.35005 0.35973
 C384 C 0.66570 0.36672 0.37803
 C385 C 0.62409 0.38898 0.38277
 C386 C 0.60851 0.40332 0.39825
 C387 C 0.58976 0.42042 0.41647
 C388 C 0.58098 0.45000 0.40430
 C389 C 0.56253 0.46645 0.42170
 C390 C 0.55262 0.45349 0.45155
 C391 C 0.56164 0.42378 0.46364
 C392 C 0.58009 0.40737 0.44619
 H393 H 0.61937 0.36392 0.32059
 H394 H 0.65053 0.33441 0.28846
 H395 H 0.70148 0.34672 0.37090
 H396 H 0.66997 0.37569 0.40306
 H397 H 0.58832 0.46029 0.38129
 H398 H 0.55601 0.48926 0.41172
 H399 H 0.55441 0.41315 0.48653
 H400 H 0.58674 0.38447 0.45581
 C401 C 0.85645 -0.12722 -0.13489
 C402 C 0.84822 -0.15734 -0.12365
 C403 C 0.83024 -0.17412 -0.14168
 C404 C 0.82007 -0.16113 -0.17163
 C405 C 0.82862 -0.13045 -0.18237
 C406 C 0.84657 -0.11379 -0.16418
 C407 C 0.87523 -0.11021 -0.11657
 C408 C 0.89106 -0.09598 -0.10141
 C409 C 0.91004 -0.07901 -0.08348
 C410 C 0.91977 -0.09202 -0.05378
 C411 C 0.93836 -0.07568 -0.03650
 C412 C 0.94749 -0.04606 -0.04875
 C413 C 0.93755 -0.03316 -0.07861
 C414 C 0.91895 -0.04956 -0.09584
 H415 H 0.85591 -0.16809 -0.10109
 H416 H 0.82530 -0.19792 -0.13263
 H417 H 0.82099 -0.11841 -0.20416
 H418 H 0.85268 -0.09030 -0.17296
 H419 H 0.91301 -0.11483 -0.04400
 H420 H 0.94561 -0.08626 -0.01360
 H421 H 0.94415 -0.01043 -0.08872
 H422 H 0.91156 -0.03929 -0.11883
 C423 C 0.36315 0.37111 0.35345
 C424 C 0.34243 0.38760 0.34191
 C425 C 0.32430 0.37104 0.32394
 C426 C 0.32668 0.33772 0.31726
 C427 C 0.34766 0.32140 0.32879
 C428 C 0.36576 0.33801 0.34678
 C429 C 0.38158 0.38807 0.37247
 C430 C 0.39692 0.40227 0.38858
 C431 C 0.41515 0.41921 0.40799
 C432 C 0.42356 0.40618 0.43843
 C433 C 0.44112 0.42271 0.45747
 C434 C 0.45051 0.45257 0.44627
 C435 C 0.44195 0.46545 0.41559
 C436 C 0.42438 0.44886 0.39661
 H437 H 0.34026 0.41324 0.34688
 H438 H 0.30852 0.38434 0.31505
 H439 H 0.34986 0.29568 0.32444
 H440 H 0.38169 0.32498 0.35570
 H441 H 0.41651 0.38325 0.44749
 H442 H 0.44732 0.41213 0.48095
 H443 H 0.44880 0.48836 0.40626
 H444 H 0.41798 0.45918 0.37309
 C445 C 0.14345 0.62811 -0.13488
 C446 C 0.15349 0.61434 -0.16393
 C447 C 0.17135 0.63093 -0.18227
 C448 C 0.17967 0.66188 -0.17195
 C449 C 0.16936 0.67521 -0.14223
 C450 C 0.15146 0.65850 -0.12403
 C451 C 0.12474 0.61115 -0.11644
 C452 C 0.10898 0.59690 -0.10122
 C453 C 0.09006 0.57984 -0.08330
 C454 C 0.08112 0.55044 -0.09585
 C455 C 0.06261 0.53393 -0.07866
 C456 C 0.05277 0.54666 -0.04863
 C457 C 0.06191 0.57622 -0.03618
 C458 C 0.08044 0.59268 -0.05343
 H459 H 0.14756 0.59064 -0.17239
 H460 H 0.17911 0.61864 -0.20385
 H461 H 0.17412 0.69921 -0.13351
 H462 H 0.14364 0.66951 -0.10167
 H463 H 0.08844 0.54030 -0.11897
 H464 H 0.05598 0.51125 -0.08892
 H465 H 0.05475 0.58667 -0.01315
 H466 H 0.08722 0.61544 -0.04351
 C467 C 0.63831 1.12870 0.35641
 C468 C 0.63579 1.13370 0.32166
 C469 C 0.65394 1.15026 0.30376
 C470 C 0.67489 1.16200 0.32043
 C471 C 0.67723 1.15684 0.35538
 C472 C 0.65906 1.14031 0.37322
 C473 C 0.61964 1.11173 0.37490
 C474 C 0.60410 1.09754 0.39061
 C475 C 0.58564 1.08065 0.40958
 C476 C 0.57629 1.05120 0.39775
 C477 C 0.55852 1.03463 0.41635
 C478 C 0.54988 1.04734 0.44709
 C479 C 0.55937 1.07701 0.45872
 C480 C 0.57714 1.09352 0.44007
 H481 H 0.61983 1.12474 0.30838
 H482 H 0.65175 1.15352 0.27682
 H483 H 0.69295 1.16598 0.36902
 H484 H 0.66116 1.13667 0.40014
 H485 H 0.58277 1.04101 0.37418
 H486 H 0.55160 1.01187 0.40668
 H487 H 0.55312 1.08746 0.48226
 H488 H 0.58427 1.11630 0.44947
 C489 C 0.13828 0.37076 0.14265
 C490 C 0.15894 0.35916 0.12570
 C491 C 0.17714 0.34258 0.14340
 C492 C 0.17491 0.33736 0.17835
 C493 C 0.15404 0.34909 0.19517
 C494 C 0.13586 0.36570 0.17741
 C495 C 0.11959 0.38783 0.12431
 C496 C 0.10404 0.40211 0.10873
 C497 C 0.08559 0.41912 0.08989
 C498 C 0.07632 0.44852 0.10190
 C499 C 0.05858 0.46522 0.08341
 C500 C 0.04989 0.45270 0.05260
 C501 C 0.05929 0.42306 0.04080
 C502 C 0.07702 0.40642 0.05934
 H503 H 0.16095 0.36285 0.09877
 H504 H 0.19280 0.33344 0.12966
 H505 H 0.15194 0.34578 0.22212
 H506 H 0.11997 0.37466 0.19079
 H507 H 0.08285 0.45858 0.12552
 H508 H 0.05173 0.48796 0.09321
 H509 H 0.05299 0.41276 0.01720
 H510 H 0.08410 0.38369 0.04979
 C511 C 0.64178 0.87161 0.63669
 C512 C 0.66485 0.86602 0.62256
 C513 C 0.68269 0.84934 0.64092
 C514 C 0.67766 0.83809 0.67370
 C515 C 0.65439 0.84382 0.68764
 C516 C 0.63659 0.86046 0.66924
 C517 C 0.62341 0.88883 0.61790
 C518 C 0.60790 0.90326 0.60240
 C519 C 0.58925 0.92048 0.58415
 C520 C 0.58045 0.95001 0.59648
 C521 C 0.56211 0.96661 0.57904
 C522 C 0.55232 0.95384 0.54898
 C523 C 0.56136 0.92416 0.53673
 C524 C 0.57970 0.90762 0.55423
 H525 H 0.66908 0.87462 0.59741
 H526 H 0.70051 0.84564 0.62966
 H527 H 0.64984 0.83505 0.71261
 H528 H 0.61876 0.86457 0.68038
 H529 H 0.58770 0.96017 0.61964
 H530 H 0.55557 0.98938 0.58914
 H531 H 0.55422 0.91367 0.51368
 H532 H 0.58637 0.88475 0.54448
 C533 C 0.86265 0.12884 0.14422
 C534 C 0.84176 0.13990 0.12742
 C535 C 0.82355 0.15643 0.14517
 C536 C 0.82599 0.16214 0.18003
 C537 C 0.84709 0.15097 0.19670
 C538 C 0.86528 0.13441 0.17889
 C539 C 0.88134 0.11184 0.12581
 C540 C 0.89688 0.09763 0.11011
 C541 C 0.91529 0.08071 0.09107
 C542 C 0.92379 0.09358 0.06060
 C543 C 0.94145 0.07701 0.04183
 C544 C 0.95085 0.04729 0.05331
 C545 C 0.94223 0.03459 0.08405
 C546 C 0.92456 0.05122 0.10277
 H547 H 0.83958 0.13582 0.10057
 H548 H 0.80770 0.16513 0.13154
 H549 H 0.84937 0.15468 0.22357
 H550 H 0.88136 0.12589 0.19215
 H551 H 0.91671 0.11638 0.05129
 H552 H 0.94769 0.08745 0.01829
 H553 H 0.94908 0.01178 0.09360
 H554 H 0.91809 0.04102 0.12632
 C555 C 0.35766 0.62769 0.63648
 C556 C 0.36293 0.63943 0.66882
 C557 C 0.34512 0.65621 0.68709
 C558 C 0.32176 0.66149 0.67324
 C559 C 0.31665 0.64963 0.64068
 C560 C 0.33449 0.63283 0.62245
 C561 C 0.37606 0.61043 0.61777
 C562 C 0.39161 0.59600 0.60231
 C563 C 0.41031 0.57883 0.58408
 C564 C 0.41906 0.54924 0.59625
 C565 C 0.43747 0.53273 0.57883
 C566 C 0.44737 0.54564 0.54895
 C567 C 0.43837 0.57537 0.53685
 C568 C 0.41997 0.59183 0.55433
 H569 H 0.38083 0.63568 0.67987
 H570 H 0.34974 0.66543 0.71188
 H571 H 0.29876 0.65299 0.62950
 H572 H 0.33020 0.62378 0.59746
 H573 H 0.41173 0.53898 0.61928
 H574 H 0.44398 0.50992 0.58882
 H575 H 0.44559 0.58597 0.51394
 H576 H 0.41333 0.61474 0.54470
   
