data_POSCAR
  _audit_creation_date              2014-09-24
  _audit_creation_method            'ToBaCCo'
  _symmetry_space_group_name_H-M    'P1'
  _symmetry_Int_Tables_number       1
  _symmetry_cell_setting            triclinic
  loop_
  _symmetry_equiv_pos_as_xyz
 x,y,z
_cell_length_a 30.9649
_cell_length_b 30.4350
_cell_length_c 30.4191
_cell_angle_alpha 100.235200
_cell_angle_beta 87.972500
_cell_angle_gamma 99.290100
loop_
  _atom_site_label
  _atom_site_type_symbol
  _atom_site_fract_x
  _atom_site_fract_y
  _atom_site_fract_z
O1 O 0.56472 0.48972 0.03667
 O2 O 0.44844 0.47343 0.00726
 O3 O 0.49794 0.42581 0.03822
 O4 O 0.51392 0.53644 0.00381
 O5 O 0.53074 0.50605 -0.06477
 O6 O 0.51429 0.39476 -0.03032
 O7 O 0.46389 0.44263 -0.06148
 O8 O 0.58088 0.45814 -0.03166
 Cu9 Cu 0.50505 0.48463 0.02844
 Cu10 Cu 0.52421 0.44734 -0.05398
 C11 C 0.59263 0.47625 0.00792
 C12 C 0.43603 0.45543 -0.03213
 C13 C 0.50310 0.39125 0.00961
 C14 C 0.52385 0.54016 -0.03635
 O15 O -0.01927 0.61026 0.53716
 O16 O -0.02971 0.48668 0.53141
 O17 O -0.00602 0.55627 0.59155
 O18 O -0.04132 0.53960 0.47492
 O19 O 0.02731 0.53952 0.45276
 O20 O 0.06306 0.56117 0.56963
 O21 O 0.03938 0.48903 0.51008
 O22 O 0.04842 0.61216 0.51185
 Cu23 Cu -0.03097 0.54821 0.53589
 Cu24 Cu 0.05147 0.55097 0.50896
 C25 C 0.01606 0.63238 0.52470
 C26 C 0.00323 0.46686 0.52065
 C27 C 0.03436 0.56064 0.60047
 C28 C -0.01293 0.53616 0.44382
 O29 O 0.50780 0.05078 0.57061
 O30 O 0.51252 0.06278 0.45218
 O31 O 0.45578 0.07492 0.51702
 O32 O 0.56447 0.04139 0.50645
 O33 O 0.53495 -0.03023 0.48768
 O34 O 0.42534 0.00372 0.49689
 O35 O 0.48222 -0.00859 0.43293
 O36 O 0.47648 -0.02018 0.55201
 Cu37 Cu 0.51297 0.06461 0.51351
 Cu38 Cu 0.47670 -0.02105 0.49065
 C39 C 0.49136 0.01325 0.58180
 C40 C 0.49863 0.02913 0.42226
 C41 C 0.42197 0.04525 0.50849
 C42 C 0.56856 0.00010 0.49511
 C43 C 0.45769 -0.13834 -0.10765
 C44 C 0.45350 -0.09548 -0.11671
 C45 C 0.45495 -0.05891 -0.08081
 C46 C 0.46374 -0.06391 -0.03683
 C47 C 0.46920 -0.10681 -0.02941
 C48 C 0.46432 -0.14428 -0.06391
 C49 C 0.46869 -0.02466 0.00112
 C50 C 0.46087 -0.03095 0.04590
 C51 C 0.46865 0.00556 0.08171
 C52 C 0.48190 0.04917 0.07215
 C53 C 0.48885 0.05639 0.02804
 C54 C 0.48304 0.01936 -0.00704
 H55 H 0.45592 -0.16716 -0.13449
 H56 H 0.44884 -0.02673 -0.08743
 H57 H 0.47804 -0.11159 0.00329
 H58 H 0.44936 -0.06431 0.05325
 H59 H 0.48688 0.07782 0.09920
 H60 H 0.48974 0.02522 -0.04079
 C61 C -0.07213 0.45518 1.08665
 C62 C -0.08279 0.44999 1.04139
 C63 C -0.04888 0.45339 1.00967
 C64 C -0.00467 0.46540 1.02283
 C65 C 0.00486 0.47254 1.06865
 C66 C -0.02837 0.46615 1.10065
 C67 C 0.03123 0.47155 0.98903
 C68 C 0.07417 0.46513 0.99694
 C69 C 0.10801 0.47217 0.96555
 C70 C 0.09769 0.48190 0.92400
 C71 C 0.05478 0.48693 0.91482
 C72 C 0.02269 0.48410 0.94837
 H73 H -0.09811 0.45011 1.11088
 H74 H -0.05739 0.44752 0.97474
 H75 H 0.03815 0.48420 1.07986
 H76 H 0.08158 0.45431 1.02743
 H77 H 0.12303 0.48578 0.89894
 H78 H -0.00914 0.49209 0.94248
 C79 C -0.09429 -0.03942 0.51937
 C80 C -0.05247 -0.04882 0.52677
 C81 C -0.01581 -0.01624 0.52119
 C82 C -0.02014 0.02387 0.50518
 C83 C -0.06257 0.03113 0.49661
 C84 C -0.09976 0.00083 0.50540
 C85 C 0.01926 0.05765 0.49694
 C86 C 0.01623 0.10358 0.49603
 C87 C 0.05320 0.13434 0.48677
 C88 C 0.09404 0.11950 0.48149
 C89 C 0.09803 0.07458 0.48275
 C90 C 0.06054 0.04382 0.48915
 H91 H -0.12286 -0.06347 0.52478
 H92 H 0.01584 -0.02230 0.53023
 H93 H -0.06725 0.06018 0.48254
 H94 H -0.01472 0.11570 0.50194
 H95 H 0.12307 0.14303 0.47600
 H96 H 0.06414 0.00899 0.48833
 C97 C -0.33193 0.45567 0.99551
 C98 C -0.28855 0.45880 1.00951
 C99 C -0.27391 0.48840 1.04930
 C100 C -0.30280 0.51410 1.07446
 C101 C -0.34596 0.51031 1.06066
 C102 C -0.36102 0.48115 1.02116
 C103 C -0.23072 0.49172 1.06347
 C104 C -0.20193 0.46560 1.03860
 C105 C -0.21652 0.43571 0.99901
 C106 C -0.25973 0.43256 0.98465
 C107 C -0.18752 0.40965 0.97437
 C108 C -0.14434 0.41357 0.98848
 C109 C -0.12933 0.44354 1.02755
 C110 C -0.15859 0.46925 1.05256
 H111 H -0.34325 0.43275 0.96519
 H112 H -0.29212 0.53690 1.10503
 H113 H -0.36763 0.53033 1.08100
 H114 H -0.21954 0.51457 1.09391
 H115 H -0.27090 0.40970 0.95422
 H116 H -0.19816 0.38642 0.94404
 H117 H -0.12266 0.39304 0.96883
 H118 H -0.14729 0.49303 1.08236
 C119 C 0.36079 0.46527 0.98926
 C120 C 0.31651 0.46153 0.97845
 C121 C 0.30206 0.44213 0.93473
 C122 C 0.33227 0.42657 0.90262
 C123 C 0.37646 0.43062 0.91353
 C124 C 0.39143 0.45022 0.95692
 C125 C 0.25779 0.43903 0.92378
 C126 C 0.22793 0.45554 0.95596
 C127 C 0.24257 0.47474 0.99972
 C128 C 0.28661 0.47742 1.01072
 C129 C 0.21302 0.49155 1.03177
 C130 C 0.16944 0.49002 1.02056
 C131 C 0.15422 0.47128 0.97716
 C132 C 0.18380 0.45371 0.94503
 H133 H 0.37133 0.48046 1.02294
 H134 H 0.32181 0.41155 0.86892
 H135 H 0.39889 0.41856 0.88776
 H136 H 0.24673 0.42430 0.89016
 H137 H 0.29772 0.49235 1.04429
 H138 H 0.22376 0.50655 1.06540
 H139 H 0.14783 0.50462 1.04578
 H140 H 0.17258 0.43867 0.91158
 C141 C -0.01466 -0.29694 0.54272
 C142 C -0.01297 -0.25104 0.53985
 C143 C 0.02213 -0.22883 0.51701
 C144 C 0.05612 -0.25224 0.49954
 C145 C 0.05484 -0.29755 0.50351
 C146 C 0.01895 -0.32095 0.52410
 C147 C 0.02241 -0.18382 0.51157
 C148 C -0.01166 -0.16046 0.52936
 C149 C -0.04549 -0.18201 0.55424
 C150 C -0.04612 -0.22716 0.55906
 C151 C -0.07864 -0.15827 0.57332
 C152 C -0.07947 -0.11431 0.56629
 C153 C -0.04762 -0.09318 0.53931
 C154 C -0.01303 -0.11629 0.52189
 H155 H -0.04229 -0.31386 0.55942
 H156 H 0.08356 -0.23563 0.48237
 H157 H 0.08143 -0.31461 0.48900
 H158 H 0.04883 -0.16721 0.49307
 H159 H -0.07270 -0.24388 0.57729
 H160 H -0.10436 -0.17395 0.59323
 H161 H -0.10564 -0.09709 0.58157
 H162 H 0.01182 -0.10077 0.50100
 C163 C 0.02728 0.39133 0.49484
 C164 C 0.02495 0.34519 0.49710
 C165 C -0.00450 0.32540 0.52733
 C166 C -0.03224 0.35180 0.55363
 C167 C -0.03039 0.39741 0.55050
 C168 C -0.00025 0.41781 0.52161
 C169 C -0.00556 0.27974 0.53095
 C170 C 0.02199 0.25332 0.50414
 C171 C 0.05020 0.27287 0.47278
 C172 C 0.05174 0.31860 0.46969
 C173 C 0.07672 0.24644 0.44506
 C174 C 0.07634 0.20142 0.44900
 C175 C 0.05004 0.18169 0.48132
 C176 C 0.02220 0.20787 0.50837
 H177 H 0.05035 0.40659 0.47213
 H178 H -0.05523 0.33724 0.57681
 H179 H -0.05184 0.41709 0.57159
 H180 H -0.02767 0.26485 0.55468
 H181 H 0.07395 0.33353 0.44604
 H182 H 0.09799 0.26065 0.42035
 H183 H 0.09698 0.18199 0.42656
 H184 H 0.00165 0.19343 0.53342
 C185 C 0.46867 -0.03097 -0.35879
 C186 C 0.46784 -0.03519 -0.31343
 C187 C 0.48932 0.00048 -0.28157
 C188 C 0.51016 0.04018 -0.29533
 C189 C 0.51018 0.04451 -0.34027
 C190 C 0.48996 0.00890 -0.37279
 C191 C 0.48982 -0.00412 -0.23649
 C192 C 0.46861 -0.04374 -0.22264
 C193 C 0.44600 -0.07889 -0.25421
 C194 C 0.44592 -0.07452 -0.29942
 C195 C 0.42413 -0.11803 -0.24005
 C196 C 0.42546 -0.12282 -0.19527
 C197 C 0.44904 -0.08876 -0.16368
 C198 C 0.47015 -0.04897 -0.17777
 H199 H 0.45248 -0.05870 -0.38303
 H200 H 0.52655 0.06795 -0.27131
 H201 H 0.52680 0.07572 -0.34952
 H202 H 0.50685 0.02308 -0.21224
 H203 H 0.42901 -0.10177 -0.32369
 H204 H 0.40619 -0.14512 -0.26367
 H205 H 0.40802 -0.15338 -0.18544
 H206 H 0.48892 -0.02256 -0.15414
 C207 C 0.47529 0.00464 0.34214
 C208 C 0.47930 0.00954 0.29696
 C209 C 0.51154 0.04354 0.28415
 C210 C 0.53847 0.07259 0.31662
 C211 C 0.53367 0.06809 0.36146
 C212 C 0.50237 0.03399 0.37466
 C213 C 0.51626 0.04821 0.23914
 C214 C 0.48849 0.02008 0.20675
 C215 C 0.45559 -0.01326 0.21947
 C216 C 0.45147 -0.01867 0.26446
 C217 C 0.42724 -0.04039 0.18692
 C218 C 0.43125 -0.03434 0.14230
 C219 C 0.46413 -0.00147 0.12915
 C220 C 0.49295 0.02521 0.16183
 H221 H 0.45079 -0.02154 0.35204
 H222 H 0.56320 0.09891 0.30736
 H223 H 0.55502 0.09095 0.38582
 H224 H 0.54124 0.07410 0.22940
 H225 H 0.42643 -0.04449 0.27421
 H226 H 0.40161 -0.06595 0.19606
 H227 H 0.40810 -0.05498 0.11828
 H228 H 0.51919 0.04998 0.15238
 C229 C 0.50156 -0.38416 -0.02463
 C230 C 0.49879 -0.34336 -0.03838
 C231 C 0.52061 -0.33297 -0.07772
 C232 C 0.54455 -0.36425 -0.10292
 C233 C 0.54630 -0.40559 -0.08943
 C234 C 0.52488 -0.41570 -0.05012
 C235 C 0.51771 -0.29177 -0.09125
 C236 C 0.49277 -0.26138 -0.06611
 C237 C 0.47044 -0.27256 -0.02719
 C238 C 0.47380 -0.31326 -0.01351
 C239 C 0.44513 -0.24277 -0.00230
 C240 C 0.44255 -0.20171 -0.01519
 C241 C 0.46540 -0.18951 -0.05306
 C242 C 0.49000 -0.21980 -0.07889
 H243 H 0.48428 -0.39197 0.00537
 H244 H 0.56139 -0.35703 -0.13328
 H245 H 0.56430 -0.42963 -0.10969
 H246 H 0.53464 -0.28348 -0.12125
 H247 H 0.45681 -0.32160 0.01648
 H248 H 0.42755 -0.25109 0.02734
 H249 H 0.42277 -0.17916 0.00471
 H250 H 0.50783 -0.21051 -0.10804
 C251 C 0.51598 0.31149 -0.00132
 C252 C 0.50848 0.26848 0.01041
 C253 C 0.47983 0.26017 0.04632
 C254 C 0.46019 0.29537 0.07068
 C255 C 0.46840 0.33833 0.05919
 C256 C 0.49585 0.34649 0.02282
 C257 C 0.47104 0.21678 0.05709
 C258 C 0.49092 0.18178 0.03274
 C259 C 0.52057 0.19038 -0.00230
 C260 C 0.52903 0.23368 -0.01338
 C261 C 0.54093 0.15538 -0.02593
 C262 C 0.53143 0.11201 -0.01546
 C263 C 0.50107 0.10286 0.01851
 C264 C 0.48118 0.13813 0.04264
 H265 H 0.53764 0.31778 -0.02909
 H266 H 0.43835 0.28962 0.09843
 H267 H 0.45257 0.36497 0.07819
 H268 H 0.44862 0.21022 0.08424
 H269 H 0.55134 0.24020 -0.04063
 H270 H 0.56406 0.16148 -0.05259
 H271 H 0.54786 0.08563 -0.03399
 H272 H 0.45722 0.13141 0.06844
 C273 C -0.35039 0.02176 0.50068
 C274 C -0.30796 0.01114 0.49655
 C275 C -0.30160 -0.03407 0.48166
 C276 C -0.33806 -0.06789 0.47115
 C277 C -0.38042 -0.05702 0.47561
 C278 C -0.38696 -0.01212 0.49046
 C279 C -0.25899 -0.04467 0.47804
 C280 C -0.22286 -0.01069 0.48990
 C281 C -0.22947 0.03448 0.50474
 C282 C -0.27188 0.04515 0.50759
 C283 C -0.19358 0.06822 0.51738
 C284 C -0.15153 0.05725 0.51656
 C285 C -0.14433 0.01242 0.50235
 C286 C -0.18028 -0.02129 0.48820
 H287 H -0.35486 0.05656 0.51219
 H288 H -0.33385 -0.10275 0.45971
 H289 H -0.40801 -0.08373 0.46737
 H290 H -0.25403 -0.07938 0.46679
 H291 H -0.27687 0.07982 0.51911
 H292 H -0.19814 0.10296 0.52900
 H293 H -0.12477 0.08381 0.52846
 H294 H -0.17531 -0.05586 0.47641
 C295 C 0.34219 0.03088 0.49048
 C296 C 0.30106 0.04491 0.49277
 C297 C 0.29592 0.08773 0.51756
 C298 C 0.33204 0.11595 0.53917
 C299 C 0.37298 0.10203 0.53614
 C300 C 0.37841 0.05942 0.51194
 C301 C 0.25486 0.10176 0.52022
 C302 C 0.21894 0.07379 0.49796
 C303 C 0.22412 0.03123 0.47266
 C304 C 0.26511 0.01696 0.47039
 C305 C 0.18813 0.00366 0.45009
 C306 C 0.14731 0.01796 0.45282
 C307 C 0.14168 0.05997 0.47836
 C308 C 0.17782 0.08773 0.50076
 H309 H 0.34615 -0.00189 0.47139
 H310 H 0.32869 0.14889 0.55822
 H311 H 0.40040 0.12457 0.55303
 H312 H 0.25091 0.13451 0.53944
 H313 H 0.26906 -0.01577 0.45115
 H314 H 0.19155 -0.02893 0.43033
 H315 H 0.12014 -0.00379 0.43472
 H316 H 0.17378 0.11989 0.52109
 C317 C 0.00110 0.51083 1.36283
 C318 C -0.01064 0.50475 1.31786
 C319 C -0.05027 0.51721 1.30639
 C320 C -0.07801 0.53444 1.34030
 C321 C -0.06634 0.53979 1.38514
 C322 C -0.02648 0.52856 1.39671
 C323 C -0.06140 0.51233 1.26128
 C324 C -0.03370 0.49450 1.22761
 C325 C 0.00535 0.48100 1.23927
 C326 C 0.01678 0.48648 1.28427
 C327 C 0.03243 0.46222 1.20569
 C328 C 0.02114 0.45705 1.16088
 C329 C -0.01712 0.47120 1.14863
 C330 C -0.04443 0.48994 1.18242
 H331 H 0.03171 0.50160 1.37147
 H332 H -0.10862 0.54395 1.33215
 H333 H -0.08806 0.55358 1.41073
 H334 H -0.09158 0.52231 1.25242
 H335 H 0.04698 0.47654 1.29314
 H336 H 0.06225 0.45129 1.21408
 H337 H 0.04230 0.44153 1.13578
 H338 H -0.07373 0.50158 1.17367
 C339 C 0.01812 0.54003 0.67511
 C340 C 0.03101 0.53615 0.71764
 C341 C 0.07338 0.55611 0.73320
 C342 C 0.10229 0.57933 0.70537
 C343 C 0.08960 0.58171 0.66221
 C344 C 0.04742 0.56206 0.64686
 C345 C 0.08630 0.55155 0.77578
 C346 C 0.05778 0.52607 0.80219
 C347 C 0.01578 0.50551 0.78586
 C348 C 0.00247 0.51124 0.74411
 C349 C -0.01221 0.47886 0.81122
 C350 C 0.00105 0.47257 0.85254
 C351 C 0.04224 0.49361 0.87001
 C352 C 0.07061 0.52031 0.84442
 H353 H -0.01421 0.52400 0.66319
 H354 H 0.13497 0.59469 0.71655
 H355 H 0.11275 0.59867 0.64077
 H356 H 0.11871 0.56697 0.78792
 H357 H -0.02983 0.49550 0.73180
 H358 H -0.04424 0.46242 0.79886
 H359 H -0.02102 0.45073 0.87074
 H360 H 0.10237 0.53689 0.85741
   
