data_POSCAR
  _audit_creation_date              2014-09-24
  _audit_creation_method            'ToBaCCo'
  _symmetry_space_group_name_H-M    'P1'
  _symmetry_Int_Tables_number       1
  _symmetry_cell_setting            triclinic
  loop_
  _symmetry_equiv_pos_as_xyz
 x,y,z
_cell_length_a 20.3388
_cell_length_b 20.5008
_cell_length_c 19.8687
_cell_angle_alpha 90.362100
_cell_angle_beta 91.593700
_cell_angle_gamma 90.860700
loop_
  _atom_site_label
  _atom_site_type_symbol
  _atom_site_fract_x
  _atom_site_fract_y
  _atom_site_fract_z
O1 O 0.56223 0.11429 0.01983
 O2 O 0.44405 -0.03428 -0.13279
 O3 O 0.63857 -0.04930 -0.03548
 O4 O 0.34677 0.07134 0.00794
 O5 O 0.56761 -0.05291 -0.12253
 O6 O 0.44272 0.12113 0.01841
 O7 O 0.42803 0.05530 -0.08065
 O8 O 0.63573 0.04189 0.04589
 C9 C 0.62119 0.09829 0.02518
 C10 C 0.42184 0.02254 -0.13324
 C11 C 0.62580 -0.04914 -0.09878
 C12 C 0.38052 0.12544 0.01948
 O13 O 0.44023 0.04619 0.13125
 O14 O 0.54852 -0.14893 -0.04479
 O15 O 0.56964 -0.04193 0.13255
 O16 O 0.36093 -0.04858 -0.04445
 O17 O 0.42816 -0.12816 -0.04051
 O18 O 0.56224 0.05937 0.13781
 O19 O 0.38606 -0.02652 0.07428
 O20 O 0.58169 -0.12769 0.05612
 Co21 Co 0.50141 0.07499 0.07077
 Co22 Co 0.49681 -0.08349 -0.07643
 Co23 Co 0.59826 -0.04103 0.04710
 Co24 Co 0.41181 0.01384 -0.00113
 O25 O 0.50516 -0.01481 0.00869
 C26 C 0.39610 0.00267 0.12840
 C27 C 0.57700 -0.16627 0.00829
 C28 C 0.57574 0.00781 0.16655
 C29 C 0.37041 -0.10876 -0.04493
 O30 O -0.13684 0.45164 -0.02200
 O31 O 0.04028 0.54522 0.12620
 O32 O -0.02892 0.38708 0.07691
 O33 O -0.07915 0.60843 0.04093
 O34 O 0.06031 0.43614 0.11309
 O35 O -0.13432 0.56253 -0.04159
 O36 O 0.03893 0.62969 0.06870
 O37 O -0.08073 0.36932 -0.03833
 C38 C -0.13351 0.39185 -0.02151
 C39 C 0.03483 0.60466 0.12438
 C40 C 0.01173 0.39939 0.12411
 C41 C -0.13306 0.59639 0.01183
 O42 O -0.04139 0.54204 -0.14514
 O43 O 0.13743 0.46229 0.00019
 O44 O 0.03266 0.39159 -0.09262
 O45 O 0.06767 0.61835 -0.05655
 O46 O 0.12724 0.57400 0.02187
 O47 O -0.05714 0.42974 -0.13491
 O48 O -0.05041 0.62409 -0.08533
 O49 O 0.08392 0.37722 0.01840
 Co50 Co -0.08454 0.49692 -0.07928
 Co51 Co 0.08308 0.50410 0.05852
 Co52 Co 0.00091 0.39385 -0.00898
 Co53 Co -0.00556 0.60818 -0.00808
 O54 O -0.00170 0.50081 -0.00934
 C55 C -0.03617 0.60180 -0.14045
 C56 C 0.13407 0.40242 -0.00326
 C57 C -0.00284 0.40238 -0.14290
 C58 C 0.12245 0.60998 -0.02905
 O59 O 0.01037 -0.12427 0.43996
 O60 O 0.13794 0.01816 0.54488
 O61 O 0.04251 0.03318 0.35695
 O62 O 0.02045 -0.05000 0.64431
 O63 O 0.11741 0.00861 0.42862
 O64 O 0.01504 -0.12936 0.56910
 O65 O 0.08734 0.05258 0.62876
 O66 O -0.03159 -0.05797 0.36657
 C67 C -0.00164 -0.10973 0.38019
 C68 C 0.13794 0.02887 0.60572
 C69 C 0.09918 0.01220 0.36916
 C70 C 0.02545 -0.10961 0.62829
 O71 O -0.10240 -0.07924 0.57246
 O72 O 0.05676 0.12662 0.42528
 O73 O -0.11994 0.01802 0.42848
 O74 O -0.02230 0.11355 0.59010
 O75 O 0.07163 0.13563 0.54728
 O76 O -0.11338 -0.08392 0.44717
 O77 O -0.08672 0.01460 0.62477
 O78 O -0.04517 0.10750 0.42780
 Co79 Co -0.04219 -0.09352 0.50602
 Co80 Co 0.08794 0.06697 0.48808
 Co81 Co -0.03484 0.02389 0.40380
 Co82 Co 0.00064 0.03069 0.60997
 O83 O 0.00280 0.00548 0.50267
 C84 C -0.11909 -0.03693 0.61502
 C85 C -0.00061 0.14519 0.41288
 C86 C -0.14728 -0.03598 0.43003
 C87 C 0.01964 0.15457 0.57416
 C88 C -0.29090 0.25739 0.00299
 C89 C -0.22534 0.23735 0.00236
 N90 N -0.21122 0.17321 0.00816
 C91 C -0.25979 0.12774 0.01457
 C92 C -0.32588 0.14697 0.01436
 N93 N -0.33985 0.21178 0.00874
 N94 N -0.30425 0.32214 -0.00161
 C95 C -0.25493 0.36757 -0.00743
 C96 C -0.18930 0.34716 -0.00935
 N97 N -0.17660 0.28235 -0.00423
 H98 H -0.24672 0.07712 0.02058
 H99 H -0.26687 0.41865 -0.01195
 C100 C 0.28185 0.73884 -0.05030
 C101 C 0.21697 0.75999 -0.05974
 N102 N 0.20489 0.82458 -0.06550
 C103 C 0.25472 0.86937 -0.06136
 C104 C 0.32008 0.84858 -0.05117
 N105 N 0.33175 0.78340 -0.04684
 N106 N 0.29353 0.67450 -0.04064
 C107 C 0.24297 0.63049 -0.03830
 C108 C 0.17798 0.65184 -0.04646
 N109 N 0.16668 0.71608 -0.05783
 H110 H 0.24309 0.92057 -0.06578
 H111 H 0.25319 0.57982 -0.02782
 C112 C 0.26029 0.24929 -0.03044
 C113 C 0.28298 0.30462 0.00595
 N114 N 0.33987 0.30127 0.04316
 C115 C 0.37402 0.24470 0.04672
 C116 C 0.34873 0.18856 0.01358
 N117 N 0.29300 0.19267 -0.02499
 N118 N 0.20332 0.25150 -0.06682
 C119 C 0.16614 0.30558 -0.06613
 C120 C 0.18580 0.35957 -0.02594
 N121 N 0.24463 0.35833 0.00847
 H122 H 0.41892 0.24303 0.07703
 H123 H 0.11859 0.30374 -0.09164
 C124 C -0.29289 0.71699 0.05403
 C125 C -0.29570 0.67450 -0.00164
 N126 N -0.34556 0.67961 -0.04810
 C127 C -0.39142 0.72689 -0.04282
 C128 C -0.38658 0.77206 0.01076
 N129 N -0.33796 0.76492 0.05867
 N130 N -0.24157 0.71370 0.09901
 C131 C -0.19169 0.67137 0.08968
 C132 C -0.19243 0.63124 0.03193
 N133 N -0.24536 0.63304 -0.01163
 H134 H -0.42898 0.73142 -0.08212
 H135 H -0.15032 0.67150 0.12518
 C136 C 0.01829 -0.24437 0.22189
 C137 C 0.02494 -0.26516 0.28877
 N138 N 0.03365 -0.32971 0.30156
 C139 C 0.03618 -0.37418 0.25025
 C140 C 0.02986 -0.35277 0.18337
 N141 N 0.02112 -0.28833 0.17140
 N142 N 0.00817 -0.18071 0.20811
 C143 C 0.00382 -0.13635 0.25845
 C144 C 0.01032 -0.15639 0.32577
 N145 N 0.02088 -0.22064 0.33951
 H146 H 0.04362 -0.42518 0.26145
 H147 H -0.00625 -0.08617 0.24590
 C148 C -0.01721 0.31685 0.69252
 C149 C 0.04795 0.29671 0.68448
 N150 N 0.09599 0.31986 0.72730
 C151 C 0.08142 0.35947 0.77976
 C152 C 0.01548 0.37475 0.79165
 N153 N -0.03211 0.35472 0.74626
 N154 N -0.06556 0.29229 0.65094
 C155 C -0.05242 0.24589 0.60427
 C156 C 0.01156 0.22107 0.60041
 N157 N 0.06071 0.24864 0.63941
 H158 H 0.12060 0.37628 0.81380
 H159 H -0.09267 0.22429 0.57459
 C160 C -0.03328 0.28616 0.26248
 C161 C 0.02599 0.28612 0.30079
 N162 N 0.07561 0.32713 0.28445
 C163 C 0.06961 0.36691 0.23049
 C164 C 0.01213 0.36418 0.18892
 N165 N -0.03861 0.32419 0.20657
 N166 N -0.08327 0.24580 0.28014
 C167 C -0.07587 0.20406 0.33271
 C168 C -0.01474 0.20047 0.36780
 N169 N 0.03442 0.24255 0.35137
 H170 H 0.11098 0.39811 0.21847
 H171 H -0.11614 0.17127 0.34428
 C172 C 0.01215 -0.24968 0.78001
 C173 C 0.01844 -0.26954 0.71306
 N174 N 0.00989 -0.33377 0.69662
 C175 C -0.00604 -0.37883 0.74407
 C176 C -0.01647 -0.35811 0.81062
 N177 N -0.00602 -0.29388 0.82645
 N178 N 0.02107 -0.18595 0.79715
 C179 C 0.03333 -0.14030 0.74969
 C180 C 0.03454 -0.15888 0.68147
 N181 N 0.02830 -0.22362 0.66507
 H182 H -0.01282 -0.42949 0.72936
 H183 H 0.03730 -0.08951 0.76467
 C184 C 0.31230 0.00690 0.72347
 C185 C 0.27228 0.06122 0.73251
 N186 N 0.28967 0.10658 0.78007
 C187 C 0.34363 0.09866 0.82114
 C188 C 0.38074 0.04114 0.81638
 N189 N 0.36484 -0.00221 0.76585
 N190 N 0.29563 -0.03801 0.67522
 C191 C 0.24020 -0.03149 0.63610
 C192 C 0.19842 0.02126 0.64703
 N193 N 0.21586 0.06685 0.69474
 H194 H 0.35446 0.13478 0.86002
 H195 H 0.22798 -0.06795 0.59793
 C196 C -0.31755 -0.04943 0.30696
 C197 C -0.29842 0.00999 0.33751
 N198 N -0.32767 0.06596 0.31761
 C199 C -0.37340 0.06572 0.26645
 C200 C -0.38916 0.00707 0.23226
 N201 N -0.36185 -0.04947 0.25453
 N202 N -0.28669 -0.10507 0.32566
 C203 C -0.23560 -0.10354 0.37147
 C204 C -0.21303 -0.04329 0.39804
 N205 N -0.24626 0.01175 0.38140
 H206 H -0.39406 0.11148 0.24998
 H207 H -0.20989 -0.14812 0.38300
 C208 C 0.23861 -0.01090 0.21642
 C209 C 0.25885 -0.00342 0.28405
 N210 N 0.32415 0.00208 0.30017
 C211 C 0.37018 0.00129 0.25157
 C212 C 0.35009 -0.00638 0.18373
 N213 N 0.28454 -0.01264 0.16808
 N214 N 0.17333 -0.01200 0.19977
 C215 C 0.12720 -0.00570 0.24769
 C216 C 0.14706 0.00109 0.31571
 N217 N 0.21276 0.00180 0.33204
 H218 H 0.42171 0.00772 0.26553
 H219 H 0.07573 -0.00492 0.23270
 C220 C -0.27703 -0.06214 0.74620
 C221 C -0.21854 -0.02989 0.76662
 N222 N -0.21126 -0.00620 0.83028
 C223 C -0.26026 -0.01285 0.87478
 C224 C -0.31984 -0.04332 0.85433
 N225 N -0.32683 -0.06746 0.79025
 N226 N -0.28273 -0.08773 0.68283
 C227 C -0.23255 -0.08200 0.63888
 C228 C -0.17487 -0.04782 0.65896
 N229 N -0.16960 -0.02292 0.72252
 H230 H -0.25311 0.00636 0.92525
 H231 H -0.23813 -0.10251 0.58868
   
