data_POSCAR
  _audit_creation_date              2014-09-24
  _audit_creation_method            'ToBaCCo'
  _symmetry_space_group_name_H-M    'P1'
  _symmetry_Int_Tables_number       1
  _symmetry_cell_setting            triclinic
  loop_
  _symmetry_equiv_pos_as_xyz
 x,y,z
_cell_length_a 50.4227
_cell_length_b 50.4247
_cell_length_c 47.4631
_cell_angle_alpha 89.959200
_cell_angle_beta 89.968800
_cell_angle_gamma 89.283800
loop_
  _atom_site_label
  _atom_site_type_symbol
  _atom_site_fract_x
  _atom_site_fract_y
  _atom_site_fract_z
O1 O 0.02948 0.25680 -0.02034
 O2 O -0.02174 0.25653 0.03538
 O3 O 0.02999 0.25313 0.03434
 O4 O -0.02179 0.26154 -0.01926
 O5 O -0.02491 0.21804 -0.02324
 O6 O 0.02727 0.20960 0.03069
 O7 O -0.02444 0.21302 0.03149
 O8 O 0.02643 0.21327 -0.02393
 Cu9 Cu 0.00426 0.26136 0.00801
 Cu10 Cu 0.00075 0.20911 0.00345
 C11 C 0.03655 0.23498 -0.03167
 C12 C -0.03187 0.23463 0.04285
 C13 C 0.03764 0.23003 0.04152
 C14 C -0.03204 0.24132 -0.03054
 O15 O 0.47633 0.78433 0.52542
 O16 O 0.52689 0.78513 0.47015
 O17 O 0.47518 0.78337 0.47054
 O18 O 0.52787 0.78274 0.52502
 O19 O 0.52811 0.73893 0.52409
 O20 O 0.47623 0.73956 0.47021
 O21 O 0.52797 0.74133 0.46933
 O22 O 0.47660 0.74051 0.52523
 Cu23 Cu 0.50150 0.78827 0.49779
 Cu24 Cu 0.50225 0.73570 0.49709
 C25 C 0.46792 0.76250 0.53490
 C26 C 0.53619 0.76357 0.46039
 C27 C 0.46678 0.76136 0.46120
 C28 C 0.53681 0.76052 0.53383
 O29 O 1.02453 0.72724 0.02378
 O30 O 0.97465 0.73541 -0.03237
 O31 O 1.02650 0.73253 -0.03087
 O32 O 0.97330 0.73082 0.02233
 O33 O 0.97576 0.77430 0.02710
 O34 O 1.02741 0.77617 -0.02757
 O35 O 0.97583 0.77890 -0.02708
 O36 O 1.02754 0.77075 0.02723
 Cu37 Cu 0.99959 0.72713 -0.00483
 Cu38 Cu 1.00197 0.77939 0.00037
 C39 C 1.03458 0.74758 0.03506
 C40 C 0.96643 0.75853 -0.03894
 C41 C 1.03589 0.75470 -0.03845
 C42 C 0.96555 0.75231 0.03382
 O43 O 0.52602 0.20891 0.52687
 O44 O 0.47742 0.22006 0.47027
 O45 O 0.52878 0.22108 0.47383
 O46 O 0.47441 0.20835 0.52380
 O47 O 0.47189 0.25116 0.53342
 O48 O 0.52757 0.26355 0.48520
 O49 O 0.47589 0.26279 0.48046
 O50 O 0.52346 0.25133 0.53826
 Cu51 Cu 0.50179 0.21031 0.49764
 Cu52 Cu 0.49954 0.26150 0.51041
 C53 C 0.53304 0.22819 0.54218
 C54 C 0.46845 0.24330 0.46564
 C55 C 0.53759 0.24446 0.47123
 C56 C 0.46370 0.22767 0.53686
 O57 O 0.71522 -0.02923 0.04631
 O58 O 0.72272 0.02377 -0.00628
 O59 O 0.71517 -0.02680 -0.00863
 O60 O 0.72355 0.02188 0.04823
 O61 O 0.76669 0.01367 0.04862
 O62 O 0.75856 -0.03330 -0.00994
 O63 O 0.76614 0.01757 -0.00593
 O64 O 0.75839 -0.03707 0.04511
 Cu65 Cu 0.71480 -0.00197 0.02010
 Cu66 Cu 0.76679 -0.01062 0.01942
 C67 C 0.73545 -0.04225 0.05459
 C68 C 0.74570 0.02988 -0.01494
 C69 C 0.73549 -0.03794 -0.01934
 C70 C 0.74656 0.02617 0.05798
 O71 O 0.21625 0.52891 0.45692
 O72 O 0.22703 0.47935 0.51276
 O73 O 0.22485 0.53079 0.51119
 O74 O 0.21906 0.47742 0.45855
 O75 O 0.26221 0.47895 0.45084
 O76 O 0.26805 0.53209 0.50365
 O77 O 0.27022 0.48042 0.50525
 O78 O 0.25950 0.53080 0.44988
 Cu79 Cu 0.21747 0.50397 0.48559
 Cu80 Cu 0.26934 0.50562 0.47660
 C81 C 0.23603 0.53847 0.44408
 C82 C 0.25041 0.47148 0.51859
 C83 C 0.24748 0.54047 0.51640
 C84 C 0.23964 0.46915 0.44570
 O85 O 0.26538 1.03297 0.00345
 O86 O 0.26315 0.97801 -0.04813
 O87 O 0.25932 1.02995 -0.05082
 O88 O 0.27047 0.98178 0.00610
 O89 O 0.22721 0.97887 0.01255
 O90 O 0.21604 1.02694 -0.04501
 O91 O 0.21989 0.97538 -0.04170
 O92 O 0.22212 1.02982 0.00958
 Cu93 Cu 0.26891 1.00594 -0.02314
 Cu94 Cu 0.21697 1.00246 -0.01566
 C95 C 0.24406 1.04050 0.01556
 C96 C 0.24104 0.96725 -0.05349
 C97 C 0.23586 1.03688 -0.05752
 C98 C 0.25081 0.97240 0.01928
 O99 O 0.76364 0.51520 0.54545
 O100 O 0.75294 0.46495 0.49096
 O101 O 0.75993 0.51579 0.49060
 O102 O 0.75545 0.46437 0.54577
 O103 O 0.71237 0.47216 0.54914
 O104 O 0.71645 0.52159 0.49246
 O105 O 0.70959 0.47097 0.49422
 O106 O 0.72053 0.52340 0.54713
 Cu107 Cu 0.76234 0.48939 0.51800
 Cu108 Cu 0.71038 0.49773 0.52120
 C109 C 0.74401 0.52810 0.55531
 C110 C 0.72957 0.45944 0.48317
 C111 C 0.73879 0.52705 0.48180
 C112 C 0.73307 0.45961 0.55689
 C113 C 0.26357 0.26035 0.23188
 C114 C 0.28238 0.24074 0.23043
 C115 C 0.28294 0.22185 0.20645
 C116 C 0.30315 0.23724 0.25244
 C117 C 0.26499 0.28223 0.25282
 C118 C 0.24029 0.26048 0.21272
 C119 C 0.27991 0.19461 0.21125
 C120 C 0.27991 0.17684 0.18864
 C121 C 0.28343 0.18603 0.16092
 C122 C 0.28728 0.21319 0.15628
 C123 C 0.28678 0.23101 0.17883
 C124 C 0.29649 0.23732 0.28120
 C125 C 0.31619 0.23458 0.30170
 C126 C 0.34286 0.23106 0.29379
 C127 C 0.34937 0.22978 0.26510
 C128 C 0.32973 0.23301 0.24459
 C129 C 0.28789 0.29760 0.25537
 C130 C 0.28902 0.31798 0.27529
 C131 C 0.26720 0.32366 0.29280
 C132 C 0.24422 0.30826 0.29009
 C133 C 0.24311 0.28792 0.27015
 C134 C 0.23421 0.28304 0.19660
 C135 C 0.21214 0.28333 0.17881
 C136 C 0.19574 0.26110 0.17683
 C137 C 0.20156 0.23869 0.19351
 C138 C 0.22361 0.23844 0.21131
 H139 H 0.27719 0.18720 0.23246
 H140 H 0.27756 0.15591 0.19292
 H141 H 0.29027 0.22066 0.13513
 H142 H 0.28949 0.25195 0.17482
 H143 H 0.27602 0.23946 0.28781
 H144 H 0.31046 0.23471 0.32369
 H145 H 0.33532 0.23250 0.22256
 H146 H 0.30489 0.29380 0.24194
 H147 H 0.30698 0.32943 0.27694
 H148 H 0.22719 0.31136 0.30355
 H149 H 0.22529 0.27624 0.26859
 H150 H 0.24667 0.30036 0.19765
 H151 H 0.20794 0.30095 0.16643
 H152 H 0.18895 0.22152 0.19344
 H153 H 0.22752 0.22114 0.22426
 H154 H 0.36977 0.22673 0.25856
 C155 C 0.77353 0.72018 0.25853
 C156 C 0.75437 0.73951 0.25834
 C157 C 0.75562 0.76266 0.23894
 C158 C 0.73133 0.73821 0.27785
 C159 C 0.77530 0.70099 0.28217
 C160 C 0.79387 0.71770 0.23588
 C161 C 0.77877 0.77774 0.23689
 C162 C 0.78018 0.79882 0.21785
 C163 C 0.75835 0.80562 0.20085
 C164 C 0.73497 0.79079 0.20331
 C165 C 0.73361 0.76964 0.22232
 C166 C 0.72510 0.75967 0.29552
 C167 C 0.70384 0.75817 0.31438
 C168 C 0.68821 0.73522 0.31561
 C169 C 0.69440 0.71390 0.29770
 C170 C 0.71558 0.71546 0.27883
 C171 C 0.77257 0.67376 0.27721
 C172 C 0.77392 0.65576 0.29960
 C173 C 0.77855 0.66477 0.32719
 C174 C 0.78213 0.69193 0.33192
 C175 C 0.78025 0.70996 0.30963
 C176 C 0.78672 0.71949 0.20730
 C177 C 0.80605 0.71790 0.18627
 C178 C 0.83281 0.71373 0.19341
 C179 C 0.83981 0.71061 0.22180
 C180 C 0.82056 0.71279 0.24287
 H181 H 0.79586 0.77301 0.24986
 H182 H 0.79842 0.80987 0.21640
 H183 H 0.71790 0.79490 0.19018
 H184 H 0.71557 0.75826 0.22356
 H185 H 0.73706 0.77736 0.29512
 H186 H 0.70021 0.77477 0.32831
 H187 H 0.71976 0.69884 0.26501
 H188 H 0.76904 0.66653 0.25608
 H189 H 0.77170 0.63483 0.29528
 H190 H 0.78594 0.69924 0.35297
 H191 H 0.78277 0.73091 0.31371
 H192 H 0.76616 0.72219 0.20125
 H193 H 0.80001 0.71953 0.16444
 H194 H 0.86031 0.70710 0.22770
 H195 H 0.82659 0.71099 0.26469
 H196 H 0.68274 0.69601 0.29822
 C197 C 0.74000 0.25106 0.25085
 C198 C 0.75874 0.27030 0.25141
 C199 C 0.78093 0.27055 0.23074
 C200 C 0.75860 0.29153 0.27306
 C201 C 0.71871 0.24892 0.27246
 C202 C 0.73979 0.23075 0.22830
 C203 C 0.79815 0.24861 0.22794
 C204 C 0.81896 0.24907 0.20848
 C205 C 0.82303 0.27160 0.19154
 C206 C 0.80623 0.29377 0.19503
 C207 C 0.78537 0.29326 0.21442
 C208 C 0.78144 0.29564 0.28923
 C209 C 0.78150 0.31479 0.31041
 C210 C 0.75871 0.33016 0.31595
 C211 C 0.73604 0.32669 0.29912
 C212 C 0.73607 0.30760 0.27774
 C213 C 0.69238 0.24544 0.26371
 C214 C 0.67222 0.24186 0.28343
 C215 C 0.67784 0.24210 0.31233
 C216 C 0.70417 0.24554 0.32125
 C217 C 0.72449 0.24859 0.30144
 C218 C 0.73579 0.23794 0.20005
 C219 C 0.73433 0.21841 0.17924
 C220 C 0.73721 0.19149 0.18633
 C221 C 0.74115 0.18439 0.21469
 C222 C 0.74229 0.20387 0.23548
 H223 H 0.79558 0.23121 0.24099
 H224 H 0.83203 0.23195 0.20725
 H225 H 0.80911 0.31148 0.18251
 H226 H 0.77252 0.31051 0.21655
 H227 H 0.79911 0.28363 0.28581
 H228 H 0.79930 0.31727 0.32286
 H229 H 0.71847 0.30521 0.26497
 H230 H 0.68744 0.24534 0.24150
 H231 H 0.65211 0.23900 0.27609
 H232 H 0.70920 0.24503 0.34341
 H233 H 0.74474 0.25028 0.30872
 H234 H 0.73338 0.25861 0.19425
 H235 H 0.73097 0.22429 0.15757
 H236 H 0.74262 0.16379 0.22099
 H237 H 0.74504 0.19801 0.25726
 H238 H 0.71841 0.33877 0.30210
 C239 C 0.25194 0.78775 0.25580
 C240 C 0.23595 0.76613 0.25369
 C241 C 0.21739 0.76319 0.22948
 C242 C 0.23650 0.74449 0.27509
 C243 C 0.27392 0.78918 0.27659
 C244 C 0.24900 0.81058 0.23622
 C245 C 0.19032 0.75880 0.23426
 C246 C 0.17249 0.75824 0.21168
 C247 C 0.18151 0.76213 0.18395
 C248 C 0.20868 0.76562 0.17915
 C249 C 0.22653 0.76560 0.20163
 C250 C 0.23605 0.75021 0.30408
 C251 C 0.23826 0.72981 0.32391
 C252 C 0.23987 0.70328 0.31520
 C253 C 0.23926 0.69743 0.28626
 C254 C 0.23763 0.71788 0.26640
 C255 C 0.29313 0.76887 0.27840
 C256 C 0.31388 0.77054 0.29782
 C257 C 0.31585 0.79268 0.31575
 C258 C 0.29702 0.81328 0.31330
 C259 C 0.27625 0.81157 0.29392
 C260 C 0.27047 0.81803 0.21935
 C261 C 0.26730 0.83765 0.19881
 C262 C 0.24258 0.85052 0.19506
 C263 C 0.22141 0.84365 0.21277
 C264 C 0.22461 0.82398 0.23327
 H265 H 0.18288 0.75672 0.25555
 H266 H 0.15159 0.75588 0.21606
 H267 H 0.21608 0.76852 0.15796
 H268 H 0.24743 0.76825 0.19736
 H269 H 0.23438 0.77050 0.31138
 H270 H 0.23860 0.73474 0.34611
 H271 H 0.23791 0.71294 0.24420
 H272 H 0.29217 0.75181 0.26460
 H273 H 0.32852 0.75470 0.29823
 H274 H 0.29824 0.83067 0.32660
 H275 H 0.26183 0.82762 0.29259
 H276 H 0.28943 0.80785 0.22129
 H277 H 0.28409 0.84181 0.18547
 H278 H 0.20218 0.85321 0.21040
 H279 H 0.20787 0.81868 0.24634
 H280 H 0.24092 0.67716 0.27891
 C281 C 0.75465 0.24380 0.76237
 C282 C 0.73219 0.22923 0.76507
 C283 C 0.71009 0.23228 0.74468
 C284 C 0.72874 0.20919 0.78784
 C285 C 0.77827 0.23903 0.78038
 C286 C 0.75648 0.26571 0.74150
 C287 C 0.68487 0.24031 0.75406
 C288 C 0.66407 0.24357 0.73488
 C289 C 0.66799 0.23819 0.70617
 C290 C 0.69328 0.22999 0.69683
 C291 C 0.71414 0.22703 0.71597
 C292 C 0.73431 0.21519 0.81615
 C293 C 0.73178 0.19583 0.83706
 C294 C 0.72280 0.17038 0.83014
 C295 C 0.71601 0.16479 0.80215
 C296 C 0.71917 0.18392 0.78116
 C297 C 0.79034 0.21384 0.78211
 C298 C 0.81179 0.20947 0.80025
 C299 C 0.82180 0.23025 0.81664
 C300 C 0.80985 0.25558 0.81449
 C301 C 0.78847 0.25991 0.79635
 C302 C 0.77739 0.26603 0.72202
 C303 C 0.77921 0.28650 0.70228
 C304 C 0.76015 0.30705 0.70161
 C305 C 0.73959 0.30708 0.72170
 C306 C 0.73783 0.28662 0.74147
 H307 H 0.68144 0.24442 0.77617
 H308 H 0.64480 0.25006 0.74250
 H309 H 0.69713 0.22631 0.67474
 H310 H 0.73348 0.22071 0.70842
 H311 H 0.74066 0.23483 0.82209
 H312 H 0.73635 0.20091 0.85866
 H313 H 0.71441 0.17887 0.75959
 H314 H 0.78292 0.19753 0.76968
 H315 H 0.82054 0.18978 0.80157
 H316 H 0.81630 0.27199 0.82729
 H317 H 0.77933 0.27945 0.79539
 H318 H 0.79216 0.25024 0.72193
 H319 H 0.79541 0.28616 0.68728
 H320 H 0.72509 0.32302 0.72265
 H321 H 0.72201 0.28718 0.75690
 H322 H 0.70875 0.14539 0.79644
 C323 C 0.24476 0.72461 0.75325
 C324 C 0.26575 0.74139 0.75372
 C325 C 0.28793 0.73881 0.73325
 C326 C 0.26702 0.76375 0.77415
 C327 C 0.22487 0.72478 0.77627
 C328 C 0.24072 0.70511 0.73010
 C329 C 0.30172 0.71466 0.72980
 C330 C 0.32183 0.71226 0.70963
 C331 C 0.32881 0.73404 0.69285
 C332 C 0.31509 0.75829 0.69658
 C333 C 0.29504 0.76066 0.71674
 C334 C 0.28984 0.76742 0.79051
 C335 C 0.29148 0.78893 0.80900
 C336 C 0.27035 0.80720 0.81152
 C337 C 0.24766 0.80373 0.79470
 C338 C 0.24607 0.78227 0.77618
 C339 C 0.19814 0.73030 0.77029
 C340 C 0.17924 0.73007 0.79183
 C341 C 0.18678 0.72382 0.81959
 C342 C 0.21345 0.71775 0.82539
 C343 C 0.23243 0.71850 0.80395
 C344 C 0.24201 0.71286 0.70168
 C345 C 0.23847 0.69429 0.68018
 C346 C 0.23296 0.66773 0.68673
 C347 C 0.23061 0.66024 0.71507
 C348 C 0.23461 0.67869 0.73656
 H349 H 0.29672 0.69761 0.74256
 H350 H 0.33197 0.69335 0.70712
 H351 H 0.31917 0.77536 0.68357
 H352 H 0.28452 0.77941 0.71896
 H353 H 0.30638 0.75359 0.78898
 H354 H 0.30930 0.79129 0.82144
 H355 H 0.22866 0.78037 0.76304
 H356 H 0.19197 0.73489 0.74896
 H357 H 0.15870 0.73417 0.78662
 H358 H 0.21961 0.71263 0.84659
 H359 H 0.25295 0.71382 0.80880
 H360 H 0.24567 0.73331 0.69611
 H361 H 0.23950 0.70088 0.65851
 H362 H 0.22607 0.63995 0.72061
 H363 H 0.23315 0.67228 0.75828
 H364 H 0.23135 0.81785 0.79513
 C365 C 0.24592 0.25129 0.73836
 C366 C 0.22849 0.27203 0.74111
 C367 C 0.22799 0.29472 0.72113
 C368 C 0.20869 0.27275 0.76432
 C369 C 0.24781 0.23047 0.76035
 C370 C 0.26455 0.24871 0.71413
 C371 C 0.25100 0.30913 0.71519
 C372 C 0.25032 0.32978 0.69549
 C373 C 0.22650 0.33652 0.68160
 C374 C 0.20337 0.32274 0.68847
 C375 C 0.20409 0.30204 0.70800
 C376 C 0.20764 0.29443 0.78280
 C377 C 0.18932 0.29504 0.80492
 C378 C 0.17176 0.27398 0.80899
 C379 C 0.17229 0.25265 0.78986
 C380 C 0.19055 0.25210 0.76773
 C381 C 0.24121 0.20424 0.75392
 C382 C 0.24287 0.18456 0.77461
 C383 C 0.25165 0.19080 0.80191
 C384 C 0.25881 0.21696 0.80807
 C385 C 0.25666 0.23672 0.78753
 C386 C 0.25575 0.25144 0.68616
 C387 C 0.27384 0.25018 0.66384
 C388 C 0.30083 0.24513 0.66898
 C389 C 0.30949 0.24149 0.69686
 C390 C 0.29152 0.24329 0.71919
 H391 H 0.26949 0.30427 0.72569
 H392 H 0.26837 0.34051 0.69153
 H393 H 0.18471 0.32772 0.67833
 H394 H 0.18606 0.29137 0.71248
 H395 H 0.22126 0.31071 0.78029
 H396 H 0.18908 0.31186 0.81911
 H397 H 0.19049 0.23560 0.75314
 H398 H 0.23458 0.19911 0.73294
 H399 H 0.23787 0.16441 0.76907
 H400 H 0.26589 0.22212 0.82888
 H401 H 0.26212 0.25685 0.79269
 H402 H 0.23495 0.25488 0.68162
 H403 H 0.26675 0.25305 0.64250
 H404 H 0.33027 0.23814 0.70156
 H405 H 0.29881 0.24105 0.74053
 H406 H 0.15841 0.23656 0.79154
 C407 C 0.74650 0.77761 0.74415
 C408 C 0.76303 0.75598 0.74291
 C409 C 0.75983 0.73516 0.72101
 C410 C 0.78468 0.75153 0.76382
 C411 C 0.74969 0.79862 0.76570
 C412 C 0.72356 0.78091 0.72476
 C413 C 0.75763 0.70855 0.72925
 C414 C 0.75350 0.68878 0.70920
 C415 C 0.75155 0.69529 0.68046
 C416 C 0.75404 0.72186 0.67218
 C417 C 0.75860 0.74159 0.69222
 C418 C 0.77967 0.75228 0.79296
 C419 C 0.80037 0.74865 0.81222
 C420 C 0.82632 0.74348 0.80269
 C421 C 0.83107 0.74147 0.77365
 C422 C 0.81048 0.74565 0.75439
 C423 C 0.77356 0.81239 0.76859
 C424 C 0.77645 0.83112 0.79006
 C425 C 0.75543 0.83670 0.80867
 C426 C 0.73142 0.82309 0.80538
 C427 C 0.72856 0.80443 0.78397
 C428 C 0.72120 0.80392 0.70827
 C429 C 0.70012 0.80700 0.68941
 C430 C 0.68104 0.78714 0.68665
 C431 C 0.68286 0.76455 0.70404
 C432 C 0.70390 0.76153 0.72298
 H433 H 0.75849 0.70315 0.75133
 H434 H 0.75107 0.66857 0.71635
 H435 H 0.75261 0.72731 0.65015
 H436 H 0.76080 0.76191 0.68532
 H437 H 0.75976 0.75569 0.80080
 H438 H 0.79597 0.74943 0.83454
 H439 H 0.81474 0.74454 0.73204
 H440 H 0.79001 0.80835 0.75449
 H441 H 0.79518 0.84122 0.79222
 H442 H 0.71500 0.82608 0.81972
 H443 H 0.71006 0.79387 0.78217
 H444 H 0.73598 0.81927 0.70965
 H445 H 0.69898 0.82473 0.67654
 H446 H 0.66799 0.74930 0.70337
 H447 H 0.70493 0.74402 0.73618
 H448 H 0.85085 0.73716 0.76586
 C449 C 0.24429 0.06028 0.03605
 C450 C 0.26708 0.07402 0.04361
 C451 C 0.26696 0.09300 0.06719
 N452 N 0.28720 0.11023 0.07038
 N453 N 0.28743 0.12715 0.09196
 C454 C 0.26754 0.12726 0.11129
 N455 N 0.24743 0.10989 0.10822
 N456 N 0.24709 0.09314 0.08653
 C457 C 0.26767 0.14536 0.13560
 C458 C 0.28371 0.16766 0.13665
 H459 H 0.28538 0.07094 0.03202
 H460 H 0.25383 0.14163 0.15256
 H461 H 0.22581 0.06492 0.04674
 H462 H 0.29545 0.17282 0.11837
 C463 C 0.74903 0.54853 0.57658
 C464 C 0.73088 0.56878 0.58261
 C465 C 0.73698 0.58954 0.60327
 N466 N 0.72294 0.61267 0.60342
 N467 N 0.72863 0.63171 0.62185
 C468 C 0.74846 0.62819 0.64092
 N469 N 0.76228 0.60496 0.64096
 N470 N 0.75674 0.58604 0.62240
 C471 C 0.75475 0.64871 0.66175
 C472 C 0.74596 0.67490 0.65900
 H473 H 0.71243 0.57017 0.57098
 H474 H 0.76748 0.64315 0.67920
 H475 H 0.76828 0.54841 0.58671
 H476 H 0.73565 0.68093 0.63998
 C477 C 0.73189 0.93648 0.07545
 C478 C 0.75318 0.92204 0.08661
 C479 C 0.74954 0.90096 0.10771
 N480 N 0.77099 0.88802 0.11853
 N481 N 0.76802 0.86890 0.13763
 C482 C 0.74347 0.86199 0.14663
 N483 N 0.72203 0.87490 0.13578
 N484 N 0.72499 0.89404 0.11670
 C485 C 0.73977 0.84074 0.16755
 C486 C 0.76117 0.82754 0.18023
 H487 H 0.77319 0.92639 0.07986
 H488 H 0.71965 0.83590 0.17326
 H489 H 0.71190 0.93232 0.08240
 H490 H 0.78107 0.83398 0.17534
 C491 C 0.25476 0.45187 0.54114
 C492 C 0.23381 0.44247 0.55736
 C493 C 0.23748 0.42310 0.58025
 N494 N 0.21616 0.41515 0.59534
 N495 N 0.21894 0.39751 0.61604
 C496 C 0.24318 0.38713 0.62246
 N497 N 0.26454 0.39511 0.60740
 N498 N 0.26176 0.41279 0.58668
 C499 C 0.24641 0.36723 0.64498
 C500 C 0.22473 0.35785 0.66019
 H501 H 0.21384 0.44964 0.55328
 H502 H 0.26608 0.35920 0.64868
 H503 H 0.27482 0.44497 0.54524
 H504 H 0.20512 0.36539 0.65499
 C505 C 0.94857 0.23381 0.06359
 C506 C 0.93856 0.25643 0.07707
 C507 C 0.91747 0.25486 0.09850
 N508 N 0.90747 0.27734 0.11034
 N509 N 0.88824 0.27615 0.12958
 C510 C 0.87832 0.25240 0.13769
 N511 N 0.88838 0.22994 0.12591
 N512 N 0.90757 0.23113 0.10667
 C513 C 0.85702 0.25058 0.15882
 C514 C 0.84484 0.27297 0.17065
 H515 H 0.94605 0.27582 0.07162
 H516 H 0.85034 0.23097 0.16439
 H517 H 0.94072 0.21460 0.06917
 H518 H 0.85069 0.29240 0.16335
 C519 C 0.44807 0.76349 0.55752
 C520 C 0.43745 0.74107 0.57020
 C521 C 0.41823 0.74359 0.59349
 N522 N 0.40682 0.72175 0.60475
 N523 N 0.38935 0.72408 0.62576
 C524 C 0.38276 0.74834 0.63630
 N525 N 0.39424 0.77010 0.62511
 N526 N 0.41162 0.76778 0.60413
 C527 C 0.36324 0.75169 0.65909
 C528 C 0.34970 0.73052 0.67110
 H529 H 0.44329 0.72147 0.56301
 H530 H 0.35962 0.77168 0.66648
 H531 H 0.44184 0.78299 0.56470
 H532 H 0.35487 0.71051 0.66465
 C533 C 0.05332 0.74403 0.05638
 C534 C 0.06701 0.76505 0.06845
 C535 C 0.08600 0.76092 0.09162
 N536 N 0.10427 0.77968 0.09738
 N537 N 0.12143 0.77630 0.11845
 C538 C 0.12078 0.75416 0.13474
 N539 N 0.10232 0.73553 0.12919
 N540 N 0.08532 0.73878 0.10793
 C541 C 0.13928 0.75051 0.15844
 C542 C 0.16298 0.76437 0.15993
 H543 H 0.06443 0.78497 0.06022
 H544 H 0.13460 0.73596 0.17442
 H545 H 0.05760 0.72400 0.06349
 H546 H 0.16875 0.77663 0.14225
 C547 C 0.55290 0.22338 0.56427
 C548 C 0.55989 0.24276 0.58370
 C549 C 0.58117 0.23829 0.60440
 N550 N 0.58514 0.25613 0.62532
 N551 N 0.60468 0.25250 0.64387
 C552 C 0.62105 0.23097 0.64206
 N553 N 0.61716 0.21321 0.62107
 N554 N 0.59754 0.21676 0.60262
 C555 C 0.64309 0.22691 0.66190
 C556 C 0.64566 0.24194 0.68637
 H557 H 0.54957 0.26174 0.58374
 H558 H 0.65720 0.21111 0.65745
 H559 H 0.56245 0.20403 0.56504
 H560 H 0.63008 0.25597 0.69199
 C561 C 0.74874 0.05029 0.96552
 C562 C 0.72704 0.06324 0.95314
 C563 C 0.73004 0.08482 0.93259
 N564 N 0.70912 0.09222 0.91631
 N565 N 0.71140 0.11177 0.89761
 C566 C 0.73464 0.12481 0.89468
 N567 N 0.75550 0.11761 0.91119
 N568 N 0.75328 0.09790 0.92973
 C569 C 0.73736 0.14643 0.87411
 C570 C 0.71969 0.14959 0.85174
 H571 H 0.70709 0.05681 0.95783
 H572 H 0.75443 0.15917 0.87569
 H573 H 0.76864 0.05582 0.95942
 H574 H 0.70433 0.13503 0.84863
 C575 C 0.23140 0.55866 0.42225
 C576 C 0.25119 0.57603 0.41394
 C577 C 0.24631 0.59700 0.39298
 N578 N 0.26261 0.61816 0.39169
 N579 N 0.25834 0.63739 0.37291
 C580 C 0.23774 0.63603 0.35455
 N581 N 0.22163 0.61470 0.35561
 N582 N 0.22574 0.59560 0.37458
 C583 C 0.23310 0.65692 0.33344
 C584 C 0.24348 0.68224 0.33656
 H585 H 0.27037 0.57519 0.42420
 H586 H 0.22043 0.65256 0.31567
 H587 H 0.21157 0.56092 0.41375
 H588 H 0.25360 0.68723 0.35594
 C589 C 0.23929 0.94500 0.92659
 C590 C 0.26145 0.93285 0.91431
 C591 C 0.25889 0.90989 0.89528
 N592 N 0.28086 0.89763 0.88472
 N593 N 0.27869 0.87675 0.86767
 C594 C 0.25445 0.86736 0.86056
 N595 N 0.23251 0.87967 0.87107
 N596 N 0.23468 0.90050 0.88811
 C597 C 0.25145 0.84444 0.84164
 C598 C 0.27307 0.83002 0.83101
 H599 H 0.28110 0.93998 0.91911
 H600 H 0.23146 0.83859 0.83655
 H601 H 0.21972 0.93750 0.92204
 H602 H 0.29283 0.83510 0.83795
 C603 C 0.72555 0.43984 0.46069
 C604 C 0.74703 0.42842 0.44650
 C605 C 0.74406 0.41047 0.42239
 N606 N 0.76603 0.40113 0.40905
 N607 N 0.76394 0.38510 0.38692
 C608 C 0.73977 0.37781 0.37726
 N609 N 0.71774 0.38713 0.39062
 N610 N 0.71983 0.40321 0.41278
 C611 C 0.73733 0.35987 0.35296
 C612 C 0.75970 0.34968 0.33917
 H613 H 0.76703 0.43339 0.45275
 H614 H 0.71766 0.35399 0.34667
 H615 H 0.70547 0.43518 0.45449
 H616 H 0.77913 0.35505 0.34687
 C617 C 0.05657 0.23436 0.94581
 C618 C 0.06808 0.25720 0.93498
 C619 C 0.08735 0.25603 0.91166
 N620 N 0.09768 0.27869 0.90111
 N621 N 0.11492 0.27783 0.87981
 C622 C 0.12245 0.25425 0.86829
 N623 N 0.11214 0.23161 0.87887
 N624 N 0.09492 0.23248 0.90014
 C625 C 0.14124 0.25276 0.84460
 C626 C 0.15286 0.27521 0.83289
 H627 H 0.06257 0.27643 0.94347
 H628 H 0.14633 0.23325 0.83668
 H629 H 0.06204 0.21518 0.93716
 H630 H 0.14882 0.29439 0.84234
 C631 C 0.55681 0.76510 0.43861
 C632 C 0.56948 0.74292 0.42709
 C633 C 0.59091 0.74569 0.40620
 N634 N 0.60330 0.72387 0.39550
 N635 N 0.62294 0.72632 0.37688
 C636 C 0.63090 0.75069 0.36830
 N637 N 0.61849 0.77246 0.37899
 N638 N 0.59888 0.77002 0.39756
 C639 C 0.65274 0.75396 0.34807
 C640 C 0.66593 0.73243 0.33573
 H641 H 0.56389 0.72322 0.43378
 H642 H 0.65809 0.77400 0.34252
 H643 H 0.56258 0.78472 0.43183
 H644 H 0.65906 0.71260 0.34025
 C645 C 0.94536 0.76209 0.93994
 C646 C 0.93679 0.74143 0.92286
 C647 C 0.91453 0.74485 0.90309
 N648 N 0.91023 0.72646 0.88278
 N649 N 0.88995 0.72921 0.86498
 C650 C 0.87307 0.75034 0.86700
 N651 N 0.87723 0.76859 0.88746
 N652 N 0.89763 0.76595 0.90511
 C653 C 0.85038 0.75355 0.84777
 C654 C 0.84860 0.73954 0.82253
 H655 H 0.94682 0.72232 0.92375
 H656 H 0.83540 0.76832 0.85296
 H657 H 0.93637 0.78161 0.93780
 H658 H 0.86500 0.72684 0.81610
 C659 C 0.44890 0.24786 0.44316
 C660 C 0.44338 0.22850 0.42314
 C661 C 0.42286 0.23229 0.40149
 N662 N 0.42140 0.21511 0.37958
 N663 N 0.40262 0.21799 0.36005
 C664 C 0.38448 0.23806 0.36185
 N665 N 0.38584 0.25514 0.38386
 N666 N 0.40474 0.25237 0.40329
 C667 C 0.36331 0.24118 0.34081
 C668 C 0.36407 0.22799 0.31501
 H669 H 0.45461 0.21004 0.42313
 H670 H 0.34723 0.25496 0.34536
 H671 H 0.43880 0.26692 0.44225
 H672 H 0.38151 0.21636 0.30945
 C673 C 0.73191 0.94393 0.95681
 C674 C 0.75328 0.93248 0.94245
 C675 C 0.74947 0.91575 0.91745
 N676 N 0.77076 0.90485 0.90408
 N677 N 0.76752 0.88977 0.88131
 C678 C 0.74285 0.88514 0.87106
 N679 N 0.72160 0.89607 0.88442
 N680 N 0.72484 0.91111 0.90717
 C681 C 0.73868 0.86813 0.84638
 C682 C 0.75954 0.85577 0.83194
 H683 H 0.77335 0.93622 0.94939
 H684 H 0.71842 0.86536 0.83965
 H685 H 0.71185 0.94023 0.94983
 H686 H 0.77974 0.86032 0.83779
 C687 C 0.23690 0.44799 0.42459
 C688 C 0.25856 0.43749 0.40987
 C689 C 0.25567 0.41650 0.38856
 N690 N 0.27744 0.40638 0.37539
 N691 N 0.27513 0.38739 0.35606
 C692 C 0.25091 0.37783 0.34915
 N693 N 0.22915 0.38797 0.36230
 N694 N 0.23147 0.40693 0.38164
 C695 C 0.24787 0.35676 0.32794
 C696 C 0.26950 0.34523 0.31393
 H697 H 0.27827 0.44481 0.41409
 H698 H 0.22790 0.35064 0.32323
 H699 H 0.21721 0.44053 0.42055
 H700 H 0.28912 0.35276 0.31817
 C701 C 0.23162 0.05569 0.92135
 C702 C 0.25254 0.06921 0.90876
 C703 C 0.24834 0.08982 0.88727
 N704 N 0.26830 0.10659 0.88092
 N705 N 0.26493 0.12544 0.86154
 C706 C 0.24153 0.12809 0.84764
 N707 N 0.22162 0.11116 0.85378
 N708 N 0.22491 0.09243 0.87335
 C709 C 0.23777 0.14860 0.82592
 C710 C 0.25461 0.17025 0.82388
 H711 H 0.27271 0.06555 0.91575
 H712 H 0.22090 0.14710 0.81194
 H713 H 0.21140 0.06054 0.91534
 H714 H 0.26968 0.17301 0.83985
 C715 C 0.73962 0.54615 0.45847
 C716 C 0.76315 0.55674 0.44834
 C717 C 0.76331 0.57438 0.42365
 N718 N 0.78443 0.59010 0.41855
 N719 N 0.78465 0.60611 0.39619
 C720 C 0.76387 0.60674 0.37797
 N721 N 0.74293 0.59077 0.38288
 N722 N 0.74260 0.57497 0.40536
 C723 C 0.76371 0.62422 0.35319
 C724 C 0.78002 0.64624 0.35124
 H725 H 0.78171 0.55242 0.45899
 H726 H 0.74912 0.62065 0.33694
 H727 H 0.72094 0.55206 0.44894
 H728 H 0.79251 0.65134 0.36895
 C729 C 0.05558 0.75592 0.94102
 C730 C 0.06774 0.73333 0.92963
 C731 C 0.08805 0.73517 0.90750
 N732 N 0.10451 0.71425 0.90233
 N733 N 0.12291 0.71565 0.88223
 C734 C 0.12533 0.73795 0.86641
 N735 N 0.10868 0.75876 0.87139
 N736 N 0.09046 0.75745 0.89166
 C737 C 0.14514 0.73961 0.84378
 C738 C 0.16705 0.72253 0.84253
 H739 H 0.06296 0.71386 0.93770
 H740 H 0.14296 0.75535 0.82839
 H741 H 0.06198 0.77531 0.93410
 H742 H 0.17067 0.70878 0.85970
 C743 C 0.55984 0.24969 0.45208
 C744 C 0.56874 0.23089 0.43265
 C745 C 0.59123 0.23575 0.41369
 N746 N 0.59552 0.21952 0.39133
 N747 N 0.61580 0.22361 0.37394
 C748 C 0.63269 0.24396 0.37839
 N749 N 0.62857 0.26004 0.40093
 N750 N 0.60816 0.25607 0.41822
 C751 C 0.65512 0.24864 0.35926
 C752 C 0.65606 0.23740 0.33245
 H753 H 0.55846 0.21224 0.43068
 H754 H 0.67039 0.26220 0.36584
 H755 H 0.56909 0.26894 0.45296
 H756 H 0.63930 0.22604 0.32516
 C757 C 0.94782 0.24548 0.94753
 C758 C 0.93537 0.22467 0.93374
 C759 C 0.91582 0.22966 0.91128
 N760 N 0.90255 0.20920 0.89950
 N761 N 0.88469 0.21364 0.87928
 C762 C 0.87955 0.23870 0.87005
 N763 N 0.89291 0.25909 0.88174
 N764 N 0.91070 0.25467 0.90196
 C765 C 0.85948 0.24428 0.84834
 C766 C 0.84378 0.22458 0.83657
 H767 H 0.93995 0.20435 0.93955
 H768 H 0.85705 0.26471 0.84182
 H769 H 0.94288 0.26577 0.94190
 H770 H 0.84775 0.20406 0.84213
 C771 C 0.44587 0.76037 0.43970
 C772 C 0.43330 0.78284 0.42864
 C773 C 0.41216 0.78057 0.40736
 N774 N 0.39971 0.80262 0.39724
 N775 N 0.38049 0.80062 0.37809
 C776 C 0.37302 0.77648 0.36838
 N777 N 0.38550 0.75449 0.37847
 N778 N 0.40468 0.75649 0.39758
 C779 C 0.35184 0.77365 0.34731
 C780 C 0.33750 0.79528 0.33666
 H781 H 0.43889 0.80237 0.43583
 H782 H 0.34709 0.75374 0.34074
 H783 H 0.44003 0.74092 0.43249
 H784 H 0.34148 0.81486 0.34490
 C785 C 0.25592 0.95421 0.04288
 C786 C 0.23571 0.94468 0.06002
 C787 C 0.24140 0.92812 0.08485
 N788 N 0.22121 0.91889 0.10087
 N789 N 0.22617 0.90400 0.12351
 C790 C 0.25152 0.89788 0.13102
 N791 N 0.27168 0.90716 0.11503
 N792 N 0.26673 0.92201 0.09240
 C793 C 0.25747 0.88098 0.15551
 C794 C 0.23758 0.86995 0.17212
 H795 H 0.21525 0.94988 0.05546
 H796 H 0.27814 0.87706 0.16002
 H797 H 0.27637 0.94898 0.04747
 H798 H 0.21714 0.87544 0.16778
 C799 C 0.73067 0.43935 0.57901
 C800 C 0.75223 0.42416 0.58834
 C801 C 0.74944 0.40358 0.61013
 N802 N 0.77087 0.38893 0.61824
 N803 N 0.76857 0.37014 0.63783
 C804 C 0.74473 0.36531 0.65002
 N805 N 0.72332 0.37998 0.64193
 N806 N 0.72562 0.39875 0.62235
 C807 C 0.74170 0.34462 0.67165
 C808 C 0.76276 0.32827 0.68019
 H809 H 0.77168 0.42727 0.57931
 H810 H 0.72210 0.34190 0.68035
 H811 H 0.71121 0.43616 0.58798
 H812 H 0.78180 0.33033 0.66988
 C813 C 0.75028 0.04601 0.08018
 C814 C 0.73112 0.06541 0.08585
 C815 C 0.73550 0.08645 0.10666
 N816 N 0.71914 0.10800 0.10729
 N817 N 0.72301 0.12734 0.12589
 C818 C 0.74333 0.12574 0.14461
 N819 N 0.75955 0.10409 0.14413
 N820 N 0.75579 0.08484 0.12541
 C821 C 0.74747 0.14655 0.16572
 C822 C 0.73468 0.17118 0.16413
 H823 H 0.71292 0.06601 0.07373
 H824 H 0.76132 0.14246 0.18263
 H825 H 0.76917 0.04637 0.09101
 H826 H 0.72302 0.17607 0.14563
 C827 C 0.25025 0.56174 0.53733
 C828 C 0.23006 0.56838 0.55622
 C829 C 0.23320 0.58931 0.57753
 N830 N 0.21567 0.59142 0.59913
 N831 N 0.21842 0.61013 0.61870
 C832 C 0.23873 0.62754 0.61726
 N833 N 0.25609 0.62560 0.59550
 N834 N 0.25345 0.60678 0.57604
 C835 C 0.24211 0.64829 0.63871
 C836 C 0.22890 0.64762 0.66453
 H837 H 0.21180 0.55729 0.55611
 H838 H 0.25642 0.66364 0.63461
 H839 H 0.26907 0.57181 0.53852
 H840 H 0.21661 0.63076 0.66947
 C841 C 0.94428 0.75210 0.05493
 C842 C 0.93618 0.72883 0.06799
 C843 C 0.91452 0.72878 0.08870
 N844 N 0.91172 0.70790 0.10645
 N845 N 0.89221 0.70771 0.12539
 C846 C 0.87463 0.72829 0.12704
 N847 N 0.87723 0.74900 0.10905
 N848 N 0.89688 0.74930 0.09030
 C849 C 0.85304 0.72845 0.14781
 C850 C 0.85367 0.71230 0.17164
 H851 H 0.94653 0.71032 0.06364
 H852 H 0.83711 0.74286 0.14521
 H853 H 0.93520 0.77088 0.06082
 H854 H 0.87105 0.70003 0.17569
 C855 C 0.44159 0.22265 0.55626
 C856 C 0.42430 0.24296 0.56457
 C857 C 0.40260 0.23876 0.58469
 N858 N 0.38314 0.25740 0.58743
 N859 N 0.36379 0.25437 0.60623
 C860 C 0.36329 0.23265 0.62314
 N861 N 0.38281 0.21404 0.62048
 N862 N 0.40205 0.21696 0.60151
 C863 C 0.34293 0.22985 0.64508
 C864 C 0.31981 0.24532 0.64526
 H865 H 0.42643 0.26260 0.55564
 H866 H 0.34629 0.21527 0.66151
 H867 H 0.43837 0.20254 0.56340
 H868 H 0.31523 0.25775 0.62723
 C869 C 0.05899 0.22676 0.06238
 C870 C 0.07153 0.24862 0.07413
 C871 C 0.09399 0.24610 0.09370
 N872 N 0.10569 0.26826 0.10368
 N873 N 0.12635 0.26647 0.12106
 C874 C 0.13612 0.24242 0.12909
 N875 N 0.12437 0.22022 0.11917
 N876 N 0.10369 0.22201 0.10177
 C877 C 0.15907 0.24014 0.14810
 C878 C 0.17244 0.26242 0.15786
 H879 H 0.06505 0.26845 0.06836
 H880 H 0.16582 0.22041 0.15374
 H881 H 0.06535 0.20686 0.06802
 H882 H 0.16612 0.28183 0.15048
 C883 C 0.55740 0.75901 0.55567
 C884 C 0.56836 0.78117 0.56847
 C885 C 0.58860 0.77829 0.59071
 N886 N 0.59960 0.80003 0.60257
 N887 N 0.61794 0.79744 0.62267
 C888 C 0.62589 0.77299 0.63165
 N889 N 0.61483 0.75131 0.61983
 N890 N 0.59656 0.75390 0.59976
 C891 C 0.64621 0.76949 0.65361
 C892 C 0.65956 0.79072 0.66566
 H893 H 0.56201 0.80090 0.56218
 H894 H 0.65142 0.74936 0.65949
 H895 H 0.56398 0.73937 0.56205
 H896 H 0.65532 0.81061 0.65812
   
