data_POSCAR
  _audit_creation_date              2014-09-24
  _audit_creation_method            'ToBaCCo'
  _symmetry_space_group_name_H-M    'P1'
  _symmetry_Int_Tables_number       1
  _symmetry_cell_setting            triclinic
  loop_
  _symmetry_equiv_pos_as_xyz
 x,y,z
_cell_length_a 24.3168
_cell_length_b 24.0237
_cell_length_c 24.1162
_cell_angle_alpha 90.102100
_cell_angle_beta 90.219800
_cell_angle_gamma 89.687400
loop_
  _atom_site_label
  _atom_site_type_symbol
  _atom_site_fract_x
  _atom_site_fract_y
  _atom_site_fract_z
C1 C 0.38910 1.00911 -0.54439
 C2 C 0.36393 1.00581 -0.49210
 C3 C 0.39407 1.00568 -0.44264
 C4 C 0.45207 1.00918 -0.44470
 C5 C 0.47914 1.01094 -0.49675
 C6 C 0.44762 1.01238 -0.54668
 C7 C 0.47524 1.02327 -0.59656
 C8 C 0.53216 1.02655 -0.59852
 C9 C 0.56472 1.01930 -0.55071
 C10 C 0.53778 1.01465 -0.49869
 C11 C 0.48335 1.01484 -0.39606
 C12 C 0.54014 1.01964 -0.39799
 C13 C 0.56883 1.01704 -0.44853
 C14 C 0.62710 1.02244 -0.45062
 C15 C 0.65251 1.02586 -0.50275
 C16 C 0.62311 1.02269 -0.55295
 H17 H 0.45328 1.03194 -0.63459
 H18 H 0.55009 1.03751 -0.63793
 H19 H 0.46412 1.01784 -0.35581
 H20 H 0.56079 1.02758 -0.35910
 H21 H 0.31961 1.00159 -0.48956
 H22 H 0.69708 1.02629 -0.50412
 C23 C -0.60624 1.43860 -0.00986
 C24 C -0.63738 1.48756 -0.01218
 C25 C -0.61312 1.54051 -0.01226
 C26 C -0.55460 1.54409 -0.01162
 C27 C -0.52231 1.49446 -0.01035
 C28 C -0.54823 1.44165 -0.00944
 C29 C -0.51546 1.39330 -0.00791
 C30 C -0.45847 1.39637 -0.00952
 C31 C -0.43165 1.44799 -0.01021
 C32 C -0.46382 1.49756 -0.01069
 C33 C -0.52724 1.59542 -0.01582
 C34 C -0.47025 1.59851 -0.01391
 C35 C -0.43763 1.55020 -0.01195
 C36 C -0.37948 1.55298 -0.01134
 C37 C -0.34857 1.50375 -0.01140
 C38 C -0.37355 1.45149 -0.01138
 H39 H -0.53341 1.35231 -0.00589
 H40 H -0.43581 1.35756 -0.01023
 H41 H -0.54920 1.63413 -0.02163
 H42 H -0.45224 1.63951 -0.01493
 H43 H -0.68185 1.48406 -0.01160
 H44 H -0.30402 1.50616 -0.01163
 C45 C -0.03028 0.44651 0.38368
 C46 C -0.03107 0.49860 0.35719
 C47 C -0.03266 0.54854 0.38679
 C48 C -0.03299 0.54749 0.44524
 C49 C -0.03177 0.49575 0.47342
 C50 C -0.03262 0.44516 0.44269
 C51 C -0.04171 0.39535 0.47164
 C52 C -0.04326 0.39427 0.52911
 C53 C -0.03548 0.44287 0.56071
 C54 C -0.03260 0.49465 0.53251
 C55 C -0.03803 0.59677 0.47607
 C56 C -0.03901 0.59570 0.53349
 C57 C -0.03350 0.54544 0.56294
 C58 C -0.03426 0.54432 0.62183
 C59 C -0.03701 0.49252 0.64855
 C60 C -0.03641 0.44172 0.61959
 H61 H -0.05021 0.35676 0.45026
 H62 H -0.05281 0.35488 0.54830
 H63 H -0.04288 0.63681 0.45615
 H64 H -0.04624 0.63492 0.55426
 H65 H -0.02824 0.50089 0.31237
 H66 H -0.03464 0.49160 0.69346
 O67 O -0.13196 1.00479 -0.07847
 O68 O 0.15163 0.98561 -0.06857
 O69 O 0.01138 1.06970 -0.14120
 O70 O 0.00955 0.91734 -0.13926
 O71 O 0.00416 0.85251 -0.06935
 O72 O 0.01382 1.13674 -0.07295
 O73 O 0.08579 0.98955 -0.13776
 O74 O -0.06200 1.00029 -0.14280
 Zr75 Zr 0.01047 0.99423 -0.09532
 O76 O 0.05672 0.94213 -0.04565
 O77 O -0.03849 1.04754 -0.05002
 C78 C -0.11336 1.00483 -0.12904
 C79 C 0.13631 0.98672 -0.12037
 C80 C 0.01144 1.12116 -0.12428
 C81 C 0.00685 0.86644 -0.12106
 H82 H 0.08593 1.06481 -0.06969
 O83 O 0.06130 1.04203 -0.04653
 H84 H -0.06713 0.92513 -0.07313
 O85 O -0.04336 0.94802 -0.04891
 O86 O 0.14739 0.99127 0.08328
 O87 O -0.13669 1.00239 0.07330
 O88 O 0.08826 1.13382 0.00574
 O89 O 0.07389 0.84949 0.00415
 O90 O -0.07325 0.85775 0.00376
 O91 O -0.05908 1.14199 -0.00454
 O92 O 0.00806 1.07381 0.14438
 O93 O -0.00264 0.92270 0.14615
 O94 O 0.01360 1.13891 0.07479
 O95 O -0.00436 0.85526 0.07819
 O96 O 0.15313 1.06341 0.00720
 O97 O -0.13047 1.07914 -0.00484
 O98 O -0.13815 0.92791 -0.00101
 O99 O 0.14555 0.91186 0.00573
 O100 O 0.07730 0.99638 0.14732
 O101 O -0.07080 1.00096 0.14249
 Zr102 Zr 0.10515 0.99025 0.00579
 Zr103 Zr -0.09006 1.00104 -0.00102
 Zr104 Zr 0.01232 1.09219 0.00143
 Zr105 Zr 0.00269 0.89946 0.00373
 Zr106 Zr 0.00459 0.99742 0.10007
 O107 O -0.04669 0.94937 0.05173
 O108 O 0.05876 1.04380 0.05400
 C109 C 0.12886 0.99452 0.13382
 C110 C -0.12136 1.00242 0.12510
 C111 C 0.13852 1.11551 0.00752
 C112 C 0.12575 0.86172 0.00404
 C113 C -0.12356 0.87589 0.00169
 C114 C -0.11085 1.12929 -0.00669
 C115 C 0.01136 1.12471 0.12647
 C116 C -0.00661 0.87142 0.12938
 H117 H -0.06439 1.07470 0.07248
 O118 O -0.04152 1.04904 0.05013
 H119 H 0.07491 0.91899 0.07970
 O120 O 0.05359 0.94396 0.05503
 C121 C 0.28134 1.00663 0.31751
 C122 C 0.26982 1.04087 0.36322
 C123 C 0.30572 1.04181 0.40825
 C124 C 0.35429 1.00970 0.40809
 C125 C 0.36470 0.97652 0.36088
 N126 N 0.32857 0.97589 0.31748
 C127 C 0.24204 1.00249 0.27050
 N128 N 0.26051 0.99316 0.21793
 C129 C 0.22568 0.99016 0.17347
 C130 C 0.16860 0.99639 0.18082
 C131 C 0.14909 1.00486 0.23498
 C132 C 0.18534 1.00774 0.27953
 H133 H 0.29600 1.06893 0.44284
 H134 H 0.40034 0.94937 0.35936
 H135 H 0.24258 0.98306 0.13261
 H136 H 0.10557 1.00949 0.24327
 H137 H 0.23356 1.06716 0.36423
 H138 H 0.16881 1.01336 0.32078
 C139 C -0.28042 1.01450 0.30132
 C140 C -0.32701 0.98060 0.30582
 C141 C -0.35944 0.98365 0.35354
 C142 C -0.34640 1.02105 0.39674
 C143 C -0.29911 1.05402 0.39011
 N144 N -0.26803 1.04981 0.34364
 C145 C -0.24193 1.01084 0.25396
 N146 N -0.18881 1.02608 0.26262
 C147 C -0.15025 1.02377 0.22217
 C148 C -0.16423 1.00565 0.16856
 C149 C -0.21906 0.99072 0.15809
 C150 C -0.25801 0.99299 0.20074
 H151 H -0.39339 0.95496 0.35754
 H152 H -0.28715 1.08392 0.42148
 H153 H -0.10871 1.03648 0.23206
 H154 H -0.23163 0.97675 0.11727
 H155 H -0.33716 0.95045 0.27409
 H156 H -0.30012 0.98168 0.19182
 C157 C -0.26547 1.02250 -0.31221
 C158 C -0.25884 1.06175 -0.35462
 C159 C -0.29469 1.06185 -0.39977
 C160 C -0.33836 1.02374 -0.40290
 C161 C -0.34370 0.98531 -0.35910
 N162 N -0.30782 0.98579 -0.31556
 C163 C -0.22625 1.01931 -0.26507
 N164 N -0.24364 1.00169 -0.21438
 C165 C -0.20897 0.99751 -0.16995
 C166 C -0.15300 1.01055 -0.17557
 C167 C -0.13442 1.02836 -0.22762
 C168 C -0.17066 1.03278 -0.27218
 H169 H -0.28892 1.09280 -0.43184
 H170 H -0.37499 0.95346 -0.36047
 H171 H -0.22490 0.98316 -0.13068
 H172 H -0.09167 1.03894 -0.23406
 H173 H -0.22653 1.09251 -0.35290
 H174 H -0.15481 1.04542 -0.31206
 C175 C 0.29658 0.99497 -0.29539
 C176 C 0.33907 0.95601 -0.30379
 C177 C 0.37166 0.95972 -0.35138
 C178 C 0.36264 1.00268 -0.38984
 C179 C 0.32021 1.04098 -0.37945
 N180 N 0.28851 1.03595 -0.33353
 C181 C 0.25750 0.99101 -0.24866
 N182 N 0.20574 1.01129 -0.25635
 C183 C 0.16688 1.00969 -0.21621
 C184 C 0.17921 0.98727 -0.16384
 C185 C 0.23263 0.96682 -0.15438
 C186 C 0.27184 0.96822 -0.19685
 H187 H 0.40321 0.92862 -0.35874
 H188 H 0.31173 1.07440 -0.40836
 H189 H 0.12653 1.02674 -0.22520
 H190 H 0.24389 0.94948 -0.11447
 H191 H 0.34577 0.92193 -0.27524
 H192 H 0.31295 0.95267 -0.18884
 C193 C 0.29858 1.28998 0.00038
 C194 C 0.33464 1.29681 -0.04448
 C195 C 0.36652 1.34493 -0.04774
 C196 C 0.36332 1.38539 -0.00588
 C197 C 0.32722 1.37670 0.03838
 N198 N 0.29585 1.33018 0.04012
 C199 C 0.26013 1.24276 0.00357
 N200 N 0.21030 1.25135 0.02768
 C201 C 0.17159 1.21098 0.03046
 C202 C 0.18219 1.15793 0.00844
 C203 C 0.23395 1.14742 -0.01502
 C204 C 0.27296 1.18987 -0.01786
 H205 H 0.39296 1.35109 -0.08322
 H206 H 0.32328 1.40744 0.07103
 H207 H 0.13242 1.22055 0.04953
 H208 H 0.24364 1.10699 -0.03247
 H209 H 0.33660 1.26657 -0.07773
 H210 H 0.31258 1.18130 -0.03638
 C211 C 0.27665 0.67677 -0.00915
 C212 C 0.26835 0.63304 -0.04679
 C213 C 0.30512 0.58850 -0.04794
 C214 C 0.35121 0.58739 -0.01252
 C215 C 0.35794 0.63226 0.02462
 N216 N 0.32123 0.67525 0.02513
 C217 C 0.23734 0.72380 -0.00555
 N218 N 0.25556 0.77546 0.00869
 C219 C 0.22108 0.82024 0.01207
 C220 C 0.16459 0.81408 0.00138
 C221 C 0.14512 0.76089 -0.01245
 C222 C 0.18114 0.71590 -0.01588
 H223 H 0.29817 0.55539 -0.07769
 H224 H 0.39116 0.63225 0.05462
 H225 H 0.23779 0.86039 0.02329
 H226 H 0.10194 0.75389 -0.02099
 H227 H 0.23414 0.63337 -0.07563
 H228 H 0.16483 0.67523 -0.02574
 C229 C -0.28392 0.70151 -0.00532
 C230 C -0.31949 0.69295 -0.05053
 C231 C -0.35140 0.64475 -0.05257
 C232 C -0.34883 0.60613 -0.00907
 C233 C -0.31317 0.61655 0.03546
 N234 N -0.28168 0.66301 0.03596
 C235 C -0.24523 0.74852 -0.00326
 N236 N -0.19533 0.74008 0.02097
 C237 C -0.15654 0.78033 0.02349
 C238 C -0.16713 0.83328 0.00135
 C239 C -0.21888 0.84356 -0.02266
 C240 C -0.25796 0.80109 -0.02544
 H241 H -0.37744 0.63713 -0.08829
 H242 H -0.30966 0.58723 0.06934
 H243 H -0.11736 0.77070 0.04258
 H244 H -0.22860 0.88387 -0.04031
 H245 H -0.32100 0.72186 -0.08488
 H246 H -0.29764 0.80941 -0.04424
 C247 C -0.26335 1.31249 -0.01702
 C248 C -0.26455 1.35073 -0.06096
 C249 C -0.30132 1.39539 -0.05936
 C250 C -0.33694 1.40199 -0.01428
 C251 C -0.33468 1.36284 0.02877
 N252 N -0.29869 1.31935 0.02619
 C253 C -0.22395 1.26551 -0.01637
 N254 N -0.23892 1.21620 0.00676
 C255 C -0.20404 1.17177 0.00933
 C256 C -0.15022 1.17610 -0.01101
 C257 C -0.13390 1.22672 -0.03454
 C258 C -0.17064 1.27132 -0.03757
 H259 H -0.30191 1.42500 -0.09318
 H260 H -0.36114 1.36717 0.06454
 H261 H -0.21800 1.13359 0.02829
 H262 H -0.09274 1.23183 -0.05068
 H263 H -0.23769 1.34600 -0.09637
 H264 H -0.15694 1.31029 -0.05509
 C265 C -0.01241 1.30668 0.27914
 C266 C -0.04874 1.34964 0.26443
 C267 C -0.05535 1.39508 0.29953
 C268 C -0.02623 1.39817 0.34998
 C269 C 0.00937 1.35350 0.36338
 N270 N 0.01518 1.30946 0.32821
 C271 C -0.00231 1.26013 0.24059
 N272 N 0.00091 1.20678 0.25951
 C273 C 0.00697 1.16261 0.22440
 C274 C 0.01007 1.17127 0.16684
 C275 C 0.00902 1.22634 0.14727
 C276 C 0.00275 1.27054 0.18380
 H277 H -0.08420 1.42743 0.28749
 H278 H 0.03449 1.35466 0.40050
 H279 H 0.00818 1.12093 0.24133
 H280 H 0.01184 1.23558 0.10345
 H281 H -0.07194 1.34809 0.22604
 H282 H 0.00159 1.31259 0.16769
 C283 C -0.02205 1.29927 -0.27956
 C284 C -0.06053 1.34078 -0.26635
 C285 C -0.06628 1.38690 -0.30059
 C286 C -0.03436 1.39197 -0.34882
 C287 C 0.00263 1.34825 -0.36138
 N288 N 0.00789 1.30374 -0.32684
 C289 C -0.01094 1.25358 -0.24031
 N290 N -0.00326 1.20038 -0.25863
 C291 C 0.00530 1.15716 -0.22290
 C292 C 0.00683 1.16678 -0.16537
 C293 C 0.00082 1.22184 -0.14642
 C294 C -0.00816 1.26494 -0.18349
 H295 H -0.09613 1.41860 -0.28941
 H296 H 0.02963 1.35087 -0.39684
 H297 H 0.01007 1.11548 -0.23934
 H298 H 0.00203 1.23188 -0.10265
 H299 H -0.08550 1.33793 -0.22938
 H300 H -0.01274 1.30697 -0.16777
 C301 C -0.01806 0.68425 -0.27358
 C302 C -0.05695 0.64327 -0.26137
 C303 C -0.06280 0.59771 -0.29646
 C304 C -0.03055 0.59270 -0.34453
 C305 C 0.00769 0.63530 -0.35541
 N306 N 0.01277 0.67942 -0.32028
 C307 C -0.00864 0.73071 -0.23474
 N308 N -0.00012 0.78333 -0.25388
 C309 C 0.00630 0.82751 -0.21884
 C310 C 0.00437 0.81962 -0.16112
 C311 C -0.00237 0.76513 -0.14116
 C312 C -0.00893 0.72096 -0.17759
 H313 H -0.09342 0.56677 -0.28638
 H314 H 0.03522 0.63242 -0.39047
 H315 H 0.01197 0.86865 -0.23605
 H316 H -0.00353 0.75636 -0.09715
 H317 H -0.08269 0.64641 -0.22495
 H318 H -0.01417 0.67943 -0.16112
 C319 C -0.03328 0.69450 0.28652
 C320 C -0.07738 0.65714 0.28325
 C321 C -0.07769 0.61031 0.31708
 C322 C -0.03450 0.60087 0.35444
 C323 C 0.00804 0.64000 0.35784
 N324 N 0.00768 0.68536 0.32412
 C325 C -0.02864 0.74078 0.24680
 N326 N -0.00727 0.79058 0.26307
 C327 C -0.00074 0.83363 0.22695
 C328 C -0.01477 0.82697 0.17077
 C329 C -0.03621 0.77564 0.15353
 C330 C -0.04348 0.73282 0.19123
 H331 H -0.11119 0.58094 0.31363
 H332 H 0.04208 0.63370 0.38624
 H333 H 0.01639 0.87240 0.24181
 H334 H -0.04714 0.76830 0.11064
 H335 H -0.11092 0.66368 0.25428
 H336 H -0.05906 0.69328 0.17658
   
