data_POSCAR
  _audit_creation_date              2014-09-24
  _audit_creation_method            'ToBaCCo'
  _symmetry_space_group_name_H-M    'P1'
  _symmetry_Int_Tables_number       1
  _symmetry_cell_setting            triclinic
  loop_
  _symmetry_equiv_pos_as_xyz
 x,y,z
_cell_length_a 28.8937
_cell_length_b 28.8371
_cell_length_c 28.8296
_cell_angle_alpha 90.110700
_cell_angle_beta 89.944900
_cell_angle_gamma 90.240400
loop_
  _atom_site_label
  _atom_site_type_symbol
  _atom_site_fract_x
  _atom_site_fract_y
  _atom_site_fract_z
C1 C 0.18024 0.17856 0.23926
 N2 N 0.16191 0.21756 0.22046
 C3 C 0.17756 0.23402 0.17916
 N4 N 0.21031 0.20995 0.15531
 C5 C 0.22725 0.16941 0.17241
 N6 N 0.21236 0.15474 0.21462
 C7 C -0.16582 0.84219 0.22347
 N8 N -0.14516 0.80342 0.20620
 C9 C -0.16191 0.78231 0.16739
 N10 N -0.19978 0.79979 0.14593
 C11 C -0.22096 0.83821 0.16263
 N12 N -0.20446 0.85790 0.20208
 C13 C -0.16498 0.16370 -0.21582
 N14 N -0.20652 0.14558 -0.20348
 C15 C -0.23225 0.16444 -0.16892
 N16 N -0.21423 0.20136 -0.14531
 C17 C -0.17200 0.21909 -0.15656
 N18 N -0.14810 0.20090 -0.19270
 C19 C 0.16188 0.83428 -0.22236
 N20 N 0.14382 0.79306 -0.20818
 C21 C 0.16066 0.77129 -0.17025
 N22 N 0.19698 0.78996 -0.14714
 C23 C 0.21588 0.83100 -0.16037
 N24 N 0.19848 0.85247 -0.19866
 C25 C 0.17675 1.17199 0.77004
 N26 N 0.20885 1.14781 0.79432
 C27 C 0.22154 1.16140 0.83738
 N28 N 0.20222 1.19961 0.85620
 C29 C 0.17050 1.22508 0.83299
 N30 N 0.15699 1.21016 0.79005
 C31 C 0.83115 0.83485 0.78094
 N32 N 0.85175 0.79791 0.80161
 C33 C 0.83076 0.77535 0.83722
 N34 N 0.78834 0.78917 0.85177
 C35 C 0.76644 0.82479 0.83045
 N36 N 0.78800 0.84747 0.79516
 C37 C 0.15150 0.83858 1.21751
 N38 N 0.13618 0.79916 1.19676
 C39 C 0.15506 0.78324 1.15675
 N40 N 0.19230 0.80571 1.13862
 C41 C 0.21006 0.84360 1.16039
 N42 N 0.18973 0.85987 1.19970
 C43 C 0.82944 1.17385 1.23225
 N44 N 0.79035 1.15410 1.21442
 C45 C 0.77410 1.16723 1.17205
 N46 N 0.79659 1.20088 1.14772
 C47 C 0.83669 1.21948 1.16417
 N48 N 0.85233 1.20535 1.20599
 N49 N 0.54515 1.07441 0.95246
 N50 N 0.58268 1.09998 0.94606
 N51 N 0.44531 1.04263 0.92448
 N52 N 0.40675 1.04515 0.90021
 N53 N 0.44728 1.07594 0.95554
 N54 N 0.41001 1.10217 0.95306
 N55 N 0.54227 1.04218 0.92043
 N56 N 0.57721 1.04547 0.89129
 C57 C 0.60266 1.08136 0.90762
 C58 C 0.38502 1.08233 0.91854
 N59 N 0.44580 0.91119 0.95805
 N60 N 0.40971 0.88337 0.95502
 N61 N 0.54163 0.94245 0.92224
 N62 N 0.57517 0.93538 0.89193
 N63 N 0.54259 0.91090 0.95499
 N64 N 0.57657 0.88131 0.94768
 N65 N 0.44399 0.94327 0.92603
 N66 N 0.40601 0.93846 0.90097
 Mn67 Mn 0.49324 0.99269 0.92273
 C68 C 0.38460 0.90091 0.91971
 C69 C 0.59641 0.89685 0.90803
 N70 N 0.45015 1.07798 1.05518
 N71 N 0.41209 1.10309 1.05790
 N72 N 0.54837 1.04530 1.08520
 N73 N 0.58546 1.04968 1.11154
 N74 N 0.54814 1.07702 1.05260
 N75 N 0.58509 1.10403 1.05608
 N76 N 0.45075 1.04660 1.08812
 N77 N 0.41338 1.05007 1.11431
 Mn78 Mn 0.49781 1.07706 1.00392
 C79 C 0.38924 1.08526 1.09493
 C80 C 0.60818 1.08629 1.09290
 N81 N 0.54534 0.91285 1.05491
 N82 N 0.58279 0.88701 1.05665
 N83 N 0.44966 0.94638 1.08971
 N84 N 0.41247 0.94451 1.11630
 N85 N 0.44806 0.91390 1.05769
 N86 N 0.40949 0.88952 1.06131
 N87 N 0.54707 0.94578 1.08637
 N88 N 0.58607 0.94341 1.11001
 Mn89 Mn 0.49550 0.91167 1.00654
 Mn90 Mn 0.49895 0.99601 1.08798
 Cl91 Cl 0.49641 0.99438 1.00531
 C92 C 0.60809 0.90664 1.09093
 C93 C 0.38803 0.90869 1.09831
 N94 N 0.04834 0.45146 0.08450
 N95 N 0.05624 0.41843 0.11508
 N96 N 0.07989 0.54805 0.04812
 N97 N 0.10597 0.58573 0.04907
 N98 N 0.04925 0.54893 0.08177
 N99 N 0.05364 0.58730 0.10640
 N100 N 0.07911 0.45022 0.05097
 N101 N 0.10852 0.41591 0.05761
 C102 C 0.09383 0.39652 0.09780
 C103 C 0.08906 0.61000 0.08552
 N104 N 0.04272 0.54340 -0.08283
 N105 N 0.04587 0.57910 -0.11121
 N106 N 0.07532 0.44784 -0.04873
 N107 N 0.10278 0.41188 -0.05264
 N108 N 0.04154 0.44531 -0.07900
 N109 N 0.04499 0.40671 -0.10381
 N110 N 0.07593 0.54478 -0.05180
 N111 N 0.10280 0.58130 -0.05845
 Mn112 Mn 0.07811 0.49780 -0.00038
 C113 C 0.08343 0.60242 -0.09550
 C114 C 0.08340 0.38584 -0.08649
 N115 N -0.04989 0.54979 0.08604
 N116 N -0.05157 0.58757 0.11186
 N117 N -0.08482 0.45164 0.05709
 N118 N -0.10841 0.41241 0.05904
 N119 N -0.05157 0.45189 0.08812
 N120 N -0.05224 0.41295 0.11219
 N121 N -0.08331 0.54965 0.05526
 N122 N -0.10886 0.58731 0.05952
 Mn123 Mn -0.00102 0.50045 0.08570
 C124 C -0.08843 0.61071 0.09485
 C125 C -0.08780 0.38843 0.09357
 N126 N -0.05802 0.44747 -0.07516
 N127 N -0.06271 0.40912 -0.09964
 N128 N -0.08714 0.54691 -0.04469
 N129 N -0.11221 0.58492 -0.04773
 N130 N -0.05669 0.54505 -0.07852
 N131 N -0.06032 0.58187 -0.10545
 N132 N -0.08930 0.44943 -0.04219
 N133 N -0.11637 0.41247 -0.04350
 Mn134 Mn -0.00767 0.49518 -0.07955
 Mn135 Mn -0.08677 0.49953 0.00644
 Cl136 Cl -0.00431 0.49826 0.00303
 C137 C -0.09922 0.38774 -0.07945
 C138 C -0.09501 0.60649 -0.08570
 N139 N 1.04149 -0.08296 0.45304
 N140 N 1.04337 -0.11125 0.41722
 N141 N 1.07952 -0.05191 0.54849
 N142 N 1.10696 -0.05541 0.58477
 N143 N 1.04579 -0.08248 0.55068
 N144 N 1.04940 -0.10750 0.58885
 N145 N 1.07522 -0.05248 0.45119
 N146 N 1.10110 -0.05978 0.41408
 C147 C 1.08091 -0.09699 0.39311
 C148 C 1.08768 -0.09000 0.60984
 N149 N 1.05354 0.08125 0.55045
 N150 N 1.06370 0.11126 0.58349
 N151 N 1.07989 0.04765 0.45137
 N152 N 1.11088 0.05517 0.41863
 N153 N 1.05028 0.08201 0.45347
 N154 N 1.06087 0.11406 0.42245
 N155 N 1.08404 0.04772 0.54912
 N156 N 1.11543 0.05383 0.58187
 Mn157 Mn 1.08022 -0.00233 0.49991
 C158 C 1.10264 0.09397 0.60281
 C159 C 1.09897 0.09689 0.40100
 N160 N 0.94613 -0.07858 0.55429
 N161 N 0.94243 -0.10517 0.59129
 N162 N 0.91230 -0.04472 0.45771
 N163 N 0.88381 -0.04748 0.42221
 N164 N 0.94208 -0.07886 0.45673
 N165 N 0.93413 -0.10589 0.42049
 N166 N 0.91539 -0.04520 0.55543
 N167 N 0.89000 -0.04821 0.59348
 Mn168 Mn 0.99389 -0.08135 0.50372
 C169 C 0.90749 -0.08568 0.61565
 C170 C 0.89714 -0.08609 0.39927
 N171 N 0.95065 0.08610 0.45770
 N172 N 0.94720 0.11383 0.42175
 N173 N 0.92044 0.05426 0.55543
 N174 N 0.89635 0.05735 0.59415
 N175 N 0.95407 0.08504 0.55499
 N176 N 0.95350 0.11016 0.59337
 N177 N 0.91750 0.05492 0.45720
 N178 N 0.89108 0.06051 0.42014
 Mn179 Mn 1.00201 0.08410 0.50421
 Mn180 Mn 0.91575 0.00490 0.50636
 Cl181 Cl 0.99800 0.00130 0.50354
 C182 C 0.91023 0.09760 0.39806
 C183 C 0.91731 0.09231 0.61742
 C184 C 1.19281 0.13554 0.31365
 C185 C 1.16471 0.16215 0.28281
 C186 C 1.11882 0.17159 0.29586
 C187 C 1.09901 0.15094 0.33466
 C188 C 1.12435 0.12105 0.36303
 C189 C 1.17247 0.11510 0.35412
 C190 C 1.24138 0.13193 0.30756
 C191 C 1.26854 0.10692 0.33843
 C192 C 1.24869 0.08676 0.37729
 C193 C 1.20153 0.09156 0.38573
 H194 H 1.25977 0.15008 0.28054
 H195 H 1.30553 0.10451 0.33295
 H196 H 1.27026 0.06860 0.40194
 H197 H 1.18920 0.07832 0.41839
 H198 H 1.09670 0.19269 0.27418
 H199 H 1.06277 0.15715 0.34152
 C200 C 0.83465 -0.09189 0.28078
 C201 C 0.85112 -0.13574 0.26428
 C202 C 0.88318 -0.15965 0.29187
 C203 C 0.89643 -0.14305 0.33518
 C204 C 0.87721 -0.10272 0.35422
 C205 C 0.84354 -0.07811 0.32769
 C206 C 0.81100 -0.06023 0.25170
 C207 C 0.78927 -0.02127 0.26986
 C208 C 0.79114 -0.01248 0.31707
 C209 C 0.81834 -0.04003 0.34571
 H210 H 0.81027 -0.06388 0.21449
 H211 H 0.77034 0.00184 0.24729
 H212 H 0.77226 0.01654 0.33145
 H213 H 0.81734 -0.03152 0.38195
 H214 H 0.89780 -0.19231 0.28058
 H215 H 0.92170 -0.16278 0.35445
 C216 C 0.86999 0.09571 0.74121
 C217 C 0.86096 0.14382 0.74494
 C218 C 0.87573 0.17383 0.70973
 C219 C 0.89598 0.15657 0.66947
 C220 C 0.90209 0.10886 0.66336
 C221 C 0.89100 0.07806 0.70012
 C222 C 0.85998 0.06497 0.77803
 C223 C 0.87041 0.01801 0.77445
 C224 C 0.89152 0.00092 0.73466
 C225 C 0.90181 0.03039 0.69774
 H226 H 0.84527 0.07693 0.81037
 H227 H 0.86291 -0.00510 0.80306
 H228 H 0.90069 -0.03521 0.73290
 H229 H 0.91954 0.01569 0.66817
 H230 H 0.86970 0.21079 0.71254
 H231 H 0.90499 0.18053 0.64196
 C232 C 1.14250 -0.09410 0.73158
 C233 C 1.14266 -0.14332 0.73849
 C234 C 1.12136 -0.17169 0.70480
 C235 C 1.10371 -0.15353 0.66401
 C236 C 1.10553 -0.10605 0.65516
 C237 C 1.12354 -0.07555 0.68960
 C238 C 1.15666 -0.06242 0.76658
 C239 C 1.15451 -0.01468 0.75967
 C240 C 1.13651 0.00301 0.71890
 C241 C 1.12042 -0.02685 0.68456
 H242 H 1.16746 -0.07323 0.80056
 H243 H 1.16548 0.00889 0.78676
 H244 H 1.13357 0.04013 0.71452
 H245 H 1.10390 -0.01095 0.65516
 H246 H 1.11990 -0.20902 0.70886
 H247 H 1.08918 -0.17716 0.63858
 C248 C 0.26938 1.09586 1.15406
 C249 C 0.26207 1.14454 1.14840
 C250 C 0.29259 1.16933 1.11961
 C251 C 0.33255 1.14892 1.10208
 C252 C 0.34342 1.10255 1.11149
 C253 C 0.31038 1.07482 1.13569
 C254 C 0.23528 1.06678 1.17441
 C255 C 0.24262 1.01949 1.17991
 C256 C 0.28286 0.99946 1.16331
 C257 C 0.31573 1.02630 1.14025
 H258 H 0.20164 1.07939 1.18446
 H259 H 0.21633 0.99802 1.19601
 H260 H 0.28791 0.96259 1.16713
 H261 H 0.34405 1.00786 1.12475
 H262 H 0.28756 1.20597 1.11315
 H263 H 0.35626 1.17046 1.08241
 C264 C 0.26551 0.83867 0.91102
 C265 C 0.25398 0.85032 0.86411
 C266 C 0.28329 0.88097 0.84013
 C267 C 0.32467 0.89636 0.85922
 C268 C 0.33900 0.88249 0.90346
 C269 C 0.30895 0.85346 0.93026
 C270 C 0.23383 0.81526 0.94056
 C271 C 0.24624 0.80182 0.98511
 C272 C 0.28914 0.81356 1.00266
 C273 C 0.31965 0.83990 0.97631
 H274 H 0.19843 0.80863 0.93096
 H275 H 0.22218 0.78294 1.00669
 H276 H 0.29817 0.80381 1.03776
 H277 H 0.35043 0.85000 0.99424
 H278 H 0.27549 0.89179 0.80503
 H279 H 0.34625 0.91897 0.83833
 C280 C 0.73055 0.85450 1.09226
 C281 C 0.73946 0.85690 1.14105
 C282 C 0.70724 0.87961 1.16969
 C283 C 0.66550 0.89550 1.15243
 C284 C 0.65443 0.89073 1.10556
 C285 C 0.68776 0.87195 1.07450
 C286 C 0.76439 0.83921 1.06005
 C287 C 0.75560 0.83890 1.01255
 C288 C 0.71402 0.85548 0.99558
 C289 C 0.68083 0.87271 1.02591
 H290 H 0.79881 0.82940 1.07027
 H291 H 0.78177 0.82717 0.98850
 H292 H 0.70810 0.85636 0.95856
 H293 H 0.65087 0.88827 1.01026
 H294 H 0.71307 0.88319 1.20666
 H295 H 0.64107 0.91090 1.17643
 C296 C 0.70346 1.10525 0.82225
 C297 C 0.72460 1.14446 0.84468
 C298 C 0.70323 1.16179 0.88502
 C299 C 0.66453 1.14058 0.90424
 C300 C 0.64610 1.09956 0.88576
 C301 C 0.66763 1.07993 0.84567
 C302 C 0.71580 1.09057 0.77690
 C303 C 0.70036 1.04840 0.75907
 C304 C 0.67160 1.02025 0.78534
 C305 C 0.65501 1.03582 0.82790
 H306 H 0.73564 1.11185 0.75348
 H307 H 0.71112 1.03736 0.72482
 H308 H 0.66112 0.98661 0.77220
 H309 H 0.63365 1.01177 0.84663
 H310 H 0.71661 1.19214 0.90277
 H311 H 0.64927 1.15649 0.93466
 C312 C 0.15469 0.31892 0.18647
 C313 C 0.15839 0.27748 0.15996
 C314 C 0.14233 0.27688 0.11416
 C315 C 0.12154 0.31577 0.09483
 C316 C 0.11653 0.35670 0.12040
 C317 C 0.13331 0.35875 0.16658
 C318 C 0.17318 0.32231 0.23172
 C319 C 0.16955 0.36329 0.25717
 C320 C 0.14828 0.40190 0.23794
 C321 C 0.13067 0.39997 0.19300
 H322 H 0.19148 0.29391 0.24765
 H323 H 0.18383 0.36526 0.29182
 H324 H 0.14600 0.43374 0.25774
 H325 H 0.11569 0.43128 0.17912
 H326 H 0.14480 0.24556 0.09349
 H327 H 0.10802 0.31340 0.05995
 C328 C -0.10502 0.26125 -0.11791
 C329 C -0.15249 0.25878 -0.13066
 C330 C -0.18163 0.29626 -0.12100
 C331 C -0.16394 0.33721 -0.10252
 C332 C -0.11661 0.34190 -0.09356
 C333 C -0.08684 0.30341 -0.09957
 C334 C -0.07546 0.22246 -0.12170
 C335 C -0.02895 0.22563 -0.10918
 C336 C -0.01112 0.26697 -0.09173
 C337 C -0.03972 0.30542 -0.08645
 H338 H -0.08803 0.18899 -0.13309
 H339 H -0.00678 0.19562 -0.11238
 H340 H 0.02485 0.26902 -0.08142
 H341 H -0.02469 0.33614 -0.07098
 H342 H -0.21805 0.29463 -0.12984
 H343 H -0.18706 0.36624 -0.09721
 C344 C 0.09022 0.72664 -0.14213
 C345 C 0.13826 0.72890 -0.15238
 C346 C 0.16649 0.69089 -0.14248
 C347 C 0.14790 0.65035 -0.12412
 C348 C 0.10046 0.64646 -0.11518
 C349 C 0.07109 0.68494 -0.12346
 C350 C 0.06125 0.76573 -0.14721
 C351 C 0.01470 0.76363 -0.13489
 C352 C -0.00383 0.72310 -0.11671
 C353 C 0.02387 0.68417 -0.11064
 H354 H 0.07422 0.79871 -0.15933
 H355 H -0.00699 0.79390 -0.13851
 H356 H -0.03965 0.72228 -0.10633
 H357 H 0.00808 0.65432 -0.09447
 H358 H 0.20337 0.69257 -0.14919
 H359 H 0.17078 0.62152 -0.11716
 C360 C -0.09232 0.73631 0.13935
 C361 C -0.14033 0.73973 0.14892
 C362 C -0.16954 0.70224 0.13856
 C363 C -0.15195 0.66112 0.12068
 C364 C -0.10453 0.65600 0.11258
 C365 C -0.07421 0.69406 0.12095
 C366 C -0.06231 0.77471 0.14512
 C367 C -0.01573 0.77165 0.13325
 C368 C 0.00174 0.73077 0.11492
 C369 C -0.02694 0.69231 0.10861
 H370 H -0.07451 0.80785 0.15747
 H371 H 0.00674 0.80150 0.13739
 H372 H 0.03753 0.72929 0.10464
 H373 H -0.01191 0.66206 0.09253
 H374 H -0.20643 0.70463 0.14490
 H375 H -0.17561 0.63268 0.11379
 C376 C 1.19282 0.13143 0.69473
 C377 C 1.16313 0.15675 0.72540
 C378 C 1.11744 0.16508 0.71144
 C379 C 1.09940 0.14475 0.67161
 C380 C 1.12639 0.11620 0.64303
 C381 C 1.17425 0.11092 0.65338
 C382 C 1.24130 0.12915 0.70203
 C383 C 1.26995 0.10485 0.67183
 C384 C 1.25171 0.08406 0.63247
 C385 C 1.20474 0.08782 0.62268
 H386 H 1.25839 0.14783 0.72959
 H387 H 1.30682 0.10337 0.67829
 H388 H 1.27440 0.06626 0.60848
 H389 H 1.19375 0.07393 0.58983
 H390 H 1.09412 0.18503 0.73308
 H391 H 1.06316 0.15038 0.66396
 C392 C 0.90207 -0.13800 0.73834
 C393 C 0.85294 -0.14151 0.74377
 C394 C 0.82459 -0.12092 0.70996
 C395 C 0.84310 -0.10246 0.66941
 C396 C 0.89074 -0.10294 0.66114
 C397 C 0.92093 -0.11881 0.69656
 C398 C 0.93292 -0.14868 0.77498
 C399 C 0.98050 -0.14260 0.77006
 C400 C 0.99860 -0.12457 0.72935
 C401 C 0.96937 -0.11238 0.69309
 H402 H 0.92106 -0.15916 0.80886
 H403 H 1.00344 -0.15037 0.79861
 H404 H 1.03538 -0.11837 0.72661
 H405 H 0.98522 -0.09573 0.66358
 H406 H 0.78724 -0.12142 0.71335
 H407 H 0.81964 -0.08903 0.64343
 C408 C 1.08574 -0.16052 0.27471
 C409 C 1.12968 -0.14427 0.25826
 C410 C 1.15369 -0.11169 0.28552
 C411 C 1.13716 -0.09780 0.32859
 C412 C 1.09679 -0.11697 0.34782
 C413 C 1.07178 -0.15086 0.32141
 C414 C 1.05410 -0.18450 0.24559
 C415 C 1.01469 -0.20568 0.26356
 C416 C 1.00540 -0.20289 0.31060
 C417 C 1.03302 -0.17540 0.33922
 H418 H 1.05812 -0.18587 0.20844
 H419 H 0.99157 -0.22483 0.24095
 H420 H 0.97594 -0.22128 0.32486
 H421 H 1.02378 -0.17563 0.37524
 H422 H 1.18640 -0.09712 0.27415
 H423 H 1.15706 -0.07205 0.34746
 C424 C 0.88741 0.18158 0.29674
 C425 C 0.84789 0.15983 0.27580
 C426 C 0.82944 0.12019 0.29753
 C427 C 0.85028 0.10102 0.33659
 C428 C 0.89208 0.11849 0.35419
 C429 C 0.91268 0.15760 0.33178
 C430 C 0.90231 0.22700 0.28493
 C431 C 0.94512 0.24394 0.29930
 C432 C 0.97360 0.21659 0.32644
 C433 C 0.95763 0.17404 0.34282
 H434 H 0.88076 0.25078 0.26594
 H435 H 0.95649 0.27815 0.28872
 H436 H 1.00779 0.22889 0.33583
 H437 H 0.98193 0.15410 0.36254
 H438 H 0.79879 0.10310 0.28407
 H439 H 0.83370 0.07153 0.35283
 C440 C 0.16775 0.28524 -0.10353
 C441 C 0.15147 0.26583 -0.14647
 C442 C 0.11276 0.28676 -0.16751
 C443 C 0.09035 0.32451 -0.14718
 C444 C 0.10367 0.34135 -0.10357
 C445 C 0.14011 0.31852 -0.07971
 C446 C 0.21135 0.27430 -0.08375
 C447 C 0.22242 0.28734 -0.03856
 C448 C 0.19098 0.31239 -0.01234
 C449 C 0.15035 0.32814 -0.03269
 H450 H 0.23850 0.25768 -0.10309
 H451 H 0.25539 0.27761 -0.02374
 H452 H 0.19874 0.32094 0.02340
 H453 H 0.12680 0.34694 -0.01076
 H454 H 0.09947 0.27415 -0.20033
 H455 H 0.06231 0.34076 -0.16593
 C456 C -0.09176 0.26531 0.14623
 C457 C -0.14004 0.25563 0.14048
 C458 C -0.16638 0.28578 0.11308
 C459 C -0.14812 0.32769 0.09767
 C460 C -0.10237 0.34079 0.10756
 C461 C -0.07280 0.30813 0.12956
 C462 C -0.06111 0.23205 0.16513
 C463 C -0.01412 0.24154 0.17024
 C464 C 0.00408 0.28324 0.15459
 C465 C -0.02451 0.31571 0.13351
 H466 H -0.07231 0.19752 0.17432
 H467 H 0.00856 0.21576 0.18513
 H468 H 0.04087 0.28984 0.15748
 H469 H -0.00749 0.34547 0.11883
 H470 H -0.20273 0.27901 0.10662
 H471 H -0.17095 0.35108 0.07938
 C472 C -0.13916 0.73178 -0.09271
 C473 C -0.14701 0.73474 -0.14114
 C474 C -0.13450 0.69764 -0.16980
 C475 C -0.11696 0.65685 -0.15110
 C476 C -0.11139 0.65181 -0.10312
 C477 C -0.12109 0.69002 -0.07345
 C478 C -0.14663 0.77028 -0.06335
 C479 C -0.13640 0.76789 -0.01621
 C480 C -0.11857 0.72742 0.00253
 C481 C -0.11062 0.68891 -0.02558
 H482 H -0.15905 0.80297 -0.07668
 H483 H -0.14144 0.79788 0.00582
 H484 H -0.11003 0.72628 0.03893
 H485 H -0.09467 0.65921 -0.00956
 H486 H -0.13968 0.69973 -0.20696
 H487 H -0.10884 0.62842 -0.17431
 C488 C 0.13295 0.73631 0.08741
 C489 C 0.13739 0.74254 0.13625
 C490 C 0.12230 0.70692 0.16584
 C491 C 0.10747 0.66452 0.14839
 C492 C 0.10598 0.65614 0.10064
 C493 C 0.11733 0.69264 0.06945
 C494 C 0.13808 0.77396 0.05642
 C495 C 0.12978 0.76856 0.00918
 C496 C 0.11648 0.72577 -0.00841
 C497 C 0.10971 0.68827 0.02119
 H498 H 0.14620 0.80853 0.06828
 H499 H 0.13317 0.79797 -0.01385
 H500 H 0.11001 0.72209 -0.04506
 H501 H 0.09642 0.65686 0.00578
 H502 H 0.12387 0.71101 0.20320
 H503 H 0.09753 0.63763 0.17269
 C504 C 0.26178 1.09056 0.87030
 C505 C 0.26044 1.13879 0.86121
 C506 C 0.29771 1.16695 0.87455
 C507 C 0.33698 1.14799 0.89455
 C508 C 0.34036 1.10020 0.90170
 C509 C 0.30202 1.07104 0.89107
 C510 C 0.22340 1.06163 0.86079
 C511 C 0.22446 1.01461 0.87185
 C512 C 0.26345 0.99563 0.89253
 C513 C 0.30192 1.02335 0.90221
 H514 H 0.19194 1.07521 0.84586
 H515 H 0.19458 0.99287 0.86512
 H516 H 0.26347 0.95935 0.90184
 H517 H 0.33072 1.00728 0.91974
 H518 H 0.29714 1.20391 0.86794
 H519 H 0.36574 1.17074 0.90293
 C520 C 0.25758 0.88748 1.10091
 C521 C 0.25379 0.86414 1.14391
 C522 C 0.29309 0.85858 1.17170
 C523 C 0.33630 0.87396 1.15666
 C524 C 0.34123 0.89562 1.11362
 C525 C 0.30167 0.90395 1.08591
 C526 C 0.21840 0.89587 1.07305
 C527 C 0.22252 0.92041 1.03159
 C528 C 0.26545 0.93739 1.01747
 C529 C 0.30476 0.92935 1.04422
 H530 H 0.18429 0.88424 1.08342
 H531 H 0.19219 0.92672 1.01056
 H532 H 0.26835 0.95693 0.98566
 H533 H 0.33739 0.94334 1.03206
 H534 H 0.29048 0.84103 1.20480
 H535 H 0.36628 0.86810 1.17839
 C536 C 0.73086 1.09575 1.14343
 C537 C 0.73295 1.14429 1.15159
 C538 C 0.69604 1.17223 1.13749
 C539 C 0.65645 1.15283 1.11765
 C540 C 0.65256 1.10486 1.11100
 C541 C 0.69050 1.07591 1.12263
 C542 C 0.76882 1.06671 1.15352
 C543 C 0.76728 1.01952 1.14317
 C544 C 0.72833 1.00035 1.12223
 C545 C 0.69026 1.02804 1.11199
 H546 H 0.80047 1.08016 1.16838
 H547 H 0.79683 0.99784 1.15065
 H548 H 0.72800 0.96398 1.11311
 H549 H 0.66150 1.01173 1.09434
 H550 H 0.69758 1.20944 1.14258
 H551 H 0.62811 1.17546 1.10834
 C552 C 0.68418 0.80952 0.85940
 C553 C 0.72057 0.84058 0.84724
 C554 C 0.71382 0.88838 0.85254
 C555 C 0.67309 0.90564 0.87152
 C556 C 0.63760 0.87581 0.88597
 C557 C 0.64248 0.82728 0.87920
 C558 C 0.68746 0.76138 0.85074
 C559 C 0.65142 0.73138 0.86257
 C560 C 0.61104 0.74862 0.88219
 C561 C 0.60623 0.79606 0.88999
 H562 H 0.71713 0.74637 0.83369
 H563 H 0.65456 0.69459 0.85575
 H564 H 0.58292 0.72519 0.89064
 H565 H 0.57343 0.80778 0.90349
 H566 H 0.74099 0.91267 0.84324
 H567 H 0.66995 0.94271 0.87645
   
