data_POSCAR
  _audit_creation_date              2014-09-24
  _audit_creation_method            'ToBaCCo'
  _symmetry_space_group_name_H-M    'P1'
  _symmetry_Int_Tables_number       1
  _symmetry_cell_setting            triclinic
  loop_
  _symmetry_equiv_pos_as_xyz
 x,y,z
_cell_length_a 20.4665
_cell_length_b 20.4908
_cell_length_c 52.8397
_cell_angle_alpha 89.995600
_cell_angle_beta 90.077100
_cell_angle_gamma 119.930000
loop_
  _atom_site_label
  _atom_site_type_symbol
  _atom_site_fract_x
  _atom_site_fract_y
  _atom_site_fract_z
C1 C -0.07151 -0.08249 0.48049
 C2 C -0.02061 -0.04290 0.50007
 C3 C -0.00933 -0.08247 0.51966
 C4 C -0.04808 -0.16133 0.51953
 C5 C -0.09962 -0.20075 0.50009
 C6 C -0.11170 -0.16135 0.48064
 C7 C 0.02080 0.03992 0.50008
 C8 C 0.00907 0.07958 0.51951
 C9 C 0.04777 0.15838 0.51936
 C10 C 0.09969 0.19772 0.50009
 C11 C 0.11223 0.15830 0.48081
 C12 C 0.07214 0.07949 0.48065
 H13 H -0.08032 -0.05178 0.46540
 H14 H 0.03022 -0.05174 0.53475
 H15 H -0.03076 0.04909 0.53451
 H16 H 0.08145 0.04894 0.46565
 H17 H -0.13023 -0.26190 0.50009
 H18 H 0.13022 0.25880 0.50009
 C19 C 1.08267 0.00925 0.14674
 C20 C 1.04319 0.02065 0.16631
 C21 C 1.08299 0.07164 0.18583
 C22 C 1.16187 0.11174 0.18563
 C23 C 1.20121 0.09958 0.16622
 C24 C 1.16164 0.04797 0.14683
 C25 C 0.96029 -0.02070 0.16637
 C26 C 0.92086 -0.07167 0.18590
 C27 C 0.84197 -0.11164 0.18582
 C28 C 0.80230 -0.09936 0.16652
 C29 C 0.84151 -0.04781 0.14714
 C30 C 0.92040 -0.00922 0.14691
 H31 H 1.05181 -0.03037 0.13169
 H32 H 1.05255 0.08068 0.20093
 H33 H 0.95159 -0.08077 0.20092
 H34 H 0.95078 0.03033 0.13184
 H35 H 1.26239 0.13026 0.16625
 H36 H 0.74115 -0.12980 0.16658
 C37 C 0.07012 0.99069 0.85352
 C38 C 0.01889 0.97926 0.83402
 C39 C 0.00744 0.92827 0.81448
 C40 C 0.04630 0.88821 0.81458
 C41 C 0.09812 0.90039 0.83392
 C42 C 0.11043 0.95200 0.85333
 C43 C -0.02257 1.02074 0.83401
 C44 C -0.01109 1.07181 0.81450
 C45 C -0.04989 1.11192 0.81460
 C46 C -0.10169 1.09971 0.83390
 C47 C -0.11403 1.04802 0.85327
 C48 C -0.07377 1.00927 0.85347
 H49 H 0.07910 1.03034 0.86857
 H50 H -0.03227 0.91924 0.79942
 H51 H 0.02862 1.08087 0.79948
 H52 H -0.08277 0.96958 0.86850
 H53 H 0.12871 0.86978 0.83382
 H54 H -0.13223 1.13038 0.83379
 O55 O 0.59507 0.06684 -0.02465
 O56 O 0.46920 0.06684 0.02398
 O57 O 0.59184 0.05793 0.02461
 O58 O 0.46339 0.05772 -0.02528
 O59 O 0.40235 -0.06641 -0.02458
 O60 O 0.52904 -0.06621 0.02390
 O61 O 0.40643 -0.05729 0.02470
 O62 O 0.53403 -0.05729 -0.02535
 Cu63 Cu 0.53596 0.07453 -0.00034
 Cu64 Cu 0.46186 -0.07400 -0.00034
 C65 C 0.58674 0.00569 -0.03348
 C66 C 0.41659 0.00569 0.03283
 C67 C 0.58182 -0.00502 0.03272
 C68 C 0.41056 -0.00529 -0.03339
 O69 O -0.06783 0.53002 0.64217
 O70 O -0.06800 0.40400 0.69080
 O71 O -0.05914 0.53533 0.69146
 O72 O -0.05892 0.40748 0.64156
 O73 O 0.06536 0.47029 0.64238
 O74 O 0.06514 0.59650 0.69085
 O75 O 0.05628 0.46516 0.69164
 O76 O 0.05646 0.59281 0.64158
 Cu77 Cu -0.07569 0.46312 0.66648
 Cu78 Cu 0.07303 0.53728 0.66662
 C79 C -0.00656 0.58268 0.63339
 C80 C -0.00679 0.41243 0.69972
 C81 C 0.00387 0.58808 0.69963
 C82 C 0.00417 0.41757 0.63351
 O83 O 0.59882 0.52985 0.35802
 O84 O 0.47286 0.40389 0.30936
 O85 O 0.59520 0.53522 0.30874
 O86 O 0.46744 0.40733 0.35862
 O87 O 0.40596 0.47019 0.35790
 O88 O 0.53204 0.59640 0.30945
 O89 O 0.40968 0.46506 0.30863
 O90 O 0.53731 0.59268 0.35871
 Cu91 Cu 0.53972 0.46299 0.33369
 Cu92 Cu 0.46511 0.53717 0.33368
 C93 C 0.59024 0.58253 0.36685
 C94 C 0.42003 0.41233 0.30050
 C95 C 0.58487 0.58799 0.30062
 C96 C 0.41449 0.41744 0.36671
 C97 C 0.01860 0.27865 0.57538
 C98 C 0.08381 0.33580 0.58673
 C99 C 0.07861 0.38035 0.60566
 C100 C 0.03484 0.19904 0.53909
 C101 C -0.05769 0.31062 0.60224
 C102 C -0.05228 0.26590 0.58318
 C103 C 0.02575 0.23428 0.55562
 C104 C 0.00788 0.36854 0.61363
 H105 H 0.13891 0.34619 0.58085
 H106 H 0.13029 0.42432 0.61400
 H107 H -0.11288 0.30018 0.60795
 H108 H -0.10318 0.22173 0.57449
 C109 C 0.72277 0.74026 0.24220
 C110 C 0.73562 0.68222 0.25001
 C111 C 0.69130 0.63250 0.26919
 C112 C 0.80159 0.83523 0.20566
 C113 C 0.62180 0.69933 0.27271
 C114 C 0.66596 0.74868 0.25366
 C115 C 0.76668 0.79130 0.22230
 C116 C 0.63367 0.64046 0.28068
 H117 H 0.77953 0.67521 0.24123
 H118 H 0.70177 0.58778 0.27490
 H119 H 0.57806 0.70728 0.28112
 H120 H 0.65551 0.79333 0.24778
 C121 C 0.25694 -0.01979 -0.09157
 C122 C 0.24910 -0.08490 -0.08026
 C123 C 0.29892 -0.07968 -0.06130
 C124 C 0.16104 -0.03603 -0.12794
 C125 C 0.36512 0.05645 -0.06465
 C126 C 0.31492 0.05101 -0.08373
 C127 C 0.20538 -0.02696 -0.11137
 C128 C 0.35771 -0.00902 -0.05329
 H129 H 0.20451 -0.13995 -0.08616
 H130 H 0.29139 -0.13129 -0.05298
 H131 H 0.40976 0.11158 -0.05891
 H132 H 0.32148 0.10184 -0.09241
 C133 C -0.02047 0.72109 0.57493
 C134 C 0.05033 0.73378 0.58287
 C135 C 0.05556 0.68926 0.60205
 C136 C -0.03631 0.80026 0.53836
 C137 C -0.08074 0.61986 0.60530
 C138 C -0.08577 0.66422 0.58625
 C139 C -0.02742 0.76521 0.55503
 C140 C -0.01009 0.63159 0.61341
 H141 H 0.10130 0.77774 0.57419
 H142 H 0.11070 0.69963 0.60786
 H143 H -0.13250 0.57608 0.61362
 H144 H -0.14081 0.65388 0.58027
 C145 C 0.28186 0.26008 0.24198
 C146 C 0.33899 0.25190 0.25336
 C147 C 0.38327 0.30127 0.27243
 C148 C 0.20258 0.16494 0.20546
 C149 C 0.31331 0.36768 0.26907
 C150 C 0.26886 0.31794 0.24988
 C151 C 0.23773 0.20894 0.22209
 C152 C 0.37121 0.35992 0.28049
 H153 H 0.34956 0.20739 0.24741
 H154 H 0.42724 0.29348 0.28079
 H155 H 0.30268 0.41223 0.27485
 H156 H 0.22470 0.32475 0.24116
 C157 C 0.73972 0.01995 -0.09171
 C158 C 0.68199 -0.05083 -0.08380
 C159 C 0.63196 -0.05619 -0.06471
 C160 C 0.83542 0.03607 -0.12803
 C161 C 0.69781 0.07998 -0.06151
 C162 C 0.74745 0.08512 -0.08047
 C163 C 0.79116 0.02704 -0.11148
 C164 C 0.63931 0.00934 -0.05342
 H165 H 0.67550 -0.10171 -0.09241
 H166 H 0.58754 -0.11131 -0.05891
 H167 H 0.70528 0.13163 -0.05325
 H168 H 0.79185 0.14015 -0.08643
 C169 C 0.27877 0.01999 0.09139
 C170 C 0.26606 -0.05078 0.08355
 C171 C 0.31037 -0.05615 0.06433
 C172 C 0.19996 0.03610 0.12801
 C173 C 0.37957 0.07995 0.06084
 C174 C 0.33543 0.08512 0.07993
 C175 C 0.23487 0.02710 0.11133
 C176 C 0.36784 0.00934 0.05284
 H177 H 0.22226 -0.10162 0.09233
 H178 H 0.30000 -0.11125 0.05860
 H179 H 0.42320 0.13158 0.05243
 H180 H 0.34578 0.14013 0.08584
 C181 C 0.74283 0.72099 0.42528
 C182 C 0.75117 0.66404 0.41392
 C183 C 0.70168 0.61965 0.39489
 C184 C 0.83804 0.80022 0.46182
 C185 C 0.63484 0.68917 0.39823
 C186 C 0.68469 0.73371 0.41739
 C187 C 0.79401 0.76514 0.44517
 C188 C 0.64275 0.63143 0.38683
 H189 H 0.79588 0.65366 0.41987
 H190 H 0.70960 0.57582 0.38654
 H191 H 0.59007 0.69958 0.39245
 H192 H 0.67774 0.77773 0.42609
 C193 C -0.02111 0.26021 0.75824
 C194 C 0.04974 0.31811 0.75043
 C195 C 0.05512 0.36783 0.73123
 C196 C -0.03719 0.16512 0.79477
 C197 C -0.08116 0.30131 0.72770
 C198 C -0.08633 0.25196 0.74677
 C199 C -0.02820 0.20911 0.77814
 C200 C -0.01046 0.36002 0.71972
 H201 H 0.10065 0.32498 0.75921
 H202 H 0.11029 0.41243 0.72551
 H203 H -0.13286 0.29347 0.71927
 H204 H -0.14141 0.20741 0.75265
 C205 C 0.72092 -0.01909 0.09100
 C206 C 0.66383 -0.08427 0.07965
 C207 C 0.61925 -0.07919 0.06066
 C208 C 0.80066 -0.03510 0.12738
 C209 C 0.68882 0.05695 0.06404
 C210 C 0.73358 0.05166 0.08316
 C211 C 0.76533 -0.02612 0.11082
 C212 C 0.63095 -0.00859 0.05265
 H213 H 0.65352 -0.13927 0.08556
 H214 H 0.57532 -0.13085 0.05232
 H215 H 0.69918 0.11204 0.05830
 H216 H 0.77771 0.10254 0.09186
 C217 C 0.26143 0.27847 0.42480
 C218 C 0.31954 0.26571 0.41696
 C219 C 0.36957 0.31044 0.39792
 C220 C 0.16574 0.19888 0.46108
 C221 C 0.30297 0.38022 0.39460
 C222 C 0.25332 0.33565 0.41352
 C223 C 0.21001 0.23409 0.44455
 C224 C 0.36186 0.36839 0.38659
 H225 H 0.32632 0.22151 0.42561
 H226 H 0.41430 0.29998 0.39217
 H227 H 0.29521 0.42421 0.38631
 H228 H 0.20863 0.34606 0.41943
 C229 C 0.01778 0.74024 0.75811
 C230 C -0.05301 0.68219 0.75024
 C231 C -0.05826 0.63252 0.73104
 C232 C 0.03366 0.83512 0.79471
 C233 C 0.07802 0.69941 0.72762
 C234 C 0.08306 0.74871 0.74669
 C235 C 0.02475 0.79123 0.77804
 C236 C 0.00738 0.64053 0.71959
 H237 H -0.10397 0.67515 0.75899
 H238 H -0.11338 0.58779 0.72529
 H239 H 0.12976 0.70740 0.71924
 H240 H 0.13809 0.79337 0.75262
   
