data_POSCAR
  _audit_creation_date              2014-09-24
  _audit_creation_method            'ToBaCCo'
  _symmetry_space_group_name_H-M    'P1'
  _symmetry_Int_Tables_number       1
  _symmetry_cell_setting            triclinic
  loop_
  _symmetry_equiv_pos_as_xyz
 x,y,z
_cell_length_a 34.9877
_cell_length_b 34.6182
_cell_length_c 15.3529
_cell_angle_alpha 89.637100
_cell_angle_beta 89.684500
_cell_angle_gamma 119.405800
loop_
  _atom_site_label
  _atom_site_type_symbol
  _atom_site_fract_x
  _atom_site_fract_y
  _atom_site_fract_z
C1 C 0.15026 0.41387 0.49337
 C2 C 0.17533 0.42521 0.41516
 C3 C 0.22099 0.44144 0.42100
 C4 C 0.24100 0.44199 0.50115
 C5 C 0.21448 0.42875 0.57660
 C6 C 0.16985 0.41662 0.57517
 C7 C 0.28843 0.45334 0.50736
 C8 C 0.31055 0.46462 0.58846
 C9 C 0.35191 0.46789 0.59670
 C10 C 0.37144 0.46027 0.52510
 C11 C 0.35484 0.45828 0.44225
 C12 C 0.31266 0.45318 0.43323
 H13 H 0.11612 0.40555 0.49058
 H14 H 0.24018 0.45167 0.36163
 H15 H 0.22791 0.42617 0.63815
 H16 H 0.29678 0.47207 0.64485
 H17 H 0.40362 0.46316 0.53216
 H18 H 0.30002 0.45041 0.36837
 C19 C 0.57545 -0.27731 0.51925
 C20 C 0.56795 -0.26356 0.43738
 C21 C 0.54929 -0.23557 0.43570
 C22 C 0.53597 -0.22323 0.51279
 C23 C 0.54065 -0.24058 0.59242
 C24 C 0.56213 -0.26571 0.59721
 C25 C 0.51839 -0.19145 0.51073
 C26 C 0.52270 -0.16452 0.58320
 C27 C 0.50785 -0.13346 0.58006
 C28 C 0.48974 -0.12824 0.50241
 C29 C 0.48731 -0.15294 0.42885
 C30 C 0.49932 -0.18587 0.43457
 H31 H 0.58865 -0.29981 0.52237
 H32 H 0.54687 -0.22228 0.37338
 H33 H 0.52896 -0.23333 0.65211
 H34 H 0.53877 -0.16629 0.64181
 H35 H 0.47906 -0.10373 0.49804
 H36 H 0.49507 -0.20569 0.37754
 C37 C 1.27715 0.85474 0.48761
 C38 C 1.25568 0.83651 0.40891
 C39 C 1.21541 0.79649 0.41285
 C40 C 1.20080 0.77035 0.49025
 C41 C 1.22391 0.78972 0.56727
 C42 C 1.26114 0.83169 0.56609
 C43 C 1.16590 0.72185 0.48824
 C44 C 1.15144 0.69503 0.56537
 C45 C 1.12694 0.64841 0.56051
 C46 C 1.11045 0.62916 0.48001
 C47 C 1.12421 0.65419 0.40398
 C48 C 1.15171 0.69997 0.40746
 H49 H 1.30830 0.88532 0.48778
 H50 H 1.19684 0.78567 0.35359
 H51 H 1.21525 0.77239 0.62891
 H52 H 1.16189 0.70902 0.62897
 H53 H 1.08992 0.59344 0.47544
 H54 H 1.16382 0.71684 0.34588
 C55 C 0.92699 0.55835 0.50697
 C56 C 0.90366 0.55214 0.43028
 C57 C 0.86766 0.55936 0.42918
 C58 C 0.85453 0.57301 0.50517
 C59 C 0.87848 0.57814 0.58250
 C60 C 0.91172 0.56668 0.58446
 C61 C 0.81235 0.57472 0.50636
 C62 C 0.78839 0.56856 0.58460
 C63 C 0.74722 0.56662 0.58540
 C64 C 0.72939 0.57006 0.50540
 C65 C 0.75165 0.57411 0.42661
 C66 C 0.79377 0.57895 0.42806
 H67 H 0.95247 0.54910 0.50911
 H68 H 0.84822 0.55048 0.37074
 H69 H 0.86892 0.58616 0.64373
 H70 H 0.80139 0.56554 0.64617
 H71 H 0.69706 0.56704 0.50389
 H72 H 0.81100 0.58458 0.36659
 C73 C 0.47919 0.36245 0.50934
 C74 C 0.47401 0.33904 0.43334
 C75 C 0.45865 0.29327 0.43813
 C76 C 0.45064 0.27116 0.52007
 C77 C 0.46200 0.29759 0.59605
 C78 C 0.47541 0.34305 0.59096
 C79 C 0.43002 0.22124 0.52613
 C80 C 0.41024 0.19787 0.60454
 C81 C 0.38668 0.15078 0.61047
 C82 C 0.38519 0.12791 0.53297
 C83 C 0.40671 0.15021 0.45657
 C84 C 0.42905 0.19637 0.45332
 H85 H 0.48894 0.39741 0.50444
 H86 H 0.45328 0.27585 0.37754
 H87 H 0.46264 0.28401 0.65915
 H88 H 0.41463 0.21711 0.66084
 H89 H 0.37013 0.09236 0.53039
 H90 H 0.44664 0.21213 0.39396
 C91 C 0.61504 0.13355 0.49204
 C92 C 0.64176 0.14100 0.41910
 C93 C 0.68712 0.16829 0.42561
 C94 C 0.70610 0.19162 0.50304
 C95 C 0.67805 0.18493 0.57511
 C96 C 0.63267 0.15572 0.56999
 C97 C 0.75409 0.22520 0.50592
 C98 C 0.77661 0.23933 0.58556
 C99 C 0.82032 0.27439 0.58858
 C100 C 0.84297 0.29209 0.50912
 C101 C 0.82146 0.27797 0.42937
 C102 C 0.77735 0.24518 0.42843
 H103 H 0.58001 0.11128 0.48707
 H104 H 0.70682 0.17180 0.36860
 H105 H 0.69072 0.20319 0.63466
 H106 H 0.76052 0.22293 0.64585
 H107 H 0.87667 0.31883 0.50902
 H108 H 0.76136 0.23688 0.36602
 O109 O 0.97276 0.45063 -0.18490
 O110 O 1.06057 0.48623 0.16648
 O111 O 0.95148 0.47981 0.08249
 O112 O 1.07105 0.52664 -0.09158
 O113 O 0.98128 0.45664 0.17904
 O114 O 1.05130 0.47813 -0.18942
 O115 O 1.07859 0.53196 0.06004
 O116 O 0.95924 0.48490 -0.08224
 C117 C 0.96243 0.47915 -0.16091
 C118 C 1.07452 0.52494 0.13903
 C119 C 0.95971 0.47577 0.15998
 C120 C 1.06925 0.51800 -0.16954
 O121 O 1.03953 0.40269 -0.11114
 O122 O 0.96492 0.37686 0.13712
 O123 O 0.91793 0.39636 -0.08670
 O124 O 1.10240 0.46817 0.06665
 O125 O 1.04670 0.40738 0.10694
 O126 O 0.96196 0.37276 -0.11522
 O127 O 1.09719 0.46411 -0.09457
 O128 O 0.91897 0.39405 0.07666
 Co129 Co 1.00691 0.42816 -0.13797
 Co130 Co 1.01375 0.43327 0.13257
 Co131 Co 0.94430 0.43983 -0.00390
 Co132 Co 1.08091 0.49309 -0.01443
 O133 O 1.01115 0.44858 -0.00519
 C134 C 1.07945 0.42520 -0.12257
 C135 C 0.92637 0.36963 0.12745
 C136 C 0.92433 0.36684 -0.11879
 C137 C 1.08705 0.43145 0.10671
 O138 O 0.56653 0.51231 -0.16698
 O139 O 0.52746 0.54969 0.19617
 O140 O 0.53367 0.46707 0.08452
 O141 O 0.47531 0.53751 -0.06372
 O142 O 0.56783 0.50979 0.18743
 O143 O 0.52358 0.55075 -0.16727
 O144 O 0.47781 0.52858 0.09686
 O145 O 0.53424 0.46649 -0.06508
 C146 C 0.53920 0.47397 -0.14344
 C147 C 0.48795 0.52722 0.17328
 C148 C 0.54012 0.47201 0.16283
 C149 C 0.48440 0.53556 -0.14133
 O150 O 0.59400 0.62520 -0.12368
 O151 O 0.63689 0.58302 0.11281
 O152 O 0.62336 0.51952 -0.07230
 O153 O 0.53522 0.61382 0.10925
 O154 O 0.59878 0.62385 0.13572
 O155 O 0.63597 0.58491 -0.10314
 O156 O 0.53678 0.62008 -0.05604
 O157 O 0.62311 0.51763 0.08925
 Co158 Co 0.57868 0.56663 -0.12556
 Co159 Co 0.58105 0.56514 0.14561
 Co160 Co 0.57786 0.49814 0.00949
 Co161 Co 0.51205 0.57275 0.02137
 O162 O 0.56213 0.55105 0.01210
 C163 C 0.56859 0.63991 -0.10882
 C164 C 0.64870 0.55496 0.11986
 C165 C 0.64780 0.55662 -0.10806
 C166 C 0.57175 0.63662 0.14446
 O167 O 0.46992 0.04976 -0.17588
 O168 O 0.47370 -0.04843 0.09812
 O169 O 0.51393 0.08830 0.08994
 O170 O 0.47220 -0.05468 -0.05878
 O171 O 0.51794 0.02937 0.10923
 O172 O 0.45441 -0.02826 -0.17141
 O173 O 0.41962 -0.10971 0.05560
 O174 O 0.51459 0.09172 -0.07391
 C175 C 0.50637 0.08205 -0.15254
 C176 C 0.45021 -0.08955 0.11198
 C177 C 0.53435 0.06978 0.11864
 C178 C 0.47577 -0.04564 -0.13903
 O179 O 0.37142 -0.05164 -0.10947
 O180 O 0.45011 0.03570 0.18187
 O181 O 0.43781 0.08548 -0.07179
 O182 O 0.37023 -0.07522 0.04717
 O183 O 0.40389 -0.04396 0.16401
 O184 O 0.38769 0.02170 -0.11096
 O185 O 0.39252 -0.09717 -0.09323
 O186 O 0.43309 0.07330 0.09097
 Co187 Co 0.42269 -0.00185 -0.13152
 Co188 Co 0.45995 -0.00600 0.12693
 Co189 Co 0.47185 0.07695 0.00802
 Co190 Co 0.42265 -0.06216 -0.00209
 O191 O 0.44412 0.00454 -0.00292
 C192 C 0.36744 -0.08777 -0.13172
 C193 C 0.43344 0.06024 0.16685
 C194 C 0.40205 0.06209 -0.10845
 C195 C 0.36880 -0.06977 0.12682
 C196 C 1.15511 0.45828 0.19517
 C197 C 1.17554 0.45775 0.27290
 C198 C 1.15560 0.42191 0.33225
 C199 C 1.11683 0.38327 0.30490
 C200 C 1.09661 0.38347 0.22434
 C201 C 1.11404 0.42287 0.17224
 C202 C 1.06025 0.34352 0.19745
 N203 N 1.04478 0.30655 0.24798
 N204 N 1.06361 0.30634 0.32282
 C205 C 1.09927 0.34307 0.35230
 H206 H 1.17059 0.48797 0.15520
 H207 H 1.20577 0.48731 0.28946
 H208 H 1.04508 0.34039 0.13499
 H209 H 1.11451 0.33984 0.41067
 C210 C 0.54309 0.67963 0.22372
 C211 C 0.54174 0.70330 0.29564
 C212 C 0.57519 0.71959 0.35815
 C213 C 0.61371 0.71676 0.33960
 C214 C 0.61591 0.69401 0.26382
 C215 C 0.57855 0.67215 0.20864
 C216 C 0.65602 0.69512 0.24555
 N217 N 0.69056 0.71625 0.29963
 N218 N 0.68838 0.73729 0.37001
 C219 C 0.65151 0.73876 0.39111
 H220 H 0.51461 0.66485 0.18211
 H221 H 0.51216 0.70540 0.30604
 H222 H 0.66159 0.68158 0.18710
 H223 H 0.65276 0.75852 0.44622
 C224 C 0.32314 -0.07297 0.25161
 C225 C 0.29708 -0.09610 0.32292
 C226 C 0.27608 -0.14271 0.32839
 C227 C 0.27955 -0.16623 0.25485
 C228 C 0.30365 -0.14223 0.17918
 C229 C 0.32848 -0.09518 0.18085
 C230 C 0.30457 -0.16643 0.10658
 N231 N 0.28601 -0.21110 0.11159
 N232 N 0.26710 -0.23326 0.18461
 C233 C 0.26389 -0.21247 0.25644
 H234 H 0.34155 -0.03706 0.25412
 H235 H 0.29459 -0.07694 0.37601
 H236 H 0.31919 -0.15072 0.04533
 H237 H 0.25049 -0.23256 0.31420
 C238 C 0.94200 0.53232 0.21464
 C239 C 0.92773 0.55074 0.27872
 C240 C 0.91171 0.52882 0.35836
 C241 C 0.90758 0.48640 0.37200
 C242 C 0.92451 0.46877 0.30941
 C243 C 0.94257 0.49252 0.22998
 C244 C 0.92151 0.42743 0.32853
 N245 N 0.90202 0.40533 0.40332
 N246 N 0.88474 0.42129 0.46033
 C247 C 0.88653 0.46080 0.44683
 H248 H 0.95456 0.55034 0.15379
 H249 H 0.93040 0.58288 0.26711
 H250 H 0.93371 0.41172 0.28543
 H251 H 0.87089 0.47154 0.49393
 C252 C 0.54819 0.43500 0.29208
 C253 C 0.53329 0.40142 0.35400
 C254 C 0.49028 0.36571 0.35211
 C255 C 0.46327 0.36157 0.28063
 C256 C 0.47941 0.39474 0.21393
 C257 C 0.52152 0.43327 0.22306
 C258 C 0.45203 0.38833 0.14232
 N259 N 0.41145 0.35224 0.13929
 N260 N 0.39590 0.32229 0.20346
 C261 C 0.42020 0.32600 0.27449
 H262 H 0.58102 0.46289 0.29878
 H263 H 0.55475 0.40481 0.40758
 H264 H 0.46171 0.41144 0.08884
 H265 H 0.40557 0.30093 0.32488
 C266 C 0.57174 0.12851 0.22655
 C267 C 0.59617 0.14422 0.30179
 C268 C 0.62101 0.12562 0.33337
 C269 C 0.62397 0.09272 0.28435
 C270 C 0.59950 0.07702 0.20644
 C271 C 0.57104 0.09333 0.18030
 C272 C 0.60444 0.04541 0.15781
 N273 N 0.63069 0.02964 0.18724
 N274 N 0.65227 0.04320 0.26191
 C275 C 0.64971 0.07409 0.31162
 H276 H 0.55074 0.14200 0.20830
 H277 H 0.59422 0.17002 0.33791
 H278 H 0.58864 0.03384 0.09575
 H279 H 0.66794 0.08391 0.37163
 C280 C 0.35768 0.05837 -0.23587
 C281 C 0.35134 0.08002 -0.30608
 C282 C 0.37057 0.12674 -0.30776
 C283 C 0.37943 0.14686 -0.22368
 C284 C 0.38859 0.12582 -0.15315
 C285 C 0.38167 0.08228 -0.16361
 C286 C 0.40097 0.14769 -0.07297
 N287 N 0.39984 0.18593 -0.06167
 N288 N 0.38668 0.20320 -0.12472
 C289 C 0.37542 0.18436 -0.20443
 H290 H 0.34706 0.02340 -0.24213
 H291 H 0.33395 0.05965 -0.36070
 H292 H 0.40892 0.13353 -0.01776
 H293 H 0.36155 0.19765 -0.25068
 C294 C 0.69055 0.59432 -0.24152
 C295 C 0.71074 0.59403 -0.31962
 C296 C 0.72502 0.56321 -0.33472
 C297 C 0.71846 0.53187 -0.26715
 C298 C 0.69784 0.53242 -0.18691
 C299 C 0.68151 0.56246 -0.17565
 C300 C 0.69409 0.50250 -0.12070
 N301 N 0.70684 0.47195 -0.13571
 N302 N 0.72300 0.46918 -0.21261
 C303 C 0.72882 0.49767 -0.27888
 H304 H 0.68000 0.61879 -0.23490
 H305 H 0.71611 0.61908 -0.36827
 H306 H 0.68200 0.50361 -0.05663
 H307 H 0.74071 0.49260 -0.34043
 C308 C 0.90913 0.31871 -0.24753
 C309 C 0.88480 0.29908 -0.32163
 C310 C 0.84176 0.29161 -0.33102
 C311 C 0.82249 0.30274 -0.25979
 C312 C 0.84731 0.32158 -0.18293
 C313 C 0.89215 0.33294 -0.17966
 C314 C 0.82663 0.32948 -0.11213
 N315 N 0.78533 0.32291 -0.11992
 N316 N 0.76342 0.30910 -0.19408
 C317 C 0.78067 0.29939 -0.26436
 H318 H 0.94265 0.32510 -0.24616
 H319 H 0.90018 0.28983 -0.37273
 H320 H 0.84280 0.34027 -0.05046
 H321 H 0.76170 0.29027 -0.32322
 C322 C 0.48630 -0.10709 -0.19241
 C323 C 0.49221 -0.12912 -0.26275
 C324 C 0.51058 -0.10680 -0.34176
 C325 C 0.52765 -0.06023 -0.34589
 C326 C 0.52044 -0.03824 -0.27528
 C327 C 0.49754 -0.06233 -0.19961
 C328 C 0.53659 0.00755 -0.28246
 N329 N 0.55898 0.03002 -0.35495
 N330 N 0.56646 0.00963 -0.42067
 C331 C 0.55181 -0.03463 -0.41845
 H332 H 0.46896 -0.12627 -0.13511
 H333 H 0.47958 -0.16457 -0.25733
 H334 H 0.53248 0.02558 -0.22980
 H335 H 0.55981 -0.04920 -0.47274
 C336 C 0.45200 0.54204 -0.27803
 C337 C 0.41820 0.52731 -0.33775
 C338 C 0.37974 0.48643 -0.32609
 C339 C 0.37426 0.46101 -0.25013
 C340 C 0.40844 0.47631 -0.18813
 C341 C 0.44802 0.51684 -0.20368
 C342 C 0.40225 0.44947 -0.11435
 N343 N 0.36443 0.41051 -0.10366
 N344 N 0.33247 0.39627 -0.16206
 C345 C 0.33620 0.42005 -0.23522
 H346 H 0.48151 0.57347 -0.28993
 H347 H 0.42298 0.54695 -0.39622
 H348 H 0.42728 0.45850 -0.06583
 H349 H 0.30934 0.40687 -0.28071
 C350 C 1.09266 0.59460 -0.22189
 C351 C 1.10720 0.62720 -0.28706
 C352 C 1.12168 0.62028 -0.36779
 C353 C 1.12787 0.58269 -0.37697
 C354 C 1.11163 0.54888 -0.31217
 C355 C 1.09119 0.55382 -0.23601
 C356 C 1.11848 0.51235 -0.32450
 N357 N 1.14066 0.51048 -0.39546
 N358 N 1.15723 0.54293 -0.45463
 C359 C 1.15219 0.57912 -0.44721
 H360 H 1.07985 0.60024 -0.16180
 H361 H 1.10378 0.65627 -0.27642
 H362 H 1.10811 0.48594 -0.27764
 H363 H 1.16835 0.60533 -0.49506
 C364 C 0.97466 0.54629 -0.24208
 C365 C 0.96160 0.56884 -0.29968
 C366 C 0.91973 0.54743 -0.33628
 C367 C 0.89006 0.50270 -0.31239
 C368 C 0.90440 0.47924 -0.25801
 C369 C 0.94738 0.50118 -0.22369
 C370 C 0.87505 0.43431 -0.24002
 N371 N 0.83395 0.41450 -0.27270
 N372 N 0.82016 0.43661 -0.32266
 C373 C 0.84668 0.47988 -0.34367
 H374 H 1.00662 0.56389 -0.21307
 H375 H 0.98481 0.60272 -0.31821
 H376 H 0.88440 0.41468 -0.20105
 H377 H 0.83338 0.49557 -0.38491
 C378 C 0.54433 0.44304 -0.28239
 C379 C 0.52984 0.41077 -0.34519
 C380 C 0.48967 0.37117 -0.33632
 C381 C 0.46425 0.36376 -0.25903
 C382 C 0.47952 0.39696 -0.19353
 C383 C 0.51982 0.43732 -0.20662
 C384 C 0.45278 0.38907 -0.11919
 N385 N 0.41380 0.35117 -0.11143
 N386 N 0.39912 0.32076 -0.17347
 C387 C 0.42261 0.32597 -0.24727
 H388 H 0.57561 0.47281 -0.29322
 H389 H 0.55060 0.41701 -0.40219
 H390 H 0.46142 0.41275 -0.06780
 H391 H 0.40783 0.30079 -0.29624
 C392 C 0.58228 0.11446 -0.20859
 C393 C 0.61322 0.13264 -0.27570
 C394 C 0.60312 0.14676 -0.35367
 C395 C 0.56262 0.14673 -0.36010
 C396 C 0.53059 0.12680 -0.29309
 C397 C 0.53998 0.10860 -0.21879
 C398 C 0.49060 0.12682 -0.30188
 N399 N 0.48369 0.14621 -0.37252
 N400 N 0.51402 0.16554 -0.43484
 C401 C 0.55319 0.16651 -0.43105
 H402 H 0.59031 0.10171 -0.15102
 H403 H 0.64419 0.13299 -0.26879
 H404 H 0.46524 0.11267 -0.25243
 H405 H 0.57695 0.18356 -0.48255
 C406 C 1.14790 0.44217 -0.20117
 C407 C 1.16925 0.44163 -0.27739
 C408 C 1.14715 0.41097 -0.34408
 C409 C 1.10366 0.37628 -0.32601
 C410 C 1.08204 0.37618 -0.24652
 C411 C 1.10333 0.41202 -0.18700
 C412 C 1.04026 0.33951 -0.22913
 N413 N 1.02133 0.30618 -0.28724
 N414 N 1.04151 0.30629 -0.36094
 C415 C 1.08208 0.33974 -0.38164
 H416 H 1.16573 0.46902 -0.15618
 H417 H 1.20263 0.46824 -0.28693
 H418 H 1.02302 0.33544 -0.16850
 H419 H 1.09763 0.33642 -0.43968
 C420 C 0.53381 0.67674 -0.18798
 C421 C 0.53171 0.69805 -0.26360
 C422 C 0.56796 0.71910 -0.32080
 C423 C 0.60895 0.72422 -0.29341
 C424 C 0.61136 0.70381 -0.21459
 C425 C 0.57255 0.67670 -0.16548
 C426 C 0.65282 0.71154 -0.18697
 N427 N 0.68912 0.73737 -0.23564
 N428 N 0.68692 0.75653 -0.30941
 C429 C 0.64829 0.75120 -0.33950
 H430 H 0.50375 0.65676 -0.15143
 H431 H 0.50017 0.69440 -0.28134
 H432 H 0.65700 0.69856 -0.12571
 H433 H 0.64901 0.76929 -0.39757
 C434 C 0.30706 -0.10215 -0.23127
 C435 C 0.28217 -0.12028 -0.30532
 C436 C 0.28719 -0.15129 -0.35420
 C437 C 0.31694 -0.16545 -0.32717
 C438 C 0.34207 -0.14768 -0.25062
 C439 C 0.33784 -0.11443 -0.20325
 C440 C 0.37079 -0.16364 -0.22662
 N441 N 0.37447 -0.19386 -0.27645
 N442 N 0.35144 -0.20964 -0.34880
 C443 C 0.32281 -0.19653 -0.37580
 H444 H 0.30290 -0.07724 -0.19672
 H445 H 0.25928 -0.10946 -0.32557
 H446 H 0.39011 -0.15360 -0.16883
 H447 H 0.30503 -0.21048 -0.43523
 C448 C 0.42596 -0.13672 0.24386
 C449 C 0.43519 -0.15046 0.32283
 C450 C 0.47816 -0.14018 0.34269
 C451 C 0.51229 -0.11690 0.28073
 C452 C 0.50279 -0.10331 0.20040
 C453 C 0.45956 -0.11207 0.18346
 C454 C 0.53708 -0.08129 0.13928
 N455 N 0.57826 -0.07260 0.15882
 N456 N 0.58752 -0.08414 0.23538
 C457 C 0.55609 -0.10575 0.29709
 H458 H 0.39281 -0.14324 0.23197
 H459 H 0.40888 -0.16828 0.36963
 H460 H 0.53145 -0.07151 0.07572
 H461 H 0.56576 -0.11392 0.35816
 C462 C 0.45954 0.52660 0.31856
 C463 C 0.42685 0.51119 0.38117
 C464 C 0.38662 0.47233 0.36888
 C465 C 0.37893 0.44930 0.28955
 C466 C 0.41160 0.46648 0.22285
 C467 C 0.45269 0.50523 0.23884
 C468 C 0.40190 0.44362 0.14339
 N469 N 0.36295 0.40607 0.13283
 N470 N 0.33313 0.38931 0.19657
 C471 C 0.33999 0.40935 0.27487
 H472 H 0.48991 0.55680 0.33149
 H473 H 0.43322 0.53016 0.44042
 H474 H 0.42499 0.45415 0.09005
 H475 H 0.31504 0.39367 0.32481
 C476 C 1.06202 0.57722 0.22507
 C477 C 1.07453 0.61020 0.28715
 C478 C 1.11664 0.62979 0.32233
 C479 C 1.14744 0.61758 0.29145
 C480 C 1.13440 0.58375 0.22890
 C481 C 1.09082 0.56242 0.19854
 C482 C 1.16533 0.57189 0.19977
 N483 N 1.20646 0.59229 0.23261
 N484 N 1.21863 0.62372 0.29252
 C485 C 1.19057 0.63702 0.32319
 H486 H 1.02927 0.56219 0.19939
 H487 H 1.05057 0.61889 0.31114
 H488 H 1.15720 0.54692 0.15082
 H489 H 1.20233 0.66273 0.37168
 C490 C 0.44044 0.08187 0.32129
 C491 C 0.43485 0.10433 0.39046
 C492 C 0.40910 0.12472 0.38173
 C493 C 0.38627 0.12004 0.30327
 C494 C 0.39070 0.09581 0.23322
 C495 C 0.41989 0.07834 0.24108
 C496 C 0.36488 0.08927 0.15884
 N497 N 0.33844 0.10758 0.15387
 N498 N 0.33550 0.13148 0.21849
 C499 C 0.35834 0.13818 0.29311
 H500 H 0.46254 0.06862 0.32989
 H501 H 0.45185 0.10693 0.45072
 H502 H 0.36420 0.06880 0.10554
 H503 H 0.35407 0.15717 0.34414
 C504 C 0.69999 0.60021 0.23635
 C505 C 0.72222 0.60381 0.31360
 C506 C 0.72963 0.56964 0.34169
 C507 C 0.71638 0.53199 0.28801
 C508 C 0.69437 0.52857 0.20818
 C509 C 0.68354 0.56191 0.18453
 C510 C 0.68395 0.49159 0.15551
 N511 N 0.69284 0.45956 0.18285
 N512 N 0.71161 0.46188 0.25919
 C513 C 0.72359 0.49686 0.31269
 H514 H 0.69338 0.62683 0.22001
 H515 H 0.73282 0.63314 0.35296
 H516 H 0.67003 0.48812 0.09188
 H517 H 0.73856 0.49671 0.37397
 C518 C 0.90325 0.31240 0.24414
 C519 C 0.88023 0.29350 0.32126
 C520 C 0.84441 0.29848 0.34589
 C521 C 0.82990 0.32088 0.28885
 C522 C 0.85177 0.33804 0.20761
 C523 C 0.89126 0.33693 0.18796
 C524 C 0.83350 0.35657 0.15074
 N525 N 0.79869 0.36095 0.17619
 N526 N 0.78044 0.34784 0.25470
 C527 C 0.79490 0.32810 0.31192
 H528 H 0.93245 0.30995 0.23115
 H529 H 0.89124 0.27574 0.36337
 H530 H 0.84503 0.36615 0.08528
 H531 H 0.77902 0.31861 0.37506
   
