data_POSCAR
  _audit_creation_date              2014-09-24
  _audit_creation_method            'ToBaCCo'
  _symmetry_space_group_name_H-M    'P1'
  _symmetry_Int_Tables_number       1
  _symmetry_cell_setting            triclinic
  loop_
  _symmetry_equiv_pos_as_xyz
 x,y,z
_cell_length_a 34.6778
_cell_length_b 34.7815
_cell_length_c 83.5668
_cell_angle_alpha 87.323300
_cell_angle_beta 91.453400
_cell_angle_gamma 120.122500
loop_
  _atom_site_label
  _atom_site_type_symbol
  _atom_site_fract_x
  _atom_site_fract_y
  _atom_site_fract_z
C1 C 0.01289 0.08107 0.52139
 H2 H 0.04456 0.08205 0.52126
 C3 C 0.00759 0.11020 0.53076
 H4 H 0.03520 0.13366 0.53793
 C5 C -0.06164 0.04969 0.51201
 H6 H -0.08825 0.02643 0.50451
 C7 C -0.06836 0.07837 0.52124
 H8 H -0.10030 0.07695 0.52094
 N9 N -0.02154 0.05138 0.51236
 C10 C 0.00899 -0.05417 0.50609
 H11 H 0.01105 -0.05359 0.49317
 C12 C 0.01207 -0.08698 0.51540
 H13 H 0.01685 -0.11159 0.50967
 C14 C -0.00221 -0.02439 0.52934
 H15 H -0.00917 -0.00090 0.53471
 C16 C 0.00072 -0.05656 0.53907
 H17 H -0.00345 -0.05733 0.55191
 Zn18 Zn -0.00905 0.01518 0.49979
 N19 N 0.00178 -0.02386 0.51315
 C20 C 0.07969 0.05237 0.48767
 N21 N 0.04135 0.05417 0.48725
 C22 C 0.03794 0.08590 0.47822
 C23 C 0.07374 0.11713 0.46891
 C24 C 0.11643 0.08311 0.47851
 C25 C -0.09614 -0.05284 0.49344
 C26 C -0.13111 -0.08376 0.48413
 C27 C -0.08644 -0.04798 0.46046
 C28 C -0.05236 -0.01784 0.47022
 N29 N -0.05767 -0.02089 0.48640
 H30 H 0.08198 0.02744 0.49518
 H31 H 0.00725 0.08688 0.47830
 H32 H 0.07064 0.14222 0.46174
 H33 H 0.14690 0.08161 0.47886
 H34 H -0.09908 -0.05508 0.50636
 H35 H -0.16119 -0.10967 0.48992
 H36 H -0.08134 -0.04576 0.44762
 H37 H -0.02117 0.00692 0.46487
 C38 C 0.00744 -0.08839 0.53203
 C39 C -0.03337 0.10886 0.53070
 C40 C -0.12599 -0.08159 0.46748
 C41 C 0.11332 0.11575 0.46905
 C42 C 1.10000 0.03842 0.14529
 H43 H 1.10105 0.07003 0.14534
 C44 C 1.13026 0.03391 0.13603
 H45 H 1.15465 0.06209 0.12886
 C46 C 1.06725 -0.03680 0.15477
 H47 H 1.04299 -0.06402 0.16226
 C48 C 1.09702 -0.04274 0.14565
 H49 H 1.09545 -0.07467 0.14601
 N50 N 1.06910 0.00328 0.15431
 C51 C 0.96234 0.03294 0.16011
 H52 H 0.96144 0.03387 0.17301
 C53 C 0.93019 0.03632 0.15069
 H54 H 0.90463 0.04021 0.15633
 C55 C 0.99504 0.02405 0.13700
 H56 H 1.01936 0.01778 0.13173
 C57 C 0.96359 0.02732 0.12717
 H58 H 0.96419 0.02409 0.11436
 Zn59 Zn 1.03128 0.01457 0.16671
 N60 N 0.99373 0.02664 0.15317
 C61 C 1.06696 0.10176 0.17884
 N62 N 1.06880 0.06353 0.17928
 C63 C 1.09948 0.05915 0.18844
 C64 C 1.12950 0.09377 0.19786
 C65 C 1.09650 0.13733 0.18812
 C66 C 0.96217 -0.07283 0.17298
 C67 C 0.92984 -0.10849 0.18225
 C68 C 0.96271 -0.06636 0.20592
 C69 C 0.99435 -0.03150 0.19623
 N70 N 0.99340 -0.03521 0.18006
 H71 H 1.04289 0.10483 0.17125
 H72 H 1.10053 0.02859 0.18838
 H73 H 1.15372 0.08989 0.20514
 H74 H 1.09494 0.16769 0.18776
 H75 H 0.96156 -0.07450 0.16007
 H76 H 0.90441 -0.13789 0.17650
 H77 H 0.96303 -0.06270 0.21874
 H78 H 1.01855 -0.00097 0.20162
 C79 C 0.93057 0.03296 0.13409
 C80 C 1.12876 -0.00700 0.13619
 C81 C 0.92986 -0.10496 0.19885
 C82 C 1.12800 0.13319 0.19771
 C83 C 0.03395 0.95153 0.85515
 H84 H 0.00326 0.91992 0.85467
 C85 C 0.06901 0.95551 0.86482
 H86 H 0.06535 0.92694 0.87188
 C87 C 0.07646 1.02727 0.84634
 H88 H 0.07934 1.05491 0.83894
 C89 C 0.11248 1.03269 0.85589
 H90 H 0.14297 1.06463 0.85593
 N91 N 0.03807 0.98717 0.84626
 C92 C -0.09884 0.95725 0.83863
 H93 H -0.10075 0.95732 0.82569
 C94 C -0.13449 0.95277 0.84757
 H95 H -0.16410 0.94902 0.84149
 C96 C -0.05693 0.96462 0.86233
 H97 H -0.02619 0.97068 0.86802
 C98 C -0.09176 0.96022 0.87172
 H99 H -0.08776 0.96237 0.88461
 Zn100 Zn -0.01134 0.97663 0.83321
 N101 N -0.06095 0.96330 0.84609
 C102 C -0.06298 0.89029 0.82024
 N103 N -0.02293 0.92875 0.82031
 C104 C 0.01204 0.93400 0.81154
 C105 C 0.00739 0.90004 0.80204
 C106 C -0.06906 0.85535 0.81086
 C107 C 0.00714 1.06429 0.82757
 C108 C 0.01081 1.10079 0.81852
 C109 C 0.00122 1.06084 0.79447
 C110 C -0.00231 1.02509 0.80396
 N111 N 0.00050 1.02735 0.82020
 H112 H -0.09004 0.88650 0.82754
 H113 H 0.04366 0.96470 0.81201
 H114 H 0.03545 0.90458 0.79510
 H115 H -0.10094 0.82477 0.81085
 H116 H 0.00826 1.06481 0.84051
 H117 H 0.01510 1.12969 0.82448
 H118 H -0.00205 1.05839 0.78158
 H119 H -0.00884 0.99507 0.79833
 C120 C -0.13068 0.95477 0.86427
 C121 C 0.10861 0.99642 0.86520
 C122 C 0.00735 1.09881 0.80183
 C123 C -0.03348 0.86037 0.80169
 O124 O 0.56255 0.02617 -0.01730
 O125 O 0.49223 0.02957 0.01443
 O126 O 0.56815 0.03114 0.01375
 O127 O 0.48803 0.02745 -0.01664
 O128 O 0.45106 -0.04606 -0.01456
 O129 O 0.53168 -0.04236 0.01593
 O130 O 0.45577 -0.04395 0.01650
 O131 O 0.52561 -0.04732 -0.01511
 Cu132 Cu 0.53147 0.03599 -0.00166
 Cu133 Cu 0.48737 -0.05233 0.00090
 C134 C 0.55591 -0.01128 -0.02152
 C135 C 0.46198 -0.00676 0.02076
 C136 C 0.56358 -0.00485 0.01996
 C137 C 0.45590 -0.00979 -0.02067
 O138 O -0.06526 0.50722 0.65098
 O139 O -0.06379 0.42922 0.68220
 O140 O -0.06571 0.50323 0.68213
 O141 O -0.06618 0.43173 0.65103
 O142 O 0.00754 0.46878 0.65074
 O143 O 0.00802 0.54074 0.68194
 O144 O 0.00993 0.46676 0.68190
 O145 O 0.00847 0.54422 0.65080
 Cu146 Cu -0.07267 0.46407 0.66661
 Cu147 Cu 0.01592 0.50886 0.66632
 C148 C -0.02850 0.53904 0.64569
 C149 C -0.02654 0.43488 0.68729
 C150 C -0.02889 0.53415 0.68725
 C151 C -0.02952 0.43801 0.64566
 O152 O 0.53381 0.57175 0.31741
 O153 O 0.45587 0.49628 0.34871
 O154 O 0.53049 0.57220 0.34846
 O155 O 0.45780 0.49735 0.31759
 O156 O 0.49435 0.46037 0.31935
 O157 O 0.56754 0.53573 0.35032
 O158 O 0.49292 0.45981 0.35047
 O159 O 0.57034 0.53476 0.31928
 Cu160 Cu 0.49078 0.53809 0.33287
 Cu161 Cu 0.53499 0.49396 0.33505
 C162 C 0.56533 0.56596 0.31310
 C163 C 0.46124 0.46516 0.35482
 C164 C 0.56138 0.56684 0.35455
 C165 C 0.46362 0.46618 0.31328
 C166 C -0.03878 0.13912 0.54028
 C167 C -0.04164 0.16514 0.54852
 C168 C -0.04330 0.19677 0.55856
 C169 C -0.01890 0.24226 0.55442
 C170 C -0.01811 0.27331 0.56465
 C171 C -0.04172 0.25924 0.57920
 C172 C -0.06671 0.21338 0.58314
 C173 C -0.06741 0.18239 0.57289
 C174 C -0.03942 0.29224 0.59041
 C175 C -0.07760 0.28441 0.59875
 C176 C -0.07507 0.31491 0.60964
 C177 C -0.03441 0.35361 0.61236
 C178 C 0.00369 0.36190 0.60404
 C179 C 0.00123 0.33146 0.59313
 C180 C -0.03178 0.38426 0.62391
 C181 C -0.03025 0.40925 0.63375
 H182 H -0.00003 0.25376 0.54337
 H183 H 0.00096 0.30833 0.56119
 H184 H -0.08475 0.20153 0.59434
 H185 H -0.08612 0.14728 0.57627
 H186 H -0.10947 0.25482 0.59678
 H187 H -0.10480 0.30819 0.61600
 H188 H 0.03537 0.39167 0.60610
 H189 H 0.03134 0.33815 0.58707
 C190 C 0.89462 0.86072 0.20855
 C191 C 0.86479 0.83313 0.21688
 C192 C 0.82901 0.80148 0.22707
 C193 C 0.80857 0.81635 0.23741
 C194 C 0.77404 0.78602 0.24746
 C195 C 0.75945 0.74030 0.24730
 C196 C 0.78009 0.72562 0.23681
 C197 C 0.81465 0.75606 0.22675
 C198 C 0.72340 0.70828 0.25826
 C199 C 0.72643 0.67333 0.26622
 C200 C 0.69328 0.64413 0.27696
 C201 C 0.65665 0.64936 0.27988
 C202 C 0.65304 0.68369 0.27190
 C203 C 0.68618 0.71297 0.26115
 C204 C 0.62344 0.62008 0.29136
 C205 C 0.59641 0.59547 0.30118
 H206 H 0.81952 0.85146 0.23779
 H207 H 0.75932 0.79846 0.25556
 H208 H 0.76926 0.69059 0.23628
 H209 H 0.83015 0.74418 0.21875
 H210 H 0.75493 0.66919 0.26442
 H211 H 0.69649 0.61777 0.28312
 H212 H 0.62479 0.68801 0.27405
 H213 H 0.68260 0.73918 0.25506
 C214 C 0.14497 0.00057 -0.12490
 C215 C 0.17451 0.00250 -0.11643
 C216 C 0.20873 0.00324 -0.10612
 C217 C 0.23490 -0.01406 -0.11122
 C218 C 0.26643 -0.01569 -0.10088
 C219 C 0.27206 -0.00016 -0.08526
 C220 C 0.24598 0.01771 -0.08033
 C221 C 0.21451 0.01935 -0.09070
 C222 C 0.30443 -0.00325 -0.07406
 C223 C 0.29335 -0.01596 -0.05784
 C224 C 0.32381 -0.01870 -0.04726
 C225 C 0.36572 -0.00884 -0.05272
 C226 C 0.37702 0.00361 -0.06885
 C227 C 0.34657 0.00633 -0.07947
 C228 C 0.39750 -0.01024 -0.04165
 C229 C 0.42413 -0.01061 -0.03218
 H230 H 0.23046 -0.02692 -0.12310
 H231 H 0.28562 -0.03010 -0.10496
 H232 H 0.24998 0.03052 -0.06847
 H233 H 0.19438 0.03274 -0.08662
 H234 H 0.26095 -0.02420 -0.05336
 H235 H 0.31473 -0.02835 -0.03480
 H236 H 0.40949 0.01157 -0.07318
 H237 H 0.35626 0.01667 -0.09184
 C238 C 0.00676 0.87613 0.54182
 C239 C 0.00489 0.84618 0.55026
 C240 C 0.00139 0.81035 0.56063
 C241 C -0.00222 0.77225 0.55418
 C242 C -0.00731 0.73683 0.56431
 C243 C -0.00902 0.73905 0.58103
 C244 C -0.00503 0.77766 0.58738
 C245 C 0.00011 0.81301 0.57724
 C246 C -0.01497 0.70135 0.59185
 C247 C -0.04285 0.68858 0.60534
 C248 C -0.04742 0.65401 0.61581
 C249 C -0.02429 0.63168 0.61293
 C250 C 0.00308 0.64372 0.59943
 C251 C 0.00767 0.67828 0.58893
 C252 C -0.02707 0.59782 0.62421
 C253 C -0.02840 0.57039 0.63389
 H254 H -0.00154 0.76974 0.54133
 H255 H -0.01075 0.70739 0.55906
 H256 H -0.00553 0.78068 0.60020
 H257 H 0.00284 0.84234 0.58236
 H258 H -0.06123 0.70525 0.60778
 H259 H -0.06865 0.64499 0.62623
 H260 H 0.02138 0.62685 0.59715
 H261 H 0.02974 0.68764 0.57876
 C262 C 0.15909 0.16903 0.20738
 C263 C 0.18577 0.19809 0.21568
 C264 C 0.21815 0.23169 0.22582
 C265 C 0.26369 0.25032 0.22272
 C266 C 0.29532 0.28108 0.23306
 C267 C 0.28179 0.29357 0.24666
 C268 C 0.23590 0.27508 0.24955
 C269 C 0.20432 0.24430 0.23920
 C270 C 0.31532 0.32502 0.25797
 C271 C 0.30924 0.35775 0.26485
 C272 C 0.34027 0.38660 0.27580
 C273 C 0.37776 0.38315 0.28003
 C274 C 0.38430 0.35092 0.27318
 C275 C 0.35332 0.32205 0.26221
 C276 C 0.40898 0.41225 0.29160
 C277 C 0.43440 0.43675 0.30144
 H278 H 0.27475 0.24072 0.21240
 H279 H 0.33037 0.29514 0.23039
 H280 H 0.22442 0.28357 0.26003
 H281 H 0.16916 0.22982 0.24178
 H282 H 0.28064 0.36123 0.26168
 H283 H 0.33492 0.41149 0.28101
 H284 H 0.41311 0.34785 0.27642
 H285 H 0.35863 0.29682 0.25729
 C286 C 0.83673 -0.04567 -0.12682
 C287 C 0.80888 -0.04477 -0.11875
 C288 C 0.77684 -0.04231 -0.10888
 C289 C 0.75521 -0.07415 -0.09650
 C290 C 0.72593 -0.07033 -0.08637
 C291 C 0.71800 -0.03448 -0.08846
 C292 C 0.73950 -0.00297 -0.10107
 C293 C 0.76872 -0.00688 -0.11120
 C294 C 0.68831 -0.02945 -0.07729
 C295 C 0.70000 0.01268 -0.07177
 C296 C 0.67279 0.01722 -0.06084
 C297 C 0.63353 -0.02021 -0.05533
 C298 C 0.62137 -0.06217 -0.06088
 C299 C 0.64854 -0.06680 -0.07179
 C300 C 0.60631 -0.01592 -0.04362
 C301 C 0.58341 -0.01320 -0.03363
 H302 H 0.76149 -0.10153 -0.09453
 H303 H 0.71037 -0.09480 -0.07664
 H304 H 0.73366 0.02467 -0.10312
 H305 H 0.78534 0.01799 -0.12073
 H306 H 0.73069 0.04198 -0.07561
 H307 H 0.68263 0.04983 -0.05656
 H308 H 0.59103 -0.09138 -0.05669
 H309 H 0.63836 -0.09957 -0.07597
 C310 C 0.16007 -0.01168 0.12668
 C311 C 0.18692 -0.01401 0.11851
 C312 C 0.21949 -0.01518 0.10852
 C313 C 0.20584 -0.04501 0.09612
 C314 C 0.23742 -0.04438 0.08587
 C315 C 0.28310 -0.01376 0.08787
 C316 C 0.29650 0.01571 0.10051
 C317 C 0.26488 0.01499 0.11075
 C318 C 0.31648 -0.01192 0.07660
 C319 C 0.35201 0.02929 0.07105
 C320 C 0.38267 0.03105 0.06006
 C321 C 0.37827 -0.00829 0.05450
 C322 C 0.34331 -0.04943 0.06007
 C323 C 0.31261 -0.05127 0.07104
 C324 C 0.40885 -0.00663 0.04279
 C325 C 0.43365 -0.00608 0.03282
 H326 H 0.17077 -0.06828 0.09422
 H327 H 0.22599 -0.06709 0.07613
 H328 H 0.33144 0.03926 0.10248
 H329 H 0.27580 0.03828 0.12030
 H330 H 0.35555 0.06017 0.07493
 H331 H 0.40948 0.06308 0.05577
 H332 H 0.33962 -0.08010 0.05586
 H333 H 0.28596 -0.08348 0.07524
 C334 C 0.84336 0.88788 0.45859
 C335 C 0.81609 0.85953 0.45019
 C336 C 0.78487 0.82563 0.43988
 C337 C 0.75860 0.78181 0.44584
 C338 C 0.73012 0.74843 0.43558
 C339 C 0.72773 0.75849 0.41920
 C340 C 0.75387 0.80277 0.41339
 C341 C 0.78225 0.83606 0.42367
 C342 C 0.69863 0.72294 0.40816
 C343 C 0.71362 0.72242 0.39272
 C344 C 0.68609 0.68940 0.38221
 C345 C 0.64327 0.65642 0.38697
 C346 C 0.62815 0.65638 0.40234
 C347 C 0.65566 0.68938 0.41289
 C348 C 0.61441 0.62368 0.37584
 C349 C 0.59024 0.59715 0.36626
 H350 H 0.76061 0.77331 0.45835
 H351 H 0.71080 0.71460 0.44037
 H352 H 0.75227 0.81169 0.40090
 H353 H 0.80250 0.86986 0.41893
 H354 H 0.74676 0.74737 0.38880
 H355 H 0.69813 0.68977 0.37033
 H356 H 0.59494 0.63116 0.40612
 H357 H 0.64301 0.68915 0.42463
 C358 C 0.00716 0.13425 0.79229
 C359 C 0.00569 0.16299 0.78413
 C360 C 0.00267 0.19629 0.77418
 C361 C -0.03487 0.20119 0.77512
 C362 C -0.03894 0.23207 0.76496
 C363 C -0.00547 0.25848 0.75371
 C364 C 0.03239 0.25365 0.75299
 C365 C 0.03637 0.22271 0.76315
 C366 C -0.01038 0.29029 0.74256
 C367 C 0.02648 0.33244 0.73878
 C368 C 0.02209 0.36185 0.72794
 C369 C -0.01915 0.34957 0.72072
 C370 C -0.05613 0.30789 0.72450
 C371 C -0.05183 0.27843 0.73536
 C372 C -0.02304 0.37935 0.70911
 C373 C -0.02531 0.40452 0.69923
 H374 H -0.06118 0.18088 0.78361
 H375 H -0.06820 0.23540 0.76595
 H376 H 0.05845 0.27305 0.74432
 H377 H 0.06543 0.21898 0.76225
 H378 H 0.05867 0.34275 0.74428
 H379 H 0.05093 0.39405 0.72510
 H380 H -0.08816 0.29796 0.71892
 H381 H -0.08068 0.24601 0.73785
 C382 C 0.89548 0.03203 0.12425
 C383 C 0.86574 0.02975 0.11580
 C384 C 0.83002 0.02554 0.10552
 C385 C 0.81634 0.05717 0.10548
 C386 C 0.78176 0.05290 0.09535
 C387 C 0.76040 0.01687 0.08514
 C388 C 0.77434 -0.01479 0.08533
 C389 C 0.80890 -0.01044 0.09545
 C390 C 0.72419 0.01257 0.07416
 C391 C 0.68646 -0.02934 0.07163
 C392 C 0.65302 -0.03348 0.06093
 C393 C 0.65682 0.00416 0.05265
 C394 C 0.69402 0.04602 0.05519
 C395 C 0.72747 0.05025 0.06588
 C396 C 0.62309 -0.00008 0.04131
 C397 C 0.59549 -0.00283 0.03165
 H398 H 0.83237 0.08508 0.11326
 H399 H 0.77144 0.07753 0.09561
 H400 H 0.75905 -0.04252 0.07746
 H401 H 0.81931 -0.03506 0.09535
 H402 H 0.68269 -0.05888 0.07798
 H403 H 0.62433 -0.06604 0.05908
 H404 H 0.69737 0.07536 0.04879
 H405 H 0.75634 0.08286 0.06740
 C406 C 0.15044 0.14817 0.45955
 C407 C 0.18062 0.17599 0.45140
 C408 C 0.21563 0.20976 0.44148
 C409 C 0.23256 0.25473 0.44442
 C410 C 0.26478 0.28772 0.43428
 C411 C 0.28049 0.27612 0.42102
 C412 C 0.26368 0.23079 0.41828
 C413 C 0.23142 0.19786 0.42844
 C414 C 0.31351 0.31107 0.40988
 C415 C 0.34832 0.30678 0.40355
 C416 C 0.37862 0.33910 0.39273
 C417 C 0.37459 0.37611 0.38808
 C418 C 0.34032 0.38089 0.39440
 C419 C 0.30998 0.34863 0.40524
 C420 C 0.40506 0.40851 0.37654
 C421 C 0.43063 0.43489 0.36671
 H422 H 0.22050 0.26431 0.45447
 H423 H 0.27748 0.32229 0.43681
 H424 H 0.27466 0.22079 0.40807
 H425 H 0.21830 0.16315 0.42598
 H426 H 0.35225 0.27856 0.40704
 H427 H 0.40507 0.33509 0.38792
 H428 H 0.33676 0.40931 0.39083
 H429 H 0.28321 0.35258 0.40973
 C430 C -0.03821 0.82507 0.79203
 C431 C -0.04057 0.79643 0.78378
 C432 C -0.04175 0.76331 0.77376
 C433 C -0.06741 0.75185 0.75974
 C434 C -0.06656 0.72152 0.74955
 C435 C -0.03989 0.70233 0.75325
 C436 C -0.01465 0.71366 0.76748
 C437 C -0.01559 0.74397 0.77765
 C438 C -0.03766 0.67142 0.74212
 C439 C 0.00333 0.67414 0.73893
 C440 C 0.00562 0.64587 0.72812
 C441 C -0.03297 0.61449 0.72037
 C442 C -0.07394 0.61126 0.72356
 C443 C -0.07632 0.63951 0.73436
 C444 C -0.03057 0.58618 0.70889
 C445 C -0.02927 0.56246 0.69911
 H446 H -0.08752 0.76688 0.75656
 H447 H -0.08589 0.71393 0.73859
 H448 H 0.00575 0.69904 0.77075
 H449 H 0.00447 0.75267 0.78846
 H450 H 0.03377 0.69875 0.74455
 H451 H 0.03755 0.64878 0.72568
 H452 H -0.10405 0.58704 0.71764
 H453 H -0.10842 0.63623 0.73670
   
