data_POSCAR
  _audit_creation_date              2014-09-24
  _audit_creation_method            'ToBaCCo'
  _symmetry_space_group_name_H-M    'P1'
  _symmetry_Int_Tables_number       1
  _symmetry_cell_setting            triclinic
  loop_
  _symmetry_equiv_pos_as_xyz
 x,y,z
_cell_length_a 38.0556
_cell_length_b 10.8238
_cell_length_c 15.2925
_cell_angle_alpha 91.881700
_cell_angle_beta 89.848200
_cell_angle_gamma 86.414100
loop_
  _atom_site_label
  _atom_site_type_symbol
  _atom_site_fract_x
  _atom_site_fract_y
  _atom_site_fract_z
C1 C 0.64898 0.14323 0.46763
 C2 C 0.66396 0.16545 0.55085
 C3 C 0.70043 0.17658 0.55466
 C4 C 0.72240 0.15081 0.48131
 C5 C 0.70659 0.12096 0.40043
 C6 C 0.66975 0.13230 0.39110
 C7 C 0.76104 0.16899 0.48925
 C8 C 0.78141 0.20010 0.41638
 C9 C 0.81742 0.22059 0.42590
 C10 C 0.83191 0.22128 0.50992
 C11 C 0.81287 0.18706 0.58177
 C12 C 0.77789 0.15753 0.57134
 H13 H 0.62071 0.14223 0.46148
 H14 H 0.71135 0.21344 0.61456
 H15 H 0.72254 0.09922 0.34274
 H16 H 0.77006 0.20228 0.35174
 H17 H 0.85940 0.23986 0.51866
 H18 H 0.76434 0.12365 0.62717
 C19 C 0.16346 0.70369 0.48927
 C20 C 0.17769 0.72002 0.57297
 C21 C 0.21277 0.75360 0.58000
 C22 C 0.23374 0.76947 0.50481
 C23 C 0.21801 0.75172 0.42178
 C24 C 0.18285 0.72387 0.41446
 C25 C 0.27136 0.80562 0.51245
 C26 C 0.29033 0.83905 0.43788
 C27 C 0.32694 0.84637 0.44006
 C28 C 0.34443 0.82928 0.51887
 C29 C 0.32617 0.81248 0.59653
 C30 C 0.28976 0.79876 0.59279
 H31 H 0.13616 0.68226 0.48180
 H32 H 0.22226 0.77576 0.64449
 H33 H 0.23187 0.76309 0.36138
 H34 H 0.27761 0.85560 0.37617
 H35 H 0.37291 0.82856 0.51985
 H36 H 0.27700 0.77440 0.65200
 C37 C 0.32886 0.39871 -0.49354
 C38 C 0.31519 0.36260 -0.57469
 C39 C 0.28165 0.31462 -0.57695
 C40 C 0.26057 0.31219 -0.50041
 C41 C 0.27659 0.34077 -0.41935
 C42 C 0.31108 0.37860 -0.41605
 C43 C 0.22263 0.27874 -0.50569
 C44 C 0.20349 0.24886 -0.43031
 C45 C 0.16757 0.22371 -0.43454
 C46 C 0.15085 0.22773 -0.51614
 C47 C 0.16893 0.25730 -0.59133
 C48 C 0.20441 0.28317 -0.58615
 H49 H 0.35488 0.43389 -0.48961
 H50 H 0.27271 0.27659 -0.63850
 H51 H 0.26332 0.33256 -0.35771
 H52 H 0.21565 0.24909 -0.36687
 H53 H 0.12345 0.20652 -0.52189
 H54 H 0.21689 0.31084 -0.64523
 C55 C -0.15468 0.71765 -0.48083
 C56 C -0.17083 0.74660 -0.56070
 C57 C -0.20701 0.78299 -0.55970
 C58 C -0.22812 0.77229 -0.48426
 C59 C -0.21108 0.73582 -0.40646
 C60 C -0.17443 0.71242 -0.40372
 C61 C -0.26772 0.79039 -0.48902
 C62 C -0.28917 0.80223 -0.41257
 C63 C -0.32610 0.79832 -0.41730
 C64 C -0.34152 0.78948 -0.50016
 C65 C -0.32113 0.78212 -0.57694
 C66 C -0.28467 0.78151 -0.57095
 H67 H -0.12626 0.70345 -0.47795
 H68 H -0.21876 0.81427 -0.61966
 H69 H -0.22572 0.72444 -0.34706
 H70 H -0.27762 0.81102 -0.34846
 H71 H -0.36936 0.77447 -0.50520
 H72 H -0.27013 0.76001 -0.63073
 O73 O -0.04392 0.78407 0.17793
 O74 O -0.08611 0.87831 0.09171
 C75 C -0.07651 0.81149 0.15752
 O76 O 0.04432 1.21325 0.14612
 O77 O 0.08504 1.09226 0.06609
 C78 C 0.07657 1.17898 0.12459
 O79 O -0.05261 1.19645 0.16352
 O80 O -0.09052 1.08020 0.08410
 C81 C -0.08357 1.15846 0.14671
 O82 O 0.05419 0.77456 0.16225
 O83 O 0.08963 0.88172 0.07391
 C84 C 0.08461 0.80955 0.13810
 Zr85 Zr 0.00330 0.83138 0.11756
 O86 O 0.00605 0.85650 0.25511
 O87 O 0.00432 0.63608 0.12286
 Zr88 Zr -0.00373 1.14429 0.10383
 O89 O -0.00035 1.17661 0.24053
 O90 O -0.01200 1.33709 0.08596
 O91 O -0.03089 0.98836 0.13039
 O92 O 0.03010 0.99119 0.12435
 O93 O 0.05066 0.74176 -0.15449
 O94 O 0.08812 0.86511 -0.07972
 C95 C 0.08148 0.78270 -0.13980
 O96 O -0.05584 1.14904 -0.17088
 O97 O -0.09206 1.05795 -0.07506
 C98 C -0.08650 1.11829 -0.14500
 O99 O 0.04255 1.17274 -0.16681
 O100 O 0.08406 1.06895 -0.08492
 C101 C 0.07524 1.14089 -0.14791
 O102 O -0.04727 0.74566 -0.15097
 O103 O -0.08761 0.85660 -0.06366
 C104 C -0.07940 0.77624 -0.12632
 Zr105 Zr 0.00109 0.80204 -0.10014
 O106 O 0.00201 0.75776 -0.23573
 O107 O 0.00263 0.61036 -0.07561
 Zr108 Zr -0.00573 1.11720 -0.11325
 O109 O -0.00460 1.12697 -0.25098
 O110 O -0.01436 1.31244 -0.10589
 Zr111 Zr -0.05392 0.97107 0.00599
 Zr112 Zr 0.05130 0.97575 -0.00293
 O113 O 0.02709 0.95910 -0.12627
 O114 O -0.03303 0.95565 -0.12214
 O115 O 0.03480 0.79417 0.00668
 O116 O -0.03673 1.15132 -0.00309
 O117 O -0.02853 0.79323 0.01218
 O118 O 0.02684 1.15598 -0.00832
 H119 H 0.04549 0.99832 0.17612
 H120 H -0.05516 1.22018 -0.00455
 H121 H 0.04068 0.95482 -0.18160
 H122 H -0.04335 0.72155 0.01661
 H123 H 0.00973 1.36559 0.05967
 H124 H 0.00893 1.34762 -0.10000
 H125 H -0.00831 1.04260 -0.27439
 H126 H -0.00609 0.83433 -0.26511
 H127 H 0.02763 0.58151 -0.06859
 H128 H 0.02528 0.60236 0.08954
 H129 H 0.00642 0.77300 0.27985
 H130 H -0.00497 1.09748 0.26774
 O131 O 0.44804 0.32229 0.15575
 O132 O 0.41083 0.46362 0.08853
 C133 C 0.41703 0.37760 0.14417
 O134 O 0.55631 0.68747 0.17522
 O135 O 0.59145 0.56844 0.07866
 C136 C 0.58673 0.63976 0.14840
 O137 O 0.45843 0.72872 0.19012
 O138 O 0.41578 0.66066 0.09868
 C139 C 0.42578 0.72265 0.16702
 O140 O 0.54631 0.25600 0.13045
 O141 O 0.58607 0.36318 0.05590
 C142 C 0.57850 0.27738 0.10901
 Zr143 Zr 0.49776 0.35206 0.09801
 O144 O 0.50297 0.31553 0.23259
 O145 O 0.49085 0.16341 0.06745
 Zr146 Zr 0.50527 0.66431 0.12419
 O147 O 0.50961 0.67243 0.26190
 O148 O 0.50705 0.85945 0.12442
 O149 O 0.47133 0.52133 0.13392
 O150 O 0.53119 0.49103 0.12191
 O151 O 0.54006 0.30269 -0.17791
 O152 O 0.58367 0.38731 -0.09597
 C153 C 0.57284 0.32029 -0.16130
 O154 O 0.45253 0.75832 -0.14365
 O155 O 0.41259 0.67041 -0.05638
 C156 C 0.42064 0.73699 -0.12131
 O157 O 0.54986 0.73271 -0.14264
 O158 O 0.58903 0.59529 -0.07867
 C159 C 0.58157 0.68696 -0.13048
 O160 O 0.44176 0.36537 -0.16709
 O161 O 0.40763 0.47617 -0.06571
 C162 C 0.41125 0.41010 -0.13726
 Zr163 Zr 0.49359 0.38039 -0.11725
 O164 O 0.49272 0.37864 -0.25550
 O165 O 0.48598 0.18810 -0.12130
 Zr166 Zr 0.50106 0.69149 -0.09148
 O167 O 0.50190 0.73646 -0.22487
 O168 O 0.50079 0.88402 -0.06194
 Zr169 Zr 0.44734 0.54862 0.01142
 Zr170 Zr 0.55240 0.49695 -0.00489
 O171 O 0.52699 0.52360 -0.12579
 O172 O 0.46673 0.55270 -0.11751
 O173 O 0.52738 0.32803 -0.01652
 O174 O 0.47242 0.71602 0.02253
 O175 O 0.46384 0.36025 -0.00638
 O176 O 0.53600 0.68615 0.01349
 H177 H 0.54553 0.47436 0.17342
 H178 H 0.45719 0.79351 0.02909
 H179 H 0.54055 0.52374 -0.18113
 H180 H 0.44546 0.29923 -0.00918
 H181 H 0.53200 0.87886 0.11838
 H182 H 0.52433 0.90079 -0.03890
 H183 H 0.49924 0.65834 -0.25883
 H184 H 0.48254 0.46078 -0.27221
 H185 H 0.50838 0.14464 -0.10367
 H186 H 0.48946 0.12294 0.12440
 H187 H 0.49223 0.38881 0.26525
 H188 H 0.50646 0.58778 0.28158
 C189 C 0.32748 0.39781 0.26199
 C190 C 0.33858 0.36003 0.34623
 C191 C 0.37372 0.31649 0.35690
 C192 C 0.39794 0.31455 0.28901
 C193 C 0.38801 0.35163 0.20550
 C194 C 0.35179 0.38542 0.19009
 C195 C 0.29332 0.45173 0.24758
 C196 C 0.28212 0.47955 0.16340
 C197 C 0.30450 0.45387 0.09223
 C198 C 0.33907 0.40775 0.10512
 H199 H 0.27514 0.47475 0.30086
 H200 H 0.25578 0.51982 0.15310
 H201 H 0.29508 0.47102 0.02682
 H202 H 0.35539 0.38715 0.04795
 H203 H 0.38305 0.28748 0.42006
 H204 H 0.42522 0.28974 0.30378
 C205 C -0.12387 0.64967 0.33924
 C206 C -0.15074 0.74422 0.36053
 C207 C -0.15668 0.84049 0.30165
 C208 C -0.13415 0.85334 0.23122
 C209 C -0.10438 0.77224 0.21726
 C210 C -0.10038 0.66456 0.26778
 C211 C -0.12112 0.53697 0.38379
 C212 C -0.09431 0.44683 0.36412
 C213 C -0.07098 0.46291 0.29605
 C214 C -0.07445 0.56891 0.24679
 H215 H -0.14028 0.51536 0.43220
 H216 H -0.09224 0.36247 0.40034
 H217 H -0.05073 0.39123 0.27967
 H218 H -0.05741 0.57255 0.19052
 H219 H -0.17700 0.91364 0.31383
 H220 H -0.13860 0.93382 0.19152
 C221 C 0.64847 0.61640 0.34392
 C222 C 0.66282 0.73257 0.34206
 C223 C 0.65777 0.80456 0.26821
 C224 C 0.63496 0.76846 0.20140
 C225 C 0.61692 0.65960 0.20735
 C226 C 0.62402 0.58204 0.27936
 C227 C 0.65672 0.53658 0.41285
 C228 C 0.63742 0.43548 0.42582
 C229 C 0.61157 0.40482 0.36668
 C230 C 0.60633 0.47360 0.29195
 H231 H 0.67731 0.55400 0.45953
 H232 H 0.64325 0.38228 0.48222
 H233 H 0.59667 0.32448 0.37643
 H234 H 0.58909 0.43883 0.24431
 H235 H 0.67006 0.89165 0.26454
 H236 H 0.62970 0.82959 0.14764
 C237 C 0.12087 1.34834 0.31200
 C238 C 0.14976 1.26217 0.32469
 C239 C 0.15841 1.17125 0.25983
 C240 C 0.13646 1.15529 0.18808
 C241 C 0.10510 1.22967 0.17930
 C242 C 0.09893 1.33430 0.23746
 C243 C 0.11350 1.44875 0.37189
 C244 C 0.08544 1.53461 0.35806
 C245 C 0.06466 1.52319 0.28398
 C246 C 0.07155 1.42549 0.22351
 H247 H 0.12972 1.46288 0.42888
 H248 H 0.08015 1.61158 0.40418
 H249 H 0.04328 1.59101 0.27288
 H250 H 0.05597 1.42466 0.16466
 H251 H 0.18083 1.10598 0.26823
 H252 H 0.14247 1.07642 0.14395
 C253 C 0.65153 0.15858 -0.28675
 C254 C 0.64253 0.19573 -0.37378
 C255 C 0.61074 0.26717 -0.38486
 C256 C 0.58969 0.30735 -0.31464
 C257 C 0.59831 0.27495 -0.22954
 C258 C 0.62913 0.19920 -0.21451
 C259 C 0.68006 0.07233 -0.27034
 C260 C 0.68731 0.03269 -0.18609
 C261 C 0.66597 0.07534 -0.11618
 C262 C 0.63690 0.15675 -0.13012
 H263 H 0.69628 0.03014 -0.32231
 H264 H 0.70924 -0.03363 -0.17533
 H265 H 0.67148 0.04291 -0.05112
 H266 H 0.62005 0.18315 -0.07474
 H267 H 0.60157 0.29536 -0.44826
 H268 H 0.56593 0.36441 -0.32740
 C269 C 0.16429 0.66976 -0.27145
 C270 C 0.15511 0.72327 -0.35310
 C271 C 0.12204 0.78752 -0.36042
 C272 C 0.09904 0.80175 -0.29047
 C273 C 0.10802 0.75521 -0.20898
 C274 C 0.14089 0.68951 -0.19817
 C275 C 0.19464 0.58935 -0.26239
 C276 C 0.20285 0.53695 -0.18224
 C277 C 0.18121 0.56360 -0.10967
 C278 C 0.15028 0.63852 -0.11748
 H279 H 0.21163 0.56311 -0.31752
 H280 H 0.22610 0.47490 -0.17643
 H281 H 0.18806 0.52370 -0.04761
 H282 H 0.13343 0.65439 -0.06079
 H283 H 0.11418 0.83275 -0.42010
 H284 H 0.07409 0.85346 -0.29980
 C285 C 0.33912 0.86110 -0.24582
 C286 C 0.34578 0.79344 -0.32658
 C287 C 0.37529 0.70914 -0.33337
 C288 C 0.39876 0.69549 -0.26563
 C289 C 0.39352 0.76288 -0.18698
 C290 C 0.36320 0.84376 -0.17485
 C291 C 0.31063 0.95049 -0.23493
 C292 C 0.30495 1.01523 -0.15522
 C293 C 0.32782 0.99461 -0.08548
 C294 C 0.35693 0.91038 -0.09515
 H295 H 0.29276 0.97277 -0.28764
 H296 H 0.28281 1.08261 -0.14775
 H297 H 0.32326 1.04555 -0.02398
 H298 H 0.37461 0.89844 -0.04029
 H299 H 0.38044 0.65269 -0.39248
 H300 H 0.42132 0.62992 -0.27465
 C301 C -0.16687 1.25430 -0.26704
 C302 C -0.16751 1.16483 -0.33669
 C303 C -0.14324 1.06230 -0.33826
 C304 C -0.11763 1.04973 -0.27441
 C305 C -0.11590 1.13761 -0.20587
 C306 C -0.14072 1.24045 -0.20074
 C307 C -0.19067 1.35950 -0.26367
 C308 C -0.18873 1.44910 -0.19640
 C309 C -0.16304 1.43585 -0.13199
 C310 C -0.13922 1.33234 -0.13371
 H311 H -0.21071 1.37344 -0.31308
 H312 H -0.20694 1.53009 -0.19488
 H313 H -0.16127 1.50706 -0.08117
 H314 H -0.11932 1.32567 -0.08338
 H315 H -0.14297 0.99465 -0.39220
 H316 H -0.09842 0.97149 -0.27957
 C317 C 0.61980 0.85775 -0.31953
 C318 C 0.65188 0.78602 -0.33633
 C319 C 0.66247 0.69499 -0.27623
 C320 C 0.64099 0.66843 -0.20527
 C321 C 0.60927 0.73811 -0.18768
 C322 C 0.60087 0.84257 -0.24034
 C323 C 0.60563 0.94450 -0.37918
 C324 C 0.57445 1.01487 -0.36090
 C325 C 0.55912 1.01234 -0.27878
 C326 C 0.57320 0.93126 -0.21760
 H327 H 0.61834 0.96151 -0.43994
 H328 H 0.56347 1.07788 -0.40865
 H329 H 0.53654 1.07440 -0.26208
 H330 H 0.56211 0.93855 -0.15257
 H331 H 0.68643 0.63737 -0.28797
 H332 H 0.64848 0.58902 -0.16661
 C333 C 0.15968 1.12855 -0.28853
 C334 C 0.14753 1.20459 -0.35809
 C335 C 0.11425 1.26803 -0.34945
 C336 C 0.09281 1.25438 -0.27735
 C337 C 0.10359 1.17862 -0.20852
 C338 C 0.13889 1.12364 -0.21052
 C339 C 0.19084 1.05027 -0.29669
 C340 C 0.20385 0.98332 -0.22632
 C341 C 0.18618 0.99225 -0.14671
 C342 C 0.15422 1.06182 -0.13840
 H343 H 0.20519 1.03806 -0.35774
 H344 H 0.22809 0.92592 -0.23308
 H345 H 0.19714 0.94402 -0.09114
 H346 H 0.14291 1.06957 -0.07371
 H347 H 0.10444 1.33012 -0.39926
 H348 H 0.06682 1.30134 -0.27729
 C349 C 0.32386 0.46405 -0.26256
 C350 C 0.33131 0.37924 -0.33338
 C351 C 0.36030 0.29396 -0.32881
 C352 C 0.38387 0.29916 -0.26013
 C353 C 0.37944 0.38952 -0.19235
 C354 C 0.34732 0.46707 -0.18947
 C355 C 0.29408 0.54827 -0.26422
 C356 C 0.28622 0.63027 -0.19396
 C357 C 0.30758 0.62919 -0.12069
 C358 C 0.33770 0.54924 -0.11809
 H359 H 0.27666 0.55184 -0.31986
 H360 H 0.26330 0.69452 -0.19608
 H361 H 0.30093 0.69151 -0.06548
 H362 H 0.35196 0.55245 -0.05787
 H363 H 0.36575 0.22598 -0.38156
 H364 H 0.40694 0.23519 -0.26294
 C365 C -0.12787 0.60646 -0.30715
 C366 C -0.15592 0.69690 -0.31882
 C367 C -0.16328 0.78684 -0.25231
 C368 C -0.14017 0.80086 -0.18298
 C369 C -0.10862 0.72678 -0.17884
 C370 C -0.10407 0.62094 -0.23620
 C371 C -0.12328 0.50131 -0.36392
 C372 C -0.09559 0.41304 -0.35196
 C373 C -0.07250 0.42649 -0.28238
 C374 C -0.07681 0.52848 -0.22434
 H375 H -0.14171 0.48482 -0.41602
 H376 H -0.09244 0.33249 -0.39574
 H377 H -0.05148 0.35642 -0.27249
 H378 H -0.05943 0.53157 -0.16865
 H379 H -0.18514 0.85507 -0.25840
 H380 H -0.14524 0.87955 -0.13814
 C381 C 0.37928 0.91409 0.35301
 C382 C 0.34816 0.84837 0.35835
 C383 C 0.34073 0.76319 0.29100
 C384 C 0.36515 0.73158 0.22534
 C385 C 0.39795 0.78391 0.22447
 C386 C 0.40416 0.88285 0.28478
 C387 C 0.38668 1.00799 0.41544
 C388 C 0.41870 1.06372 0.41396
 C389 C 0.44221 1.03743 0.34525
 C390 C 0.43455 0.95107 0.27969
 H391 H 0.36796 1.03844 0.46625
 H392 H 0.42471 1.13145 0.46449
 H393 H 0.46615 1.08611 0.34173
 H394 H 0.45248 0.94040 0.22487
 H395 H 0.31729 0.71150 0.29341
 H396 H 0.35929 0.65805 0.17896
 C397 C -0.16457 1.28855 0.27760
 C398 C -0.15939 1.21687 0.35361
 C399 C -0.12915 1.13567 0.35833
 C400 C -0.10519 1.12201 0.29060
 C401 C -0.11050 1.18648 0.21409
 C402 C -0.13985 1.27207 0.20682
 C403 C -0.19166 1.38335 0.27310
 C404 C -0.19490 1.45693 0.19997
 C405 C -0.17147 1.43754 0.13003
 C406 C -0.14411 1.34588 0.13309
 H407 H -0.20971 1.40454 0.32702
 H408 H -0.21545 1.53056 0.19797
 H409 H -0.17415 1.49555 0.07391
 H410 H -0.12575 1.33544 0.07878
 H411 H -0.12441 1.07777 0.41417
 H412 H -0.08257 1.05681 0.29710
 C413 C 0.66340 0.23163 0.23956
 C414 C 0.65231 0.14785 0.30313
 C415 C 0.62097 0.08885 0.28706
 C416 C 0.59909 0.12057 0.21707
 C417 C 0.60811 0.20936 0.15725
 C418 C 0.64281 0.25220 0.16230
 C419 C 0.69287 0.30361 0.25306
 C420 C 0.70468 0.37797 0.18793
 C421 C 0.68756 0.38299 0.10806
 C422 C 0.65694 0.32115 0.09513
 H423 H 0.70664 0.30784 0.31429
 H424 H 0.72744 0.43118 0.19934
 H425 H 0.69762 0.43731 0.05645
 H426 H 0.64518 0.32616 0.03123
 H427 H 0.61196 0.02321 0.33281
 H428 H 0.57364 0.08119 0.21364
 C429 C 0.16238 0.65823 0.26215
 C430 C 0.16326 0.74588 0.33277
 C431 C 0.14128 0.85428 0.33201
 C432 C 0.11707 0.87341 0.26579
 C433 C 0.11401 0.78503 0.19807
 C434 C 0.13698 0.67708 0.19459
 C435 C 0.18544 0.55129 0.25821
 C436 C 0.18350 0.46463 0.18901
 C437 C 0.15812 0.48161 0.12418
 C438 C 0.13482 0.58656 0.12702
 H439 H 0.20506 0.53444 0.30822
 H440 H 0.20136 0.38273 0.18653
 H441 H 0.15622 0.41234 0.07201
 H442 H 0.11497 0.59596 0.07680
 H443 H 0.14184 0.92246 0.38548
 H444 H 0.09954 0.95631 0.26937
   
