data_POSCAR
  _audit_creation_date              2014-09-24
  _audit_creation_method            'ToBaCCo'
  _symmetry_space_group_name_H-M    'P1'
  _symmetry_Int_Tables_number       1
  _symmetry_cell_setting            triclinic
  loop_
  _symmetry_equiv_pos_as_xyz
 x,y,z
_cell_length_a 32.1892
_cell_length_b 33.6680
_cell_length_c 31.8421
_cell_angle_alpha 89.773600
_cell_angle_beta 90.398200
_cell_angle_gamma 89.629600
loop_
  _atom_site_label
  _atom_site_type_symbol
  _atom_site_fract_x
  _atom_site_fract_y
  _atom_site_fract_z
N1 N 0.14964 0.20257 0.26952
 N2 N 0.18438 0.18371 0.27866
 C3 C 0.18015 0.16400 0.31508
 C4 C 0.13983 0.16931 0.32932
 C5 C 0.12152 0.19459 0.29958
 H6 H 0.20424 0.14546 0.32855
 H7 H 0.08987 0.20549 0.29898
 Cu8 Cu 0.22908 0.17950 0.23864
 Cu9 Cu 0.14410 0.23412 0.21782
 Cu10 Cu 0.22909 0.23451 0.15111
 N11 N 0.26074 0.16366 0.18986
 N12 N 0.26158 0.18560 0.15570
 C13 C 0.28600 0.16781 0.12715
 C14 C 0.30068 0.13228 0.14414
 C15 C 0.28387 0.13079 0.18411
 H16 H 0.29136 0.17927 0.09589
 H17 H 0.28804 0.10778 0.20756
 N18 N 0.18207 0.27159 0.14458
 N19 N 0.15006 0.27207 0.17032
 C20 C 0.12483 0.30254 0.15946
 C21 C 0.14140 0.32164 0.12480
 C22 C 0.17755 0.30101 0.11612
 H23 H 0.09670 0.31018 0.17585
 H24 H 0.19975 0.30789 0.09185
 H25 H 0.18546 0.20249 0.18074
 H26 H 0.20651 0.24439 0.21252
 N27 N -0.12739 0.80396 0.27587
 N28 N -0.15038 0.83638 0.27502
 C29 C -0.14240 0.85795 0.30948
 C30 C -0.11224 0.83837 0.33280
 C31 C -0.10293 0.80438 0.31041
 H32 H -0.15654 0.88639 0.31647
 H33 H -0.08065 0.78147 0.31889
 Cu34 Cu -0.18631 0.84918 0.22762
 Cu35 Cu -0.13289 0.76373 0.23232
 Cu36 Cu -0.22892 0.77003 0.18197
 N37 N -0.23259 0.85476 0.18876
 N38 N -0.25096 0.82335 0.17317
 C39 C -0.28563 0.83479 0.15257
 C40 C -0.28877 0.87592 0.15447
 C41 C -0.25415 0.88752 0.17755
 H42 H -0.30698 0.81442 0.13788
 H43 H -0.24663 0.91711 0.18804
 N44 N -0.19275 0.72262 0.17973
 N45 N -0.15638 0.72012 0.19904
 C46 C -0.13782 0.68571 0.18851
 C47 C -0.16336 0.66605 0.16053
 C48 C -0.19782 0.69030 0.15553
 H49 H -0.10669 0.67706 0.19790
 H50 H -0.22349 0.68585 0.13400
 H51 H -0.16959 0.79137 0.18495
 H52 H -0.19333 0.77754 0.23626
 N53 N -0.18626 0.21562 -0.29046
 N54 N -0.20775 0.18262 -0.28802
 C55 C -0.19587 0.15797 -0.31887
 C56 C -0.16502 0.17635 -0.34162
 C57 C -0.15957 0.21291 -0.32275
 H58 H -0.20731 0.12814 -0.32331
 H59 H -0.13751 0.23556 -0.33144
 Cu60 Cu -0.24624 0.17385 -0.24237
 Cu61 Cu -0.19508 0.25938 -0.25138
 Cu62 Cu -0.24267 0.23216 -0.15802
 N63 N -0.28592 0.16747 -0.19730
 N64 N -0.28469 0.19086 -0.16439
 C65 C -0.31393 0.17944 -0.13699
 C66 C -0.33452 0.14676 -0.15345
 C67 C -0.31581 0.14016 -0.19191
 H68 H -0.31865 0.19322 -0.10678
 H69 H -0.32328 0.11718 -0.21427
 N70 N -0.21050 0.28155 -0.16451
 N71 N -0.19421 0.29265 -0.20057
 C72 C -0.17449 0.32738 -0.19519
 C73 C -0.17787 0.33863 -0.15350
 C74 C -0.20125 0.30883 -0.13511
 H75 H -0.15784 0.34253 -0.21973
 H76 H -0.21034 0.30669 -0.10259
 H77 H -0.19954 0.21839 -0.20490
 H78 H -0.24958 0.24294 -0.21996
 N79 N 0.16176 0.79966 -0.27797
 N80 N 0.18654 0.83053 -0.27614
 C81 C 0.17127 0.85970 -0.30078
 C82 C 0.13507 0.84639 -0.31923
 C83 C 0.13000 0.80803 -0.30448
 H84 H 0.18537 0.88852 -0.30469
 H85 H 0.10427 0.78843 -0.31100
 Cu86 Cu 0.23604 0.83060 -0.24109
 Cu87 Cu 0.17157 0.75294 -0.24236
 Cu88 Cu 0.22787 0.77734 -0.15287
 N89 N 0.27710 0.83476 -0.19661
 N90 N 0.27424 0.81324 -0.16230
 C91 C 0.30523 0.82302 -0.13585
 C92 C 0.32872 0.85273 -0.15439
 C93 C 0.30981 0.85925 -0.19317
 H94 H 0.30907 0.81034 -0.10488
 H95 H 0.31837 0.88075 -0.21681
 N96 N 0.19018 0.73144 -0.15581
 N97 N 0.17141 0.72027 -0.19081
 C98 C 0.14940 0.68715 -0.18309
 C99 C 0.15414 0.67754 -0.14108
 C100 C 0.17989 0.70628 -0.12467
 H101 H 0.12942 0.67259 -0.20564
 H102 H 0.19012 0.70873 -0.09236
 H103 H 0.18556 0.79440 -0.19926
 H104 H 0.23047 0.76243 -0.21437
 N105 N 0.22604 1.17564 0.70601
 N106 N 0.19484 1.20101 0.70556
 C107 C 0.16997 1.19334 0.67258
 C108 C 0.18623 1.16123 0.65092
 C109 C 0.22220 1.15104 0.67292
 H110 H 0.14100 1.20875 0.66639
 H111 H 0.24299 1.12646 0.66664
 Cu112 Cu 0.18682 1.23938 0.75020
 Cu113 Cu 0.26572 1.17420 0.75298
 Cu114 Cu 0.21708 1.20490 0.84417
 N115 N 0.17017 1.26581 0.80139
 N116 N 0.18087 1.25121 0.83827
 C117 C 0.16298 1.27306 0.86850
 C118 C 0.14031 1.30333 0.84952
 C119 C 0.14564 1.29789 0.80681
 H120 H 0.16662 1.26758 0.90183
 H121 H 0.13185 1.31522 0.78161
 N122 N 0.26725 1.17087 0.84392
 N123 N 0.28745 1.16133 0.80941
 C124 C 0.32222 1.14105 0.82001
 C125 C 0.32365 1.13741 0.86333
 C126 C 0.28830 1.15653 0.87738
 H127 H 0.34431 1.12917 0.79783
 H128 H 0.27923 1.16064 0.90973
 H129 H 0.21279 1.17941 0.78524
 H130 H 0.24834 1.22248 0.79195
 N131 N 0.83587 0.85539 0.76828
 N132 N 0.84487 0.82445 0.74492
 C133 C 0.86370 0.83667 0.70967
 C134 C 0.86719 0.87755 0.71121
 C135 C 0.84957 0.88847 0.74905
 H136 H 0.87385 0.81729 0.68470
 H137 H 0.84524 0.91834 0.76073
 Cu138 Cu 0.83139 0.77124 0.76298
 Cu139 Cu 0.80444 0.84986 0.82028
 Cu140 Cu 0.75680 0.75846 0.83406
 N141 N 0.82575 0.72125 0.79260
 N142 N 0.79564 0.71543 0.81953
 C143 C 0.80012 0.67891 0.83646
 C144 C 0.83566 0.66127 0.81999
 C145 C 0.85074 0.68915 0.79193
 H146 H 0.78002 0.66715 0.86043
 H147 H 0.87882 0.68724 0.77362
 N148 N 0.73691 0.80747 0.86145
 N149 N 0.75707 0.84138 0.85850
 C150 C 0.73719 0.86904 0.88133
 C151 C 0.70239 0.85204 0.89916
 C152 C 0.70324 0.81286 0.88579
 H153 H 0.74648 0.89969 0.88282
 H154 H 0.68107 0.78995 0.89331
 H155 H 0.80955 0.78958 0.83366
 H156 H 0.77144 0.80556 0.79253
 N157 N 0.20145 0.82258 1.27466
 N158 N 0.16640 0.82135 1.25292
 C159 C 0.13789 0.84426 1.27202
 C160 C 0.15579 0.86044 1.30759
 C161 C 0.19599 0.84574 1.30862
 H162 H 0.10675 0.84973 1.26030
 H163 H 0.22043 0.85406 1.33030
 Cu164 Cu 0.15985 0.79062 1.20057
 Cu165 Cu 0.25386 0.80130 1.25240
 Cu166 Cu 0.24599 0.74587 1.16591
 N167 N 0.15773 0.74638 1.16122
 N168 N 0.19150 0.72800 1.14849
 C169 C 0.18087 0.69871 1.12200
 C170 C 0.13806 0.69905 1.11752
 C171 C 0.12439 0.72982 1.14273
 H172 H 0.20267 0.67913 1.10656
 H173 H 0.09261 0.73912 1.14785
 N174 N 0.29564 0.77669 1.17721
 N175 N 0.29940 0.79722 1.21204
 C176 C 0.33349 0.81996 1.20954
 C177 C 0.35155 0.81429 1.17054
 C178 C 0.32692 0.78601 1.15119
 H179 H 0.34170 0.84202 1.23266
 H180 H 0.32899 0.77617 1.11897
 H181 H 0.22137 0.80703 1.19829
 H182 H 0.20739 0.76219 1.22948
 N183 N 0.79715 1.16765 1.26491
 N184 N 0.83335 1.17476 1.24775
 C185 C 0.86310 1.15427 1.26826
 C186 C 0.84478 1.13357 1.30072
 C187 C 0.80280 1.14286 1.29778
 H188 H 0.89564 1.15536 1.26048
 H189 H 0.77808 1.13163 1.31726
 Cu190 Cu 0.83944 1.21257 1.20268
 Cu191 Cu 0.74595 1.19007 1.24142
 Cu192 Cu 0.75575 1.24366 1.14895
 N193 N 0.83959 1.26172 1.17124
 N194 N 0.80667 1.27482 1.15070
 C195 C 0.81585 1.30977 1.13232
 C196 C 0.85681 1.31863 1.14197
 C197 C 0.87082 1.28748 1.16662
 H198 H 0.79465 1.32691 1.11283
 H199 H 0.90142 1.28391 1.18043
 N200 N 0.70360 1.21834 1.16550
 N201 N 0.69920 1.19995 1.20185
 C202 C 0.66247 1.18116 1.20182
 C203 C 0.64333 1.18678 1.16307
 C204 C 0.67020 1.21117 1.14114
 H205 H 0.65256 1.16170 1.22678
 H206 H 0.66767 1.22004 1.10856
 H207 H 0.77099 1.19041 1.18221
 H208 H 0.76922 1.23917 1.21033
 O209 O 0.53727 0.94456 0.96334
 O210 O 0.46378 0.95841 1.09916
 O211 O 0.58643 0.99943 1.06361
 O212 O 0.46089 0.93833 0.96803
 O213 O 0.54168 0.96442 1.09962
 O214 O 0.48136 0.96775 0.91161
 O215 O 0.45444 0.92656 1.04190
 O216 O 0.58620 0.98190 0.98928
 C217 C 0.57479 0.94922 0.97322
 C218 C 0.45266 0.92762 1.08075
 C219 C 0.57828 0.97165 1.08918
 C220 C 0.45588 0.94300 0.92884
 O221 O 0.47613 1.03443 0.94714
 O222 O 0.53365 1.04062 1.10166
 O223 O 0.54638 1.05444 0.97338
 O224 O 0.41507 0.99782 1.05213
 O225 O 0.45636 1.03462 1.09104
 O226 O 0.54789 1.01119 0.92728
 O227 O 0.42242 1.01045 0.97692
 O228 O 0.54518 1.06902 1.04345
 Co229 Co 0.50532 0.98923 0.95786
 Co230 Co 0.49931 0.99936 1.09055
 Co231 Co 0.56147 1.02390 1.01744
 Co232 Co 0.44358 0.97079 1.01048
 O233 O 0.50356 0.99735 1.02167
 C234 C 0.43824 1.03626 0.95378
 C235 C 0.54317 1.07106 1.08200
 C236 C 0.55771 1.04522 0.93773
 C237 C 0.42090 1.02657 1.07703
 O238 O 0.03439 0.47232 0.06457
 O239 O 0.04681 0.52741 -0.07201
 O240 O 0.00532 0.40296 -0.04170
 O241 O 0.00054 0.59064 0.01827
 O242 O 0.03718 0.45411 -0.07064
 O243 O 0.03606 0.54837 0.05799
 O244 O 0.00889 0.57914 -0.05613
 O245 O 0.04592 0.44637 0.00393
 C246 C 0.05530 0.44961 0.04183
 C247 C 0.04308 0.56426 -0.06810
 C248 C 0.03110 0.41650 -0.07021
 C249 C 0.03082 0.58263 0.04288
 O250 O -0.04263 0.55019 0.06967
 O251 O -0.04363 0.46645 -0.09097
 O252 O -0.02469 0.42578 0.03435
 O253 O -0.07189 0.54657 -0.05674
 O254 O -0.02797 0.53762 -0.10323
 O255 O -0.04732 0.47623 0.07015
 O256 O -0.07869 0.56252 0.01445
 O257 O -0.06216 0.44181 -0.03225
 Co258 Co -0.00536 0.51100 0.05841
 Co259 Co 0.00128 0.49713 -0.07719
 Co260 Co -0.00851 0.44797 -0.01513
 Co261 Co -0.03363 0.56494 -0.02014
 O262 O -0.01289 0.50738 -0.01009
 C263 C -0.07548 0.56255 0.05328
 C264 C -0.06960 0.44737 -0.07002
 C265 C -0.04661 0.43971 0.06320
 C266 C -0.06379 0.54780 -0.09416
 O267 O 1.08228 0.04195 0.46647
 O268 O 0.92040 0.04762 0.53921
 O269 O 0.96302 0.01719 0.41447
 O270 O 1.04628 0.06898 0.55243
 O271 O 0.92898 0.04705 0.46244
 O272 O 1.09200 0.02614 0.54259
 O273 O 0.97488 0.07587 0.56462
 O274 O 1.02465 0.05698 0.43577
 C275 C 1.06137 0.06550 0.44383
 C276 C 0.93678 0.07575 0.55848
 C277 C 0.93521 0.04115 0.42454
 C278 C 1.08333 0.06067 0.55215
 O279 O 1.06264 -0.04489 0.53127
 O280 O 0.93197 -0.03298 0.46537
 O281 O 1.03920 -0.00785 0.39848
 O282 O 0.96777 0.00072 0.59207
 O283 O 0.92799 -0.02826 0.54445
 O284 O 1.06685 -0.03614 0.45410
 O285 O 1.04344 -0.00904 0.58501
 O286 O 0.99459 -0.04688 0.44663
 Co287 Co 1.06871 -0.00130 0.49896
 Co288 Co 0.93434 0.00855 0.50248
 Co289 Co 1.01005 0.00563 0.44419
 Co290 Co 1.00852 0.03225 0.56809
 O291 O 1.00187 0.01279 0.50590
 C292 C 1.05664 -0.04162 0.57001
 C293 C 0.95748 -0.05675 0.44937
 C294 C 1.06895 -0.02987 0.41461
 C295 C 0.93978 -0.02409 0.58195
 C296 C 1.14405 0.12509 0.39103
 C297 C 1.12123 0.15053 0.36416
 C298 C 1.07829 0.15480 0.37291
 C299 C 1.05861 0.12947 0.40210
 C300 C 1.08152 0.10000 0.42391
 C301 C 1.12474 0.10100 0.42039
 C302 C 1.15499 0.06778 0.41452
 C303 C 1.17606 0.09375 0.38217
 H304 H 1.05898 0.17517 0.35499
 H305 H 1.02516 0.13097 0.40513
 H306 H 1.14053 0.04081 0.40077
 H307 H 1.17431 0.06243 0.44308
 H308 H 1.17359 0.08169 0.34979
 H309 H 1.20777 0.10290 0.39203
 C310 C 0.94995 -0.14462 0.37665
 C311 C 0.90680 -0.14724 0.37190
 C312 C 0.88186 -0.12889 0.40240
 C313 C 0.89951 -0.10289 0.43185
 C314 C 0.94228 -0.09398 0.43047
 C315 C 0.96739 -0.11813 0.40512
 C316 C 1.00153 -0.10765 0.37560
 C317 C 0.98254 -0.13667 0.34464
 H318 H 0.84836 -0.13143 0.40080
 H319 H 0.87888 -0.08639 0.45219
 H320 H 1.03247 -0.11742 0.38758
 H321 H 0.99974 -0.07635 0.36453
 H322 H 1.00251 -0.16315 0.33899
 H323 H 0.96991 -0.12209 0.31582
 C324 C 0.90186 0.16564 0.62015
 C325 C 0.85927 0.15856 0.62415
 C326 C 0.84135 0.13000 0.59751
 C327 C 0.86657 0.10523 0.57281
 C328 C 0.91027 0.10801 0.57500
 C329 C 0.92689 0.14060 0.59648
 C330 C 0.96185 0.14288 0.62744
 C331 C 0.93454 0.17039 0.65322
 H332 H 0.80821 0.12471 0.59821
 H333 H 0.85194 0.08162 0.55518
 H334 H 0.98949 0.15789 0.61414
 H335 H 0.96831 0.11402 0.64334
 H336 H 0.94636 0.20131 0.65462
 H337 H 0.92537 0.15747 0.68397
 C338 C 1.08636 -0.09656 0.66922
 C339 C 1.10653 -0.13040 0.65397
 C340 C 1.10143 -0.13937 0.61109
 C341 C 1.08250 -0.11153 0.58356
 C342 C 1.06799 -0.07459 0.59874
 C343 C 1.06717 -0.06955 0.64239
 C344 C 1.07944 -0.03519 0.66925
 C345 C 1.10022 -0.06494 0.69878
 H346 H 1.11534 -0.16603 0.59828
 H347 H 1.08214 -0.11769 0.55020
 H348 H 1.05243 -0.01987 0.68356
 H349 H 1.10180 -0.01523 0.65353
 H350 H 1.08462 -0.06717 0.72972
 H351 H 1.13446 -0.06143 0.70023
 C352 C 0.34517 1.11131 1.08610
 C353 C 0.32597 1.10365 1.12476
 C354 C 0.33336 1.06591 1.14333
 C355 C 0.36270 1.03945 1.12626
 C356 C 0.38540 1.05027 1.09060
 C357 C 0.37453 1.08535 1.06973
 C358 C 0.40145 1.11809 1.05436
 C359 C 0.36944 1.14670 1.07207
 H360 H 0.31793 1.05714 1.17192
 H361 H 0.36946 1.01173 1.14236
 H362 H 0.40320 1.11908 1.01956
 H363 H 0.43193 1.11915 1.07097
 H364 H 0.35281 1.16403 1.04730
 H365 H 0.38141 1.16456 1.09879
 C366 C 0.37918 0.86309 0.90248
 C367 C 0.36230 0.87343 0.86341
 C368 C 0.38058 0.90709 0.84373
 C369 C 0.41232 0.92925 0.86413
 C370 C 0.42695 0.91827 0.90454
 C371 C 0.40974 0.88417 0.92165
 C372 C 0.41122 0.85799 0.95931
 C373 C 0.37641 0.83421 0.93804
 H374 H 0.36980 0.91734 0.81332
 H375 H 0.42430 0.95557 0.84889
 H376 H 0.40108 0.87320 0.98837
 H377 H 0.44116 0.84150 0.96167
 H378 H 0.34636 0.83638 0.95489
 H379 H 0.38606 0.80373 0.92884
 C380 C 0.64050 0.88360 1.12676
 C381 C 0.67833 0.90011 1.13997
 C382 C 0.68079 0.94213 1.14044
 C383 C 0.64821 0.96582 1.12402
 C384 C 0.61189 0.94814 1.10830
 C385 C 0.60785 0.90709 1.11229
 C386 C 0.59523 0.87754 1.07996
 C387 C 0.63123 0.85188 1.09535
 H388 H 0.70852 0.95695 1.15134
 H389 H 0.65173 0.99778 1.12291
 H390 H 0.59923 0.88870 1.04737
 H391 H 0.56431 0.86453 1.08668
 H392 H 0.65624 0.84838 1.07169
 H393 H 0.62088 0.82386 1.11047
 C394 C 0.62003 1.08832 0.84835
 C395 C 0.63356 1.12463 0.86522
 C396 C 0.61409 1.13758 0.90243
 C397 C 0.58702 1.11256 0.92446
 C398 C 0.57883 1.07381 0.91015
 C399 C 0.59343 1.06350 0.87041
 C400 C 0.61510 1.02675 0.85621
 C401 C 0.64440 1.05364 0.83220
 H402 H 0.62104 1.16623 0.91592
 H403 H 0.57481 1.12267 0.95421
 H404 H 0.59510 1.00844 0.83541
 H405 H 0.63048 1.01029 0.88240
 H406 H 0.64141 1.05046 0.79758
 H407 H 0.67681 1.05279 0.84453
 C408 C 0.10915 0.38970 0.12568
 C409 C 0.12603 0.35792 0.10326
 C410 C 0.12906 0.36252 0.05925
 C411 C 0.10926 0.39481 0.03852
 C412 C 0.08714 0.42364 0.06164
 C413 C 0.09091 0.42194 0.10553
 C414 C 0.05949 0.42709 0.13948
 C415 C 0.07930 0.39145 0.16131
 H416 H 0.14360 0.33956 0.04057
 H417 H 0.10847 0.39537 0.00454
 H418 H 0.02716 0.42149 0.12866
 H419 H 0.06388 0.45529 0.15695
 H420 H 0.05798 0.36567 0.16250
 H421 H 0.09478 0.39906 0.19151
 C422 C -0.13354 0.40015 -0.15511
 C423 C -0.15807 0.37322 -0.13264
 C424 C -0.16103 0.37920 -0.08880
 C425 C -0.13488 0.40650 -0.06811
 C426 C -0.10562 0.42875 -0.09090
 C427 C -0.10822 0.42733 -0.13477
 C428 C -0.07469 0.42340 -0.16666
 C429 C -0.10217 0.39357 -0.18888
 H430 H -0.18086 0.36066 -0.06984
 H431 H -0.13509 0.40754 -0.03412
 H432 H -0.04567 0.40997 -0.15360
 H433 H -0.07038 0.45129 -0.18487
 H434 H -0.08896 0.36296 -0.18851
 H435 H -0.11341 0.40426 -0.22004
 C436 C 0.10834 0.65625 -0.08259
 C437 C 0.13223 0.64648 -0.11758
 C438 C 0.13234 0.60669 -0.13103
 C439 C 0.10556 0.57875 -0.11245
 C440 C 0.07707 0.59062 -0.08133
 C441 C 0.08072 0.62922 -0.06548
 C442 C 0.04846 0.66058 -0.05866
 C443 C 0.07891 0.69020 -0.07684
 H444 H 0.15147 0.59774 -0.15723
 H445 H 0.10470 0.54890 -0.12496
 H446 H 0.04215 0.66559 -0.02491
 H447 H 0.02037 0.65653 -0.07868
 H448 H 0.09055 0.71182 -0.05331
 H449 H 0.06831 0.70348 -0.10714
 C450 C -0.16074 0.63057 0.09188
 C451 C -0.15185 0.63145 0.13495
 C452 C -0.12591 0.60143 0.15150
 C453 C -0.10441 0.57565 0.12454
 C454 C -0.10777 0.58002 0.08048
 C455 C -0.13902 0.60551 0.06502
 C456 C -0.13754 0.63672 0.03154
 C457 C -0.16120 0.66389 0.06090
 H458 H -0.11934 0.60018 0.18489
 H459 H -0.08204 0.55510 0.13818
 H460 H -0.10550 0.64708 0.02504
 H461 H -0.15634 0.62881 0.00354
 H462 H -0.19316 0.67105 0.04964
 H463 H -0.14278 0.68986 0.07156
 C464 C 1.17993 0.10216 0.60255
 C465 C 1.16605 0.13965 0.61578
 C466 C 1.12927 0.15452 0.59681
 C467 C 1.10376 0.12963 0.57251
 C468 C 1.11479 0.08955 0.56609
 C469 C 1.15502 0.07781 0.57792
 C470 C 1.17000 0.04106 0.59961
 C471 C 1.19701 0.06758 0.62680
 H472 H 1.11813 0.18417 0.60356
 H473 H 1.07382 0.14082 0.56195
 H474 H 1.18819 0.02154 0.57838
 H475 H 1.14510 0.02601 0.61737
 H476 H 1.23079 0.06309 0.62136
 H477 H 1.18757 0.06782 0.66033
 C478 C 0.89925 -0.05875 0.68724
 C479 C 0.88264 -0.09601 0.67787
 C480 C 0.88042 -0.10717 0.63531
 C481 C 0.89824 -0.08332 0.60396
 C482 C 0.91949 -0.04821 0.61457
 C483 C 0.91761 -0.03559 0.65636
 C484 C 0.95156 -0.02270 0.68522
 C485 C 0.93139 -0.04784 0.71908
 H486 H 0.86589 -0.13480 0.62629
 H487 H 0.89700 -0.09336 0.57170
 H488 H 0.95019 0.00969 0.69173
 H489 H 0.98234 -0.03426 0.67540
 H490 H 0.91813 -0.02991 0.74504
 H491 H 0.95079 -0.07364 0.72925
 C492 C 1.14752 -0.10581 0.37715
 C493 C 1.13820 -0.10807 0.33424
 C494 C 1.11167 -0.07878 0.31696
 C495 C 1.09130 -0.05138 0.34301
 C496 C 1.09626 -0.05331 0.38703
 C497 C 1.12662 -0.07931 0.40307
 C498 C 1.12452 -0.10871 0.43817
 C499 C 1.14739 -0.13769 0.40986
 H500 H 1.10532 -0.07804 0.28352
 H501 H 1.06954 -0.03059 0.32881
 H502 H 1.09219 -0.11791 0.44528
 H503 H 1.14323 -0.09940 0.46586
 H504 H 1.12832 -0.16368 0.40053
 H505 H 1.17925 -0.14503 0.42126
 C506 C 0.90183 0.08597 0.32114
 C507 C 0.86534 0.10666 0.33123
 C508 C 0.84839 0.10006 0.37137
 C509 C 0.87054 0.07780 0.40179
 C510 C 0.90948 0.06082 0.39220
 C511 C 0.92282 0.06289 0.35060
 C512 C 0.96431 0.07351 0.33348
 C513 C 0.94148 0.09941 0.30162
 H514 H 0.81943 0.11414 0.38022
 H515 H 0.85800 0.07523 0.43315
 H516 H 0.98022 0.04761 0.31902
 H517 H 0.98351 0.09064 0.35609
 H518 H 0.94482 0.08875 0.26882
 H519 H 0.94749 0.13157 0.30638
 C520 C 0.10174 0.32852 -0.08820
 C521 C 0.11567 0.33433 -0.12924
 C522 C 0.10573 0.37087 -0.14894
 C523 C 0.07895 0.39841 -0.12934
 C524 C 0.06071 0.38930 -0.09041
 C525 C 0.07458 0.35502 -0.06955
 C526 C 0.05124 0.32271 -0.04811
 C527 C 0.08108 0.29355 -0.06855
 H528 H 0.11760 0.37768 -0.17984
 H529 H 0.07091 0.42575 -0.14556
 H530 H 0.01876 0.32004 -0.05983
 H531 H 0.05475 0.32400 -0.01338
 H532 H 0.06592 0.27396 -0.09207
 H533 H 0.10171 0.27806 -0.04554
 C534 C -0.07514 0.34956 0.12592
 C535 C -0.11842 0.35277 0.12815
 C536 C -0.13690 0.38927 0.11626
 C537 C -0.11280 0.41938 0.09770
 C538 C -0.07035 0.41270 0.08969
 C539 C -0.05182 0.37847 0.10642
 C540 C -0.02288 0.34877 0.08755
 C541 C -0.04837 0.31691 0.10916
 H542 H -0.17006 0.39379 0.11940
 H543 H -0.12793 0.44629 0.08656
 H544 H 0.00922 0.35115 0.10030
 H545 H -0.02523 0.34747 0.05277
 H546 H -0.03094 0.30111 0.13451
 H547 H -0.06528 0.29734 0.08686
 C548 C -0.15963 0.59961 -0.13467
 C549 C -0.14348 0.62372 -0.16653
 C550 C -0.10422 0.61247 -0.18267
 C551 C -0.07932 0.58376 -0.16179
 C552 C -0.09335 0.56565 -0.12460
 C553 C -0.13531 0.57110 -0.11450
 C554 C -0.15619 0.57764 -0.07344
 C555 C -0.18247 0.60922 -0.09524
 H556 H -0.09081 0.62825 -0.20885
 H557 H -0.04766 0.57920 -0.17209
 H558 H -0.13494 0.58998 -0.04940
 H559 H -0.17432 0.55135 -0.06329
 H560 H -0.17598 0.63965 -0.08352
 H561 H -0.21588 0.60126 -0.09728
 C562 C 0.12764 0.63459 0.08028
 C563 C 0.11258 0.67205 0.09177
 C564 C 0.07176 0.68228 0.07913
 C565 C 0.04557 0.65372 0.06070
 C566 C 0.05957 0.61435 0.05521
 C567 C 0.10163 0.60630 0.06297
 C568 C 0.12238 0.57315 0.08646
 C569 C 0.15098 0.60416 0.10544
 H570 H 0.05932 0.71158 0.08543
 H571 H 0.01362 0.66169 0.05360
 H572 H 0.13866 0.55222 0.06517
 H573 H 0.10177 0.55901 0.11000
 H574 H 0.18372 0.60103 0.09504
 H575 H 0.14687 0.60796 0.13985
 C576 C 0.34512 1.10097 0.92844
 C577 C 0.35551 1.11730 0.88948
 C578 C 0.39699 1.11307 0.87610
 C579 C 0.42530 1.08896 0.89889
 C580 C 0.41223 1.06784 0.93477
 C581 C 0.37249 1.07626 0.95007
 C582 C 0.33857 1.04933 0.96408
 C583 C 0.30850 1.07656 0.94059
 H584 H 0.40698 1.12677 0.84709
 H585 H 0.45625 1.08443 0.88657
 H586 H 0.33428 1.04989 0.99865
 H587 H 0.34090 1.01919 0.95010
 H588 H 0.28714 1.09298 0.96173
 H589 H 0.29328 1.06215 0.91319
 C590 C 0.39434 0.83358 1.10820
 C591 C 0.38149 0.84091 1.14948
 C592 C 0.39323 0.87716 1.16788
 C593 C 0.41787 0.90430 1.14599
 C594 C 0.43164 0.89621 1.10496
 C595 C 0.41896 0.86066 1.08632
 C596 C 0.44593 0.82821 1.06954
 C597 C 0.41885 0.79891 1.09276
 H598 H 0.38303 0.88518 1.19899
 H599 H 0.42544 0.93212 1.16111
 H600 H 0.47829 0.82944 1.08193
 H601 H 0.44345 0.82534 1.03497
 H602 H 0.43552 0.78281 1.11844
 H603 H 0.40027 0.77979 1.07145
 C604 C 0.58958 1.13285 1.16796
 C605 C 0.60775 1.16416 1.14555
 C606 C 0.59388 1.17017 1.10373
 C607 C 0.56910 1.14153 1.08340
 C608 C 0.55721 1.10670 1.10475
 C609 C 0.56470 1.10504 1.14808
 C610 C 0.58091 1.07170 1.17467
 C611 C 0.60836 1.10190 1.19628
 H612 H 0.60507 1.19494 1.08538
 H613 H 0.56257 1.14497 1.05017
 H614 H 0.59876 1.04930 1.15649
 H615 H 0.55661 1.05933 1.19553
 H616 H 0.64199 1.09682 1.19036
 H617 H 0.60002 1.10658 1.22973
 C618 C 0.67945 0.90349 0.95171
 C619 C 0.67008 0.87189 0.92482
 C620 C 0.62802 0.86013 0.92272
 C621 C 0.59644 0.88361 0.94119
 C622 C 0.60649 0.91876 0.96299
 C623 C 0.64866 0.92562 0.97100
 C624 C 0.67374 0.96272 0.96978
 C625 C 0.70727 0.93869 0.94786
 H626 H 0.61908 0.83489 0.90382
 H627 H 0.56428 0.87587 0.93563
 H628 H 0.68303 0.97259 1.00175
 H629 H 0.65969 0.98622 0.94948
 H630 H 0.73618 0.93535 0.96687
 H631 H 0.71160 0.94875 0.91493
   
