data_POSCAR
  _audit_creation_date              2014-09-24
  _audit_creation_method            'ToBaCCo'
  _symmetry_space_group_name_H-M    'P1'
  _symmetry_Int_Tables_number       1
  _symmetry_cell_setting            triclinic
  loop_
  _symmetry_equiv_pos_as_xyz
 x,y,z
_cell_length_a 23.1830
_cell_length_b 23.1830
_cell_length_c 23.3301
_cell_angle_alpha 90.000100
_cell_angle_beta 90.000100
_cell_angle_gamma 88.841600
loop_
  _atom_site_label
  _atom_site_type_symbol
  _atom_site_fract_x
  _atom_site_fract_y
  _atom_site_fract_z
N1 N 0.25313 0.24687 0.25000
 N2 N 0.74730 -0.24730 0.25000
 N3 N 0.75119 0.25225 0.75040
 N4 N 0.24775 -0.25119 0.74960
 N5 N 0.74730 -0.24730 0.75000
 N6 N 0.25313 0.24687 0.75000
 N7 N 0.24775 -0.25119 0.25039
 N8 N 0.75119 0.25225 0.24961
 O9 O 0.30135 0.05231 0.44380
 O10 O 0.29842 -0.05959 0.55555
 O11 O 0.29842 -0.05959 0.44445
 O12 O 0.30135 0.05231 0.55620
 O13 O 0.20600 0.05762 0.55539
 O14 O 0.20329 -0.05485 0.44407
 O15 O 0.20329 -0.05485 0.55593
 O16 O 0.20600 0.05762 0.44461
 Cu17 Cu 0.30948 -0.00392 0.50000
 Cu18 Cu 0.19505 0.00171 0.50000
 C19 C 0.25417 0.07392 0.42532
 C20 C 0.25038 -0.07649 0.57480
 C21 C 0.25038 -0.07649 0.42520
 C22 C 0.25417 0.07392 0.57468
 O23 O 0.70188 0.06037 0.55573
 O24 O 0.70066 -0.05198 0.44417
 O25 O 0.70066 -0.05198 0.55583
 O26 O 0.70188 0.06037 0.44427
 O27 O 0.79703 0.05746 0.44421
 O28 O 0.79582 -0.05463 0.55593
 O29 O 0.79582 -0.05463 0.44407
 O30 O 0.79703 0.05746 0.55579
 Cu31 Cu 0.69173 0.00445 0.50000
 Cu32 Cu 0.80596 0.00106 0.50000
 C33 C 0.74965 0.07817 0.57487
 C34 C 0.74807 -0.07243 0.42488
 C35 C 0.74807 -0.07243 0.57512
 C36 C 0.74965 0.07817 0.42513
 O37 O 0.44238 0.29400 0.05539
 O38 O 0.55485 0.29671 -0.05593
 O39 O 0.44238 0.29400 -0.05539
 O40 O 0.55485 0.29671 0.05593
 O41 O 0.55959 0.20158 0.05555
 O42 O 0.44769 0.19865 -0.05620
 O43 O 0.55959 0.20158 -0.05555
 O44 O 0.44769 0.19865 0.05620
 Cu45 Cu 0.49829 0.30495 0.00000
 Cu46 Cu 0.50393 0.19052 0.00000
 C47 C 0.42608 0.24583 0.07468
 C48 C 0.57649 0.24962 -0.07480
 C49 C 0.42608 0.24583 -0.07468
 C50 C 0.57649 0.24962 0.07480
 O51 O 0.55463 0.70418 0.05593
 O52 O 0.44254 0.70297 -0.05579
 O53 O 0.55463 0.70418 -0.05593
 O54 O 0.44254 0.70297 0.05579
 O55 O 0.43963 0.79812 0.05573
 O56 O 0.55198 0.79934 -0.05583
 O57 O 0.43963 0.79812 -0.05573
 O58 O 0.55198 0.79934 0.05583
 Cu59 Cu 0.49894 0.69404 -0.00000
 Cu60 Cu 0.49555 0.80827 -0.00000
 C61 C 0.57243 0.75193 0.07512
 C62 C 0.42183 0.75035 -0.07487
 C63 C 0.57243 0.75193 -0.07512
 C64 C 0.42183 0.75035 0.07487
 O65 O 0.05596 0.44132 0.29734
 O66 O -0.05583 0.55638 0.29728
 O67 O -0.05597 0.44444 0.29694
 O68 O 0.05668 0.55410 0.29758
 O69 O 0.05556 0.55597 0.20306
 O70 O -0.05410 0.44332 0.20242
 O71 O -0.05637 0.55583 0.20272
 O72 O 0.05868 0.44404 0.20266
 Cu73 Cu 0.00029 0.49908 0.30680
 Cu74 Cu 0.00092 0.49971 0.19320
 C75 C 0.07652 0.42348 0.25000
 C76 C -0.07553 0.57554 0.25000
 C77 C -0.07417 0.42492 0.24955
 C78 C 0.07508 0.57417 0.25045
 O79 O 0.05668 0.55410 0.70242
 O80 O -0.05597 0.44444 0.70306
 O81 O -0.05583 0.55637 0.70272
 O82 O 0.05596 0.44131 0.70266
 O83 O 0.05869 0.44404 0.79734
 O84 O -0.05637 0.55583 0.79728
 O85 O -0.05410 0.44332 0.79758
 O86 O 0.05556 0.55597 0.79694
 Cu87 Cu 0.00029 0.49908 0.69320
 Cu88 Cu 0.00092 0.49971 0.80680
 C89 C 0.07508 0.57417 0.74955
 C90 C -0.07417 0.42492 0.75045
 C91 C -0.07553 0.57553 0.75000
 C92 C 0.07652 0.42348 0.75000
 C93 C 0.28210 0.25964 0.14849
 C94 C 0.29668 0.24572 0.20547
 C95 C 0.35439 0.23092 0.21850
 C96 C 0.39639 0.22982 0.17553
 C97 C 0.38164 0.24483 0.11921
 C98 C 0.32443 0.25997 0.10586
 H99 H 0.23793 0.27045 0.13708
 H100 H 0.36696 0.22060 0.26205
 H101 H 0.44060 0.21837 0.18638
 H102 H 0.31253 0.27149 0.06237
 C103 C 0.68407 0.80450 0.18073
 C104 C 0.70290 0.75268 0.20648
 C105 C 0.67833 0.70069 0.18888
 C106 C 0.63610 0.70044 0.14617
 C107 C 0.61725 0.75226 0.12034
 C108 C 0.64158 0.80434 0.13823
 H109 H 0.70273 0.84505 0.19322
 H110 H 0.69176 0.66026 0.20844
 H111 H 0.61804 0.65963 0.13358
 H112 H 0.62810 0.84498 0.11909
 C113 C 0.68114 0.30349 -0.18669
 C114 C 0.70774 0.25181 -0.20522
 C115 C 0.69114 0.19955 -0.18035
 C116 C 0.64854 0.19888 -0.13805
 C117 C 0.62176 0.25054 -0.11952
 C118 C 0.63864 0.30290 -0.14420
 H119 H 0.69293 0.34424 -0.20559
 H120 H 0.71140 0.15923 -0.19361
 H121 H 0.63671 0.15784 -0.11978
 H122 H 0.61877 0.34342 -0.13095
 C123 C 0.30777 0.80125 -0.18079
 C124 C 0.29114 0.74910 -0.20591
 C125 C 0.31758 0.69732 -0.18746
 C126 C 0.35984 0.69767 -0.14475
 C127 C 0.37673 0.74989 -0.11978
 C128 C 0.35019 0.80169 -0.13827
 H129 H 0.28764 0.84166 -0.19400
 H130 H 0.30582 0.65665 -0.20655
 H131 H 0.37954 0.65705 -0.13158
 H132 H 0.36207 0.84261 -0.11978
 C133 C 0.22099 0.34826 0.23320
 C134 C 0.20846 0.29154 0.25000
 C135 C 0.15174 0.27901 0.26680
 C136 C 0.10891 0.32230 0.26760
 C137 C 0.12165 0.37835 0.25000
 C138 C 0.17770 0.39109 0.23240
 H139 H 0.26435 0.35940 0.22078
 H140 H 0.14060 0.23565 0.27922
 H141 H 0.06561 0.31189 0.28103
 H142 H 0.18811 0.43439 0.21897
 C143 C 0.17846 0.68766 0.80096
 C144 C 0.20420 0.70507 0.74946
 C145 C 0.18710 0.67919 0.69789
 C146 C 0.14511 0.63677 0.69782
 C147 C 0.11950 0.61917 0.74940
 C148 C 0.13669 0.64508 0.80097
 H149 H 0.19055 0.70734 0.84117
 H150 H 0.20668 0.69156 0.65771
 H151 H 0.13293 0.61756 0.65740
 H152 H 0.11766 0.63268 0.84141
 C153 C -0.19008 0.68233 0.30159
 C154 C -0.20817 0.70817 0.25000
 C155 C -0.18233 0.69008 0.19841
 C156 C -0.13940 0.64692 0.19837
 C157 C -0.12115 0.62115 0.25000
 C158 C -0.14692 0.63940 0.30163
 H159 H -0.20972 0.69523 0.34182
 H160 H -0.19523 0.70972 0.15818
 H161 H -0.12028 0.63398 0.15790
 H162 H -0.13398 0.62028 0.34210
 C163 C -0.18766 0.32154 0.69904
 C164 C -0.20507 0.29580 0.75054
 C165 C -0.17919 0.31290 0.80211
 C166 C -0.13677 0.35489 0.80218
 C167 C -0.11917 0.38050 0.75060
 C168 C -0.14508 0.36331 0.69903
 H169 H -0.20734 0.30945 0.65883
 H170 H -0.19156 0.29332 0.84229
 H171 H -0.11756 0.36707 0.84260
 H172 H -0.13268 0.38234 0.65859
 C173 C 0.26908 0.14561 0.28150
 C174 C 0.25428 0.20332 0.29453
 C175 C 0.24036 0.21790 0.35151
 C176 C 0.24003 0.17557 0.39414
 C177 C 0.25517 0.11836 0.38079
 C178 C 0.27018 0.10361 0.32447
 H179 H 0.27941 0.13304 0.23795
 H180 H 0.22955 0.26208 0.36292
 H181 H 0.22851 0.18747 0.43763
 H182 H 0.28163 0.05940 0.31362
 C183 C 0.80268 0.18242 0.68746
 C184 C 0.75090 0.20886 0.70591
 C185 C 0.69875 0.19223 0.68079
 C186 C 0.69831 0.14981 0.63827
 C187 C 0.75011 0.12327 0.61978
 C188 C 0.80233 0.14016 0.64475
 H189 H 0.84335 0.19418 0.70655
 H190 H 0.65835 0.21236 0.69400
 H191 H 0.65739 0.13793 0.61978
 H192 H 0.84295 0.12046 0.63158
 C193 C 0.19651 -0.18114 0.68669
 C194 C 0.24819 -0.20774 0.70522
 C195 C 0.30045 -0.19114 0.68035
 C196 C 0.30112 -0.14854 0.63805
 C197 C 0.24946 -0.12176 0.61952
 C198 C 0.19710 -0.13864 0.64420
 H199 H 0.15576 -0.19293 0.70559
 H200 H 0.34077 -0.21140 0.69361
 H201 H 0.34216 -0.13671 0.61978
 H202 H 0.15658 -0.11877 0.63095
 C203 C 0.79931 -0.17833 0.31112
 C204 C 0.74732 -0.20290 0.29352
 C205 C 0.69550 -0.18407 0.31926
 C206 C 0.69566 -0.14158 0.36177
 C207 C 0.74774 -0.11724 0.37966
 C208 C 0.79956 -0.13609 0.35383
 H209 H 0.83974 -0.19176 0.29156
 H210 H 0.65495 -0.20273 0.30678
 H211 H 0.65502 -0.12810 0.38091
 H212 H 0.84037 -0.11804 0.36642
 C213 C 0.68408 0.80450 -0.18074
 C214 C 0.70290 0.75268 -0.20648
 C215 C 0.67833 0.70069 -0.18888
 C216 C 0.63610 0.70044 -0.14618
 C217 C 0.61725 0.75226 -0.12034
 C218 C 0.64158 0.80434 -0.13823
 H219 H 0.70273 0.84505 -0.19322
 H220 H 0.69176 0.66026 -0.20844
 H221 H 0.61804 0.65963 -0.13358
 H222 H 0.62810 0.84498 -0.11909
 C223 C 0.28210 0.25964 -0.14849
 C224 C 0.29668 0.24572 -0.20547
 C225 C 0.35439 0.23092 -0.21850
 C226 C 0.39639 0.22982 -0.17553
 C227 C 0.38164 0.24483 -0.11920
 C228 C 0.32443 0.25997 -0.10585
 H229 H 0.23793 0.27045 -0.13708
 H230 H 0.36696 0.22059 -0.26205
 H231 H 0.44060 0.21838 -0.18638
 H232 H 0.31253 0.27149 -0.06237
 C233 C 0.30777 0.80126 0.18078
 C234 C 0.29114 0.74910 0.20591
 C235 C 0.31758 0.69733 0.18745
 C236 C 0.35983 0.69767 0.14475
 C237 C 0.37672 0.74989 0.11978
 C238 C 0.35019 0.80169 0.13827
 H239 H 0.28764 0.84166 0.19400
 H240 H 0.30581 0.65666 0.20655
 H241 H 0.37954 0.65705 0.13158
 H242 H 0.36207 0.84261 0.11977
 C243 C 0.68113 0.30349 0.18669
 C244 C 0.70774 0.25181 0.20522
 C245 C 0.69114 0.19955 0.18035
 C246 C 0.64854 0.19888 0.13806
 C247 C 0.62176 0.25055 0.11953
 C248 C 0.63864 0.30290 0.14420
 H249 H 0.69293 0.34424 0.20559
 H250 H 0.71140 0.15923 0.19361
 H251 H 0.63671 0.15784 0.11979
 H252 H 0.61877 0.34342 0.13095
 C253 C -0.18233 0.69008 0.80159
 C254 C -0.20816 0.70816 0.75000
 C255 C -0.19008 0.68233 0.69841
 C256 C -0.14692 0.63940 0.69837
 C257 C -0.12115 0.62115 0.75000
 C258 C -0.13940 0.64692 0.80163
 H259 H -0.19523 0.70972 0.84182
 H260 H -0.20972 0.69523 0.65818
 H261 H -0.13398 0.62027 0.65790
 H262 H -0.12027 0.63398 0.84210
 C263 C -0.17919 0.31290 0.19789
 C264 C -0.20507 0.29581 0.24946
 C265 C -0.18766 0.32154 0.30096
 C266 C -0.14508 0.36331 0.30097
 C267 C -0.11917 0.38050 0.24940
 C268 C -0.13677 0.35489 0.19782
 H269 H -0.19156 0.29332 0.15771
 H270 H -0.20734 0.30945 0.34118
 H271 H -0.13268 0.38234 0.34141
 H272 H -0.11756 0.36707 0.15740
 C273 C 0.22099 0.34826 0.76680
 C274 C 0.20846 0.29154 0.75000
 C275 C 0.15174 0.27901 0.73320
 C276 C 0.10891 0.32230 0.73240
 C277 C 0.12165 0.37835 0.75000
 C278 C 0.17770 0.39109 0.76760
 H279 H 0.26435 0.35940 0.77922
 H280 H 0.14060 0.23565 0.72078
 H281 H 0.06561 0.31189 0.71897
 H282 H 0.18811 0.43439 0.78103
 C283 C 0.17846 0.68766 0.19904
 C284 C 0.20419 0.70508 0.25054
 C285 C 0.18711 0.67919 0.30210
 C286 C 0.14511 0.63677 0.30218
 C287 C 0.11950 0.61917 0.25060
 C288 C 0.13669 0.64508 0.19903
 H289 H 0.19055 0.70734 0.15882
 H290 H 0.20668 0.69156 0.34229
 H291 H 0.13293 0.61756 0.34260
 H292 H 0.11766 0.63268 0.15859
 C293 C 0.79931 -0.17833 0.68888
 C294 C 0.74732 -0.20290 0.70648
 C295 C 0.69550 -0.18408 0.68073
 C296 C 0.69566 -0.14158 0.63823
 C297 C 0.74774 -0.11725 0.62034
 C298 C 0.79956 -0.13610 0.64617
 H299 H 0.83974 -0.19176 0.70844
 H300 H 0.65495 -0.20273 0.69322
 H301 H 0.65502 -0.12810 0.61909
 H302 H 0.84037 -0.11804 0.63358
 C303 C 0.19651 -0.18113 0.31331
 C304 C 0.24819 -0.20774 0.29478
 C305 C 0.30045 -0.19114 0.31965
 C306 C 0.30112 -0.14854 0.36194
 C307 C 0.24945 -0.12176 0.38047
 C308 C 0.19710 -0.13863 0.35580
 H309 H 0.15576 -0.19293 0.29441
 H310 H 0.34077 -0.21140 0.30639
 H311 H 0.34216 -0.13671 0.38021
 H312 H 0.15658 -0.11877 0.36905
 C313 C 0.80268 0.18242 0.31255
 C314 C 0.75090 0.20886 0.29409
 C315 C 0.69875 0.19224 0.31922
 C316 C 0.69831 0.14981 0.36173
 C317 C 0.75011 0.12328 0.38022
 C318 C 0.80233 0.14017 0.35525
 H319 H 0.84335 0.19419 0.29345
 H320 H 0.65834 0.21236 0.30600
 H321 H 0.65739 0.13793 0.38023
 H322 H 0.84295 0.12046 0.36842
 C323 C 0.24036 0.21790 0.64849
 C324 C 0.25428 0.20332 0.70547
 C325 C 0.26908 0.14561 0.71850
 C326 C 0.27018 0.10361 0.67553
 C327 C 0.25517 0.11836 0.61920
 C328 C 0.24003 0.17557 0.60586
 H329 H 0.22955 0.26207 0.63708
 H330 H 0.27941 0.13304 0.76205
 H331 H 0.28163 0.05940 0.68638
 H332 H 0.22851 0.18747 0.56237
   
