data_POSCAR
  _audit_creation_date              2014-09-24
  _audit_creation_method            'ToBaCCo'
  _symmetry_space_group_name_H-M    'P1'
  _symmetry_Int_Tables_number       1
  _symmetry_cell_setting            triclinic
  loop_
  _symmetry_equiv_pos_as_xyz
 x,y,z
_cell_length_a 41.3641
_cell_length_b 41.1722
_cell_length_c 56.9475
_cell_angle_alpha 89.956400
_cell_angle_beta 90.043800
_cell_angle_gamma 120.097100
loop_
  _atom_site_label
  _atom_site_type_symbol
  _atom_site_fract_x
  _atom_site_fract_y
  _atom_site_fract_z
C1 C -0.01720 0.48893 1.25078
 C2 C 0.02088 0.50796 1.25080
 C3 C 0.04273 0.52081 1.27296
 C4 C 0.04268 0.51682 1.22866
 C5 C -0.03908 0.47954 1.22861
 C6 C -0.03904 0.47637 1.27293
 C7 C 0.03711 0.54344 1.28900
 C8 C 0.05787 0.55530 1.30979
 C9 C 0.08472 0.54493 1.31465
 C10 C 0.09076 0.52280 1.29853
 C11 C 0.06998 0.51094 1.27778
 C12 C 0.07022 0.55404 1.22380
 C13 C 0.09092 0.56281 1.20305
 C14 C 0.08452 0.53443 1.18702
 C15 C 0.05747 0.49717 1.19188
 C16 C 0.03675 0.48835 1.21266
 C17 C -0.06678 0.44224 1.22414
 C18 C -0.08785 0.43301 1.20352
 C19 C -0.08166 0.46098 1.18719
 C20 C -0.05433 0.49832 1.19161
 C21 C -0.03323 0.50761 1.21227
 C22 C -0.03347 0.45386 1.28914
 C23 C -0.05444 0.44204 1.30984
 C24 C -0.08137 0.45232 1.31441
 C25 C -0.08732 0.47436 1.29819
 C26 C -0.06637 0.48622 1.27753
 H27 H 0.01672 0.55196 1.28538
 H28 H 0.05298 0.57260 1.32198
 H29 H 0.11150 0.51462 1.30195
 H30 H 0.07488 0.49370 1.26557
 H31 H 0.07537 0.57633 1.23598
 H32 H 0.11189 0.59171 1.19949
 H33 H 0.01616 0.45937 1.21630
 H34 H -0.07187 0.42025 1.23657
 H35 H -0.10902 0.40406 1.20031
 H36 H -0.04947 0.52022 1.17916
 H37 H -0.01250 0.53666 1.21560
 H38 H -0.01304 0.44534 1.28570
 H39 H -0.04978 0.42479 1.32220
 H40 H -0.10819 0.48234 1.30152
 H41 H -0.07124 0.50333 1.26518
 H42 H 0.05247 0.47497 1.17966
 C43 C 0.51352 0.49456 1.24965
 C44 C 0.49398 0.51312 1.24984
 C45 C 0.48131 0.52198 1.27211
 C46 C 0.48412 0.52548 1.22780
 C47 C 0.52241 0.48182 1.22741
 C48 C 0.52683 0.48579 1.27169
 C49 C 0.45932 0.49356 1.28829
 C50 C 0.44722 0.50230 1.30902
 C51 C 0.45670 0.53944 1.31367
 C52 C 0.47825 0.56777 1.29751
 C53 C 0.49038 0.55908 1.27681
 C54 C 0.44679 0.51526 1.22345
 C55 C 0.43712 0.52691 1.20290
 C56 C 0.46469 0.54909 1.18654
 C57 C 0.50206 0.55976 1.19085
 C58 C 0.51178 0.54815 1.21144
 C59 C 0.55953 0.49185 1.22244
 C60 C 0.56825 0.47970 1.20175
 C61 C 0.53995 0.45716 1.18588
 C62 C 0.50282 0.44672 1.19080
 C63 C 0.49404 0.45885 1.21152
 C64 C 0.54919 0.51427 1.28774
 C65 C 0.56144 0.50552 1.30843
 C66 C 0.55175 0.46833 1.31315
 C67 C 0.52995 0.43998 1.29707
 C68 C 0.51767 0.44867 1.27642
 H69 H 0.45139 0.46465 1.28477
 H70 H 0.43035 0.48012 1.32134
 H71 H 0.48563 0.59658 1.30090
 H72 H 0.50708 0.58134 1.26450
 H73 H 0.42511 0.49802 1.23591
 H74 H 0.40815 0.51863 1.19977
 H75 H 0.54084 0.55696 1.21469
 H76 H 0.58175 0.50932 1.23454
 H77 H 0.59705 0.48782 1.19816
 H78 H 0.48067 0.42908 1.17871
 H79 H 0.46514 0.45017 1.21524
 H80 H 0.55717 0.54318 1.28419
 H81 H 0.57848 0.52771 1.32069
 H82 H 0.52240 0.41114 1.30053
 H83 H 0.50066 0.42637 1.26421
 H84 H 0.52364 0.57714 1.17837
 C85 C 0.50670 1.01974 1.25029
 C86 C 0.48720 0.98148 1.25031
 C87 C 0.47769 0.95945 1.27247
 C88 C 0.47438 0.95960 1.22815
 C89 C 0.51979 1.04164 1.22811
 C90 C 0.51596 1.04174 1.27242
 C91 C 0.50559 0.96488 1.28871
 C92 C 0.49623 0.94354 1.30932
 C93 C 0.45895 0.91633 1.31379
 C94 C 0.43113 0.91056 1.29753
 C95 C 0.44047 0.93189 1.27696
 C96 C 0.48363 0.93175 1.22350
 C97 C 0.47164 0.91084 1.20279
 C98 C 0.45005 0.91734 1.18659
 C99 C 0.44033 0.94475 1.19122
 C100 C 0.45229 0.96569 1.21195
 C101 C 0.51066 1.06954 1.22329
 C102 C 0.52292 1.09048 1.20258
 C103 C 0.54470 1.08397 1.18653
 C104 C 0.55428 1.05646 1.19135
 C105 C 0.54203 1.03551 1.21209
 C106 C 0.48789 1.03625 1.28850
 C107 C 0.49704 1.05739 1.30917
 C108 C 0.53429 1.08444 1.31385
 C109 C 0.56229 1.09030 1.29774
 C110 C 0.55316 1.06916 1.27711
 H111 H 0.53456 0.98545 1.28535
 H112 H 0.51809 0.94814 1.32166
 H113 H 0.40221 0.88950 1.30068
 H114 H 0.41861 0.92709 1.26458
 H115 H 0.50043 0.92648 1.23584
 H116 H 0.47919 0.88959 1.19942
 H117 H 0.44424 0.98653 1.21543
 H118 H 0.49376 1.07484 1.23548
 H119 H 0.51541 1.11175 1.19913
 H120 H 0.57130 1.05127 1.17917
 H121 H 0.54999 1.01464 1.21571
 H122 H 0.45893 1.01575 1.28498
 H123 H 0.47505 1.05271 1.32140
 H124 H 0.59120 1.11121 1.30108
 H125 H 0.57515 1.07397 1.26487
 H126 H 0.42344 0.94984 1.17885
 C127 C 1.02021 0.50721 0.74979
 C128 C 0.98213 0.48817 0.74993
 C129 C 0.96003 0.47517 0.72788
 C130 C 0.96051 0.47925 0.77217
 C131 C 1.04222 0.51656 0.77188
 C132 C 1.04190 0.51970 0.72756
 C133 C 0.93251 0.48477 0.72327
 C134 C 0.91119 0.47239 0.70275
 C135 C 0.91694 0.45005 0.68670
 C136 C 0.94407 0.44002 0.69128
 C137 C 0.96543 0.45239 0.71182
 C138 C 0.96645 0.50768 0.78820
 C139 C 0.94570 0.49882 0.80898
 C140 C 0.91864 0.46155 0.81383
 C141 C 0.91232 0.43320 0.79780
 C142 C 0.93304 0.44200 0.77705
 C143 C 1.03655 0.48843 0.78811
 C144 C 1.05751 0.49768 0.80882
 C145 C 1.08457 0.53508 0.81340
 C146 C 1.09066 0.56313 0.79714
 C147 C 1.06970 0.55390 0.77646
 C148 C 1.06934 0.51002 0.72294
 C149 C 1.09024 0.52186 0.70225
 C150 C 1.08413 0.54377 0.68599
 C151 C 1.05706 0.55389 0.69058
 C152 C 1.03615 0.54205 0.71131
 H153 H 0.92776 0.50209 0.73549
 H154 H 0.89016 0.48017 0.69943
 H155 H 0.94857 0.42254 0.67905
 H156 H 0.98598 0.44404 0.71528
 H157 H 0.98699 0.53667 0.78456
 H158 H 0.95065 0.52101 0.82120
 H159 H 0.92789 0.41973 0.76486
 H160 H 1.01599 0.45936 0.78468
 H161 H 1.05264 0.47565 0.82118
 H162 H 1.11159 0.59217 0.80041
 H163 H 1.07464 0.57594 0.76410
 H164 H 1.07436 0.49302 0.73531
 H165 H 1.11117 0.51393 0.69898
 H166 H 1.05219 0.57103 0.67823
 H167 H 1.01564 0.55045 0.71475
 H168 H 0.89136 0.40429 0.80134
 C169 C 0.49341 0.51245 0.75004
 C170 C 0.51259 0.49351 0.75009
 C171 C 0.52532 0.48441 0.72795
 C172 C 0.52184 0.48087 0.77226
 C173 C 0.48427 0.52522 0.77216
 C174 C 0.48056 0.52140 0.72786
 C175 C 0.51573 0.44716 0.72326
 C176 C 0.52763 0.43820 0.70256
 C177 C 0.54945 0.46641 0.68640
 C178 C 0.55949 0.50370 0.69106
 C179 C 0.54763 0.51271 0.71179
 C180 C 0.49378 0.45830 0.78844
 C181 C 0.50291 0.44626 0.80908
 C182 C 0.54007 0.45638 0.81365
 C183 C 0.56805 0.47853 0.79750
 C184 C 0.55898 0.49060 0.77688
 C185 C 0.51241 0.54790 0.78826
 C186 C 0.50335 0.55988 0.80894
 C187 C 0.46618 0.54958 0.81359
 C188 C 0.43813 0.52740 0.79748
 C189 C 0.44713 0.51539 0.77684
 C190 C 0.49005 0.55861 0.72308
 C191 C 0.47798 0.56743 0.70238
 C192 C 0.45607 0.53913 0.68630
 C193 C 0.44614 0.50188 0.69105
 C194 C 0.45817 0.49301 0.71178
 H195 H 0.49876 0.42499 0.73556
 H196 H 0.51982 0.40928 0.69917
 H197 H 0.57656 0.52578 0.67874
 H198 H 0.55593 0.54172 0.71529
 H199 H 0.46487 0.44985 0.78499
 H200 H 0.48101 0.42891 0.82140
 H201 H 0.58096 0.50777 0.76457
 H202 H 0.54132 0.55642 0.78476
 H203 H 0.52531 0.57725 0.82121
 H204 H 0.40931 0.51940 0.80086
 H205 H 0.42509 0.49816 0.76457
 H206 H 0.50707 0.58085 0.73532
 H207 H 0.48570 0.59632 0.69892
 H208 H 0.42899 0.47972 0.67879
 H209 H 0.44994 0.46403 0.71535
 H210 H 0.59687 0.48641 0.80081
 C211 C 0.48630 -0.02053 0.74974
 C212 C 0.50554 0.01774 0.74985
 C213 C 0.51455 0.03982 0.72776
 C214 C 0.51862 0.03952 0.77206
 C215 C 0.47339 -0.04262 0.77183
 C216 C 0.47715 -0.04229 0.72751
 C217 C 0.55168 0.06732 0.72296
 C218 C 0.56056 0.08828 0.70226
 C219 C 0.53239 0.08219 0.68622
 C220 C 0.49523 0.05517 0.69104
 C221 C 0.48630 0.03418 0.71176
 C222 C 0.54092 0.03336 0.78805
 C223 C 0.55325 0.05429 0.80878
 C224 C 0.54371 0.08179 0.81361
 C225 C 0.52189 0.08834 0.79761
 C226 C 0.50952 0.06742 0.77691
 C227 C 0.45125 -0.03665 0.78803
 C228 C 0.43928 -0.05768 0.80873
 C229 C 0.44903 -0.08512 0.81334
 C230 C 0.47062 -0.09154 0.79710
 C231 C 0.48262 -0.07050 0.77642
 C232 C 0.44002 -0.06981 0.72272
 C233 C 0.43103 -0.09061 0.70195
 C234 C 0.45911 -0.08434 0.68580
 C235 C 0.49630 -0.05723 0.69059
 C236 C 0.50531 -0.03642 0.71138
 H237 H 0.57381 0.07225 0.73514
 H238 H 0.58938 0.10923 0.69875
 H239 H 0.47319 0.05041 0.67882
 H240 H 0.45740 0.01363 0.71537
 H241 H 0.54887 0.01250 0.78442
 H242 H 0.57032 0.04917 0.82097
 H243 H 0.49258 0.07276 0.76475
 H244 H 0.44320 -0.01579 0.78458
 H245 H 0.42238 -0.05258 0.82107
 H246 H 0.47824 -0.11278 0.80038
 H247 H 0.49943 -0.07569 0.76408
 H248 H 0.41797 -0.07492 0.73500
 H249 H 0.40216 -0.11159 0.69854
 H250 H 0.51836 -0.05224 0.67833
 H251 H 0.53422 -0.01586 0.71497
 H252 H 0.51446 0.10963 0.80114
 O253 O 0.39198 0.66420 0.97993
 O254 O 0.38473 0.72275 0.97300
 C255 C 0.36443 0.73685 0.96837
 O256 O 0.33525 0.72954 0.97988
 O257 O 0.27693 0.66371 0.97272
 C258 C 0.26286 0.62921 0.96802
 O259 O 0.27006 0.60713 0.97948
 O260 O 0.33570 0.61467 0.97260
 C261 C 0.37015 0.63508 0.96821
 O262 O 0.38897 0.67327 1.02675
 O263 O 0.38508 0.73373 1.01980
 C264 C 0.36012 0.73619 1.03131
 O265 O 0.32561 0.71719 1.02668
 O266 O 0.26554 0.65270 1.01950
 C267 C 0.26293 0.62499 1.03095
 O268 O 0.28175 0.60929 1.02631
 O269 O 0.34598 0.61358 1.01942
 C270 C 0.37323 0.63852 1.03118
 Cr271 Cr 0.38563 0.69731 0.99986
 Cr272 Cr 0.30201 0.68989 0.99969
 Cr273 Cr 0.30927 0.61324 0.99946
 O274 O 0.33229 0.66681 0.99967
 O275 O 0.60983 0.33780 0.98010
 O276 O 0.61491 0.27798 0.97339
 C277 C 0.63437 0.26293 0.96890
 O278 O 0.66325 0.26943 0.98048
 O279 O 0.72280 0.33448 0.97354
 C280 C 0.73789 0.36913 0.96897
 O281 O 0.73152 0.39173 0.98048
 O282 O 0.66688 0.38648 0.97328
 C283 C 0.63243 0.36685 0.96858
 O284 O 0.61174 0.32829 1.02698
 O285 O 0.61372 0.26678 1.02027
 C286 C 0.63808 0.26336 1.03187
 O287 O 0.67266 0.28138 1.02730
 O288 O 0.73396 0.34492 1.02037
 C289 C 0.73729 0.37279 1.03194
 O290 O 0.71938 0.38946 1.02728
 O291 O 0.65626 0.38752 1.02004
 C292 C 0.62829 0.36303 1.03151
 Cr293 Cr 0.61463 0.30384 1.00019
 Cr294 Cr 0.69704 0.30851 1.00042
 Cr295 Cr 0.69257 0.38672 1.00027
 O296 O 0.66807 0.33302 1.00030
 O297 O 0.67377 0.39059 0.52706
 O298 O 0.73353 0.38589 0.52025
 C299 C 0.73555 0.36051 0.53174
 O300 O 0.71641 0.32591 0.52698
 O301 O 0.65194 0.26600 0.51957
 C302 C 0.62455 0.26365 0.53106
 O303 O 0.60929 0.28296 0.52651
 O304 O 0.61423 0.34784 0.51970
 C305 C 0.63921 0.37514 0.53144
 O306 O 0.66502 0.39394 0.48022
 O307 O 0.72292 0.38602 0.47341
 C308 C 0.73675 0.36545 0.46883
 O309 O 0.72903 0.33592 0.48025
 O310 O 0.66319 0.27788 0.47283
 C311 C 0.62888 0.26404 0.46813
 O312 O 0.60707 0.27141 0.47966
 O313 O 0.61528 0.33768 0.47288
 C314 C 0.63593 0.37227 0.46850
 Cr315 Cr 0.69762 0.38704 0.50023
 Cr316 Cr 0.68927 0.30262 0.49991
 Cr317 Cr 0.61353 0.31085 0.49970
 O318 O 0.66681 0.33351 0.49995
 O319 O 0.32778 0.61012 0.52671
 O320 O 0.26633 0.61170 0.51987
 C321 C 0.26280 0.63611 0.53142
 O322 O 0.28063 0.67084 0.52681
 O323 O 0.34368 0.73263 0.51975
 C324 C 0.37167 0.73634 0.53122
 O325 O 0.38838 0.71847 0.52660
 O326 O 0.38665 0.65510 0.51976
 C327 C 0.36236 0.62700 0.53129
 O328 O 0.33717 0.60790 0.47988
 O329 O 0.27746 0.61271 0.47302
 C330 C 0.26231 0.63211 0.46846
 O331 O 0.26864 0.66110 0.48000
 O332 O 0.33318 0.72111 0.47294
 C333 C 0.36761 0.73623 0.46821
 O334 O 0.39030 0.73006 0.47972
 O335 O 0.38545 0.66524 0.47292
 C336 C 0.36607 0.63058 0.46836
 Cr337 Cr 0.30331 0.61270 0.49987
 Cr338 Cr 0.30750 0.69530 0.49987
 Cr339 Cr 0.38561 0.69125 0.49975
 O340 O 0.33214 0.66642 0.49984
 C341 C 0.44407 0.54861 0.33486
 C342 C 0.43368 0.55693 0.35245
 C343 C 0.42149 0.56760 0.37323
 C344 C 0.44693 0.58698 0.39133
 C345 C 0.43546 0.59871 0.41110
 C346 C 0.39852 0.59111 0.41285
 C347 C 0.37300 0.57140 0.39486
 C348 C 0.38446 0.55968 0.37509
 C349 C 0.38707 0.60449 0.43273
 C350 C 0.37749 0.61617 0.44914
 H351 H 0.47566 0.59337 0.39004
 H352 H 0.45546 0.61403 0.42488
 H353 H 0.34440 0.56548 0.39599
 H354 H 0.36460 0.54482 0.36116
 C355 C 0.44967 0.89516 0.33369
 C356 C 0.44085 0.87596 0.35113
 C357 C 0.42957 0.85243 0.37169
 C358 C 0.43819 0.86844 0.39417
 C359 C 0.42638 0.84538 0.41408
 C360 C 0.40591 0.80626 0.41157
 C361 C 0.39748 0.79030 0.38910
 C362 C 0.40927 0.81332 0.36921
 C363 C 0.39305 0.78234 0.43195
 C364 C 0.38172 0.76165 0.44869
 H365 H 0.45381 0.89865 0.39628
 H366 H 0.43302 0.85803 0.43138
 H367 H 0.38163 0.76009 0.38695
 H368 H 0.40238 0.80064 0.35192
 C369 C 0.10425 0.55595 0.33404
 C370 C 0.12259 0.56590 0.35180
 C371 C 0.14496 0.57754 0.37281
 C372 C 0.14195 0.55068 0.38914
 C373 C 0.16480 0.56181 0.40907
 C374 C 0.19075 0.59985 0.41277
 C375 C 0.19347 0.62675 0.39657
 C376 C 0.17063 0.61562 0.37663
 C377 C 0.21540 0.61115 0.43273
 C378 C 0.23654 0.62066 0.44920
 H379 H 0.12228 0.52115 0.38632
 H380 H 0.16253 0.54076 0.42145
 H381 H 0.21351 0.65623 0.39921
 H382 H 0.17326 0.63661 0.36408
 C383 C 0.56413 0.45905 0.33441
 C384 C 0.57414 0.45050 0.35208
 C385 C 0.58569 0.43942 0.37297
 C386 C 0.62140 0.44357 0.37424
 C387 C 0.63200 0.43118 0.39412
 C388 C 0.60693 0.41459 0.41279
 C389 C 0.57136 0.41080 0.41163
 C390 C 0.56076 0.42319 0.39176
 C391 C 0.61726 0.40032 0.43275
 C392 C 0.62581 0.38780 0.44923
 H393 H 0.64083 0.45593 0.35978
 H394 H 0.65952 0.43411 0.39480
 H395 H 0.55172 0.39788 0.42594
 H396 H 0.53303 0.41970 0.39091
 C397 C 0.54339 0.10530 0.33386
 C398 C 0.55205 0.12416 0.35142
 C399 C 0.56316 0.14718 0.37217
 C400 C 0.56680 0.18288 0.37148
 C401 C 0.57904 0.20591 0.39134
 C402 C 0.58770 0.19336 0.41199
 C403 C 0.58374 0.15752 0.41277
 C404 C 0.57149 0.13447 0.39289
 C405 C 0.60165 0.21770 0.43211
 C406 C 0.61383 0.23859 0.44871
 H407 H 0.56056 0.19304 0.35552
 H408 H 0.58211 0.23362 0.39053
 H409 H 0.59046 0.14757 0.42863
 H410 H 0.56890 0.10696 0.39359
 C411 C 0.89673 0.44000 0.33556
 C412 C 0.87795 0.42984 0.35311
 C413 C 0.85498 0.41789 0.37384
 C414 C 0.86491 0.44160 0.39341
 C415 C 0.84171 0.43060 0.41317
 C416 C 0.80850 0.39584 0.41342
 C417 C 0.79878 0.37198 0.39393
 C418 C 0.82197 0.38298 0.37418
 C419 C 0.78379 0.38512 0.43329
 C420 C 0.76258 0.37615 0.44968
 H421 H 0.89032 0.46871 0.39329
 H422 H 0.84943 0.44931 0.42812
 H423 H 0.77310 0.34510 0.39391
 H424 H 0.81396 0.36449 0.35911
 C425 C 0.54913 0.44447 1.16471
 C426 C 0.55738 0.43398 1.14713
 C427 C 0.56786 0.42158 1.12636
 C428 C 0.55557 0.38338 1.12317
 C429 C 0.56695 0.37150 1.10344
 C430 C 0.59067 0.39775 1.08682
 C431 C 0.60266 0.43591 1.08989
 C432 C 0.59128 0.44780 1.10962
 C433 C 0.60353 0.38565 1.06701
 C434 C 0.61467 0.37541 1.05066
 H435 H 0.53755 0.36288 1.13604
 H436 H 0.55759 0.34194 1.10127
 H437 H 0.62107 0.45646 1.07718
 H438 H 0.60103 0.47741 1.11195
 C439 C 0.89621 0.45122 1.16612
 C440 C 0.87713 0.44231 1.14867
 C441 C 0.85372 0.43084 1.12812
 C442 C 0.86244 0.45532 1.10901
 C443 C 0.83937 0.44401 1.08916
 C444 C 0.80752 0.40818 1.08836
 C445 C 0.79889 0.38371 1.10745
 C446 C 0.82193 0.39501 1.12727
 C447 C 0.78342 0.39644 1.06812
 C448 C 0.76267 0.38598 1.05144
 H449 H 0.88695 0.48310 1.10949
 H450 H 0.84628 0.46316 1.07450
 H451 H 0.77432 0.35596 1.10702
 H452 H 0.81492 0.37586 1.14194
 C453 C 0.55672 0.10462 1.16642
 C454 C 0.56724 0.12325 1.14876
 C455 C 0.57968 0.14596 1.12786
 C456 C 0.61744 0.17317 1.12520
 C457 C 0.62932 0.19614 1.10527
 C458 C 0.60349 0.19202 1.08792
 C459 C 0.56577 0.16461 1.09049
 C460 C 0.55389 0.14163 1.11042
 C461 C 0.61553 0.21659 1.06785
 C462 C 0.62573 0.23766 1.05127
 H463 H 0.63760 0.17684 1.13860
 H464 H 0.65853 0.21732 1.10350
 H465 H 0.54554 0.16125 1.07722
 H466 H 0.52460 0.12076 1.11233
 C467 C 0.45447 0.56106 1.16547
 C468 C 0.44519 0.57084 1.14800
 C469 C 0.43330 0.58225 1.12740
 C470 C 0.39730 0.57743 1.12653
 C471 C 0.38558 0.58864 1.10666
 C472 C 0.40979 0.60474 1.08754
 C473 C 0.44578 0.60950 1.08836
 C474 C 0.45752 0.59826 1.10827
 C475 C 0.39763 0.61666 1.06729
 C476 C 0.38682 0.62664 1.05062
 H477 H 0.37836 0.56508 1.14123
 H478 H 0.35771 0.58488 1.10622
 H479 H 0.46473 0.62196 1.07368
 H480 H 0.48542 0.60212 1.10877
 C481 C 0.10593 0.54369 1.16568
 C482 C 0.12420 0.55202 1.14792
 C483 C 0.14646 0.56261 1.12690
 C484 C 0.14153 0.58405 1.10966
 C485 C 0.16419 0.59565 1.08966
 C486 C 0.19187 0.58586 1.08683
 C487 C 0.19654 0.56409 1.10395
 C488 C 0.17388 0.55249 1.12395
 C489 C 0.21629 0.59915 1.06678
 C490 C 0.23728 0.61074 1.05025
 H491 H 0.12048 0.59212 1.11180
 H492 H 0.16043 0.61257 1.07656
 H493 H 0.21794 0.55646 1.10196
 H494 H 0.17799 0.53601 1.13720
 C495 C 0.43771 0.89558 1.16534
 C496 C 0.42757 0.87695 1.14769
 C497 C 0.41565 0.85422 1.12682
 C498 C 0.37787 0.82743 1.12367
 C499 C 0.36649 0.80433 1.10381
 C500 C 0.39286 0.80793 1.08704
 C501 C 0.43060 0.83497 1.09008
 C502 C 0.44197 0.85807 1.10993
 C503 C 0.38136 0.78316 1.06710
 C504 C 0.37169 0.76196 1.05062
 H505 H 0.35731 0.82414 1.13665
 H506 H 0.33726 0.78343 1.10167
 H507 H 0.45124 0.83792 1.07725
 H508 H 0.47128 0.87863 1.11224
 C509 C 0.56175 0.45696 0.66519
 C510 C 0.57190 0.44846 0.64759
 C511 C 0.58388 0.43766 0.62678
 C512 C 0.62107 0.44622 0.62462
 C513 C 0.63241 0.43445 0.60482
 C514 C 0.60659 0.41406 0.58710
 C515 C 0.56947 0.40578 0.58917
 C516 C 0.55813 0.41756 0.60897
 C517 C 0.61798 0.40077 0.56718
 C518 C 0.62761 0.38925 0.55072
 H519 H 0.64118 0.46164 0.63832
 H520 H 0.66116 0.44091 0.60343
 H521 H 0.54926 0.38994 0.57560
 H522 H 0.52928 0.41068 0.61051
 C523 C 0.54180 0.10390 0.66495
 C524 C 0.55030 0.12247 0.64726
 C525 C 0.56117 0.14515 0.62636
 C526 C 0.54976 0.17161 0.62295
 C527 C 0.56163 0.19476 0.60311
 C528 C 0.58495 0.19152 0.58659
 C529 C 0.59607 0.16481 0.58988
 C530 C 0.58419 0.14166 0.60973
 C531 C 0.59840 0.21639 0.56669
 C532 C 0.61011 0.23770 0.55027
 H533 H 0.53206 0.17462 0.63574
 H534 H 0.55298 0.21541 0.60077
 H535 H 0.61420 0.16216 0.57726
 H536 H 0.59328 0.12137 0.61223
 C537 C 0.89461 0.43719 0.66572
 C538 C 0.87542 0.42663 0.64834
 C539 C 0.85191 0.41424 0.62784
 C540 C 0.86754 0.42541 0.60540
 C541 C 0.84442 0.41420 0.58557
 C542 C 0.80561 0.39181 0.58814
 C543 C 0.79005 0.38046 0.61056
 C544 C 0.81314 0.39165 0.63036
 C545 C 0.78158 0.38091 0.56789
 C546 C 0.76087 0.37168 0.55122
 H547 H 0.89748 0.44295 0.60325
 H548 H 0.85673 0.42318 0.56831
 H549 H 0.76007 0.36320 0.61274
 H550 H 0.80076 0.38294 0.64763
 C551 C 0.44357 0.54843 0.66508
 C552 C 0.43324 0.55678 0.64746
 C553 C 0.42100 0.56736 0.62664
 C554 C 0.38280 0.55306 0.62261
 C555 C 0.37096 0.56438 0.60280
 C556 C 0.39728 0.59004 0.58694
 C557 C 0.43547 0.60410 0.59087
 C558 C 0.44731 0.59278 0.61068
 C559 C 0.38513 0.60270 0.56702
 C560 C 0.37482 0.61363 0.55057
 H561 H 0.36223 0.53348 0.63487
 H562 H 0.34137 0.55342 0.59997
 H563 H 0.45606 0.62404 0.57876
 H564 H 0.47692 0.60410 0.61366
 C565 C 0.45018 0.89516 0.66563
 C566 C 0.44182 0.87667 0.64791
 C567 C 0.43128 0.85410 0.62695
 C568 C 0.44645 0.83106 0.62229
 C569 C 0.43518 0.80810 0.60237
 C570 C 0.40868 0.80809 0.58702
 C571 C 0.39375 0.83139 0.59157
 C572 C 0.40502 0.85435 0.61149
 C573 C 0.39603 0.78339 0.56703
 C574 C 0.38508 0.76219 0.55053
 H575 H 0.46669 0.83057 0.63416
 H576 H 0.44682 0.79012 0.59906
 H577 H 0.37316 0.83153 0.57986
 H578 H 0.39303 0.87198 0.61497
 C579 C 0.10472 0.55533 0.66588
 C580 C 0.12328 0.56533 0.64822
 C581 C 0.14590 0.57700 0.62732
 C582 C 0.16077 0.55538 0.61869
 C583 C 0.18359 0.56709 0.59877
 C584 C 0.19166 0.60050 0.58737
 C585 C 0.17658 0.62201 0.59589
 C586 C 0.15374 0.61028 0.61583
 C587 C 0.21618 0.61308 0.56734
 C588 C 0.23720 0.62359 0.55080
 H589 H 0.15496 0.52964 0.62746
 H590 H 0.19518 0.55029 0.59237
 H591 H 0.18272 0.64794 0.58725
 H592 H 0.14245 0.62726 0.62239
 C593 C 0.45664 0.56195 0.83474
 C594 C 0.44795 0.57208 0.85229
 C595 C 0.43677 0.58396 0.87298
 C596 C 0.43516 0.61714 0.87257
 C597 C 0.42275 0.62791 0.89231
 C598 C 0.41188 0.60555 0.91256
 C599 C 0.41384 0.57255 0.91306
 C600 C 0.42626 0.56177 0.89330
 C601 C 0.39772 0.61595 0.93250
 C602 C 0.38537 0.62467 0.94895
 H603 H 0.44309 0.63443 0.85691
 H604 H 0.42124 0.65342 0.89171
 H605 H 0.40541 0.55500 0.92860
 H606 H 0.42728 0.53599 0.89378
 C607 C 0.10511 0.54428 0.83353
 C608 C 0.12362 0.55296 0.85122
 C609 C 0.14615 0.56402 0.87215
 C610 C 0.13872 0.58224 0.89034
 C611 C 0.16156 0.59436 0.91027
 C612 C 0.19192 0.58831 0.91209
 C613 C 0.19912 0.56976 0.89400
 C614 C 0.17628 0.55763 0.87407
 C615 C 0.21637 0.60217 0.93212
 C616 C 0.23733 0.61427 0.94866
 H617 H 0.11556 0.58742 0.88900
 H618 H 0.15581 0.60879 0.92412
 H619 H 0.22259 0.56503 0.89520
 H620 H 0.18235 0.54367 0.86008
 C621 C 0.43746 0.89429 0.83347
 C622 C 0.42743 0.87574 0.85117
 C623 C 0.41569 0.85311 0.87210
 C624 C 0.43830 0.86487 0.89219
 C625 C 0.42755 0.84211 0.91221
 C626 C 0.39415 0.80752 0.91220
 C627 C 0.37138 0.79595 0.89218
 C628 C 0.38213 0.81869 0.87217
 C629 C 0.38375 0.78332 0.93239
 C630 C 0.37498 0.76244 0.94901
 H631 H 0.46437 0.89138 0.89229
 H632 H 0.44542 0.85126 0.92758
 H633 H 0.34557 0.76919 0.89196
 H634 H 0.36451 0.80928 0.85670
 C635 C 0.54964 0.44374 0.83472
 C636 C 0.55827 0.43329 0.85218
 C637 C 0.56929 0.42095 0.87278
 C638 C 0.57593 0.39083 0.87125
 C639 C 0.58785 0.37957 0.89103
 C640 C 0.59321 0.39837 0.91244
 C641 C 0.58630 0.42832 0.91402
 C642 C 0.57436 0.43960 0.89422
 C643 C 0.60656 0.38737 0.93256
 C644 C 0.61816 0.37807 0.94916
 H645 H 0.57220 0.37629 0.85474
 H646 H 0.59319 0.35643 0.88959
 H647 H 0.59043 0.44311 0.93047
 H648 H 0.56941 0.46299 0.89558
 C649 C 0.89700 0.45224 0.83510
 C650 C 0.87845 0.44379 0.85275
 C651 C 0.85576 0.43297 0.87361
 C652 C 0.86184 0.41327 0.89152
 C653 C 0.83877 0.40134 0.91134
 C654 C 0.80953 0.40906 0.91334
 C655 C 0.80369 0.42909 0.89555
 C656 C 0.82675 0.44102 0.87573
 C657 C 0.78482 0.39548 0.93327
 C658 C 0.76366 0.38366 0.94971
 H659 H 0.88411 0.40679 0.89003
 H660 H 0.84347 0.38578 0.92497
 H661 H 0.78109 0.43512 0.89688
 H662 H 0.82172 0.45612 0.86195
 C663 C 0.55649 0.10359 0.83483
 C664 C 0.56699 0.12224 0.85247
 C665 C 0.57930 0.14499 0.87334
 C666 C 0.61564 0.17585 0.87459
 C667 C 0.62712 0.19888 0.89448
 C668 C 0.60232 0.19117 0.91319
 C669 C 0.56610 0.16009 0.91204
 C670 C 0.55461 0.13705 0.89215
 C671 C 0.61364 0.21587 0.93317
 C672 C 0.62310 0.23707 0.94964
 H673 H 0.63491 0.18233 0.86012
 H674 H 0.65515 0.22292 0.89515
 H675 H 0.54665 0.15393 0.92637
 H676 H 0.52641 0.11333 0.89133
   
