data_POSCAR
  _audit_creation_date              2014-09-24
  _audit_creation_method            'ToBaCCo'
  _symmetry_space_group_name_H-M    'P1'
  _symmetry_Int_Tables_number       1
  _symmetry_cell_setting            triclinic
  loop_
  _symmetry_equiv_pos_as_xyz
 x,y,z
_cell_length_a 30.4546
_cell_length_b 30.4545
_cell_length_c 30.4546
_cell_angle_alpha 90.000200
_cell_angle_beta 89.996300
_cell_angle_gamma 90.001600
loop_
  _atom_site_label
  _atom_site_type_symbol
  _atom_site_fract_x
  _atom_site_fract_y
  _atom_site_fract_z
Zn1 Zn 0.78473 0.71542 0.78467
 Zn2 Zn 0.78473 0.78473 0.71533
 Zn3 Zn 0.71541 0.71541 0.71536
 Zn4 Zn 0.71541 0.78474 0.78467
 O5 O 0.75007 0.75007 0.75001
 O6 O 0.84216 0.72442 0.77567
 O7 O 0.77572 0.77572 0.65790
 O8 O 0.72441 0.65798 0.72436
 O9 O 0.84216 0.77573 0.72433
 O10 O 0.77574 0.65798 0.77568
 O11 O 0.72440 0.72439 0.65793
 O12 O 0.65797 0.77575 0.77567
 O13 O 0.77573 0.84216 0.72433
 O14 O 0.65797 0.72441 0.72436
 O15 O 0.72442 0.84217 0.77567
 O16 O 0.72440 0.77574 0.84210
 O17 O 0.77572 0.72441 0.84210
 C18 C 0.86268 0.75008 0.75000
 C19 C 0.75005 0.75005 0.63740
 C20 C 0.75007 0.63746 0.75002
 C21 C 0.63746 0.75008 0.75002
 C22 C 0.75008 0.86268 0.75000
 C23 C 0.75006 0.75007 0.86262
 Zn24 Zn 0.21542 0.71536 0.71532
 Zn25 Zn 0.21542 0.78477 0.78470
 Zn26 Zn 0.28472 0.71538 0.78471
 Zn27 Zn 0.28472 0.78476 0.71530
 O28 O 0.25007 0.75007 0.75001
 O29 O 0.15796 0.72433 0.72429
 O30 O 0.22443 0.77577 0.84213
 O31 O 0.27571 0.65795 0.77571
 O32 O 0.15796 0.77581 0.77574
 O33 O 0.22444 0.65794 0.72433
 O34 O 0.27569 0.72438 0.84213
 O35 O 0.34218 0.77580 0.72425
 O36 O 0.22445 0.84219 0.77570
 O37 O 0.34218 0.72435 0.77574
 O38 O 0.27570 0.84219 0.72430
 O39 O 0.27569 0.77575 0.65787
 O40 O 0.22443 0.72436 0.65790
 C41 C 0.13777 0.75007 0.75002
 C42 C 0.25006 0.75007 0.86264
 C43 C 0.25008 0.63744 0.75002
 C44 C 0.36237 0.75007 0.74999
 C45 C 0.25008 0.86270 0.75000
 C46 C 0.25006 0.75005 0.63737
 Zn47 Zn 0.71536 0.21542 0.78469
 Zn48 Zn 0.78477 0.21543 0.71530
 Zn49 Zn 0.71537 0.28473 0.71530
 Zn50 Zn 0.78476 0.28472 0.78471
 O51 O 0.75006 0.25007 0.75000
 O52 O 0.72432 0.15796 0.77571
 O53 O 0.77576 0.22445 0.65788
 O54 O 0.65795 0.27571 0.72431
 O55 O 0.77580 0.15797 0.72426
 O56 O 0.65794 0.22445 0.77569
 O57 O 0.72437 0.27570 0.65788
 O58 O 0.77579 0.34218 0.77575
 O59 O 0.84219 0.22446 0.72430
 O60 O 0.72434 0.34218 0.72427
 O61 O 0.84218 0.27571 0.77570
 O62 O 0.77575 0.27569 0.84213
 O63 O 0.72436 0.22443 0.84211
 C64 C 0.75006 0.13777 0.74998
 C65 C 0.75006 0.25007 0.63736
 C66 C 0.63743 0.25008 0.75000
 C67 C 0.75007 0.36237 0.75001
 C68 C 0.86270 0.25008 0.75000
 C69 C 0.75005 0.25005 0.86263
 Zn70 Zn 0.28475 0.21539 0.71525
 Zn71 Zn 0.21537 0.21538 0.78471
 Zn72 Zn 0.28475 0.28475 0.78474
 Zn73 Zn 0.21538 0.28477 0.71526
 O74 O 0.25007 0.25007 0.74999
 O75 O 0.27576 0.15794 0.72420
 O76 O 0.22439 0.22439 0.84212
 O77 O 0.34220 0.27575 0.77577
 O78 O 0.22435 0.15794 0.77573
 O79 O 0.34219 0.22437 0.72422
 O80 O 0.27572 0.27571 0.84215
 O81 O 0.22439 0.34221 0.72424
 O82 O 0.15793 0.22437 0.77575
 O83 O 0.27578 0.34219 0.77577
 O84 O 0.15794 0.27579 0.72423
 O85 O 0.22440 0.27575 0.65785
 O86 O 0.27573 0.22442 0.65784
 C87 C 0.25005 0.13775 0.74996
 C88 C 0.25005 0.25004 0.86265
 C89 C 0.36238 0.25006 0.74999
 C90 C 0.25009 0.36239 0.75000
 C91 C 0.13775 0.25008 0.74999
 C92 C 0.25006 0.25008 0.63733
 Zn93 Zn 0.71525 0.71525 0.21535
 Zn94 Zn 0.78464 0.78464 0.21537
 Zn95 Zn 0.71523 0.78463 0.28466
 Zn96 Zn 0.78463 0.71524 0.28466
 O97 O 0.74994 0.74994 0.25001
 O98 O 0.72422 0.72423 0.15790
 O99 O 0.77564 0.84206 0.22440
 O100 O 0.65781 0.77563 0.27563
 O101 O 0.77568 0.77570 0.15791
 O102 O 0.65782 0.72424 0.22437
 O103 O 0.72424 0.84206 0.27566
 O104 O 0.77566 0.72419 0.34211
 O105 O 0.84206 0.77564 0.22439
 O106 O 0.72419 0.77566 0.34212
 O107 O 0.84205 0.72424 0.27565
 O108 O 0.77563 0.65781 0.27562
 O109 O 0.72425 0.65782 0.22436
 C110 C 0.74995 0.74997 0.13771
 C111 C 0.74995 0.86257 0.25004
 C112 C 0.63730 0.74994 0.25000
 C113 C 0.74993 0.74992 0.36231
 C114 C 0.86257 0.74994 0.25002
 C115 C 0.74994 0.63730 0.24998
 Zn116 Zn 0.28462 0.78467 0.21532
 Zn117 Zn 0.21525 0.71519 0.21533
 Zn118 Zn 0.28462 0.71519 0.28469
 Zn119 Zn 0.21525 0.78466 0.28470
 O120 O 0.24993 0.74993 0.25001
 O121 O 0.27563 0.77570 0.15787
 O122 O 0.22426 0.65778 0.22436
 O123 O 0.34207 0.72415 0.27568
 O124 O 0.22423 0.72416 0.15788
 O125 O 0.34207 0.77569 0.22429
 O126 O 0.27559 0.65778 0.27568
 O127 O 0.22425 0.77570 0.34214
 O128 O 0.15780 0.72416 0.22432
 O129 O 0.27566 0.72418 0.34213
 O130 O 0.15780 0.77568 0.27573
 O131 O 0.22426 0.84207 0.27566
 O132 O 0.27559 0.84208 0.22434
 C133 C 0.24992 0.74993 0.13769
 C134 C 0.24992 0.63727 0.25002
 C135 C 0.36225 0.74992 0.24998
 C136 C 0.24996 0.74994 0.36233
 C137 C 0.13762 0.74992 0.25003
 C138 C 0.24992 0.86259 0.25000
 Zn139 Zn 0.71519 0.28462 0.21530
 Zn140 Zn 0.78466 0.21524 0.21532
 Zn141 Zn 0.78465 0.28463 0.28468
 Zn142 Zn 0.71518 0.21526 0.28469
 O143 O 0.74992 0.24994 0.25000
 O144 O 0.72418 0.27563 0.15786
 O145 O 0.84207 0.22426 0.22435
 O146 O 0.77569 0.34208 0.27568
 O147 O 0.77571 0.22423 0.15787
 O148 O 0.72416 0.34206 0.22428
 O149 O 0.84207 0.27561 0.27566
 O150 O 0.72415 0.22425 0.34213
 O151 O 0.77568 0.15780 0.22431
 O152 O 0.77568 0.27566 0.34213
 O153 O 0.72415 0.15781 0.27572
 O154 O 0.65777 0.22428 0.27566
 O155 O 0.65778 0.27559 0.22432
 C156 C 0.74995 0.24993 0.13768
 C157 C 0.86258 0.24993 0.25001
 C158 C 0.74992 0.36226 0.24998
 C159 C 0.74991 0.24996 0.36232
 C160 C 0.74991 0.13762 0.25002
 C161 C 0.63726 0.24993 0.24999
 Zn162 Zn 0.21519 0.28465 0.21527
 Zn163 Zn 0.28464 0.21520 0.21526
 Zn164 Zn 0.28465 0.28465 0.28471
 Zn165 Zn 0.21520 0.21521 0.28472
 O166 O 0.24992 0.24993 0.24999
 O167 O 0.22419 0.27567 0.15784
 O168 O 0.34207 0.22418 0.22425
 O169 O 0.27566 0.34209 0.27572
 O170 O 0.27565 0.22420 0.15783
 O171 O 0.22418 0.34208 0.22427
 O172 O 0.34208 0.27566 0.27571
 O173 O 0.22419 0.22420 0.34215
 O174 O 0.27563 0.15777 0.22424
 O175 O 0.27566 0.27566 0.34214
 O176 O 0.22417 0.15777 0.27572
 O177 O 0.15776 0.22420 0.27574
 O178 O 0.15776 0.27566 0.22426
 C179 C 0.24993 0.24994 0.13765
 C180 C 0.36226 0.24992 0.24998
 C181 C 0.24992 0.36227 0.25000
 C182 C 0.24993 0.24993 0.36233
 C183 C 0.24990 0.13759 0.24997
 C184 C 0.13758 0.24992 0.25000
 C185 C 0.00381 0.75009 0.75001
 C186 C -0.01923 0.77821 0.72191
 C187 C -0.06515 0.77824 0.72187
 C188 C -0.08866 0.75009 0.75001
 C189 C -0.06515 0.72193 0.77814
 C190 C -0.01923 0.72197 0.77811
 C191 C 0.05108 0.75008 0.75000
 C192 C 0.09066 0.75007 0.75001
 H193 H -0.00171 0.80011 0.70002
 H194 H -0.08219 0.80031 0.69982
 H195 H -0.08220 0.69986 0.80020
 H196 H -0.00172 0.70007 0.80000
 C197 C 0.75008 0.00382 0.74999
 C198 C 0.72197 -0.01923 0.77809
 C199 C 0.72193 -0.06514 0.77814
 C200 C 0.75008 -0.08865 0.75000
 C201 C 0.77824 -0.06514 0.72186
 C202 C 0.77820 -0.01923 0.72189
 C203 C 0.75006 0.05108 0.74997
 C204 C 0.75005 0.09067 0.74997
 H205 H 0.70006 -0.00171 0.79998
 H206 H 0.69986 -0.08219 0.80020
 H207 H 0.80031 -0.08219 0.69981
 H208 H 0.80010 -0.00171 0.70000
 C209 C 0.75001 0.75002 0.00375
 C210 C 0.72191 0.77814 -0.01929
 C211 C 0.72189 0.77820 -0.06520
 C212 C 0.75005 0.75007 -0.08871
 C213 C 0.77819 0.72191 -0.06521
 C214 C 0.77813 0.72193 -0.01929
 C215 C 0.74997 0.74999 0.05102
 C216 C 0.74995 0.74998 0.09061
 H217 H 0.70000 0.80003 -0.00177
 H218 H 0.69983 0.80027 -0.08225
 H219 H 0.80026 0.69986 -0.08226
 H220 H 0.80002 0.70003 -0.00177
 C221 C 0.49632 0.75008 0.75000
 C222 C 0.51936 0.77816 0.77814
 C223 C 0.56528 0.77820 0.77818
 C224 C 0.58879 0.75008 0.75001
 C225 C 0.56529 0.72197 0.72183
 C226 C 0.51937 0.72200 0.72186
 C227 C 0.44906 0.75007 0.74999
 C228 C 0.40947 0.75007 0.74998
 H229 H 0.50184 0.80003 0.80006
 H230 H 0.58232 0.80023 0.80027
 H231 H 0.58234 0.69993 0.69974
 H232 H 0.50186 0.70013 0.69994
 C233 C 0.25007 0.00382 0.74997
 C234 C 0.22203 -0.01922 0.77815
 C235 C 0.22200 -0.06513 0.77820
 C236 C 0.25008 -0.08864 0.74999
 C237 C 0.27816 -0.06513 0.72177
 C238 C 0.27812 -0.01922 0.72180
 C239 C 0.25005 0.05107 0.74995
 C240 C 0.25004 0.09066 0.74995
 H241 H 0.20018 -0.00170 0.80009
 H242 H 0.19999 -0.08218 0.80032
 H243 H 0.30017 -0.08219 0.69966
 H244 H 0.29996 -0.00170 0.69985
 C245 C 0.24997 0.74999 0.00375
 C246 C 0.22195 0.77819 -0.01928
 C247 C 0.22195 0.77826 -0.06519
 C248 C 0.25004 0.75005 -0.08870
 C249 C 0.27809 0.72182 -0.06520
 C250 C 0.27803 0.72183 -0.01929
 C251 C 0.24993 0.74995 0.05101
 C252 C 0.24992 0.74994 0.09059
 H253 H 0.20010 0.80013 -0.00176
 H254 H 0.19995 0.80039 -0.08224
 H255 H 0.30011 0.69971 -0.08225
 H256 H 0.29985 0.69986 -0.00177
 C257 C 0.00381 0.25010 0.74999
 C258 C -0.01923 0.27815 0.77816
 C259 C -0.06514 0.27818 0.77820
 C260 C -0.08864 0.25009 0.75000
 C261 C -0.06514 0.22201 0.72179
 C262 C -0.01923 0.22205 0.72182
 C263 C 0.05107 0.25010 0.74998
 C264 C 0.09065 0.25008 0.74999
 H265 H -0.00171 0.30000 0.80010
 H266 H -0.08219 0.30019 0.80032
 H267 H -0.08219 0.19999 0.69968
 H268 H -0.00171 0.20020 0.69987
 C269 C 0.75008 0.49633 0.75000
 C270 C 0.72200 0.51937 0.72186
 C271 C 0.72197 0.56529 0.72184
 C272 C 0.75008 0.58880 0.75001
 C273 C 0.77819 0.56528 0.77818
 C274 C 0.77816 0.51937 0.77814
 C275 C 0.75007 0.44906 0.74999
 C276 C 0.75007 0.40948 0.75001
 H277 H 0.70013 0.50186 0.69994
 H278 H 0.69993 0.58234 0.69975
 H279 H 0.80023 0.58233 0.80027
 H280 H 0.80003 0.50185 0.80005
 C281 C 0.75000 0.24999 0.00375
 C282 C 0.77820 0.27803 -0.01927
 C283 C 0.77826 0.27808 -0.06518
 C284 C 0.75003 0.25003 -0.08871
 C285 C 0.72179 0.22196 -0.06523
 C286 C 0.72182 0.22198 -0.01931
 C287 C 0.74998 0.24996 0.05100
 C288 C 0.74997 0.24994 0.09058
 H289 H 0.80016 0.29985 -0.00173
 H290 H 0.80039 0.30009 -0.08222
 H291 H 0.69967 0.19998 -0.08229
 H292 H 0.69985 0.20014 -0.00181
 C293 C 0.49632 0.25008 0.75001
 C294 C 0.51936 0.27809 0.72180
 C295 C 0.56527 0.27813 0.72176
 C296 C 0.58877 0.25009 0.75001
 C297 C 0.56527 0.22205 0.77826
 C298 C 0.51935 0.22208 0.77822
 C299 C 0.44906 0.25006 0.74999
 C300 C 0.40948 0.25006 0.74998
 H301 H 0.50184 0.29990 0.69982
 H302 H 0.58232 0.30011 0.69961
 H303 H 0.58231 0.20007 0.80041
 H304 H 0.50183 0.20026 0.80020
 C305 C 0.25010 0.49632 0.75002
 C306 C 0.22209 0.51936 0.72181
 C307 C 0.22205 0.56527 0.72177
 C308 C 0.25008 0.58878 0.75002
 C309 C 0.27813 0.56528 0.77827
 C310 C 0.27810 0.51936 0.77823
 C311 C 0.25011 0.44907 0.75001
 C312 C 0.25011 0.40948 0.75000
 H313 H 0.20028 0.50183 0.69983
 H314 H 0.20007 0.58231 0.69963
 H315 H 0.30010 0.58233 0.80042
 H316 H 0.29991 0.50185 0.80021
 C317 C 0.24998 0.25000 0.00374
 C318 C 0.27812 0.27810 -0.01927
 C319 C 0.27818 0.27815 -0.06518
 C320 C 0.25003 0.25003 -0.08870
 C321 C 0.22186 0.22189 -0.06522
 C322 C 0.22187 0.22191 -0.01931
 C323 C 0.24996 0.24998 0.05099
 C324 C 0.24994 0.24995 0.09057
 H325 H 0.30001 0.29998 -0.00173
 H326 H 0.30026 0.30021 -0.08221
 H327 H 0.19979 0.19984 -0.08229
 H328 H 0.19996 0.20002 -0.00181
 C329 C 0.00368 0.74994 0.25003
 C330 C -0.01935 0.77815 0.22202
 C331 C -0.06526 0.77819 0.22198
 C332 C -0.08877 0.74995 0.25003
 C333 C -0.06527 0.72171 0.27808
 C334 C -0.01936 0.72174 0.27804
 C335 C 0.05094 0.74993 0.25002
 C336 C 0.09052 0.74992 0.25003
 H337 H -0.00183 0.80012 0.20020
 H338 H -0.08231 0.80033 0.19999
 H339 H -0.08232 0.69956 0.30007
 H340 H -0.00184 0.69977 0.29986
 C341 C 0.74995 0.00369 0.25004
 C342 C 0.72174 -0.01935 0.27806
 C343 C 0.72171 -0.06527 0.27809
 C344 C 0.74995 -0.08877 0.25005
 C345 C 0.77820 -0.06526 0.22200
 C346 C 0.77816 -0.01935 0.22203
 C347 C 0.74992 0.05094 0.25002
 C348 C 0.74991 0.09052 0.25003
 H349 H 0.69977 -0.00183 0.29987
 H350 H 0.69957 -0.08232 0.30008
 H351 H 0.80034 -0.08231 0.20002
 H352 H 0.80013 -0.00183 0.20021
 C353 C 0.74997 0.74998 0.49627
 C354 C 0.72187 0.72189 0.51934
 C355 C 0.72186 0.72188 0.56526
 C356 C 0.75003 0.75003 0.58873
 C357 C 0.77817 0.77815 0.56519
 C358 C 0.77810 0.77809 0.51927
 C359 C 0.74994 0.74994 0.44900
 C360 C 0.74993 0.74992 0.40941
 H361 H 0.69996 0.69999 0.50185
 H362 H 0.69980 0.69982 0.58233
 H363 H 0.80025 0.80022 0.58221
 H364 H 0.79999 0.79997 0.50173
 C365 C 0.49619 0.74992 0.24995
 C366 C 0.51921 0.77817 0.27793
 C367 C 0.56513 0.77822 0.27798
 C368 C 0.58864 0.74993 0.24998
 C369 C 0.56515 0.72165 0.22197
 C370 C 0.51924 0.72168 0.22199
 C371 C 0.44893 0.74990 0.24994
 C372 C 0.40935 0.74990 0.24995
 H373 H 0.50168 0.80017 0.29971
 H374 H 0.58216 0.80039 0.29994
 H375 H 0.58221 0.69947 0.20002
 H376 H 0.50173 0.69967 0.20020
 C377 C 0.24989 0.00368 0.24996
 C378 C 0.22175 -0.01935 0.27804
 C379 C 0.22172 -0.06526 0.27809
 C380 C 0.24991 -0.08876 0.24999
 C381 C 0.27809 -0.06526 0.22187
 C382 C 0.27804 -0.01935 0.22189
 C383 C 0.24987 0.05093 0.24995
 C384 C 0.24987 0.09050 0.24995
 H385 H 0.19982 -0.00183 0.29991
 H386 H 0.19963 -0.08231 0.30013
 H387 H 0.30018 -0.08231 0.19984
 H388 H 0.29996 -0.00183 0.20002
 C389 C 0.25001 0.75000 0.49626
 C390 C 0.22198 0.72183 0.51932
 C391 C 0.22196 0.72181 0.56523
 C392 C 0.25004 0.75003 0.58872
 C393 C 0.27811 0.77824 0.56519
 C394 C 0.27806 0.77819 0.51928
 C395 C 0.24999 0.74998 0.44900
 C396 C 0.24998 0.74995 0.40942
 H397 H 0.20013 0.69988 0.50182
 H398 H 0.19996 0.69970 0.58230
 H399 H 0.30013 0.80036 0.58222
 H400 H 0.29990 0.80013 0.50174
 C401 C 0.00367 0.24991 0.25002
 C402 C -0.01936 0.27806 0.27809
 C403 C -0.06527 0.27810 0.27813
 C404 C -0.08877 0.24992 0.25002
 C405 C -0.06527 0.22174 0.22191
 C406 C -0.01937 0.22177 0.22194
 C407 C 0.05092 0.24990 0.25001
 C408 C 0.09049 0.24991 0.24999
 H409 H -0.00184 0.29998 0.29996
 H410 H -0.08231 0.30019 0.30017
 H411 H -0.08232 0.19965 0.19987
 H412 H -0.00185 0.19984 0.20007
 C413 C 0.74995 0.49619 0.24995
 C414 C 0.72170 0.51923 0.22198
 C415 C 0.72167 0.56515 0.22196
 C416 C 0.74995 0.58865 0.24997
 C417 C 0.77823 0.56513 0.27797
 C418 C 0.77820 0.51922 0.27792
 C419 C 0.74994 0.44894 0.24994
 C420 C 0.74992 0.40935 0.24996
 H421 H 0.69970 0.50172 0.20019
 H422 H 0.69949 0.58220 0.20001
 H423 H 0.80041 0.58218 0.29992
 H424 H 0.80020 0.50170 0.29970
 C425 C 0.74999 0.25001 0.49625
 C426 C 0.77819 0.22199 0.51929
 C427 C 0.77826 0.22198 0.56520
 C428 C 0.75005 0.25006 0.58871
 C429 C 0.72181 0.27812 0.56520
 C430 C 0.72182 0.27805 0.51929
 C431 C 0.74995 0.24997 0.44900
 C432 C 0.74992 0.24995 0.40941
 H433 H 0.80013 0.20015 0.50176
 H434 H 0.80039 0.19999 0.58224
 H435 H 0.69969 0.30013 0.58226
 H436 H 0.69985 0.29988 0.50178
 C437 C 0.49617 0.24992 0.24998
 C438 C 0.51920 0.27810 0.22194
 C439 C 0.56511 0.27814 0.22190
 C440 C 0.58861 0.24993 0.24998
 C441 C 0.56511 0.22171 0.27806
 C442 C 0.51920 0.22174 0.27802
 C443 C 0.44892 0.24990 0.24997
 C444 C 0.40934 0.24991 0.24996
 H445 H 0.50168 0.30004 0.20009
 H446 H 0.58216 0.30026 0.19989
 H447 H 0.58216 0.19960 0.30007
 H448 H 0.50168 0.19979 0.29986
 C449 C 0.24989 0.49618 0.25004
 C450 C 0.22172 0.51921 0.22200
 C451 C 0.22169 0.56512 0.22196
 C452 C 0.24991 0.58862 0.25003
 C453 C 0.27811 0.56512 0.27811
 C454 C 0.27807 0.51921 0.27808
 C455 C 0.24989 0.44893 0.25003
 C456 C 0.24991 0.40935 0.25000
 H457 H 0.19977 0.50169 0.20016
 H458 H 0.19958 0.58217 0.19995
 H459 H 0.30023 0.58216 0.30012
 H460 H 0.30002 0.50168 0.29992
 C461 C 0.24999 0.25001 0.49624
 C462 C 0.27812 0.22193 0.51927
 C463 C 0.27819 0.22192 0.56518
 C464 C 0.25005 0.25007 0.58868
 C465 C 0.22189 0.27820 0.56518
 C466 C 0.22190 0.27814 0.51927
 C467 C 0.24995 0.24997 0.44899
 C468 C 0.24993 0.24995 0.40941
 H469 H 0.30001 0.20002 0.50175
 H470 H 0.30027 0.19987 0.58222
 H471 H 0.19983 0.30027 0.58223
 H472 H 0.19999 0.30002 0.50175
   
