data_POSCAR
  _audit_creation_date              2014-09-24
  _audit_creation_method            'ToBaCCo'
  _symmetry_space_group_name_H-M    'P1'
  _symmetry_Int_Tables_number       1
  _symmetry_cell_setting            triclinic
  loop_
  _symmetry_equiv_pos_as_xyz
 x,y,z
_cell_length_a 43.7878
_cell_length_b 39.5655
_cell_length_c 13.5315
_cell_angle_alpha 88.942100
_cell_angle_beta 89.660800
_cell_angle_gamma 89.881800
loop_
  _atom_site_label
  _atom_site_type_symbol
  _atom_site_fract_x
  _atom_site_fract_y
  _atom_site_fract_z
O1 O 0.23124 0.28207 0.09126
 O2 O 0.28972 0.21548 0.12086
 O3 O 0.23106 0.21665 0.08232
 O4 O 0.28948 0.28145 0.13158
 O5 O 0.27776 0.27840 0.29021
 O6 O 0.22164 0.21209 0.24219
 O7 O 0.27976 0.21255 0.28073
 O8 O 0.21953 0.27666 0.24977
 Cu9 Cu 0.26160 0.24924 0.09055
 Cu10 Cu 0.24885 0.24458 0.28180
 C11 C 0.21482 0.28996 0.16508
 C12 C 0.29488 0.20278 0.20609
 C13 C 0.21593 0.20366 0.15407
 C14 C 0.29336 0.29121 0.21958
 O15 O 0.78515 0.28177 0.36121
 O16 O 0.72751 0.21484 0.39465
 O17 O 0.78592 0.21607 0.35674
 O18 O 0.72652 0.28064 0.39774
 O19 O 0.71670 0.28180 0.23777
 O20 O 0.77625 0.21783 0.19695
 O21 O 0.71767 0.21718 0.23509
 O22 O 0.77560 0.28374 0.20138
 Cu23 Cu 0.75728 0.24818 0.39356
 Cu24 Cu 0.74579 0.25038 0.20163
 C25 C 0.79044 0.29402 0.27542
 C26 C 0.71225 0.20496 0.32094
 C27 C 0.79132 0.20599 0.26973
 C28 C 0.71102 0.29161 0.32477
 O29 O 0.77758 0.77714 0.81216
 O30 O 0.71913 0.71330 0.76179
 O31 O 0.77782 0.71129 0.79673
 O32 O 0.71898 0.77731 0.77799
 O33 O 0.72849 0.78327 0.61816
 O34 O 0.78747 0.71679 0.63727
 O35 O 0.72902 0.71802 0.60182
 O36 O 0.78731 0.78250 0.65255
 Cu37 Cu 0.74775 0.74418 0.80342
 Cu38 Cu 0.75918 0.75075 0.61151
 C39 C 0.79241 0.79085 0.74114
 C40 C 0.71360 0.70538 0.67318
 C41 C 0.79274 0.70256 0.72045
 C42 C 0.71306 0.79086 0.69452
 O43 O 0.22714 0.71480 0.90001
 O44 O 0.28587 0.78151 0.88036
 O45 O 0.22692 0.78001 0.91186
 O46 O 0.28616 0.71562 0.86973
 O47 O 0.27792 0.71940 0.70930
 O48 O 0.21950 0.78478 0.75122
 O49 O 0.27818 0.78527 0.71963
 O50 O 0.21878 0.72022 0.73972
 Cu51 Cu 0.25747 0.74753 0.90652
 Cu52 Cu 0.24804 0.75276 0.71375
 C53 C 0.21228 0.70698 0.82336
 C54 C 0.29206 0.79478 0.79635
 C55 C 0.21262 0.79304 0.83897
 C56 C 0.29217 0.70643 0.78230
 C57 C 0.99975 0.08398 0.09250
 C58 C 1.02660 0.07086 0.05153
 C59 C 1.02557 0.03998 0.00247
 C60 C 0.99845 0.02074 0.00024
 C61 C 0.97176 0.03446 0.04296
 C62 C 0.97215 0.06627 0.08728
 C63 C 0.99841 -0.01399 -0.04257
 C64 C 0.97140 -0.02835 -0.07943
 C65 C 0.97109 -0.06155 -0.11468
 C66 C 0.99852 -0.07989 -0.11856
 C67 C 1.02579 -0.06603 -0.08403
 C68 C 1.02537 -0.03355 -0.04412
 H69 H 1.00028 0.10846 0.12710
 H70 H 1.04631 0.03082 -0.03156
 H71 H 0.95070 0.02024 0.04499
 H72 H 0.95043 -0.01389 -0.08147
 H73 H 0.99845 -0.10563 -0.14456
 H74 H 1.04631 -0.02379 -0.01403
 C75 C 0.49888 0.58107 0.60831
 C76 C 0.52545 0.56890 0.56219
 C77 C 0.52383 0.53837 0.51097
 C78 C 0.49681 0.51907 0.51010
 C79 C 0.47045 0.53217 0.55587
 C80 C 0.47118 0.56344 0.60307
 C81 C 0.49655 0.48523 0.46256
 C82 C 0.46979 0.47228 0.42043
 C83 C 0.46952 0.44011 0.37818
 C84 C 0.49692 0.42169 0.37238
 C85 C 0.52403 0.43398 0.41362
 C86 C 0.52323 0.46528 0.46106
 H87 H 0.49946 0.60457 0.64780
 H88 H 0.54365 0.52982 0.47042
 H89 H 0.44937 0.51794 0.55697
 H90 H 0.44902 0.48714 0.41983
 H91 H 0.49685 0.39739 0.33722
 H92 H 0.54336 0.47377 0.49914
 C93 C -0.00029 0.41849 0.11942
 C94 C -0.02800 0.43612 0.11017
 C95 C -0.02846 0.46737 0.05945
 C96 C -0.00191 0.48034 0.01357
 C97 C 0.02520 0.46118 0.01912
 C98 C 0.02655 0.43068 0.07390
 C99 C -0.00226 0.51365 -0.04040
 C100 C 0.02413 0.53399 -0.04387
 C101 C 0.02465 0.56483 -0.09706
 C102 C -0.00217 0.57588 -0.14416
 C103 C -0.02919 0.55699 -0.13742
 C104 C -0.02890 0.52559 -0.08754
 H105 H 0.00011 0.39490 0.16105
 H106 H -0.04958 0.48161 0.05718
 H107 H 0.04524 0.46970 -0.02114
 H108 H 0.04419 0.52626 -0.00295
 H109 H -0.00234 0.59969 -0.18473
 H110 H -0.04949 0.51051 -0.08663
 C111 C 0.49798 0.92188 0.65241
 C112 C 0.47091 0.94058 0.64212
 C113 C 0.47130 0.97094 0.58675
 C114 C 0.49813 0.98195 0.53805
 C115 C 0.52458 0.96170 0.54537
 C116 C 0.52497 0.93198 0.60378
 C117 C 0.49872 1.01420 0.47868
 C118 C 0.52582 1.03322 0.47095
 C119 C 0.52744 1.06272 0.41169
 C120 C 0.50092 1.07404 0.36332
 C121 C 0.47318 1.05665 0.37443
 C122 C 0.47242 1.02635 0.43007
 H123 H 0.49774 0.89889 0.69691
 H124 H 0.45065 0.98595 0.58274
 H125 H 0.54479 0.96861 0.50341
 H126 H 0.54560 1.02548 0.51317
 H127 H 0.50157 1.09691 0.31833
 H128 H 0.45130 1.01225 0.43426
 C129 C 1.14025 0.14100 0.10563
 C130 C 1.15794 0.15205 0.02449
 C131 C 1.18373 0.17204 0.04014
 C132 C 1.19203 0.18093 0.13659
 C133 C 1.17436 0.16796 0.21572
 N134 N 1.14926 0.14900 0.19835
 C135 C 1.11135 0.12218 0.09262
 N136 N 1.10361 0.11006 0.00247
 C137 C 1.07690 0.09341 -0.01266
 C138 C 1.05599 0.08863 0.06538
 C139 C 1.06359 0.10079 0.15868
 C140 C 1.09118 0.11739 0.17266
 H141 H 1.19661 0.18121 -0.02343
 H142 H 1.17980 0.17368 0.29153
 H143 H 1.07179 0.08445 -0.08579
 H144 H 1.04827 0.09716 0.22110
 H145 H 1.15147 0.14616 -0.05035
 H146 H 1.09644 0.12669 0.24535
 C147 C 0.63713 0.64295 0.61296
 C148 C 0.66378 0.63934 0.55603
 C149 C 0.68907 0.65966 0.57541
 C150 C 0.68795 0.68257 0.65318
 C151 C 0.66107 0.68483 0.70946
 N152 N 0.63649 0.66560 0.68732
 C153 C 0.60937 0.62349 0.59267
 N154 N 0.58200 0.63976 0.59080
 C155 C 0.55526 0.62317 0.57761
 C156 C 0.55488 0.58777 0.56880
 C157 C 0.58311 0.57064 0.57010
 C158 C 0.61036 0.58845 0.58070
 H159 H 0.70945 0.65744 0.53020
 H160 H 0.65927 0.70262 0.76909
 H161 H 0.53441 0.63782 0.57437
 H162 H 0.58422 0.54338 0.56594
 H163 H 0.66470 0.62171 0.49580
 H164 H 0.63185 0.57488 0.58349
 C165 C -0.13626 0.36403 0.23023
 C166 C -0.14365 0.35291 0.32664
 C167 C -0.16805 0.33071 0.34172
 C168 C -0.18529 0.31970 0.26135
 C169 C -0.17796 0.33254 0.16678
 N170 N -0.15394 0.35390 0.15383
 C171 C -0.10919 0.38535 0.20788
 N172 N -0.10806 0.40271 0.12010
 C173 C -0.08304 0.42048 0.09006
 C174 C -0.05670 0.42075 0.14866
 C175 C -0.05751 0.40362 0.24033
 C176 C -0.08363 0.38594 0.27024
 H177 H -0.17310 0.32178 0.41615
 H178 H -0.19081 0.32502 0.10276
 H179 H -0.08327 0.43306 0.01834
 H180 H -0.03772 0.40331 0.28794
 H181 H -0.13084 0.36105 0.38995
 H182 H -0.08308 0.37181 0.33933
 C183 C 0.36343 0.86789 0.76229
 C184 C 0.35653 0.85471 0.85705
 C185 C 0.33288 0.83126 0.86881
 C186 C 0.31596 0.82108 0.78680
 C187 C 0.32282 0.83586 0.69424
 N188 N 0.34607 0.85835 0.68453
 C189 C 0.38979 0.89050 0.74206
 N190 N 0.39086 0.90773 0.65401
 C191 C 0.41564 0.92589 0.62399
 C192 C 0.44191 0.92659 0.68274
 C193 C 0.44099 0.91010 0.77546
 C194 C 0.41506 0.89207 0.80543
 H195 H 0.32812 0.82080 0.94180
 H196 H 0.31017 0.82910 0.62907
 H197 H 0.41543 0.93803 0.55166
 H198 H 0.46071 0.91022 0.82336
 H199 H 0.36912 0.86214 0.92154
 H200 H 0.41570 0.87823 0.87498
 C201 C -0.13677 0.63068 -0.24978
 C202 C -0.14352 0.64434 -0.34374
 C203 C -0.16724 0.66776 -0.35412
 C204 C -0.18452 0.67755 -0.27141
 C205 C -0.17781 0.66208 -0.17960
 N206 N -0.15441 0.63963 -0.17135
 C207 C -0.11023 0.60815 -0.23139
 N208 N -0.10943 0.58970 -0.14544
 C209 C -0.08459 0.57131 -0.11746
 C210 C -0.05806 0.57164 -0.17608
 C211 C -0.05866 0.58954 -0.26653
 C212 C -0.08461 0.60778 -0.29450
 H213 H -0.17172 0.67847 -0.42687
 H214 H -0.19063 0.66829 -0.11371
 H215 H -0.08502 0.55807 -0.04674
 H216 H -0.03870 0.59029 -0.31415
 H217 H -0.13074 0.63726 -0.40876
 H218 H -0.08377 0.62266 -0.36223
 C219 C 0.36690 1.13081 0.24953
 C220 C 0.36051 1.14294 0.15350
 C221 C 0.33670 1.16603 0.13885
 C222 C 0.31905 1.17688 0.21923
 C223 C 0.32545 1.16318 0.31328
 N224 N 0.34890 1.14101 0.32581
 C225 C 0.39324 1.10841 0.27223
 N226 N 0.39371 1.09167 0.36109
 C227 C 0.41820 1.07330 0.39229
 C228 C 0.44471 1.07174 0.33379
 C229 C 0.44447 1.08794 0.24066
 C230 C 0.41888 1.10626 0.20960
 H231 H 0.33232 1.17562 0.06480
 H232 H 0.31226 1.17052 0.37728
 H233 H 0.41749 1.06147 0.46503
 H234 H 0.46440 1.08721 0.19298
 H235 H 0.37358 1.13489 0.09012
 H236 H 0.42000 1.11974 0.13949
 C237 C 1.13748 -0.14267 -0.11369
 C238 C 1.15430 -0.15490 -0.03242
 C239 C 1.17973 -0.17549 -0.04809
 C240 C 1.18853 -0.18419 -0.14451
 C241 C 1.17139 -0.17081 -0.22374
 N242 N 1.14661 -0.15101 -0.20642
 C243 C 1.10921 -0.12244 -0.10220
 N244 N 1.08885 -0.12156 -0.17790
 C245 C 1.06220 -0.10401 -0.17340
 C246 C 1.05470 -0.08564 -0.08890
 C247 C 1.07546 -0.08586 -0.01024
 C248 C 1.10271 -0.10410 -0.01660
 H249 H 1.19201 -0.18520 0.01567
 H250 H 1.17712 -0.17665 -0.29947
 H251 H 1.04709 -0.10407 -0.23640
 H252 H 1.07054 -0.07216 0.05655
 H253 H 1.14749 -0.14974 0.04272
 H254 H 1.11849 -0.10331 0.04444
 C255 C 0.63462 0.35612 0.37333
 C256 C 0.66108 0.36056 0.42961
 C257 C 0.68626 0.33946 0.41434
 C258 C 0.68527 0.31486 0.34114
 C259 C 0.65854 0.31170 0.28549
 N260 N 0.63405 0.33179 0.30368
 C261 C 0.60705 0.37666 0.38925
 N262 N 0.57940 0.36113 0.39410
 C263 C 0.55290 0.37864 0.40464
 C264 C 0.55310 0.41419 0.40771
 C265 C 0.58162 0.43057 0.40267
 C266 C 0.60858 0.41189 0.39475
 H267 H 0.70650 0.34244 0.45895
 H268 H 0.65684 0.29265 0.22938
 H269 H 0.53182 0.36458 0.41083
 H270 H 0.58319 0.45786 0.40226
 H271 H 0.66194 0.37954 0.48618
 H272 H 0.63030 0.42487 0.38940
 C273 C 0.86275 -0.13768 -0.19796
 C274 C 0.84290 -0.14843 -0.12175
 C275 C 0.81971 -0.17137 -0.14195
 C276 C 0.81610 -0.18367 -0.23778
 C277 C 0.83617 -0.17198 -0.31214
 N278 N 0.85882 -0.14990 -0.29044
 C279 C 0.88915 -0.11540 -0.17906
 N280 N 0.91427 -0.11764 -0.23840
 C281 C 0.94015 -0.09974 -0.22193
 C282 C 0.94189 -0.07807 -0.14111
 C283 C 0.91584 -0.07433 -0.08134
 C284 C 0.88946 -0.09283 -0.10011
 H285 H 0.80485 -0.17981 -0.08221
 H286 H 0.83431 -0.18091 -0.38699
 H287 H 0.95953 -0.10289 -0.27097
 H288 H 0.91619 -0.05800 -0.01801
 H289 H 0.84576 -0.14025 -0.04655
 H290 H 0.86973 -0.08956 -0.05274
 C291 C 0.36193 0.36460 0.28253
 C292 C 0.34166 0.35377 0.35746
 C293 C 0.31905 0.33027 0.33634
 C294 C 0.31644 0.31736 0.24089
 C295 C 0.33688 0.32910 0.16770
 N296 N 0.35895 0.35182 0.19028
 C297 C 0.38789 0.38738 0.30307
 N298 N 0.41326 0.38591 0.24461
 C299 C 0.43897 0.40383 0.26373
 C300 C 0.44034 0.42447 0.34698
 C301 C 0.41393 0.42762 0.40542
 C302 C 0.38769 0.40935 0.38351
 H303 H 0.30389 0.32183 0.39529
 H304 H 0.33577 0.31975 0.09317
 H305 H 0.45853 0.40128 0.21518
 H306 H 0.41389 0.44315 0.47047
 H307 H 0.34373 0.36226 0.43259
 H308 H 0.36775 0.41216 0.43018
 C309 C 0.13397 0.64414 -0.14288
 C310 C 0.13544 0.66779 -0.22104
 C311 C 0.16161 0.68730 -0.23409
 C312 C 0.18606 0.68377 -0.16823
 C313 C 0.18389 0.65944 -0.09163
 N314 N 0.15825 0.64024 -0.08130
 C315 C 0.10601 0.62432 -0.12577
 N316 N 0.10760 0.59009 -0.11605
 C317 C 0.08213 0.57068 -0.10519
 C318 C 0.05295 0.58573 -0.10302
 C319 C 0.05121 0.62119 -0.10938
 C320 C 0.07757 0.64043 -0.12194
 H321 H 0.16231 0.70594 -0.29370
 H322 H 0.20240 0.65592 -0.03976
 H323 H 0.08475 0.54350 -0.10121
 H324 H 0.02953 0.63423 -0.10454
 H325 H 0.11645 0.67117 -0.27123
 H326 H 0.07583 0.66771 -0.12801
 C327 C 0.63869 1.13839 0.36309
 C328 C 0.65893 1.14342 0.44101
 C329 C 0.68370 1.16518 0.42706
 C330 C 0.68869 1.18128 0.33470
 C331 C 0.66832 1.17428 0.25757
 N332 N 0.64386 1.15383 0.27408
 C333 C 0.61086 1.11844 0.37797
 N334 N 0.58333 1.13431 0.37519
 C335 C 0.55665 1.11726 0.38746
 C336 C 0.55665 1.08191 0.40142
 C337 C 0.58508 1.06520 0.40414
 C338 C 0.61220 1.08346 0.39361
 H339 H 0.69873 1.16958 0.48880
 H340 H 0.67104 1.18603 0.18516
 H341 H 0.53558 1.13155 0.38719
 H342 H 0.58645 1.03799 0.41258
 H343 H 0.65499 1.13150 0.51266
 H344 H 0.63396 1.07039 0.39543
 C345 C 0.13827 0.35508 0.12201
 C346 C 0.16483 0.36073 0.06561
 C347 C 0.19013 0.33962 0.07978
 C348 C 0.18914 0.31370 0.15181
 C349 C 0.16237 0.30945 0.20804
 N350 N 0.13777 0.32963 0.19092
 C351 C 0.11037 0.37518 0.10580
 N352 N 0.08294 0.35916 0.10527
 C353 C 0.05618 0.37610 0.09309
 C354 C 0.05589 0.41157 0.08311
 C355 C 0.08414 0.42851 0.08397
 C356 C 0.11137 0.41039 0.09407
 H357 H 0.21038 0.34350 0.03469
 H358 H 0.16064 0.28940 0.26334
 H359 H 0.03529 0.36164 0.09061
 H360 H 0.08527 0.45580 0.07907
 H361 H 0.16566 0.38053 0.00933
 H362 H 0.13288 0.42382 0.09584
 C363 C 0.63451 0.85343 0.65924
 C364 C 0.63588 0.83010 0.73821
 C365 C 0.66213 0.81072 0.75181
 C366 C 0.68680 0.81409 0.68583
 C367 C 0.68476 0.83818 0.60860
 N368 N 0.65902 0.85722 0.59764
 C369 C 0.60645 0.87300 0.64104
 N370 N 0.60794 0.90705 0.62623
 C371 C 0.58243 0.92628 0.61298
 C372 C 0.55331 0.91121 0.61334
 C373 C 0.55166 0.87588 0.62522
 C374 C 0.57806 0.85684 0.64021
 H375 H 0.66271 0.79226 0.81190
 H376 H 0.70342 0.84159 0.55659
 H377 H 0.58497 0.95337 0.60478
 H378 H 0.53003 0.86277 0.62256
 H379 H 0.61674 0.82682 0.78855
 H380 H 0.57637 0.82968 0.65015
 C381 C 0.86477 0.13716 0.21590
 C382 C 0.85818 0.14677 0.31321
 C383 C 0.83382 0.16868 0.33113
 C384 C 0.81583 0.18089 0.25269
 C385 C 0.82242 0.16959 0.15713
 N386 N 0.84641 0.14847 0.14140
 C387 C 0.89172 0.11622 0.19081
 N388 N 0.89194 0.09933 0.10396
 C389 C 0.91677 0.08186 0.07190
 C390 C 0.94378 0.08152 0.12719
 C391 C 0.94392 0.09822 0.21773
 C392 C 0.91802 0.11553 0.24983
 H393 H 0.82936 0.17641 0.40621
 H394 H 0.80895 0.17805 0.09456
 H395 H 0.91582 0.06952 0.00127
 H396 H 0.96428 0.09843 0.26276
 H397 H 0.87158 0.13763 0.37507
 H398 H 0.91926 0.12933 0.31789
 C399 C 0.36468 0.63623 0.72969
 C400 C 0.35764 0.64539 0.82704
 C401 C 0.33361 0.66779 0.84441
 C402 C 0.31642 0.68099 0.76536
 C403 C 0.32349 0.67022 0.66960
 N404 N 0.34713 0.64856 0.65446
 C405 C 0.39126 0.61458 0.70548
 N406 N 0.39157 0.59811 0.61797
 C407 C 0.41615 0.58010 0.58659
 C408 C 0.44286 0.57874 0.64331
 C409 C 0.44288 0.59493 0.73466
 C410 C 0.41721 0.61280 0.76607
 H411 H 0.32876 0.67509 0.91964
 H412 H 0.31065 0.67946 0.60653
 H413 H 0.41531 0.56823 0.51523
 H414 H 0.46302 0.59439 0.78074
 H415 H 0.37042 0.63549 0.88933
 H416 H 0.41837 0.62622 0.83482
   
