data_POSCAR
  _audit_creation_date              2014-09-24
  _audit_creation_method            'ToBaCCo'
  _symmetry_space_group_name_H-M    'P1'
  _symmetry_Int_Tables_number       1
  _symmetry_cell_setting            triclinic
  loop_
  _symmetry_equiv_pos_as_xyz
 x,y,z
_cell_length_a 47.7928
_cell_length_b 26.9670
_cell_length_c 19.0105
_cell_angle_alpha 89.746100
_cell_angle_beta 89.998000
_cell_angle_gamma 90.044900
loop_
  _atom_site_label
  _atom_site_type_symbol
  _atom_site_fract_x
  _atom_site_fract_y
  _atom_site_fract_z
O1 O 0.76604 0.19772 0.57042
 O2 O 0.71743 0.23987 0.43168
 O3 O 0.76640 0.19680 0.43304
 O4 O 0.71687 0.24092 0.56767
 O5 O 0.73769 0.31397 0.56677
 O6 O 0.78727 0.26968 0.43314
 O7 O 0.73843 0.31275 0.42974
 O8 O 0.78661 0.27099 0.56838
 Cu9 Cu 0.73966 0.21143 0.50092
 Cu10 Cu 0.76447 0.29923 0.49945
 C11 C 0.78495 0.22704 0.59226
 C12 C 0.71951 0.28369 0.40742
 C13 C 0.78561 0.22547 0.41060
 C14 C 0.71861 0.28525 0.58954
 O15 O 0.26073 0.68295 0.57366
 O16 O 0.21275 0.72564 0.43536
 O17 O 0.26204 0.68354 0.43654
 O18 O 0.21214 0.72712 0.57146
 O19 O 0.23372 0.79946 0.57316
 O20 O 0.28211 0.75728 0.43656
 O21 O 0.23290 0.79925 0.43588
 O22 O 0.28232 0.75518 0.57157
 Cu23 Cu 0.23486 0.69746 0.50420
 Cu24 Cu 0.25970 0.78523 0.50428
 C25 C 0.28015 0.71120 0.59545
 C26 C 0.21427 0.76988 0.41265
 C27 C 0.28088 0.71304 0.41434
 C28 C 0.21447 0.77093 0.59523
 O29 O 0.26505 0.30250 -0.56975
 O30 O 0.21618 0.25942 -0.43213
 O31 O 0.26436 0.30492 -0.43270
 O32 O 0.21605 0.25822 -0.56787
 O33 O 0.23792 0.18633 -0.56696
 O34 O 0.28602 0.23267 -0.43087
 O35 O 0.23778 0.18716 -0.42961
 O36 O 0.28660 0.23035 -0.56599
 Cu37 Cu 0.23831 0.28856 -0.50105
 Cu38 Cu 0.26411 0.20179 -0.49816
 C39 C 0.28462 0.27411 -0.59048
 C40 C 0.21853 0.21566 -0.40777
 C41 C 0.28364 0.27697 -0.40924
 C42 C 0.21841 0.21403 -0.59005
 O43 O -0.21765 0.74088 -0.42983
 O44 O -0.26565 0.69691 -0.56676
 O45 O -0.21666 0.73940 -0.56512
 O46 O -0.26686 0.69907 -0.42990
 O47 O -0.28657 0.77299 -0.43246
 O48 O -0.23756 0.81208 -0.57179
 O49 O -0.28662 0.76977 -0.56847
 O50 O -0.23703 0.81503 -0.43423
 Cu51 Cu -0.23977 0.71167 -0.49750
 Cu52 Cu -0.26391 0.79993 -0.50194
 C53 C -0.21867 0.78562 -0.40952
 C54 C -0.28456 0.72550 -0.59048
 C55 C -0.21837 0.78265 -0.59164
 C56 C -0.28544 0.72904 -0.40829
 O57 O -0.04034 0.91273 0.12909
 O58 O -0.07077 0.95994 0.06386
 C59 C -0.06539 0.92641 0.11127
 O60 O 0.04067 1.08747 0.12683
 O61 O 0.07076 1.03859 0.06369
 C62 C 0.06567 1.07296 0.10942
 O63 O -0.03777 1.08719 0.13218
 O64 O -0.06942 1.04348 0.06598
 C65 C -0.06315 1.07547 0.11441
 O66 O 0.03762 0.90536 0.12436
 O67 O 0.06929 0.95283 0.06344
 C68 C 0.06302 0.91789 0.10784
 Zr69 Zr -0.00092 0.93622 0.09149
 O70 O 0.00189 0.93687 0.20267
 O71 O -0.00500 0.85805 0.09233
 Zr72 Zr 0.00096 1.06129 0.09316
 O73 O 0.00376 1.05920 0.20429
 O74 O -0.00086 1.13973 0.09454
 O75 O -0.02510 0.99970 0.10594
 O76 O 0.02432 0.99752 0.10559
 O77 O 0.03845 0.90851 -0.11917
 O78 O 0.06973 0.95426 -0.05493
 C79 C 0.06378 0.92059 -0.10107
 O80 O -0.03741 1.08888 -0.12381
 O81 O -0.06929 1.04485 -0.05841
 C82 C -0.06287 1.07723 -0.10656
 O83 O 0.04097 1.08925 -0.11690
 O84 O 0.07097 1.03956 -0.05416
 C85 C 0.06594 1.07454 -0.09946
 O86 O -0.03976 0.91555 -0.12582
 O87 O -0.07041 0.96155 -0.06001
 C88 C -0.06485 0.92921 -0.10848
 Zr89 Zr -0.00051 0.93781 -0.08580
 O90 O 0.00269 0.93925 -0.19688
 O91 O -0.00460 0.85961 -0.08682
 Zr92 Zr 0.00120 1.06297 -0.08400
 O93 O 0.00439 1.06418 -0.19507
 O94 O -0.00072 1.14141 -0.08209
 Zr95 Zr -0.04183 1.00132 0.00323
 Zr96 Zr 0.04185 0.99769 0.00410
 O97 O 0.02463 0.99947 -0.09772
 O98 O -0.02467 1.00159 -0.09907
 O99 O 0.02415 0.92609 0.00301
 O100 O -0.02325 1.07216 0.00443
 O101 O -0.02523 0.92901 0.00239
 O102 O 0.02626 1.07080 0.00490
 H103 H 0.03690 0.99655 0.14700
 H104 H -0.03540 1.10192 0.00459
 H105 H 0.03727 0.99928 -0.13903
 H106 H -0.03812 0.90022 0.00171
 H107 H 0.01470 1.15228 0.06515
 H108 H 0.01556 1.15339 -0.05490
 H109 H -0.01128 1.04427 -0.21389
 H110 H -0.01293 0.95963 -0.21507
 H111 H 0.01107 0.84564 -0.05917
 H112 H 0.00938 0.84462 0.06025
 H113 H -0.01454 0.95507 0.22078
 H114 H -0.01255 1.04031 0.22199
 O115 O 0.46317 0.41013 0.13091
 O116 O 0.43110 0.45508 0.06754
 C117 C 0.43767 0.42251 0.11514
 O118 O 0.53922 0.59072 0.12333
 O119 O 0.56992 0.54487 0.05773
 C120 C 0.56437 0.57848 0.10426
 O121 O 0.46120 0.58351 0.13348
 O122 O 0.42996 0.53838 0.06830
 C123 C 0.43592 0.57032 0.11697
 O124 O 0.54133 0.40947 0.12018
 O125 O 0.57096 0.45910 0.05625
 C126 C 0.56618 0.42404 0.10163
 Zr127 Zr 0.50153 0.43633 0.08919
 O128 O 0.50560 0.43545 0.20010
 O129 O 0.49943 0.35791 0.08732
 Zr130 Zr 0.50011 0.56153 0.09125
 O131 O 0.50419 0.56031 0.20215
 O132 O 0.49613 0.63973 0.09206
 O133 O 0.47594 0.49784 0.10572
 O134 O 0.52522 0.49972 0.10175
 O135 O 0.53932 0.41251 -0.12433
 O136 O 0.57004 0.46071 -0.06199
 C137 C 0.56450 0.42671 -0.10794
 O138 O 0.45859 0.58656 -0.12284
 O139 O 0.42893 0.53932 -0.05540
 C140 C 0.43376 0.57217 -0.10395
 O141 O 0.53677 0.59378 -0.12100
 O142 O 0.56879 0.54627 -0.06138
 C143 C 0.56227 0.58115 -0.10560
 O144 O 0.46069 0.41348 -0.12590
 O145 O 0.42984 0.45628 -0.05651
 C146 C 0.43549 0.42508 -0.10632
 Zr147 Zr 0.49989 0.43823 -0.08784
 O148 O 0.50187 0.43906 -0.19909
 O149 O 0.49777 0.35978 -0.08765
 Zr150 Zr 0.49832 0.56344 -0.08584
 O151 O 0.50035 0.56409 -0.19712
 O152 O 0.49427 0.64162 -0.08443
 Zr153 Zr 0.45803 0.49829 0.00432
 Zr154 Zr 0.54172 0.50156 -0.00086
 O155 O 0.52326 0.50197 -0.10137
 O156 O 0.47397 0.49998 -0.09917
 O157 O 0.52590 0.42854 -0.00098
 O158 O 0.47469 0.57057 0.00436
 O159 O 0.47635 0.42735 0.00198
 O160 O 0.52416 0.57324 0.00132
 H161 H 0.53814 0.49976 0.14251
 H162 H 0.46177 0.59927 0.00550
 H163 H 0.53543 0.50296 -0.14356
 H164 H 0.46407 0.39773 0.00225
 H165 H 0.51167 0.65363 0.06381
 H166 H 0.50985 0.65494 -0.05594
 H167 H 0.48443 0.54428 -0.21479
 H168 H 0.48619 0.45974 -0.21627
 H169 H 0.51443 0.34722 -0.06240
 H170 H 0.51509 0.34596 0.05793
 H171 H 0.48984 0.45473 0.21968
 H172 H 0.48892 0.53939 0.22111
 C173 C 0.34827 0.32875 0.27438
 C174 C 0.32412 0.35759 0.28749
 C175 C 0.30279 0.33912 0.33133
 C176 C 0.30474 0.29140 0.36126
 C177 C 0.32800 0.26184 0.34414
 C178 C 0.34946 0.28022 0.30169
 C179 C 0.37153 0.35124 0.23198
 C180 C 0.39770 0.32798 0.22322
 C181 C 0.41902 0.35115 0.18513
 C182 C 0.41473 0.39773 0.15392
 C183 C 0.38869 0.42105 0.16185
 C184 C 0.36738 0.39875 0.20189
 C185 C 0.32143 0.40470 0.25685
 C186 C 0.34236 0.42438 0.21385
 H187 H 0.30280 0.42663 0.26598
 H188 H 0.33921 0.46079 0.19109
 H189 H 0.28478 0.36224 0.34244
 H190 H 0.33013 0.22461 0.36511
 H191 H 0.43895 0.33242 0.17992
 H192 H 0.38533 0.45736 0.13883
 H193 H 0.36681 0.25583 0.29110
 H194 H 0.40235 0.29242 0.24656
 C195 C -0.15554 0.83293 0.26792
 C196 C -0.18046 0.86050 0.27607
 C197 C -0.20141 0.84366 0.32232
 C198 C -0.19848 0.79824 0.35845
 C199 C -0.17467 0.76912 0.34511
 C200 C -0.15342 0.78632 0.30108
 C201 C -0.13241 0.85474 0.22457
 C202 C -0.10542 0.83403 0.22257
 C203 C -0.08406 0.85712 0.18486
 C204 C -0.08896 0.90126 0.14740
 C205 C -0.11602 0.92151 0.14739
 C206 C -0.13751 0.89936 0.18725
 C207 C -0.18432 0.90448 0.23770
 C208 C -0.16362 0.92261 0.19255
 H209 H -0.20372 0.92502 0.24225
 H210 H -0.16781 0.95620 0.16307
 H211 H -0.22002 0.86601 0.32992
 H212 H -0.17186 0.73348 0.37068
 H213 H -0.06347 0.84037 0.18563
 H214 H -0.12010 0.95553 0.11872
 H215 H -0.13552 0.76257 0.29379
 H216 H -0.10011 0.80086 0.25150
 C217 C 0.65521 0.66591 0.26400
 C218 C 0.64912 0.70941 0.30254
 C219 C 0.66930 0.72982 0.34767
 C220 C 0.69527 0.70650 0.35720
 C221 C 0.70123 0.66335 0.31919
 C222 C 0.68160 0.64343 0.27286
 C223 C 0.63280 0.64452 0.21794
 C224 C 0.63707 0.60257 0.17532
 C225 C 0.61505 0.58227 0.13674
 C226 C 0.58817 0.60303 0.13981
 C227 C 0.58400 0.64609 0.17968
 C228 C 0.60608 0.66712 0.21813
 C229 C 0.62262 0.73130 0.29776
 C230 C 0.60145 0.71025 0.25720
 H231 H 0.61792 0.76456 0.32731
 H232 H 0.58109 0.72792 0.25670
 H233 H 0.66434 0.76282 0.37757
 H234 H 0.72111 0.64463 0.32567
 H235 H 0.61898 0.54940 0.10580
 H236 H 0.56345 0.66305 0.18145
 H237 H 0.68728 0.60983 0.24588
 H238 H 0.65715 0.58462 0.17139
 C239 C 0.15795 1.15506 0.26972
 C240 C 0.15403 1.20230 0.30020
 C241 C 0.17477 1.22262 0.34379
 C242 C 0.19894 1.19537 0.36126
 C243 C 0.20244 1.14804 0.33178
 C244 C 0.18242 1.12835 0.28624
 C245 C 0.13520 1.13456 0.22397
 C246 C 0.13805 1.09001 0.18626
 C247 C 0.11574 1.07118 0.14730
 C248 C 0.08987 1.09573 0.14566
 C249 C 0.08719 1.14125 0.18054
 C250 C 0.10977 1.16118 0.21848
 C251 C 0.12894 1.22812 0.28940
 C252 C 0.10707 1.20753 0.25071
 H253 H 0.12583 1.26418 0.31309
 H254 H 0.08778 1.22835 0.24568
 H255 H 0.17135 1.25887 0.36672
 H256 H 0.22069 1.12581 0.34407
 H257 H 0.11862 1.03663 0.11959
 H258 H 0.06754 1.16125 0.17811
 H259 H 0.18615 1.09160 0.26617
 H260 H 0.15732 1.06921 0.18605
 C261 C 0.65654 0.34409 -0.26912
 C262 C 0.65109 0.30042 -0.30787
 C263 C 0.67183 0.28037 -0.35168
 C264 C 0.69779 0.30414 -0.35962
 C265 C 0.70308 0.34757 -0.32160
 C266 C 0.68286 0.36718 -0.27662
 C267 C 0.63365 0.36477 -0.22393
 C268 C 0.63735 0.40663 -0.18084
 C269 C 0.61506 0.42572 -0.14207
 C270 C 0.58841 0.40393 -0.14547
 C271 C 0.58474 0.36124 -0.18646
 C272 C 0.60714 0.34131 -0.22498
 C273 C 0.62470 0.27788 -0.30442
 C274 C 0.60310 0.29823 -0.26460
 H275 H 0.62048 0.24453 -0.33423
 H276 H 0.58290 0.27994 -0.26489
 H277 H 0.66736 0.24719 -0.38168
 H278 H 0.72291 0.36670 -0.32697
 H279 H 0.61868 0.45829 -0.11025
 H280 H 0.56439 0.34350 -0.18863
 H281 H 0.68808 0.40097 -0.24947
 H282 H 0.65722 0.42530 -0.17636
 C283 C 0.15419 0.83089 -0.25985
 C284 C 0.14766 0.78830 -0.30000
 C285 C 0.16784 0.76754 -0.34486
 C286 C 0.19426 0.78966 -0.35237
 C287 C 0.20068 0.83177 -0.31250
 C288 C 0.18106 0.85199 -0.26653
 C289 C 0.13180 0.85288 -0.21439
 C290 C 0.13643 0.89419 -0.17073
 C291 C 0.11450 0.91509 -0.13259
 C292 C 0.08733 0.89558 -0.13702
 C293 C 0.08274 0.85322 -0.17816
 C294 C 0.10472 0.83163 -0.21630
 C295 C 0.12076 0.76775 -0.29707
 C296 C 0.09967 0.78927 -0.25678
 H297 H 0.11572 0.73518 -0.32781
 H298 H 0.07903 0.77263 -0.25766
 H299 H 0.16255 0.73535 -0.37616
 H300 H 0.22094 0.84952 -0.31734
 H301 H 0.11878 0.94740 -0.10072
 H302 H 0.06195 0.83723 -0.18112
 H303 H 0.18715 0.88477 -0.23812
 H304 H 0.15675 0.91119 -0.16559
 C305 C 0.34093 0.65336 -0.26382
 C306 C 0.34479 0.70045 -0.29550
 C307 C 0.32393 0.72054 -0.33919
 C308 C 0.29971 0.69317 -0.35546
 C309 C 0.29621 0.64610 -0.32450
 C310 C 0.31634 0.62666 -0.27896
 C311 C 0.36385 0.63294 -0.21837
 C312 C 0.36117 0.58838 -0.17998
 C313 C 0.38364 0.56963 -0.14132
 C314 C 0.40946 0.59433 -0.14060
 C315 C 0.41200 0.63979 -0.17631
 C316 C 0.38931 0.65960 -0.21403
 C317 C 0.36994 0.72630 -0.28583
 C318 C 0.39192 0.70586 -0.24719
 H319 H 0.37301 0.76225 -0.31036
 H320 H 0.41125 0.72669 -0.24302
 H321 H 0.32731 0.75661 -0.36320
 H322 H 0.27790 0.62380 -0.33574
 H323 H 0.38094 0.53508 -0.11307
 H324 H 0.43164 0.65991 -0.17458
 H325 H 0.31260 0.59007 -0.25784
 H326 H 0.34192 0.56749 -0.17898
 C327 C -0.15096 1.17294 -0.26808
 C328 C -0.17724 1.14878 -0.27068
 C329 C -0.19838 1.16680 -0.31553
 C330 C -0.19394 1.20961 -0.35640
 C331 C -0.16845 1.23501 -0.35034
 C332 C -0.14722 1.21698 -0.30705
 C333 C -0.12816 1.15035 -0.22436
 C334 C -0.10051 1.16835 -0.22500
 C335 C -0.07968 1.14486 -0.18599
 C336 C -0.08575 1.10297 -0.14464
 C337 C -0.11340 1.08531 -0.14234
 C338 C -0.13445 1.10799 -0.18303
 C339 C -0.18218 1.10691 -0.22852
 C340 C -0.16143 1.08764 -0.18450
 H341 H -0.20244 1.08884 -0.22937
 H342 H -0.16640 1.05555 -0.15240
 H343 H -0.21822 1.14743 -0.31881
 H344 H -0.16454 1.26836 -0.38078
 H345 H -0.05860 1.15955 -0.18872
 H346 H -0.11840 1.05301 -0.11069
 H347 H -0.12805 1.23804 -0.30516
 H348 H -0.09430 1.19979 -0.25656
 C349 C 0.65074 0.67611 -0.26647
 C350 C 0.67553 0.64836 -0.27668
 C351 C 0.69658 0.66633 -0.32167
 C352 C 0.69352 0.71209 -0.35634
 C353 C 0.66951 0.74053 -0.34354
 C354 C 0.64839 0.72289 -0.29930
 C355 C 0.62793 0.65401 -0.22209
 C356 C 0.60154 0.67656 -0.21379
 C357 C 0.58048 0.65324 -0.17497
 C358 C 0.58524 0.60720 -0.14259
 C359 C 0.61165 0.58498 -0.14904
 C360 C 0.63276 0.60749 -0.18947
 C361 C 0.67905 0.60262 -0.24261
 C362 C 0.65826 0.58289 -0.19931
 H363 H 0.69814 0.58158 -0.24984
 H364 H 0.66193 0.54721 -0.17452
 H365 H 0.71522 0.64430 -0.33037
 H366 H 0.66667 0.77613 -0.36918
 H367 H 0.56030 0.67124 -0.17071
 H368 H 0.61547 0.54916 -0.12487
 H369 H 0.63034 0.74628 -0.29211
 H370 H 0.59648 0.71161 -0.23808
 C371 C 0.15780 1.15796 -0.26110
 C372 C 0.15233 1.20206 -0.29938
 C373 C 0.17267 1.22170 -0.34497
 C374 C 0.19824 1.19721 -0.35503
 C375 C 0.20364 1.15356 -0.31706
 C376 C 0.18382 1.13428 -0.27042
 C377 C 0.13517 1.13739 -0.21467
 C378 C 0.13876 1.09463 -0.17273
 C379 C 0.11651 1.07529 -0.13369
 C380 C 0.09008 1.09787 -0.13556
 C381 C 0.08662 1.14164 -0.17484
 C382 C 0.10891 1.16164 -0.21385
 C383 C 0.12627 1.22544 -0.29378
 C384 C 0.10493 1.20537 -0.25257
 H385 H 0.12206 1.25918 -0.32309
 H386 H 0.08493 1.22425 -0.25135
 H387 H 0.16813 1.25516 -0.37467
 H388 H 0.22322 1.13392 -0.32386
 H389 H 0.11989 1.04176 -0.10334
 H390 H 0.06643 1.15996 -0.17580
 H391 H 0.18907 1.10027 -0.24347
 H392 H 0.15845 1.07527 -0.16976
 C393 C 0.34463 0.33801 -0.26708
 C394 C 0.35127 0.29665 -0.30955
 C395 C 0.33085 0.27571 -0.35337
 C396 C 0.30406 0.29663 -0.35814
 C397 C 0.29760 0.33806 -0.31695
 C398 C 0.31750 0.35832 -0.27152
 C399 C 0.36719 0.35960 -0.22168
 C400 C 0.36236 0.39842 -0.17380
 C401 C 0.38439 0.41864 -0.13500
 C402 C 0.41183 0.40125 -0.14359
 C403 C 0.41662 0.36125 -0.18908
 C404 C 0.39456 0.33999 -0.22722
 C405 C 0.37850 0.27752 -0.31004
 C406 C 0.39978 0.29926 -0.27071
 H407 H 0.38362 0.24601 -0.34281
 H408 H 0.42067 0.28383 -0.27427
 H409 H 0.33621 0.24428 -0.38611
 H410 H 0.27709 0.35501 -0.32009
 H411 H 0.37990 0.44841 -0.09879
 H412 H 0.43758 0.34651 -0.19495
 H413 H 0.31145 0.39052 -0.24174
 H414 H 0.34176 0.41359 -0.16538
 C415 C -0.15449 0.83917 -0.26981
 C416 C -0.17868 0.86815 -0.28232
 C417 C -0.19988 0.85041 -0.32707
 C418 C -0.19756 0.80354 -0.35854
 C419 C -0.17417 0.77407 -0.34307
 C420 C -0.15294 0.79151 -0.29948
 C421 C -0.13146 0.86067 -0.22595
 C422 C -0.10552 0.83681 -0.21665
 C423 C -0.08427 0.85910 -0.17785
 C424 C -0.08829 0.90550 -0.14644
 C425 C -0.11423 0.92930 -0.15416
 C426 C -0.13558 0.90773 -0.19489
 C427 C -0.18148 0.91459 -0.25027
 C428 C -0.16059 0.93356 -0.20661
 H429 H -0.20012 0.93662 -0.25901
 H430 H -0.16380 0.96954 -0.18299
 H431 H -0.21807 0.87323 -0.33774
 H432 H -0.17189 0.73760 -0.36601
 H433 H -0.06450 0.83982 -0.17255
 H434 H -0.11744 0.96535 -0.13067
 H435 H -0.13549 0.76706 -0.29004
 H436 H -0.10090 0.80144 -0.24010
 C437 C 0.34642 0.66033 0.27884
 C438 C 0.32016 0.63604 0.27934
 C439 C 0.29855 0.65334 0.32319
 C440 C 0.30253 0.69572 0.36470
 C441 C 0.32806 0.72122 0.36067
 C442 C 0.34973 0.70382 0.31863
 C443 C 0.36963 0.63869 0.23596
 C444 C 0.39724 0.65673 0.23897
 C445 C 0.41840 0.63459 0.19988
 C446 C 0.41274 0.59398 0.15621
 C447 C 0.38517 0.57601 0.15207
 C448 C 0.36376 0.59737 0.19275
 C449 C 0.31567 0.59499 0.23578
 C450 C 0.33681 0.57685 0.19215
 H451 H 0.29543 0.57685 0.23495
 H452 H 0.33214 0.54556 0.15862
 H453 H 0.27868 0.63396 0.32489
 H454 H 0.33162 0.75424 0.39168
 H455 H 0.43938 0.64945 0.20425
 H456 H 0.38048 0.54467 0.11863
 H457 H 0.36885 0.72505 0.31816
 H458 H 0.40315 0.68722 0.27230
 C459 C -0.15171 1.17059 0.27353
 C460 C -0.17586 1.14194 0.28787
 C461 C -0.19675 1.16038 0.33275
 C462 C -0.19446 1.20803 0.36220
 C463 C -0.17125 1.23748 0.34382
 C464 C -0.15013 1.21903 0.30056
 C465 C -0.12884 1.14797 0.23025
 C466 C -0.10259 1.17083 0.22068
 C467 C -0.08154 1.14731 0.18250
 C468 C -0.08615 1.10078 0.15190
 C469 C -0.11236 1.07804 0.16005
 C470 C -0.13342 1.10066 0.20041
 C471 C -0.17904 1.09511 0.25724
 C472 C -0.15854 1.07545 0.21324
 H473 H -0.19772 1.07339 0.26716
 H474 H -0.16208 1.03932 0.19050
 H475 H -0.21478 1.13739 0.34471
 H476 H -0.16888 1.27465 0.36441
 H477 H -0.06149 1.16569 0.17698
 H478 H -0.11600 1.04186 0.13738
 H479 H -0.13277 1.24329 0.28902
 H480 H -0.09763 1.20624 0.24368
 C481 C 0.65865 0.34040 0.26049
 C482 C 0.65324 0.29643 0.29919
 C483 C 0.67366 0.27701 0.34467
 C484 C 0.69924 0.30165 0.35434
 C485 C 0.70459 0.34515 0.31592
 C486 C 0.68469 0.36417 0.26929
 C487 C 0.63589 0.36085 0.21440
 C488 C 0.63939 0.40345 0.17205
 C489 C 0.61700 0.42283 0.13363
 C490 C 0.59050 0.40047 0.13658
 C491 C 0.58714 0.35675 0.17608
 C492 C 0.60958 0.33671 0.21444
 C493 C 0.62714 0.27306 0.29424
 C494 C 0.60568 0.29307 0.25345
 H495 H 0.62298 0.23941 0.32386
 H496 H 0.58564 0.27425 0.25284
 H497 H 0.66916 0.24369 0.37476
 H498 H 0.72415 0.36489 0.32243
 H499 H 0.62032 0.45625 0.10298
 H500 H 0.56691 0.33856 0.17781
 H501 H 0.68988 0.39810 0.24204
 H502 H 0.65914 0.42266 0.16833
 C503 C 0.15124 0.82323 0.26912
 C504 C 0.17587 0.85128 0.28056
 C505 C 0.19667 0.83345 0.32645
 C506 C 0.19351 0.78746 0.36045
 C507 C 0.16968 0.75878 0.34627
 C508 C 0.14883 0.77631 0.30137
 C509 C 0.12863 0.84509 0.22404
 C510 C 0.10230 0.82237 0.21525
 C511 C 0.08132 0.84558 0.17619
 C512 C 0.08611 0.89165 0.14393
 C513 C 0.11254 0.91387 0.15043
 C514 C 0.13354 0.89159 0.19146
 C515 C 0.17947 0.89706 0.24659
 C516 C 0.15892 0.91646 0.20224
 H517 H 0.19844 0.91834 0.25463
 H518 H 0.16265 0.95217 0.17754
 H519 H 0.21519 0.85562 0.33617
 H520 H 0.16677 0.72297 0.37126
 H521 H 0.06114 0.82756 0.17187
 H522 H 0.11641 0.94956 0.12606
 H523 H 0.13096 0.75262 0.29308
 H524 H 0.09715 0.78736 0.23959
   
