data_POSCAR
  _audit_creation_date              2014-09-24
  _audit_creation_method            'ToBaCCo'
  _symmetry_space_group_name_H-M    'P1'
  _symmetry_Int_Tables_number       1
  _symmetry_cell_setting            triclinic
  loop_
  _symmetry_equiv_pos_as_xyz
 x,y,z
_cell_length_a 33.9158
_cell_length_b 33.3888
_cell_length_c 34.6938
_cell_angle_alpha 90.616900
_cell_angle_beta 88.733700
_cell_angle_gamma 87.830700
loop_
  _atom_site_label
  _atom_site_type_symbol
  _atom_site_fract_x
  _atom_site_fract_y
  _atom_site_fract_z
C1 C 0.76788 0.62500 1.01337
 C2 C 0.74724 0.37801 0.51268
 C3 C 0.25868 -0.14719 -0.02625
 C4 C 0.27013 0.10370 0.49147
 C5 C 0.11817 0.50800 0.25567
 C6 C -0.12748 0.02541 0.26512
 C7 C 0.36635 0.50068 0.74669
 C8 C 0.63516 1.00293 0.77059
 C9 C 0.01222 0.23904 -0.13003
 C10 C 0.49228 0.25163 0.11635
 C11 C 0.98022 0.75146 0.60336
 C12 C 0.48299 0.74930 0.36882
 C13 C 0.40036 -0.04322 0.28210
 H14 H 0.39116 -0.01675 0.29868
 C15 C 0.41923 -0.07551 0.30035
 H16 H 0.42439 -0.07385 0.33102
 C17 C 0.40207 -0.07906 0.22271
 H18 H 0.39411 -0.08096 0.19279
 C19 C 0.42192 -0.11167 0.23964
 H20 H 0.42894 -0.13851 0.22265
 N21 N 0.39098 -0.04601 0.24424
 C22 C 0.36610 0.06561 0.18497
 H23 H 0.33663 0.05960 0.17573
 C24 C 0.38442 0.09973 0.17216
 H25 H 0.36882 0.11998 0.15313
 C26 C 0.42174 0.04684 0.22183
 H27 H 0.43602 0.02598 0.24118
 C28 C 0.44113 0.08106 0.20991
 H29 H 0.47059 0.08628 0.21977
 Zn30 Zn 0.35647 -0.00542 0.22405
 N31 N 0.38491 0.03984 0.20913
 C32 C 0.31623 0.05059 0.27247
 N33 N 0.31962 0.01081 0.26358
 C34 C 0.30446 -0.01708 0.28751
 C35 C 0.28894 -0.00552 0.32388
 C36 C 0.30101 0.06334 0.30825
 C37 C 0.35507 -0.02503 0.14717
 C38 C 0.34103 -0.03852 0.11227
 C39 C 0.27882 -0.05177 0.14396
 C40 C 0.29399 -0.03715 0.17854
 N41 N 0.33181 -0.02488 0.17950
 H42 H 0.32842 0.07240 0.25337
 H43 H 0.30803 -0.04857 0.28003
 H44 H 0.28042 -0.02818 0.34421
 H45 H 0.30153 0.09481 0.31613
 H46 H 0.38489 -0.01480 0.14861
 H47 H 0.36037 -0.03825 0.08703
 H48 H 0.24930 -0.06301 0.14385
 H49 H 0.27593 -0.03642 0.20464
 C50 C 0.42250 0.10760 0.18436
 C51 C 0.42945 -0.11052 0.27918
 C52 C 0.30283 -0.05320 0.11036
 C53 C 0.28934 0.03492 0.33515
 C54 C 0.07139 1.02777 0.76787
 H55 H 0.06188 0.99848 0.77624
 C56 C 0.05312 1.06212 0.78431
 H57 H 0.02927 1.05923 0.80527
 C58 C 0.11581 1.06720 0.73235
 H59 H 0.14096 1.06896 0.71289
 C60 C 0.09829 1.10240 0.74810
 H61 H 0.11051 1.13089 0.74097
 N62 N 0.10294 1.03085 0.74340
 C63 C 0.10266 0.90466 0.72559
 H64 H 0.12717 0.89639 0.74351
 C65 C 0.07838 0.87493 0.71216
 H66 H 0.08505 0.84404 0.71957
 C67 C 0.06540 0.95452 0.69277
 H68 H 0.06083 0.98562 0.68503
 C69 C 0.04024 0.92581 0.67891
 H70 H 0.01602 0.93524 0.66092
 Zn71 Zn 0.13184 0.98326 0.72934
 N72 N 0.09633 0.94347 0.71507
 C73 C 0.19013 0.93635 0.76662
 N74 N 0.16208 0.96618 0.77188
 C75 C 0.15509 0.98349 0.80718
 C76 C 0.17447 0.96879 0.83943
 C77 C 0.21037 0.92082 0.79808
 C78 C 0.15572 0.98387 0.65088
 C79 C 0.17908 0.99496 0.61948
 C80 C 0.22455 1.02342 0.66390
 C81 C 0.20017 1.01205 0.69443
 N82 N 0.16611 0.99340 0.68739
 H83 H 0.19596 0.92385 0.73807
 H84 H 0.13355 1.00790 0.81080
 H85 H 0.16685 0.98168 0.86750
 H86 H 0.23196 0.89647 0.79331
 H87 H 0.12861 0.96891 0.64590
 H88 H 0.16921 0.98889 0.59061
 H89 H 0.25122 1.03889 0.67003
 H90 H 0.20779 1.01909 0.72378
 C91 C 0.04703 0.88524 0.68795
 C92 C 0.06726 1.09987 0.77517
 C93 C 0.21357 1.01582 0.62576
 C94 C 0.20158 0.93613 0.83536
 C95 C 0.57291 0.53106 0.29701
 H96 H 0.57211 0.50265 0.31163
 C97 C 0.54995 0.56383 0.31112
 H98 H 0.53101 0.55992 0.33615
 C99 C 0.59837 0.57020 0.24640
 H100 H 0.61727 0.57267 0.22116
 C101 C 0.57619 0.60389 0.25980
 H102 H 0.57905 0.63204 0.24501
 N103 N 0.59714 0.53494 0.26565
 C104 C 0.62390 0.41247 0.22454
 H105 H 0.65553 0.41101 0.22811
 C106 C 0.60504 0.37927 0.21003
 H107 H 0.62300 0.35315 0.20207
 C108 C 0.56323 0.44970 0.22985
 H109 H 0.54706 0.47722 0.23763
 C110 C 0.54309 0.41695 0.21602
 H111 H 0.51132 0.41979 0.21407
 Zn112 Zn 0.63182 0.49073 0.25190
 N113 N 0.60303 0.44704 0.23340
 C114 C 0.64005 0.44251 0.31617
 N115 N 0.65721 0.47336 0.29771
 C116 C 0.68801 0.49216 0.31359
 C117 C 0.70322 0.47925 0.34881
 C118 C 0.65425 0.42876 0.35114
 C119 C 0.66565 0.48886 0.17640
 C120 C 0.68597 0.50411 0.14469
 C121 C 0.71177 0.55453 0.18646
 C122 C 0.69107 0.53820 0.21747
 N123 N 0.66772 0.50647 0.21188
 H124 H 0.61447 0.42903 0.30433
 H125 H 0.70076 0.51725 0.29931
 H126 H 0.72805 0.49412 0.36084
 H127 H 0.63949 0.40470 0.36544
 H128 H 0.64631 0.46445 0.17182
 H129 H 0.68205 0.49088 0.11646
 H130 H 0.72896 0.58070 0.19137
 H131 H 0.69145 0.55282 0.24535
 C132 C 0.56404 0.38120 0.20494
 C133 C 0.55221 0.60125 0.29315
 C134 C 0.70826 0.53830 0.14919
 C135 C 0.68642 0.44689 0.36781
 C136 C 0.93646 0.45723 0.79557
 H137 H 0.93797 0.48574 0.81046
 C138 C 0.95529 0.42309 0.81061
 H139 H 0.97083 0.42601 0.83720
 C140 C 0.91037 0.41856 0.74525
 H141 H 0.89153 0.41629 0.72076
 C142 C 0.92945 0.38393 0.75875
 H143 H 0.92611 0.35596 0.74333
 N144 N 0.91386 0.45428 0.76390
 C145 C 0.88317 0.57331 0.72257
 H146 H 0.85224 0.57178 0.73053
 C147 C 0.89659 0.60698 0.70423
 H148 H 0.87563 0.63150 0.69912
 C149 C 0.94737 0.54269 0.72042
 H150 H 0.96665 0.51706 0.72636
 C151 C 0.96213 0.57596 0.70106
 H152 H 0.99292 0.57559 0.69215
 Zn153 Zn 0.88084 0.49903 0.75150
 N154 N 0.90835 0.54209 0.73039
 C155 C 0.86924 0.55118 0.81428
 N156 N 0.85503 0.51739 0.79834
 C157 C 0.82766 0.49595 0.81766
 C158 C 0.81299 0.50903 0.85408
 C159 C 0.85559 0.56514 0.85023
 C160 C 0.86690 0.47658 0.67768
 C161 C 0.84713 0.46585 0.64469
 C162 C 0.78562 0.47310 0.68094
 C163 C 0.80682 0.48344 0.71366
 N164 N 0.84686 0.48444 0.71145
 H165 H 0.89229 0.56697 0.79971
 H166 H 0.81779 0.46833 0.80523
 H167 H 0.79156 0.49139 0.86916
 H168 H 0.86738 0.59238 0.86169
 H169 H 0.89871 0.47810 0.67661
 H170 H 0.86432 0.45826 0.61882
 H171 H 0.75376 0.47244 0.68303
 H172 H 0.79135 0.49077 0.74053
 C173 C 0.93633 0.60852 0.69224
 C174 C 0.95143 0.38556 0.79252
 C175 C 0.80589 0.46394 0.64582
 C176 C 0.82721 0.54407 0.87095
 C177 C 0.28395 0.44292 -0.04117
 H178 H 0.29738 0.44569 -0.01339
 C179 C 0.29976 0.46289 -0.07279
 H180 H 0.32458 0.48181 -0.06866
 C181 C 0.23740 0.41264 -0.08095
 H182 H 0.21438 0.39175 -0.08482
 C183 C 0.25211 0.43209 -0.11317
 H184 H 0.23982 0.42584 -0.14105
 N185 N 0.25354 0.41802 -0.04579
 C186 C 0.17969 0.40336 0.05317
 H187 H 0.16646 0.37710 0.04156
 C188 C 0.16333 0.42101 0.08658
 H189 H 0.13736 0.40841 0.09966
 C190 C 0.23128 0.44928 0.05258
 H191 H 0.25836 0.45949 0.03988
 C192 C 0.21627 0.46737 0.08667
 H193 H 0.23155 0.49187 0.09956
 Zn194 Zn 0.23756 0.38601 -0.00383
 N195 N 0.21332 0.41728 0.03696
 C196 C 0.29161 0.36338 0.05276
 N197 N 0.28289 0.35870 0.01500
 C198 C 0.30639 0.33540 -0.00913
 C199 C 0.33964 0.31472 0.00491
 C200 C 0.32489 0.34417 0.06770
 C201 C 0.16605 0.36414 -0.03428
 C202 C 0.13792 0.33891 -0.04840
 C203 C 0.18097 0.28195 -0.03383
 C204 C 0.20854 0.30839 -0.02006
 N205 N 0.20084 0.34870 -0.02105
 H206 H 0.27279 0.38200 0.07157
 H207 H 0.29893 0.33243 -0.03916
 H208 H 0.35734 0.29541 -0.01446
 H209 H 0.33145 0.34956 0.09764
 H210 H 0.16051 0.39626 -0.03433
 H211 H 0.11081 0.35159 -0.05986
 H212 H 0.18740 0.24994 -0.03363
 H213 H 0.23602 0.29667 -0.00883
 C214 C 0.18218 0.45274 0.10427
 C215 C 0.28442 0.45674 -0.10958
 C216 C 0.14538 0.29744 -0.04817
 C217 C 0.34914 0.31875 0.04398
 C218 C 0.78220 0.07301 1.05621
 H219 H 0.78580 0.05521 1.03007
 C220 C 0.79409 0.05668 1.09141
 H221 H 0.80650 0.02635 1.09192
 C222 C 0.76507 0.13506 1.08686
 H223 H 0.75484 0.16584 1.08528
 C224 C 0.77630 0.12000 1.12240
 H225 H 0.77368 0.13948 1.14756
 N226 N 0.76833 0.11181 1.05446
 C227 C 0.76303 0.10873 0.92978
 H228 H 0.78039 0.13480 0.92514
 C229 C 0.75085 0.08667 0.89801
 H230 H 0.75909 0.09611 0.86929
 C231 C 0.72795 0.06744 0.97260
 H232 H 0.71767 0.06120 1.00157
 C233 C 0.71530 0.04446 0.94170
 H234 H 0.69618 0.01988 0.94742
 Zn235 Zn 0.75834 0.13739 1.00623
 N236 N 0.75070 0.09944 0.96610
 C237 C 0.80180 0.20236 0.97553
 N238 N 0.80324 0.16593 0.99279
 C239 C 0.83795 0.14521 0.99755
 C240 C 0.87301 0.16015 0.98348
 C241 C 0.83646 0.21842 0.96059
 C242 C 0.67903 0.15950 0.99308
 C243 C 0.64249 0.17820 1.00185
 C244 C 0.67473 0.22430 1.04368
 C245 C 0.71093 0.20510 1.03348
 N246 N 0.71212 0.17171 1.01052
 H247 H 0.77365 0.21788 0.97151
 H248 H 0.83817 0.11613 1.01095
 H249 H 0.90019 0.14252 0.98668
 H250 H 0.83476 0.24633 0.94502
 H251 H 0.68031 0.13370 0.97408
 H252 H 0.61614 0.16630 0.98971
 H253 H 0.67411 0.24803 1.06508
 H254 H 0.73777 0.21556 1.04569
 C255 C 0.72556 0.05485 0.90367
 C256 C 0.79190 0.08062 1.12503
 C257 C 0.63981 0.20974 1.02887
 C258 C 0.87247 0.19651 0.96356
 C259 C 0.26346 0.54585 0.54618
 H260 H 0.26415 0.52663 0.52086
 C261 C 0.27542 0.53060 0.58167
 H262 H 0.28575 0.49961 0.58347
 C263 C 0.25140 0.61038 0.57427
 H264 H 0.24246 0.64156 0.57090
 C265 C 0.26289 0.59649 0.61004
 H266 H 0.26259 0.61720 0.63431
 N267 N 0.25260 0.58531 0.54319
 C268 C 0.25964 0.57427 0.42458
 H269 H 0.28447 0.59347 0.42504
 C270 C 0.25090 0.55493 0.39023
 H271 H 0.26816 0.56059 0.36434
 C272 C 0.20524 0.54564 0.45642
 H273 H 0.18708 0.54250 0.48199
 C274 C 0.19565 0.52533 0.42265
 H275 H 0.16937 0.50789 0.42216
 Zn276 Zn 0.24017 0.61009 0.49663
 N277 N 0.23521 0.57168 0.45606
 C278 C 0.27747 0.66806 0.45112
 N279 N 0.28173 0.64457 0.48266
 C280 C 0.31681 0.64143 0.50099
 C281 C 0.34989 0.66053 0.48634
 C282 C 0.30964 0.68777 0.43568
 C283 C 0.16005 0.61908 0.51887
 C284 C 0.12395 0.63895 0.52766
 C285 C 0.15288 0.70118 0.50979
 C286 C 0.18836 0.68005 0.50097
 N287 N 0.19131 0.63958 0.50529
 H288 H 0.24962 0.66952 0.43649
 H289 H 0.31991 0.62218 0.52567
 H290 H 0.37802 0.65583 0.50007
 H291 H 0.30567 0.70538 0.40995
 H292 H 0.16345 0.58746 0.52447
 H293 H 0.09986 0.62212 0.53933
 H294 H 0.15124 0.73343 0.50659
 H295 H 0.21370 0.69634 0.49179
 C296 C 0.21743 0.53185 0.38869
 C297 C 0.27604 0.55642 0.61390
 C298 C 0.12010 0.68060 0.52340
 C299 C 0.34688 0.68286 0.45240
 C300 C 0.76858 0.95471 0.46456
 H301 H 0.77883 0.95779 0.49371
 C302 C 0.78740 0.97472 0.43458
 H303 H 0.81135 0.99396 0.44129
 C304 C 0.72624 0.92433 0.42046
 H305 H 0.70369 0.90322 0.41470
 C306 C 0.74434 0.94359 0.38963
 H307 H 0.73500 0.93721 0.36063
 N308 N 0.73908 0.92950 0.45699
 C309 C 0.69669 0.89739 0.57221
 H310 H 0.69700 0.86531 0.56737
 C311 C 0.68963 0.91299 0.60926
 H312 H 0.68341 0.89278 0.63262
 C313 C 0.70517 0.96244 0.54738
 H314 H 0.71193 0.98143 0.52327
 C315 C 0.69783 0.97941 0.58406
 H316 H 0.69875 1.01159 0.58786
 Zn317 Zn 0.72235 0.89462 0.49645
 N318 N 0.70524 0.92197 0.54240
 C319 C 0.78849 0.87870 0.53890
 N320 N 0.76808 0.86301 0.50939
 C321 C 0.78274 0.83024 0.48925
 C322 C 0.81773 0.81031 0.50076
 C323 C 0.82341 0.86026 0.55086
 C324 C 0.64673 0.88764 0.46921
 C325 C 0.61361 0.86981 0.45437
 C326 C 0.64618 0.80518 0.46268
 C327 C 0.67880 0.82431 0.47734
 N328 N 0.67895 0.86498 0.47930
 H329 H 0.77814 0.90624 0.55296
 H330 H 0.76752 0.81958 0.46433
 H331 H 0.82849 0.78354 0.48541
 H332 H 0.83914 0.87392 0.57404
 H333 H 0.64722 0.91994 0.47182
 H334 H 0.58948 0.88921 0.44568
 H335 H 0.64687 0.77276 0.46153
 H336 H 0.70381 0.80657 0.48715
 C337 C 0.69084 0.95445 0.61573
 C338 C 0.77630 0.96814 0.39626
 C339 C 0.61316 0.82793 0.44989
 C340 C 0.83796 0.82499 0.53258
 C341 C -0.03030 0.31696 0.45708
 H342 H -0.00869 0.33851 0.44949
 C343 C -0.06527 0.33029 0.47581
 H344 H -0.07008 0.36188 0.48252
 C345 C -0.05250 0.25056 0.45474
 H346 H -0.04809 0.21980 0.44502
 C347 C -0.08807 0.26272 0.47318
 H348 H -0.11094 0.24132 0.47743
 N349 N -0.02523 0.27799 0.44546
 C350 C 0.09017 0.23379 0.40049
 H351 H 0.08528 0.23908 0.37022
 C352 C 0.12522 0.21481 0.41190
 H353 H 0.14651 0.20519 0.38990
 C354 C 0.06607 0.23741 0.46506
 H355 H 0.04257 0.24584 0.48548
 C356 C 0.10114 0.21912 0.47788
 H357 H 0.10449 0.21439 0.50845
 Zn358 Zn 0.01308 0.26326 0.40646
 N359 N 0.06104 0.24351 0.42682
 C360 C 0.04561 0.33798 0.39341
 N361 N 0.02444 0.30902 0.37650
 C362 C 0.01233 0.31273 0.33955
 C363 C 0.02038 0.34711 0.31864
 C364 C 0.05400 0.37301 0.37368
 C365 C 0.00897 0.18459 0.37497
 C366 C -0.00834 0.15310 0.35562
 C367 C -0.06191 0.19863 0.33857
 C368 C -0.04369 0.22924 0.35847
 N369 N -0.00868 0.22191 0.37595
 H370 H 0.05610 0.33379 0.42236
 H371 H -0.00345 0.28910 0.32606
 H372 H 0.01048 0.34957 0.28927
 H373 H 0.07121 0.39547 0.38753
 H374 H 0.03588 0.17862 0.39025
 H375 H 0.00581 0.12351 0.35621
 H376 H -0.08940 0.20540 0.32443
 H377 H -0.05785 0.25879 0.36056
 C378 C 0.13102 0.20656 0.45102
 C379 C -0.09525 0.30333 0.48226
 C380 C -0.04440 0.15979 0.33723
 C381 C 0.04128 0.37791 0.33578
 C382 C 1.05427 0.80961 0.07457
 H383 H 1.02950 0.83075 0.07377
 C384 C 1.08802 0.81650 0.05227
 H385 H 1.08861 0.84329 0.03501
 C386 C 1.08390 0.74991 0.09856
 H387 H 1.08217 0.72362 0.11626
 C388 C 1.11835 0.75565 0.07662
 H389 H 1.14262 0.73370 0.07769
 N390 N 1.05279 0.77698 0.09755
 C391 C 0.92890 0.75528 0.12376
 H392 H 0.92844 0.76569 0.15341
 C393 C 0.89544 0.73883 0.10858
 H394 H 0.86903 0.73714 0.12653
 C395 C 0.96477 0.74283 0.06512
 H396 H 0.99234 0.74340 0.04888
 C397 C 0.93153 0.72659 0.04847
 H398 H 0.93354 0.71478 0.01927
 Zn399 Zn 1.00748 0.77045 0.13045
 N400 N 0.96298 0.75583 0.10246
 C401 C 0.97609 0.84940 0.13622
 N402 N 0.99304 0.81930 0.15708
 C403 C 0.99609 0.82284 0.19600
 C404 C 0.98201 0.85770 0.21524
 C405 C 0.96198 0.88489 0.15424
 C406 C 0.99868 0.69399 0.16332
 C407 C 1.01054 0.66022 0.18400
 C408 C 1.06410 0.69744 0.20928
 C409 C 1.05092 0.73073 0.18848
 N410 N 1.01928 0.72819 0.16527
 H411 H 0.97191 0.84526 0.10568
 H412 H 1.00848 0.79833 0.21240
 H413 H 0.98427 0.85977 0.24628
 H414 H 0.94766 0.90793 0.13717
 H415 H 0.97421 0.69187 0.14417
 H416 H 0.99494 0.63274 0.18056
 H417 H 1.09025 0.69943 0.22643
 H418 H 1.06727 0.75792 0.18911
 C419 C 0.89676 0.72342 0.07083
 C420 C 1.12072 0.78933 0.05301
 C421 C 1.04434 0.66137 0.20635
 C422 C 0.96449 0.88924 0.19434
 C423 C 0.54282 0.27472 0.56970
 H424 H 0.51337 0.28290 0.56082
 C425 C 0.57497 0.29122 0.55086
 H426 H 0.56978 0.31203 0.52767
 C427 C 0.58543 0.23703 0.60988
 H428 H 0.58956 0.21602 0.63297
 C429 C 0.61849 0.25295 0.59186
 H430 H 0.64762 0.24451 0.60187
 N431 N 0.54841 0.24935 0.59967
 C432 C 0.42893 0.20922 0.61439
 H433 H 0.42320 0.21935 0.64377
 C434 C 0.39861 0.19376 0.59300
 H435 H 0.36952 0.19136 0.60607
 C436 C 0.47420 0.19919 0.56170
 H437 H 0.50379 0.20131 0.54984
 C438 C 0.44472 0.18322 0.53933
 H439 H 0.45158 0.17284 0.51018
 Zn440 Zn 0.50360 0.23492 0.62962
 N441 N 0.46574 0.21177 0.59847
 C442 C 0.46128 0.30829 0.62729
 N443 N 0.47916 0.28199 0.65166
 C444 C 0.47800 0.28864 0.69041
 C445 C 0.45975 0.32350 0.70579
 C446 C 0.44249 0.34344 0.64146
 C447 C 0.50592 0.16024 0.66697
 C448 C 0.51897 0.13171 0.69337
 C449 C 0.55758 0.18213 0.72349
 C450 C 0.54433 0.20949 0.69611
 N451 N 0.51907 0.19819 0.66844
 H452 H 0.46054 0.30152 0.59685
 H453 H 0.49081 0.26695 0.70968
 H454 H 0.45988 0.32853 0.73667
 H455 H 0.42780 0.36349 0.62163
 H456 H 0.48633 0.15158 0.64447
 H457 H 0.50958 0.10124 0.69033
 H458 H 0.57774 0.19182 0.74513
 H459 H 0.55494 0.23965 0.69639
 C460 C 0.40648 0.18084 0.55504
 C461 C 0.61333 0.28151 0.56286
 C462 C 0.54560 0.14235 0.72186
 C463 C 0.44173 0.35146 0.68119
 C464 C 0.47679 0.77748 0.90757
 H465 H 0.50287 0.79493 0.91004
 C466 C 0.44142 0.79105 0.92529
 H467 H 0.44084 0.81868 0.94197
 C468 C 0.44558 0.72126 0.88168
 H469 H 0.44710 0.69418 0.86432
 C470 C 0.40942 0.73394 0.89873
 H471 H 0.38372 0.71672 0.89361
 N472 N 0.47804 0.74378 0.88523
 C473 C 0.60023 0.69863 0.86975
 H474 H 0.60004 0.69087 0.83945
 C475 C 0.63350 0.68884 0.89106
 H476 H 0.65858 0.67363 0.87675
 C477 C 0.56659 0.72503 0.92550
 H478 H 0.54044 0.73886 0.93894
 C479 C 0.59932 0.71577 0.94796
 H480 H 0.59803 0.72283 0.97851
 Zn481 Zn 0.52456 0.73074 0.85520
 N482 N 0.56777 0.71684 0.88698
 C483 C 0.57434 0.77571 0.80747
 N484 N 0.53777 0.77533 0.82435
 C485 C 0.51226 0.80771 0.82226
 C486 C 0.52461 0.84338 0.80596
 C487 C 0.58799 0.81077 0.79133
 C488 C 0.52307 0.64911 0.83476
 C489 C 0.50578 0.61660 0.81720
 C490 C 0.47022 0.66293 0.77616
 C491 C 0.48872 0.69447 0.79394
 N492 N 0.51346 0.68709 0.82351
 H493 H 0.59388 0.74957 0.80828
 H494 H 0.48287 0.80659 0.83473
 H495 H 0.50501 0.86977 0.80687
 H496 H 0.61809 0.81139 0.78030
 H497 H 0.54161 0.64413 0.85931
 H498 H 0.51153 0.58664 0.82794
 H499 H 0.44841 0.66918 0.75447
 H500 H 0.48089 0.72505 0.78641
 C501 C 0.63348 0.69771 0.93067
 C502 C 0.40674 0.77007 0.91973
 C503 C 0.47781 0.62375 0.78881
 C504 C 0.56349 0.84548 0.79192
 C505 C 0.48989 -0.20138 0.31176
 C506 C 0.46690 -0.21715 0.34195
 C507 C 0.42913 -0.19766 0.34835
 C508 C 0.41709 -0.16367 0.32744
 C509 C 0.44200 -0.14750 0.29925
 C510 C 0.47730 -0.16872 0.29012
 C511 C 0.51826 -0.15457 0.28510
 C512 C 0.53208 -0.19042 0.30876
 H513 H 0.40946 -0.20631 0.37143
 H514 H 0.38875 -0.14901 0.33444
 H515 H 0.52237 -0.12525 0.29971
 H516 H 0.52871 -0.15643 0.25452
 H517 H 0.54446 -0.18135 0.33676
 H518 H 0.55039 -0.21290 0.29178
 C519 C 1.01791 0.31309 0.84732
 C520 C 0.99949 0.27607 0.84624
 C521 C 0.96433 0.27602 0.82462
 C522 C 0.94915 0.31108 0.80656
 C523 C 0.96817 0.34807 0.80960
 C524 C 1.00275 0.34696 0.83056
 C525 C 1.03344 0.37310 0.84593
 C526 C 1.05067 0.33535 0.86492
 H527 H 0.94786 0.24895 0.82262
 H528 H 0.92163 0.30928 0.79158
 H529 H 1.02169 0.39551 0.86754
 H530 H 1.05269 0.38497 0.82272
 H531 H 1.04843 0.33656 0.89692
 H532 H 1.08020 0.32628 0.85259
 C533 C 0.01981 1.20122 0.80345
 C534 C 0.02501 1.20282 0.84366
 C535 C 0.04318 1.16838 0.86042
 C536 C 0.05607 1.13507 0.83806
 C537 C 0.05275 1.13523 0.79783
 C538 C 0.03339 1.16828 0.78120
 C539 C 0.04608 1.19384 0.74857
 C540 C 0.03135 1.22979 0.77259
 H541 H 0.04738 1.16727 0.89125
 H542 H 0.06987 1.10956 0.85219
 H543 H 0.02847 1.18900 0.72240
 H544 H 0.07855 1.19322 0.74361
 H545 H 0.00544 1.24559 0.75980
 H546 H 0.05529 1.24957 0.78141
 C547 C 0.51185 0.67710 0.36692
 C548 C 0.49932 0.71124 0.34649
 C549 C 0.50053 0.70579 0.30560
 C550 C 0.51703 0.67001 0.28797
 C551 C 0.53166 0.63761 0.31035
 C552 C 0.52693 0.64275 0.35003
 C553 C 0.53766 0.62420 0.38740
 C554 C 0.52005 0.66264 0.40666
 H555 H 0.48872 0.72833 0.28663
 H556 H 0.51802 0.66780 0.25681
 H557 H 0.57013 0.62040 0.39051
 H558 H 0.52047 0.59735 0.39403
 H559 H 0.54236 0.68020 0.42168
 H560 H 0.49265 0.65752 0.42374
 C561 C 0.53585 0.27657 0.17146
 C562 C 0.50548 0.28399 0.14524
 C563 C 0.49150 0.32471 0.14369
 C564 C 0.50968 0.35542 0.16406
 C565 C 0.54294 0.34742 0.18696
 C566 C 0.55375 0.30671 0.19148
 C567 C 0.59161 0.28229 0.19353
 C568 C 0.57133 0.24893 0.17221
 H569 H 0.46858 0.33427 0.12434
 H570 H 0.49923 0.38591 0.15916
 H571 H 0.59916 0.27441 0.22359
 H572 H 0.61603 0.29411 0.17565
 H573 H 0.56643 0.22223 0.19031
 H574 H 0.58490 0.24245 0.14331
 C575 C -0.00625 0.82595 0.61378
 C576 C -0.00823 0.78720 0.62922
 C577 C -0.00081 0.78492 0.66937
 C578 C 0.01544 0.81739 0.68942
 C579 C 0.02299 0.85376 0.67056
 C580 C 0.00788 0.85783 0.63371
 C581 C 0.01992 0.87870 0.59775
 C582 C 0.00307 0.84375 0.57547
 H583 H -0.00547 0.75804 0.68545
 H584 H 0.02335 0.81336 0.71922
 H585 H 0.05251 0.88032 0.59445
 H586 H 0.00295 0.90743 0.59383
 H587 H 0.02585 0.82663 0.55807
 H588 H -0.02409 0.85242 0.55973
 C589 C 0.93114 0.69910 0.62783
 C590 C 0.96942 0.71399 0.62704
 C591 C 0.99784 0.69222 0.64884
 C592 C 0.98778 0.65819 0.67045
 C593 C 0.94915 0.64391 0.67001
 C594 C 0.92145 0.66583 0.64884
 C595 C 0.89392 0.65140 0.61930
 C596 C 0.90443 0.68766 0.59591
 H597 H 1.02799 0.70158 0.64923
 H598 H 1.01033 0.64313 0.68716
 H599 H 0.86273 0.65258 0.62992
 H600 H 0.90425 0.62247 0.60567
 H601 H 0.87888 0.70914 0.59290
 H602 H 0.92046 0.67967 0.56851
 C603 C 0.45890 0.18401 0.11487
 C604 C 0.47743 0.21339 0.13661
 C605 C 0.47730 0.20607 0.17715
 C606 C 0.46083 0.17098 0.19295
 C607 C 0.44267 0.14272 0.16913
 C608 C 0.44287 0.15099 0.13009
 C609 C 0.42933 0.13575 0.09236
 C610 C 0.44715 0.17326 0.07488
 H611 H 0.48845 0.22732 0.19733
 H612 H 0.46099 0.16682 0.22386
 H613 H 0.39666 0.13577 0.09065
 H614 H 0.44517 0.10732 0.08334
 H615 H 0.42438 0.19446 0.06341
 H616 H 0.47285 0.16642 0.05520
 C617 C 0.30238 0.48953 -0.21263
 C618 C 0.34362 0.49260 -0.21529
 C619 C 0.36507 0.48278 -0.18177
 C620 C 0.34597 0.47220 -0.14733
 C621 C 0.30457 0.47144 -0.14473
 C622 C 0.28362 0.47909 -0.17833
 C623 C 0.24968 0.50784 -0.18389
 C624 C 0.26989 0.51956 -0.22128
 H625 H 0.39701 0.48236 -0.18253
 H626 H 0.36387 0.46391 -0.12303
 H627 H 0.24802 0.53231 -0.16184
 H628 H 0.22169 0.49231 -0.18830
 H629 H 0.27961 0.55092 -0.22110
 H630 H 0.25300 0.51106 -0.24700
 C631 C 0.80571 1.00314 0.29586
 C632 C 0.84626 1.01028 0.29862
 C633 C 0.86379 1.00025 0.33420
 C634 C 0.84135 0.98674 0.36569
 C635 C 0.80022 0.98303 0.36322
 C636 C 0.78369 0.98975 0.32714
 C637 C 0.74790 1.01420 0.31696
 C638 C 0.77157 1.02886 0.28260
 H639 H 0.89522 1.00300 0.33769
 H640 H 0.85649 0.97923 0.39192
 H641 H 0.74021 1.03813 0.33868
 H642 H 0.72314 0.99527 0.30864
 H643 H 0.77690 1.06138 0.28401
 H644 H 0.75990 1.01829 0.25476
 C645 C 0.84565 0.08107 1.21948
 C646 C 0.84767 0.04064 1.23082
 C647 C 0.82660 0.01360 1.20784
 C648 C 0.80712 0.02627 1.17421
 C649 C 0.80809 0.06646 1.16227
 C650 C 0.82609 0.09341 1.18673
 C651 C 0.85551 0.12388 1.17690
 C652 C 0.87738 0.11048 1.21237
 H653 H 0.82636 -0.01779 1.21522
 H654 H 0.79239 0.00434 1.15705
 H655 H 0.84272 0.15496 1.17950
 H656 H 0.87201 0.11682 1.14946
 H657 H 0.87757 0.13448 1.23478
 H658 H 0.90668 0.09581 1.20547
 C659 C 0.33963 0.55691 0.70138
 C660 C 0.33868 0.51737 0.71528
 C661 C 0.31118 0.49220 0.69771
 C662 C 0.28920 0.50491 0.66572
 C663 C 0.29367 0.54342 0.65053
 C664 C 0.31743 0.56937 0.67045
 C665 C 0.34816 0.59592 0.65508
 C666 C 0.37291 0.58264 0.68871
 H667 H 0.30808 0.46182 0.70765
 H668 H 0.26999 0.48413 0.65205
 H669 H 0.33850 0.62809 0.65674
 H670 H 0.36064 0.58551 0.62663
 H671 H 0.37771 0.60791 0.70893
 H672 H 0.40011 0.56524 0.67974
 C673 C 0.15795 0.55297 0.30161
 C674 C 0.14968 0.51478 0.28662
 C675 C 0.17065 0.48169 0.30308
 C676 C 0.19478 0.48662 0.33533
 C677 C 0.19955 0.52495 0.35118
 C678 C 0.18276 0.55772 0.33231
 C679 C 0.15920 0.59241 0.34909
 C680 C 0.13143 0.58733 0.31602
 H681 H 0.16637 0.45162 0.29258
 H682 H 0.20791 0.46049 0.34897
 H683 H 0.17554 0.62062 0.34775
 H684 H 0.14558 0.58591 0.37769
 H685 H 0.13136 0.61353 0.29657
 H686 H 0.10172 0.57790 0.32551
 C687 C 0.64631 0.01355 0.84241
 C688 C 0.66247 0.01067 0.80477
 C689 C 0.70346 0.01763 0.80134
 C690 C 0.72504 0.03013 0.83370
 C691 C 0.70650 0.03538 0.87051
 C692 C 0.66762 0.02362 0.87397
 C693 C 0.63195 0.04073 0.89516
 C694 C 0.60821 0.02914 0.86020
 H695 H 0.71851 0.01629 0.77356
 H696 H 0.75567 0.03730 0.82945
 H697 H 0.63313 0.07367 0.89982
 H698 H 0.62455 0.02325 0.92125
 H699 H 0.59532 0.05581 0.84557
 H700 H 0.58750 0.00482 0.86609
 C701 C 0.64807 1.01858 0.69770
 C702 C 0.65723 0.99667 0.73124
 C703 C 0.68496 0.96410 0.72562
 C704 C 0.69801 0.95153 0.68829
 C705 C 0.68426 0.97147 0.65520
 C706 C 0.66208 1.00702 0.66133
 C707 C 0.62643 1.02329 0.64176
 C708 C 0.61075 1.03631 0.68145
 H709 H 0.69422 0.94633 0.74991
 H710 H 0.71708 0.92488 0.68533
 H711 H 0.60914 0.99943 0.62825
 H712 H 0.63320 1.04888 0.62280
 H713 H 0.58385 1.02057 0.69016
 H714 H 0.60845 1.06943 0.68473
 C715 C 0.11258 0.48415 0.18578
 C716 C 0.13677 0.49261 0.21703
 C717 C 0.17803 0.48630 0.20999
 C718 C 0.19308 0.47423 0.17315
 C719 C 0.16751 0.46777 0.14232
 C720 C 0.12718 0.47070 0.15062
 C721 C 0.09317 0.48868 0.12953
 C722 C 0.07673 0.50353 0.16863
 H723 H 0.19913 0.49200 0.23203
 H724 H 0.22469 0.47010 0.16882
 H725 H 0.07504 0.46548 0.11612
 H726 H 0.10199 0.51323 0.11011
 H727 H 0.04923 0.48884 0.17773
 H728 H 0.07569 0.53675 0.17091
 C729 C -0.19484 0.35280 0.46690
 C730 C -0.21328 0.35435 0.50377
 C731 C -0.19248 0.33406 0.53342
 C732 C -0.15454 0.31600 0.52663
 C733 C -0.13591 0.31852 0.49022
 C734 C -0.15776 0.33507 0.46042
 C735 C -0.14667 0.36428 0.43030
 C736 C -0.18716 0.38423 0.43729
 H737 H -0.20494 0.33342 0.56230
 H738 H -0.13908 0.30196 0.55021
 H739 H -0.14302 0.34992 0.40132
 H740 H -0.12229 0.38355 0.43889
 H741 H -0.20618 0.38176 0.41178
 H742 H -0.18593 0.41488 0.44985
 C743 C 0.30388 0.78751 0.96628
 C744 C 0.29588 0.82842 0.95918
 C745 C 0.32594 0.84915 0.93958
 C746 C 0.36111 0.82986 0.92685
 C747 C 0.36815 0.78870 0.93267
 C748 C 0.33907 0.76810 0.95308
 C749 C 0.31818 0.73120 0.94218
 C750 C 0.28022 0.75203 0.95691
 H751 H 0.32234 0.88093 0.93431
 H752 H 0.38267 0.84732 0.91168
 H753 H 0.32744 0.70499 0.95976
 H754 H 0.31807 0.72561 0.91055
 H755 H 0.26797 0.73779 0.98314
 H756 H 0.25854 0.75811 0.93393
 C757 C 1.22771 0.80188 0.02147
 C758 C 1.22448 0.82672 -0.01111
 C759 C 1.18577 0.82995 -0.02653
 C760 C 1.15282 0.81462 -0.00741
 C761 C 1.15640 0.79602 0.02850
 C762 C 1.19490 0.78668 0.04019
 C763 C 1.21355 0.78746 0.07859
 C764 C 1.24981 0.80370 0.05828
 H765 H 1.17898 0.84733 -0.05166
 H766 H 1.12404 0.82011 -0.01962
 H767 H 1.21877 0.75688 0.09021
 H768 H 1.19848 0.80941 0.09884
 H769 H 1.27555 0.78209 0.05819
 H770 H 1.25597 0.83447 0.06818
 C771 C 0.67529 0.36628 0.53014
 C772 C 0.71381 0.35034 0.52476
 C773 C 0.71784 0.30795 0.52912
 C774 C 0.68524 0.28505 0.54092
 C775 C 0.64727 0.30337 0.54741
 C776 C 0.64407 0.34424 0.54034
 C777 C 0.61648 0.37993 0.54414
 C778 C 0.65172 0.40490 0.53194
 H779 H 0.74568 0.29199 0.52367
 H780 H 0.68983 0.25311 0.54481
 H781 H 0.60636 0.38557 0.57447
 H782 H 0.59282 0.37990 0.52249
 H783 H 0.66123 0.42539 0.55509
 H784 H 0.64849 0.41866 0.50310
 C785 C 0.31142 0.16795 0.50270
 C786 C 0.30770 0.12595 0.50235
 C787 C 0.34177 0.10287 0.51318
 C788 C 0.37512 0.12093 0.52789
 C789 C 0.37544 0.16264 0.53275
 C790 C 0.34423 0.18545 0.51768
 C791 C 0.32162 0.22165 0.53239
 C792 C 0.28532 0.20311 0.51573
 H793 H 0.34172 0.07044 0.51191
 H794 H 0.39942 0.10214 0.53798
 H795 H 0.33029 0.24927 0.51730
 H796 H 0.32042 0.22382 0.56438
 H797 H 0.27344 0.22074 0.49134
 H798 H 0.26292 0.19582 0.53796
 C799 C 0.81532 0.64997 0.06619
 C800 C 0.79993 0.65360 0.02878
 C801 C 0.81604 0.68496 0.00645
 C802 C 0.84699 0.70821 0.01991
 C803 C 0.86268 0.70172 0.05654
 C804 C 0.84458 0.67378 0.07981
 C805 C 0.86256 0.64114 0.10333
 C806 C 0.83067 0.61466 0.08845
 H807 H 0.80697 0.69090 -0.02233
 H808 H 0.85930 0.73056 0.00124
 H809 H 0.85957 0.64772 0.13475
 H810 H 0.89277 0.63166 0.09293
 H811 H 0.80994 0.60558 0.11171
 H812 H 0.84265 0.58978 0.06979
 C813 C 0.69426 0.65330 1.01089
 C814 C 0.73321 0.65005 0.99501
 C815 C 0.73828 0.66785 0.95822
 C816 C 0.70679 0.68641 0.93872
 C817 C 0.66815 0.68654 0.95416
 C818 C 0.66311 0.67152 0.99121
 C819 C 0.63385 0.64234 1.00439
 C820 C 0.66723 0.62160 1.02534
 H821 H 0.76583 0.66411 0.94219
 H822 H 0.71241 0.69809 0.91022
 H823 H 0.62244 0.62406 0.98039
 H824 H 0.61090 0.65644 1.02407
 H825 H 0.67513 0.59125 1.01341
 H826 H 0.66201 0.62286 1.05704
 C827 C 0.23503 0.15990 0.45391
 C828 C 0.23474 0.13288 0.48449
 C829 C 0.19788 0.13159 0.50494
 C830 C 0.16491 0.15640 0.49496
 C831 C 0.16666 0.18302 0.46347
 C832 C 0.20315 0.18337 0.44393
 C833 C 0.22383 0.19882 0.40897
 C834 C 0.25941 0.17190 0.42001
 H835 H 0.19336 0.11046 0.52783
 H836 H 0.13750 0.15299 0.51092
 H837 H 0.22915 0.23138 0.41137
 H838 H 0.21094 0.18892 0.38148
 H839 H 0.28560 0.18885 0.42802
 H840 H 0.26544 0.14673 0.39923
 C841 C 0.62426 0.07935 0.76879
 C842 C 0.60790 0.04112 0.76951
 C843 C 0.56601 0.04157 0.76915
 C844 C 0.54434 0.07595 0.75678
 C845 C 0.56378 0.11127 0.74692
 C846 C 0.60291 0.11319 0.75832
 C847 C 0.63861 0.13278 0.74260
 C848 C 0.66253 0.09596 0.75549
 H849 H 0.54969 0.01538 0.77580
 H850 H 0.51295 0.07388 0.75257
 H851 H 0.64535 0.16037 0.75901
 H852 H 0.63813 0.13602 0.71074
 H853 H 0.68188 0.10248 0.78005
 H854 H 0.67757 0.07948 0.73117
 C855 C 1.11773 0.57839 0.22786
 C856 C 1.09682 0.54810 0.24592
 C857 C 1.05574 0.55732 0.25213
 C858 C 1.03837 0.59466 0.24050
 C859 C 1.06142 0.62410 0.22269
 C860 C 1.10135 0.61437 0.21805
 C861 C 1.13754 0.62735 0.19746
 C862 C 1.15642 0.58672 0.20882
 H863 H 1.03646 0.53573 0.26460
 H864 H 1.00691 0.60012 0.24484
 H865 H 1.15081 0.65334 0.21184
 H866 H 1.13327 0.63022 0.16592
 H867 H 1.18056 0.58923 0.22975
 H868 H 1.16325 0.56677 0.18352
 C869 C 0.90296 0.95227 0.26605
 C870 C 0.90040 0.99067 0.24935
 C871 C 0.92452 0.99594 0.21594
 C872 C 0.94713 0.96378 0.19894
 C873 C 0.94650 0.92506 0.21471
 C874 C 0.92576 0.92088 0.24952
 C875 C 0.89691 0.89016 0.26016
 C876 C 0.87146 0.92409 0.27782
 H877 H 0.92469 1.02478 0.20204
 H878 H 0.96380 0.96892 0.17260
 H879 H 0.90879 0.86888 0.28183
 H880 H 0.88362 0.87600 0.23461
 H881 H 0.86814 0.92138 0.30960
 H882 H 0.84340 0.92951 0.26243
 C883 C 0.40523 0.45919 0.69452
 C884 C 0.38549 0.46102 0.73047
 C885 C 0.38222 0.42311 0.74876
 C886 C 0.40023 0.38767 0.73275
 C887 C 0.42137 0.38805 0.69724
 C888 C 0.42187 0.42486 0.67883
 C889 C 0.43758 0.44531 0.64416
 C890 C 0.41856 0.48411 0.66163
 H891 H 0.36555 0.41974 0.77527
 H892 H 0.39695 0.35987 0.74806
 H893 H 0.42349 0.43565 0.61717
 H894 H 0.47037 0.44498 0.64316
 H895 H 0.39343 0.49644 0.64483
 H896 H 0.44068 0.50608 0.67001
 C897 C 0.38610 0.56738 0.77555
 C898 C 0.39754 0.53118 0.75703
 C899 C 0.43917 0.52488 0.75131
 C900 C 0.46588 0.55494 0.76115
 C901 C 0.45186 0.59189 0.77732
 C902 C 0.41159 0.59610 0.78435
 C903 C 0.38073 0.62364 0.80213
 C904 C 0.35147 0.59123 0.79211
 H905 H 0.45174 0.49693 0.73990
 H906 H 0.49724 0.54929 0.75619
 H907 H 0.37642 0.65166 0.78549
 H908 H 0.38469 0.62777 0.83363
 H909 H 0.33011 0.60097 0.76996
 H910 H 0.33836 0.57690 0.81792
 C911 C -0.12350 0.09208 0.30225
 C912 C -0.10398 0.05997 0.28253
 C913 C -0.06199 0.06167 0.28178
 C914 C -0.04255 0.09426 0.29878
 C915 C -0.06403 0.12621 0.31786
 C916 C -0.10484 0.12329 0.31837
 C917 C -0.14206 0.14243 0.33454
 C918 C -0.16324 0.10743 0.31606
 H919 H -0.04352 0.03805 0.26872
 H920 H -0.01066 0.09422 0.29691
 H921 H -0.14957 0.17174 0.32115
 H922 H -0.14316 0.14224 0.36658
 H923 H -0.18241 0.11696 0.29201
 H924 H -0.17687 0.08741 0.33754
 C925 C 0.08378 0.43895 0.25529
 C926 C 0.08989 0.47675 0.27262
 C927 C 0.07192 0.48323 0.30964
 C928 C 0.05364 0.45206 0.32964
 C929 C 0.05223 0.41341 0.31311
 C930 C 0.06497 0.40876 0.27481
 C931 C 0.09032 0.37608 0.25680
 C932 C 0.11135 0.40854 0.23537
 H933 H 0.07469 0.51165 0.32441
 H934 H 0.04278 0.45761 0.35886
 H935 H 0.07339 0.35647 0.23765
 H936 H 0.10920 0.36009 0.27795
 H937 H 0.10677 0.40648 0.20381
 H938 H 0.14261 0.41086 0.24370
 C939 C 0.62720 0.93383 0.80337
 C940 C 0.61366 0.96322 0.77740
 C941 C 0.58294 0.95031 0.75315
 C942 C 0.56544 0.91252 0.75790
 C943 C 0.58046 0.88470 0.78470
 C944 C 0.61188 0.89692 0.80606
 C945 C 0.64154 0.88090 0.83315
 C946 C 0.65976 0.92209 0.83028
 H947 H 0.57240 0.96914 0.73022
 H948 H 0.54127 0.90461 0.73978
 H949 H 0.66060 0.85632 0.82013
 H950 H 0.62832 0.87468 0.86197
 H951 H 0.68936 0.92096 0.81583
 H952 H 0.65803 0.93829 0.85838
 C953 C 0.74923 0.55893 0.04846
 C954 C 0.75150 0.60095 0.04788
 C955 C 0.73559 0.62190 0.08093
 C956 C 0.72180 0.60170 0.11353
 C957 C 0.72328 0.55956 0.11473
 C958 C 0.73515 0.53905 0.08073
 C959 C 0.76383 0.50453 0.07488
 C960 C 0.77934 0.52604 0.03959
 H961 H 0.73443 0.65436 0.08169
 H962 H 0.71014 0.61933 0.13784
 H963 H 0.74896 0.47641 0.06765
 H964 H 0.78552 0.50201 0.09839
 H965 H 0.77348 0.51000 0.01220
 H966 H 0.81011 0.53553 0.04259
 C967 C 0.26439 1.09093 0.56442
 C968 C 0.26145 1.07621 0.52635
 C969 C 0.25177 1.03518 0.52351
 C970 C 0.23833 1.01414 0.55615
 C971 C 0.23594 1.03270 0.59294
 C972 C 0.25323 1.06971 0.59631
 C973 C 0.24309 1.10666 0.61949
 C974 C 0.25597 1.13031 0.58442
 H975 H 0.25244 1.01911 0.49649
 H976 H 0.22825 0.98403 0.55219
 H977 H 0.26281 1.11009 0.64437
 H978 H 0.21096 1.11019 0.62640
 H979 H 0.28328 1.14690 0.58922
 H980 H 0.23107 1.14815 0.57234
 C981 C 0.23498 0.91771 0.93799
 C982 C 0.24456 0.87633 0.93803
 C983 C 0.23796 0.85485 0.90336
 C984 C 0.22421 0.87410 0.87033
 C985 C 0.21730 0.91590 0.87006
 C986 C 0.22156 0.93674 0.90493
 C987 C 0.24427 0.97321 0.91248
 C988 C 0.25917 0.95267 0.94843
 H989 H 0.24303 0.82266 0.90206
 H990 H 0.21891 0.85594 0.84510
 H991 H 0.22460 0.99995 0.91888
 H992 H 0.26782 0.97768 0.89030
 H993 H 0.24825 0.96810 0.97535
 H994 H 0.29143 0.94549 0.94725
 C995 C 0.71939 0.37539 0.44497
 C996 C 0.73208 0.39871 0.47582
 C997 C 0.72781 0.44093 0.47024
 C998 C 0.71371 0.45699 0.43498
 C999 C 0.70211 0.43158 0.40459
 C1000 C 0.70527 0.39075 0.41177
 C1001 C 0.69993 0.35059 0.39394
 C1002 C 0.71556 0.33308 0.43168
 H1003 H 0.73472 0.46194 0.49271
 H1004 H 0.71107 0.48921 0.43192
 H1005 H 0.72017 0.34475 0.36871
 H1006 H 0.66846 0.34428 0.38926
 H1007 H 0.74448 0.31660 0.42796
 H1008 H 0.69285 0.31724 0.44861
 C1009 C 0.73690 0.40740 0.58264
 C1010 C 0.75542 0.40803 0.54571
 C1011 C 0.78604 0.43549 0.54147
 C1012 C 0.80010 0.45686 0.57329
 C1013 C 0.78474 0.45088 0.61090
 C1014 C 0.75086 0.42851 0.61388
 C1015 C 0.73977 0.39737 0.64210
 C1016 C 0.72427 0.37404 0.60826
 H1017 H 0.80110 0.43838 0.51390
 H1018 H 0.82485 0.47588 0.56862
 H1019 H 0.71609 0.40838 0.66264
 H1020 H 0.76586 0.38244 0.65550
 H1021 H 0.69168 0.37166 0.60983
 H1022 H 0.74095 0.34524 0.60276
 C1023 C 0.30949 -0.11618 0.01953
 C1024 C 0.27026 -0.11887 0.00713
 C1025 C 0.24148 -0.09461 0.02787
 C1026 C 0.25143 -0.07203 0.06090
 C1027 C 0.29059 -0.07268 0.07398
 C1028 C 0.31902 -0.09359 0.05133
 C1029 C 0.35084 -0.12232 0.06349
 C1030 C 0.34074 -0.14758 0.02894
 H1031 H 0.21093 -0.09448 0.01946
 H1032 H 0.22837 -0.05513 0.07669
 H1033 H 0.34398 -0.13664 0.09152
 H1034 H 0.38055 -0.10950 0.06098
 H1035 H 0.32861 -0.17679 0.03702
 H1036 H 0.36536 -0.14957 0.00728
 C1037 C 0.24875 0.05651 0.43591
 C1038 C 0.27782 0.07974 0.45305
 C1039 C 0.31333 0.08261 0.43065
 C1040 C 0.31727 0.06640 0.39322
 C1041 C 0.28611 0.04664 0.37619
 C1042 C 0.25338 0.03911 0.39956
 C1043 C 0.21029 0.04198 0.39220
 C1044 C 0.20496 0.06102 0.43221
 H1045 H 0.33759 0.10001 0.43991
 H1046 H 0.34412 0.07130 0.37671
 H1047 H 0.19734 0.01198 0.38997
 H1048 H 0.20291 0.06286 0.36844
 H1049 H 0.18891 0.04198 0.45292
 H1050 H 0.19373 0.09258 0.43078
 C1051 C 0.82403 0.60114 0.96631
 C1052 C 0.78548 0.59696 0.98095
 C1053 C 0.76037 0.57372 0.95814
 C1054 C 0.77374 0.55553 0.92305
 C1055 C 0.81284 0.55974 0.90942
 C1056 C 0.83702 0.58344 0.93169
 C1057 C 0.87702 0.57334 0.94649
 C1058 C 0.86282 0.59195 0.98460
 H1059 H 0.72975 0.57097 0.96679
 H1060 H 0.75307 0.53917 0.90623
 H1061 H 0.90026 0.59060 0.93183
 H1062 H 0.88335 0.54047 0.94796
 H1063 H 0.87847 0.61948 0.99225
 H1064 H 0.86087 0.56954 1.00786
 C1065 C 0.05253 0.75535 0.57679
 C1066 C 0.01508 0.73830 0.57592
 C1067 C 0.01209 0.70492 0.55062
 C1068 C 0.04563 0.68735 0.53127
 C1069 C 0.08332 0.70287 0.53617
 C1070 C 0.08511 0.73883 0.55678
 C1071 C 0.11320 0.75096 0.58676
 C1072 C 0.07775 0.76896 0.60906
 H1073 H -0.01575 0.69063 0.54783
 H1074 H 0.04235 0.66034 0.51429
 H1075 H 0.13364 0.77381 0.57604
 H1076 H 0.12756 0.72487 0.60125
 H1077 H 0.07836 0.80214 0.61149
 H1078 H 0.07205 0.75335 0.63659
 C1079 C 0.54992 0.26970 1.06898
 C1080 C 0.52820 0.24059 1.08889
 C1081 C 0.54348 0.20043 1.08412
 C1082 C 0.57828 0.19098 1.06287
 C1083 C 0.60074 0.22104 1.04633
 C1084 C 0.58456 0.26014 1.04810
 C1085 C 0.60196 0.29955 1.05600
 C1086 C 0.56467 0.31018 1.07957
 H1087 H 0.53088 0.17551 1.09871
 H1088 H 0.58919 0.16005 1.06182
 H1089 H 0.60489 0.31770 1.02950
 H1090 H 0.62851 0.29768 1.07409
 H1091 H 0.54735 0.33563 1.06731
 H1092 H 0.57118 0.31375 1.11051
 C1093 C 0.96533 0.18796 0.90166
 C1094 C 0.97619 0.22792 0.89588
 C1095 C 0.95191 0.25801 0.91494
 C1096 C 0.91910 0.24843 0.93828
 C1097 C 0.90879 0.20836 0.94281
 C1098 C 0.93298 0.17877 0.92475
 C1099 C 0.92021 0.14640 0.89863
 C1100 C 0.95454 0.15651 0.87263
 H1101 H 0.95764 0.28936 0.91103
 H1102 H 0.90126 0.27243 0.95182
 H1103 H 0.89099 0.15322 0.88578
 H1104 H 0.92358 0.11634 0.91189
 H1105 H 0.94530 0.16951 0.84471
 H1106 H 0.97650 0.13105 0.87008
 C1107 C 0.44725 0.72789 0.43341
 C1108 C 0.44825 0.73275 0.39304
 C1109 C 0.41757 0.71447 0.37274
 C1110 C 0.38555 0.69750 0.39187
 C1111 C 0.38274 0.69748 0.43237
 C1112 C 0.41564 0.71017 0.45225
 C1113 C 0.41763 0.73625 0.48701
 C1114 C 0.45132 0.75653 0.46650
 H1115 H 0.41789 0.71437 0.34151
 H1116 H 0.36264 0.68507 0.37469
 H1117 H 0.42709 0.71915 0.51274
 H1118 H 0.39076 0.75605 0.49142
 H1119 H 0.47997 0.75212 0.48113
 H1120 H 0.44302 0.78790 0.45924
 C1121 C 0.50950 0.80189 0.41697
 C1122 C 0.51620 0.76765 0.39315
 C1123 C 0.55635 0.75367 0.38984
 C1124 C 0.58683 0.77258 0.40892
 C1125 C 0.57955 0.80754 0.43143
 C1126 C 0.53985 0.82088 0.43571
 C1127 C 0.52036 0.86134 0.43079
 C1128 C 0.48751 0.84088 0.41045
 H1129 H 0.56564 0.72929 0.37070
 H1130 H 0.61672 0.76093 0.40382
 H1131 H 0.53677 0.88088 0.41082
 H1132 H 0.51074 0.87542 0.45879
 H1133 H 0.48634 0.84961 0.37973
 H1134 H 0.45885 0.84383 0.42645
 C1135 C 0.04848 0.25142 -0.06518
 C1136 C 0.04873 0.24812 -0.10580
 C1137 C 0.08634 0.24999 -0.12455
 C1138 C 0.11970 0.26161 -0.10459
 C1139 C 0.11670 0.27110 -0.06518
 C1140 C 0.08179 0.26235 -0.04553
 C1141 C 0.05888 0.28531 -0.01511
 C1142 C 0.02236 0.27477 -0.03681
 H1143 H 0.08930 0.24574 -0.15546
 H1144 H 0.14663 0.26712 -0.12073
 H1145 H 0.06432 0.31791 -0.01503
 H1146 H 0.06083 0.27070 0.01345
 H1147 H 0.00789 0.30182 -0.04943
 H1148 H 0.00260 0.25528 -0.02001
 C1149 C 0.45252 0.27194 0.05463
 C1150 C 0.45536 0.26776 0.09491
 C1151 C 0.41963 0.27385 0.11667
 C1152 C 0.38456 0.28721 0.09970
 C1153 C 0.38371 0.29654 0.06028
 C1154 C 0.41748 0.28570 0.03796
 C1155 C 0.43801 0.30869 0.00767
 C1156 C 0.47619 0.29503 0.02612
 H1157 H 0.41910 0.26905 0.14750
 H1158 H 0.35860 0.29173 0.11813
 H1159 H 0.43166 0.34155 0.01025
 H1160 H 0.43439 0.29562 -0.02157
 H1161 H 0.49100 0.32048 0.03955
 H1162 H 0.49517 0.27521 0.00690
 C1163 C 0.91094 0.78369 0.60328
 C1164 C 0.94343 0.76760 0.58188
 C1165 C 0.93970 0.77026 0.54108
 C1166 C 0.90497 0.78765 0.52444
 C1167 C 0.87338 0.80384 0.54795
 C1168 C 0.87830 0.80061 0.58746
 C1169 C 0.85911 0.81075 0.62559
 C1170 C 0.89626 0.79189 0.64359
 H1171 H 0.96345 0.76002 0.52178
 H1172 H 0.90352 0.78965 0.49338
 H1173 H 0.83215 0.79353 0.63092
 H1174 H 0.85577 0.84350 0.63127
 H1175 H 0.89045 0.76420 0.65987
 H1176 H 0.91410 0.81406 0.65887
   
