data_POSCAR
  _audit_creation_date              2014-09-24
  _audit_creation_method            'ToBaCCo'
  _symmetry_space_group_name_H-M    'P1'
  _symmetry_Int_Tables_number       1
  _symmetry_cell_setting            triclinic
  loop_
  _symmetry_equiv_pos_as_xyz
 x,y,z
_cell_length_a 39.5657
_cell_length_b 39.7982
_cell_length_c 40.6361
_cell_angle_alpha 90.291200
_cell_angle_beta 89.180700
_cell_angle_gamma 89.011600
loop_
  _atom_site_label
  _atom_site_type_symbol
  _atom_site_fract_x
  _atom_site_fract_y
  _atom_site_fract_z
C1 C 0.33249 0.32845 1.36152
 C2 C 0.30146 0.34199 1.37298
 C3 C 0.28555 0.36900 1.35643
 C4 C 0.30004 0.38008 1.32653
 C5 C 0.33045 0.36614 1.31441
 C6 C 0.34743 0.34125 1.33261
 C7 C 0.34920 0.30277 1.37880
 C8 C 0.38177 0.29144 1.36883
 C9 C 0.39681 0.30536 1.34055
 C10 C 0.37934 0.32909 1.32179
 C11 C 0.39310 0.34033 1.29200
 C12 C 0.37516 0.36335 1.27253
 C13 C 0.34411 0.37669 1.28426
 H14 H 0.29116 0.33295 1.39607
 H15 H 0.28733 0.39920 1.31212
 H16 H 0.33755 0.29273 1.40089
 H17 H 0.42129 0.29609 1.33181
 H18 H 0.41764 0.33081 1.28375
 H19 H 0.33013 0.39468 1.26958
 C20 C 1.17003 0.66450 0.85196
 C21 C 1.20102 0.65040 0.86163
 C22 C 1.21261 0.61889 0.84936
 C23 C 1.19186 0.60195 0.82680
 C24 C 1.16076 0.61593 0.81696
 C25 C 1.14967 0.64725 0.82974
 C26 C 1.15959 0.69607 0.86391
 C27 C 1.12883 0.71130 0.85413
 C28 C 1.10799 0.69313 0.83261
 C29 C 1.11846 0.66151 0.82001
 C30 C 1.09881 0.64439 0.79698
 C31 C 1.11007 0.61341 0.78352
 C32 C 1.14078 0.59916 0.79414
 H33 H 1.21673 0.66520 0.87752
 H34 H 1.19908 0.57731 0.81748
 H35 H 1.17532 0.70823 0.88186
 H36 H 1.08454 0.70420 0.82405
 H37 H 1.07534 0.65570 0.78869
 H38 H 1.14932 0.57504 0.78435
 C39 C 0.66330 -0.14790 0.11773
 C40 C 0.68833 -0.12978 0.10137
 C41 C 0.69791 -0.09824 0.11299
 C42 C 0.68201 -0.08443 0.14127
 C43 C 0.65597 -0.10190 0.15742
 C44 C 0.64663 -0.13384 0.14548
 C45 C 0.65510 -0.18006 0.10678
 C46 C 0.63021 -0.19910 0.12305
 C47 C 0.61262 -0.18411 0.15007
 C48 C 0.62077 -0.15182 0.16136
 C49 C 0.60376 -0.13744 0.18860
 C50 C 0.61269 -0.10568 0.20063
 C51 C 0.63912 -0.08819 0.18523
 H52 H 0.70121 -0.14064 0.07999
 H53 H 0.68974 -0.06016 0.15042
 H54 H 0.66771 -0.18968 0.08477
 H55 H 0.59376 -0.19798 0.16364
 H56 H 0.58374 -0.15112 0.20081
 H57 H 0.64602 -0.06370 0.19450
 C58 C -0.19321 1.17074 -0.34631
 C59 C -0.21674 1.15411 -0.36606
 C60 C -0.22799 1.12163 -0.35781
 C61 C -0.21577 1.10669 -0.32879
 C62 C -0.19354 1.12355 -0.30823
 C63 C -0.18201 1.15559 -0.31699
 C64 C -0.18030 1.20205 -0.35561
 C65 C -0.15677 1.21859 -0.33579
 C66 C -0.14683 1.20382 -0.30597
 C67 C -0.15914 1.17236 -0.29649
 C68 C -0.14871 1.15718 -0.26701
 C69 C -0.16061 1.12531 -0.25791
 C70 C -0.18276 1.10866 -0.27894
 H71 H -0.22498 1.16589 -0.38862
 H72 H -0.22489 1.08242 -0.32102
 H73 H -0.18845 1.21358 -0.37834
 H74 H -0.12869 1.21639 -0.29064
 H75 H -0.13162 1.17033 -0.25102
 H76 H -0.19138 1.08375 -0.27269
 C77 C 0.70998 0.70466 0.66066
 C78 C 0.74032 0.68814 0.65161
 C79 C 0.75033 0.65828 0.66732
 C80 C 0.73019 0.64543 0.69284
 C81 C 0.69978 0.66155 0.70201
 C82 C 0.68949 0.69116 0.68577
 C83 C 0.69923 0.73367 0.64407
 C84 C 0.66778 0.74940 0.65180
 C85 C 0.64798 0.73581 0.67758
 C86 C 0.65839 0.70683 0.69421
 C87 C 0.63779 0.69293 0.71880
 C88 C 0.64783 0.66331 0.73483
 C89 C 0.67895 0.64786 0.72640
 H90 H 0.75592 0.69815 0.63195
 H91 H 0.73753 0.62209 0.70463
 H92 H 0.71469 0.74253 0.62383
 H93 H 0.62458 0.74804 0.68552
 H94 H 0.61389 0.70507 0.72542
 H95 H 0.68657 0.62466 0.73829
 C96 C 0.82880 0.32853 0.12116
 C97 C 0.80189 0.34763 0.10809
 C98 C 0.78816 0.37581 0.12534
 C99 C 0.80106 0.38347 0.15666
 C100 C 0.82686 0.36393 0.17048
 C101 C 0.84110 0.33669 0.15252
 C102 C 0.84369 0.30148 0.10335
 C103 C 0.87079 0.28224 0.11650
 C104 C 0.88251 0.29117 0.14799
 C105 C 0.86774 0.31768 0.16601
 C106 C 0.87956 0.32551 0.19743
 C107 C 0.86474 0.35187 0.21598
 C108 C 0.83850 0.37117 0.20216
 H109 H 0.79294 0.34149 0.08375
 H110 H 0.79006 0.40391 0.17118
 H111 H 0.83321 0.29499 0.07975
 H112 H 0.90427 0.27854 0.15841
 H113 H 0.90046 0.31106 0.20742
 H114 H 0.82674 0.39151 0.21625
 C115 C 0.33093 0.18848 0.87185
 C116 C 0.30079 0.17718 0.88587
 C117 C 0.28187 0.15198 0.87052
 C118 C 0.29426 0.13795 0.84055
 C119 C 0.32389 0.15009 0.82548
 C120 C 0.34230 0.17543 0.84131
 C121 C 0.34972 0.21293 0.88793
 C122 C 0.37953 0.22510 0.87363
 C123 C 0.39038 0.21283 0.84273
 C124 C 0.37197 0.18798 0.82654
 C125 C 0.38258 0.17579 0.79568
 C126 C 0.36401 0.15124 0.77914
 C127 C 0.33499 0.13802 0.79447
 H128 H 0.29282 0.18729 0.90961
 H129 H 0.27995 0.11896 0.82792
 H130 H 0.34091 0.22297 0.91145
 H131 H 0.41329 0.22239 0.83153
 H132 H 0.40538 0.18551 0.78440
 H133 H 0.32052 0.11917 0.78182
 C134 C 0.19104 0.79497 0.35534
 C135 C 0.22088 0.81058 0.36518
 C136 C 0.23184 0.84013 0.34978
 C137 C 0.21253 0.85388 0.32420
 C138 C 0.18275 0.83854 0.31409
 C139 C 0.17178 0.80909 0.32986
 C140 C 0.18027 0.76551 0.37075
 C141 C 0.15024 0.74942 0.36131
 C142 C 0.13098 0.76434 0.33592
 C143 C 0.14156 0.79384 0.32016
 C144 C 0.12259 0.80819 0.29457
 C145 C 0.13369 0.83734 0.27846
 C146 C 0.16375 0.85234 0.28849
 H147 H 0.23585 0.79945 0.38456
 H148 H 0.22041 0.87690 0.31243
 H149 H 0.19494 0.75609 0.39110
 H150 H 0.10843 0.75244 0.32710
 H151 H 0.09946 0.79647 0.28684
 H152 H 0.17214 0.87509 0.27655
 Zn153 Zn 0.01891 1.03532 -0.01079
 Zn154 Zn -0.02395 0.97410 -0.01890
 Zn155 Zn 0.04960 0.96815 -0.00056
 Zn156 Zn 0.00031 0.99563 0.04788
 O157 O 0.01101 0.99314 0.00427
 O158 O -0.00466 1.04417 -0.04645
 O159 O -0.01094 0.93468 -0.03856
 O160 O 0.08320 0.99023 -0.02014
 O161 O -0.03850 1.00086 -0.05233
 O162 O 0.06188 1.04174 -0.02368
 O163 O 0.04319 0.93226 -0.02542
 O164 O 0.02941 0.97363 0.07403
 O165 O -0.06015 0.96486 0.00756
 O166 O 0.06618 0.95289 0.03755
 O167 O -0.03956 0.97811 0.05626
 O168 O -0.00428 1.03793 0.06265
 O169 O 0.00695 1.06769 0.01811
 C170 C -0.02739 1.02903 -0.06205
 C171 C 0.01799 0.92016 -0.04003
 C172 C 0.08604 1.02076 -0.02834
 C173 C 0.05587 0.95638 0.06712
 C174 C -0.06315 0.96687 0.03879
 C175 C -0.00272 1.06594 0.04796
 Zn176 Zn 0.47338 -0.00174 0.46002
 Zn177 Zn 0.46683 -0.02864 0.52788
 Zn178 Zn 0.53550 -0.01487 0.49922
 Zn179 Zn 0.48925 0.04174 0.51810
 O180 O 0.49126 -0.00089 0.50128
 O181 O 0.43921 -0.03036 0.45633
 O182 O 0.49212 -0.06211 0.54353
 O183 O 0.54972 -0.02372 0.45790
 O184 O 0.43261 -0.04849 0.50725
 O185 O 0.50395 -0.01361 0.42861
 O186 O 0.54290 -0.05233 0.52250
 O187 O 0.52992 0.05867 0.52678
 O188 O 0.44885 -0.00762 0.56333
 O189 O 0.56412 0.01567 0.51496
 O190 O 0.46572 0.04449 0.55608
 O191 O 0.46879 0.07043 0.49117
 O192 O 0.45554 0.03813 0.44876
 C193 C 0.42365 -0.04801 0.47738
 C194 C 0.52320 -0.06990 0.54006
 C195 C 0.53493 -0.02232 0.43036
 C196 C 0.55936 0.04554 0.52538
 C197 C 0.45004 0.02275 0.57288
 C198 C 0.45492 0.06629 0.46356
 Zn199 Zn 0.99254 0.43808 0.47996
 Zn200 Zn 1.03596 0.49510 0.49995
 Zn201 Zn 0.96703 0.50854 0.47553
 Zn202 Zn 0.97568 0.47615 0.54157
 O203 O 0.99282 0.47946 0.49940
 O204 O 1.03404 0.42251 0.46948
 O205 O 1.04152 0.53386 0.47768
 O206 O 0.94970 0.48979 0.43984
 O207 O 1.06585 0.46575 0.48245
 O208 O 0.96921 0.43755 0.44245
 O209 O 0.98974 0.54376 0.46043
 O210 O 0.93952 0.50328 0.54794
 O211 O 1.04960 0.50314 0.54089
 O212 O 0.93258 0.52584 0.49876
 O213 O 1.00561 0.48910 0.57199
 O214 O 0.96164 0.43409 0.55197
 O215 O 0.97375 0.40712 0.50550
 C216 C 1.06266 0.43630 0.47092
 C217 C 1.02044 0.55206 0.46223
 C218 C 0.95243 0.46038 0.42791
 C219 C 0.92362 0.52273 0.52864
 C220 C 1.03543 0.50026 0.56896
 C221 C 0.96152 0.40741 0.53454
 Zn222 Zn 0.48866 0.51682 0.95635
 Zn223 Zn 0.54336 0.53011 1.00505
 Zn224 Zn 0.47128 0.54041 1.02403
 Zn225 Zn 0.49937 0.47112 1.01334
 O226 O 0.50070 0.51458 0.99960
 O227 O 0.52079 0.53541 0.93118
 O228 O 0.54478 0.56630 1.03146
 O229 O 0.43714 0.55726 1.00070
 O230 O 0.56138 0.54363 0.96721
 O231 O 0.45023 0.54057 0.95011
 O232 O 0.49071 0.57532 1.04330
 O233 O 0.47269 0.46610 1.04887
 O234 O 0.57243 0.49909 1.02069
 O235 O 0.45243 0.51771 1.05673
 O236 O 0.53997 0.45458 1.02451
 O237 O 0.48473 0.44323 0.98230
 O238 O 0.48032 0.47637 0.93900
 C239 C 0.55017 0.54544 0.93818
 C240 C 0.52138 0.58371 1.04530
 C241 C 0.43045 0.55578 0.97030
 C242 C 0.45475 0.48720 1.06529
 C243 C 0.56860 0.46816 1.02701
 C244 C 0.47827 0.44756 0.95209
 C245 C 1.23237 0.36796 0.38886
 C246 C 1.20373 0.38469 0.40219
 C247 C 1.19955 0.41969 0.39760
 C248 C 1.22336 0.43717 0.37898
 C249 C 1.25117 0.42028 0.36497
 C250 C 1.25644 0.38547 0.36985
 C251 C 1.17149 0.43670 0.41145
 C252 C 1.14686 0.41899 0.42891
 C253 C 1.15024 0.38378 0.43255
 C254 C 1.17895 0.36690 0.41961
 C255 C 1.12462 0.36605 0.44875
 C256 C 1.09588 0.38307 0.46107
 C257 C 1.09283 0.41813 0.45817
 C258 C 1.11852 0.43596 0.44227
 H259 H 1.23494 0.34105 0.39216
 H260 H 1.22051 0.46401 0.37525
 H261 H 1.26940 0.43513 0.35161
 H262 H 1.16858 0.46363 0.40821
 H263 H 1.18177 0.33995 0.42271
 H264 H 1.12663 0.33904 0.45158
 H265 H 1.07622 0.36894 0.47324
 H266 H 1.11598 0.46298 0.43951
 C267 C 0.25862 0.61398 0.88969
 C268 C 0.29039 0.60146 0.89904
 C269 C 0.30867 0.57927 0.87794
 C270 C 0.29471 0.56990 0.84786
 C271 C 0.26306 0.58254 0.83859
 C272 C 0.24440 0.60511 0.85915
 C273 C 0.34050 0.56673 0.88731
 C274 C 0.35412 0.57597 0.91772
 C275 C 0.33567 0.59813 0.93885
 C276 C 0.30402 0.61077 0.92936
 C277 C 0.34902 0.60706 0.96935
 C278 C 0.38009 0.59372 0.97918
 C279 C 0.39863 0.57144 0.95859
 C280 C 0.38562 0.56298 0.92762
 H281 H 0.24466 0.62972 0.90711
 H282 H 0.30844 0.55301 0.83126
 H283 H 0.25425 0.57556 0.81449
 H284 H 0.35451 0.54963 0.87110
 H285 H 0.28994 0.62776 0.94564
 H286 H 0.33522 0.62405 0.98580
 H287 H 0.38952 0.60071 1.00311
 H288 H 0.39954 0.54563 0.91161
 C289 C -0.24306 0.92234 0.11223
 C290 C -0.21407 0.93188 0.09453
 C291 C -0.21616 0.93888 0.06049
 C292 C -0.24744 0.93666 0.04489
 C293 C -0.27596 0.92621 0.06249
 C294 C -0.27386 0.91864 0.09613
 C295 C -0.18684 0.94700 0.04248
 C296 C -0.15536 0.94772 0.05799
 C297 C -0.15350 0.94083 0.09208
 C298 C -0.18280 0.93318 0.11010
 C299 C -0.12228 0.94153 0.10770
 C300 C -0.09313 0.94933 0.08994
 C301 C -0.09443 0.95644 0.05609
 C302 C -0.12569 0.95527 0.04010
 H303 H -0.24128 0.91582 0.13804
 H304 H -0.24959 0.94188 0.01885
 H305 H -0.29953 0.92306 0.04969
 H306 H -0.18845 0.95223 0.01638
 H307 H -0.18116 0.92771 0.13617
 H308 H -0.12040 0.93624 0.13375
 H309 H -0.06941 0.94990 0.10289
 H310 H -0.12704 0.96094 0.01408
 C311 C 0.72228 0.12146 0.60604
 C312 C 0.69689 0.10358 0.58987
 C313 C 0.69882 0.06810 0.58835
 C314 C 0.72589 0.05110 0.60293
 C315 C 0.75015 0.06883 0.62009
 C316 C 0.74862 0.10425 0.62245
 C317 C 0.67318 0.05001 0.57316
 C318 C 0.64476 0.06680 0.56063
 C319 C 0.64248 0.10226 0.56241
 C320 C 0.66885 0.12048 0.57644
 C321 C 0.61339 0.11881 0.55095
 C322 C 0.58651 0.10039 0.53862
 C323 C 0.58851 0.06512 0.53682
 C324 C 0.61806 0.04855 0.54737
 H325 H 0.71991 0.14857 0.60788
 H326 H 0.72791 0.02392 0.60175
 H327 H 0.77063 0.05454 0.63096
 H328 H 0.67479 0.02278 0.57211
 H329 H 0.66701 0.14767 0.57787
 H330 H 0.61111 0.14596 0.55216
 H331 H 0.56407 0.11376 0.53054
 H332 H 0.61976 0.02133 0.54642
 C333 C 0.38124 0.23702 0.39632
 C334 C 0.39892 0.20926 0.40902
 C335 C 0.43414 0.21114 0.41403
 C336 C 0.45129 0.24022 0.40509
 C337 C 0.43397 0.26679 0.39028
 C338 C 0.39875 0.26562 0.38577
 C339 C 0.45185 0.18356 0.42691
 C340 C 0.43520 0.15340 0.43293
 C341 C 0.40032 0.15088 0.42627
 C342 C 0.38220 0.17912 0.41526
 C343 C 0.38428 0.12000 0.43033
 C344 C 0.40259 0.09197 0.44119
 C345 C 0.43681 0.09478 0.44904
 C346 C 0.45303 0.12549 0.44501
 H347 H 0.35433 0.23518 0.39212
 H348 H 0.47831 0.24203 0.40859
 H349 H 0.44810 0.28867 0.38300
 H350 H 0.47877 0.18523 0.43127
 H351 H 0.35535 0.17734 0.41060
 H352 H 0.35767 0.11751 0.42505
 H353 H 0.38980 0.06835 0.44451
 H354 H 0.47957 0.12745 0.45095
 C355 C 0.87113 0.25390 0.62098
 C356 C 0.88656 0.28373 0.61073
 C357 C 0.88877 0.31115 0.63281
 C358 C 0.87576 0.30802 0.66495
 C359 C 0.86089 0.27804 0.67512
 C360 C 0.85832 0.25074 0.65325
 C361 C 0.90409 0.34107 0.62245
 C362 C 0.91756 0.34377 0.59035
 C363 C 0.91565 0.31602 0.56858
 C364 C 0.90008 0.28636 0.57881
 C365 C 0.92932 0.31830 0.53676
 C366 C 0.94453 0.34779 0.52631
 C367 C 0.94637 0.37594 0.54732
 C368 C 0.93286 0.37366 0.57954
 H369 H 0.86975 0.23283 0.60406
 H370 H 0.87724 0.32869 0.68230
 H371 H 0.85111 0.27624 0.70007
 H372 H 0.90561 0.36215 0.63935
 H373 H 0.89857 0.26526 0.56191
 H374 H 0.92815 0.29724 0.51981
 H375 H 0.95457 0.34858 0.50140
 H376 H 0.93407 0.39505 0.59606
 C377 C 0.08578 0.75473 -0.12955
 C378 C 0.07784 0.78646 -0.11552
 C379 C 0.10427 0.80825 -0.10720
 C380 C 0.13781 0.79863 -0.11353
 C381 C 0.14552 0.76715 -0.12685
 C382 C 0.11990 0.74414 -0.13441
 C383 C 0.09700 0.83920 -0.09208
 C384 C 0.06360 0.84870 -0.08455
 C385 C 0.03681 0.82754 -0.09316
 C386 C 0.04408 0.79650 -0.10879
 C387 C 0.00339 0.83775 -0.08547
 C388 C -0.00320 0.86821 -0.06876
 C389 C 0.02356 0.88879 -0.05935
 C390 C 0.05683 0.87894 -0.06788
 H391 H 0.06538 0.73776 -0.13465
 H392 H 0.15826 0.81537 -0.10784
 H393 H 0.17190 0.76139 -0.13195
 H394 H 0.11748 0.85563 -0.08551
 H395 H 0.02362 0.77998 -0.11513
 H396 H -0.01758 0.82200 -0.09198
 H397 H -0.02907 0.87530 -0.06259
 H398 H 0.07775 0.89475 -0.06125
 C399 C 0.59110 0.75353 1.11668
 C400 C 0.58420 0.72134 1.10438
 C401 C 0.60996 0.70246 1.08799
 C402 C 0.64224 0.71577 1.08459
 C403 C 0.64887 0.74785 1.09648
 C404 C 0.62339 0.76767 1.11232
 C405 C 0.60297 0.67082 1.07473
 C406 C 0.57029 0.65798 1.07707
 C407 C 0.54449 0.67664 1.09369
 C408 C 0.55166 0.70809 1.10747
 C409 C 0.51177 0.66382 1.09565
 C410 C 0.50445 0.63326 1.08052
 C411 C 0.52978 0.61479 1.06336
 C412 C 0.56284 0.62712 1.06226
 H413 H 0.57056 0.76804 1.12787
 H414 H 0.66242 0.70143 1.07250
 H415 H 0.67455 0.75648 1.09399
 H416 H 0.62278 0.65652 1.06195
 H417 H 0.53177 0.72250 1.11999
 H418 H 0.49168 0.67772 1.10836
 H419 H 0.47878 0.62430 1.08188
 H420 H 0.58262 0.61321 1.04909
 C421 C 0.38531 0.40620 1.22870
 C422 C 0.39788 0.41525 1.19767
 C423 C 0.41446 0.39085 1.17749
 C424 C 0.41764 0.35767 1.18847
 C425 C 0.40473 0.34878 1.21927
 C426 C 0.38867 0.37296 1.23978
 C427 C 0.42781 0.40004 1.14680
 C428 C 0.42479 0.43334 1.13606
 C429 C 0.40763 0.45758 1.15598
 C430 C 0.39429 0.44839 1.18666
 C431 C 0.40453 0.49079 1.14510
 C432 C 0.41908 0.50014 1.11514
 C433 C 0.43697 0.47645 1.09552
 C434 C 0.43924 0.44291 1.10594
 H435 H 0.37337 0.42517 1.24440
 H436 H 0.43005 0.33860 1.17323
 H437 H 0.40703 0.32283 1.22692
 H438 H 0.44083 0.38140 1.13146
 H439 H 0.38142 0.46706 1.20207
 H440 H 0.39134 0.50964 1.15999
 H441 H 0.41687 0.52617 1.10768
 H442 H 0.45288 0.42438 1.09101
 C443 C 0.61108 -0.08050 0.25744
 C444 C 0.59289 -0.06910 0.28547
 C445 C 0.55715 -0.06731 0.28488
 C446 C 0.54024 -0.07700 0.25636
 C447 C 0.55846 -0.08902 0.22893
 C448 C 0.59393 -0.09100 0.22924
 C449 C 0.53884 -0.05650 0.31294
 C450 C 0.55571 -0.04816 0.34193
 C451 C 0.59141 -0.05019 0.34263
 C452 C 0.60979 -0.06027 0.31432
 C453 C 0.60815 -0.04258 0.37185
 C454 C 0.58974 -0.03347 0.40021
 C455 C 0.55423 -0.03132 0.39989
 C456 C 0.53739 -0.03842 0.37044
 H457 H 0.63844 -0.08234 0.25791
 H458 H 0.51289 -0.07583 0.25547
 H459 H 0.54484 -0.09690 0.20737
 H460 H 0.51144 -0.05518 0.31241
 H461 H 0.63717 -0.06184 0.31494
 H462 H 0.63549 -0.04403 0.37287
 H463 H 0.60339 -0.02801 0.42247
 H464 H 0.51002 -0.03708 0.36986
 C465 C -0.11602 1.11056 -0.21655
 C466 C -0.10541 1.09358 -0.18816
 C467 C -0.12870 1.07445 -0.16972
 C468 C -0.16240 1.07317 -0.17972
 C469 C -0.17280 1.09026 -0.20790
 C470 C -0.14972 1.10885 -0.22685
 C471 C -0.11794 1.05695 -0.14165
 C472 C -0.08421 1.05869 -0.13153
 C473 C -0.06116 1.07832 -0.14982
 C474 C -0.07180 1.09535 -0.17806
 C475 C -0.02775 1.08089 -0.13946
 C476 C -0.01725 1.06458 -0.11105
 C477 C -0.03968 1.04484 -0.09261
 C478 C -0.07316 1.04158 -0.10320
 H479 H -0.09783 1.12445 -0.23103
 H480 H -0.18072 1.05890 -0.16580
 H481 H -0.19906 1.08894 -0.21486
 H482 H -0.13581 1.04218 -0.12763
 H483 H -0.05394 1.11017 -0.19207
 H484 H -0.00978 1.09582 -0.15315
 H485 H 0.00873 1.06730 -0.10353
 H486 H -0.09069 1.02663 -0.08899
 C487 C 1.10796 0.58233 0.72985
 C488 C 1.09020 0.56662 0.70462
 C489 C 1.05458 0.56490 0.70661
 C490 C 1.03741 0.57892 0.73400
 C491 C 1.05533 0.59468 0.75903
 C492 C 1.09076 0.59652 0.75723
 C493 C 1.03678 0.54961 0.68104
 C494 C 1.05416 0.53653 0.65328
 C495 C 1.08983 0.53832 0.65145
 C496 C 1.10759 0.55307 0.67721
 C497 C 1.10718 0.52597 0.62352
 C498 C 1.08940 0.51286 0.59714
 C499 C 1.05395 0.51127 0.59837
 C500 C 1.03647 0.52256 0.62686
 H501 H 1.13522 0.58412 0.72785
 H502 H 1.01011 0.57783 0.73600
 H503 H 1.04152 0.60516 0.77997
 H504 H 1.00943 0.54842 0.68247
 H505 H 1.13493 0.55450 0.67566
 H506 H 1.13449 0.52713 0.62176
 H507 H 1.10342 0.50424 0.57552
 H508 H 1.00910 0.52176 0.62791
 C509 C 0.78477 0.63302 0.62148
 C510 C 0.81131 0.61231 0.60985
 C511 C 0.83394 0.59742 0.63236
 C512 C 0.82976 0.60382 0.66615
 C513 C 0.80301 0.62429 0.67756
 C514 C 0.78024 0.63887 0.65534
 C515 C 0.86014 0.57617 0.62075
 C516 C 0.86395 0.56968 0.58693
 C517 C 0.84137 0.58477 0.56447
 C518 C 0.81518 0.60593 0.57608
 C519 C 0.84546 0.57860 0.53069
 C520 C 0.87195 0.55800 0.51914
 C521 C 0.89458 0.54291 0.54121
 C522 C 0.89021 0.54860 0.57515
 H523 H 0.76695 0.64371 0.60424
 H524 H 0.84690 0.59270 0.68375
 H525 H 0.79998 0.62862 0.70377
 H526 H 0.87749 0.56468 0.63798
 H527 H 0.79780 0.61740 0.55885
 H528 H 0.82838 0.58996 0.51317
 H529 H 0.87479 0.55394 0.49287
 H530 H 0.90773 0.53733 0.59234
 C531 C 0.73638 0.38210 1.09254
 C532 C 0.70899 0.40204 1.08178
 C533 C 0.70796 0.43685 1.08888
 C534 C 0.73391 0.45105 1.10702
 C535 C 0.76023 0.43094 1.11881
 C536 C 0.76195 0.39610 1.11199
 C537 C 0.68071 0.45688 1.07835
 C538 C 0.65369 0.44235 1.06185
 C539 C 0.65417 0.40737 1.05549
 C540 C 0.68207 0.38754 1.06496
 C541 C 0.62647 0.39274 1.04016
 C542 C 0.59852 0.41251 1.03137
 C543 C 0.59803 0.44738 1.03707
 C544 C 0.62588 0.46219 1.05215
 H545 H 0.73642 0.35533 1.08754
 H546 H 0.73361 0.47772 1.11257
 H547 H 0.77987 0.44314 1.13251
 H548 H 0.68017 0.48363 1.08365
 H549 H 0.68247 0.36075 1.05988
 H550 H 0.62629 0.36596 1.03522
 H551 H 0.57743 0.40056 1.01962
 H552 H 0.62560 0.48902 1.05693
 C553 C 0.24124 1.10756 -0.11621
 C554 C 0.21218 1.09696 -0.09909
 C555 C 0.19161 1.12075 -0.08187
 C556 C 0.20068 1.15452 -0.08146
 C557 C 0.23027 1.16465 -0.09725
 C558 C 0.25118 1.14144 -0.11478
 C559 C 0.16255 1.11042 -0.06488
 C560 C 0.15431 1.07635 -0.06386
 C561 C 0.17539 1.05232 -0.08019
 C562 C 0.20390 1.06281 -0.09812
 C563 C 0.16766 1.01816 -0.07817
 C564 C 0.13915 1.00792 -0.06046
 C565 C 0.11753 1.03168 -0.04485
 C566 C 0.12537 1.06592 -0.04661
 H567 H 0.25715 1.08898 -0.12875
 H568 H 0.18513 1.17312 -0.06851
 H569 H 0.23612 1.19112 -0.09648
 H570 H 0.14664 1.12883 -0.05200
 H571 H 0.21988 1.04438 -0.11086
 H572 H 0.18360 0.99935 -0.09036
 H573 H 0.13356 0.98139 -0.05966
 H574 H 0.10900 1.08444 -0.03451
 C575 C 0.27135 -0.14081 0.39393
 C576 C 0.30052 -0.12411 0.40391
 C577 C 0.32198 -0.10952 0.38002
 C578 C 0.31423 -0.11236 0.34660
 C579 C 0.28526 -0.12908 0.33688
 C580 C 0.26333 -0.14323 0.36035
 C581 C 0.35070 -0.09213 0.38989
 C582 C 0.35831 -0.08913 0.42338
 C583 C 0.33717 -0.10414 0.44727
 C584 C 0.30839 -0.12149 0.43740
 C585 C 0.34508 -0.10133 0.48069
 C586 C 0.37342 -0.08350 0.49041
 C587 C 0.39433 -0.06798 0.46693
 C588 C 0.38664 -0.07112 0.43335
 H589 H 0.25453 -0.15126 0.41235
 H590 H 0.33053 -0.10155 0.32795
 H591 H 0.28010 -0.13109 0.31085
 H592 H 0.36699 -0.08075 0.37153
 H593 H 0.29204 -0.13278 0.45577
 H594 H 0.32922 -0.11275 0.49934
 H595 H 0.37870 -0.08150 0.51641
 H596 H 0.40261 -0.05946 0.41493
 C597 C 0.62075 -0.21643 0.63024
 C598 C 0.60854 -0.18900 0.61231
 C599 C 0.63141 -0.16696 0.59702
 C600 C 0.66621 -0.17287 0.59993
 C601 C 0.67829 -0.20029 0.61791
 C602 C 0.65581 -0.22256 0.63360
 C603 C 0.61908 -0.13941 0.57914
 C604 C 0.58413 -0.13366 0.57653
 C605 C 0.56131 -0.15588 0.59184
 C606 C 0.57365 -0.18345 0.60947
 C607 C 0.52645 -0.15003 0.58950
 C608 C 0.51418 -0.12220 0.57245
 C609 C 0.53655 -0.09982 0.55720
 C610 C 0.57158 -0.10588 0.55914
 H611 H 0.60252 -0.23371 0.64031
 H612 H 0.68416 -0.15609 0.58853
 H613 H 0.70537 -0.20302 0.62040
 H614 H 0.63664 -0.12240 0.56742
 H615 H 0.55609 -0.20044 0.62122
 H616 H 0.50865 -0.16684 0.60108
 H617 H 0.48709 -0.11819 0.57124
 H618 H 0.58908 -0.08873 0.54760
 C619 C 1.10552 0.71001 0.37881
 C620 C 1.09552 0.68049 0.39493
 C621 C 1.12005 0.65930 0.40942
 C622 C 1.15413 0.66786 0.40744
 C623 C 1.16395 0.69722 0.39153
 C624 C 1.13994 0.71915 0.37700
 C625 C 1.11016 0.62990 0.42570
 C626 C 1.07592 0.62140 0.42776
 C627 C 1.05135 0.64263 0.41324
 C628 C 1.06126 0.67200 0.39698
 C629 C 1.01718 0.63411 0.41516
 C630 C 1.00737 0.60482 0.43117
 C631 C 1.03146 0.58338 0.44577
 C632 C 1.06582 0.59197 0.44401
 H633 H 1.08602 0.72641 0.36910
 H634 H 1.17336 0.65170 0.41807
 H635 H 1.19077 0.70174 0.38971
 H636 H 1.12911 0.61369 0.43679
 H637 H 1.04232 0.68822 0.38592
 H638 H 0.99800 0.65008 0.40418
 H639 H 0.98075 0.59897 0.43210
 H640 H 1.08472 0.57569 0.45503
 C641 C -0.09694 1.22856 0.11574
 C642 C -0.07963 1.20265 0.09877
 C643 C -0.07922 1.20213 0.06407
 C644 C -0.09644 1.22753 0.04698
 C645 C -0.11349 1.25350 0.06407
 C646 C -0.11363 1.25493 0.09884
 C647 C -0.06186 1.17610 0.04710
 C648 C -0.04530 1.15039 0.06455
 C649 C -0.04587 1.15098 0.09935
 C650 C -0.06285 1.17717 0.11620
 C651 C -0.03008 1.12494 0.11680
 C652 C -0.01487 1.09786 0.09999
 C653 C -0.01452 1.09669 0.06545
 C654 C -0.02912 1.12348 0.04783
 H655 H -0.09811 1.22719 0.14232
 H656 H -0.09639 1.22755 0.02031
 H657 H -0.12508 1.27321 0.04964
 H658 H -0.06164 1.17559 0.02041
 H659 H -0.06329 1.17753 0.14290
 H660 H -0.03029 1.12505 0.14347
 H661 H -0.00388 1.07746 0.11404
 H662 H -0.02946 1.12253 0.02116
 C663 C 0.40774 0.28088 0.87483
 C664 C 0.42291 0.30702 0.89227
 C665 C 0.42981 0.30299 0.92611
 C666 C 0.42183 0.27282 0.94181
 C667 C 0.40617 0.24725 0.92444
 C668 C 0.39868 0.25119 0.89099
 C669 C 0.44374 0.32944 0.94396
 C670 C 0.45017 0.36018 0.92863
 C671 C 0.44355 0.36422 0.89476
 C672 C 0.43028 0.33748 0.87670
 C673 C 0.44964 0.39520 0.87973
 C674 C 0.46141 0.42218 0.89823
 C675 C 0.46757 0.41858 0.93204
 C676 C 0.46234 0.38724 0.94692
 H677 H 0.40169 0.28414 0.84908
 H678 H 0.42702 0.26930 0.96768
 H679 H 0.39958 0.22439 0.93720
 H680 H 0.44876 0.32639 0.96996
 H681 H 0.42492 0.34066 0.85078
 H682 H 0.44476 0.39875 0.85380
 H683 H 0.46534 0.44599 0.88610
 H684 H 0.46695 0.38406 0.97296
 C685 C 0.63965 0.63539 0.78911
 C686 C 0.61924 0.61956 0.81253
 C687 C 0.58424 0.61636 0.80697
 C688 C 0.57026 0.62936 0.77809
 C689 C 0.59083 0.64509 0.75481
 C690 C 0.62569 0.64802 0.76004
 C691 C 0.56386 0.60024 0.83032
 C692 C 0.57805 0.58753 0.85923
 C693 C 0.61304 0.59097 0.86481
 C694 C 0.63342 0.60684 0.84138
 C695 C 0.62709 0.57872 0.89389
 C696 C 0.60662 0.56357 0.91752
 C697 C 0.57180 0.56006 0.91231
 C698 C 0.55772 0.57180 0.88291
 H699 H 0.66645 0.63799 0.79353
 H700 H 0.54349 0.62714 0.77340
 H701 H 0.57962 0.65436 0.73239
 H702 H 0.53701 0.59774 0.82607
 H703 H 0.66026 0.60941 0.84565
 H704 H 0.65385 0.58115 0.89853
 H705 H 0.61807 0.55462 0.93996
 H706 H 0.53085 0.56945 0.87879
 C707 C 0.37560 0.10625 0.73632
 C708 C 0.38811 0.09628 0.70510
 C709 C 0.39968 0.12085 0.68276
 C710 C 0.39792 0.15487 0.69163
 C711 C 0.38563 0.16453 0.72264
 C712 C 0.37484 0.14041 0.74550
 C713 C 0.41328 0.11108 0.65206
 C714 C 0.41568 0.07700 0.64335
 C715 C 0.40361 0.05238 0.66534
 C716 C 0.38985 0.06217 0.69607
 C717 C 0.40590 0.01835 0.65632
 C718 C 0.42049 0.00876 0.62607
 C719 C 0.43319 0.03300 0.60429
 C720 C 0.43039 0.06717 0.61309
 H721 H 0.36747 0.08743 0.75377
 H722 H 0.40640 0.17403 0.67470
 H723 H 0.38467 0.19103 0.72885
 H724 H 0.42240 0.12999 0.63514
 H725 H 0.38091 0.04325 0.71307
 H726 H 0.39669 -0.00089 0.67278
 H727 H 0.42228 -0.01773 0.61995
 H728 H 0.43987 0.08618 0.59650
 C729 C 0.13050 0.86299 0.22229
 C730 C 0.11245 0.87926 0.19729
 C731 C 0.07736 0.88557 0.20141
 C732 C 0.06084 0.87471 0.23014
 C733 C 0.07898 0.85824 0.25480
 C734 C 0.11400 0.85263 0.25132
 C735 C 0.05944 0.90270 0.17682
 C736 C 0.07607 0.91316 0.14795
 C737 C 0.11100 0.90606 0.14355
 C738 C 0.12900 0.88942 0.16832
 C739 C 0.12738 0.91560 0.11432
 C740 C 0.10937 0.93192 0.08957
 C741 C 0.07479 0.93961 0.09379
 C742 C 0.05830 0.93031 0.12321
 H743 H 0.15745 0.85837 0.21921
 H744 H 0.03395 0.87920 0.23368
 H745 H 0.06579 0.85069 0.27702
 H746 H 0.03258 0.90780 0.18012
 H747 H 0.15585 0.88430 0.16502
 H748 H 0.15410 0.91024 0.11049
 H749 H 0.12260 0.93880 0.06714
 H750 H 0.03152 0.93573 0.12653
 C751 C 0.87974 0.39246 0.26078
 C752 C 0.89213 0.39932 0.29223
 C753 C 0.90214 0.37252 0.31284
 C754 C 0.89884 0.33932 0.30194
 C755 C 0.88621 0.33270 0.27073
 C756 C 0.87689 0.35914 0.24966
 C757 C 0.91550 0.37932 0.34389
 C758 C 0.91882 0.41260 0.35467
 C759 C 0.90807 0.43938 0.33436
 C760 C 0.89492 0.43258 0.30323
 C761 C 0.91092 0.47258 0.34542
 C762 C 0.92475 0.47927 0.37611
 C763 C 0.93624 0.45290 0.39621
 C764 C 0.93297 0.41955 0.38537
 H765 H 0.87303 0.41312 0.24473
 H766 H 0.90609 0.31847 0.31752
 H767 H 0.88360 0.30677 0.26312
 H768 H 0.92350 0.35875 0.35954
 H769 H 0.88702 0.45316 0.28753
 H770 H 0.90269 0.49340 0.33024
 H771 H 0.92703 0.50521 0.38385
 H772 H 0.94152 0.39900 0.40075
   
