data_POSCAR
  _audit_creation_date              2014-09-24
  _audit_creation_method            'ToBaCCo'
  _symmetry_space_group_name_H-M    'P1'
  _symmetry_Int_Tables_number       1
  _symmetry_cell_setting            triclinic
  loop_
  _symmetry_equiv_pos_as_xyz
 x,y,z
_cell_length_a 24.9167
_cell_length_b 24.8273
_cell_length_c 42.7922
_cell_angle_alpha 89.925000
_cell_angle_beta 91.376200
_cell_angle_gamma 90.184000
loop_
  _atom_site_label
  _atom_site_type_symbol
  _atom_site_fract_x
  _atom_site_fract_y
  _atom_site_fract_z
C1 C -0.03175 0.33735 0.98306
 C2 C -0.03429 0.33726 1.01501
 C3 C -0.01208 0.38565 1.02528
 N4 N 0.00286 0.41575 1.00061
 C5 C -0.00895 0.38611 0.97483
 C6 C -0.00298 0.40037 1.05696
 C7 C 0.00650 0.45488 1.06553
 C8 C 0.03185 0.47153 1.09310
 C9 C 0.03121 0.52682 1.09305
 C10 C 0.00556 0.54271 1.06543
 N11 N -0.00871 0.49859 1.04853
 C12 C -0.00500 0.59693 1.05673
 C13 C -0.01313 0.61157 1.02494
 C14 C -0.03525 0.65969 1.01431
 C15 C -0.03163 0.65961 0.98241
 C16 C -0.00847 0.61104 0.97453
 N17 N 0.00267 0.58158 1.00049
 C18 C 0.00516 0.59596 0.94398
 C19 C 0.01688 0.54228 0.93594
 C20 C 0.04017 0.52614 0.90838
 C21 C 0.03972 0.47070 0.90838
 C22 C 0.01625 0.45473 0.93596
 N23 N 0.00259 0.49854 0.95263
 C24 C 0.00402 0.40113 0.94413
 H25 H -0.04525 0.30529 0.96763
 H26 H -0.05055 0.30513 1.02907
 H27 H -0.02099 0.49860 0.97238
 H28 H 0.04965 0.44647 1.11125
 H29 H 0.04841 0.55242 1.11115
 H30 H -0.05220 0.69165 1.02809
 H31 H -0.04482 0.69147 0.96677
 H32 H 0.05426 0.44511 0.88998
 H33 H -0.03198 0.49830 1.02795
 H34 H 0.05509 0.55162 0.88996
 C35 C 0.66028 0.03364 0.48144
 C36 C 0.66310 0.03521 0.51343
 C37 C 0.61502 0.01427 0.52394
 N38 N 0.58249 0.00109 0.49934
 C39 C 0.61025 0.01284 0.47338
 C40 C 0.60252 0.00552 0.55574
 C41 C 0.54886 -0.00365 0.56496
 C42 C 0.53413 -0.02732 0.59293
 C43 C 0.47903 -0.02674 0.59343
 C44 C 0.46143 -0.00350 0.56559
 N45 N 0.50415 0.01039 0.54831
 C46 C 0.40708 0.00662 0.55754
 C47 C 0.38910 0.01686 0.52660
 C48 C 0.33800 0.03422 0.51806
 C49 C 0.33532 0.03410 0.48600
 C50 C 0.38486 0.01661 0.47609
 N51 N 0.41767 0.00610 0.50095
 C52 C 0.39780 0.00658 0.44470
 C53 C 0.45057 -0.00462 0.43535
 C54 C 0.46388 -0.02606 0.40665
 C55 C 0.51904 -0.02776 0.40610
 C56 C 0.53779 -0.00721 0.43445
 N57 N 0.49585 0.00683 0.45211
 C58 C 0.59230 0.00191 0.44251
 H59 H 0.69134 0.04672 0.46585
 H60 H 0.69675 0.05025 0.52732
 H61 H 0.49820 0.02862 0.47285
 H62 H 0.56032 -0.04369 0.61109
 H63 H 0.45468 -0.04206 0.61209
 H64 H 0.30581 0.04518 0.53332
 H65 H 0.30067 0.04502 0.47166
 H66 H 0.54262 -0.04193 0.38687
 H67 H 0.50299 0.03306 0.52782
 H68 H 0.43671 -0.03882 0.38797
 C69 C 0.09819 0.00376 0.26469
 H70 H 0.10174 0.00413 0.23954
 C71 C 0.14431 0.00556 0.28393
 H72 H 0.18357 0.00712 0.27363
 C73 C 0.04278 0.00157 0.30898
 H74 H 0.00325 0.00080 0.31874
 C75 C 0.08778 0.00337 0.32902
 H76 H 0.08270 0.00334 0.35409
 N77 N 0.04872 0.00088 0.27744
 C78 C -0.05478 -0.07595 0.20665
 H79 H -0.08771 -0.04765 0.20571
 C80 C -0.05585 -0.12125 0.18733
 H81 H -0.08961 -0.12785 0.17135
 C82 C 0.02986 -0.10166 0.22829
 H83 H 0.06301 -0.09418 0.24442
 C84 C 0.03036 -0.14748 0.20938
 H85 H 0.06419 -0.17476 0.21075
 Zn86 Zn -0.01228 -0.00228 0.25015
 N87 N -0.01180 -0.06638 0.22611
 C88 C -0.00886 0.05264 0.19201
 N89 N -0.00997 0.05886 0.22359
 C90 C -0.00758 0.10864 0.23689
 C91 C -0.00553 0.15476 0.21816
 C92 C -0.00681 0.09761 0.17248
 C93 C -0.08459 -0.04620 0.29212
 C94 C -0.12935 -0.04810 0.31110
 C95 C -0.15683 0.03847 0.29049
 C96 C -0.11151 0.03878 0.27188
 N97 N -0.07590 -0.00268 0.27352
 H98 H -0.00923 0.01289 0.18184
 H99 H -0.00749 0.11242 0.26208
 H100 H -0.00407 0.19425 0.22888
 H101 H -0.00622 0.09227 0.14737
 H102 H -0.05600 -0.07891 0.29265
 H103 H -0.13527 -0.08231 0.32639
 H104 H -0.18441 0.07211 0.28958
 H105 H -0.10464 0.07240 0.25645
 C106 C -0.01261 -0.15701 0.18848
 C107 C 0.13897 0.00501 0.31639
 C108 C -0.16545 -0.00510 0.31052
 C109 C -0.00538 0.14910 0.18565
 C110 C 0.00670 0.10940 0.76324
 H111 H 0.00633 0.11365 0.73807
 C112 C 0.00550 0.15518 0.78221
 H113 H 0.00441 0.19488 0.77169
 C114 C 0.00815 0.05259 0.80786
 H115 H 0.00832 0.01267 0.81785
 C116 C 0.00693 0.09720 0.82762
 H117 H 0.00683 0.09140 0.85272
 N118 N 0.00891 0.05939 0.77630
 C119 C 0.08308 -0.04418 0.70726
 H120 H 0.05447 -0.07706 0.70665
 C121 C 0.12788 -0.04566 0.68831
 H122 H 0.13380 -0.07968 0.67296
 C123 C 0.11011 0.04067 0.72773
 H124 H 0.10333 0.07404 0.74328
 C125 C 0.15548 0.04079 0.70915
 H126 H 0.18315 0.07452 0.71020
 Zn127 Zn 0.01102 -0.00136 0.74957
 N128 N 0.07443 -0.00094 0.72598
 C129 C -0.04469 0.00246 0.69097
 N130 N -0.05033 0.00137 0.72253
 C131 C -0.09970 0.00354 0.73544
 C132 C -0.14600 0.00498 0.71634
 C133 C -0.08986 0.00392 0.67108
 C134 C 0.05479 -0.07464 0.79263
 C135 C 0.05650 -0.11974 0.81215
 C136 C -0.03036 -0.14675 0.79113
 C137 C -0.03048 -0.10109 0.77200
 N138 N 0.01122 -0.06553 0.77359
 H139 H -0.00525 0.00226 0.68109
 H140 H -0.10303 0.00362 0.76060
 H141 H -0.18518 0.00596 0.72676
 H142 H -0.08500 0.00421 0.64598
 H143 H 0.08769 -0.04608 0.79312
 H144 H 0.09076 -0.12599 0.82779
 H145 H -0.06418 -0.17428 0.79024
 H146 H -0.06414 -0.09393 0.75621
 C147 C 0.16410 -0.00252 0.68904
 C148 C 0.00595 0.14892 0.81470
 C149 C 0.01325 -0.15576 0.81163
 C150 C -0.14095 0.00482 0.68386
 C151 C -0.00739 -0.28106 0.12611
 C152 C -0.03273 -0.33052 0.13132
 C153 C -0.03150 -0.37100 0.10863
 C154 C -0.00518 -0.36252 0.08017
 C155 C 0.02096 -0.31270 0.07561
 C156 C 0.01970 -0.27243 0.09832
 C157 C -0.00971 -0.23859 0.14889
 C158 C -0.01127 -0.20194 0.16730
 H159 H -0.05393 -0.33759 0.15276
 H160 H -0.05266 -0.40837 0.11294
 H161 H 0.04331 -0.30513 0.05464
 H162 H 0.03985 -0.23444 0.09415
 C163 C -0.00049 0.27695 0.12571
 C164 C 0.02607 0.26980 0.09763
 C165 C 0.02586 0.31065 0.07519
 C166 C -0.00124 0.35958 0.08031
 C167 C -0.02686 0.36667 0.10909
 C168 C -0.02662 0.32558 0.13152
 C169 C -0.00216 0.23341 0.14791
 C170 C -0.00358 0.19562 0.16560
 H171 H 0.04672 0.23242 0.09297
 H172 H 0.04762 0.30418 0.05391
 H173 H -0.04877 0.40327 0.11381
 H174 H -0.04752 0.33144 0.15316
 C175 C 0.28741 -0.00075 0.62795
 C176 C 0.32834 0.03800 0.63002
 C177 C 0.36784 0.03998 0.60734
 C178 C 0.36654 0.00332 0.58237
 C179 C 0.32592 -0.03600 0.58072
 C180 C 0.28651 -0.03793 0.60337
 C181 C 0.24515 -0.00134 0.65028
 C182 C 0.20873 -0.00189 0.66832
 H183 H 0.32933 0.06703 0.64890
 H184 H 0.39891 0.07052 0.60894
 H185 H 0.32451 -0.06474 0.56169
 H186 H 0.25500 -0.06801 0.60153
 C187 C -0.27027 0.00372 0.62347
 C188 C -0.26538 -0.02423 0.59536
 C189 C -0.30742 -0.02410 0.57319
 C190 C -0.35527 0.00427 0.57867
 C191 C -0.35996 0.03154 0.60740
 C192 C -0.31772 0.03136 0.62954
 C193 C -0.22593 0.00464 0.64565
 C194 C -0.18773 0.00499 0.66348
 H195 H -0.22894 -0.04607 0.59051
 H196 H -0.30278 -0.04697 0.55189
 H197 H -0.39568 0.05448 0.61234
 H198 H -0.32184 0.05329 0.65122
 C199 C 0.01150 -0.28015 0.87406
 C200 C -0.02411 -0.32352 0.87017
 C201 C -0.02594 -0.36414 0.89279
 C202 C 0.00783 -0.36167 0.91952
 C203 C 0.04375 -0.31829 0.92316
 C204 C 0.04552 -0.27773 0.90054
 C205 C 0.01225 -0.23731 0.85140
 C206 C 0.01279 -0.20060 0.83295
 H207 H -0.05074 -0.32568 0.84981
 H208 H -0.05401 -0.39722 0.88968
 H209 H 0.07016 -0.31583 0.94359
 H210 H 0.07313 -0.24430 0.90381
 C211 C 0.00688 0.27628 0.87489
 C212 C 0.04185 0.27422 0.90097
 C213 C 0.04138 0.31524 0.92327
 C214 C 0.00583 0.35871 0.91974
 C215 C -0.02872 0.36097 0.89334
 C216 C -0.02821 0.31987 0.87102
 C217 C 0.00611 0.23268 0.85277
 C218 C 0.00581 0.19508 0.83498
 H219 H 0.06908 0.24064 0.90422
 H220 H 0.06839 0.31295 0.94344
 H221 H -0.05650 0.39414 0.89032
 H222 H -0.05553 0.32176 0.85097
 C223 C -0.28816 -0.00422 0.37201
 C224 C -0.28664 -0.04090 0.39689
 C225 C -0.32598 -0.03932 0.41958
 C226 C -0.36721 -0.00095 0.41764
 C227 C -0.36896 0.03537 0.39244
 C228 C -0.32954 0.03374 0.36973
 C229 C -0.24611 -0.00453 0.34955
 C230 C -0.20987 -0.00481 0.33138
 H231 H -0.25473 -0.07034 0.39892
 H232 H -0.32410 -0.06767 0.43884
 H233 H -0.40037 0.06534 0.39067
 H234 H -0.33096 0.06243 0.35063
 C235 C 0.26864 0.00482 0.37652
 C236 C 0.27022 -0.03339 0.40061
 C237 C 0.31257 -0.03317 0.42260
 C238 C 0.35369 0.00542 0.42076
 C239 C 0.35233 0.04326 0.39633
 C240 C 0.30991 0.04299 0.37431
 C241 C 0.22392 0.00544 0.35462
 C242 C 0.18563 0.00552 0.33686
 H243 H 0.23849 -0.06307 0.40254
 H244 H 0.31317 -0.06278 0.44122
 H245 H 0.38377 0.07327 0.39459
 H246 H 0.30903 0.07277 0.35578
   
