data_POSCAR
  _audit_creation_date              2014-09-24
  _audit_creation_method            'ToBaCCo'
  _symmetry_space_group_name_H-M    'P1'
  _symmetry_Int_Tables_number       1
  _symmetry_cell_setting            triclinic
  loop_
  _symmetry_equiv_pos_as_xyz
 x,y,z
_cell_length_a 23.1427
_cell_length_b 23.0892
_cell_length_c 23.4269
_cell_angle_alpha 90.122900
_cell_angle_beta 90.127900
_cell_angle_gamma 90.218300
loop_
  _atom_site_label
  _atom_site_type_symbol
  _atom_site_fract_x
  _atom_site_fract_y
  _atom_site_fract_z
C1 C 0.47033 1.00031 -0.55327
 C2 C 0.53144 1.00009 -0.55334
 C3 C 0.56121 1.00016 -0.50103
 C4 C 0.53173 1.00024 -0.44871
 C5 C 0.47073 1.00003 -0.44867
 C6 C 0.44093 1.00018 -0.50089
 H7 H 0.39398 1.00018 -0.50064
 H8 H 0.60819 1.00015 -0.50103
 C9 C -0.55245 1.46916 0.00081
 C10 C -0.55282 1.53003 0.00045
 C11 C -0.50051 1.56047 0.00047
 C12 C -0.44777 1.53112 0.00055
 C13 C -0.44740 1.47025 0.00035
 C14 C -0.49971 1.43982 0.00063
 H15 H -0.49925 1.39276 0.00068
 H16 H -0.50097 1.60753 0.00040
 C17 C 0.00017 0.46827 0.44693
 C18 C -0.00022 0.52932 0.44687
 C19 C -0.00022 0.55926 0.49894
 C20 C -0.00008 0.52965 0.55104
 C21 C -0.00016 0.46869 0.55114
 C22 C 0.00007 0.43868 0.49913
 H23 H 0.00018 0.39162 0.49939
 H24 H -0.00033 0.60629 0.49892
 O25 O -0.14932 1.00176 -0.07693
 O26 O 0.14897 0.99840 -0.07654
 O27 O -0.00188 1.07913 -0.14708
 O28 O 0.00141 0.92089 -0.14727
 O29 O 0.00122 0.85130 -0.07659
 O30 O -0.00156 1.14886 -0.07623
 O31 O 0.07897 0.99826 -0.14712
 O32 O -0.07945 1.00178 -0.14732
 Zr33 Zr -0.00020 1.00005 -0.10129
 O34 O 0.05212 0.94788 -0.05198
 O35 O -0.05242 1.05232 -0.05199
 C36 C -0.13272 1.00256 -0.12971
 C37 C 0.13227 0.99752 -0.12937
 C38 C -0.00255 1.13236 -0.12907
 C39 C 0.00212 0.86769 -0.12939
 H40 H 0.07692 1.07699 -0.07569
 O41 O 0.05221 1.05208 -0.05159
 H42 H -0.07727 0.92316 -0.07609
 O43 O -0.05251 0.94812 -0.05186
 O44 O 0.14914 1.00200 0.07717
 O45 O -0.14920 0.99843 0.07680
 O46 O 0.07761 1.14880 0.00245
 O47 O 0.07657 0.85155 -0.00196
 O48 O -0.07781 0.85150 0.00189
 O49 O -0.07678 1.14874 -0.00181
 O50 O 0.00215 1.07942 0.14756
 O51 O -0.00208 0.92113 0.14736
 O52 O 0.00233 1.14901 0.07687
 O53 O -0.00240 0.85143 0.07648
 O54 O 0.14865 1.07894 0.00248
 O55 O -0.14831 1.07884 -0.00202
 O56 O -0.14885 0.92136 0.00191
 O57 O 0.14810 0.92145 -0.00182
 O58 O 0.07930 1.00211 0.14760
 O59 O -0.07921 0.99844 0.14739
 Zr60 Zr 0.10166 1.00018 0.00026
 Zr61 Zr -0.10187 1.00011 0.00000
 Zr62 Zr 0.00025 1.10115 0.00027
 Zr63 Zr -0.00046 0.89915 0.00001
 Zr64 Zr -0.00000 1.00024 0.10159
 O65 O -0.05268 0.94794 0.05214
 O66 O 0.05258 1.05245 0.05240
 C67 C 0.13258 1.00287 0.12996
 C68 C -0.13252 0.99764 0.12963
 C69 C 0.13082 1.13211 0.00344
 C70 C 0.12989 0.86827 -0.00281
 C71 C -0.13102 0.86819 0.00280
 C72 C -0.13010 1.13202 -0.00284
 C73 C 0.00315 1.13263 0.12967
 C74 C -0.00312 0.86790 0.12932
 H75 H -0.07660 1.07706 0.07615
 O76 O -0.05205 1.05212 0.05200
 H77 H 0.07654 0.92337 0.07615
 O78 O 0.05194 0.94826 0.05200
 C79 C 0.35889 1.00213 0.31562
 N80 N 0.33582 0.95178 0.29590
 N81 N 0.29078 0.95229 0.26028
 C82 C 0.26690 1.00315 0.24366
 N83 N 0.29003 1.05352 0.26327
 N84 N 0.33508 1.05300 0.29890
 C85 C 0.40347 1.00141 0.35867
 C86 C 0.43732 1.00084 0.39807
 C87 C 0.21807 1.00360 0.20534
 C88 C 0.17803 1.00356 0.17207
 C89 C -0.35802 0.99839 0.31529
 N90 N -0.33440 0.94752 0.29818
 N91 N -0.28956 0.94702 0.26250
 C92 C -0.26645 0.99740 0.24320
 N93 N -0.29014 1.04826 0.26020
 N94 N -0.33498 1.04875 0.29588
 C95 C -0.40232 0.99908 0.35843
 C96 C -0.43590 0.99961 0.39791
 C97 C -0.21780 0.99696 0.20488
 C98 C -0.17788 0.99699 0.17164
 C99 C -0.35783 1.00188 -0.31681
 N100 N -0.33529 0.95151 -0.29720
 N101 N -0.29057 0.95198 -0.26116
 C102 C -0.26653 1.00284 -0.24400
 N103 N -0.28913 1.05322 -0.26349
 N104 N -0.33385 1.05274 -0.29953
 C105 C -0.40202 1.00122 -0.36025
 C106 C -0.43557 1.00070 -0.39990
 C107 C -0.21797 1.00325 -0.20534
 C108 C -0.17810 1.00321 -0.17189
 C109 C 0.35764 0.99822 -0.31514
 N110 N 0.33349 0.94736 -0.29843
 N111 N 0.28864 0.94685 -0.26276
 C112 C 0.26607 0.99722 -0.24308
 N113 N 0.29028 1.04808 -0.25968
 N114 N 0.33513 1.04858 -0.29535
 C115 C 0.40215 0.99892 -0.35807
 C116 C 0.43607 0.99949 -0.39725
 C117 C 0.21747 0.99679 -0.20470
 C118 C 0.17759 0.99683 -0.17141
 C119 C 0.31468 1.35973 0.00320
 N120 N 0.29901 1.33512 0.05335
 N121 N 0.26370 1.28946 0.05390
 C122 C 0.24370 1.26669 0.00425
 N123 N 0.25916 1.29142 -0.04589
 N124 N 0.29447 1.33708 -0.04642
 C125 C 0.35824 1.40365 0.00229
 C126 C 0.39842 1.43673 0.00152
 C127 C 0.20610 1.21752 0.00467
 C128 C 0.17304 1.17729 0.00446
 C129 C 0.31185 0.64053 -0.00194
 N130 N 0.29580 0.66475 -0.05217
 N131 N 0.26089 0.71045 -0.05283
 C132 C 0.24168 0.73366 -0.00322
 N133 N 0.25753 0.70931 0.04699
 N134 N 0.29243 0.66362 0.04764
 C135 C 0.35509 0.59663 -0.00099
 C136 C 0.39506 0.56361 -0.00023
 C137 C 0.20450 0.78286 -0.00378
 C138 C 0.17177 0.82311 -0.00368
 C139 C -0.31489 0.64056 0.00242
 N140 N -0.29552 0.66345 -0.04724
 N141 N -0.26021 0.70912 -0.04674
 C142 C -0.24390 0.73362 0.00342
 N143 N -0.26306 0.71061 0.05311
 N144 N -0.29837 0.66494 0.05259
 C145 C -0.35845 0.59665 0.00165
 C146 C -0.39863 0.56356 0.00105
 C147 C -0.20629 0.78278 0.00384
 C148 C -0.17324 0.82302 0.00368
 C149 C -0.31208 1.35975 -0.00218
 N150 N -0.29651 1.33508 -0.05238
 N151 N -0.26159 1.28938 -0.05300
 C152 C -0.24190 1.26663 -0.00339
 N153 N -0.25726 1.29142 0.04680
 N154 N -0.29217 1.33712 0.04741
 C155 C -0.35532 1.40365 -0.00121
 C156 C -0.39528 1.43667 -0.00041
 C157 C -0.20472 1.21743 -0.00390
 C158 C -0.17199 1.17718 -0.00377
 C159 C 0.00242 1.35866 0.31491
 N160 N -0.04777 1.33606 0.29462
 N161 N -0.04719 1.29113 0.25881
 C162 C 0.00358 1.26700 0.24267
 N163 N 0.05380 1.28969 0.26281
 N164 N 0.05320 1.33463 0.29863
 C165 C 0.00154 1.40255 0.35839
 C166 C 0.00083 1.43578 0.39817
 C167 C 0.00407 1.21824 0.20453
 C168 C 0.00398 1.17816 0.17144
 C169 C -0.00203 1.35753 -0.31437
 N170 N -0.05278 1.33332 -0.29779
 N171 N -0.05327 1.28856 -0.26194
 C172 C -0.00299 1.26625 -0.24205
 N173 N 0.04774 1.29055 -0.25849
 N174 N 0.04823 1.33530 -0.29434
 C175 C -0.00130 1.40135 -0.35773
 C176 C -0.00071 1.43463 -0.39732
 C177 C -0.00340 1.21770 -0.20386
 C178 C -0.00330 1.17777 -0.17076
 C179 C 0.00157 0.64178 -0.31476
 N180 N 0.05232 0.66588 -0.29771
 N181 N 0.05280 0.71084 -0.26191
 C182 C 0.00250 0.73346 -0.24253
 N183 N -0.04824 0.70927 -0.25944
 N184 N -0.04870 0.66433 -0.29524
 C185 C 0.00090 0.59768 -0.35803
 C186 C 0.00038 0.56411 -0.39752
 C187 C 0.00290 0.78216 -0.20432
 C188 C 0.00282 0.82220 -0.17118
 C189 C -0.00233 0.64151 0.31317
 N190 N 0.04788 0.66439 0.29353
 N191 N 0.04731 0.70948 0.25811
 C192 C -0.00347 0.73351 0.24173
 N193 N -0.05370 0.71055 0.26123
 N194 N -0.05312 0.66545 0.29665
 C195 C -0.00150 0.59729 0.35614
 C196 C -0.00083 0.56370 0.39547
 C197 C -0.00397 0.78233 0.20387
 C198 C -0.00390 0.82242 0.17096
   
