data_POSCAR
  _audit_creation_date              2014-09-24
  _audit_creation_method            'ToBaCCo'
  _symmetry_space_group_name_H-M    'P1'
  _symmetry_Int_Tables_number       1
  _symmetry_cell_setting            triclinic
  loop_
  _symmetry_equiv_pos_as_xyz
 x,y,z
_cell_length_a 23.1925
_cell_length_b 21.9914
_cell_length_c 19.7486
_cell_angle_alpha 92.494400
_cell_angle_beta 94.093300
_cell_angle_gamma 88.546300
loop_
  _atom_site_label
  _atom_site_type_symbol
  _atom_site_fract_x
  _atom_site_fract_y
  _atom_site_fract_z
C1 C 0.22393 1.29609 0.26757
 N2 N 0.21626 1.26474 0.32375
 C3 C 0.24407 1.21055 0.33326
 N4 N 0.27990 1.18770 0.28666
 C5 C 0.28768 1.21887 0.23014
 N6 N 0.25946 1.27308 0.22052
 C7 C 0.80888 0.71991 0.16093
 N8 N 0.76620 0.75977 0.14076
 C9 C 0.77328 0.82065 0.15218
 N10 N 0.82358 0.84149 0.18323
 C11 C 0.86643 0.80148 0.20313
 N12 N 0.85905 0.74083 0.19170
 C13 C 0.82362 1.20909 -0.20751
 N14 N 0.83425 1.21501 -0.27345
 C15 C 0.79221 1.20327 -0.32340
 N16 N 0.73979 1.18397 -0.30747
 C17 C 0.72896 1.17858 -0.24128
 N18 N 0.77110 1.19096 -0.19160
 C19 C 0.15041 0.72990 -0.16343
 N20 N 0.10849 0.76659 -0.19259
 C21 C 0.12110 0.82363 -0.20956
 N22 N 0.17540 0.84452 -0.19607
 C23 C 0.21741 0.80818 -0.16669
 N24 N 0.20456 0.75120 -0.14970
 C25 C 0.55005 1.12164 -0.04763
 H26 H 0.53575 1.13715 0.00122
 C27 C 0.58979 1.15570 -0.07881
 H28 H 0.60554 1.19767 -0.05429
 C29 C 0.55287 1.04469 -0.13536
 H30 H 0.54069 0.99983 -0.15507
 C31 C 0.59176 1.07803 -0.16902
 H32 H 0.60906 1.05882 -0.21494
 N33 N 0.53319 1.06674 -0.07559
 C34 C 0.46353 1.04314 0.11277
 H35 H 0.49202 1.00546 0.12697
 C36 C 0.43112 1.07306 0.16163
 H37 H 0.43522 1.05891 0.21362
 C38 C 0.42025 1.10544 0.02728
 H39 H 0.41539 1.11670 -0.02564
 C40 C 0.38751 1.13696 0.07463
 H41 H 0.35758 1.17275 0.05798
 Zn42 Zn 0.49402 1.01442 -0.02198
 N43 N 0.45736 1.05960 0.04700
 C44 C 0.59414 0.98430 0.05832
 N45 N 0.55099 0.96000 0.01604
 C46 C 0.55080 0.89946 -0.00152
 C47 C 0.59443 0.86066 0.02513
 C48 C 0.63889 0.94711 0.08569
 C49 C 0.41397 0.98633 -0.13600
 C50 C 0.36609 0.95644 -0.16780
 C51 C 0.36273 0.89596 -0.06897
 C52 C 0.40943 0.92791 -0.03848
 N53 N 0.43466 0.97140 -0.07247
 H54 H 0.59387 1.03275 0.07042
 H55 H 0.51762 0.88120 -0.03725
 H56 H 0.59406 0.81256 0.01081
 H57 H 0.67295 0.96710 0.11915
 H58 H 0.43311 1.02279 -0.16101
 H59 H 0.34874 0.96947 -0.21757
 H60 H 0.34290 0.86194 -0.04076
 H61 H 0.42532 0.91858 0.01295
 C62 C 0.39246 1.12016 0.14259
 C63 C 0.61172 1.13343 -0.13938
 C64 C 0.34030 0.91059 -0.13421
 C65 C 0.63906 0.88443 0.06891
 C66 C -0.05705 0.56060 1.07151
 H67 H -0.01568 0.58011 1.06432
 C68 C -0.10106 0.59696 1.09748
 H69 H -0.09318 0.64452 1.11003
 C70 C -0.11725 0.47462 1.06352
 H71 H -0.12310 0.42685 1.05020
 C72 C -0.16250 0.50941 1.08969
 H73 H -0.20335 0.48850 1.09642
 N74 N -0.06578 0.50068 1.05519
 C75 C 0.09847 0.40003 1.07988
 H76 H 0.10322 0.38026 1.02941
 C77 C 0.13849 0.38505 1.13328
 H78 H 0.17415 0.35383 1.12387
 C79 C 0.04612 0.46442 1.15420
 H80 H 0.00975 0.49464 1.16276
 C81 C 0.08623 0.45242 1.20826
 H82 H 0.08068 0.47356 1.25800
 Zn83 Zn -0.00379 0.45543 1.01936
 N84 N 0.05268 0.43824 1.09141
 C85 C 0.08548 0.51871 0.96275
 N86 N 0.02827 0.50550 0.95639
 C87 C -0.00910 0.53530 0.91226
 C88 C 0.01020 0.58185 0.87434
 C89 C 0.10657 0.56510 0.92578
 C90 C -0.01649 0.32765 1.00392
 C91 C -0.03688 0.27316 0.97359
 C92 C -0.09152 0.33056 0.88844
 C93 C -0.06947 0.38409 0.91994
 N94 N -0.03219 0.38181 0.97635
 H95 H 0.11436 0.49569 0.99906
 H96 H -0.05473 0.52612 0.91006
 H97 H -0.02042 0.60733 0.84199
 H98 H 0.15165 0.57688 0.93368
 H99 H 0.01112 0.32638 1.05017
 H100 H -0.02392 0.23033 0.99580
 H101 H -0.12105 0.33312 0.84362
 H102 H -0.08263 0.42738 0.89955
 C103 C 0.13221 0.41158 1.19832
 C104 C -0.15460 0.57121 1.10685
 C105 C -0.07478 0.27430 0.91546
 C106 C 0.06815 0.59823 0.88235
 C107 C 0.99359 0.00928 0.62668
 H108 H 0.96949 0.05183 0.62430
 C109 C 1.00022 -0.01977 0.68812
 H110 H 0.98010 -0.00028 0.73215
 C111 C 1.05134 -0.06696 0.57407
 H112 H 1.07117 -0.08513 0.52943
 C113 C 1.06031 -0.09674 0.63527
 H114 H 1.08677 -0.13797 0.63738
 N115 N 1.01788 -0.01522 0.57065
 C116 C 1.07951 0.09131 0.41072
 H117 H 1.04416 0.08846 0.37197
 C118 C 1.13019 0.12066 0.39804
 H119 H 1.13359 0.14056 0.34935
 C120 C 1.11827 0.06831 0.52127
 H121 H 1.11344 0.04802 0.56933
 C122 C 1.16972 0.09681 0.51054
 H123 H 1.20440 0.09833 0.55027
 Zn124 Zn 1.00592 0.02531 0.48738
 N125 N 1.07442 0.06612 0.47168
 C126 C 0.94924 0.14179 0.48206
 N127 N 0.94305 0.08195 0.49445
 C128 C 0.89381 0.06200 0.51901
 C129 C 0.85057 0.10343 0.53742
 C130 C 0.90591 0.18450 0.49738
 C131 C 1.03577 -0.06393 0.39034
 C132 C 1.02737 -0.10681 0.33662
 C133 C 0.92475 -0.08438 0.33383
 C134 C 0.93514 -0.04136 0.38731
 N135 N 0.98996 -0.03241 0.41482
 H136 H 0.98864 0.15694 0.46286
 H137 H 0.88994 0.01429 0.52869
 H138 H 0.81314 0.08762 0.56073
 H139 H 0.91197 0.23232 0.48979
 H140 H 1.07901 -0.05537 0.41230
 H141 H 1.06411 -0.13165 0.31743
 H142 H 0.88095 -0.09126 0.31265
 H143 H 0.89935 -0.01538 0.40669
 C144 C 1.17602 0.12342 0.44861
 C145 C 1.03388 -0.07309 0.69285
 C146 C 0.97148 -0.11763 0.30817
 C147 C 0.85721 0.16552 0.52782
 N148 N 0.19746 0.34865 1.25968
 N149 N 0.17166 0.39810 1.25499
 N150 N -0.19683 0.66171 1.14714
 N151 N -0.20122 0.60675 1.13344
 N152 N -0.13463 0.21469 0.84010
 N153 N -0.09558 0.21778 0.88570
 N154 N 0.13618 0.67249 0.86124
 N155 N 0.08505 0.65262 0.85244
 N156 N 1.23639 0.18053 0.38733
 N157 N 1.22915 0.15264 0.43870
 N158 N 1.07941 -0.13861 0.77137
 N159 N 1.04006 -0.10187 0.75660
 N160 N 0.91608 -0.17891 0.22954
 N161 N 0.96392 -0.16222 0.25339
 N162 N 0.80390 0.20683 0.61325
 N163 N 0.81777 0.20986 0.55445
 N164 N 0.32453 1.19436 0.18033
 N165 N 0.35676 1.14777 0.19217
 N166 N 0.67570 1.15435 -0.22388
 N167 N 0.66013 1.16270 -0.16363
 N168 N 0.27219 0.83251 -0.14403
 N169 N 0.28856 0.88320 -0.16377
 N170 N 0.72909 0.86280 0.12909
 N171 N 0.68431 0.84414 0.09408
   
