data_POSCAR
  _audit_creation_date              2014-09-24
  _audit_creation_method            'ToBaCCo'
  _symmetry_space_group_name_H-M    'P1'
  _symmetry_Int_Tables_number       1
  _symmetry_cell_setting            triclinic
  loop_
  _symmetry_equiv_pos_as_xyz
 x,y,z
_cell_length_a 46.0483
_cell_length_b 47.1572
_cell_length_c 50.1467
_cell_angle_alpha 91.083200
_cell_angle_beta 89.579600
_cell_angle_gamma 89.836500
loop_
  _atom_site_label
  _atom_site_type_symbol
  _atom_site_fract_x
  _atom_site_fract_y
  _atom_site_fract_z
C1 C 0.19696 0.52257 1.04194
 H2 H 0.19674 0.53699 1.02541
 C3 C 0.17643 0.52554 1.06240
 H4 H 0.16026 0.54204 1.06060
 C5 C 0.21749 0.48252 1.06243
 H6 H 0.23355 0.46576 1.06231
 C7 C 0.19723 0.48452 1.08325
 H8 H 0.19907 0.46956 1.09923
 N9 N 0.21700 0.50143 1.04237
 C10 C 0.28980 0.53064 0.99393
 H11 H 0.29188 0.51350 0.97939
 C12 C 0.30945 0.55318 0.99364
 H13 H 0.32664 0.55325 0.97879
 C14 C 0.26566 0.55071 1.03169
 H15 H 0.24891 0.54953 1.04678
 C16 C 0.28490 0.57353 1.03222
 H17 H 0.28232 0.58994 1.04745
 Zn18 Zn 0.24297 0.49815 1.01313
 N19 N 0.26825 0.52992 1.01261
 C20 C 0.22564 0.51210 0.96034
 N21 N 0.22023 0.49579 0.98188
 C22 C 0.19781 0.47709 0.98205
 C23 C 0.18015 0.47374 0.95974
 C24 C 0.20861 0.50930 0.93750
 C25 C 0.28784 0.46534 1.03396
 C26 C 0.30700 0.44242 1.03537
 C27 C 0.28019 0.41874 1.00025
 C28 C 0.26183 0.44230 0.99919
 N29 N 0.26600 0.46503 1.01586
 H30 H 0.24324 0.52716 0.96069
 H31 H 0.19373 0.46467 0.99960
 H32 H 0.16224 0.45894 0.96046
 H33 H 0.21369 0.52201 0.92034
 H34 H 0.29078 0.48375 1.04685
 H35 H 0.32470 0.44320 1.04946
 H36 H 0.27703 0.40108 0.98645
 H37 H 0.24466 0.44256 0.98467
 C38 C 0.30719 0.57497 1.01305
 C39 C 0.17598 0.50623 1.08360
 C40 C 0.30337 0.41887 1.01819
 C41 C 0.18553 0.48984 0.93697
 C42 C 0.78087 0.53732 -0.05955
 H43 H 0.76519 0.55420 -0.05706
 C44 C 0.80130 0.53872 -0.08021
 H45 H 0.80052 0.55630 -0.09377
 C46 C 0.80173 0.49457 -0.04461
 H47 H 0.80263 0.47807 -0.02999
 C48 C 0.82251 0.49510 -0.06499
 H49 H 0.83895 0.47865 -0.06608
 N50 N 0.78112 0.51522 -0.04246
 C51 C 0.73087 0.56217 0.01315
 H52 H 0.74434 0.55598 0.02962
 C53 C 0.71128 0.58466 0.01658
 H54 H 0.71001 0.59587 0.03560
 C55 C 0.71458 0.55412 -0.03108
 H56 H 0.71513 0.54133 -0.04921
 C57 C 0.69514 0.57681 -0.02869
 H58 H 0.68094 0.58157 -0.04514
 Zn59 Zn 0.75471 0.51354 -0.01321
 N60 N 0.73193 0.54719 -0.01031
 C61 C 0.77091 0.48719 0.03461
 N62 N 0.77682 0.50900 0.01806
 C63 C 0.79913 0.52713 0.02299
 C64 C 0.81676 0.52348 0.04523
 C65 C 0.78809 0.48265 0.05693
 C66 C 0.70083 0.48658 -0.00925
 C67 C 0.68195 0.46385 -0.00617
 C68 C 0.72085 0.43189 -0.01899
 C69 C 0.73909 0.45534 -0.02188
 N70 N 0.72903 0.48204 -0.01643
 H71 H 0.75293 0.47316 0.03051
 H72 H 0.80341 0.54421 0.00942
 H73 H 0.83474 0.53781 0.04865
 H74 H 0.78305 0.46520 0.06989
 H75 H 0.69320 0.50773 -0.00441
 H76 H 0.65981 0.46796 0.00027
 H77 H 0.72956 0.41072 -0.02213
 H78 H 0.76159 0.45194 -0.02710
 C79 C 0.69297 0.59198 -0.00445
 C80 C 0.82243 0.51736 -0.08317
 C81 C 0.69213 0.43603 -0.01021
 C82 C 0.81144 0.50083 0.06239
 C83 C -0.02802 0.29056 0.46150
 H84 H -0.04549 0.29141 0.47604
 C85 C -0.02842 0.30861 0.43970
 H86 H -0.04625 0.32348 0.43833
 C87 C 0.01718 0.27135 0.44745
 H88 H 0.03509 0.25701 0.45063
 C89 C 0.01789 0.28918 0.42560
 H90 H 0.03604 0.28704 0.41191
 N91 N -0.00548 0.27239 0.46492
 C92 C -0.03555 0.20612 0.51744
 H93 H -0.01793 0.20697 0.53158
 C94 C -0.05605 0.18456 0.51887
 H95 H -0.05428 0.16894 0.53434
 C96 C -0.05840 0.22473 0.47930
 H97 H -0.05863 0.23986 0.46340
 C98 C -0.07963 0.20356 0.48016
 H99 H -0.09617 0.20258 0.46493
 Zn100 Zn -0.00438 0.24991 0.49575
 N101 N -0.03678 0.22541 0.49768
 C102 C -0.02530 0.27379 0.54436
 N103 N -0.00347 0.27448 0.52597
 C104 C 0.01849 0.29359 0.52810
 C105 C 0.01918 0.31294 0.54954
 C106 C -0.02553 0.29280 0.56601
 C107 C 0.02787 0.20515 0.47520
 C108 C 0.04902 0.18400 0.47425
 C109 C 0.07204 0.20613 0.51243
 C110 C 0.05018 0.22685 0.51282
 N111 N 0.02854 0.22579 0.49447
 H112 H -0.04285 0.25883 0.54207
 H113 H 0.03531 0.29399 0.51293
 H114 H 0.03655 0.32833 0.55071
 H115 H -0.04309 0.29192 0.58046
 H116 H 0.01024 0.20467 0.46105
 H117 H 0.04773 0.16735 0.45912
 H118 H 0.08863 0.20659 0.52763
 H119 H 0.05001 0.24308 0.52831
 C120 C -0.07809 0.18277 0.49977
 C121 C -0.00494 0.30862 0.42140
 C122 C 0.07114 0.18402 0.49332
 C123 C -0.00319 0.31283 0.56872
 C124 C 0.98108 0.69468 0.53274
 H125 H 0.96547 0.69379 0.51673
 C126 C 0.97869 0.67607 0.55394
 H127 H 0.96129 0.66068 0.55396
 C128 C 1.02343 0.71515 0.55142
 H129 H 1.04111 0.73005 0.55017
 C130 C 1.02183 0.69697 0.57304
 H131 H 1.03805 0.69855 0.58851
 N132 N 1.00306 0.71384 0.53195
 C133 C 0.96875 0.77902 0.48023
 H134 H 0.98529 0.77938 0.46481
 C135 C 0.94450 0.79674 0.47863
 H136 H 0.94253 0.81090 0.46199
 C137 C 0.95156 0.76061 0.52106
 H138 H 0.95452 0.74675 0.53772
 C139 C 0.92720 0.77826 0.52044
 H140 H 0.91139 0.77756 0.53651
 Zn141 Zn 1.00473 0.73727 0.50181
 N142 N 0.97156 0.76105 0.50097
 C143 C 0.98533 0.71368 0.45240
 N144 N 1.00609 0.71280 0.47150
 C145 C 1.02789 0.69329 0.47025
 C146 C 1.02960 0.67381 0.44898
 C147 C 0.98626 0.69469 0.43074
 C148 C 1.04078 0.77956 0.52346
 C149 C 1.06467 0.79771 0.52472
 C150 C 1.08182 0.77762 0.48279
 C151 C 1.05780 0.75963 0.48249
 N152 N 1.03797 0.76077 0.50273
 H153 H 0.96776 0.72882 0.45402
 H154 H 1.04382 0.69274 0.48598
 H155 H 1.04681 0.65812 0.44861
 H156 H 0.96969 0.69596 0.41560
 H157 H 1.02436 0.78046 0.53900
 H158 H 1.06650 0.81268 0.54126
 H159 H 1.09741 0.77646 0.46653
 H160 H 1.05485 0.74507 0.46585
 C161 C 0.92338 0.79646 0.49894
 C162 C 0.99927 0.67704 0.57445
 C163 C 1.08547 0.79692 0.50413
 C164 C 1.00851 0.67428 0.42891
 C165 C 0.47420 -0.01499 0.28575
 H166 H 0.49234 -0.02914 0.28888
 C167 C 0.45065 -0.01503 0.30337
 H168 H 0.45142 -0.02905 0.32017
 C169 C 0.45297 0.02200 0.26122
 H170 H 0.45422 0.03696 0.24525
 C171 C 0.42851 0.02211 0.27793
 H172 H 0.41097 0.03667 0.27388
 N173 N 0.47517 0.00354 0.26536
 C174 C 0.53669 -0.03121 0.20674
 H175 H 0.55385 -0.01565 0.20820
 C176 C 0.53848 -0.05303 0.18758
 H177 H 0.55711 -0.05318 0.17433
 C178 C 0.49074 -0.04741 0.22116
 H179 H 0.47203 -0.04492 0.23414
 C180 C 0.49149 -0.06949 0.20217
 H181 H 0.47353 -0.08421 0.20192
 Zn182 Zn 0.51049 0.00368 0.24565
 N183 N 0.51303 -0.02869 0.22291
 C184 C 0.56042 -0.01712 0.27318
 N185 N 0.54046 0.00408 0.27127
 C186 C 0.53909 0.02561 0.28964
 C187 C 0.55775 0.02608 0.31138
 C188 C 0.57964 -0.01744 0.29468
 C189 C 0.49311 0.03961 0.20460
 C190 C 0.49532 0.06225 0.18717
 C191 C 0.54000 0.07609 0.20871
 C192 C 0.53660 0.05357 0.22613
 N193 N 0.51338 0.03591 0.22384
 H194 H 0.56074 -0.03434 0.25865
 H195 H 0.52279 0.04200 0.28777
 H196 H 0.55597 0.04320 0.32600
 H197 H 0.59471 -0.03495 0.29651
 H198 H 0.47544 0.02468 0.20256
 H199 H 0.47918 0.06485 0.17179
 H200 H 0.55880 0.08973 0.21042
 H201 H 0.55297 0.04978 0.24097
 C202 C 0.51543 -0.07255 0.18452
 C203 C 0.42724 0.00374 0.29973
 C204 C 0.51915 0.08058 0.18900
 C205 C 0.57795 0.00406 0.31443
 C206 C 0.52481 -0.00696 0.71063
 H207 H 0.50554 -0.01935 0.70663
 C208 C 0.54855 -0.00882 0.69324
 H209 H 0.54696 -0.02251 0.67576
 C210 C 0.54884 0.02760 0.73722
 H211 H 0.54863 0.04224 0.75404
 C212 C 0.57335 0.02596 0.72065
 H213 H 0.59200 0.03895 0.72545
 N214 N 0.52517 0.01133 0.73188
 C215 C 0.46110 -0.01533 0.79052
 H216 H 0.44550 0.00177 0.78923
 C217 C 0.45805 -0.03558 0.81028
 H218 H 0.43963 -0.03422 0.82380
 C219 C 0.50463 -0.03713 0.77499
 H220 H 0.52321 -0.03710 0.76169
 C221 C 0.50244 -0.05782 0.79452
 H222 H 0.51947 -0.07357 0.79603
 Zn223 Zn 0.49004 0.01532 0.75142
 N224 N 0.48433 -0.01620 0.77365
 C225 C 0.43823 -0.00100 0.72431
 N226 N 0.46005 0.01834 0.72602
 C227 C 0.46322 0.03883 0.70754
 C228 C 0.44445 0.04008 0.68591
 C229 C 0.41892 -0.00055 0.70291
 C230 C 0.50925 0.04604 0.79546
 C231 C 0.51030 0.06803 0.81438
 C232 C 0.47489 0.09370 0.78885
 C233 C 0.47429 0.07100 0.77048
 N234 N 0.49139 0.04781 0.77410
 H235 H 0.43651 -0.01752 0.73887
 H236 H 0.48107 0.05362 0.70913
 H237 H 0.44765 0.05632 0.67121
 H238 H 0.40243 -0.01679 0.70124
 H239 H 0.52234 0.02722 0.79802
 H240 H 0.52451 0.06614 0.83137
 H241 H 0.46082 0.11183 0.78604
 H242 H 0.45979 0.07177 0.75369
 C243 C 0.47926 -0.05681 0.81290
 C244 C 0.57328 0.00795 0.69795
 C245 C 0.49278 0.09213 0.81132
 C246 C 0.42234 0.01981 0.68303
 C247 C 0.25726 -0.00531 0.49045
 C248 C 0.74298 -0.01164 0.50721
 C249 C 0.50925 0.25143 1.00816
 C250 C 0.49087 0.76446 -0.00894
 C251 C 0.98076 0.49175 0.25117
 C252 C 0.01692 0.49500 0.74725
 C253 C 0.09905 0.10879 0.49398
 C254 C 0.12950 0.11222 0.49593
 C255 C 0.14057 0.14027 0.49661
 C256 C 0.12157 0.16373 0.49633
 C257 C 0.09151 0.15973 0.49441
 C258 C 0.08055 0.13213 0.49322
 C259 C 0.17051 0.14471 0.49720
 C260 C 0.18983 0.12195 0.49658
 C261 C 0.17992 0.09362 0.49610
 C262 C 0.14922 0.08877 0.49666
 C263 C 0.13918 0.06061 0.49822
 C264 C 0.15823 0.03789 0.49791
 C265 C 0.18807 0.04212 0.49589
 C266 C 0.19954 0.06990 0.49517
 C267 C 0.23015 0.07255 0.49364
 C268 C 0.24818 0.04859 0.49216
 C269 C 0.23667 0.02095 0.49140
 C270 C 0.20635 0.01837 0.49472
 H271 H 0.08870 0.08840 0.49239
 H272 H 0.13019 0.18511 0.49691
 H273 H 0.05737 0.12855 0.49181
 H274 H 0.17915 0.16607 0.49770
 H275 H 0.21254 0.12732 0.49677
 H276 H 0.11656 0.05526 0.50014
 H277 H 0.14938 0.01664 0.49898
 H278 H 0.24090 0.09279 0.49336
 H279 H 0.27147 0.05165 0.49124
 H280 H 0.19637 -0.00216 0.49692
 C281 C 0.62684 0.62993 0.02346
 C282 C 0.62207 0.65146 0.00466
 C283 C 0.64303 0.65469 -0.01592
 C284 C 0.66634 0.63550 -0.01867
 C285 C 0.66990 0.61358 -0.00051
 C286 C 0.65041 0.61141 0.02087
 C287 C 0.64041 0.67682 -0.03384
 C288 C 0.61739 0.69590 -0.03184
 C289 C 0.59542 0.69298 -0.01232
 C290 C 0.59725 0.66977 0.00557
 C291 C 0.57367 0.66493 0.02303
 C292 C 0.54917 0.68211 0.02301
 C293 C 0.54751 0.70537 0.00631
 C294 C 0.57099 0.71180 -0.01080
 C295 C 0.56927 0.73721 -0.02514
 C296 C 0.54437 0.75422 -0.02395
 C297 C 0.51930 0.74608 -0.00956
 C298 C 0.52231 0.72219 0.00676
 H299 H 0.61293 0.62699 0.04055
 H300 H 0.68175 0.63754 -0.03497
 H301 H 0.65296 0.59474 0.03525
 H302 H 0.65636 0.67943 -0.04960
 H303 H 0.61666 0.71209 -0.04672
 H304 H 0.57291 0.64718 0.03623
 H305 H 0.53130 0.67711 0.03630
 H306 H 0.58728 0.74505 -0.03670
 H307 H 0.54528 0.77419 -0.03414
 H308 H 0.50541 0.71641 0.02044
 C309 C 0.85819 -0.16316 0.47372
 C310 C 0.85003 -0.14629 0.49624
 C311 C 0.86677 -0.14884 0.51971
 C312 C 0.89005 -0.16805 0.52061
 C313 C 0.89792 -0.18436 0.49809
 C314 C 0.88186 -0.18171 0.47468
 C315 C 0.86057 -0.13188 0.54208
 C316 C 0.83899 -0.11134 0.54136
 C317 C 0.82219 -0.10738 0.51827
 C318 C 0.82659 -0.12629 0.49596
 C319 C 0.80737 -0.12460 0.47424
 C320 C 0.78582 -0.10394 0.47354
 C321 C 0.78312 -0.08361 0.49400
 C322 C 0.80122 -0.08506 0.51667
 C323 C 0.79826 -0.06350 0.53643
 C324 C 0.77909 -0.04100 0.53319
 C325 C 0.76190 -0.03873 0.51019
 C326 C 0.76292 -0.06139 0.49147
 H327 H 0.84733 -0.16189 0.45482
 H328 H 0.90275 -0.16964 0.53866
 H329 H 0.88762 -0.19413 0.45702
 H330 H 0.87301 -0.13403 0.56021
 H331 H 0.83570 -0.09914 0.55950
 H332 H 0.80818 -0.13929 0.45753
 H333 H 0.77175 -0.10330 0.45632
 H334 H 0.81138 -0.06256 0.55411
 H335 H 0.77849 -0.02439 0.54841
 H336 H 0.74864 -0.06183 0.47450
 C337 C 0.33700 0.34534 1.01667
 C338 C 0.36704 0.35137 1.01434
 C339 C 0.37532 0.38030 1.01315
 C340 C 0.35449 0.40196 1.01519
 C341 C 0.32498 0.39560 1.01754
 C342 C 0.31636 0.36717 1.01803
 C343 C 0.40436 0.38761 1.00978
 C344 C 0.42555 0.36687 1.00700
 C345 C 0.41857 0.33777 1.00794
 C346 C 0.38909 0.32986 1.01283
 C347 C 0.38288 0.30087 1.01665
 C348 C 0.40478 0.28041 1.01591
 C349 C 0.43350 0.28782 1.01041
 C350 C 0.44046 0.31641 1.00525
 C351 C 0.46907 0.32247 0.99705
 C352 C 0.49053 0.30172 0.99704
 C353 C 0.48480 0.27406 1.00596
 C354 C 0.45544 0.26692 1.01039
 H355 H 0.32870 0.32401 1.01687
 H356 H 0.36119 0.42396 1.01419
 H357 H 0.29355 0.36185 1.01957
 H358 H 0.41081 0.40969 1.00914
 H359 H 0.44753 0.37439 1.00511
 H360 H 0.36136 0.29341 1.02124
 H361 H 0.39914 0.25854 1.01972
 H362 H 0.47544 0.34296 0.98990
 H363 H 0.51171 0.30782 0.98979
 H364 H 0.44990 0.24519 1.01486
 C365 C 0.89677 0.10677 0.50034
 C366 C 0.86619 0.10919 0.49854
 C367 C 0.85409 0.13685 0.49754
 C368 C 0.87222 0.16087 0.49735
 C369 C 0.90243 0.15786 0.49913
 C370 C 0.91440 0.13067 0.50066
 C371 C 0.82400 0.14037 0.49713
 C372 C 0.80553 0.11711 0.49827
 C373 C 0.81649 0.08913 0.49909
 C374 C 0.84734 0.08515 0.49828
 C375 C 0.85841 0.05722 0.49694
 C376 C 0.84022 0.03398 0.49775
 C377 C 0.81026 0.03744 0.50010
 C378 C 0.79777 0.06490 0.50059
 C379 C 0.76711 0.06674 0.50251
 C380 C 0.74999 0.04237 0.50458
 C381 C 0.76254 0.01514 0.50555
 C382 C 0.79288 0.01324 0.50183
 H383 H 0.90786 0.08679 0.50219
 H384 H 0.86283 0.18195 0.49650
 H385 H 0.93771 0.12786 0.50200
 H386 H 0.81457 0.16143 0.49638
 H387 H 0.78263 0.12179 0.49819
 H388 H 0.88119 0.05245 0.49480
 H389 H 0.84982 0.01295 0.49685
 H390 H 0.75562 0.08667 0.50269
 H391 H 0.72662 0.04479 0.50583
 H392 H 0.80356 -0.00712 0.49982
 C393 C 0.35970 0.63073 0.03877
 C394 C 0.36903 0.64411 0.01515
 C395 C 0.35701 0.63434 -0.00931
 C396 C 0.33701 0.61186 -0.00988
 C397 C 0.32826 0.59877 0.01369
 C398 C 0.33971 0.60853 0.03795
 C399 C 0.36504 0.64693 -0.03316
 C400 C 0.38487 0.66902 -0.03346
 C401 C 0.39773 0.67947 -0.00976
 C402 C 0.38988 0.66665 0.01493
 C403 C 0.40348 0.67650 0.03849
 C404 C 0.42432 0.69769 0.03795
 C405 C 0.43228 0.71026 0.01406
 C406 C 0.41873 0.70187 -0.00999
 C407 C 0.42681 0.71636 -0.03326
 C408 C 0.44871 0.73679 -0.03293
 C409 C 0.46400 0.74391 -0.00943
 C410 C 0.45416 0.73097 0.01421
 H411 H 0.36731 0.63683 0.05829
 H412 H 0.32794 0.60474 -0.02874
 H413 H 0.33349 0.59865 0.05646
 H414 H 0.35595 0.63951 -0.05191
 H415 H 0.39009 0.67708 -0.05285
 H416 H 0.39894 0.66792 0.05780
 H417 H 0.43450 0.70415 0.05651
 H418 H 0.41656 0.71256 -0.05223
 H419 H 0.45296 0.74663 -0.05166
 H420 H 0.46407 0.73653 0.03311
 C421 C 0.14912 -0.15888 0.52801
 C422 C 0.15631 -0.14308 0.50514
 C423 C 0.13958 -0.14779 0.48184
 C424 C 0.11719 -0.16791 0.48149
 C425 C 0.11023 -0.18310 0.50436
 C426 C 0.12635 -0.17840 0.52758
 C427 C 0.14485 -0.13204 0.45910
 C428 C 0.16546 -0.11066 0.45924
 C429 C 0.18218 -0.10454 0.48212
 C430 C 0.17873 -0.12211 0.50487
 C431 C 0.19783 -0.11812 0.52651
 C432 C 0.21832 -0.09654 0.52668
 C433 C 0.22008 -0.07759 0.50571
 C434 C 0.20213 -0.08136 0.48309
 C435 C 0.20426 -0.06118 0.46272
 C436 C 0.22244 -0.03779 0.46531
 C437 C 0.23938 -0.03318 0.48827
 C438 C 0.23923 -0.05445 0.50764
 H439 H 0.16006 -0.15605 0.54678
 H440 H 0.10443 -0.17107 0.46359
 H441 H 0.12130 -0.18991 0.54551
 H442 H 0.13241 -0.13584 0.44111
 H443 H 0.16804 -0.09951 0.44084
 H444 H 0.19773 -0.13164 0.54359
 H445 H 0.23230 -0.09413 0.54387
 H446 H 0.19125 -0.06205 0.44497
 H447 H 0.22246 -0.02235 0.44959
 H448 H 0.25343 -0.05313 0.52464
 C449 C 0.63823 0.39109 1.02706
 C450 C 0.63524 0.36680 1.01028
 C451 C 0.65264 0.36520 0.98682
 C452 C 0.67166 0.38742 0.98039
 C453 C 0.67338 0.41173 0.99682
 C454 C 0.65687 0.41303 1.02034
 C455 C 0.65043 0.34178 0.96956
 C456 C 0.63050 0.32035 0.97441
 C457 C 0.61195 0.32142 0.99696
 C458 C 0.61490 0.34467 1.01555
 C459 C 0.59679 0.34548 1.03840
 C460 C 0.57495 0.32577 1.04189
 C461 C 0.57056 0.30416 1.02310
 C462 C 0.58962 0.30077 1.00100
 C463 C 0.58487 0.27723 0.98361
 C464 C 0.56040 0.25995 0.98647
 C465 C 0.53944 0.26589 1.00638
 C466 C 0.54630 0.28665 1.02584
 H467 H 0.62621 0.39420 1.04536
 H468 H 0.68443 0.38622 0.96215
 H469 H 0.65838 0.43124 1.03376
 H470 H 0.66381 0.34030 0.95170
 H471 H 0.62970 0.30349 0.95965
 H472 H 0.59835 0.36152 1.05385
 H473 H 0.56083 0.32795 1.05921
 H474 H 0.59940 0.27179 0.96738
 H475 H 0.55801 0.24232 0.97263
 H476 H 0.53126 0.29060 1.04226
 C477 C 0.55161 0.12360 1.13366
 C478 C 0.52930 0.14341 1.12836
 C479 C 0.50454 0.14371 1.14537
 C480 C 0.50138 0.12331 1.16525
 C481 C 0.52315 0.10311 1.16929
 C482 C 0.54852 0.10388 1.15386
 C483 C 0.48289 0.16409 1.14221
 C484 C 0.48504 0.18410 1.12231
 C485 C 0.50855 0.18386 1.10408
 C486 C 0.53060 0.16266 1.10669
 C487 C 0.55242 0.16047 1.08682
 C488 C 0.55238 0.17795 1.06489
 C489 C 0.53129 0.19894 1.06232
 C490 C 0.50990 0.20313 1.08240
 C491 C 0.49078 0.22644 1.07983
 C492 C 0.49113 0.24302 1.05701
 C493 C 0.50989 0.23642 1.03545
 C494 C 0.53109 0.21531 1.03932
 H495 H 0.57185 0.12294 1.12274
 H496 H 0.48197 0.12308 1.17762
 H497 H 0.56574 0.08862 1.15699
 H498 H 0.46399 0.16452 1.15523
 H499 H 0.46711 0.19873 1.12088
 H500 H 0.56911 0.14443 1.08691
 H501 H 0.56894 0.17481 1.04963
 H502 H 0.47562 0.23267 1.09537
 H503 H 0.47654 0.26094 1.05663
 H504 H 0.54687 0.21086 1.02361
 C505 C -0.03069 0.62979 0.62848
 C506 C -0.00533 0.61669 0.63842
 C507 C 0.02169 0.62452 0.62700
 C508 C 0.02299 0.64430 0.60648
 C509 C -0.00232 0.65681 0.59674
 C510 C -0.02910 0.64945 0.60804
 C511 C 0.04740 0.61253 0.63597
 C512 C 0.04706 0.59245 0.65578
 C513 C 0.02078 0.58330 0.66743
 C514 C -0.00583 0.59599 0.65899
 C515 C -0.03199 0.58747 0.67133
 C516 C -0.03226 0.56709 0.69095
 C517 C -0.00662 0.55417 0.69904
 C518 C 0.02024 0.56190 0.68730
 C519 C 0.04538 0.54725 0.69546
 C520 C 0.04390 0.52653 0.71480
 C521 C 0.01755 0.51977 0.72750
 C522 C -0.00784 0.53319 0.71857
 H523 H -0.05215 0.62530 0.63589
 H524 H 0.04382 0.64948 0.59763
 H525 H -0.04899 0.65907 0.60114
 H526 H 0.06813 0.61869 0.62751
 H527 H 0.06802 0.58468 0.66162
 H528 H -0.05282 0.59620 0.66634
 H529 H -0.05290 0.56127 0.69982
 H530 H 0.06657 0.55073 0.68695
 H531 H 0.06369 0.51545 0.71982
 H532 H -0.02884 0.52691 0.72626
 C533 C 0.47056 0.91627 -0.11677
 C534 C 0.47878 0.88737 -0.11932
 C535 C 0.48639 0.87694 -0.14516
 C536 C 0.48618 0.89499 -0.16721
 C537 C 0.47832 0.92363 -0.16417
 C538 C 0.47042 0.93393 -0.13876
 C539 C 0.49430 0.84858 -0.14891
 C540 C 0.49500 0.83019 -0.12759
 C541 C 0.48791 0.83948 -0.10139
 C542 C 0.47979 0.86859 -0.09718
 C543 C 0.47318 0.87802 -0.07093
 C544 C 0.47432 0.85982 -0.04959
 C545 C 0.48196 0.83140 -0.05333
 C546 C 0.48879 0.82071 -0.07918
 C547 C 0.49622 0.79166 -0.08160
 C548 C 0.49677 0.77427 -0.05937
 C549 C 0.48997 0.78466 -0.03346
 C550 C 0.48272 0.81374 -0.03108
 H551 H 0.46420 0.92611 -0.09809
 H552 H 0.49204 0.88667 -0.18683
 H553 H 0.46468 0.95604 -0.13567
 H554 H 0.50010 0.84046 -0.16861
 H555 H 0.50143 0.80873 -0.13240
 H556 H 0.46715 0.89956 -0.06600
 H557 H 0.46909 0.86818 -0.02983
 H558 H 0.50163 0.78150 -0.10040
 H559 H 0.50247 0.75214 -0.06249
 H560 H 0.47752 0.82335 -0.01196
 C561 C 1.02466 0.35725 0.36984
 C562 C 0.99930 0.36924 0.35897
 C563 C 0.97219 0.35922 0.36829
 C564 C 0.97081 0.33929 0.38881
 C565 C 0.99625 0.32810 0.40012
 C566 C 1.02311 0.33721 0.38984
 C567 C 0.94651 0.36910 0.35708
 C568 C 0.94708 0.38890 0.33690
 C569 C 0.97350 0.40032 0.32754
 C570 C 1.00000 0.39072 0.33920
 C571 C 1.02630 0.40352 0.33131
 C572 C 1.02683 0.42474 0.31262
 C573 C 1.00136 0.43382 0.30062
 C574 C 0.97436 0.42155 0.30744
 C575 C 0.94939 0.43153 0.29413
 C576 C 0.95129 0.45310 0.27540
 C577 C 0.97818 0.46522 0.26867
 C578 C 1.00292 0.45565 0.28216
 H579 H 1.04620 0.36272 0.36328
 H580 H 0.94969 0.33185 0.39518
 H581 H 1.04346 0.33004 0.39802
 H582 H 0.92566 0.36138 0.36396
 H583 H 0.92625 0.39537 0.32949
 H584 H 1.04697 0.39827 0.33981
 H585 H 1.04753 0.43421 0.30752
 H586 H 0.92797 0.42334 0.29787
 H587 H 0.93134 0.46082 0.26685
 H588 H 1.02369 0.46566 0.27846
 C589 C 0.54302 0.87652 0.13172
 C590 C 0.51714 0.86582 0.12037
 C591 C 0.49052 0.87541 0.13167
 C592 C 0.49009 0.89505 0.15313
 C593 C 0.51597 0.90623 0.16388
 C594 C 0.54238 0.89624 0.15284
 C595 C 0.46428 0.86575 0.12123
 C596 C 0.46373 0.84724 0.09940
 C597 C 0.48959 0.83749 0.08695
 C598 C 0.51676 0.84635 0.09804
 C599 C 0.54260 0.83560 0.08631
 C600 C 0.54204 0.81740 0.06424
 C601 C 0.51583 0.80927 0.05272
 C602 C 0.48921 0.81917 0.06379
 C603 C 0.46339 0.81092 0.05068
 C604 C 0.46411 0.79338 0.02795
 C605 C 0.49048 0.78273 0.01730
 C606 C 0.51631 0.79152 0.02989
 H607 H 0.56429 0.87035 0.12467
 H608 H 0.46920 0.90270 0.16026
 H609 H 0.56304 0.90291 0.16090
 H610 H 0.44381 0.87279 0.12993
 H611 H 0.44249 0.84082 0.09286
 H612 H 0.56385 0.84073 0.09373
 H613 H 0.56250 0.80981 0.05594
 H614 H 0.44221 0.81817 0.05701
 H615 H 0.44375 0.78869 0.01816
 H616 H 0.53718 0.78511 0.02178
 C617 C -0.03116 0.36806 0.61831
 C618 C -0.00593 0.37573 0.63273
 C619 C 0.02043 0.36176 0.62570
 C620 C 0.02126 0.34131 0.60491
 C621 C -0.00395 0.33416 0.59085
 C622 C -0.03007 0.34768 0.59783
 C623 C 0.04586 0.36822 0.63942
 C624 C 0.04595 0.38850 0.65987
 C625 C 0.02046 0.40344 0.66739
 C626 C -0.00595 0.39681 0.65368
 C627 C -0.03149 0.41164 0.66123
 C628 C -0.03130 0.43241 0.68112
 C629 C -0.00579 0.43929 0.69445
 C630 C 0.02046 0.42496 0.68801
 C631 C 0.04567 0.43336 0.70212
 C632 C 0.04465 0.45498 0.72161
 C633 C 0.01837 0.46869 0.72840
 C634 C -0.00652 0.46093 0.71394
 H635 H -0.05216 0.37738 0.62215
 H636 H 0.04154 0.33071 0.59983
 H637 H -0.04980 0.34281 0.58707
 H638 H 0.06604 0.35747 0.63425
 H639 H 0.06654 0.39201 0.66937
 H640 H -0.05220 0.40793 0.65205
 H641 H -0.05145 0.44333 0.68603
 H642 H 0.06673 0.42416 0.69824
 H643 H 0.06484 0.46147 0.73071
 H644 H -0.02671 0.47225 0.71768
 C645 C 0.49505 0.16442 0.84584
 C646 C 0.49381 0.15731 0.87319
 C647 C 0.49076 0.12822 0.87935
 C648 C 0.49025 0.10738 0.85907
 C649 C 0.49235 0.11472 0.83225
 C650 C 0.49424 0.14339 0.82577
 C651 C 0.48856 0.11985 0.90574
 C652 C 0.48937 0.13967 0.92643
 C653 C 0.49269 0.16888 0.92157
 C654 C 0.49562 0.17784 0.89457
 C655 C 0.50106 0.20684 0.89001
 C656 C 0.50404 0.22627 0.91105
 C657 C 0.50101 0.21782 0.93743
 C658 C 0.49428 0.18925 0.94297
 C659 C 0.48909 0.18227 0.96981
 C660 C 0.49324 0.20202 0.99034
 C661 C 0.50335 0.22962 0.98528
 C662 C 0.50500 0.23772 0.95838
 H663 H 0.49651 0.18598 0.83926
 H664 H 0.48809 0.08523 0.86419
 H665 H 0.49566 0.14954 0.80510
 H666 H 0.48638 0.09762 0.91052
 H667 H 0.48835 0.13116 0.94619
 H668 H 0.50405 0.21512 0.87031
 H669 H 0.50894 0.24815 0.90659
 H670 H 0.48120 0.16181 0.97569
 H671 H 0.48804 0.19525 1.01027
 H672 H 0.51034 0.25947 0.95379
 C673 C 1.03592 0.62436 0.37396
 C674 C 1.00997 0.61178 0.36444
 C675 C 0.98349 0.62065 0.37664
 C676 C 0.98327 0.64090 0.39746
 C677 C 1.00912 0.65305 0.40665
 C678 C 1.03540 0.64459 0.39468
 C679 C 0.95722 0.60930 0.36808
 C680 C 0.95643 0.58909 0.34771
 C681 C 0.98209 0.57909 0.33508
 C682 C 1.00932 0.59078 0.34340
 C683 C 1.03490 0.58101 0.33046
 C684 C 1.03403 0.56057 0.31018
 C685 C 1.00773 0.54891 0.30193
 C686 C 0.98141 0.55781 0.31435
 C687 C 0.95551 0.54454 0.30583
 C688 C 0.95578 0.52403 0.28553
 C689 C 0.98162 0.51611 0.27222
 C690 C 1.00774 0.52807 0.28149
 H691 H 1.05704 0.61913 0.36591
 H692 H 0.96282 0.64689 0.40687
 H693 H 1.05569 0.65389 0.40117
 H694 H 0.93692 0.61618 0.37723
 H695 H 0.93509 0.58187 0.34229
 H696 H 1.05617 0.58873 0.33551
 H697 H 1.05426 0.55380 0.30085
 H698 H 0.93459 0.54905 0.31463
 H699 H 0.93541 0.51410 0.28018
 H700 H 1.02832 0.52084 0.27326
 C701 C 1.11941 0.53619 0.13046
 C702 C 1.11017 0.51202 0.14444
 C703 C 1.12375 0.48581 0.13781
 C704 C 1.14569 0.48415 0.11824
 C705 C 1.15456 0.50826 0.10416
 C706 C 1.14098 0.53428 0.11080
 C707 C 1.11517 0.46113 0.15050
 C708 C 1.09283 0.46163 0.16919
 C709 C 1.07814 0.48706 0.17614
 C710 C 1.08767 0.51285 0.16434
 C711 C 1.07445 0.53855 0.17292
 C712 C 1.05229 0.53900 0.19186
 C713 C 1.04197 0.51392 0.20269
 C714 C 1.05442 0.48757 0.19473
 C715 C 1.04187 0.46271 0.20503
 C716 C 1.01884 0.46413 0.22318
 C717 C 1.00779 0.49033 0.23267
 C718 C 1.01892 0.51509 0.22119
 H719 H 1.11020 0.55695 0.13395
 H720 H 1.15459 0.46347 0.11313
 H721 H 1.14751 0.55377 0.10148
 H722 H 1.12571 0.44104 0.14577
 H723 H 1.08795 0.44166 0.17824
 H724 H 1.08103 0.55891 0.16568
 H725 H 1.04290 0.55925 0.19790
 H726 H 1.04859 0.44172 0.19876
 H727 H 1.00932 0.44434 0.22934
 H728 H 1.00935 0.53546 0.22653
 C729 C 0.63580 0.03272 0.65424
 C730 C 0.64253 0.00819 0.63869
 C731 C 0.62635 -0.01673 0.64360
 C732 C 0.60504 -0.01704 0.66376
 C733 C 0.59806 0.00763 0.67857
 C734 C 0.61383 0.03243 0.67359
 C735 C 0.63102 -0.04110 0.62798
 C736 C 0.65033 -0.04093 0.60661
 C737 C 0.66652 -0.01648 0.60052
 C738 C 0.66394 0.00783 0.61785
 C739 C 0.68302 0.03078 0.61391
 C740 C 0.70294 0.03057 0.59294
 C741 C 0.70391 0.00806 0.57448
 C742 C 0.68547 -0.01563 0.57782
 C743 C 0.68624 -0.03721 0.55793
 C744 C 0.70453 -0.03527 0.53581
 C745 C 0.72294 -0.01180 0.53228
 C746 C 0.72309 0.00931 0.55257
 H747 H 0.64619 0.05284 0.65111
 H748 H 0.59352 -0.03658 0.66755
 H749 H 0.60859 0.05210 0.68404
 H750 H 0.61902 -0.06035 0.63186
 H751 H 0.65259 -0.06062 0.59554
 H752 H 0.68357 0.04901 0.62717
 H753 H 0.71721 0.04864 0.59075
 H754 H 0.67227 -0.05549 0.55834
 H755 H 0.70407 -0.05220 0.52092
 H756 H 0.73800 0.02690 0.55171
 C757 C -0.12024 0.54527 0.86946
 C758 C -0.11128 0.52048 0.85521
 C759 C -0.12521 0.49464 0.86153
 C760 C -0.14695 0.49389 0.88128
 C761 C -0.15529 0.51857 0.89533
 C762 C -0.14186 0.54423 0.88910
 C763 C -0.11739 0.46956 0.84821
 C764 C -0.09546 0.46922 0.82913
 C765 C -0.08027 0.49414 0.82253
 C766 C -0.08883 0.52034 0.83524
 C767 C -0.07463 0.54545 0.82756
 C768 C -0.05251 0.54498 0.80860
 C769 C -0.04334 0.51954 0.79667
 C770 C -0.05688 0.49373 0.80355
 C771 C -0.04573 0.46846 0.79176
 C772 C -0.02280 0.46898 0.77350
 C773 C -0.01035 0.49470 0.76544
 C774 C -0.02029 0.51981 0.77815
 H775 H -0.11076 0.56578 0.86629
 H776 H -0.15750 0.47398 0.88568
 H777 H -0.14763 0.56357 0.89990
 H778 H -0.12826 0.44983 0.85271
 H779 H -0.09116 0.44895 0.81966
 H780 H -0.08021 0.56604 0.83572
 H781 H -0.04227 0.56482 0.80338
 H782 H -0.05355 0.44773 0.79680
 H783 H -0.01438 0.44883 0.76618
 H784 H -0.00974 0.53973 0.77381
 C785 C 0.36571 0.03194 0.34411
 C786 C 0.35807 0.00796 0.35914
 C787 C 0.37336 -0.01766 0.35379
 C788 C 0.39448 -0.01925 0.33349
 C789 C 0.40249 0.00488 0.31920
 C790 C 0.38772 0.03044 0.32479
 C791 C 0.36802 -0.04146 0.36913
 C792 C 0.34898 -0.04000 0.39070
 C793 C 0.33358 -0.01483 0.39712
 C794 C 0.33663 0.00882 0.37994
 C795 C 0.31789 0.03229 0.38393
 C796 C 0.29779 0.03313 0.40477
 C797 C 0.29651 0.01132 0.42318
 C798 C 0.31484 -0.01269 0.41991
 C799 C 0.31427 -0.03324 0.43999
 C800 C 0.29609 -0.03013 0.46215
 C801 C 0.27737 -0.00660 0.46541
 C802 C 0.27721 0.01359 0.44501
 H803 H 0.35607 0.05253 0.34776
 H804 H 0.40505 -0.03940 0.32924
 H805 H 0.39373 0.04975 0.31487
 H806 H 0.37934 -0.06125 0.36493
 H807 H 0.34611 -0.05928 0.40160
 H808 H 0.31768 0.05004 0.37069
 H809 H 0.28367 0.05148 0.40693
 H810 H 0.32844 -0.05147 0.43969
 H811 H 0.29679 -0.04626 0.47724
 H812 H 0.26229 0.03128 0.44572
 C813 C 0.13844 0.45677 0.88297
 C814 C 0.12984 0.48052 0.86802
 C815 C 0.14087 0.50742 0.87596
 C816 C 0.15905 0.51024 0.89820
 C817 C 0.16693 0.48657 0.91300
 C818 C 0.15663 0.45984 0.90499
 C819 C 0.13364 0.53151 0.86181
 C820 C 0.11523 0.52978 0.84011
 C821 C 0.10286 0.50373 0.83177
 C822 C 0.11056 0.47861 0.84573
 C823 C 0.09844 0.45254 0.83714
 C824 C 0.07918 0.45103 0.81599
 C825 C 0.07110 0.47534 0.80249
 C826 C 0.08284 0.50202 0.81007
 C827 C 0.07327 0.52603 0.79612
 C828 C 0.05313 0.52356 0.77565
 C829 C 0.04210 0.49702 0.76742
 C830 C 0.05079 0.47311 0.78175
 H831 H 0.13155 0.43547 0.87829
 H832 H 0.16657 0.53111 0.90432
 H833 H 0.16283 0.44106 0.91570
 H834 H 0.14228 0.55206 0.86762
 H835 H 0.11113 0.54949 0.83034
 H836 H 0.10321 0.43271 0.84647
 H837 H 0.07029 0.43055 0.81028
 H838 H 0.08019 0.54728 0.80091
 H839 H 0.04556 0.54296 0.76681
 H840 H 0.04122 0.45267 0.77708
 C841 C 0.59817 0.00701 0.38735
 C842 C 0.62805 -0.00015 0.38699
 C843 C 0.64141 -0.00555 0.36180
 C844 C 0.62509 -0.00442 0.33819
 C845 C 0.59550 0.00264 0.33908
 C846 C 0.58233 0.00832 0.36385
 C847 C 0.67097 -0.01197 0.36029
 C848 C 0.68779 -0.01286 0.38318
 C849 C 0.67558 -0.00768 0.40874
 C850 C 0.64506 -0.00192 0.41069
 C851 C 0.63247 0.00157 0.43630
 C852 C 0.64900 -0.00007 0.45916
 C853 C 0.67881 -0.00499 0.45762
 C854 C 0.69271 -0.00847 0.43251
 C855 C 0.72326 -0.01194 0.43236
 C856 C 0.73888 -0.01295 0.45615
 C857 C 0.72484 -0.01146 0.48119
 C858 C 0.69467 -0.00618 0.48133
 H859 H 0.58626 0.01206 0.40536
 H860 H 0.63553 -0.00857 0.31906
 H861 H 0.55943 0.01353 0.36514
 H862 H 0.68130 -0.01624 0.34113
 H863 H 0.71034 -0.01822 0.38019
 H864 H 0.60962 0.00515 0.43955
 H865 H 0.63824 0.00258 0.47836
 H866 H 0.73588 -0.01337 0.41421
 H867 H 0.76228 -0.01513 0.45501
 H868 H 0.68309 -0.00217 0.49984
 C869 C 0.85797 0.46392 0.11329
 C870 C 0.86718 0.48666 0.13004
 C871 C 0.85712 0.51427 0.12402
 C872 C 0.83900 0.51869 0.10208
 C873 C 0.83032 0.49597 0.08570
 C874 C 0.83983 0.46859 0.09160
 C875 C 0.86512 0.53743 0.13990
 C876 C 0.88347 0.53410 0.16139
 C877 C 0.89490 0.50727 0.16786
 C878 C 0.88616 0.48305 0.15227
 C879 C 0.89685 0.45612 0.15936
 C880 C 0.91586 0.45297 0.18048
 C881 C 0.92519 0.47642 0.19537
 C882 C 0.91488 0.50389 0.18933
 C883 C 0.92585 0.52699 0.20448
 C884 C 0.94592 0.52291 0.22467
 C885 C 0.95550 0.49561 0.23142
 C886 C 0.94536 0.47254 0.21592
 H887 H 0.86450 0.44226 0.11617
 H888 H 0.83139 0.53991 0.09787
 H889 H 0.83362 0.45068 0.07907
 H890 H 0.85716 0.55851 0.13560
 H891 H 0.88816 0.55317 0.17263
 H892 H 0.89099 0.43685 0.14892
 H893 H 0.92360 0.43188 0.18501
 H894 H 0.92022 0.54871 0.20076
 H895 H 0.95464 0.54164 0.23444
 H896 H 0.95380 0.45148 0.21947
 C897 C 0.40192 0.02079 0.61010
 C898 C 0.37186 0.01454 0.61053
 C899 C 0.35840 0.01091 0.63578
 C900 C 0.37476 0.01281 0.65936
 C901 C 0.40459 0.01865 0.65841
 C902 C 0.41785 0.02270 0.63357
 C903 C 0.32874 0.00525 0.63738
 C904 C 0.31196 0.00311 0.61450
 C905 C 0.32428 0.00634 0.58886
 C906 C 0.35482 0.01174 0.58685
 C907 C 0.36741 0.01378 0.56120
 C908 C 0.35093 0.01069 0.53835
 C909 C 0.32118 0.00571 0.53993
 C910 C 0.30722 0.00391 0.56509
 C911 C 0.27672 0.00022 0.56524
 C912 C 0.26123 -0.00265 0.54147
 C913 C 0.27533 -0.00282 0.51645
 C914 C 0.30542 0.00269 0.51623
 H915 H 0.41398 0.02437 0.59203
 H916 H 0.36420 0.00994 0.67851
 H917 H 0.44092 0.02687 0.63217
 H918 H 0.31832 0.00238 0.65659
 H919 H 0.28935 -0.00164 0.61760
 H920 H 0.39021 0.01733 0.55790
 H921 H 0.36171 0.01218 0.51913
 H922 H 0.26404 -0.00012 0.58336
 H923 H 0.23786 -0.00507 0.54260
 H924 H 0.31703 0.00535 0.49765
   
