data_POSCAR
  _audit_creation_date              2014-09-24
  _audit_creation_method            'ToBaCCo'
  _symmetry_space_group_name_H-M    'P1'
  _symmetry_Int_Tables_number       1
  _symmetry_cell_setting            triclinic
  loop_
  _symmetry_equiv_pos_as_xyz
 x,y,z
_cell_length_a 21.8954
_cell_length_b 31.2987
_cell_length_c 22.4981
_cell_angle_alpha 90.000000
_cell_angle_beta 90.000000
_cell_angle_gamma 90.222100
loop_
  _atom_site_label
  _atom_site_type_symbol
  _atom_site_fract_x
  _atom_site_fract_y
  _atom_site_fract_z
B1 B -0.04355 -0.04042 0.01965
 B2 B 0.02410 -0.02913 0.05225
 B3 B 0.02105 -0.04190 -0.02113
 B4 B -0.04358 -0.02079 -0.05009
 B5 B -0.07939 0.00555 0.00628
 B6 B -0.03731 -0.00003 0.06944
 B7 B 0.03126 0.04379 -0.01195
 B8 B -0.03665 0.03248 -0.04323
 B9 B -0.03237 0.04498 0.02988
 B10 B 0.03211 0.02400 0.05810
 B11 B 0.06793 -0.00241 0.00198
 B12 B 0.02535 0.00344 -0.06121
 B13 B 0.53523 0.48938 0.56842
 B14 B 0.46479 0.47321 0.54778
 B15 B 0.47687 0.52382 0.57012
 B16 B 0.54624 0.53976 0.54490
 B17 B 0.57675 0.49835 0.50579
 B18 B 0.52614 0.45735 0.50907
 B19 B 0.47193 0.52255 0.44922
 B20 B 0.54255 0.53861 0.47000
 B21 B 0.52994 0.48732 0.44740
 B22 B 0.46070 0.47214 0.47317
 B23 B 0.43077 0.51310 0.51137
 B24 B 0.48117 0.55436 0.50913
 B25 B 0.53126 0.04379 0.51195
 B26 B 0.46335 0.03248 0.54323
 B27 B 0.46763 0.04498 0.47012
 B28 B 0.53211 0.02400 0.44190
 B29 B 0.56793 -0.00241 0.49802
 B30 B 0.52535 0.00344 0.56121
 B31 B 0.45645 -0.04042 0.48035
 B32 B 0.52410 -0.02913 0.44775
 B33 B 0.52105 -0.04190 0.52113
 B34 B 0.45642 -0.02079 0.55009
 B35 B 0.42061 0.00555 0.49372
 B36 B 0.46269 -0.00003 0.43056
 B37 B -0.02807 0.52255 0.05078
 B38 B 0.04255 0.53861 0.03000
 B39 B 0.02994 0.48732 0.05260
 B40 B -0.03930 0.47214 0.02683
 B41 B -0.06923 0.51310 -0.01138
 B42 B -0.01883 0.55436 -0.00913
 B43 B 0.03523 0.48938 -0.06842
 B44 B -0.03521 0.47321 -0.04778
 B45 B -0.02313 0.52382 -0.07012
 B46 B 0.04624 0.53976 -0.04490
 B47 B 0.07675 0.49835 -0.00579
 B48 B 0.02614 0.45735 -0.00907
 B49 B 0.04076 0.45237 0.48453
 B50 B -0.03499 0.46148 0.48512
 B51 B 0.00165 0.44789 0.54883
 B52 B 0.07166 0.47137 0.54820
 B53 B 0.07686 0.50018 0.48383
 B54 B 0.01115 0.49308 0.44462
 B55 B -0.01775 0.53296 0.54889
 B56 B 0.05842 0.52465 0.54796
 B57 B 0.02158 0.53798 0.48480
 B58 B -0.04755 0.51430 0.48448
 B59 B -0.05302 0.48590 0.54858
 B60 B 0.01344 0.49252 0.58801
 B61 B 0.49800 -0.02629 -0.04764
 B62 B 0.57142 -0.02591 -0.02552
 B63 B 0.53718 0.02098 -0.04138
 B64 B 0.46367 0.01729 -0.01901
 B65 B 0.45302 -0.03185 0.01285
 B66 B 0.52049 -0.05864 0.00754
 B67 B 0.53916 0.01089 0.07802
 B68 B 0.46535 0.01138 0.05580
 B69 B 0.50045 -0.03588 0.07198
 B70 B 0.57379 -0.03228 0.04876
 B71 B 0.58410 0.01692 0.01801
 B72 B 0.51679 0.04383 0.02253
 B73 B 0.48225 0.53296 -0.04889
 B74 B 0.55842 0.52465 -0.04796
 B75 B 0.52158 0.53798 0.01520
 B76 B 0.45245 0.51430 0.01552
 B77 B 0.44698 0.48590 -0.04858
 B78 B 0.51344 0.49252 -0.08801
 B79 B 0.54076 0.45237 0.01547
 B80 B 0.46501 0.46148 0.01488
 B81 B 0.50165 0.44789 -0.04883
 B82 B 0.57166 0.47137 -0.04820
 B83 B 0.57686 0.50018 0.01617
 B84 B 0.51115 0.49308 0.05538
 B85 B 0.03916 0.01089 0.42198
 B86 B -0.03465 0.01138 0.44420
 B87 B 0.00045 -0.03588 0.42802
 B88 B 0.07379 -0.03228 0.45124
 B89 B 0.08410 0.01692 0.48199
 B90 B 0.01679 0.04383 0.47747
 B91 B -0.00200 -0.02629 0.54764
 B92 B 0.07142 -0.02591 0.52552
 B93 B 0.03718 0.02098 0.54138
 B94 B -0.03633 0.01729 0.51901
 B95 B -0.04698 -0.03185 0.48715
 B96 B 0.02049 -0.05864 0.49246
 B97 B 0.75304 0.20080 0.30579
 B98 B 0.76695 0.21000 0.23256
 B99 B 0.69473 0.20286 0.25766
 B100 B 0.68726 0.22656 0.32438
 B101 B 0.75598 0.24811 0.34205
 B102 B 0.80638 0.23722 0.28562
 B103 B 0.71556 0.28703 0.24020
 B104 B 0.70010 0.27953 0.31215
 B105 B 0.77299 0.28545 0.29049
 B106 B 0.78081 0.26225 0.22287
 B107 B 0.71128 0.24021 0.20532
 B108 B 0.66240 0.25111 0.26172
 B109 B 0.75076 0.79750 0.78994
 B110 B 0.71815 0.79083 0.72240
 B111 B 0.79358 0.80264 0.72863
 B112 B 0.82149 0.77678 0.78889
 B113 B 0.76149 0.74935 0.81881
 B114 B 0.69798 0.75833 0.77808
 B115 B 0.78173 0.71799 0.70743
 B116 B 0.81307 0.72428 0.77566
 B117 B 0.73771 0.71311 0.76833
 B118 B 0.71060 0.73854 0.70818
 B119 B 0.77002 0.76671 0.67811
 B120 B 0.83393 0.75694 0.71949
 B121 B 0.25410 0.20819 0.72032
 B122 B 0.17935 0.22244 0.72122
 B123 B 0.21704 0.21582 0.78567
 B124 B 0.28971 0.23297 0.77772
 B125 B 0.29652 0.25105 0.70678
 B126 B 0.22793 0.24452 0.67107
 B127 B 0.21163 0.30035 0.76298
 B128 B 0.28553 0.28556 0.76275
 B129 B 0.24790 0.29239 0.69775
 B130 B 0.17494 0.27544 0.70601
 B131 B 0.16813 0.25742 0.77713
 B132 B 0.23673 0.26383 0.81257
 B133 B 0.23674 0.71262 0.21869
 B134 B 0.19505 0.71580 0.28223
 B135 B 0.27073 0.70480 0.28484
 B136 B 0.30715 0.73364 0.23111
 B137 B 0.25263 0.76232 0.19522
 B138 B 0.18299 0.75103 0.22698
 B139 B 0.25385 0.78813 0.31150
 B140 B 0.29589 0.78588 0.24884
 B141 B 0.22003 0.79587 0.24431
 B142 B 0.18429 0.76771 0.29867
 B143 B 0.23914 0.73855 0.33473
 B144 B 0.30832 0.74984 0.30320
 B145 B 0.29358 0.80264 0.77137
 B146 B 0.21815 0.79083 0.77760
 B147 B 0.25076 0.79750 0.71006
 B148 B 0.32149 0.77678 0.71111
 B149 B 0.33393 0.75694 0.78051
 B150 B 0.27002 0.76671 0.82189
 B151 B 0.23771 0.71311 0.73167
 B152 B 0.31307 0.72428 0.72434
 B153 B 0.28173 0.71799 0.79257
 B154 B 0.21060 0.73854 0.79182
 B155 B 0.19798 0.75833 0.72192
 B156 B 0.26149 0.74935 0.68119
 B157 B 0.21556 0.28703 0.25980
 B158 B 0.20010 0.27953 0.18785
 B159 B 0.27299 0.28545 0.20951
 B160 B 0.28081 0.26225 0.27713
 B161 B 0.21128 0.24021 0.29468
 B162 B 0.16240 0.25111 0.23828
 B163 B 0.25304 0.20080 0.19421
 B164 B 0.26695 0.21000 0.26744
 B165 B 0.19473 0.20286 0.24234
 B166 B 0.18726 0.22656 0.17562
 B167 B 0.25598 0.24811 0.15795
 B168 B 0.30638 0.23722 0.21438
 B169 B 0.77073 0.70480 0.21516
 B170 B 0.69505 0.71580 0.21777
 B171 B 0.73674 0.71262 0.28131
 B172 B 0.80715 0.73364 0.26889
 B173 B 0.80832 0.74984 0.19680
 B174 B 0.73914 0.73855 0.16527
 B175 B 0.72003 0.79587 0.25569
 B176 B 0.79589 0.78588 0.25116
 B177 B 0.75385 0.78813 0.18850
 B178 B 0.68429 0.76771 0.20133
 B179 B 0.68299 0.75103 0.27302
 B180 B 0.75263 0.76232 0.30478
 B181 B 0.71704 0.21582 0.71433
 B182 B 0.67935 0.22244 0.77878
 B183 B 0.75410 0.20819 0.77968
 B184 B 0.78971 0.23297 0.72228
 B185 B 0.73673 0.26383 0.68743
 B186 B 0.66813 0.25742 0.72287
 B187 B 0.74790 0.29239 0.80225
 B188 B 0.78553 0.28556 0.73725
 B189 B 0.71163 0.30035 0.73701
 B190 B 0.67494 0.27544 0.79399
 B191 B 0.72793 0.24452 0.82893
 B192 B 0.79652 0.25105 0.79322
 C193 C 0.03728 0.45535 0.82409
 C194 C 0.06915 0.46841 0.87551
 C195 C 0.12878 0.45324 0.88394
 C196 C 0.15115 0.41970 0.84972
 C197 C 0.11737 0.40406 0.80085
 C198 C 0.06173 0.42386 0.78644
 C199 C 0.13811 0.36741 0.77029
 C200 C 0.19043 0.34536 0.79044
 C201 C 0.22120 0.36114 0.84102
 C202 C 0.20371 0.39872 0.86834
 H203 H 0.15556 0.46354 0.92182
 H204 H 0.03498 0.41273 0.74896
 H205 H 0.11183 0.35491 0.73334
 H206 H 0.22903 0.40964 0.90692
 H207 H -0.00851 0.46675 0.81561
 H208 H 0.25876 0.34414 0.86108
 C209 C 0.46736 0.56157 0.34480
 C210 C 0.43614 0.54419 0.39403
 C211 C 0.37413 0.55501 0.40138
 C212 C 0.34734 0.58755 0.36770
 C213 C 0.38068 0.60795 0.32214
 C214 C 0.43988 0.59316 0.30914
 C215 C 0.35524 0.64389 0.29297
 C216 C 0.29731 0.65998 0.30994
 C217 C 0.26571 0.63856 0.35573
 C218 C 0.28942 0.60241 0.38297
 H219 H 0.34764 0.54125 0.43728
 H220 H 0.46626 0.60773 0.27374
 H221 H 0.38160 0.66026 0.25912
 H222 H 0.26380 0.58764 0.41880
 H223 H 0.51450 0.55318 0.33645
 H224 H 0.22379 0.65069 0.37371
 C225 C 1.00471 0.91064 0.62449
 C226 C 0.97310 0.94738 0.60458
 C227 C 0.91180 0.95191 0.62272
 C228 C 0.88275 0.91905 0.65510
 C229 C 0.91711 0.88448 0.67728
 C230 C 0.97884 0.88173 0.66383
 C231 C 0.88822 0.85027 0.70599
 C232 C 0.82424 0.84689 0.70667
 C233 C 0.79042 0.88094 0.68203
 C234 C 0.81917 0.91746 0.65955
 H235 H 0.88458 0.97786 0.60514
 H236 H 1.00516 0.85410 0.67735
 H237 H 0.91598 0.82444 0.72309
 H238 H 0.79146 0.94285 0.64113
 H239 H 1.04735 0.90074 0.60556
 H240 H 0.74171 0.87992 0.67822
 C241 C 0.61847 0.02023 0.16478
 C242 C 0.56464 0.03406 0.13644
 C243 C 0.54227 0.07489 0.15032
 C244 C 0.57402 0.10231 0.18779
 C245 C 0.63098 0.09011 0.21113
 C246 C 0.65161 0.04817 0.20165
 C247 C 0.66807 0.12115 0.23867
 C248 C 0.64912 0.16420 0.24125
 C249 C 0.58879 0.17391 0.22368
 C250 C 0.55187 0.14338 0.19727
 H251 H 0.50319 0.08776 0.12716
 H252 H 0.69499 0.03787 0.21972
 H253 H 0.71322 0.11232 0.25265
 H254 H 0.50724 0.15270 0.18098
 H255 H 0.63760 -0.01081 0.15484
 H256 H 0.57025 0.20578 0.22673
 C257 C 0.91478 0.03720 0.34432
 C258 C 0.91219 0.03529 0.40682
 C259 C 0.86873 0.06141 0.43616
 C260 C 0.83399 0.09155 0.40441
 C261 C 0.84081 0.09455 0.34243
 C262 C 0.87924 0.06609 0.31253
 C263 C 0.81189 0.12738 0.31126
 C264 C 0.77604 0.15836 0.34025
 C265 C 0.76676 0.15359 0.40192
 C266 C 0.79524 0.12050 0.43363
 H267 H 0.86468 0.06073 0.48410
 H268 H 0.88472 0.06794 0.26470
 H269 H 0.81906 0.12849 0.26437
 H270 H 0.78885 0.11861 0.48133
 H271 H 0.94787 0.01862 0.31980
 H272 H 0.73934 0.17641 0.42622
 C273 C 0.45689 0.39712 0.59047
 C274 C 0.42718 0.43633 0.58049
 C275 C 0.36330 0.43867 0.58945
 C276 C 0.33019 0.40194 0.60686
 C277 C 0.36137 0.36290 0.61317
 C278 C 0.42437 0.36087 0.60549
 C279 C 0.33032 0.32641 0.63092
 C280 C 0.26990 0.32866 0.65183
 C281 C 0.23705 0.36662 0.64176
 C282 C 0.26695 0.40296 0.61854
 H283 H 0.33947 0.46845 0.58185
 H284 H 0.44888 0.33116 0.61169
 H285 H 0.35655 0.29732 0.63453
 H286 H 0.24158 0.43236 0.61317
 H287 H 0.50562 0.39351 0.58442
 H288 H 0.18990 0.36916 0.65547
 C289 C 0.62171 0.95981 0.87138
 C290 C 0.62307 0.95333 0.93352
 C291 C 0.66291 0.92227 0.95667
 C292 C 0.69570 0.89586 0.91792
 C293 C 0.69381 0.90372 0.85619
 C294 C 0.65934 0.93720 0.83368
 C295 C 0.71936 0.87479 0.81680
 C296 C 0.73941 0.83511 0.83649
 C297 C 0.74573 0.82859 0.89842
 C298 C 0.72515 0.85923 0.93884
 H299 H 0.66351 0.91541 1.00387
 H300 H 0.65580 0.94259 0.78618
 H301 H 0.71625 0.88149 0.77038
 H302 H 0.72774 0.85258 0.98603
 H303 H 0.58782 0.97996 0.85079
 H304 H 0.76421 0.79921 0.91611
 C305 C 0.05068 0.61668 0.06720
 C306 C 0.07933 0.57648 0.06214
 C307 C 0.14136 0.57308 0.07885
 C308 C 0.17174 0.60823 0.10489
 C309 C 0.14208 0.64806 0.10703
 C310 C 0.08223 0.65213 0.08720
 C311 C 0.17022 0.68289 0.13369
 C312 C 0.22301 0.67752 0.16845
 C313 C 0.25467 0.63856 0.16405
 C314 C 0.22995 0.60444 0.13092
 H315 H 0.16573 0.54345 0.07224
 H316 H 0.05856 0.68244 0.08990
 H317 H 0.14618 0.71303 0.13271
 H318 H 0.25409 0.57431 0.12946
 H319 H 0.00345 0.62158 0.05505
 H320 H 0.29675 0.63372 0.18802
 C321 C 0.51385 0.88856 0.12338
 C322 C 0.48273 0.92833 0.12162
 C323 C 0.42864 0.93131 0.15449
 C324 C 0.40617 0.89666 0.18739
 C325 C 0.43219 0.85574 0.18161
 C326 C 0.48779 0.85240 0.15100
 C327 C 0.40018 0.81941 0.20403
 C328 C 0.34427 0.82471 0.23489
 C329 C 0.32678 0.86702 0.24833
 C330 C 0.35546 0.90215 0.22337
 H331 H 0.40018 0.95893 0.15097
 H332 H 0.51044 0.82181 0.14724
 H333 H 0.41703 0.78757 0.19501
 H334 H 0.33594 0.93358 0.23002
 H335 H 0.55598 0.88419 0.09898
 H336 H 0.28506 0.87395 0.27054
 C337 C 0.60990 0.46886 0.36305
 C338 C 0.55630 0.45799 0.39383
 C339 C 0.53705 0.41454 0.39157
 C340 C 0.57699 0.38230 0.37358
 C341 C 0.63318 0.39339 0.34779
 C342 C 0.64765 0.43686 0.33937
 C343 C 0.67381 0.36090 0.33128
 C344 C 0.66045 0.31716 0.34238
 C345 C 0.60461 0.30711 0.36999
 C346 C 0.56301 0.33920 0.38456
 H347 H 0.49451 0.40462 0.41194
 H348 H 0.68998 0.44603 0.31783
 H349 H 0.71494 0.37014 0.30822
 H350 H 0.52004 0.33029 0.40510
 H351 H 0.62419 0.50166 0.35946
 H352 H 0.59166 0.27420 0.37806
 C353 C 0.98247 0.56274 0.82510
 C354 C 0.94802 0.55014 0.87534
 C355 C 0.89557 0.57391 0.88903
 C356 C 0.88744 0.61405 0.86458
 C357 C 0.91863 0.62608 0.81251
 C358 C 0.96572 0.59927 0.79193
 C359 C 0.90101 0.66443 0.78358
 C360 C 0.85662 0.69101 0.81056
 C361 C 0.84386 0.68378 0.87110
 C362 C 0.85345 0.64402 0.89564
 H363 H 0.86687 0.56551 0.92647
 H364 H 0.99202 0.60809 0.75301
 H365 H 0.91882 0.67212 0.73996
 H366 H 0.83541 0.63710 0.93951
 H367 H 1.02395 0.54605 0.81348
 H368 H 0.82003 0.70676 0.89829
 C369 C 0.12125 0.05209 0.61203
 C370 C 0.06075 0.05497 0.59129
 C371 C 0.02862 0.09308 0.60581
 C372 C 0.05667 0.12473 0.64230
 C373 C 0.11090 0.11448 0.67262
 C374 C 0.14229 0.07744 0.65800
 C375 C 0.13968 0.14451 0.70877
 C376 C 0.12703 0.18816 0.70219
 C377 C 0.07276 0.19927 0.67206
 C378 C 0.03599 0.16734 0.64509
 H379 H -0.01469 0.09980 0.58457
 H380 H 0.18731 0.07130 0.67610
 H381 H 0.17939 0.13432 0.73318
 H382 H -0.00503 0.17667 0.62160
 H383 H 0.15385 0.03070 0.59231
 H384 H 0.05988 0.23247 0.66760
 C385 C 0.03667 0.37699 0.43501
 C386 C 0.07074 0.41399 0.44786
 C387 C 0.12898 0.41876 0.42142
 C388 C 0.15061 0.38830 0.38084
 C389 C 0.11362 0.35290 0.36654
 C390 C 0.05738 0.34711 0.39446
 C391 C 0.13352 0.32306 0.32529
 C392 C 0.19182 0.32620 0.29913
 C393 C 0.22898 0.36131 0.31414
 C394 C 0.20818 0.39251 0.35393
 H395 H 0.15703 0.44649 0.43098
 H396 H 0.02902 0.31952 0.38467
 H397 H 0.10358 0.29632 0.31584
 H398 H 0.23754 0.41940 0.36450
 H399 H -0.00713 0.37094 0.45507
 H400 H 0.27419 0.36462 0.29598
 C401 C 0.42864 0.55736 0.85378
 C402 C 0.44396 0.56709 0.91346
 C403 C 0.41367 0.60128 0.94118
 C404 C 0.37189 0.62630 0.90903
 C405 C 0.35597 0.61483 0.85027
 C406 C 0.38324 0.57954 0.82392
 C407 C 0.31662 0.64062 0.81696
 C408 C 0.30047 0.68101 0.83812
 C409 C 0.31216 0.69067 0.89850
 C410 C 0.34649 0.66307 0.93394
 H411 H 0.42188 0.60824 0.98764
 H412 H 0.37087 0.56981 0.77930
 H413 H 0.30495 0.63141 0.77197
 H414 H 0.35679 0.67210 0.97936
 H415 H 0.44900 0.53087 0.83029
 H416 H 0.29810 0.72067 0.91791
 C417 C 0.53939 0.12497 0.53683
 C418 C 0.56857 0.08509 0.53340
 C419 C 0.62723 0.08076 0.55908
 C420 C 0.65355 0.11456 0.59149
 C421 C 0.62198 0.15352 0.59615
 C422 C 0.56619 0.15893 0.56698
 C423 C 0.64453 0.18588 0.63271
 C424 C 0.69776 0.17998 0.66695
 C425 C 0.73108 0.14204 0.65948
 C426 C 0.70910 0.10953 0.62207
 H427 H 0.65055 0.05032 0.55770
 H428 H 0.54133 0.18870 0.57057
 H429 H 0.61845 0.21508 0.63580
 H430 H 0.73441 0.07996 0.61867
 H431 H 0.49365 0.12953 0.52039
 H432 H 0.77289 0.13687 0.68400
 C433 C 0.93249 0.87770 0.02281
 C434 C 0.91363 0.91962 0.03474
 C435 C 0.85504 0.92594 0.05988
 C436 C 0.81931 0.89099 0.07760
 C437 C 0.84247 0.84947 0.07009
 C438 C 0.89739 0.84298 0.04020
 C439 C 0.81380 0.81526 0.09766
 C440 C 0.76522 0.82236 0.13718
 C441 C 0.73479 0.86181 0.13487
 C442 C 0.76266 0.89651 0.10601
 H443 H 0.83815 0.95785 0.06832
 H444 H 0.91485 0.81103 0.03301
 H445 H 0.83430 0.78397 0.09339
 H446 H 0.74252 0.92795 0.10990
 H447 H 0.97471 0.87075 0.00140
 H448 H 0.69444 0.86733 0.16152
 C449 C 0.96083 0.07937 0.85886
 C450 C 0.93006 0.06252 0.90876
 C451 C 0.86803 0.07239 0.91596
 C452 C 0.83935 0.10232 0.87960
 C453 C 0.87020 0.11958 0.83008
 C454 C 0.93088 0.10713 0.81936
 C455 C 0.84053 0.15014 0.79412
 C456 C 0.78214 0.16583 0.80997
 C457 C 0.75485 0.14976 0.86225
 C458 C 0.78140 0.11703 0.89465
 H459 H 0.84149 0.05753 0.95061
 H460 H 0.95582 0.11998 0.78174
 H461 H 0.86455 0.16358 0.75636
 H462 H 0.75814 0.10516 0.93391
 H463 H 1.00820 0.07152 0.85066
 H464 H 0.71321 0.16324 0.87978
 C465 C 0.14812 0.57882 0.54337
 C466 C 0.10527 0.55695 0.57881
 C467 C 0.10293 0.56597 0.64031
 C468 C 0.13938 0.59880 0.66454
 C469 C 0.17603 0.62371 0.62637
 C470 C 0.18151 0.61280 0.56638
 C471 C 0.20572 0.65990 0.64814
 C472 C 0.20596 0.66972 0.70910
 C473 C 0.17242 0.64311 0.74780
 C474 C 0.13847 0.60843 0.72556
 H475 H 0.07187 0.54849 0.66894
 H476 H 0.21115 0.63088 0.53700
 H477 H 0.22641 0.68115 0.61629
 H478 H 0.11127 0.58941 0.75594
 H479 H 0.15328 0.57160 0.49659
 H480 H 0.17058 0.64997 0.79493
 C481 C 0.51731 0.92233 0.35179
 C482 C 0.55365 0.94272 0.39529
 C483 C 0.61719 0.93695 0.39296
 C484 C 0.64243 0.90585 0.35559
 C485 C 0.60598 0.88484 0.31267
 C486 C 0.54351 0.89459 0.30991
 C487 C 0.63195 0.85261 0.27643
 C488 C 0.69228 0.83842 0.28687
 C489 C 0.72468 0.85745 0.33448
 C490 C 0.70204 0.89235 0.36525
 H491 H 0.64629 0.95260 0.42536
 H492 H 0.51428 0.87886 0.27782
 H493 H 0.60402 0.83672 0.24331
 H494 H 0.72961 0.90650 0.40017
 H495 H 0.46841 0.92715 0.35061
 H496 H 0.76798 0.84506 0.34948
 C497 C 0.37070 0.41094 0.01386
 C498 C 0.41651 0.43138 0.04724
 C499 C 0.42126 0.42250 0.10870
 C500 C 0.38491 0.39059 0.13476
 C501 C 0.34054 0.36964 0.09997
 C502 C 0.33271 0.38067 0.04013
 C503 C 0.30544 0.33708 0.12485
 C504 C 0.31324 0.32439 0.18460
 C505 C 0.35907 0.34442 0.21842
 C506 C 0.39389 0.37781 0.19404
 H507 H 0.45609 0.43801 0.13534
 H508 H 0.29844 0.36486 0.01308
 H509 H 0.27192 0.32148 0.09679
 H510 H 0.42873 0.39297 0.22108
 H511 H 0.36500 0.41744 -0.03306
 H512 H 0.36806 0.33430 0.26359
 C513 C 0.54084 0.62134 0.02184
 C514 C 0.53525 0.58170 0.05102
 C515 C 0.55017 0.57983 0.11202
 C516 C 0.57565 0.61514 0.14139
 C517 C 0.58400 0.65399 0.11084
 C518 C 0.56438 0.65720 0.05158
 C519 C 0.61580 0.68775 0.13862
 C520 C 0.64333 0.68218 0.19520
 C521 C 0.63126 0.64377 0.22563
 C522 C 0.59702 0.61110 0.19965
 H523 H 0.54635 0.55005 0.13622
 H524 H 0.57056 0.68672 0.02712
 H525 H 0.62374 0.71686 0.11370
 H526 H 0.59069 0.58149 0.22394
 H527 H 0.53087 0.62414 -0.02507
 H528 H 0.65041 0.63707 0.26817
 C529 C 0.08563 0.88742 0.98335
 C530 C 0.05213 0.91675 0.94910
 C531 C 0.05022 0.91056 0.88691
 C532 C 0.08524 0.87832 0.86008
 C533 C 0.12357 0.85270 0.89550
 C534 C 0.12187 0.85649 0.95710
 C535 C 0.16382 0.82403 0.86901
 C536 C 0.16651 0.82004 0.80685
 C537 C 0.12234 0.84138 0.77244
 C538 C 0.08359 0.87150 0.79853
 H539 H 0.02303 0.93144 0.85915
 H540 H 0.14863 0.83552 0.98517
 H541 H 0.19445 0.80603 0.89722
 H542 H 0.05296 0.88975 0.77066
 H543 H 0.08250 0.88653 1.03056
 H544 H 0.11943 0.83623 0.72498
 C545 C 0.47788 0.11298 0.40273
 C546 C 0.44012 0.08595 0.43716
 C547 C 0.37661 0.09122 0.43346
 C548 C 0.35115 0.12244 0.39696
 C549 C 0.38906 0.14802 0.36070
 C550 C 0.45260 0.14356 0.36468
 C551 C 0.36251 0.17647 0.31993
 C552 C 0.29840 0.17950 0.31537
 C553 C 0.26204 0.15659 0.35613
 C554 C 0.28791 0.12758 0.39526
 H555 H 0.34602 0.06943 0.45573
 H556 H 0.48266 0.16296 0.33743
 H557 H 0.39158 0.19516 0.29079
 H558 H 0.25833 0.10917 0.42431
 H559 H 0.52705 0.10949 0.40344
 H560 H 0.21318 0.16077 0.35812
 C561 C 0.99785 0.36390 0.57669
 C562 C 0.98406 0.40683 0.58977
 C563 C 0.94759 0.41450 0.64026
 C564 C 0.91667 0.38173 0.66908
 C565 C 0.92355 0.33910 0.65050
 C566 C 0.96703 0.33025 0.60607
 C567 C 0.88509 0.30714 0.67520
 C568 C 0.83881 0.31840 0.71644
 C569 C 0.83553 0.36139 0.73466
 C570 C 0.87472 0.39217 0.71291
 H571 H 0.93864 0.44675 0.65523
 H572 H 0.97585 0.29757 0.59283
 H573 H 0.88880 0.27448 0.65975
 H574 H 0.86859 0.42502 0.72702
 H575 H 1.03183 0.35598 0.54408
 H576 H 0.79893 0.37315 0.76145
 C577 C 0.96736 0.56157 0.15520
 C578 C 0.93614 0.54419 0.10597
 C579 C 0.87413 0.55501 0.09862
 C580 C 0.84734 0.58755 0.13230
 C581 C 0.88068 0.60795 0.17786
 C582 C 0.93988 0.59316 0.19086
 C583 C 0.85524 0.64389 0.20703
 C584 C 0.79731 0.65998 0.19006
 C585 C 0.76571 0.63856 0.14427
 C586 C 0.78942 0.60241 0.11703
 H587 H 0.84764 0.54125 0.06272
 H588 H 0.96626 0.60773 0.22626
 H589 H 0.88160 0.66026 0.24088
 H590 H 0.76380 0.58764 0.08120
 H591 H 1.01450 0.55318 0.16355
 H592 H 0.72379 0.65069 0.12629
 C593 C 0.53728 0.45535 0.67591
 C594 C 0.56915 0.46841 0.62449
 C595 C 0.62878 0.45324 0.61606
 C596 C 0.65115 0.41970 0.65028
 C597 C 0.61737 0.40406 0.69915
 C598 C 0.56173 0.42386 0.71356
 C599 C 0.63811 0.36741 0.72971
 C600 C 0.69043 0.34536 0.70956
 C601 C 0.72120 0.36114 0.65898
 C602 C 0.70371 0.39872 0.63166
 H603 H 0.65556 0.46354 0.57818
 H604 H 0.53498 0.41273 0.75104
 H605 H 0.61183 0.35491 0.76666
 H606 H 0.72903 0.40964 0.59308
 H607 H 0.49149 0.46675 0.68439
 H608 H 0.75876 0.34414 0.63892
 C609 C 0.11847 0.02023 0.33522
 C610 C 0.06464 0.03406 0.36356
 C611 C 0.04227 0.07489 0.34968
 C612 C 0.07402 0.10231 0.31221
 C613 C 0.13098 0.09011 0.28887
 C614 C 0.15161 0.04817 0.29835
 C615 C 0.16807 0.12115 0.26133
 C616 C 0.14912 0.16420 0.25875
 C617 C 0.08879 0.17391 0.27632
 C618 C 0.05187 0.14338 0.30273
 H619 H 0.00319 0.08776 0.37284
 H620 H 0.19499 0.03787 0.28028
 H621 H 0.21322 0.11232 0.24735
 H622 H 0.00724 0.15270 0.31902
 H623 H 0.13760 -0.01081 0.34516
 H624 H 0.07025 0.20578 0.27327
 C625 C 0.50471 0.91064 0.87551
 C626 C 0.47310 0.94738 0.89542
 C627 C 0.41180 0.95191 0.87728
 C628 C 0.38275 0.91905 0.84490
 C629 C 0.41711 0.88448 0.82272
 C630 C 0.47884 0.88173 0.83617
 C631 C 0.38822 0.85027 0.79401
 C632 C 0.32424 0.84689 0.79333
 C633 C 0.29042 0.88094 0.81797
 C634 C 0.31917 0.91746 0.84045
 H635 H 0.38458 0.97786 0.89486
 H636 H 0.50516 0.85410 0.82265
 H637 H 0.41598 0.82444 0.77691
 H638 H 0.29146 0.94285 0.85887
 H639 H 0.54735 0.90074 0.89444
 H640 H 0.24171 0.87992 0.82178
 C641 C 0.12171 0.95981 0.62862
 C642 C 0.12307 0.95333 0.56648
 C643 C 0.16291 0.92227 0.54333
 C644 C 0.19570 0.89586 0.58208
 C645 C 0.19381 0.90372 0.64381
 C646 C 0.15934 0.93720 0.66632
 C647 C 0.21936 0.87479 0.68320
 C648 C 0.23941 0.83511 0.66351
 C649 C 0.24573 0.82859 0.60158
 C650 C 0.22515 0.85923 0.56116
 H651 H 0.16351 0.91541 0.49613
 H652 H 0.15580 0.94259 0.71382
 H653 H 0.21625 0.88149 0.72962
 H654 H 0.22774 0.85258 0.51397
 H655 H 0.08782 0.97996 0.64921
 H656 H 0.26421 0.79921 0.58389
 C657 C 0.55068 0.61668 0.43280
 C658 C 0.57933 0.57648 0.43786
 C659 C 0.64136 0.57308 0.42115
 C660 C 0.67174 0.60823 0.39511
 C661 C 0.64208 0.64806 0.39297
 C662 C 0.58223 0.65213 0.41280
 C663 C 0.67022 0.68289 0.36631
 C664 C 0.72301 0.67752 0.33155
 C665 C 0.75467 0.63856 0.33595
 C666 C 0.72995 0.60444 0.36908
 H667 H 0.66573 0.54345 0.42776
 H668 H 0.55856 0.68244 0.41010
 H669 H 0.64618 0.71303 0.36729
 H670 H 0.75409 0.57431 0.37054
 H671 H 0.50345 0.62158 0.44495
 H672 H 0.79675 0.63372 0.31198
 C673 C 0.41478 0.03720 0.15568
 C674 C 0.41219 0.03529 0.09318
 C675 C 0.36873 0.06141 0.06384
 C676 C 0.33399 0.09155 0.09559
 C677 C 0.34081 0.09455 0.15757
 C678 C 0.37924 0.06609 0.18747
 C679 C 0.31189 0.12738 0.18874
 C680 C 0.27604 0.15836 0.15975
 C681 C 0.26676 0.15359 0.09808
 C682 C 0.29524 0.12050 0.06637
 H683 H 0.36468 0.06073 0.01590
 H684 H 0.38472 0.06794 0.23530
 H685 H 0.31906 0.12849 0.23563
 H686 H 0.28885 0.11861 0.01867
 H687 H 0.44787 0.01862 0.18020
 H688 H 0.23934 0.17641 0.07378
 C689 C 0.95689 0.39712 0.90953
 C690 C 0.92718 0.43633 0.91951
 C691 C 0.86330 0.43867 0.91055
 C692 C 0.83019 0.40194 0.89314
 C693 C 0.86137 0.36290 0.88683
 C694 C 0.92437 0.36087 0.89451
 C695 C 0.83032 0.32641 0.86908
 C696 C 0.76990 0.32866 0.84817
 C697 C 0.73705 0.36662 0.85824
 C698 C 0.76695 0.40296 0.88146
 H699 H 0.83947 0.46845 0.91815
 H700 H 0.94888 0.33116 0.88831
 H701 H 0.85655 0.29732 0.86547
 H702 H 0.74158 0.43236 0.88683
 H703 H 1.00562 0.39351 0.91558
 H704 H 0.68990 0.36916 0.84453
 C705 C 0.62125 0.05209 0.88797
 C706 C 0.56075 0.05497 0.90871
 C707 C 0.52862 0.09308 0.89419
 C708 C 0.55667 0.12473 0.85770
 C709 C 0.61090 0.11448 0.82738
 C710 C 0.64229 0.07744 0.84200
 C711 C 0.63968 0.14451 0.79123
 C712 C 0.62703 0.18816 0.79781
 C713 C 0.57276 0.19927 0.82794
 C714 C 0.53599 0.16734 0.85491
 H715 H 0.48531 0.09980 0.91543
 H716 H 0.68731 0.07130 0.82390
 H717 H 0.67939 0.13432 0.76681
 H718 H 0.49497 0.17667 0.87840
 H719 H 0.65385 0.03070 0.90769
 H720 H 0.55988 0.23247 0.83240
 C721 C 0.48247 0.56274 0.67490
 C722 C 0.44802 0.55014 0.62466
 C723 C 0.39557 0.57391 0.61097
 C724 C 0.38744 0.61405 0.63542
 C725 C 0.41863 0.62608 0.68749
 C726 C 0.46572 0.59927 0.70807
 C727 C 0.40101 0.66443 0.71642
 C728 C 0.35662 0.69101 0.68944
 C729 C 0.34386 0.68378 0.62890
 C730 C 0.35345 0.64402 0.60436
 H731 H 0.36687 0.56551 0.57353
 H732 H 0.49202 0.60809 0.74699
 H733 H 0.41882 0.67212 0.76004
 H734 H 0.33541 0.63710 0.56049
 H735 H 0.52395 0.54605 0.68652
 H736 H 0.32003 0.70676 0.60171
 C737 C 0.10990 0.46886 0.13695
 C738 C 0.05630 0.45799 0.10617
 C739 C 0.03705 0.41454 0.10843
 C740 C 0.07699 0.38230 0.12642
 C741 C 0.13318 0.39339 0.15221
 C742 C 0.14765 0.43686 0.16063
 C743 C 0.17381 0.36090 0.16872
 C744 C 0.16045 0.31716 0.15762
 C745 C 0.10461 0.30711 0.13001
 C746 C 0.06301 0.33920 0.11544
 H747 H -0.00549 0.40462 0.08806
 H748 H 0.18998 0.44603 0.18217
 H749 H 0.21494 0.37014 0.19178
 H750 H 0.02004 0.33029 0.09490
 H751 H 0.12419 0.50166 0.14054
 H752 H 0.09166 0.27420 0.12194
 C753 C 1.01385 0.88856 0.37662
 C754 C 0.98273 0.92833 0.37838
 C755 C 0.92864 0.93131 0.34551
 C756 C 0.90617 0.89666 0.31261
 C757 C 0.93219 0.85574 0.31839
 C758 C 0.98779 0.85240 0.34900
 C759 C 0.90018 0.81941 0.29597
 C760 C 0.84427 0.82471 0.26511
 C761 C 0.82678 0.86702 0.25167
 C762 C 0.85546 0.90215 0.27663
 H763 H 0.90018 0.95893 0.34903
 H764 H 1.01044 0.82181 0.35276
 H765 H 0.91703 0.78757 0.30499
 H766 H 0.83594 0.93358 0.26998
 H767 H 1.05598 0.88419 0.40102
 H768 H 0.78506 0.87395 0.22946
 C769 C 0.92864 0.55736 0.64622
 C770 C 0.94396 0.56709 0.58654
 C771 C 0.91367 0.60128 0.55882
 C772 C 0.87189 0.62630 0.59097
 C773 C 0.85597 0.61483 0.64973
 C774 C 0.88324 0.57954 0.67608
 C775 C 0.81662 0.64062 0.68304
 C776 C 0.80047 0.68101 0.66188
 C777 C 0.81216 0.69067 0.60150
 C778 C 0.84649 0.66307 0.56606
 H779 H 0.92188 0.60824 0.51236
 H780 H 0.87087 0.56981 0.72070
 H781 H 0.80495 0.63141 0.72803
 H782 H 0.85679 0.67210 0.52064
 H783 H 0.94900 0.53087 0.66971
 H784 H 0.79810 0.72067 0.58209
 C785 C 0.53667 0.37699 0.06499
 C786 C 0.57074 0.41399 0.05214
 C787 C 0.62898 0.41876 0.07858
 C788 C 0.65061 0.38830 0.11916
 C789 C 0.61362 0.35290 0.13346
 C790 C 0.55738 0.34711 0.10554
 C791 C 0.63352 0.32306 0.17471
 C792 C 0.69182 0.32620 0.20087
 C793 C 0.72898 0.36131 0.18586
 C794 C 0.70818 0.39251 0.14607
 H795 H 0.65703 0.44649 0.06902
 H796 H 0.52902 0.31952 0.11533
 H797 H 0.60358 0.29632 0.18416
 H798 H 0.73754 0.41940 0.13550
 H799 H 0.49287 0.37094 0.04493
 H800 H 0.77419 0.36462 0.20402
 C801 C 0.43249 0.87770 0.47719
 C802 C 0.41363 0.91962 0.46526
 C803 C 0.35504 0.92594 0.44012
 C804 C 0.31931 0.89099 0.42240
 C805 C 0.34247 0.84947 0.42991
 C806 C 0.39739 0.84298 0.45980
 C807 C 0.31380 0.81526 0.40234
 C808 C 0.26522 0.82236 0.36282
 C809 C 0.23479 0.86181 0.36513
 C810 C 0.26266 0.89651 0.39399
 H811 H 0.33815 0.95785 0.43168
 H812 H 0.41485 0.81103 0.46699
 H813 H 0.33430 0.78397 0.40661
 H814 H 0.24252 0.92795 0.39010
 H815 H 0.47471 0.87075 0.49860
 H816 H 0.19444 0.86733 0.33848
 C817 C 0.03939 0.12497 0.96317
 C818 C 0.06857 0.08509 0.96660
 C819 C 0.12723 0.08076 0.94092
 C820 C 0.15355 0.11456 0.90851
 C821 C 0.12198 0.15352 0.90385
 C822 C 0.06619 0.15893 0.93302
 C823 C 0.14453 0.18588 0.86729
 C824 C 0.19776 0.17998 0.83305
 C825 C 0.23108 0.14204 0.84052
 C826 C 0.20910 0.10953 0.87793
 H827 H 0.15055 0.05032 0.94230
 H828 H 0.04133 0.18870 0.92943
 H829 H 0.11845 0.21508 0.86420
 H830 H 0.23441 0.07996 0.88133
 H831 H -0.00635 0.12953 0.97961
 H832 H 0.27289 0.13687 0.81600
 C833 C 0.01731 0.92233 0.14821
 C834 C 0.05365 0.94272 0.10471
 C835 C 0.11719 0.93695 0.10704
 C836 C 0.14243 0.90585 0.14441
 C837 C 0.10598 0.88484 0.18733
 C838 C 0.04351 0.89459 0.19009
 C839 C 0.13195 0.85261 0.22357
 C840 C 0.19228 0.83842 0.21313
 C841 C 0.22468 0.85745 0.16552
 C842 C 0.20204 0.89235 0.13475
 H843 H 0.14629 0.95260 0.07464
 H844 H 0.01428 0.87886 0.22217
 H845 H 0.10402 0.83672 0.25669
 H846 H 0.22961 0.90650 0.09983
 H847 H -0.03159 0.92715 0.14939
 H848 H 0.26798 0.84506 0.15052
 C849 C 0.87070 0.41094 0.48614
 C850 C 0.91651 0.43138 0.45276
 C851 C 0.92126 0.42250 0.39130
 C852 C 0.88491 0.39059 0.36524
 C853 C 0.84054 0.36964 0.40003
 C854 C 0.83271 0.38067 0.45987
 C855 C 0.80544 0.33708 0.37515
 C856 C 0.81324 0.32439 0.31540
 C857 C 0.85907 0.34442 0.28158
 C858 C 0.89389 0.37781 0.30596
 H859 H 0.95609 0.43801 0.36466
 H860 H 0.79844 0.36486 0.48692
 H861 H 0.77192 0.32148 0.40321
 H862 H 0.92873 0.39297 0.27892
 H863 H 0.86500 0.41744 0.53305
 H864 H 0.86806 0.33430 0.23641
 C865 C 0.46083 0.07937 0.64114
 C866 C 0.43006 0.06252 0.59124
 C867 C 0.36803 0.07239 0.58404
 C868 C 0.33935 0.10232 0.62040
 C869 C 0.37020 0.11958 0.66992
 C870 C 0.43088 0.10713 0.68064
 C871 C 0.34053 0.15014 0.70588
 C872 C 0.28214 0.16583 0.69003
 C873 C 0.25485 0.14976 0.63775
 C874 C 0.28140 0.11703 0.60535
 H875 H 0.34149 0.05753 0.54939
 H876 H 0.45582 0.11998 0.71826
 H877 H 0.36455 0.16358 0.74364
 H878 H 0.25814 0.10516 0.56609
 H879 H 0.50820 0.07152 0.64934
 H880 H 0.21321 0.16324 0.62022
 C881 C 0.64812 0.57882 0.95663
 C882 C 0.60527 0.55695 0.92119
 C883 C 0.60293 0.56597 0.85969
 C884 C 0.63938 0.59880 0.83546
 C885 C 0.67603 0.62371 0.87363
 C886 C 0.68151 0.61280 0.93362
 C887 C 0.70572 0.65990 0.85186
 C888 C 0.70596 0.66972 0.79090
 C889 C 0.67242 0.64311 0.75220
 C890 C 0.63847 0.60843 0.77444
 H891 H 0.57187 0.54849 0.83106
 H892 H 0.71115 0.63088 0.96300
 H893 H 0.72641 0.68115 0.88371
 H894 H 0.61127 0.58941 0.74406
 H895 H 0.65328 0.57160 1.00341
 H896 H 0.67058 0.64997 0.70507
 C897 C 0.49785 0.36390 0.92331
 C898 C 0.48406 0.40683 0.91023
 C899 C 0.44759 0.41450 0.85974
 C900 C 0.41667 0.38173 0.83092
 C901 C 0.42355 0.33910 0.84950
 C902 C 0.46703 0.33025 0.89393
 C903 C 0.38509 0.30714 0.82480
 C904 C 0.33881 0.31840 0.78356
 C905 C 0.33553 0.36139 0.76534
 C906 C 0.37472 0.39217 0.78709
 H907 H 0.43864 0.44675 0.84477
 H908 H 0.47585 0.29757 0.90717
 H909 H 0.38880 0.27448 0.84025
 H910 H 0.36859 0.42502 0.77298
 H911 H 0.53183 0.35598 0.95592
 H912 H 0.29893 0.37315 0.73855
 C913 C 0.97788 0.11298 0.09727
 C914 C 0.94012 0.08595 0.06284
 C915 C 0.87661 0.09122 0.06654
 C916 C 0.85115 0.12244 0.10304
 C917 C 0.88906 0.14802 0.13930
 C918 C 0.95260 0.14356 0.13532
 C919 C 0.86251 0.17647 0.18007
 C920 C 0.79840 0.17950 0.18463
 C921 C 0.76204 0.15659 0.14387
 C922 C 0.78791 0.12758 0.10474
 H923 H 0.84602 0.06943 0.04427
 H924 H 0.98266 0.16296 0.16257
 H925 H 0.89158 0.19516 0.20921
 H926 H 0.75833 0.10917 0.07569
 H927 H 1.02705 0.10949 0.09656
 H928 H 0.71318 0.16077 0.14188
 C929 C 0.58563 0.88742 0.51665
 C930 C 0.55213 0.91675 0.55090
 C931 C 0.55022 0.91056 0.61309
 C932 C 0.58524 0.87832 0.63992
 C933 C 0.62357 0.85270 0.60450
 C934 C 0.62187 0.85649 0.54290
 C935 C 0.66382 0.82403 0.63099
 C936 C 0.66651 0.82004 0.69315
 C937 C 0.62234 0.84138 0.72756
 C938 C 0.58359 0.87150 0.70147
 H939 H 0.52303 0.93144 0.64085
 H940 H 0.64863 0.83552 0.51483
 H941 H 0.69445 0.80603 0.60278
 H942 H 0.55296 0.88975 0.72934
 H943 H 0.58250 0.88653 0.46944
 H944 H 0.61943 0.83623 0.77502
 C945 C 0.04084 0.62134 0.47816
 C946 C 0.03525 0.58170 0.44898
 C947 C 0.05017 0.57983 0.38798
 C948 C 0.07565 0.61514 0.35861
 C949 C 0.08400 0.65399 0.38916
 C950 C 0.06438 0.65720 0.44842
 C951 C 0.11580 0.68775 0.36138
 C952 C 0.14333 0.68218 0.30480
 C953 C 0.13126 0.64377 0.27437
 C954 C 0.09702 0.61110 0.30035
 H955 H 0.04635 0.55005 0.36378
 H956 H 0.07056 0.68672 0.47288
 H957 H 0.12374 0.71686 0.38630
 H958 H 0.09069 0.58149 0.27606
 H959 H 0.03087 0.62414 0.52507
 H960 H 0.15041 0.63707 0.23183
   
