data_POSCAR
  _audit_creation_date              2014-09-24
  _audit_creation_method            'ToBaCCo'
  _symmetry_space_group_name_H-M    'P1'
  _symmetry_Int_Tables_number       1
  _symmetry_cell_setting            triclinic
  loop_
  _symmetry_equiv_pos_as_xyz
 x,y,z
_cell_length_a 71.9372
_cell_length_b 71.8913
_cell_length_c 24.8388
_cell_angle_alpha 89.965900
_cell_angle_beta 90.020100
_cell_angle_gamma 120.003500
loop_
  _atom_site_label
  _atom_site_type_symbol
  _atom_site_fract_x
  _atom_site_fract_y
  _atom_site_fract_z
O1 O 0.22304 0.48160 0.44875
 O2 O 0.25973 0.48202 0.55284
 O3 O 0.22324 0.48159 0.55343
 O4 O 0.25951 0.48200 0.44831
 O5 O 0.27690 0.51743 0.44829
 O6 O 0.24064 0.51701 0.55342
 O7 O 0.27711 0.51741 0.55278
 O8 O 0.24043 0.51702 0.44873
 Cu9 Cu 0.23962 0.47826 0.50084
 Cu10 Cu 0.26050 0.52076 0.50081
 C11 C 0.22537 0.49924 0.43111
 C12 C 0.27487 0.49979 0.57038
 C13 C 0.22564 0.49923 0.57121
 C14 C 0.27454 0.49979 0.43061
 O15 O 0.51829 -0.22252 0.55419
 O16 O 0.51779 -0.25922 0.45002
 O17 O 0.51826 -0.22269 0.44948
 O18 O 0.51777 -0.25908 0.55448
 O19 O 0.48240 -0.27642 0.55449
 O20 O 0.48286 -0.24003 0.44950
 O21 O 0.48239 -0.27656 0.45005
 O22 O 0.48293 -0.23984 0.55420
 Cu23 Cu 0.52157 -0.23912 0.50205
 Cu24 Cu 0.47911 -0.25992 0.50208
 C25 C 0.50070 -0.22477 0.57192
 C26 C 0.50000 -0.27431 0.43254
 C27 C 0.50065 -0.22505 0.43168
 C28 C 0.50000 -0.27418 0.57215
 O29 O 1.22240 0.74142 0.55085
 O30 O 1.25886 0.77785 0.44673
 O31 O 1.22257 0.74164 0.44625
 O32 O 1.25862 0.77769 0.55132
 O33 O 1.27632 0.75998 0.55142
 O34 O 1.24024 0.72389 0.44627
 O35 O 1.27655 0.76016 0.44679
 O36 O 1.24007 0.72368 0.55093
 Cu37 Cu 1.23884 0.76142 0.49877
 Cu38 Cu 1.26007 0.74015 0.49885
 C39 C 1.22491 0.72623 0.56853
 C40 C 1.27408 0.77539 0.42908
 C41 C 1.22514 0.72651 0.42848
 C42 C 1.27372 0.77510 0.56916
 O43 O 0.74075 0.51826 0.55258
 O44 O 0.77711 0.51786 0.44874
 O45 O 0.74103 0.51824 0.44787
 O46 O 0.77684 0.51790 0.55324
 O47 O 0.75887 0.48247 0.55334
 O48 O 0.72305 0.48282 0.44795
 O49 O 0.75913 0.48244 0.44884
 O50 O 0.72279 0.48287 0.55264
 Cu51 Cu 0.76071 0.52161 0.50060
 Cu52 Cu 0.73915 0.47911 0.50071
 C53 C 0.72542 0.50063 0.57028
 C54 C 0.77446 0.50008 0.43133
 C55 C 0.72583 0.50059 0.43004
 C56 C 0.77412 0.50013 0.57099
 O57 O 0.48160 0.25893 0.44883
 O58 O 0.48204 0.22258 0.55280
 O59 O 0.48157 0.25866 0.55351
 O60 O 0.48204 0.22286 0.44833
 O61 O 0.51744 0.24090 0.44840
 O62 O 0.51696 0.27670 0.55361
 O63 O 0.51741 0.24060 0.55285
 O64 O 0.51700 0.27698 0.44892
 Cu65 Cu 0.47827 0.23897 0.50087
 Cu66 Cu 0.52074 0.26062 0.50097
 C67 C 0.49923 0.27425 0.43125
 C68 C 0.49980 0.22518 0.57033
 C69 C 0.49918 0.27390 0.57136
 C70 C 0.49983 0.22563 0.43069
 O71 O 0.74046 0.22315 0.44926
 O72 O 0.77704 0.25976 0.55299
 O73 O 0.74077 0.22343 0.55382
 O74 O 0.77674 0.25945 0.44851
 O75 O 0.75902 0.27715 0.44852
 O76 O 0.72307 0.24114 0.55382
 O77 O 0.75934 0.27744 0.55295
 O78 O 0.72276 0.24087 0.44930
 Cu79 Cu 0.76052 0.23967 0.50116
 Cu80 Cu 0.73927 0.26092 0.50116
 C81 C 0.72524 0.22564 0.43180
 C82 C 0.77463 0.27505 0.57045
 C83 C 0.72565 0.22600 0.57155
 C84 C 0.77416 0.27459 0.43081
 O85 O 0.97037 0.45338 0.10034
 O86 O 0.94664 0.45772 0.04764
 C87 C 0.95102 0.44836 0.08624
 O88 O 1.03036 0.54889 0.09394
 O89 O 1.05395 0.54302 0.04503
 C90 C 1.04968 0.55367 0.08021
 O91 O 0.97031 0.51719 0.09879
 O92 O 0.94662 0.48868 0.04728
 C93 C 0.95096 0.50268 0.08515
 O94 O 1.03031 0.48136 0.09467
 O95 O 1.05394 0.51074 0.04539
 C96 C 1.04965 0.49589 0.08093
 Zr97 Zr 1.00028 0.47636 0.06715
 O98 O 1.00097 0.47371 0.15182
 O99 O 0.99952 0.44680 0.05722
 Zr100 Zr 1.00031 0.52350 0.06753
 O101 O 1.00243 0.52485 0.15259
 O102 O 0.99792 0.55169 0.06585
 O103 O 0.98127 0.49043 0.07812
 O104 O 1.01889 0.50925 0.07742
 O105 O 1.03045 0.48148 -0.09447
 O106 O 1.05410 0.51095 -0.04544
 C107 C 1.04980 0.49605 -0.08079
 O108 O 0.97027 0.51719 -0.09915
 O109 O 0.94661 0.48870 -0.04749
 C110 C 0.95094 0.50270 -0.08537
 O111 O 1.03041 0.54881 -0.09442
 O112 O 1.05405 0.54289 -0.04576
 C113 C 1.04975 0.55355 -0.08093
 O114 O 0.97037 0.45340 -0.10070
 O115 O 0.94663 0.45773 -0.04808
 C116 C 0.95101 0.44837 -0.08667
 Zr117 Zr 1.00028 0.47635 -0.06744
 O118 O 1.00114 0.47375 -0.15206
 O119 O 0.99948 0.44677 -0.05752
 Zr120 Zr 1.00028 0.52347 -0.06801
 O121 O 1.00237 0.52485 -0.15308
 O122 O 0.99794 0.55168 -0.06648
 Zr123 Zr 0.96812 0.48390 -0.00017
 Zr124 Zr 1.03232 0.51605 -0.00025
 O125 O 1.01885 0.50921 -0.07790
 O126 O 0.98125 0.49040 -0.07848
 O127 O 1.01966 0.48251 -0.00015
 O128 O 0.98150 0.51747 -0.00023
 O129 O 0.98119 0.46347 -0.00013
 O130 O 1.01954 0.53680 -0.00029
 H131 H 1.02852 0.51412 0.10915
 H132 H 0.97173 0.52346 -0.00023
 H133 H 1.02844 0.51404 -0.10971
 H134 H 0.97120 0.44774 -0.00014
 H135 H 1.01046 0.56278 0.04578
 H136 H 1.01059 0.56281 -0.04682
 H137 H 0.99078 0.51098 -0.16710
 H138 H 1.00298 0.48726 -0.16724
 H139 H 0.99909 0.44130 -0.09434
 H140 H 0.99897 0.44122 0.09401
 H141 H 1.00373 0.48757 0.16690
 H142 H 0.99096 0.51090 0.16658
 O143 O 0.45316 0.48300 0.09835
 O144 O 0.45804 0.51155 0.04687
 C145 C 0.44835 0.49753 0.08467
 O146 O 0.54922 0.51884 0.09344
 O147 O 0.54323 0.48929 0.04466
 C148 C 0.55391 0.50421 0.07985
 O149 O 0.51720 0.54695 0.09968
 O150 O 0.48905 0.54255 0.04725
 C151 C 0.50281 0.55193 0.08578
 O152 O 0.48140 0.45120 0.09314
 O153 O 0.51106 0.45728 0.04485
 C154 C 0.49604 0.44652 0.07977
 Zr155 Zr 0.47697 0.47680 0.06738
 O156 O 0.47819 0.47557 0.15243
 O157 O 0.44657 0.44844 0.06654
 Zr158 Zr 0.52406 0.52387 0.06678
 O159 O 0.52698 0.52444 0.15155
 O160 O 0.55209 0.55449 0.06199
 O161 O 0.49097 0.50988 0.07783
 O162 O 0.50979 0.49103 0.07708
 O163 O 0.48141 0.45114 -0.09379
 O164 O 0.51118 0.45728 -0.04574
 C165 C 0.49609 0.44648 -0.08045
 O166 O 0.51692 0.54678 -0.10136
 O167 O 0.48897 0.54250 -0.04837
 C168 C 0.50261 0.55181 -0.08715
 O169 O 0.54893 0.51865 -0.09543
 O170 O 0.54324 0.48931 -0.04606
 C171 C 0.55375 0.50412 -0.08168
 O172 O 0.45306 0.48297 -0.09921
 O173 O 0.45797 0.51152 -0.04777
 C174 C 0.44826 0.49750 -0.08554
 Zr175 Zr 0.47676 0.47661 -0.06795
 O176 O 0.47661 0.47431 -0.15295
 O177 O 0.44696 0.44783 -0.06148
 Zr178 Zr 0.52385 0.52375 -0.06841
 O179 O 0.52659 0.52423 -0.15321
 O180 O 0.55191 0.55440 -0.06414
 Zr181 Zr 0.48432 0.51634 -0.00053
 Zr182 Zr 0.51640 0.48424 -0.00071
 O183 O 0.50955 0.49088 -0.07836
 O184 O 0.49075 0.50969 -0.07889
 O185 O 0.48291 0.46349 -0.00033
 O186 O 0.51785 0.53664 -0.00081
 O187 O 0.46409 0.48278 -0.00030
 O188 O 0.53724 0.51778 -0.00091
 H189 H 0.51455 0.48621 0.10895
 H190 H 0.52360 0.55237 -0.00088
 H191 H 0.51422 0.48602 -0.11030
 H192 H 0.44833 0.47677 -0.00022
 H193 H 0.56356 0.55253 0.04585
 H194 H 0.56349 0.55251 -0.04831
 H195 H 0.51192 0.51808 -0.16790
 H196 H 0.47938 0.48825 -0.16769
 H197 H 0.44218 0.44299 -0.09886
 H198 H 0.44734 0.43856 0.04009
 H199 H 0.47931 0.48893 0.16677
 H200 H 0.51235 0.51839 0.16645
 O201 O 0.48241 0.02959 0.09909
 O202 O 0.51095 0.05328 0.04763
 C203 C 0.49697 0.04894 0.08553
 O204 O 0.51858 -0.03048 0.09386
 O205 O 0.48891 -0.05411 0.04556
 C206 C 0.50394 -0.04982 0.08045
 O207 O 0.54678 0.02958 0.09933
 O208 O 0.54199 0.05329 0.04771
 C209 C 0.55163 0.04894 0.08562
 O210 O 0.45056 -0.03056 0.09350
 O211 O 0.45673 -0.05423 0.04568
 C212 C 0.44594 -0.04992 0.08040
 Zr213 Zr 0.47607 -0.00042 0.06773
 O214 O 0.47442 -0.00290 0.15273
 O215 O 0.44777 0.00170 0.06585
 Zr216 Zr 0.52308 -0.00042 0.06799
 O217 O 0.52208 -0.00281 0.15301
 O218 O 0.55349 0.00166 0.06664
 O219 O 0.50914 0.01871 0.07856
 O220 O 0.49026 -0.01906 0.07787
 O221 O 0.45079 -0.03046 -0.09393
 O222 O 0.45683 -0.05415 -0.04577
 C223 C 0.44612 -0.04982 -0.08069
 O224 O 0.54679 0.02961 -0.09880
 O225 O 0.54202 0.05330 -0.04712
 C226 C 0.55166 0.04895 -0.08501
 O227 O 0.51862 -0.03045 -0.09344
 O228 O 0.48891 -0.05410 -0.04531
 C229 C 0.50396 -0.04979 -0.08015
 O230 O 0.48271 0.02962 -0.09956
 O231 O 0.51103 0.05331 -0.04755
 C232 C 0.49717 0.04898 -0.08577
 Zr233 Zr 0.47615 -0.00039 -0.06751
 O234 O 0.47373 -0.00247 -0.15245
 O235 O 0.44743 0.00070 -0.06080
 Zr236 Zr 0.52320 -0.00042 -0.06722
 O237 O 0.52348 -0.00249 -0.15218
 O238 O 0.55298 0.00062 -0.06039
 Zr239 Zr 0.51572 0.03177 0.00019
 Zr240 Zr 0.48356 -0.03249 0.00014
 O241 O 0.49038 -0.01899 -0.07748
 O242 O 0.50923 0.01868 -0.07809
 O243 O 0.46284 -0.01971 0.00001
 O244 O 0.53595 0.01847 0.00035
 O245 O 0.48219 0.01850 0.00003
 O246 O 0.51705 -0.01973 0.00034
 H247 H 0.48547 -0.02865 0.10971
 H248 H 0.55171 0.02825 0.00042
 H249 H 0.48567 -0.02849 -0.10948
 H250 H 0.47627 0.02832 -0.00007
 H251 H 0.55256 -0.00930 0.04098
 H252 H 0.55788 0.00069 -0.09771
 H253 H 0.51973 0.00800 -0.16684
 H254 H 0.48816 0.00747 -0.16701
 H255 H 0.44259 0.00068 -0.09815
 H256 H 0.43766 -0.00946 0.04069
 H257 H 0.48813 0.00877 0.16718
 H258 H 0.51963 0.00864 0.16714
 C259 C 1.19732 0.51826 0.33499
 C260 C 1.18023 0.49873 0.31692
 C261 C 1.17827 0.47937 0.33490
 C262 C 1.19316 0.47952 0.37137
 C263 C 1.21021 0.49907 0.39045
 C264 C 1.21223 0.51845 0.37147
 C265 C 1.16423 0.49852 0.28168
 C266 C 1.15053 0.49827 0.25318
 C267 C 1.13414 0.49784 0.22100
 C268 C 1.11983 0.49736 0.19459
 C269 C 1.10238 0.49661 0.16439
 C270 C 1.10632 0.51218 0.12527
 C271 C 1.08921 0.51181 0.09748
 C272 C 1.06790 0.49584 0.10859
 C273 C 1.06416 0.48014 0.14761
 C274 C 1.08128 0.48054 0.17526
 H275 H 1.19896 0.53334 0.32145
 H276 H 1.16507 0.46416 0.32128
 H277 H 1.19114 0.46432 0.38516
 H278 H 1.22516 0.53377 0.38534
 H279 H 1.12259 0.52473 0.11663
 H280 H 1.09269 0.52417 0.06781
 H281 H 1.04799 0.46763 0.15726
 H282 H 1.07803 0.46844 0.20555
 C283 C 0.48002 0.67786 0.33871
 C284 C 0.49935 0.67968 0.32115
 C285 C 0.51888 0.69701 0.33832
 C286 C 0.51912 0.71226 0.37368
 C287 C 0.49977 0.71034 0.39244
 C288 C 0.48021 0.69308 0.37407
 C289 C 0.49915 0.66330 0.28740
 C290 C 0.49911 0.64940 0.26014
 C291 C 0.49925 0.63299 0.22925
 C292 C 0.49959 0.61893 0.20361
 C293 C 0.50034 0.60214 0.17380
 C294 C 0.48543 0.59118 0.13286
 C295 C 0.48624 0.57487 0.10409
 C296 C 0.50199 0.56930 0.11593
 C297 C 0.51685 0.58040 0.15730
 C298 C 0.51601 0.59669 0.18596
 H299 H 0.46480 0.66449 0.32574
 H300 H 0.53394 0.69856 0.32504
 H301 H 0.53445 0.72534 0.38700
 H302 H 0.46504 0.69114 0.38770
 H303 H 0.47318 0.59522 0.12322
 H304 H 0.47448 0.56661 0.07273
 H305 H 0.52914 0.57651 0.16765
 H306 H 0.52758 0.60503 0.21768
 C307 C 0.32050 -0.19753 0.33500
 C308 C 0.31824 -0.18033 0.31693
 C309 C 0.30095 -0.17822 0.33480
 C310 C 0.28613 -0.19305 0.37121
 C311 C 0.28841 -0.21026 0.39055
 C312 C 0.30570 -0.21241 0.37141
 C313 C 0.33411 -0.16438 0.28172
 C314 C 0.34758 -0.15071 0.25321
 C315 C 0.36355 -0.13435 0.22096
 C316 C 0.37734 -0.12008 0.19440
 C317 C 0.39397 -0.10264 0.16398
 C318 C 0.39889 -0.08155 0.17443
 C319 C 0.41555 -0.06443 0.14663
 C320 C 0.42759 -0.06817 0.10790
 C321 C 0.42233 -0.08950 0.09716
 C322 C 0.40564 -0.10660 0.12509
 H323 H 0.33385 -0.19929 0.32148
 H324 H 0.29908 -0.16494 0.32112
 H325 H 0.27306 -0.19081 0.38467
 H326 H 0.30805 -0.22541 0.38505
 H327 H 0.39000 -0.07830 0.20458
 H328 H 0.41914 -0.04826 0.15600
 H329 H 0.43127 -0.09298 0.06771
 H330 H 0.40201 -0.12287 0.11678
 C331 C 0.82203 0.51912 0.33700
 C332 C 0.81985 0.49960 0.31977
 C333 C 0.80240 0.48023 0.33742
 C334 C 0.78737 0.48037 0.37288
 C335 C 0.78963 0.49991 0.39125
 C336 C 0.80702 0.51930 0.37246
 C337 C 0.83601 0.49946 0.28580
 C338 C 0.84983 0.49947 0.25834
 C339 C 0.86636 0.49966 0.22723
 C340 C 0.88075 0.50002 0.20150
 C341 C 0.89826 0.50073 0.17171
 C342 C 0.89433 0.48552 0.13162
 C343 C 0.91144 0.48617 0.10324
 C344 C 0.93275 0.50208 0.11465
 C345 C 0.93649 0.51729 0.15504
 C346 C 0.91937 0.51660 0.18330
 H347 H 0.83550 0.53421 0.32367
 H348 H 0.80058 0.46502 0.32442
 H349 H 0.77418 0.46516 0.38655
 H350 H 0.80924 0.53462 0.38579
 H351 H 0.87805 0.47313 0.12241
 H352 H 0.90796 0.47416 0.07256
 H353 H 0.95266 0.52972 0.16498
 H354 H 0.92260 0.52843 0.21433
 C355 C 0.51824 0.32129 0.33493
 C356 C 0.49873 0.31883 0.31670
 C357 C 0.47938 0.30147 0.33476
 C358 C 0.47953 0.28676 0.37140
 C359 C 0.49906 0.28926 0.39057
 C360 C 0.51843 0.30660 0.37157
 C361 C 0.49853 0.33457 0.28115
 C362 C 0.49829 0.34796 0.25237
 C363 C 0.49789 0.36388 0.21989
 C364 C 0.49740 0.37766 0.19325
 C365 C 0.49663 0.39432 0.16285
 C366 C 0.48042 0.39919 0.17320
 C367 C 0.48002 0.41593 0.14557
 C368 C 0.49588 0.42809 0.10710
 C369 C 0.51197 0.42288 0.09642
 C370 C 0.51234 0.40611 0.12419
 H371 H 0.53332 0.33471 0.32135
 H372 H 0.46418 0.29944 0.32105
 H373 H 0.46434 0.27360 0.38521
 H374 H 0.53374 0.30900 0.38552
 H375 H 0.46820 0.39020 0.20312
 H376 H 0.46741 0.41947 0.15488
 H377 H 0.52446 0.43191 0.06718
 H378 H 0.52499 0.40252 0.11593
 C379 C 0.69699 0.17805 0.33745
 C380 C 0.67962 0.18014 0.32002
 C381 C 0.67761 0.19754 0.33755
 C382 C 0.69269 0.21261 0.37309
 C383 C 0.70999 0.21043 0.39166
 C384 C 0.71210 0.19309 0.37299
 C385 C 0.66340 0.16396 0.28599
 C386 C 0.64962 0.15012 0.25849
 C387 C 0.63331 0.13360 0.22737
 C388 C 0.61928 0.11920 0.20164
 C389 C 0.60247 0.10168 0.17190
 C390 C 0.59726 0.08057 0.18348
 C391 C 0.58079 0.06343 0.15531
 C392 C 0.56927 0.06716 0.11502
 C393 C 0.57468 0.08848 0.10357
 C394 C 0.59117 0.10561 0.13187
 H395 H 0.69868 0.16461 0.32420
 H396 H 0.66420 0.19929 0.32439
 H397 H 0.69061 0.22576 0.38666
 H398 H 0.72522 0.19095 0.38648
 H399 H 0.60588 0.07735 0.21446
 H400 H 0.57708 0.04726 0.16523
 H401 H 0.56613 0.09195 0.07294
 H402 H 0.59504 0.12189 0.12267
 C403 C 0.51965 0.19791 -0.33761
 C404 C 0.50032 0.18039 -0.32018
 C405 C 0.48081 0.17819 -0.33747
 C406 C 0.48059 0.19323 -0.37284
 C407 C 0.49997 0.21073 -0.39171
 C408 C 0.51952 0.21299 -0.37297
 C409 C 0.50047 0.16417 -0.28636
 C410 C 0.50048 0.15030 -0.25905
 C411 C 0.50032 0.13373 -0.22811
 C412 C 0.49998 0.11931 -0.20249
 C413 C 0.49928 0.10176 -0.17275
 C414 C 0.51443 0.10567 -0.13251
 C415 C 0.51374 0.08853 -0.10403
 C416 C 0.49785 0.06721 -0.11550
 C417 C 0.48272 0.06349 -0.15609
 C418 C 0.48344 0.08064 -0.18444
 H419 H 0.53485 0.19976 -0.32450
 H420 H 0.46574 0.16467 -0.32424
 H421 H 0.46521 0.19088 -0.38601
 H422 H 0.53478 0.22621 -0.38626
 H423 H 0.52680 0.12195 -0.12322
 H424 H 0.52570 0.09200 -0.07322
 H425 H 0.47030 0.04732 -0.16608
 H426 H 0.47166 0.07742 -0.21560
 C427 C 0.69876 0.52043 -0.33565
 C428 C 0.68136 0.50107 -0.31784
 C429 C 0.67899 0.48156 -0.33578
 C430 C 0.69376 0.48138 -0.37207
 C431 C 0.71115 0.50078 -0.39123
 C432 C 0.71356 0.52032 -0.37195
 C433 C 0.66548 0.50124 -0.28285
 C434 C 0.65197 0.50147 -0.25455
 C435 C 0.63596 0.50187 -0.22251
 C436 C 0.62215 0.50236 -0.19609
 C437 C 0.60552 0.50317 -0.16575
 C438 C 0.60043 0.51919 -0.17678
 C439 C 0.58383 0.51970 -0.14887
 C440 C 0.57200 0.50413 -0.10945
 C441 C 0.57742 0.48822 -0.09815
 C442 C 0.59405 0.48775 -0.12619
 H443 H 0.70073 0.53563 -0.32204
 H444 H 0.66557 0.46648 -0.32228
 H445 H 0.69133 0.46599 -0.38560
 H446 H 0.72672 0.53560 -0.38538
 H447 H 0.60916 0.53119 -0.20741
 H448 H 0.58012 0.53217 -0.15864
 H449 H 0.56867 0.47597 -0.06813
 H450 H 0.59782 0.47523 -0.11739
 C451 C 0.80220 0.32214 -0.33775
 C452 C 0.81962 0.32016 -0.32034
 C453 C 0.82163 0.30273 -0.33752
 C454 C 0.80653 0.28753 -0.37279
 C455 C 0.78914 0.28959 -0.39166
 C456 C 0.78705 0.30699 -0.37301
 C457 C 0.83589 0.33648 -0.28669
 C458 C 0.84979 0.35036 -0.25952
 C459 C 0.86638 0.36678 -0.22875
 C460 C 0.88080 0.38088 -0.20327
 C461 C 0.89833 0.39777 -0.17370
 C462 C 0.91944 0.40314 -0.18563
 C463 C 0.93657 0.41958 -0.15733
 C464 C 0.93282 0.43090 -0.11657
 C465 C 0.91150 0.42540 -0.10493
 C466 C 0.89439 0.40894 -0.13335
 H467 H 0.80050 0.33560 -0.32472
 H468 H 0.83508 0.30105 -0.32430
 H469 H 0.80873 0.27439 -0.38591
 H470 H 0.77392 0.30917 -0.38631
 H471 H 0.92267 0.39463 -0.21688
 H472 H 0.95274 0.42338 -0.16744
 H473 H 0.90802 0.43382 -0.07397
 H474 H 0.87811 0.40496 -0.12390
 C475 C 0.48180 -0.19744 -0.33359
 C476 C 0.50132 -0.18040 -0.31545
 C477 C 0.52063 -0.17846 -0.33345
 C478 C 0.52047 -0.19331 -0.37005
 C479 C 0.50090 -0.21037 -0.38944
 C480 C 0.48155 -0.21234 -0.37018
 C481 C 0.50157 -0.16440 -0.28014
 C482 C 0.50185 -0.15069 -0.25160
 C483 C 0.50230 -0.13430 -0.21941
 C484 C 0.50279 -0.11999 -0.19299
 C485 C 0.50353 -0.10254 -0.16280
 C486 C 0.51972 -0.08144 -0.17325
 C487 C 0.52006 -0.06431 -0.14581
 C488 C 0.50416 -0.06804 -0.10745
 C489 C 0.48809 -0.08936 -0.09669
 C490 C 0.48779 -0.10647 -0.12425
 H491 H 0.46674 -0.19906 -0.32001
 H492 H 0.53585 -0.16529 -0.31976
 H493 H 0.53572 -0.19120 -0.38363
 H494 H 0.46615 -0.22521 -0.38388
 H495 H 0.53195 -0.07821 -0.20312
 H496 H 0.53265 -0.04814 -0.15516
 H497 H 0.47559 -0.09283 -0.06750
 H498 H 0.47514 -0.12274 -0.11595
 C499 C 0.32178 0.51967 -0.33701
 C500 C 0.31992 0.50033 -0.31938
 C501 C 0.30265 0.48081 -0.33675
 C502 C 0.28749 0.48058 -0.37241
 C503 C 0.28942 0.49996 -0.39146
 C504 C 0.30666 0.51953 -0.37266
 C505 C 0.33621 0.50051 -0.28532
 C506 C 0.35005 0.50054 -0.25784
 C507 C 0.36642 0.50041 -0.22678
 C508 C 0.38049 0.50009 -0.20114
 C509 C 0.39735 0.49940 -0.17152
 C510 C 0.40249 0.48345 -0.18301
 C511 C 0.41898 0.48278 -0.15494
 C512 C 0.43060 0.49808 -0.11485
 C513 C 0.42528 0.51406 -0.10353
 C514 C 0.40877 0.51470 -0.13173
 H515 H 0.33511 0.53489 -0.32384
 H516 H 0.30106 0.46573 -0.32337
 H517 H 0.27448 0.46518 -0.38563
 H518 H 0.30874 0.53480 -0.38610
 H519 H 0.39379 0.47156 -0.21381
 H520 H 0.42264 0.47028 -0.16478
 H521 H 0.43392 0.52614 -0.07309
 H522 H 0.40496 0.52715 -0.12260
 C523 C 1.17793 0.69879 -0.33505
 C524 C 1.18003 0.68148 -0.31709
 C525 C 1.19716 0.67915 -0.33526
 C526 C 1.21200 0.69391 -0.37182
 C527 C 1.20984 0.71119 -0.39077
 C528 C 1.19274 0.71357 -0.37160
 C529 C 1.16411 0.66565 -0.28175
 C530 C 1.15047 0.65220 -0.25316
 C531 C 1.13414 0.63622 -0.22089
 C532 C 1.11987 0.62240 -0.19440
 C533 C 1.10244 0.60570 -0.16415
 C534 C 1.08136 0.60075 -0.17472
 C535 C 1.06424 0.58401 -0.14710
 C536 C 1.06798 0.57192 -0.10843
 C537 C 1.08930 0.57721 -0.09758
 C538 C 1.10639 0.59397 -0.12533
 H539 H 1.16469 0.70072 -0.32136
 H540 H 1.19890 0.66577 -0.32174
 H541 H 1.22497 0.69161 -0.38577
 H542 H 1.19061 0.72668 -0.38537
 H543 H 1.07812 0.60969 -0.20478
 H544 H 1.04808 0.58041 -0.15652
 H545 H 1.09277 0.56824 -0.06816
 H546 H 1.12266 0.59764 -0.11691
 C547 C 0.82144 0.51924 -0.33400
 C548 C 0.81928 0.49973 -0.31669
 C549 C 0.80185 0.48035 -0.33427
 C550 C 0.78685 0.48045 -0.36987
 C551 C 0.78913 0.49999 -0.38846
 C552 C 0.80646 0.51939 -0.36960
 C553 C 0.83550 0.49963 -0.28300
 C554 C 0.84941 0.49967 -0.25588
 C555 C 0.86604 0.49987 -0.22528
 C556 C 0.88051 0.50023 -0.20001
 C557 C 0.89810 0.50089 -0.17075
 C558 C 0.89424 0.48566 -0.13078
 C559 C 0.91141 0.48625 -0.10282
 C560 C 0.93270 0.50213 -0.11457
 C561 C 0.93636 0.51737 -0.15488
 C562 C 0.91917 0.51673 -0.18271
 H563 H 0.83490 0.53434 -0.32071
 H564 H 0.80006 0.46515 -0.32120
 H565 H 0.77369 0.46524 -0.38358
 H566 H 0.80868 0.53470 -0.38308
 H567 H 0.87798 0.47328 -0.12132
 H568 H 0.90799 0.47423 -0.07219
 H569 H 0.95251 0.52978 -0.16504
 H570 H 0.92233 0.52857 -0.21369
 C571 C 0.47922 0.30079 -0.33179
 C572 C 0.49855 0.31814 -0.31364
 C573 C 0.51809 0.32066 -0.33175
 C574 C 0.51833 0.30605 -0.36848
 C575 C 0.49897 0.28873 -0.38764
 C576 C 0.47941 0.28616 -0.36852
 C577 C 0.49829 0.33386 -0.27831
 C578 C 0.49798 0.34728 -0.24985
 C579 C 0.49752 0.36325 -0.21786
 C580 C 0.49703 0.37711 -0.19171
 C581 C 0.49634 0.39391 -0.16194
 C582 C 0.51210 0.40579 -0.12352
 C583 C 0.51187 0.42271 -0.09637
 C584 C 0.49585 0.42798 -0.10743
 C585 C 0.47993 0.41575 -0.14570
 C586 C 0.48021 0.39885 -0.17273
 H587 H 0.46400 0.29874 -0.31816
 H588 H 0.53314 0.33408 -0.31809
 H589 H 0.53365 0.30849 -0.38244
 H590 H 0.46424 0.27303 -0.38250
 H591 H 0.52471 0.40215 -0.11498
 H592 H 0.52439 0.43180 -0.06725
 H593 H 0.46738 0.41935 -0.15527
 H594 H 0.46796 0.38978 -0.20252
 C595 C 0.67831 0.19810 -0.33343
 C596 C 0.68036 0.18070 -0.31597
 C597 C 0.69771 0.17861 -0.33346
 C598 C 0.71276 0.19364 -0.36913
 C599 C 0.71059 0.21093 -0.38786
 C600 C 0.69333 0.21314 -0.36910
 C601 C 0.66411 0.16444 -0.28226
 C602 C 0.65026 0.15050 -0.25517
 C603 C 0.63384 0.13384 -0.22465
 C604 C 0.61970 0.11936 -0.19945
 C605 C 0.60275 0.10178 -0.17027
 C606 C 0.59750 0.08069 -0.18216
 C607 C 0.58092 0.06350 -0.15438
 C608 C 0.56933 0.06719 -0.11423
 C609 C 0.57475 0.08849 -0.10258
 C610 C 0.59135 0.10565 -0.13047
 H611 H 0.66490 0.19983 -0.32021
 H612 H 0.69941 0.16517 -0.32027
 H613 H 0.72585 0.19148 -0.38278
 H614 H 0.69121 0.22627 -0.38272
 H615 H 0.60620 0.07752 -0.21302
 H616 H 0.57718 0.04734 -0.16445
 H617 H 0.56613 0.09192 -0.07207
 H618 H 0.59525 0.12193 -0.12111
 C619 C 1.19776 0.51821 -0.33223
 C620 C 1.18067 0.49867 -0.31419
 C621 C 1.17870 0.47932 -0.33217
 C622 C 1.19356 0.47949 -0.36871
 C623 C 1.21059 0.49905 -0.38784
 C624 C 1.21265 0.51843 -0.36878
 C625 C 1.16464 0.49845 -0.27913
 C626 C 1.15089 0.49818 -0.25088
 C627 C 1.13443 0.49775 -0.21907
 C628 C 1.12007 0.49728 -0.19301
 C629 C 1.10258 0.49659 -0.16323
 C630 C 1.08149 0.48056 -0.17433
 C631 C 1.06434 0.48022 -0.14705
 C632 C 1.06805 0.49595 -0.10821
 C633 C 1.08935 0.51190 -0.09691
 C634 C 1.10649 0.51220 -0.12431
 H635 H 1.19940 0.53329 -0.31868
 H636 H 1.16550 0.46410 -0.31858
 H637 H 1.19151 0.46430 -0.38259
 H638 H 1.22556 0.53375 -0.38271
 H639 H 1.07829 0.46843 -0.20449
 H640 H 1.04818 0.46773 -0.15683
 H641 H 1.09281 0.52428 -0.06735
 H642 H 1.12276 0.52472 -0.11551
 C643 C 0.48007 0.67881 -0.33556
 C644 C 0.49939 0.68058 -0.31821
 C645 C 0.51892 0.69792 -0.33534
 C646 C 0.51916 0.71319 -0.37065
 C647 C 0.49980 0.71130 -0.38961
 C648 C 0.48023 0.69404 -0.37086
 C649 C 0.49920 0.66410 -0.28495
 C650 C 0.49914 0.65008 -0.25820
 C651 C 0.49926 0.63350 -0.22802
 C652 C 0.49956 0.61929 -0.20300
 C653 C 0.50022 0.60232 -0.17387
 C654 C 0.48534 0.59128 -0.13296
 C655 C 0.48609 0.57484 -0.10470
 C656 C 0.50177 0.56922 -0.11704
 C657 C 0.51657 0.58037 -0.15846
 C658 C 0.51579 0.59680 -0.18660
 H659 H 0.46486 0.66543 -0.32255
 H660 H 0.53397 0.69943 -0.32215
 H661 H 0.53456 0.72623 -0.38380
 H662 H 0.46499 0.69200 -0.38420
 H663 H 0.47317 0.59538 -0.12291
 H664 H 0.47437 0.56654 -0.07326
 H665 H 0.52880 0.57644 -0.16915
 H666 H 0.52734 0.60520 -0.21832
 C667 C 0.32054 -0.19738 -0.33401
 C668 C 0.31817 -0.18027 -0.31575
 C669 C 0.30089 -0.17815 -0.33374
 C670 C 0.28619 -0.19289 -0.37048
 C671 C 0.28863 -0.20995 -0.38981
 C672 C 0.30586 -0.21215 -0.37076
 C673 C 0.33397 -0.16435 -0.28045
 C674 C 0.34742 -0.15068 -0.25197
 C675 C 0.36340 -0.13430 -0.21989
 C676 C 0.37723 -0.11998 -0.19359
 C677 C 0.39396 -0.10253 -0.16354
 C678 C 0.40568 -0.10649 -0.12479
 C679 C 0.42247 -0.08937 -0.09718
 C680 C 0.42776 -0.06805 -0.10812
 C681 C 0.41568 -0.06431 -0.14675
 C682 C 0.39892 -0.08144 -0.17424
 H683 H 0.33390 -0.19913 -0.32045
 H684 H 0.29894 -0.16493 -0.31997
 H685 H 0.27311 -0.19075 -0.38432
 H686 H 0.30819 -0.22510 -0.38483
 H687 H 0.40200 -0.12276 -0.11629
 H688 H 0.43144 -0.09285 -0.06778
 H689 H 0.41930 -0.04813 -0.15624
 H690 H 0.38997 -0.07820 -0.20426
 C691 C 0.48174 -0.19729 0.33441
 C692 C 0.50128 -0.18029 0.31610
 C693 C 0.52060 -0.17830 0.33432
 C694 C 0.52042 -0.19306 0.37127
 C695 C 0.50085 -0.21003 0.39057
 C696 C 0.48150 -0.21208 0.37136
 C697 C 0.50153 -0.16438 0.28047
 C698 C 0.50182 -0.15073 0.25172
 C699 C 0.50226 -0.13438 0.21936
 C700 C 0.50276 -0.12008 0.19291
 C701 C 0.50350 -0.10262 0.16280
 C702 C 0.48780 -0.10654 0.12412
 C703 C 0.48810 -0.08940 0.09663
 C704 C 0.50413 -0.06809 0.10761
 C705 C 0.51997 -0.06438 0.14613
 C706 C 0.51963 -0.08153 0.17349
 H707 H 0.46669 -0.19893 0.32070
 H708 H 0.53582 -0.16515 0.32054
 H709 H 0.53559 -0.19102 0.38525
 H710 H 0.46618 -0.22494 0.38543
 H711 H 0.47520 -0.12281 0.11566
 H712 H 0.47563 -0.09286 0.06734
 H713 H 0.53251 -0.04821 0.15567
 H714 H 0.53182 -0.07831 0.20347
 C715 C 0.32194 0.51970 0.33554
 C716 C 0.32003 0.50035 0.31782
 C717 C 0.30276 0.48081 0.33526
 C718 C 0.28768 0.48060 0.37108
 C719 C 0.28970 0.49998 0.39002
 C720 C 0.30687 0.51954 0.37136
 C721 C 0.33629 0.50053 0.28375
 C722 C 0.35012 0.50056 0.25630
 C723 C 0.36648 0.50042 0.22533
 C724 C 0.38056 0.50009 0.19979
 C725 C 0.39742 0.49940 0.17032
 C726 C 0.40260 0.48349 0.18204
 C727 C 0.41911 0.48283 0.15410
 C728 C 0.43069 0.49810 0.11391
 C729 C 0.42534 0.51405 0.10236
 C730 C 0.40882 0.51467 0.13044
 H731 H 0.33527 0.53492 0.32237
 H732 H 0.30116 0.46573 0.32186
 H733 H 0.27465 0.46527 0.38463
 H734 H 0.30889 0.53473 0.38513
 H735 H 0.39391 0.47163 0.21294
 H736 H 0.42279 0.47036 0.16409
 H737 H 0.43396 0.52610 0.07182
 H738 H 0.40498 0.52710 0.12115
 C739 C 1.19752 0.67959 0.33194
 C740 C 1.18044 0.68199 0.31363
 C741 C 1.17838 0.69933 0.33147
 C742 C 1.19315 0.71405 0.36813
 C743 C 1.21018 0.71158 0.38750
 C744 C 1.21232 0.69430 0.36860
 C745 C 1.16449 0.66616 0.27845
 C746 C 1.15078 0.65268 0.25010
 C747 C 1.13435 0.63667 0.21820
 C748 C 1.12000 0.62280 0.19207
 C749 C 1.10251 0.60603 0.16223
 C750 C 1.08144 0.60103 0.17323
 C751 C 1.06427 0.58421 0.14600
 C752 C 1.06795 0.57210 0.10735
 C753 C 1.08924 0.57743 0.09609
 C754 C 1.10639 0.59428 0.12344
 H755 H 1.19922 0.66619 0.31850
 H756 H 1.16517 0.70129 0.31767
 H757 H 1.19104 0.72717 0.38186
 H758 H 1.22524 0.69194 0.38273
 H759 H 1.07825 0.60999 0.20330
 H760 H 1.04812 0.58057 0.15570
 H761 H 1.09267 0.56845 0.06665
 H762 H 1.12265 0.59798 0.11476
 C763 C 0.51974 0.19791 0.33637
 C764 C 0.50039 0.18043 0.31879
 C765 C 0.48087 0.17825 0.33590
 C766 C 0.48066 0.19324 0.37135
 C767 C 0.50002 0.21061 0.39023
 C768 C 0.51958 0.21293 0.37181
 C769 C 0.50056 0.16421 0.28523
 C770 C 0.50057 0.15031 0.25817
 C771 C 0.50039 0.13370 0.22755
 C772 C 0.50002 0.11925 0.20214
 C773 C 0.49927 0.10169 0.17255
 C774 C 0.48352 0.08059 0.18463
 C775 C 0.48271 0.06343 0.15621
 C776 C 0.49768 0.06716 0.11520
 C777 C 0.51350 0.08847 0.10340
 C778 C 0.51427 0.10561 0.13194
 H779 H 0.53494 0.19974 0.32341
 H780 H 0.46580 0.16475 0.32258
 H781 H 0.46534 0.19099 0.38471
 H782 H 0.53476 0.22612 0.38555
 H783 H 0.47188 0.07738 0.21613
 H784 H 0.47036 0.04726 0.16650
 H785 H 0.52534 0.09193 0.07227
 H786 H 0.52658 0.12189 0.12240
 C787 C 0.69893 0.52043 0.33274
 C788 C 0.68158 0.50106 0.31473
 C789 C 0.67911 0.48153 0.33296
 C790 C 0.69374 0.48135 0.36975
 C791 C 0.71102 0.50074 0.38886
 C792 C 0.71357 0.52029 0.36952
 C793 C 0.66580 0.50126 0.27948
 C794 C 0.65237 0.50152 0.25102
 C795 C 0.63641 0.50199 0.21897
 C796 C 0.62260 0.50252 0.19270
 C797 C 0.60590 0.50333 0.16271
 C798 C 0.59425 0.48781 0.12357
 C799 C 0.57752 0.48824 0.09595
 C800 C 0.57221 0.50423 0.10727
 C801 C 0.58420 0.51988 0.14632
 C802 C 0.60090 0.51940 0.17381
 H803 H 0.70095 0.53564 0.31899
 H804 H 0.66570 0.46645 0.31939
 H805 H 0.69131 0.46604 0.38382
 H806 H 0.72669 0.53549 0.38341
 H807 H 0.59796 0.47526 0.11479
 H808 H 0.56861 0.47592 0.06623
 H809 H 0.58056 0.53239 0.15613
 H810 H 0.60978 0.53147 0.20414
 C811 C 0.82154 0.30264 0.33596
 C812 C 0.81947 0.32003 0.31858
 C813 C 0.80208 0.32206 0.33605
 C814 C 0.78703 0.30699 0.37163
 C815 C 0.78923 0.28970 0.39028
 C816 C 0.80651 0.28754 0.37154
 C817 C 0.83572 0.33632 0.28490
 C818 C 0.84964 0.35019 0.25781
 C819 C 0.86626 0.36662 0.22724
 C820 C 0.88072 0.38075 0.20197
 C821 C 0.89828 0.39767 0.17266
 C822 C 0.89438 0.40891 0.13241
 C823 C 0.91152 0.42541 0.10421
 C824 C 0.93282 0.43088 0.11600
 C825 C 0.93653 0.41948 0.15669
 C826 C 0.91936 0.40300 0.18476
 H827 H 0.83497 0.30094 0.32276
 H828 H 0.80036 0.33550 0.32292
 H829 H 0.77391 0.30911 0.38528
 H830 H 0.80866 0.27442 0.38512
 H831 H 0.87811 0.40495 0.12286
 H832 H 0.90808 0.43389 0.07330
 H833 H 0.95269 0.42326 0.16687
 H834 H 0.92255 0.39442 0.21597
   
