data_POSCAR
  _audit_creation_date              2014-09-24
  _audit_creation_method            'ToBaCCo'
  _symmetry_space_group_name_H-M    'P1'
  _symmetry_Int_Tables_number       1
  _symmetry_cell_setting            triclinic
  loop_
  _symmetry_equiv_pos_as_xyz
 x,y,z
_cell_length_a 39.4825
_cell_length_b 39.5122
_cell_length_c 38.2890
_cell_angle_alpha 90.102100
_cell_angle_beta 90.097800
_cell_angle_gamma 120.122700
loop_
  _atom_site_label
  _atom_site_type_symbol
  _atom_site_fract_x
  _atom_site_fract_y
  _atom_site_fract_z
C1 C 0.52155 0.06215 0.04548
 H2 H 0.54977 0.06422 0.04247
 C3 C 0.51800 0.08902 0.06651
 H4 H 0.54383 0.11195 0.07936
 C5 C 0.45410 0.03056 0.03099
 H6 H 0.42939 0.00799 0.01676
 C7 C 0.44917 0.05684 0.05189
 H8 H 0.42042 0.05374 0.05402
 N9 N 0.48984 0.03350 0.02844
 C10 C 0.51483 -0.06084 0.01125
 H11 H 0.51266 -0.06353 -0.01690
 C12 C 0.52031 -0.08746 0.03097
 H13 H 0.52217 -0.11070 0.01773
 C14 C 0.51264 -0.02859 0.06270
 H15 H 0.50883 -0.00617 0.07509
 C16 C 0.51819 -0.05446 0.08337
 H17 H 0.51944 -0.05099 0.11148
 Zn18 Zn 0.49886 -0.00007 -0.00042
 N19 N 0.51097 -0.03224 0.02732
 C20 C 0.57420 0.03006 -0.03168
 N21 N 0.54104 0.03246 -0.03000
 C22 C 0.53795 0.06072 -0.04744
 C23 C 0.56918 0.08847 -0.06718
 C24 C 0.60613 0.05711 -0.05141
 C25 C 0.42223 -0.06140 -0.00947
 C26 C 0.38903 -0.08893 -0.02760
 C27 C 0.42105 -0.05807 -0.08156
 C28 C 0.45370 -0.03133 -0.06225
 N29 N 0.45373 -0.03348 -0.02690
 H30 H 0.57635 0.00785 -0.01707
 H31 H 0.51139 0.06218 -0.04530
 H32 H 0.56630 0.11099 -0.08062
 H33 H 0.63267 0.05545 -0.05188
 H34 H 0.42305 -0.06245 0.01875
 H35 H 0.36447 -0.10931 -0.01200
 H36 H 0.42386 -0.05594 -0.10962
 H37 H 0.47944 -0.00951 -0.07574
 C38 C 0.52157 -0.08474 0.06759
 C39 C 0.48142 0.08655 0.07006
 C40 C 0.38765 -0.08838 -0.06462
 C41 C 0.60400 0.08715 -0.06900
 C42 C -0.06182 0.47689 0.61998
 H43 H -0.06419 0.44852 0.62265
 C44 C -0.08820 0.48111 0.59880
 H45 H -0.11107 0.45564 0.58550
 C46 C -0.02993 0.54405 0.63543
 H47 H -0.00738 0.56838 0.65005
 C48 C -0.05571 0.54963 0.61440
 H49 H -0.05232 0.57852 0.61261
 N50 N -0.03327 0.50813 0.63757
 C51 C 0.06089 0.48285 0.65498
 H52 H 0.06318 0.48446 0.68317
 C53 C 0.08790 0.47790 0.63532
 H54 H 0.11103 0.47587 0.64863
 C55 C 0.02929 0.48593 0.60343
 H56 H 0.00695 0.48986 0.59099
 C57 C 0.05554 0.48092 0.58280
 H58 H 0.05246 0.48021 0.55467
 Zn59 Zn -0.00033 0.49829 0.66651
 N60 N 0.03243 0.48691 0.63884
 C61 C -0.03022 0.42280 0.69757
 N62 N -0.03338 0.45547 0.69530
 C63 C -0.06186 0.45827 0.71268
 C64 C -0.08825 0.42776 0.73385
 C65 C -0.05605 0.39151 0.71859
 C66 C 0.06152 0.57470 0.67814
 C67 C 0.08841 0.60697 0.69776
 C68 C 0.05468 0.57286 0.75017
 C69 C 0.02867 0.54117 0.72959
 N70 N 0.03249 0.54260 0.69425
 H71 H -0.00778 0.42089 0.68308
 H72 H -0.06412 0.48431 0.70987
 H73 H -0.11102 0.43048 0.74701
 H74 H -0.05279 0.36596 0.72051
 H75 H 0.06429 0.57481 0.65003
 H76 H 0.11198 0.63172 0.68446
 H77 H 0.05087 0.57113 0.77822
 H78 H 0.00584 0.51524 0.74203
 C79 C 0.08571 0.47737 0.59867
 C80 C -0.08532 0.51788 0.59568
 C81 C 0.08542 0.60619 0.73436
 C82 C -0.08551 0.39382 0.73716
 C83 C 0.53929 0.47904 0.37967
 H84 H 0.51241 0.45124 0.37733
 C85 C 0.57027 0.48188 0.39950
 H86 H 0.56686 0.45619 0.41280
 C87 C 0.57660 0.54607 0.36436
 H88 H 0.57930 0.57072 0.34986
 C89 C 0.60828 0.55030 0.38419
 H90 H 0.63515 0.57831 0.38487
 N91 N 0.54301 0.51077 0.36244
 C92 C 0.42386 0.48496 0.34164
 H93 H 0.42443 0.48651 0.31343
 C94 C 0.39074 0.47914 0.35978
 H95 H 0.36560 0.47558 0.34525
 C96 C 0.45640 0.48848 0.39476
 H97 H 0.48242 0.49313 0.40831
 C98 C 0.42387 0.48272 0.41395
 H99 H 0.42528 0.48304 0.44220
 Zn100 Zn 0.50097 0.50192 0.33281
 N101 N 0.45584 0.48958 0.35926
 C102 C 0.45670 0.42640 0.30121
 N103 N 0.49201 0.45998 0.30304
 C104 C 0.52368 0.46374 0.28562
 C105 C 0.52076 0.43282 0.26568
 C106 C 0.45238 0.39478 0.28129
 C107 C 0.51793 0.57901 0.32424
 C108 C 0.52362 0.61212 0.30622
 C109 C 0.51975 0.57909 0.25192
 C110 C 0.51413 0.54657 0.27101
 N111 N 0.51322 0.54708 0.30651
 H112 H 0.43210 0.42367 0.31587
 H113 H 0.55151 0.49061 0.28789
 H114 H 0.54639 0.43625 0.25222
 H115 H 0.42435 0.36791 0.28070
 H116 H 0.51652 0.57839 0.35247
 H117 H 0.52725 0.63721 0.32084
 H118 H 0.51926 0.57772 0.22367
 H119 H 0.50940 0.52059 0.25737
 C120 C 0.39062 0.47842 0.39646
 C121 C 0.60547 0.51775 0.40162
 C122 C 0.52412 0.61229 0.26954
 C123 C 0.48486 0.39762 0.26365
 C124 C 0.17366 0.47179 0.53616
 C125 C 0.15926 0.44906 0.56657
 C126 C 0.13056 0.45060 0.58678
 C127 C 0.11562 0.47489 0.57704
 C128 C 0.12998 0.49751 0.54660
 C129 C 0.15855 0.49593 0.52641
 C130 C 0.20456 0.47090 0.51487
 N131 N 0.21738 0.49208 0.48501
 N132 N 0.24556 0.49197 0.46607
 C133 C 0.26222 0.47070 0.47614
 N134 N 0.24934 0.44938 0.50596
 N135 N 0.22109 0.44946 0.52492
 C136 C 0.29425 0.47146 0.45531
 C137 C 0.31281 0.45081 0.46625
 C138 C 0.34379 0.45267 0.44700
 C139 C 0.35681 0.47510 0.41635
 C140 C 0.33796 0.49536 0.40523
 C141 C 0.30708 0.49356 0.42445
 H142 H 0.17015 0.43006 0.57480
 H143 H 0.11981 0.43252 0.60989
 H144 H 0.11966 0.51708 0.53869
 H145 H 0.16905 0.51400 0.50328
 H146 H 0.30362 0.43342 0.48983
 H147 H 0.35747 0.43641 0.45604
 H148 H 0.34767 0.51339 0.38204
 H149 H 0.29356 0.50990 0.41523
 C150 C 0.52868 0.82833 0.13027
 C151 C 0.50465 0.84347 0.14034
 C152 C 0.50261 0.87174 0.12011
 C153 C 0.52462 0.88575 0.08931
 C154 C 0.54884 0.87081 0.07927
 C155 C 0.55085 0.84242 0.09953
 C156 C 0.52999 0.79767 0.15156
 N157 N 0.55136 0.78115 0.14124
 N158 N 0.55177 0.75307 0.16016
 C159 C 0.53087 0.74035 0.19022
 N160 N 0.50968 0.75702 0.20057
 N161 N 0.50924 0.78503 0.18166
 C162 C 0.53042 0.70847 0.21099
 C163 C 0.50860 0.69567 0.24201
 C164 C 0.50703 0.66487 0.26114
 C165 C 0.52726 0.64606 0.24977
 C166 C 0.54944 0.65908 0.21897
 C167 C 0.55106 0.68998 0.19981
 H168 H 0.48701 0.83321 0.16374
 H169 H 0.48311 0.88207 0.12827
 H170 H 0.56647 0.88131 0.05588
 H171 H 0.56975 0.83150 0.09104
 H172 H 0.49227 0.70913 0.25141
 H173 H 0.48918 0.65516 0.28445
 H174 H 0.56568 0.64545 0.20974
 H175 H 0.56825 0.69915 0.17611
 C176 C 0.29220 0.82428 0.87754
 C177 C 0.31783 0.86058 0.86246
 C178 C 0.34915 0.88969 0.88159
 C179 C 0.35603 0.88371 0.91685
 C180 C 0.32907 0.84710 0.93185
 C181 C 0.29802 0.81806 0.91251
 C182 C 0.26015 0.79266 0.85678
 N183 N 0.23923 0.75587 0.86983
 N184 N 0.21120 0.72710 0.85092
 C185 C 0.20277 0.73387 0.81817
 N186 N 0.22350 0.77073 0.80517
 N187 N 0.25164 0.79950 0.82406
 C188 C 0.17220 0.70148 0.79693
 C189 C 0.15951 0.70896 0.76503
 C190 C 0.13111 0.67817 0.74486
 C191 C 0.11492 0.63919 0.75603
 C192 C 0.12765 0.63182 0.78796
 C193 C 0.15578 0.66256 0.80820
 H194 H 0.31390 0.86658 0.83563
 H195 H 0.36671 0.91731 0.86852
 H196 H 0.33266 0.83907 0.95795
 H197 H 0.27886 0.79032 0.92499
 H198 H 0.17141 0.73862 0.75566
 H199 H 0.12161 0.68493 0.72065
 H200 H 0.11644 0.60217 0.79706
 H201 H 0.16506 0.65568 0.83248
 C202 C 0.82923 0.52757 0.53274
 C203 C 0.84297 0.54885 0.56408
 C204 C 0.87122 0.54633 0.58423
 C205 C 0.88645 0.52261 0.57341
 C206 C 0.87351 0.50228 0.54157
 C207 C 0.84520 0.50463 0.52155
 C208 C 0.79755 0.52809 0.51233
 N209 N 0.77991 0.50246 0.48561
 N210 N 0.75054 0.50179 0.46791
 C211 C 0.73756 0.52678 0.47607
 N212 N 0.75537 0.55266 0.50264
 N213 N 0.78470 0.55324 0.52045
 C214 C 0.70413 0.52509 0.45682
 C215 C 0.69428 0.55448 0.46098
 C216 C 0.66241 0.55236 0.44290
 C217 C 0.63952 0.52057 0.42066
 C218 C 0.64942 0.49128 0.41647
 C219 C 0.68141 0.49357 0.43422
 H220 H 0.83125 0.56675 0.57350
 H221 H 0.88028 0.56207 0.60879
 H222 H 0.88523 0.48439 0.53212
 H223 H 0.83563 0.48818 0.49737
 H224 H 0.71122 0.57918 0.47814
 H225 H 0.65528 0.57524 0.44669
 H226 H 0.63262 0.46673 0.39912
 H227 H 0.68811 0.47040 0.43038
 C228 C 0.47345 0.17322 0.13258
 C229 C 0.45158 0.15913 0.10156
 C230 C 0.45359 0.13053 0.08153
 C231 C 0.47737 0.11528 0.09216
 C232 C 0.49834 0.12863 0.12367
 C233 C 0.49650 0.15730 0.14356
 C234 C 0.47333 0.20515 0.15288
 N235 N 0.49941 0.22304 0.17926
 N236 N 0.50036 0.25256 0.19690
 C237 C 0.47521 0.26545 0.18902
 N238 N 0.44890 0.24740 0.16278
 N239 N 0.44804 0.21792 0.14503
 C240 C 0.47713 0.29896 0.20826
 C241 C 0.44765 0.30876 0.20437
 C242 C 0.44993 0.34065 0.22249
 C243 C 0.48195 0.36361 0.24450
 C244 C 0.51134 0.35378 0.24839
 C245 C 0.50890 0.32177 0.23060
 H246 H 0.43360 0.17082 0.09230
 H247 H 0.43738 0.12118 0.05722
 H248 H 0.51630 0.11693 0.13299
 H249 H 0.51340 0.16714 0.16750
 H250 H 0.42276 0.29176 0.18741
 H251 H 0.42697 0.34773 0.21891
 H252 H 0.53606 0.37063 0.26557
 H253 H 0.53213 0.31511 0.23422
 C254 C -0.29655 0.17756 0.87621
 C255 C -0.31882 0.18687 0.89870
 C256 C -0.35104 0.15747 0.91633
 C257 C -0.36164 0.11805 0.91214
 C258 C -0.33918 0.10863 0.89004
 C259 C -0.30707 0.13808 0.87207
 C260 C -0.26293 0.20900 0.85701
 N261 N -0.24555 0.20053 0.83047
 N262 N -0.21609 0.22906 0.81266
 C263 C -0.20268 0.26723 0.82076
 N264 N -0.21988 0.27561 0.84747
 N265 N -0.24937 0.24715 0.86516
 C266 C -0.17092 0.29921 0.80032
 C267 C -0.15458 0.33827 0.81140
 C268 C -0.12626 0.36877 0.79131
 C269 C -0.11368 0.36104 0.75951
 C270 C -0.12924 0.32193 0.74882
 C271 C -0.15752 0.29133 0.76904
 H272 H -0.31160 0.21693 0.90252
 H273 H -0.36750 0.16561 0.93359
 H274 H -0.34685 0.07843 0.88626
 H275 H -0.29049 0.12993 0.85499
 H276 H -0.16388 0.34542 0.83553
 H277 H -0.11428 0.39850 0.80066
 H278 H -0.12044 0.31500 0.72431
 H279 H -0.16953 0.26158 0.75972
   
