data_POSCAR
  _audit_creation_date              2014-09-24
  _audit_creation_method            'ToBaCCo'
  _symmetry_space_group_name_H-M    'P1'
  _symmetry_Int_Tables_number       1
  _symmetry_cell_setting            triclinic
  loop_
  _symmetry_equiv_pos_as_xyz
 x,y,z
_cell_length_a 48.8000
_cell_length_b 48.7992
_cell_length_c 48.7989
_cell_angle_alpha 89.835800
_cell_angle_beta 90.000000
_cell_angle_gamma 90.000200
loop_
  _atom_site_label
  _atom_site_type_symbol
  _atom_site_fract_x
  _atom_site_fract_y
  _atom_site_fract_z
N1 N 0.17517 0.17440 0.17441
 N2 N -0.17479 0.82444 0.17559
 N3 N -0.17478 0.17557 -0.17553
 N4 N 0.17516 0.82562 -0.17437
 N5 N 0.17708 1.17744 0.82265
 N6 N 0.82248 0.82278 0.82276
 N7 N 0.17707 0.82262 1.17742
 N8 N 0.82241 1.17720 1.17725
 N9 N 0.52933 1.02939 1.04849
 N10 N 0.55055 1.03240 1.06499
 N11 N 0.47164 1.04842 1.02941
 N12 N 0.45027 1.06474 1.03225
 N13 N 0.47163 1.02936 1.04845
 N14 N 0.45025 1.03220 1.06476
 N15 N 0.52934 1.04845 1.02945
 N16 N 0.55056 1.06493 1.03248
 C17 C 0.56360 1.05471 1.05478
 C18 C 0.43715 1.05442 1.05445
 N19 N 0.47165 1.02955 0.95143
 N20 N 0.45041 1.03259 0.93495
 N21 N 0.52933 1.04854 0.97046
 N22 N 0.55067 1.06491 0.96756
 N23 N 0.52935 1.02956 0.95146
 N24 N 0.55070 1.03249 0.93512
 N25 N 0.47164 1.04854 0.97043
 N26 N 0.45039 1.06500 0.96739
 Mn27 Mn 0.50049 1.04884 0.99994
 C28 C 0.43734 1.05484 0.94511
 C29 C 0.56379 1.05469 0.94537
 N30 N 0.47163 0.97038 1.04852
 N31 N 0.45038 0.96732 1.06499
 N32 N 0.52935 0.95143 1.02953
 N33 N 0.55069 0.93508 1.03245
 N34 N 0.52933 0.97041 1.04854
 N35 N 0.55067 0.96749 1.06490
 N36 N 0.47165 0.95139 1.02952
 N37 N 0.45041 0.93491 1.03255
 Mn38 Mn 0.50048 0.99989 1.04885
 C39 C 0.43734 0.94505 1.05481
 C40 C 0.56378 0.94530 1.05466
 N41 N 0.52939 0.97058 0.95151
 N42 N 0.55062 0.96758 0.93502
 N43 N 0.47170 0.95151 0.97054
 N44 N 0.45034 0.93519 0.96770
 N45 N 0.47169 0.97056 0.95150
 N46 N 0.45032 0.96772 0.93518
 N47 N 0.52940 0.95152 0.97055
 N48 N 0.55063 0.93504 0.96753
 Mn49 Mn 0.50052 1.00006 0.95112
 Mn50 Mn 0.50052 0.95111 1.00004
 Cl51 Cl 0.50050 0.99998 0.99999
 C52 C 0.56367 0.94527 0.94523
 C53 C 0.43722 0.94550 0.94549
 N54 N 0.02911 0.47089 0.04849
 N55 N 0.03201 0.44944 0.06476
 N56 N 0.04813 0.52871 0.02966
 N57 N 0.06458 0.54995 0.03274
 N58 N 0.02910 0.52859 0.04868
 N59 N 0.03210 0.54975 0.06521
 N60 N 0.04815 0.47102 0.02948
 N61 N 0.06450 0.44966 0.03230
 C62 C 0.05423 0.43642 0.05447
 C63 C 0.05437 0.56287 0.05505
 N64 N 0.02914 0.52914 -0.04835
 N65 N 0.03204 0.55059 -0.06463
 N66 N 0.04819 0.47135 -0.02950
 N67 N 0.06466 0.45012 -0.03255
 N68 N 0.02918 0.47144 -0.04853
 N69 N 0.03221 0.45028 -0.06505
 N70 N 0.04815 0.52904 -0.02932
 N71 N 0.06449 0.55041 -0.03214
 Mn72 Mn 0.04850 0.50003 0.00008
 C73 C 0.05424 0.56363 -0.05432
 C74 C 0.05448 0.43718 -0.05487
 N75 N -0.02988 0.52854 0.04864
 N76 N -0.03274 0.54981 0.06503
 N77 N -0.04889 0.47095 0.02944
 N78 N -0.06538 0.44971 0.03242
 N79 N -0.02987 0.47085 0.04847
 N80 N -0.03292 0.44953 0.06491
 N81 N -0.04889 0.52866 0.02961
 N82 N -0.06521 0.55002 0.03254
 Mn83 Mn -0.00038 0.49971 0.04892
 C84 C -0.05493 0.56299 0.05479
 C85 C -0.05521 0.43655 0.05468
 N86 N -0.02981 0.47145 -0.04855
 N87 N -0.03265 0.45018 -0.06495
 N88 N -0.04887 0.52903 -0.02938
 N89 N -0.06538 0.55026 -0.03238
 N90 N -0.02984 0.52914 -0.04839
 N91 N -0.03288 0.55046 -0.06483
 N92 N -0.04884 0.47132 -0.02955
 N93 N -0.06515 0.44996 -0.03250
 Mn94 Mn -0.00033 0.50030 -0.04881
 Mn95 Mn -0.04922 0.49999 0.00003
 Cl96 Cl -0.00036 0.50001 0.00005
 C97 C -0.05485 0.43699 -0.05474
 C98 C -0.05519 0.56343 -0.05463
 N99 N 0.95117 0.02958 0.52868
 N100 N 0.93484 0.03250 0.55003
 N101 N 0.97019 0.04848 0.47089
 N102 N 0.96715 0.06492 0.44958
 N103 N 0.95118 0.02945 0.47098
 N104 N 0.93469 0.03244 0.44974
 N105 N 0.97018 0.04861 0.52858
 N106 N 0.96730 0.06499 0.54986
 C107 C 0.94510 0.05474 0.56302
 C108 C 0.94487 0.05471 0.43659
 N109 N 1.04820 0.02948 0.47105
 N110 N 1.06456 0.03230 0.44969
 N111 N 1.02916 0.04865 0.52863
 N112 N 1.03216 0.06517 0.54980
 N113 N 1.04819 0.02963 0.52874
 N114 N 1.06464 0.03270 0.54998
 N115 N 1.02918 0.04849 0.47093
 N116 N 1.03207 0.06477 0.44948
 Mn117 Mn 0.99968 0.04890 0.49976
 C118 C 1.05429 0.05446 0.43645
 C119 C 1.05444 0.05501 0.56292
 N120 N 0.95122 -0.02954 0.47132
 N121 N 0.93490 -0.03248 0.44997
 N122 N 0.97022 -0.04843 0.52912
 N123 N 0.96719 -0.06488 0.55043
 N124 N 0.95119 -0.02942 0.52902
 N125 N 0.93469 -0.03242 0.55026
 N126 N 0.97025 -0.04855 0.47143
 N127 N 0.96739 -0.06494 0.45015
 Mn128 Mn 0.95084 0.00002 0.50000
 C129 C 0.94518 -0.05471 0.43698
 C130 C 0.94489 -0.05468 0.56342
 N131 N 1.04821 -0.02934 0.52903
 N132 N 1.06455 -0.03216 0.55040
 N133 N 1.02924 -0.04853 0.47142
 N134 N 1.03227 -0.06504 0.45026
 N135 N 1.04825 -0.02950 0.47134
 N136 N 1.06472 -0.03254 0.45011
 N137 N 1.02920 -0.04838 0.52913
 N138 N 1.03210 -0.06466 0.55058
 Mn139 Mn 1.04856 0.00007 0.50004
 Mn140 Mn 0.99973 -0.04882 0.50028
 Cl141 Cl 0.99970 0.00004 0.50002
 C142 C 1.05430 -0.05434 0.56363
 C143 C 1.05455 -0.05485 0.43716
 C144 C 1.12344 0.14810 0.22501
 C145 C 1.14047 0.13916 0.24632
 C146 C 1.16893 0.14162 0.24383
 C147 C 1.18035 0.15308 0.22017
 C148 C 1.16341 0.16220 0.19870
 C149 C 1.13484 0.15955 0.20132
 C150 C 1.12875 0.12770 0.27086
 C151 C 1.11904 0.11821 0.29150
 C152 C 1.10779 0.10721 0.31578
 C153 C 1.09828 0.09790 0.33660
 C154 C 1.08707 0.08685 0.36156
 C155 C 1.06414 0.09909 0.37365
 C156 C 1.05342 0.08854 0.39806
 C157 C 1.06556 0.06561 0.41065
 C158 C 1.08852 0.05337 0.39832
 C159 C 1.09921 0.06395 0.37392
 H160 H 1.10138 0.14626 0.22672
 H161 H 1.18229 0.13483 0.26024
 H162 H 1.20239 0.15513 0.21870
 H163 H 1.12142 0.16628 0.18497
 H164 H 1.05460 0.11682 0.36425
 H165 H 1.03567 0.09833 0.40707
 H166 H 1.09823 0.03564 0.40754
 H167 H 1.11696 0.05432 0.36472
 C168 C 0.83124 -0.14297 0.24494
 C169 C 0.85970 -0.14048 0.24750
 C170 C 0.87679 -0.14942 0.22629
 C171 C 0.86547 -0.16086 0.20263
 C172 C 0.83691 -0.16350 0.19992
 C173 C 0.81990 -0.15442 0.22130
 C174 C 0.87132 -0.12893 0.27197
 C175 C 0.88094 -0.11934 0.29256
 C176 C 0.89207 -0.10819 0.31676
 C177 C 0.90148 -0.09874 0.33752
 C178 C 0.91260 -0.08755 0.36238
 C179 C 0.90039 -0.06461 0.37447
 C180 C 0.91101 -0.05388 0.39878
 C181 C 0.93397 -0.06601 0.41129
 C182 C 0.94618 -0.08898 0.39897
 C183 C 0.93552 -0.09969 0.37466
 H184 H 0.81783 -0.13618 0.26126
 H185 H 0.89884 -0.14757 0.22806
 H186 H 0.87894 -0.16756 0.18634
 H187 H 0.79786 -0.15646 0.21976
 H188 H 0.88264 -0.05506 0.36513
 H189 H 0.90125 -0.03612 0.40779
 H190 H 0.96392 -0.09869 0.40813
 H191 H 0.94513 -0.11744 0.36547
 C192 C 0.83118 0.14297 0.75512
 C193 C 0.85963 0.14046 0.75254
 C194 C 0.87675 0.14940 0.77373
 C195 C 0.86546 0.16085 0.79740
 C196 C 0.83690 0.16350 0.80013
 C197 C 0.81986 0.15442 0.77877
 C198 C 0.87123 0.12891 0.72806
 C199 C 0.88083 0.11931 0.70747
 C200 C 0.89195 0.10816 0.68326
 C201 C 0.90136 0.09872 0.66250
 C202 C 0.91248 0.08754 0.63762
 C203 C 0.93539 0.09970 0.62535
 C204 C 0.94605 0.08901 0.60103
 C205 C 0.93387 0.06603 0.58872
 C206 C 0.91092 0.05387 0.60122
 C207 C 0.90029 0.06459 0.62554
 H208 H 0.81775 0.13617 0.73881
 H209 H 0.89880 0.14754 0.77194
 H210 H 0.87895 0.16755 0.81367
 H211 H 0.79783 0.15647 0.78032
 H212 H 0.94498 0.11746 0.63455
 H213 H 0.96379 0.09873 0.59188
 H214 H 0.90117 0.03611 0.59221
 H215 H 0.88255 0.05502 0.63488
 C216 C 1.12342 -0.14806 0.77504
 C217 C 1.14045 -0.13912 0.75373
 C218 C 1.16891 -0.14160 0.75621
 C219 C 1.18033 -0.15307 0.77986
 C220 C 1.16339 -0.16219 0.80134
 C221 C 1.13482 -0.15952 0.79872
 C222 C 1.12873 -0.12765 0.72920
 C223 C 1.11902 -0.11815 0.70856
 C224 C 1.10777 -0.10713 0.68429
 C225 C 1.09827 -0.09780 0.66347
 C226 C 1.08706 -0.08674 0.63852
 C227 C 1.09919 -0.06383 0.62618
 C228 C 1.08850 -0.05323 0.60178
 C229 C 1.06556 -0.06549 0.58943
 C230 C 1.05343 -0.08844 0.60200
 C231 C 1.06415 -0.09900 0.62640
 H232 H 1.10136 -0.14621 0.77333
 H233 H 1.18227 -0.13481 0.73980
 H234 H 1.20237 -0.15513 0.78133
 H235 H 1.12140 -0.16625 0.81508
 H236 H 1.11692 -0.05418 0.63539
 H237 H 1.09820 -0.03549 0.59258
 H238 H 1.03570 -0.09823 0.59297
 H239 H 1.05461 -0.11674 0.63579
 C240 C 0.24460 1.16839 1.14180
 C241 C 0.24715 1.13993 1.13936
 C242 C 0.22590 1.12284 1.14829
 C243 C 0.20221 1.13415 1.15970
 C244 C 0.19951 1.16271 1.16231
 C245 C 0.22092 1.17973 1.15321
 C246 C 0.27168 1.12831 1.12790
 C247 C 0.29232 1.11868 1.11839
 C248 C 0.31659 1.10753 1.10736
 C249 C 0.33740 1.09811 1.09801
 C250 C 0.36233 1.08699 1.08694
 C251 C 0.37453 1.06406 1.09918
 C252 C 0.39891 1.05341 1.08859
 C253 C 0.41138 1.06562 1.06564
 C254 C 0.39895 1.08859 1.05340
 C255 C 0.37457 1.09920 1.06402
 H256 H 0.26095 1.18180 1.13501
 H257 H 0.22767 1.10079 1.14648
 H258 H 0.18590 1.12067 1.16642
 H259 H 0.21940 1.20176 1.15523
 H260 H 0.36522 1.05445 1.11693
 H261 H 0.40800 1.03566 1.09838
 H262 H 0.40807 1.09836 1.03565
 H263 H 0.36529 1.11696 1.05439
 C264 C 0.24460 0.83159 0.85819
 C265 C 0.24717 0.86004 0.86064
 C266 C 0.22593 0.87715 0.85172
 C267 C 0.20222 0.86585 0.84032
 C268 C 0.19950 0.83729 0.83771
 C269 C 0.22092 0.82026 0.84680
 C270 C 0.27171 0.87166 0.87209
 C271 C 0.29236 0.88128 0.88158
 C272 C 0.31664 0.89241 0.89260
 C273 C 0.33746 0.90183 0.90194
 C274 C 0.36240 0.91294 0.91301
 C275 C 0.37460 0.93587 0.90077
 C276 C 0.39898 0.94651 0.91135
 C277 C 0.41145 0.93430 0.93430
 C278 C 0.39902 0.91133 0.94654
 C279 C 0.37463 0.90072 0.93593
 H280 H 0.26096 0.81817 0.86497
 H281 H 0.22770 0.89920 0.85353
 H282 H 0.18591 0.87933 0.83362
 H283 H 0.21938 0.79823 0.84477
 H284 H 0.36529 0.94548 0.88302
 H285 H 0.40808 0.96426 0.90156
 H286 H 0.40814 0.90156 0.96429
 H287 H 0.36536 0.88297 0.94556
 C288 C 0.75586 0.83070 1.14284
 C289 C 0.75337 0.85916 1.14032
 C290 C 0.77463 0.87619 1.14926
 C291 C 0.79828 0.86480 1.16075
 C292 C 0.80091 0.83622 1.16343
 C293 C 0.77949 0.81928 1.15433
 C294 C 0.72889 0.87088 1.12876
 C295 C 0.70830 0.88058 1.11916
 C296 C 0.68409 0.89181 1.10803
 C297 C 0.66333 0.90130 1.09860
 C298 C 0.63845 0.91250 1.08742
 C299 C 0.62626 0.93541 1.09958
 C300 C 0.60192 0.94614 1.08890
 C301 C 0.58951 0.93403 1.06593
 C302 C 0.60193 0.91108 1.05378
 C303 C 0.62626 0.90039 1.06449
 H304 H 0.73949 0.81734 1.13604
 H305 H 0.77291 0.89825 1.14738
 H306 H 0.81460 0.87822 1.16747
 H307 H 0.78097 0.79723 1.15641
 H308 H 0.63553 0.94494 1.11733
 H309 H 0.59283 0.96387 1.09862
 H310 H 0.59285 0.90139 1.03603
 H311 H 0.63554 0.88265 1.05493
 C312 C 0.75589 1.16935 0.85727
 C313 C 0.75339 1.14088 0.85980
 C314 C 0.77464 1.12384 0.85084
 C315 C 0.79829 1.13523 0.83934
 C316 C 0.80093 1.16380 0.83665
 C317 C 0.77952 1.18075 0.84577
 C318 C 0.72892 1.12918 0.87136
 C319 C 0.70832 1.11948 0.88095
 C320 C 0.68411 1.10825 0.89208
 C321 C 0.66335 1.09875 0.90150
 C322 C 0.63846 1.08753 0.91266
 C323 C 0.62625 1.09964 0.93558
 C324 C 0.60192 1.08893 0.94628
 C325 C 0.58951 1.06598 0.93412
 C326 C 0.60196 1.05388 0.91116
 C327 C 0.62629 1.06462 0.90050
 H328 H 0.73954 1.18271 0.86408
 H329 H 0.77292 1.10178 0.85272
 H330 H 0.81460 1.12180 0.83261
 H331 H 0.78101 1.20280 0.84368
 H332 H 0.63551 1.11738 0.94515
 H333 H 0.59281 1.09862 0.96402
 H334 H 0.59288 1.03614 0.90143
 H335 H 0.63558 1.05509 0.88275
 C336 C 0.14893 0.22521 0.12278
 C337 C 0.13997 0.24640 0.13985
 C338 C 0.14246 0.24379 0.16831
 C339 C 0.15395 0.22011 0.17967
 C340 C 0.16306 0.19875 0.16268
 C341 C 0.16042 0.20152 0.13412
 C342 C 0.12839 0.27091 0.12821
 C343 C 0.11878 0.29155 0.11858
 C344 C 0.10762 0.31581 0.10745
 C345 C 0.09817 0.33662 0.09805
 C346 C 0.08698 0.36156 0.08695
 C347 C 0.06404 0.37366 0.09916
 C348 C 0.05333 0.39806 0.08856
 C349 C 0.06549 0.41063 0.06564
 C350 C 0.08847 0.39829 0.05343
 C351 C 0.09915 0.37389 0.06405
 H352 H 0.14707 0.22703 0.10072
 H353 H 0.13565 0.26009 0.18171
 H354 H 0.15600 0.21853 0.20171
 H355 H 0.16714 0.18525 0.12066
 H356 H 0.05447 0.36428 0.11688
 H357 H 0.03557 0.40708 0.09833
 H358 H 0.09820 0.40749 0.03571
 H359 H 0.11691 0.36468 0.05445
 C360 C -0.14211 0.24495 -0.16942
 C361 C -0.13962 0.24739 -0.14096
 C362 C -0.14853 0.22607 -0.12390
 C363 C -0.15996 0.20242 -0.13524
 C364 C -0.16262 0.19984 -0.16381
 C365 C -0.15354 0.22131 -0.18080
 C366 C -0.12817 0.27189 -0.12929
 C367 C -0.11868 0.29249 -0.11960
 C368 C -0.10768 0.31671 -0.10837
 C369 C -0.09835 0.33748 -0.09887
 C370 C -0.08730 0.36237 -0.08764
 C371 C -0.09955 0.37442 -0.06471
 C372 C -0.08898 0.39874 -0.05395
 C373 C -0.06602 0.41129 -0.06606
 C374 C -0.05378 0.39901 -0.08902
 C375 C -0.06438 0.37468 -0.09975
 H376 H -0.13534 0.26135 -0.18281
 H377 H -0.14668 0.22776 -0.10184
 H378 H -0.16666 0.18606 -0.12179
 H379 H -0.15561 0.21987 -0.20283
 H380 H -0.11729 0.36504 -0.05518
 H381 H -0.09877 0.40772 -0.03620
 H382 H -0.03604 0.40819 -0.09871
 H383 H -0.05475 0.36552 -0.11750
 C384 C 0.14242 0.75624 -0.16825
 C385 C 0.13994 0.75363 -0.13979
 C386 C 0.14892 0.77482 -0.12272
 C387 C 0.16041 0.79851 -0.13407
 C388 C 0.16304 0.80127 -0.16264
 C389 C 0.15390 0.77991 -0.17962
 C390 C 0.12837 0.72912 -0.12813
 C391 C 0.11876 0.70849 -0.11849
 C392 C 0.10761 0.68423 -0.10735
 C393 C 0.09817 0.66343 -0.09794
 C394 C 0.08698 0.63849 -0.08682
 C395 C 0.09913 0.62618 -0.06391
 C396 C 0.08845 0.60178 -0.05328
 C397 C 0.06550 0.58942 -0.06549
 C398 C 0.05335 0.60197 -0.08844
 C399 C 0.06406 0.62636 -0.09904
 H400 H 0.13559 0.73994 -0.18164
 H401 H 0.14708 0.77301 -0.10066
 H402 H 0.16715 0.81478 -0.12062
 H403 H 0.15594 0.78148 -0.20166
 H404 H 0.11688 0.63540 -0.05430
 H405 H 0.09817 0.59260 -0.03554
 H406 H 0.03560 0.59293 -0.09821
 H407 H 0.05450 0.63573 -0.11678
 C408 C -0.14216 0.75505 0.16944
 C409 C -0.13970 0.75261 0.14098
 C410 C -0.14861 0.77393 0.12392
 C411 C -0.16002 0.79759 0.13529
 C412 C -0.16266 0.80017 0.16385
 C413 C -0.15357 0.77869 0.18083
 C414 C -0.12826 0.72811 0.12929
 C415 C -0.11879 0.70751 0.11960
 C416 C -0.10779 0.68328 0.10836
 C417 C -0.09847 0.66251 0.09886
 C418 C -0.08741 0.63762 0.08765
 C419 C -0.09964 0.62557 0.06471
 C420 C -0.08906 0.60124 0.05396
 C421 C -0.06612 0.58869 0.06609
 C422 C -0.05390 0.60098 0.08907
 C423 C -0.06451 0.62531 0.09978
 H424 H -0.13539 0.73864 0.18282
 H425 H -0.14678 0.77226 0.10187
 H426 H -0.16672 0.81396 0.12184
 H427 H -0.15562 0.78013 0.20287
 H428 H -0.11738 0.63494 0.05516
 H429 H -0.09884 0.59226 0.03621
 H430 H -0.03616 0.59180 0.09877
 H431 H -0.05488 0.63448 0.11754
 C432 C 1.14408 0.17105 0.75340
 C433 C 1.14164 0.14257 0.75103
 C434 C 1.15078 0.12559 0.77232
 C435 C 1.16236 0.13703 0.79587
 C436 C 1.16494 0.16561 0.79840
 C437 C 1.15566 0.18251 0.77694
 C438 C 1.12990 0.13080 0.72668
 C439 C 1.12014 0.12101 0.70623
 C440 C 1.10879 0.10964 0.68220
 C441 C 1.09917 0.09999 0.66161
 C442 C 1.08778 0.08854 0.63695
 C443 C 1.09983 0.06547 0.62496
 C444 C 1.08895 0.05450 0.60085
 C445 C 1.06588 0.06652 0.58844
 C446 C 1.05383 0.08963 0.60066
 C447 C 1.06474 0.10057 0.62477
 H448 H 1.13713 0.18438 0.73703
 H449 H 1.14897 0.10353 0.77071
 H450 H 1.16919 0.12363 0.81221
 H451 H 1.15764 0.20456 0.77833
 H452 H 1.11766 0.05599 0.63421
 H453 H 1.09861 0.03665 0.59193
 H454 H 1.03600 0.09927 0.59159
 H455 H 1.05524 0.11842 0.63388
 C456 C 0.84628 -0.12556 0.77210
 C457 C 0.85754 -0.14241 0.75191
 C458 C 0.85724 -0.17086 0.75538
 C459 C 0.84569 -0.18246 0.77891
 C460 C 0.83411 -0.16578 0.79956
 C461 C 0.83469 -0.13705 0.79567
 C462 C 0.86926 -0.13055 0.72752
 C463 C 0.87901 -0.12070 0.70704
 C464 C 0.89035 -0.10926 0.68297
 C465 C 0.89997 -0.09958 0.66234
 C466 C 0.91141 -0.08813 0.63763
 C467 C 0.93450 -0.10014 0.62559
 C468 C 0.94545 -0.08922 0.60143
 C469 C 0.93339 -0.06615 0.58901
 C470 C 0.91028 -0.05414 0.60128
 C471 C 0.89935 -0.06509 0.62544
 H472 H 0.84652 -0.10348 0.76967
 H473 H 0.86578 -0.18412 0.73979
 H474 H 0.84518 -0.20458 0.78065
 H475 H 0.82664 -0.12342 0.81118
 H476 H 0.94400 -0.11797 0.63485
 H477 H 0.96331 -0.09885 0.59247
 H478 H 0.90061 -0.03632 0.59220
 H479 H 0.88148 -0.05562 0.63458
 C480 C 1.12515 -0.15110 0.22776
 C481 C 1.14210 -0.14204 0.24904
 C482 C 1.17058 -0.14452 0.24664
 C483 C 1.18207 -0.15606 0.22311
 C484 C 1.16521 -0.16526 0.20166
 C485 C 1.13662 -0.16263 0.20420
 C486 C 1.13029 -0.13035 0.27339
 C487 C 1.12047 -0.12062 0.29384
 C488 C 1.10907 -0.10931 0.31788
 C489 C 1.09942 -0.09970 0.33847
 C490 C 1.08799 -0.08830 0.36313
 C491 C 1.10000 -0.06522 0.37515
 C492 C 1.08909 -0.05428 0.39925
 C493 C 1.06603 -0.06634 0.41164
 C494 C 1.05401 -0.08945 0.39939
 C495 C 1.06495 -0.10036 0.37528
 H496 H 1.10309 -0.14925 0.22937
 H497 H 1.18388 -0.13763 0.26301
 H498 H 1.20412 -0.15807 0.22171
 H499 H 1.12325 -0.16941 0.18787
 H500 H 1.11783 -0.05571 0.36591
 H501 H 1.09872 -0.03642 0.40820
 H502 H 1.03619 -0.09912 0.40845
 H503 H 1.05549 -0.11822 0.36616
 C504 C 0.84623 0.12554 0.22790
 C505 C 0.85748 0.14240 0.24810
 C506 C 0.85717 0.17084 0.24462
 C507 C 0.84562 0.18244 0.22109
 C508 C 0.83405 0.16576 0.20045
 C509 C 0.83463 0.13703 0.20433
 C510 C 0.86921 0.13054 0.27248
 C511 C 0.87896 0.12068 0.29296
 C512 C 0.89031 0.10925 0.31703
 C513 C 0.89994 0.09957 0.33766
 C514 C 0.91138 0.08813 0.36237
 C515 C 0.89934 0.06508 0.37455
 C516 C 0.91027 0.05413 0.39871
 C517 C 0.93337 0.06617 0.41099
 C518 C 0.94541 0.08925 0.39857
 C519 C 0.93445 0.10016 0.37441
 H520 H 0.84646 0.10346 0.23033
 H521 H 0.86571 0.18410 0.26021
 H522 H 0.84510 0.20456 0.21936
 H523 H 0.82658 0.12340 0.18883
 H524 H 0.88149 0.05559 0.36540
 H525 H 0.90062 0.03630 0.40779
 H526 H 0.96326 0.09890 0.40754
 H527 H 0.94394 0.11800 0.36516
 C528 C 0.17054 0.24668 -0.14453
 C529 C 0.14206 0.24907 -0.14206
 C530 C 0.12513 0.22778 -0.15111
 C531 C 0.13662 0.20422 -0.16263
 C532 C 0.16520 0.20168 -0.16524
 C533 C 0.18206 0.22315 -0.15605
 C534 C 0.13024 0.27342 -0.13038
 C535 C 0.12041 0.29387 -0.12067
 C536 C 0.10900 0.31791 -0.10936
 C537 C 0.09935 0.33849 -0.09975
 C538 C 0.08792 0.36316 -0.08834
 C539 C 0.06488 0.37531 -0.10040
 C540 C 0.05394 0.39942 -0.08948
 C541 C 0.06596 0.41166 -0.06637
 C542 C 0.08903 0.39927 -0.05431
 C543 C 0.09994 0.37517 -0.06526
 H544 H 0.18384 0.26306 -0.13764
 H545 H 0.10306 0.22939 -0.14928
 H546 H 0.12325 0.18788 -0.16940
 H547 H 0.20411 0.22175 -0.15805
 H548 H 0.05541 0.36619 -0.11826
 H549 H 0.03612 0.40848 -0.09915
 H550 H 0.09866 0.40821 -0.03646
 H551 H 0.11777 0.36594 -0.05575
 C552 C -0.12603 0.22788 0.15341
 C553 C -0.14293 0.24807 0.14206
 C554 C -0.17136 0.24460 0.14233
 C555 C -0.18292 0.22107 0.15393
 C556 C -0.16620 0.20042 0.16558
 C557 C -0.13748 0.20431 0.16505
 C558 C -0.13112 0.27245 0.13028
 C559 C -0.12130 0.29293 0.12049
 C560 C -0.10989 0.31700 0.10911
 C561 C -0.10022 0.33762 0.09947
 C562 C -0.08876 0.36234 0.08806
 C563 C -0.10077 0.37454 0.06500
 C564 C -0.08982 0.39870 0.05408
 C565 C -0.06672 0.41095 0.06613
 C566 C -0.05470 0.39851 0.08921
 C567 C -0.06567 0.37435 0.10010
 H568 H -0.10396 0.23031 0.15320
 H569 H -0.18466 0.26018 0.13372
 H570 H -0.20503 0.21933 0.15441
 H571 H -0.12381 0.18880 0.17316
 H572 H -0.11863 0.36541 0.05551
 H573 H -0.09946 0.40779 0.03625
 H574 H -0.03685 0.40746 0.09887
 H575 H -0.05620 0.36508 0.11794
 C576 C -0.12597 0.77210 -0.15340
 C577 C -0.14287 0.75191 -0.14205
 C578 C -0.17130 0.75538 -0.14232
 C579 C -0.18285 0.77892 -0.15392
 C580 C -0.16613 0.79956 -0.16558
 C581 C -0.13742 0.79567 -0.16504
 C582 C -0.13107 0.72753 -0.13027
 C583 C -0.12126 0.70704 -0.12047
 C584 C -0.10985 0.68297 -0.10909
 C585 C -0.10019 0.66235 -0.09945
 C586 C -0.08873 0.63764 -0.08802
 C587 C -0.10076 0.62543 -0.06498
 C588 C -0.08982 0.60127 -0.05405
 C589 C -0.06670 0.58903 -0.06608
 C590 C -0.05466 0.60147 -0.08915
 C591 C -0.06563 0.62563 -0.10005
 H592 H -0.10390 0.76967 -0.15319
 H593 H -0.18460 0.73980 -0.13371
 H594 H -0.20497 0.78066 -0.15440
 H595 H -0.12375 0.81118 -0.17315
 H596 H -0.11863 0.63455 -0.05551
 H597 H -0.09947 0.59217 -0.03623
 H598 H -0.03680 0.59253 -0.09879
 H599 H -0.05615 0.63490 -0.11788
 C600 C 0.15074 0.77226 0.12560
 C601 C 0.14159 0.75099 0.14260
 C602 C 0.14405 0.75338 0.17108
 C603 C 0.15564 0.77691 0.18252
 C604 C 0.16492 0.79836 0.16560
 C605 C 0.16233 0.79582 0.13702
 C606 C 0.12984 0.72664 0.13084
 C607 C 0.12007 0.70618 0.12107
 C608 C 0.10872 0.68215 0.10970
 C609 C 0.09910 0.66156 0.10006
 C610 C 0.08771 0.63690 0.08861
 C611 C 0.06467 0.62472 0.10063
 C612 C 0.05376 0.60061 0.08969
 C613 C 0.06582 0.58839 0.06658
 C614 C 0.08889 0.60081 0.05456
 C615 C 0.09977 0.62491 0.06554
 H616 H 0.14892 0.77064 0.10354
 H617 H 0.13710 0.73701 0.18442
 H618 H 0.15762 0.77832 0.20457
 H619 H 0.16916 0.81215 0.12361
 H620 H 0.05517 0.63382 0.11849
 H621 H 0.03593 0.59154 0.09932
 H622 H 0.09856 0.59189 0.03671
 H623 H 0.11760 0.63417 0.05606
 C624 C 0.24640 1.14455 0.82911
 C625 C 0.24885 1.14207 0.85759
 C626 C 0.22759 1.15114 0.87455
 C627 C 0.20399 1.16270 0.86309
 C628 C 0.20138 1.16532 0.83450
 C629 C 0.22282 1.15611 0.81762
 C630 C 0.27325 1.13035 0.86939
 C631 C 0.29374 1.12061 0.87919
 C632 C 0.31782 1.10927 0.89058
 C633 C 0.33845 1.09966 0.90023
 C634 C 0.36317 1.08825 0.91165
 C635 C 0.37525 1.10026 0.93470
 C636 C 0.39941 1.08937 0.94564
 C637 C 0.41177 1.06631 0.93363
 C638 C 0.39944 1.05430 0.91056
 C639 C 0.37529 1.06523 0.89964
 H640 H 0.26275 1.13766 0.81579
 H641 H 0.22925 1.14930 0.89662
 H642 H 0.18766 1.16947 0.87648
 H643 H 0.22137 1.15812 0.79557
 H644 H 0.36604 1.11808 0.94417
 H645 H 0.40841 1.09900 0.96347
 H646 H 0.40847 1.03649 0.90092
 H647 H 0.36611 1.05576 0.88181
 C648 C 0.24638 0.82904 1.14450
 C649 C 0.24884 0.85752 1.14200
 C650 C 0.22758 0.87449 1.15107
 C651 C 0.20398 0.86304 1.16264
 C652 C 0.20137 0.83446 1.16528
 C653 C 0.22280 0.81756 1.15607
 C654 C 0.27324 0.86930 1.13028
 C655 C 0.29374 0.87910 1.12053
 C656 C 0.31782 0.89048 1.10919
 C657 C 0.33845 0.90013 1.09958
 C658 C 0.36316 0.91157 1.08819
 C659 C 0.37525 0.93460 1.10022
 C660 C 0.39941 0.94555 1.08933
 C661 C 0.41177 0.93356 1.06627
 C662 C 0.39944 0.91050 1.05423
 C663 C 0.37528 0.89957 1.06515
 H664 H 0.26273 0.81571 1.13761
 H665 H 0.22926 0.89655 1.14921
 H666 H 0.18766 0.87644 1.16941
 H667 H 0.22135 0.79551 1.15810
 H668 H 0.36604 0.94405 1.11804
 H669 H 0.40841 0.96337 1.09898
 H670 H 0.40847 0.90088 1.03641
 H671 H 0.36610 0.88175 1.05566
 C672 C 0.77190 1.15342 1.12563
 C673 C 0.75170 1.14207 1.14252
 C674 C 0.75512 1.14232 1.17096
 C675 C 0.77860 1.15390 1.18253
 C676 C 0.79925 1.16555 1.16583
 C677 C 0.79542 1.16504 1.13711
 C678 C 0.72737 1.13033 1.13068
 C679 C 0.70692 1.12056 1.12085
 C680 C 0.68290 1.10920 1.10943
 C681 C 0.66232 1.09957 1.09975
 C682 C 0.63765 1.08815 1.08830
 C683 C 0.62556 1.06506 1.10034
 C684 C 0.60145 1.05411 1.08940
 C685 C 0.58913 1.06619 1.06628
 C686 C 0.60147 1.08931 1.05424
 C687 C 0.62558 1.10022 1.06521
 H688 H 0.76952 1.15323 1.10356
 H689 H 0.73952 1.13371 1.18423
 H690 H 0.78029 1.15436 1.20465
 H691 H 0.81094 1.17315 1.12345
 H692 H 0.63473 1.05554 1.11821
 H693 H 0.59244 1.03625 1.09906
 H694 H 0.59247 1.09899 1.03638
 H695 H 0.63477 1.11809 1.05572
 C696 C 0.77198 0.84657 0.87438
 C697 C 0.75177 0.85791 0.85750
 C698 C 0.75518 0.85766 0.82906
 C699 C 0.77866 0.84608 0.81748
 C700 C 0.79932 0.83443 0.83418
 C701 C 0.79550 0.83495 0.86291
 C702 C 0.72744 0.86966 0.86934
 C703 C 0.70700 0.87942 0.87917
 C704 C 0.68298 0.89078 0.89060
 C705 C 0.66240 0.90042 0.90027
 C706 C 0.63773 0.91184 0.91173
 C707 C 0.62564 0.93493 0.89969
 C708 C 0.60153 0.94587 0.91062
 C709 C 0.58921 0.93380 0.93373
 C710 C 0.60154 0.91068 0.94578
 C711 C 0.62566 0.89977 0.93481
 H712 H 0.76960 0.84676 0.89645
 H713 H 0.73958 0.86626 0.81578
 H714 H 0.78035 0.84562 0.79536
 H715 H 0.81102 0.82684 0.87656
 H716 H 0.63481 0.94445 0.88182
 H717 H 0.59252 0.96374 0.90096
 H718 H 0.59255 0.90100 0.96364
 H719 H 0.63485 0.88190 0.94431
   
