data_POSCAR
  _audit_creation_date              2014-09-24
  _audit_creation_method            'ToBaCCo'
  _symmetry_space_group_name_H-M    'P1'
  _symmetry_Int_Tables_number       1
  _symmetry_cell_setting            triclinic
  loop_
  _symmetry_equiv_pos_as_xyz
 x,y,z
_cell_length_a 39.4698
_cell_length_b 42.7453
_cell_length_c 32.0142
_cell_angle_alpha 89.970400
_cell_angle_beta 89.374300
_cell_angle_gamma 89.968800
loop_
  _atom_site_label
  _atom_site_type_symbol
  _atom_site_fract_x
  _atom_site_fract_y
  _atom_site_fract_z
C1 C 0.27668 0.28207 0.23018
 C2 C 0.25018 0.26560 0.24984
 C3 C 0.22374 0.28215 0.26951
 C4 C 0.22400 0.31491 0.26991
 C5 C 0.25028 0.33121 0.24985
 C6 C 0.27652 0.31484 0.22978
 C7 C 0.25013 0.23112 0.24985
 C8 C 0.27662 0.21455 0.26870
 C9 C 0.27635 0.18179 0.26915
 C10 C 0.25001 0.16549 0.24992
 C11 C 0.22373 0.18189 0.23065
 C12 C 0.22358 0.21466 0.23103
 H13 H 0.29701 0.26940 0.21464
 H14 H 0.20338 0.26953 0.28505
 H15 H 0.29702 0.22716 0.28360
 H16 H 0.20322 0.22735 0.21612
 H17 H 0.25032 0.35659 0.24985
 H18 H 0.24996 0.14012 0.24995
 C19 C 0.77635 0.78354 0.23002
 C20 C 0.74999 0.76700 0.24986
 C21 C 0.72359 0.78346 0.26974
 C22 C 0.72373 0.81624 0.27021
 C23 C 0.74989 0.83264 0.24995
 C24 C 0.77611 0.81633 0.22965
 C25 C 0.75006 0.73252 0.24984
 C26 C 0.77652 0.71603 0.26885
 C27 C 0.77638 0.68327 0.26925
 C28 C 0.75018 0.66690 0.24982
 C29 C 0.72392 0.68323 0.23040
 C30 C 0.72366 0.71599 0.23082
 H31 H 0.79661 0.77084 0.21436
 H32 H 0.70337 0.77069 0.28538
 H33 H 0.79681 0.72870 0.28389
 H34 H 0.70331 0.72863 0.21578
 H35 H 0.74986 0.85804 0.24999
 H36 H 0.75023 0.64153 0.24981
 C37 C 0.77634 0.28219 0.73137
 C38 C 0.74990 0.26571 0.75113
 C39 C 0.72345 0.28223 0.77083
 C40 C 0.72365 0.31503 0.77117
 C41 C 0.74991 0.33133 0.75098
 C42 C 0.77613 0.31495 0.73090
 C43 C 0.74991 0.23122 0.75118
 C44 C 0.77638 0.21471 0.77015
 C45 C 0.77620 0.18192 0.77059
 C46 C 0.74993 0.16559 0.75119
 C47 C 0.72368 0.18196 0.73181
 C48 C 0.72346 0.21472 0.73222
 H49 H 0.79666 0.26952 0.71581
 H50 H 0.70315 0.26953 0.78641
 H51 H 0.79669 0.22744 0.78512
 H52 H 0.70313 0.22738 0.71721
 H53 H 0.75000 0.35672 0.75086
 H54 H 0.74987 0.14020 0.75112
 C55 C 0.27698 0.78308 0.73002
 C56 C 0.25051 0.76657 0.74967
 C57 C 0.22401 0.78307 0.76929
 C58 C 0.22417 0.81583 0.76967
 C59 C 0.25042 0.83219 0.74962
 C60 C 0.27675 0.81587 0.72957
 C61 C 0.25052 0.73208 0.74969
 C62 C 0.27706 0.71556 0.76852
 C63 C 0.27686 0.68279 0.76894
 C64 C 0.25054 0.66646 0.74971
 C65 C 0.22422 0.68281 0.73048
 C66 C 0.22400 0.71558 0.73088
 H67 H 0.29732 0.77036 0.71454
 H68 H 0.20367 0.77041 0.78481
 H69 H 0.29744 0.72820 0.78341
 H70 H 0.20361 0.72823 0.71598
 H71 H 0.25031 0.85758 0.74967
 H72 H 0.25055 0.64108 0.74972
 C73 C 0.04538 0.04914 0.01555
 H74 H 0.04566 0.05082 -0.01818
 C75 C 0.06611 0.06867 0.03907
 H76 H 0.08251 0.08541 0.02348
 C77 C 0.02383 0.02515 0.07715
 H78 H 0.00714 0.00836 0.09191
 C79 C 0.04418 0.04425 0.10187
 H80 H 0.04335 0.04190 0.13556
 N81 N 0.02526 0.02752 0.03475
 C82 C 0.01334 -0.04632 -0.05812
 H83 H -0.01397 -0.04781 -0.05981
 C84 C 0.03358 -0.06629 -0.08234
 H85 H 0.02189 -0.08315 -0.10291
 C86 C 0.06209 -0.02287 -0.02889
 H87 H 0.07318 -0.00633 -0.00757
 C88 C 0.08321 -0.04238 -0.05250
 H89 H 0.11046 -0.04051 -0.04960
 Zn90 Zn -0.00092 0.00130 0.00000
 N91 N 0.02782 -0.02486 -0.03248
 C92 C -0.02566 0.02539 -0.07707
 N93 N -0.02713 0.02762 -0.03466
 C94 C -0.04726 0.04919 -0.01538
 C95 C -0.06798 0.06882 -0.03884
 C96 C -0.04599 0.04460 -0.10172
 C97 C -0.01509 -0.04649 0.05794
 C98 C -0.03528 -0.06652 0.08213
 C99 C -0.08497 -0.04250 0.05246
 C100 C -0.06389 -0.02294 0.02888
 N101 N -0.02962 -0.02495 0.03240
 H102 H -0.00894 0.00865 -0.09188
 H103 H -0.04757 0.05076 0.01835
 H104 H -0.08440 0.08553 -0.02319
 H105 H -0.04512 0.04236 -0.13542
 H106 H 0.01223 -0.04799 0.05958
 H107 H -0.02355 -0.08343 0.10262
 H108 H -0.11223 -0.04062 0.04962
 H109 H -0.07502 -0.00634 0.00763
 C110 C 0.06885 -0.06418 -0.07957
 C111 C 0.06571 0.06601 0.08260
 C112 C -0.07055 -0.06438 0.07943
 C113 C -0.06753 0.06631 -0.08238
 C114 C 0.04633 0.54925 0.51566
 H115 H 0.04660 0.55086 0.48193
 C116 C 0.06704 0.56885 0.53912
 H117 H 0.08342 0.58558 0.52346
 C118 C 0.02481 0.52536 0.57735
 H119 H 0.00813 0.50860 0.59217
 C120 C 0.04513 0.54454 0.60200
 H121 H 0.04429 0.54226 0.63570
 N122 N 0.02624 0.52765 0.53495
 C123 C 0.01406 0.45370 0.44231
 H124 H -0.01326 0.45224 0.44074
 C125 C 0.03420 0.43363 0.41811
 H126 H 0.02242 0.41674 0.39767
 C127 C 0.06293 0.47715 0.47125
 H128 H 0.07410 0.49373 0.49246
 C129 C 0.08396 0.45755 0.44765
 H130 H 0.11122 0.45937 0.45045
 Zn131 Zn -0.00001 0.50141 0.50031
 N132 N 0.02865 0.47519 0.46781
 C133 C -0.02476 0.52546 0.42325
 N134 N -0.02624 0.52770 0.46566
 C135 C -0.04637 0.54929 0.48492
 C136 C -0.06704 0.56895 0.46143
 C137 C -0.04504 0.54470 0.39857
 C138 C -0.01404 0.45365 0.55829
 C139 C -0.03417 0.43357 0.58248
 C140 C -0.08394 0.45755 0.55296
 C141 C -0.06293 0.47717 0.52937
 N142 N -0.02865 0.47519 0.53281
 H143 H -0.00805 0.50870 0.40846
 H144 H -0.04668 0.55087 0.51865
 H145 H -0.08343 0.58568 0.47707
 H146 H -0.04414 0.54247 0.36487
 H147 H 0.01328 0.45218 0.55985
 H148 H -0.02238 0.41665 0.60290
 H149 H -0.11120 0.45939 0.55018
 H150 H -0.07411 0.49377 0.50818
 C151 C 0.06948 0.43569 0.42074
 C152 C 0.06663 0.56628 0.58265
 C153 C -0.06945 0.43565 0.57985
 C154 C -0.06656 0.56644 0.41789
 C155 C 0.54661 0.04835 0.51593
 H156 H 0.54699 0.04996 0.48220
 C157 C 0.56723 0.06797 0.53948
 H158 H 0.58366 0.08470 0.52390
 C159 C 0.52490 0.02448 0.57753
 H160 H 0.50817 0.00772 0.59228
 C161 C 0.54513 0.04367 0.60227
 H162 H 0.54418 0.04141 0.63597
 N163 N 0.52646 0.02675 0.53513
 C164 C 0.51465 -0.04721 0.44240
 H165 H 0.48733 -0.04872 0.44072
 C166 C 0.53489 -0.06718 0.41819
 H167 H 0.52321 -0.08405 0.39763
 C168 C 0.56339 -0.02370 0.47157
 H169 H 0.57447 -0.00714 0.49287
 C170 C 0.58452 -0.04321 0.44796
 H171 H 0.61177 -0.04132 0.45084
 Zn172 Zn 0.50035 0.00048 0.50038
 N173 N 0.52912 -0.02572 0.46800
 C174 C 0.47573 0.02445 0.42319
 N175 N 0.47419 0.02674 0.46559
 C176 C 0.45400 0.04833 0.48477
 C177 C 0.43332 0.06792 0.46120
 C178 C 0.45543 0.04361 0.39843
 C179 C 0.48608 -0.04722 0.55843
 C180 C 0.46584 -0.06721 0.58262
 C181 C 0.41621 -0.04326 0.55272
 C182 C 0.43733 -0.02373 0.52914
 N183 N 0.47160 -0.02573 0.53277
 H184 H 0.49248 0.00770 0.40846
 H185 H 0.45364 0.04995 0.51850
 H186 H 0.41686 0.08463 0.47677
 H187 H 0.45635 0.04133 0.36474
 H188 H 0.51340 -0.04871 0.56015
 H189 H 0.47754 -0.08408 0.60320
 H190 H 0.38896 -0.04139 0.54979
 H191 H 0.42624 -0.00718 0.50781
 C192 C 0.57016 -0.06504 0.42092
 C193 C 0.56668 0.06542 0.58302
 C194 C 0.43058 -0.06509 0.57981
 C195 C 0.43383 0.06534 0.41767
 C196 C 0.54718 0.54890 0.01486
 H197 H 0.54753 0.55044 -0.01888
 C198 C 0.56780 0.56857 0.03832
 H199 H 0.58420 0.58529 0.02267
 C200 C 0.52552 0.52512 0.07656
 H201 H 0.50881 0.50838 0.09138
 C202 C 0.54576 0.54438 0.10122
 H203 H 0.54482 0.54218 0.13492
 N204 N 0.52705 0.52733 0.03415
 C205 C 0.51496 0.45324 -0.05834
 H206 H 0.48764 0.45180 -0.05995
 C207 C 0.53511 0.43311 -0.08242
 H208 H 0.52335 0.41619 -0.10283
 C209 C 0.56381 0.47672 -0.02938
 H210 H 0.57496 0.49332 -0.00820
 C211 C 0.58485 0.45705 -0.05287
 H212 H 0.61211 0.45886 -0.05002
 Zn213 Zn 0.50085 0.50104 -0.00048
 N214 N 0.52953 0.47477 -0.03288
 C215 C 0.47610 0.52499 -0.07761
 N216 N 0.47464 0.52729 -0.03521
 C217 C 0.45454 0.54892 -0.01598
 C218 C 0.43386 0.56855 -0.03950
 C219 C 0.45581 0.54420 -0.10232
 C220 C 0.48673 0.45336 0.05761
 C221 C 0.46656 0.43332 0.08180
 C222 C 0.41684 0.45726 0.05211
 C223 C 0.43789 0.47684 0.02852
 N224 N 0.47217 0.47486 0.03203
 H225 H 0.49279 0.50820 -0.09238
 H226 H 0.45424 0.55054 0.01774
 H227 H 0.41748 0.58531 -0.02389
 H228 H 0.45667 0.54191 -0.13601
 H229 H 0.51405 0.45189 0.05923
 H230 H 0.47832 0.41642 0.10229
 H231 H 0.38958 0.45910 0.04925
 H232 H 0.42675 0.49342 0.00725
 C233 C 0.57039 0.43515 -0.07972
 C234 C 0.56727 0.56611 0.08187
 C235 C 0.43129 0.43540 0.07908
 C236 C 0.43431 0.56598 -0.08303
 C237 C 0.19792 -0.16720 -0.20851
 C238 C 0.17653 -0.15254 -0.18979
 C239 C 0.15220 -0.13486 -0.16739
 C240 C 0.13207 -0.11933 -0.14786
 C241 C 0.10925 -0.10064 -0.12453
 C242 C 0.09045 -0.08425 -0.10424
 C243 C 0.19783 0.33195 0.29178
 C244 C 0.17654 0.34670 0.31054
 C245 C 0.15234 0.36451 0.33297
 C246 C 0.13233 0.38016 0.35251
 C247 C 0.10965 0.39900 0.37583
 C248 C 0.09096 0.41550 0.39612
 C249 C 0.69899 -0.16774 0.29113
 C250 C 0.67765 -0.15314 0.31004
 C251 C 0.65339 -0.13553 0.33264
 C252 C 0.63330 -0.12005 0.35232
 C253 C 0.61053 -0.10141 0.37580
 C254 C 0.59175 -0.08506 0.39619
 C255 C 0.69888 0.33115 -0.20811
 C256 C 0.67754 0.34589 -0.18941
 C257 C 0.65331 0.36372 -0.16706
 C258 C 0.63328 0.37941 -0.14761
 C259 C 0.61059 0.39831 -0.12440
 C260 C 0.59189 0.41488 -0.10422
 C261 C -0.19895 0.16588 -0.20935
 C262 C -0.17745 0.15140 -0.19113
 C263 C -0.15289 0.13409 -0.16923
 C264 C -0.13246 0.11901 -0.15006
 C265 C -0.10918 0.10101 -0.12705
 C266 C -0.08987 0.08535 -0.10694
 C267 C -0.19741 0.66633 0.29051
 C268 C -0.17599 0.65182 0.30881
 C269 C -0.15153 0.63446 0.33081
 C270 C -0.13120 0.61933 0.35006
 C271 C -0.10803 0.60126 0.37314
 C272 C -0.08881 0.58554 0.39330
 C273 C 0.30260 0.16481 0.29029
 C274 C 0.32406 0.15030 0.30852
 C275 C 0.34859 0.13298 0.33047
 C276 C 0.36899 0.11792 0.34971
 C277 C 0.39223 0.09995 0.37281
 C278 C 0.41152 0.08432 0.39301
 C279 C 0.30315 0.66583 -0.20998
 C280 C 0.32464 0.65131 -0.19180
 C281 C 0.34916 0.63393 -0.16993
 C282 C 0.36955 0.61880 -0.15077
 C283 C 0.39277 0.60074 -0.12776
 C284 C 0.41203 0.58504 -0.10763
 C285 C -0.19919 -0.16756 0.20880
 C286 C -0.17787 -0.15289 0.18996
 C287 C -0.15364 -0.13519 0.16744
 C288 C -0.13358 -0.11964 0.14783
 C289 C -0.11085 -0.10091 0.12443
 C290 C -0.09210 -0.08449 0.10411
 C291 C -0.19770 0.33192 0.70894
 C292 C -0.17641 0.34663 0.69013
 C293 C -0.15223 0.36442 0.66766
 C294 C -0.13224 0.38007 0.64809
 C295 C -0.10959 0.39892 0.62475
 C296 C -0.09091 0.41544 0.60447
 C297 C 0.30155 -0.16805 0.70886
 C298 C 0.32294 -0.15341 0.69012
 C299 C 0.34726 -0.13574 0.66769
 C300 C 0.36739 -0.12022 0.64814
 C301 C 0.39019 -0.10154 0.62479
 C302 C 0.40899 -0.08516 0.60448
 C303 C 0.30274 0.33181 0.20792
 C304 C 0.32407 0.34652 0.18918
 C305 C 0.34831 0.36429 0.16678
 C306 C 0.36836 0.37991 0.14726
 C307 C 0.39106 0.39873 0.12396
 C308 C 0.40978 0.41522 0.10370
 C309 C 0.19740 0.16501 0.20959
 C310 C 0.17586 0.15058 0.19141
 C311 C 0.15125 0.13336 0.16954
 C312 C 0.13078 0.11836 0.15037
 C313 C 0.10745 0.10048 0.12735
 C314 C 0.08809 0.08492 0.10721
 C315 C 0.19793 0.66588 0.70942
 C316 C 0.17644 0.65139 0.69126
 C317 C 0.15190 0.63406 0.66941
 C318 C 0.13149 0.61897 0.65027
 C319 C 0.10824 0.60096 0.62729
 C320 C 0.08895 0.58531 0.60720
 C321 C 0.69747 0.16503 0.71057
 C322 C 0.67606 0.15055 0.69227
 C323 C 0.65161 0.13322 0.67026
 C324 C 0.63128 0.11813 0.65099
 C325 C 0.60812 0.10012 0.62787
 C326 C 0.58891 0.08446 0.60767
 C327 C 0.69777 0.66626 0.20915
 C328 C 0.67640 0.65171 0.19085
 C329 C 0.65201 0.63429 0.16887
 C330 C 0.63173 0.61911 0.14964
 C331 C 0.60863 0.60099 0.12658
 C332 C 0.58946 0.58524 0.10644
   
