data_POSCAR
  _audit_creation_date              2014-09-24
  _audit_creation_method            'ToBaCCo'
  _symmetry_space_group_name_H-M    'P1'
  _symmetry_Int_Tables_number       1
  _symmetry_cell_setting            triclinic
  loop_
  _symmetry_equiv_pos_as_xyz
 x,y,z
_cell_length_a 44.0612
_cell_length_b 43.0362
_cell_length_c 42.8817
_cell_angle_alpha 91.519200
_cell_angle_beta 89.768000
_cell_angle_gamma 86.694200
loop_
  _atom_site_label
  _atom_site_type_symbol
  _atom_site_fract_x
  _atom_site_fract_y
  _atom_site_fract_z
N1 N 0.33151 0.26105 0.23545
 N2 N 0.31915 0.28883 0.22978
 C3 C 0.33490 0.30144 0.20675
 C4 C 0.35857 0.28046 0.19767
 C5 C 0.35567 0.25514 0.21650
 H6 H 0.32922 0.32394 0.19701
 H7 H 0.36921 0.23338 0.21544
 Cu8 Cu 0.28302 0.30524 0.25226
 Cu9 Cu 0.31375 0.23329 0.26469
 Cu10 Cu 0.24438 0.25821 0.29751
 N11 N 0.24217 0.31715 0.26724
 N12 N 0.22729 0.29878 0.28504
 C13 C 0.19951 0.31213 0.29135
 C14 C 0.19663 0.34049 0.27667
 C15 C 0.22431 0.34282 0.26155
 H16 H 0.18241 0.30143 0.30489
 H17 H 0.23090 0.36149 0.24707
 N18 N 0.26552 0.21795 0.30714
 N19 N 0.29201 0.20857 0.29468
 C20 C 0.30015 0.18001 0.30495
 C21 C 0.27770 0.17081 0.32485
 C22 C 0.25613 0.19558 0.32572
 H23 H 0.32088 0.16685 0.29829
 H24 H 0.23484 0.19697 0.33841
 H25 H 0.26996 0.25148 0.25718
 H26 H 0.28981 0.26632 0.29252
 N27 N 0.68520 -0.26334 0.21224
 N28 N 0.70259 -0.28858 0.20617
 C29 C 0.69416 -0.30136 0.17876
 C30 C 0.66993 -0.28317 0.16693
 C31 C 0.66499 -0.25924 0.18910
 H32 H 0.70502 -0.32232 0.16841
 H33 H 0.64842 -0.23978 0.18839
 Cu34 Cu 0.73472 -0.30227 0.23454
 Cu35 Cu 0.69088 -0.23670 0.24886
 Cu36 Cu 0.75452 -0.25419 0.29340
 N37 N 0.77275 -0.30910 0.25689
 N38 N 0.78069 -0.28994 0.27935
 C39 C 0.80835 -0.29942 0.28984
 C40 C 0.81845 -0.32624 0.27318
 C41 C 0.79497 -0.33161 0.25247
 H42 H 0.82002 -0.28758 0.30837
 H43 H 0.79424 -0.34994 0.23482
 N44 N 0.72504 -0.21913 0.30372
 N45 N 0.70073 -0.21257 0.28674
 C46 C 0.68578 -0.18683 0.29883
 C47 C 0.70139 -0.17660 0.32474
 C48 C 0.72613 -0.19777 0.32716
 H49 H 0.66527 -0.17607 0.28919
 H50 H 0.74419 -0.19705 0.34410
 H51 H 0.73728 -0.24758 0.24919
 H52 H 0.71356 -0.26877 0.27701
 N53 N 0.70287 0.27310 0.78236
 N54 N 0.72045 0.29513 0.79169
 C55 C 0.71115 0.30592 0.82015
 C56 C 0.68629 0.28984 0.82911
 C57 C 0.68176 0.26920 0.80443
 H58 H 0.72181 0.32403 0.83332
 H59 H 0.66487 0.25200 0.80290
 Cu60 Cu 0.75411 0.30735 0.76609
 Cu61 Cu 0.70927 0.25016 0.74292
 Cu62 Cu 0.77379 0.26509 0.70111
 N63 N 0.79262 0.31194 0.74474
 N64 N 0.80011 0.29536 0.71945
 C65 C 0.82765 0.30292 0.70956
 C66 C 0.83828 0.32568 0.72968
 C67 C 0.81517 0.33073 0.75180
 H68 H 0.83887 0.29252 0.68908
 H69 H 0.81466 0.34669 0.77170
 N70 N 0.74432 0.23529 0.68642
 N71 N 0.71980 0.22942 0.70246
 C72 C 0.70535 0.20673 0.68743
 C73 C 0.72155 0.19785 0.66057
 C74 C 0.74606 0.21660 0.66071
 H75 H 0.68491 0.19691 0.69579
 H76 H 0.76458 0.21569 0.64405
 H77 H 0.75572 0.25465 0.74397
 H78 H 0.73278 0.28278 0.71973
 N79 N 0.29087 -0.25734 0.78598
 N80 N 0.27787 -0.28359 0.79036
 C81 C 0.29061 -0.29766 0.81516
 C82 C 0.31292 -0.27924 0.82701
 C83 C 0.31237 -0.25382 0.80777
 H84 H 0.28401 -0.31964 0.82384
 H85 H 0.32617 -0.23391 0.80972
 Cu86 Cu 0.24532 -0.29677 0.76356
 Cu87 Cu 0.27856 -0.22948 0.75273
 Cu88 Cu 0.21459 -0.24753 0.71095
 N89 N 0.20650 -0.30373 0.74407
 N90 N 0.19471 -0.28466 0.72338
 C91 C 0.16795 -0.29493 0.71378
 C92 C 0.16241 -0.32201 0.72939
 C93 C 0.18762 -0.32673 0.74848
 H94 H 0.15358 -0.28316 0.69692
 H95 H 0.19207 -0.34533 0.76455
 N96 N 0.23815 -0.21105 0.70218
 N97 N 0.26252 -0.20429 0.71818
 C98 C 0.27348 -0.17822 0.70706
 C99 C 0.25517 -0.16781 0.68283
 C100 C 0.23296 -0.18935 0.68043
 H101 H 0.29343 -0.16769 0.71604
 H102 H 0.21429 -0.18921 0.66419
 H103 H 0.23382 -0.24193 0.75437
 H104 H 0.25858 -0.26107 0.72303
 N105 N 0.68897 -0.26745 0.77275
 N106 N 0.70515 -0.29385 0.77540
 C107 C 0.69473 -0.30923 0.79981
 C108 C 0.67050 -0.29160 0.81305
 C109 C 0.66747 -0.26526 0.79518
 H110 H 0.70436 -0.33137 0.80756
 H111 H 0.65170 -0.24533 0.79907
 Cu112 Cu 0.73905 -0.30502 0.74763
 Cu113 Cu 0.69875 -0.23663 0.74233
 Cu114 Cu 0.76606 -0.25128 0.70111
 N115 N 0.77897 -0.31065 0.72853
 N116 N 0.78956 -0.28960 0.71046
 C117 C 0.81799 -0.29882 0.70137
 C118 C 0.82587 -0.32732 0.71458
 C119 C 0.80024 -0.33401 0.73166
 H120 H 0.83190 -0.28534 0.68669
 H121 H 0.79725 -0.35388 0.74597
 N122 N 0.73888 -0.21399 0.69508
 N123 N 0.71314 -0.20849 0.71060
 C124 C 0.69999 -0.18118 0.70162
 C125 C 0.71835 -0.16879 0.67934
 C126 C 0.74279 -0.19035 0.67582
 H127 H 0.67862 -0.17111 0.71068
 H128 H 0.76225 -0.18881 0.66066
 H129 H 0.72294 -0.26546 0.71050
 H130 H 0.74459 -0.24946 0.74415
 N131 N 0.32586 0.26309 0.78411
 N132 N 0.31397 0.29165 0.78785
 C133 C 0.32430 0.30421 0.81452
 C134 C 0.34385 0.28236 0.82839
 C135 C 0.34432 0.25653 0.80830
 H136 H 0.31779 0.32746 0.82317
 H137 H 0.35652 0.23431 0.81136
 Cu138 Cu 0.28502 0.30944 0.75848
 Cu139 Cu 0.31542 0.23627 0.74882
 Cu140 Cu 0.25625 0.26406 0.70240
 N141 N 0.24792 0.32200 0.73692
 N142 N 0.23678 0.30425 0.71492
 C143 C 0.20998 0.31729 0.70556
 C144 C 0.20384 0.34472 0.72275
 C145 C 0.22861 0.34692 0.74238
 H146 H 0.19560 0.30690 0.68831
 H147 H 0.23175 0.36443 0.76044
 N148 N 0.27892 0.22393 0.69404
 N149 N 0.30122 0.21305 0.71187
 C150 C 0.31079 0.18443 0.70111
 C151 C 0.29368 0.17693 0.67522
 C152 C 0.27377 0.20263 0.67147
 H153 H 0.32858 0.16995 0.71162
 H154 H 0.25598 0.20517 0.65430
 H155 H 0.29999 0.27012 0.71853
 H156 H 0.27186 0.25641 0.74717
 N157 N 0.29661 -0.27493 0.20867
 N158 N 0.27701 -0.29407 0.19734
 C159 C 0.28900 -0.30893 0.17177
 C160 C 0.31772 -0.29845 0.16657
 C161 C 0.32173 -0.27691 0.19064
 H162 H 0.27721 -0.32542 0.15757
 H163 H 0.34082 -0.26253 0.19402
 Cu164 Cu 0.23685 -0.29627 0.21546
 Cu165 Cu 0.28683 -0.24654 0.24385
 Cu166 Cu 0.21606 -0.25185 0.27826
 N167 N 0.20229 -0.30545 0.24113
 N168 N 0.19420 -0.28811 0.26576
 C169 C 0.16875 -0.29865 0.27811
 C170 C 0.16036 -0.32410 0.26025
 C171 C 0.18237 -0.32771 0.23701
 H172 H 0.15707 -0.28815 0.29830
 H173 H 0.18348 -0.34467 0.21794
 N174 N 0.24545 -0.22190 0.29268
 N175 N 0.27236 -0.21978 0.27954
 C176 C 0.28623 -0.19594 0.29324
 C177 C 0.26722 -0.18254 0.31626
 C178 C 0.24164 -0.19974 0.31532
 H179 H 0.30827 -0.18846 0.28656
 H180 H 0.22121 -0.19557 0.32921
 H181 H 0.25601 -0.27485 0.26405
 H182 H 0.24076 -0.24364 0.23806
 N183 N 0.70737 0.25678 0.22698
 N184 N 0.72205 0.28140 0.22002
 C185 C 0.71160 0.29255 0.19286
 C186 C 0.68902 0.27394 0.18203
 C187 C 0.68696 0.25146 0.20445
 H188 H 0.72004 0.31266 0.18185
 H189 H 0.67218 0.23227 0.20421
 Cu190 Cu 0.75409 0.29636 0.24633
 Cu191 Cu 0.71655 0.23311 0.26430
 Cu192 Cu 0.78046 0.25274 0.30529
 N193 N 0.79293 0.30324 0.26568
 N194 N 0.80314 0.28611 0.28868
 C195 C 0.83047 0.29550 0.29749
 C196 C 0.83793 0.31991 0.27897
 C197 C 0.81342 0.32413 0.25899
 H198 H 0.84397 0.28499 0.31580
 H199 H 0.81058 0.34105 0.24091
 N200 N 0.75439 0.21977 0.31827
 N201 N 0.72998 0.21225 0.30273
 C202 C 0.71750 0.18854 0.31699
 C203 C 0.73493 0.18065 0.34280
 C204 C 0.75809 0.20108 0.34279
 H205 H 0.69736 0.17769 0.30894
 H206 H 0.77670 0.20192 0.35904
 H207 H 0.73722 0.26690 0.29032
 H208 H 0.76180 0.24279 0.26210
 C209 C 0.25958 -0.00612 0.41478
 C210 C 0.25686 0.02293 0.43042
 C211 C 0.25628 0.02415 0.46317
 C212 C 0.26037 -0.00313 0.48064
 C213 C 0.26360 -0.03197 0.46423
 C214 C 0.26227 -0.03369 0.43152
 C215 C 0.26130 -0.00135 0.51568
 C216 C 0.25403 -0.02686 0.53380
 C217 C 0.25544 -0.02523 0.56655
 C218 C 0.26216 0.00294 0.58145
 C219 C 0.26879 0.02885 0.56408
 C220 C 0.26949 0.02608 0.53142
 H221 H 0.25864 -0.00726 0.38953
 H222 H 0.25293 0.04666 0.47479
 H223 H 0.26759 -0.05340 0.47653
 H224 H 0.24751 -0.04828 0.52271
 H225 H 0.26145 0.00488 0.60668
 H226 H 0.27678 0.04558 0.51852
 C227 C 0.70274 0.00952 0.58864
 C228 C 0.69565 0.03673 0.57225
 C229 C 0.69337 0.03498 0.53956
 C230 C 0.69967 0.00655 0.52287
 C231 C 0.70816 -0.02008 0.54005
 C232 C 0.70884 -0.01898 0.57275
 C233 C 0.69792 0.00444 0.48783
 C234 C 0.69408 -0.02442 0.47227
 C235 C 0.69507 -0.02735 0.43962
 C236 C 0.69733 -0.00060 0.42208
 C237 C 0.69960 0.02866 0.43673
 C238 C 0.70079 0.03090 0.46947
 H239 H 0.70468 0.01071 0.61382
 H240 H 0.68637 0.05594 0.52757
 H241 H 0.71425 -0.04206 0.52830
 H242 H 0.69025 -0.04503 0.48523
 H243 H 0.69851 -0.00266 0.39687
 H244 H 0.70404 0.05339 0.48030
 C245 C 0.43139 0.28789 0.00911
 C246 C 0.44718 0.29333 0.03685
 C247 C 0.47913 0.29205 0.03634
 C248 C 0.49552 0.28396 0.00865
 C249 C 0.47895 0.27735 -0.01858
 C250 C 0.44708 0.28008 -0.01874
 C251 C 0.52966 0.28219 0.00794
 C252 C 0.54555 0.28653 -0.02010
 C253 C 0.57740 0.28294 -0.02168
 C254 C 0.59377 0.27720 0.00573
 C255 C 0.57867 0.27414 0.03427
 C256 C 0.54671 0.27579 0.03501
 H257 H 0.40676 0.28867 0.00938
 H258 H 0.49088 0.29780 0.05762
 H259 H 0.49064 0.27021 -0.04002
 H260 H 0.53337 0.29299 -0.04099
 H261 H 0.61834 0.27418 0.00476
 H262 H 0.53535 0.27218 0.05689
 C263 C 0.57843 0.70912 -0.01049
 C264 C 0.56336 0.71298 0.01831
 C265 C 0.53154 0.71242 0.01940
 C266 C 0.51459 0.70631 -0.00771
 C267 C 0.53045 0.70176 -0.03623
 C268 C 0.56202 0.70443 -0.03799
 C269 C 0.48055 0.70575 -0.00636
 C270 C 0.46261 0.71247 -0.03284
 C271 C 0.43077 0.71218 -0.03159
 C272 C 0.41656 0.70698 -0.00308
 C273 C 0.43370 0.70099 0.02379
 C274 C 0.46556 0.69928 0.02167
 H275 H 0.60279 0.71132 -0.01160
 H276 H 0.52027 0.71697 0.04161
 H277 H 0.51853 0.69623 -0.05745
 H278 H 0.47311 0.71803 -0.05464
 H279 H 0.39196 0.70882 -0.00161
 H280 H 0.47841 0.69284 0.04215
 C281 C 0.00702 0.41266 0.27320
 C282 C 0.03276 0.42978 0.27789
 C283 C 0.03018 0.46231 0.27549
 C284 C 0.00240 0.47786 0.26700
 C285 C -0.02279 0.45974 0.26121
 C286 C -0.02090 0.42745 0.26527
 C287 C -0.00052 0.51271 0.26463
 C288 C -0.02907 0.52921 0.26797
 C289 C -0.03208 0.56166 0.26511
 C290 C -0.00600 0.57821 0.26078
 C291 C 0.02273 0.56258 0.25807
 C292 C 0.02517 0.52993 0.25913
 H293 H 0.00885 0.38755 0.27506
 H294 H 0.04989 0.47519 0.28101
 H295 H -0.04427 0.47051 0.25395
 H296 H -0.04927 0.51723 0.27328
 H297 H -0.00816 0.60326 0.25851
 H298 H 0.04734 0.51822 0.25585
 C299 C 0.00031 0.57723 0.73154
 C300 C 0.02896 0.56171 0.73475
 C301 C 0.03108 0.52897 0.73505
 C302 C 0.00518 0.51159 0.73026
 C303 C -0.02300 0.52794 0.72563
 C304 C -0.02581 0.56055 0.72733
 C305 C 0.00731 0.47664 0.73002
 C306 C -0.01817 0.45983 0.73766
 C307 C -0.01690 0.42716 0.73584
 C308 C 0.01080 0.41096 0.72838
 C309 C 0.03681 0.42702 0.72184
 C310 C 0.03464 0.45971 0.72181
 H311 H -0.00175 0.60243 0.73315
 H312 H 0.05306 0.51726 0.73881
 H313 H -0.04307 0.51554 0.72030
 H314 H -0.03938 0.47194 0.74463
 H315 H 0.01221 0.38575 0.72843
 H316 H 0.05435 0.47169 0.71478
 C317 C 0.40762 0.26396 0.17072
 C318 C 0.38047 0.28283 0.17161
 C319 C 0.37374 0.30263 0.14667
 C320 C 0.39311 0.30245 0.12055
 C321 C 0.41995 0.28278 0.11963
 C322 C 0.42725 0.26406 0.14507
 C323 C 0.43843 0.28125 0.09283
 C324 C 0.43005 0.29854 0.06656
 C325 C 0.40375 0.31864 0.06800
 C326 C 0.38555 0.32076 0.09484
 H327 H 0.35282 0.31715 0.14689
 H328 H 0.44778 0.24893 0.14483
 H329 H 0.45847 0.26539 0.09179
 H330 H 0.36512 0.33604 0.09513
 H331 H 0.41362 0.24884 0.18977
 H332 H 0.39700 0.33235 0.04810
 C333 C 0.66326 0.68803 0.11737
 C334 C 0.65411 0.71236 0.13869
 C335 C 0.62870 0.73217 0.13107
 C336 C 0.61284 0.72775 0.10314
 C337 C 0.62249 0.70341 0.08203
 C338 C 0.64772 0.68373 0.08937
 C339 C 0.60656 0.69901 0.05411
 C340 C 0.58077 0.71836 0.04727
 C341 C 0.57135 0.74247 0.06847
 C342 C 0.58731 0.74722 0.09609
 H343 H 0.62071 0.75094 0.14683
 H344 H 0.65541 0.66488 0.07347
 H345 H 0.61380 0.68016 0.03799
 H346 H 0.57958 0.76604 0.11201
 H347 H 0.68260 0.67224 0.12194
 H348 H 0.55171 0.75782 0.06352
 C349 C 0.68067 0.30870 -0.11501
 C350 C 0.66893 0.29299 -0.14108
 C351 C 0.64064 0.27971 -0.13831
 C352 C 0.62464 0.28148 -0.10991
 C353 C 0.63689 0.29686 -0.08375
 C354 C 0.66482 0.31062 -0.08663
 C355 C 0.62118 0.29790 -0.05511
 C356 C 0.59337 0.28363 -0.05227
 C357 C 0.58130 0.26876 -0.07866
 C358 C 0.59672 0.26775 -0.10719
 H359 H 0.63094 0.26790 -0.15819
 H360 H 0.67457 0.32256 -0.06684
 H361 H 0.63060 0.30975 -0.03506
 H362 H 0.58701 0.25582 -0.12701
 H363 H 0.70241 0.31908 -0.11628
 H364 H 0.56020 0.25717 -0.07706
 C365 C 0.32634 0.69129 -0.12472
 C366 C 0.33258 0.71495 -0.14543
 C367 C 0.35760 0.73313 -0.13946
 C368 C 0.37590 0.72793 -0.11317
 C369 C 0.36922 0.70421 -0.09251
 C370 C 0.34447 0.68598 -0.09854
 C371 C 0.38732 0.69916 -0.06611
 C372 C 0.41209 0.71754 -0.05991
 C373 C 0.41867 0.74097 -0.08072
 C374 C 0.40074 0.74612 -0.10712
 H375 H 0.36304 0.75126 -0.15522
 H376 H 0.33902 0.66769 -0.08292
 H377 H 0.38227 0.68072 -0.05047
 H378 H 0.40619 0.76445 -0.12268
 H379 H 0.30723 0.67699 -0.12841
 H380 H 0.43740 0.75567 -0.07630
 C381 C 0.16788 0.38741 0.25522
 C382 C 0.16923 0.36234 0.27569
 C383 C 0.14373 0.35770 0.29455
 C384 C 0.11704 0.37689 0.29215
 C385 C 0.11577 0.40151 0.27096
 C386 C 0.14146 0.40682 0.25293
 C387 C 0.08856 0.41975 0.26749
 C388 C 0.06243 0.41326 0.28450
 C389 C 0.06421 0.38924 0.30611
 C390 C 0.09130 0.37133 0.31003
 H391 H 0.14428 0.33886 0.31080
 H392 H 0.14094 0.42562 0.23658
 H393 H 0.08732 0.43805 0.25055
 H394 H 0.09191 0.35266 0.32652
 H395 H 0.18699 0.39179 0.24039
 H396 H 0.04443 0.38404 0.31968
 C397 C 0.11336 0.66754 0.70550
 C398 C 0.13685 0.65970 0.72666
 C399 C 0.13403 0.63321 0.74505
 C400 C 0.10842 0.61532 0.74251
 C401 C 0.08521 0.62371 0.72123
 C402 C 0.08795 0.64975 0.70281
 C403 C 0.05957 0.60598 0.71874
 C404 C 0.05654 0.57994 0.73743
 C405 C 0.07983 0.57168 0.75848
 C406 C 0.10554 0.58919 0.76098
 H407 H 0.15148 0.62636 0.76158
 H408 H 0.07034 0.65648 0.68633
 H409 H 0.04204 0.61233 0.70202
 H410 H 0.12308 0.58241 0.77751
 H411 H 0.11431 0.68742 0.69074
 H412 H 0.07795 0.55196 0.77339
 C413 C -0.13043 0.66717 0.29564
 C414 C -0.15353 0.65638 0.27612
 C415 C -0.14779 0.62793 0.25939
 C416 C -0.11971 0.61102 0.26175
 C417 C -0.09663 0.62265 0.28077
 C418 C -0.10231 0.65061 0.29777
 C419 C -0.06818 0.60625 0.28228
 C420 C -0.06261 0.57813 0.26521
 C421 C -0.08601 0.56639 0.24697
 C422 C -0.11425 0.58271 0.24517
 H423 H -0.16506 0.61856 0.24458
 H424 H -0.08492 0.65982 0.31260
 H425 H -0.05037 0.61533 0.29666
 H426 H -0.13171 0.57335 0.23053
 H427 H -0.13354 0.68880 0.30896
 H428 H -0.08215 0.54492 0.23341
 C429 C -0.11269 0.33180 0.70382
 C430 C -0.13389 0.34037 0.72774
 C431 C -0.12663 0.36412 0.74938
 C432 C -0.09926 0.37914 0.74684
 C433 C -0.07855 0.37027 0.72257
 C434 C -0.08542 0.34651 0.70133
 C435 C -0.05147 0.38558 0.71962
 C436 C -0.04479 0.40998 0.74046
 C437 C -0.06542 0.41852 0.76472
 C438 C -0.09236 0.40318 0.76795
 H439 H -0.14223 0.37142 0.76807
 H440 H -0.06975 0.33940 0.68258
 H441 H -0.03596 0.37908 0.70054
 H442 H -0.10791 0.41029 0.78678
 H443 H -0.11685 0.31369 0.68671
 H444 H -0.06067 0.43705 0.78124
 C445 C 0.29690 0.11543 0.33218
 C446 C 0.27676 0.14073 0.34099
 C447 C 0.25583 0.13705 0.36534
 C448 C 0.25529 0.10872 0.38083
 C449 C 0.27579 0.08360 0.37181
 C450 C 0.29640 0.08717 0.34740
 C451 C 0.27565 0.05547 0.38761
 C452 C 0.25546 0.05211 0.41261
 C453 C 0.23495 0.07713 0.42122
 C454 C 0.23481 0.10515 0.40543
 H455 H 0.24026 0.15626 0.37267
 H456 H 0.31224 0.06813 0.34013
 H457 H 0.29184 0.03648 0.38102
 H458 H 0.21885 0.12411 0.41263
 H459 H 0.31304 0.11724 0.31335
 H460 H 0.21897 0.07500 0.44018
 C461 C 0.73083 0.16954 0.60919
 C462 C 0.71598 0.17176 0.63834
 C463 C 0.69708 0.14803 0.64671
 C464 C 0.69427 0.12178 0.62701
 C465 C 0.71006 0.11940 0.59821
 C466 C 0.72780 0.14368 0.58927
 C467 C 0.70886 0.09226 0.57945
 C468 C 0.69267 0.06711 0.58948
 C469 C 0.67623 0.07013 0.61766
 C470 C 0.67686 0.09729 0.63617
 H471 H 0.68556 0.14919 0.66910
 H472 H 0.73995 0.14235 0.56721
 H473 H 0.72190 0.09001 0.55793
 H474 H 0.66448 0.09875 0.65810
 H475 H 0.74512 0.18763 0.60183
 H476 H 0.66341 0.05113 0.62569
 C477 C 0.28165 -0.11927 0.67114
 C478 C 0.25868 -0.13969 0.66395
 C479 C 0.23927 -0.13295 0.63865
 C480 C 0.24285 -0.10639 0.62089
 C481 C 0.26608 -0.08626 0.62846
 C482 C 0.28531 -0.09290 0.65359
 C483 C 0.26985 -0.05986 0.61072
 C484 C 0.25068 -0.05307 0.58537
 C485 C 0.22757 -0.07321 0.57799
 C486 C 0.22367 -0.09962 0.59561
 H487 H 0.22148 -0.14828 0.63256
 H488 H 0.30324 -0.07767 0.65972
 H489 H 0.28808 -0.04482 0.61636
 H490 H 0.20566 -0.11472 0.58946
 H491 H 0.29695 -0.12341 0.69040
 H492 H 0.21229 -0.06836 0.55878
 C493 C 0.67479 -0.12384 0.33303
 C494 C 0.69451 -0.14793 0.34409
 C495 C 0.70839 -0.14396 0.37330
 C496 C 0.70345 -0.11603 0.39072
 C497 C 0.68425 -0.09171 0.37893
 C498 C 0.66971 -0.09602 0.35028
 C499 C 0.68051 -0.06321 0.39560
 C500 C 0.69599 -0.05855 0.42381
 C501 C 0.71431 -0.08327 0.43575
 C502 C 0.71795 -0.11176 0.41941
 H503 H 0.72329 -0.16241 0.38243
 H504 H 0.65485 -0.07765 0.34091
 H505 H 0.66601 -0.04449 0.38634
 H506 H 0.73272 -0.13017 0.42883
 H507 H 0.66384 -0.12604 0.31063
 H508 H 0.72678 -0.08021 0.45722
 C509 C 0.66583 0.68244 -0.13561
 C510 C 0.65309 0.70196 -0.15848
 C511 C 0.62393 0.71622 -0.15355
 C512 C 0.60800 0.71180 -0.12581
 C513 C 0.62137 0.69291 -0.10250
 C514 C 0.65014 0.67803 -0.10780
 C515 C 0.60598 0.68975 -0.07411
 C516 C 0.57733 0.70516 -0.06881
 C517 C 0.56396 0.72316 -0.09256
 C518 C 0.57913 0.72645 -0.12077
 H519 H 0.61365 0.73094 -0.17120
 H520 H 0.66072 0.66338 -0.09027
 H521 H 0.61636 0.67561 -0.05604
 H522 H 0.56854 0.74095 -0.13841
 H523 H 0.68830 0.67125 -0.13876
 H524 H 0.54210 0.73558 -0.08889
 C525 C 0.35151 0.31042 -0.12048
 C526 C 0.35992 0.28570 -0.14146
 C527 C 0.38378 0.26429 -0.13339
 C528 C 0.39910 0.26766 -0.10496
 C529 C 0.39042 0.29266 -0.08419
 C530 C 0.36658 0.31385 -0.09214
 C531 C 0.40588 0.29625 -0.05594
 C532 C 0.43014 0.27530 -0.04814
 C533 C 0.43853 0.25041 -0.06888
 C534 C 0.42311 0.24658 -0.09702
 H535 H 0.39078 0.24524 -0.14930
 H536 H 0.35959 0.33312 -0.07646
 H537 H 0.39948 0.31577 -0.04030
 H538 H 0.43005 0.22722 -0.11261
 H539 H 0.33308 0.32711 -0.12573
 H540 H 0.45694 0.23378 -0.06323
 C541 C 0.32784 0.67696 0.11343
 C542 C 0.33797 0.69438 0.13921
 C543 C 0.36701 0.70633 0.13790
 C544 C 0.38483 0.70252 0.11074
 C545 C 0.37384 0.68602 0.08463
 C546 C 0.34563 0.67275 0.08646
 C547 C 0.39071 0.68403 0.05677
 C548 C 0.41819 0.69892 0.05442
 C549 C 0.42945 0.71427 0.08094
 C550 C 0.41300 0.71593 0.10888
 H551 H 0.37555 0.71937 0.15759
 H552 H 0.33691 0.65987 0.06671
 H553 H 0.38202 0.67168 0.03665
 H554 H 0.42181 0.72862 0.12871
 H555 H 0.30577 0.66722 0.11357
 H556 H 0.45037 0.72621 0.07972
 C557 C 0.67991 0.29825 0.13008
 C558 C 0.67148 0.27715 0.15264
 C559 C 0.64623 0.25925 0.14683
 C560 C 0.62966 0.26249 0.11906
 C561 C 0.63841 0.28385 0.09674
 C562 C 0.66356 0.30157 0.10245
 C563 C 0.62180 0.28729 0.06911
 C564 C 0.59641 0.26969 0.06335
 C565 C 0.58791 0.24842 0.08567
 C566 C 0.60440 0.24483 0.11327
 H567 H 0.63918 0.24300 0.16390
 H568 H 0.67061 0.31802 0.08554
 H569 H 0.62833 0.30410 0.05230
 H570 H 0.59737 0.22827 0.13008
 H571 H 0.69930 0.31222 0.13351
 H572 H 0.56865 0.23433 0.08165
 C573 C -0.12162 0.66580 0.69501
 C574 C -0.14609 0.65513 0.71229
 C575 C -0.14168 0.62668 0.72773
 C576 C -0.11349 0.60985 0.72665
 C577 C -0.08910 0.62122 0.70975
 C578 C -0.09350 0.64905 0.69378
 C579 C -0.06065 0.60477 0.70943
 C580 C -0.05623 0.57711 0.72598
 C581 C -0.08083 0.56580 0.74235
 C582 C -0.10919 0.58197 0.74263
 H583 H -0.15989 0.61746 0.74099
 H584 H -0.07507 0.65807 0.68057
 H585 H -0.04196 0.61353 0.69641
 H586 H -0.12765 0.57291 0.75576
 H587 H -0.12376 0.68731 0.68255
 H588 H -0.07793 0.54478 0.75562
 C589 C -0.11317 0.33278 0.30476
 C590 C -0.13402 0.33744 0.28031
 C591 C -0.12782 0.35899 0.25730
 C592 C -0.10135 0.37564 0.25877
 C593 C -0.08070 0.37064 0.28348
 C594 C -0.08680 0.34918 0.30631
 C595 C -0.05438 0.38737 0.28514
 C596 C -0.04836 0.40923 0.26249
 C597 C -0.06899 0.41404 0.23793
 C598 C -0.09523 0.39732 0.23603
 H599 H -0.14341 0.36288 0.23817
 H600 H -0.07122 0.34514 0.32546
 H601 H -0.03885 0.38383 0.30444
 H602 H -0.11078 0.40143 0.21687
 H603 H -0.11719 0.31662 0.32300
 H604 H -0.06469 0.43059 0.22008
 C605 C 0.17411 0.39393 0.73944
 C606 C 0.17557 0.36527 0.72277
 C607 C 0.14941 0.35585 0.70723
 C608 C 0.12203 0.37414 0.70925
 C609 C 0.12073 0.40246 0.72675
 C610 C 0.14698 0.41234 0.74139
 C611 C 0.09305 0.42006 0.72995
 C612 C 0.06647 0.40962 0.71609
 C613 C 0.06818 0.38177 0.69811
 C614 C 0.09572 0.36421 0.69467
 H615 H 0.14991 0.33389 0.69430
 H616 H 0.14644 0.43409 0.75476
 H617 H 0.09197 0.44130 0.74418
 H618 H 0.09633 0.34264 0.68101
 H619 H 0.19386 0.40214 0.75129
 H620 H 0.04814 0.37346 0.68683
 C621 C 0.11015 0.66741 0.28573
 C622 C 0.13299 0.65769 0.26399
 C623 C 0.12922 0.63068 0.24546
 C624 C 0.10304 0.61389 0.24837
 C625 C 0.08023 0.62407 0.27015
 C626 C 0.08405 0.65077 0.28878
 C627 C 0.05402 0.60734 0.27301
 C628 C 0.05027 0.58044 0.25442
 C629 C 0.07312 0.57050 0.23282
 C630 C 0.09926 0.58709 0.22980
 H631 H 0.14656 0.62254 0.22877
 H632 H 0.06678 0.65889 0.30563
 H633 H 0.03672 0.61498 0.29004
 H634 H 0.11649 0.57898 0.21291
 H635 H 0.11213 0.68808 0.30028
 H636 H 0.07061 0.55004 0.21802
 C637 C 0.68987 -0.11707 0.67297
 C638 C 0.71318 -0.13890 0.66310
 C639 C 0.73151 -0.13193 0.63753
 C640 C 0.72655 -0.10382 0.62201
 C641 C 0.70297 -0.08221 0.63211
 C642 C 0.68483 -0.08903 0.65765
 C643 C 0.69771 -0.05432 0.61629
 C644 C 0.71559 -0.04778 0.59030
 C645 C 0.73918 -0.06930 0.58063
 C646 C 0.74464 -0.09706 0.59636
 H647 H 0.74944 -0.14841 0.62932
 H648 H 0.66667 -0.07270 0.66574
 H649 H 0.67923 -0.03804 0.62372
 H650 H 0.76291 -0.11330 0.58836
 H651 H 0.67550 -0.12146 0.69268
 H652 H 0.75349 -0.06460 0.56092
 C653 C 0.29180 -0.13207 0.32591
 C654 C 0.27185 -0.15426 0.33572
 C655 C 0.25545 -0.14873 0.36369
 C656 C 0.25832 -0.12109 0.38124
 C657 C 0.27777 -0.09852 0.37068
 C658 C 0.29467 -0.10441 0.34319
 C659 C 0.27958 -0.07027 0.38752
 C660 C 0.26227 -0.06434 0.41488
 C661 C 0.24366 -0.08732 0.42559
 C662 C 0.24167 -0.11542 0.40891
 H663 H 0.24033 -0.16583 0.37178
 H664 H 0.30976 -0.08742 0.33479
 H665 H 0.29425 -0.05282 0.37927
 H666 H 0.22671 -0.13249 0.41739
 H667 H 0.30459 -0.13562 0.30439
 H668 H 0.22992 -0.08315 0.44644
 C669 C 0.74909 0.15178 0.39136
 C670 C 0.73075 0.15499 0.36468
 C671 C 0.70890 0.13304 0.35872
 C672 C 0.70587 0.10799 0.37856
 C673 C 0.72479 0.10477 0.40495
 C674 C 0.74614 0.12694 0.41126
 C675 C 0.72234 0.07919 0.42428
 C676 C 0.70131 0.05665 0.41744
 C677 C 0.68227 0.06043 0.39140
 C678 C 0.68451 0.08584 0.37216
 H679 H 0.69455 0.13491 0.33836
 H680 H 0.76076 0.12493 0.43146
 H681 H 0.73737 0.07637 0.44408
 H682 H 0.66971 0.08802 0.35213
 H683 H 0.76591 0.16834 0.39696
 H684 H 0.66558 0.04362 0.38591
 C685 C 0.30899 0.11994 0.66860
 C686 C 0.29450 0.14715 0.65690
 C687 C 0.27966 0.14551 0.62798
 C688 C 0.27833 0.11705 0.61154
 C689 C 0.29230 0.08970 0.62388
 C690 C 0.30793 0.09148 0.65223
 C691 C 0.28990 0.06102 0.60795
 C692 C 0.27348 0.05931 0.57993
 C693 C 0.26018 0.08683 0.56767
 C694 C 0.26266 0.11542 0.58325
 H695 H 0.26881 0.16627 0.61827
 H696 H 0.31885 0.07078 0.66203
 H697 H 0.30059 0.04004 0.61746
 H698 H 0.25179 0.13617 0.57348
 H699 H 0.32055 0.12037 0.69080
 H700 H 0.24706 0.08615 0.54639
   
