data_POSCAR
  _audit_creation_date              2014-09-24
  _audit_creation_method            'ToBaCCo'
  _symmetry_space_group_name_H-M    'P1'
  _symmetry_Int_Tables_number       1
  _symmetry_cell_setting            triclinic
  loop_
  _symmetry_equiv_pos_as_xyz
 x,y,z
_cell_length_a 38.9768
_cell_length_b 37.7234
_cell_length_c 37.4717
_cell_angle_alpha 91.250000
_cell_angle_beta 88.166700
_cell_angle_gamma 91.969000
loop_
  _atom_site_label
  _atom_site_type_symbol
  _atom_site_fract_x
  _atom_site_fract_y
  _atom_site_fract_z
N1 N 0.58521 0.68210 0.61003
 N2 N 0.57015 0.66597 0.63738
 C3 C 0.54229 0.68399 0.64819
 C4 C 0.53980 0.71283 0.62629
 C5 C 0.56734 0.71071 0.60235
 H6 H 0.52499 0.67651 0.67006
 H7 H 0.57393 0.72883 0.58104
 Cu8 Cu 0.58819 0.62281 0.65598
 Cu9 Cu 0.62703 0.66517 0.58668
 Cu10 Cu 0.66114 0.58979 0.62067
 N11 N 0.60815 0.58086 0.67509
 N12 N 0.63690 0.56842 0.66141
 C13 C 0.64534 0.53988 0.67975
 C14 C 0.62050 0.53395 0.70625
 C15 C 0.59719 0.56051 0.70258
 H16 H 0.66784 0.52444 0.67419
 H17 H 0.57424 0.56495 0.71878
 N18 N 0.68199 0.61509 0.57954
 N19 N 0.66917 0.64396 0.56673
 C20 C 0.68917 0.65498 0.53884
 C21 C 0.71575 0.63181 0.53393
 C22 C 0.71034 0.60687 0.56005
 H23 H 0.68450 0.67786 0.52307
 H24 H 0.72603 0.58437 0.56441
 H25 H 0.61903 0.61243 0.59921
 H26 H 0.64453 0.64064 0.63104
 N27 N 0.91973 0.31935 0.08813
 N28 N 0.93063 0.33059 0.11937
 C29 C 0.95732 0.31121 0.12831
 C30 C 0.96353 0.28662 0.10102
 C31 C 0.93928 0.29267 0.07595
 H32 H 0.97132 0.31506 0.15260
 H33 H 0.93590 0.27839 0.05090
 Cu34 Cu 0.90963 0.37007 0.14510
 Cu35 Cu 0.88031 0.33926 0.06620
 Cu36 Cu 0.84313 0.41064 0.11017
 N37 N 0.88946 0.41146 0.16824
 N38 N 0.86334 0.42697 0.15460
 C39 C 0.85440 0.45458 0.17582
 C40 C 0.87619 0.45655 0.20429
 C41 C 0.89819 0.42893 0.19855
 H42 H 0.83388 0.47212 0.17060
 H43 H 0.91898 0.42215 0.21531
 N44 N 0.82624 0.39036 0.06492
 N45 N 0.84017 0.36292 0.04831
 C46 C 0.82222 0.35464 0.01895
 C47 C 0.79601 0.37812 0.01688
 C48 C 0.79927 0.40041 0.04646
 H49 H 0.82759 0.33298 0.00046
 H50 H 0.78278 0.42185 0.05437
 H51 H 0.88769 0.38933 0.08875
 H52 H 0.85695 0.35828 0.11270
 N53 N 0.41177 0.18361 -0.10631
 N54 N 0.42486 0.16896 -0.13561
 C55 C 0.45225 0.18883 -0.14707
 C56 C 0.45652 0.21733 -0.12354
 C57 C 0.43051 0.21309 -0.09797
 H58 H 0.46807 0.18281 -0.17048
 H59 H 0.42554 0.23035 -0.07510
 Cu60 Cu 0.40511 0.12511 -0.15560
 Cu61 Cu 0.37118 0.16369 -0.08148
 Cu62 Cu 0.33414 0.08671 -0.11769
 N63 N 0.38377 0.08218 -0.17584
 N64 N 0.35577 0.06757 -0.16122
 C65 C 0.34621 0.03872 -0.18076
 C66 C 0.36959 0.03508 -0.20910
 C67 C 0.39308 0.06298 -0.20507
 H68 H 0.32414 0.02156 -0.17456
 H69 H 0.41518 0.06885 -0.22238
 N70 N 0.31610 0.11012 -0.07376
 N71 N 0.33005 0.13962 -0.06021
 C72 C 0.31177 0.14928 -0.03069
 C73 C 0.28529 0.12462 -0.02524
 C74 C 0.28870 0.10012 -0.05305
 H75 H 0.31729 0.17249 -0.01415
 H76 H 0.27231 0.07697 -0.05802
 H77 H 0.37775 0.11155 -0.09780
 H78 H 0.35041 0.13868 -0.12593
 N79 N 0.08378 0.82111 0.39968
 N80 N 0.06606 0.84211 0.38029
 C81 C 0.03607 0.82563 0.37212
 C82 C 0.03508 0.79231 0.38713
 C83 C 0.06584 0.79032 0.40423
 H84 H 0.01682 0.83699 0.35611
 H85 H 0.07416 0.76837 0.41953
 Cu86 Cu 0.08390 0.88870 0.36660
 Cu87 Cu 0.12743 0.83649 0.41982
 Cu88 Cu 0.16471 0.91415 0.38731
 N89 N 0.10866 0.92693 0.34197
 N90 N 0.14032 0.93658 0.34977
 C91 C 0.15140 0.96281 0.32804
 C92 C 0.12520 0.96988 0.30537
 C93 C 0.09847 0.94672 0.31505
 H94 H 0.17662 0.97560 0.32869
 H95 H 0.07364 0.94412 0.30300
 N96 N 0.18501 0.88711 0.42523
 N97 N 0.17119 0.85699 0.43707
 C98 C 0.19034 0.84541 0.46345
 C99 C 0.21727 0.86950 0.46863
 C100 C 0.21321 0.89559 0.44386
 H101 H 0.18455 0.82182 0.47870
 H102 H 0.22921 0.91925 0.44001
 H103 H 0.12341 0.89086 0.41562
 H104 H 0.14035 0.86602 0.37520
 C105 C 0.10141 0.13500 0.17191
 C106 C 0.07758 0.16205 0.17354
 C107 C 0.07634 0.18640 0.14588
 C108 C 0.09986 0.18414 0.11671
 C109 C 0.12421 0.15756 0.11497
 C110 C 0.12487 0.13273 0.14255
 C111 C 0.10217 0.11021 0.19919
 C112 C 0.12634 0.08343 0.19788
 C113 C 0.14965 0.08123 0.16847
 C114 C 0.14911 0.10576 0.14088
 C115 C 0.17253 0.10384 0.11172
 C116 C 0.17212 0.12866 0.08422
 C117 C 0.14804 0.15554 0.08622
 H118 H 0.05962 0.16395 0.19616
 H119 H 0.09966 0.20344 0.09572
 H120 H 0.08405 0.11187 0.22168
 H121 H 0.16779 0.06012 0.16656
 H122 H 0.19159 0.08359 0.11103
 H123 H 0.14780 0.17482 0.06519
 C124 C 0.39909 0.86419 0.65674
 C125 C 0.42396 0.83814 0.65608
 C126 C 0.42509 0.81233 0.62839
 C127 C 0.40140 0.81318 0.60100
 C128 C 0.37627 0.83893 0.60140
 C129 C 0.37507 0.86454 0.62938
 C130 C 0.39797 0.89000 0.68424
 C131 C 0.37274 0.91571 0.68524
 C132 C 0.34888 0.91598 0.65784
 C133 C 0.34997 0.89065 0.62988
 C134 C 0.32647 0.89111 0.60233
 C135 C 0.32773 0.86579 0.57418
 C136 C 0.35241 0.83956 0.57420
 H137 H 0.44276 0.83845 0.67677
 H138 H 0.40243 0.79354 0.57945
 H139 H 0.41656 0.88992 0.70517
 H140 H 0.32996 0.93635 0.65771
 H141 H 0.30688 0.91083 0.60322
 H142 H 0.35325 0.81984 0.55271
 C143 C 0.90376 0.62677 0.34101
 C144 C 0.93022 0.65289 0.34232
 C145 C 0.92829 0.68139 0.36692
 C146 C 0.90008 0.68312 0.39119
 C147 C 0.87378 0.65680 0.39074
 C148 C 0.87548 0.62865 0.36539
 C149 C 0.90494 0.59899 0.31552
 C150 C 0.87801 0.57339 0.31368
 C151 C 0.85045 0.57475 0.33883
 C152 C 0.84905 0.60218 0.36464
 C153 C 0.82162 0.60355 0.38972
 C154 C 0.81978 0.63138 0.41511
 C155 C 0.84600 0.65801 0.41545
 H156 H 0.95207 0.65149 0.32374
 H157 H 0.89892 0.70460 0.41085
 H158 H 0.92645 0.59772 0.29650
 H159 H 0.83020 0.55435 0.33858
 H160 H 0.80150 0.58296 0.38942
 H161 H 0.84540 0.67915 0.43545
 C162 C 0.59807 0.37671 -0.15344
 C163 C 0.57251 0.34961 -0.15257
 C164 C 0.57336 0.32240 -0.12752
 C165 C 0.59983 0.32282 -0.10296
 C166 C 0.62577 0.34952 -0.10373
 C167 C 0.62490 0.37661 -0.12903
 C168 C 0.59727 0.40387 -0.17836
 C169 C 0.62309 0.43090 -0.17933
 C170 C 0.65002 0.43023 -0.15538
 C171 C 0.65093 0.40353 -0.13000
 C172 C 0.67748 0.40332 -0.10560
 C173 C 0.67827 0.37656 -0.08006
 C174 C 0.65257 0.34956 -0.07962
 H175 H 0.55166 0.35014 -0.17097
 H176 H 0.60039 0.30204 -0.08345
 H177 H 0.57693 0.40347 -0.19742
 H178 H 0.67009 0.45086 -0.15627
 H179 H 0.69771 0.42370 -0.10691
 H180 H 0.65327 0.32875 -0.06015
 C181 C -0.01152 0.26087 0.09827
 C182 C 0.00953 0.25424 0.12469
 C183 C 0.03524 0.22664 0.12041
 C184 C 0.05092 0.21459 0.14873
 H185 H 0.00750 0.26851 0.15002
 H186 H 0.04056 0.21534 0.09405
 H187 H -0.00980 0.24516 0.07373
 H188 H 0.04349 0.22433 0.17521
 C189 C 0.51365 0.74014 0.62704
 C190 C 0.49080 0.74391 0.65422
 C191 C 0.46489 0.77162 0.65573
 C192 C 0.45145 0.78496 0.62659
 H193 H 0.49207 0.72744 0.67739
 H194 H 0.45524 0.77958 0.68200
 H195 H 0.51417 0.75829 0.60502
 H196 H 0.45850 0.77416 0.60046
 C197 C 1.00911 0.76585 0.38622
 C198 C 0.97823 0.77080 0.37269
 C199 C 0.95058 0.74313 0.37297
 C200 C 0.95644 0.70863 0.36741
 H201 H 0.97172 0.79659 0.36336
 H202 H 0.92442 0.75188 0.37554
 H203 H 1.01409 0.74072 0.39820
 H204 H 0.98227 0.70034 0.36085
 C205 C 0.48305 0.24610 -0.12427
 C206 C 0.50372 0.25210 -0.15291
 C207 C 0.53004 0.28118 -0.15439
 C208 C 0.54642 0.29381 -0.12560
 H209 H 0.50020 0.23645 -0.17715
 H210 H 0.53754 0.29078 -0.18060
 H211 H 0.48466 0.26342 -0.10092
 H212 H 0.54145 0.28150 -0.10003
 C213 C 0.12483 -0.00409 0.27664
 C214 C 0.15295 0.01469 0.26588
 C215 C 0.15338 0.04029 0.23654
 C216 C 0.12563 0.05749 0.22706
 H217 H 0.17735 0.01006 0.27763
 H218 H 0.17812 0.04642 0.22383
 H219 H 0.10081 -0.00137 0.26341
 H220 H 0.10174 0.05399 0.24233
 C221 C 0.62033 0.50674 -0.26902
 C222 C 0.59475 0.50102 -0.24478
 C223 C 0.59463 0.47206 -0.21884
 C224 C 0.62336 0.45947 -0.20582
 H225 H 0.57204 0.51672 -0.24471
 H226 H 0.56979 0.46250 -0.20865
 H227 H 0.64181 0.48924 -0.27037
 H228 H 0.64801 0.47179 -0.21320
 C229 C 0.37049 1.00763 0.76234
 C230 C 0.34405 0.98484 0.75649
 C231 C 0.34420 0.95791 0.72726
 C232 C 0.37284 0.94279 0.71446
 H233 H 0.32042 0.98712 0.77220
 H234 H 0.31946 0.94899 0.71753
 H235 H 0.39319 1.00723 0.74493
 H236 H 0.39707 0.94903 0.72690
 C237 C 0.87693 0.48253 0.23425
 C238 C 0.85151 0.50504 0.24077
 C239 C 0.85106 0.53129 0.27057
 C240 C 0.87942 0.54544 0.28534
 H241 H 0.82895 0.50339 0.22465
 H242 H 0.82615 0.54107 0.27869
 H243 H 0.89847 0.48223 0.25175
 H244 H 0.90448 0.53844 0.27465
 C245 C 0.25922 0.12560 0.00409
 C246 C 0.23731 0.09829 0.01105
 C247 C 0.21178 0.09863 0.04107
 C248 C 0.19750 0.12832 0.05395
 H249 H 0.23925 0.07380 -0.00434
 H250 H 0.20332 0.07314 0.05144
 H251 H 0.25909 0.14916 0.02111
 H252 H 0.20338 0.15326 0.04092
 C253 C 0.74383 0.63210 0.50666
 C254 C 0.75030 0.65939 0.48488
 C255 C 0.77884 0.66015 0.45794
 C256 C 0.79101 0.63081 0.44192
 H257 H 0.73550 0.68306 0.48796
 H258 H 0.78867 0.68603 0.44987
 H259 H 0.76019 0.60945 0.50545
 H260 H 0.77856 0.60532 0.44740
 C261 C 0.76971 0.37778 -0.01055
 C262 C 0.74848 0.40461 -0.01391
 C263 C 0.72186 0.40503 -0.04105
 C264 C 0.70603 0.37560 -0.05404
 H265 H 0.75151 0.42827 0.00270
 H266 H 0.71346 0.43083 -0.04849
 H267 H 0.76857 0.35520 -0.02886
 H268 H 0.71193 0.35002 -0.04365
 C269 C 0.24320 0.86772 0.49628
 C270 C 0.26447 0.89521 0.50428
 C271 C 0.28921 0.89494 0.53333
 C272 C 0.30293 0.86538 0.54502
 H273 H 0.26240 0.92004 0.49072
 H274 H 0.29755 0.92055 0.54409
 H275 H 0.24340 0.84366 0.51146
 H276 H 0.29734 0.84019 0.53169
   
