data_POSCAR
  _audit_creation_date              2014-09-24
  _audit_creation_method            'ToBaCCo'
  _symmetry_space_group_name_H-M    'P1'
  _symmetry_Int_Tables_number       1
  _symmetry_cell_setting            triclinic
  loop_
  _symmetry_equiv_pos_as_xyz
 x,y,z
_cell_length_a 18.6087
_cell_length_b 16.4825
_cell_length_c 10.3180
_cell_angle_alpha 89.852500
_cell_angle_beta 90.212400
_cell_angle_gamma 90.003700
loop_
  _atom_site_label
  _atom_site_type_symbol
  _atom_site_fract_x
  _atom_site_fract_y
  _atom_site_fract_z
C1 C 0.36103 0.32214 0.44421
 C2 C 0.38535 0.24824 0.49484
 C3 C 0.36328 0.17403 0.44166
 C4 C 0.30619 0.17341 0.35013
 C5 C 0.27600 0.24793 0.30717
 C6 C 0.30433 0.32258 0.35276
 C7 C 0.27473 0.39573 0.30705
 C8 C 0.21935 0.39577 0.21619
 C9 C 0.19062 0.32265 0.16921
 C10 C 0.21879 0.24789 0.21553
 C11 C 0.27629 0.10029 0.30511
 C12 C 0.21951 0.10017 0.21712
 C13 C 0.18940 0.17319 0.17152
 C14 C 0.13357 0.17372 0.07744
 C15 C 0.11173 0.24829 0.02406
 C16 C 0.13552 0.32228 0.07482
 H17 H 0.29364 0.45377 0.34217
 H18 H 0.20005 0.45388 0.18160
 H19 H 0.29551 0.04210 0.33940
 H20 H 0.20091 0.04190 0.18269
 H21 H 0.43029 0.24912 0.56217
 H22 H 0.06804 0.24933 -0.04587
 C23 C 0.63499 0.17672 0.42434
 C24 C 0.60933 0.25029 0.47197
 C25 C 0.63483 0.32441 0.42561
 C26 C 0.69284 0.32568 0.33759
 C27 C 0.72246 0.25134 0.29368
 C28 C 0.69282 0.17643 0.33611
 C29 C 0.72204 0.10348 0.29021
 C30 C 0.77877 0.10390 0.20278
 C31 C 0.80862 0.17727 0.15865
 C32 C 0.78028 0.25185 0.20420
 C33 C 0.72199 0.39903 0.29269
 C34 C 0.77895 0.39963 0.20564
 C35 C 0.80999 0.32682 0.16149
 C36 C 0.86705 0.32658 0.07020
 C37 C 0.88959 0.25200 0.01835
 C38 C 0.86505 0.17794 0.06771
 H39 H 0.70157 0.04534 0.32222
 H40 H 0.79807 0.04598 0.16804
 H41 H 0.70118 0.45685 0.32496
 H42 H 0.79668 0.45810 0.17053
 H43 H 0.56315 0.24987 0.53592
 H44 H 0.93426 0.25083 -0.04891
 C45 C 0.63717 0.67591 0.55974
 C46 C 0.61135 0.75001 0.51300
 C47 C 0.63712 0.82377 0.56048
 C48 C 0.69571 0.82411 0.64813
 C49 C 0.72569 0.74930 0.69045
 C50 C 0.69631 0.67488 0.64610
 C51 C 0.72669 0.60158 0.68914
 C52 C 0.78378 0.60111 0.77671
 C53 C 0.81303 0.67403 0.82426
 C54 C 0.78314 0.74889 0.78143
 C55 C 0.72510 0.89710 0.69425
 C56 C 0.78127 0.89677 0.78363
 C57 C 0.81065 0.82343 0.82916
 C58 C 0.86568 0.82265 0.92369
 C59 C 0.88952 0.74853 0.97413
 C60 C 0.86808 0.67428 0.91984
 H61 H 0.70670 0.54374 0.65504
 H62 H 0.80296 0.54271 0.81003
 H63 H 0.70501 0.95527 0.66137
 H64 H 0.80032 0.95468 0.81907
 H65 H 0.56456 0.75024 0.45002
 H66 H 0.93315 0.74931 1.04428
 C67 C 0.36394 0.82438 0.57368
 C68 C 0.38942 0.75041 0.52691
 C69 C 0.36356 0.67653 0.57367
 C70 C 0.30540 0.67592 0.66127
 C71 C 0.27573 0.75057 0.70402
 C72 C 0.30552 0.82517 0.66075
 C73 C 0.27612 0.89830 0.70525
 C74 C 0.21956 0.89845 0.79297
 C75 C 0.18927 0.82540 0.83831
 C76 C 0.21805 0.75062 0.79397
 C77 C 0.27623 0.60284 0.70700
 C78 C 0.21994 0.60279 0.79520
 C79 C 0.18949 0.67587 0.83946
 C80 C 0.13465 0.67621 0.93459
 C81 C 0.11384 0.75065 0.98923
 C82 C 0.13447 0.82508 0.93356
 H83 H 0.29665 0.95629 0.67270
 H84 H 0.20182 0.95675 0.82844
 H85 H 0.29683 0.54482 0.67521
 H86 H 0.20250 0.54452 0.83179
 H87 H 0.43557 0.75028 0.46302
 H88 H 0.07127 0.75061 1.06087
 O89 O 1.06418 -0.09953 0.07349
 O90 O 0.93288 0.06275 0.13323
 O91 O 0.92832 -0.09233 0.07169
 O92 O 1.07355 0.05533 0.13528
 O93 O 1.06556 0.09857 -0.06657
 O94 O 0.93464 -0.06231 -0.13671
 O95 O 0.92991 0.09241 -0.07559
 O96 O 1.07506 -0.05663 -0.12791
 Cu97 Cu 0.99952 -0.02100 0.12467
 Cu98 Cu 1.00165 0.02059 -0.12292
 C99 C 1.09165 -0.10662 -0.03837
 C100 C 0.90945 0.10566 0.03968
 C101 C 0.90961 -0.10523 -0.04494
 C102 C 1.09140 0.10539 0.04694
 O103 O 0.56609 0.59296 0.42239
 O104 O 0.42724 0.43720 0.37403
 O105 O 0.42806 0.59254 0.42898
 O106 O 0.56624 0.43914 0.36275
 O107 O 0.56943 0.40710 0.57081
 O108 O 0.43173 0.56131 0.63730
 O109 O 0.43140 0.40600 0.58223
 O110 O 0.57101 0.56112 0.63039
 Cu111 Cu 0.49630 0.51840 0.37602
 Cu112 Cu 0.50130 0.48093 0.62624
 C113 C 0.59119 0.60457 0.53543
 C114 C 0.40687 0.39379 0.46900
 C115 C 0.40785 0.60461 0.54469
 C116 C 0.59012 0.39576 0.45511
 O117 O -0.06685 0.59786 0.06665
 O118 O 0.06710 0.43865 0.13299
 O119 O 0.06366 0.60047 0.07401
 O120 O -0.07754 0.44800 0.12812
 O121 O -0.05887 0.39940 -0.06740
 O122 O 0.07573 0.55806 -0.12708
 O123 O 0.07330 0.40694 -0.07446
 O124 O -0.06938 0.55782 -0.13702
 Cu125 Cu -0.00150 0.52141 0.12234
 Cu126 Cu 0.00326 0.47990 -0.12320
 C127 C -0.08999 0.60607 -0.04853
 C128 C 0.09199 0.39475 0.04229
 C129 C 0.09175 0.60788 -0.03743
 C130 C -0.09027 0.39503 0.04160
 O131 O 0.43564 1.09734 0.57724
 O132 O 0.57046 0.93799 0.63047
 O133 O 0.57228 1.09169 0.57006
 O134 O 0.43100 0.94106 0.63532
 O135 O 0.43005 0.90643 0.42857
 O136 O 0.56512 1.06312 0.36122
 O137 O 0.56760 0.90825 0.42187
 O138 O 0.42471 1.05991 0.37306
 Cu139 Cu 0.50252 1.01980 0.62447
 Cu140 Cu 0.49670 0.98178 0.37499
 C141 C 0.40756 1.10661 0.46580
 C142 C 0.59149 0.89542 0.53557
 C143 C 0.59082 1.10488 0.45367
 C144 C 0.40839 0.89614 0.54385
   
