data_POSCAR
  _audit_creation_date              2014-09-24
  _audit_creation_method            'ToBaCCo'
  _symmetry_space_group_name_H-M    'P1'
  _symmetry_Int_Tables_number       1
  _symmetry_cell_setting            triclinic
  loop_
  _symmetry_equiv_pos_as_xyz
 x,y,z
_cell_length_a 32.9020
_cell_length_b 31.4117
_cell_length_c 16.1908
_cell_angle_alpha 90.952000
_cell_angle_beta 89.668200
_cell_angle_gamma 116.992400
loop_
  _atom_site_label
  _atom_site_type_symbol
  _atom_site_fract_x
  _atom_site_fract_y
  _atom_site_fract_z
C1 C 0.39506 0.86451 0.48371
 C2 C 0.40262 0.86745 0.56745
 C3 C 0.44663 0.90353 0.58082
 N4 N 0.46502 0.92425 0.50818
 C5 C 0.43364 0.90035 0.44914
 C6 C 0.47055 0.91735 0.65735
 C7 C 0.50820 0.96330 0.66634
 C8 C 0.54202 0.97644 0.72606
 C9 C 0.56771 1.02511 0.72182
 C10 C 0.54924 1.04063 0.65906
 N11 N 0.51347 1.00246 0.62467
 C12 C 0.56002 1.08887 0.64331
 C13 C 0.55242 1.10286 0.56405
 C14 C 0.56523 1.14939 0.53918
 C15 C 0.55583 1.14719 0.45651
 C16 C 0.53888 1.09971 0.43242
 N17 N 0.53719 1.07285 0.49789
 C18 C 0.52836 1.08246 0.35020
 C19 C 0.50783 1.03341 0.32840
 C20 C 0.50597 1.01567 0.24876
 C21 C 0.48173 0.96675 0.25266
 C22 C 0.46911 0.95597 0.33452
 N23 N 0.48524 0.99680 0.38030
 C24 C 0.44023 0.90990 0.36402
 H25 H 0.36403 0.84022 0.45214
 H26 H 0.37757 0.84645 0.61277
 H27 H 0.47698 0.99965 0.44155
 H28 H 0.54712 0.95354 0.76963
 H29 H 0.59613 1.04630 0.76199
 H30 H 0.58183 1.18225 0.57471
 H31 H 0.56221 1.17748 0.41823
 H32 H 0.47381 0.94210 0.20077
 H33 H 0.48959 1.00385 0.58423
 H34 H 0.52048 1.03589 0.19346
 C35 C -0.13733 0.40168 0.45439
 C36 C -0.13435 0.39603 0.53730
 C37 C -0.09197 0.43080 0.56295
 N38 N -0.06834 0.45628 0.49704
 C39 C -0.09565 0.43813 0.42979
 C40 C -0.07627 0.43960 0.64626
 C41 C -0.03003 0.46965 0.66742
 C42 C -0.01506 0.48898 0.74583
 C43 C 0.03143 0.51493 0.74200
 C44 C 0.04391 0.51130 0.66128
 N45 N 0.00625 0.48341 0.61616
 C46 C 0.08948 0.53094 0.63317
 C47 C 0.10111 0.53516 0.54880
 C48 C 0.14446 0.54852 0.51755
 C49 C 0.14167 0.55276 0.43392
 C50 C 0.09701 0.54310 0.41717
 N51 N 0.07231 0.53221 0.48742
 C52 C 0.08040 0.54797 0.33953
 C53 C 0.03376 0.53363 0.32400
 C54 C 0.01737 0.54714 0.25601
 C55 C -0.02937 0.52270 0.25930
 C56 C -0.04059 0.49461 0.32955
 N57 N -0.00162 0.50192 0.36873
 C58 C -0.08474 0.45790 0.34903
 H59 H -0.16785 0.38157 0.41848
 H60 H -0.16096 0.36934 0.57411
 H61 H 0.00094 0.48127 0.41603
 H62 H -0.03549 0.48524 0.80040
 H63 H 0.05344 0.53406 0.79330
 H64 H 0.17516 0.55518 0.55100
 H65 H 0.16969 0.56276 0.39093
 H66 H -0.05190 0.52480 0.21305
 H67 H 0.00573 0.47059 0.55634
 H68 H 0.03707 0.57139 0.20794
 C69 C 0.54672 0.40766 0.55998
 C70 C 0.55113 0.40755 0.47550
 C71 C 0.55053 0.44879 0.44816
 N72 N 0.54699 0.47452 0.51315
 C73 C 0.54545 0.44995 0.58187
 C74 C 0.55724 0.46473 0.36579
 C75 C 0.54825 0.50241 0.33996
 C76 C 0.56215 0.52602 0.26559
 C77 C 0.54200 0.55588 0.26008
 C78 C 0.51621 0.54962 0.33108
 N79 N 0.52028 0.51698 0.37936
 C80 C 0.48595 0.56962 0.34528
 C81 C 0.46508 0.56816 0.42268
 C82 C 0.43132 0.58227 0.43710
 C83 C 0.42122 0.57626 0.51932
 C84 C 0.45033 0.56038 0.55378
 N85 N 0.47709 0.55548 0.49446
 C86 C 0.45392 0.55322 0.63895
 C87 C 0.48558 0.53786 0.66778
 C88 C 0.50885 0.55232 0.74214
 C89 C 0.53515 0.52898 0.74839
 C90 C 0.52720 0.50055 0.67768
 N91 N 0.49758 0.50708 0.62781
 C92 C 0.54471 0.46727 0.66321
 H93 H 0.54395 0.37926 0.60005
 H94 H 0.55397 0.37996 0.43878
 H95 H 0.48262 0.48791 0.57382
 H96 H 0.58346 0.52127 0.21888
 H97 H 0.54486 0.57841 0.20830
 H98 H 0.41535 0.59587 0.39386
 H99 H 0.39555 0.58353 0.54930
 H100 H 0.55786 0.53308 0.79930
 H101 H 0.50049 0.50078 0.43070
 H102 H 0.50762 0.57776 0.78673
 O103 O 0.39138 0.66762 -0.08793
 O104 O 0.38794 0.74799 -0.06031
 C105 C 0.35955 0.75038 -0.11086
 O106 O 0.31688 0.72873 -0.09990
 O107 O 0.24104 0.65217 -0.07627
 C108 C 0.23792 0.61628 -0.11816
 O109 O 0.26156 0.59487 -0.10284
 O110 O 0.33812 0.59272 -0.06710
 C111 C 0.37355 0.62323 -0.10369
 O112 O 0.38919 0.65099 0.07467
 O113 O 0.38076 0.72913 0.10360
 C114 C 0.35824 0.75257 0.11347
 O115 O 0.32598 0.74785 0.06526
 O116 O 0.25217 0.66701 0.08777
 C117 C 0.23178 0.62229 0.09981
 O118 O 0.24065 0.59240 0.05924
 O119 O 0.31850 0.59342 0.09439
 C120 C 0.36067 0.61355 0.11087
 Cr121 Cr 0.38498 0.69780 0.00747
 Cr122 Cr 0.28539 0.69793 -0.00547
 Cr123 Cr 0.29074 0.59581 -0.00394
 O124 O 0.32029 0.66366 -0.00013
 O125 O 0.60616 0.32472 -0.08846
 O126 O 0.61369 0.24781 -0.06192
 C127 C 0.64261 0.24345 -0.10904
 O128 O 0.68523 0.26781 -0.09953
 O129 O 0.75792 0.34981 -0.08185
 C130 C 0.75747 0.38414 -0.12193
 O131 O 0.73314 0.40426 -0.10163
 O132 O 0.65486 0.40115 -0.06457
 C133 C 0.62330 0.36837 -0.10681
 O134 O 0.60681 0.34224 0.07706
 O135 O 0.61978 0.26657 0.10087
 C136 C 0.64559 0.24684 0.11091
 O137 O 0.68033 0.25545 0.06609
 O138 O 0.75080 0.33874 0.08345
 C139 C 0.76799 0.38324 0.09835
 O140 O 0.75588 0.41085 0.06051
 O141 O 0.67572 0.40332 0.09758
 C142 C 0.63407 0.37984 0.11640
 Cr143 Cr 0.61396 0.29690 0.00689
 Cr144 Cr 0.71712 0.30406 -0.00764
 Cr145 Cr 0.70398 0.40236 -0.00186
 O146 O 0.67847 0.33441 -0.00002
 C147 C 0.45763 0.88788 -0.27189
 C148 C 0.43219 0.84039 -0.27177
 C149 C 0.41806 0.81450 -0.19352
 C150 C 0.37605 0.77873 -0.18613
 H151 H 0.42138 0.81957 -0.32832
 H152 H 0.44112 0.82613 -0.14109
 H153 H 0.46977 0.90492 -0.21209
 H154 H 0.35233 0.77015 -0.23728
 C155 C 0.12634 0.55358 -0.30476
 C156 C 0.15592 0.53638 -0.28827
 C157 C 0.19196 0.55659 -0.22417
 C158 C 0.20423 0.59880 -0.18556
 H159 H 0.15276 0.50479 -0.32151
 H160 H 0.20884 0.53519 -0.20825
 H161 H 0.12637 0.58296 -0.26918
 H162 H 0.18859 0.62129 -0.20129
 C163 C 0.42881 0.56659 -0.30406
 C164 C 0.41519 0.54653 -0.22982
 C165 C 0.38961 0.56175 -0.17129
 C166 C 0.39626 0.60703 -0.16587
 H167 H 0.42046 0.51623 -0.21264
 H168 H 0.36734 0.53568 -0.12773
 H169 H 0.41718 0.59210 -0.32256
 H170 H 0.42161 0.63407 -0.20434
 C171 C 0.57910 0.12279 -0.29164
 C172 C 0.56507 0.15590 -0.27403
 C173 C 0.58272 0.18972 -0.20374
 C174 C 0.62594 0.20804 -0.17708
 H175 H 0.53663 0.15581 -0.30754
 H176 H 0.55979 0.20225 -0.17685
 H177 H 0.60094 0.11823 -0.24677
 H178 H 0.65009 0.19865 -0.20811
 C179 C 0.89331 0.41831 -0.28737
 C180 C 0.85104 0.41425 -0.28348
 C181 C 0.82229 0.39404 -0.21029
 C182 C 0.78652 0.40226 -0.19528
 H183 H 0.83850 0.42869 -0.33186
 H184 H 0.83131 0.37366 -0.16714
 H185 H 0.90646 0.40963 -0.23225
 H186 H 0.77922 0.42472 -0.23670
 C187 C 0.56102 0.45271 -0.26695
 C188 C 0.59044 0.43410 -0.26820
 C189 C 0.60609 0.42286 -0.19044
 C190 C 0.60613 0.38080 -0.18152
 H191 H 0.60501 0.42856 -0.32480
 H192 H 0.61597 0.44842 -0.13947
 H193 H 0.55050 0.45879 -0.20616
 H194 H 0.59245 0.35407 -0.23054
 C195 C 0.88174 0.44230 0.28583
 C196 C 0.85539 0.39598 0.26720
 C197 C 0.82067 0.37808 0.20070
 C198 C 0.80390 0.40428 0.16207
 H199 H 0.86099 0.36901 0.29896
 H200 H 0.80729 0.34044 0.18523
 H201 H 0.88104 0.46839 0.24421
 H202 H 0.81582 0.44164 0.17770
 C203 C 0.53938 0.11734 0.28278
 C204 C 0.58221 0.14967 0.26750
 C205 C 0.59227 0.18543 0.20293
 C206 C 0.63489 0.21157 0.17650
 H207 H 0.60997 0.14989 0.30361
 H208 H 0.56439 0.18980 0.17564
 H209 H 0.51179 0.11509 0.24375
 H210 H 0.66228 0.20510 0.20038
 C211 C 0.57821 0.44456 0.30539
 C212 C 0.55535 0.40019 0.27372
 C213 C 0.57324 0.37994 0.20759
 C214 C 0.61729 0.39873 0.18555
 H215 H 0.52072 0.37818 0.29413
 H216 H 0.54863 0.34796 0.17616
 H217 H 0.61141 0.46882 0.28195
 H218 H 0.64257 0.42966 0.21813
 C219 C 0.11296 0.56844 0.27031
 C220 C 0.14910 0.61163 0.27590
 C221 C 0.18426 0.63103 0.21105
 C222 C 0.19535 0.60309 0.16204
 H223 H 0.15318 0.63386 0.33019
 H224 H 0.20362 0.66952 0.20795
 H225 H 0.10590 0.54779 0.21330
 H226 H 0.17797 0.56466 0.16874
 C227 C 0.41584 0.87086 0.30251
 C228 C 0.41634 0.82852 0.30749
 C229 C 0.40025 0.79159 0.24100
 C230 C 0.37071 0.78824 0.18142
 H231 H 0.43345 0.82219 0.35935
 H232 H 0.41360 0.76580 0.24213
 H233 H 0.40247 0.87945 0.24784
 H234 H 0.35489 0.81184 0.18211
 C235 C 0.47567 0.59334 0.27553
 C236 C 0.43324 0.57669 0.24641
 C237 C 0.42059 0.60313 0.18610
 C238 C 0.37655 0.59063 0.17252
 H239 H 0.40657 0.54428 0.27207
 H240 H 0.44702 0.63294 0.15398
 H241 H 0.50303 0.62505 0.24958
 H242 H 0.35073 0.56076 0.20560
   
