data_POSCAR
  _audit_creation_date              2014-09-24
  _audit_creation_method            'ToBaCCo'
  _symmetry_space_group_name_H-M    'P1'
  _symmetry_Int_Tables_number       1
  _symmetry_cell_setting            triclinic
  loop_
  _symmetry_equiv_pos_as_xyz
 x,y,z
_cell_length_a 27.4143
_cell_length_b 27.4138
_cell_length_c 27.3889
_cell_angle_alpha 89.944000
_cell_angle_beta 90.165600
_cell_angle_gamma 89.999700
loop_
  _atom_site_label
  _atom_site_type_symbol
  _atom_site_fract_x
  _atom_site_fract_y
  _atom_site_fract_z
O1 O -0.12617 0.06584 0.00113
 O2 O 0.12494 0.06589 -0.00205
 O3 O -0.00225 0.12542 0.06550
 O4 O 0.00093 0.12561 -0.06668
 O5 O 0.00084 0.06611 -0.12626
 O6 O -0.00218 0.06579 0.12517
 O7 O 0.06541 0.12551 -0.00216
 O8 O -0.06659 0.12543 0.00118
 Zr9 Zr -0.00061 0.08580 -0.00056
 O10 O 0.04358 0.04425 -0.04479
 O11 O -0.04476 0.04407 0.04368
 C12 C -0.11153 0.11078 0.00204
 C13 C 0.11037 0.11088 -0.00292
 C14 C -0.00306 0.11077 0.11051
 C15 C 0.00169 0.11112 -0.11174
 H16 H 0.06432 0.06472 0.06451
 O17 O 0.04345 0.04392 0.04366
 H18 H -0.06564 0.06485 -0.06554
 O19 O -0.04480 0.04401 -0.04466
 O20 O 0.12481 -0.06607 0.00145
 O21 O -0.12633 -0.06617 -0.00225
 O22 O 0.06552 -0.00200 0.12524
 O23 O 0.06519 0.00163 -0.12613
 O24 O -0.06681 -0.00171 -0.12622
 O25 O -0.06645 0.00165 0.12511
 O26 O 0.00101 -0.12582 0.06586
 O27 O -0.00264 -0.12556 -0.06632
 O28 O 0.00115 -0.06627 0.12540
 O29 O -0.00264 -0.06595 -0.12601
 O30 O 0.12496 -0.00189 0.06564
 O31 O -0.12611 0.00167 0.06539
 O32 O -0.12628 -0.00185 -0.06669
 O33 O 0.12483 0.00155 -0.06641
 O34 O 0.06522 -0.12566 0.00154
 O35 O -0.06682 -0.12575 -0.00206
 Zr36 Zr 0.08517 -0.00009 -0.00041
 Zr37 Zr -0.08652 -0.00015 -0.00058
 Zr38 Zr -0.00054 -0.00021 0.08550
 Zr39 Zr -0.00077 0.00003 -0.08642
 Zr40 Zr -0.00077 -0.08600 -0.00029
 O41 O -0.04495 -0.04430 -0.04476
 O42 O 0.04363 -0.04439 0.04391
 C43 C 0.11017 -0.11101 0.00240
 C44 C -0.11183 -0.11120 -0.00298
 C45 C 0.11042 -0.00284 0.11061
 C46 C 0.11019 0.00241 -0.11145
 C47 C -0.11176 -0.00265 -0.11168
 C48 C -0.11141 0.00255 0.11040
 C49 C 0.00191 -0.11131 0.11092
 C50 C -0.00355 -0.11088 -0.11131
 H51 H -0.06554 -0.06505 0.06452
 O52 O -0.04474 -0.04424 0.04369
 H53 H 0.06403 -0.06495 -0.06524
 O54 O 0.04324 -0.04414 -0.04444
 O55 O 0.37456 0.56661 0.00199
 O56 O 0.62575 0.56670 -0.00111
 O57 O 0.49852 0.62621 0.06663
 O58 O 0.50188 0.62609 -0.06546
 O59 O 0.50171 0.56653 -0.12509
 O60 O 0.49857 0.56663 0.12624
 O61 O 0.56618 0.62627 -0.00111
 O62 O 0.43418 0.62616 0.00215
 Zr63 Zr 0.50015 0.58648 0.00056
 O64 O 0.54421 0.54484 -0.04373
 O65 O 0.45588 0.54484 0.04468
 C66 C 0.38922 0.61155 0.00292
 C67 C 0.61117 0.61169 -0.00196
 C68 C 0.49773 0.61165 0.11168
 C69 C 0.50271 0.61143 -0.11041
 H70 H 0.56514 0.56552 0.06557
 O71 O 0.54429 0.54470 0.04471
 H72 H 0.43514 0.56554 -0.06455
 O73 O 0.45599 0.54470 -0.04367
 O74 O 0.62558 0.43465 0.00242
 O75 O 0.37441 0.43461 -0.00142
 O76 O 0.56629 0.49883 0.12627
 O77 O 0.56583 0.50232 -0.12515
 O78 O 0.43377 0.49904 -0.12539
 O79 O 0.43423 0.50235 0.12604
 O80 O 0.50185 0.37509 0.06650
 O81 O 0.49825 0.37501 -0.06555
 O82 O 0.50199 0.43462 0.12614
 O83 O 0.49814 0.43458 -0.12523
 O84 O 0.62576 0.49885 0.06674
 O85 O 0.37457 0.50232 0.06630
 O86 O 0.37430 0.49906 -0.06588
 O87 O 0.62553 0.50241 -0.06545
 O88 O 0.56596 0.37510 0.00235
 O89 O 0.43399 0.37504 -0.00129
 Zr90 Zr 0.58596 0.50067 0.00060
 Zr91 Zr 0.41416 0.50061 0.00029
 Zr92 Zr 0.50020 0.50064 0.08644
 Zr93 Zr 0.49988 0.50057 -0.08548
 Zr94 Zr 0.49999 0.41478 0.00046
 O95 O 0.45564 0.45633 -0.04393
 O96 O 0.54432 0.45641 0.04479
 C97 C 0.61091 0.38971 0.00327
 C98 C 0.38902 0.38964 -0.00221
 C99 C 0.61126 0.49796 0.11175
 C100 C 0.61083 0.50322 -0.11048
 C101 C 0.38877 0.49826 -0.11092
 C102 C 0.38925 0.50319 0.11133
 C103 C 0.50282 0.38969 0.11148
 C104 C 0.49736 0.38960 -0.11058
 H105 H 0.43525 0.43575 0.06533
 O106 O 0.45605 0.45658 0.04452
 H107 H 0.56483 0.43576 -0.06435
 O108 O 0.54406 0.45658 -0.04354
 O109 O -0.12585 0.56625 0.50149
 O110 O 0.12531 0.56611 0.49847
 O111 O -0.00200 0.62561 0.56586
 O112 O 0.00133 0.62587 0.43369
 O113 O 0.00130 0.56631 0.37412
 O114 O -0.00186 0.56601 0.62556
 O115 O 0.06571 0.62569 0.49822
 O116 O -0.06632 0.62580 0.50146
 Zr117 Zr -0.00028 0.58604 0.49984
 O118 O 0.04399 0.54441 0.45577
 O119 O -0.04434 0.54434 0.54418
 C120 C -0.11132 0.61127 0.50230
 C121 C 0.11066 0.61105 0.49748
 C122 C -0.00283 0.61094 0.61084
 C123 C 0.00212 0.61132 0.38865
 H124 H 0.06469 0.56500 0.56499
 O125 O 0.04385 0.54418 0.54413
 H126 H -0.06524 0.56512 0.43484
 O127 O -0.04440 0.54428 0.45571
 O128 O 0.12543 0.43412 0.50199
 O129 O -0.12572 0.43421 0.49809
 O130 O 0.06606 0.49847 0.62594
 O131 O 0.06569 0.50201 0.37446
 O132 O -0.06639 0.49847 0.37418
 O133 O -0.06602 0.50178 0.62563
 O134 O 0.00152 0.37442 0.56622
 O135 O -0.00197 0.37463 0.43405
 O136 O 0.00162 0.43393 0.62585
 O137 O -0.00207 0.43423 0.37436
 O138 O 0.12555 0.49853 0.56640
 O139 O -0.12568 0.50192 0.56589
 O140 O -0.12588 0.49847 0.43373
 O141 O 0.12531 0.50190 0.43424
 O142 O 0.06586 0.37454 0.50190
 O143 O -0.06613 0.37464 0.49822
 Zr144 Zr 0.08568 0.50012 0.50022
 Zr145 Zr -0.08608 0.50021 0.49986
 Zr146 Zr -0.00005 0.50002 0.58601
 Zr147 Zr -0.00031 0.50025 0.41401
 Zr148 Zr -0.00015 0.41427 0.50011
 O149 O -0.04444 0.45598 0.45572
 O150 O 0.04419 0.45580 0.54450
 C151 C 0.11083 0.38914 0.50280
 C152 C -0.11108 0.38927 0.49726
 C153 C 0.11104 0.49771 0.61142
 C154 C 0.11066 0.50283 0.38920
 C155 C -0.11134 0.49761 0.38874
 C156 C -0.11101 0.50272 0.61093
 C157 C 0.00238 0.38894 0.61127
 C158 C -0.00290 0.38926 0.38904
 H159 H -0.06500 0.43524 0.56489
 O160 O -0.04421 0.45607 0.54407
 H161 H 0.06461 0.43533 0.43524
 O162 O 0.04380 0.45614 0.45602
 O163 O 0.37489 0.06540 0.50155
 O164 O 0.62603 0.06540 0.49839
 O165 O 0.49886 0.12504 0.56605
 O166 O 0.50212 0.12497 0.43398
 O167 O 0.50206 0.06543 0.37436
 O168 O 0.49895 0.06544 0.62570
 O169 O 0.56642 0.12496 0.49830
 O170 O 0.43444 0.12501 0.50160
 Zr171 Zr 0.50045 0.08529 0.50002
 O172 O 0.54464 0.04365 0.45583
 O173 O 0.45626 0.04371 0.54427
 C174 C 0.38947 0.11038 0.50241
 C175 C 0.61137 0.11034 0.49747
 C176 C 0.49806 0.11043 0.61107
 C177 C 0.50295 0.11036 0.38901
 H178 H 0.56548 0.06432 0.56502
 O179 O 0.54465 0.04349 0.54415
 H180 H 0.43551 0.06432 0.43498
 O181 O 0.45638 0.04349 0.45584
 O182 O 0.62622 -0.06662 0.50187
 O183 O 0.37505 -0.06657 0.49816
 O184 O 0.56664 -0.00227 0.62577
 O185 O 0.56630 0.00132 0.37443
 O186 O 0.43437 -0.00231 0.37430
 O187 O 0.43466 0.00105 0.62565
 O188 O 0.50254 -0.12606 0.56595
 O189 O 0.49882 -0.12618 0.43384
 O190 O 0.50252 -0.06649 0.62557
 O191 O 0.49869 -0.06655 0.37423
 O192 O 0.62615 -0.00235 0.56624
 O193 O 0.37501 0.00102 0.56594
 O194 O 0.37489 -0.00231 0.43387
 O195 O 0.62598 0.00130 0.43414
 O196 O 0.56668 -0.12622 0.50173
 O197 O 0.43466 -0.12614 0.49816
 Zr198 Zr 0.58641 -0.00061 0.50012
 Zr199 Zr 0.41467 -0.00058 0.49994
 Zr200 Zr 0.50062 -0.00053 0.58593
 Zr201 Zr 0.50040 -0.00058 0.41407
 Zr202 Zr 0.50064 -0.08645 0.49992
 O203 O 0.45623 -0.04481 0.45568
 O204 O 0.54482 -0.04481 0.54434
 C205 C 0.61167 -0.11163 0.50266
 C206 C 0.38971 -0.11151 0.49729
 C207 C 0.61157 -0.00317 0.61121
 C208 C 0.61127 0.00223 0.38913
 C209 C 0.38946 -0.00318 0.38891
 C210 C 0.38966 0.00186 0.61097
 C211 C 0.50345 -0.11139 0.61089
 C212 C 0.49789 -0.11155 0.38881
 H213 H 0.43582 -0.06549 0.56484
 O214 O 0.45661 -0.04467 0.54401
 H215 H 0.56542 -0.06544 0.43508
 O216 O 0.54462 -0.04465 0.45590
 C217 C 0.21631 0.21677 -0.00455
 C218 C 0.19707 0.26771 -0.01777
 C219 C 0.23221 0.30288 -0.01767
 C220 C 0.28315 0.28368 -0.00436
 C221 C 0.29290 0.24227 -0.04075
 C222 C 0.25776 0.20709 -0.04085
 C223 C 0.24165 0.22312 0.04509
 C224 C 0.27678 0.25828 0.04519
 C225 C 0.17847 0.17892 -0.00445
 C226 C 0.14737 0.14784 -0.00396
 C227 C 0.32097 0.32154 -0.00405
 C228 C 0.35205 0.35265 -0.00340
 H229 H 0.15919 0.27546 -0.02649
 H230 H 0.22443 0.34076 -0.02630
 H231 H 0.32460 0.24073 -0.06438
 H232 H 0.25935 0.17542 -0.06456
 H233 H 0.23280 0.20186 0.07733
 H234 H 0.29800 0.26713 0.07752
 C235 C 0.21666 -0.28350 0.49543
 C236 C 0.19887 -0.23383 0.47656
 C237 C 0.23418 -0.19884 0.47653
 C238 C 0.28375 -0.21701 0.49536
 C239 C 0.29603 -0.26128 0.46339
 C240 C 0.26073 -0.29627 0.46343
 C241 C 0.23807 -0.27314 0.54621
 C242 C 0.27335 -0.23817 0.54617
 C243 C 0.17873 -0.32111 0.49568
 C244 C 0.14759 -0.35207 0.49631
 C245 C 0.32167 -0.17939 0.49554
 C246 C 0.35279 -0.14841 0.49612
 H247 H 0.16185 -0.22677 0.46428
 H248 H 0.22741 -0.16179 0.46421
 H249 H 0.32947 -0.26481 0.44255
 H250 H 0.26390 -0.32980 0.44262
 H251 H 0.22654 -0.29165 0.57928
 H252 H 0.29206 -0.22671 0.57921
 C253 C 0.78411 0.78473 -0.00446
 C254 C 0.73432 0.80261 -0.02304
 C255 C 0.69917 0.76743 -0.02288
 C256 C 0.71721 0.71777 -0.00417
 C257 C 0.73885 0.72823 0.04651
 C258 C 0.77399 0.76339 0.04636
 C259 C 0.79639 0.74051 -0.03652
 C260 C 0.76124 0.70532 -0.03637
 C261 C 0.82200 0.82265 -0.00441
 C262 C 0.85312 0.85378 -0.00394
 C263 C 0.67932 0.67986 -0.00381
 C264 C 0.64820 0.64873 -0.00314
 H265 H 0.72731 0.83964 -0.03529
 H266 H 0.66206 0.77434 -0.03500
 H267 H 0.72757 0.70963 0.07963
 H268 H 0.79278 0.77490 0.07934
 H269 H 0.82974 0.73715 -0.05754
 H270 H 0.76449 0.67184 -0.05725
 C271 C 0.78343 0.28331 0.49528
 C272 C 0.73256 0.30224 0.48138
 C273 C 0.69754 0.26697 0.48142
 C274 C 0.71688 0.21627 0.49536
 C275 C 0.74181 0.22322 0.54511
 C276 C 0.77681 0.25848 0.54507
 C277 C 0.79362 0.24155 0.45942
 C278 C 0.75859 0.20628 0.45946
 C279 C 0.82107 0.32121 0.49546
 C280 C 0.85205 0.35234 0.49606
 C281 C 0.67923 0.17838 0.49563
 C282 C 0.64824 0.14727 0.49627
 H283 H 0.72474 0.34000 0.47227
 H284 H 0.65970 0.27450 0.47235
 H285 H 0.73278 0.20229 0.57752
 H286 H 0.79778 0.26776 0.57744
 H287 H 0.82549 0.23986 0.43604
 H288 H 0.76044 0.17434 0.43613
 C289 C 0.78294 0.21669 0.00453
 C290 C 0.75687 0.22284 -0.04475
 C291 C 0.72187 0.25809 -0.04454
 C292 C 0.71638 0.28372 0.00493
 C293 C 0.76755 0.30287 0.01732
 C294 C 0.80257 0.26760 0.01711
 C295 C 0.74206 0.20727 0.04155
 C296 C 0.70704 0.24255 0.04176
 C297 C 0.82059 0.17880 0.00409
 C298 C 0.85158 0.14770 0.00333
 C299 C 0.67875 0.32163 0.00491
 C300 C 0.64778 0.35276 0.00441
 H301 H 0.76517 0.20139 -0.07698
 H302 H 0.70017 0.26685 -0.07660
 H303 H 0.77556 0.34077 0.02557
 H304 H 0.84060 0.27527 0.02518
 H305 H 0.74076 0.17571 0.06550
 H306 H 0.67571 0.24123 0.06589
 C307 C 0.78463 -0.28466 0.50426
 C308 C 0.76455 -0.27265 0.45327
 C309 C 0.72941 -0.23749 0.45335
 C310 C 0.71772 -0.21771 0.50441
 C311 C 0.76692 -0.20042 0.52501
 C312 C 0.80207 -0.23561 0.52493
 C313 C 0.73963 -0.29806 0.53472
 C314 C 0.70448 -0.26288 0.53480
 C315 C 0.82252 -0.32257 0.50397
 C316 C 0.85364 -0.35370 0.50335
 C317 C 0.67984 -0.17979 0.50429
 C318 C 0.64871 -0.14866 0.50376
 H319 H 0.77685 -0.29023 0.42000
 H320 H 0.71163 -0.22497 0.42015
 H321 H 0.77354 -0.16379 0.53852
 H322 H 0.83879 -0.22909 0.53837
 H323 H 0.73575 -0.33217 0.55452
 H324 H 0.67049 -0.26686 0.55467
 C325 C 0.21672 0.28319 0.50458
 C326 C 0.22694 0.26200 0.45377
 C327 C 0.26206 0.22684 0.45369
 C328 C 0.28355 0.21629 0.50443
 C329 C 0.23947 0.20374 0.53652
 C330 C 0.20432 0.23892 0.53660
 C331 C 0.26644 0.30106 0.52329
 C332 C 0.30158 0.26589 0.52321
 C333 C 0.17889 0.32106 0.50445
 C334 C 0.14781 0.35216 0.50391
 C335 C 0.32139 0.17844 0.50414
 C336 C 0.35248 0.14735 0.50353
 H337 H 0.20822 0.27359 0.42075
 H338 H 0.27343 0.20832 0.42060
 H339 H 0.23616 0.17021 0.55737
 H340 H 0.17091 0.23552 0.55752
 H341 H 0.27342 0.33806 0.53556
 H342 H 0.33866 0.27276 0.53541
 C343 C 0.21618 0.78354 0.00466
 C344 C 0.23603 0.77186 -0.04634
 C345 C 0.27132 0.73689 -0.04628
 C346 C 0.28327 0.71704 0.00478
 C347 C 0.23430 0.69938 0.02530
 C348 C 0.19900 0.73437 0.02523
 C349 C 0.26121 0.79711 0.03521
 C350 C 0.29651 0.76212 0.03527
 C351 C 0.17825 0.82115 0.00436
 C352 C 0.14711 0.85211 0.00367
 C353 C 0.32120 0.67942 0.00462
 C354 C 0.35232 0.64844 0.00405
 H355 H 0.22349 0.78951 -0.07959
 H356 H 0.28901 0.72457 -0.07947
 H357 H 0.22793 0.66266 0.03873
 H358 H 0.16237 0.72765 0.03862
 H359 H 0.26500 0.83116 0.05507
 H360 H 0.33057 0.76617 0.05518
 C361 C -0.00496 0.21657 0.21638
 C362 C 0.04563 0.22635 0.23844
 C363 C 0.04564 0.26149 0.27357
 C364 C -0.00494 0.28342 0.28321
 C365 C -0.03768 0.23963 0.29529
 C366 C -0.03769 0.20447 0.26014
 C367 C -0.02284 0.26643 0.19809
 C368 C -0.02283 0.30159 0.23324
 C369 C -0.00476 0.17876 0.17856
 C370 C -0.00418 0.14769 0.14748
 C371 C -0.00471 0.32124 0.32102
 C372 C -0.00409 0.35232 0.35209
 H373 H 0.07855 0.20735 0.22744
 H374 H 0.07857 0.27259 0.29266
 H375 H -0.05900 0.23653 0.32850
 H376 H -0.05902 0.17124 0.26323
 H377 H -0.03452 0.27349 0.16084
 H378 H -0.03450 0.33877 0.22610
 C379 C 0.49570 0.28350 0.78363
 C380 C 0.48103 0.30226 0.73284
 C381 C 0.48116 0.26703 0.69776
 C382 C 0.49593 0.21647 0.71690
 C383 C 0.46065 0.20597 0.75906
 C384 C 0.46053 0.24121 0.79415
 C385 C 0.54567 0.25933 0.77643
 C386 C 0.54579 0.22411 0.74137
 C387 C 0.49578 0.32144 0.82140
 C388 C 0.49628 0.35259 0.85245
 C389 C 0.49626 0.17854 0.67912
 C390 C 0.49691 0.14741 0.64806
 H391 H 0.47136 0.33990 0.72511
 H392 H 0.47159 0.27448 0.65999
 H393 H 0.43776 0.17372 0.76115
 H394 H 0.43753 0.23915 0.82629
 H395 H 0.57812 0.26902 0.79707
 H396 H 0.57834 0.20364 0.73198
 C397 C -0.00546 0.78344 0.78311
 C398 C -0.02353 0.80151 0.73317
 C399 C -0.02341 0.76634 0.69807
 C400 C -0.00523 0.71662 0.71641
 C401 C -0.03783 0.70433 0.76021
 C402 C -0.03795 0.73951 0.79532
 C403 C 0.04523 0.76181 0.77344
 C404 C 0.04535 0.72666 0.73835
 C405 C -0.00535 0.82121 0.82080
 C406 C -0.00476 0.85225 0.85182
 C407 C -0.00486 0.67885 0.67871
 C408 C -0.00413 0.64781 0.64770
 H409 H -0.03541 0.83862 0.72603
 H410 H -0.03518 0.77329 0.66083
 H411 H -0.05896 0.67099 0.76335
 H412 H -0.05920 0.73633 0.82856
 H413 H 0.07813 0.77311 0.79248
 H414 H 0.07836 0.70782 0.72731
 C415 C 0.49593 -0.28438 0.21576
 C416 C 0.47404 -0.30134 0.26444
 C417 C 0.47404 -0.26619 0.29962
 C418 C 0.49594 -0.21749 0.28270
 C419 C 0.46668 -0.20353 0.23688
 C420 C 0.46668 -0.23868 0.20170
 C421 C 0.54705 -0.26550 0.22878
 C422 C 0.54706 -0.23037 0.26394
 C423 C 0.49614 -0.32225 0.17785
 C424 C 0.49671 -0.35335 0.14672
 C425 C 0.49616 -0.17963 0.32061
 C426 C 0.49675 -0.14854 0.35175
 H427 H 0.45975 -0.33774 0.27071
 H428 H 0.45975 -0.27250 0.33601
 H429 H 0.44761 -0.16909 0.23248
 H430 H 0.44760 -0.23434 0.16718
 H431 H 0.58034 -0.27858 0.21186
 H432 H 0.58035 -0.21337 0.27713
 C433 C 0.00374 0.78449 0.21524
 C434 C 0.01619 0.80377 0.26639
 C435 C 0.01622 0.76859 0.30162
 C436 C 0.00380 0.71750 0.28231
 C437 C 0.04068 0.70821 0.24125
 C438 C 0.04064 0.74340 0.20602
 C439 C -0.04556 0.75858 0.22106
 C440 C -0.04553 0.72341 0.25627
 C441 C 0.00351 0.82245 0.17724
 C442 C 0.00294 0.85362 0.14605
 C443 C 0.00364 0.67955 0.32031
 C444 C 0.00314 0.64840 0.35152
 H445 H 0.02431 0.84173 0.27425
 H446 H 0.02437 0.77643 0.33962
 H447 H 0.06472 0.67677 0.23998
 H448 H 0.06466 0.74208 0.17460
 H449 H -0.07769 0.76711 0.19941
 H450 H -0.07763 0.70184 0.26475
 C451 C 0.50516 -0.28323 0.78376
 C452 C 0.53449 -0.29747 0.73830
 C453 C 0.53462 -0.26244 0.70300
 C454 C 0.50541 -0.21673 0.71674
 C455 C 0.52726 -0.19958 0.76544
 C456 C 0.52713 -0.23461 0.80074
 C457 C 0.45408 -0.27041 0.76465
 C458 C 0.45421 -0.23540 0.72937
 C459 C 0.50479 -0.32081 0.82162
 C460 C 0.50403 -0.35176 0.85272
 C461 C 0.50530 -0.17916 0.67888
 C462 C 0.50469 -0.14820 0.64778
 H463 H 0.55351 -0.33196 0.73423
 H464 H 0.55375 -0.26688 0.66863
 H465 H 0.54160 -0.16319 0.77163
 H466 H 0.54136 -0.22826 0.83722
 H467 H 0.42074 -0.28732 0.77767
 H468 H 0.42099 -0.22229 0.71213
 C469 C 0.50492 0.28358 0.21696
 C470 C 0.51497 0.30305 0.26853
 C471 C 0.51498 0.26770 0.30353
 C472 C 0.50493 0.21640 0.28347
 C473 C 0.54350 0.20850 0.24374
 C474 C 0.54350 0.24386 0.20873
 C475 C 0.45632 0.25608 0.22088
 C476 C 0.45633 0.22075 0.25586
 C477 C 0.50468 0.32155 0.17934
 C478 C 0.50405 0.35273 0.14837
 C479 C 0.50471 0.17844 0.32110
 C480 C 0.50411 0.14730 0.35210
 H481 H 0.52155 0.34121 0.27683
 H482 H 0.52156 0.27556 0.34183
 H483 H 0.56861 0.17788 0.24317
 H484 H 0.56860 0.24355 0.17814
 H485 H 0.42469 0.26368 0.19817
 H486 H 0.42470 0.19806 0.26314
 C487 C 0.00366 0.21542 0.78417
 C488 C 0.03750 0.20408 0.74107
 C489 C 0.03763 0.23937 0.70594
 C490 C 0.00390 0.28258 0.71732
 C491 C 0.02040 0.30084 0.76771
 C492 C 0.02027 0.26556 0.80283
 C493 C -0.04661 0.22445 0.76100
 C494 C -0.04648 0.25972 0.72590
 C495 C 0.00333 0.17740 0.82204
 C496 C 0.00271 0.14620 0.85318
 C497 C 0.00384 0.32062 0.67945
 C498 C 0.00338 0.35184 0.64833
 H499 H 0.05946 0.17123 0.73839
 H500 H 0.05970 0.23673 0.67320
 H501 H 0.03127 0.33819 0.77514
 H502 H 0.03103 0.27271 0.84032
 H503 H -0.07943 0.20485 0.77127
 H504 H -0.07920 0.27030 0.70612
 C505 C 0.21646 -0.00501 0.21634
 C506 C 0.19752 -0.01893 0.26716
 C507 C 0.23280 -0.01898 0.30230
 C508 C 0.28349 -0.00510 0.28311
 C509 C 0.27656 0.04465 0.25830
 C510 C 0.24130 0.04470 0.22317
 C511 C 0.25819 -0.04088 0.20614
 C512 C 0.29347 -0.04093 0.24128
 C513 C 0.17855 -0.00473 0.17859
 C514 C 0.14741 -0.00407 0.14754
 C515 C 0.32137 -0.00492 0.32088
 C516 C 0.35250 -0.00434 0.35196
 H517 H 0.15976 -0.02799 0.27486
 H518 H 0.22528 -0.02808 0.34013
 H519 H 0.29751 0.07699 0.26749
 H520 H 0.23203 0.07708 0.20226
 H521 H 0.25986 -0.06420 0.17417
 H522 H 0.32539 -0.06429 0.23945
 C523 C 0.28447 0.49641 0.78477
 C524 C 0.29785 0.46617 0.73959
 C525 C 0.26259 0.46606 0.70436
 C526 C 0.21736 0.49622 0.71772
 C527 C 0.23704 0.54727 0.72969
 C528 C 0.27228 0.54737 0.76490
 C529 C 0.23550 0.47553 0.80207
 C530 C 0.20024 0.47543 0.76685
 C531 C 0.32247 0.49670 0.82274
 C532 C 0.35367 0.49728 0.85394
 C533 C 0.17935 0.49630 0.67975
 C534 C 0.14815 0.49675 0.64856
 H535 H 0.33200 0.44652 0.73562
 H536 H 0.26656 0.44633 0.67025
 H537 H 0.22440 0.58045 0.71205
 H538 H 0.28980 0.58064 0.77739
 H539 H 0.22909 0.46198 0.83876
 H540 H 0.16366 0.46179 0.77339
 C541 C 0.78433 -0.00477 0.78427
 C542 C 0.80107 -0.02739 0.73589
 C543 C 0.76588 -0.02749 0.70064
 C544 C 0.71745 -0.00496 0.71728
 C545 C 0.73076 0.04628 0.73551
 C546 C 0.76593 0.04637 0.77074
 C547 C 0.73843 -0.03346 0.79856
 C548 C 0.70324 -0.03355 0.76331
 C549 C 0.82215 -0.00445 0.82216
 C550 C 0.85326 -0.00378 0.85330
 C551 C 0.67962 -0.00483 0.67938
 C552 C 0.64853 -0.00429 0.64823
 H553 H 0.83733 -0.04208 0.72986
 H554 H 0.77199 -0.04226 0.66440
 H555 H 0.71404 0.07956 0.72195
 H556 H 0.77934 0.07974 0.78737
 H557 H 0.73399 -0.05208 0.83326
 H558 H 0.66864 -0.05226 0.76780
 C559 C -0.28456 0.49593 0.21578
 C560 C -0.30367 0.48297 0.26680
 C561 C -0.26840 0.48290 0.30198
 C562 C -0.21748 0.49581 0.28269
 C563 C -0.22374 0.54529 0.25716
 C564 C -0.25900 0.54536 0.22200
 C565 C -0.24330 0.45935 0.20614
 C566 C -0.20802 0.45928 0.24132
 C567 C -0.32252 0.49620 0.17792
 C568 C -0.35369 0.49685 0.14680
 C569 C -0.17953 0.49595 0.32056
 C570 C -0.14837 0.49650 0.35169
 H571 H -0.34155 0.47454 0.27461
 H572 H -0.27608 0.47443 0.33992
 H573 H -0.20235 0.57747 0.26592
 H574 H -0.26780 0.57758 0.20065
 H575 H -0.24192 0.43557 0.17449
 H576 H -0.17643 0.43546 0.23982
 C577 C 0.21635 0.00408 0.78301
 C578 C 0.23705 -0.04681 0.77223
 C579 C 0.27235 -0.04690 0.73731
 C580 C 0.28353 0.00390 0.71654
 C581 C 0.29624 0.03531 0.76118
 C582 C 0.26092 0.03540 0.79613
 C583 C 0.19889 0.02354 0.73337
 C584 C 0.23420 0.02345 0.69843
 C585 C 0.17834 0.00396 0.82065
 C586 C 0.14717 0.00346 0.85162
 C587 C 0.32153 0.00360 0.67890
 C588 C 0.35269 0.00298 0.64792
 H589 H 0.22505 -0.07987 0.79044
 H590 H 0.29056 -0.08004 0.72562
 H591 H 0.32997 0.05572 0.76499
 H592 H 0.26442 0.05589 0.82986
 H593 H 0.16205 0.03631 0.72630
 H594 H 0.22760 0.03615 0.66144
 C595 C 0.28342 0.50508 0.21696
 C596 C 0.23731 0.53340 0.20235
 C597 C 0.20213 0.53335 0.23741
 C598 C 0.21652 0.50498 0.28360
 C599 C 0.26481 0.52789 0.30044
 C600 C 0.30000 0.52795 0.26538
 C601 C 0.26537 0.45385 0.23054
 C602 C 0.23020 0.45379 0.26557
 C603 C 0.32126 0.50491 0.17925
 C604 C 0.35234 0.50434 0.14823
 C605 C 0.17868 0.50469 0.32131
 C606 C 0.14759 0.50404 0.35232
 H607 H 0.23273 0.55191 0.16757
 H608 H 0.16739 0.55181 0.23267
 H609 H 0.27082 0.54281 0.33667
 H610 H 0.33616 0.54291 0.27158
 H611 H 0.27900 0.42053 0.21408
 H612 H 0.21371 0.42043 0.27912
 C613 C 0.78316 0.00460 0.21626
 C614 C 0.73908 0.03693 0.20395
 C615 C 0.70409 0.03688 0.23919
 C616 C 0.71666 0.00451 0.28323
 C617 C 0.76644 0.02288 0.30123
 C618 C 0.80143 0.02293 0.26600
 C619 C 0.76169 -0.04609 0.22645
 C620 C 0.72672 -0.04614 0.26166
 C621 C 0.82078 0.00441 0.17840
 C622 C 0.85174 0.00378 0.14731
 C623 C 0.67904 0.00422 0.32110
 C624 C 0.64810 0.00352 0.35221
 H625 H 0.73568 0.05803 0.17055
 H626 H 0.67069 0.05795 0.23600
 H627 H 0.77357 0.03485 0.33835
 H628 H 0.83855 0.03494 0.27292
 H629 H 0.77295 -0.07905 0.20765
 H630 H 0.70801 -0.07914 0.27304
 C631 C -0.28348 0.50506 0.78363
 C632 C -0.26644 0.45375 0.76914
 C633 C -0.23136 0.45367 0.73401
 C634 C -0.21674 0.50490 0.71678
 C635 C -0.20170 0.53213 0.76341
 C636 C -0.23679 0.53222 0.79856
 C637 C -0.29972 0.52913 0.73563
 C638 C -0.26463 0.52904 0.70048
 C639 C -0.32124 0.50491 0.82146
 C640 C -0.35227 0.50436 0.85255
 C641 C -0.17897 0.50459 0.67895
 C642 C -0.14793 0.50393 0.64787
 H643 H -0.28067 0.42040 0.78509
 H644 H -0.21556 0.42025 0.71986
 H645 H -0.16660 0.54984 0.76836
 H646 H -0.23176 0.54999 0.83362
 H647 H -0.33560 0.54489 0.72978
 H648 H -0.27044 0.54474 0.66452
   
