data_POSCAR
  _audit_creation_date              2014-09-24
  _audit_creation_method            'ToBaCCo'
  _symmetry_space_group_name_H-M    'P1'
  _symmetry_Int_Tables_number       1
  _symmetry_cell_setting            triclinic
  loop_
  _symmetry_equiv_pos_as_xyz
 x,y,z
_cell_length_a 43.3545
_cell_length_b 32.4634
_cell_length_c 44.1058
_cell_angle_alpha 86.882000
_cell_angle_beta 86.989600
_cell_angle_gamma 89.696500
loop_
  _atom_site_label
  _atom_site_type_symbol
  _atom_site_fract_x
  _atom_site_fract_y
  _atom_site_fract_z
C1 C 0.28635 0.31205 0.22103
 H2 H 0.28647 0.32025 0.24446
 C3 C 0.30155 0.33725 0.19821
 H4 H 0.31252 0.36529 0.20429
 C5 C 0.27235 0.26538 0.18476
 H6 H 0.26181 0.23680 0.17946
 C7 C 0.28740 0.28935 0.16140
 H8 H 0.28801 0.27872 0.13853
 N9 N 0.27139 0.27735 0.21389
 C10 C 0.20010 0.25021 0.28674
 H11 H 0.20043 0.21700 0.28641
 C12 C 0.17918 0.26922 0.30664
 H13 H 0.16451 0.25010 0.32218
 C14 C 0.21853 0.31502 0.26660
 H15 H 0.23345 0.33295 0.25069
 C16 C 0.19777 0.33541 0.28608
 H17 H 0.19713 0.36879 0.28483
 Zn18 Zn 0.24960 0.24276 0.24433
 N19 N 0.21999 0.27304 0.26787
 C20 C 0.26786 0.19108 0.29432
 N21 N 0.27836 0.21706 0.27081
 C22 C 0.30898 0.22600 0.26659
 C23 C 0.33010 0.20977 0.28699
 C24 C 0.28815 0.17417 0.31521
 C25 C 0.20597 0.21714 0.20541
 C26 C 0.19090 0.19043 0.18741
 C27 C 0.21873 0.13353 0.21078
 C28 C 0.23397 0.16159 0.22773
 N29 N 0.22765 0.20261 0.22445
 H30 H 0.24369 0.18347 0.29712
 H31 H 0.31715 0.24608 0.24758
 H32 H 0.35432 0.21747 0.28328
 H33 H 0.27904 0.15456 0.33419
 H34 H 0.20146 0.24995 0.20320
 H35 H 0.17526 0.20351 0.17116
 H36 H 0.22401 0.10104 0.21405
 H37 H 0.25124 0.15060 0.24302
 C38 C 0.17806 0.31244 0.30686
 C39 C 0.30187 0.32623 0.16780
 C40 C 0.19730 0.14784 0.18965
 C41 C 0.31970 0.18386 0.31193
 C42 C 0.79289 0.79138 0.24406
 H43 H 0.79942 0.77722 0.26545
 C44 C 0.81476 0.81424 0.22603
 H45 H 0.83785 0.81594 0.23405
 C46 C 0.75549 0.80355 0.20746
 H47 H 0.73225 0.79934 0.20041
 C48 C 0.77669 0.82630 0.18852
 H49 H 0.76864 0.84031 0.16757
 N50 N 0.76386 0.78651 0.23462
 C51 C 0.69990 0.77940 0.31084
 H52 H 0.70788 0.75075 0.32136
 C53 C 0.68053 0.80518 0.32758
 H54 H 0.67395 0.79621 0.35102
 C55 C 0.69752 0.82498 0.26718
 H56 H 0.70411 0.83237 0.24356
 C57 C 0.67800 0.85159 0.28305
 H58 H 0.67006 0.87973 0.27161
 Zn59 Zn 0.73427 0.75457 0.25863
 N60 N 0.70831 0.78992 0.28131
 C61 C 0.76935 0.73125 0.30884
 N62 N 0.75475 0.71662 0.28509
 C63 C 0.75535 0.67575 0.27972
 C64 C 0.77192 0.64807 0.29801
 C65 C 0.78598 0.70463 0.32783
 C66 C 0.72383 0.70549 0.20948
 C67 C 0.70618 0.68418 0.18991
 C68 C 0.66006 0.70520 0.21824
 C69 C 0.67857 0.72613 0.23724
 N70 N 0.70983 0.72580 0.23262
 H71 H 0.76824 0.76381 0.31289
 H72 H 0.74348 0.66455 0.26091
 H73 H 0.77288 0.61590 0.29271
 H74 H 0.79723 0.71698 0.34669
 H75 H 0.74874 0.70580 0.20632
 H76 H 0.71774 0.66769 0.17187
 H77 H 0.63520 0.70613 0.22210
 H78 H 0.66793 0.74251 0.25576
 C79 C 0.66947 0.84194 0.31373
 C80 C 0.80711 0.83207 0.19750
 C81 C 0.67384 0.68384 0.19421
 C82 C 0.78778 0.66246 0.32230
 C83 C 0.78929 0.31637 0.73271
 H84 H 0.77703 0.32877 0.75217
 C85 C 0.81054 0.34096 0.71511
 H86 H 0.81413 0.37252 0.72086
 C87 C 0.79939 0.26028 0.70136
 H88 H 0.79493 0.22871 0.69627
 C89 C 0.82067 0.28379 0.68310
 H90 H 0.83268 0.27000 0.66402
 N91 N 0.78395 0.27697 0.72536
 C92 C 0.72189 0.26687 0.80143
 H93 H 0.73362 0.24123 0.81233
 C94 C 0.70170 0.29057 0.81895
 H95 H 0.69775 0.28189 0.84288
 C96 C 0.71257 0.30896 0.75734
 H97 H 0.71744 0.31665 0.73345
 C98 C 0.69248 0.33395 0.77415
 H99 H 0.68210 0.36060 0.76286
 Zn100 Zn 0.75477 0.24306 0.74792
 N101 N 0.72684 0.27607 0.77112
 C102 C 0.76005 0.17539 0.79055
 N103 N 0.77602 0.20584 0.77442
 C104 C 0.80683 0.21037 0.77720
 C105 C 0.82279 0.18371 0.79682
 C106 C 0.77504 0.14760 0.81004
 C107 C 0.71596 0.23420 0.69901
 C108 C 0.70053 0.21315 0.67752
 C109 C 0.72055 0.14916 0.69905
 C110 C 0.73582 0.17142 0.71983
 N111 N 0.73299 0.21318 0.71984
 H112 H 0.73539 0.17281 0.78839
 H113 H 0.81921 0.23475 0.76415
 H114 H 0.84748 0.18790 0.79701
 H115 H 0.76069 0.12529 0.82314
 H116 H 0.71480 0.26743 0.69859
 H117 H 0.68766 0.23061 0.66079
 H118 H 0.72276 0.11590 0.70001
 H119 H 0.75038 0.15507 0.73551
 C120 C 0.68685 0.32493 0.80547
 C121 C 0.82628 0.32481 0.68973
 C122 C 0.70271 0.16997 0.67736
 C123 C 0.80717 0.15112 0.81386
 C124 C 0.26023 0.81053 0.73785
 H125 H 0.24503 0.82062 0.75616
 C126 C 0.27621 0.83988 0.71886
 H127 H 0.27294 0.87229 0.72275
 C128 C 0.28386 0.75628 0.71124
 H129 H 0.28640 0.72355 0.70824
 C130 C 0.30021 0.78458 0.69162
 H131 H 0.31509 0.77329 0.67340
 N132 N 0.26345 0.76964 0.73307
 C133 C 0.20708 0.74685 0.81201
 H134 H 0.22127 0.72280 0.82194
 C135 C 0.18683 0.76890 0.83079
 H136 H 0.18566 0.76120 0.85501
 C137 C 0.19030 0.78445 0.76838
 H138 H 0.19196 0.79043 0.74398
 C139 C 0.17014 0.80776 0.78633
 H140 H 0.15675 0.83198 0.77541
 Zn141 Zn 0.23885 0.72948 0.75592
 N142 N 0.20912 0.75579 0.78149
 C143 C 0.28107 0.71536 0.80106
 N144 N 0.26566 0.69627 0.77972
 C145 C 0.26928 0.65516 0.77597
 C146 C 0.28753 0.63121 0.79533
 C147 C 0.29946 0.69259 0.82095
 C148 C 0.21707 0.70905 0.69911
 C149 C 0.20204 0.68511 0.67911
 C150 C 0.18671 0.63794 0.72139
 C151 C 0.20157 0.66325 0.74071
 N152 N 0.21722 0.69733 0.72921
 H153 H 0.27821 0.74821 0.80324
 H154 H 0.25795 0.64073 0.75811
 H155 H 0.28990 0.59848 0.79216
 H156 H 0.31040 0.70819 0.83860
 H157 H 0.22851 0.73707 0.69049
 H158 H 0.20264 0.69449 0.65514
 H159 H 0.17493 0.61040 0.73073
 H160 H 0.20120 0.65523 0.76486
 C161 C 0.16855 0.80066 0.81812
 C162 C 0.29593 0.82709 0.69487
 C163 C 0.18707 0.64871 0.69013
 C164 C 0.30248 0.64976 0.81857
 C165 C -0.03376 -0.02913 0.02308
 C166 C -0.01312 -0.00715 0.00281
 C167 C -0.02424 0.01607 -0.02207
 C168 C -0.05605 0.01827 -0.02655
 C169 C -0.07648 -0.00383 -0.00598
 C170 C -0.06558 -0.02817 0.01852
 C171 C 0.02025 -0.00832 0.00733
 C172 C 0.03995 -0.03018 -0.01212
 C173 C 0.07215 -0.02915 -0.00965
 C174 C 0.08421 -0.00513 0.01265
 C175 C 0.06455 0.01620 0.03297
 C176 C 0.03243 0.01385 0.03022
 H177 H -0.02490 -0.04773 0.04186
 H178 H -0.00799 0.03239 -0.03786
 H179 H 0.02984 -0.04846 -0.02883
 H180 H 0.01667 0.02955 0.04561
 H181 H -0.10114 -0.00145 -0.00860
 H182 H 0.10896 -0.00221 0.01369
 C183 C -0.02591 0.48143 0.51049
 C184 C -0.00818 0.50651 0.48941
 C185 C -0.02263 0.52963 0.46638
 C186 C -0.05489 0.52853 0.46455
 C187 C -0.07228 0.50283 0.48561
 C188 C -0.05798 0.47880 0.50828
 C189 C 0.02554 0.50859 0.49145
 C190 C 0.04519 0.49087 0.46950
 C191 C 0.07751 0.49214 0.47145
 C192 C 0.08972 0.51235 0.49566
 C193 C 0.07012 0.53171 0.51695
 C194 C 0.03805 0.52918 0.51496
 H195 H -0.01461 0.46312 0.52798
 H196 H -0.00863 0.54856 0.45006
 H197 H 0.03509 0.47651 0.45078
 H198 H 0.02280 0.54381 0.53145
 H199 H -0.09721 0.50211 0.48497
 H200 H 0.11446 0.51387 0.49774
 C201 C 0.46673 -0.00688 0.52939
 C202 C 0.47991 0.01630 0.50436
 C203 C 0.46167 0.02897 0.48026
 C204 C 0.43008 0.01915 0.48117
 C205 C 0.41719 -0.00452 0.50635
 C206 C 0.43545 -0.01812 0.53038
 C207 C 0.51326 0.02517 0.50276
 C208 C 0.53268 0.00643 0.48110
 C209 C 0.56479 0.01171 0.48086
 C210 C 0.57705 0.03772 0.50155
 C211 C 0.55801 0.05599 0.52388
 C212 C 0.52596 0.04944 0.52432
 H213 H 0.48108 -0.01682 0.54782
 H214 H 0.47225 0.04613 0.46069
 H215 H 0.52284 -0.01409 0.46562
 H216 H 0.51089 0.06231 0.54178
 H217 H 0.39299 -0.01281 0.50709
 H218 H 0.60171 0.04317 0.50049
 C219 C 0.48581 0.49794 0.02288
 C220 C 0.50239 0.51697 -0.00210
 C221 C 0.48662 0.53750 -0.02533
 C222 C 0.45423 0.53990 -0.02356
 C223 C 0.43776 0.52070 0.00166
 C224 C 0.45333 0.49941 0.02503
 C225 C 0.53636 0.51727 -0.00317
 C226 C 0.55346 0.49241 -0.02301
 C227 C 0.58592 0.49269 -0.02374
 C228 C 0.60090 0.51931 -0.00522
 C229 C 0.58400 0.54433 0.01462
 C230 C 0.55165 0.54278 0.01579
 H231 H 0.49839 0.48160 0.04041
 H232 H 0.49970 0.55202 -0.04460
 H233 H 0.54146 0.47209 -0.03710
 H234 H 0.53830 0.56204 0.03097
 H235 H 0.41285 0.52353 0.00351
 H236 H 0.62591 0.52022 -0.00593
 C237 C 0.15825 -0.16295 -0.13334
 C238 C 0.14001 -0.13746 -0.11489
 C239 C 0.11208 -0.12098 -0.12548
 C240 C 0.10252 -0.13106 -0.15401
 C241 C 0.12052 -0.15705 -0.17201
 C242 C 0.14872 -0.17305 -0.16208
 C243 C 0.09406 -0.09492 -0.10733
 C244 C 0.10321 -0.08597 -0.07836
 C245 C 0.13081 -0.10315 -0.06749
 C246 C 0.14925 -0.12835 -0.08597
 C247 C 0.13929 -0.09525 -0.03815
 C248 C 0.12040 -0.07109 -0.01953
 C249 C 0.09293 -0.05348 -0.03007
 C250 C 0.08488 -0.06066 -0.05989
 H251 H 0.18011 -0.17434 -0.12542
 H252 H 0.08101 -0.11903 -0.16236
 H253 H 0.11216 -0.16480 -0.19367
 H254 H 0.07271 -0.08208 -0.11558
 H255 H 0.17054 -0.14129 -0.07769
 H256 H 0.16025 -0.10845 -0.02935
 H257 H 0.12707 -0.06704 0.00342
 H258 H 0.06426 -0.04673 -0.06884
 C259 C 0.16622 0.36846 0.34315
 C260 C 0.14689 0.38636 0.36543
 C261 C 0.11779 0.36853 0.37386
 C262 C 0.10821 0.33383 0.35937
 C263 C 0.12746 0.31638 0.33713
 C264 C 0.15683 0.33304 0.32903
 C265 C 0.09878 0.38553 0.39672
 C266 C 0.10829 0.42050 0.41105
 C267 C 0.13709 0.43886 0.40222
 C268 C 0.15630 0.42155 0.37961
 C269 C 0.14614 0.47434 0.41614
 C270 C 0.12685 0.49157 0.43852
 C271 C 0.09827 0.47335 0.44785
 C272 C 0.08934 0.43748 0.43399
 H273 H 0.18888 0.38147 0.33742
 H274 H 0.08585 0.32003 0.36533
 H275 H 0.11928 0.28971 0.32625
 H276 H 0.07658 0.37160 0.40331
 H277 H 0.17852 0.43546 0.37305
 H278 H 0.16802 0.48906 0.40949
 H279 H 0.13420 0.51965 0.44811
 H280 H 0.06770 0.42248 0.44114
 C281 C 0.65633 -0.12176 0.36127
 C282 C 0.63738 -0.09570 0.37844
 C283 C 0.61107 -0.07727 0.36567
 C284 C 0.60442 -0.08501 0.33572
 C285 C 0.62349 -0.11103 0.31872
 C286 C 0.64947 -0.12984 0.33141
 C287 C 0.59183 -0.05166 0.38309
 C288 C 0.59857 -0.04442 0.41313
 C289 C 0.62509 -0.06266 0.42568
 C290 C 0.64431 -0.08807 0.40826
 C291 C 0.63184 -0.05558 0.45562
 C292 C 0.61238 -0.03102 0.47319
 C293 C 0.58583 -0.01279 0.46116
 C294 C 0.57910 -0.01955 0.43098
 H295 H 0.67661 -0.13556 0.37108
 H296 H 0.58438 -0.07117 0.32553
 H297 H 0.61762 -0.11703 0.29581
 H298 H 0.57156 -0.03767 0.37337
 H299 H 0.66454 -0.10217 0.41801
 H300 H 0.65199 -0.06946 0.46559
 H301 H 0.61777 -0.02705 0.49655
 H302 H 0.55880 -0.00548 0.42142
 C303 C 0.67350 0.35874 -0.14573
 C304 C 0.65419 0.38310 -0.12753
 C305 C 0.62752 0.40152 -0.13951
 C306 C 0.62050 0.39474 -0.16952
 C307 C 0.63968 0.36990 -0.18743
 C308 C 0.66638 0.35160 -0.17574
 C309 C 0.60840 0.42636 -0.12131
 C310 C 0.61560 0.43271 -0.09122
 C311 C 0.64213 0.41369 -0.07926
 C312 C 0.66126 0.38920 -0.09749
 C313 C 0.64923 0.41958 -0.04923
 C314 C 0.63058 0.44462 -0.03124
 C315 C 0.60452 0.46455 -0.04293
 C316 C 0.59693 0.45802 -0.07293
 H317 H 0.69431 0.34571 -0.13652
 H318 H 0.60007 0.40843 -0.17909
 H319 H 0.63334 0.36457 -0.21030
 H320 H 0.58803 0.44074 -0.13053
 H321 H 0.68167 0.37486 -0.08827
 H322 H 0.66930 0.40491 -0.03965
 H323 H 0.63655 0.44835 -0.00802
 H324 H 0.57697 0.47335 -0.08224
 C325 C -0.14952 0.13542 -0.15430
 C326 C -0.13491 0.10881 -0.13330
 C327 C -0.14795 0.06991 -0.12474
 C328 C -0.17527 0.05822 -0.13727
 C329 C -0.19004 0.08500 -0.15766
 C330 C -0.17777 0.12450 -0.16665
 C331 C -0.13380 0.04356 -0.10336
 C332 C -0.10719 0.05614 -0.08973
 C333 C -0.09411 0.09514 -0.09813
 C334 C -0.10786 0.12106 -0.12011
 C335 C -0.06786 0.10786 -0.08393
 C336 C -0.05516 0.08264 -0.06107
 C337 C -0.06823 0.04398 -0.05223
 C338 C -0.09393 0.03067 -0.06723
 H339 H -0.13956 0.16569 -0.15904
 H340 H -0.18538 0.02824 -0.13120
 H341 H -0.21043 0.07322 -0.16727
 H342 H -0.14394 0.01370 -0.09679
 H343 H -0.09786 0.15106 -0.12647
 H344 H -0.05756 0.13771 -0.09003
 H345 H -0.03560 0.09395 -0.04972
 H346 H -0.10391 0.00061 -0.06116
 C347 C -0.16539 0.64678 0.35212
 C348 C -0.14793 0.62011 0.37059
 C349 C -0.15855 0.57958 0.37825
 C350 C -0.18648 0.56652 0.36740
 C351 C -0.20390 0.59343 0.34931
 C352 C -0.19362 0.63383 0.34150
 C353 C -0.14129 0.55296 0.39693
 C354 C -0.11389 0.56664 0.40858
 C355 C -0.10330 0.60718 0.40100
 C356 C -0.12021 0.63353 0.38178
 C357 C -0.07625 0.62095 0.41322
 C358 C -0.06023 0.59517 0.43340
 C359 C -0.07068 0.55489 0.44140
 C360 C -0.09728 0.54064 0.42829
 H361 H -0.15687 0.67757 0.34588
 H362 H -0.19503 0.53563 0.37317
 H363 H -0.22572 0.58276 0.34183
 H364 H -0.14950 0.52190 0.40286
 H365 H -0.11211 0.66467 0.37600
 H366 H -0.06785 0.65199 0.40773
 H367 H -0.04013 0.60729 0.44341
 H368 H -0.10533 0.50942 0.43368
 C369 C 0.33842 0.12771 0.34809
 C370 C 0.35775 0.11358 0.37105
 C371 C 0.38048 0.14010 0.38098
 C372 C 0.38371 0.18007 0.36753
 C373 C 0.36431 0.19393 0.34479
 C374 C 0.34132 0.16810 0.33497
 C375 C 0.39940 0.12642 0.40436
 C376 C 0.39585 0.08655 0.41802
 C377 C 0.37331 0.05990 0.40791
 C378 C 0.35446 0.07353 0.38445
 C379 C 0.36987 0.02008 0.42159
 C380 C 0.38838 0.00684 0.44523
 C381 C 0.41070 0.03316 0.45571
 C382 C 0.41434 0.07302 0.44182
 H383 H 0.32109 0.10726 0.34045
 H384 H 0.40099 0.20082 0.37487
 H385 H 0.36681 0.22532 0.33540
 H386 H 0.41672 0.14688 0.41206
 H387 H 0.33707 0.05312 0.37682
 H388 H 0.35282 -0.00083 0.41403
 H389 H 0.38543 -0.02423 0.45513
 H390 H 0.43119 0.09382 0.44989
 C391 C 0.34783 0.63950 -0.14848
 C392 C 0.36382 0.61647 -0.12642
 C393 C 0.35226 0.57771 -0.11500
 C394 C 0.32504 0.56254 -0.12601
 C395 C 0.30918 0.58572 -0.14785
 C396 C 0.32026 0.62450 -0.15921
 C397 C 0.36794 0.55490 -0.09262
 C398 C 0.39501 0.57042 -0.08143
 C399 C 0.40667 0.60907 -0.09302
 C400 C 0.39105 0.63181 -0.11545
 C401 C 0.43374 0.62448 -0.08185
 C402 C 0.44911 0.60192 -0.05937
 C403 C 0.43775 0.56350 -0.04759
 C404 C 0.41060 0.54794 -0.05878
 H405 H 0.35687 0.66907 -0.15732
 H406 H 0.31580 0.53294 -0.11748
 H407 H 0.28780 0.57365 -0.15534
 H408 H 0.35898 0.52524 -0.08381
 H409 H 0.39996 0.66152 -0.12421
 H410 H 0.44295 0.65409 -0.09041
 H411 H 0.46973 0.61485 -0.05085
 H412 H 0.40181 0.51816 -0.05009
 C413 C -0.17282 -0.14294 0.14648
 C414 C -0.15081 -0.12123 0.12752
 C415 C -0.12619 -0.10113 0.14029
 C416 C -0.12389 -0.10338 0.17186
 C417 C -0.14572 -0.12534 0.19065
 C418 C -0.17072 -0.14548 0.17840
 C419 C -0.10429 -0.07915 0.12132
 C420 C -0.10663 -0.07727 0.08967
 C421 C -0.13113 -0.09783 0.07691
 C422 C -0.15303 -0.11963 0.09588
 C423 C -0.13343 -0.09612 0.04533
 C424 C -0.11189 -0.07387 0.02650
 C425 C -0.08765 -0.05281 0.03887
 C426 C -0.08501 -0.05495 0.07055
 H427 H -0.19074 -0.15928 0.13593
 H428 H -0.10526 -0.08794 0.18209
 H429 H -0.14341 -0.12490 0.21492
 H430 H -0.08547 -0.06353 0.13117
 H431 H -0.17185 -0.13524 0.08602
 H432 H -0.15194 -0.11190 0.03517
 H433 H -0.11411 -0.07328 0.00214
 H434 H -0.06656 -0.03856 0.08034
 C435 C -0.15303 0.34952 0.63794
 C436 C -0.13311 0.37420 0.61869
 C437 C -0.11181 0.40045 0.63124
 C438 C -0.11096 0.40159 0.66294
 C439 C -0.13109 0.37710 0.68199
 C440 C -0.15223 0.35079 0.66969
 C441 C -0.09197 0.42532 0.61192
 C442 C -0.09351 0.42465 0.58022
 C443 C -0.11501 0.39848 0.56779
 C444 C -0.13447 0.37326 0.58707
 C445 C -0.11698 0.39829 0.53621
 C446 C -0.09818 0.42420 0.51704
 C447 C -0.07683 0.45045 0.52905
 C448 C -0.07430 0.45019 0.56070
 H449 H -0.16960 0.32984 0.62820
 H450 H -0.09480 0.42151 0.67300
 H451 H -0.12989 0.37836 0.70639
 H452 H -0.07564 0.44548 0.62154
 H453 H -0.15092 0.35323 0.57746
 H454 H -0.13328 0.37840 0.52633
 H455 H -0.10027 0.42372 0.49270
 H456 H -0.05802 0.47065 0.57009
 C457 C 0.34102 -0.14827 0.66051
 C458 C 0.35430 -0.12036 0.63817
 C459 C 0.33719 -0.08563 0.62782
 C460 C 0.30724 -0.07922 0.64021
 C461 C 0.29414 -0.10724 0.66229
 C462 C 0.31075 -0.14218 0.67256
 C463 C 0.35011 -0.05817 0.60502
 C464 C 0.37987 -0.06511 0.59226
 C465 C 0.39710 -0.09962 0.60283
 C466 C 0.38426 -0.12693 0.62577
 C467 C 0.42681 -0.10651 0.59003
 C468 C 0.43926 -0.07977 0.56675
 C469 C 0.42230 -0.04553 0.55584
 C470 C 0.39260 -0.03829 0.56888
 H471 H 0.35424 -0.17478 0.66848
 H472 H 0.29376 -0.05283 0.63251
 H473 H 0.27064 -0.10207 0.67079
 H474 H 0.33687 -0.03169 0.59698
 H475 H 0.39743 -0.15352 0.63371
 H476 H 0.44031 -0.13284 0.59779
 H477 H 0.46200 -0.08640 0.55682
 H478 H 0.37944 -0.01175 0.56090
 C479 C 0.34520 0.37288 0.14681
 C480 C 0.36038 0.39569 0.12247
 C481 C 0.34755 0.39800 0.09360
 C482 C 0.31940 0.37852 0.08975
 C483 C 0.30438 0.35616 0.11404
 C484 C 0.31727 0.35244 0.14271
 C485 C 0.36315 0.41939 0.06895
 C486 C 0.39140 0.43878 0.07277
 C487 C 0.40390 0.43739 0.10177
 C488 C 0.38838 0.41576 0.12642
 C489 C 0.43187 0.45742 0.10557
 C490 C 0.44757 0.47810 0.08082
 C491 C 0.43582 0.47886 0.05163
 C492 C 0.40748 0.45924 0.04793
 H493 H 0.35558 0.37013 0.16865
 H494 H 0.30906 0.38036 0.06787
 H495 H 0.28256 0.34169 0.11033
 H496 H 0.35341 0.42070 0.04675
 H497 H 0.39819 0.41430 0.14858
 H498 H 0.44166 0.45705 0.12769
 H499 H 0.46891 0.49370 0.08463
 H500 H 0.39821 0.45903 0.02560
 C501 C 0.15353 0.12793 0.15777
 C502 C 0.14105 0.10305 0.13644
 C503 C 0.15721 0.06755 0.12727
 C504 C 0.18582 0.05794 0.13926
 C505 C 0.19864 0.08369 0.15963
 C506 C 0.18277 0.11912 0.16917
 C507 C 0.14480 0.04270 0.10586
 C508 C 0.11691 0.05372 0.09273
 C509 C 0.10112 0.08975 0.10146
 C510 C 0.11299 0.11378 0.12361
 C511 C 0.07392 0.10156 0.08756
 C512 C 0.06241 0.07801 0.06515
 C513 C 0.07742 0.04151 0.05659
 C514 C 0.10474 0.02957 0.07072
 H515 H 0.14043 0.15437 0.16519
 H516 H 0.19869 0.03104 0.13228
 H517 H 0.22142 0.07623 0.16720
 H518 H 0.15715 0.01532 0.09896
 H519 H 0.10074 0.14131 0.13036
 H520 H 0.06174 0.12938 0.09370
 H521 H 0.04187 0.08886 0.05426
 H522 H 0.11651 0.00137 0.06480
 C523 C 0.15270 0.63905 0.64723
 C524 C 0.13985 0.61416 0.62614
 C525 C 0.14716 0.57163 0.62637
 C526 C 0.16650 0.55456 0.64831
 C527 C 0.17884 0.57948 0.66952
 C528 C 0.17238 0.62195 0.66890
 C529 C 0.13512 0.54695 0.60464
 C530 C 0.11544 0.56413 0.58302
 C531 C 0.10743 0.60644 0.58345
 C532 C 0.11989 0.63121 0.60481
 C533 C 0.08705 0.62335 0.56248
 C534 C 0.07475 0.59869 0.54118
 C535 C 0.08301 0.55692 0.54013
 C536 C 0.10346 0.53973 0.56104
 H537 H 0.14736 0.67174 0.64688
 H538 H 0.17224 0.52201 0.64894
 H539 H 0.19409 0.56579 0.68596
 H540 H 0.14102 0.51443 0.60460
 H541 H 0.11401 0.66373 0.60484
 H542 H 0.08057 0.65563 0.56258
 H543 H 0.05907 0.61238 0.52513
 H544 H 0.10964 0.50737 0.56039
 C545 C 0.65796 0.15860 0.64454
 C546 C 0.64339 0.13607 0.62306
 C547 C 0.65819 0.10087 0.61147
 C548 C 0.68739 0.08922 0.62105
 C549 C 0.70185 0.11200 0.64210
 C550 C 0.68726 0.14666 0.65434
 C551 C 0.64370 0.07791 0.59037
 C552 C 0.61478 0.09001 0.58023
 C553 C 0.60003 0.12547 0.59136
 C554 C 0.61433 0.14814 0.61293
 C555 C 0.57132 0.13766 0.58057
 C556 C 0.55754 0.11517 0.55872
 C557 C 0.57207 0.07984 0.54750
 C558 C 0.60055 0.06724 0.55884
 H559 H 0.64629 0.18501 0.65392
 H560 H 0.69916 0.06256 0.61214
 H561 H 0.72469 0.10261 0.64857
 H562 H 0.65507 0.05082 0.58162
 H563 H 0.60298 0.17525 0.62164
 H564 H 0.55969 0.16485 0.58875
 H565 H 0.53574 0.12584 0.55025
 H566 H 0.61173 0.03947 0.55112
 C567 C 0.66185 0.66254 0.14232
 C568 C 0.64403 0.64072 0.12299
 C569 C 0.61844 0.61732 0.13523
 C570 C 0.61104 0.61640 0.16658
 C571 C 0.62896 0.63814 0.18568
 C572 C 0.65459 0.66126 0.17379
 C573 C 0.60087 0.59494 0.11601
 C574 C 0.60872 0.59539 0.08474
 C575 C 0.63422 0.61900 0.07250
 C576 C 0.65158 0.64169 0.09166
 C577 C 0.64221 0.61906 0.04130
 C578 C 0.62552 0.59530 0.02246
 C579 C 0.60040 0.57133 0.03443
 C580 C 0.59185 0.57196 0.06557
 H581 H 0.68128 0.68076 0.13284
 H582 H 0.59156 0.59858 0.17637
 H583 H 0.62307 0.63630 0.20987
 H584 H 0.58135 0.57682 0.12544
 H585 H 0.67121 0.65964 0.08226
 H586 H 0.66160 0.63707 0.03152
 H587 H 0.63228 0.59556 -0.00154
 H588 H 0.57268 0.55320 0.07500
   
