data_POSCAR
  _audit_creation_date              2014-09-24
  _audit_creation_method            'ToBaCCo'
  _symmetry_space_group_name_H-M    'P1'
  _symmetry_Int_Tables_number       1
  _symmetry_cell_setting            triclinic
  loop_
  _symmetry_equiv_pos_as_xyz
 x,y,z
_cell_length_a 29.2143
_cell_length_b 29.1254
_cell_length_c 29.1646
_cell_angle_alpha 90.105400
_cell_angle_beta 90.473000
_cell_angle_gamma 89.809300
loop_
  _atom_site_label
  _atom_site_type_symbol
  _atom_site_fract_x
  _atom_site_fract_y
  _atom_site_fract_z
O1 O 0.31235 1.03959 0.03885
 O2 O 0.29990 0.95810 -0.05667
 O3 O 0.29790 1.04543 -0.04885
 O4 O 0.30964 0.94885 0.03209
 O5 O 0.23458 0.94896 0.04081
 O6 O 0.22377 1.04870 -0.03433
 O7 O 0.22481 0.96095 -0.04853
 O8 O 0.23797 1.03650 0.05169
 Cu9 Cu 0.31273 0.99756 -0.00897
 Cu10 Cu 0.22270 0.99805 0.00353
 C11 C 0.27740 1.05223 0.06114
 C12 C 0.25997 0.94831 -0.07064
 C13 C 0.25866 1.06355 -0.05503
 C14 C 0.27379 0.93273 0.05024
 O15 O 0.80353 0.55269 0.55210
 O16 O 0.82309 0.46392 0.46325
 O17 O 0.80605 0.55322 0.46295
 O18 O 0.82218 0.46617 0.55514
 O19 O 0.74794 0.45228 0.55382
 O20 O 0.73371 0.53242 0.45627
 O21 O 0.75005 0.44491 0.46543
 O22 O 0.72918 0.54043 0.54555
 Cu23 Cu 0.82131 0.51005 0.50828
 Cu24 Cu 0.73291 0.49112 0.50521
 C25 C 0.76261 0.56213 0.56314
 C26 C 0.78994 0.43904 0.44959
 C27 C 0.76706 0.55714 0.44357
 C28 C 0.78756 0.44529 0.57087
 O29 O 0.74844 0.95226 1.05853
 O30 O 0.76446 1.04271 0.97055
 O31 O 0.75629 1.04500 1.05939
 O32 O 0.76531 0.95371 0.97278
 O33 O 0.69187 0.96122 0.95541
 O34 O 0.68215 1.05017 1.04509
 O35 O 0.68957 1.04748 0.95964
 O36 O 0.67422 0.95661 1.04476
 Cu37 Cu 0.76589 0.99833 1.01758
 Cu38 Cu 0.67667 1.00300 1.00197
 C39 C 0.70816 0.93691 1.06360
 C40 C 0.72982 1.06018 0.95006
 C41 C 0.71837 1.06561 1.06392
 C42 C 0.73078 0.94272 0.94865
 O43 O 0.28537 0.45335 0.53372
 O44 O 0.27021 0.54319 0.44724
 O45 O 0.28795 0.54378 0.53545
 O46 O 0.27062 0.45569 0.44651
 O47 O 0.19646 0.45570 0.46097
 O48 O 0.21414 0.54300 0.55135
 O49 O 0.19636 0.54649 0.46278
 O50 O 0.21121 0.45549 0.54823
 Cu51 Cu 0.28619 0.49921 0.48976
 Cu52 Cu 0.19689 0.50064 0.50681
 C53 C 0.25079 0.43895 0.55535
 C54 C 0.23062 0.55975 0.43998
 C55 C 0.25427 0.55799 0.55883
 C56 C 0.23062 0.44055 0.43880
 O57 O 1.05736 0.21820 0.03667
 O58 O 0.95936 0.19587 -0.04005
 O59 O 1.04816 0.21120 -0.05088
 O60 O 0.97195 0.20152 0.04829
 O61 O 0.95400 0.27504 0.04179
 O62 O 1.03318 0.28547 -0.05507
 O63 O 0.94511 0.27021 -0.04539
 O64 O 1.04027 0.29216 0.03554
 Cu65 Cu 1.01068 0.19913 -0.00187
 Cu66 Cu 0.99229 0.28840 -0.00678
 C67 C 1.06436 0.25894 0.05046
 C68 C 0.93460 0.22894 -0.05423
 C69 C 1.05443 0.25015 -0.06905
 C70 C 0.94977 0.23652 0.06170
 O71 O 0.53318 0.69551 0.54252
 O72 O 0.44604 0.71629 0.45254
 O73 O 0.53278 0.69453 0.45129
 O74 O 0.44551 0.71351 0.53960
 O75 O 0.46386 0.78705 0.54194
 O76 O 0.55090 0.76809 0.45347
 O77 O 0.46454 0.78982 0.45201
 O78 O 0.55154 0.76903 0.54144
 Cu79 Cu 0.48825 0.69727 0.49637
 Cu80 Cu 0.50923 0.78597 0.49737
 C81 C 0.55717 0.72886 0.55724
 C82 C 0.44036 0.75676 0.43731
 C83 C 0.55646 0.72803 0.43722
 C84 C 0.43953 0.75367 0.55534
 O85 O 0.05015 0.79936 -0.04713
 O86 O -0.03170 0.80505 0.04810
 O87 O 0.05222 0.78608 0.03807
 O88 O -0.04112 0.81564 -0.04185
 O89 O -0.05481 0.74231 -0.05479
 O90 O 0.03110 0.71333 0.03420
 O91 O -0.05439 0.73418 0.03349
 O92 O 0.03661 0.72516 -0.05406
 Cu93 Cu 0.00779 0.80924 -0.00147
 Cu94 Cu -0.01192 0.72139 -0.01257
 C95 C 0.06062 0.76029 -0.06315
 C96 C -0.05711 0.77096 0.05700
 C97 C 0.05666 0.74456 0.05070
 C98 C -0.06487 0.78425 -0.06043
 O99 O 0.53673 0.29669 0.45045
 O100 O 0.45184 0.28497 0.54244
 O101 O 0.53502 0.30613 0.54327
 O102 O 0.44594 0.28251 0.45743
 O103 O 0.46571 0.20917 0.45668
 O104 O 0.55497 0.23284 0.54270
 O105 O 0.46918 0.21115 0.54705
 O106 O 0.55377 0.22295 0.45528
 Cu107 Cu 0.49244 0.30004 0.49642
 Cu108 Cu 0.51232 0.21140 0.50075
 C109 C 0.55986 0.26206 0.43747
 C110 C 0.44642 0.24573 0.56054
 C111 C 0.55961 0.27338 0.55814
 C112 C 0.44029 0.24188 0.44282
 O113 O 1.04177 0.03195 0.29373
 O114 O 0.94457 -0.04795 0.27580
 O115 O 1.03669 -0.05429 0.29295
 O116 O 0.95642 0.04202 0.28946
 O117 O 0.95688 0.04226 0.21364
 O118 O 1.04313 -0.05121 0.21767
 O119 O 0.95308 -0.04269 0.20086
 O120 O 1.04387 0.04233 0.21872
 Cu121 Cu 0.99288 -0.00938 0.29493
 Cu122 Cu 1.00163 -0.00336 0.20556
 C123 C 1.05820 0.05196 0.25884
 C124 C 0.93132 -0.05734 0.23515
 C125 C 1.05474 -0.06821 0.25623
 C126 C 0.94258 0.05838 0.25155
 O127 O 0.55073 0.54942 0.77474
 O128 O 0.47402 0.45156 0.79095
 O129 O 0.55937 0.46196 0.77042
 O130 O 0.46304 0.54172 0.79262
 O131 O 0.45001 0.54721 0.71811
 O132 O 0.53839 0.45907 0.69752
 O133 O 0.45163 0.45752 0.71866
 O134 O 0.53575 0.54936 0.70032
 Cu135 Cu 0.51312 0.50130 0.78977
 Cu136 Cu 0.49227 0.50314 0.70114
 C137 C 0.55707 0.56532 0.73485
 C138 C 0.44941 0.43816 0.75762
 C139 C 0.56440 0.44614 0.73015
 C140 C 0.44120 0.55917 0.75895
 O141 O 0.94937 1.04237 0.81146
 O142 O 1.05080 0.96692 0.80880
 O143 O 1.03794 1.05631 0.81159
 O144 O 0.96275 0.95561 0.81408
 O145 O 0.95341 0.96002 0.73884
 O146 O 1.04238 1.04926 0.73641
 O147 O 1.03964 0.95699 0.73444
 O148 O 0.94956 1.04512 0.73575
 Cu149 Cu 1.00119 1.00589 0.81921
 Cu150 Cu 0.99769 1.00439 0.72867
 C151 C 0.93111 1.05474 0.77379
 C152 C 1.06076 0.94712 0.77132
 C153 C 1.05441 1.06863 0.77362
 C154 C 0.94342 0.94232 0.77727
 O155 O 0.45143 0.54163 0.28306
 O156 O 0.53625 0.45137 0.30816
 O157 O 0.53758 0.54099 0.30630
 O158 O 0.45043 0.45154 0.28586
 O159 O 0.46758 0.45062 0.21221
 O160 O 0.55638 0.53825 0.23310
 O161 O 0.55473 0.45050 0.23479
 O162 O 0.46880 0.53896 0.20948
 Cu163 Cu 0.49199 0.49672 0.30325
 Cu164 Cu 0.51374 0.49444 0.21501
 C165 C 0.44527 0.55513 0.24207
 C166 C 0.56023 0.43610 0.27547
 C167 C 0.56226 0.55421 0.27328
 C168 C 0.44403 0.43610 0.24554
 O169 O 0.24205 0.11960 0.20091
 O170 O 0.28378 0.10991 0.27260
 O171 O 0.12530 0.19515 0.23503
 O172 O 0.11037 0.26060 0.27534
 O173 O 0.20461 0.23319 0.12271
 O174 O 0.27348 0.27787 0.11430
 O175 O 0.23654 0.32459 0.35762
 O176 O 0.17974 0.26674 0.36926
 O177 O 0.35627 0.23815 0.33101
 O178 O 0.37490 0.18195 0.27420
 O179 O 0.32691 0.35534 0.24468
 O180 O 0.26995 0.37013 0.18450
 O181 O 0.26094 0.36980 0.29938
 O182 O 0.21642 0.38160 0.22562
 O183 O 0.37197 0.29647 0.26918
 O184 O 0.38586 0.22408 0.22079
 O185 O 0.29693 0.26328 0.37424
 O186 O 0.23627 0.21585 0.38863
 O187 O 0.26408 0.16594 0.14248
 O188 O 0.31886 0.22432 0.12829
 O189 O 0.14403 0.25351 0.16693
 O190 O 0.12814 0.31139 0.22428
 O191 O 0.17192 0.13568 0.25492
 O192 O 0.22885 0.12050 0.31452
 Zr193 Zr 0.23802 0.16436 0.25756
 O194 O 0.27869 0.20447 0.30191
 Zr195 Zr 0.16945 0.25243 0.23469
 O196 O 0.20703 0.29655 0.27824
 Zr197 Zr 0.26013 0.23281 0.16932
 O198 O 0.30174 0.27604 0.20967
 Zr199 Zr 0.23971 0.25812 0.32989
 O200 O 0.19704 0.21425 0.29006
 Zr201 Zr 0.32970 0.23799 0.26422
 O202 O 0.29251 0.19332 0.22060
 Zr203 Zr 0.26102 0.32628 0.24146
 O204 O 0.21999 0.28635 0.19643
 O205 O 0.20754 0.20065 0.20420
 O206 O 0.29226 0.29054 0.29491
 C207 C 0.25425 0.12649 0.15931
 C208 C 0.13249 0.15264 0.24468
 C209 C 0.16223 0.24360 0.12815
 C210 C 0.24889 0.36342 0.34114
 C211 C 0.33916 0.25211 0.36889
 C212 C 0.36535 0.33881 0.25872
 H213 H 0.29164 0.18466 0.32634
 H214 H 0.32565 0.28980 0.19031
 H215 H 0.18881 0.18078 0.18394
 H216 H 0.18612 0.31980 0.29130
 H217 H 0.15916 0.24082 0.36162
 H218 H 0.11983 0.27763 0.30318
 H219 H 0.39053 0.25109 0.20086
 H220 H 0.34072 0.20567 0.14654
 H221 H 0.22216 0.18679 0.37852
 H222 H 0.20143 0.13141 0.33107
 H223 H 0.29370 0.35615 0.16489
 H224 H 0.25231 0.30425 0.11771
 H225 H 0.31025 0.11348 0.25193
 H226 H 0.35954 0.16014 0.29495
 H227 H 0.14505 0.33159 0.20312
 H228 H 0.19297 0.38337 0.24983
 O229 O 0.71683 0.85308 0.16953
 O230 O 0.67089 0.86412 0.23755
 O231 O 0.85138 0.83457 0.23201
 O232 O 0.88323 0.78420 0.28241
 O233 O 0.80250 0.74029 0.12486
 O234 O 0.74905 0.67689 0.12566
 O235 O 0.77084 0.70109 0.37299
 O236 O 0.81334 0.77280 0.37028
 O237 O 0.64035 0.73210 0.32387
 O238 O 0.61082 0.77362 0.25355
 O239 O 0.70867 0.61981 0.26288
 O240 O 0.78009 0.61608 0.21103
 O241 O 0.76939 0.63886 0.32598
 O242 O 0.82092 0.62354 0.26901
 O243 O 0.64552 0.66491 0.26912
 O244 O 0.61401 0.71773 0.21343
 O245 O 0.69802 0.75381 0.37187
 O246 O 0.74963 0.81285 0.37556
 O247 O 0.72190 0.78990 0.12396
 O248 O 0.69183 0.71629 0.12079
 O249 O 0.85983 0.76349 0.17260
 O250 O 0.88736 0.72206 0.23905
 O251 O 0.78477 0.87466 0.22528
 O252 O 0.72580 0.88374 0.27982
 Zr253 Zr 0.73305 0.82679 0.23535
 O254 O 0.70412 0.78714 0.28777
 Zr255 Zr 0.82889 0.76527 0.23785
 O256 O 0.80265 0.72095 0.28911
 Zr257 Zr 0.74420 0.73650 0.16693
 O258 O 0.71327 0.69324 0.21518
 Zr259 Zr 0.75544 0.75712 0.32917
 O260 O 0.78449 0.80271 0.28072
 Zr261 Zr 0.66977 0.73130 0.25819
 O262 O 0.69532 0.77323 0.20520
 Zr263 Zr 0.76371 0.66729 0.25980
 O264 O 0.79585 0.70758 0.20847
 O265 O 0.77939 0.79232 0.19382
 O266 O 0.71830 0.70213 0.30218
 C267 C 0.71256 0.83242 0.13071
 C268 C 0.82844 0.87218 0.22656
 C269 C 0.84434 0.75132 0.13296
 C270 C 0.77297 0.65748 0.36584
 C271 C 0.65624 0.74303 0.36361
 C272 C 0.66515 0.62562 0.26699
 H273 H 0.68333 0.80681 0.30583
 H274 H 0.69696 0.66891 0.19801
 H275 H 0.79211 0.81243 0.16976
 H276 H 0.82782 0.70855 0.30834
 H277 H 0.82858 0.79944 0.35593
 H278 H 0.88108 0.76512 0.31034
 H279 H 0.62369 0.69337 0.19189
 H280 H 0.66291 0.72874 0.13323
 H281 H 0.72922 0.83588 0.36117
 H282 H 0.75142 0.88206 0.30220
 H283 H 0.75216 0.61031 0.19251
 H284 H 0.77783 0.66107 0.13451
 H285 H 0.64833 0.84658 0.21909
 H286 H 0.61304 0.79747 0.27766
 H287 H 0.88040 0.69537 0.21914
 H288 H 0.84829 0.64338 0.26942
 O289 O 0.71270 0.13186 0.81914
 O290 O 0.66810 0.12743 0.74954
 O291 O 0.84755 0.15742 0.77090
 O292 O 0.88313 0.21151 0.72948
 O293 O 0.78898 0.23484 0.88202
 O294 O 0.73909 0.30130 0.88437
 O295 O 0.76407 0.30240 0.63468
 O296 O 0.81409 0.23765 0.63182
 O297 O 0.64065 0.26847 0.67379
 O298 O 0.60664 0.22322 0.73791
 O299 O 0.70773 0.37475 0.74791
 O300 O 0.77062 0.37858 0.80037
 O301 O 0.77189 0.35936 0.68745
 O302 O 0.82341 0.36267 0.75957
 O303 O 0.64431 0.33164 0.73450
 O304 O 0.60945 0.27468 0.78368
 O305 O 0.69975 0.24730 0.62810
 O306 O 0.75784 0.18670 0.62707
 O307 O 0.71622 0.18828 0.87309
 O308 O 0.67732 0.26274 0.87639
 O309 O 0.85126 0.22166 0.83746
 O310 O 0.88108 0.27217 0.77573
 O311 O 0.78134 0.11672 0.76508
 O312 O 0.72358 0.11441 0.70601
 Zr313 Zr 0.72928 0.16529 0.75757
 O314 O 0.70198 0.21004 0.70834
 Zr315 Zr 0.82482 0.22685 0.76934
 O316 O 0.80123 0.27464 0.71937
 Zr317 Zr 0.73512 0.24729 0.83596
 O318 O 0.70863 0.29632 0.79003
 Zr319 Zr 0.75551 0.24262 0.67366
 O320 O 0.78349 0.19357 0.71955
 Zr321 Zr 0.66676 0.26354 0.74109
 O322 O 0.68899 0.21510 0.79060
 Zr323 Zr 0.76148 0.32582 0.75129
 O324 O 0.78900 0.28065 0.80204
 O325 O 0.77271 0.19536 0.80527
 O326 O 0.71769 0.29551 0.70346
 C327 C 0.71006 0.14637 0.86063
 C328 C 0.82484 0.11947 0.76929
 C329 C 0.83129 0.22467 0.87669
 C330 C 0.76967 0.34466 0.64573
 C331 C 0.65792 0.25875 0.63456
 C332 C 0.66445 0.37027 0.74062
 H333 H 0.68199 0.19202 0.68763
 H334 H 0.69176 0.31951 0.80808
 H335 H 0.78483 0.17240 0.82719
 H336 H 0.82711 0.28807 0.70246
 H337 H 0.83395 0.21373 0.64570
 H338 H 0.88226 0.23172 0.70228
 H339 H 0.61903 0.29571 0.80860
 H340 H 0.65165 0.24443 0.86374
 H341 H 0.72922 0.16901 0.63037
 H342 H 0.75115 0.11701 0.68667
 H343 H 0.74808 0.37319 0.82488
 H344 H 0.76826 0.31748 0.87871
 H345 H 0.64434 0.14393 0.76717
 H346 H 0.61111 0.19933 0.71420
 H347 H 0.87253 0.29581 0.79856
 H348 H 0.84326 0.35564 0.73313
 O349 O 0.24371 0.88306 0.78143
 O350 O 0.27767 0.88823 0.70933
 O351 O 0.12392 0.80425 0.75391
 O352 O 0.11063 0.73132 0.72087
 O353 O 0.20736 0.76630 0.87178
 O354 O 0.27895 0.73939 0.88592
 O355 O 0.24305 0.66931 0.64156
 O356 O 0.18422 0.72026 0.62187
 O357 O 0.35680 0.75484 0.66682
 O358 O 0.37673 0.81234 0.71810
 O359 O 0.32548 0.64288 0.75730
 O360 O 0.27228 0.63161 0.81757
 O361 O 0.25431 0.62544 0.70497
 O362 O 0.21419 0.62290 0.78273
 O363 O 0.37144 0.70054 0.73308
 O364 O 0.38268 0.77791 0.77851
 O365 O 0.29635 0.73326 0.62243
 O366 O 0.22038 0.77961 0.61145
 O367 O 0.25647 0.84354 0.84748
 O368 O 0.32186 0.78829 0.86089
 O369 O 0.14317 0.75180 0.82962
 O370 O 0.12763 0.68965 0.77594
 O371 O 0.17092 0.86351 0.73588
 O372 O 0.22187 0.86738 0.66852
 Zr373 Zr 0.23608 0.83327 0.73104
 O374 O 0.27856 0.79098 0.69135
 Zr375 Zr 0.16859 0.74751 0.76156
 O376 O 0.20631 0.70135 0.72041
 Zr377 Zr 0.26044 0.77384 0.82481
 O378 O 0.30093 0.72594 0.78872
 Zr379 Zr 0.23921 0.73621 0.66667
 O380 O 0.19521 0.78085 0.70337
 Zr381 Zr 0.32930 0.75971 0.73242
 O382 O 0.29166 0.80867 0.77049
 Zr383 Zr 0.26028 0.67361 0.75955
 O384 O 0.22086 0.71746 0.80190
 O385 O 0.20647 0.80191 0.78763
 O386 O 0.29183 0.70557 0.70441
 C387 C 0.25049 0.88111 0.82463
 C388 C 0.13139 0.84670 0.74465
 C389 C 0.16467 0.75702 0.86805
 C390 C 0.24840 0.63051 0.66144
 C391 C 0.33901 0.74251 0.62849
 C392 C 0.36433 0.65856 0.74451
 H393 H 0.29185 0.80950 0.66642
 H394 H 0.32481 0.71326 0.80933
 H395 H 0.18755 0.82238 0.80695
 H396 H 0.18556 0.67727 0.70856
 H397 H 0.16074 0.70459 0.64030
 H398 H 0.11541 0.74605 0.69072
 H399 H 0.39049 0.75064 0.79722
 H400 H 0.33651 0.81438 0.84507
 H401 H 0.24690 0.79932 0.60436
 H402 H 0.19429 0.85282 0.65505
 H403 H 0.29501 0.64742 0.83725
 H404 H 0.26947 0.70707 0.88160
 H405 H 0.30719 0.88503 0.72595
 H406 H 0.36059 0.83509 0.69866
 H407 H 0.14347 0.67244 0.80066
 H408 H 0.19065 0.61836 0.75859
 O409 O 0.23374 0.37245 0.69524
 O410 O 0.19272 0.37775 0.76616
 O411 O 0.36512 0.32312 0.74741
 O412 O 0.39023 0.26183 0.78681
 O413 O 0.30534 0.26405 0.62547
 O414 O 0.24498 0.20944 0.61275
 O415 O 0.26303 0.17725 0.86018
 O416 O 0.31449 0.24179 0.87382
 O417 O 0.13918 0.23948 0.81834
 O418 O 0.11710 0.29172 0.75547
 O419 O 0.19762 0.12790 0.74195
 O420 O 0.26072 0.12310 0.68569
 O421 O 0.26585 0.12720 0.80045
 O422 O 0.31141 0.12186 0.73115
 O423 O 0.13980 0.17853 0.75502
 O424 O 0.11601 0.24404 0.70661
 O425 O 0.19803 0.23313 0.86932
 O426 O 0.25421 0.28706 0.88653
 O427 O 0.23926 0.32262 0.63540
 O428 O 0.19063 0.25719 0.62060
 O429 O 0.36455 0.26103 0.67654
 O430 O 0.38511 0.20725 0.73741
 O431 O 0.30579 0.37387 0.74952
 O432 O 0.24970 0.37802 0.80956
 Zr433 Zr 0.24758 0.33208 0.75334
 O434 O 0.21128 0.28667 0.79531
 Zr435 Zr 0.33342 0.25821 0.74155
 O436 O 0.30078 0.20920 0.78310
 Zr437 Zr 0.24700 0.25822 0.66650
 O438 O 0.21069 0.20943 0.70452
 Zr439 Zr 0.25687 0.24216 0.82939
 O440 O 0.29401 0.29188 0.79191
 Zr441 Zr 0.17114 0.24315 0.75422
 O442 O 0.20317 0.29245 0.71230
 Zr443 Zr 0.25704 0.16872 0.74215
 O444 O 0.29384 0.21425 0.69980
 O445 O 0.28926 0.30068 0.70506
 O446 O 0.21463 0.19926 0.79077
 C447 C 0.23372 0.36293 0.65233
 C448 C 0.34860 0.36418 0.74858
 C449 C 0.34812 0.26319 0.63553
 C450 C 0.26654 0.13661 0.84340
 C451 C 0.15527 0.23475 0.85912
 C452 C 0.15534 0.13778 0.74866
 H453 H 0.19257 0.30474 0.81698
 H454 H 0.19169 0.19077 0.68347
 H455 H 0.30570 0.32281 0.68551
 H456 H 0.32414 0.19066 0.79945
 H457 H 0.33256 0.26957 0.86670
 H458 H 0.38258 0.24343 0.81414
 H459 H 0.12285 0.22168 0.68203
 H460 H 0.16610 0.27554 0.63510
 H461 H 0.24134 0.31649 0.87562
 H462 H 0.27654 0.36919 0.82859
 H463 H 0.23412 0.12932 0.66541
 H464 H 0.26935 0.18668 0.61949
 H465 H 0.16717 0.36821 0.74581
 H466 H 0.12300 0.31298 0.78134
 H467 H 0.37570 0.18565 0.71287
 H468 H 0.33593 0.12900 0.75363
 O469 O 0.77007 0.63478 0.70203
 O470 O 0.81114 0.63401 0.77426
 O471 O 0.63708 0.68183 0.74219
 O472 O 0.60843 0.74282 0.78033
 O473 O 0.70084 0.74646 0.62546
 O474 O 0.76570 0.79530 0.61614
 O475 O 0.72422 0.83209 0.86137
 O476 O 0.67596 0.76767 0.87229
 O477 O 0.85367 0.78113 0.83190
 O478 O 0.88090 0.71989 0.77529
 O479 O 0.79889 0.88174 0.74787
 O480 O 0.73824 0.88254 0.68549
 O481 O 0.72706 0.88174 0.80140
 O482 O 0.68632 0.88610 0.72935
 O483 O 0.85759 0.83275 0.76387
 O484 O 0.88594 0.76613 0.72332
 O485 O 0.78983 0.78566 0.87558
 O486 O 0.73413 0.71995 0.88689
 O487 O 0.76721 0.68328 0.64096
 O488 O 0.81677 0.74825 0.62941
 O489 O 0.63939 0.73856 0.67197
 O490 O 0.61413 0.79591 0.72611
 O491 O 0.69652 0.63411 0.75967
 O492 O 0.75431 0.63119 0.81537
 Zr493 Zr 0.75434 0.67665 0.75900
 O494 O 0.78576 0.72422 0.80369
 Zr495 Zr 0.66686 0.74721 0.73814
 O496 O 0.69465 0.79833 0.78120
 Zr497 Zr 0.75766 0.74848 0.67076
 O498 O 0.79011 0.79904 0.71124
 Zr499 Zr 0.73573 0.76754 0.83186
 O500 O 0.70366 0.71598 0.79214
 Zr501 Zr 0.82722 0.76797 0.76527
 O502 O 0.79966 0.71719 0.72102
 Zr503 Zr 0.74023 0.83951 0.74391
 O504 O 0.70777 0.79188 0.69934
 O505 O 0.71461 0.70506 0.70657
 O506 O 0.77941 0.81087 0.79635
 C507 C 0.77263 0.64332 0.65888
 C508 C 0.65398 0.64223 0.75205
 C509 C 0.65766 0.74195 0.63228
 C510 C 0.72270 0.87264 0.84427
 C511 C 0.83303 0.78944 0.86984
 C512 C 0.84130 0.87293 0.75621
 H513 H 0.80356 0.70797 0.82762
 H514 H 0.81002 0.81764 0.69137
 H515 H 0.69964 0.68178 0.68680
 H516 H 0.66972 0.81659 0.79503
 H517 H 0.65743 0.74099 0.86228
 H518 H 0.61160 0.76622 0.80475
 H519 H 0.87836 0.78277 0.69472
 H520 H 0.84004 0.72947 0.64572
 H521 H 0.76541 0.70790 0.89220
 H522 H 0.73416 0.64531 0.83861
 H523 H 0.76796 0.87954 0.66971
 H524 H 0.74281 0.81994 0.62084
 H525 H 0.83682 0.64515 0.75540
 H526 H 0.87585 0.70414 0.80483
 H527 H 0.62548 0.81736 0.70252
 H528 H 0.65939 0.87622 0.74708
 O529 O 0.25945 0.62125 0.29653
 O530 O 0.21871 0.60730 0.22574
 O531 O 0.37499 0.69682 0.25925
 O532 O 0.38897 0.76007 0.21635
 O533 O 0.29634 0.73757 0.37000
 O534 O 0.22669 0.78292 0.37713
 O535 O 0.26178 0.81792 0.13158
 O536 O 0.31586 0.76240 0.11884
 O537 O 0.14192 0.73462 0.16277
 O538 O 0.12545 0.67866 0.22172
 O539 O 0.17141 0.85341 0.24413
 O540 O 0.22755 0.87238 0.30210
 O541 O 0.23741 0.86571 0.18812
 O542 O 0.28154 0.88130 0.26149
 O543 O 0.12603 0.79339 0.22394
 O544 O 0.11409 0.72259 0.27375
 O545 O 0.20106 0.75791 0.11860
 O546 O 0.27086 0.70384 0.10985
 O547 O 0.23769 0.66989 0.35354
 O548 O 0.18195 0.72830 0.36583
 O549 O 0.35647 0.75580 0.32456
 O550 O 0.36920 0.81379 0.26580
 O551 O 0.32950 0.63624 0.24053
 O552 O 0.27374 0.61887 0.18214
 Zr553 Zr 0.26265 0.66359 0.23814
 O554 O 0.22045 0.70082 0.19255
 Zr555 Zr 0.33004 0.75326 0.25742
 O556 O 0.29160 0.79422 0.21193
 Zr557 Zr 0.24020 0.73542 0.32398
 O558 O 0.19768 0.77629 0.28208
 Zr559 Zr 0.25900 0.75311 0.16222
 O560 O 0.30280 0.71252 0.20397
 Zr561 Zr 0.16954 0.73571 0.22936
 O562 O 0.20799 0.69351 0.27445
 Zr563 Zr 0.23754 0.82518 0.24786
 O564 O 0.27927 0.78817 0.29469
 O565 O 0.29288 0.70233 0.28981
 O566 O 0.20628 0.78686 0.19624
 C567 C 0.24782 0.62986 0.33807
 C568 C 0.36849 0.65405 0.25089
 C569 C 0.33880 0.74697 0.36373
 C570 C 0.24975 0.85748 0.14676
 C571 C 0.15872 0.74787 0.12454
 C572 C 0.13263 0.83608 0.23260
 H573 H 0.20710 0.67974 0.16952
 H574 H 0.17385 0.79080 0.30116
 H575 H 0.31194 0.68323 0.31054
 H576 H 0.31210 0.81699 0.19778
 H577 H 0.34116 0.74361 0.13173
 H578 H 0.37996 0.77816 0.18905
 H579 H 0.11017 0.74959 0.29399
 H580 H 0.16045 0.70824 0.34878
 H581 H 0.24193 0.68752 0.10313
 H582 H 0.29396 0.63544 0.16077
 H583 H 0.20620 0.85801 0.32392
 H584 H 0.24822 0.80875 0.37308
 H585 H 0.19126 0.61237 0.24480
 H586 H 0.14029 0.65690 0.20038
 H587 H 0.35300 0.83319 0.28840
 H588 H 0.30505 0.88202 0.23730
 O589 O 0.77500 0.35900 0.33440
 O590 O 0.82306 0.37743 0.27221
 O591 O 0.64723 0.32812 0.26803
 O592 O 0.61917 0.27856 0.21803
 O593 O 0.70165 0.23474 0.37251
 O594 O 0.76236 0.18146 0.37440
 O595 O 0.73846 0.21499 0.12434
 O596 O 0.69722 0.28343 0.12678
 O597 O 0.86865 0.24519 0.17875
 O598 O 0.89715 0.28293 0.24269
 O599 O 0.80479 0.13067 0.22137
 O600 O 0.74505 0.11123 0.27252
 O601 O 0.73543 0.14963 0.16662
 O602 O 0.68884 0.13106 0.23765
 O603 O 0.86575 0.17663 0.23626
 O604 O 0.88861 0.23736 0.29480
 O605 O 0.81128 0.26642 0.13011
 O606 O 0.75547 0.32785 0.13067
 O607 O 0.76880 0.29587 0.37968
 O608 O 0.81793 0.22616 0.37587
 O609 O 0.64439 0.25726 0.32438
 O610 O 0.62355 0.21372 0.25405
 O611 O 0.70779 0.37696 0.27110
 O612 O 0.77312 0.39109 0.22385
 Zr613 Zr 0.76562 0.33367 0.26736
 O614 O 0.80053 0.29792 0.21561
 Zr615 Zr 0.67636 0.26305 0.26032
 O616 O 0.70668 0.22566 0.20684
 Zr617 Zr 0.76121 0.24069 0.33268
 O618 O 0.79467 0.20023 0.28283
 Zr619 Zr 0.75264 0.26745 0.17116
 O620 O 0.71751 0.30679 0.22046
 Zr621 Zr 0.83720 0.24246 0.24352
 O622 O 0.80748 0.28234 0.29657
 Zr623 Zr 0.74771 0.17308 0.23469
 O624 O 0.71360 0.20801 0.28888
 O625 O 0.72156 0.29375 0.30607
 O626 O 0.79215 0.21286 0.19603
 C627 C 0.77419 0.33934 0.37379
 C628 C 0.66468 0.36841 0.27016
 C629 C 0.65955 0.24432 0.36373
 C630 C 0.73193 0.17177 0.12853
 C631 C 0.85315 0.25633 0.13887
 C632 C 0.84791 0.13758 0.22661
 H633 H 0.82116 0.31911 0.19939
 H634 H 0.81207 0.17589 0.29894
 H635 H 0.70509 0.31203 0.32938
 H636 H 0.68208 0.21375 0.18669
 H637 H 0.67687 0.30471 0.14367
 H638 H 0.62599 0.26719 0.18686
 H639 H 0.88257 0.20912 0.31254
 H640 H 0.84044 0.25102 0.37121
 H641 H 0.78314 0.34532 0.13948
 H642 H 0.74997 0.38774 0.19911
 H643 H 0.76672 0.11417 0.29857
 H644 H 0.74163 0.15909 0.35941
 H645 H 0.84687 0.36043 0.28965
 H646 H 0.88731 0.31524 0.23927
 H647 H 0.63058 0.18885 0.27614
 H648 H 0.66672 0.14251 0.21445
 N649 N 0.28197 0.08656 0.09560
 N650 N 0.25430 0.08822 0.12895
 N651 N 0.75376 0.59798 0.59528
 N652 N 0.78086 0.60567 0.62874
 N653 N 0.70189 0.89643 0.08171
 N654 N 0.69373 0.85637 0.09231
 N655 N 0.25653 0.40347 0.58810
 N656 N 0.22894 0.39996 0.62128
 N657 N 0.73638 0.09445 0.91581
 N658 N 0.70242 0.11310 0.89540
 N659 N 0.22489 0.59426 0.40604
 N660 N 0.24873 0.59289 0.36981
 N661 N 0.25481 0.93252 0.88790
 N662 N 0.24971 0.92469 0.84678
 N663 N 0.79665 0.40616 0.41378
 N664 N 0.77492 0.36831 0.41345
 N665 N 0.09789 0.26692 0.08532
 N666 N 0.13269 0.24084 0.08912
 N667 N 0.58976 0.72168 0.59325
 N668 N 0.62776 0.74295 0.59333
 N669 N 0.10126 0.75477 0.91924
 N670 N 0.14213 0.74941 0.91061
 N671 N 0.59295 0.26725 0.40220
 N672 N 0.62770 0.24087 0.40034
 N673 N 0.91140 0.77413 0.09426
 N674 N 0.87523 0.74989 0.09510
 N675 N 0.41444 0.24048 0.59670
 N676 N 0.37930 0.26619 0.59849
 N677 N 0.89446 0.22002 0.92803
 N678 N 0.85475 0.21057 0.91740
 N679 N 0.40732 0.76482 0.40207
 N680 N 0.36907 0.74411 0.40219
 N681 N 0.09384 0.08493 0.26494
 N682 N 0.09458 0.12182 0.24161
 N683 N 0.58864 0.60174 0.72885
 N684 N 0.62351 0.60451 0.75495
 N685 N 0.88899 0.06949 0.77388
 N686 N 0.84746 0.07636 0.77392
 N687 N 0.41022 0.58778 0.23233
 N688 N 0.40661 0.62394 0.25640
 N689 N 0.09649 0.91373 0.77085
 N690 N 0.09369 0.87777 0.74618
 N691 N 0.59334 0.40144 0.28399
 N692 N 0.63379 0.40611 0.26914
 N693 N 0.89096 0.92477 0.22812
 N694 N 0.85090 0.91495 0.21924
 N695 N 0.41893 0.40070 0.76399
 N696 N 0.37930 0.40192 0.74586
 N697 N 0.08652 0.25458 0.89484
 N698 N 0.12362 0.23166 0.89576
 N699 N 0.58924 0.72092 0.40199
 N700 N 0.62511 0.74546 0.40087
 N701 N 0.89626 0.79543 0.92030
 N702 N 0.85792 0.80795 0.90773
 N703 N 0.40612 0.23313 0.40893
 N704 N 0.36965 0.25703 0.40691
 N705 N 0.08988 0.73321 0.08494
 N706 N 0.12790 0.75432 0.08690
 N707 N 0.59183 0.28142 0.59400
 N708 N 0.62803 0.25725 0.59595
 N709 N 0.91915 0.23232 0.09927
 N710 N 0.88414 0.25820 0.10147
 N711 N 0.40600 0.76119 0.58969
 N712 N 0.36914 0.73804 0.59055
 N713 N 0.25325 0.10073 0.91382
 N714 N 0.27135 0.09915 0.87440
 N715 N 0.76033 0.58857 0.40620
 N716 N 0.77935 0.62790 0.40478
 N717 N 0.71805 0.10749 0.07993
 N718 N 0.71720 0.14905 0.08765
 N719 N 0.26112 0.59358 0.59177
 N720 N 0.24660 0.59075 0.63272
 N721 N 0.73609 0.90795 0.91466
 N722 N 0.71693 0.91006 0.87540
 N723 N 0.22433 0.40496 0.40573
 N724 N 0.25092 0.40175 0.37155
 N725 N 0.27742 0.89635 0.08240
 N726 N 0.24961 0.89487 0.11563
 N727 N 0.79304 0.41366 0.60822
 N728 N 0.76949 0.37698 0.60870
 N729 N 0.08726 0.10448 0.77314
 N730 N 0.12351 0.10091 0.74959
 N731 N 0.59528 0.58942 0.28086
 N732 N 0.63594 0.58635 0.26567
 N733 N 0.09023 0.89830 0.25901
 N734 N 0.09435 0.86637 0.22960
 N735 N 0.59740 0.41083 0.72217
 N736 N 0.63603 0.41025 0.74270
 N737 N 0.91101 0.09574 0.25221
 N738 N 0.87786 0.09892 0.22384
 N739 N 0.40598 0.59237 0.76697
 N740 N 0.40176 0.62705 0.74071
 N741 N 0.90997 0.90708 0.77925
 N742 N 0.87280 0.91014 0.75642
 N743 N 0.40895 0.40301 0.23720
 N744 N 0.40292 0.36963 0.26454
   
