data_POSCAR
  _audit_creation_date              2014-09-24
  _audit_creation_method            'ToBaCCo'
  _symmetry_space_group_name_H-M    'P1'
  _symmetry_Int_Tables_number       1
  _symmetry_cell_setting            triclinic
  loop_
  _symmetry_equiv_pos_as_xyz
 x,y,z
_cell_length_a 34.2193
_cell_length_b 24.8075
_cell_length_c 12.9907
_cell_angle_alpha 89.168900
_cell_angle_beta 89.561400
_cell_angle_gamma 89.600100
loop_
  _atom_site_label
  _atom_site_type_symbol
  _atom_site_fract_x
  _atom_site_fract_y
  _atom_site_fract_z
C1 C 0.83145 0.20851 0.39657
 C2 C 0.85415 0.20280 0.48579
 C3 C 0.83879 0.21138 0.58446
 C4 C 0.80064 0.23416 0.59431
 C5 C 0.77816 0.24450 0.50438
 C6 C 0.79335 0.23074 0.40574
 C7 C 0.77089 0.24248 0.31789
 C8 C 0.73454 0.26694 0.32594
 C9 C 0.71907 0.28143 0.42197
 C10 C 0.74058 0.26948 0.51258
 C11 C 0.78543 0.25065 0.68972
 C12 C 0.74814 0.27310 0.69825
 C13 C 0.72507 0.28361 0.61074
 C14 C 0.68698 0.30732 0.61791
 C15 C 0.66691 0.31918 0.52565
 C16 C 0.68270 0.30807 0.42876
 H17 H 0.78155 0.23478 0.24094
 H18 H 0.71868 0.27444 0.25535
 H19 H 0.80256 0.24789 0.75913
 H20 H 0.73820 0.28250 0.77496
 H21 H 0.88271 0.18385 0.48049
 H22 H 0.64023 0.34282 0.52763
 C23 C 0.30411 0.66632 0.43311
 C24 C 0.31924 0.65490 0.53062
 C25 C 0.30471 0.67988 0.61945
 C26 C 0.27309 0.71682 0.61053
 C27 C 0.25743 0.72894 0.51183
 C28 C 0.27301 0.70351 0.42296
 C29 C 0.25793 0.71711 0.32568
 C30 C 0.22867 0.75572 0.31513
 C31 C 0.21323 0.78195 0.40148
 C32 C 0.22682 0.76763 0.50134
 C33 C 0.25779 0.74365 0.69662
 C34 C 0.22748 0.78125 0.68648
 C35 C 0.21069 0.79302 0.59002
 C36 C 0.18083 0.83290 0.57698
 C37 C 0.17006 0.84835 0.47707
 C38 C 0.18465 0.82247 0.39028
 H39 H 0.26916 0.69889 0.25620
 H40 H 0.21852 0.76523 0.23821
 H41 H 0.26980 0.73681 0.77255
 H42 H 0.21871 0.80267 0.75474
 H43 H 0.34231 0.62490 0.53750
 H44 H 0.14819 0.87985 0.46600
 C45 C 0.18016 0.19064 -0.43816
 C46 C 0.16569 0.17918 -0.53639
 C47 C 0.18812 0.18589 -0.62718
 C48 C 0.22700 0.20545 -0.61851
 C49 C 0.24109 0.22156 -0.52089
 C50 C 0.21754 0.21460 -0.43107
 C51 C 0.23161 0.23314 -0.33642
 C52 C 0.26836 0.25587 -0.32880
 C53 C 0.29265 0.26182 -0.41558
 C54 C 0.27904 0.24458 -0.51276
 C55 C 0.25214 0.21042 -0.70456
 C56 C 0.28974 0.23057 -0.69542
 C57 C 0.30320 0.25060 -0.60170
 C58 C 0.34100 0.27358 -0.59241
 C59 C 0.35442 0.28693 -0.49449
 C60 C 0.33038 0.28399 -0.40700
 H61 H 0.21411 0.23153 -0.26685
 H62 H 0.27767 0.26806 -0.25328
 H63 H 0.24355 0.19881 -0.78074
 H64 H 0.30828 0.22952 -0.76308
 H65 H 0.13850 0.15762 -0.54126
 H66 H 0.38270 0.30609 -0.48836
 C67 C -0.32693 0.69377 -0.40398
 C68 C -0.34463 0.68202 -0.49828
 C69 C -0.32748 0.69490 -0.59439
 C70 C -0.29096 0.72210 -0.59570
 C71 C -0.27306 0.73634 -0.50144
 C72 C -0.29101 0.72206 -0.40567
 C73 C -0.27325 0.73839 -0.31392
 C74 C -0.23841 0.76663 -0.31541
 C75 C -0.21987 0.78055 -0.40860
 C76 C -0.23707 0.76525 -0.50281
 C77 C -0.27225 0.73694 -0.68868
 C78 C -0.23668 0.76355 -0.68983
 C79 C -0.21864 0.77925 -0.59817
 C80 C -0.18241 0.80744 -0.59886
 C81 C -0.16632 0.82167 -0.50355
 C82 C -0.18452 0.80942 -0.40946
 H83 H -0.28639 0.73081 -0.23928
 H84 H -0.22609 0.77728 -0.24204
 H85 H -0.28479 0.72891 -0.76280
 H86 H -0.22376 0.77123 -0.76458
 H87 H -0.36974 0.65591 -0.49656
 H88 H -0.14102 0.84750 -0.50142
 O89 O -0.04377 0.97651 0.19264
 O90 O 0.04378 0.96858 -0.22150
 O91 O -0.07421 0.95414 -0.11263
 O92 O 0.07388 0.95889 0.08776
 O93 O -0.02022 0.93005 -0.18512
 O94 O 0.01999 0.93586 0.16131
 O95 O 0.06577 0.93669 -0.08280
 O96 O -0.06524 0.93693 0.06411
 C97 C -0.06060 0.93703 0.15776
 C98 C 0.06392 0.93384 -0.17672
 C99 C -0.05498 0.92072 -0.16520
 C100 C 0.05469 0.92578 0.14180
 O101 O 0.05044 1.03363 0.17302
 O102 O -0.05177 1.02768 -0.21284
 O103 O -0.07057 1.04870 0.10139
 O104 O 0.06920 1.04528 -0.14191
 O105 O 0.01302 1.06704 -0.20319
 O106 O -0.01408 1.07293 0.15426
 O107 O 0.06655 1.06883 0.03203
 O108 O -0.06927 1.06439 -0.07497
 Co109 Co 0.00278 1.00437 0.15113
 Co110 Co -0.00344 0.99867 -0.18576
 Co111 Co -0.06352 1.00096 -0.00627
 Co112 Co 0.06256 1.00249 -0.02515
 O113 O -0.00042 1.00167 -0.01670
 C114 C 0.06507 1.07217 0.12617
 C115 C -0.06981 1.06458 -0.16936
 C116 C -0.04922 1.08308 0.14343
 C117 C 0.04825 1.07685 -0.19486
 O118 O 0.44638 0.45469 0.20602
 O119 O 0.54574 0.46699 -0.18371
 O120 O 0.42569 0.44613 -0.10869
 O121 O 0.56796 0.45026 0.12922
 O122 O 0.48237 0.42498 -0.16647
 O123 O 0.51281 0.42161 0.18782
 O124 O 0.56623 0.43092 -0.04739
 O125 O 0.43024 0.42189 0.06452
 C126 C 0.43032 0.41805 0.15879
 C127 C 0.56267 0.42867 -0.14129
 C128 C 0.44760 0.41330 -0.15445
 C129 C 0.54858 0.41527 0.17849
 O130 O 0.53781 0.52156 0.21487
 O131 O 0.44996 0.52269 -0.18974
 O132 O 0.41932 0.52916 0.12017
 O133 O 0.56830 0.54151 -0.09502
 O134 O 0.51297 0.56326 -0.16166
 O135 O 0.47248 0.55583 0.18764
 O136 O 0.55982 0.55983 0.08134
 O137 O 0.42747 0.55503 -0.05317
 Co138 Co 0.49257 0.48880 0.17977
 Co139 Co 0.49741 0.49413 -0.15669
 Co140 Co 0.43215 0.48849 0.00610
 Co141 Co 0.55905 0.49528 0.01642
 O142 O 0.49529 0.49172 0.01141
 C143 C 0.55390 0.56120 0.17481
 C144 C 0.43193 0.55954 -0.14685
 C145 C 0.43715 0.56255 0.17395
 C146 C 0.54780 0.57386 -0.14770
 C147 C 0.36580 0.28894 0.32522
 C148 C 0.35355 0.31404 0.23884
 C149 C 0.38030 0.34683 0.17380
 C150 C 0.40851 0.37648 0.21578
 H151 H 0.32281 0.31727 0.22095
 H152 H 0.37312 0.35260 0.09331
 H153 H 0.39683 0.29036 0.34134
 H154 H 0.41308 0.37491 0.29817
 C155 C -0.16415 0.82617 0.30867
 C156 C -0.12606 0.83867 0.30215
 C157 C -0.10953 0.86995 0.21496
 C158 C -0.07576 0.89549 0.22849
 H159 H -0.10657 0.82858 0.36493
 H160 H -0.12647 0.87700 0.14583
 H161 H -0.18148 0.83317 0.24053
 H162 H -0.06084 0.89107 0.30156
 C163 C 0.65503 0.67532 0.31452
 C164 C 0.61690 0.66352 0.30783
 C165 C 0.60130 0.63052 0.22431
 C166 C 0.56771 0.60454 0.24046
 H167 H 0.59675 0.67505 0.36848
 H168 H 0.61894 0.62239 0.15654
 H169 H 0.67311 0.66668 0.24813
 H170 H 0.55211 0.61000 0.31262
 C171 C 0.17258 1.16761 0.27836
 C172 C 0.13404 1.16513 0.26030
 C173 C 0.11784 1.13266 0.17679
 C174 C 0.08056 1.11742 0.18375
 H175 H 0.11345 1.18379 0.31289
 H176 H 0.13704 1.11526 0.11920
 H177 H 0.19194 1.15255 0.21918
 H178 H 0.06277 1.13134 0.24764
 C179 C 0.67023 0.32462 -0.28747
 C180 C 0.63153 0.33163 -0.27437
 C181 C 0.61463 0.36410 -0.19066
 C182 C 0.57904 0.38543 -0.20431
 H183 H 0.61147 0.31692 -0.33150
 H184 H 0.63240 0.37593 -0.12618
 H185 H 0.68887 0.33531 -0.22431
 H186 H 0.56324 0.37658 -0.27410
 C187 C 0.16031 0.85973 -0.34430
 C188 C 0.14586 0.83661 -0.25814
 C189 C 0.11703 0.86588 -0.19350
 C190 C 0.08886 0.89686 -0.23587
 H191 H 0.15311 0.79547 -0.23676
 H192 H 0.11923 0.86193 -0.11061
 H193 H 0.14994 0.90014 -0.36285
 H194 H 0.08550 0.89811 -0.31875
 C195 C 0.32254 0.66412 -0.28025
 C196 C 0.36132 0.65795 -0.27268
 C197 C 0.37975 0.62534 -0.19035
 C198 C 0.41477 0.60323 -0.20929
 H199 H 0.37963 0.67117 -0.33667
 H200 H 0.36323 0.61387 -0.12206
 H201 H 0.30365 0.65205 -0.21684
 H202 H 0.42929 0.61201 -0.28210
 C203 C -0.13733 1.19262 -0.33411
 C204 C -0.15018 1.16463 -0.25150
 C205 C -0.12319 1.13183 -0.18716
 C206 C -0.09393 1.10290 -0.22903
 H207 H -0.18106 1.16049 -0.23531
 H208 H -0.13025 1.12669 -0.10621
 H209 H -0.10605 1.19179 -0.34849
 H210 H -0.08933 1.10388 -0.31163
 C211 C 0.65680 0.67195 -0.31157
 C212 C 0.61856 0.66173 -0.29948
 C213 C 0.60340 0.62737 -0.21480
 C214 C 0.56496 0.61873 -0.20738
 H215 H 0.59784 0.67670 -0.35596
 H216 H 0.62363 0.60482 -0.16660
 H217 H 0.67592 0.66130 -0.24837
 H218 H 0.54532 0.64160 -0.25682
 C219 C 0.15977 1.17182 -0.34919
 C220 C 0.12128 1.16184 -0.34586
 C221 C 0.10385 1.12970 -0.26121
 C222 C 0.06555 1.11955 -0.25995
 H223 H 0.10243 1.17497 -0.40808
 H224 H 0.12289 1.11002 -0.20567
 H225 H 0.17630 1.16227 -0.28049
 H226 H 0.04672 1.13963 -0.31549
 C227 C 0.34308 0.31225 -0.31265
 C228 C 0.38053 0.31418 -0.28428
 C229 C 0.39416 0.35520 -0.21232
 C230 C 0.43231 0.36558 -0.20592
 H231 H 0.40205 0.28912 -0.32272
 H232 H 0.37301 0.38063 -0.17331
 H233 H 0.32175 0.33688 -0.27254
 H234 H 0.45309 0.34070 -0.24755
 C235 C -0.16814 0.83333 -0.31479
 C236 C -0.12969 0.83393 -0.29748
 C237 C -0.11257 0.86988 -0.22084
 C238 C -0.07381 0.87553 -0.21691
 H239 H -0.11022 0.81156 -0.34778
 H240 H -0.13157 0.89605 -0.17648
 H241 H -0.18779 0.85466 -0.26347
 H242 H -0.05526 0.84980 -0.26352
 C243 C 0.32120 0.63791 0.34365
 C244 C 0.35970 0.63792 0.32618
 C245 C 0.37773 0.60448 0.24587
 C246 C 0.41654 0.60366 0.23428
 H247 H 0.37844 0.66106 0.37573
 H248 H 0.35968 0.57728 0.20254
 H249 H 0.30198 0.61640 0.29284
 H250 H 0.43422 0.63045 0.27960
 C251 C -0.15484 1.18573 0.30353
 C252 C -0.11687 1.17923 0.28118
 C253 C -0.10341 1.14068 0.20347
 C254 C -0.06521 1.13086 0.19407
 H255 H -0.09494 1.19929 0.32629
 H256 H -0.12442 1.11590 0.16422
 H257 H -0.17578 1.16963 0.25022
 H258 H -0.04469 1.15568 0.23509
 C259 C 0.66355 0.33210 0.33629
 C260 C 0.62479 0.33329 0.32461
 C261 C 0.60668 0.36762 0.24446
 C262 C 0.56785 0.37213 0.23862
 H263 H 0.60621 0.31202 0.37939
 H264 H 0.62517 0.39308 0.19646
 H265 H 0.68189 0.35244 0.27971
 H266 H 0.54958 0.34676 0.28739
 C267 C 0.16903 0.83988 0.28936
 C268 C 0.13055 0.83944 0.27395
 C269 C 0.11234 0.87297 0.19348
 C270 C 0.07370 0.88058 0.19570
 H271 H 0.11182 0.81994 0.33092
 H272 H 0.13064 0.89694 0.14224
 H273 H 0.18858 0.85848 0.23350
 H274 H 0.05585 0.85694 0.24863
   
