data_POSCAR
  _audit_creation_date              2014-09-24
  _audit_creation_method            'ToBaCCo'
  _symmetry_space_group_name_H-M    'P1'
  _symmetry_Int_Tables_number       1
  _symmetry_cell_setting            triclinic
  loop_
  _symmetry_equiv_pos_as_xyz
 x,y,z
_cell_length_a 41.4066
_cell_length_b 41.5092
_cell_length_c 14.8810
_cell_angle_alpha 90.080600
_cell_angle_beta 89.943100
_cell_angle_gamma 119.856100
loop_
  _atom_site_label
  _atom_site_type_symbol
  _atom_site_fract_x
  _atom_site_fract_y
  _atom_site_fract_z
C1 C 0.15015 0.47886 0.49874
 C2 C 0.16739 0.47994 0.41649
 C3 C 0.19983 0.47704 0.41726
 C4 C 0.21334 0.46976 0.49734
 C5 C 0.19313 0.46528 0.57727
 C6 C 0.16259 0.47129 0.57961
 C7 C 0.24850 0.46735 0.49796
 C8 C 0.26877 0.47264 0.57833
 C9 C 0.30152 0.47052 0.57963
 C10 C 0.31589 0.46572 0.49875
 C11 C 0.29682 0.46093 0.41773
 C12 C 0.26264 0.46037 0.41829
 H13 H 0.12578 0.48191 0.49932
 H14 H 0.21457 0.48100 0.35473
 H15 H 0.20113 0.45732 0.63872
 H16 H 0.25978 0.47890 0.64081
 H17 H 0.34116 0.46411 0.49928
 H18 H 0.24752 0.45460 0.35580
 C19 C 0.51466 -0.33164 0.50068
 C20 C 0.51277 -0.31598 0.41852
 C21 C 0.51535 -0.28087 0.41925
 C22 C 0.52320 -0.25977 0.49898
 C23 C 0.52836 -0.27504 0.57871
 C24 C 0.52266 -0.31137 0.58127
 C25 C 0.52574 -0.22224 0.49938
 C26 C 0.52115 -0.20682 0.57990
 C27 C 0.52382 -0.17179 0.58117
 C28 C 0.52837 -0.15292 0.50012
 C29 C 0.53242 -0.16765 0.41893
 C30 C 0.53245 -0.20146 0.41946
 H31 H 0.51181 -0.35891 0.50132
 H32 H 0.51083 -0.27043 0.35693
 H33 H 0.53672 -0.25885 0.63980
 H34 H 0.51511 -0.22180 0.64258
 H35 H 0.53044 -0.12590 0.50060
 H36 H 0.53772 -0.21118 0.35682
 C37 C 1.32941 0.84864 0.50376
 C38 C 1.31072 0.83553 0.42157
 C39 C 1.27483 0.80400 0.42185
 C40 C 1.25873 0.78352 0.50129
 C41 C 1.27865 0.79748 0.58237
 C42 C 1.31291 0.83064 0.58457
 C43 C 1.22175 0.74777 0.49950
 C44 C 1.20090 0.73249 0.57901
 C45 C 1.16817 0.69752 0.57929
 C46 C 1.15433 0.67911 0.49708
 C47 C 1.17276 0.69498 0.41623
 C48 C 1.20698 0.72817 0.41837
 H49 H 1.35598 0.87399 0.50568
 H50 H 1.25978 0.79564 0.35920
 H51 H 1.26815 0.78290 0.64502
 H52 H 1.20992 0.74743 0.64171
 H53 H 1.12814 0.65336 0.49516
 H54 H 1.22173 0.73807 0.35565
 C55 C 0.84879 0.53158 0.50198
 C56 C 0.83450 0.53629 0.42092
 C57 C 0.80116 0.53740 0.42167
 C58 C 0.78035 0.53114 0.50161
 C59 C 0.79534 0.52597 0.58199
 C60 C 0.82994 0.52751 0.58308
 C61 C 0.74319 0.52958 0.50115
 C62 C 0.72793 0.53516 0.58076
 C63 C 0.69193 0.53071 0.58237
 C64 C 0.67222 0.52367 0.50114
 C65 C 0.68784 0.52080 0.42004
 C66 C 0.72236 0.52219 0.42117
 H67 H 0.87548 0.53278 0.50234
 H68 H 0.79181 0.54315 0.35916
 H69 H 0.78033 0.52036 0.64466
 H70 H 0.74380 0.54279 0.64237
 H71 H 0.64551 0.52233 0.49992
 H72 H 0.73248 0.51727 0.35870
 C73 C 0.47606 0.32141 0.50040
 C74 C 0.47008 0.30155 0.42015
 C75 C 0.46811 0.26683 0.42204
 C76 C 0.47472 0.25274 0.50204
 C77 C 0.48062 0.27341 0.58187
 C78 C 0.47989 0.30695 0.58248
 C79 C 0.47601 0.21708 0.50193
 C80 C 0.47065 0.19655 0.58172
 C81 C 0.47475 0.16483 0.58320
 C82 C 0.48123 0.15178 0.50177
 C83 C 0.48393 0.17005 0.42064
 C84 C 0.48296 0.20330 0.42185
 H85 H 0.47581 0.34729 0.49896
 H86 H 0.46146 0.25115 0.36026
 H87 H 0.48643 0.26402 0.64422
 H88 H 0.46342 0.20511 0.64350
 H89 H 0.48228 0.12631 0.50051
 H90 H 0.48785 0.21818 0.35930
 C91 C 0.68118 0.15283 0.50298
 C92 C 0.69973 0.16718 0.42149
 C93 C 0.73368 0.20083 0.42151
 C94 C 0.74812 0.22185 0.50116
 C95 C 0.72836 0.20675 0.58198
 C96 C 0.69589 0.17190 0.58375
 C97 C 0.78326 0.25922 0.50003
 C98 C 0.80394 0.27499 0.57943
 C99 C 0.83524 0.31100 0.58030
 C100 C 0.84777 0.33024 0.49860
 C101 C 0.82944 0.31414 0.41774
 C102 C 0.79655 0.27963 0.41956
 H103 H 0.65614 0.12592 0.50393
 H104 H 0.74848 0.21020 0.35865
 H105 H 0.73759 0.22183 0.64453
 H106 H 0.79593 0.25948 0.64144
 H107 H 0.87292 0.35696 0.49695
 H108 H 0.78165 0.26917 0.35717
 N109 N 1.03945 0.48894 -0.15818
 N110 N 1.06466 0.49441 -0.21968
 N111 N 0.96085 0.42865 -0.09545
 N112 N 0.93488 0.39394 -0.11116
 N113 N 0.96150 0.45067 -0.15967
 N114 N 0.93632 0.43150 -0.22165
 N115 N 1.03930 0.46709 -0.09411
 N116 N 1.06476 0.45744 -0.10959
 C117 C 1.08041 0.47498 -0.18759
 C118 C 0.91978 0.39634 -0.18961
 N119 N 0.96008 0.45219 0.15975
 N120 N 0.93257 0.43429 0.21731
 N121 N 1.03878 0.46815 0.09935
 N122 N 1.06678 0.46196 0.11264
 N123 N 1.03806 0.49008 0.16207
 N124 N 1.06509 0.49898 0.22074
 N125 N 0.95990 0.42953 0.09779
 N126 N 0.93184 0.39553 0.11059
 Mn127 Mn 0.99973 0.44799 0.00205
 C128 C 0.91516 0.39918 0.18512
 C129 C 1.08278 0.48144 0.18846
 N130 N 0.96216 0.52065 -0.16164
 N131 N 0.93477 0.51150 -0.21938
 N132 N 1.04058 0.58152 -0.09818
 N133 N 1.06692 0.61604 -0.11411
 N134 N 1.04017 0.55904 -0.16102
 N135 N 1.06588 0.57773 -0.22235
 N136 N 0.96196 0.54306 -0.09939
 N137 N 0.93404 0.54938 -0.11220
 Mn138 Mn 1.00083 0.50486 -0.16101
 C139 C 0.91750 0.52946 -0.18712
 C140 C 1.08246 0.61306 -0.19129
 N141 N 1.03902 0.55972 0.15916
 N142 N 1.06627 0.57757 0.21726
 N143 N 0.96156 0.54426 0.09391
 N144 N 0.93620 0.55407 0.10926
 N145 N 0.96103 0.52210 0.15751
 N146 N 0.93558 0.51645 0.21851
 N147 N 1.04020 0.58214 0.09538
 N148 N 1.06867 0.61599 0.10777
 Mn149 Mn 0.99949 0.50598 0.16044
 Mn150 Mn 1.00111 0.56314 -0.00214
 Cl151 Cl 1.00028 0.50549 -0.00030
 C152 C 1.08452 0.61243 0.18392
 C153 C 0.92014 0.53622 0.18667
 N154 N 0.54717 0.50941 0.16190
 N155 N 0.56556 0.50048 0.21973
 N156 N 0.52820 0.56973 0.10103
 N157 N 0.53307 0.60330 0.11499
 N158 N 0.50609 0.54643 0.16241
 N159 N 0.49584 0.56355 0.22095
 N160 N 0.56975 0.53239 0.10069
 N161 N 0.60415 0.53936 0.11427
 C162 C 0.60090 0.51919 0.18854
 C163 C 0.51266 0.59882 0.18981
 N164 N 0.50983 0.55039 -0.15715
 N165 N 0.50382 0.56960 -0.21885
 N166 N 0.57214 0.53505 -0.09274
 N167 N 0.60741 0.54523 -0.10778
 N168 N 0.55087 0.51351 -0.15780
 N169 N 0.57104 0.50876 -0.21949
 N170 N 0.53081 0.57226 -0.09219
 N171 N 0.53932 0.60696 -0.10728
 Mn172 Mn 0.55059 0.55273 0.00442
 C173 C 0.52197 0.60462 -0.18598
 C174 C 0.60604 0.52833 -0.18664
 N175 N 0.43783 0.47589 0.15600
 N176 N 0.41763 0.48093 0.21705
 N177 N 0.45794 0.41704 0.09092
 N178 N 0.44956 0.38236 0.10599
 N179 N 0.47898 0.43896 0.15573
 N180 N 0.48532 0.41985 0.21705
 N181 N 0.41659 0.45414 0.09119
 N182 N 0.38132 0.44397 0.10590
 Mn183 Mn 0.49254 0.49270 0.15987
 C184 C 0.38263 0.46121 0.18414
 C185 C 0.46718 0.38479 0.18434
 N186 N 0.48266 0.44299 -0.16379
 N187 N 0.49329 0.42605 -0.22183
 N188 N 0.41897 0.45686 -0.10209
 N189 N 0.38454 0.44983 -0.11572
 N190 N 0.44155 0.47993 -0.16316
 N191 N 0.42313 0.48884 -0.22099
 N192 N 0.46065 0.41966 -0.10235
 N193 N 0.45622 0.38622 -0.11576
 Mn194 Mn 0.49618 0.49667 -0.16130
 Mn195 Mn 0.43817 0.43654 -0.00581
 Cl196 Cl 0.49438 0.49467 -0.00069
 C197 C 0.47678 0.39086 -0.19038
 C198 C 0.38777 0.47002 -0.18993
 N199 N 0.42919 -0.03914 0.09888
 N200 N 0.39441 -0.06490 0.11501
 N201 N 0.49095 0.03863 0.16242
 N202 N 0.50038 0.06589 0.22058
 N203 N 0.46874 0.03926 0.10026
 N204 N 0.46281 0.06736 0.11360
 N205 N 0.45154 -0.03921 0.16143
 N206 N 0.43248 -0.06467 0.22286
 C207 C 0.39706 -0.08062 0.19203
 C208 C 0.48279 0.08357 0.18868
 N209 N 0.58252 0.03874 0.09517
 N210 N 0.61737 0.06460 0.11054
 N211 N 0.52137 -0.03954 0.15761
 N212 N 0.51516 -0.06519 0.21819
 N213 N 0.54333 -0.03947 0.09365
 N214 N 0.55242 -0.06532 0.10842
 N215 N 0.56053 0.03835 0.15943
 N216 N 0.57983 0.06374 0.22083
 Mn217 Mn 0.50607 -0.00048 0.16114
 C218 C 0.61506 0.08001 0.18866
 C219 C 0.53436 -0.08119 0.18579
 N220 N 0.46744 0.03960 -0.09312
 N221 N 0.45822 0.06534 -0.10820
 N222 N 0.45061 -0.03831 -0.15831
 N223 N 0.43226 -0.06541 -0.21638
 N224 N 0.42840 -0.03890 -0.09443
 N225 N 0.39420 -0.06682 -0.10666
 N226 N 0.48914 0.03944 -0.15737
 N227 N 0.49492 0.06471 -0.21870
 Mn228 Mn 0.44807 0.00021 0.00296
 C229 C 0.47583 0.08082 -0.18629
 C230 C 0.39731 -0.08298 -0.18280
 N231 N 0.54214 -0.03902 -0.09972
 N232 N 0.54805 -0.06714 -0.11311
 N233 N 0.55874 0.03947 -0.16010
 N234 N 0.57669 0.06696 -0.21741
 N235 N 0.58144 0.03961 -0.09826
 N236 N 0.61553 0.06761 -0.11099
 N237 N 0.51997 -0.03834 -0.16182
 N238 N 0.51052 -0.06559 -0.22004
 Mn239 Mn 0.56274 -0.00003 -0.00244
 Mn240 Mn 0.50465 0.00060 -0.16021
 Cl241 Cl 0.50538 0.00007 0.00049
 C242 C 0.52809 -0.08330 -0.18826
 C243 C 0.61189 0.08427 -0.18536
 N244 N 1.13867 0.47584 0.19269
 N245 N 1.16237 0.47604 0.25287
 C246 C 1.15162 0.48195 0.33422
 C247 C 1.12066 0.48593 0.32112
 N248 N 1.11355 0.48175 0.23260
 H249 H 1.10389 0.49010 0.37050
 N250 N 0.51599 0.65910 0.19447
 N251 N 0.51548 0.68236 0.25482
 C252 C 0.51044 0.66608 0.33625
 C253 C 0.50726 0.63153 0.32300
 N254 N 0.51106 0.62852 0.23428
 H255 H 0.50414 0.61108 0.37240
 N256 N 0.33286 -0.13099 0.20037
 N257 N 0.30898 -0.15401 0.26066
 C258 C 0.32704 -0.14618 0.34029
 C259 C 0.36322 -0.11765 0.32601
 N260 N 0.36552 -0.10916 0.23832
 H261 H 0.38576 -0.10417 0.37383
 N262 N 0.87385 0.55601 0.19962
 N263 N 0.85063 0.55649 0.26038
 C264 C 0.85477 0.54077 0.33565
 C265 C 0.88106 0.53029 0.31861
 N266 N 0.89221 0.54031 0.23343
 H267 H 0.89127 0.51687 0.36348
 N268 N 0.44898 0.31934 0.19842
 N269 N 0.44929 0.29633 0.25969
 C270 C 0.46503 0.31664 0.33445
 C271 C 0.47467 0.35299 0.31650
 N272 N 0.46416 0.35342 0.23142
 H273 H 0.48782 0.37685 0.36070
 N274 N 0.68051 0.12756 0.20050
 N275 N 0.70391 0.15120 0.26078
 C276 C 0.68410 0.14660 0.33656
 C277 C 0.64764 0.11954 0.32032
 N278 N 0.64667 0.10845 0.23507
 H279 H 0.62412 0.10880 0.36573
 N280 N 0.46117 0.13081 -0.19563
 N281 N 0.46078 0.15395 -0.25636
 C282 C 0.47177 0.14631 -0.33529
 C283 C 0.47932 0.11778 -0.32015
 N284 N 0.47237 0.10907 -0.23275
 H285 H 0.48906 0.10457 -0.36711
 N286 N 0.67124 0.54450 -0.19649
 N287 N 0.69499 0.54521 -0.25740
 C288 C 0.67633 0.53381 -0.33613
 C289 C 0.64006 0.52573 -0.32070
 N290 N 0.63818 0.53275 -0.23334
 H291 H 0.61700 0.51542 -0.36738
 N292 N 0.86963 0.33209 -0.19888
 N293 N 0.84641 0.30849 -0.25938
 C294 C 0.85389 0.32688 -0.33842
 C295 C 0.88244 0.36292 -0.32357
 N296 N 0.89129 0.36486 -0.23616
 H297 H 0.89565 0.38566 -0.37078
 N298 N 0.53678 -0.13720 -0.19381
 N299 N 0.53519 -0.16173 -0.25339
 C300 C 0.52431 -0.15401 -0.33215
 C301 C 0.51902 -0.12403 -0.31855
 N302 N 0.52718 -0.11442 -0.23187
 H303 H 0.51142 -0.10962 -0.36728
 N304 N 0.32441 0.45948 -0.19522
 N305 N 0.30089 0.46003 -0.25476
 C306 C 0.31929 0.47100 -0.33377
 C307 C 0.35505 0.47745 -0.32037
 N308 N 0.35697 0.46986 -0.23351
 H309 H 0.37708 0.48541 -0.36934
 N310 N 1.13429 0.67650 -0.19945
 N311 N 1.15788 0.69985 -0.25973
 C312 C 1.14948 0.68179 -0.33942
 C313 C 1.12000 0.64618 -0.32521
 N314 N 1.11154 0.64418 -0.23750
 H315 H 1.10595 0.62376 -0.37303
 N316 N 0.86423 0.53935 -0.19197
 N317 N 0.83995 0.53842 -0.25140
 C318 C 0.84739 0.52734 -0.33034
 C319 C 0.87691 0.52122 -0.31701
 N320 N 0.88655 0.52912 -0.23030
 H321 H 0.89106 0.51331 -0.36594
 N322 N 0.47571 0.33161 -0.19384
 N323 N 0.47719 0.30874 -0.25384
 C324 C 0.48117 0.32454 -0.33555
 C325 C 0.48267 0.35833 -0.32296
 N326 N 0.47900 0.36144 -0.23429
 H327 H 0.48494 0.37834 -0.37270
 N328 N 0.67483 0.13750 -0.19125
 N329 N 0.69775 0.16183 -0.25103
 C330 C 0.67886 0.15443 -0.32933
 C331 C 0.64347 0.12490 -0.31528
 N332 N 0.64221 0.11519 -0.22881
 H333 H 0.62124 0.11080 -0.36364
 N334 N 1.12917 0.45853 -0.19857
 N335 N 1.15178 0.45739 -0.26001
 C336 C 1.14457 0.46906 -0.33835
 C337 C 1.11687 0.47781 -0.32212
 N338 N 1.10820 0.47085 -0.23471
 H339 H 1.10406 0.48819 -0.36839
 N340 N 0.53707 0.66923 -0.19724
 N341 N 0.53743 0.69248 -0.25871
 C342 C 0.52568 0.67338 -0.33678
 C343 C 0.51773 0.63732 -0.32035
 N344 N 0.52520 0.63604 -0.23310
 H345 H 0.50755 0.61410 -0.36638
 N346 N 0.33380 -0.13527 -0.18981
 N347 N 0.31079 -0.15924 -0.25010
 C348 C 0.32994 -0.15229 -0.32799
 C349 C 0.36560 -0.12337 -0.31304
 N350 N 0.36674 -0.11357 -0.22661
 H351 H 0.38816 -0.10964 -0.36077
 N352 N 0.55281 -0.12844 0.19780
 N353 N 0.55273 -0.15191 0.25831
 C354 C 0.53730 -0.14735 0.33378
 C355 C 0.52757 -0.12056 0.31715
 N356 N 0.53773 -0.10953 0.23202
 H357 H 0.51456 -0.10993 0.36230
 N358 N 0.31641 0.44089 0.19661
 N359 N 0.29266 0.44035 0.25730
 C360 C 0.31248 0.45614 0.33265
 C361 C 0.34922 0.46671 0.31576
 N362 N 0.35043 0.45670 0.23062
 H363 H 0.37283 0.48034 0.36064
 N364 N 1.13807 0.67516 0.19099
 N365 N 1.16256 0.69764 0.25118
 C366 C 1.15516 0.67841 0.32889
 C367 C 1.12543 0.64326 0.31397
 N368 N 1.11561 0.64249 0.22772
 H369 H 1.11126 0.62082 0.36160
 N370 N 0.47319 0.13684 0.19475
 N371 N 0.47392 0.16081 0.25478
 C372 C 0.48484 0.15317 0.33360
 C373 C 0.49108 0.12379 0.31948
 N374 N 0.48338 0.11447 0.23251
 H375 H 0.49874 0.10938 0.36804
 N376 N 0.66445 0.53039 0.19429
 N377 N 0.68814 0.53041 0.25415
 C378 C 0.66971 0.51925 0.33312
 C379 C 0.63371 0.51207 0.31925
 N380 N 0.63173 0.51947 0.23226
 H381 H 0.61159 0.50399 0.36800
 N382 N 0.86244 0.33612 0.19162
 N383 N 0.83866 0.31294 0.25189
 C384 C 0.84600 0.33170 0.33039
 C385 C 0.87497 0.36736 0.31582
 N386 N 0.88439 0.36883 0.22895
 H387 H 0.88912 0.38959 0.36408
   
