data_POSCAR
  _audit_creation_date              2014-09-24
  _audit_creation_method            'ToBaCCo'
  _symmetry_space_group_name_H-M    'P1'
  _symmetry_Int_Tables_number       1
  _symmetry_cell_setting            triclinic
  loop_
  _symmetry_equiv_pos_as_xyz
 x,y,z
_cell_length_a 25.3799
_cell_length_b 24.6837
_cell_length_c 26.3257
_cell_angle_alpha 90.070600
_cell_angle_beta 89.896800
_cell_angle_gamma 89.138200
loop_
  _atom_site_label
  _atom_site_type_symbol
  _atom_site_fract_x
  _atom_site_fract_y
  _atom_site_fract_z
N1 N 0.17809 1.29001 0.16594
 N2 N 0.13209 1.26859 0.17665
 C3 C 0.09380 1.29777 0.15398
 C4 C 0.11649 1.34085 0.12876
 C5 C 0.17017 1.33509 0.13797
 H6 H 0.05255 1.28811 0.15612
 H7 H 0.20146 1.35841 0.12121
 Cu8 Cu 0.12406 1.20547 0.22152
 Cu9 Cu 0.24451 1.25002 0.17861
 Cu10 Cu 0.23554 1.14262 0.25582
 N11 N 0.12815 1.16068 0.28229
 N12 N 0.17177 1.13542 0.29587
 C13 C 0.16259 1.10622 0.33803
 C14 C 0.10997 1.11354 0.35172
 C15 C 0.08962 1.14861 0.31522
 H16 H 0.19206 1.08136 0.35678
 H17 H 0.04996 1.16476 0.31255
 N18 N 0.28798 1.14481 0.20200
 N19 N 0.29273 1.18743 0.17251
 C20 C 0.32875 1.17620 0.13620
 C21 C 0.34693 1.12344 0.14290
 C22 C 0.32041 1.10501 0.18540
 H23 H 0.33813 1.20304 0.10514
 H24 H 0.32254 1.06492 0.20182
 H25 H 0.19359 1.18851 0.18409
 H26 H 0.19560 1.23214 0.24180
 N27 N 0.85236 0.72790 0.12980
 N28 N 0.89561 0.74130 0.15388
 C29 C 0.93354 0.70391 0.14421
 C30 C 0.91253 0.66467 0.11300
 C31 C 0.86100 0.68116 0.10461
 H32 H 0.97296 0.70450 0.15972
 H33 H 0.83231 0.66119 0.08105
 Cu34 Cu 0.89744 0.80368 0.19890
 Cu35 Cu 0.78938 0.77382 0.13007
 Cu36 Cu 0.78554 0.87469 0.22043
 N37 N 0.88721 0.84706 0.25996
 N38 N 0.84192 0.87103 0.27027
 C39 C 0.84472 0.89487 0.31614
 C40 C 0.89513 0.88649 0.33545
 C41 C 0.92086 0.85573 0.29841
 H42 H 0.81263 0.91770 0.33302
 H43 H 0.96066 0.83963 0.29945
 N44 N 0.72819 0.86400 0.17148
 N45 N 0.72994 0.82567 0.13653
 C46 C 0.68785 0.83146 0.10586
 C47 C 0.65814 0.87556 0.12233
 C48 C 0.68477 0.89502 0.16423
 H49 H 0.68012 0.80639 0.07310
 H50 H 0.67467 0.93067 0.18628
 H51 H 0.82242 0.84474 0.15479
 H52 H 0.80269 0.79489 0.20481
 N53 N 0.81409 1.28822 -0.14399
 N54 N 0.84794 1.28640 -0.18184
 C55 C 0.88356 1.32567 -0.17550
 C56 C 0.87076 1.35415 -0.13195
 C57 C 0.82633 1.32957 -0.11294
 H58 H 0.91784 1.33148 -0.19919
 H59 H 0.80729 1.33816 -0.07697
 Cu60 Cu 0.84602 1.22936 -0.23254
 Cu61 Cu 0.76295 1.23117 -0.13320
 Cu62 Cu 0.76070 1.12734 -0.22243
 N63 N 0.84364 1.17206 -0.28296
 N64 N 0.81187 1.13091 -0.27770
 C65 C 0.82188 1.09461 -0.31484
 C66 C 0.86190 1.11430 -0.34538
 C67 C 0.87432 1.16386 -0.32407
 H68 H 0.80146 1.05678 -0.31925
 H69 H 0.90521 1.19070 -0.33598
 N70 N 0.71218 1.13127 -0.16380
 N71 N 0.71422 1.16981 -0.12906
 C72 C 0.67853 1.15953 -0.09254
 C73 C 0.65221 1.11286 -0.10525
 C74 C 0.67433 1.09616 -0.15080
 H75 H 0.67158 1.18441 -0.05930
 H76 H 0.66462 1.06041 -0.17227
 H77 H 0.80470 1.17024 -0.17044
 H78 H 0.75555 1.20951 -0.20867
 N79 N 0.18595 0.69961 -0.15654
 N80 N 0.14815 0.70363 -0.19043
 C81 C 0.11226 0.66525 -0.18158
 C82 C 0.12888 0.63497 -0.14035
 C83 C 0.17603 0.65758 -0.12553
 H84 H 0.07646 0.66015 -0.20318
 H85 H 0.19987 0.64613 -0.09315
 Cu86 Cu 0.14886 0.75872 -0.24270
 Cu87 Cu 0.24217 0.75254 -0.15329
 Cu88 Cu 0.21264 0.87330 -0.21609
 N89 N 0.13631 0.82403 -0.28142
 N90 N 0.15974 0.86944 -0.26979
 C91 C 0.14372 0.90831 -0.30235
 C92 C 0.10833 0.88596 -0.33644
 C93 C 0.10472 0.83217 -0.32172
 H94 H 0.15826 0.94922 -0.30223
 H95 H 0.08088 0.80108 -0.33864
 N96 N 0.26609 0.86711 -0.16178
 N97 N 0.27923 0.82070 -0.14006
 C98 C 0.31917 0.82899 -0.10749
 C99 C 0.33173 0.88344 -0.10837
 C100 C 0.29720 0.90621 -0.14337
 H101 H 0.33751 0.79754 -0.08488
 H102 H 0.29585 0.94791 -0.15576
 H103 H 0.18596 0.80908 -0.17260
 H104 H 0.23641 0.79447 -0.22243
 C105 C 0.49262 0.99611 0.01289
 C106 C 0.00926 0.49175 0.99121
 C107 C 0.98914 -0.00133 0.50535
 C108 C 0.04433 0.36534 1.07166
 C109 C 0.09178 0.37767 1.09553
 C110 C 0.11504 0.42722 1.08177
 C111 C 0.08852 0.46436 1.04948
 C112 C 0.04027 0.45131 1.02539
 C113 C 0.01979 0.40049 1.03835
 C114 C -0.03378 0.38152 1.05299
 C115 C -0.00654 0.34273 1.08969
 H116 H 0.15200 0.43919 1.09857
 H117 H 0.10583 0.50362 1.04397
 H118 H -0.05400 0.36051 1.02133
 H119 H -0.05770 0.41257 1.07328
 H120 H -0.01093 0.29948 1.07892
 H121 H -0.01494 0.35254 1.13018
 C122 C -0.00717 0.61495 1.08104
 C123 C -0.06086 0.61609 1.09210
 C124 C -0.08901 0.56896 1.08062
 C125 C -0.06549 0.52694 1.05166
 C126 C -0.01514 0.53326 1.02890
 C127 C 0.01491 0.57547 1.05013
 C128 C 0.05657 0.61344 1.03194
 C129 C 0.03106 0.65688 1.06552
 H130 H -0.12965 0.56523 1.09254
 H131 H -0.08860 0.49139 1.04513
 H132 H 0.05422 0.62414 0.99120
 H133 H 0.09659 0.60131 1.04512
 H134 H 0.01215 0.69043 1.04368
 H135 H 0.05658 0.66960 1.09751
 C136 C -0.04192 0.38625 0.89720
 C137 C -0.09610 0.39336 0.89457
 C138 C -0.11714 0.43895 0.92044
 C139 C -0.08402 0.47330 0.94928
 C140 C -0.02976 0.45990 0.95752
 C141 C -0.01081 0.41704 0.92715
 C142 C 0.03737 0.38384 0.91512
 C143 C 0.00158 0.34857 0.88206
 H144 H -0.15880 0.44861 0.91767
 H145 H -0.10150 0.51021 0.96394
 H146 H 0.05362 0.36164 0.94835
 H147 H 0.06667 0.40697 0.89284
 H148 H -0.00390 0.30710 0.89741
 H149 H 0.01064 0.35088 0.84081
 C150 C 0.04500 0.59062 0.88451
 C151 C 0.09988 0.59140 0.88501
 C152 C 0.12588 0.54923 0.91143
 C153 C 0.09718 0.51331 0.94239
 C154 C 0.04239 0.52189 0.95118
 C155 C 0.01732 0.55778 0.91693
 C156 C -0.02778 0.59733 0.92059
 C157 C 0.00360 0.63413 0.88565
 H158 H 0.16835 0.54489 0.90932
 H159 H 0.11888 0.48062 0.96010
 H160 H -0.03389 0.61477 0.95905
 H161 H -0.06396 0.58175 0.90231
 H162 H 0.01726 0.67165 0.90464
 H163 H -0.01518 0.64021 0.84795
 C164 C 1.02926 0.10115 0.40126
 C165 C 1.08298 0.09088 0.39319
 C166 C 1.10826 0.05637 0.42866
 C167 C 1.07927 0.02899 0.46634
 C168 C 1.02358 0.03539 0.47089
 C169 C 1.00073 0.07351 0.43744
 C170 C 0.95201 0.07457 0.40578
 C171 C 0.98343 0.10454 0.36588
 H172 H 1.15007 0.04778 0.42604
 H173 H 1.10089 -0.00022 0.48892
 H174 H 0.92036 0.10037 0.42278
 H175 H 0.94001 0.03404 0.39223
 H176 H 0.96919 0.14690 0.36021
 H177 H 0.98988 0.08068 0.33048
 C178 C 1.08750 -0.03259 0.61401
 C179 C 1.08323 -0.08835 0.62227
 C180 C 1.05276 -0.11743 0.58687
 C181 C 1.02396 -0.09058 0.54841
 C182 C 1.02395 -0.03321 0.54382
 C183 C 1.05761 -0.00604 0.57751
 C184 C 1.05060 0.04324 0.60990
 C185 C 1.08379 0.01434 0.64976
 H186 H 1.04930 -0.16094 0.58948
 H187 H 0.99918 -0.11533 0.52486
 H188 H 1.00947 0.04983 0.62320
 H189 H 1.07001 0.07926 0.59340
 H190 H 1.06157 0.00473 0.68499
 H191 H 1.12257 0.03363 0.65588
 C192 C 0.88509 -0.06936 0.41912
 C193 C 0.91614 -0.09458 0.38161
 C194 C 0.97054 -0.09931 0.39246
 C195 C 0.99264 -0.07202 0.43415
 C196 C 0.96134 -0.04013 0.46795
 C197 C 0.90632 -0.04447 0.46143
 C198 C 0.85952 -0.00681 0.46578
 C199 C 0.83752 -0.03335 0.41841
 H200 H 0.99729 -0.12020 0.36686
 H201 H 1.03508 -0.07317 0.43820
 H202 H 0.86878 0.03650 0.46067
 H203 H 0.83505 -0.01543 0.49980
 H204 H 0.83676 -0.00562 0.38515
 H205 H 0.80064 -0.05583 0.42563
 C206 C 0.87893 0.03400 0.60202
 C207 C 0.88628 0.08886 0.61276
 C208 C 0.92114 0.11688 0.58057
 C209 C 0.95177 0.08924 0.54379
 C210 C 0.94939 0.03205 0.53790
 C211 C 0.91113 0.00650 0.56792
 C212 C 0.91067 -0.04448 0.59827
 C213 C 0.87514 -0.01444 0.63578
 H214 H 0.92702 0.15994 0.58505
 H215 H 0.98063 0.11297 0.52404
 H216 H 0.94936 -0.05511 0.61543
 H217 H 0.89063 -0.07793 0.57810
 H218 H 0.89379 -0.00801 0.67347
 H219 H 0.83454 -0.03067 0.63706
 C220 C 0.41073 1.11627 0.07005
 C221 C 0.38132 1.09146 0.10820
 C222 C 0.38483 1.03462 0.11139
 C223 C 0.42087 1.00514 0.08113
 C224 C 0.45632 1.03121 0.04771
 C225 C 0.44776 1.08749 0.04128
 C226 C 0.48415 1.13486 0.04195
 C227 C 0.44269 1.16614 0.07193
 H228 H 0.36057 1.01262 0.13788
 H229 H 0.42228 0.96167 0.08524
 H230 H 0.49087 1.15174 0.00338
 H231 H 0.52015 1.12775 0.06501
 H232 H 0.42432 1.19993 0.05004
 H233 H 0.45531 1.17663 0.11112
 C234 C 0.56616 1.06432 -0.09950
 C235 C 0.60968 1.08725 -0.07590
 C236 C 0.61053 1.08694 -0.02251
 C237 C 0.57232 1.05862 0.00528
 C238 C 0.53014 1.03169 -0.01896
 C239 C 0.52720 1.03815 -0.07227
 C240 C 0.51847 0.99938 -0.11536
 C241 C 0.56187 1.02776 -0.14420
 H242 H 0.64262 1.10557 -0.00222
 H243 H 0.57697 1.05609 0.04605
 H244 H 0.47945 1.00541 -0.13374
 H245 H 0.52836 0.95669 -0.10594
 H246 H 0.54760 1.04944 -0.17862
 H247 H 0.59730 1.00138 -0.14970
 C248 C 0.41348 0.88201 -0.05407
 C249 C 0.37449 0.91108 -0.08046
 C250 C 0.37815 0.96794 -0.08031
 C251 C 0.41649 0.99408 -0.05106
 C252 C 0.45399 0.96470 -0.02162
 C253 C 0.45188 0.90771 -0.02543
 C254 C 0.45038 0.86412 0.01422
 C255 C 0.40854 0.83665 -0.01719
 H256 H 0.35002 0.99281 -0.10087
 H257 H 0.41628 1.03794 -0.05081
 H258 H 0.43552 0.87835 0.05162
 H259 H 0.48741 0.83962 0.01585
 H260 H 0.36934 0.83609 0.00175
 H261 H 0.42214 0.79731 -0.03352
 C262 C 0.59830 0.88775 0.04750
 C263 C 0.61071 0.89930 0.09792
 C264 C 0.57741 0.93633 0.12368
 C265 C 0.53730 0.96506 0.09765
 C266 C 0.52873 0.95773 0.04463
 C267 C 0.56014 0.91709 0.02154
 C268 C 0.59004 0.91361 -0.02729
 C269 C 0.63216 0.88169 0.00141
 H270 H 0.58404 0.94551 0.16334
 H271 H 0.51634 0.99600 0.11893
 H272 H 0.60447 0.95326 -0.04093
 H273 H 0.56956 0.88861 -0.05605
 H274 H 0.67004 0.90344 0.00490
 H275 H 0.63575 0.83882 -0.01126
   
