data_POSCAR
  _audit_creation_date              2014-09-24
  _audit_creation_method            'ToBaCCo'
  _symmetry_space_group_name_H-M    'P1'
  _symmetry_Int_Tables_number       1
  _symmetry_cell_setting            triclinic
  loop_
  _symmetry_equiv_pos_as_xyz
 x,y,z
_cell_length_a 39.7187
_cell_length_b 39.7862
_cell_length_c 39.9313
_cell_angle_alpha 89.972600
_cell_angle_beta 89.986900
_cell_angle_gamma 90.025600
loop_
  _atom_site_label
  _atom_site_type_symbol
  _atom_site_fract_x
  _atom_site_fract_y
  _atom_site_fract_z
N1 N 0.15638 0.23776 0.24416
 N2 N 0.16506 0.21081 0.26116
 C3 C 0.14315 0.20635 0.28654
 C4 C 0.11966 0.23192 0.28534
 C5 C 0.12879 0.25144 0.25820
 H6 H 0.14398 0.18597 0.30445
 H7 H 0.11601 0.27364 0.24912
 Cu8 Cu 0.20383 0.18403 0.24802
 Cu9 Cu 0.18080 0.25254 0.20450
 Cu10 Cu 0.25033 0.20536 0.18100
 N11 N 0.24320 0.15805 0.23500
 N12 N 0.26107 0.16638 0.20853
 C13 C 0.28618 0.14403 0.20456
 C14 C 0.28396 0.12054 0.22996
 C15 C 0.25648 0.13017 0.24887
 H16 H 0.30461 0.14468 0.18464
 H17 H 0.24676 0.11752 0.27081
 N18 N 0.23540 0.24564 0.15639
 N19 N 0.20874 0.26341 0.16516
 C20 C 0.20459 0.28868 0.14308
 C21 C 0.22989 0.28675 0.11946
 C22 C 0.24901 0.25928 0.12862
 H23 H 0.18460 0.30710 0.14394
 H24 H 0.27095 0.24978 0.11569
 H25 H 0.19931 0.20589 0.19113
 H26 H 0.22671 0.23246 0.21834
 N27 N 0.65692 0.73861 0.74511
 N28 N 0.66617 0.71216 0.76258
 C29 C 0.64418 0.70752 0.78787
 C30 C 0.62008 0.73248 0.78614
 C31 C 0.62891 0.75181 0.75878
 H32 H 0.64541 0.68744 0.80609
 H33 H 0.61566 0.77357 0.74930
 Cu34 Cu 0.70578 0.68609 0.75048
 Cu35 Cu 0.68121 0.75332 0.70540
 Cu36 Cu 0.75065 0.70629 0.68179
 N37 N 0.74432 0.65951 0.73624
 N38 N 0.76157 0.66739 0.70924
 C39 C 0.78623 0.64464 0.70474
 C40 C 0.78434 0.62134 0.73032
 C41 C 0.75752 0.63148 0.74989
 H42 H 0.80413 0.64491 0.68434
 H43 H 0.74820 0.61910 0.77215
 N44 N 0.73565 0.74649 0.65720
 N45 N 0.70899 0.76423 0.66600
 C46 C 0.70477 0.78948 0.64391
 C47 C 0.73003 0.78756 0.62024
 C48 C 0.74919 0.76011 0.62939
 H49 H 0.68477 0.80789 0.64480
 H50 H 0.77112 0.75062 0.61644
 H51 H 0.69980 0.70634 0.69315
 H52 H 0.72752 0.73402 0.71901
 N53 N 0.34202 0.76256 0.74486
 N54 N 0.33320 0.78949 0.76181
 C55 C 0.35504 0.79404 0.78723
 C56 C 0.37862 0.76854 0.78611
 C57 C 0.36962 0.74898 0.75898
 H58 H 0.35413 0.81445 0.80508
 H59 H 0.38251 0.72684 0.74993
 Cu60 Cu 0.29443 0.81616 0.74840
 Cu61 Cu 0.31785 0.74774 0.70507
 Cu62 Cu 0.24861 0.79508 0.68093
 N63 N 0.25526 0.84228 0.73506
 N64 N 0.23776 0.83413 0.70831
 C65 C 0.21282 0.85662 0.70401
 C66 C 0.21473 0.88002 0.72953
 C67 C 0.24188 0.87015 0.74886
 H68 H 0.19469 0.85605 0.68380
 H69 H 0.25136 0.88262 0.77100
 N70 N 0.26363 0.75468 0.65655
 N71 N 0.29016 0.73685 0.66558
 C72 C 0.29438 0.71147 0.64365
 C73 C 0.26925 0.71340 0.61986
 C74 C 0.25018 0.74098 0.62875
 H75 H 0.31428 0.69298 0.64474
 H76 H 0.22835 0.75050 0.61565
 H77 H 0.29952 0.79441 0.69154
 H78 H 0.27180 0.76783 0.71844
 N79 N 0.84355 0.26211 0.24468
 N80 N 0.83497 0.28928 0.26137
 C81 C 0.85689 0.29397 0.28668
 C82 C 0.88034 0.26829 0.28578
 C83 C 0.87108 0.24846 0.25888
 H84 H 0.85605 0.31454 0.30436
 H85 H 0.88372 0.22609 0.25002
 Cu86 Cu 0.79615 0.31596 0.24812
 Cu87 Cu 0.81915 0.24712 0.20508
 Cu88 Cu 0.74960 0.29414 0.18132
 N89 N 0.75666 0.34172 0.23502
 N90 N 0.73877 0.33320 0.20864
 C91 C 0.71355 0.35542 0.20463
 C92 C 0.71570 0.37901 0.22990
 C93 C 0.74327 0.36959 0.24879
 H94 H 0.69506 0.35459 0.18476
 H95 H 0.75297 0.38236 0.27066
 N96 N 0.76459 0.25379 0.15691
 N97 N 0.79124 0.23606 0.16576
 C98 C 0.79545 0.21075 0.14374
 C99 C 0.77018 0.21263 0.12008
 C100 C 0.75103 0.24010 0.12916
 H101 H 0.81546 0.19236 0.14466
 H102 H 0.72912 0.24959 0.11617
 H103 H 0.80066 0.29368 0.19140
 H104 H 0.77328 0.26729 0.21886
 N105 N 0.84331 0.73781 0.25557
 N106 N 0.83459 0.71080 0.23869
 C107 C 0.85650 0.70623 0.21333
 C108 C 0.88005 0.73178 0.21443
 C109 C 0.87093 0.75141 0.24147
 H110 H 0.85564 0.68580 0.19551
 H111 H 0.88374 0.77364 0.25046
 Cu112 Cu 0.79574 0.68411 0.25191
 Cu113 Cu 0.81886 0.75278 0.29514
 Cu114 Cu 0.74920 0.70576 0.31876
 N115 N 0.75630 0.65822 0.26501
 N116 N 0.73843 0.66668 0.29142
 C117 C 0.71328 0.64436 0.29550
 C118 C 0.71547 0.62077 0.27024
 C119 C 0.74298 0.63029 0.25128
 H120 H 0.69485 0.64512 0.31542
 H121 H 0.75269 0.61752 0.22942
 N122 N 0.76416 0.74612 0.34319
 N123 N 0.79087 0.76383 0.33439
 C124 C 0.79502 0.78916 0.35639
 C125 C 0.76968 0.78732 0.37997
 C126 C 0.75053 0.75984 0.37089
 H127 H 0.81506 0.80755 0.35550
 H128 H 0.72857 0.75038 0.38383
 H129 H 0.80026 0.70621 0.30870
 H130 H 0.77294 0.73271 0.28132
 N131 N 0.34394 0.23774 -0.24488
 N132 N 0.33553 0.21051 -0.26157
 C133 C 0.35763 0.20585 -0.28675
 C134 C 0.38100 0.23162 -0.28575
 C135 C 0.37152 0.25146 -0.25894
 H136 H 0.35695 0.18525 -0.30439
 H137 H 0.38404 0.27389 -0.25005
 Cu138 Cu 0.29671 0.18370 -0.24844
 Cu139 Cu 0.31928 0.25274 -0.20547
 Cu140 Cu 0.24971 0.20559 -0.18195
 N141 N 0.25717 0.15788 -0.23549
 N142 N 0.23912 0.16643 -0.20923
 C143 C 0.21391 0.14416 -0.20527
 C144 C 0.21624 0.12050 -0.23045
 C145 C 0.24390 0.12993 -0.24924
 H146 H 0.19532 0.14501 -0.18549
 H147 H 0.25373 0.11711 -0.27102
 N148 N 0.26447 0.24604 -0.15757
 N149 N 0.29114 0.26383 -0.16634
 C150 C 0.29521 0.28917 -0.14435
 C151 C 0.26984 0.28726 -0.12078
 C152 C 0.25078 0.25973 -0.12989
 H153 H 0.31522 0.30758 -0.14519
 H154 H 0.22885 0.25019 -0.11695
 H155 H 0.30081 0.20615 -0.19176
 H156 H 0.27353 0.23237 -0.21945
 N157 N 0.65649 0.26124 -0.24499
 N158 N 0.66545 0.28799 -0.26217
 C159 C 0.64334 0.29278 -0.28731
 C160 C 0.61942 0.26756 -0.28583
 C161 C 0.62855 0.24792 -0.25874
 H162 H 0.64442 0.31311 -0.30528
 H163 H 0.61556 0.22590 -0.24944
 Cu164 Cu 0.70502 0.31412 -0.24996
 Cu165 Cu 0.68092 0.24639 -0.20540
 Cu166 Cu 0.75032 0.29357 -0.18176
 N167 N 0.74369 0.34065 -0.23592
 N168 N 0.76112 0.33261 -0.20910
 C169 C 0.78589 0.35528 -0.20469
 C170 C 0.78391 0.37869 -0.23015
 C171 C 0.75691 0.36870 -0.24957
 H172 H 0.80396 0.35486 -0.18444
 H173 H 0.74749 0.38118 -0.27173
 N174 N 0.73545 0.25323 -0.15728
 N175 N 0.70883 0.23542 -0.16608
 C176 C 0.70469 0.21012 -0.14401
 C177 C 0.72998 0.21210 -0.12036
 C178 C 0.74905 0.23962 -0.12951
 H179 H 0.68472 0.19167 -0.14487
 H180 H 0.77095 0.24919 -0.11656
 H181 H 0.69940 0.29331 -0.19279
 H182 H 0.72707 0.26600 -0.21904
 N183 N 0.15835 0.76183 0.25465
 N184 N 0.16770 0.78821 0.23712
 C185 C 0.14576 0.79282 0.21180
 C186 C 0.12159 0.76789 0.21355
 C187 C 0.13033 0.74863 0.24097
 H188 H 0.14705 0.81288 0.19356
 H189 H 0.11699 0.72695 0.25052
 Cu190 Cu 0.20729 0.81435 0.24928
 Cu191 Cu 0.18242 0.74724 0.29448
 Cu192 Cu 0.25152 0.79454 0.31853
 N193 N 0.24564 0.84109 0.26383
 N194 N 0.26253 0.83346 0.29111
 C195 C 0.28703 0.85637 0.29583
 C196 C 0.28545 0.87953 0.27005
 C197 C 0.25894 0.86907 0.25014
 H198 H 0.30465 0.85625 0.31649
 H199 H 0.24985 0.88120 0.22765
 N200 N 0.23648 0.75427 0.34304
 N201 N 0.20995 0.73643 0.33404
 C202 C 0.20567 0.71111 0.35606
 C203 C 0.23075 0.71310 0.37989
 C204 C 0.24988 0.74065 0.37092
 H205 H 0.18575 0.69261 0.35499
 H206 H 0.27170 0.75020 0.38401
 H207 H 0.20081 0.79435 0.30666
 H208 H 0.22884 0.76663 0.28119
 N209 N 0.48785 0.40704 0.49523
 N210 N 0.46084 0.41582 0.51216
 C211 C 0.45627 0.39399 0.53758
 C212 C 0.48183 0.37047 0.53648
 C213 C 0.50145 0.37949 0.50936
 H214 H 0.43583 0.39491 0.55544
 H215 H 0.52367 0.36666 0.50034
 Cu216 Cu 0.43415 0.45460 0.49887
 Cu217 Cu 0.50282 0.43130 0.45554
 Cu218 Cu 0.45586 0.50084 0.43183
 N219 N 0.40831 0.49401 0.48572
 N220 N 0.41681 0.51176 0.45925
 C221 C 0.39454 0.53691 0.45514
 C222 C 0.37092 0.53486 0.48044
 C223 C 0.38039 0.50741 0.49946
 H224 H 0.39533 0.55526 0.43516
 H225 H 0.36759 0.49780 0.52137
 N226 N 0.49618 0.48575 0.40733
 N227 N 0.51387 0.45908 0.41616
 C228 C 0.53919 0.45482 0.39410
 C229 C 0.53736 0.48006 0.37044
 C230 C 0.50991 0.49925 0.37954
 H231 H 0.55757 0.43480 0.39500
 H232 H 0.50047 0.52116 0.36657
 H233 H 0.48284 0.47720 0.46929
 H234 H 0.45618 0.44990 0.44205
 N235 N -0.01123 -0.09246 0.99448
 N236 N -0.03766 -0.08315 1.01201
 C237 C -0.04232 -0.10509 1.03730
 C238 C -0.01738 -0.12922 1.03554
 C239 C 0.00194 -0.12046 1.00814
 H240 H -0.06238 -0.10380 1.05556
 H241 H 0.02368 -0.13375 0.99861
 Cu242 Cu -0.06366 -0.04352 0.99992
 Cu243 Cu 0.00350 -0.06826 0.95474
 Cu244 Cu -0.04343 0.00122 0.93117
 N245 N -0.09017 -0.00493 0.98574
 N246 N -0.08230 0.01226 0.95872
 C247 C -0.10502 0.03697 0.95429
 C248 C -0.12829 0.03517 0.97994
 C249 C -0.11815 0.00835 0.99948
 H250 H -0.10475 0.05485 0.93388
 H251 H -0.13051 -0.00092 1.02178
 N252 N -0.00325 -0.01392 0.90650
 N253 N 0.01444 -0.04059 0.91531
 C254 C 0.03970 -0.04490 0.89320
 C255 C 0.03784 -0.01969 0.86951
 C256 C 0.01042 -0.00046 0.87866
 H257 H 0.05807 -0.06492 0.89410
 H258 H 0.00098 0.02146 0.86571
 H259 H -0.01566 -0.02195 0.96834
 H260 H -0.04353 -0.04952 0.94254
 N261 N 1.01213 0.59299 0.99419
 N262 N 1.03918 0.58423 1.01105
 C263 C 1.04388 0.60612 1.03636
 C264 C 1.01837 0.62969 1.03526
 C265 C 0.99863 0.62062 1.00826
 H266 H 1.06438 0.60522 1.05416
 H267 H 0.97640 0.63345 0.99928
 Cu268 Cu 1.06575 0.54536 0.99785
 Cu269 Cu 0.99699 0.56861 0.95467
 Cu270 Cu 1.04380 0.49893 0.93107
 N271 N 1.09150 0.50589 0.98478
 N272 N 1.08293 0.48807 0.95839
 C273 C 1.10518 0.46290 0.95431
 C274 C 1.12885 0.46501 0.97956
 C275 C 1.11944 0.49251 0.99850
 H276 H 1.10433 0.44449 0.93441
 H277 H 1.13229 0.50218 1.02034
 N278 N 1.00340 0.51397 0.90667
 N279 N 0.98576 0.54069 0.91546
 C280 C 0.96037 0.54490 0.89349
 C281 C 0.96209 0.51959 0.86993
 C282 C 0.98957 0.50040 0.87900
 H283 H 0.94202 0.56495 0.89438
 H284 H 0.99895 0.47845 0.86607
 H285 H 1.01695 0.52272 0.96852
 H286 H 1.04356 0.54990 0.94108
 N287 N 0.51189 0.09325 0.49501
 N288 N 0.53897 0.08451 0.51184
 C289 C 0.54366 0.10636 0.53718
 C290 C 0.51811 0.12990 0.53614
 C291 C 0.49836 0.12084 0.50914
 H292 H 0.56416 0.10546 0.55497
 H293 H 0.47609 0.13364 0.50020
 Cu294 Cu 0.56560 0.04570 0.49859
 Cu295 Cu 0.49673 0.06885 0.45550
 Cu296 Cu 0.54363 -0.00075 0.43185
 N297 N 0.59141 0.00629 0.48546
 N298 N 0.58282 -0.01155 0.45909
 C299 C 0.60510 -0.03669 0.45498
 C300 C 0.62881 -0.03454 0.48017
 C301 C 0.61940 -0.00705 0.49913
 H302 H 0.60424 -0.05510 0.43508
 H303 H 0.63227 0.00263 0.52096
 N304 N 0.50318 0.01421 0.40750
 N305 N 0.48551 0.04090 0.41629
 C306 C 0.46009 0.04505 0.39433
 C307 C 0.46185 0.01971 0.37078
 C308 C 0.48936 0.00059 0.37985
 H309 H 0.44171 0.06507 0.39521
 H310 H 0.49878 -0.02135 0.36694
 H311 H 0.51678 0.02301 0.46933
 H312 H 0.54330 0.05024 0.44186
 N313 N -0.01186 0.09282 0.50486
 N314 N -0.03834 0.08349 0.48743
 C315 C -0.04317 0.10550 0.46223
 C316 C -0.01829 0.12971 0.46395
 C317 C 0.00119 0.12092 0.49123
 H318 H -0.06331 0.10420 0.44406
 H319 H 0.02294 0.13423 0.50068
 Cu320 Cu -0.06422 0.04374 0.49946
 Cu321 Cu 0.00312 0.06849 0.54442
 Cu322 Cu -0.04360 -0.00120 0.56792
 N323 N -0.09061 0.00506 0.51363
 N324 N -0.08258 -0.01222 0.54055
 C325 C -0.10525 -0.03697 0.54504
 C326 C -0.12865 -0.03512 0.51953
 C327 C -0.11865 -0.00823 0.50002
 H328 H -0.10486 -0.05491 0.56539
 H329 H -0.13114 0.00110 0.47783
 N330 N -0.00335 0.01390 0.59244
 N331 N 0.01428 0.04064 0.58369
 C332 C 0.03962 0.04489 0.60571
 C333 C 0.03786 0.01955 0.62929
 C334 C 0.01042 0.00033 0.62015
 H335 H 0.05797 0.06495 0.60484
 H336 H 0.00104 -0.02166 0.63304
 H337 H -0.01601 0.02221 0.53071
 H338 H -0.04381 0.04962 0.55674
 N339 N 0.48750 0.59313 0.00593
 N340 N 0.46051 0.58433 -0.01102
 C341 C 0.45585 0.60626 -0.03632
 C342 C 0.48133 0.62988 -0.03512
 C343 C 0.50100 0.62081 -0.00807
 H344 H 0.43541 0.60534 -0.05418
 H345 H 0.52319 0.63368 0.00097
 Cu346 Cu 0.43397 0.54538 0.00205
 Cu347 Cu 0.50255 0.56869 0.04547
 Cu348 Cu 0.45574 0.49886 0.06884
 N349 N 0.40822 0.50585 0.01499
 N350 N 0.41671 0.48798 0.04138
 C351 C 0.39446 0.46276 0.04533
 C352 C 0.37088 0.46490 0.02001
 C353 C 0.38034 0.49246 0.00115
 H354 H 0.39524 0.44430 0.06521
 H355 H 0.36755 0.50217 -0.02072
 N356 N 0.49604 0.51394 0.09339
 N357 N 0.51368 0.54071 0.08468
 C358 C 0.53900 0.54493 0.10673
 C359 C 0.53724 0.51956 0.13026
 C360 C 0.50981 0.50034 0.12109
 H361 H 0.55734 0.56500 0.10591
 H362 H 0.50042 0.47834 0.13397
 H363 H 0.48269 0.52278 0.03152
 H364 H 0.45596 0.54985 0.05889
 N365 N 0.51190 -0.09293 0.00625
 N366 N 0.53892 -0.08419 -0.01068
 C367 C 0.54345 -0.10599 -0.03609
 C368 C 0.51784 -0.12948 -0.03498
 C369 C 0.49823 -0.12046 -0.00787
 H370 H 0.56388 -0.10509 -0.05396
 H371 H 0.47598 -0.13326 0.00114
 Cu372 Cu 0.56569 -0.04546 0.00258
 Cu373 Cu 0.49700 -0.06866 0.04592
 Cu374 Cu 0.54416 0.00077 0.06964
 N375 N 0.59165 -0.00615 0.01572
 N376 N 0.58326 0.01162 0.04220
 C377 C 0.60562 0.03672 0.04623
 C378 C 0.62917 0.03461 0.02086
 C379 C 0.61958 0.00719 0.00190
 H380 H 0.60492 0.05509 0.06618
 H381 H 0.63227 -0.00243 -0.02005
 N382 N 0.50376 -0.01426 0.09413
 N383 N 0.48601 -0.04089 0.08528
 C384 C 0.46064 -0.04513 0.10728
 C385 C 0.46248 -0.01992 0.13094
 C386 C 0.49001 -0.00077 0.12189
 H387 H 0.44220 -0.06511 0.10633
 H388 H 0.49948 0.02113 0.13487
 H389 H 0.51711 -0.02275 0.03220
 H390 H 0.54369 -0.05013 0.05943
 N391 N 1.01142 0.40743 0.50522
 N392 N 1.03845 0.41618 0.48830
 C393 C 1.04300 0.39435 0.46291
 C394 C 1.01741 0.37084 0.46403
 C395 C 0.99779 0.37988 0.49112
 H396 H 1.06346 0.39524 0.44506
 H397 H 0.97554 0.36707 0.50015
 Cu398 Cu 1.06519 0.45495 0.50155
 Cu399 Cu 0.99648 0.43170 0.54487
 Cu400 Cu 1.04355 0.50121 0.56855
 N401 N 1.09109 0.49432 0.51467
 N402 N 1.08263 0.51209 0.54113
 C403 C 1.10496 0.53722 0.54521
 C404 C 1.12857 0.53512 0.51990
 C405 C 1.11905 0.50769 0.50091
 H406 H 1.10421 0.55557 0.56516
 H407 H 1.13182 0.49805 0.47902
 N408 N 1.00318 0.48614 0.59305
 N409 N 0.98545 0.45949 0.58422
 C410 C 0.96012 0.45523 0.60626
 C411 C 0.96197 0.48044 0.62991
 C412 C 0.98946 0.49963 0.62082
 H413 H 0.94172 0.43521 0.60535
 H414 H 0.99892 0.52153 0.63379
 H415 H 1.01655 0.47760 0.53111
 H416 H 1.04315 0.45028 0.55838
 Si417 Si 0.37253 -0.00041 0.25069
 Si418 Si 0.12731 -0.00034 0.74933
 Si419 Si 0.62675 0.49973 0.25026
 Si420 Si 0.87246 0.49990 0.75000
 Si421 Si 0.24985 0.37620 -0.00052
 Si422 Si 0.75022 0.12330 0.00006
 Si423 Si 0.24987 0.62370 0.50004
 Si424 Si 0.74982 0.87665 0.49998
 Si425 Si -0.00095 0.25042 0.37468
 Si426 Si 0.00048 0.75009 0.12472
 Si427 Si 0.50012 0.25004 0.62594
 Si428 Si 0.49930 0.75035 0.87541
 N429 N 0.07048 0.26413 0.30422
 C430 C 0.09058 0.23673 0.30754
 N431 N 0.08308 0.21362 0.33144
 N432 N 0.05639 0.21771 0.35122
 C433 C 0.03636 0.24510 0.34785
 N434 N 0.04385 0.26827 0.32408
 N435 N 0.57046 0.76420 0.80472
 C436 C 0.59085 0.73704 0.80821
 N437 N 0.58360 0.71401 0.83226
 N438 N 0.55685 0.71794 0.85201
 C439 C 0.53655 0.74509 0.84848
 N440 N 0.54379 0.76819 0.82456
 N441 N 0.42786 0.73646 0.80505
 C442 C 0.40772 0.76384 0.80831
 N443 N 0.41519 0.78700 0.83214
 N444 N 0.44191 0.78299 0.85190
 C445 C 0.46198 0.75564 0.84859
 N446 N 0.45452 0.73241 0.82489
 N447 N -0.07149 0.23687 0.30334
 C448 C -0.09218 0.26380 0.30700
 N449 N -0.08536 0.28648 0.33150
 N450 N -0.05877 0.28249 0.35144
 C451 C -0.03817 0.25559 0.34769
 N452 N -0.04498 0.23281 0.32338
 N453 N -0.07075 0.76393 0.19535
 C454 C -0.09088 0.73652 0.19217
 N455 N -0.08346 0.71336 0.16834
 N456 N -0.05680 0.71740 0.14848
 C457 C -0.03674 0.74479 0.15170
 N458 N -0.04415 0.76801 0.17542
 N459 N 0.41563 0.21357 0.66872
 C460 C 0.40860 0.23621 0.69320
 N461 N 0.42919 0.26322 0.69699
 N462 N 0.45581 0.26740 0.67710
 C463 C 0.46282 0.24466 0.65281
 N464 N 0.44233 0.21769 0.64893
 N465 N 0.57069 0.23658 0.69729
 C466 C 0.59172 0.26322 0.69320
 N467 N 0.58506 0.28571 0.66846
 N468 N 0.55833 0.28180 0.64870
 C469 C 0.53742 0.25518 0.65285
 N470 N 0.54405 0.23260 0.67741
 N471 N 0.07187 0.73622 0.19514
 C472 C 0.09232 0.76335 0.19154
 N473 N 0.08504 0.78636 0.16750
 N474 N 0.05822 0.78245 0.14785
 C475 C 0.03786 0.75532 0.15149
 N476 N 0.04513 0.73225 0.17541
 N477 N 0.30186 0.07139 0.26266
 C478 C 0.30575 0.09120 0.23523
 N479 N 0.32997 0.08329 0.21258
 N480 N 0.34953 0.05649 0.21714
 C481 C 0.34563 0.03677 0.24457
 N482 N 0.32151 0.04465 0.26728
 N483 N 0.80234 0.57207 0.76279
 C484 C 0.80594 0.59180 0.73526
 N485 N 0.82975 0.58368 0.71225
 N486 N 0.84922 0.55678 0.71658
 C487 C 0.84562 0.53714 0.74411
 N488 N 0.82189 0.54521 0.76716
 N489 N 0.80201 0.42794 0.73736
 C490 C 0.80562 0.40817 0.76485
 N491 N 0.82956 0.41616 0.78777
 N492 N 0.84913 0.44301 0.78340
 C493 C 0.84552 0.46269 0.75591
 N494 N 0.82168 0.45473 0.73294
 N495 N 0.30190 -0.07222 0.23824
 C496 C 0.30595 -0.09243 0.26538
 N497 N 0.33030 -0.08471 0.28800
 N498 N 0.34977 -0.05778 0.28369
 C499 C 0.34568 -0.03771 0.25656
 N500 N 0.32147 -0.04537 0.23387
 N501 N 0.19848 -0.07165 0.76125
 C502 C 0.19404 -0.09213 0.73438
 N503 N 0.16920 -0.08480 0.71218
 N504 N 0.14965 -0.05797 0.71658
 C505 C 0.15413 -0.03761 0.74343
 N506 N 0.17881 -0.04490 0.76573
 N507 N 0.66954 0.41604 0.21242
 C508 C 0.69377 0.40826 0.23510
 N509 N 0.69756 0.42813 0.26249
 N510 N 0.67781 0.45480 0.26702
 C511 C 0.65369 0.46256 0.24428
 N512 N 0.64988 0.44278 0.21690
 N513 N 0.69742 0.57151 0.23779
 C514 C 0.69363 0.59141 0.26515
 N515 N 0.66947 0.58358 0.28791
 N516 N 0.64987 0.55676 0.28352
 C517 C 0.65367 0.53695 0.25616
 N518 N 0.67772 0.54476 0.23334
 N519 N 0.17007 0.08345 0.78702
 C520 C 0.19436 0.09119 0.76437
 N521 N 0.19822 0.07126 0.73704
 N522 N 0.17847 0.04455 0.73254
 C523 C 0.15429 0.03683 0.75526
 N524 N 0.15042 0.05668 0.78257
 N525 N 0.26243 0.30521 0.07048
 C526 C 0.23494 0.30881 0.09038
 N527 N 0.21205 0.33298 0.08280
 N528 N 0.21643 0.35275 0.05622
 C529 C 0.24391 0.34913 0.03641
 N530 N 0.26686 0.32508 0.04398
 N531 N 0.71213 0.83370 0.58351
 C532 C 0.73504 0.80956 0.59112
 N533 N 0.76249 0.80590 0.57118
 N534 N 0.76689 0.82568 0.54461
 C535 C 0.74393 0.84971 0.53702
 N536 N 0.71648 0.85340 0.55686
 N537 N 0.73711 0.80581 0.42889
 C538 C 0.76462 0.80940 0.40901
 N539 N 0.78755 0.83354 0.41661
 N540 N 0.78318 0.85330 0.44318
 C541 C 0.75567 0.84967 0.46298
 N542 N 0.73269 0.82565 0.45540
 N543 N 0.28766 0.33341 -0.08402
 C544 C 0.26476 0.30927 -0.09169
 N545 N 0.23725 0.30558 -0.07182
 N546 N 0.23281 0.32533 -0.04526
 C547 C 0.25577 0.34935 -0.03760
 N548 N 0.28327 0.35307 -0.05738
 N549 N 0.76257 0.19392 -0.07137
 C550 C 0.73507 0.19015 -0.09121
 N551 N 0.71221 0.16598 -0.08347
 N552 N 0.71666 0.14635 -0.05678
 C553 C 0.74416 0.15015 -0.03703
 N554 N 0.76707 0.17421 -0.04476
 N555 N 0.26297 0.69462 0.42904
 C556 C 0.23562 0.69101 0.40897
 N557 N 0.21268 0.66681 0.41640
 N558 N 0.21688 0.64703 0.44300
 C559 C 0.24422 0.65068 0.46299
 N560 N 0.26723 0.67475 0.45557
 N561 N 0.28721 0.66700 0.58350
 C562 C 0.26432 0.69124 0.59086
 N563 N 0.23696 0.69483 0.57080
 N564 N 0.23264 0.67489 0.54434
 C565 C 0.25559 0.65077 0.53700
 N566 N 0.28295 0.64715 0.55698
 N567 N 0.73766 0.19419 0.07112
 C568 C 0.76516 0.19059 0.09100
 N569 N 0.78808 0.16647 0.08337
 N570 N 0.78371 0.14673 0.05678
 C571 C 0.75620 0.15036 0.03699
 N572 N 0.73323 0.17437 0.04460
 N573 N 0.51401 0.32135 0.55549
 C574 C 0.48657 0.34144 0.55873
 N575 N 0.46339 0.33399 0.58260
 N576 N 0.46743 0.30734 0.60241
 C577 C 0.49485 0.28732 0.59911
 N578 N 0.51809 0.29477 0.57537
 N579 N -0.03586 0.83437 0.08169
 C580 C -0.01283 0.84158 0.05760
 N581 N 0.01432 0.82117 0.05404
 N582 N 0.01830 0.79452 0.07385
 C583 C -0.00478 0.78732 0.09783
 N584 N -0.03194 0.80765 0.10142
 N585 N 0.03703 0.66618 0.08123
 C586 C 0.01375 0.65875 0.05746
 N587 N -0.01367 0.67888 0.05429
 N588 N -0.01766 0.70547 0.07417
 C589 C 0.00568 0.71288 0.09781
 N590 N 0.03308 0.69283 0.10103
 N591 N 0.53671 0.16625 0.58224
 C592 C 0.51346 0.15890 0.55842
 N593 N 0.48604 0.17903 0.55528
 N594 N 0.48204 0.20556 0.57524
 C595 C 0.50535 0.21290 0.59894
 N596 N 0.53275 0.19284 0.60212
 N597 N -0.03703 0.16609 0.41791
 C598 C -0.01390 0.15895 0.44192
 N599 N 0.01321 0.17945 0.44538
 N600 N 0.01707 0.20611 0.42554
 C601 C -0.00611 0.21323 0.40165
 N602 N -0.03323 0.19282 0.39816
 N603 N 0.51336 0.67913 0.94590
 C604 C 0.48596 0.65897 0.94269
 N605 N 0.46271 0.66638 0.91889
 N606 N 0.46667 0.69305 0.89908
 C607 C 0.49406 0.71313 0.90233
 N608 N 0.51737 0.70574 0.92602
 N609 N 0.48556 0.82148 0.94598
 C610 C 0.51303 0.84155 0.94275
 N611 N 0.53621 0.83413 0.91887
 N612 N 0.53211 0.80753 0.89902
 C613 C 0.50466 0.78753 0.90231
 N614 N 0.48143 0.79494 0.92606
 N615 N 0.03584 0.33435 0.41798
 C616 C 0.01264 0.34181 0.44182
 N617 N -0.01482 0.32173 0.44507
 N618 N -0.01892 0.29514 0.42521
 C619 C 0.00434 0.28769 0.40150
 N620 N 0.03178 0.30770 0.39820
 N621 N 0.32157 0.55305 0.51282
 C622 C 0.34158 0.55674 0.48548
 N623 N 0.33386 0.58085 0.46267
 N624 N 0.30705 0.60049 0.46698
 C625 C 0.28713 0.59678 0.49431
 N626 N 0.29483 0.57279 0.51719
 N627 N 0.82255 0.05327 0.01261
 C628 C 0.84219 0.05680 -0.01501
 N629 N 0.83398 0.08057 -0.03800
 N630 N 0.80707 0.10005 -0.03357
 C631 C 0.78753 0.09650 -0.00595
 N632 N 0.79570 0.07282 0.01709
 N633 N 0.67835 0.05265 -0.01186
 C634 C 0.65854 0.05644 0.01560
 N635 N 0.66647 0.08060 0.03827
 N636 N 0.69329 0.10019 0.03370
 C637 C 0.71301 0.09638 0.00625
 N638 N 0.70511 0.07233 -0.01648
 N639 N 0.16576 0.58108 0.53756
 C640 C 0.15797 0.55696 0.51481
 N641 N 0.17796 0.55318 0.48748
 N642 N 0.20476 0.57285 0.48306
 C643 C 0.21253 0.59687 0.50587
 N644 N 0.19263 0.60066 0.53319
 N645 N 0.17814 0.44684 0.01200
 C646 C 0.15818 0.44313 -0.01536
 N647 N 0.16595 0.41902 -0.03813
 N648 N 0.19276 0.39939 -0.03375
 C649 C 0.21262 0.40312 -0.00640
 N650 N 0.20487 0.42712 0.01644
 N651 N 0.67818 0.94735 0.51252
 C652 C 0.65816 0.94361 0.48521
 N653 N 0.66588 0.91946 0.46246
 N654 N 0.69269 0.89983 0.46680
 C655 C 0.71261 0.90359 0.49411
 N656 N 0.70492 0.92763 0.51692
 N657 N 0.83376 0.91939 0.53761
 C658 C 0.84182 0.94322 0.51461
 N659 N 0.82202 0.94679 0.48712
 N660 N 0.79515 0.92721 0.48278
 C661 C 0.78713 0.90347 0.50582
 N662 N 0.80684 0.89989 0.53331
 N663 N 0.33372 0.41880 0.03743
 C664 C 0.34156 0.44303 0.01477
 N665 N 0.32168 0.44686 -0.01263
 N666 N 0.29493 0.42717 -0.01720
 C667 C 0.28711 0.40306 0.00553
 N668 N 0.30691 0.39920 0.03291
 N669 N 0.58360 0.46212 0.33374
 C670 C 0.55945 0.48502 0.34134
 N671 N 0.55586 0.51245 0.32141
 N672 N 0.57571 0.51682 0.29487
 C673 C 0.59974 0.49386 0.28729
 N674 N 0.60337 0.46643 0.30712
 N675 N 0.08404 -0.03775 0.83284
 C676 C 0.05992 -0.01480 0.84039
 N677 N 0.05637 0.01260 0.82042
 N678 N 0.07625 0.01690 0.79388
 C679 C 0.10025 -0.00610 0.78634
 N680 N 0.10383 -0.03351 0.80622
 N681 N 0.08416 0.03741 0.66595
 C682 C 0.05997 0.01452 0.65834
 N683 N 0.05637 -0.01295 0.67822
 N684 N 0.07623 -0.01737 0.70473
 C685 C 0.10030 0.00557 0.71232
 N686 N 0.10394 0.03303 0.69253
 N687 N 0.58349 0.53747 0.16694
 C688 C 0.55935 0.51454 0.15931
 N689 N 0.55580 0.48705 0.17917
 N690 N 0.57569 0.48264 0.20567
 C691 C 0.59971 0.50562 0.21328
 N692 N 0.60329 0.53311 0.19351
 N693 N 0.41609 -0.03790 0.16744
 C694 C 0.44029 -0.01498 0.15995
 N695 N 0.44380 0.01244 0.17989
 N696 N 0.42381 0.01677 0.20634
 C697 C 0.39973 -0.00621 0.21381
 N698 N 0.39620 -0.03362 0.19396
 N699 N 0.91569 0.46244 0.66654
 C700 C 0.93986 0.48537 0.65899
 N701 N 0.94345 0.51276 0.67893
 N702 N 0.92356 0.51708 0.70546
 C703 C 0.89951 0.49410 0.71300
 N704 N 0.89589 0.46671 0.69314
 N705 N 0.94345 0.48712 0.82104
 C706 C 0.93992 0.51458 0.84092
 N707 N 0.91578 0.53750 0.83334
 N708 N 0.89595 0.53317 0.80678
 C709 C 0.89951 0.50572 0.78699
 N710 N 0.92353 0.48274 0.79456
 N711 N 0.44334 -0.01287 0.32194
 C712 C 0.43971 0.01461 0.34176
 N713 N 0.41552 0.03746 0.33409
 N714 N 0.39576 0.03303 0.30750
 C715 C 0.39943 0.00555 0.28776
 N716 N 0.42350 -0.01735 0.29542
   
