data_POSCAR
  _audit_creation_date              2014-09-24
  _audit_creation_method            'ToBaCCo'
  _symmetry_space_group_name_H-M    'P1'
  _symmetry_Int_Tables_number       1
  _symmetry_cell_setting            triclinic
  loop_
  _symmetry_equiv_pos_as_xyz
 x,y,z
_cell_length_a 17.3396
_cell_length_b 18.5585
_cell_length_c 40.4544
_cell_angle_alpha 84.784800
_cell_angle_beta 96.092700
_cell_angle_gamma 118.597900
loop_
  _atom_site_label
  _atom_site_type_symbol
  _atom_site_fract_x
  _atom_site_fract_y
  _atom_site_fract_z
C1 C 0.04133 0.18237 0.53174
 H2 H 0.09960 0.17871 0.52706
 C3 C 0.04785 0.23768 0.55414
 H4 H 0.11149 0.27679 0.56644
 C5 C -0.11311 0.13126 0.52298
 H6 H -0.17572 0.08765 0.51148
 C7 C -0.10945 0.18662 0.54540
 H8 H -0.16990 0.18480 0.55117
 N9 N -0.03825 0.12911 0.51738
 C10 C 0.00728 -0.08231 0.51731
 H11 H 0.01801 -0.08560 0.49176
 C12 C -0.00160 -0.14646 0.54054
 H13 H 0.00420 -0.19783 0.53278
 C14 C -0.02336 -0.01644 0.55769
 H15 H -0.03633 0.03148 0.56432
 C16 C -0.03325 -0.07878 0.58132
 H17 H -0.05099 -0.07617 0.60591
 Zn18 Zn -0.02920 0.05025 0.49379
 N19 N -0.00616 -0.02010 0.52603
 C20 C 0.13597 0.10396 0.46343
 N21 N 0.06350 0.11338 0.46563
 C22 C 0.05339 0.17458 0.44793
 C23 C 0.11366 0.22556 0.42527
 C24 C 0.19974 0.15555 0.44142
 C25 C -0.17750 -0.09956 0.47710
 C26 C -0.23202 -0.15897 0.45438
 C27 C -0.20249 -0.05027 0.41218
 C28 C -0.14803 0.00675 0.43566
 N29 N -0.13268 -0.01886 0.46705
 H30 H 0.14394 0.05631 0.47837
 H31 H -0.00224 0.18372 0.45138
 H32 H 0.10265 0.27204 0.41058
 H33 H 0.25590 0.14627 0.43895
 H34 H -0.16645 -0.11914 0.50231
 H35 H -0.26111 -0.22245 0.46330
 H36 H -0.20909 -0.02795 0.38687
 H37 H -0.11351 0.07070 0.42784
 C38 C -0.02508 -0.14595 0.57272
 C39 C -0.02800 0.23921 0.56184
 C40 C -0.24153 -0.13506 0.42071
 C41 C 0.18749 0.21622 0.42169
 C42 C 1.19456 -0.03579 0.15501
 H43 H 1.23407 0.00238 0.17520
 C44 C 1.23699 -0.04896 0.13066
 H45 H 1.30774 -0.02364 0.13379
 C46 C 1.05575 -0.11171 0.12606
 H47 H 0.98556 -0.13267 0.12365
 C48 C 1.09584 -0.12541 0.10080
 H49 H 1.05563 -0.15857 0.07939
 N50 N 1.10581 -0.06458 0.15180
 C51 C 0.90660 -0.00354 0.15012
 H52 H 0.87995 -0.03140 0.17364
 C53 C 0.84993 0.00086 0.12385
 H54 H 0.78178 -0.02056 0.12831
 C55 C 1.02642 0.05583 0.11574
 H56 H 1.09444 0.07372 0.11239
 C57 C 0.97156 0.06074 0.08860
 H58 H 0.99839 0.08425 0.06461
 Zn59 Zn 1.05618 -0.01700 0.17672
 N60 N 0.99244 0.02110 0.14544
 C61 C 1.17288 0.14762 0.19836
 N62 N 1.14778 0.06601 0.20228
 C63 C 1.18326 0.03577 0.22774
 C64 C 1.24619 0.08771 0.25074
 C65 C 1.23574 0.20229 0.22120
 C66 C 0.93609 -0.17343 0.20797
 C67 C 0.87381 -0.21994 0.23124
 C68 C 0.89935 -0.09357 0.25383
 C69 C 0.96061 -0.05005 0.23048
 N70 N 0.97718 -0.08997 0.20790
 H71 H 1.14240 0.16983 0.17820
 H72 H 1.16091 -0.02965 0.23050
 H73 H 1.27196 0.06161 0.27118
 H74 H 1.25235 0.26642 0.21825
 H75 H 0.94994 -0.20372 0.18959
 H76 H 0.84005 -0.28613 0.23033
 H77 H 0.88653 -0.06007 0.27119
 H78 H 0.99354 0.01637 0.22968
 C79 C 0.88123 0.02928 0.09212
 C80 C 1.18803 -0.09030 0.10212
 C81 C 0.85460 -0.17943 0.25445
 C82 C 1.27241 0.17187 0.24811
 C83 C 0.14451 1.00195 0.85185
 H84 H 0.14093 0.97099 0.83001
 C85 C 0.20607 1.00761 0.87794
 H86 H 0.25111 0.98418 0.87487
 C87 C 0.08855 1.06693 0.88275
 H88 H 0.03966 1.08629 0.88503
 C89 C 0.14884 1.07319 0.90969
 H90 H 0.14734 1.09924 0.93237
 N91 N 0.08514 1.02867 0.85508
 C92 C -0.16774 0.97729 0.85325
 H93 H -0.16610 1.01939 0.83279
 C94 C -0.22035 0.96492 0.87912
 H95 H -0.25806 0.99768 0.87687
 C96 C -0.11202 0.89274 0.88157
 H97 H -0.06627 0.86822 0.88304
 C98 C -0.16344 0.87890 0.90824
 H99 H -0.15826 0.84158 0.92968
 Zn100 Zn -0.01960 0.98776 0.82666
 N101 N -0.11320 0.94324 0.85522
 C102 C -0.06911 0.82792 0.80183
 N103 N -0.01912 0.91102 0.79909
 C104 C 0.03849 0.94764 0.77502
 C105 C 0.04919 0.90090 0.75282
 C106 C -0.06093 0.77823 0.77971
 C107 C 0.02518 1.15036 0.79747
 C108 C 0.01150 1.20359 0.77354
 C109 C -0.11610 1.08627 0.75026
 C110 C -0.09988 1.03584 0.77431
 N111 N -0.03059 1.06820 0.79734
 H112 H -0.11475 0.80028 0.82114
 H113 H 0.07721 1.01387 0.77339
 H114 H 0.09571 0.93192 0.73390
 H115 H -0.10089 0.71235 0.78238
 H116 H 0.08048 1.17440 0.81583
 H117 H 0.05766 1.26841 0.77378
 H118 H -0.17155 1.05869 0.73210
 H119 H -0.14267 0.97013 0.77468
 C120 C -0.21675 0.91720 0.90784
 C121 C 0.20532 1.03933 0.90805
 C122 C -0.06028 1.17124 0.74944
 C123 C -0.00079 0.81521 0.75474
 C124 C 0.65162 -0.05141 -0.03076
 C125 C 0.70278 -0.04611 -0.00070
 C126 C 0.67687 -0.03855 0.02983
 C127 C 0.59526 -0.03957 0.03118
 C128 C 0.54368 -0.04159 0.00128
 C129 C 0.57222 -0.04611 -0.02987
 C130 C 0.51850 -0.04785 -0.05892
 C131 C 0.44228 -0.04151 -0.05766
 C132 C 0.41292 -0.03756 -0.02722
 C133 C 0.46307 -0.03915 0.00260
 C134 C 0.56462 -0.03704 0.06169
 C135 C 0.48432 -0.03800 0.06298
 C136 C 0.43275 -0.03821 0.03374
 C137 C 0.35107 -0.03869 0.03479
 C138 C 0.30471 -0.03320 0.00499
 C139 C 0.33523 -0.03110 -0.02589
 H140 H 0.53301 -0.05436 -0.08336
 H141 H 0.40606 -0.04083 -0.08105
 H142 H 0.60204 -0.03483 0.08508
 H143 H 0.46367 -0.03785 0.08727
 H144 H 0.76573 -0.04504 -0.00076
 H145 H 0.24383 -0.03051 0.00584
 C146 C -0.06534 0.35621 0.62671
 C147 C -0.05919 0.31455 0.65671
 C148 C -0.05003 0.34723 0.68767
 C149 C -0.04919 0.42361 0.68868
 C150 C -0.05175 0.46830 0.65851
 C151 C -0.05942 0.43470 0.62742
 C152 C -0.05806 0.48157 0.59795
 C153 C -0.04772 0.56057 0.59893
 C154 C -0.04033 0.59507 0.62940
 C155 C -0.04527 0.54738 0.65945
 C156 C -0.04681 0.45611 0.71907
 C157 C -0.04477 0.53175 0.71993
 C158 C -0.04307 0.57873 0.69049
 C159 C -0.03679 0.65721 0.69135
 C160 C -0.02806 0.70463 0.66165
 C161 C -0.02949 0.67542 0.63067
 H162 H -0.06314 0.45826 0.57381
 H163 H -0.04669 0.59388 0.57546
 H164 H -0.04772 0.42295 0.74256
 H165 H -0.04238 0.55389 0.74405
 H166 H -0.05968 0.25617 0.65575
 H167 H -0.02002 0.76591 0.66282
 C168 C 0.40125 0.34405 0.30962
 C169 C 0.35806 0.30551 0.33851
 C170 C 0.38399 0.34407 0.36884
 C171 C 0.45475 0.42494 0.37043
 C172 C 0.50130 0.46419 0.34173
 C173 C 0.47526 0.42293 0.31137
 C174 C 0.52418 0.46133 0.28360
 C175 C 0.59661 0.53902 0.28538
 C176 C 0.62183 0.58234 0.31478
 C177 C 0.57268 0.54556 0.34311
 C178 C 0.47759 0.46885 0.39946
 C179 C 0.54395 0.55009 0.40029
 C180 C 0.59346 0.59024 0.37251
 C181 C 0.66034 0.67420 0.37248
 C182 C 0.71102 0.70680 0.34462
 C183 C 0.69391 0.66211 0.31621
 H184 H 0.50771 0.43122 0.26026
 H185 H 0.63116 0.56558 0.26303
 H186 H 0.44233 0.44161 0.42162
 H187 H 0.55463 0.57993 0.42322
 H188 H 0.30119 0.24501 0.33727
 H189 H 0.76878 0.76660 0.34569
 C190 C -0.01962 0.28817 0.59013
 C191 C -0.07516 0.31631 0.59523
 H192 H 0.03596 0.30142 0.60816
 H193 H -0.12758 0.31012 0.57672
 C194 C 0.78785 0.77791 0.27924
 C195 C 0.75517 0.69854 0.28905
 H196 H 0.76650 0.81509 0.29088
 H197 H 0.77454 0.65950 0.27785
 C198 C 0.25896 0.03397 -0.06171
 C199 C 0.28318 -0.02508 -0.05646
 H200 H 0.27535 0.07721 -0.04252
 H201 H 0.26478 -0.07062 -0.07475
 C202 C -0.04854 0.78469 0.59759
 C203 C -0.01547 0.73209 0.60060
 H204 H -0.09204 0.78027 0.61593
 H205 H 0.02698 0.73428 0.58233
 C206 C 0.33013 0.22191 0.27598
 C207 C 0.36230 0.30309 0.27763
 H208 H 0.34285 0.18876 0.29750
 H209 H 0.35611 0.33979 0.25625
 C210 C 0.74111 -0.08880 -0.06326
 C211 C 0.68268 -0.05706 -0.06098
 H212 H 0.75415 -0.12110 -0.04156
 H213 H 0.65897 -0.03797 -0.08378
 C214 C 0.23042 -0.09299 0.07255
 C215 C 0.31458 -0.04063 0.06657
 H216 H 0.18908 -0.13594 0.05373
 H217 H 0.35758 0.00412 0.08437
 C218 C 0.71977 0.81136 0.39599
 C219 C 0.68058 0.72495 0.39979
 H220 H 0.72067 0.83734 0.37081
 H221 H 0.66344 0.69699 0.42417
 C222 C -0.07788 0.22106 0.72184
 C223 C -0.03500 0.30321 0.71827
 H224 H -0.12925 0.18745 0.70297
 H225 H 0.01317 0.33931 0.73740
 C226 C 0.82118 0.02366 0.06229
 C227 C 0.73537 -0.03195 0.06022
 H228 H 0.84925 0.06387 0.04078
 H229 H 0.70644 -0.07445 0.08097
 C230 C 0.24477 0.26540 0.39499
 C231 C 0.33254 0.29867 0.39780
 H232 H 0.21299 0.27751 0.37220
 H233 H 0.36656 0.29370 0.42124
 C234 C 0.01097 0.76964 0.72915
 C235 C -0.04261 0.69080 0.72249
 H236 H 0.06399 0.80532 0.71299
 H237 H -0.09493 0.65160 0.73829
   
