data_POSCAR
  _audit_creation_date              2014-09-24
  _audit_creation_method            'ToBaCCo'
  _symmetry_space_group_name_H-M    'P1'
  _symmetry_Int_Tables_number       1
  _symmetry_cell_setting            triclinic
  loop_
  _symmetry_equiv_pos_as_xyz
 x,y,z
_cell_length_a 59.9161
_cell_length_b 54.7682
_cell_length_c 8.9617
_cell_angle_alpha 90.707700
_cell_angle_beta 89.761000
_cell_angle_gamma 90.068600
loop_
  _atom_site_label
  _atom_site_type_symbol
  _atom_site_fract_x
  _atom_site_fract_y
  _atom_site_fract_z
O1 O 0.23114 0.27054 0.05470
 O2 O 0.27431 0.22355 0.10322
 O3 O 0.23110 0.22316 0.06804
 O4 O 0.27434 0.27098 0.09202
 O5 O 0.26973 0.27302 0.33675
 O6 O 0.22660 0.22526 0.31284
 O7 O 0.26982 0.22558 0.34806
 O8 O 0.22656 0.27260 0.29947
 Cu9 Cu 0.25322 0.24684 0.05529
 Cu10 Cu 0.24770 0.24934 0.34841
 C11 C 0.22144 0.27939 0.16922
 C12 C 0.27944 0.21670 0.23327
 C13 C 0.22145 0.21625 0.18659
 C14 C 0.27940 0.27998 0.21852
 O15 O 0.77516 0.27428 0.39811
 O16 O 0.73260 0.22639 0.44270
 O17 O 0.77520 0.22684 0.38044
 O18 O 0.73249 0.27374 0.45774
 O19 O 0.72509 0.27543 0.21654
 O20 O 0.76768 0.22856 0.13945
 O21 O 0.72507 0.22810 0.20170
 O22 O 0.76775 0.27602 0.15694
 Cu23 Cu 0.75466 0.25013 0.44397
 Cu24 Cu 0.74566 0.25219 0.15437
 C25 C 0.77871 0.28318 0.27021
 C26 C 0.72149 0.21932 0.33000
 C27 C 0.77871 0.21987 0.24689
 C28 C 0.72146 0.28235 0.34997
 O29 O 0.73365 0.77372 0.55578
 O30 O 0.77613 0.72584 0.60085
 O31 O 0.73355 0.72638 0.54013
 O32 O 0.77622 0.77329 0.61720
 O33 O 0.76842 0.77165 0.85824
 O34 O 0.72579 0.72474 0.78127
 O35 O 0.76835 0.72419 0.84195
 O36 O 0.72585 0.77207 0.79688
 Cu37 Cu 0.75572 0.74999 0.55426
 Cu38 Cu 0.74633 0.74800 0.84387
 C39 C 0.72243 0.78081 0.66856
 C40 C 0.77948 0.71700 0.72898
 C41 C 0.72233 0.71780 0.64782
 C42 C 0.77960 0.78030 0.75064
 O43 O 0.22646 0.77280 0.68626
 O44 O 0.26955 0.72490 0.66820
 O45 O 0.22636 0.72557 0.70732
 O46 O 0.26968 0.77228 0.64723
 O47 O 0.27433 0.77553 0.89130
 O48 O 0.23102 0.72883 0.95139
 O49 O 0.27421 0.72818 0.91223
 O50 O 0.23115 0.77606 0.93030
 Cu51 Cu 0.24754 0.74854 0.65296
 Cu52 Cu 0.25320 0.75250 0.94543
 C53 C 0.22141 0.78238 0.81147
 C54 C 0.27921 0.71852 0.78717
 C55 C 0.22124 0.71945 0.83916
 C56 C 0.27938 0.78173 0.75953
 C57 C 0.99929 0.06523 0.04775
 C58 C 1.01902 0.05185 0.05740
 C59 C 1.01867 0.02647 0.03704
 C60 C 0.99871 0.01415 -0.00160
 C61 C 0.97902 0.02819 -0.01433
 C62 C 0.97926 0.05339 0.01413
 C63 C 0.99844 -0.01305 -0.02750
 C64 C 0.97843 -0.02664 -0.01524
 C65 C 0.97825 -0.05191 -0.04137
 C66 C 0.99814 -0.06423 -0.07234
 C67 C 1.01817 -0.05130 -0.08146
 C68 C 1.01826 -0.02587 -0.06355
 H69 H 0.99952 0.08484 0.06637
 H70 H 1.03410 0.01667 0.05255
 H71 H 0.96337 0.01989 -0.04664
 H72 H 0.96288 -0.01797 0.01583
 H73 H 0.99806 -0.08389 -0.08872
 H74 H 1.03394 -0.01643 -0.07837
 C75 C 0.49960 0.56503 0.55651
 C76 C 0.51909 0.55297 0.51217
 C77 C 0.51876 0.52774 0.48522
 C78 C 0.49909 0.51403 0.50838
 C79 C 0.47965 0.52652 0.55570
 C80 C 0.47985 0.55190 0.57686
 C81 C 0.49892 0.48693 0.48422
 C82 C 0.47914 0.47455 0.44322
 C83 C 0.47899 0.44913 0.42379
 C84 C 0.49871 0.43585 0.43937
 C85 C 0.51852 0.44781 0.47739
 C86 C 0.51857 0.47308 0.50259
 H87 H 0.49982 0.58464 0.57551
 H88 H 0.53391 0.51902 0.44571
 H89 H 0.46433 0.51670 0.57786
 H90 H 0.46379 0.48447 0.42551
 H91 H 0.49863 0.41620 0.42224
 H92 H 0.53397 0.48171 0.53761
 C93 C 0.00040 0.43580 0.06944
 C94 C -0.01943 0.44905 0.08034
 C95 C -0.01933 0.47428 0.05721
 C96 C 0.00049 0.48651 0.01529
 C97 C 0.02028 0.47260 0.00140
 C98 C 0.02029 0.44758 0.03195
 C99 C 0.00050 0.51348 -0.01360
 C100 C 0.02024 0.52747 0.00058
 C101 C 0.02023 0.55254 -0.02877
 C102 C 0.00036 0.56424 -0.06591
 C103 C -0.01943 0.55089 -0.07748
 C104 C -0.01929 0.52563 -0.05524
 H105 H 0.00036 0.41633 0.09003
 H106 H -0.03480 0.48413 0.07310
 H107 H 0.03579 0.48092 -0.03363
 H108 H 0.03571 0.51921 0.03561
 H109 H 0.00028 0.58376 -0.08534
 H110 H -0.03473 0.51571 -0.07129
 C111 C 0.50063 0.93587 0.56586
 C112 C 0.48074 0.94905 0.57619
 C113 C 0.48085 0.97437 0.55620
 C114 C 0.50077 0.98676 0.51817
 C115 C 0.52060 0.97292 0.50468
 C116 C 0.52057 0.94780 0.53188
 C117 C 0.50085 1.01380 0.49201
 C118 C 0.52061 1.02769 0.50926
 C119 C 0.52080 1.05276 0.48046
 C120 C 0.50111 1.06460 0.44125
 C121 C 0.48128 1.05139 0.42722
 C122 C 0.48121 1.02610 0.44882
 H123 H 0.50056 0.91631 0.58360
 H124 H 0.46532 0.98415 0.57103
 H125 H 0.53616 0.98135 0.47181
 H126 H 0.53595 1.01933 0.54572
 H127 H 0.50121 1.08410 0.42157
 H128 H 0.46578 1.01628 0.43042
 C129 C 1.20499 0.19927 0.17837
 C130 C 1.18999 0.18461 0.17284
 C131 C 1.17164 0.16765 0.16816
 C132 C 1.17390 0.14502 0.09548
 C133 C 1.15581 0.12888 0.08864
 C134 C 1.13523 0.13520 0.15488
 C135 C 1.13322 0.15790 0.22889
 C136 C 1.15130 0.17400 0.23530
 C137 C 1.11573 0.11854 0.14378
 C138 C 1.10124 0.11553 0.26620
 C139 C 1.08218 0.10092 0.25310
 C140 C 1.07738 0.08911 0.11762
 C141 C 1.09191 0.09162 -0.00391
 C142 C 1.11098 0.10622 0.00894
 C143 C 1.05703 0.07540 0.10072
 C144 C 1.03978 0.06441 0.08322
 H145 H 1.18961 0.13991 0.04356
 H146 H 1.15793 0.11143 0.03239
 H147 H 1.11753 0.16343 0.27911
 H148 H 1.14934 0.19150 0.29147
 H149 H 1.10461 0.12454 0.37186
 H150 H 1.07103 0.09912 0.34784
 H151 H 1.08828 0.08264 -0.10944
 H152 H 1.12164 0.10843 -0.08777
 C153 C 0.70496 0.70040 0.61818
 C154 C 0.68988 0.68631 0.59481
 C155 C 0.67135 0.67010 0.56881
 C156 C 0.64985 0.67969 0.55431
 C157 C 0.63163 0.66411 0.53326
 C158 C 0.63467 0.63865 0.52675
 C159 C 0.65639 0.62916 0.54012
 C160 C 0.67461 0.64482 0.56090
 C161 C 0.61513 0.62213 0.51086
 C162 C 0.61358 0.60078 0.59605
 C163 C 0.59457 0.58601 0.58794
 C164 C 0.57690 0.59231 0.49435
 C165 C 0.57847 0.61323 0.40684
 C166 C 0.59746 0.62804 0.41485
 C167 C 0.55671 0.57808 0.49482
 C168 C 0.53962 0.56647 0.49997
 H169 H 0.64713 0.69923 0.56096
 H170 H 0.61510 0.67195 0.52562
 H171 H 0.65927 0.60966 0.53403
 H172 H 0.69120 0.63720 0.57170
 H173 H 0.62677 0.59590 0.67235
 H174 H 0.59346 0.56995 0.65699
 H175 H 0.56488 0.61831 0.33418
 H176 H 0.59830 0.64418 0.34644
 C177 C -0.20427 0.30139 0.25353
 C178 C -0.18962 0.31635 0.24144
 C179 C -0.17172 0.33378 0.22894
 C180 C -0.15994 0.34110 0.35638
 C181 C -0.14187 0.35712 0.34414
 C182 C -0.13530 0.36603 0.20400
 C183 C -0.14748 0.35885 0.07675
 C184 C -0.16555 0.34280 0.08927
 C185 C -0.11543 0.38209 0.19017
 C186 C -0.11543 0.40191 0.09165
 C187 C -0.09637 0.41641 0.07502
 C188 C -0.07708 0.41130 0.15642
 C189 C -0.07700 0.39181 0.25584
 C190 C -0.09603 0.37733 0.27291
 C191 C -0.05704 0.42528 0.13304
 C192 C -0.04001 0.43644 0.11092
 H193 H -0.16459 0.33425 0.46519
 H194 H -0.13303 0.36255 0.44444
 H195 H -0.14268 0.36512 -0.03300
 H196 H -0.17449 0.33717 -0.01027
 H197 H -0.13016 0.40619 0.02749
 H198 H -0.09659 0.43141 -0.00268
 H199 H -0.06208 0.38754 0.31822
 H200 H -0.09537 0.36199 0.34782
 C201 C 0.29668 0.79947 0.73753
 C202 C 0.31155 0.81404 0.72051
 C203 C 0.32967 0.83101 0.70135
 C204 C 0.32920 0.85386 0.77305
 C205 C 0.34719 0.86998 0.75788
 C206 C 0.36586 0.86342 0.67047
 C207 C 0.36609 0.84045 0.59832
 C208 C 0.34813 0.82437 0.61387
 C209 C 0.38519 0.88023 0.65586
 C210 C 0.39606 0.88282 0.51754
 C211 C 0.41482 0.89781 0.50462
 C212 C 0.42302 0.91042 0.62961
 C213 C 0.41216 0.90826 0.76744
 C214 C 0.39332 0.89330 0.78051
 C215 C 0.44303 0.92481 0.61617
 C216 C 0.46008 0.93623 0.60062
 H217 H 0.31500 0.85917 0.84114
 H218 H 0.34644 0.88762 0.81353
 H219 H 0.38036 0.83471 0.53223
 H220 H 0.34874 0.80666 0.55878
 H221 H 0.39002 0.87325 0.41925
 H222 H 0.42308 0.89936 0.39732
 H223 H 0.41844 0.91785 0.86512
 H224 H 0.38547 0.89146 0.88883
 C225 C -0.20353 0.69883 -0.25325
 C226 C -0.18894 0.68392 -0.23864
 C227 C -0.17116 0.66653 -0.22143
 C228 C -0.16532 0.65083 -0.33965
 C229 C -0.14744 0.63465 -0.32488
 C230 C -0.13515 0.63398 -0.19147
 C231 C -0.14134 0.64965 -0.07271
 C232 C -0.15921 0.66581 -0.08779
 C233 C -0.11560 0.61752 -0.17731
 C234 C -0.11148 0.60536 -0.04278
 C235 C -0.09250 0.59080 -0.02733
 C236 C -0.07740 0.58815 -0.14601
 C237 C -0.08152 0.59984 -0.28109
 C238 C -0.10050 0.61440 -0.29685
 C239 C -0.05718 0.57441 -0.12634
 C240 C -0.04006 0.56340 -0.10639
 H241 H -0.17446 0.65123 -0.44366
 H242 H -0.14326 0.62262 -0.41758
 H243 H -0.13203 0.64984 0.03061
 H244 H -0.16350 0.67798 0.00411
 H245 H -0.12293 0.60712 0.05050
 H246 H -0.08946 0.58185 0.07781
 H247 H -0.06985 0.59805 -0.37324
 H248 H -0.10303 0.62377 -0.40109
 C249 C 0.29680 1.19893 0.24998
 C250 C 0.31179 1.18440 0.26075
 C251 C 0.33015 1.16757 0.27048
 C252 C 0.33063 1.15000 0.38257
 C253 C 0.34888 1.13422 0.39385
 C254 C 0.36692 1.13590 0.29332
 C255 C 0.36611 1.15342 0.17998
 C256 C 0.34786 1.16913 0.16883
 C257 C 0.38680 1.11997 0.30898
 C258 C 0.40838 1.12965 0.29044
 C259 C 0.42716 1.11492 0.30859
 C260 C 0.42469 1.09031 0.34527
 C261 C 0.40330 1.08041 0.36287
 C262 C 0.38445 1.09514 0.34489
 C263 C 0.44420 1.07565 0.37041
 C264 C 0.46092 1.06414 0.39438
 H265 H 0.31704 1.14869 0.46218
 H266 H 0.34914 1.12113 0.48335
 H267 H 0.37959 1.15494 0.09972
 H268 H 0.34764 1.18262 0.08142
 H269 H 0.41076 1.14876 0.26521
 H270 H 0.44364 1.12282 0.29587
 H271 H 0.40119 1.06139 0.39151
 H272 H 0.36805 1.08712 0.35837
 C273 C 1.20393 -0.19979 -0.18052
 C274 C 1.18881 -0.18532 -0.17274
 C275 C 1.17030 -0.16866 -0.16209
 C276 C 1.15107 -0.17547 -0.08387
 C277 C 1.13285 -0.15964 -0.07472
 C278 C 1.13358 -0.13675 -0.14410
 C279 C 1.15300 -0.13002 -0.22241
 C280 C 1.17126 -0.14590 -0.23118
 C281 C 1.11406 -0.12013 -0.13532
 C282 C 1.10696 -0.10728 -0.26162
 C283 C 1.08797 -0.09246 -0.25421
 C284 C 1.07593 -0.09024 -0.12054
 C285 C 1.08310 -0.10263 0.00616
 C286 C 1.10201 -0.11748 -0.00105
 C287 C 1.05586 -0.07589 -0.11310
 C288 C 1.03878 -0.06440 -0.10183
 H289 H 1.15010 -0.19312 -0.03088
 H290 H 1.11802 -0.16549 -0.01550
 H291 H 1.15414 -0.11241 -0.27546
 H292 H 1.18607 -0.14045 -0.29208
 H293 H 1.11576 -0.10917 -0.36690
 H294 H 1.08253 -0.08298 -0.35300
 H295 H 1.07393 -0.10100 0.11031
 H296 H 1.10725 -0.12686 0.09850
 C297 C 0.70410 0.29977 0.37929
 C298 C 0.68900 0.31389 0.40166
 C299 C 0.67045 0.33014 0.42563
 C300 C 0.64890 0.32057 0.43950
 C301 C 0.63066 0.33618 0.45794
 C302 C 0.63372 0.36165 0.46242
 C303 C 0.65548 0.37113 0.44925
 C304 C 0.67373 0.35544 0.43107
 C305 C 0.61417 0.37817 0.47646
 C306 C 0.61279 0.39934 0.38966
 C307 C 0.59380 0.41413 0.39670
 C308 C 0.57601 0.40802 0.49084
 C309 C 0.57740 0.38726 0.57973
 C310 C 0.59635 0.37242 0.57268
 C311 C 0.55592 0.42238 0.49072
 C312 C 0.53893 0.43411 0.48686
 H313 H 0.64616 0.30101 0.43432
 H314 H 0.61410 0.32834 0.46525
 H315 H 0.65838 0.39064 0.45366
 H316 H 0.69036 0.36304 0.42033
 H317 H 0.62609 0.40409 0.31317
 H318 H 0.59283 0.43010 0.32682
 H319 H 0.56373 0.38237 0.65309
 H320 H 0.59705 0.35642 0.64221
 C321 C 0.79584 -0.20301 -0.22103
 C322 C 0.81063 -0.18859 -0.19622
 C323 C 0.82873 -0.17193 -0.16720
 C324 C 0.82483 -0.14678 -0.15612
 C325 C 0.84259 -0.13070 -0.12985
 C326 C 0.86446 -0.13962 -0.11375
 C327 C 0.86815 -0.16495 -0.12459
 C328 C 0.85041 -0.18096 -0.15125
 C329 C 0.88346 -0.12266 -0.08863
 C330 C 0.90059 -0.12866 0.01144
 C331 C 0.91909 -0.11335 0.02898
 C332 C 0.92073 -0.09184 -0.05291
 C333 C 0.90358 -0.08546 -0.15057
 C334 C 0.88503 -0.10072 -0.16809
 C335 C 0.94060 -0.07714 -0.04367
 C336 C 0.95760 -0.06535 -0.04005
 H337 H 0.80810 -0.13960 -0.16816
 H338 H 0.83921 -0.11132 -0.12089
 H339 H 0.88483 -0.17235 -0.11523
 H340 H 0.85362 -0.20039 -0.16050
 H341 H 0.89970 -0.14525 0.07574
 H342 H 0.93230 -0.11850 0.10455
 H343 H 0.90477 -0.06895 -0.21554
 H344 H 0.87224 -0.09574 -0.24706
 C345 C 0.29672 0.29799 0.22883
 C346 C 0.31162 0.31269 0.24014
 C347 C 0.32978 0.32969 0.25732
 C348 C 0.33006 0.35160 0.17856
 C349 C 0.34782 0.36799 0.19643
 C350 C 0.36546 0.36264 0.29390
 C351 C 0.36502 0.34053 0.37206
 C352 C 0.34732 0.32419 0.35374
 C353 C 0.38437 0.37988 0.31401
 C354 C 0.39326 0.38424 0.45684
 C355 C 0.41176 0.39949 0.47557
 C356 C 0.42162 0.41062 0.35211
 C357 C 0.41266 0.40679 0.20972
 C358 C 0.39409 0.39155 0.19069
 C359 C 0.44152 0.42501 0.37207
 C360 C 0.45847 0.43638 0.39321
 H361 H 0.31654 0.35605 0.10377
 H362 H 0.34763 0.38496 0.13570
 H363 H 0.37854 0.33571 0.44588
 H364 H 0.34733 0.30722 0.41464
 H365 H 0.38593 0.37580 0.55404
 H366 H 0.41856 0.40234 0.58621
 H367 H 0.42025 0.41524 0.11335
 H368 H 0.38773 0.38835 0.07929
 C369 C 0.20462 0.70298 -0.13981
 C370 C 0.18946 0.68878 -0.12261
 C371 C 0.17090 0.67238 -0.10352
 C372 C 0.14917 0.68168 -0.09775
 C373 C 0.13102 0.66592 -0.08034
 C374 C 0.13435 0.64059 -0.06874
 C375 C 0.15626 0.63139 -0.07501
 C376 C 0.17443 0.64722 -0.09206
 C377 C 0.11496 0.62390 -0.05196
 C378 C 0.11410 0.60159 -0.13142
 C379 C 0.09540 0.58641 -0.12018
 C380 C 0.07737 0.59324 -0.02899
 C381 C 0.07823 0.61520 0.05225
 C382 C 0.09689 0.63042 0.04102
 C383 C 0.05756 0.57838 -0.02455
 C384 C 0.04068 0.56636 -0.02421
 H385 H 0.14624 0.70111 -0.10747
 H386 H 0.11434 0.67352 -0.07841
 H387 H 0.15937 0.61201 -0.06510
 H388 H 0.19119 0.63984 -0.09634
 H389 H 0.12763 0.59620 -0.20520
 H390 H 0.09484 0.56954 -0.18453
 H391 H 0.06436 0.62070 0.12293
 H392 H 0.09719 0.64731 0.10517
 C393 C 0.70504 1.20255 0.34790
 C394 C 0.68998 1.18820 0.36467
 C395 C 0.67149 1.17178 0.38516
 C396 C 0.67515 1.14729 0.42072
 C397 C 0.65702 1.13157 0.44225
 C398 C 0.63501 1.14020 0.42899
 C399 C 0.63155 1.16483 0.39272
 C400 C 0.64967 1.18047 0.37094
 C401 C 0.61566 1.12364 0.45115
 C402 C 0.59651 1.13189 0.52780
 C403 C 0.57785 1.11675 0.54222
 C404 C 0.57809 1.09316 0.48063
 C405 C 0.59721 1.08459 0.40664
 C406 C 0.61591 1.09970 0.39222
 C407 C 0.55826 1.07833 0.48602
 C408 C 0.54133 1.06641 0.48625
 H409 H 0.69198 1.14039 0.43251
 H410 H 0.66020 1.11276 0.47133
 H411 H 0.61483 1.17193 0.37925
 H412 H 0.64665 1.19937 0.34299
 H413 H 0.59592 1.15010 0.57618
 H414 H 0.56313 1.12358 0.59949
 H415 H 0.59751 1.06641 0.35760
 H416 H 0.63031 1.09293 0.33121
 C417 C 0.20396 0.29697 0.15127
 C418 C 0.18886 0.31125 0.13666
 C419 C 0.17037 0.32772 0.11936
 C420 C 0.17406 0.35270 0.09921
 C421 C 0.15597 0.36855 0.08191
 C422 C 0.13396 0.35954 0.08409
 C423 C 0.13046 0.33440 0.10501
 C424 C 0.14854 0.31863 0.12255
 C425 C 0.11468 0.37620 0.06492
 C426 C 0.09630 0.36897 -0.02245
 C427 C 0.07777 0.38424 -0.03598
 C428 C 0.07734 0.40694 0.03729
 C429 C 0.09566 0.41447 0.12267
 C430 C 0.11425 0.39924 0.13621
 C431 C 0.05762 0.42187 0.03097
 C432 C 0.04078 0.43387 0.02904
 H433 H 0.19090 0.35993 0.09655
 H434 H 0.15920 0.38776 0.06462
 H435 H 0.11372 0.32697 0.10956
 H436 H 0.14549 0.29934 0.13896
 H437 H 0.09626 0.35149 -0.08021
 H438 H 0.06365 0.37819 -0.10200
 H439 H 0.09543 0.43193 0.18091
 H440 H 0.12801 0.40518 0.20571
 C441 C 0.70506 0.79851 0.64994
 C442 C 0.68999 0.81279 0.63396
 C443 C 0.67148 0.82917 0.61460
 C444 C 0.67502 0.85433 0.60218
 C445 C 0.65689 0.87008 0.58358
 C446 C 0.63500 0.86080 0.57658
 C447 C 0.63166 0.83547 0.58896
 C448 C 0.64977 0.81980 0.60793
 C449 C 0.61564 0.87739 0.55824
 C450 C 0.59778 0.87067 0.46478
 C451 C 0.57907 0.88573 0.45278
 C452 C 0.57796 0.90770 0.53377
 C453 C 0.59579 0.91475 0.62515
 C454 C 0.61454 0.89973 0.63710
 C455 C 0.55805 0.92234 0.52887
 C456 C 0.54110 0.93417 0.52806
 H457 H 0.69177 0.86177 0.60670
 H458 H 0.66000 0.88945 0.57284
 H459 H 0.61499 0.82780 0.58614
 H460 H 0.64683 0.80036 0.61791
 H461 H 0.59826 0.85375 0.40106
 H462 H 0.56536 0.88008 0.38185
 H463 H 0.59502 0.93165 0.68916
 H464 H 0.62791 0.90527 0.71114
 C465 C 0.79582 0.20221 0.21636
 C466 C 0.81052 0.18778 0.18993
 C467 C 0.82845 0.17106 0.15769
 C468 C 0.83248 0.15133 0.25160
 C469 C 0.85047 0.13569 0.22307
 C470 C 0.86470 0.13964 0.10031
 C471 C 0.86031 0.15935 0.00557
 C472 C 0.84232 0.17494 0.03421
 C473 C 0.88441 0.12375 0.07374
 C474 C 0.90499 0.13400 0.03132
 C475 C 0.92379 0.11923 0.01152
 C476 C 0.92227 0.09403 0.03272
 C477 C 0.90182 0.08358 0.07303
 C478 C 0.88300 0.09835 0.09390
 C479 C 0.94199 0.07917 0.02050
 C480 C 0.95882 0.06718 0.01465
 H481 H 0.82190 0.14823 0.34785
 H482 H 0.85358 0.12087 0.29905
 H483 H 0.87079 0.16268 -0.09081
 H484 H 0.83933 0.19014 -0.03929
 H485 H 0.90670 0.15352 0.01713
 H486 H 0.93960 0.12754 -0.01799
 H487 H 0.90048 0.06408 0.09000
 H488 H 0.86735 0.08991 0.12548
 C489 C 0.29641 0.70036 0.77988
 C490 C 0.31120 0.68547 0.77376
 C491 C 0.32925 0.66818 0.76608
 C492 C 0.32982 0.65037 0.65281
 C493 C 0.34795 0.63440 0.64103
 C494 C 0.36579 0.63610 0.74235
 C495 C 0.36486 0.65380 0.85733
 C496 C 0.34671 0.66973 0.86896
 C497 C 0.38567 0.62015 0.72450
 C498 C 0.40724 0.62987 0.74315
 C499 C 0.42604 0.61523 0.71997
 C500 C 0.42358 0.59069 0.67825
 C501 C 0.40220 0.58072 0.66138
 C502 C 0.38334 0.59535 0.68434
 C503 C 0.44307 0.57619 0.64636
 C504 C 0.45970 0.56474 0.61652
 H505 H 0.31644 0.64910 0.57211
 H506 H 0.34832 0.62119 0.55011
 H507 H 0.37820 0.65537 0.93798
 H508 H 0.34643 0.68345 0.95709
 H509 H 0.40960 0.64896 0.77177
 H510 H 0.44252 0.62318 0.73211
 H511 H 0.40012 0.56173 0.62889
 H512 H 0.36695 0.58730 0.67080
   
