data_POSCAR
  _audit_creation_date              2014-09-24
  _audit_creation_method            'ToBaCCo'
  _symmetry_space_group_name_H-M    'P1'
  _symmetry_Int_Tables_number       1
  _symmetry_cell_setting            triclinic
  loop_
  _symmetry_equiv_pos_as_xyz
 x,y,z
_cell_length_a 48.5845
_cell_length_b 49.5253
_cell_length_c 7.2030
_cell_angle_alpha 84.971500
_cell_angle_beta 84.957300
_cell_angle_gamma 90.030900
loop_
  _atom_site_label
  _atom_site_type_symbol
  _atom_site_fract_x
  _atom_site_fract_y
  _atom_site_fract_z
C1 C 0.30686 0.27598 0.24294
 C2 C 0.32157 0.25172 0.25902
 C3 C 0.30835 0.22626 0.27370
 C4 C 0.27932 0.22515 0.25811
 C5 C 0.26408 0.24956 0.23925
 C6 C 0.27783 0.27503 0.23498
 C7 C 0.26212 0.29883 0.22597
 C8 C 0.23363 0.29779 0.21760
 C9 C 0.21969 0.27291 0.21605
 C10 C 0.23497 0.24854 0.22510
 C11 C 0.26530 0.20039 0.25119
 C12 C 0.23693 0.19940 0.23716
 C13 C 0.22123 0.22319 0.22011
 C14 C 0.19201 0.22237 0.20841
 C15 C 0.17735 0.24685 0.20978
 C16 C 0.19077 0.27187 0.20792
 H17 H 0.27170 0.31854 0.22695
 H18 H 0.22257 0.31678 0.21286
 H19 H 0.27613 0.18132 0.25384
 H20 H 0.22746 0.17957 0.24298
 H21 H 0.34365 0.25281 0.27113
 H22 H 0.15524 0.24677 0.19765
 C23 C 0.81007 0.26909 0.16611
 C24 C 0.82231 0.24392 0.14662
 C25 C 0.80628 0.22075 0.13922
 C26 C 0.77720 0.22261 0.15127
 C27 C 0.76454 0.24817 0.16865
 C28 C 0.78105 0.27155 0.17574
 C29 C 0.76818 0.29687 0.18714
 C30 C 0.73967 0.29919 0.18983
 C31 C 0.72294 0.27629 0.18148
 C32 C 0.73540 0.25048 0.17400
 C33 C 0.76055 0.19979 0.14022
 C34 C 0.73200 0.20200 0.14661
 C35 C 0.71882 0.22705 0.16847
 C36 C 0.68965 0.22963 0.17324
 C37 C 0.67791 0.25548 0.17214
 C38 C 0.69406 0.27856 0.17930
 H39 H 0.78002 0.31529 0.19097
 H40 H 0.73087 0.31919 0.19659
 H41 H 0.76950 0.18004 0.12370
 H42 H 0.72050 0.18386 0.12880
 H43 H 0.84467 0.24238 0.13576
 H44 H 0.65563 0.25765 0.17665
 C45 C 0.69278 0.72357 0.69873
 C46 C 0.67835 0.74794 0.67960
 C47 C 0.69152 0.77313 0.67847
 C48 C 0.72027 0.77421 0.69801
 C49 C 0.73538 0.74973 0.71685
 C50 C 0.72162 0.72437 0.71565
 C51 C 0.73727 0.70058 0.72305
 C52 C 0.76560 0.70146 0.73789
 C53 C 0.77956 0.72612 0.75055
 C54 C 0.76445 0.75063 0.73209
 C55 C 0.73445 0.79906 0.69392
 C56 C 0.76282 0.79995 0.70956
 C57 C 0.77832 0.77605 0.72647
 C58 C 0.80728 0.77683 0.73844
 C59 C 0.82184 0.75247 0.75548
 C60 C 0.80855 0.72707 0.76765
 H61 H 0.72783 0.68100 0.71366
 H62 H 0.77650 0.68248 0.73426
 H63 H 0.72380 0.81816 0.67653
 H64 H 0.77253 0.81967 0.70632
 H65 H 0.65631 0.74730 0.66530
 H66 H 0.84384 0.75342 0.77035
 C67 C 0.30849 0.77297 0.68581
 C68 C 0.32150 0.74802 0.67140
 C69 C 0.30687 0.72371 0.71367
 C70 C 0.27817 0.72422 0.76527
 C71 C 0.26466 0.74945 0.78034
 C72 C 0.27992 0.77392 0.74218
 C73 C 0.26626 0.79867 0.76203
 C74 C 0.23846 0.79929 0.82554
 C75 C 0.22264 0.77531 0.86064
 C76 C 0.23590 0.75014 0.83575
 C77 C 0.26268 0.70018 0.80241
 C78 C 0.23461 0.70083 0.85633
 C79 C 0.22063 0.72561 0.86962
 C80 C 0.19203 0.72626 0.92682
 C81 C 0.17998 0.75086 0.96992
 C82 C 0.19445 0.77550 0.93216
 H83 H 0.27697 0.81790 0.73198
 H84 H 0.22975 0.81890 0.84909
 H85 H 0.27208 0.68054 0.79063
 H86 H 0.22413 0.68157 0.89209
 H87 H 0.34358 0.74751 0.63283
 H88 H 0.15803 0.75127 1.01362
 O89 O 0.97655 -0.02308 -0.15355
 O90 O 1.02664 0.03072 -0.06569
 O91 O 1.03067 -0.01898 -0.16155
 O92 O 0.97285 0.02696 -0.06514
 O93 O 0.96894 0.01318 0.23525
 O94 O 1.02804 -0.03142 0.14078
 O95 O 1.02218 0.01803 0.23645
 O96 O 0.97484 -0.03634 0.14676
 Cu97 Cu 1.00194 0.00551 -0.14037
 Cu98 Cu 0.99829 -0.01077 0.21828
 C99 C 0.96734 -0.03925 -0.01452
 C100 C 1.03254 0.03384 0.09971
 C101 C 1.03928 -0.03322 -0.02342
 C102 C 0.96094 0.02806 0.09790
 O103 O 0.47753 0.47751 0.27293
 O104 O 0.52768 0.53030 0.36141
 O105 O 0.53096 0.47923 0.29864
 O106 O 0.47511 0.52895 0.32992
 O107 O 0.46925 0.52052 0.63616
 O108 O 0.52516 0.47061 0.60473
 O109 O 0.52247 0.52179 0.66672
 O110 O 0.47228 0.46910 0.57835
 Cu111 Cu 0.50366 0.50528 0.28756
 Cu112 Cu 0.49640 0.49415 0.64973
 C113 C 0.46637 0.46375 0.41769
 C114 C 0.53357 0.53562 0.52225
 C115 C 0.53749 0.46618 0.44787
 C116 C 0.46290 0.53362 0.48655
 O117 O -0.03297 0.52722 0.10792
 O118 O 0.01639 0.47345 0.23885
 O119 O 0.01667 0.52659 0.21276
 O120 O -0.03406 0.47462 0.14761
 O121 O -0.01968 0.47399 -0.15090
 O122 O 0.03161 0.52563 -0.08460
 O123 O 0.03070 0.47316 -0.05993
 O124 O -0.01768 0.52713 -0.18962
 Cu125 Cu -0.01021 0.50045 0.20618
 Cu126 Cu 0.00791 0.49991 -0.15073
 C127 C -0.03348 0.53666 -0.06156
 C128 C 0.03199 0.46398 0.10899
 C129 C 0.03278 0.53525 0.07202
 C130 C -0.03559 0.46521 -0.00907
 O131 O 0.47275 1.03251 0.60819
 O132 O 0.52131 0.97919 0.76385
 O133 O 0.52568 1.03036 0.65157
 O134 O 0.46820 0.98172 0.73302
 O135 O 0.47472 0.97333 0.43701
 O136 O 0.53211 1.02185 0.35529
 O137 O 0.52716 0.97082 0.46853
 O138 O 0.47992 1.02410 0.31322
 Cu139 Cu 0.49607 1.00730 0.71585
 Cu140 Cu 0.50436 0.99621 0.36670
 C141 C 0.46803 1.03761 0.43854
 C142 C 0.53252 0.96551 0.63626
 C143 C 0.53864 1.03443 0.49111
 C144 C 0.46176 0.96900 0.59762
 C145 C 1.16895 0.15906 0.01550
 C146 C 1.14364 0.15280 0.12438
 C147 C 1.13586 0.16946 0.27018
 C148 C 1.15187 0.19230 0.29644
 C149 C 1.17692 0.19837 0.18721
 C150 C 1.18524 0.18129 0.04719
 C151 C 1.11205 0.16332 0.38934
 C152 C 1.09584 0.14080 0.36901
 C153 C 1.10223 0.12389 0.22347
 C154 C 1.12590 0.13062 0.09466
 C155 C 1.13053 0.11549 -0.06225
 C156 C 1.11280 0.09451 -0.09225
 C157 C 1.09034 0.08694 0.03625
 C158 C 1.08522 0.10097 0.19905
 C159 C 1.06337 0.09126 0.33140
 C160 C 1.04682 0.06931 0.29938
 C161 C 1.05111 0.05639 0.13416
 C162 C 1.07300 0.06532 0.00303
 H163 H 1.17692 0.14697 -0.09399
 H164 H 1.14518 0.20506 0.40662
 H165 H 1.20395 0.18573 -0.04371
 H166 H 1.10596 0.17598 0.50104
 H167 H 1.07772 0.13776 0.46613
 H168 H 1.14728 0.12003 -0.16846
 H169 H 1.11692 0.08390 -0.21696
 H170 H 1.05883 0.09984 0.46292
 H171 H 1.03017 0.06274 0.40329
 H172 H 1.07685 0.05508 -0.12361
 C173 C 0.65566 0.65678 0.85907
 C174 C 0.64149 0.65164 0.70147
 C175 C 0.64614 0.67012 0.53946
 C176 C 0.66345 0.69292 0.53858
 C177 C 0.67675 0.69792 0.69676
 C178 C 0.67287 0.67959 0.85630
 C179 C 0.63322 0.66608 0.37914
 C180 C 0.61541 0.64430 0.37499
 C181 C 0.60948 0.62548 0.53281
 C182 C 0.62274 0.62915 0.69895
 C183 C 0.61653 0.61039 0.85687
 C184 C 0.59795 0.58899 0.85363
 C185 C 0.58479 0.58513 0.69323
 C186 C 0.59056 0.60324 0.53009
 C187 C 0.57705 0.59833 0.37029
 C188 C 0.55890 0.57657 0.37213
 C189 C 0.55303 0.55865 0.53268
 C190 C 0.56596 0.56320 0.69439
 H191 H 0.65373 0.64372 0.98714
 H192 H 0.66638 0.70711 0.41483
 H193 H 0.68284 0.68324 0.98060
 H194 H 0.63677 0.68009 0.25492
 H195 H 0.60639 0.64310 0.24485
 H196 H 0.62565 0.61176 0.98664
 H197 H 0.59389 0.57520 0.97841
 H198 H 0.57995 0.61083 0.24019
 H199 H 0.54918 0.57393 0.24518
 H200 H 0.56169 0.54957 0.81995
 C201 C -0.15465 0.32911 0.32910
 C202 C -0.13912 0.33997 0.16333
 C203 C -0.13986 0.32588 0.00052
 C204 C -0.15610 0.30248 0.00387
 C205 C -0.17172 0.29269 0.16758
 C206 C -0.17060 0.30574 0.33056
 C207 C -0.12455 0.33522 -0.16513
 C208 C -0.10844 0.35846 -0.17448
 C209 C -0.10712 0.37346 -0.01758
 C210 C -0.12289 0.36416 0.15385
 C211 C -0.12198 0.37939 0.30992
 C212 C -0.10565 0.40238 0.30164
 C213 C -0.08966 0.41125 0.13794
 C214 C -0.09031 0.39729 -0.02523
 C215 C -0.07370 0.40764 -0.18783
 C216 C -0.05653 0.43018 -0.18490
 C217 C -0.05551 0.44317 -0.02099
 C218 C -0.07259 0.43390 0.13851
 H219 H -0.15513 0.33807 0.46000
 H220 H -0.15705 0.29205 -0.12188
 H221 H -0.18253 0.29804 0.45845
 H222 H -0.12490 0.32434 -0.28910
 H223 H -0.09720 0.36405 -0.30773
 H224 H -0.13368 0.37418 0.44208
 H225 H -0.10539 0.41325 0.42582
 H226 H -0.07302 0.39864 -0.31874
 H227 H -0.04358 0.43707 -0.31029
 H228 H -0.07212 0.44391 0.26634
 C229 C 0.35653 0.82675 0.43846
 C230 C 0.36044 0.84387 0.58196
 C231 C 0.34627 0.83707 0.76075
 C232 C 0.32954 0.81386 0.79365
 C233 C 0.32582 0.79754 0.64929
 C234 C 0.33941 0.80400 0.47230
 C235 C 0.34885 0.85337 0.90620
 C236 C 0.36579 0.87612 0.88066
 C237 C 0.38118 0.88331 0.70786
 C238 C 0.37814 0.86715 0.55516
 C239 C 0.39321 0.87455 0.38160
 C240 C 0.41115 0.89648 0.35839
 C241 C 0.41490 0.91192 0.50650
 C242 C 0.39989 0.90587 0.68310
 C243 C 0.40482 0.92235 0.82827
 C244 C 0.42452 0.94313 0.80002
 C245 C 0.43958 0.94844 0.62600
 C246 C 0.43422 0.93309 0.47909
 H247 H 0.36640 0.83013 0.29878
 H248 H 0.31921 0.80843 0.93166
 H249 H 0.33680 0.79128 0.36000
 H250 H 0.33764 0.84846 1.04183
 H251 H 0.36640 0.88757 1.00044
 H252 H 0.39202 0.86359 0.26010
 H253 H 0.42266 0.90107 0.22342
 H254 H 0.39419 0.91956 0.96615
 H255 H 0.42821 0.95483 0.91586
 H256 H 0.44571 0.93709 0.34334
 C257 C -0.16791 0.66083 -0.01389
 C258 C -0.14240 0.65697 -0.11891
 C259 C -0.13394 0.67698 -0.26579
 C260 C -0.14991 0.70028 -0.29951
 C261 C -0.17542 0.70359 -0.19649
 C262 C -0.18401 0.68366 -0.05231
 C263 C -0.10969 0.67358 -0.37965
 C264 C -0.09388 0.65041 -0.35449
 C265 C -0.10126 0.62994 -0.20968
 C266 C -0.12521 0.63389 -0.08467
 C267 C -0.13077 0.61499 0.07268
 C268 C -0.11380 0.59283 0.10563
 C269 C -0.09117 0.58803 -0.01973
 C270 C -0.08498 0.60606 -0.18205
 C271 C -0.06284 0.59924 -0.31059
 C272 C -0.04677 0.57632 -0.27380
 C273 C -0.05205 0.55949 -0.10791
 C274 C -0.07455 0.56532 0.01737
 H275 H -0.17635 0.64633 0.09659
 H276 H -0.14299 0.71537 -0.41224
 H277 H -0.20311 0.68599 0.03425
 H278 H -0.10299 0.68890 -0.49128
 H279 H -0.07536 0.64954 -0.44754
 H280 H -0.14767 0.61723 0.17713
 H281 H -0.11861 0.57917 0.23032
 H282 H -0.05764 0.61099 -0.44204
 H283 H -0.02970 0.57211 -0.37397
 H284 H -0.07918 0.55210 0.14444
 C285 C 0.33333 1.16101 0.49884
 C286 C 0.35842 1.15703 0.38963
 C287 C 0.36594 1.17641 0.23693
 C288 C 0.34969 1.19947 0.20278
 C289 C 0.32458 1.20294 0.30994
 C290 C 0.31673 1.18346 0.45882
 C291 C 0.38955 1.17259 0.11770
 C292 C 0.40537 1.14940 0.14185
 C293 C 0.39882 1.12957 0.29187
 C294 C 0.37604 1.13432 0.42452
 C295 C 0.37223 1.11678 0.59013
 C296 C 0.38984 1.09511 0.62345
 C297 C 0.41095 1.08919 0.48908
 C298 C 0.41510 1.10571 0.31813
 C299 C 0.43521 1.09745 0.17997
 C300 C 0.45167 1.07474 0.21616
 C301 C 0.44880 1.05977 0.39087
 C302 C 0.42810 1.06690 0.52559
 H303 H 0.32558 1.14672 0.61279
 H304 H 0.35602 1.21423 0.08660
 H305 H 0.29789 1.18588 0.54765
 H306 H 0.39564 1.18750 0.00207
 H307 H 0.42343 1.14804 0.04501
 H308 H 0.35653 1.12010 0.70086
 H309 H 0.38666 1.08264 0.75515
 H310 H 0.43835 1.10788 0.04172
 H311 H 0.46724 1.06939 0.10898
 H312 H 0.42530 1.05497 0.65980
 C313 C 1.14805 -0.17571 0.16340
 C314 C 1.14544 -0.15497 0.01803
 C315 C 1.16004 -0.15789 -0.15832
 C316 C 1.17730 -0.18026 -0.18409
 C317 C 1.17963 -0.20060 -0.03797
 C318 C 1.16444 -0.19824 0.13431
 C319 C 1.15670 -0.13891 -0.30944
 C320 C 1.13852 -0.11745 -0.29125
 C321 C 1.12335 -0.11376 -0.11904
 C322 C 1.12791 -0.13212 0.03999
 C323 C 1.11472 -0.12710 0.21596
 C324 C 1.09624 -0.10607 0.23446
 C325 C 1.09006 -0.08921 0.07897
 C326 C 1.10360 -0.09250 -0.10007
 C327 C 1.09610 -0.07481 -0.25284
 C328 C 1.07556 -0.05534 -0.22834
 C329 C 1.06213 -0.05259 -0.05091
 C330 C 1.06994 -0.06930 0.10230
 H331 H 1.13692 -0.17576 0.29949
 H332 H 1.18784 -0.18254 -0.32096
 H333 H 1.16548 -0.21389 0.24834
 H334 H 1.16777 -0.14102 -0.44473
 H335 H 1.13699 -0.10390 -0.41525
 H336 H 1.11836 -0.13900 0.34364
 H337 H 1.08619 -0.10336 0.37201
 H338 H 1.10515 -0.07588 -0.39384
 H339 H 1.06996 -0.04264 -0.34919
 H340 H 1.05980 -0.06734 0.24076
 C341 C 0.66202 0.34597 0.04637
 C342 C 0.64766 0.35210 0.21747
 C343 C 0.65068 0.33401 0.37841
 C344 C 0.66649 0.31048 0.36541
 C345 C 0.67961 0.30452 0.19397
 C346 C 0.67762 0.32243 0.03543
 C347 C 0.63749 0.33913 0.55094
 C348 C 0.62067 0.36152 0.56791
 C349 C 0.61613 0.37974 0.41152
 C350 C 0.63002 0.37509 0.23359
 C351 C 0.62529 0.39319 0.07709
 C352 C 0.60702 0.41456 0.09182
 C353 C 0.59289 0.41902 0.26287
 C354 C 0.59763 0.40209 0.42623
 C355 C 0.58324 0.40806 0.59707
 C356 C 0.56439 0.42921 0.60335
 C357 C 0.55905 0.44516 0.44042
 C358 C 0.57370 0.44018 0.27081
 H359 H 0.66144 0.35869 -0.08213
 H360 H 0.66823 0.29643 0.48809
 H361 H 0.68786 0.31793 -0.09788
 H362 H 0.63991 0.32545 0.67439
 H363 H 0.61109 0.36357 0.70622
 H364 H 0.63509 0.39125 -0.06077
 H365 H 0.60376 0.42764 -0.03295
 H366 H 0.58579 0.39672 0.72872
 H367 H 0.55357 0.43272 0.73699
 H368 H 0.56990 0.45254 0.14390
 C369 C 0.84546 -0.15627 -0.40341
 C370 C 0.85893 -0.15204 -0.24089
 C371 C 0.85342 -0.17113 -0.08309
 C372 C 0.83583 -0.19349 -0.09024
 C373 C 0.82324 -0.19763 -0.25280
 C374 C 0.82807 -0.17879 -0.40893
 C375 C 0.86577 -0.16818 0.08112
 C376 C 0.88386 -0.14690 0.09336
 C377 C 0.89064 -0.12749 -0.05973
 C378 C 0.87783 -0.12993 -0.22941
 C379 C 0.88455 -0.11033 -0.38150
 C380 C 0.90323 -0.08926 -0.36942
 C381 C 0.91606 -0.08669 -0.20576
 C382 C 0.90989 -0.10578 -0.04854
 C383 C 0.92340 -0.10239 0.11396
 C384 C 0.94178 -0.08102 0.12080
 C385 C 0.94786 -0.06200 -0.03344
 C386 C 0.93498 -0.06509 -0.19776
 H387 H 0.84817 -0.14277 -0.52925
 H388 H 0.83227 -0.20815 0.03050
 H389 H 0.81876 -0.18181 -0.53685
 H390 H 0.86155 -0.18267 0.20208
 H391 H 0.89226 -0.14646 0.22635
 H392 H 0.87568 -0.11070 -0.51305
 H393 H 0.90766 -0.07477 -0.49013
 H394 H 0.92039 -0.11587 0.23959
 H395 H 0.95140 -0.07954 0.24968
 H396 H 0.93945 -0.05061 -0.31851
 C397 C 0.34392 0.34282 0.08172
 C398 C 0.35798 0.34805 0.23966
 C399 C 0.35320 0.32967 0.40212
 C400 C 0.33588 0.30688 0.40303
 C401 C 0.32277 0.30173 0.24432
 C402 C 0.32676 0.31996 0.08436
 C403 C 0.36607 0.33377 0.56260
 C404 C 0.38399 0.35547 0.56616
 C405 C 0.38999 0.37422 0.40817
 C406 C 0.37675 0.37054 0.24196
 C407 C 0.38301 0.38926 0.08389
 C408 C 0.40165 0.41062 0.08718
 C409 C 0.41483 0.41446 0.24758
 C410 C 0.40897 0.39641 0.41086
 C411 C 0.42247 0.40132 0.57075
 C412 C 0.44076 0.42299 0.56871
 C413 C 0.44678 0.44080 0.40780
 C414 C 0.43378 0.43629 0.24632
 H415 H 0.34591 0.35582 -0.04658
 H416 H 0.33287 0.29275 0.52713
 H417 H 0.31692 0.31621 -0.04028
 H418 H 0.36241 0.31984 0.68718
 H419 H 0.39304 0.35668 0.69604
 H420 H 0.37390 0.38789 -0.04604
 H421 H 0.40577 0.42436 -0.03769
 H422 H 0.41946 0.38891 0.70127
 H423 H 0.45043 0.42563 0.69584
 H424 H 0.43809 0.44992 0.12094
 C425 C 0.15841 0.66648 -0.23477
 C426 C 0.13926 0.65826 -0.08074
 C427 C 0.13837 0.67336 0.07814
 C428 C 0.15540 0.69618 0.07869
 C429 C 0.17471 0.70356 -0.07339
 C430 C 0.17574 0.68867 -0.23049
 C431 C 0.12075 0.66548 0.23667
 C432 C 0.10415 0.64259 0.24290
 C433 C 0.10412 0.62692 0.08831
 C434 C 0.12131 0.63543 -0.07836
 C435 C 0.11976 0.62105 -0.23794
 C436 C 0.10264 0.59868 -0.23397
 C437 C 0.08653 0.58961 -0.07114
 C438 C 0.08710 0.60331 0.09327
 C439 C 0.07055 0.59267 0.25528
 C440 C 0.05348 0.57011 0.25066
 C441 C 0.05248 0.55742 0.08529
 C442 C 0.06943 0.56704 -0.07379
 H443 H 0.16099 0.65604 -0.35989
 H444 H 0.15450 0.70753 0.20123
 H445 H 0.18978 0.69455 -0.35285
 H446 H 0.12002 0.67695 0.35848
 H447 H 0.09113 0.63801 0.37055
 H448 H 0.13110 0.62682 -0.37063
 H449 H 0.10205 0.58833 -0.36026
 H450 H 0.07024 0.60123 0.38769
 H451 H 0.04072 0.56287 0.37619
 H452 H 0.06897 0.55725 -0.20247
 C453 C 0.63305 1.18349 0.08322
 C454 C 0.63638 1.16127 0.21617
 C455 C 0.65658 1.16340 0.34444
 C456 C 0.67430 1.18588 0.32798
 C457 C 0.67178 1.20709 0.18850
 C458 C 0.65024 1.20618 0.07197
 C459 C 0.65890 1.14316 0.48918
 C460 C 0.64079 1.12124 0.51381
 C461 C 0.62047 1.11821 0.38869
 C462 C 0.61966 1.13748 0.23000
 C463 C 0.60264 1.13209 0.08851
 C464 C 0.58555 1.10942 0.10742
 C465 C 0.58400 1.09201 0.27077
 C466 C 0.60111 1.09636 0.41531
 C467 C 0.59725 1.07940 0.58414
 C468 C 0.57720 1.05901 0.60728
 C469 C 0.56097 1.05454 0.46197
 C470 C 0.56478 1.07069 0.29280
 H471 H 0.61681 1.18422 -0.00991
 H472 H 0.68976 1.18719 0.42688
 H473 H 0.64727 1.22270 -0.03294
 H474 H 0.67453 1.14452 0.58647
 H475 H 0.64386 1.10638 0.62849
 H476 H 0.60275 1.14470 -0.04146
 H477 H 0.57277 1.10594 -0.00429
 H478 H 0.60843 1.08223 0.70382
 H479 H 0.57419 1.04683 0.73995
 H480 H 0.55169 1.06757 0.18193
 C481 C 0.15792 0.33307 -0.02900
 C482 C 0.14062 0.34302 0.11856
 C483 C 0.14085 0.32914 0.29953
 C484 C 0.15744 0.30612 0.32882
 C485 C 0.17410 0.29667 0.18033
 C486 C 0.17431 0.31030 0.00220
 C487 C 0.12440 0.33813 0.45000
 C488 C 0.10734 0.36043 0.42552
 C489 C 0.10595 0.37478 0.24825
 C490 C 0.12300 0.36601 0.09236
 C491 C 0.12170 0.38037 -0.08493
 C492 C 0.10416 0.40216 -0.11054
 C493 C 0.08721 0.41075 0.03882
 C494 C 0.08789 0.39746 0.22088
 C495 C 0.07022 0.40740 0.36682
 C496 C 0.05247 0.42917 0.33170
 C497 C 0.05165 0.44179 0.15071
 C498 C 0.06934 0.43253 0.00554
 H499 H 0.15926 0.34221 -0.17062
 H500 H 0.15732 0.29543 0.46694
 H501 H 0.18707 0.30305 -0.11402
 H502 H 0.12455 0.32770 0.58871
 H503 H 0.09528 0.36578 0.54937
 H504 H 0.13391 0.37526 -0.20879
 H505 H 0.10382 0.41236 -0.24986
 H506 H 0.06938 0.39874 0.50951
 H507 H 0.03910 0.43592 0.44666
 H508 H 0.06905 0.44212 -0.13556
 C509 C 0.64297 0.82353 0.45982
 C510 C 0.63687 0.84133 0.60150
 C511 C 0.65071 0.83705 0.76696
 C512 C 0.66915 0.81530 0.79005
 C513 C 0.67434 0.79768 0.64939
 C514 C 0.66129 0.80213 0.48440
 C515 C 0.64580 0.85423 0.90952
 C516 C 0.62693 0.87527 0.89453
 C517 C 0.61199 0.87998 0.73554
 C518 C 0.61731 0.86289 0.58557
 C519 C 0.60265 0.86769 0.42543
 C520 C 0.58339 0.88816 0.41184
 C521 C 0.57785 0.90482 0.55633
 C522 C 0.59186 0.90115 0.72082
 C523 C 0.58493 0.91888 0.86268
 C524 C 0.56523 0.93941 0.83943
 C525 C 0.55199 0.94300 0.67435
 C526 C 0.55831 0.92532 0.53508
 H527 H 0.63375 0.82520 0.32900
 H528 H 0.67907 0.81170 0.91899
 H529 H 0.66504 0.78862 0.37453
 H530 H 0.65661 0.85130 1.03496
 H531 H 0.62447 0.88754 1.01096
 H532 H 0.60537 0.85588 0.30685
 H533 H 0.57259 0.89091 0.28618
 H534 H 0.59447 0.91760 0.99249
 H535 H 0.56081 0.95283 0.94887
 H536 H 0.54805 0.92758 0.40692
 C537 C 0.84881 0.16834 -0.09853
 C538 C 0.85389 0.14914 0.05232
 C539 C 0.84116 0.15337 0.23247
 C540 C 0.82476 0.17628 0.25931
 C541 C 0.82093 0.19528 0.10896
 C542 C 0.83270 0.19108 -0.06960
 C543 C 0.84532 0.13508 0.38547
 C544 C 0.86276 0.11311 0.36613
 C545 C 0.87692 0.10860 0.19194
 C546 C 0.87175 0.12646 0.03136
 C547 C 0.88509 0.12140 -0.14421
 C548 C 0.90369 0.10046 -0.16191
 C549 C 0.90989 0.08370 -0.00604
 C550 C 0.89650 0.08718 0.17314
 C551 C 0.90399 0.06952 0.32620
 C552 C 0.92455 0.05007 0.30209
 C553 C 0.93800 0.04730 0.12494
 C554 C 0.93007 0.06384 -0.02878
 H555 H 0.85741 0.16691 -0.24008
 H556 H 0.81559 0.17980 0.39790
 H557 H 0.82980 0.20577 -0.18682
 H558 H 0.83528 0.13797 0.52282
 H559 H 0.86481 0.10009 0.49172
 H560 H 0.88192 0.13346 -0.27207
 H561 H 0.91384 0.09778 -0.29920
 H562 H 0.89481 0.07049 0.46696
 H563 H 0.93020 0.03745 0.42330
 H564 H 0.94016 0.06177 -0.16729
 C565 C 0.34162 0.65832 0.86865
 C566 C 0.35552 0.65100 0.69903
 C567 C 0.35227 0.66813 0.53374
 C568 C 0.33593 0.69139 0.53940
 C569 C 0.32263 0.69824 0.70814
 C570 C 0.32563 0.68171 0.87261
 C571 C 0.36565 0.66231 0.36344
 C572 C 0.38251 0.63991 0.35204
 C573 C 0.38670 0.62219 0.51163
 C574 C 0.37286 0.62770 0.68799
 C575 C 0.37706 0.60989 0.84718
 C576 C 0.39477 0.58798 0.83618
 C577 C 0.40882 0.58268 0.66635
 C578 C 0.40464 0.59937 0.50095
 C579 C 0.41891 0.59266 0.33155
 C580 C 0.43704 0.57096 0.32804
 C581 C 0.44184 0.55513 0.49257
 C582 C 0.42735 0.56089 0.66136
 H583 H 0.34288 0.64671 1.00117
 H584 H 0.33376 0.70443 0.41235
 H585 H 0.31575 0.68709 1.00511
 H586 H 0.36332 0.67546 0.23722
 H587 H 0.39222 0.63735 0.21480
 H588 H 0.36703 0.61232 0.98389
 H589 H 0.39758 0.57507 0.96257
 H590 H 0.41688 0.60382 0.19876
 H591 H 0.44781 0.56697 0.19523
 H592 H 0.43078 0.54870 0.78973
   
