data_POSCAR
  _audit_creation_date              2014-09-24
  _audit_creation_method            'ToBaCCo'
  _symmetry_space_group_name_H-M    'P1'
  _symmetry_Int_Tables_number       1
  _symmetry_cell_setting            triclinic
  loop_
  _symmetry_equiv_pos_as_xyz
 x,y,z
_cell_length_a 43.5925
_cell_length_b 45.3526
_cell_length_c 43.5933
_cell_angle_alpha 89.120200
_cell_angle_beta 90.065800
_cell_angle_gamma 89.134200
loop_
  _atom_site_label
  _atom_site_type_symbol
  _atom_site_fract_x
  _atom_site_fract_y
  _atom_site_fract_z
C1 C 0.25572 0.49991 1.00251
 C2 C 0.74867 0.50062 0.00262
 C3 C -0.00381 0.25000 0.50389
 C4 C 0.99899 0.74998 0.50094
 C5 C 0.49789 0.00016 0.24439
 C6 C 0.49698 -0.00063 0.75137
 C7 C 0.29279 0.01930 0.45984
 H8 H 0.29468 0.03592 0.47726
 C9 C 0.31266 0.01955 0.43475
 H10 H 0.32996 0.03637 0.43280
 C11 C 0.26828 -0.02324 0.44128
 H12 H 0.25126 -0.04010 0.44410
 C13 C 0.28772 -0.02380 0.41581
 H14 H 0.28550 -0.04101 0.39903
 N15 N 0.27092 -0.00167 0.46248
 C16 C 0.19928 0.03795 0.51865
 H17 H 0.19727 0.02120 0.53643
 C18 C 0.18011 0.06287 0.51890
 H19 H 0.16321 0.06535 0.53692
 C20 C 0.22326 0.05494 0.47299
 H21 H 0.23971 0.05155 0.45484
 C22 C 0.20449 0.08019 0.47237
 H23 H 0.20667 0.09623 0.45387
 Zn24 Zn 0.24502 -0.00020 0.49729
 N25 N 0.22053 0.03458 0.49608
 C26 C 0.26911 0.02156 0.55311
 N27 N 0.27038 -0.00082 0.53264
 C28 C 0.29065 -0.02373 0.53628
 C29 C 0.31028 -0.02504 0.56163
 C30 C 0.28835 0.02111 0.57877
 C31 C 0.19693 -0.03410 0.47512
 C32 C 0.17586 -0.05699 0.47480
 C33 C 0.19814 -0.07607 0.52200
 C34 C 0.21881 -0.05282 0.52144
 N35 N 0.21804 -0.03258 0.49804
 H36 H 0.25348 0.03996 0.54947
 H37 H 0.29154 -0.04096 0.51941
 H38 H 0.32637 -0.04333 0.56434
 H39 H 0.28729 0.03904 0.59488
 H40 H 0.19647 -0.01742 0.45710
 H41 H 0.15916 -0.05805 0.45645
 H42 H 0.19887 -0.09208 0.54070
 H43 H 0.23518 -0.05086 0.53986
 C44 C 0.18278 0.08417 0.49558
 C45 C 0.31002 -0.00214 0.41249
 C46 C 0.17651 -0.07818 0.49845
 C47 C 0.30906 -0.00243 0.58308
 C48 C 0.70222 0.02485 0.53440
 H49 H 0.70028 0.04151 0.51644
 C50 C 0.68209 0.02541 0.55927
 H51 H 0.66452 0.04250 0.56048
 C52 C 0.72723 -0.01802 0.55463
 H53 H 0.74458 -0.03510 0.55256
 C54 C 0.70753 -0.01828 0.57991
 H55 H 0.70985 -0.03549 0.59730
 N56 N 0.72447 0.00358 0.53271
 C57 C 0.79618 0.04319 0.47689
 H58 H 0.79871 0.02689 0.45917
 C59 C 0.81488 0.06791 0.47679
 H60 H 0.83192 0.07072 0.45896
 C61 C 0.77142 0.05917 0.52227
 H62 H 0.75488 0.05546 0.54027
 C63 C 0.78966 0.08419 0.52303
 H64 H 0.78697 0.09974 0.54149
 Zn65 Zn 0.75081 0.00500 0.49820
 N66 N 0.77477 0.03942 0.49925
 C67 C 0.72685 0.02796 0.44176
 N68 N 0.72580 0.00531 0.46260
 C69 C 0.70577 -0.01715 0.45934
 C70 C 0.68604 -0.01764 0.43409
 C71 C 0.70750 0.02832 0.41618
 C72 C 0.79902 -0.03011 0.52160
 C73 C 0.82024 -0.05349 0.52263
 C74 C 0.79868 -0.07155 0.47554
 C75 C 0.77784 -0.04783 0.47537
 N76 N 0.77818 -0.02786 0.49838
 H77 H 0.74231 0.04600 0.44510
 H78 H 0.70503 -0.03460 0.47651
 H79 H 0.67004 -0.03551 0.43176
 H80 H 0.70829 0.04653 0.39983
 H81 H 0.79913 -0.01365 0.53930
 H82 H 0.83672 -0.05514 0.54123
 H83 H 0.79829 -0.08734 0.45715
 H84 H 0.76166 -0.04531 0.45672
 C85 C 0.81153 0.08860 0.50006
 C86 C 0.68486 0.00372 0.58229
 C87 C 0.82003 -0.07441 0.49941
 C88 C 0.68692 0.00532 0.41233
 C89 C 0.48397 0.20462 1.03034
 H90 H 0.46661 0.20389 1.01262
 C91 C 0.48314 0.18473 1.05508
 H92 H 0.46508 0.16861 1.05647
 C93 C 0.52921 0.22598 1.04981
 H94 H 0.54744 0.24170 1.04740
 C95 C 0.52924 0.20644 1.07494
 H96 H 0.54738 0.20731 1.09190
 N97 N 0.50664 0.22485 1.02824
 C98 C 0.46864 0.29526 0.96963
 H99 H 0.48612 0.29630 0.95206
 C100 C 0.44383 0.31511 0.96876
 H101 H 0.44214 0.33148 0.95045
 C102 C 0.44995 0.27332 1.01554
 H103 H 0.45272 0.25744 1.03408
 C104 C 0.42477 0.29278 1.01554
 H105 H 0.40815 0.29167 1.03396
 Zn106 Zn 0.50658 0.24999 0.99310
 N107 N 0.47118 0.27481 0.99270
 C108 C 0.48429 0.22688 0.93698
 N109 N 0.50720 0.22550 0.95825
 C110 C 0.53045 0.20526 0.95624
 C111 C 0.53141 0.18548 0.93200
 C112 C 0.48437 0.20747 0.91236
 C113 C 0.54286 0.29480 1.01618
 C114 C 0.56701 0.31464 1.01708
 C115 C 0.58721 0.29328 0.97070
 C116 C 0.56266 0.27379 0.97067
 N117 N 0.54118 0.27480 0.99332
 H118 H 0.46561 0.24258 0.93934
 H119 H 0.54807 0.20430 0.97375
 H120 H 0.54983 0.16925 0.93078
 H121 H 0.46587 0.20845 0.89575
 H122 H 0.52520 0.29546 1.03359
 H123 H 0.56802 0.33063 1.03525
 H124 H 0.60405 0.29255 0.95246
 H125 H 0.56056 0.25824 0.95230
 C126 C 0.42173 0.31389 0.99197
 C127 C 0.50600 0.18563 1.07757
 C128 C 0.58935 0.31392 0.99410
 C129 C 0.50810 0.18654 0.90992
 C130 C 0.47382 0.79509 -0.03524
 H131 H 0.45637 0.79596 -0.01763
 C132 C 0.47254 0.81488 -0.06007
 H133 H 0.45403 0.83104 -0.06167
 C134 C 0.51979 0.77355 -0.05428
 H135 H 0.53848 0.75783 -0.05163
 C136 C 0.51938 0.79297 -0.07948
 H137 H 0.53764 0.79200 -0.09629
 N138 N 0.49709 0.77485 -0.03288
 C139 C 0.46153 0.70497 0.02631
 H140 H 0.47916 0.70408 0.04379
 C141 C 0.43733 0.68517 0.02749
 H142 H 0.43625 0.66898 0.04598
 C143 C 0.44182 0.72656 -0.01970
 H144 H 0.44397 0.74230 -0.03837
 C145 C 0.41724 0.70713 -0.01938
 H146 H 0.40041 0.70812 -0.03769
 Zn147 Zn 0.49780 0.75004 0.00243
 N148 N 0.46325 0.72524 0.00306
 C149 C 0.47505 0.77345 0.05843
 N150 N 0.49771 0.77479 0.03700
 C151 C 0.52033 0.79506 0.03874
 C152 C 0.52095 0.81482 0.06296
 C153 C 0.47482 0.79284 0.08304
 C154 C 0.53551 0.70503 -0.02009
 C155 C 0.56035 0.68525 -0.02068
 C156 C 0.57974 0.70717 0.02552
 C157 C 0.55452 0.72657 0.02525
 N158 N 0.53314 0.72527 0.00254
 H159 H 0.45687 0.75771 0.05627
 H160 H 0.53774 0.79596 0.02111
 H161 H 0.53893 0.83101 0.06405
 H162 H 0.45658 0.79184 0.09986
 H163 H 0.51791 0.70415 -0.03755
 H164 H 0.56196 0.66909 -0.03867
 H165 H 0.59653 0.70815 0.04380
 H166 H 0.55187 0.74228 0.04345
 C167 C 0.41502 0.68624 0.00441
 C168 C 0.49555 0.81383 -0.08236
 C169 C 0.58263 0.68631 0.00236
 C170 C 0.49797 0.81373 0.08527
 C171 C 1.03989 0.48067 0.20724
 H172 H 1.02244 0.46409 0.20531
 C173 C 1.06503 0.48040 0.18743
 H174 H 1.06698 0.46358 0.17013
 C175 C 1.05849 0.52317 0.23181
 H176 H 1.05567 0.54003 0.24883
 C177 C 1.08400 0.52370 0.21243
 H178 H 1.10082 0.54088 0.21469
 N179 N 1.03725 0.50164 0.22911
 C180 C 0.98092 0.46202 0.30064
 H181 H 0.96313 0.47877 0.30261
 C182 C 0.98063 0.43711 0.31982
 H183 H 0.96259 0.43462 0.33669
 C184 C 1.02662 0.44505 0.27674
 H185 H 1.04480 0.44845 0.26033
 C186 C 1.02721 0.41980 0.29552
 H187 H 1.04572 0.40376 0.29338
 Zn188 Zn 1.00239 0.50020 0.25494
 N189 N 1.00352 0.46540 0.27943
 C190 C 0.94658 0.47851 0.23074
 N191 N 0.96709 0.50085 0.22952
 C192 C 0.96352 0.52377 0.20925
 C193 C 0.93821 0.52512 0.18957
 C194 C 0.92095 0.47900 0.21146
 C195 C 1.02451 0.53406 0.30309
 C196 C 1.02479 0.55695 0.32416
 C197 C 0.97764 0.57605 0.30180
 C198 C 0.97824 0.55281 0.28112
 N199 N 1.00162 0.53256 0.28193
 H200 H 0.95016 0.46010 0.24639
 H201 H 0.98043 0.54098 0.20839
 H202 H 0.93557 0.54343 0.17347
 H203 H 0.90481 0.46109 0.21249
 H204 H 1.04251 0.51738 0.30358
 H205 H 1.04311 0.55800 0.34090
 H206 H 0.95895 0.59206 0.30103
 H207 H 0.95984 0.55086 0.26471
 C208 C 1.00396 0.41581 0.31719
 C209 C 1.08733 0.50205 0.19012
 C210 C 1.00115 0.57814 0.32348
 C211 C 0.91672 0.50255 0.19074
 C212 C -0.03395 0.47507 0.79781
 H213 H -0.01595 0.45846 0.79979
 C214 C -0.05885 0.47447 0.81790
 H215 H -0.06003 0.45739 0.83549
 C216 C -0.05426 0.51786 0.77271
 H217 H -0.05221 0.53494 0.75533
 C218 C -0.07957 0.51808 0.79237
 H219 H -0.09700 0.53524 0.79000
 N220 N -0.03228 0.49633 0.77553
 C221 C 0.02367 0.45675 0.70392
 H222 H 0.04139 0.47306 0.70140
 C223 C 0.02381 0.43201 0.68524
 H224 H 0.04165 0.42922 0.66821
 C225 C -0.02171 0.44073 0.72866
 H226 H -0.03974 0.44443 0.74517
 C227 C -0.02243 0.41570 0.71043
 H228 H -0.04089 0.40015 0.71311
 Zn229 Zn 0.00225 0.49495 0.74923
 N230 N 0.00129 0.46050 0.72531
 C231 C 0.05872 0.47214 0.77327
 N232 N 0.03783 0.49474 0.77427
 C233 C 0.04102 0.51722 0.79429
 C234 C 0.06625 0.51779 0.81403
 C235 C 0.08429 0.47185 0.79264
 C236 C -0.02114 0.52999 0.70094
 C237 C -0.02216 0.55334 0.67968
 C238 C 0.02489 0.57147 0.70127
 C239 C 0.02505 0.54778 0.72215
 N240 N 0.00206 0.52779 0.72182
 H241 H 0.05544 0.45408 0.75782
 H242 H 0.02380 0.53463 0.79498
 H243 H 0.06851 0.53568 0.83001
 H244 H 0.10068 0.45369 0.79189
 H245 H -0.03882 0.51351 0.70084
 H246 H -0.04074 0.55495 0.66318
 H247 H 0.04327 0.58728 0.70167
 H248 H 0.04369 0.54530 0.73835
 C249 C 0.00055 0.41131 0.68858
 C250 C -0.08193 0.49609 0.81506
 C251 C 0.00105 0.57429 0.67989
 C252 C 0.08806 0.49488 0.81320
 C253 C 0.08004 0.22094 0.50304
 C254 C 0.07633 0.19143 0.49521
 C255 C 0.04716 0.18108 0.48848
 C256 C 0.02157 0.19968 0.49078
 C257 C 0.02437 0.22898 0.50105
 C258 C 0.05436 0.23971 0.50527
 C259 C 0.10198 0.17114 0.49466
 C260 C 0.12217 0.15272 0.49448
 C261 C 0.14440 0.12982 0.49458
 C262 C 0.16236 0.10937 0.49492
 H263 H 0.10267 0.22939 0.50763
 H264 H 0.04413 0.15847 0.48151
 H265 H -0.00030 0.19082 0.48419
 H266 H 0.05782 0.26255 0.51106
 C267 C 0.68670 0.55720 0.02605
 C268 C 0.69115 0.58044 0.00523
 C269 C 0.71560 0.57915 -0.01545
 C270 C 0.73478 0.55414 -0.01620
 C271 C 0.72911 0.52943 0.00305
 C272 C 0.70575 0.53224 0.02534
 C273 C 0.66981 0.60496 0.00454
 C274 C 0.65096 0.62468 0.00399
 C275 C 0.62794 0.64689 0.00338
 C276 C 0.60760 0.66519 0.00290
 H277 H 0.66816 0.55815 0.04256
 H278 H 0.71974 0.59740 -0.03116
 H279 H 0.75398 0.55453 -0.03182
 H280 H 0.70164 0.51448 0.04164
 C281 C 0.94107 -0.19080 0.52762
 C282 C 0.92453 -0.18435 0.50082
 C283 C 0.93139 -0.19948 0.47394
 C284 C 0.95462 -0.22107 0.47382
 C285 C 0.97102 -0.22859 0.50093
 C286 C 0.96430 -0.21235 0.52758
 C287 C 0.90148 -0.16127 0.50058
 C288 C 0.88248 -0.14167 0.50037
 C289 C 0.86052 -0.11846 0.50008
 C290 C 0.84198 -0.09846 0.49980
 H291 H 0.93640 -0.17880 0.54844
 H292 H 0.91923 -0.19413 0.45284
 H293 H 0.96022 -0.23106 0.45215
 H294 H 0.97737 -0.21620 0.54843
 C295 C 0.32693 0.44968 0.98824
 C296 C 0.31546 0.42178 0.99504
 C297 C 0.28455 0.41881 1.00288
 C298 C 0.26549 0.44385 1.00491
 C299 C 0.27725 0.47249 1.00035
 C300 C 0.30802 0.47465 0.99030
 C301 C 0.33586 0.39653 0.99409
 C302 C 0.35417 0.37635 0.99343
 C303 C 0.37680 0.35375 0.99278
 C304 C 0.39692 0.33522 0.99234
 H305 H 0.35061 0.45218 0.98126
 H306 H 0.27519 0.39721 1.00752
 H307 H 0.24156 0.44094 1.01064
 H308 H 0.31777 0.49554 0.98358
 C309 C 0.93704 0.19209 0.52782
 C310 C 0.91352 0.19675 0.50646
 C311 C 0.91492 0.22056 0.48577
 C312 C 0.94060 0.23871 0.48533
 C313 C 0.96592 0.23257 0.50485
 C314 C 0.96268 0.21008 0.52738
 C315 C 0.88913 0.17585 0.50480
 C316 C 0.86991 0.15710 0.50349
 C317 C 0.84867 0.13403 0.50209
 C318 C 0.83138 0.11360 0.50105
 H319 H 0.93599 0.17400 0.54430
 H320 H 0.89640 0.22480 0.46963
 H321 H 0.94041 0.25728 0.46952
 H322 H 0.98086 0.20558 0.54382
 C323 C 0.28594 0.57864 -0.01523
 C324 C 0.31017 0.58007 0.00571
 C325 C 0.31532 0.55686 0.02658
 C326 C 0.29722 0.53179 0.02567
 C327 C 0.27415 0.52885 0.00314
 C328 C 0.26772 0.55352 -0.01619
 C329 C 0.33060 0.60470 0.00526
 C330 C 0.34874 0.62450 0.00496
 C331 C 0.37100 0.64677 0.00470
 C332 C 0.39073 0.66510 0.00454
 H333 H 0.28125 0.59686 -0.03100
 H334 H 0.33368 0.55792 0.04329
 H335 H 0.30188 0.51405 0.04201
 H336 H 0.24864 0.55378 -0.03202
 C337 C 0.05598 -0.19123 0.47335
 C338 C 0.07257 -0.18555 0.50000
 C339 C 0.06594 -0.20098 0.52712
 C340 C 0.04294 -0.22214 0.52762
 C341 C 0.02657 -0.22893 0.50065
 C342 C 0.03299 -0.21234 0.47376
 C343 C 0.09548 -0.16302 0.49976
 C344 C 0.11439 -0.14389 0.49950
 C345 C 0.13624 -0.12123 0.49914
 C346 C 0.15469 -0.10169 0.49882
 H347 H 0.06047 -0.17898 0.45233
 H348 H 0.07813 -0.19622 0.54811
 H349 H 0.03754 -0.23241 0.54944
 H350 H 0.01992 -0.21562 0.45299
 C351 C 0.72300 0.41933 1.00308
 C352 C 0.69199 0.42207 0.99512
 C353 C 0.67948 0.44986 0.98808
 C354 C 0.69743 0.47496 0.99007
 C355 C 0.72824 0.47303 1.00030
 C356 C 0.74109 0.44449 1.00502
 C357 C 0.67250 0.39671 0.99447
 C358 C 0.65491 0.37645 0.99412
 C359 C 0.63306 0.35378 0.99392
 C360 C 0.61354 0.33521 0.99391
 H361 H 0.73316 0.39781 1.00792
 H362 H 0.65571 0.45218 0.98101
 H363 H 0.68691 0.49575 0.98320
 H364 H 0.76512 0.44176 1.01089
 C365 C 0.49703 0.08118 1.21531
 C366 C 0.50489 0.07818 1.18441
 C367 C 0.51192 0.05029 1.17305
 C368 C 0.51005 0.02536 1.19204
 C369 C 0.49995 0.02754 1.22279
 C370 C 0.49520 0.05619 1.23445
 C371 C 0.50552 0.10336 1.16389
 C372 C 0.50588 0.12347 1.14548
 C373 C 0.50611 0.14598 1.12273
 C374 C 0.50615 0.16443 1.10251
 H375 H 0.49220 0.10278 1.22458
 H376 H 0.51892 0.04777 1.14937
 H377 H 0.51693 0.00449 1.18237
 H378 H 0.48943 0.05913 1.25837
 C379 C 0.02662 0.69024 0.55881
 C380 C -0.00008 0.68415 0.57528
 C381 C -0.02721 0.69968 0.56836
 C382 C -0.02766 0.72131 0.54516
 C383 C -0.00067 0.72848 0.52886
 C384 C 0.02624 0.71183 0.53562
 C385 C 0.00006 0.66106 0.59833
 C386 C 0.00021 0.64147 0.61734
 C387 C 0.00044 0.61828 0.63932
 C388 C 0.00068 0.59830 0.65790
 H389 H 0.04763 0.67793 0.56353
 H390 H -0.04822 0.69462 0.58046
 H391 H -0.04950 0.73164 0.53953
 H392 H 0.04704 0.71540 0.52261
 C393 C 0.51461 0.92082 -0.21536
 C394 C 0.49385 0.91965 -0.19096
 C395 C 0.47314 0.94298 -0.18660
 C396 C 0.47403 0.96792 -0.20569
 C397 C 0.49638 0.97059 -0.22901
 C398 C 0.51554 0.94579 -0.23458
 C399 C 0.49434 0.89514 -0.16960
 C400 C 0.49470 0.87542 -0.15074
 C401 C 0.49505 0.85322 -0.12771
 C402 C 0.49531 0.83493 -0.10735
 H403 H 0.53025 0.90250 -0.21943
 H404 H 0.45658 0.94213 -0.16811
 H405 H 0.45780 0.98575 -0.20165
 H406 H 0.53121 0.94532 -0.25373
 C407 C 0.99669 0.27907 0.42004
 C408 C 1.00452 0.30859 0.42370
 C409 C 1.01138 0.31893 0.45285
 C410 C 1.00919 0.30033 0.47845
 C411 C 0.99891 0.27102 0.47570
 C412 C 0.99456 0.26030 0.44572
 C413 C 1.00499 0.32887 0.39805
 C414 C 1.00511 0.34729 0.37785
 C415 C 1.00497 0.37018 0.35561
 C416 C 1.00462 0.39062 0.33763
 H417 H 0.99200 0.27062 0.39743
 H418 H 1.01836 0.34154 0.45585
 H419 H 1.01587 0.30918 0.50029
 H420 H 0.98875 0.23745 0.44230
 C421 C 0.51609 0.92145 0.21440
 C422 C 0.49523 0.91988 0.19011
 C423 C 0.47424 0.94297 0.18487
 C424 C 0.47497 0.96807 0.20292
 C425 C 0.49743 0.97117 0.22604
 C426 C 0.51685 0.94659 0.23258
 C427 C 0.49592 0.89525 0.16969
 C428 C 0.49645 0.87545 0.15155
 C429 C 0.49702 0.85319 0.12930
 C430 C 0.49746 0.83486 0.10956
 H431 H 0.53194 0.90331 0.21916
 H432 H 0.45761 0.94181 0.16645
 H433 H 0.45856 0.98573 0.19819
 H434 H 0.53263 0.94644 0.25170
 C435 C 0.01466 0.27942 0.58509
 C436 C -0.00603 0.30322 0.58657
 C437 C -0.02749 0.30788 0.56314
 C438 C -0.02715 0.28990 0.53751
 C439 C -0.00463 0.26742 0.53417
 C440 C 0.01499 0.26127 0.55940
 C441 C -0.00428 0.32410 0.61097
 C442 C -0.00291 0.34283 0.63019
 C443 C -0.00148 0.36589 0.65144
 C444 C -0.00043 0.38631 0.66873
 H445 H 0.03087 0.27517 0.60354
 H446 H -0.04397 0.32595 0.56427
 H447 H -0.04367 0.29439 0.51939
 H448 H 0.03080 0.24271 0.55952
 C449 C 0.51179 0.05020 0.82043
 C450 C 0.50500 0.07801 0.80782
 C451 C 0.49706 0.08071 0.77680
 C452 C 0.49490 0.05551 0.75880
 C453 C 0.49941 0.02698 0.77174
 C454 C 0.50960 0.02506 0.80256
 C455 C 0.50599 0.10342 0.82719
 C456 C 0.50667 0.12375 0.84468
 C457 C 0.50731 0.14650 0.86642
 C458 C 0.50774 0.16514 0.88585
 H459 H 0.51885 0.04790 0.84420
 H460 H 0.49241 0.10223 0.76656
 H461 H 0.48906 0.05822 0.73476
 H462 H 0.51630 0.00426 0.81316
 C463 C 0.97248 0.69166 0.44369
 C464 C 0.99931 0.68559 0.42731
 C465 C 1.02616 0.70062 0.43412
 C466 C 1.02621 0.72177 0.45711
 C467 C 0.99906 0.72897 0.47329
 C468 C 0.97245 0.71279 0.46668
 C469 C 0.99963 0.66301 0.40445
 C470 C 0.99995 0.64386 0.38557
 C471 C 1.00038 0.62119 0.36374
 C472 C 1.00074 0.60165 0.34530
 H473 H 0.95169 0.67972 0.43907
 H474 H 1.04728 0.69555 0.42210
 H475 H 1.04786 0.73170 0.46267
 H476 H 0.95158 0.71636 0.47962
 C477 C 1.19470 0.52405 0.06097
 C478 C 1.19899 0.50381 0.08508
 C479 C 1.22338 0.48344 0.08408
 C480 C 1.24254 0.48239 0.05833
 C481 C 1.23686 0.50106 0.03260
 C482 C 1.21368 0.52302 0.03529
 C483 C 1.17726 0.50325 0.10990
 C484 C 1.15786 0.50293 0.12959
 C485 C 1.13406 0.50266 0.15150
 C486 C 1.11304 0.50243 0.16944
 H487 H 1.17620 0.54025 0.06168
 H488 H 1.22736 0.46811 0.10302
 H489 H 1.26157 0.46688 0.05886
 H490 H 1.20949 0.53873 0.01674
 C491 C 0.58083 -0.00175 0.72240
 C492 C 0.57713 0.00508 0.69120
 C493 C 0.54796 0.01190 0.67968
 C494 C 0.52239 0.01064 0.69879
 C495 C 0.52519 0.00141 0.72985
 C496 C 0.55518 -0.00294 0.74167
 C497 C 0.60279 0.00477 0.67047
 C498 C 0.62308 0.00440 0.65171
 C499 C 0.64556 0.00397 0.62845
 C500 C 0.66387 0.00373 0.60775
 H501 H 0.60345 -0.00638 0.73177
 H502 H 0.54492 0.01811 0.65575
 H503 H 0.50052 0.01712 0.68891
 H504 H 0.55862 -0.00809 0.76578
 C505 C -0.22223 0.50144 0.91881
 C506 C -0.19105 0.49458 0.92259
 C507 C -0.17959 0.48780 0.95179
 C508 C -0.19874 0.48913 0.97732
 C509 C -0.22978 0.49841 0.97445
 C510 C -0.24155 0.50270 0.94443
 C511 C -0.17026 0.49489 0.89697
 C512 C -0.15146 0.49528 0.87672
 C513 C -0.12815 0.49574 0.85429
 C514 C -0.10742 0.49602 0.83602
 H515 H -0.23155 0.50605 0.89617
 H516 H -0.15567 0.48156 0.95489
 H517 H -0.18892 0.48268 0.99922
 H518 H -0.26564 0.50787 0.94093
 C519 C 0.43947 -0.02407 0.30542
 C520 C 0.41526 -0.00395 0.30102
 C521 C 0.41620 0.01633 0.27655
 C522 C 0.44196 0.01743 0.25742
 C523 C 0.46779 -0.00109 0.26321
 C524 C 0.46517 -0.02298 0.28647
 C525 C 0.39041 -0.00342 0.32272
 C526 C 0.37070 -0.00311 0.34208
 C527 C 0.34874 -0.00282 0.36584
 C528 C 0.33076 -0.00256 0.38683
 H529 H 0.43881 -0.04021 0.32399
 H530 H 0.39719 0.03155 0.27247
 H531 H 0.44138 0.03287 0.23832
 H532 H 0.48379 -0.03859 0.29074
 C533 C 0.22723 0.50035 0.91843
 C534 C 0.19632 0.49320 0.92190
 C535 C 0.18489 0.48644 0.95101
 C536 C 0.20377 0.48804 0.97673
 C537 C 0.23445 0.49756 0.97415
 C538 C 0.24628 0.50188 0.94424
 C539 C 0.17574 0.49325 0.89605
 C540 C 0.15711 0.49350 0.87559
 C541 C 0.13400 0.49394 0.85289
 C542 C 0.11341 0.49438 0.83439
 H543 H 0.23655 0.50498 0.89587
 H544 H 0.16121 0.48001 0.95388
 H545 H 0.19403 0.48158 0.99856
 H546 H 0.27018 0.50726 0.94096
 C547 C 0.58193 0.00004 0.27300
 C548 C 0.57838 0.00720 0.30389
 C549 C 0.54925 0.01393 0.31526
 C550 C 0.52356 0.01225 0.29634
 C551 C 0.52622 0.00268 0.26568
 C552 C 0.55616 -0.00157 0.25391
 C553 C 0.60419 0.00716 0.32453
 C554 C 0.62461 0.00689 0.34320
 C555 C 0.64728 0.00640 0.36635
 C556 C 0.66575 0.00591 0.38696
 H557 H 0.60452 -0.00455 0.26373
 H558 H 0.54631 0.02037 0.33893
 H559 H 0.50170 0.01867 0.30603
 H560 H 0.55949 -0.00697 0.23002
 C561 C 0.78129 0.48426 0.08437
 C562 C 0.80494 0.50472 0.08552
 C563 C 0.80850 0.52507 0.06150
 C564 C 0.78961 0.52401 0.03573
 C565 C 0.76729 0.50192 0.03286
 C566 C 0.76222 0.48319 0.05854
 C567 C 0.82672 0.50411 0.11035
 C568 C 0.84616 0.50372 0.13004
 C569 C 0.87000 0.50334 0.15198
 C570 C 0.89104 0.50302 0.16996
 H571 H 0.77784 0.46885 0.10325
 H572 H 0.82641 0.54135 0.06232
 H573 H 0.79327 0.53978 0.01724
 H574 H 0.74376 0.46758 0.05895
 C575 C 0.41535 0.01601 0.71858
 C576 C 0.41412 -0.00453 0.69501
 C577 C 0.43805 -0.02500 0.69155
 C578 C 0.46379 -0.02400 0.71047
 C579 C 0.46675 -0.00184 0.73272
 C580 C 0.44116 0.01703 0.73767
 C581 C 0.38931 -0.00389 0.67320
 C582 C 0.36965 -0.00350 0.65373
 C583 C 0.34775 -0.00315 0.62986
 C584 C 0.32980 -0.00285 0.60880
 H585 H 0.39655 0.03152 0.72194
 H586 H 0.43716 -0.04134 0.67371
 H587 H 0.48222 -0.03986 0.70689
 H588 H 0.44083 0.03271 0.75607
   
