data_POSCAR
  _audit_creation_date              2014-09-24
  _audit_creation_method            'ToBaCCo'
  _symmetry_space_group_name_H-M    'P1'
  _symmetry_Int_Tables_number       1
  _symmetry_cell_setting            triclinic
  loop_
  _symmetry_equiv_pos_as_xyz
 x,y,z
_cell_length_a 28.3221
_cell_length_b 28.6283
_cell_length_c 28.8532
_cell_angle_alpha 89.901400
_cell_angle_beta 89.842500
_cell_angle_gamma 89.809700
loop_
  _atom_site_label
  _atom_site_type_symbol
  _atom_site_fract_x
  _atom_site_fract_y
  _atom_site_fract_z
C1 C 0.18439 1.24484 0.18638
 C2 C 0.22331 1.22170 0.16600
 C3 C 0.23973 1.17889 0.18328
 C4 C 0.21737 1.15855 0.22166
 C5 C 0.17868 1.18051 0.24359
 C6 C 0.16353 1.22414 0.22597
 H7 H 0.23931 1.23470 0.13447
 H8 H 0.22942 1.12446 0.23278
 H9 H 0.13708 1.24348 0.24497
 C10 C 0.81646 0.75142 0.18342
 C11 C 0.83121 0.76964 0.22660
 C12 C 0.81194 0.81105 0.24494
 C13 C 0.77433 0.83270 0.22172
 C14 C 0.75739 0.81453 0.17998
 C15 C 0.77884 0.77472 0.16078
 H16 H 0.85735 0.75163 0.24714
 H17 H 0.75951 0.86504 0.23478
 H18 H 0.76658 0.76363 0.12719
 C19 C 0.82695 1.24137 -0.17397
 C20 C 0.78590 1.22140 -0.15429
 C21 C 0.76266 1.18386 -0.17556
 C22 C 0.78013 1.16592 -0.21737
 C23 C 0.82120 1.18429 -0.23726
 C24 C 0.84385 1.22211 -0.21597
 H25 H 0.77262 1.23316 -0.12114
 H26 H 0.76334 1.13589 -0.23303
 H27 H 0.87409 1.23687 -0.23355
 C28 C 0.18025 0.76132 -0.18779
 C29 C 0.22385 0.77941 -0.17257
 C30 C 0.24279 0.82011 -0.19248
 C31 C 0.21981 0.84104 -0.23021
 C32 C 0.17716 0.82308 -0.24669
 C33 C 0.15734 0.78384 -0.22508
 H34 H 0.24104 0.76470 -0.14238
 H35 H 0.23428 0.87241 -0.24572
 H36 H 0.12467 0.77004 -0.23878
 C37 C 0.56355 1.06995 -0.01461
 H38 H 0.55670 1.07504 0.02194
 C39 C 0.59755 1.09699 -0.03702
 H40 H 0.61586 1.12362 -0.01755
 C41 C 0.54827 1.02834 -0.08384
 H42 H 0.53018 1.00039 -0.10149
 C43 C 0.58242 1.05424 -0.10752
 H44 H 0.58999 1.04595 -0.14337
 N45 N 0.53950 1.03663 -0.03821
 C46 C 0.43180 1.01016 0.06650
 H47 H 0.43758 0.97313 0.07159
 C48 C 0.39798 1.03357 0.09304
 H49 H 0.37870 1.01433 0.11924
 C50 C 0.45008 1.07975 0.02581
 H51 H 0.46946 1.09724 -0.00143
 C52 C 0.41616 1.10445 0.05121
 H53 H 0.41001 1.14090 0.04316
 Zn54 Zn 0.49880 0.99777 -0.00346
 N55 N 0.45731 1.03347 0.03394
 C56 C 0.54525 0.96887 0.07890
 N57 N 0.53852 0.95966 0.03318
 C58 C 0.56430 0.92640 0.01095
 C59 C 0.59814 0.90042 0.03489
 C60 C 0.57922 0.94412 0.10408
 C61 C 0.43668 0.98481 -0.07673
 C62 C 0.40442 0.96146 -0.10470
 C63 C 0.42002 0.89076 -0.06148
 C64 C 0.45269 0.91538 -0.03478
 N65 N 0.46025 0.96159 -0.04279
 H66 H 0.52570 0.99674 0.09546
 H67 H 0.55905 0.92059 -0.02571
 H68 H 0.61779 0.87377 0.01648
 H69 H 0.58515 0.95321 0.13999
 H70 H 0.44261 1.02180 -0.08170
 H71 H 0.38666 0.98073 -0.13188
 H72 H 0.41320 0.85450 -0.05330
 H73 H 0.47056 0.89798 -0.00652
 C74 C 0.38932 1.08132 0.08525
 C75 C 0.60796 1.08886 -0.08398
 C76 C 0.39493 0.91394 -0.09675
 C77 C 0.60659 0.90960 0.08199
 C78 C -0.00663 0.57586 1.05970
 H79 H 0.03124 0.57941 1.05634
 C80 C -0.03225 0.60849 1.08534
 H81 H -0.01349 0.63743 1.10069
 C82 C -0.07661 0.53527 1.04068
 H83 H -0.09401 0.50741 1.02235
 C84 C -0.10359 0.56654 1.06701
 H85 H -0.14129 0.56115 1.06953
 N86 N -0.02894 0.54023 1.03788
 C87 C 0.08391 0.43839 1.01980
 H88 H 0.08821 0.43960 0.98255
 C89 C 0.11023 0.40669 1.04602
 H90 H 0.13480 0.38347 1.02867
 C91 C 0.04402 0.46500 1.08717
 H92 H 0.01722 0.48689 1.10280
 C93 C 0.06925 0.43345 1.11466
 H94 H 0.06221 0.43183 1.15153
 Zn95 Zn 0.01070 0.50110 1.00178
 N96 N 0.05122 0.46629 1.04056
 C97 C 0.09128 0.55175 0.97199
 N98 N 0.04556 0.54123 0.96242
 C99 C 0.02198 0.56320 0.92770
 C100 C 0.04466 0.59632 0.90014
 C101 C 0.11487 0.58602 0.94636
 C102 C -0.05351 0.42779 0.99119
 C103 C -0.07923 0.39352 0.96806
 C104 C -0.04253 0.41778 0.89633
 C105 C -0.01795 0.45199 0.92075
 N106 N -0.02439 0.45690 0.96726
 H107 H 0.10883 0.53510 1.00088
 H108 H -0.01479 0.55519 0.92163
 H109 H 0.02515 0.61189 0.87187
 H110 H 0.15040 0.59522 0.95637
 H111 H -0.05652 0.43107 1.02842
 H112 H -0.10224 0.37064 0.98766
 H113 H -0.03718 0.41448 0.85930
 H114 H 0.00700 0.47380 0.90256
 C115 C 0.10220 0.40317 1.09393
 C116 C -0.08154 0.60415 1.08958
 C117 C -0.07383 0.38822 0.92001
 C118 C 0.09155 0.60922 0.90984
 C119 C 1.07416 -0.02657 0.54190
 H120 H 1.09119 -0.00002 0.52114
 C121 C 1.10004 -0.05060 0.57564
 H122 H 1.13693 -0.04215 0.58032
 C123 C 1.00450 -0.06666 0.56373
 H124 H 0.96695 -0.07191 0.55949
 C125 C 1.02908 -0.09199 0.59721
 H126 H 1.01018 -0.11760 0.61764
 N127 N 1.02723 -0.03490 0.53675
 C128 C 1.01904 0.08417 0.45061
 H129 H 0.99231 0.10174 0.47094
 C130 C 1.04507 0.10950 0.41802
 H131 H 1.03886 0.14667 0.41447
 C132 C 1.05844 0.01428 0.42924
 H133 H 1.06275 -0.02306 0.43334
 C134 C 1.08535 0.03826 0.39636
 H135 H 1.11019 0.01902 0.37505
 Zn136 Zn 0.98903 0.00146 0.49695
 N137 N 1.02631 0.03746 0.45578
 C138 C 0.97753 0.07276 0.56057
 N139 N 0.95295 0.04017 0.53655
 C140 C 0.90638 0.03246 0.54516
 C141 C 0.88291 0.05791 0.57966
 C142 C 0.95535 0.09949 0.59457
 C143 C 0.96165 -0.08331 0.45491
 C144 C 0.93686 -0.11098 0.42358
 C145 C 0.88883 -0.04393 0.40396
 C146 C 0.91495 -0.01736 0.43528
 N147 N 0.95047 -0.03736 0.46006
 H148 H 1.01482 0.07736 0.55381
 H149 H 0.88793 0.00516 0.52688
 H150 H 0.84641 0.04984 0.58735
 H151 H 0.97575 0.12556 0.61274
 H152 H 0.99103 -0.09817 0.47371
 H153 H 0.94678 -0.14728 0.41921
 H154 H 0.86141 -0.02726 0.38366
 H155 H 0.90767 0.01956 0.43907
 C156 C 1.07864 0.08651 0.39024
 C157 C 1.07741 -0.08359 0.60423
 C158 C 0.90027 -0.09118 0.39729
 C159 C 0.90764 0.09155 0.60542
 C160 C 0.11752 0.29914 1.17352
 C161 C 0.16538 0.28651 1.16649
 C162 C 0.19277 0.31567 1.13732
 C163 C 0.17270 0.35419 1.11480
 C164 C 0.12490 0.36531 1.12113
 C165 C 0.09780 0.33790 1.15134
 H166 H 0.09376 0.27774 1.19375
 H167 H 0.23010 0.30968 1.13212
 H168 H 0.19462 0.37531 1.09225
 H169 H 0.06054 0.34512 1.15615
 C170 C -0.11380 0.69913 1.17617
 C171 C -0.15991 0.71247 1.16250
 C172 C -0.18065 0.68668 1.12603
 C173 C -0.15569 0.65146 1.10294
 C174 C -0.10949 0.63954 1.11608
 C175 C -0.08950 0.66309 1.15384
 H176 H -0.09451 0.71754 1.20262
 H177 H -0.21655 0.69268 1.11498
 H178 H -0.17256 0.63436 1.07400
 H179 H -0.05447 0.65429 1.16599
 C180 C -0.10016 0.28668 0.84035
 C181 C -0.14879 0.27858 0.84848
 C182 C -0.17213 0.30837 0.88033
 C183 C -0.14787 0.34382 0.90336
 C184 C -0.09972 0.35118 0.89499
 C185 C -0.07622 0.32251 0.86306
 H186 H -0.07931 0.26425 0.81819
 H187 H -0.20964 0.30586 0.88676
 H188 H -0.16701 0.36609 0.92727
 H189 H -0.03880 0.32693 0.85663
 C190 C 0.18599 0.68732 0.85579
 C191 C 0.15876 0.72308 0.83523
 C192 C 0.10923 0.72034 0.83921
 C193 C 0.08784 0.68397 0.86359
 C194 C 0.11492 0.64788 0.88348
 C195 C 0.16438 0.64992 0.87875
 H196 H 0.22408 0.68699 0.85261
 H197 H 0.08661 0.74777 0.82590
 H198 H 0.04991 0.68520 0.86775
 H199 H 0.18670 0.62243 0.89233
 C200 C 1.17751 0.12563 0.31011
 C201 C 1.15469 0.15873 0.28133
 C202 C 1.10655 0.16845 0.29053
 C203 C 1.08233 0.14560 0.32614
 C204 C 1.10518 0.11224 0.35384
 C205 C 1.15310 0.10278 0.34567
 H206 H 1.21475 0.11801 0.30652
 H207 H 1.08623 0.19183 0.26883
 H208 H 1.04511 0.15297 0.33095
 H209 H 1.17194 0.07792 0.36714
 C210 C 1.17551 -0.14199 0.67359
 C211 C 1.15196 -0.15332 0.71495
 C212 C 1.10411 -0.14161 0.71982
 C213 C 1.08018 -0.11878 0.68410
 C214 C 1.10334 -0.10782 0.64224
 C215 C 1.15136 -0.11979 0.63744
 H216 H 1.21240 -0.15098 0.66902
 H217 H 1.08543 -0.14936 0.75172
 H218 H 1.04366 -0.10905 0.68973
 H219 H 1.17022 -0.11255 0.60556
 C220 C 0.80617 -0.14129 0.31842
 C221 C 0.83366 -0.16656 0.28631
 C222 C 0.88293 -0.16812 0.29244
 C223 C 0.90417 -0.14473 0.32923
 C224 C 0.87683 -0.11861 0.36050
 C225 C 0.82760 -0.11726 0.35494
 H226 H 0.76813 -0.13983 0.31522
 H227 H 0.90546 -0.18613 0.26787
 H228 H 0.94227 -0.14568 0.33225
 H229 H 0.80575 -0.09758 0.37886
 C230 C 0.81584 0.15072 0.68248
 C231 C 0.84282 0.16172 0.72170
 C232 C 0.89086 0.14976 0.72239
 C233 C 0.91160 0.12702 0.68479
 C234 C 0.88500 0.11628 0.64510
 C235 C 0.83680 0.12850 0.64437
 H236 H 0.77870 0.15974 0.68119
 H237 H 0.91218 0.15704 0.75264
 H238 H 0.94837 0.11699 0.68738
 H239 H 0.81534 0.12125 0.61427
 C240 C 0.32036 1.17711 0.14715
 C241 C 0.27851 1.15383 0.15915
 C242 C 0.27343 1.10664 0.14713
 C243 C 0.30933 1.08322 0.12328
 C244 C 0.35144 1.10631 0.11129
 C245 C 0.35657 1.15354 0.12372
 H246 H 0.32518 1.21345 0.15634
 H247 H 0.24115 1.08813 0.15529
 H248 H 0.30357 1.04724 0.11338
 H249 H 0.38872 1.17225 0.11571
 C250 C 0.68115 1.14976 -0.17675
 C251 C 0.72225 1.16099 -0.15213
 C252 C 0.72529 1.14900 -0.10505
 C253 C 0.68815 1.12592 -0.08303
 C254 C 0.64683 1.11462 -0.10746
 C255 C 0.64368 1.12703 -0.15458
 H256 H 0.67792 1.15888 -0.21305
 H257 H 0.75699 1.15644 -0.08552
 H258 H 0.69238 1.11593 -0.04708
 H259 H 0.61218 1.11940 -0.17429
 C260 C 0.27993 0.89169 -0.16004
 C261 C 0.28323 0.84393 -0.17039
 C262 C 0.32394 0.81916 -0.15728
 C263 C 0.36072 0.84190 -0.13421
 C264 C 0.35716 0.88971 -0.12322
 C265 C 0.31622 0.91422 -0.13651
 H266 H 0.24846 0.91135 -0.16884
 H267 H 0.32727 0.78228 -0.16497
 H268 H 0.39193 0.82205 -0.12507
 H269 H 0.31144 0.95063 -0.12761
 C270 C 0.67688 0.85099 0.17825
 C271 C 0.71871 0.83867 0.15503
 C272 C 0.72351 0.84965 0.10786
 C273 C 0.68723 0.87265 0.08430
 C274 C 0.64499 0.88472 0.10725
 C275 C 0.64027 0.87351 0.15455
 H276 H 0.67231 0.84256 0.21459
 H277 H 0.75576 0.84117 0.08940
 H278 H 0.69272 0.88172 0.04826
 H279 H 0.60807 0.88166 0.17319
   
