data_POSCAR
  _audit_creation_date              2014-09-24
  _audit_creation_method            'ToBaCCo'
  _symmetry_space_group_name_H-M    'P1'
  _symmetry_Int_Tables_number       1
  _symmetry_cell_setting            triclinic
  loop_
  _symmetry_equiv_pos_as_xyz
 x,y,z
_cell_length_a 45.1507
_cell_length_b 44.9699
_cell_length_c 44.9688
_cell_angle_alpha 89.996600
_cell_angle_beta 90.000700
_cell_angle_gamma 89.998000
loop_
  _atom_site_label
  _atom_site_type_symbol
  _atom_site_fract_x
  _atom_site_fract_y
  _atom_site_fract_z
C1 C 0.20816 1.23092 0.18712
 C2 C 0.23009 1.20884 0.18735
 C3 C 0.22992 1.18713 0.20922
 C4 C 0.20782 1.18725 0.23113
 C5 C 0.18614 1.20908 0.23091
 C6 C 0.18631 1.23104 0.20878
 C7 C 0.20190 1.25370 0.16763
 N8 N 0.17694 1.26745 0.17711
 C9 C 0.16710 1.25389 0.20212
 C10 C 0.16670 1.20275 0.25366
 N11 N 0.17624 1.17777 0.26750
 C12 C 0.20123 1.16798 0.25402
 C13 C 0.25268 1.16773 0.20299
 N14 N 0.26648 1.17728 0.17802
 C15 C 0.25295 1.20228 0.16817
 H16 H 0.21410 1.25935 0.14767
 H17 H 0.14710 1.25971 0.21409
 H18 H 0.14675 1.21491 0.25923
 H19 H 0.21324 1.14797 0.25992
 H20 H 0.25833 1.14776 0.21520
 H21 H 0.25884 1.21429 0.14815
 C22 C 0.79235 0.76833 0.18740
 C23 C 0.77027 0.79027 0.18743
 C24 C 0.77019 0.81206 0.20922
 C25 C 0.79218 0.81218 0.23124
 C26 C 0.81400 0.79050 0.23122
 C27 C 0.81409 0.76845 0.20917
 C28 C 0.79886 0.74553 0.16803
 N29 N 0.82388 0.73199 0.17768
 C30 C 0.83349 0.74571 0.20270
 C31 C 0.83329 0.79705 0.25403
 N32 N 0.82353 0.82203 0.26771
 C33 C 0.79853 0.83159 0.25407
 C34 C 0.74733 0.83130 0.20279
 N35 N 0.73372 0.82156 0.17779
 C36 C 0.74746 0.79660 0.16811
 H37 H 0.78681 0.73973 0.14803
 H38 H 0.85348 0.74008 0.21478
 H39 H 0.85330 0.78505 0.25974
 H40 H 0.78637 0.85155 0.25982
 H41 H 0.74150 0.85128 0.21488
 H42 H 0.74176 0.78448 0.14810
 C43 C 0.79152 1.23133 -0.18701
 C44 C 0.76950 1.20934 -0.18697
 C45 C 0.76942 1.18753 -0.20875
 C46 C 0.79136 1.18745 -0.23082
 C47 C 0.81313 1.20919 -0.23086
 C48 C 0.81321 1.23126 -0.20883
 C49 C 0.79802 1.25416 -0.16766
 N50 N 0.82297 1.26776 -0.17739
 C51 C 0.83256 1.25405 -0.20242
 C52 C 0.83237 1.20267 -0.25372
 N53 N 0.82264 1.17766 -0.26736
 C54 C 0.79770 1.16805 -0.25365
 C55 C 0.74664 1.16824 -0.20224
 N56 N 0.73307 1.17795 -0.17721
 C57 C 0.74676 1.20295 -0.16758
 H58 H 0.78599 1.25994 -0.14764
 H59 H 0.85251 1.25973 -0.21455
 H60 H 0.85234 1.21472 -0.25949
 H61 H 0.78558 1.14806 -0.25936
 H62 H 0.74083 1.14823 -0.21431
 H63 H 0.74108 1.21507 -0.14757
 C64 C 0.20817 0.76921 -0.18778
 C65 C 0.23019 0.79121 -0.18777
 C66 C 0.23019 0.81307 -0.20949
 C67 C 0.20818 0.81320 -0.23149
 C68 C 0.18641 0.79146 -0.23151
 C69 C 0.18641 0.76934 -0.20953
 C70 C 0.20174 0.74633 -0.16847
 N71 N 0.17675 0.73275 -0.17815
 C72 C 0.16708 0.74653 -0.20311
 C73 C 0.16709 0.79803 -0.25428
 N74 N 0.17677 0.82308 -0.26790
 C75 C 0.20176 0.83266 -0.25425
 C76 C 0.25300 0.83234 -0.20303
 N77 N 0.26666 0.82256 -0.17807
 C78 C 0.25300 0.79754 -0.16845
 H79 H 0.21383 0.74049 -0.14850
 H80 H 0.14710 0.74088 -0.21519
 H81 H 0.14710 0.78600 -0.26002
 H82 H 0.21386 0.85266 -0.25996
 H83 H 0.25877 0.85238 -0.21507
 H84 H 0.25876 0.78538 -0.14849
 C85 C 0.54536 1.04074 -0.00891
 H86 H 0.54617 1.04069 0.01513
 C87 C 0.56532 1.05808 -0.02508
 H88 H 0.58152 1.07155 -0.01349
 C89 C 0.52379 1.02264 -0.05348
 H90 H 0.50798 1.00836 -0.06448
 C91 C 0.54337 1.03965 -0.07050
 H92 H 0.54241 1.03863 -0.09455
 N93 N 0.52501 1.02363 -0.02324
 C94 C 0.45480 1.00891 0.04172
 H95 H 0.45401 0.98486 0.04169
 C96 C 0.43480 1.02507 0.05903
 H97 H 0.41860 1.01347 0.07249
 C98 C 0.47634 1.05349 0.02359
 H99 H 0.49214 1.06449 0.00932
 C100 C 0.45672 1.07050 0.04057
 H101 H 0.45765 1.09455 0.03953
 Zn102 Zn 0.50008 0.99952 0.00050
 N103 N 0.47514 1.02325 0.02460
 C104 C 0.52384 0.97642 0.05446
 N105 N 0.52503 0.97542 0.02422
 C106 C 0.54538 0.95832 0.00987
 C107 C 0.56538 0.94100 0.02602
 C108 C 0.54346 0.95943 0.07146
 C109 C 0.45478 0.99014 -0.04069
 C110 C 0.43479 0.97400 -0.05802
 C111 C 0.45673 0.92855 -0.03963
 C112 C 0.47634 0.94555 -0.02262
 N113 N 0.47513 0.97579 -0.02360
 H114 H 0.50804 0.99068 0.06547
 H115 H 0.54616 0.95836 -0.01417
 H116 H 0.58158 0.92754 0.01441
 H117 H 0.54253 0.96045 0.09551
 H118 H 0.45398 1.01419 -0.04063
 H119 H 0.41858 0.98560 -0.07147
 H120 H 0.45769 0.90450 -0.03862
 H121 H 0.49216 0.93454 -0.00836
 C122 C 0.43575 1.05614 0.05840
 C123 C 0.56434 1.05749 -0.05615
 C124 C 0.43576 0.94293 -0.05744
 C125 C 0.56443 0.94161 0.05709
 C126 C -0.00890 0.54548 1.04069
 H127 H 0.01505 0.54631 1.04066
 C128 C -0.02502 0.56550 1.05804
 H129 H -0.01349 0.58175 1.07154
 C130 C -0.05326 0.52382 1.02254
 H131 H -0.06420 0.50795 1.00824
 C132 C -0.07024 0.54345 1.03956
 H133 H -0.09419 0.54246 1.03854
 N134 N -0.02315 0.52506 1.02355
 C135 C 0.04157 0.45456 1.00892
 H136 H 0.04157 0.45376 0.98487
 C137 C 0.05881 0.43451 1.02511
 H138 H 0.07224 0.41824 1.01354
 C139 C 0.02346 0.47620 1.05347
 H140 H 0.00922 0.49207 1.06444
 C141 C 0.04037 0.45652 1.07051
 H142 H 0.03931 0.45748 1.09456
 Zn143 Zn 0.00053 0.50004 0.99947
 N144 N 0.02450 0.47499 1.02323
 C145 C 0.05431 0.52387 0.97642
 N146 N 0.02419 0.52509 0.97540
 C147 C 0.00993 0.54553 0.95829
 C148 C 0.02604 0.56559 0.94097
 C149 C 0.07127 0.54355 0.95944
 C150 C -0.04050 0.45456 0.99000
 C151 C -0.05777 0.43453 0.97382
 C152 C -0.03938 0.45660 0.92842
 C153 C -0.02244 0.47625 0.94545
 N154 N -0.02345 0.47501 0.97569
 H155 H 0.06525 0.50799 0.99070
 H156 H -0.01402 0.54634 0.95831
 H157 H 0.01451 0.58186 0.92750
 H158 H 0.09522 0.54258 0.96048
 H159 H -0.04046 0.45374 1.01405
 H160 H -0.07119 0.41826 0.98539
 H161 H -0.03837 0.45759 0.90437
 H162 H -0.00822 0.49213 0.93448
 C163 C 0.05816 0.43548 1.05618
 C164 C -0.05596 0.56449 1.05743
 C165 C -0.05716 0.43555 0.94275
 C166 C 0.05698 0.56460 0.94160
 C167 C 1.04047 -0.00896 0.54550
 H168 H 1.04044 0.01508 0.54632
 C169 C 1.05774 -0.02515 0.56553
 H170 H 1.07118 -0.01358 0.58179
 C171 C 1.02240 -0.05351 0.52384
 H172 H 1.00816 -0.06449 0.50797
 C173 C 1.03934 -0.07055 0.54349
 H174 H 1.03831 -0.09460 0.54250
 N175 N 1.02341 -0.02328 0.52507
 C176 C 1.00884 0.04168 0.45455
 H177 H 0.98489 0.04167 0.45374
 C178 C 1.02496 0.05900 0.43450
 H179 H 1.01344 0.07248 0.41823
 C180 C 1.05321 0.02353 0.47622
 H181 H 1.06414 0.00925 0.49209
 C182 C 1.07018 0.04052 0.45655
 H183 H 1.09413 0.03947 0.45752
 Zn184 Zn 0.99943 0.00049 0.50003
 N185 N 1.02310 0.02456 0.47499
 C186 C 0.97647 0.05449 0.52384
 N187 N 0.97545 0.02425 0.52506
 C188 C 0.95839 0.00994 0.54550
 C189 C 0.94114 0.02612 0.56555
 C190 C 0.95955 0.07153 0.54351
 C191 C 0.99004 -0.04071 0.45456
 C192 C 0.97394 -0.05807 0.43453
 C193 C 0.92870 -0.03963 0.45657
 C194 C 0.94565 -0.02261 0.47622
 N195 N 0.97577 -0.02360 0.47499
 H196 H 0.99069 0.06547 0.50797
 H197 H 0.95840 -0.01411 0.54631
 H198 H 0.92771 0.01455 0.58182
 H199 H 0.96059 0.09557 0.54254
 H200 H 1.01399 -0.04067 0.45375
 H201 H 0.98549 -0.07154 0.41827
 H202 H 0.90475 -0.03863 0.45755
 H203 H 0.93470 -0.00833 0.49209
 C204 C 1.05591 0.05837 0.43549
 C205 C 1.05713 -0.05622 0.56453
 C206 C 0.94300 -0.05748 0.43553
 C207 C 0.94177 0.05719 0.56456
 C208 C 0.13516 0.33216 1.13429
 N209 N 0.11014 0.34429 1.14576
 N210 N 0.09543 0.36517 1.13077
 C211 C 0.10529 0.37453 1.10387
 N212 N 0.13033 0.36243 1.09242
 N213 N 0.14504 0.34156 1.10740
 C214 C 0.15051 0.30906 1.15001
 C215 C 0.16317 0.28935 1.16299
 C216 C 0.08897 0.39636 1.08733
 C217 C 0.07504 0.41437 1.07324
 C218 C -0.13365 0.66747 1.13530
 N219 N -0.10710 0.65763 1.14542
 N220 N -0.09221 0.63682 1.13051
 C221 C -0.10342 0.62523 1.10505
 N222 N -0.12998 0.63505 1.09495
 N223 N -0.14487 0.65585 1.10985
 C224 C -0.14925 0.69050 1.15086
 C225 C -0.16213 0.71015 1.16371
 C226 C -0.08698 0.60348 1.08854
 C227 C -0.07295 0.58553 1.07447
 C228 C -0.13469 0.33242 0.86494
 N229 N -0.10880 0.34324 0.85414
 N230 N -0.09395 0.36408 0.86902
 C231 C -0.10455 0.37473 0.89516
 N232 N -0.13045 0.36393 0.90595
 N233 N -0.14531 0.34309 0.89106
 C234 C -0.15023 0.30934 0.84938
 C235 C -0.16307 0.28964 0.83655
 C236 C -0.08811 0.39651 0.91163
 C237 C -0.07411 0.41448 0.92570
 C238 C 0.13449 0.66796 0.86406
 N239 N 0.14549 0.65668 0.88976
 N240 N 0.13065 0.63579 0.90460
 C241 C 0.10437 0.62556 0.89418
 N242 N 0.09339 0.63681 0.86845
 N243 N 0.10823 0.65770 0.85362
 C244 C 0.15002 0.69109 0.84856
 C245 C 0.16283 0.71083 0.83576
 C246 C 0.08796 0.60372 0.91061
 C247 C 0.07396 0.58571 0.92462
 C248 C 1.13365 0.13576 0.33220
 N249 N 1.10692 0.14573 0.34169
 N250 N 1.09201 0.13094 0.36256
 C251 C 1.10338 0.10573 0.37457
 N252 N 1.13013 0.09579 0.36510
 N253 N 1.14504 0.11058 0.34423
 C254 C 1.14928 0.15119 0.30910
 C255 C 1.16220 0.16393 0.28939
 C256 C 1.08693 0.08933 0.39638
 C257 C 1.07289 0.07533 0.41439
 C258 C 1.13459 -0.13425 0.66757
 N259 N 1.10916 -0.14543 0.65605
 N260 N 1.09433 -0.13047 0.63524
 C261 C 1.10449 -0.10388 0.62532
 N262 N 1.12994 -0.09271 0.63681
 N263 N 1.14477 -0.10767 0.65762
 C264 C 1.15008 -0.14992 0.69060
 C265 C 1.16287 -0.16286 0.71026
 C266 C 1.08808 -0.08736 0.60355
 C267 C 1.07408 -0.07327 0.58559
 C268 C 0.86563 -0.13543 0.33238
 N269 N 0.89173 -0.14597 0.34295
 N270 N 0.90653 -0.13104 0.36379
 C271 C 0.89568 -0.10512 0.37470
 N272 N 0.86955 -0.09460 0.36416
 N273 N 0.85475 -0.10953 0.34331
 C274 C 0.85015 -0.15104 0.30930
 C275 C 0.83739 -0.16394 0.28959
 C276 C 0.91205 -0.08860 0.39649
 C277 C 0.92604 -0.07452 0.41446
 C278 C 0.86461 0.13512 0.66788
 N279 N 0.89006 0.14627 0.65638
 N280 N 0.90482 0.13134 0.63549
 C281 C 0.89456 0.10482 0.62549
 N282 N 0.86909 0.09369 0.63697
 N283 N 0.85434 0.10862 0.65785
 C284 C 0.84920 0.15075 0.69099
 C285 C 0.83647 0.16365 0.71072
 C286 C 0.91092 0.08832 0.60367
 C287 C 0.92487 0.07424 0.58566
 C288 C 0.33250 1.13396 0.13552
 N289 N 0.34455 1.14544 0.11039
 N290 N 0.36543 1.13053 0.09567
 C291 C 0.37488 1.10369 0.10564
 N292 N 0.36285 1.09223 0.13078
 N293 N 0.34198 1.10714 0.14551
 C294 C 0.30939 1.14958 0.15086
 C295 C 0.28966 1.16248 0.16352
 C296 C 0.39669 1.08721 0.08929
 C297 C 0.41468 1.07316 0.07533
 C298 C 0.66726 1.13505 -0.13396
 N299 N 0.65743 1.14521 -0.10734
 N300 N 0.63662 1.13038 -0.09243
 C301 C 0.62502 1.10495 -0.10370
 N302 N 0.63483 1.09481 -0.13035
 N303 N 0.65564 1.10964 -0.14525
 C304 C 0.69030 1.15053 -0.14957
 C305 C 0.70996 1.16330 -0.16244
 C306 C 0.60329 1.08851 -0.08723
 C307 C 0.58535 1.07448 -0.07318
 C308 C 0.33264 0.86542 -0.13504
 N309 N 0.34354 0.85452 -0.10913
 N310 N 0.36439 0.86934 -0.09428
 C311 C 0.37497 0.89550 -0.10489
 N312 N 0.36409 0.90638 -0.13082
 N313 N 0.34324 0.89156 -0.14567
 C314 C 0.30954 0.84994 -0.15055
 C315 C 0.28983 0.83718 -0.16336
 C316 C 0.39675 0.91191 -0.08845
 C317 C 0.41472 0.92592 -0.07442
 C318 C 0.66768 0.86429 0.13473
 N319 N 0.65623 0.88984 0.14590
 N320 N 0.63536 0.90462 0.13104
 C321 C 0.62530 0.89429 0.10457
 N322 N 0.63672 0.86872 0.09342
 N323 N 0.65759 0.85395 0.10827
 C324 C 0.69080 0.84888 0.15027
 C325 C 0.71053 0.83615 0.16309
 C326 C 0.60349 0.91067 0.08813
 C327 C 0.58550 0.92466 0.07410
   
