data_POSCAR
  _audit_creation_date              2014-09-24
  _audit_creation_method            'ToBaCCo'
  _symmetry_space_group_name_H-M    'P1'
  _symmetry_Int_Tables_number       1
  _symmetry_cell_setting            triclinic
  loop_
  _symmetry_equiv_pos_as_xyz
 x,y,z
_cell_length_a 33.5590
_cell_length_b 35.1041
_cell_length_c 31.9481
_cell_angle_alpha 89.215100
_cell_angle_beta 90.417000
_cell_angle_gamma 90.247500
loop_
  _atom_site_label
  _atom_site_type_symbol
  _atom_site_fract_x
  _atom_site_fract_y
  _atom_site_fract_z
N1 N 0.20137 0.19682 0.19146
 N2 N -0.18023 0.78609 0.18629
 N3 N -0.20013 0.20623 -0.20682
 N4 N 0.16589 0.81086 -0.16644
 N5 N 0.18825 1.18753 0.80229
 N6 N 0.81396 0.82016 0.84231
 N7 N 0.23605 0.76950 1.22263
 N8 N 0.80175 1.20290 1.17185
 O9 O 0.53240 0.96501 0.92884
 O10 O 0.47604 0.94915 1.06398
 O11 O 0.60012 0.98893 1.03630
 O12 O 0.41286 0.99230 0.97250
 O13 O 0.54890 0.95932 1.06462
 O14 O 0.45590 0.96453 0.93056
 O15 O 0.42349 0.98280 1.04744
 O16 O 0.55483 0.95197 0.99095
 C17 C 0.55188 0.94385 0.95331
 C18 C 0.43906 0.95189 1.05995
 C19 C 0.58637 0.96568 1.06530
 C20 C 0.42128 0.96785 0.94497
 O21 O 0.45565 1.03735 0.92192
 O22 O 0.53600 1.03360 1.08379
 O23 O 0.57893 1.01679 0.96026
 O24 O 0.45401 1.05770 1.04938
 O25 O 0.46468 1.01668 1.09556
 O26 O 0.52960 1.04114 0.92554
 O27 O 0.43849 1.06516 0.97853
 O28 O 0.56150 1.05036 1.02505
 Co29 Co 0.49416 1.00212 0.93390
 Co30 Co 0.50573 0.99164 1.06979
 Co31 Co 0.55496 1.00154 1.00876
 Co32 Co 0.43718 1.02302 1.01204
 O33 O 0.49564 1.00594 1.00263
 C34 C 0.43909 1.06421 0.93992
 C35 C 0.55543 1.05726 1.06233
 C36 C 0.56597 1.03985 0.93338
 C37 C 0.45230 1.04881 1.08633
 O38 O 0.05937 0.46901 0.05374
 O39 O 0.04108 0.53172 -0.07842
 O40 O 0.01182 0.41506 -0.04017
 O41 O 0.02059 0.58960 0.03237
 O42 O 0.03979 0.45889 -0.08123
 O43 O 0.05044 0.53868 0.05780
 O44 O 0.05753 0.54797 -0.01571
 O45 O 0.02285 0.42029 0.03541
 C46 C 0.05544 0.43392 0.04872
 C47 C 0.06467 0.54800 -0.05382
 C48 C 0.03632 0.42489 -0.06857
 C49 C 0.04439 0.57440 0.06060
 O50 O -0.02717 0.52638 0.07811
 O51 O -0.03638 0.45996 -0.08715
 O52 O -0.05483 0.44943 0.04060
 O53 O -0.00994 0.57445 -0.04344
 O54 O -0.03887 0.53026 -0.07869
 O55 O -0.01115 0.45739 0.08626
 O56 O -0.04467 0.55446 0.02097
 O57 O -0.06394 0.43908 -0.03076
 Co58 Co 0.01570 0.49766 0.06178
 Co59 Co 0.00148 0.49549 -0.07416
 Co60 Co -0.01932 0.43576 0.00153
 Co61 Co 0.00594 0.54824 0.00327
 O62 O -0.00060 0.49218 -0.00539
 C63 C -0.05146 0.54682 0.05816
 C64 C -0.06388 0.44240 -0.06928
 C65 C -0.04505 0.44622 0.07729
 C66 C -0.03575 0.56445 -0.06938
 O67 O 1.07296 0.02533 0.45624
 O68 O 0.91567 0.03303 0.52956
 O69 O 0.95732 0.00570 0.40425
 O70 O 1.03725 0.05360 0.53798
 O71 O 0.92283 0.03270 0.45220
 O72 O 1.08066 0.01196 0.53253
 O73 O 0.96922 0.06178 0.54912
 O74 O 1.01881 0.04036 0.42412
 C75 C 1.05398 0.04783 0.43282
 C76 C 0.93251 0.06075 0.54618
 C77 C 0.93167 0.02938 0.41466
 C78 C 1.07210 0.04472 0.54259
 O79 O 1.05006 -0.05612 0.52350
 O80 O 0.92452 -0.04348 0.45511
 O81 O 1.03038 -0.02277 0.38876
 O82 O 0.96077 -0.00960 0.58074
 O83 O 0.92246 -0.03971 0.53507
 O84 O 1.05381 -0.04929 0.44643
 O85 O 1.03228 -0.01961 0.57494
 O86 O 0.98421 -0.05773 0.43590
 Co87 Co 1.05764 -0.01514 0.48977
 Co88 Co 0.92823 -0.00427 0.49259
 Co89 Co 1.00204 -0.00814 0.43341
 Co90 Co 1.00015 0.01979 0.55558
 O91 O 0.99366 -0.00050 0.49500
 C92 C 1.04476 -0.05121 0.56179
 C93 C 0.94816 -0.06583 0.43790
 C94 C 1.05752 -0.04410 0.40706
 C95 C 0.93452 -0.03448 0.57196
 C96 C 1.14913 0.16479 0.29931
 N97 N 1.10891 0.16659 0.30266
 N98 N 1.09028 0.14835 0.33376
 C99 C 1.11128 0.12778 0.36255
 N100 N 1.15153 0.12629 0.35942
 N101 N 1.17016 0.14453 0.32832
 C102 C 1.16836 0.17896 0.26221
 C103 C 1.18397 0.18824 0.22971
 C104 C 1.09088 0.10258 0.39101
 C105 C 1.07385 0.07887 0.41195
 C106 C 0.86633 -0.18217 0.29687
 N107 N 0.90654 -0.18127 0.30140
 N108 N 0.92334 -0.16360 0.33373
 C109 C 0.90044 -0.14637 0.36264
 N110 N 0.86021 -0.14758 0.35832
 N111 N 0.84341 -0.16524 0.32597
 C112 C 0.84873 -0.19582 0.25882
 C113 C 0.83481 -0.20501 0.22552
 C114 C 0.91838 -0.12142 0.39266
 C115 C 0.93265 -0.09756 0.41508
 C116 C 0.83623 0.17175 0.68041
 N117 N 0.81655 0.14305 0.66105
 N118 N 0.83322 0.12501 0.62925
 C119 C 0.87006 0.13514 0.61579
 N120 N 0.88955 0.16411 0.63486
 N121 N 0.87288 0.18215 0.66667
 C122 C 0.82153 0.18639 0.71898
 C123 C 0.81082 0.19643 0.75301
 C124 C 0.89087 0.11120 0.58736
 C125 C 0.90944 0.08911 0.56668
 C126 C 1.12011 -0.15530 0.72225
 N127 N 1.14375 -0.14264 0.69070
 N128 N 1.12781 -0.12633 0.65661
 C129 C 1.08775 -0.12222 0.65293
 N130 N 1.06410 -0.13505 0.68440
 N131 N 1.08003 -0.15138 0.71849
 C132 C 1.13734 -0.16906 0.76088
 C133 C 1.15106 -0.17899 0.79431
 C134 C 1.07117 -0.10012 0.61890
 C135 C 1.05830 -0.07917 0.59183
 C136 C 0.31067 1.15313 1.17498
 N137 N 0.31764 1.11760 1.19056
 N138 N 0.34981 1.09832 1.17911
 C139 C 0.37615 1.11403 1.15183
 N140 N 0.36937 1.14970 1.13656
 N141 N 0.33718 1.16898 1.14798
 C142 C 0.27308 1.17116 1.18226
 C143 C 0.24017 1.18409 1.18691
 C144 C 0.40630 1.09091 1.13334
 C145 C 0.42903 1.07138 1.11405
 C146 C 0.26706 0.86357 0.86942
 N147 N 0.28474 0.85321 0.90613
 N148 N 0.31610 0.87255 0.92058
 C149 C 0.33068 0.90288 0.89877
 N150 N 0.31305 0.91320 0.86201
 N151 N 0.28169 0.89386 0.84757
 C152 C 0.23181 0.84421 0.85528
 C153 C 0.20144 0.82848 0.84460
 C154 C 0.36322 0.92486 0.91521
 C155 C 0.39001 0.94407 0.92896
 C156 C 0.72231 0.84517 1.15104
 N157 N 0.70119 0.83598 1.11623
 N158 N 0.67280 0.85913 1.10157
 C159 C 0.66472 0.89223 1.12116
 N160 N 0.68575 0.90137 1.15605
 N161 N 0.71412 0.87821 1.17072
 C162 C 0.75548 0.82224 1.16448
 C163 C 0.78480 0.80462 1.17493
 C164 C 0.63626 0.91840 1.10341
 C165 C 0.61313 0.94025 1.08697
 C166 C 0.70229 1.15336 0.83794
 N167 N 0.68730 1.12268 0.81773
 N168 N 0.65893 1.10128 0.83530
 C169 C 0.64479 1.10986 0.87368
 N170 N 0.65967 1.14063 0.89382
 N171 N 0.68804 1.16202 0.87625
 C172 C 0.73556 1.17396 0.82096
 C173 C 0.76493 1.18969 0.80763
 C174 C 0.61626 1.08541 0.89384
 C175 C 0.59301 1.06460 0.91151
 C176 C 0.16820 0.29587 0.13685
 N177 N 0.16368 0.29697 0.09461
 N178 N 0.14597 0.32654 0.07573
 C179 C 0.13227 0.35599 0.09850
 N180 N 0.13702 0.35500 0.14072
 N181 N 0.15471 0.32543 0.15960
 C182 C 0.18245 0.26183 0.15739
 C183 C 0.19214 0.23205 0.17377
 C184 C 0.10822 0.38512 0.07904
 C185 C 0.08551 0.40823 0.06411
 C186 C -0.17298 0.31207 -0.16962
 N187 N -0.14507 0.33258 -0.19070
 N188 N -0.12818 0.36301 -0.17337
 C189 C -0.13870 0.37391 -0.13443
 N190 N -0.16693 0.35365 -0.11354
 N191 N -0.18383 0.32322 -0.13087
 C192 C -0.18547 0.27565 -0.18479
 C193 C -0.19327 0.24373 -0.19573
 C194 C -0.11508 0.40157 -0.11274
 C195 C -0.09286 0.42193 -0.09336
 C196 C 0.15629 0.70039 -0.13278
 N197 N 0.16308 0.69078 -0.09209
 N198 N 0.15237 0.65660 -0.07728
 C199 C 0.13474 0.63085 -0.10277
 N200 N 0.12839 0.64032 -0.14359
 N201 N 0.13908 0.67451 -0.15840
 C202 C 0.16171 0.73909 -0.14670
 C203 C 0.16421 0.77228 -0.15666
 C204 C 0.11519 0.59805 -0.08511
 C205 C 0.09446 0.57324 -0.07040
 C206 C -0.16176 0.67879 0.14881
 N207 N -0.16887 0.66980 0.10827
 N208 N -0.15332 0.63842 0.09213
 C209 C -0.13024 0.61496 0.11601
 N210 N -0.12356 0.62371 0.15669
 N211 N -0.13911 0.65509 0.17285
 C212 C -0.17167 0.71598 0.16363
 C213 C -0.17681 0.74830 0.17472
 C214 C -0.10631 0.58658 0.09641
 C215 C -0.08292 0.56618 0.07919
 C216 C 1.16256 0.14868 0.68987
 N217 N 1.17965 0.11548 0.67846
 N218 N 1.16645 0.09692 0.64497
 C219 C 1.13580 0.11106 0.62174
 N220 N 1.11895 0.14445 0.63294
 N221 N 1.13213 0.16299 0.66645
 C222 C 1.17277 0.16531 0.72930
 C223 C 1.18038 0.17689 0.76386
 C224 C 1.11697 0.08807 0.59048
 C225 C 1.09820 0.06823 0.56692
 C226 C 0.85287 -0.13086 0.73547
 N227 N 0.88662 -0.14404 0.71770
 N228 N 0.90227 -0.12617 0.68458
 C229 C 0.88466 -0.09453 0.66829
 N230 N 0.85087 -0.08140 0.68600
 N231 N 0.83522 -0.09927 0.71913
 C232 C 0.83754 -0.14874 0.77268
 C233 C 0.82596 -0.16336 0.80476
 C234 C 0.90240 -0.07426 0.63382
 C235 C 0.91724 -0.05651 0.60534
 C236 C 1.17200 -0.16114 0.29160
 N237 N 1.18351 -0.12447 0.29733
 N238 N 1.16146 -0.10121 0.32020
 C239 C 1.12723 -0.11391 0.33801
 N240 N 1.11574 -0.15057 0.33227
 N241 N 1.13778 -0.17383 0.30942
 C242 C 1.19549 -0.18616 0.26668
 C243 C 1.21498 -0.20734 0.24559
 C244 C 1.10323 -0.08888 0.36238
 C245 C 1.08262 -0.06821 0.38280
 C246 C 0.84446 0.14166 0.26651
 N247 N 0.87575 0.15452 0.28948
 N248 N 0.89223 0.13242 0.31903
 C249 C 0.87799 0.09676 0.32642
 N250 N 0.84665 0.08392 0.30350
 N251 N 0.83017 0.10602 0.27394
 C252 C 0.82815 0.16461 0.23318
 C253 C 0.81520 0.18326 0.20419
 C254 C 0.89644 0.07268 0.35747
 C255 C 0.91234 0.05268 0.38351
 C256 C 0.13986 0.28302 -0.15891
 N257 N 0.15439 0.29944 -0.12374
 N258 N 0.13534 0.32847 -0.10651
 C259 C 0.10107 0.34185 -0.12386
 N260 N 0.08659 0.32551 -0.15910
 N261 N 0.10565 0.29648 -0.17632
 C262 C 0.15834 0.24955 -0.17505
 C263 C 0.17301 0.22026 -0.18672
 C264 C 0.07927 0.37164 -0.10409
 C265 C 0.06012 0.39614 -0.08760
 C266 C -0.15485 0.30736 0.16309
 N267 N -0.17141 0.33400 0.13731
 N268 N -0.15118 0.36546 0.12697
 C269 C -0.11380 0.37132 0.14210
 N270 N -0.09742 0.34486 0.16822
 N271 N -0.11765 0.31342 0.17860
 C272 C -0.17335 0.27066 0.16821
 C273 C -0.18631 0.23857 0.17050
 C274 C -0.08938 0.40083 0.12406
 C275 C -0.06878 0.42314 0.10494
 C276 C -0.14346 0.71463 -0.13766
 N277 N -0.15549 0.69357 -0.10414
 N278 N -0.13664 0.66147 -0.09364
 C279 C -0.10522 0.64947 -0.11635
 N280 N -0.09334 0.67041 -0.15002
 N281 N -0.11220 0.70250 -0.16052
 C282 C -0.16049 0.75133 -0.14591
 C283 C -0.17305 0.78307 -0.15174
 C284 C -0.08194 0.61776 -0.10191
 C285 C -0.06129 0.59258 -0.08802
 C286 C 0.16740 0.69491 0.16428
 N287 N 0.13208 0.68454 0.18148
 N288 N 0.10815 0.65987 0.16217
 C289 C 0.11887 0.64477 0.12508
 N290 N 0.15421 0.65513 0.10789
 N291 N 0.17813 0.67979 0.12720
 C292 C 0.19282 0.72191 0.18488
 C293 C 0.21371 0.74473 0.20269
 C294 C 0.09257 0.61918 0.10353
 C295 C 0.07050 0.59832 0.08456
 C296 C 0.29738 1.16481 0.84140
 N297 N 0.30869 1.17405 0.88081
 N298 N 0.34138 1.15889 0.89794
 C299 C 0.36380 1.13408 0.87615
 N300 N 0.35273 1.12517 0.83657
 N301 N 0.32004 1.14034 0.81943
 C302 C 0.25883 1.17558 0.82594
 C303 C 0.22529 1.18210 0.81421
 C304 C 0.39389 1.11218 0.89730
 C305 C 0.41626 1.09139 0.91624
 C306 C 0.31242 0.82652 1.15143
 N307 N 0.35200 0.82484 1.16014
 N308 N 0.37766 0.84694 1.13927
 C309 C 0.36455 0.87136 1.10897
 N310 N 0.32498 0.87294 1.10015
 N311 N 0.29932 0.85083 1.12102
 C312 C 0.28454 0.80498 1.17622
 C313 C 0.26120 0.78775 1.19811
 C314 C 0.39160 0.89794 1.08960
 C315 C 0.41373 0.92173 1.07504
 C316 C 0.69105 1.17588 1.14169
 N317 N 0.67839 1.18062 1.10155
 N318 N 0.64602 1.16241 1.08779
 C319 C 0.62522 1.13890 1.11374
 N320 N 0.63760 1.13454 1.15403
 N321 N 0.66997 1.15275 1.16778
 C322 C 0.72995 1.18903 1.15392
 C323 C 0.76400 1.19680 1.16297
 C324 C 0.59620 1.11313 1.09671
 C325 C 0.57535 1.08887 1.08144
 C326 C 0.70138 0.84244 0.87629
 N327 N 0.67615 0.86153 0.85023
 N328 N 0.64220 0.87568 0.86465
 C329 C 0.63233 0.87107 0.90551
 N330 N 0.65739 0.85166 0.93147
 N331 N 0.69134 0.83749 0.91706
 C332 C 0.74054 0.83254 0.86255
 C333 C 0.77441 0.82619 0.85248
 C334 C 0.60032 0.89277 0.92252
 C335 C 0.57630 0.91432 0.93682
   
