data_POSCAR
  _audit_creation_date              2014-09-24
  _audit_creation_method            'ToBaCCo'
  _symmetry_space_group_name_H-M    'P1'
  _symmetry_Int_Tables_number       1
  _symmetry_cell_setting            triclinic
  loop_
  _symmetry_equiv_pos_as_xyz
 x,y,z
_cell_length_a 39.7246
_cell_length_b 39.3499
_cell_length_c 39.6660
_cell_angle_alpha 89.354700
_cell_angle_beta 89.883200
_cell_angle_gamma 89.598400
loop_
  _atom_site_label
  _atom_site_type_symbol
  _atom_site_fract_x
  _atom_site_fract_y
  _atom_site_fract_z
C1 C 0.27632 0.24871 0.22128
 C2 C 0.27632 0.22331 0.24653
 C3 C 0.25141 0.22261 0.27178
 C4 C 0.22624 0.24791 0.27149
 C5 C 0.22565 0.27362 0.24659
 C6 C 0.25083 0.27369 0.22161
 H7 H 0.29581 0.20400 0.24655
 H8 H 0.20699 0.24761 0.29081
 H9 H 0.25059 0.29333 0.20232
 C10 C 0.72295 -0.24974 0.22593
 C11 C 0.72453 -0.22388 0.25017
 C12 C 0.74865 -0.22459 0.27596
 C13 C 0.77256 -0.25105 0.27682
 C14 C 0.77270 -0.27701 0.25252
 C15 C 0.74709 -0.27622 0.22783
 H16 H 0.70797 -0.20204 0.24835
 H17 H 0.79155 -0.25054 0.29619
 H18 H 0.74432 -0.29779 0.21157
 C19 C 0.72420 0.25266 0.77074
 C20 C 0.74975 0.27720 0.77085
 C21 C 0.77508 0.27812 0.74575
 C22 C 0.77390 0.25329 0.72026
 C23 C 0.74882 0.22823 0.71990
 C24 C 0.72411 0.22827 0.74523
 H25 H 0.74904 0.29608 0.79034
 H26 H 0.79302 0.25251 0.70094
 H27 H 0.70468 0.20915 0.74513
 C28 C 0.27289 -0.24990 0.78186
 C29 C 0.24718 -0.27428 0.78257
 C30 C 0.22311 -0.27624 0.75649
 C31 C 0.22531 -0.25236 0.72971
 C32 C 0.25002 -0.22696 0.72908
 C33 C 0.27384 -0.22621 0.75514
 H34 H 0.24525 -0.29064 0.80453
 H35 H 0.20886 -0.25427 0.70817
 H36 H 0.29325 -0.20708 0.75461
 C37 C 0.72751 -0.24615 0.78198
 C38 C 0.75334 -0.27077 0.78266
 C39 C 0.77750 -0.27295 0.75656
 C40 C 0.77529 -0.24902 0.72981
 C41 C 0.75052 -0.22334 0.72926
 C42 C 0.72661 -0.22236 0.75534
 H43 H 0.75525 -0.28721 0.80458
 H44 H 0.79179 -0.25113 0.70824
 H45 H 0.70713 -0.20304 0.75486
 C46 C 0.27861 0.25079 0.76919
 C47 C 0.25178 0.27428 0.77032
 C48 C 0.22527 0.27310 0.74690
 C49 C 0.22559 0.24746 0.72250
 C50 C 0.25243 0.22413 0.72043
 C51 C 0.27896 0.22630 0.74365
 H52 H 0.25149 0.29354 0.78954
 H53 H 0.20450 0.24521 0.70546
 H54 H 0.30028 0.20918 0.74147
 C55 C 0.27800 -0.25465 0.22886
 C56 C 0.27742 -0.23005 0.25456
 C57 C 0.25069 -0.22786 0.27768
 C58 C 0.22429 -0.25119 0.27564
 C59 C 0.22469 -0.27703 0.25155
 C60 C 0.25147 -0.27845 0.22830
 H61 H 0.29851 -0.21324 0.25791
 H62 H 0.20302 -0.24884 0.29258
 H63 H 0.25078 -0.29780 0.20929
 C64 C 0.72358 0.25134 0.22076
 C65 C 0.72367 0.22607 0.24613
 C66 C 0.74828 0.22551 0.27155
 C67 C 0.77305 0.25085 0.27137
 C68 C 0.77352 0.27647 0.24639
 C69 C 0.74865 0.27641 0.22120
 H70 H 0.70449 0.20671 0.24608
 H71 H 0.79208 0.25061 0.29082
 H72 H 0.74881 0.29596 0.20183
 O73 O 0.28022 0.03087 0.46740
 O74 O 0.28016 -0.03702 0.53210
 O75 O 0.27980 -0.03533 0.46651
 O76 O 0.28024 0.02926 0.53299
 O77 O 0.22478 0.03186 0.53116
 O78 O 0.22432 -0.03674 0.46884
 O79 O 0.22468 -0.03424 0.53444
 O80 O 0.22471 0.02924 0.46552
 Cu81 Cu 0.28569 -0.00311 0.49974
 Cu82 Cu 0.21904 -0.00240 0.50004
 C83 C 0.25247 0.04124 0.45501
 C84 C 0.25240 -0.04688 0.54466
 C85 C 0.25198 -0.04741 0.45662
 C86 C 0.25257 0.04198 0.54309
 O87 O 0.72024 0.03378 0.53164
 O88 O 0.72054 -0.03299 0.46730
 O89 O 0.72026 -0.03279 0.53270
 O90 O 0.72013 0.03342 0.46638
 O91 O 0.77573 0.03287 0.46601
 O92 O 0.77585 -0.03270 0.53291
 O93 O 0.77612 -0.03284 0.46693
 O94 O 0.77583 0.03316 0.53193
 Cu95 Cu 0.71471 0.00035 0.49954
 Cu96 Cu 0.78146 0.00008 0.49947
 C97 C 0.74800 0.04484 0.54276
 C98 C 0.74839 -0.04415 0.45598
 C99 C 0.74808 -0.04398 0.54418
 C100 C 0.74790 0.04435 0.45480
 O101 O 0.46712 0.27969 0.02860
 O102 O 0.53264 0.28023 -0.03723
 O103 O 0.46750 0.28029 -0.03745
 O104 O 0.53236 0.28010 0.02872
 O105 O 0.53322 0.22398 0.02874
 O106 O 0.46780 0.22418 -0.03690
 O107 O 0.53355 0.22411 -0.03651
 O108 O 0.46732 0.22358 0.02850
 Cu109 Cu 0.49983 0.28571 -0.00435
 Cu110 Cu 0.50049 0.21833 -0.00398
 C111 C 0.45601 0.25152 0.03974
 C112 C 0.54430 0.25225 -0.04805
 C113 C 0.45663 0.25227 -0.04852
 C114 C 0.54394 0.25202 0.03993
 O115 O 0.53389 0.72308 0.03502
 O116 O 0.46742 0.72321 -0.02955
 O117 O 0.53264 0.72446 -0.03059
 O118 O 0.46843 0.72132 0.03637
 O119 O 0.46604 0.77737 0.03641
 O120 O 0.53203 0.78051 -0.02889
 O121 O 0.46597 0.77930 -0.02889
 O122 O 0.53142 0.77906 0.03666
 Cu123 Cu 0.50072 0.71739 0.00274
 Cu124 Cu 0.49873 0.78470 0.00381
 C125 C 0.54392 0.75105 0.04702
 C126 C 0.45535 0.75130 -0.04025
 C127 C 0.54354 0.75298 -0.04095
 C128 C 0.45614 0.74881 0.04773
 O129 O 0.03262 0.46588 0.27627
 O130 O -0.03355 0.53173 0.27761
 O131 O -0.03332 0.46600 0.27643
 O132 O 0.03222 0.53169 0.27684
 O133 O 0.03152 0.53347 0.22120
 O134 O -0.03306 0.46683 0.22075
 O135 O -0.03382 0.53314 0.22196
 O136 O 0.03217 0.46694 0.22060
 Cu137 Cu -0.00046 0.49867 0.28237
 Cu138 Cu -0.00079 0.50025 0.21554
 C139 C 0.04368 0.45516 0.24824
 C140 C -0.04505 0.54365 0.25003
 C141 C -0.04437 0.45522 0.24851
 C142 C 0.04298 0.54387 0.24909
 O143 O 0.03313 0.53421 0.72621
 O144 O -0.03262 0.46889 0.72347
 O145 O -0.03216 0.53489 0.72616
 O146 O 0.03325 0.46818 0.72395
 O147 O 0.03237 0.46486 0.77953
 O148 O -0.03264 0.53196 0.78172
 O149 O -0.03269 0.46579 0.77906
 O150 O 0.03319 0.53114 0.78177
 Cu151 Cu 0.00044 0.50176 0.71937
 Cu152 Cu 0.00004 0.49825 0.78611
 C153 C 0.04440 0.54390 0.75443
 C154 C -0.04386 0.45613 0.75078
 C155 C -0.04358 0.54488 0.75432
 C156 C 0.04387 0.45502 0.75136
 C157 C 0.35318 0.25000 0.14368
 C158 C 0.34136 0.21908 0.15719
 C159 C 0.31632 0.21865 0.18198
 C160 C 0.30287 0.24914 0.19460
 C161 C 0.31500 0.28007 0.18141
 C162 C 0.33948 0.28049 0.15607
 C163 C 0.37960 0.25045 0.11684
 C164 C 0.40299 0.27715 0.11469
 C165 C 0.42748 0.27773 0.08934
 C166 C 0.42973 0.25123 0.06607
 C167 C 0.40678 0.22437 0.06826
 C168 C 0.38174 0.22418 0.09307
 H169 H 0.30732 0.19429 0.19099
 H170 H 0.30581 0.30413 0.19081
 H171 H 0.44515 0.29856 0.08837
 H172 H 0.40781 0.20380 0.05037
 H173 H 0.34736 0.30485 0.14602
 H174 H 0.40281 0.29743 0.13288
 H175 H 0.35160 0.19503 0.14889
 H176 H 0.36383 0.20360 0.09324
 C177 C 0.64715 0.75102 0.14976
 C178 C 0.64188 0.76802 0.18020
 C179 C 0.66663 0.76781 0.20518
 C180 C 0.69769 0.75068 0.20043
 C181 C 0.70271 0.73388 0.16944
 C182 C 0.67779 0.73397 0.14465
 C183 C 0.62073 0.75103 0.12341
 C184 C 0.61285 0.72099 0.10643
 C185 C 0.58782 0.72094 0.08171
 C186 C 0.57035 0.75103 0.07326
 C187 C 0.57836 0.78111 0.09017
 C188 C 0.60319 0.78108 0.11508
 H189 H 0.66041 0.77998 0.22870
 H190 H 0.72636 0.72162 0.16337
 H191 H 0.58224 0.69736 0.06915
 H192 H 0.56536 0.80470 0.08425
 H193 H 0.68278 0.72123 0.12108
 H194 H 0.62575 0.69740 0.11259
 H195 H 0.61819 0.78088 0.18504
 H196 H 0.60899 0.80466 0.12755
 C197 C 0.64711 0.25250 -0.15194
 C198 C 0.65943 0.22182 -0.16526
 C199 C 0.68454 0.22186 -0.18999
 C200 C 0.69755 0.25260 -0.20269
 C201 C 0.68489 0.28328 -0.18975
 C202 C 0.66035 0.28323 -0.16447
 C203 C 0.62066 0.25246 -0.12516
 C204 C 0.59681 0.27904 -0.12326
 C205 C 0.57233 0.27921 -0.09791
 C206 C 0.57056 0.25240 -0.07439
 C207 C 0.59397 0.22564 -0.07633
 C208 C 0.61899 0.22587 -0.10115
 H209 H 0.69393 0.19768 -0.19889
 H210 H 0.69372 0.30752 -0.19928
 H211 H 0.55429 0.29996 -0.09713
 H212 H 0.59331 0.20483 -0.05824
 H213 H 0.65205 0.30740 -0.15459
 H214 H 0.59664 0.29957 -0.14164
 H215 H 0.64954 0.19761 -0.15684
 H216 H 0.63727 0.20535 -0.10115
 C217 C 0.34981 0.75105 -0.14099
 C218 C 0.33807 0.78158 -0.15573
 C219 C 0.31275 0.78138 -0.18015
 C220 C 0.29891 0.75059 -0.19106
 C221 C 0.31064 0.72008 -0.17632
 C222 C 0.33545 0.72032 -0.15142
 C223 C 0.37701 0.75119 -0.11510
 C224 C 0.40039 0.72418 -0.11279
 C225 C 0.42563 0.72410 -0.08830
 C226 C 0.42862 0.75136 -0.06605
 C227 C 0.40570 0.77858 -0.06849
 C228 C 0.37997 0.77833 -0.09247
 H229 H 0.30401 0.80547 -0.19037
 H230 H 0.30102 0.69580 -0.18433
 H231 H 0.44320 0.70295 -0.08714
 H232 H 0.40726 0.79976 -0.05138
 H233 H 0.34324 0.69631 -0.14028
 H234 H 0.39955 0.70321 -0.13017
 H235 H 0.34872 0.80575 -0.14883
 H236 H 0.36214 0.79924 -0.09288
 C237 C 0.14787 0.35130 0.24704
 C238 C 0.16128 0.33932 0.21649
 C239 C 0.18609 0.31396 0.21633
 C240 C 0.19884 0.30038 0.24672
 C241 C 0.18571 0.31263 0.27726
 C242 C 0.16034 0.33739 0.27741
 C243 C 0.12109 0.37811 0.24724
 C244 C 0.11906 0.40166 0.27367
 C245 C 0.09366 0.42640 0.27416
 C246 C 0.07023 0.42879 0.24783
 C247 C 0.07238 0.40577 0.22116
 C248 C 0.09724 0.38045 0.22106
 H249 H 0.19504 0.30486 0.19225
 H250 H 0.19520 0.30334 0.30123
 H251 H 0.09274 0.44413 0.29484
 H252 H 0.05436 0.40691 0.20070
 H253 H 0.15036 0.34535 0.30148
 H254 H 0.13733 0.40138 0.29387
 H255 H 0.15288 0.34968 0.19254
 H256 H 0.09735 0.36243 0.20066
 C257 C 0.14684 0.64778 0.75729
 C258 C 0.14206 0.67846 0.73961
 C259 C 0.16685 0.70345 0.73956
 C260 C 0.19753 0.69851 0.75707
 C261 C 0.20187 0.66750 0.77502
 C262 C 0.17688 0.64265 0.77516
 C263 C 0.12068 0.62107 0.75671
 C264 C 0.11165 0.60345 0.78635
 C265 C 0.08680 0.57845 0.78570
 C266 C 0.07071 0.57035 0.75532
 C267 C 0.07994 0.58785 0.72566
 C268 C 0.10455 0.61301 0.72638
 H269 H 0.16100 0.72711 0.72666
 H270 H 0.22512 0.66131 0.78786
 H271 H 0.08026 0.56542 0.80896
 H272 H 0.06805 0.58223 0.70185
 H273 H 0.18147 0.61894 0.78857
 H274 H 0.12348 0.60936 0.81012
 H275 H 0.11878 0.68340 0.72619
 H276 H 0.11129 0.62590 0.70309
 C277 C -0.15065 0.64600 0.25211
 C278 C -0.16884 0.65402 0.22276
 C279 C -0.19388 0.67911 0.22292
 C280 C -0.20212 0.69690 0.25267
 C281 C -0.18395 0.68817 0.28221
 C282 C -0.15858 0.66340 0.28182
 C283 C -0.12343 0.61975 0.25163
 C284 C -0.11766 0.59850 0.27984
 C285 C -0.09198 0.57405 0.27942
 C286 C -0.07184 0.56987 0.25062
 C287 C -0.07764 0.59085 0.22234
 C288 C -0.10293 0.61570 0.22294
 H289 H -0.20559 0.68518 0.19901
 H290 H -0.18964 0.69946 0.30627
 H291 H -0.08826 0.55800 0.30149
 H292 H -0.06229 0.58839 0.19989
 H293 H -0.14496 0.65813 0.30492
 H294 H -0.13328 0.60037 0.30213
 H295 H -0.16379 0.64089 0.19944
 H296 H -0.10609 0.63202 0.20101
 C297 C -0.14755 0.35331 0.74734
 C298 C -0.16498 0.34429 0.77687
 C299 C -0.19000 0.31955 0.77645
 C300 C -0.19907 0.30317 0.74623
 C301 C -0.18144 0.31267 0.71659
 C302 C -0.15605 0.33708 0.71723
 C303 C -0.12067 0.37955 0.74801
 C304 C -0.09974 0.38271 0.77637
 C305 C -0.07499 0.40773 0.77733
 C306 C -0.07014 0.42978 0.74971
 C307 C -0.09062 0.42644 0.72116
 C308 C -0.11579 0.40181 0.72042
 H309 H -0.20110 0.31274 0.80045
 H310 H -0.18770 0.30245 0.69226
 H311 H -0.05931 0.40950 0.79954
 H312 H -0.08758 0.44329 0.69960
 H313 H -0.14298 0.34308 0.69397
 H314 H -0.10215 0.36561 0.79779
 H315 H -0.15946 0.35645 0.80055
 H316 H -0.13177 0.40063 0.69841
 C317 C 0.25214 0.14451 0.34959
 C318 C 0.28245 0.15713 0.33614
 C319 C 0.28223 0.18253 0.31122
 C320 C 0.25169 0.19555 0.29845
 C321 C 0.22138 0.18259 0.31155
 C322 C 0.22160 0.15775 0.33699
 C323 C 0.25234 0.11781 0.37663
 C324 C 0.22643 0.09362 0.37878
 C325 C 0.22629 0.06902 0.40447
 C326 C 0.25247 0.06746 0.42812
 C327 C 0.27863 0.09115 0.42587
 C328 C 0.27837 0.11628 0.40069
 H329 H 0.30612 0.19216 0.30227
 H330 H 0.19732 0.19143 0.30202
 H331 H 0.20601 0.05078 0.40546
 H332 H 0.29896 0.09066 0.44403
 H333 H 0.19770 0.14925 0.34698
 H334 H 0.20637 0.09330 0.36038
 H335 H 0.30651 0.14726 0.34463
 H336 H 0.29837 0.13481 0.40048
 C337 C 0.74834 0.15040 0.64355
 C338 C 0.77885 0.16333 0.65582
 C339 C 0.77901 0.18827 0.68062
 C340 C 0.74867 0.20167 0.69331
 C341 C 0.71816 0.18917 0.68065
 C342 C 0.71800 0.16364 0.65644
 C343 C 0.74819 0.12318 0.61761
 C344 C 0.72207 0.12137 0.59374
 C345 C 0.72176 0.09561 0.56976
 C346 C 0.74797 0.07160 0.56850
 C347 C 0.77427 0.07345 0.59193
 C348 C 0.77417 0.09865 0.61647
 H349 H 0.80304 0.19669 0.69009
 H350 H 0.69426 0.19917 0.68931
 H351 H 0.70136 0.09490 0.55170
 H352 H 0.79461 0.05498 0.59166
 H353 H 0.69395 0.15407 0.64820
 H354 H 0.70202 0.14011 0.59315
 H355 H 0.80278 0.15439 0.64619
 H356 H 0.79430 0.09852 0.63481
 C357 C 0.25156 -0.15089 0.64937
 C358 C 0.22098 -0.16446 0.66112
 C359 C 0.22055 -0.18893 0.68690
 C360 C 0.25072 -0.20115 0.70123
 C361 C 0.28135 -0.18806 0.68906
 C362 C 0.28175 -0.16306 0.66374
 C363 C 0.25189 -0.12408 0.62246
 C364 C 0.27849 -0.12222 0.59899
 C365 C 0.27887 -0.09688 0.57399
 C366 C 0.25232 -0.07329 0.57140
 C367 C 0.22561 -0.07518 0.59451
 C368 C 0.22557 -0.10002 0.61997
 H369 H 0.19642 -0.19794 0.69587
 H370 H 0.30516 -0.19719 0.69896
 H371 H 0.29963 -0.09615 0.55626
 H372 H 0.20499 -0.05706 0.59327
 H373 H 0.30581 -0.15299 0.65581
 H374 H 0.29886 -0.14061 0.59953
 H375 H 0.19721 -0.15635 0.65034
 H376 H 0.20506 -0.09998 0.63796
 C377 C 0.74881 -0.14685 0.35235
 C378 C 0.71845 -0.15828 0.33839
 C379 C 0.71846 -0.18348 0.31386
 C380 C 0.74886 -0.19749 0.30198
 C381 C 0.77927 -0.18563 0.31547
 C382 C 0.77923 -0.16097 0.34056
 C383 C 0.74874 -0.12046 0.37908
 C384 C 0.77528 -0.09706 0.38148
 C385 C 0.77537 -0.07260 0.40676
 C386 C 0.74856 -0.07041 0.42973
 C387 C 0.72186 -0.09338 0.42728
 C388 C 0.72213 -0.11838 0.40253
 H389 H 0.69450 -0.19222 0.30448
 H390 H 0.80325 -0.19522 0.30658
 H391 H 0.79609 -0.05492 0.40792
 H392 H 0.70104 -0.09240 0.44493
 H393 H 0.80314 -0.15333 0.35093
 H394 H 0.79584 -0.09721 0.36355
 H395 H 0.69452 -0.14766 0.34621
 H396 H 0.70164 -0.13633 0.40213
 C397 C 0.64956 0.75472 -0.14158
 C398 C 0.66444 0.72401 -0.15199
 C399 C 0.68960 0.72381 -0.17663
 C400 C 0.70122 0.75436 -0.19109
 C401 C 0.68691 0.78515 -0.18014
 C402 C 0.66123 0.78530 -0.15598
 C403 C 0.62192 0.75472 -0.11604
 C404 C 0.61824 0.78162 -0.09315
 C405 C 0.59235 0.78141 -0.06919
 C406 C 0.57002 0.75400 -0.06709
 C407 C 0.57357 0.72713 -0.08980
 C408 C 0.59894 0.72767 -0.11423
 H409 H 0.69956 0.69954 -0.18468
 H410 H 0.69555 0.80926 -0.19015
 H411 H 0.59032 0.80231 -0.05175
 H412 H 0.55643 0.70585 -0.08894
 H413 H 0.65022 0.80946 -0.14902
 H414 H 0.63571 0.80259 -0.09324
 H415 H 0.65677 0.69996 -0.14107
 H416 H 0.60026 0.70693 -0.13188
 C417 C 0.35604 0.25197 -0.15419
 C418 C 0.34115 0.28245 -0.16584
 C419 C 0.31669 0.28219 -0.19113
 C420 C 0.30588 0.25139 -0.20500
 C421 C 0.32082 0.22094 -0.19339
 C422 C 0.34577 0.22125 -0.16865
 C423 C 0.38190 0.25214 -0.12695
 C424 C 0.38438 0.22493 -0.10368
 C425 C 0.40884 0.22486 -0.07841
 C426 C 0.43087 0.25233 -0.07527
 C427 C 0.42825 0.27975 -0.09806
 C428 C 0.40431 0.27950 -0.12384
 H429 H 0.30632 0.30625 -0.19977
 H430 H 0.31289 0.19664 -0.20301
 H431 H 0.41014 0.20354 -0.06093
 H432 H 0.44520 0.30111 -0.09637
 H433 H 0.35704 0.19729 -0.16096
 H434 H 0.36715 0.20378 -0.10462
 H435 H 0.34794 0.30661 -0.15512
 H436 H 0.40377 0.30058 -0.14158
 C437 C 0.35492 0.74539 0.15316
 C438 C 0.33690 0.71567 0.16063
 C439 C 0.31218 0.71535 0.18577
 C440 C 0.30420 0.74497 0.20416
 C441 C 0.32280 0.77464 0.19652
 C442 C 0.34777 0.77471 0.17171
 C443 C 0.38078 0.74601 0.12590
 C444 C 0.38510 0.77528 0.10568
 C445 C 0.40964 0.77618 0.08044
 C446 C 0.43011 0.74766 0.07440
 C447 C 0.42560 0.71822 0.09419
 C448 C 0.40137 0.71747 0.11981
 H449 H 0.30023 0.69130 0.19105
 H450 H 0.31743 0.79864 0.20843
 H451 H 0.41232 0.79912 0.06536
 H452 H 0.44120 0.69593 0.09024
 H453 H 0.36144 0.79800 0.16705
 H454 H 0.36924 0.79747 0.10905
 H455 H 0.34158 0.69257 0.14677
 H456 H 0.39919 0.69469 0.13519
 C457 C 0.64710 0.25177 0.14310
 C458 C 0.66024 0.28242 0.15523
 C459 C 0.68469 0.28230 0.18051
 C460 C 0.69733 0.25151 0.19389
 C461 C 0.68454 0.22087 0.18143
 C462 C 0.65953 0.22100 0.15672
 C463 C 0.62057 0.25189 0.11648
 C464 C 0.61887 0.22545 0.09289
 C465 C 0.59371 0.22529 0.06832
 C466 C 0.57018 0.25196 0.06618
 C467 C 0.57197 0.27861 0.08928
 C468 C 0.59660 0.27838 0.11440
 H469 H 0.69340 0.30646 0.18975
 H470 H 0.69398 0.19661 0.19056
 H471 H 0.59305 0.20462 0.05054
 H472 H 0.55388 0.29932 0.08833
 H473 H 0.64977 0.19684 0.14860
 H474 H 0.63723 0.20501 0.09302
 H475 H 0.65188 0.30667 0.14506
 H476 H 0.59645 0.29878 0.13246
 C477 C -0.14607 0.65017 0.75706
 C478 C -0.14131 0.68082 0.73944
 C479 C -0.16615 0.70611 0.73949
 C480 C -0.19686 0.70150 0.75705
 C481 C -0.20119 0.67049 0.77491
 C482 C -0.17615 0.64535 0.77495
 C483 C -0.11981 0.62318 0.75648
 C484 C -0.11091 0.60545 0.78612
 C485 C -0.08605 0.58012 0.78550
 C486 C -0.06980 0.57179 0.75514
 C487 C -0.07886 0.58944 0.72548
 C488 C -0.10350 0.61493 0.72617
 H489 H -0.16033 0.72973 0.72664
 H490 H -0.22446 0.66455 0.78778
 H491 H -0.07965 0.56698 0.80877
 H492 H -0.06684 0.58364 0.70168
 H493 H -0.18073 0.62166 0.78831
 H494 H -0.12287 0.61150 0.80989
 H495 H -0.11800 0.68552 0.72601
 H496 H -0.11013 0.62792 0.70288
 C497 C -0.14895 0.35328 0.24723
 C498 C -0.16209 0.34150 0.21661
 C499 C -0.18693 0.31653 0.21631
 C500 C -0.19997 0.30316 0.24663
 C501 C -0.18725 0.31535 0.27725
 C502 C -0.16184 0.33971 0.27754
 C503 C -0.12196 0.37949 0.24758
 C504 C -0.11998 0.40303 0.27400
 C505 C -0.09443 0.42724 0.27456
 C506 C -0.07079 0.42909 0.24831
 C507 C -0.07281 0.40602 0.22172
 C508 C -0.09782 0.38122 0.22156
 H509 H -0.19560 0.30749 0.19219
 H510 H -0.19701 0.30626 0.30117
 H511 H -0.09360 0.44505 0.29517
 H512 H -0.05464 0.40678 0.20132
 H513 H -0.15212 0.34755 0.30167
 H514 H -0.13844 0.40319 0.29409
 H515 H -0.15340 0.35167 0.19270
 H516 H -0.09787 0.36316 0.20119
 C517 C 0.14614 0.34924 0.74874
 C518 C 0.15718 0.33531 0.71810
 C519 C 0.18270 0.31071 0.71756
 C520 C 0.19750 0.29880 0.74768
 C521 C 0.18597 0.31219 0.77838
 C522 C 0.16091 0.33729 0.77887
 C523 C 0.11961 0.37627 0.74924
 C524 C 0.09677 0.37851 0.77633
 C525 C 0.07240 0.40428 0.77713
 C526 C 0.06978 0.42796 0.75053
 C527 C 0.09214 0.42559 0.72323
 C528 C 0.11700 0.40028 0.72275
 H529 H 0.19117 0.30144 0.69337
 H530 H 0.19621 0.30329 0.80217
 H531 H 0.05521 0.40533 0.79833
 H532 H 0.09083 0.44374 0.70253
 H533 H 0.15354 0.34765 0.80296
 H534 H 0.09737 0.36014 0.79683
 H535 H 0.14606 0.34328 0.69439
 H536 H 0.13450 0.39996 0.70181
 C537 C 0.14588 0.64758 0.25006
 C538 C 0.15695 0.66139 0.28063
 C539 C 0.18245 0.68564 0.28105
 C540 C 0.19717 0.69738 0.25085
 C541 C 0.18566 0.68410 0.22021
 C542 C 0.16063 0.65931 0.21984
 C543 C 0.11933 0.62095 0.24976
 C544 C 0.11668 0.59718 0.27643
 C545 C 0.09164 0.57243 0.27636
 C546 C 0.06913 0.57032 0.24928
 C547 C 0.07186 0.59365 0.22241
 C548 C 0.09642 0.61891 0.22281
 H549 H 0.19089 0.69484 0.30519
 H550 H 0.19583 0.69292 0.19637
 H551 H 0.09028 0.55450 0.29723
 H552 H 0.05458 0.59274 0.20136
 H553 H 0.15323 0.64905 0.19580
 H554 H 0.13426 0.59727 0.29724
 H555 H 0.14584 0.65363 0.30441
 H556 H 0.09709 0.63710 0.20216
 C557 C 0.74895 -0.14749 0.64932
 C558 C 0.71877 -0.15909 0.66395
 C559 C 0.71917 -0.18401 0.68935
 C560 C 0.74980 -0.19753 0.70139
 C561 C 0.77997 -0.18583 0.68686
 C562 C 0.77953 -0.16150 0.66096
 C563 C 0.74862 -0.12082 0.62226
 C564 C 0.77510 -0.09734 0.61936
 C565 C 0.77507 -0.07267 0.59376
 C566 C 0.74820 -0.07031 0.57096
 C567 C 0.72149 -0.09329 0.57396
 C568 C 0.72187 -0.11851 0.59907
 H569 H 0.69536 -0.19273 0.69939
 H570 H 0.80411 -0.19516 0.69573
 H571 H 0.79580 -0.05498 0.59218
 H572 H 0.70060 -0.09217 0.55646
 H573 H 0.80329 -0.15385 0.64999
 H574 H 0.79573 -0.09761 0.63713
 H575 H 0.69471 -0.14867 0.65613
 H576 H 0.70137 -0.13647 0.59991
 C577 C 0.25084 -0.15089 0.35431
 C578 C 0.23826 -0.18343 0.36147
 C579 C 0.23829 -0.20842 0.33670
 C580 C 0.25053 -0.20126 0.30409
 C581 C 0.26279 -0.16848 0.29694
 C582 C 0.26315 -0.14367 0.32184
 C583 C 0.25118 -0.12453 0.38065
 C584 C 0.28016 -0.10510 0.38600
 C585 C 0.28054 -0.08026 0.41090
 C586 C 0.25176 -0.07404 0.43061
 C587 C 0.22271 -0.09340 0.42513
 C588 C 0.22251 -0.11857 0.40055
 H589 H 0.22923 -0.23351 0.34329
 H590 H 0.27178 -0.16185 0.27195
 H591 H 0.30326 -0.06571 0.41450
 H592 H 0.20018 -0.08923 0.43997
 H593 H 0.27258 -0.11861 0.31559
 H594 H 0.30267 -0.10942 0.37115
 H595 H 0.22897 -0.18972 0.38645
 H596 H 0.19979 -0.13306 0.39673
 C597 C 0.74792 0.14762 0.34950
 C598 C 0.77838 0.16090 0.33711
 C599 C 0.77850 0.18568 0.31162
 C600 C 0.74813 0.19855 0.29829
 C601 C 0.71765 0.18550 0.31087
 C602 C 0.71755 0.16014 0.33582
 C603 C 0.74783 0.12095 0.37655
 C604 C 0.72153 0.11938 0.40039
 C605 C 0.72135 0.09423 0.42554
 C606 C 0.74786 0.07061 0.42800
 C607 C 0.77433 0.07224 0.40460
 C608 C 0.77412 0.09683 0.37891
 H609 H 0.80252 0.19454 0.30224
 H610 H 0.69371 0.19508 0.30172
 H611 H 0.70080 0.09366 0.44353
 H612 H 0.79489 0.05403 0.40577
 H613 H 0.69356 0.15024 0.34414
 H614 H 0.70124 0.13786 0.40002
 H615 H 0.80231 0.15247 0.34729
 H616 H 0.79441 0.09656 0.36068
 C617 C 0.25288 0.14655 0.64437
 C618 C 0.26559 0.13956 0.67673
 C619 C 0.26529 0.16462 0.70141
 C620 C 0.25267 0.19740 0.69415
 C621 C 0.24019 0.20436 0.66160
 C622 C 0.24010 0.17915 0.63706
 C623 C 0.25286 0.11985 0.61835
 C624 C 0.22394 0.11413 0.59898
 C625 C 0.22377 0.08869 0.57467
 C626 C 0.25269 0.06878 0.56894
 C627 C 0.28171 0.07471 0.58816
 C628 C 0.28171 0.09984 0.61279
 H629 H 0.27449 0.15813 0.72635
 H630 H 0.23086 0.22945 0.65490
 H631 H 0.20106 0.08476 0.56022
 H632 H 0.30435 0.05974 0.58435
 H633 H 0.23053 0.18527 0.61216
 H634 H 0.20130 0.12905 0.60298
 H635 H 0.27520 0.11448 0.68310
 H636 H 0.30439 0.10394 0.62724
   
