data_POSCAR
  _audit_creation_date              2014-09-24
  _audit_creation_method            'ToBaCCo'
  _symmetry_space_group_name_H-M    'P1'
  _symmetry_Int_Tables_number       1
  _symmetry_cell_setting            triclinic
  loop_
  _symmetry_equiv_pos_as_xyz
 x,y,z
_cell_length_a 26.2395
_cell_length_b 24.6266
_cell_length_c 25.2159
_cell_angle_alpha 89.529200
_cell_angle_beta 90.599900
_cell_angle_gamma 92.048800
loop_
  _atom_site_label
  _atom_site_type_symbol
  _atom_site_fract_x
  _atom_site_fract_y
  _atom_site_fract_z
C1 C 0.31980 0.27270 0.21930
 H2 H 0.34039 0.24870 0.24781
 C3 C 0.34685 0.30741 0.18460
 H4 H 0.38813 0.30938 0.18632
 C5 C 0.24121 0.30244 0.18440
 H6 H 0.19997 0.30077 0.18521
 C7 C 0.26667 0.33857 0.15011
 H8 H 0.24481 0.36431 0.12407
 N9 N 0.26787 0.27135 0.21895
 C10 C 0.15697 0.27071 0.34650
 H11 H 0.14334 0.22890 0.35025
 C12 C 0.13261 0.31159 0.37406
 H13 H 0.09986 0.30088 0.39822
 C14 C 0.21573 0.33558 0.31021
 H15 H 0.24871 0.34513 0.28620
 C16 C 0.19309 0.37723 0.33724
 H17 H 0.20950 0.41794 0.33332
 Zn18 Zn 0.22806 0.23176 0.26942
 N19 N 0.19654 0.28367 0.31355
 C20 C 0.26695 0.18848 0.36526
 N21 N 0.26980 0.18615 0.31150
 C22 C 0.30253 0.15244 0.28775
 C23 C 0.33408 0.11967 0.31820
 C24 C 0.29741 0.15597 0.39720
 C25 C 0.12779 0.19710 0.23453
 C26 C 0.09260 0.16614 0.20443
 C27 C 0.16257 0.12042 0.16526
 C28 C 0.19633 0.15204 0.19620
 N29 N 0.17868 0.18908 0.23059
 H30 H 0.24121 0.21574 0.38362
 H31 H 0.30533 0.15187 0.24511
 H32 H 0.35990 0.09334 0.29844
 H33 H 0.29484 0.15910 0.43986
 H34 H 0.11418 0.22830 0.25995
 H35 H 0.05245 0.17387 0.20781
 H36 H 0.17777 0.09102 0.13856
 H37 H 0.23677 0.14757 0.19188
 C38 C 0.14987 0.36598 0.36830
 C39 C 0.32008 0.34181 0.15052
 C40 C 0.10988 0.12714 0.16921
 C41 C 0.33162 0.12108 0.37369
 C42 C 0.84587 0.73303 0.15503
 H43 H 0.84599 0.69096 0.16720
 C44 C 0.88077 0.75220 0.11718
 H45 H 0.90757 0.72395 0.10220
 C46 C 0.81014 0.81952 0.16001
 H47 H 0.78154 0.84548 0.17517
 C48 C 0.84475 0.84067 0.12296
 H49 H 0.84176 0.88276 0.11127
 N50 N 0.81202 0.76689 0.17646
 C51 C 0.67630 0.79522 0.25533
 H52 H 0.65643 0.75975 0.23937
 C53 C 0.64834 0.83680 0.27674
 H54 H 0.60711 0.83284 0.27741
 C55 C 0.75385 0.84353 0.27502
 H56 H 0.79511 0.84538 0.27506
 C57 C 0.72734 0.88664 0.29550
 H58 H 0.74840 0.92141 0.31169
 Zn59 Zn 0.76623 0.74032 0.22972
 N60 N 0.72818 0.79883 0.25556
 C61 C 0.80055 0.73021 0.33658
 N62 N 0.80222 0.70810 0.28734
 C63 C 0.82634 0.66089 0.27933
 C64 C 0.85100 0.63490 0.32134
 C65 C 0.82448 0.70548 0.37968
 C66 C 0.71618 0.67960 0.14760
 C67 C 0.68004 0.64195 0.12723
 C68 C 0.65593 0.61836 0.21695
 C69 C 0.69252 0.65620 0.23554
 N70 N 0.72104 0.68658 0.20090
 H71 H 0.78006 0.76670 0.34300
 H72 H 0.82524 0.64238 0.24067
 H73 H 0.86942 0.59711 0.31403
 H74 H 0.82299 0.72439 0.41817
 H75 H 0.73929 0.70429 0.12082
 H76 H 0.67550 0.63824 0.08469
 H77 H 0.63331 0.59514 0.24536
 H78 H 0.69748 0.66236 0.27774
 C79 C 0.67399 0.88305 0.29722
 C80 C 0.88132 0.80716 0.10103
 C81 C 0.64862 0.61157 0.16213
 C82 C 0.85016 0.65715 0.37241
 C83 C 0.83018 0.32205 0.75603
 H84 H 0.82767 0.31695 0.79859
 C85 C 0.86798 0.35662 0.73439
 H86 H 0.89428 0.37801 0.76087
 C87 C 0.79974 0.29867 0.67015
 H88 H 0.77323 0.27567 0.64524
 C89 C 0.83713 0.33266 0.64679
 H90 H 0.83832 0.33619 0.60401
 N91 N 0.79656 0.29455 0.72389
 C92 C 0.65518 0.25639 0.80650
 H93 H 0.65048 0.21468 0.79373
 C94 C 0.61600 0.28040 0.83358
 H95 H 0.58129 0.25679 0.84159
 C96 C 0.70623 0.33761 0.81130
 H97 H 0.74118 0.35994 0.80184
 C98 C 0.66817 0.36298 0.83967
 H99 H 0.67398 0.40487 0.85172
 Zn100 Zn 0.74705 0.24700 0.75541
 N101 N 0.69902 0.28515 0.79538
 C102 C 0.76442 0.19121 0.85156
 N103 N 0.78069 0.19797 0.80090
 C104 C 0.82193 0.17196 0.78319
 C105 C 0.84864 0.13758 0.81706
 C106 C 0.78955 0.15693 0.88658
 C107 C 0.67267 0.23757 0.67678
 C108 C 0.63818 0.21130 0.64234
 C109 C 0.68199 0.12782 0.65751
 C110 C 0.71491 0.15542 0.69289
 N111 N 0.70935 0.20923 0.70212
 H112 H 0.73211 0.21283 0.86533
 H113 H 0.83441 0.17844 0.74279
 H114 H 0.88118 0.11766 0.80133
 H115 H 0.77535 0.15363 0.92653
 H116 H 0.66899 0.28027 0.68507
 H117 H 0.60828 0.23412 0.62366
 H118 H 0.68600 0.08473 0.65130
 H119 H 0.74396 0.13355 0.71388
 C120 C 0.62213 0.33436 0.85030
 C121 C 0.87153 0.36268 0.67905
 C122 C 0.64233 0.15568 0.63292
 C123 C 0.83276 0.12952 0.86996
 C124 C 0.38374 0.78328 0.71024
 H125 H 0.39401 0.75863 0.74404
 C126 C 0.42146 0.80074 0.67484
 H127 H 0.46051 0.78978 0.68216
 C128 C 0.32065 0.82722 0.65939
 H129 H 0.28101 0.83614 0.65286
 C130 C 0.35737 0.84640 0.62347
 H131 H 0.34579 0.87045 0.58959
 N132 N 0.33444 0.79686 0.70219
 C133 C 0.22768 0.81738 0.83061
 H134 H 0.23035 0.77742 0.84825
 C135 C 0.19702 0.85526 0.85402
 H136 H 0.17595 0.84316 0.88902
 C137 C 0.25130 0.88025 0.76301
 H138 H 0.27238 0.89009 0.72757
 C139 C 0.22093 0.91952 0.78512
 H140 H 0.21943 0.95899 0.76617
 Zn141 Zn 0.28476 0.77119 0.75134
 N142 N 0.25269 0.82961 0.78488
 C143 C 0.34246 0.75560 0.84388
 N144 N 0.31686 0.72922 0.80404
 C145 C 0.31534 0.67409 0.80099
 C146 C 0.34043 0.64317 0.83920
 C147 C 0.36747 0.72629 0.88325
 C148 C 0.23668 0.71551 0.66415
 C149 C 0.19652 0.68694 0.63866
 C150 C 0.15126 0.68327 0.72155
 C151 C 0.19235 0.71119 0.74550
 N152 N 0.23349 0.72790 0.71651
 H153 H 0.34354 0.79953 0.84488
 H154 H 0.29510 0.65414 0.76860
 H155 H 0.33876 0.59932 0.83630
 H156 H 0.38796 0.74810 0.91437
 H157 H 0.27005 0.72817 0.64190
 H158 H 0.19916 0.67839 0.59675
 H159 H 0.11877 0.67087 0.74544
 H160 H 0.19097 0.72010 0.78724
 C161 C 0.19196 0.90665 0.83033
 C162 C 0.40843 0.83293 0.63102
 C163 C 0.15270 0.67153 0.66732
 C164 C 0.36673 0.66935 0.88109
 C165 C 0.04662 -0.01851 -0.06668
 C166 C 0.06513 0.01118 -0.01634
 C167 C 0.02896 0.01587 0.02160
 C168 C -0.02288 -0.01047 0.00589
 C169 C 0.02639 -0.07115 -0.04873
 C170 C -0.01121 -0.06919 -0.00871
 C171 C 0.00275 0.01085 -0.08569
 C172 C -0.03627 0.01670 -0.04735
 H173 H 0.10346 0.02850 -0.01241
 H174 H -0.05196 -0.00753 0.03674
 H175 H 0.03738 -0.10876 -0.06649
 H176 H -0.00149 0.02457 -0.12620
 C177 C 0.03934 0.48699 0.48005
 C178 C 0.06803 0.52895 0.51508
 C179 C 0.03789 0.55533 0.54926
 C180 C -0.01858 0.53733 0.54491
 C181 C 0.01110 0.44867 0.51941
 C182 C -0.01880 0.47557 0.55375
 C183 C -0.00278 0.51861 0.45262
 C184 C -0.03305 0.54542 0.48622
 H185 H 0.10903 0.53527 0.51398
 H186 H -0.04381 0.55781 0.57255
 H187 H 0.01751 0.40564 0.52300
 H188 H -0.00744 0.51984 0.40994
 C189 C 0.56045 -0.02156 0.42365
 C190 C 0.58364 0.01830 0.46452
 C191 C 0.55143 0.03002 0.50435
 C192 C 0.49936 -0.00013 0.50071
 C193 C 0.54381 -0.07150 0.45688
 C194 C 0.51186 -0.06034 0.49702
 C195 C 0.51054 0.00383 0.40533
 C196 C 0.47835 0.01489 0.44569
 H197 H 0.62142 0.03708 0.46118
 H198 H 0.47432 0.00886 0.53435
 H199 H 0.55687 -0.11196 0.45015
 H200 H 0.50178 0.01211 0.36406
 C201 C 0.51073 0.44474 -0.03009
 C202 C 0.54873 0.47101 0.00989
 C203 C 0.52603 0.50295 0.04601
 C204 C 0.46821 0.50682 0.03816
 C205 C 0.47033 0.41518 0.00444
 C206 C 0.44757 0.44796 0.03942
 C207 C 0.48315 0.49262 -0.05524
 C208 C 0.46127 0.52541 -0.01951
 H209 H 0.58895 0.46284 0.01157
 H210 H 0.45000 0.53300 0.06751
 H211 H 0.45870 0.37288 -0.00067
 H212 H 0.48264 0.50061 -0.09753
 N213 N 0.09551 0.00500 -0.15164
 N214 N 0.13423 -0.01434 -0.17783
 C215 C 0.15397 -0.05550 -0.14955
 C216 C 0.12704 -0.06155 -0.10280
 C217 C 0.08941 -0.02362 -0.10614
 H218 H 0.13182 -0.09142 -0.07164
 H219 H 0.07351 0.03661 -0.16571
 H220 H 0.14499 -0.00086 -0.21557
 N221 N 0.09897 0.49413 0.40378
 N222 N 0.12771 0.46341 0.37488
 C223 C 0.12271 0.41156 0.39222
 C224 C 0.08840 0.40939 0.43416
 C225 C 0.07447 0.46299 0.44022
 H226 H 0.07607 0.37420 0.45722
 H227 H 0.09614 0.53604 0.39845
 H228 H 0.14950 0.47830 0.34320
 N229 N 0.62894 0.00371 0.35706
 N230 N 0.65921 -0.02126 0.32431
 C231 C 0.64554 -0.07449 0.32367
 C232 C 0.60484 -0.08376 0.35727
 C233 C 0.59603 -0.03330 0.37873
 H234 H 0.58658 -0.12260 0.36689
 H235 H 0.63213 0.04510 0.36568
 H236 H 0.68928 -0.00217 0.30375
 N237 N 0.50140 0.37810 -0.10434
 N238 N 0.53002 0.34922 -0.13528
 C239 C 0.57941 0.36041 -0.12337
 C240 C 0.58236 0.39827 -0.08278
 C241 C 0.53172 0.40795 -0.07146
 H242 H 0.61642 0.41535 -0.06391
 H243 H 0.46157 0.37709 -0.10563
 H244 H 0.51567 0.32275 -0.16441
 N245 N -0.11822 0.05106 -0.02136
 N246 N -0.15517 0.08309 -0.04462
 C247 C -0.14029 0.09597 -0.09447
 C248 C -0.09387 0.07201 -0.10370
 C249 C -0.08114 0.04475 -0.05712
 H250 H -0.07121 0.07537 -0.13915
 H251 H -0.12027 0.03599 0.01735
 H252 H -0.18827 0.09364 -0.02528
 N253 N -0.10522 0.60815 0.49909
 N254 N -0.13556 0.63766 0.46928
 C255 C -0.12454 0.63001 0.41781
 C256 C -0.08547 0.59376 0.41496
 C257 C -0.07406 0.58094 0.46738
 H258 H -0.06702 0.57998 0.37964
 H259 H -0.10622 0.60729 0.54043
 H260 H -0.16353 0.66216 0.48442
 N261 N 0.39289 0.04346 0.47586
 N262 N 0.35461 0.07153 0.45716
 C263 C 0.36491 0.08704 0.40692
 C264 C 0.41190 0.06754 0.39299
 C265 C 0.42861 0.04049 0.43803
 H266 H 0.43199 0.07408 0.35611
 H267 H 0.39389 0.02672 0.51398
 H268 H 0.32196 0.07937 0.47871
 N269 N 0.42678 0.61658 -0.00152
 N270 N 0.40226 0.65451 -0.02764
 C271 C 0.39340 0.63767 -0.07774
 C272 C 0.41345 0.58677 -0.08375
 C273 C 0.43435 0.57492 -0.03449
 H274 H 0.41315 0.56203 -0.11902
 H275 H 0.43866 0.62000 0.03798
 H276 H 0.39144 0.69093 -0.01090
 N277 N -0.02092 -0.16714 0.00457
 N278 N -0.05084 -0.20216 0.03601
 C279 C -0.08262 -0.17186 0.06424
 C280 C -0.07321 -0.11720 0.05138
 C281 C -0.03437 -0.11586 0.01432
 H282 H -0.09156 -0.08263 0.06771
 H283 H 0.00751 -0.17999 -0.02057
 H284 H -0.04853 -0.24434 0.03548
 N285 N -0.04269 0.47526 0.64854
 N286 N -0.07118 0.44585 0.68151
 C287 C -0.09060 0.40193 0.65570
 C288 C -0.07282 0.40332 0.60377
 C289 C -0.04277 0.45071 0.60106
 H290 H -0.08221 0.37547 0.57187
 H291 H -0.02423 0.51213 0.65839
 H292 H -0.07869 0.45736 0.72033
 N293 N 0.51668 -0.14845 0.54616
 N294 N 0.48974 -0.17622 0.58179
 C295 C 0.44794 -0.14845 0.59316
 C296 C 0.44849 -0.10067 0.56372
 C297 C 0.49277 -0.10225 0.53453
 H298 H 0.42068 -0.06927 0.56364
 H299 H 0.55116 -0.16089 0.53088
 H300 H 0.49973 -0.21386 0.59731
 N301 N 0.36460 0.46259 0.08267
 N302 N 0.33051 0.43435 0.11066
 C303 C 0.34722 0.38377 0.11841
 C304 C 0.39393 0.37941 0.09382
 C305 C 0.40342 0.43039 0.07155
 H306 H 0.41764 0.34439 0.09251
 H307 H 0.36075 0.50299 0.07084
 H308 H 0.29690 0.45003 0.12498
 N309 N 0.00228 0.05723 0.10724
 N310 N 0.02342 0.08663 0.14576
 C311 C 0.07349 0.09478 0.13572
 C312 C 0.08453 0.06922 0.08864
 C313 C 0.03835 0.04598 0.07163
 H314 H 0.12088 0.06879 0.06889
 H315 H -0.03642 0.04605 0.10562
 H316 H 0.00351 0.10045 0.17834
 N317 N 0.02957 0.61777 0.62642
 N318 N 0.05976 0.64761 0.65763
 C319 C 0.10820 0.64423 0.64113
 C320 C 0.10878 0.61081 0.59720
 C321 C 0.05807 0.59441 0.58932
 H322 H 0.14172 0.59897 0.57523
 H323 H -0.00978 0.61360 0.63138
 H324 H 0.04694 0.67014 0.68943
 N325 N 0.52959 0.10302 0.56694
 N326 N 0.55364 0.13695 0.59975
 C327 C 0.60374 0.12664 0.59984
 C328 C 0.61206 0.08453 0.56525
 C329 C 0.56399 0.07090 0.54510
 H330 H 0.64793 0.06670 0.55582
 H331 H 0.49044 0.10289 0.55896
 H332 H 0.53576 0.16617 0.62206
 N333 N 0.53109 0.53598 0.13868
 N334 N 0.56329 0.56398 0.16934
 C335 C 0.60625 0.57574 0.14200
 C336 C 0.60118 0.55343 0.09161
 C337 C 0.55283 0.52885 0.09127
 H338 H 0.62774 0.55659 0.05910
 H339 H 0.49456 0.52268 0.15011
 H340 H 0.55467 0.57654 0.20755
   
