data_POSCAR
  _audit_creation_date              2014-09-24
  _audit_creation_method            'ToBaCCo'
  _symmetry_space_group_name_H-M    'P1'
  _symmetry_Int_Tables_number       1
  _symmetry_cell_setting            triclinic
  loop_
  _symmetry_equiv_pos_as_xyz
 x,y,z
_cell_length_a 50.5474
_cell_length_b 50.9105
_cell_length_c 51.8797
_cell_angle_alpha 89.430600
_cell_angle_beta 87.346000
_cell_angle_gamma 91.599900
loop_
  _atom_site_label
  _atom_site_type_symbol
  _atom_site_fract_x
  _atom_site_fract_y
  _atom_site_fract_z
N1 N 0.26063 0.20722 0.19563
 N2 N 0.24569 0.21982 0.17985
 C3 C 0.25834 0.22167 0.15640
 C4 C 0.28238 0.20930 0.15767
 C5 C 0.28312 0.20052 0.18292
 H6 H 0.25062 0.23118 0.13971
 H7 H 0.29905 0.19041 0.19163
 Cu8 Cu 0.21149 0.23286 0.19208
 Cu9 Cu 0.25066 0.20133 0.23183
 Cu10 Cu 0.18414 0.20808 0.24764
 N11 N 0.18066 0.24859 0.20908
 N12 N 0.17027 0.23900 0.23104
 C13 C 0.15021 0.25406 0.23924
 C14 C 0.14780 0.27418 0.22146
 C15 C 0.16736 0.27002 0.20245
 H16 H 0.13848 0.25078 0.25701
 H17 H 0.17220 0.28224 0.18563
 N18 N 0.20737 0.18708 0.26851
 N19 N 0.23309 0.18598 0.26324
 C20 C 0.24398 0.17126 0.28138
 C21 C 0.22412 0.16253 0.29888
 C22 C 0.20110 0.17291 0.29009
 H23 H 0.26469 0.16650 0.28132
 H24 H 0.18136 0.17068 0.29893
 H25 H 0.21320 0.19459 0.22078
 H26 H 0.21894 0.22620 0.23785
 N27 N 0.74340 -0.20537 0.18054
 N28 N 0.74833 -0.22878 0.17148
 C29 C 0.73357 -0.23320 0.15092
 C30 C 0.71827 -0.21135 0.14689
 C31 C 0.72534 -0.19405 0.16615
 H32 H 0.73355 -0.25132 0.14028
 H33 H 0.71743 -0.17495 0.17011
 Cu34 Cu 0.77210 -0.25203 0.18849
 Cu35 Cu 0.75886 -0.19233 0.21172
 Cu36 Cu 0.80622 -0.23033 0.23901
 N37 N 0.80192 -0.27081 0.20108
 N38 N 0.81505 -0.26266 0.22088
 C39 C 0.83406 -0.27989 0.22559
 C40 C 0.83286 -0.30006 0.20767
 C41 C 0.81213 -0.29334 0.19241
 H42 H 0.84762 -0.27777 0.24097
 H43 H 0.80468 -0.30402 0.17627
 N44 N 0.79428 -0.19685 0.25407
 N45 N 0.77646 -0.18239 0.24332
 C46 C 0.77161 -0.16145 0.25820
 C47 C 0.78699 -0.16263 0.27953
 C48 C 0.80127 -0.18535 0.27619
 H49 H 0.75756 -0.14659 0.25396
 H50 H 0.81508 -0.19334 0.28928
 H51 H 0.79350 -0.21319 0.20591
 H52 H 0.76749 -0.22802 0.22888
 N53 N 0.74369 0.19821 0.79779
 N54 N 0.75399 0.21812 0.81020
 C55 C 0.73826 0.22323 0.83107
 C56 C 0.71701 0.20549 0.83185
 C57 C 0.72112 0.18982 0.81045
 H58 H 0.74177 0.23890 0.84452
 H59 H 0.70812 0.17425 0.80397
 Cu60 Cu 0.78603 0.23651 0.79696
 Cu61 Cu 0.75908 0.18683 0.76475
 Cu62 Cu 0.82543 0.20539 0.75428
 N63 N 0.81982 0.25195 0.78449
 N64 N 0.83516 0.23990 0.76755
 C65 C 0.85716 0.25487 0.76225
 C66 C 0.85559 0.27772 0.77671
 C67 C 0.83148 0.27495 0.79063
 H68 H 0.87303 0.24929 0.74892
 H69 H 0.82268 0.28870 0.80397
 N70 N 0.80798 0.17695 0.73516
 N71 N 0.78251 0.17073 0.73838
 C72 C 0.77613 0.15220 0.72124
 C73 C 0.79870 0.14639 0.70653
 C74 C 0.81854 0.16240 0.71596
 H75 H 0.75652 0.14353 0.71964
 H76 H 0.83892 0.16410 0.70869
 H77 H 0.79453 0.19274 0.78028
 H78 H 0.78724 0.21671 0.75429
 N79 N 0.25720 -0.18730 0.83512
 N80 N 0.24454 -0.20681 0.84760
 C81 C 0.25796 -0.21322 0.86848
 C82 C 0.27999 -0.19655 0.86927
 C83 C 0.27882 -0.18030 0.84787
 H84 H 0.25232 -0.22904 0.88188
 H85 H 0.29338 -0.16544 0.84135
 Cu86 Cu 0.21218 -0.22247 0.83509
 Cu87 Cu 0.24662 -0.17450 0.80179
 Cu88 Cu 0.19541 -0.20916 0.77449
 N89 N 0.18608 -0.24397 0.81802
 N90 N 0.18039 -0.23926 0.79401
 C91 C 0.16303 -0.25778 0.78644
 C92 C 0.15718 -0.27507 0.80694
 C93 C 0.17220 -0.26546 0.82675
 H94 H 0.15501 -0.25822 0.76750
 H95 H 0.17374 -0.27385 0.84582
 N96 N 0.21309 -0.17805 0.75791
 N97 N 0.23288 -0.16502 0.76814
 C98 C 0.24167 -0.14576 0.75166
 C99 C 0.22647 -0.14656 0.73017
 C100 C 0.20850 -0.16720 0.73485
 H101 H 0.25797 -0.13219 0.75495
 H102 H 0.19374 -0.17428 0.72198
 H103 H 0.20706 -0.18612 0.80488
 H104 H 0.23105 -0.21090 0.79248
 N105 N 0.74698 -0.19394 0.81506
 N106 N 0.75337 -0.21610 0.82610
 C107 C 0.73536 -0.22226 0.84525
 C108 C 0.71683 -0.20285 0.84651
 C109 C 0.72485 -0.18505 0.82716
 H110 H 0.73555 -0.23964 0.85739
 H111 H 0.71473 -0.16756 0.82165
 Cu112 Cu 0.78433 -0.23506 0.81427
 Cu113 Cu 0.76646 -0.17989 0.78429
 Cu114 Cu 0.82141 -0.21431 0.76250
 N115 N 0.81560 -0.25365 0.80252
 N116 N 0.83001 -0.24550 0.78215
 C117 C 0.84989 -0.26214 0.77774
 C118 C 0.84796 -0.28197 0.79643
 C119 C 0.82586 -0.27570 0.81187
 H120 H 0.86446 -0.25988 0.76192
 H121 H 0.81748 -0.28654 0.82841
 N122 N 0.80960 -0.18235 0.74523
 N123 N 0.78877 -0.16919 0.75343
 C124 C 0.78514 -0.14931 0.73670
 C125 C 0.80465 -0.14996 0.71702
 C126 C 0.81978 -0.17117 0.72321
 H127 H 0.76916 -0.13569 0.73846
 H128 H 0.83640 -0.17858 0.71193
 H129 H 0.78097 -0.21524 0.77163
 H130 H 0.80235 -0.19524 0.79279
 N131 N 0.24684 0.19724 0.81483
 N132 N 0.24077 0.22071 0.82319
 C133 C 0.25751 0.22796 0.84141
 C134 C 0.27486 0.20779 0.84487
 C135 C 0.26738 0.18851 0.82780
 H136 H 0.25707 0.24650 0.85139
 H137 H 0.27677 0.16996 0.82434
 Cu138 Cu 0.21136 0.23955 0.80977
 Cu139 Cu 0.22851 0.18082 0.78656
 Cu140 Cu 0.19997 0.22725 0.74806
 N141 N 0.18740 0.26075 0.79072
 N142 N 0.18370 0.25620 0.76625
 C143 C 0.16786 0.27446 0.75700
 C144 C 0.16094 0.29125 0.77683
 C145 C 0.17366 0.28192 0.79804
 H146 H 0.16168 0.27525 0.73733
 H147 H 0.17357 0.29035 0.81710
 N148 N 0.20778 0.19156 0.73648
 N149 N 0.21818 0.17358 0.75112
 C150 C 0.22024 0.15112 0.73772
 C151 C 0.21021 0.15517 0.71363
 C152 C 0.20253 0.18101 0.71359
 H153 H 0.22810 0.13313 0.74507
 H154 H 0.19372 0.19141 0.69802
 H155 H 0.23033 0.21742 0.77203
 H156 H 0.19598 0.20513 0.78105
 N157 N 0.24157 -0.19729 0.18974
 N158 N 0.23391 -0.21947 0.17931
 C159 C 0.25045 -0.22468 0.15906
 C160 C 0.26964 -0.20461 0.15657
 C161 C 0.26315 -0.18751 0.17641
 H162 H 0.24878 -0.24206 0.14739
 H163 H 0.27368 -0.16965 0.18144
 Cu164 Cu 0.20346 -0.23990 0.19365
 Cu165 Cu 0.22360 -0.18368 0.22067
 Cu166 Cu 0.19259 -0.23364 0.25751
 N167 N 0.17889 -0.26348 0.21314
 N168 N 0.17540 -0.26131 0.23828
 C169 C 0.15912 -0.28091 0.24739
 C170 C 0.15169 -0.29610 0.22682
 C171 C 0.16458 -0.28439 0.20531
 H172 H 0.15302 -0.28374 0.26751
 H173 H 0.16427 -0.29109 0.18560
 N174 N 0.20211 -0.19901 0.27149
 N175 N 0.21329 -0.17969 0.25737
 C176 C 0.21639 -0.15842 0.27228
 C177 C 0.20642 -0.16462 0.29700
 C178 C 0.19753 -0.19052 0.29570
 H179 H 0.22505 -0.13980 0.26553
 H180 H 0.18836 -0.20240 0.31122
 H181 H 0.22342 -0.22156 0.23170
 H182 H 0.18973 -0.20874 0.22691
 N183 N 0.72715 0.18250 0.17544
 N184 N 0.74010 0.19945 0.15995
 C185 C 0.72490 0.20552 0.14026
 C186 C 0.70101 0.19154 0.14346
 C187 C 0.70324 0.17709 0.16604
 H188 H 0.73088 0.21912 0.12480
 H189 H 0.68851 0.16380 0.17515
 Cu190 Cu 0.77520 0.21270 0.16738
 Cu191 Cu 0.74258 0.16839 0.20630
 Cu192 Cu 0.80624 0.19094 0.21867
 N193 N 0.80425 0.23278 0.18152
 N194 N 0.81651 0.22422 0.20159
 C195 C 0.83556 0.24191 0.20741
 C196 C 0.83512 0.26290 0.19012
 C197 C 0.81491 0.25627 0.17395
 H198 H 0.84850 0.23963 0.22324
 H199 H 0.80801 0.26778 0.15812
 N200 N 0.78674 0.16396 0.24009
 N201 N 0.76208 0.15634 0.23615
 C202 C 0.75376 0.13919 0.25495
 C203 C 0.77420 0.13572 0.27139
 C204 C 0.79482 0.15169 0.26133
 H205 H 0.73435 0.12969 0.25647
 H206 H 0.81400 0.15481 0.26937
 H207 H 0.76799 0.20022 0.21247
 H208 H 0.78111 0.17249 0.19303
 C209 C 0.22594 0.00945 0.48233
 C210 C 0.22545 -0.01835 0.48182
 C211 C 0.22552 -0.03251 0.50519
 C212 C 0.22611 -0.01955 0.52884
 C213 C 0.22716 0.00814 0.52930
 C214 C 0.22717 0.02233 0.50603
 H215 H 0.22734 0.04363 0.50643
 H216 H 0.22479 -0.05381 0.50504
 C217 C 0.80160 -0.02277 0.47023
 C218 C 0.79720 0.00449 0.46807
 C219 C 0.79340 0.01935 0.49049
 C220 C 0.79407 0.00773 0.51505
 C221 C 0.79820 -0.01953 0.51730
 C222 C 0.80229 -0.03437 0.49488
 H223 H 0.80487 -0.05538 0.49662
 H224 H 0.79051 0.04031 0.48882
 C225 C 0.47096 0.22979 -0.02656
 C226 C 0.46964 0.22519 0.00039
 C227 C 0.49322 0.22234 0.01331
 C228 C 0.51804 0.22426 0.00001
 C229 C 0.51919 0.22908 -0.02690
 C230 C 0.49571 0.23200 -0.03983
 H231 H 0.49669 0.23510 -0.06057
 H232 H 0.49228 0.21930 0.03405
 C233 C 0.47627 0.82613 0.02463
 C234 C 0.47602 0.82337 -0.00240
 C235 C 0.49994 0.82186 -0.01694
 C236 C 0.52427 0.82346 -0.00509
 C237 C 0.52469 0.82635 0.02196
 C238 C 0.50063 0.82784 0.03649
 H239 H 0.50085 0.82945 0.05731
 H240 H 0.49963 0.82014 -0.03774
 C241 C 0.00308 0.46257 0.21265
 C242 C -0.02481 0.46186 0.21160
 C243 C -0.03838 0.48557 0.21165
 C244 C -0.02472 0.50992 0.21299
 C245 C 0.00325 0.51048 0.21376
 C246 C 0.01673 0.48679 0.21391
 H247 H 0.03819 0.48723 0.21415
 H248 H -0.05982 0.48501 0.21143
 C249 C 0.01675 0.48044 0.78731
 C250 C -0.01124 0.48045 0.78993
 C251 C -0.02413 0.50454 0.78989
 C252 C -0.00978 0.52847 0.78717
 C253 C 0.01812 0.52829 0.78461
 C254 C 0.03106 0.50436 0.78445
 H255 H 0.05254 0.50441 0.78296
 H256 H -0.04560 0.50467 0.79138
 C257 C 0.34244 0.18417 0.12064
 C258 C 0.34650 0.20272 0.10024
 C259 C 0.32809 0.22316 0.09862
 C260 C 0.30660 0.22467 0.11673
 C261 C 0.30344 0.20652 0.13717
 C262 C 0.32137 0.18618 0.13874
 C263 C 0.33155 0.24234 0.07931
 C264 C 0.35348 0.24243 0.06216
 C265 C 0.37280 0.22298 0.06339
 C266 C 0.36860 0.20214 0.08198
 C267 C 0.38670 0.18150 0.08180
 C268 C 0.40892 0.18186 0.06508
 C269 C 0.41422 0.20284 0.04803
 C270 C 0.39625 0.22369 0.04676
 C271 C 0.40301 0.24477 0.02943
 C272 C 0.42659 0.24503 0.01429
 C273 C 0.44407 0.22429 0.01565
 C274 C 0.43770 0.20320 0.03247
 H275 H 0.35556 0.16826 0.12372
 H276 H 0.29295 0.24063 0.11547
 H277 H 0.31926 0.17169 0.15417
 H278 H 0.31740 0.25783 0.07775
 H279 H 0.35460 0.25802 0.04794
 H280 H 0.38422 0.16450 0.09427
 H281 H 0.42238 0.16568 0.06584
 H282 H 0.39097 0.26173 0.02759
 H283 H 0.43146 0.26183 0.00182
 H284 H 0.45126 0.18713 0.03361
 C285 C 0.67255 0.77442 0.09391
 C286 C 0.65688 0.79704 0.09373
 C287 C 0.66310 0.81736 0.11108
 C288 C 0.68382 0.81480 0.12798
 C289 C 0.69869 0.79187 0.12859
 C290 C 0.69294 0.77195 0.11097
 C291 C 0.64836 0.84010 0.11187
 C292 C 0.62686 0.84283 0.09650
 C293 C 0.61919 0.82284 0.07948
 C294 C 0.63497 0.79993 0.07743
 C295 C 0.62816 0.78061 0.05936
 C296 C 0.60613 0.78295 0.04460
 C297 C 0.58984 0.80447 0.04728
 C298 C 0.59613 0.82487 0.06460
 C299 C 0.57858 0.84608 0.06676
 C300 C 0.55578 0.84666 0.05260
 C301 C 0.54976 0.82639 0.03571
 C302 C 0.56694 0.80541 0.03303
 H303 H 0.66932 0.75794 0.08150
 H304 H 0.68778 0.83075 0.14099
 H305 H 0.70388 0.75401 0.11036
 H306 H 0.65325 0.85588 0.12486
 H307 H 0.61665 0.86102 0.09846
 H308 H 0.63947 0.76327 0.05606
 H309 H 0.60156 0.76746 0.03117
 H310 H 0.58148 0.86228 0.07959
 H311 H 0.54262 0.86299 0.05498
 H312 H 0.56202 0.78937 0.02036
 C313 C 0.65846 0.18081 -0.12573
 C314 C 0.64904 0.20425 -0.11453
 C315 C 0.66232 0.22823 -0.12201
 C316 C 0.68481 0.22833 -0.13891
 C317 C 0.69388 0.20495 -0.14967
 C318 C 0.68038 0.18128 -0.14318
 C319 C 0.65293 0.25204 -0.11286
 C320 C 0.63003 0.25277 -0.09709
 C321 C 0.61602 0.22949 -0.08914
 C322 C 0.62655 0.20481 -0.09678
 C323 C 0.61454 0.18156 -0.08607
 C324 C 0.59236 0.18233 -0.06928
 C325 C 0.58071 0.20613 -0.06323
 C326 C 0.59205 0.23006 -0.07344
 C327 C 0.57843 0.25350 -0.06813
 C328 C 0.55484 0.25307 -0.05302
 C329 C 0.54447 0.22950 -0.04231
 C330 C 0.55746 0.20610 -0.04733
 H331 H 0.64885 0.16190 -0.12201
 H332 H 0.69479 0.24683 -0.14435
 H333 H 0.68693 0.16300 -0.15147
 H334 H 0.66313 0.27041 -0.11833
 H335 H 0.62418 0.27194 -0.09079
 H336 H 0.62233 0.16240 -0.08974
 H337 H 0.58391 0.16400 -0.06138
 H338 H 0.58494 0.27233 -0.07611
 H339 H 0.54464 0.27123 -0.04960
 H340 H 0.54898 0.18778 -0.03940
 C341 C 0.33115 0.77799 -0.08660
 C342 C 0.34592 0.80113 -0.08099
 C343 C 0.33682 0.82537 -0.09034
 C344 C 0.31522 0.82596 -0.10635
 C345 C 0.30158 0.80275 -0.11257
 C346 C 0.30926 0.77890 -0.10204
 C347 C 0.34947 0.84892 -0.08392
 C348 C 0.37106 0.84905 -0.06835
 C349 C 0.38149 0.82543 -0.05927
 C350 C 0.36931 0.80105 -0.06649
 C351 C 0.38152 0.77745 -0.05990
 C352 C 0.40481 0.77761 -0.04671
 C353 C 0.41634 0.80116 -0.03872
 C354 C 0.40437 0.82538 -0.04406
 C355 C 0.41582 0.84853 -0.03384
 C356 C 0.43882 0.84765 -0.02002
 C357 C 0.45116 0.82384 -0.01615
 C358 C 0.43991 0.80064 -0.02545
 H359 H 0.33579 0.75893 -0.07912
 H360 H 0.30891 0.84457 -0.11395
 H361 H 0.29879 0.76075 -0.10637
 H362 H 0.34257 0.86751 -0.09099
 H363 H 0.37989 0.86807 -0.06468
 H364 H 0.37414 0.75844 -0.06564
 H365 H 0.41383 0.75904 -0.04262
 H366 H 0.40723 0.86754 -0.03574
 H367 H 0.44719 0.86567 -0.01250
 H368 H 0.44938 0.78216 -0.02200
 C369 C 0.10538 0.32770 0.24970
 C370 C 0.09586 0.34000 0.22750
 C371 C 0.10275 0.32906 0.20314
 C372 C 0.11995 0.30785 0.20123
 C373 C 0.12961 0.29637 0.22342
 C374 C 0.12183 0.30618 0.24761
 C375 C 0.09243 0.33929 0.18082
 C376 C 0.07512 0.36002 0.18207
 C377 C 0.06814 0.37202 0.20576
 C378 C 0.07957 0.36254 0.22867
 C379 C 0.07507 0.37641 0.25183
 C380 C 0.05970 0.39858 0.25270
 C381 C 0.04747 0.40736 0.23081
 C382 C 0.05082 0.39379 0.20717
 C383 C 0.03653 0.40255 0.18600
 C384 C 0.02065 0.42452 0.18804
 C385 C 0.01866 0.43848 0.21106
 C386 C 0.03198 0.42980 0.23242
 H387 H 0.10007 0.33386 0.26902
 H388 H 0.12544 0.29995 0.18247
 H389 H 0.12887 0.29749 0.26506
 H390 H 0.09761 0.33104 0.16214
 H391 H 0.06828 0.36687 0.16390
 H392 H 0.08404 0.37120 0.26954
 H393 H 0.05723 0.40890 0.27080
 H394 H 0.03684 0.39262 0.16775
 H395 H 0.01012 0.43089 0.17147
 H396 H 0.03003 0.44048 0.25036
 C397 C 0.11555 0.66740 0.83110
 C398 C 0.10542 0.65731 0.80813
 C399 C 0.11379 0.66988 0.78456
 C400 C 0.13032 0.69251 0.78437
 C401 C 0.14011 0.70252 0.80735
 C402 C 0.13272 0.68939 0.83063
 C403 C 0.10588 0.65968 0.76119
 C404 C 0.09044 0.63673 0.76060
 C405 C 0.08148 0.62354 0.78355
 C406 C 0.08783 0.63484 0.80771
 C407 C 0.07594 0.62366 0.83057
 C408 C 0.05916 0.60163 0.82994
 C409 C 0.05434 0.58931 0.80668
 C410 C 0.06588 0.59970 0.78316
 C411 C 0.06186 0.58538 0.76031
 C412 C 0.04653 0.56213 0.76089
 C413 C 0.03433 0.55283 0.78401
 C414 C 0.03825 0.56639 0.80684
 H415 H 0.11120 0.65829 0.84971
 H416 H 0.13619 0.70165 0.76599
 H417 H 0.13977 0.69622 0.84882
 H418 H 0.11206 0.66929 0.74308
 H419 H 0.08510 0.63024 0.74178
 H420 H 0.07855 0.63206 0.84930
 H421 H 0.05025 0.59388 0.84795
 H422 H 0.07098 0.59116 0.74186
 H423 H 0.04400 0.55143 0.74318
 H424 H 0.02916 0.55873 0.82482
 C425 C -0.14003 0.63669 0.18378
 C426 C -0.12014 0.63150 0.20129
 C427 C -0.11618 0.65000 0.22109
 C428 C -0.13150 0.67264 0.22299
 C429 C -0.15132 0.67748 0.20552
 C430 C -0.15519 0.65911 0.18589
 C431 C -0.09701 0.64580 0.23904
 C432 C -0.08183 0.62349 0.23809
 C433 C -0.08509 0.60430 0.21892
 C434 C -0.10428 0.60858 0.19995
 C435 C -0.10694 0.58984 0.18027
 C436 C -0.09178 0.56754 0.17927
 C437 C -0.07342 0.56280 0.19785
 C438 C -0.06975 0.58100 0.21801
 C439 C -0.05103 0.57489 0.23653
 C440 C -0.03662 0.55192 0.23484
 C441 C -0.04013 0.53432 0.21466
 C442 C -0.05870 0.53980 0.19632
 H443 H -0.14468 0.62376 0.16824
 H444 H -0.12791 0.68628 0.23839
 H445 H -0.17005 0.66172 0.17185
 H446 H -0.09376 0.65992 0.25417
 H447 H -0.06750 0.62200 0.25270
 H448 H -0.12053 0.59179 0.16506
 H449 H -0.09457 0.55375 0.16377
 H450 H -0.04719 0.58721 0.25275
 H451 H -0.02274 0.54776 0.24954
 H452 H -0.06155 0.52615 0.18070
 C453 C -0.08603 0.32216 0.75957
 C454 C -0.09009 0.34356 0.77639
 C455 C -0.11218 0.34174 0.79420
 C456 C -0.12986 0.31999 0.79426
 C457 C -0.12606 0.29917 0.77698
 C458 C -0.10362 0.30046 0.75995
 C459 C -0.11675 0.36171 0.81189
 C460 C -0.09996 0.38367 0.81234
 C461 C -0.07793 0.38682 0.79472
 C462 C -0.07313 0.36663 0.77617
 C463 C -0.05196 0.37046 0.75767
 C464 C -0.03612 0.39320 0.75714
 C465 C -0.04035 0.41287 0.77523
 C466 C -0.06094 0.40982 0.79463
 C467 C -0.06371 0.43007 0.81303
 C468 C -0.04735 0.45261 0.81157
 C469 C -0.02761 0.45578 0.79192
 C470 C -0.02419 0.43579 0.77382
 H471 H -0.06935 0.32141 0.74594
 H472 H -0.14654 0.31949 0.80810
 H473 H -0.09956 0.28490 0.74642
 H474 H -0.13361 0.36039 0.82560
 H475 H -0.10526 0.39817 0.82647
 H476 H -0.04741 0.35648 0.74279
 H477 H -0.02035 0.39541 0.74232
 H478 H -0.07815 0.42914 0.82894
 H479 H -0.05011 0.46772 0.82593
 H480 H -0.00914 0.43827 0.75834
 C481 C 0.25441 0.12845 0.35499
 C482 C 0.23341 0.11172 0.36487
 C483 C 0.20920 0.11188 0.35209
 C484 C 0.20608 0.12886 0.33100
 C485 C 0.22707 0.14533 0.32164
 C486 C 0.25123 0.14483 0.33371
 C487 C 0.18826 0.09496 0.36026
 C488 C 0.19083 0.07752 0.38067
 C489 C 0.21439 0.07669 0.39421
 C490 C 0.23571 0.09469 0.38673
 C491 C 0.25840 0.09543 0.40163
 C492 C 0.26043 0.07899 0.42288
 C493 C 0.24026 0.06076 0.42988
 C494 C 0.21714 0.05891 0.41542
 C495 C 0.19780 0.03922 0.42282
 C496 C 0.20096 0.02295 0.44421
 C497 C 0.22342 0.02563 0.45879
 C498 C 0.24305 0.04446 0.45150
 H499 H 0.27375 0.12903 0.36285
 H500 H 0.18745 0.12875 0.32145
 H501 H 0.26780 0.15733 0.32683
 H502 H 0.16969 0.09504 0.35061
 H503 H 0.17359 0.06533 0.38577
 H504 H 0.27480 0.10908 0.39783
 H505 H 0.27809 0.08053 0.43392
 H506 H 0.18012 0.03570 0.41243
 H507 H 0.18560 0.00840 0.44962
 H508 H 0.26057 0.04633 0.46272
 C509 C 0.82721 0.09941 0.65711
 C510 C 0.80516 0.09323 0.64215
 C511 C 0.78094 0.10545 0.64876
 C512 C 0.77887 0.12224 0.67003
 C513 C 0.80087 0.12802 0.68464
 C514 C 0.82503 0.11660 0.67787
 C515 C 0.75894 0.10110 0.63399
 C516 C 0.76051 0.08538 0.61229
 C517 C 0.78414 0.07279 0.60479
 C518 C 0.80646 0.07584 0.62063
 C519 C 0.82915 0.06110 0.61466
 C520 C 0.83038 0.04463 0.59350
 C521 C 0.80940 0.04262 0.57706
 C522 C 0.78608 0.05691 0.58220
 C523 C 0.76589 0.05505 0.56416
 C524 C 0.76866 0.03926 0.54240
 C525 C 0.79138 0.02466 0.53802
 C526 C 0.81173 0.02646 0.55534
 H527 H 0.84660 0.09181 0.65294
 H528 H 0.76019 0.13141 0.67477
 H529 H 0.84237 0.12082 0.68879
 H530 H 0.74032 0.11024 0.63905
 H531 H 0.74254 0.08299 0.60209
 H532 H 0.84618 0.06136 0.62639
 H533 H 0.84816 0.03357 0.58978
 H534 H 0.74797 0.06597 0.56595
 H535 H 0.75286 0.03826 0.52899
 H536 H 0.82957 0.01547 0.55166
 C537 C 0.25744 -0.10447 0.67570
 C538 C 0.23571 -0.10020 0.66003
 C539 C 0.21048 -0.11031 0.66898
 C540 C 0.20766 -0.12537 0.69179
 C541 C 0.22952 -0.12999 0.70663
 C542 C 0.25428 -0.11904 0.69864
 C543 C 0.18814 -0.10545 0.65511
 C544 C 0.19012 -0.09044 0.63261
 C545 C 0.21480 -0.08025 0.62261
 C546 C 0.23810 -0.08610 0.63600
 C547 C 0.26302 -0.07831 0.62457
 C548 C 0.26515 -0.06485 0.60113
 C549 C 0.24260 -0.05790 0.58850
 C550 C 0.21704 -0.06495 0.59930
 C551 C 0.19478 -0.05607 0.58641
 C552 C 0.19794 -0.04140 0.56358
 C553 C 0.22319 -0.03529 0.55283
 C554 C 0.24547 -0.04374 0.56514
 H555 H 0.27706 -0.09650 0.67102
 H556 H 0.18829 -0.13326 0.69817
 H557 H 0.27145 -0.12218 0.70989
 H558 H 0.16881 -0.11320 0.66183
 H559 H 0.17191 -0.08791 0.62300
 H560 H 0.28144 -0.08307 0.63290
 H561 H 0.28472 -0.05956 0.59294
 H562 H 0.17470 -0.05950 0.59378
 H563 H 0.18058 -0.03464 0.55428
 H564 H 0.26504 -0.03882 0.55671
 C565 C 0.76528 -0.10935 0.32573
 C566 C 0.78555 -0.10857 0.34366
 C567 C 0.80656 -0.12625 0.33998
 C568 C 0.80701 -0.14382 0.31917
 C569 C 0.78676 -0.14420 0.30158
 C570 C 0.76597 -0.12679 0.30520
 C571 C 0.82703 -0.12636 0.35709
 C572 C 0.82713 -0.10945 0.37795
 C573 C 0.80663 -0.09156 0.38264
 C574 C 0.78555 -0.09102 0.36511
 C575 C 0.76513 -0.07300 0.36963
 C576 C 0.76495 -0.05642 0.39065
 C577 C 0.78507 -0.05691 0.40806
 C578 C 0.80635 -0.07429 0.40434
 C579 C 0.82626 -0.07372 0.42274
 C580 C 0.82480 -0.05685 0.44383
 C581 C 0.80365 -0.03992 0.44728
 C582 C 0.78381 -0.04015 0.42936
 H583 H 0.74843 -0.09691 0.32695
 H584 H 0.82332 -0.15705 0.31660
 H585 H 0.74975 -0.12672 0.29232
 H586 H 0.84319 -0.13977 0.35437
 H587 H 0.84369 -0.11100 0.39013
 H588 H 0.74875 -0.07113 0.35729
 H589 H 0.74875 -0.04305 0.39334
 H590 H 0.84318 -0.08610 0.42156
 H591 H 0.84031 -0.05701 0.45755
 H592 H 0.76706 -0.02748 0.43226
 C593 C 0.65718 0.77397 -0.11208
 C594 C 0.64710 0.79770 -0.10223
 C595 C 0.66113 0.82144 -0.10916
 C596 C 0.68340 0.82129 -0.12646
 C597 C 0.69287 0.79759 -0.13612
 C598 C 0.67976 0.77401 -0.12856
 C599 C 0.65305 0.84515 -0.09859
 C600 C 0.63162 0.84584 -0.08085
 C601 C 0.61675 0.82282 -0.07363
 C602 C 0.62390 0.79858 -0.08543
 C603 C 0.60725 0.77617 -0.08059
 C604 C 0.58468 0.77721 -0.06440
 C605 C 0.57819 0.80033 -0.05176
 C606 C 0.59447 0.82333 -0.05560
 C607 C 0.58781 0.84579 -0.04100
 C608 C 0.56536 0.84558 -0.02425
 C609 C 0.54883 0.82316 -0.02165
 C610 C 0.55535 0.80058 -0.03534
 H611 H 0.64855 0.75496 -0.10687
 H612 H 0.69384 0.83957 -0.13183
 H613 H 0.68685 0.75541 -0.13566
 H614 H 0.66363 0.86338 -0.10383
 H615 H 0.62662 0.86497 -0.07375
 H616 H 0.61059 0.75761 -0.08980
 H617 H 0.57226 0.75961 -0.06161
 H618 H 0.59977 0.86366 -0.04176
 H619 H 0.56064 0.86311 -0.01350
 H620 H 0.54267 0.78310 -0.03296
 C621 C 0.32738 0.18346 -0.11178
 C622 C 0.34090 0.20702 -0.10516
 C623 C 0.33238 0.23087 -0.11595
 C624 C 0.31050 0.23101 -0.13166
 C625 C 0.29732 0.20752 -0.13787
 C626 C 0.30610 0.18379 -0.12801
 C627 C 0.34589 0.25446 -0.11128
 C628 C 0.36825 0.25492 -0.09673
 C629 C 0.37761 0.23175 -0.08557
 C630 C 0.36290 0.20766 -0.08875
 C631 C 0.37039 0.18514 -0.07508
 C632 C 0.39208 0.18584 -0.05961
 C633 C 0.40765 0.20871 -0.05772
 C634 C 0.40095 0.23193 -0.07098
 C635 C 0.41831 0.25417 -0.06956
 C636 C 0.44098 0.25336 -0.05522
 C637 C 0.44684 0.23063 -0.04158
 C638 C 0.43014 0.20837 -0.04285
 H639 H 0.33320 0.16438 -0.10534
 H640 H 0.30421 0.24942 -0.13970
 H641 H 0.29632 0.16536 -0.13268
 H642 H 0.33935 0.27278 -0.11932
 H643 H 0.37742 0.27398 -0.09398
 H644 H 0.35939 0.16673 -0.07538
 H645 H 0.39698 0.16810 -0.04934
 H646 H 0.41538 0.27224 -0.07989
 H647 H 0.45398 0.27061 -0.05465
 H648 H 0.43503 0.19060 -0.03261
 C649 C 0.32075 0.77791 0.10401
 C650 C 0.33873 0.79977 0.10362
 C651 C 0.33291 0.82063 0.12067
 C652 C 0.31025 0.81930 0.13744
 C653 C 0.29291 0.79727 0.13792
 C654 C 0.29837 0.77676 0.12084
 C655 C 0.34984 0.84268 0.12115
 C656 C 0.37280 0.84443 0.10543
 C657 C 0.37986 0.82406 0.08840
 C658 C 0.36234 0.80151 0.08719
 C659 C 0.36909 0.78139 0.06974
 C660 C 0.39229 0.78287 0.05439
 C661 C 0.40979 0.80436 0.05572
 C662 C 0.40392 0.82539 0.07260
 C663 C 0.42264 0.84666 0.07311
 C664 C 0.44596 0.84686 0.05753
 C665 C 0.45138 0.82606 0.04092
 C666 C 0.43333 0.80479 0.04028
 H667 H 0.32342 0.76113 0.09181
 H668 H 0.30636 0.83552 0.15027
 H669 H 0.28554 0.75943 0.12054
 H670 H 0.34539 0.85878 0.13404
 H671 H 0.38464 0.86217 0.10717
 H672 H 0.35686 0.76402 0.06739
 H673 H 0.39665 0.76685 0.04138
 H674 H 0.42005 0.86340 0.08538
 H675 H 0.45983 0.86341 0.05838
 H676 H 0.43784 0.78830 0.02793
 C677 C 0.63613 0.17340 0.11317
 C678 C 0.63384 0.19356 0.09444
 C679 C 0.65431 0.21319 0.09238
 C680 C 0.67610 0.21229 0.10819
 C681 C 0.67805 0.19217 0.12660
 C682 C 0.65782 0.17281 0.12890
 C683 C 0.65297 0.23376 0.07461
 C684 C 0.63152 0.23568 0.05903
 C685 C 0.61041 0.21688 0.06043
 C686 C 0.61190 0.19510 0.07798
 C687 C 0.59147 0.17557 0.07838
 C688 C 0.57004 0.17748 0.06273
 C689 C 0.56784 0.19897 0.04622
 C690 C 0.58790 0.21906 0.04481
 C691 C 0.58425 0.24075 0.02812
 C692 C 0.56179 0.24222 0.01357
 C693 C 0.54233 0.22212 0.01484
 C694 C 0.54546 0.20057 0.03126
 H695 H 0.62142 0.15788 0.11645
 H696 H 0.69135 0.22764 0.10634
 H697 H 0.65871 0.15693 0.14281
 H698 H 0.66866 0.24871 0.07282
 H699 H 0.63230 0.25214 0.04582
 H700 H 0.59148 0.15828 0.09048
 H701 H 0.55484 0.16199 0.06378
 H702 H 0.59800 0.25725 0.02623
 H703 H 0.55935 0.25946 0.00162
 H704 H 0.53028 0.18505 0.03245
 C705 C -0.12462 0.65590 0.82145
 C706 C -0.10384 0.65091 0.80311
 C707 C -0.09938 0.66919 0.78248
 C708 C -0.11498 0.69148 0.78063
 C709 C -0.13577 0.69609 0.79884
 C710 C -0.14019 0.67795 0.81930
 C711 C -0.07949 0.66508 0.76356
 C712 C -0.06428 0.64284 0.76418
 C713 C -0.06820 0.62374 0.78402
 C714 C -0.08769 0.62828 0.80428
 C715 C -0.09032 0.61010 0.82505
 C716 C -0.07509 0.58786 0.82569
 C717 C -0.05688 0.58257 0.80557
 C718 C -0.05317 0.60032 0.78436
 C719 C -0.03495 0.59350 0.76410
 C720 C -0.02097 0.57031 0.76516
 C721 C -0.02439 0.55326 0.78641
 C722 C -0.04247 0.55942 0.80650
 H723 H -0.12981 0.64294 0.83752
 H724 H -0.11096 0.70492 0.76455
 H725 H -0.15580 0.68047 0.83393
 H726 H -0.07578 0.67912 0.74787
 H727 H -0.04932 0.64139 0.74885
 H728 H -0.10383 0.61257 0.84144
 H729 H -0.07786 0.57447 0.84203
 H730 H -0.03144 0.60526 0.74687
 H731 H -0.00771 0.56543 0.74903
 H732 H -0.04533 0.54607 0.82288
 C733 C -0.13425 0.32898 0.16868
 C734 C -0.11741 0.33536 0.18892
 C735 C -0.11601 0.31678 0.20932
 C736 C -0.13126 0.29325 0.20951
 C737 C -0.14819 0.28747 0.18953
 C738 C -0.14928 0.30554 0.16907
 C739 C -0.09951 0.32177 0.22959
 C740 C -0.08432 0.34486 0.23025
 C741 C -0.08513 0.36421 0.21062
 C742 C -0.10203 0.35943 0.18964
 C743 C -0.10319 0.37898 0.17023
 C744 C -0.08844 0.40232 0.17117
 C745 C -0.07183 0.40724 0.19135
 C746 C -0.06975 0.38828 0.21135
 C747 C -0.05239 0.39436 0.23129
 C748 C -0.03799 0.41815 0.23127
 C749 C -0.04019 0.43664 0.21144
 C750 C -0.05725 0.43115 0.19161
 H751 H -0.13631 0.34156 0.15215
 H752 H -0.13005 0.27960 0.22551
 H753 H -0.16178 0.30168 0.15310
 H754 H -0.09831 0.30762 0.24522
 H755 H -0.07225 0.34696 0.24669
 H756 H -0.11555 0.37703 0.15398
 H757 H -0.09010 0.41674 0.15585
 H758 H -0.04940 0.38126 0.24723
 H759 H -0.02516 0.42223 0.24699
 H760 H -0.05896 0.44549 0.17621
 C761 C 0.12634 0.34962 0.74992
 C762 C 0.11189 0.35907 0.77178
 C763 C 0.11345 0.34504 0.79540
 C764 C 0.12979 0.32326 0.79707
 C765 C 0.14415 0.31446 0.77526
 C766 C 0.14208 0.32769 0.75171
 C767 C 0.09859 0.35270 0.81721
 C768 C 0.08191 0.37385 0.81614
 C769 C 0.07990 0.38872 0.79322
 C770 C 0.09581 0.38172 0.77092
 C771 C 0.09562 0.39795 0.74869
 C772 C 0.08023 0.42004 0.74808
 C773 C 0.06398 0.42661 0.76930
 C774 C 0.06305 0.41080 0.79202
 C775 C 0.04522 0.41783 0.81255
 C776 C 0.02991 0.44013 0.81080
 C777 C 0.03181 0.45604 0.78865
 C778 C 0.04874 0.44913 0.76793
 H779 H 0.12559 0.35837 0.73100
 H780 H 0.13088 0.31280 0.81528
 H781 H 0.15291 0.32125 0.73453
 H782 H 0.09972 0.34208 0.83532
 H783 H 0.07136 0.37851 0.83393
 H784 H 0.10781 0.39459 0.73154
 H785 H 0.08103 0.43210 0.73070
 H786 H 0.04241 0.40642 0.83010
 H787 H 0.01674 0.44520 0.82695
 H788 H 0.04993 0.46137 0.75065
 C789 C 0.11601 0.64187 0.25190
 C790 C 0.10140 0.63372 0.23060
 C791 C 0.10324 0.64981 0.20807
 C792 C 0.11996 0.67237 0.20676
 C793 C 0.13445 0.67991 0.22796
 C794 C 0.13212 0.66458 0.25053
 C795 C 0.08829 0.64340 0.18699
 C796 C 0.07123 0.62152 0.18779
 C797 C 0.06888 0.60466 0.20961
 C798 C 0.08488 0.61039 0.23103
 C799 C 0.08430 0.59232 0.25190
 C800 C 0.06842 0.56966 0.25209
 C801 C 0.05204 0.56426 0.23183
 C802 C 0.05155 0.58188 0.21050
 C803 C 0.03361 0.57592 0.19103
 C804 C 0.01772 0.55302 0.19236
 C805 C 0.01910 0.53539 0.21306
 C806 C 0.03621 0.54115 0.23277
 H807 H 0.11510 0.63147 0.27010
 H808 H 0.12125 0.68440 0.18936
 H809 H 0.14305 0.66996 0.26724
 H810 H 0.08964 0.65558 0.16969
 H811 H 0.06061 0.61797 0.17058
 H812 H 0.09653 0.59471 0.26820
 H813 H 0.06892 0.55621 0.26839
 H814 H 0.03114 0.58862 0.17465
 H815 H 0.00449 0.54886 0.17698
 H816 H 0.03704 0.52758 0.24895
 C817 C 0.83358 -0.11890 0.65482
 C818 C 0.81268 -0.10344 0.64646
 C819 C 0.78936 -0.10269 0.66270
 C820 C 0.78705 -0.11737 0.68585
 C821 C 0.80767 -0.13317 0.69340
 C822 C 0.83102 -0.13345 0.67778
 C823 C 0.76827 -0.08755 0.65568
 C824 C 0.76949 -0.07334 0.63266
 C825 C 0.79197 -0.07379 0.61546
 C826 C 0.81401 -0.08897 0.62254
 C827 C 0.83647 -0.08947 0.60532
 C828 C 0.83738 -0.07594 0.58193
 C829 C 0.81605 -0.06129 0.57464
 C830 C 0.79307 -0.05978 0.59130
 C831 C 0.77206 -0.04447 0.58285
 C832 C 0.77387 -0.03154 0.55896
 C833 C 0.79661 -0.03321 0.54273
 C834 C 0.81760 -0.04819 0.55062
 H835 H 0.85221 -0.12037 0.64410
 H836 H 0.76883 -0.11687 0.69764
 H837 H 0.84757 -0.14499 0.68322
 H838 H 0.75044 -0.08677 0.66808
 H839 H 0.75220 -0.06232 0.62888
 H840 H 0.85382 -0.10036 0.60917
 H841 H 0.85501 -0.07709 0.56932
 H842 H 0.75386 -0.04209 0.59406
 H843 H 0.75728 -0.02028 0.55302
 H844 H 0.83525 -0.04947 0.53804
 C845 C 0.18674 -0.13787 0.36273
 C846 C 0.20369 -0.11542 0.36458
 C847 C 0.22168 -0.10949 0.34339
 C848 C 0.22217 -0.12526 0.32128
 C849 C 0.20532 -0.14747 0.31991
 C850 C 0.18764 -0.15353 0.34082
 C851 C 0.23931 -0.08803 0.34442
 C852 C 0.24002 -0.07255 0.36627
 C853 C 0.22277 -0.07773 0.38804
 C854 C 0.20371 -0.09900 0.38683
 C855 C 0.18525 -0.10307 0.40786
 C856 C 0.18587 -0.08759 0.42967
 C857 C 0.20502 -0.06761 0.43163
 C858 C 0.22382 -0.06232 0.41094
 C859 C 0.24317 -0.04210 0.41436
 C860 C 0.24359 -0.02787 0.43722
 C861 C 0.22474 -0.03310 0.45733
 C862 C 0.20551 -0.05299 0.45439
 H863 H 0.17282 -0.14427 0.37799
 H864 H 0.23620 -0.12051 0.30537
 H865 H 0.17423 -0.17045 0.34032
 H866 H 0.25297 -0.08328 0.32821
 H867 H 0.25422 -0.05638 0.36533
 H868 H 0.16970 -0.11795 0.40803
 H869 H 0.17131 -0.09154 0.44533
 H870 H 0.25861 -0.03709 0.40002
 H871 H 0.25898 -0.01291 0.43934
 H872 H 0.19088 -0.05710 0.46997
 C873 C 0.74933 0.09901 0.33195
 C874 C 0.77281 0.08874 0.34142
 C875 C 0.79672 0.09331 0.32645
 C876 C 0.79709 0.10878 0.30382
 C877 C 0.77373 0.11925 0.29511
 C878 C 0.74987 0.11388 0.30916
 C879 C 0.82016 0.08243 0.33410
 C880 C 0.82049 0.06692 0.35625
 C881 C 0.79739 0.06221 0.37217
 C882 C 0.77334 0.07401 0.36505
 C883 C 0.75084 0.07133 0.38215
 C884 C 0.75165 0.05749 0.40526
 C885 C 0.77462 0.04518 0.41206
 C886 C 0.79768 0.04675 0.39539
 C887 C 0.82002 0.03270 0.40273
 C888 C 0.81966 0.01870 0.42605
 C889 C 0.79717 0.01826 0.44278
 C890 C 0.77468 0.03141 0.43564
 H891 H 0.73012 0.09559 0.34143
 H892 H 0.81558 0.11234 0.29275
 H893 H 0.73149 0.12159 0.30278
 H894 H 0.83850 0.08584 0.32273
 H895 H 0.83949 0.05953 0.36082
 H896 H 0.73238 0.08049 0.37864
 H897 H 0.73399 0.05637 0.41796
 H898 H 0.83797 0.03185 0.39078
 H899 H 0.83716 0.00841 0.43124
 H900 H 0.75711 0.03072 0.44848
 C901 C 0.18687 0.12280 0.65324
 C902 C 0.20496 0.10234 0.64932
 C903 C 0.22473 0.09935 0.66759
 C904 C 0.22580 0.11596 0.68905
 C905 C 0.20797 0.13636 0.69226
 C906 C 0.18850 0.13950 0.67426
 C907 C 0.24367 0.08017 0.66410
 C908 C 0.24414 0.06448 0.64234
 C909 C 0.22523 0.06701 0.62333
 C910 C 0.20456 0.08535 0.62754
 C911 C 0.18415 0.08605 0.60988
 C912 C 0.18455 0.07038 0.58816
 C913 C 0.20543 0.05370 0.58290
 C914 C 0.22617 0.05174 0.60029
 C915 C 0.24735 0.03513 0.59342
 C916 C 0.24762 0.02104 0.57046
 C917 C 0.22677 0.02274 0.55382
 C918 C 0.20577 0.03912 0.56009
 H919 H 0.17167 0.12704 0.64006
 H920 H 0.24116 0.11361 0.70272
 H921 H 0.17437 0.15502 0.67636
 H922 H 0.25867 0.07757 0.67812
 H923 H 0.25945 0.05018 0.64117
 H924 H 0.16720 0.09826 0.61246
 H925 H 0.16848 0.07168 0.57511
 H926 H 0.26439 0.03317 0.60494
 H927 H 0.26446 0.00913 0.56545
 H928 H 0.18974 0.04063 0.54700
   
