data_POSCAR
  _audit_creation_date              2014-09-24
  _audit_creation_method            'ToBaCCo'
  _symmetry_space_group_name_H-M    'P1'
  _symmetry_Int_Tables_number       1
  _symmetry_cell_setting            triclinic
  loop_
  _symmetry_equiv_pos_as_xyz
 x,y,z
_cell_length_a 36.1808
_cell_length_b 36.0809
_cell_length_c 36.1241
_cell_angle_alpha 82.010200
_cell_angle_beta 97.721400
_cell_angle_gamma 78.177800
loop_
  _atom_site_label
  _atom_site_type_symbol
  _atom_site_fract_x
  _atom_site_fract_y
  _atom_site_fract_z
O1 O 0.55561 0.48852 0.03589
 O2 O 0.45128 0.49827 0.02793
 O3 O 0.51001 0.44067 0.03774
 O4 O 0.49623 0.54593 0.02625
 O5 O 0.49059 0.54965 -0.03583
 O6 O 0.50669 0.44414 -0.02413
 O7 O 0.44642 0.50019 -0.03380
 O8 O 0.55013 0.49347 -0.02625
 Cu9 Cu 0.50386 0.49295 0.03817
 Cu10 Cu 0.49787 0.49722 -0.03621
 C11 C 0.57061 0.48998 0.00602
 C12 C 0.43096 0.50037 -0.00420
 C13 C 0.51061 0.42442 0.00873
 C14 C 0.49117 0.56578 -0.00671
 O15 O -0.03486 0.56223 0.49419
 O16 O -0.02595 0.45784 0.50355
 O17 O -0.02539 0.50603 0.55039
 O18 O -0.03516 0.51367 0.44664
 O19 O 0.02769 0.50341 0.45148
 O20 O 0.03719 0.49884 0.55465
 O21 O 0.03685 0.44887 0.50858
 O22 O 0.02757 0.55350 0.49666
 Cu23 Cu -0.03666 0.51092 0.49818
 Cu24 Cu 0.03863 0.50032 0.50336
 C25 C -0.00516 0.57586 0.49381
 C26 C 0.00693 0.43551 0.50764
 C27 C 0.00751 0.50144 0.57020
 C28 C -0.00523 0.50913 0.43140
 O29 O 0.49805 0.02623 0.54889
 O30 O 0.49053 0.03519 0.44501
 O31 O 0.44222 0.03555 0.49275
 O32 O 0.54612 0.02693 0.50179
 O33 O 0.55548 -0.03619 0.50812
 O34 O 0.45102 -0.02719 0.49544
 O35 O 0.50200 -0.02800 0.45059
 O36 O 0.50478 -0.03644 0.55374
 Cu37 Cu 0.49329 0.03729 0.49651
 Cu38 Cu 0.50418 -0.03828 0.50255
 C39 C 0.50213 -0.00659 0.56915
 C40 C 0.49577 0.00498 0.43018
 C41 C 0.42882 0.00568 0.49255
 C42 C 0.56858 -0.00602 0.50658
 C43 C 0.49987 -0.01190 -0.03763
 C44 C 0.49131 -0.03916 -0.00973
 C45 C 0.48838 -0.03007 0.02656
 C46 C 0.49445 0.00486 0.03597
 C47 C 0.50297 0.03207 0.00828
 C48 C 0.50523 0.02336 -0.02813
 H49 H 0.51057 0.04476 -0.04972
 H50 H 0.48282 -0.05113 0.04835
 C51 C -0.00711 0.49808 1.03892
 C52 C -0.03632 0.49795 1.00880
 C53 C -0.02722 0.49710 0.97232
 C54 C 0.00985 0.49728 0.96483
 C55 C 0.03859 0.49947 0.99460
 C56 C 0.02970 0.49929 1.03127
 H57 H 0.05188 0.50006 1.05437
 H58 H -0.04942 0.49618 0.94931
 C59 C 0.03373 0.01290 0.49364
 C60 C 0.00462 0.04232 0.50100
 C61 C -0.03150 0.03484 0.50430
 C62 C -0.03951 -0.00104 0.50049
 C63 C -0.01034 -0.03048 0.49323
 C64 C 0.02574 -0.02297 0.48989
 H65 H 0.04840 -0.04585 0.48538
 H66 H -0.05411 0.05770 0.50895
 C67 C -0.30955 0.48953 1.01269
 C68 C -0.33447 0.49978 0.97769
 C69 C -0.37311 0.49908 0.97558
 C70 C -0.38794 0.48858 1.00847
 C71 C -0.36303 0.47799 1.04351
 C72 C -0.32413 0.47819 1.04555
 C73 C -0.26887 0.49153 1.01455
 N74 N -0.24196 0.47294 1.04504
 N75 N -0.20538 0.47477 1.04616
 C76 C -0.19432 0.49554 1.01699
 N77 N -0.22130 0.51422 0.98670
 N78 N -0.25772 0.51220 0.98547
 C79 C -0.15373 0.49738 1.01741
 C80 C -0.14445 0.52561 0.99169
 C81 C -0.10632 0.52627 0.98998
 C82 C -0.07651 0.49864 1.01378
 C83 C -0.08557 0.47079 1.04009
 C84 C -0.12390 0.47035 1.04210
 H85 H -0.32414 0.50841 0.95179
 H86 H -0.39153 0.50750 0.94817
 H87 H -0.37363 0.46970 1.06933
 H88 H -0.30565 0.47019 1.07293
 H89 H -0.16668 0.54707 0.97250
 H90 H -0.10001 0.54812 0.96959
 H91 H -0.06306 0.44882 1.05834
 H92 H -0.13014 0.44815 1.06212
 C93 C 0.31224 0.50454 0.98869
 C94 C 0.33437 0.50704 1.02290
 C95 C 0.37350 0.50561 1.02525
 C96 C 0.39142 0.50242 0.99317
 C97 C 0.36895 0.50062 0.95869
 C98 C 0.32991 0.50122 0.95663
 C99 C 0.27099 0.50526 0.98679
 N100 N 0.25234 0.48894 0.96052
 N101 N 0.21538 0.48886 0.95965
 C102 C 0.19555 0.50543 0.98479
 N103 N 0.21418 0.52195 1.01081
 N104 N 0.25114 0.52173 1.01190
 C105 C 0.15471 0.50501 0.98462
 C106 C 0.13171 0.53216 1.00115
 C107 C 0.09377 0.53082 1.00315
 C108 C 0.07802 0.50205 0.98910
 C109 C 0.10080 0.47507 0.97213
 C110 C 0.13872 0.47681 0.96951
 H111 H 0.32156 0.50945 1.04814
 H112 H 0.38960 0.50716 1.05230
 H113 H 0.38156 0.49809 0.93334
 H114 H 0.31347 0.49945 0.92983
 H115 H 0.14309 0.55441 1.01276
 H116 H 0.07675 0.55205 1.01621
 H117 H 0.08957 0.45217 0.96171
 H118 H 0.15588 0.45535 0.95685
 C119 C -0.01420 -0.30447 0.48664
 C120 C 0.02069 -0.32902 0.48454
 C121 C 0.02370 -0.36851 0.48696
 C122 C -0.00840 -0.38432 0.49068
 C123 C -0.04359 -0.35941 0.49189
 C124 C -0.04629 -0.32001 0.49036
 C125 C -0.01674 -0.26296 0.48550
 N126 N -0.04262 -0.24185 0.50282
 N127 N -0.04388 -0.20469 0.50289
 C128 C -0.01958 -0.18713 0.48529
 N129 N 0.00600 -0.20818 0.46767
 N130 N 0.00752 -0.24538 0.46792
 C131 C -0.01993 -0.14628 0.48617
 C132 C -0.00592 -0.12494 0.45794
 C133 C -0.00405 -0.08700 0.45975
 C134 C -0.01563 -0.06974 0.49010
 C135 C -0.02994 -0.09095 0.51824
 C136 C -0.03256 -0.12874 0.51601
 H137 H 0.04594 -0.31779 0.48184
 H138 H 0.05127 -0.38656 0.48580
 H139 H -0.06897 -0.37037 0.49476
 H140 H -0.07358 -0.30163 0.49183
 H141 H 0.00377 -0.13766 0.43449
 H142 H 0.00695 -0.07119 0.43764
 H143 H -0.03831 -0.07858 0.54234
 H144 H -0.04316 -0.14467 0.53834
 C145 C 0.01479 0.31431 0.51340
 C146 C 0.04476 0.33064 0.50298
 C147 C 0.04265 0.36991 0.50200
 C148 C 0.01022 0.39368 0.51073
 C149 C -0.01963 0.37731 0.52133
 C150 C -0.01721 0.33797 0.52299
 C151 C 0.01635 0.27302 0.51350
 N152 N -0.00582 0.25481 0.53361
 N153 N -0.00540 0.21795 0.53286
 C154 C 0.01700 0.19782 0.51175
 N155 N 0.03925 0.21600 0.49167
 N156 N 0.03904 0.25282 0.49265
 C157 C 0.01610 0.15732 0.50989
 C158 C 0.02784 0.14026 0.47942
 C159 C 0.02452 0.10278 0.47656
 C160 C 0.01020 0.08140 0.50455
 C161 C -0.00072 0.09818 0.53539
 C162 C 0.00203 0.13578 0.53795
 H163 H 0.06984 0.31307 0.49561
 H164 H 0.06601 0.38183 0.49359
 H165 H -0.04490 0.39495 0.52832
 H166 H -0.04082 0.32625 0.53099
 H167 H 0.03851 0.15627 0.45720
 H168 H 0.03244 0.09074 0.45214
 H169 H -0.01171 0.08221 0.55739
 H170 H -0.00702 0.14803 0.56188
 C171 C 0.50485 -0.01553 -0.31221
 C172 C 0.50553 0.01942 -0.33439
 C173 C 0.50433 0.02244 -0.37354
 C174 C 0.50340 -0.00975 -0.39141
 C175 C 0.50333 -0.04495 -0.36891
 C176 C 0.50353 -0.04764 -0.32985
 C177 C 0.50561 -0.01824 -0.27089
 N178 N 0.48871 -0.04343 -0.25167
 N179 N 0.48873 -0.04502 -0.21455
 C180 C 0.50606 -0.02180 -0.19515
 N181 N 0.52318 0.00313 -0.21436
 N182 N 0.52280 0.00501 -0.25148
 C183 C 0.50574 -0.02270 -0.15414
 C184 C 0.53488 -0.01136 -0.13182
 C185 C 0.53357 -0.00949 -0.09369
 C186 C 0.50276 -0.01827 -0.07709
 C187 C 0.47387 -0.03030 -0.09921
 C188 C 0.47561 -0.03298 -0.13730
 H189 H 0.50636 0.04469 -0.32154
 H190 H 0.50450 0.05004 -0.38967
 H191 H 0.50253 -0.07040 -0.38149
 H192 H 0.50317 -0.07499 -0.31334
 H193 H 0.55863 -0.00363 -0.14394
 H194 H 0.55638 -0.00044 -0.07723
 H195 H 0.44944 -0.03657 -0.08737
 H196 H 0.45263 -0.04157 -0.15395
 C197 C 0.49555 0.01316 0.31026
 C198 C 0.47321 0.04289 0.32444
 C199 C 0.47353 0.04056 0.36352
 C200 C 0.49535 0.00796 0.38892
 C201 C 0.51727 -0.02193 0.37466
 C202 C 0.51775 -0.01915 0.33578
 C203 C 0.49564 0.01543 0.26910
 N204 N 0.52696 -0.00247 0.25619
 N205 N 0.52683 -0.00140 0.21917
 C206 C 0.49524 0.01726 0.19356
 N207 N 0.46389 0.03520 0.20644
 N208 N 0.46417 0.03450 0.24348
 C209 C 0.49462 0.01667 0.15264
 C210 C 0.46016 0.01817 0.12868
 C211 C 0.46006 0.01465 0.09060
 C212 C 0.49420 0.01072 0.07564
 C213 C 0.52846 0.01033 0.09917
 C214 C 0.52874 0.01289 0.13747
 H215 H 0.45594 0.06816 0.30536
 H216 H 0.45635 0.06395 0.37384
 H217 H 0.53453 -0.04727 0.39366
 H218 H 0.53506 -0.04257 0.32560
 H219 H 0.43351 0.02079 0.13968
 H220 H 0.43342 0.01484 0.07278
 H221 H 0.55508 0.00709 0.08805
 H222 H 0.55566 0.01179 0.15529
 C223 C 0.48184 -0.31220 -0.01747
 C224 C 0.49261 -0.33178 -0.04675
 C225 C 0.49465 -0.37127 -0.04372
 C226 C 0.48669 -0.39209 -0.01103
 C227 C 0.47571 -0.37247 0.01813
 C228 C 0.47295 -0.33290 0.01479
 C229 C 0.48077 -0.27065 -0.01997
 N230 N 0.46021 -0.24940 0.00170
 N231 N 0.46020 -0.21234 0.00049
 C232 C 0.48097 -0.19500 -0.02224
 N233 N 0.50147 -0.21622 -0.04401
 N234 N 0.50124 -0.25325 -0.04302
 C235 C 0.48225 -0.15425 -0.02202
 C236 C 0.51272 -0.13974 -0.03399
 C237 C 0.51540 -0.10213 -0.03078
 C238 C 0.48721 -0.07802 -0.01632
 C239 C 0.45620 -0.09219 -0.00545
 C240 C 0.45383 -0.12991 -0.00808
 H241 H 0.49947 -0.31658 -0.07201
 H242 H 0.50335 -0.38568 -0.06657
 H243 H 0.46930 -0.38775 0.04360
 H244 H 0.46470 -0.31867 0.03790
 H245 H 0.53522 -0.15788 -0.04459
 H246 H 0.54002 -0.09221 -0.03863
 H247 H 0.43404 -0.07416 0.00569
 H248 H 0.42986 -0.14012 0.00113
 C249 C 0.51973 0.30245 0.01955
 C250 C 0.52909 0.32300 -0.01252
 C251 C 0.52646 0.36255 -0.01587
 C252 C 0.51510 0.38228 0.01309
 C253 C 0.50674 0.36159 0.04563
 C254 C 0.50870 0.32213 0.04868
 C255 C 0.52033 0.26101 0.02194
 N256 N 0.49971 0.24389 0.04502
 N257 N 0.49883 0.20705 0.04579
 C258 C 0.51878 0.18573 0.02372
 N259 N 0.53975 0.20275 0.00098
 N260 N 0.54041 0.23964 0.00002
 C261 C 0.51640 0.14533 0.02298
 C262 C 0.54380 0.12075 0.00809
 C263 C 0.54009 0.08353 0.00473
 C264 C 0.50873 0.07016 0.01582
 C265 C 0.48168 0.09446 0.03134
 C266 C 0.48569 0.13154 0.03526
 H267 H 0.53755 0.30869 -0.03551
 H268 H 0.53319 0.37773 -0.04122
 H269 H 0.49777 0.37608 0.06834
 H270 H 0.50148 0.30705 0.07381
 H271 H 0.56792 0.13042 -0.00139
 H272 H 0.56141 0.06532 -0.00722
 H273 H 0.45672 0.08530 0.03923
 H274 H 0.46393 0.14989 0.04655
 C275 C -0.31076 -0.01273 0.51228
 C276 C -0.33472 0.01919 0.52174
 C277 C -0.37386 0.02118 0.52015
 C278 C -0.38976 -0.00902 0.50976
 C279 C -0.36570 -0.04139 0.50121
 C280 C -0.32661 -0.04307 0.50210
 C281 C -0.26969 -0.01376 0.51225
 N282 N -0.24927 -0.03618 0.49134
 N283 N -0.21265 -0.03589 0.49025
 C284 C -0.19492 -0.01338 0.51026
 N285 N -0.21527 0.00874 0.53143
 N286 N -0.25192 0.00867 0.53229
 C287 C -0.15461 -0.01206 0.50840
 C288 C -0.13337 0.00189 0.53661
 C289 C -0.09582 0.00466 0.53427
 C290 C -0.07878 -0.00609 0.50351
 C291 C -0.09995 -0.02007 0.47526
 C292 C -0.13737 -0.02345 0.47791
 H293 H -0.32338 0.04308 0.52957
 H294 H -0.39173 0.04643 0.52701
 H295 H -0.37726 -0.06501 0.49295
 H296 H -0.30880 -0.06810 0.49483
 H297 H -0.14577 0.01069 0.56056
 H298 H -0.08003 0.01541 0.55647
 H299 H -0.08772 -0.02785 0.45088
 H300 H -0.15316 -0.03399 0.45556
 C301 C 0.30772 0.01489 0.48662
 C302 C 0.32448 0.04442 0.49747
 C303 C 0.36371 0.04175 0.49862
 C304 C 0.38708 0.00919 0.48961
 C305 C 0.37034 -0.02031 0.47870
 C306 C 0.33099 -0.01733 0.47689
 C307 C 0.26634 0.01734 0.48604
 N308 N 0.24775 -0.00410 0.46545
 N309 N 0.21066 -0.00250 0.46547
 C310 C 0.19068 0.02039 0.48630
 N311 N 0.20926 0.04185 0.50691
 N312 N 0.24631 0.04047 0.50666
 C313 C 0.14983 0.02097 0.48721
 C314 C 0.13245 0.03295 0.51742
 C315 C 0.09455 0.03093 0.51940
 C316 C 0.07310 0.01770 0.49077
 C317 C 0.09019 0.00668 0.46013
 C318 C 0.12819 0.00810 0.45845
 H319 H 0.30724 0.06966 0.50495
 H320 H 0.37587 0.06486 0.50728
 H321 H 0.38767 -0.04569 0.47152
 H322 H 0.31891 -0.04062 0.46856
 H323 H 0.14851 0.04274 0.54015
 H324 H 0.08225 0.03889 0.54369
 H325 H 0.07419 -0.00351 0.43765
 H326 H 0.14067 -0.00106 0.43468
 C327 C -0.01359 0.50683 1.31189
 C328 C -0.04644 0.52107 1.32698
 C329 C -0.04387 0.52215 1.36584
 C330 C -0.00832 0.50953 1.39012
 C331 C 0.02454 0.49608 1.37479
 C332 C 0.02191 0.49454 1.33622
 C333 C -0.01588 0.50411 1.27119
 N334 N 0.01318 0.48127 1.25918
 N335 N 0.01186 0.47889 1.22265
 C336 C -0.01853 0.49933 1.19647
 N337 N -0.04775 0.52218 1.20841
 N338 N -0.04652 0.52440 1.24510
 C339 C -0.01864 0.49748 1.15578
 C340 C -0.04378 0.52535 1.12735
 C341 C -0.04098 0.52517 1.08907
 C342 C -0.01333 0.49686 1.07871
 C343 C 0.01074 0.46830 1.10700
 C344 C 0.00816 0.46860 1.14507
 H345 H -0.07419 0.53071 1.30892
 H346 H -0.06968 0.53273 1.37687
 H347 H 0.05234 0.48605 1.39273
 H348 H 0.04782 0.48368 1.32547
 H349 H -0.06467 0.54802 1.13471
 H350 H -0.05956 0.54771 1.06766
 H351 H 0.03212 0.44610 1.09956
 H352 H 0.02769 0.44648 1.16618
 C353 C 0.01710 0.49599 0.69079
 C354 C 0.04628 0.50555 0.67195
 C355 C 0.04348 0.50680 0.63277
 C356 C 0.01112 0.49924 0.61168
 C357 C -0.01812 0.48993 0.63051
 C358 C -0.01500 0.48798 0.66968
 C359 C 0.01977 0.49442 0.73219
 N360 N -0.00115 0.47408 0.75181
 N361 N 0.00039 0.47315 0.78893
 C362 C 0.02271 0.49270 0.80800
 N363 N 0.04372 0.51306 0.78842
 N364 N 0.04240 0.51376 0.75125
 C365 C 0.02287 0.49255 0.84897
 C366 C 0.03435 0.52166 0.86669
 C367 C 0.03103 0.52300 0.90469
 C368 C 0.01683 0.49487 0.92565
 C369 C 0.00667 0.46512 0.90828
 C370 C 0.00952 0.46403 0.87036
 H371 H 0.07140 0.51172 0.68753
 H372 H 0.06637 0.51421 0.61891
 H373 H -0.04332 0.48384 0.61498
 H374 H -0.03804 0.48071 0.68338
 H375 H 0.04458 0.54412 0.85084
 H376 H 0.03856 0.54648 0.91741
 H377 H -0.00417 0.44303 0.92400
 H378 H 0.00080 0.44103 0.85767
   
