data_POSCAR
  _audit_creation_date              2014-09-24
  _audit_creation_method            'ToBaCCo'
  _symmetry_space_group_name_H-M    'P1'
  _symmetry_Int_Tables_number       1
  _symmetry_cell_setting            triclinic
  loop_
  _symmetry_equiv_pos_as_xyz
 x,y,z
_cell_length_a 35.7635
_cell_length_b 40.0130
_cell_length_c 36.7346
_cell_angle_alpha 89.938200
_cell_angle_beta 89.990700
_cell_angle_gamma 90.066600
loop_
  _atom_site_label
  _atom_site_type_symbol
  _atom_site_fract_x
  _atom_site_fract_y
  _atom_site_fract_z
C1 C 1.19866 0.26333 0.30645
 H2 H 1.19673 0.23639 0.30831
 C3 C 1.17669 0.28339 0.32910
 H4 H 1.15768 0.27194 0.34840
 C5 C 1.22593 0.31132 0.27929
 H6 H 1.24548 0.32220 0.26029
 C7 C 1.20455 0.33223 0.30140
 H8 H 1.20746 0.35910 0.29902
 N9 N 1.22223 0.27752 0.28174
 C10 C 1.23707 0.20392 0.19526
 H11 H 1.26726 0.20385 0.19346
 C12 C 1.21602 0.18351 0.17225
 H13 H 1.22999 0.16755 0.15273
 C14 C 1.18190 0.22460 0.22308
 H15 H 1.16868 0.24084 0.24267
 C16 C 1.15978 0.20455 0.20056
 H17 H 1.12961 0.20514 0.20316
 Zn18 Zn 1.25111 0.24926 0.25127
 N19 N 1.21986 0.22345 0.22051
 C20 C 1.27617 0.18699 0.27894
 N21 N 1.27998 0.22076 0.28154
 C22 C 1.30358 0.23475 0.30632
 C23 C 1.32543 0.21451 0.32894
 C24 C 1.29741 0.16587 0.30099
 C25 C 1.26498 0.29496 0.19551
 C26 C 1.28593 0.31559 0.17259
 C27 C 1.34228 0.29455 0.20073
 C28 C 1.32026 0.27428 0.22317
 N29 N 1.28229 0.27533 0.22064
 H30 H 1.25658 0.17629 0.25988
 H31 H 1.30558 0.26167 0.30829
 H32 H 1.34440 0.22596 0.34829
 H33 H 1.29424 0.13902 0.29837
 H34 H 1.23479 0.29495 0.19374
 H35 H 1.27187 0.33163 0.15316
 H36 H 1.37245 0.29405 0.20330
 H37 H 1.33355 0.25797 0.24267
 C38 C 1.17704 0.18362 0.17515
 C39 C 1.17955 0.31818 0.32636
 C40 C 1.32491 0.31559 0.17544
 C41 C 1.32245 0.17970 0.32609
 C42 C 0.69787 -0.23606 0.30529
 H43 H 0.69612 -0.26300 0.30716
 C44 C 0.67584 -0.21610 0.32796
 H45 H 0.65694 -0.22764 0.34731
 C46 C 0.72481 -0.18794 0.27805
 H47 H 0.74427 -0.17698 0.25901
 C48 C 0.70335 -0.16713 0.30018
 H49 H 0.70609 -0.14024 0.29779
 N50 N 0.72131 -0.22175 0.28054
 C51 C 0.73650 -0.29539 0.19438
 H52 H 0.76670 -0.29548 0.19269
 C53 C 0.71553 -0.31580 0.17132
 H54 H 0.72957 -0.33181 0.15188
 C55 C 0.68123 -0.27461 0.22194
 H56 H 0.66795 -0.25831 0.24143
 C57 C 0.65919 -0.29465 0.19936
 H58 H 0.62901 -0.29403 0.20184
 Zn59 Zn 0.75028 -0.24993 0.25022
 N60 N 0.71920 -0.27582 0.21952
 C61 C 0.77554 -0.31199 0.27816
 N62 N 0.77912 -0.27819 0.28063
 C63 C 0.80249 -0.26397 0.30545
 C64 C 0.82435 -0.28400 0.32825
 C65 C 0.79682 -0.33288 0.30042
 C66 C 0.76417 -0.20438 0.19440
 C67 C 0.78516 -0.18390 0.17138
 C68 C 0.84146 -0.20497 0.19960
 C69 C 0.81940 -0.22509 0.22214
 N70 N 0.78144 -0.22396 0.21961
 H71 H 0.75613 -0.32289 0.25906
 H72 H 0.80431 -0.23703 0.30730
 H73 H 0.84318 -0.27253 0.34767
 H74 H 0.79399 -0.35976 0.29806
 H75 H 0.73397 -0.20436 0.19263
 H76 H 0.77115 -0.16791 0.15188
 H77 H 0.87163 -0.20554 0.20217
 H78 H 0.83265 -0.24138 0.24169
 C79 C 0.67655 -0.31563 0.17407
 C80 C 0.67850 -0.18131 0.32519
 C81 C 0.82413 -0.18400 0.17424
 C82 C 0.82158 -0.31878 0.32552
 C83 C 0.69815 0.26478 -0.19620
 H84 H 0.69633 0.23784 -0.19429
 C85 C 0.67632 0.28481 -0.17339
 H86 H 0.65751 0.27333 -0.15392
 C87 C 0.72506 0.31281 -0.22361
 H88 H 0.74444 0.32372 -0.24275
 C89 C 0.70380 0.33370 -0.20134
 H90 H 0.70664 0.36057 -0.20375
 N91 N 0.72150 0.27900 -0.22109
 C92 C 0.73625 0.20506 -0.30733
 H93 H 0.76643 0.20504 -0.30927
 C94 C 0.71514 0.18441 -0.33005
 H95 H 0.72907 0.16835 -0.34950
 C96 C 0.68116 0.22578 -0.27941
 H97 H 0.66798 0.24210 -0.25987
 C98 C 0.65898 0.20550 -0.30164
 H99 H 0.62883 0.20602 -0.29888
 Zn100 Zn 0.75039 0.25072 -0.25155
 N101 N 0.71911 0.22471 -0.28214
 C102 C 0.77569 0.18858 -0.22361
 N103 N 0.77934 0.22237 -0.22115
 C104 C 0.80278 0.23653 -0.19634
 C105 C 0.82459 0.21643 -0.17353
 C106 C 0.79693 0.16763 -0.20135
 C107 C 0.76432 0.29644 -0.30741
 C108 C 0.78531 0.31714 -0.33024
 C109 C 0.84162 0.29605 -0.30196
 C110 C 0.81952 0.27574 -0.27964
 N111 N 0.78156 0.27678 -0.28226
 H112 H 0.75624 0.17771 -0.24270
 H113 H 0.80466 0.26346 -0.19446
 H114 H 0.84345 0.22787 -0.15411
 H115 H 0.79401 0.14076 -0.20371
 H116 H 0.73413 0.29641 -0.30924
 H117 H 0.77112 0.33316 -0.34963
 H118 H 0.87180 0.29544 -0.29916
 H119 H 0.83275 0.25940 -0.26012
 C120 C 0.67618 0.18441 -0.32695
 C121 C 0.67907 0.31960 -0.17616
 C122 C 0.82434 0.31720 -0.32727
 C123 C 0.82173 0.18165 -0.17623
 C124 C 1.19759 -0.23605 -0.19474
 H125 H 1.19581 -0.26298 -0.19281
 C126 C 1.17581 -0.21603 -0.17192
 H127 H 1.15706 -0.22750 -0.15239
 C128 C 1.22441 -0.18801 -0.22227
 H129 H 1.24374 -0.17711 -0.24147
 C130 C 1.20320 -0.16713 -0.19999
 H131 H 1.20599 -0.14026 -0.20243
 N132 N 1.22085 -0.22181 -0.21969
 C133 C 1.23544 -0.29570 -0.30562
 H134 H 1.26563 -0.29583 -0.30745
 C135 C 1.21432 -0.31618 -0.32846
 H136 H 1.22822 -0.33229 -0.34789
 C137 C 1.18035 -0.27474 -0.27786
 H138 H 1.16720 -0.25836 -0.25837
 C139 C 1.15815 -0.29486 -0.30022
 H140 H 1.12799 -0.29421 -0.29758
 Zn141 Zn 1.24957 -0.25009 -0.25004
 N142 N 1.21830 -0.27601 -0.28048
 C143 C 1.27485 -0.31207 -0.22195
 N144 N 1.27845 -0.27826 -0.21964
 C145 C 1.30185 -0.26393 -0.19493
 C146 C 1.32372 -0.28386 -0.17206
 C147 C 1.29615 -0.33286 -0.19961
 C148 C 1.26337 -0.20472 -0.30603
 C149 C 1.28435 -0.18430 -0.32912
 C150 C 1.34068 -0.20548 -0.30102
 C151 C 1.31862 -0.22553 -0.27842
 N152 N 1.28066 -0.22429 -0.28084
 H153 H 1.25541 -0.32304 -0.24097
 H154 H 1.30366 -0.23699 -0.19321
 H155 H 1.34259 -0.27231 -0.15272
 H156 H 1.29332 -0.35975 -0.20183
 H157 H 1.23317 -0.20462 -0.30770
 H158 H 1.27033 -0.16828 -0.34858
 H159 H 1.37086 -0.20609 -0.29853
 H160 H 1.33188 -0.24182 -0.25888
 C161 C 1.17535 -0.31596 -0.32549
 C162 C 1.17855 -0.18125 -0.17475
 C163 C 1.32333 -0.18448 -0.32635
 C164 C 1.32094 -0.31865 -0.17461
 C165 C 0.26355 0.20404 0.69460
 H166 H 0.23335 0.20394 0.69298
 C167 C 0.28444 0.18367 0.67146
 H168 H 0.27033 0.16769 0.65202
 C169 C 0.31892 0.22481 0.72209
 H170 H 0.33226 0.24107 0.74160
 C171 C 0.34088 0.20480 0.69943
 H172 H 0.37106 0.20542 0.70185
 N173 N 0.28094 0.22359 0.71974
 C174 C 0.19787 0.23523 0.80590
 H175 H 0.19611 0.26216 0.80780
 C176 C 0.17600 0.21516 0.82872
 H177 H 0.15724 0.22669 0.84816
 C178 C 0.22467 0.18726 0.77847
 H179 H 0.24402 0.17641 0.75930
 C180 C 0.20339 0.16631 0.80073
 H181 H 0.20623 0.13944 0.79823
 Zn182 Zn 0.24992 0.24940 0.75055
 N183 N 0.22116 0.22105 0.78101
 C184 C 0.18068 0.27401 0.72269
 N185 N 0.21863 0.27530 0.72004
 C186 C 0.23578 0.29500 0.69483
 C187 C 0.21466 0.31545 0.67195
 C188 C 0.15850 0.29411 0.70030
 C189 C 0.30241 0.26348 0.80555
 C190 C 0.32428 0.28353 0.82832
 C191 C 0.29647 0.33238 0.80070
 C192 C 0.27519 0.31147 0.77846
 N193 N 0.27889 0.27768 0.78085
 H194 H 0.16752 0.25763 0.74225
 H195 H 0.26597 0.29515 0.69297
 H196 H 0.22858 0.33155 0.65245
 H197 H 0.12834 0.29342 0.70296
 H198 H 0.30432 0.23654 0.80734
 H199 H 0.34322 0.27208 0.84765
 H200 H 0.29353 0.35925 0.79841
 H201 H 0.25565 0.32234 0.75947
 C202 C 0.17867 0.18036 0.82593
 C203 C 0.32343 0.18385 0.67413
 C204 C 0.32137 0.31831 0.82569
 C205 C 0.17570 0.31521 0.67494
 C206 C 0.76313 0.70420 0.69419
 H207 H 0.73294 0.70415 0.69234
 C208 C 0.78416 0.68360 0.67139
 H209 H 0.77016 0.66752 0.65197
 C210 C 0.81832 0.72499 0.72196
 H211 H 0.83156 0.74133 0.74146
 C212 C 0.84041 0.70476 0.69966
 H213 H 0.87057 0.70531 0.70233
 N214 N 0.78036 0.72387 0.71933
 C215 C 0.69677 0.73557 0.80518
 H216 H 0.69490 0.76250 0.80705
 C217 C 0.67486 0.71545 0.82792
 H218 H 0.65597 0.72694 0.84728
 C219 C 0.72387 0.68767 0.77793
 H220 H 0.74336 0.67685 0.75887
 C221 C 0.70256 0.66667 0.80011
 H222 H 0.70551 0.63981 0.79766
 Zn223 Zn 0.74917 0.74982 0.74997
 N224 N 0.72024 0.72146 0.78040
 C225 C 0.68003 0.77465 0.72190
 N226 N 0.71799 0.77577 0.71927
 C227 C 0.73523 0.79542 0.69407
 C228 C 0.71422 0.81599 0.67119
 C229 C 0.65795 0.79487 0.69951
 C230 C 0.80157 0.76404 0.80513
 C231 C 0.82353 0.78415 0.82778
 C232 C 0.79596 0.83294 0.79984
 C233 C 0.77457 0.81197 0.77774
 N234 N 0.77812 0.77818 0.78032
 H235 H 0.66678 0.75834 0.74146
 H236 H 0.76542 0.79546 0.69222
 H237 H 0.72823 0.83204 0.65171
 H238 H 0.62779 0.79431 0.70218
 H239 H 0.80338 0.73711 0.80709
 H240 H 0.84243 0.77273 0.84717
 H241 H 0.79314 0.85980 0.79736
 H242 H 0.75511 0.82282 0.75865
 C243 C 0.67766 0.68065 0.82519
 C244 C 0.82312 0.68366 0.67439
 C245 C 0.82081 0.81893 0.82492
 C246 C 0.67525 0.81593 0.67417
 C247 C 0.76419 0.20458 0.19352
 H248 H 0.73400 0.20445 0.19169
 C249 C 0.78528 0.18421 0.17057
 H250 H 0.77134 0.16817 0.15106
 C251 C 0.81933 0.22547 0.22134
 H252 H 0.83251 0.24178 0.24090
 C253 C 0.84148 0.20546 0.19888
 H254 H 0.87164 0.20612 0.20151
 N255 N 0.78137 0.22418 0.21874
 C256 C 0.69785 0.23596 0.30438
 H257 H 0.69618 0.26290 0.30625
 C258 C 0.67585 0.21596 0.32712
 H259 H 0.65704 0.22746 0.34652
 C260 C 0.72461 0.18790 0.27709
 H261 H 0.74401 0.17698 0.25801
 C262 C 0.70318 0.16704 0.29929
 H263 H 0.70587 0.14016 0.29691
 Zn264 Zn 0.75017 0.24998 0.24932
 N265 N 0.72119 0.22170 0.27959
 C266 C 0.68117 0.27459 0.22108
 N267 N 0.71913 0.27590 0.21866
 C268 C 0.73643 0.29562 0.19357
 C269 C 0.71546 0.31609 0.17059
 C270 C 0.65912 0.29469 0.19858
 C271 C 0.80220 0.26380 0.30466
 C272 C 0.82405 0.28372 0.32757
 C273 C 0.79681 0.33274 0.29974
 C274 C 0.77553 0.31195 0.27738
 N275 N 0.77898 0.27815 0.27980
 H276 H 0.66789 0.25818 0.24053
 H277 H 0.76663 0.29577 0.19189
 H278 H 0.72948 0.33222 0.15120
 H279 H 0.62894 0.29401 0.20107
 H280 H 0.80390 0.23686 0.30647
 H281 H 0.84277 0.27216 0.34703
 H282 H 0.79410 0.35962 0.29743
 H283 H 0.75622 0.32293 0.25823
 C284 C 0.67844 0.18119 0.32436
 C285 C 0.82424 0.18445 0.17352
 C286 C 0.82142 0.31851 0.32489
 C287 C 0.67648 0.31583 0.17336
 C288 C 0.26482 0.70517 0.19511
 H289 H 0.23463 0.70522 0.19331
 C290 C 0.28572 0.68454 0.17222
 H291 H 0.27161 0.66854 0.15280
 C292 C 0.32014 0.72574 0.22281
 H293 H 0.33348 0.74200 0.24234
 C294 C 0.34211 0.70546 0.20042
 H295 H 0.37228 0.70591 0.20303
 N296 N 0.28217 0.72476 0.22025
 C297 C 0.19863 0.73644 0.30620
 H298 H 0.19671 0.76336 0.30808
 C299 C 0.17674 0.71627 0.32891
 H300 H 0.15778 0.72764 0.34827
 C301 C 0.22583 0.68857 0.27896
 H302 H 0.24534 0.67777 0.25991
 C303 C 0.20452 0.66755 0.30113
 H304 H 0.20744 0.64070 0.29873
 Zn305 Zn 0.25103 0.75075 0.25093
 N306 N 0.22215 0.72236 0.28143
 C307 C 0.18180 0.77549 0.22288
 N308 N 0.21976 0.77665 0.22023
 C309 C 0.23695 0.79629 0.19498
 C310 C 0.21589 0.81681 0.17208
 C311 C 0.15967 0.79565 0.20047
 C312 C 0.30355 0.76523 0.30602
 C313 C 0.32532 0.78546 0.32874
 C314 C 0.29727 0.83412 0.30085
 C315 C 0.27611 0.81300 0.27871
 N316 N 0.27996 0.77923 0.28124
 H317 H 0.16859 0.75918 0.24247
 H318 H 0.26714 0.79638 0.19311
 H319 H 0.22986 0.83285 0.15256
 H320 H 0.12951 0.79505 0.20315
 H321 H 0.30558 0.73831 0.30795
 H322 H 0.34426 0.77400 0.34810
 H323 H 0.29405 0.86096 0.29830
 H324 H 0.25653 0.82372 0.25965
 C325 C 0.17959 0.68149 0.32617
 C326 C 0.32469 0.68447 0.17513
 C327 C 0.32227 0.82028 0.32599
 C328 C 0.17691 0.81670 0.17507
 N329 N 1.06659 0.03543 0.03947
 N330 N 1.09190 0.05867 0.04627
 N331 N 1.04046 -0.03487 0.06472
 N332 N 1.04729 -0.05807 0.08942
 N333 N 1.06651 -0.03486 0.03950
 N334 N 1.09179 -0.05807 0.04635
 N335 N 1.04055 0.03540 0.06468
 N336 N 1.04740 0.05860 0.08933
 C337 C 1.07921 0.07307 0.07717
 C338 C 1.07909 -0.07250 0.07728
 N339 N 0.93393 -0.03483 0.03924
 N340 N 0.90875 -0.05822 0.04585
 N341 N 0.96001 0.03539 0.06449
 N342 N 0.95333 0.05879 0.08894
 N343 N 0.93405 0.03543 0.03919
 N344 N 0.90897 0.05886 0.04573
 N345 N 0.95990 -0.03484 0.06452
 N346 N 0.95314 -0.05823 0.08902
 Mn347 Mn 1.00022 0.00027 0.06496
 C348 C 0.92145 -0.07275 0.07670
 C349 C 0.92171 0.07336 0.07656
 N350 N 1.06655 -0.03477 -0.03899
 N351 N 1.09176 -0.05807 -0.04559
 N352 N 1.04074 0.03550 -0.06436
 N353 N 1.04778 0.05871 -0.08901
 N354 N 1.06667 0.03547 -0.03903
 N355 N 1.09206 0.05865 -0.04575
 N356 N 1.04061 -0.03476 -0.06431
 N357 N 1.04746 -0.05805 -0.08885
 Mn358 Mn 1.06696 0.00032 0.00023
 C359 C 1.07914 -0.07254 -0.07647
 C360 C 1.07956 0.07312 -0.07670
 N361 N 0.93405 0.03551 -0.03930
 N362 N 0.90867 0.05861 -0.04619
 N363 N 0.95996 -0.03477 -0.06451
 N364 N 0.95295 -0.05791 -0.08920
 N365 N 0.93396 -0.03478 -0.03925
 N366 N 0.90855 -0.05791 -0.04605
 N367 N 0.96007 0.03553 -0.06455
 N368 N 0.95311 0.05865 -0.08931
 Mn369 Mn 0.93362 0.00034 -0.00002
 Mn370 Mn 1.00036 0.00038 -0.06480
 Cl371 Cl 1.00029 0.00033 0.00008
 C372 C 0.92127 0.07303 -0.07717
 C373 C 0.92111 -0.07232 -0.07699
 N374 N 1.06589 0.53455 0.54036
 N375 N 1.09093 0.55803 0.54699
 N376 N 1.03979 0.46422 0.56546
 N377 N 1.04643 0.44082 0.58996
 N378 N 1.06587 0.46429 0.54028
 N379 N 1.09100 0.44093 0.54695
 N380 N 1.03982 0.53446 0.56555
 N381 N 1.04637 0.55788 0.59002
 C382 C 1.07805 0.57251 0.57776
 C383 C 1.07816 0.42635 0.57774
 N384 N 0.93330 0.46419 0.53996
 N385 N 0.90796 0.44094 0.54664
 N386 N 0.95927 0.53443 0.56539
 N387 N 0.95242 0.55768 0.58997
 N388 N 0.93336 0.53449 0.54005
 N389 N 0.90815 0.55779 0.54669
 N390 N 0.95922 0.46416 0.56530
 N391 N 0.95224 0.44089 0.58990
 Mn392 Mn 0.99953 0.49932 0.56579
 C393 C 0.92048 0.42645 0.57759
 C394 C 0.92074 0.57220 0.57763
 N395 N 1.06623 0.46446 0.46180
 N396 N 1.09159 0.44131 0.45510
 N397 N 1.04040 0.53481 0.43651
 N398 N 1.04752 0.55800 0.41186
 N399 N 1.06628 0.53475 0.46188
 N400 N 1.09172 0.55791 0.45519
 N401 N 1.04036 0.46450 0.43642
 N402 N 1.04741 0.44136 0.41175
 Mn403 Mn 1.06645 0.49951 0.50109
 C404 C 1.07914 0.42693 0.42409
 C405 C 1.07931 0.57239 0.42420
 N406 N 0.93367 0.53465 0.46157
 N407 N 0.90841 0.55789 0.45483
 N408 N 0.95970 0.46448 0.43625
 N409 N 0.95287 0.44127 0.41160
 N410 N 0.93364 0.46441 0.46147
 N411 N 0.90838 0.44116 0.45468
 N412 N 0.95973 0.53474 0.43635
 N413 N 0.95291 0.55804 0.41176
 Mn414 Mn 0.93311 0.49944 0.50075
 Mn415 Mn 1.00004 0.49963 0.43601
 Cl416 Cl 0.99978 0.49947 0.50090
 C417 C 0.92113 0.57244 0.42399
 C418 C 0.92109 0.42677 0.42380
 N419 N 0.56544 0.03519 0.53883
 N420 N 0.59074 0.05845 0.54551
 N421 N 0.53931 -0.03505 0.56427
 N422 N 0.54607 -0.05829 0.58894
 N423 N 0.56532 -0.03511 0.53902
 N424 N 0.59051 -0.05840 0.54581
 N425 N 0.53943 0.03523 0.56408
 N426 N 0.54631 0.05851 0.58864
 C427 C 0.57810 0.07295 0.57638
 C428 C 0.57780 -0.07281 0.57675
 N429 N 0.43278 -0.03507 0.53887
 N430 N 0.40769 -0.05854 0.54547
 N431 N 0.45886 0.03521 0.56397
 N432 N 0.45213 0.05856 0.58846
 N433 N 0.43285 0.03519 0.53871
 N434 N 0.40769 0.05854 0.54534
 N435 N 0.45876 -0.03502 0.56414
 N436 N 0.45210 -0.05844 0.58863
 Mn437 Mn 0.49908 0.00010 0.56447
 C438 C 0.42045 -0.07304 0.57630
 C439 C 0.42044 0.07305 0.57617
 N440 N 0.56532 -0.03519 0.46054
 N441 N 0.59061 -0.05841 0.45391
 N442 N 0.53946 0.03503 0.43504
 N443 N 0.54641 0.05826 0.41040
 N444 N 0.56541 0.03505 0.46035
 N445 N 0.59072 0.05829 0.45363
 N446 N 0.53937 -0.03524 0.43523
 N447 N 0.54631 -0.05849 0.41066
 Mn448 Mn 0.56575 -0.00002 0.49968
 C449 C 0.57804 -0.07291 0.42302
 C450 C 0.57815 0.07273 0.42270
 N451 N 0.43282 0.03510 0.46021
 N452 N 0.40751 0.05828 0.45338
 N453 N 0.45870 -0.03525 0.43511
 N454 N 0.45167 -0.05840 0.41044
 N455 N 0.43270 -0.03520 0.46037
 N456 N 0.40727 -0.05833 0.45359
 N457 N 0.45880 0.03506 0.43493
 N458 N 0.45188 0.05823 0.41020
 Mn459 Mn 0.43240 0.00001 0.49955
 Mn460 Mn 0.49909 -0.00010 0.43470
 Cl461 Cl 0.49908 -0.00000 0.49959
 C462 C 0.42011 0.07268 0.42240
 C463 C 0.41981 -0.07278 0.42266
 N464 N 0.56655 0.53553 0.03919
 N465 N 0.59171 0.55894 0.04572
 N466 N 0.54074 0.46523 0.06462
 N467 N 0.54751 0.44179 0.08904
 N468 N 0.56663 0.46527 0.03925
 N469 N 0.59175 0.44186 0.04570
 N470 N 0.54065 0.53546 0.06456
 N471 N 0.54745 0.55881 0.08904
 C472 C 0.57908 0.57340 0.07661
 C473 C 0.57912 0.42728 0.07657
 N474 N 0.43408 0.46496 0.03993
 N475 N 0.40894 0.44159 0.04678
 N476 N 0.46010 0.53531 0.06500
 N477 N 0.45338 0.55857 0.08960
 N478 N 0.43397 0.53527 0.03987
 N479 N 0.40874 0.55851 0.04670
 N480 N 0.46020 0.46504 0.06506
 N481 N 0.45357 0.44173 0.08970
 Mn482 Mn 0.50043 0.50026 0.06517
 C483 C 0.42180 0.42716 0.07763
 C484 C 0.42155 0.57299 0.07752
 N485 N 0.56640 0.46527 -0.03924
 N486 N 0.59185 0.44225 -0.04618
 N487 N 0.54021 0.53550 -0.06447
 N488 N 0.54709 0.55865 -0.08924
 N489 N 0.56629 0.53555 -0.03929
 N490 N 0.59162 0.55873 -0.04623
 N491 N 0.54031 0.46520 -0.06441
 N492 N 0.54730 0.44213 -0.08917
 Mn493 Mn 0.56685 0.50041 -0.00002
 C494 C 0.57922 0.42783 -0.07710
 C495 C 0.57894 0.57312 -0.07716
 N496 N 0.43369 0.53523 -0.03863
 N497 N 0.40838 0.55846 -0.04521
 N498 N 0.45965 0.46503 -0.06397
 N499 N 0.45268 0.44177 -0.08852
 N500 N 0.43378 0.46498 -0.03857
 N501 N 0.40850 0.44168 -0.04515
 N502 N 0.45956 0.53529 -0.06403
 N503 N 0.45256 0.55856 -0.08860
 Mn504 Mn 0.43350 0.50011 0.00064
 Mn505 Mn 0.49992 0.50026 -0.06459
 Cl506 Cl 0.50017 0.50026 0.00029
 C507 C 0.42087 0.57297 -0.07616
 C508 C 0.42100 0.42724 -0.07609
 C509 C 1.15504 0.16145 0.15295
 C510 C 1.13704 0.14220 0.13477
 C511 C 1.11644 0.11890 0.11404
 C512 C 1.09924 0.09834 0.09688
 C513 C 1.15330 0.66176 0.65257
 C514 C 1.13531 0.64237 0.63462
 C515 C 1.11482 0.61885 0.61417
 C516 C 1.09778 0.59806 0.59723
 C517 C 0.65411 0.16199 0.65119
 C518 C 0.63605 0.14255 0.63329
 C519 C 0.61539 0.11904 0.61287
 C520 C 0.59815 0.09835 0.59592
 C521 C 0.65463 0.66219 0.15186
 C522 C 0.63669 0.64290 0.13373
 C523 C 0.61617 0.61950 0.11310
 C524 C 0.59904 0.59883 0.09608
 C525 C 0.84606 -0.16175 0.15206
 C526 C 0.86397 -0.14241 0.13392
 C527 C 0.88445 -0.11895 0.11327
 C528 C 0.90154 -0.09823 0.09622
 C529 C 0.84432 0.33761 0.65278
 C530 C 0.86239 0.35700 0.63475
 C531 C 0.88307 0.38044 0.61420
 C532 C 0.90035 0.40109 0.59717
 C533 C 0.34525 -0.16224 0.65148
 C534 C 0.36316 -0.14287 0.63337
 C535 C 0.38360 -0.11936 0.61279
 C536 C 0.40064 -0.09859 0.59578
 C537 C 0.34678 0.33799 0.15332
 C538 C 0.36463 0.35742 0.13519
 C539 C 0.38501 0.38095 0.11449
 C540 C 0.40201 0.40169 0.09734
 C541 C 0.84409 0.16016 -0.15353
 C542 C 0.86245 0.14134 -0.13513
 C543 C 0.88347 0.11839 -0.11427
 C544 C 0.90098 0.09808 -0.09703
 C545 C 0.84402 0.65980 0.34816
 C546 C 0.86243 0.64099 0.36647
 C547 C 0.88348 0.61802 0.38719
 C548 C 0.90096 0.59762 0.40430
 C549 C 0.34283 0.16005 0.34651
 C550 C 0.36128 0.14120 0.36480
 C551 C 0.38237 0.11820 0.38551
 C552 C 0.39989 0.09782 0.40264
 C553 C 0.34341 0.66004 -0.15192
 C554 C 0.36187 0.64132 -0.13357
 C555 C 0.38299 0.61843 -0.11284
 C556 C 0.40057 0.59810 -0.09576
 C557 C 1.15617 -0.15986 -0.15211
 C558 C 1.13780 -0.14107 -0.13380
 C559 C 1.11678 -0.11812 -0.11311
 C560 C 1.09930 -0.09773 -0.09606
 C561 C 1.15693 0.33965 0.34878
 C562 C 1.13836 0.35848 0.36691
 C563 C 1.11712 0.38146 0.38745
 C564 C 1.09948 0.40182 0.40445
 C565 C 0.65583 -0.15997 0.34765
 C566 C 0.63723 -0.14124 0.36583
 C567 C 0.61598 -0.11835 0.38640
 C568 C 0.59834 -0.09802 0.40341
 C569 C 0.65665 0.34103 -0.15348
 C570 C 0.63824 0.35978 -0.13509
 C571 C 0.61713 0.38263 -0.11424
 C572 C 0.59956 0.40287 -0.09699
 C573 C 1.15736 0.16007 -0.15267
 C574 C 1.13882 0.14135 -0.13432
 C575 C 1.11759 0.11849 -0.11356
 C576 C 1.09994 0.09819 -0.09642
 C577 C 1.15706 0.65991 0.34868
 C578 C 1.13856 0.64101 0.36688
 C579 C 1.11736 0.61796 0.38750
 C580 C 1.09972 0.59755 0.40455
 C581 C 0.65584 0.15982 0.34693
 C582 C 0.63728 0.14107 0.36521
 C583 C 0.61606 0.11818 0.38590
 C584 C 0.59844 0.09785 0.40300
 C585 C 0.65636 0.66029 -0.15342
 C586 C 0.63787 0.64149 -0.13507
 C587 C 0.61674 0.61855 -0.11426
 C588 C 0.59918 0.59821 -0.09704
 C589 C 0.84340 -0.15957 -0.15262
 C590 C 0.86194 -0.14073 -0.13443
 C591 C 0.88315 -0.11776 -0.11380
 C592 C 0.90077 -0.09741 -0.09672
 C593 C 0.84387 0.33981 0.34763
 C594 C 0.86231 0.35851 0.36603
 C595 C 0.88339 0.38136 0.38685
 C596 C 0.90090 0.40167 0.40403
 C597 C 0.34255 -0.16008 0.34653
 C598 C 0.36092 -0.14124 0.36492
 C599 C 0.38195 -0.11825 0.38574
 C600 C 0.39948 -0.09789 0.40291
 C601 C 0.34379 0.33976 -0.15169
 C602 C 0.36219 0.35860 -0.13339
 C603 C 0.38324 0.38161 -0.11271
 C604 C 0.40075 0.40203 -0.09566
 C605 C 1.15490 -0.16104 0.15297
 C606 C 1.13689 -0.14173 0.13486
 C607 C 1.11630 -0.11837 0.11418
 C608 C 1.09910 -0.09778 0.09702
 C609 C 1.15365 0.33743 0.65290
 C610 C 1.13565 0.35676 0.63487
 C611 C 1.11511 0.38020 0.61431
 C612 C 1.09801 0.40090 0.59729
 C613 C 0.65329 -0.16172 0.65213
 C614 C 0.63535 -0.14233 0.63408
 C615 C 0.61483 -0.11887 0.61349
 C616 C 0.59771 -0.09819 0.59641
 C617 C 0.65455 0.33810 0.15129
 C618 C 0.63662 0.35749 0.13329
 C619 C 0.61611 0.38099 0.11282
 C620 C 0.59900 0.40175 0.09592
 C621 C 0.84626 0.16227 0.15146
 C622 C 0.86425 0.14297 0.13344
 C623 C 0.88478 0.11954 0.11294
 C624 C 0.90188 0.09883 0.09599
 C625 C 0.84509 0.66127 0.65247
 C626 C 0.86307 0.64184 0.63454
 C627 C 0.88363 0.61833 0.61409
 C628 C 0.90078 0.59762 0.59714
 C629 C 0.34525 0.16170 0.65182
 C630 C 0.36309 0.14244 0.63359
 C631 C 0.38349 0.11908 0.61284
 C632 C 0.40055 0.09844 0.59573
 C633 C 0.34651 0.66205 0.15305
 C634 C 0.36432 0.64262 0.13496
 C635 C 0.38468 0.61910 0.11430
 C636 C 0.40169 0.59840 0.09718
   
