data_POSCAR
  _audit_creation_date              2014-09-24
  _audit_creation_method            'ToBaCCo'
  _symmetry_space_group_name_H-M    'P1'
  _symmetry_Int_Tables_number       1
  _symmetry_cell_setting            triclinic
  loop_
  _symmetry_equiv_pos_as_xyz
 x,y,z
_cell_length_a 25.4417
_cell_length_b 25.0514
_cell_length_c 23.9981
_cell_angle_alpha 89.511500
_cell_angle_beta 90.077600
_cell_angle_gamma 88.861000
loop_
  _atom_site_label
  _atom_site_type_symbol
  _atom_site_fract_x
  _atom_site_fract_y
  _atom_site_fract_z
O1 O 0.09231 0.30133 -0.05234
 O2 O -0.02102 0.32886 0.04064
 O3 O 0.08318 0.34089 0.04641
 O4 O -0.01013 0.30038 -0.06187
 O5 O -0.00658 0.21823 -0.02740
 O6 O 0.08491 0.25905 0.08164
 O7 O -0.01545 0.24633 0.07363
 O8 O 0.09780 0.21989 -0.01633
 Cu9 Cu 0.03573 0.32631 -0.00977
 Cu10 Cu 0.04101 0.22744 0.03056
 C11 C 0.11537 0.25602 -0.04808
 C12 C -0.03855 0.29155 0.07157
 C13 C 0.10101 0.30669 0.08121
 C14 C -0.02572 0.25271 -0.06134
 O15 O 0.51080 0.80882 0.43912
 O16 O 0.39921 0.81314 0.53624
 O17 O 0.49985 0.82504 0.54678
 O18 O 0.40727 0.79570 0.43289
 O19 O 0.41368 0.71022 0.45615
 O20 O 0.51539 0.73855 0.55896
 O21 O 0.41497 0.72892 0.56063
 O22 O 0.51894 0.72192 0.45450
 Cu23 Cu 0.45403 0.81947 0.48627
 Cu24 Cu 0.46700 0.71586 0.50805
 C25 C 0.53465 0.76458 0.43164
 C26 C 0.38790 0.77186 0.56446
 C27 C 0.52378 0.78663 0.57156
 C28 C 0.39134 0.74817 0.42935
 O29 O 1.01610 0.69876 0.05604
 O30 O 0.93373 0.67136 -0.06726
 O31 O 1.02717 0.70681 -0.05301
 O32 O 0.91604 0.67153 0.03920
 O33 O 0.90010 0.75761 0.05047
 O34 O 0.99153 0.78763 -0.06205
 O35 O 0.89883 0.75246 -0.06015
 O36 O 1.00172 0.78447 0.03914
 Cu37 Cu 0.97602 0.67815 -0.00496
 Cu38 Cu 0.94366 0.77819 -0.00638
 C39 C 1.02764 0.74724 0.06336
 C40 C 0.90136 0.70732 -0.08369
 C41 C 1.02719 0.75369 -0.07431
 C42 C 0.88923 0.70944 0.06063
 O43 O 0.48220 0.17388 0.46636
 O44 O 0.58506 0.19725 0.57091
 O45 O 0.48307 0.20941 0.56850
 O46 O 0.58636 0.17271 0.46556
 O47 O 0.58827 0.25730 0.43915
 O48 O 0.48697 0.29330 0.53958
 O49 O 0.58590 0.28230 0.54560
 O50 O 0.48518 0.25819 0.43911
 Cu51 Cu 0.53380 0.17966 0.52004
 Cu52 Cu 0.53746 0.28082 0.48733
 C53 C 0.46542 0.21212 0.43584
 C54 C 0.60146 0.24424 0.57732
 C55 C 0.46849 0.25825 0.57192
 C56 C 0.60516 0.20963 0.43525
 O57 O 0.75820 0.04644 -0.06954
 O58 O 0.71665 -0.04696 0.03659
 O59 O 0.75634 0.05455 0.04200
 O60 O 0.74203 -0.05106 -0.06627
 O61 O 0.82400 -0.07743 -0.04868
 O62 O 0.83705 0.02413 0.05616
 O63 O 0.79790 -0.07368 0.05529
 O64 O 0.84095 0.02169 -0.05527
 Cu65 Cu 0.73527 0.00456 -0.01297
 Cu66 Cu 0.83275 -0.02755 0.00443
 C67 C 0.80607 0.04778 -0.08318
 C68 C 0.74837 -0.07808 0.06209
 C69 C 0.80072 0.05741 0.06663
 C70 C 0.78229 -0.08056 -0.07704
 O71 O 0.18975 0.52268 0.44312
 O72 O 0.22495 0.44274 0.56648
 O73 O 0.18553 0.53897 0.55043
 O74 O 0.23829 0.43171 0.45946
 O75 O 0.31617 0.46898 0.46280
 O76 O 0.26339 0.57649 0.55072
 O77 O 0.30166 0.48241 0.57093
 O78 O 0.26786 0.55965 0.44316
 Cu79 Cu 0.20194 0.48030 0.50474
 Cu80 Cu 0.29516 0.52533 0.50692
 C81 C 0.22253 0.55421 0.42167
 C82 C 0.26859 0.44974 0.59044
 C83 C 0.21583 0.57580 0.56632
 C84 C 0.28640 0.43279 0.44518
 O85 O 0.28866 1.06033 0.06714
 O86 O 0.30059 0.93900 -0.02071
 O87 O 0.32373 1.03980 -0.03342
 O88 O 0.27792 0.95806 0.08331
 O89 O 0.19580 0.96886 0.05447
 O90 O 0.24191 1.05511 -0.06039
 O91 O 0.21818 0.95067 -0.04792
 O92 O 0.20478 1.06626 0.04358
 Cu93 Cu 0.30600 0.99819 0.02645
 Cu94 Cu 0.20817 1.01234 -0.00747
 C95 C 0.24333 1.08245 0.07196
 C96 C 0.26116 0.92420 -0.04907
 C97 C 0.29096 1.06232 -0.06616
 C98 C 0.22922 0.94998 0.08926
 O99 O 0.73050 0.55725 0.54480
 O100 O 0.75603 0.44700 0.44462
 O101 O 0.73331 0.54706 0.43716
 O102 O 0.77523 0.46209 0.55311
 O103 O 0.69460 0.43242 0.56343
 O104 O 0.65063 0.52421 0.44949
 O105 O 0.67358 0.42310 0.45622
 O106 O 0.65053 0.52695 0.55815
 Cu107 Cu 0.75690 0.50532 0.49462
 Cu108 Cu 0.65955 0.47376 0.50787
 C109 C 0.68539 0.56082 0.56790
 C110 C 0.71700 0.41860 0.43111
 C111 C 0.68533 0.55088 0.42365
 C112 C 0.74263 0.43354 0.57865
 C113 C 0.26210 0.22388 0.21615
 C114 C 0.24426 0.27786 0.21806
 C115 C 0.26340 0.31147 0.25921
 C116 C 0.29969 0.29296 0.29909
 C117 C 0.31878 0.23946 0.29696
 C118 C 0.29956 0.20567 0.25530
 H119 H 0.31348 0.16454 0.25357
 H120 H 0.24971 0.35276 0.26031
 C121 C 0.71633 0.77461 0.20045
 C122 C 0.73840 0.72242 0.19423
 C123 C 0.72494 0.68220 0.23256
 C124 C 0.69101 0.69287 0.27693
 C125 C 0.67322 0.74554 0.28622
 C126 C 0.68496 0.78564 0.24750
 H127 H 0.66868 0.82553 0.25341
 H128 H 0.74015 0.64182 0.22733
 C129 C 0.81046 0.26329 0.19959
 C130 C 0.79441 0.20942 0.20281
 C131 C 0.76151 0.19320 0.24641
 C132 C 0.74272 0.22929 0.28647
 C133 C 0.75765 0.28339 0.28222
 C134 C 0.79118 0.29943 0.23934
 H135 H 0.80232 0.34096 0.23706
 H136 H 0.74995 0.15180 0.24863
 C137 C 0.17825 0.75344 0.19638
 C138 C 0.20926 0.79583 0.21614
 C139 C 0.24376 0.78705 0.26077
 C140 C 0.24402 0.73887 0.29083
 C141 C 0.21008 0.69748 0.27425
 C142 C 0.17928 0.70487 0.22595
 H143 H 0.15501 0.67259 0.21187
 H144 H 0.26768 0.81963 0.27501
 C145 C 0.75141 0.24786 0.71365
 C146 C 0.78579 0.29106 0.72226
 C147 C 0.82613 0.28532 0.76225
 C148 C 0.83395 0.23710 0.79128
 C149 C 0.80561 0.19177 0.77520
 C150 C 0.76345 0.19780 0.73780
 H151 H 0.73868 0.16407 0.72943
 H152 H 0.85039 0.31886 0.77251
 C153 C 0.25273 0.74675 0.71325
 C154 C 0.20569 0.71770 0.71369
 C155 C 0.17131 0.72437 0.75893
 C156 C 0.18315 0.75874 0.80295
 C157 C 0.23303 0.78269 0.80534
 C158 C 0.26740 0.77585 0.76023
 H159 H 0.30416 0.79706 0.75969
 H160 H 0.13391 0.70447 0.75917
 C161 C 0.29200 0.30862 0.73767
 C162 C 0.33184 0.27105 0.72336
 C163 C 0.33601 0.22303 0.75349
 C164 C 0.30337 0.21260 0.79927
 C165 C 0.26434 0.25113 0.81454
 C166 C 0.25865 0.29814 0.78263
 H167 H 0.22921 0.32795 0.79409
 H168 H 0.36670 0.19429 0.74276
 C169 C 0.69606 0.71326 0.70038
 C170 C 0.67210 0.76440 0.70821
 C171 C 0.69519 0.79926 0.74637
 C172 C 0.74046 0.78453 0.77650
 C173 C 0.76277 0.73266 0.77017
 C174 C 0.74050 0.69831 0.73164
 H175 H 0.75686 0.65829 0.72715
 H176 H 0.67945 0.83946 0.75103
 N177 N 0.19028 0.17611 0.16791
 N178 N 0.18540 0.13843 0.12611
 C179 C 0.23414 0.12343 0.11003
 C180 C 0.27100 0.15204 0.14005
 C181 C 0.24168 0.18579 0.17467
 H182 H 0.31339 0.14871 0.13732
 H183 H 0.15976 0.18796 0.19416
 H184 H 0.14985 0.12227 0.11337
 N185 N 0.62708 0.65296 0.66424
 N186 N 0.62487 0.61200 0.63004
 C187 C 0.67245 0.60447 0.60630
 C188 C 0.70631 0.64241 0.62583
 C189 C 0.67592 0.67255 0.66233
 H190 H 0.74771 0.64627 0.61665
 H191 H 0.59619 0.66593 0.68971
 H192 H 0.59158 0.58895 0.62420
 N193 N 0.66663 0.82960 0.13232
 N194 N 0.67502 0.87205 0.09599
 C195 C 0.72687 0.88209 0.09587
 C196 C 0.75259 0.84671 0.13253
 C197 C 0.71325 0.81421 0.15422
 H198 H 0.79354 0.84737 0.14422
 H199 H 0.62985 0.81428 0.14208
 H200 H 0.64550 0.89161 0.07288
 N201 N 0.29835 0.40742 0.72964
 N202 N 0.29530 0.44420 0.68989
 C203 C 0.27987 0.42084 0.64246
 C204 C 0.27291 0.36690 0.65209
 C205 C 0.28560 0.36001 0.70784
 H206 H 0.26171 0.33678 0.62252
 H207 H 0.31079 0.41440 0.77038
 H208 H 0.30311 0.48458 0.69544
 N209 N 0.84063 0.33391 0.13320
 N210 N 0.88411 0.34302 0.09926
 C211 C 0.91528 0.29908 0.10200
 C212 C 0.89278 0.26153 0.13717
 C213 C 0.84599 0.28454 0.15580
 H214 H 0.90996 0.22344 0.14911
 H215 H 0.80998 0.36146 0.13982
 H216 H 0.89004 0.37761 0.07569
 N217 N 0.25861 0.78701 0.61925
 N218 N 0.29500 0.79634 0.58153
 C219 C 0.34038 0.77289 0.59844
 C220 C 0.33294 0.74768 0.64932
 C221 C 0.28037 0.75780 0.66089
 H222 H 0.36159 0.72596 0.67453
 H223 H 0.21992 0.80164 0.61712
 H224 H 0.28853 0.81772 0.54451
 N225 N 0.15039 0.79568 0.10544
 N226 N 0.10525 0.79795 0.07288
 C227 C 0.07284 0.76029 0.09197
 C228 C 0.09544 0.73442 0.13782
 C229 C 0.14300 0.75991 0.14685
 H230 H 0.07815 0.70321 0.16281
 H231 H 0.18459 0.81590 0.09578
 H232 H 0.10059 0.82126 0.03682
 N233 N 0.66900 0.29959 0.69279
 N234 N 0.63100 0.29978 0.65539
 C235 C 0.63656 0.25595 0.62382
 C236 C 0.67997 0.22612 0.64194
 C237 C 0.70030 0.25623 0.68495
 H238 H 0.69634 0.18997 0.62402
 H239 H 0.67427 0.32973 0.72198
 H240 H 0.60196 0.32965 0.65148
 N241 N 0.86819 0.12003 0.80685
 N242 N 0.86922 0.08372 0.84714
 C243 C 0.82025 0.07913 0.86733
 C244 C 0.78626 0.11260 0.83745
 C245 C 0.81846 0.13898 0.80041
 H246 H 0.74548 0.12187 0.84669
 H247 H 0.90170 0.13476 0.78742
 H248 H 0.90336 0.06497 0.86249
 N249 N 0.15326 0.62804 0.31613
 N250 N 0.15632 0.59040 0.35484
 C251 C 0.20645 0.58571 0.37240
 C252 C 0.23708 0.62066 0.34215
 C253 C 0.20140 0.64834 0.30805
 H254 H 0.27869 0.62731 0.34726
 H255 H 0.11798 0.64182 0.29835
 H256 H 0.12393 0.57059 0.37109
 N257 N 0.30005 0.80618 0.87660
 N258 N 0.30805 0.84337 0.91426
 C259 C 0.26542 0.87594 0.91619
 C260 C 0.22846 0.85842 0.87817
 C261 C 0.25193 0.81375 0.85383
 H262 H 0.19163 0.87804 0.86763
 H263 H 0.32770 0.77665 0.86590
 H264 H 0.34268 0.84688 0.93725
 N265 N 0.69055 0.35259 0.30358
 N266 N 0.67999 0.38755 0.34289
 C267 C 0.71828 0.38471 0.38166
 C268 C 0.75505 0.34572 0.36674
 C269 C 0.73494 0.32567 0.31737
 H270 H 0.79030 0.33310 0.38886
 H271 H 0.66718 0.34670 0.26843
 H272 H 0.64715 0.41326 0.34286
 N273 N 0.24863 0.22787 0.91502
 N274 N 0.20874 0.22736 0.95010
 C275 C 0.16554 0.24640 0.92367
 C276 C 0.17820 0.25948 0.86928
 C277 C 0.23118 0.24560 0.86497
 H278 H 0.15255 0.27632 0.83741
 H279 H 0.28726 0.21750 0.92595
 H280 H 0.21165 0.21611 0.99203
 N281 N 0.66731 0.74587 0.38886
 N282 N 0.63004 0.74845 0.42684
 C283 C 0.58467 0.76325 0.40187
 C284 C 0.59318 0.77089 0.34530
 C285 C 0.64635 0.75874 0.33884
 H286 H 0.56415 0.77848 0.31306
 H287 H 0.70569 0.73214 0.39660
 H288 H 0.63529 0.73823 0.46881
 N289 N 0.84464 0.67663 0.78497
 N290 N 0.88029 0.66824 0.82435
 C291 C 0.86701 0.69795 0.86873
 C292 C 0.82059 0.72547 0.85783
 C293 C 0.80806 0.71194 0.80367
 H294 H 0.80006 0.75282 0.88525
 H295 H 0.84686 0.66006 0.74524
 H296 H 0.91445 0.64491 0.81957
 N297 N 0.35352 0.16696 0.36022
 N298 N 0.39250 0.15919 0.39605
 C299 C 0.42138 0.20359 0.39748
 C300 C 0.40013 0.24102 0.36087
 C301 C 0.35654 0.21664 0.33844
 H302 H 0.41531 0.27998 0.35188
 H303 H 0.32469 0.13898 0.35196
 H304 H 0.39832 0.12448 0.41987
 N305 N 0.81761 0.83484 0.80967
 N306 N 0.82836 0.86924 0.84910
 C307 C 0.78342 0.88321 0.87533
 C308 C 0.74187 0.85678 0.85138
 C309 C 0.76573 0.82545 0.81069
 H310 H 0.70100 0.85771 0.86382
 H311 H 0.84567 0.81721 0.78354
 H312 H 0.86608 0.88253 0.85808
 N313 N 0.35722 0.36177 0.33979
 N314 N 0.35354 0.39881 0.37851
 C315 C 0.30771 0.39326 0.40581
 C316 C 0.28145 0.35021 0.38401
 C317 C 0.31469 0.33075 0.34283
 H318 H 0.24203 0.33752 0.39355
 H319 H 0.38675 0.35999 0.30963
 H320 H 0.38039 0.42942 0.38349
 N321 N 0.36434 0.14880 0.84740
 N322 N 0.36088 0.10685 0.88553
 C323 C 0.30956 0.09650 0.89260
 C324 C 0.27942 0.12991 0.85816
 C325 C 0.31510 0.16345 0.83223
 H326 H 0.23694 0.13270 0.85614
 H327 H 0.39901 0.16829 0.83734
 H328 H 0.39273 0.09000 0.90738
 N329 N 0.62265 0.63869 0.32464
 N330 N 0.62092 0.60136 0.36382
 C331 C 0.67054 0.58721 0.37780
 C332 C 0.70535 0.61613 0.34569
 C333 C 0.67338 0.64853 0.31285
 H334 H 0.74782 0.61619 0.34846
 H335 H 0.58962 0.65810 0.30752
 H336 H 0.58640 0.58744 0.38188
 N337 N 0.11443 0.82152 0.83557
 N338 N 0.06911 0.81912 0.86773
 C339 C 0.06724 0.76977 0.89031
 C340 C 0.11102 0.73993 0.87372
 C341 C 0.13992 0.77417 0.84031
 H342 H 0.11985 0.69835 0.88302
 H343 H 0.12346 0.85280 0.80840
 H344 H 0.04155 0.85030 0.87188
 N345 N 0.71407 0.15953 0.35533
 N346 N 0.67744 0.15349 0.39385
 C347 C 0.64760 0.19836 0.39539
 C348 C 0.66569 0.23416 0.35612
 C349 C 0.70844 0.20851 0.33174
 H350 H 0.64867 0.27291 0.34672
 H351 H 0.74308 0.13081 0.34633
 H352 H 0.67386 0.11970 0.41926
 N353 N 0.84999 0.21147 0.89030
 N354 N 0.88815 0.21242 0.92730
 C355 C 0.92884 0.23846 0.90511
 C356 C 0.91615 0.25509 0.85123
 C357 C 0.86605 0.23545 0.84296
 H358 H 0.93994 0.27748 0.82231
 H359 H 0.81299 0.19593 0.89828
 H360 H 0.88524 0.19767 0.96801
 N361 N 0.25891 0.72212 0.39248
 N362 N 0.29856 0.72255 0.42793
 C363 C 0.34198 0.73792 0.40064
 C364 C 0.32969 0.74795 0.34536
 C365 C 0.27679 0.73572 0.34161
 H366 H 0.35536 0.76192 0.31264
 H367 H 0.22028 0.71326 0.40332
 H368 H 0.29542 0.71429 0.47053
 N369 N 0.15625 0.87661 0.18960
 N370 N 0.16116 0.91693 0.15433
 C371 C 0.21127 0.91773 0.13645
 C372 C 0.23994 0.87698 0.16235
 C373 C 0.20307 0.85081 0.19434
 H374 H 0.27962 0.86358 0.15292
 H375 H 0.12053 0.86440 0.20635
 H376 H 0.12995 0.94120 0.14022
 N377 N 0.79371 0.39045 0.71067
 N378 N 0.78244 0.42751 0.67277
 C379 C 0.76077 0.40413 0.62827
 C380 C 0.75927 0.34976 0.63738
 C381 C 0.77985 0.34248 0.69084
 H382 H 0.74555 0.31997 0.60874
 H383 H 0.80949 0.39851 0.74982
 H384 H 0.78860 0.46828 0.67788
 N385 N 0.85749 0.13992 0.17093
 N386 N 0.85807 0.09911 0.13662
 C387 C 0.81258 0.09904 0.10770
 C388 C 0.78168 0.14243 0.12414
 C389 C 0.81235 0.16790 0.16369
 H390 H 0.74201 0.15275 0.11110
 H391 H 0.88652 0.14689 0.20067
 H392 H 0.88870 0.07080 0.13448
 N393 N 0.14294 0.66466 0.65543
 N394 N 0.14564 0.62693 0.61722
 C395 C 0.19645 0.61756 0.60445
 C396 C 0.22744 0.65078 0.63590
 C397 C 0.19210 0.68015 0.66806
 H398 H 0.26993 0.65095 0.63748
 H399 H 0.10779 0.67894 0.67266
 H400 H 0.11315 0.60753 0.60089
 N401 N 0.77193 0.65957 0.12172
 N402 N 0.81354 0.65439 0.08919
 C403 C 0.84299 0.69803 0.09464
 C404 C 0.81925 0.73243 0.13218
 C405 C 0.77389 0.70686 0.14814
 H406 H 0.83491 0.76904 0.14792
 H407 H 0.74297 0.63085 0.12599
 H408 H 0.82094 0.62195 0.06311
 N409 N 0.39436 0.33060 0.67322
 N410 N 0.42952 0.32692 0.63312
 C411 C 0.43154 0.27630 0.61489
 C412 C 0.39580 0.24621 0.64444
 C413 C 0.37215 0.28262 0.68051
 H414 H 0.38809 0.20411 0.64027
 H415 H 0.38797 0.36499 0.69660
 H416 H 0.45299 0.35834 0.61993
 N417 N 0.22696 0.33500 0.13443
 N418 N 0.18768 0.34558 0.09970
 C419 C 0.14477 0.32004 0.11783
 C420 C 0.15688 0.29344 0.16699
 C421 C 0.20980 0.30229 0.17499
 H422 H 0.13098 0.26914 0.19158
 H423 H 0.26550 0.34750 0.12860
 H424 H 0.19164 0.36585 0.06177
 N425 N 0.59058 0.82177 0.69602
 N426 N 0.55259 0.82952 0.65902
 C427 C 0.56161 0.79692 0.61581
 C428 C 0.60751 0.76786 0.62502
 C429 C 0.62471 0.78407 0.67696
 H430 H 0.62501 0.73884 0.59724
 H431 H 0.59157 0.84071 0.73457
 H432 H 0.51977 0.85455 0.66483
   
