data_POSCAR
  _audit_creation_date              2014-09-24
  _audit_creation_method            'ToBaCCo'
  _symmetry_space_group_name_H-M    'P1'
  _symmetry_Int_Tables_number       1
  _symmetry_cell_setting            triclinic
  loop_
  _symmetry_equiv_pos_as_xyz
 x,y,z
_cell_length_a 38.0741
_cell_length_b 38.0635
_cell_length_c 38.0397
_cell_angle_alpha 90.539900
_cell_angle_beta 90.089300
_cell_angle_gamma 89.997000
loop_
  _atom_site_label
  _atom_site_type_symbol
  _atom_site_fract_x
  _atom_site_fract_y
  _atom_site_fract_z
N1 N 0.20426 0.19766 0.20324
 N2 N 0.69660 0.69457 0.69923
 N3 N 0.27692 0.77459 0.71958
 N4 N 0.78204 0.27768 0.21933
 N5 N 0.78311 0.72468 0.28236
 N6 N 0.30305 0.20459 -0.19512
 N7 N 0.72248 0.28110 -0.22678
 N8 N 0.20500 0.80448 0.29533
 N9 N 0.47156 0.47486 0.46813
 N10 N -0.05151 -0.04949 0.94401
 N11 N 1.02901 0.53330 0.97258
 N12 N 0.53524 0.03405 0.47151
 N13 N -0.05025 0.05183 0.55786
 N14 N 0.47089 0.52943 0.03535
 N15 N 0.53512 -0.03095 0.02576
 N16 N 1.02992 0.46878 0.52556
 C17 C 0.43737 0.02006 0.20280
 H18 H 0.43754 0.04322 0.21951
 C19 C 0.45998 0.01797 0.17408
 H20 H 0.47666 0.04024 0.16915
 C21 C 0.41351 -0.03589 0.18923
 H22 H 0.39544 -0.05683 0.19531
 C23 C 0.43581 -0.03917 0.16023
 H24 H 0.43427 -0.06258 0.14390
 N25 N 0.41437 -0.00632 0.20948
 C26 C 0.33245 0.05123 0.26542
 H27 H 0.33194 0.03801 0.29047
 C28 C 0.30942 0.07907 0.25906
 H29 H 0.29115 0.08700 0.27942
 C30 C 0.35535 0.05538 0.20782
 H31 H 0.37232 0.04530 0.18738
 C32 C 0.33271 0.08312 0.20029
 H33 H 0.33278 0.09327 0.17389
 Zn34 Zn 0.38466 0.00111 0.24855
 N35 N 0.35518 0.04029 0.24007
 C36 C 0.41356 0.03827 0.30780
 N37 N 0.41459 0.00873 0.28751
 C38 C 0.43784 -0.01746 0.29414
 C39 C 0.46052 -0.01523 0.32286
 C40 C 0.43591 0.04168 0.33680
 C41 C 0.33268 -0.04943 0.23197
 C42 C 0.30979 -0.07731 0.23856
 C43 C 0.33344 -0.08094 0.29730
 C44 C 0.35594 -0.05318 0.28954
 N45 N 0.35551 -0.03826 0.25721
 H46 H 0.39529 0.05908 0.30176
 H47 H 0.43814 -0.04060 0.27740
 H48 H 0.47742 -0.03736 0.32777
 H49 H 0.43421 0.06505 0.35318
 H50 H 0.33197 -0.03635 0.20686
 H51 H 0.29141 -0.08542 0.21831
 H52 H 0.33371 -0.09091 0.32376
 H53 H 0.37298 -0.04291 0.30987
 C54 C 0.30967 0.09597 0.22629
 C55 C 0.45958 -0.01205 0.15219
 C56 C 0.31025 -0.09398 0.27145
 C57 C 0.45991 0.01474 0.34482
 C58 C 0.07784 -0.01128 0.70309
 H59 H 0.07639 -0.03626 0.71634
 C60 C 0.05443 -0.00378 0.67593
 H61 H 0.03494 -0.02320 0.66849
 C62 C 0.10393 0.04488 0.69806
 H63 H 0.12254 0.06420 0.70747
 C64 C 0.08097 0.05353 0.67079
 H65 H 0.08254 0.07966 0.66020
 N66 N 0.10225 0.01277 0.71332
 C67 C 0.18337 -0.04929 0.76504
 H68 H 0.18585 -0.03492 0.78959
 C69 C 0.20300 -0.07979 0.75941
 H70 H 0.22086 -0.08853 0.77972
 C71 C 0.15718 -0.05508 0.70882
 H72 H 0.13966 -0.04508 0.68893
 C73 C 0.17629 -0.08573 0.70209
 H74 H 0.17327 -0.09813 0.67666
 Zn75 Zn 0.13154 0.00095 0.75170
 N76 N 0.16017 -0.03821 0.74034
 C77 C 0.10201 -0.04290 0.80395
 N78 N 0.10147 -0.01036 0.78954
 C79 C 0.07789 0.01426 0.80032
 C80 C 0.05432 0.00690 0.82732
 C81 C 0.07886 -0.05143 0.83097
 C82 C 0.18485 0.05047 0.74005
 C83 C 0.20695 0.07873 0.74796
 C84 C 0.18118 0.08205 0.80582
 C85 C 0.15950 0.05381 0.79674
 N86 N 0.16121 0.03906 0.76411
 H87 H 0.11985 -0.06267 0.79405
 H88 H 0.07730 0.03961 0.78770
 H89 H 0.03550 0.02677 0.83524
 H90 H 0.07944 -0.07791 0.84080
 H91 H 0.18634 0.03768 0.71458
 H92 H 0.22561 0.08741 0.72841
 H93 H 0.17951 0.09230 0.83229
 H94 H 0.14159 0.04348 0.81604
 C95 C 0.19865 -0.09938 0.72815
 C96 C 0.05598 0.02883 0.65889
 C97 C 0.20488 0.09559 0.78098
 C98 C 0.05487 -0.02614 0.84360
 C99 C 0.57799 0.47953 0.20705
 H100 H 0.57731 0.45758 0.22490
 C101 C 0.55435 0.48091 0.17902
 H102 H 0.53636 0.45928 0.17579
 C103 C 0.60334 0.53366 0.19046
 H104 H 0.62213 0.55442 0.19525
 C105 C 0.58016 0.53615 0.16211
 H106 H 0.58179 0.55867 0.14501
 N107 N 0.60205 0.50546 0.21206
 C108 C 0.68467 0.45492 0.27305
 H109 H 0.68595 0.47241 0.29560
 C110 C 0.70693 0.42579 0.27104
 H111 H 0.72454 0.42140 0.29275
 C112 C 0.65909 0.44015 0.21813
 H113 H 0.64075 0.44600 0.19732
 C114 C 0.68084 0.41078 0.21501
 H115 H 0.67853 0.39402 0.19196
 Zn116 Zn 0.63190 0.50143 0.25164
 N117 N 0.66106 0.46131 0.24705
 C118 C 0.60338 0.46951 0.31290
 N119 N 0.60222 0.49771 0.29128
 C120 C 0.57841 0.52384 0.29630
 C121 C 0.55487 0.52269 0.32436
 C122 C 0.58029 0.46725 0.34127
 C123 C 0.68491 0.54744 0.23004
 C124 C 0.70733 0.57646 0.23186
 C125 C 0.68169 0.59181 0.28793
 C126 C 0.65977 0.56255 0.28498
 N127 N 0.66143 0.54130 0.25612
 H128 H 0.62197 0.44860 0.30810
 H129 H 0.57783 0.54579 0.27844
 H130 H 0.53707 0.54447 0.32761
 H131 H 0.58180 0.44472 0.35840
 H132 H 0.68594 0.52989 0.20752
 H133 H 0.72480 0.58070 0.21006
 H134 H 0.67960 0.60868 0.31092
 H135 H 0.64151 0.55689 0.30586
 C136 C 0.70536 0.40311 0.24157
 C137 C 0.55496 0.50970 0.15604
 C138 C 0.70607 0.59926 0.26125
 C139 C 0.55532 0.49390 0.34735
 C140 C 0.93205 0.52045 0.70252
 H141 H 0.93194 0.54381 0.71894
 C142 C 0.95455 0.51833 0.67369
 H143 H 0.97089 0.54078 0.66841
 C144 C 0.90900 0.46401 0.68969
 H145 H 0.89132 0.44284 0.69607
 C146 C 0.93118 0.46071 0.66063
 H147 H 0.92990 0.43707 0.64460
 N148 N 0.90944 0.49384 0.70960
 C149 C 0.82624 0.55058 0.76483
 H150 H 0.82576 0.53766 0.79004
 C151 C 0.80284 0.57802 0.75799
 H152 H 0.78436 0.58597 0.77815
 C153 C 0.84934 0.55429 0.70728
 H154 H 0.86649 0.54414 0.68703
 C155 C 0.82631 0.58154 0.69925
 H156 H 0.82632 0.59124 0.67269
 Zn157 Zn 0.87917 0.50084 0.74846
 N158 N 0.84926 0.53965 0.73974
 C159 C 0.90679 0.53764 0.80878
 N160 N 0.90840 0.50840 0.78806
 C161 C 0.93190 0.48243 0.79461
 C162 C 0.95422 0.48452 0.82362
 C163 C 0.92880 0.54092 0.83809
 C164 C 0.82822 0.45047 0.72976
 C165 C 0.80739 0.42058 0.73387
 C166 C 0.83132 0.41377 0.79218
 C167 C 0.85169 0.44372 0.78693
 N168 N 0.85054 0.46087 0.75575
 H169 H 0.88837 0.55832 0.80280
 H170 H 0.93275 0.45957 0.77751
 H171 H 0.97140 0.46256 0.82822
 H172 H 0.92674 0.56409 0.85471
 H173 H 0.82689 0.46526 0.70564
 H174 H 0.78988 0.41270 0.71278
 H175 H 0.83246 0.40145 0.81759
 H176 H 0.86821 0.45335 0.80800
 C177 C 0.80298 0.59444 0.72498
 C178 C 0.95447 0.48806 0.65211
 C179 C 0.80961 0.40093 0.76497
 C180 C 0.95302 0.51415 0.84605
 C181 C 0.20125 0.43005 0.02678
 H182 H 0.21704 0.42975 0.05045
 C183 C 0.17287 0.45304 0.02430
 H184 H 0.16707 0.46938 0.04685
 C185 C 0.18978 0.40722 -0.03018
 H186 H 0.19661 0.38949 -0.05142
 C187 C 0.16116 0.42992 -0.03386
 H188 H 0.14582 0.42894 -0.05784
 N189 N 0.20894 0.40750 -0.00001
 C190 C 0.26547 0.32613 0.05714
 H191 H 0.29078 0.32625 0.04426
 C192 C 0.25920 0.30303 0.08481
 H193 H 0.27988 0.28535 0.09294
 C194 C 0.20725 0.34758 0.06072
 H195 H 0.18661 0.36406 0.05050
 C196 C 0.19978 0.32481 0.08824
 H197 H 0.17322 0.32427 0.09806
 Zn198 Zn 0.24832 0.37812 0.00738
 N199 N 0.23977 0.34821 0.04604
 C200 C 0.30700 0.40779 0.04509
 N201 N 0.28664 0.40855 0.01574
 C202 C 0.29302 0.43167 -0.01044
 C203 C 0.32166 0.45432 -0.00855
 C204 C 0.33593 0.43025 0.04822
 C205 C 0.23366 0.32688 -0.04509
 C206 C 0.24120 0.30488 -0.07375
 C207 C 0.29977 0.32898 -0.07530
 C208 C 0.29110 0.35053 -0.04676
 N209 N 0.25835 0.34956 -0.03256
 H210 H 0.30121 0.38952 0.06586
 H211 H 0.27630 0.43165 -0.03347
 H212 H 0.32653 0.47077 -0.03092
 H213 H 0.35247 0.42870 0.07133
 H214 H 0.20820 0.32565 -0.03257
 H215 H 0.22135 0.28659 -0.08291
 H216 H 0.32646 0.32963 -0.08480
 H217 H 0.31104 0.36731 -0.03540
 C218 C 0.22613 0.30250 0.10133
 C219 C 0.15241 0.45359 -0.00655
 C220 C 0.27445 0.30620 -0.08988
 C221 C 0.34374 0.45404 0.02117
 C222 C 0.70820 0.07222 -0.02624
 H223 H 0.72474 0.07251 -0.04934
 C224 C 0.68052 0.04827 -0.02417
 H225 H 0.67624 0.03091 -0.04630
 C226 C 0.69395 0.09606 0.02963
 H227 H 0.69932 0.11461 0.05062
 C228 C 0.66603 0.07256 0.03284
 H229 H 0.64984 0.07367 0.05621
 N230 N 0.71395 0.09592 0.00009
 C231 C 0.76479 0.18242 -0.05406
 H232 H 0.78847 0.18558 -0.03859
 C233 C 0.75949 0.20292 -0.08382
 H234 H 0.77922 0.22204 -0.09102
 C235 C 0.71034 0.15376 -0.06323
 H236 H 0.69090 0.13503 -0.05477
 C237 C 0.70392 0.17376 -0.09310
 H238 H 0.67923 0.16992 -0.10648
 Zn239 Zn 0.75102 0.12836 -0.00637
 N240 N 0.74087 0.15761 -0.04504
 C241 C 0.80802 0.10358 -0.04745
 N242 N 0.79196 0.10162 -0.01563
 C243 C 0.80259 0.07802 0.00876
 C244 C 0.83072 0.05551 0.00171
 C245 C 0.83616 0.08151 -0.05566
 C246 C 0.72951 0.17936 0.04213
 C247 C 0.73155 0.20160 0.07147
 C248 C 0.78982 0.17934 0.08272
 C249 C 0.78662 0.15750 0.05317
 N250 N 0.75661 0.15762 0.03379
 H251 H 0.79825 0.12130 -0.06716
 H252 H 0.78864 0.07615 0.03342
 H253 H 0.83825 0.03636 0.02119
 H254 H 0.84702 0.08296 -0.08177
 H255 H 0.70598 0.17903 0.02614
 H256 H 0.70886 0.21737 0.07776
 H257 H 0.81368 0.17835 0.09821
 H258 H 0.80813 0.14045 0.04586
 C259 C 0.72926 0.19800 -0.10463
 C260 C 0.65873 0.04822 0.00570
 C261 C 0.76222 0.20212 0.09223
 C262 C 0.84821 0.05710 -0.03082
 C263 C 0.20202 0.57277 0.47238
 H264 H 0.21818 0.57311 0.44902
 C265 C 0.17382 0.54948 0.47446
 H266 H 0.16857 0.53286 0.45196
 C267 C 0.18948 0.59566 0.52905
 H268 H 0.19582 0.61345 0.55041
 C269 C 0.16102 0.57277 0.53228
 H270 H 0.14534 0.57370 0.55600
 N271 N 0.20907 0.59551 0.49922
 C272 C 0.26551 0.67811 0.44377
 H273 H 0.29063 0.67840 0.45709
 C274 C 0.25929 0.70102 0.41591
 H275 H 0.27984 0.71896 0.40803
 C276 C 0.20770 0.65573 0.43916
 H277 H 0.18717 0.63893 0.44901
 C278 C 0.20028 0.67832 0.41148
 H279 H 0.17385 0.67838 0.40122
 Zn280 Zn 0.24816 0.62557 0.49308
 N281 N 0.24000 0.65562 0.45442
 C282 C 0.30847 0.59723 0.45716
 N283 N 0.28714 0.59579 0.48573
 C284 C 0.29275 0.57215 0.51163
 C285 C 0.32151 0.54961 0.51032
 C286 C 0.33757 0.57494 0.45464
 C287 C 0.23061 0.67596 0.54509
 C288 C 0.23528 0.69569 0.57590
 C289 C 0.29331 0.67095 0.58172
 C290 C 0.28754 0.65173 0.55084
 N291 N 0.25618 0.65368 0.53378
 H292 H 0.30324 0.61582 0.43653
 H293 H 0.27521 0.57153 0.53397
 H294 H 0.32552 0.53255 0.53239
 H295 H 0.35480 0.57693 0.43212
 H296 H 0.20635 0.67798 0.53040
 H297 H 0.21450 0.71316 0.58452
 H298 H 0.31878 0.66913 0.59408
 H299 H 0.30833 0.63537 0.54052
 C300 C 0.22647 0.70099 0.39879
 C301 C 0.15287 0.54896 0.50491
 C302 C 0.26646 0.69234 0.59557
 C303 C 0.34460 0.55064 0.48148
 C304 C 0.70780 0.93144 0.52615
 H305 H 0.72342 0.93064 0.54991
 C306 C 0.68011 0.95532 0.52348
 H307 H 0.67480 0.97205 0.54586
 C308 C 0.69566 0.90871 0.46928
 H309 H 0.70181 0.89058 0.44818
 C310 C 0.66778 0.93218 0.46545
 H311 H 0.65238 0.93141 0.44150
 N312 N 0.71458 0.90830 0.49960
 C313 C 0.76262 0.82033 0.55409
 H314 H 0.78748 0.81812 0.54051
 C315 C 0.75443 0.79707 0.58102
 H316 H 0.77321 0.77693 0.58802
 C317 C 0.70751 0.84841 0.56042
 H318 H 0.68880 0.86776 0.55164
 C319 C 0.69815 0.82561 0.58733
 H320 H 0.67218 0.82822 0.59827
 Zn321 Zn 0.75120 0.87551 0.50691
 N322 N 0.73943 0.84570 0.54468
 C323 C 0.80836 0.89916 0.54907
 N324 N 0.79223 0.90171 0.51728
 C325 C 0.80298 0.92553 0.49321
 C326 C 0.83119 0.94781 0.50059
 C327 C 0.83667 0.92100 0.55760
 C328 C 0.73004 0.82516 0.45780
 C329 C 0.73228 0.80281 0.42860
 C330 C 0.79106 0.82417 0.41849
 C331 C 0.78764 0.84618 0.44789
 N332 N 0.75730 0.84650 0.46667
 H333 H 0.79858 0.88107 0.56842
 H334 H 0.78904 0.92774 0.46853
 H335 H 0.83879 0.96714 0.48133
 H336 H 0.84774 0.91903 0.58362
 H337 H 0.70623 0.82588 0.47329
 H338 H 0.70943 0.78742 0.42182
 H339 H 0.81519 0.82478 0.40347
 H340 H 0.80924 0.86298 0.45560
 C341 C 0.72193 0.79962 0.59844
 C342 C 0.65944 0.95596 0.49276
 C343 C 0.76333 0.80166 0.40856
 C344 C 0.84871 0.94577 0.53312
 C345 C 0.01298 0.19707 0.43065
 H346 H 0.03754 0.21122 0.43275
 C347 C 0.00538 0.17021 0.45419
 H348 H 0.02432 0.16385 0.47442
 C349 C -0.04206 0.18931 0.40264
 H350 H -0.06100 0.19752 0.38324
 C351 C -0.05082 0.16241 0.42571
 H352 H -0.07658 0.15091 0.42327
 N353 N -0.01046 0.20575 0.40519
 C354 C 0.05216 0.25807 0.32505
 H355 H 0.03780 0.28246 0.32263
 C356 C 0.08090 0.25131 0.30330
 H357 H 0.08848 0.27073 0.28411
 C358 C 0.05832 0.20245 0.35167
 H359 H 0.04875 0.18297 0.36974
 C360 C 0.08716 0.19455 0.33035
 H361 H 0.09877 0.16884 0.33266
 Zn362 Zn 0.00056 0.24363 0.37522
 N363 N 0.04161 0.23386 0.34884
 C364 C 0.03645 0.30321 0.40424
 N365 N 0.00645 0.28386 0.40425
 C366 C -0.02070 0.29219 0.42591
 C367 C -0.01874 0.32144 0.44819
 C368 C 0.03959 0.33269 0.42619
 C369 C -0.04357 0.22419 0.31961
 C370 C -0.07167 0.22681 0.29614
 C371 C -0.08391 0.28460 0.31978
 C372 C -0.05561 0.28083 0.34280
 N373 N -0.03652 0.25066 0.34278
 H374 H 0.05797 0.29593 0.38720
 H375 H -0.04423 0.27625 0.42543
 H376 H -0.04153 0.32780 0.46379
 H377 H 0.06341 0.34819 0.42528
 H378 H -0.02785 0.20051 0.32009
 H379 H -0.07723 0.20447 0.27941
 H380 H -0.09944 0.30842 0.32096
 H381 H -0.04930 0.30188 0.36094
 C382 C 0.09915 0.21928 0.30580
 C383 C -0.02675 0.15204 0.45179
 C384 C -0.09245 0.25742 0.29591
 C385 C 0.01195 0.34209 0.44897
 C386 C -0.02190 0.70869 0.07416
 H387 H -0.04547 0.72456 0.07491
 C388 C -0.02005 0.67963 0.05161
 H389 H -0.04295 0.67332 0.03609
 C390 C 0.03553 0.69773 0.09529
 H391 H 0.05722 0.70498 0.11219
 C392 C 0.03854 0.66843 0.07310
 H393 H 0.06245 0.65303 0.07370
 N394 N 0.00547 0.71699 0.09564
 C395 C -0.04295 0.77673 0.18107
 H396 H -0.02697 0.80022 0.18049
 C397 C -0.07076 0.77435 0.20481
 H398 H -0.07580 0.79669 0.22168
 C399 C -0.05593 0.72031 0.15780
 H400 H -0.05011 0.69927 0.13949
 C401 C -0.08396 0.71678 0.18111
 H402 H -0.09977 0.69314 0.18003
 Zn403 Zn 0.00002 0.75718 0.12480
 N404 N -0.03653 0.75027 0.15771
 C405 C -0.04284 0.81179 0.09818
 N406 N -0.01143 0.79508 0.09505
 C407 C 0.01158 0.80364 0.06925
 C408 C 0.00376 0.83064 0.04594
 C409 C -0.05180 0.83887 0.07537
 C410 C 0.05239 0.74285 0.17438
 C411 C 0.08137 0.74972 0.19586
 C412 C 0.08718 0.80643 0.16860
 C413 C 0.05811 0.79841 0.14757
 N414 N 0.04148 0.76698 0.15065
 H415 H -0.06144 0.80371 0.11790
 H416 H 0.03600 0.78930 0.06673
 H417 H 0.02239 0.83695 0.02546
 H418 H -0.07735 0.85068 0.07837
 H419 H 0.03810 0.71845 0.17702
 H420 H 0.08919 0.73039 0.21506
 H421 H 0.09869 0.83217 0.16617
 H422 H 0.04825 0.81784 0.12957
 C423 C -0.09193 0.74401 0.20509
 C424 C 0.01072 0.65912 0.05042
 C425 C 0.09951 0.78180 0.19311
 C426 C -0.02815 0.84908 0.04893
 C427 C 0.47883 0.20811 0.57208
 H428 H 0.45500 0.22360 0.57213
 C429 C 0.48186 0.17917 0.54957
 H430 H 0.45954 0.17263 0.53332
 C431 C 0.53563 0.19784 0.59523
 H432 H 0.55662 0.20533 0.61288
 C433 C 0.53986 0.16873 0.57302
 H434 H 0.56396 0.15369 0.57434
 N435 N 0.50528 0.21663 0.59459
 C436 C 0.44599 0.27369 0.67522
 H437 H 0.45776 0.29955 0.67487
 C438 C 0.41837 0.26664 0.69839
 H439 H 0.40913 0.28731 0.71578
 C440 C 0.44545 0.21481 0.65480
 H441 H 0.45693 0.19419 0.63889
 C442 C 0.41820 0.20655 0.67769
 H443 H 0.40988 0.17948 0.67887
 Zn444 Zn 0.49767 0.25636 0.62381
 N445 N 0.45855 0.24800 0.65357
 C446 C 0.46208 0.31577 0.59377
 N447 N 0.49074 0.29451 0.59313
 C448 C 0.51697 0.29939 0.56951
 C449 C 0.51590 0.32737 0.54620
 C450 C 0.45985 0.34412 0.57076
 C451 C 0.54777 0.24009 0.67540
 C452 C 0.57831 0.24463 0.69528
 C453 C 0.58608 0.30156 0.66900
 C454 C 0.55537 0.29595 0.64969
 N455 N 0.53753 0.26514 0.65234
 H456 H 0.44113 0.31104 0.61224
 H457 H 0.53929 0.28179 0.56938
 H458 H 0.53795 0.33056 0.52883
 H459 H 0.43718 0.36128 0.57205
 H460 H 0.53256 0.21623 0.67776
 H461 H 0.58624 0.22417 0.71321
 H462 H 0.59918 0.32653 0.66641
 H463 H 0.54595 0.31631 0.63251
 C464 C 0.40351 0.23278 0.69946
 C465 C 0.51294 0.15910 0.54942
 C466 C 0.59879 0.27513 0.69129
 C467 C 0.48713 0.35058 0.54665
 C468 C 0.51818 0.70220 0.93061
 H469 H 0.54121 0.71880 0.92937
 C470 C 0.51703 0.67468 0.95452
 H471 H 0.53977 0.67060 0.97088
 C472 C 0.46161 0.68767 0.90906
 H473 H 0.44002 0.69291 0.89144
 C474 C 0.45927 0.65989 0.93267
 H475 H 0.43593 0.64362 0.93256
 N476 N 0.49110 0.70773 0.90803
 C477 C 0.54651 0.75862 0.82240
 H478 H 0.53311 0.78363 0.82091
 C479 C 0.57449 0.75119 0.79980
 H480 H 0.58237 0.77068 0.78081
 C481 C 0.55134 0.70231 0.84781
 H482 H 0.54155 0.68281 0.86573
 C483 C 0.57928 0.69374 0.82568
 H484 H 0.58990 0.66753 0.82714
 Zn485 Zn 0.49733 0.74484 0.87591
 N486 N 0.53590 0.73447 0.84622
 C487 C 0.53553 0.80475 0.90206
 N488 N 0.50551 0.78549 0.90360
 C489 C 0.47945 0.79396 0.92646
 C490 C 0.48247 0.82325 0.94847
 C491 C 0.53980 0.83423 0.92387
 C492 C 0.44481 0.72459 0.82699
 C493 C 0.41476 0.72891 0.80627
 C494 C 0.41153 0.78924 0.82598
 C495 C 0.44145 0.78372 0.84641
 N496 N 0.45694 0.75155 0.84733
 H497 H 0.55621 0.79728 0.88408
 H498 H 0.45590 0.77807 0.92716
 H499 H 0.46035 0.82961 0.96498
 H500 H 0.56367 0.84957 0.92200
 H501 H 0.45838 0.69962 0.82707
 H502 H 0.40561 0.70709 0.79028
 H503 H 0.40062 0.81541 0.82526
 H504 H 0.45251 0.80543 0.86116
 C505 C 0.59184 0.71858 0.80159
 C506 C 0.48728 0.65279 0.95580
 C507 C 0.39680 0.76126 0.80649
 C508 C 0.51325 0.84375 0.94788
 C509 C 0.17787 0.20152 0.23244
 C510 C 0.14015 0.20082 0.21800
 C511 C 0.11490 0.20670 0.24248
 C512 C 0.12890 0.21160 0.28005
 C513 C 0.15155 0.17865 0.28638
 C514 C 0.17680 0.17312 0.26157
 C515 C 0.18164 0.23608 0.25351
 C516 C 0.15604 0.24146 0.27788
 H517 H 0.13389 0.19552 0.19061
 H518 H 0.08715 0.20643 0.23587
 H519 H 0.15011 0.16213 0.30934
 H520 H 0.19491 0.15158 0.26482
 H521 H 0.20338 0.25419 0.25035
 H522 H 0.15612 0.26419 0.29533
 C523 C 0.67029 0.69912 0.72841
 C524 C 0.66893 0.67115 0.75790
 C525 C 0.64378 0.67732 0.78265
 C526 C 0.62142 0.71039 0.77583
 C527 C 0.64885 0.73994 0.77327
 C528 C 0.67439 0.73395 0.74899
 C529 C 0.63255 0.69856 0.71399
 C530 C 0.60735 0.70511 0.73836
 H531 H 0.68686 0.64950 0.76146
 H532 H 0.64232 0.66128 0.80595
 H533 H 0.64922 0.76286 0.79046
 H534 H 0.69635 0.75177 0.74570
 H535 H 0.62624 0.69291 0.68667
 H536 H 0.57959 0.70507 0.73176
 C537 C 0.30832 0.77319 0.74369
 C538 C 0.30991 0.73819 0.76358
 C539 C 0.33882 0.73424 0.78422
 C540 C 0.36376 0.76607 0.78427
 C541 C 0.37233 0.77257 0.74546
 C542 C 0.34371 0.77677 0.72450
 C543 C 0.31091 0.80071 0.77405
 C544 C 0.33963 0.79685 0.79500
 H545 H 0.28921 0.71860 0.76235
 H546 H 0.34239 0.71139 0.80069
 H547 H 0.39892 0.77494 0.73549
 H548 H 0.34604 0.78298 0.69683
 H549 H 0.29209 0.82098 0.78035
 H550 H 0.34300 0.81292 0.81844
 C551 C -0.18344 0.27056 0.23730
 C552 C -0.16145 0.23816 0.22523
 C553 C -0.13108 0.23359 0.24364
 C554 C -0.12515 0.26113 0.27304
 C555 C -0.12704 0.29638 0.25365
 C556 C -0.15704 0.30113 0.23484
 C557 C -0.18882 0.26364 0.27666
 C558 C -0.15870 0.25947 0.29524
 H559 H -0.16685 0.22109 0.20306
 H560 H -0.11239 0.21359 0.23576
 H561 H -0.10571 0.31529 0.25326
 H562 H -0.16103 0.32400 0.21851
 H563 H -0.21453 0.26167 0.28878
 H564 H -0.15881 0.25397 0.32320
 C565 C -0.18249 0.73162 0.26421
 C566 C -0.18815 0.73819 0.22481
 C567 C -0.15816 0.74215 0.20607
 C568 C -0.12445 0.74064 0.22816
 C569 C -0.13016 0.76847 0.25733
 C570 C -0.16041 0.76410 0.27591
 C571 C -0.15611 0.70105 0.26686
 C572 C -0.12624 0.70558 0.24788
 H573 H -0.21394 0.74010 0.21278
 H574 H -0.15846 0.74742 0.17807
 H575 H -0.11147 0.78861 0.26488
 H576 H -0.16572 0.78144 0.29787
 H577 H -0.16001 0.67833 0.28341
 H578 H -0.10494 0.68664 0.24833
 C579 C 0.32825 0.21074 0.77507
 C580 C 0.33009 0.18287 0.74498
 C581 C 0.35403 0.19026 0.71961
 C582 C 0.37505 0.22428 0.72631
 C583 C 0.34631 0.25252 0.73024
 C584 C 0.32181 0.24531 0.75525
 C585 C 0.36639 0.21232 0.78835
 C586 C 0.39049 0.21991 0.76328
 H587 H 0.31296 0.16057 0.74124
 H588 H 0.35518 0.17465 0.69567
 H589 H 0.34427 0.27533 0.71346
 H590 H 0.29911 0.26202 0.75960
 H591 H 0.37377 0.20740 0.81544
 H592 H 0.41838 0.22154 0.76905
 C593 C 0.69024 0.28228 0.75030
 C594 C 0.68579 0.24771 0.72952
 C595 C 0.65594 0.24570 0.71005
 C596 C 0.63295 0.27888 0.71191
 C597 C 0.62632 0.28557 0.75118
 C598 C 0.65593 0.28796 0.77100
 C599 C 0.68816 0.31027 0.72086
 C600 C 0.65835 0.30843 0.70102
 H601 H 0.70527 0.22687 0.72942
 H602 H 0.65021 0.22319 0.69327
 H603 H 0.60037 0.28972 0.76226
 H604 H 0.65508 0.29443 0.79882
 H605 H 0.70787 0.32956 0.71453
 H606 H 0.65495 0.32522 0.67846
 C607 C 0.17853 0.80034 0.26617
 C608 C 0.18220 0.76553 0.24552
 C609 C 0.15651 0.75987 0.22123
 C610 C 0.12939 0.78973 0.21872
 C611 C 0.11552 0.79511 0.25623
 C612 C 0.14086 0.80127 0.28061
 C613 C 0.17740 0.82837 0.23669
 C614 C 0.15205 0.82257 0.21195
 H615 H 0.20395 0.74745 0.24888
 H616 H 0.15652 0.73694 0.20404
 H617 H 0.08779 0.79550 0.26284
 H618 H 0.13470 0.80693 0.30794
 H619 H 0.19558 0.84980 0.23315
 H620 H 0.15057 0.83875 0.18875
 C621 C 0.23413 0.17221 0.20778
 C622 C 0.22098 0.13403 0.20677
 C623 C 0.24609 0.10959 0.21313
 C624 C 0.28297 0.12483 0.21879
 C625 C 0.28952 0.14754 0.18608
 C626 C 0.26406 0.17189 0.18002
 C627 C 0.25402 0.17686 0.24284
 C628 C 0.27908 0.15208 0.24869
 H629 H 0.19397 0.12688 0.20098
 H630 H 0.24042 0.08164 0.21283
 H631 H 0.31321 0.14697 0.17036
 H632 H 0.26741 0.19002 0.15865
 H633 H 0.24968 0.19866 0.26089
 H634 H 0.29592 0.15295 0.27173
 C635 C 0.72672 0.66952 0.70464
 C636 C 0.71399 0.63119 0.70414
 C637 C 0.73930 0.60713 0.71112
 C638 C 0.77597 0.62284 0.71688
 C639 C 0.78259 0.64512 0.68390
 C640 C 0.75694 0.66904 0.67718
 C641 C 0.74622 0.67492 0.73984
 C642 C 0.77148 0.65050 0.74632
 H643 H 0.68710 0.62366 0.69826
 H644 H 0.73393 0.57912 0.71126
 H645 H 0.80652 0.64472 0.66854
 H646 H 0.76048 0.68696 0.65567
 H647 H 0.74149 0.69694 0.75752
 H648 H 0.78808 0.65190 0.76952
 C649 C 0.74666 0.31241 0.77347
 C650 C 0.77665 0.31391 0.80123
 C651 C 0.79772 0.34268 0.79873
 C652 C 0.78743 0.36784 0.76890
 C653 C 0.78766 0.34399 0.73603
 C654 C 0.76691 0.31509 0.73863
 C655 C 0.72756 0.34775 0.77861
 C656 C 0.74862 0.37640 0.77568
 H657 H 0.78251 0.29447 0.82084
 H658 H 0.82083 0.34538 0.81518
 H659 H 0.80427 0.34837 0.71332
 H660 H 0.76575 0.29512 0.71809
 H661 H 0.69989 0.35001 0.78502
 H662 H 0.73874 0.40294 0.77931
 C663 C 0.23482 -0.17009 0.29061
 C664 C 0.22162 -0.13192 0.29114
 C665 C 0.24670 -0.10753 0.28459
 C666 C 0.28361 -0.12279 0.27923
 C667 C 0.29017 -0.14512 0.31222
 C668 C 0.26473 -0.16942 0.31848
 C669 C 0.25472 -0.17511 0.25567
 C670 C 0.27975 -0.15037 0.24962
 H671 H 0.19460 -0.12474 0.29676
 H672 H 0.24100 -0.07958 0.28456
 H673 H 0.31383 -0.14433 0.32805
 H674 H 0.26804 -0.18727 0.34011
 H675 H 0.25038 -0.19711 0.23785
 H676 H 0.29658 -0.15147 0.22663
 C677 C 0.25512 -0.19236 0.71922
 C678 C 0.22652 -0.18834 0.69026
 C679 C 0.20765 -0.15802 0.69263
 C680 C 0.21845 -0.13398 0.72365
 C681 C 0.21500 -0.15803 0.75575
 C682 C 0.23357 -0.18841 0.75319
 C683 C 0.27701 -0.15852 0.71593
 C684 C 0.25806 -0.12837 0.71878
 H685 H 0.21986 -0.20723 0.67000
 H686 H 0.18568 -0.15347 0.67516
 H687 H 0.19787 -0.15248 0.77791
 H688 H 0.23234 -0.20854 0.77318
 H689 H 0.30501 -0.15832 0.71071
 H690 H 0.27006 -0.10264 0.71626
 C691 C 0.76384 0.31204 0.22710
 C692 C 0.76701 0.33898 0.19731
 C693 C 0.74818 0.36891 0.20264
 C694 C 0.72803 0.37023 0.23766
 C695 C 0.70573 0.33664 0.23806
 C696 C 0.72433 0.30655 0.23324
 C697 C 0.77514 0.33339 0.26033
 C698 C 0.75669 0.36366 0.26553
 H699 H 0.78370 0.33534 0.17448
 H700 H 0.74887 0.39052 0.18423
 H701 H 0.67769 0.33645 0.24321
 H702 H 0.71213 0.28081 0.23432
 H703 H 0.79655 0.32741 0.27789
 H704 H 0.76369 0.38146 0.28674
 C705 C 0.76480 0.69030 0.27490
 C706 C 0.72527 0.69582 0.26876
 C707 C 0.70659 0.66574 0.26423
 C708 C 0.72883 0.63210 0.26487
 C709 C 0.75738 0.63837 0.23691
 C710 C 0.77591 0.66864 0.24183
 C711 C 0.76807 0.66360 0.30491
 C712 C 0.74915 0.63367 0.29986
 H713 H 0.71312 0.72158 0.26749
 H714 H 0.67853 0.66594 0.25912
 H715 H 0.76429 0.62034 0.21589
 H716 H 0.79728 0.67441 0.22421
 H717 H 0.78486 0.66742 0.32769
 H718 H 0.74987 0.61222 0.31845
 C719 C 0.27505 0.17694 0.80041
 C720 C 0.29109 0.13987 0.79953
 C721 C 0.26771 0.11367 0.79307
 C722 C 0.22959 0.12611 0.78924
 C723 C 0.22253 0.14761 0.82306
 C724 C 0.24621 0.17379 0.82915
 C725 C 0.25360 0.18067 0.76629
 C726 C 0.23034 0.15414 0.76032
 H727 H 0.31875 0.13471 0.80418
 H728 H 0.27549 0.08624 0.79218
 H729 H 0.19963 0.14495 0.83965
 H730 H 0.24203 0.19136 0.85117
 H731 H 0.25568 0.20302 0.74892
 H732 H 0.21275 0.15405 0.73784
 C733 C 0.20845 0.22734 0.17768
 C734 C 0.24263 0.24848 0.18282
 C735 C 0.24821 0.27338 0.15797
 C736 C 0.21889 0.27590 0.13018
 C737 C 0.21492 0.23862 0.11505
 C738 C 0.20887 0.21364 0.13953
 C739 C 0.17971 0.25636 0.17673
 C740 C 0.18546 0.28165 0.15233
 H741 H 0.26028 0.24502 0.20494
 H742 H 0.27063 0.29097 0.15911
 H743 H 0.21554 0.23256 0.08712
 H744 H 0.20427 0.18633 0.13242
 H745 H 0.15796 0.25945 0.19465
 H746 H 0.16904 0.30487 0.15153
 C747 C 0.70143 0.72435 0.67390
 C748 C 0.73549 0.74542 0.67994
 C749 C 0.74173 0.77034 0.65533
 C750 C 0.71313 0.77305 0.62686
 C751 C 0.70938 0.73582 0.61150
 C752 C 0.70268 0.71077 0.63573
 C753 C 0.67273 0.75340 0.67227
 C754 C 0.67909 0.77875 0.64808
 H755 H 0.75265 0.74185 0.70242
 H756 H 0.76424 0.78779 0.65696
 H757 H 0.71049 0.72985 0.58355
 H758 H 0.69806 0.68352 0.62842
 H759 H 0.65036 0.75630 0.68943
 H760 H 0.66227 0.80160 0.64662
 C761 C 0.77619 0.74289 0.31698
 C762 C 0.80652 0.73956 0.34361
 C763 C 0.80193 0.75849 0.37377
 C764 C 0.76705 0.77888 0.37555
 C765 C 0.76609 0.80114 0.34216
 C766 C 0.77012 0.78245 0.31188
 C767 C 0.74346 0.73174 0.33860
 C768 C 0.73904 0.75024 0.36911
 H769 H 0.82911 0.72262 0.33963
 H770 H 0.82069 0.75756 0.39526
 H771 H 0.76122 0.82925 0.34227
 H772 H 0.76864 0.79464 0.28623
 H773 H 0.72619 0.70991 0.33301
 H774 H 0.71898 0.74270 0.38771
 C775 C 0.29706 0.23361 -0.16869
 C776 C 0.32336 0.26483 -0.16735
 C777 C 0.31588 0.28938 -0.14213
 C778 C 0.28338 0.28065 -0.11966
 C779 C 0.25394 0.27598 -0.14709
 C780 C 0.26117 0.25188 -0.17270
 C781 C 0.29851 0.21960 -0.13093
 C782 C 0.29071 0.24374 -0.10566
 H783 H 0.34486 0.26941 -0.18519
 H784 H 0.33057 0.31373 -0.14046
 H785 H 0.23022 0.29178 -0.14754
 H786 H 0.24357 0.24727 -0.19472
 H787 H 0.30564 0.19276 -0.12467
 H788 H 0.29112 0.23741 -0.07789
 C789 C 0.72166 0.25806 -0.19481
 C790 C 0.69270 0.22935 -0.19245
 C791 C 0.69457 0.20931 -0.16307
 C792 C 0.72517 0.21912 -0.13825
 C793 C 0.75766 0.21662 -0.16212
 C794 C 0.75557 0.23635 -0.19162
 C795 C 0.71781 0.27863 -0.15997
 C796 C 0.72013 0.25851 -0.13075
 H797 H 0.67260 0.22363 -0.21168
 H798 H 0.67681 0.18742 -0.15971
 H799 H 0.77978 0.19937 -0.15710
 H800 H 0.77592 0.23594 -0.21158
 H801 H 0.71260 0.30663 -0.15846
 H802 H 0.71715 0.26949 -0.10448
 C803 C 0.20911 0.77517 0.32134
 C804 C 0.18036 0.74619 0.32248
 C805 C 0.18599 0.72123 0.34724
 C806 C 0.21933 0.72724 0.36956
 C807 C 0.24878 0.72939 0.34197
 C808 C 0.24330 0.75395 0.31673
 C809 C 0.20940 0.78938 0.35931
 C810 C 0.21532 0.76472 0.38417
 H811 H 0.15868 0.74284 0.30445
 H812 H 0.16956 0.69803 0.34814
 H813 H 0.27122 0.71181 0.34127
 H814 H 0.26105 0.75713 0.29471
 H815 H 0.20481 0.81678 0.36602
 H816 H 0.21583 0.77116 0.41203
 C817 C 0.27673 0.75152 0.68721
 C818 C 0.24123 0.73261 0.68300
 C819 C 0.23805 0.71310 0.65310
 C820 C 0.27101 0.71307 0.62978
 C821 C 0.27933 0.75189 0.62318
 C822 C 0.28293 0.77170 0.65286
 C823 C 0.30337 0.72064 0.68477
 C824 C 0.30026 0.70075 0.65494
 H825 H 0.22066 0.73370 0.70271
 H826 H 0.21483 0.69742 0.64765
 H827 H 0.28360 0.76260 0.59719
 H828 H 0.29056 0.79914 0.65203
 H829 H 0.32273 0.71353 0.70419
 H830 H 0.31595 0.67726 0.65124
 C831 C 0.77501 0.25988 0.18448
 C832 C 0.80525 0.26360 0.15790
 C833 C 0.80060 0.24502 0.12753
 C834 C 0.76577 0.22457 0.12550
 C835 C 0.76494 0.20192 0.15862
 C836 C 0.76902 0.22025 0.18912
 C837 C 0.74218 0.27121 0.16300
 C838 C 0.73769 0.25304 0.13228
 H839 H 0.82782 0.28052 0.16208
 H840 H 0.81931 0.24622 0.10607
 H841 H 0.76008 0.17381 0.15819
 H842 H 0.76760 0.20776 0.21462
 H843 H 0.72480 0.29286 0.16893
 H844 H 0.71740 0.26061 0.11388
 C845 C 0.47773 0.44066 0.48675
 C846 C 0.44771 0.41388 0.48191
 C847 C 0.45132 0.38428 0.50133
 C848 C 0.48510 0.38301 0.52347
 C849 C 0.51464 0.38889 0.49636
 C850 C 0.51104 0.41890 0.47744
 C851 C 0.48183 0.44673 0.52656
 C852 C 0.48498 0.41694 0.54559
 H853 H 0.42600 0.41740 0.46378
 H854 H 0.43257 0.36283 0.49975
 H855 H 0.53588 0.37088 0.49064
 H856 H 0.52977 0.42440 0.45696
 H857 H 0.48278 0.47266 0.53866
 H858 H 0.48863 0.41755 0.57390
 C859 C -0.04719 0.92505 -0.02623
 C860 C -0.01267 0.92989 -0.00556
 C861 C -0.00697 0.90515 0.01935
 C862 C -0.03645 0.87772 0.02242
 C863 C -0.06972 0.90008 0.02847
 C864 C -0.07559 0.92444 0.00312
 C865 C -0.04740 0.88688 -0.03979
 C866 C -0.04118 0.86246 -0.01477
 H867 H 0.00519 0.95172 -0.00932
 H868 H 0.01579 0.90602 0.03656
 H869 H -0.08646 0.89902 0.05139
 H870 H -0.09754 0.94216 0.00603
 H871 H -0.05266 0.87971 -0.06698
 H872 H -0.04111 0.83450 -0.02071
 C873 C 0.02247 0.56786 -0.00897
 C874 C 0.05324 0.59395 -0.01186
 C875 C 0.04900 0.62403 0.00725
 C876 C 0.01402 0.62626 0.02740
 C877 C -0.01390 0.62053 -0.00152
 C878 C -0.00985 0.59010 -0.02023
 C879 C 0.01603 0.56256 0.03052
 C880 C 0.01237 0.59275 0.04941
 H881 H 0.07588 0.58970 -0.02865
 H882 H 0.06810 0.64518 0.00662
 H883 H -0.03367 0.63950 -0.00900
 H884 H -0.02715 0.58489 -0.04216
 H885 H 0.01401 0.53687 0.04250
 H886 H 0.00729 0.59273 0.07749
 C887 C 0.52779 0.06834 0.49007
 C888 C 0.49527 0.09002 0.47829
 C889 C 0.49027 0.12026 0.49697
 C890 C 0.51747 0.12639 0.52645
 C891 C 0.51606 0.09276 0.54832
 C892 C 0.52074 0.06272 0.52939
 C893 C 0.55812 0.09503 0.48792
 C894 C 0.55290 0.12495 0.50705
 H895 H 0.47844 0.08466 0.45603
 H896 H 0.47036 0.13886 0.48901
 H897 H 0.51046 0.09253 0.57629
 H898 H 0.51906 0.03694 0.54124
 H899 H 0.58120 0.09125 0.47162
 H900 H 0.57162 0.14646 0.50696
 C901 C -0.04581 0.07694 0.52781
 C902 C -0.01126 0.07182 0.50734
 C903 C -0.00550 0.09627 0.48215
 C904 C -0.03494 0.12370 0.47864
 C905 C -0.06821 0.10129 0.47270
 C906 C -0.07416 0.07726 0.49831
 C907 C -0.04595 0.11527 0.54092
 C908 C -0.03967 0.13939 0.51564
 H909 H 0.00655 0.05000 0.51143
 H910 H 0.01727 0.09515 0.46503
 H911 H -0.08475 0.10193 0.44956
 H912 H -0.09602 0.05943 0.49537
 H913 H -0.05118 0.12276 0.56802
 H914 H -0.03952 0.16741 0.52126
 C915 C 0.47736 0.56343 1.01654
 C916 C 0.51092 0.58496 1.02564
 C917 C 0.51468 0.61481 1.00646
 C918 C 0.48505 0.62071 0.97937
 C919 C 0.48447 0.58663 0.95752
 C920 C 0.48118 0.55703 0.97678
 C921 C 0.44763 0.59054 1.02130
 C922 C 0.45141 0.61996 1.00167
 H923 H 0.52947 0.57963 1.04640
 H924 H 0.53575 0.63303 1.01227
 H925 H 0.48790 0.58576 0.92920
 H926 H 0.48181 0.53101 0.96486
 H927 H 0.42604 0.58735 1.03957
 H928 H 0.43293 0.64164 1.00325
 C929 C 0.52793 0.93471 1.00714
 C930 C 0.55851 0.90826 1.00913
 C931 C 0.55339 0.87830 0.98998
 C932 C 0.51782 0.87657 0.97075
 C933 C 0.49082 0.88252 1.00037
 C934 C 0.49568 0.91277 1.01900
 C935 C 0.52061 0.94029 0.96783
 C936 C 0.51601 0.91021 0.94890
 H937 H 0.58169 0.91222 1.02531
 H938 H 0.57231 0.85697 0.98990
 H939 H 0.47117 0.86377 1.00856
 H940 H 0.47895 0.91796 1.04132
 H941 H 0.51872 0.96607 0.95599
 H942 H 0.51026 0.91041 0.92094
 C943 C 0.02357 0.43401 0.50743
 C944 C 0.01674 0.43889 0.46793
 C945 C 0.01315 0.40850 0.44933
 C946 C 0.01528 0.37521 0.47164
 C947 C 0.05043 0.37791 0.49152
 C948 C 0.05460 0.40820 0.51034
 C949 C -0.00845 0.41159 0.51906
 C950 C -0.01240 0.38096 0.50068
 H951 H 0.01442 0.46446 0.45572
 H952 H 0.00783 0.40822 0.42128
 H953 H 0.06972 0.35693 0.49221
 H954 H 0.07737 0.41279 0.52693
 H955 H -0.02563 0.41685 0.54102
 H956 H -0.03192 0.36190 0.50851
 C957 C 0.43668 0.49285 0.47319
 C958 C 0.44146 0.53240 0.48020
 C959 C 0.41101 0.55079 0.48277
 C960 C 0.37774 0.52823 0.47940
 C961 C 0.38159 0.50820 0.44431
 C962 C 0.41192 0.48953 0.44122
 C963 C 0.41318 0.48135 0.50444
 C964 C 0.38252 0.49946 0.50730
 H965 H 0.46696 0.54478 0.48343
 H966 H 0.41063 0.57885 0.48815
 H967 H 0.36133 0.50743 0.42420
 H968 H 0.41726 0.47287 0.41856
 H969 H 0.41788 0.45981 0.52207
 H970 H 0.36307 0.49164 0.52639
 C971 C 0.92351 -0.01918 -0.05101
 C972 C 0.92323 0.01058 -0.07878
 C973 C 0.89919 0.03634 -0.07232
 C974 C 0.87676 0.03025 -0.03921
 C975 C 0.86111 -0.00653 -0.04468
 C976 C 0.88522 -0.03192 -0.05147
 C977 C 0.92865 0.00096 -0.01603
 C978 C 0.90419 0.02629 -0.00977
 H979 H 0.94128 0.01368 -0.10037
 H980 H 0.89871 0.05987 -0.08809
 H981 H 0.83311 -0.01192 -0.04462
 H982 H 0.87774 -0.05890 -0.05721
 H983 H 0.95056 -0.00339 0.00168
 H984 H 0.90539 0.04330 0.01328
 C985 C 0.56912 -0.01228 0.01842
 C986 C 0.56287 0.02716 0.01283
 C987 C 0.59255 0.04634 0.00862
 C988 C 0.62652 0.02466 0.00896
 C989 C 0.62574 0.00419 0.04362
 C990 C 0.59622 -0.01528 0.04836
 C991 C 0.59048 -0.02300 -0.01479
 C992 C 0.62042 -0.00394 -0.01945
 H993 H 0.53691 0.03889 0.01168
 H994 H 0.59181 0.07442 0.00390
 H995 H 0.64745 0.00368 0.06214
 H996 H 0.59299 -0.03232 0.07082
 H997 H 0.58473 -0.04446 -0.03263
 H998 H 0.63843 -0.01052 -0.04048
 C999 C 0.06377 0.48777 0.51820
 C1000 C 0.05714 0.52709 0.51207
 C1001 C 0.08664 0.54655 0.50780
 C1002 C 0.12082 0.52524 0.50855
 C1003 C 0.12010 0.50519 0.54347
 C1004 C 0.09076 0.48547 0.54832
 C1005 C 0.08548 0.47687 0.48525
 C1006 C 0.11522 0.49618 0.48054
 H1007 H 0.03106 0.53853 0.51068
 H1008 H 0.08565 0.57457 0.50280
 H1009 H 0.14174 0.50508 0.56208
 H1010 H 0.08764 0.46864 0.57096
 H1011 H 0.08040 0.45487 0.46789
 H1012 H 0.13371 0.48917 0.46007
 C1013 C 0.06298 0.51439 -0.02014
 C1014 C 0.08482 0.52544 0.01273
 C1015 C 0.11464 0.50627 0.01743
 C1016 C 0.12023 0.47712 -0.01048
 C1017 C 0.08612 0.45570 -0.00966
 C1018 C 0.05653 0.47506 -0.01396
 C1019 C 0.08985 0.51672 -0.05030
 C1020 C 0.11929 0.49708 -0.04546
 H1021 H 0.07989 0.54758 0.02995
 H1022 H 0.13333 0.51364 0.03766
 H1023 H 0.08526 0.42768 -0.00467
 H1024 H 0.03050 0.46352 -0.01259
 H1025 H 0.08657 0.53350 -0.07297
 H1026 H 0.14085 0.49721 -0.06409
 C1027 C 0.56939 1.01567 0.47902
 C1028 C 0.56346 0.97619 0.48471
 C1029 C 0.59329 0.95727 0.48917
 C1030 C 0.62708 0.97923 0.48896
 C1031 C 0.62623 0.99957 0.45420
 C1032 C 0.59653 1.01875 0.44921
 C1033 C 0.59064 1.02670 0.51229
 C1034 C 0.62072 1.00792 0.51717
 H1035 H 0.53760 0.96424 0.48569
 H1036 H 0.59278 0.92919 0.49392
 H1037 H 0.64799 1.00022 0.43582
 H1038 H 0.59321 1.03569 0.42667
 H1039 H 0.58494 1.04841 0.52982
 H1040 H 0.63889 1.01503 0.53795
 C1041 C 0.92456 1.02163 0.55316
 C1042 C 0.88636 1.03468 0.55318
 C1043 C 0.86209 1.00940 0.54654
 C1044 C 0.87744 0.97242 0.54165
 C1045 C 0.90507 0.97578 0.51239
 C1046 C 0.92970 1.00098 0.51850
 C1047 C 0.92391 0.99225 0.58133
 C1048 C 0.89963 0.96661 0.57505
 H1049 H 0.87907 1.06178 0.55855
 H1050 H 0.83413 1.01502 0.54625
 H1051 H 0.90624 0.95848 0.48957
 H1052 H 0.95171 1.00494 0.50091
 H1053 H 0.94182 0.98935 0.60312
 H1054 H 0.89870 0.94340 0.59126
 C1055 C 0.43593 0.51157 0.03017
 C1056 C 0.44060 0.47205 0.02297
 C1057 C 0.41011 0.45376 0.02025
 C1058 C 0.37690 0.47638 0.02368
 C1059 C 0.38084 0.49620 0.05890
 C1060 C 0.41124 0.51478 0.06213
 C1061 C 0.41238 0.52333 -0.00102
 C1062 C 0.38167 0.50533 -0.00400
 H1063 H 0.46607 0.45961 0.01976
 H1064 H 0.40965 0.42571 0.01477
 H1065 H 0.36059 0.49697 0.07895
 H1066 H 0.41664 0.53135 0.08486
 H1067 H 0.41696 0.54509 -0.01839
 H1068 H 0.36199 0.51352 -0.02277
 C1069 C 0.49169 0.48176 0.43488
 C1070 C 0.49015 0.45121 0.40808
 C1071 C 0.51070 0.45577 0.37929
 C1072 C 0.53081 0.49083 0.37887
 C1073 C 0.50173 0.51873 0.38345
 C1074 C 0.48156 0.51429 0.41262
 C1075 C 0.53080 0.48825 0.44270
 C1076 C 0.55113 0.49228 0.41373
 H1077 H 0.47331 0.42843 0.41094
 H1078 H 0.51132 0.43676 0.35785
 H1079 H 0.49571 0.53938 0.36506
 H1080 H 0.45981 0.53191 0.41722
 H1081 H 0.54146 0.49011 0.46914
 H1082 H 0.57910 0.49756 0.41555
 C1083 C -0.02137 -0.04508 0.91885
 C1084 C -0.00040 -0.01090 0.92471
 C1085 C 0.02489 -0.00510 0.90024
 C1086 C 0.02793 -0.03416 0.87200
 C1087 C 0.03337 -0.06783 0.89356
 C1088 C 0.00768 -0.07381 0.91766
 C1089 C -0.03443 -0.04444 0.88059
 C1090 C -0.00907 -0.03810 0.85645
 H1091 H -0.00422 0.00659 0.94706
 H1092 H 0.04243 0.01735 0.90191
 H1093 H 0.05650 -0.08436 0.89253
 H1094 H 0.01047 -0.09574 0.93522
 H1095 H -0.06157 -0.04914 0.87316
 H1096 H -0.01465 -0.03737 0.82847
 C1097 C -0.02016 0.04755 0.58319
 C1098 C 0.00907 0.07612 0.58415
 C1099 C 0.03473 0.07028 0.60841
 C1100 C 0.02911 0.03689 0.63032
 C1101 C -0.00788 0.04125 0.64571
 C1102 C -0.03321 0.04744 0.62141
 C1103 C 0.00059 0.01317 0.57781
 C1104 C 0.02586 0.00752 0.60241
 H1105 H 0.01184 0.09796 0.56648
 H1106 H 0.05781 0.08686 0.60950
 H1107 H -0.01346 0.04093 0.67368
 H1108 H -0.06032 0.05242 0.62871
 H1109 H -0.00338 -0.00459 0.55569
 H1110 H 0.04322 -0.01508 0.60109
 C1111 C 0.49113 0.52238 0.06854
 C1112 C 0.48087 0.48989 0.09077
 C1113 C 0.50109 0.48529 0.11993
 C1114 C 0.53037 0.51299 0.12453
 C1115 C 0.55056 0.51143 0.08965
 C1116 C 0.53017 0.51565 0.06069
 C1117 C 0.48990 0.55292 0.09534
 C1118 C 0.51050 0.54819 0.12413
 H1119 H 0.45907 0.47234 0.08606
 H1120 H 0.49504 0.46460 0.13824
 H1121 H 0.57849 0.50596 0.08782
 H1122 H 0.54073 0.51373 0.03425
 H1123 H 0.47325 0.57584 0.09247
 H1124 H 0.51136 0.56719 0.14558
 C1125 C 0.51736 -0.02409 0.06051
 C1126 C 0.52869 0.00860 0.08259
 C1127 C 0.51054 0.01287 0.11316
 C1128 C 0.48207 -0.01529 0.11920
 C1129 C 0.45943 -0.01417 0.08583
 C1130 C 0.47776 -0.01802 0.05550
 C1131 C 0.52113 -0.05450 0.08672
 C1132 C 0.50247 -0.05011 0.11690
 H1133 H 0.55024 0.02612 0.07715
 H1134 H 0.51811 0.03311 0.13183
 H1135 H 0.43134 -0.00925 0.08600
 H1136 H 0.46530 -0.01636 0.02988
 H1137 H 0.53808 -0.07703 0.08240
 H1138 H 0.50358 -0.06900 0.13808
 C1139 C 1.01206 0.47565 0.56027
 C1140 C 0.97235 0.48099 0.55532
 C1141 C 0.95406 0.48499 0.58569
 C1142 C 0.97683 0.48467 0.61901
 C1143 C 0.99775 0.45012 0.61705
 C1144 C 1.01631 0.44560 0.58682
 C1145 C 1.02291 0.50879 0.58194
 C1146 C 1.00482 0.51316 0.61251
 H1147 H 0.95976 0.48208 0.52973
 H1148 H 0.92590 0.48945 0.58590
 H1149 H 0.99918 0.43150 0.63845
 H1150 H 1.03352 0.42323 0.58270
 H1151 H 1.04410 0.52665 0.57619
 H1152 H 1.01212 0.53379 0.63086
 C1153 C 1.01095 0.52650 0.93792
 C1154 C 0.97130 0.52081 0.94294
 C1155 C 0.95287 0.51680 0.91258
 C1156 C 0.97546 0.51751 0.87920
 C1157 C 0.99605 0.55223 0.88132
 C1158 C 1.01476 0.55674 0.91153
 C1159 C 1.02194 0.49357 0.91608
 C1160 C 1.00374 0.48921 0.88554
 H1161 H 0.95887 0.51947 0.96855
 H1162 H 0.92475 0.51208 0.91241
 H1163 H 0.99711 0.57103 0.86007
 H1164 H 1.03175 0.57927 0.91576
 H1165 H 1.04308 0.47566 0.92188
 H1166 H 1.01094 0.46848 0.86731
 C1167 C 0.51757 0.02708 0.43671
 C1168 C 0.52917 -0.00549 0.41464
 C1169 C 0.51107 -0.00986 0.38399
 C1170 C 0.48238 0.01808 0.37788
 C1171 C 0.45973 0.01673 0.41117
 C1172 C 0.47802 0.02068 0.44157
 C1173 C 0.52108 0.05757 0.41056
 C1174 C 0.50249 0.05306 0.38030
 H1175 H 0.55078 -0.02291 0.42024
 H1176 H 0.51874 -0.03009 0.36536
 H1177 H 0.43169 0.01156 0.41089
 H1178 H 0.46556 0.01887 0.46714
 H1179 H 0.53784 0.08023 0.41496
 H1180 H 0.50345 0.07198 0.35915
   
