data_POSCAR
  _audit_creation_date              2014-09-24
  _audit_creation_method            'ToBaCCo'
  _symmetry_space_group_name_H-M    'P1'
  _symmetry_Int_Tables_number       1
  _symmetry_cell_setting            triclinic
  loop_
  _symmetry_equiv_pos_as_xyz
 x,y,z
_cell_length_a 40.1088
_cell_length_b 40.2108
_cell_length_c 17.3436
_cell_angle_alpha 89.955500
_cell_angle_beta 90.344800
_cell_angle_gamma 119.665700
loop_
  _atom_site_label
  _atom_site_type_symbol
  _atom_site_fract_x
  _atom_site_fract_y
  _atom_site_fract_z
C1 C 0.12512 0.46003 0.51240
 C2 C 0.12846 0.46001 0.43380
 C3 C 0.15733 0.45141 0.41836
 N4 N 0.17131 0.44576 0.48515
 C5 C 0.15206 0.45154 0.54269
 C6 C 0.16919 0.44768 0.34357
 C7 C 0.20078 0.44227 0.32822
 C8 C 0.20886 0.43217 0.25705
 C9 C 0.24376 0.43362 0.26430
 C10 C 0.25611 0.44462 0.33960
 N11 N 0.22974 0.44983 0.37796
 C12 C 0.29229 0.45262 0.36904
 C13 C 0.30196 0.45828 0.44821
 C14 C 0.33833 0.47034 0.47792
 C15 C 0.33548 0.47150 0.55646
 C16 C 0.29736 0.45999 0.57244
 N17 N 0.27692 0.45151 0.50610
 C18 C 0.28200 0.45599 0.64739
 C19 C 0.24400 0.44734 0.66309
 C20 C 0.22657 0.43694 0.73478
 C21 C 0.19138 0.43481 0.72758
 C22 C 0.18824 0.44395 0.65177
 N23 N 0.22044 0.45155 0.61303
 C24 C 0.15777 0.44834 0.62217
 H25 H 0.10521 0.46576 0.54363
 H26 H 0.11148 0.46568 0.39268
 H27 H 0.22823 0.46403 0.55902
 H28 H 0.19174 0.42525 0.20487
 H29 H 0.25872 0.42802 0.21884
 H30 H 0.36425 0.47761 0.44635
 H31 H 0.35884 0.47978 0.59719
 H32 H 0.17080 0.42809 0.77336
 H33 H 0.23355 0.46283 0.43135
 H34 H 0.23837 0.43221 0.78725
 C35 C 0.53734 -0.33452 0.52598
 C36 C 0.53746 -0.33227 0.44714
 C37 C 0.54783 -0.29473 0.42888
 N38 N 0.55453 -0.27398 0.49417
 C39 C 0.54764 -0.29832 0.55368
 C40 C 0.55194 -0.28024 0.35296
 C41 C 0.55834 -0.24326 0.33444
 C42 C 0.56796 -0.22670 0.26177
 C43 C 0.56722 -0.19288 0.26565
 C44 C 0.55727 -0.18963 0.34054
 N45 N 0.55192 -0.22044 0.38191
 C46 C 0.55027 -0.16044 0.36705
 C47 C 0.54688 -0.15385 0.44582
 C48 C 0.53667 -0.12782 0.47339
 C49 C 0.53732 -0.12968 0.55227
 C50 C 0.54791 -0.15683 0.57043
 N51 N 0.55426 -0.17114 0.50524
 C52 C 0.55250 -0.16699 0.64619
 C53 C 0.55919 -0.19739 0.66488
 C54 C 0.56921 -0.20402 0.73767
 C55 C 0.56878 -0.23844 0.73404
 C56 C 0.55850 -0.25191 0.65909
 N57 N 0.55275 -0.22666 0.61753
 C58 C 0.55154 -0.28810 0.63264
 H59 H 0.53039 -0.35994 0.55911
 H60 H 0.53060 -0.35569 0.40774
 H61 H 0.53995 -0.23159 0.56353
 H62 H 0.57394 -0.23828 0.21072
 H63 H 0.57262 -0.17330 0.21835
 H64 H 0.52944 -0.10943 0.44022
 H65 H 0.53065 -0.11296 0.59168
 H66 H 0.57455 -0.25237 0.78156
 H67 H 0.53937 -0.22815 0.43580
 H68 H 0.57530 -0.18635 0.78860
 C69 C 1.11804 0.67824 0.55833
 C70 C 1.11463 0.67473 0.47963
 C71 C 1.14959 0.70196 0.44998
 N72 N 1.17421 0.72193 0.50784
 C73 C 1.15505 0.70756 0.57426
 C74 C 1.15955 0.70547 0.37141
 C75 C 1.19471 0.73488 0.34265
 C76 C 1.20895 0.73482 0.27002
 C77 C 1.24315 0.76840 0.26365
 C78 C 1.24891 0.78819 0.33258
 N79 N 1.21900 0.76774 0.38001
 C80 C 1.28031 0.82491 0.34833
 C81 C 1.28990 0.84199 0.42234
 C82 C 1.31868 0.87925 0.43738
 C83 C 1.32175 0.88332 0.51602
 C84 C 1.29478 0.84845 0.54667
 N85 N 1.27544 0.82327 0.48927
 C86 C 1.29091 0.83921 0.62595
 C87 C 1.26132 0.80410 0.65530
 C88 C 1.26094 0.79035 0.72891
 C89 C 1.22746 0.75597 0.73514
 C90 C 1.20809 0.74955 0.66524
 N91 N 1.22870 0.77928 0.61734
 C92 C 1.17168 0.71752 0.64874
 H93 H 1.09610 0.66056 0.59928
 H94 H 1.08964 0.65388 0.44794
 H95 H 1.21934 0.78391 0.56455
 H96 H 1.19611 0.71284 0.22614
 H97 H 1.26164 0.77730 0.21375
 H98 H 1.33625 0.90098 0.39595
 H99 H 1.34211 0.90874 0.54712
 H100 H 1.21840 0.73777 0.78556
 H101 H 1.21381 0.77741 0.43163
 H102 H 1.28263 0.80361 0.77347
 C103 C 0.88566 0.56430 0.55771
 C104 C 0.88756 0.56370 0.47879
 C105 C 0.85228 0.55686 0.45105
 N106 N 0.82884 0.55306 0.51036
 C107 C 0.84913 0.55764 0.57576
 C108 C 0.84105 0.55089 0.37272
 C109 C 0.80595 0.54707 0.34593
 C110 C 0.79069 0.53420 0.27296
 C111 C 0.75692 0.53508 0.26904
 C112 C 0.75237 0.54847 0.33976
 N113 N 0.78266 0.55625 0.38588
 C114 C 0.72136 0.55423 0.35855
 C115 C 0.71226 0.56034 0.43385
 C116 C 0.68302 0.56799 0.45164
 C117 C 0.68034 0.56728 0.53051
 C118 C 0.70807 0.55927 0.55844
 N119 N 0.72745 0.55498 0.49919
 C120 C 0.71275 0.55251 0.63667
 C121 C 0.74333 0.54736 0.66341
 C122 C 0.74519 0.53386 0.73607
 C123 C 0.77927 0.53362 0.74008
 C124 C 0.79748 0.54696 0.66971
 N125 N 0.77561 0.55574 0.62376
 C126 C 0.83399 0.55190 0.65120
 H127 H 0.90825 0.56820 0.59740
 H128 H 0.91186 0.56714 0.44569
 H129 H 0.78405 0.56992 0.57132
 H130 H 0.80255 0.52497 0.22726
 H131 H 0.73783 0.52669 0.21962
 H132 H 0.66482 0.57261 0.41185
 H133 H 0.65978 0.57132 0.56347
 H134 H 0.78945 0.52457 0.78933
 H135 H 0.78857 0.57022 0.43873
 H136 H 0.72413 0.52502 0.78153
 C137 C 0.43433 0.11484 0.51643
 C138 C 0.43401 0.11873 0.43787
 C139 C 0.44243 0.15607 0.42367
 N140 N 0.44797 0.17505 0.49092
 C141 C 0.44298 0.14993 0.54778
 C142 C 0.44886 0.17291 0.34979
 C143 C 0.45436 0.20977 0.33421
 C144 C 0.46719 0.22878 0.26449
 C145 C 0.46759 0.26302 0.27149
 C146 C 0.45510 0.26409 0.34533
 N147 N 0.44654 0.23123 0.38277
 C148 C 0.45111 0.29459 0.37534
 C149 C 0.44646 0.29878 0.45467
 C150 C 0.44015 0.32683 0.48598
 C151 C 0.44105 0.32332 0.56455
 C152 C 0.44797 0.29323 0.57880
 N153 N 0.45133 0.27839 0.51143
 C154 C 0.45495 0.28274 0.65257
 C155 C 0.45897 0.25031 0.66780
 C156 C 0.47246 0.24366 0.73679
 C157 C 0.47073 0.20882 0.72980
 C158 C 0.45629 0.19499 0.65669
 N159 N 0.44871 0.22029 0.61973
 C160 C 0.44966 0.15941 0.62694
 H161 H 0.42965 0.08940 0.54693
 H162 H 0.42900 0.09679 0.39593
 H163 H 0.43406 0.21589 0.56781
 H164 H 0.47541 0.21902 0.21368
 H165 H 0.47632 0.28472 0.22729
 H166 H 0.43612 0.34807 0.45544
 H167 H 0.43785 0.34146 0.60647
 H168 H 0.47931 0.19528 0.77355
 H169 H 0.43286 0.22228 0.43555
 H170 H 0.48249 0.26202 0.78712
 C171 C 0.67505 0.11267 0.48381
 C172 C 0.67886 0.11552 0.56260
 C173 C 0.70865 0.15211 0.57901
 N174 N 0.72304 0.17159 0.51287
 C175 C 0.70263 0.14754 0.45463
 C176 C 0.71896 0.16806 0.65381
 C177 C 0.75078 0.20435 0.67131
 C178 C 0.75678 0.22301 0.74165
 C179 C 0.79089 0.25686 0.73626
 C180 C 0.80492 0.25811 0.66273
 N181 N 0.78053 0.22563 0.62403
 C182 C 0.83980 0.28839 0.63396
 C183 C 0.84942 0.29238 0.55499
 C184 C 0.88428 0.31973 0.52485
 C185 C 0.88047 0.31661 0.44617
 C186 C 0.84340 0.28748 0.43072
 N187 N 0.82452 0.27278 0.49726
 C188 C 0.82651 0.27808 0.35662
 C189 C 0.78987 0.24687 0.33974
 C190 C 0.77042 0.24177 0.27038
 C191 C 0.73659 0.20776 0.27570
 C192 C 0.73620 0.19299 0.34818
 N193 N 0.76909 0.21677 0.38641
 C194 C 0.70629 0.15794 0.37614
 H195 H 0.65384 0.08809 0.45179
 H196 H 0.66104 0.09348 0.60325
 H197 H 0.77859 0.21127 0.43816
 H198 H 0.73843 0.21332 0.79173
 H199 H 0.80377 0.27824 0.78126
 H200 H 0.90948 0.34038 0.55629
 H201 H 0.90220 0.33445 0.40501
 H202 H 0.71471 0.19543 0.23127
 H203 H 0.78530 0.21677 0.57104
 H204 H 0.77964 0.26059 0.22089
 O205 O 0.96798 0.53248 -0.09183
 O206 O 1.03564 0.52805 0.15215
 O207 O 0.93338 0.49970 0.05663
 O208 O 1.09439 0.56472 -0.06290
 O209 O 0.96416 0.49575 0.15469
 O210 O 1.04009 0.56412 -0.09546
 O211 O 1.06073 0.56711 0.05376
 O212 O 0.91757 0.47763 -0.07504
 C213 C 0.93260 0.51111 -0.10049
 C214 C 1.05551 0.56173 0.12530
 C215 C 0.94084 0.50470 0.12677
 C216 C 1.07646 0.57827 -0.10412
 O217 O 1.03228 0.49933 -0.15846
 O218 O 0.95758 0.43053 0.09790
 O219 O 0.94017 0.42766 -0.05853
 O220 O 1.08048 0.51578 0.06747
 O221 O 1.03065 0.46234 0.10077
 O222 O 0.96261 0.46761 -0.15463
 O223 O 1.06190 0.49241 -0.06279
 O224 O 0.90355 0.42811 0.05536
 Co225 Co 1.00038 0.51464 -0.11574
 Co226 Co 0.99723 0.48051 0.11582
 Co227 Co 0.94100 0.46529 0.00127
 Co228 Co 1.05669 0.52815 -0.00807
 O229 O 0.99876 0.49686 -0.00157
 C230 C 1.05388 0.48797 -0.13221
 C231 C 0.92099 0.41584 0.10119
 C232 C 0.94529 0.43354 -0.12940
 C233 C 1.06631 0.48364 0.09937
 O234 O 0.47046 0.43585 -0.11431
 O235 O 0.47057 0.50703 0.15285
 O236 O 0.49351 0.43441 0.06019
 O237 O 0.43806 0.52291 -0.06901
 O238 O 0.50568 0.47238 0.15438
 O239 O 0.43474 0.47124 -0.11503
 O240 O 0.43292 0.49428 0.05729
 O241 O 0.52205 0.43913 -0.06596
 C242 C 0.49217 0.42207 -0.10595
 C243 C 0.43711 0.49233 0.12717
 C244 C 0.49136 0.43891 0.12986
 C245 C 0.42087 0.49286 -0.10802
 O246 O 0.49794 0.53600 -0.15773
 O247 O 0.56665 0.53048 0.08690
 O248 O 0.57114 0.50897 -0.05302
 O249 O 0.47424 0.56840 0.06479
 O250 O 0.52903 0.56789 0.08570
 O251 O 0.53524 0.49882 -0.15692
 O252 O 0.50810 0.57178 -0.05430
 O253 O 0.56766 0.47600 0.06799
 Co254 Co 0.48564 0.48656 -0.12578
 Co255 Co 0.51664 0.51807 0.10918
 Co256 Co 0.53065 0.47458 0.00777
 Co257 Co 0.47330 0.53144 0.00584
 O258 O 0.49785 0.49890 -0.00762
 C259 C 0.50956 0.56862 -0.12651
 C260 C 0.58160 0.50932 0.10218
 C261 C 0.56793 0.51027 -0.12545
 C262 C 0.50766 0.58273 0.09950
 O263 O 0.56253 0.03719 -0.08519
 O264 O 0.49258 -0.03855 0.15472
 O265 O 0.56531 0.06181 0.05604
 O266 O 0.47153 -0.09269 -0.06959
 O267 O 0.52846 0.03526 0.15727
 O268 O 0.52592 -0.03743 -0.08716
 O269 O 0.50421 -0.06307 0.05144
 O270 O 0.56240 0.09203 -0.06455
 C271 C 0.57722 0.07327 -0.09837
 C272 C 0.50513 -0.05890 0.12376
 C273 C 0.56139 0.05663 0.12816
 C274 C 0.50518 -0.07338 -0.10223
 O275 O 0.46728 -0.03501 -0.15695
 O276 O 0.46351 0.03334 0.11090
 O277 O 0.48817 0.05936 -0.06156
 O278 O 0.43387 -0.08481 0.06287
 O279 O 0.42902 -0.03726 0.10827
 O280 O 0.50154 0.03446 -0.15562
 O281 O 0.42901 -0.06068 -0.06360
 O282 O 0.51520 0.08190 0.06663
 Co283 Co 0.51286 -0.00025 -0.11052
 Co284 Co 0.47951 -0.00176 0.12267
 Co285 Co 0.52515 0.05605 -0.00716
 Co286 Co 0.46934 -0.05751 -0.01015
 O287 O 0.49294 -0.00086 0.00528
 C288 C 0.43366 -0.05423 -0.13325
 C289 C 0.48487 0.06868 0.10462
 C290 C 0.48678 0.05339 -0.13147
 C291 C 0.41617 -0.07245 0.10186
 C292 C 1.14957 0.45135 0.28244
 C293 C 1.13169 0.45640 0.23242
 C294 C 1.10983 0.46439 0.17978
 C295 C 1.09035 0.47263 0.14008
 C296 C 0.54709 0.69540 0.29359
 C297 C 0.54088 0.67216 0.24392
 C298 C 0.53126 0.64280 0.18972
 C299 C 0.52129 0.61609 0.14671
 C300 C 0.30487 -0.15596 0.28941
 C301 C 0.32776 -0.13878 0.23973
 C302 C 0.35648 -0.11756 0.18576
 C303 C 0.38283 -0.09791 0.14429
 C304 C 0.86503 0.54483 0.31796
 C305 C 0.88392 0.53831 0.27253
 C306 C 0.90495 0.52884 0.21989
 C307 C 0.92192 0.51899 0.17626
 C308 C 0.45572 0.32493 0.32288
 C309 C 0.46101 0.35044 0.27879
 C310 C 0.46911 0.38075 0.22672
 C311 C 0.47796 0.40702 0.18233
 C312 C 0.67598 0.13331 0.32241
 C313 C 0.65065 0.11418 0.27692
 C314 C 0.62050 0.09309 0.22352
 C315 C 0.59408 0.07600 0.17893
 C316 C 0.45339 0.13449 -0.32377
 C317 C 0.45805 0.11358 -0.28009
 C318 C 0.46547 0.09056 -0.22843
 C319 C 0.47383 0.07249 -0.18418
 C320 C 0.68441 0.54726 -0.31207
 C321 C 0.65892 0.54129 -0.26750
 C322 C 0.62823 0.53252 -0.21621
 C323 C 0.60124 0.52340 -0.17376
 C324 C 0.86386 0.31726 -0.31641
 C325 C 0.88454 0.34343 -0.27392
 C326 C 0.90772 0.37474 -0.22455
 C327 C 0.92602 0.40164 -0.18187
 C328 C 0.54738 -0.14626 -0.29132
 C329 C 0.54079 -0.12915 -0.24251
 C330 C 0.53052 -0.10936 -0.18967
 C331 C 0.51983 -0.09273 -0.14796
 C332 C 0.30604 0.46171 -0.29174
 C333 C 0.32925 0.46793 -0.24168
 C334 C 0.35902 0.47631 -0.18878
 C335 C 0.38643 0.48389 -0.14883
 C336 C 1.15273 0.69222 -0.29315
 C337 C 1.13570 0.66826 -0.24499
 C338 C 1.11536 0.63836 -0.19253
 C339 C 1.09770 0.61148 -0.15068
 C340 C 0.85447 0.54696 -0.29109
 C341 C 0.87219 0.54109 -0.24204
 C342 C 0.89286 0.53232 -0.18798
 C343 C 0.91078 0.52332 -0.14549
 C344 C 0.46133 0.30759 -0.28816
 C345 C 0.46783 0.33107 -0.23899
 C346 C 0.47616 0.36074 -0.18649
 C347 C 0.48353 0.38792 -0.14661
 C348 C 0.69235 0.14751 -0.28505
 C349 C 0.66834 0.13034 -0.23718
 C350 C 0.63826 0.11028 -0.18504
 C351 C 0.61105 0.09325 -0.14372
 C352 C 1.13223 0.45185 -0.32335
 C353 C 1.11200 0.45663 -0.27853
 C354 C 1.08971 0.46460 -0.22662
 C355 C 1.07226 0.47376 -0.18300
 C356 C 0.54676 0.68467 -0.31373
 C357 C 0.54097 0.65962 -0.26818
 C358 C 0.53220 0.62900 -0.21685
 C359 C 0.52293 0.60192 -0.17469
 C360 C 0.31924 -0.13604 -0.32420
 C361 C 0.34476 -0.11500 -0.28076
 C362 C 0.37532 -0.09164 -0.22986
 C363 C 0.40180 -0.07334 -0.18609
 C364 C 0.54465 -0.13692 0.31049
 C365 C 0.53825 -0.11784 0.26526
 C366 C 0.52880 -0.09621 0.21423
 C367 C 0.51901 -0.07859 0.17216
 C368 C 0.32174 0.45681 0.31495
 C369 C 0.34720 0.46191 0.27120
 C370 C 0.37797 0.46995 0.22084
 C371 C 0.40477 0.47885 0.17812
 C372 C 1.13418 0.67529 0.31859
 C373 C 1.11427 0.64989 0.27422
 C374 C 1.09231 0.61972 0.22198
 C375 C 1.07479 0.59353 0.17756
 C376 C 0.45406 0.15232 0.28726
 C377 C 0.45982 0.13474 0.23825
 C378 C 0.46789 0.11321 0.18572
 C379 C 0.47549 0.09360 0.14566
 C380 C 0.69436 0.54899 0.29797
 C381 C 0.67054 0.54265 0.24923
 C382 C 0.64110 0.53301 0.19482
 C383 C 0.61459 0.52302 0.15090
 C384 C 0.84645 0.30470 0.29541
 C385 C 0.86283 0.32816 0.24635
 C386 C 0.88219 0.35716 0.19207
 C387 C 0.89940 0.38332 0.14869
   
