data_POSCAR
  _audit_creation_date              2014-09-24
  _audit_creation_method            'ToBaCCo'
  _symmetry_space_group_name_H-M    'P1'
  _symmetry_Int_Tables_number       1
  _symmetry_cell_setting            triclinic
  loop_
  _symmetry_equiv_pos_as_xyz
 x,y,z
_cell_length_a 38.8877
_cell_length_b 39.2928
_cell_length_c 39.3652
_cell_angle_alpha 90.003100
_cell_angle_beta 89.957300
_cell_angle_gamma 90.002100
loop_
  _atom_site_label
  _atom_site_type_symbol
  _atom_site_fract_x
  _atom_site_fract_y
  _atom_site_fract_z
C1 C 0.27442 0.24887 0.22648
 N2 N 0.24982 0.27341 0.22684
 C3 C 0.22523 0.27381 0.25136
 N4 N 0.22540 0.24931 0.27572
 C5 C 0.24983 0.22459 0.27570
 N6 N 0.27425 0.22454 0.25099
 C7 C 0.72538 -0.24895 0.22480
 N8 N 0.74979 -0.27374 0.22556
 C9 C 0.77413 -0.27449 0.25033
 N10 N 0.77376 -0.24995 0.27468
 C11 C 0.74968 -0.22493 0.27435
 N12 N 0.72564 -0.22458 0.24934
 C13 C 0.72610 0.24918 0.77349
 N14 N 0.75065 0.27376 0.77307
 C15 C 0.77493 0.27465 0.74820
 N16 N 0.77436 0.25035 0.72360
 C17 C 0.75007 0.22549 0.72373
 N18 N 0.72600 0.22510 0.74875
 C19 C 0.27554 -0.24903 0.77543
 N20 N 0.27500 -0.22443 0.75111
 C21 C 0.25066 -0.22451 0.72637
 N22 N 0.22651 -0.24947 0.72611
 C23 C 0.22656 -0.27422 0.75019
 N24 N 0.25116 -0.27385 0.77468
 C25 C 0.72501 -0.24912 0.77467
 N26 N 0.72528 -0.22476 0.75013
 C27 C 0.74930 -0.22516 0.72505
 N28 N 0.77335 -0.25023 0.72467
 C29 C 0.77370 -0.27477 0.74903
 N30 N 0.74937 -0.27395 0.77386
 C31 C 0.27420 0.24852 0.77424
 N32 N 0.27409 0.22419 0.74971
 C33 C 0.24970 0.22422 0.72501
 N34 N 0.22525 0.24893 0.72501
 C35 C 0.22502 0.27344 0.74936
 N36 N 0.24958 0.27305 0.77388
 C37 C 0.27477 -0.24921 0.22468
 N38 N 0.25030 -0.27395 0.22535
 C39 C 0.22589 -0.27470 0.25012
 N40 N 0.22628 -0.25021 0.27452
 C41 C 0.25043 -0.22524 0.27427
 N42 N 0.27452 -0.22490 0.24928
 C43 C 0.72661 0.24959 0.22622
 N44 N 0.75116 0.27418 0.22664
 C45 C 0.77542 0.27507 0.25150
 N46 N 0.77483 0.25077 0.27611
 C47 C 0.75053 0.22590 0.27599
 N48 N 0.72649 0.22552 0.25098
 O49 O 0.22186 0.03218 0.46712
 O50 O 0.22207 -0.03413 0.53314
 O51 O 0.22190 0.03227 0.53303
 O52 O 0.22208 -0.03426 0.46715
 O53 O 0.27881 -0.03392 0.46689
 O54 O 0.27864 0.03222 0.53318
 O55 O 0.27881 -0.03382 0.53327
 O56 O 0.27860 0.03216 0.46689
 Cu57 Cu 0.21629 -0.00102 0.50011
 Cu58 Cu 0.28441 -0.00084 0.50004
 C59 C 0.25020 0.04352 0.45570
 C60 C 0.25047 -0.04525 0.54458
 C61 C 0.25024 0.04360 0.54442
 C62 C 0.25047 -0.04542 0.45568
 O63 O 0.72137 0.03270 0.53288
 O64 O 0.72127 -0.03331 0.46653
 O65 O 0.72121 -0.03337 0.53290
 O66 O 0.72146 0.03277 0.46662
 O67 O 0.77820 0.03283 0.46683
 O68 O 0.77794 -0.03370 0.53271
 O69 O 0.77801 -0.03362 0.46673
 O70 O 0.77811 0.03275 0.53271
 Cu71 Cu 0.71564 -0.00031 0.49973
 Cu72 Cu 0.78375 -0.00047 0.49975
 C73 C 0.74976 0.04409 0.54408
 C74 C 0.74962 -0.04478 0.45529
 C75 C 0.74954 -0.04487 0.54413
 C76 C 0.74987 0.04419 0.45546
 O77 O 0.46715 0.21973 0.03342
 O78 O 0.53384 0.21970 -0.03300
 O79 O 0.53392 0.21979 0.03332
 O80 O 0.46708 0.21968 -0.03292
 O81 O 0.46688 0.27583 -0.03276
 O82 O 0.53405 0.27594 0.03305
 O83 O 0.53395 0.27585 -0.03286
 O84 O 0.46697 0.27588 0.03318
 Cu85 Cu 0.50050 0.21408 0.00021
 Cu86 Cu 0.50045 0.28150 0.00015
 C87 C 0.45564 0.24782 0.04465
 C88 C 0.54533 0.24778 -0.04427
 C89 C 0.54546 0.24789 0.04449
 C90 C 0.45553 0.24775 -0.04416
 O91 O 0.53400 0.72403 0.03308
 O92 O 0.46688 0.72397 -0.03278
 O93 O 0.53408 0.72407 -0.03277
 O94 O 0.46676 0.72397 0.03306
 O95 O 0.46699 0.78015 0.03339
 O96 O 0.53374 0.78024 -0.03306
 O97 O 0.46708 0.78016 -0.03305
 O98 O 0.53369 0.78021 0.03338
 Cu99 Cu 0.50044 0.71838 0.00016
 Cu100 Cu 0.50037 0.78583 0.00018
 C101 C 0.54527 0.75212 0.04452
 C102 C 0.45558 0.75205 -0.04422
 C103 C 0.54534 0.75216 -0.04422
 C104 C 0.45542 0.75204 0.04451
 O105 O 0.03313 0.46768 0.22388
 O106 O -0.03378 0.53390 0.22368
 O107 O 0.03350 0.53373 0.22353
 O108 O -0.03395 0.46797 0.22402
 O109 O -0.03341 0.46777 0.28009
 O110 O 0.03314 0.53447 0.27960
 O111 O -0.03355 0.53433 0.27976
 O112 O 0.03329 0.46798 0.27994
 Cu113 Cu -0.00027 0.50082 0.21816
 Cu114 Cu -0.00013 0.50118 0.28548
 C115 C 0.04461 0.45645 0.25193
 C116 C -0.04511 0.54541 0.25169
 C117 C 0.04478 0.54540 0.25148
 C118 C -0.04510 0.45653 0.25213
 O119 O 0.03289 0.53365 0.72034
 O120 O -0.03387 0.46723 0.71973
 O121 O -0.03388 0.53381 0.71993
 O122 O 0.03280 0.46724 0.72017
 O123 O 0.03252 0.46727 0.77622
 O124 O -0.03459 0.53333 0.77599
 O125 O -0.03457 0.46742 0.77581
 O126 O 0.03260 0.53337 0.77639
 Cu127 Cu -0.00049 0.50052 0.71441
 Cu128 Cu -0.00103 0.50036 0.78173
 C129 C 0.04423 0.54482 0.74847
 C130 C -0.04564 0.45600 0.74768
 C131 C -0.04570 0.54487 0.74793
 C132 C 0.04407 0.45587 0.74824
 C133 C 0.35165 0.24833 0.14879
 C134 C 0.34609 0.21884 0.16817
 C135 C 0.32094 0.21921 0.19372
 C136 C 0.30112 0.24867 0.19964
 C137 C 0.30694 0.27794 0.17975
 C138 C 0.33233 0.27797 0.15444
 C139 C 0.37824 0.24816 0.12205
 C140 C 0.38415 0.27781 0.10301
 C141 C 0.40965 0.27760 0.07782
 C142 C 0.42884 0.24789 0.07132
 C143 C 0.42237 0.21830 0.09050
 C144 C 0.39724 0.21837 0.11608
 C145 C 0.33885 0.30708 0.13473
 C146 C 0.36440 0.30704 0.10952
 C147 C 0.36573 0.18957 0.16156
 C148 C 0.39081 0.18930 0.13588
 H149 H 0.32414 0.33014 0.13889
 H150 H 0.36868 0.33005 0.09496
 H151 H 0.36165 0.16664 0.17631
 H152 H 0.40534 0.16617 0.13155
 H153 H 0.31657 0.19648 0.20871
 H154 H 0.29201 0.30081 0.18418
 H155 H 0.41431 0.30044 0.06307
 H156 H 0.43713 0.19537 0.08582
 C157 C 0.64952 0.75180 0.14815
 C158 C 0.65163 0.77922 0.17088
 C159 C 0.67670 0.77876 0.19647
 C160 C 0.70017 0.75139 0.19911
 C161 C 0.69777 0.72428 0.17560
 C162 C 0.67231 0.72421 0.15039
 C163 C 0.62286 0.75194 0.12151
 C164 C 0.62021 0.72410 0.09928
 C165 C 0.59452 0.72416 0.07430
 C166 C 0.57210 0.75211 0.07104
 C167 C 0.57538 0.78000 0.09327
 C168 C 0.60050 0.77987 0.11882
 C169 C 0.66907 0.69697 0.12746
 C170 C 0.64335 0.69684 0.10246
 C171 C 0.62863 0.80661 0.16754
 C172 C 0.60362 0.80701 0.14185
 H173 H 0.68646 0.67548 0.12897
 H174 H 0.64164 0.67526 0.08540
 H175 H 0.63005 0.82798 0.18488
 H176 H 0.58647 0.82868 0.14010
 H177 H 0.67804 0.79998 0.21402
 H178 H 0.71530 0.70288 0.17709
 H179 H 0.59228 0.70272 0.05709
 H180 H 0.55803 0.80148 0.09104
 C181 C 0.64930 0.24834 -0.14841
 C182 C 0.65480 0.21890 -0.16789
 C183 C 0.67986 0.21933 -0.19353
 C184 C 0.69964 0.24881 -0.19944
 C185 C 0.69391 0.27802 -0.17943
 C186 C 0.66862 0.27799 -0.15404
 C187 C 0.62275 0.24813 -0.12165
 C188 C 0.61687 0.27776 -0.10255
 C189 C 0.59138 0.27754 -0.07736
 C190 C 0.57214 0.24784 -0.07092
 C191 C 0.57859 0.21826 -0.09014
 C192 C 0.60372 0.21835 -0.11572
 C193 C 0.66215 0.30706 -0.13426
 C194 C 0.63664 0.30698 -0.10902
 C195 C 0.63514 0.18962 -0.16131
 C196 C 0.61011 0.18931 -0.13559
 H197 H 0.67686 0.33011 -0.13840
 H198 H 0.63239 0.32997 -0.09441
 H199 H 0.63917 0.16672 -0.17612
 H200 H 0.59556 0.16619 -0.13130
 H201 H 0.68415 0.19665 -0.20862
 H202 H 0.70881 0.30091 -0.18386
 H203 H 0.58673 0.30036 -0.06257
 H204 H 0.56380 0.19534 -0.08549
 C205 C 0.35160 0.75155 -0.14811
 C206 C 0.34939 0.77905 -0.17074
 C207 C 0.32431 0.77861 -0.19632
 C208 C 0.30092 0.75118 -0.19904
 C209 C 0.30346 0.72396 -0.17568
 C210 C 0.32893 0.72388 -0.15048
 C211 C 0.37821 0.75172 -0.12142
 C212 C 0.38093 0.72384 -0.09928
 C213 C 0.40654 0.72394 -0.07422
 C214 C 0.42882 0.75199 -0.07081
 C215 C 0.42548 0.77992 -0.09298
 C216 C 0.40043 0.77975 -0.11859
 C217 C 0.33225 0.69657 -0.12765
 C218 C 0.35792 0.69647 -0.10259
 C219 C 0.37226 0.80653 -0.16728
 C220 C 0.39724 0.80695 -0.14154
 H221 H 0.31495 0.67502 -0.12925
 H222 H 0.35969 0.67485 -0.08561
 H223 H 0.37078 0.82796 -0.18453
 H224 H 0.41428 0.82869 -0.13969
 H225 H 0.32287 0.79991 -0.21376
 H226 H 0.28599 0.70251 -0.17724
 H227 H 0.40883 0.70247 -0.05707
 H228 H 0.44271 0.80148 -0.09063
 C229 C 0.14820 0.35180 0.25171
 C230 C 0.16743 0.34592 0.22210
 C231 C 0.19273 0.32049 0.22219
 C232 C 0.19855 0.30071 0.25150
 C233 C 0.17880 0.30683 0.28092
 C234 C 0.15374 0.33250 0.28122
 C235 C 0.12173 0.37867 0.25181
 C236 C 0.10281 0.38488 0.28157
 C237 C 0.07780 0.41060 0.28158
 C238 C 0.07134 0.42968 0.25195
 C239 C 0.09044 0.42295 0.22227
 C240 C 0.11584 0.39762 0.22214
 C241 C 0.13418 0.33935 0.31046
 C242 C 0.10922 0.36517 0.31067
 C243 C 0.16094 0.36553 0.19296
 C244 C 0.13550 0.39087 0.19294
 H245 H 0.13824 0.32468 0.33342
 H246 H 0.09475 0.36967 0.33377
 H247 H 0.17558 0.36120 0.16993
 H248 H 0.13124 0.40536 0.16990
 H249 H 0.20760 0.31591 0.19935
 H250 H 0.18316 0.29192 0.30368
 H251 H 0.06309 0.41546 0.30447
 H252 H 0.08579 0.43762 0.19941
 C253 C 0.14911 0.64821 0.74934
 C254 C 0.15488 0.66763 0.71995
 C255 C 0.18019 0.69304 0.72040
 C256 C 0.19996 0.69882 0.74984
 C257 C 0.19399 0.67885 0.77901
 C258 C 0.16843 0.65367 0.77896
 C259 C 0.12228 0.62169 0.74911
 C260 C 0.11612 0.60264 0.77867
 C261 C 0.09037 0.57765 0.77840
 C262 C 0.07118 0.57137 0.74870
 C263 C 0.07790 0.59057 0.71921
 C264 C 0.10326 0.61594 0.71935
 C265 C 0.16167 0.63394 0.80798
 C266 C 0.13588 0.60893 0.80787
 C267 C 0.13524 0.66123 0.69069
 C268 C 0.10994 0.63574 0.69036
 H269 H 0.17636 0.63794 0.83101
 H270 H 0.13143 0.59436 0.83082
 H271 H 0.13948 0.67601 0.66783
 H272 H 0.09541 0.63159 0.66726
 H273 H 0.18466 0.70810 0.69775
 H274 H 0.20888 0.68317 0.80187
 H275 H 0.08552 0.56288 0.80117
 H276 H 0.06315 0.58605 0.69629
 C277 C -0.14972 0.64894 0.25116
 C278 C -0.17245 0.65112 0.22358
 C279 C -0.19801 0.67630 0.22362
 C280 C -0.20057 0.69983 0.25069
 C281 C -0.17717 0.69723 0.27805
 C282 C -0.15200 0.67168 0.27854
 C283 C -0.12296 0.62234 0.25133
 C284 C -0.10066 0.61971 0.27926
 C285 C -0.07544 0.59420 0.27943
 C286 C -0.07200 0.57194 0.25159
 C287 C -0.09436 0.57514 0.22365
 C288 C -0.12014 0.60010 0.22355
 C289 C -0.12906 0.66841 0.30592
 C290 C -0.10394 0.64275 0.30636
 C291 C -0.16905 0.62818 0.19639
 C292 C -0.14323 0.60322 0.19629
 H293 H -0.13061 0.68576 0.32726
 H294 H -0.08685 0.64105 0.32801
 H295 H -0.18639 0.62965 0.17490
 H296 H -0.14139 0.58615 0.17475
 H297 H -0.21550 0.67776 0.20223
 H298 H -0.17863 0.71480 0.29925
 H299 H -0.05815 0.59200 0.30091
 H300 H -0.09200 0.55792 0.20225
 C301 C -0.14934 0.35161 0.74771
 C302 C -0.15145 0.32899 0.72020
 C303 C -0.17642 0.30323 0.72059
 C304 C -0.19978 0.30032 0.74799
 C305 C -0.19733 0.32367 0.77522
 C306 C -0.17199 0.34905 0.77534
 C307 C -0.12285 0.37847 0.74760
 C308 C -0.12024 0.40059 0.77550
 C309 C -0.09472 0.42579 0.77549
 C310 C -0.07240 0.42936 0.74753
 C311 C -0.07565 0.40724 0.71956
 C312 C -0.10062 0.38148 0.71963
 C313 C -0.16879 0.37186 0.80266
 C314 C -0.14324 0.39709 0.80281
 C315 C -0.12858 0.33265 0.69277
 C316 C -0.10371 0.35855 0.69242
 H317 H -0.18609 0.37011 0.82418
 H318 H -0.14155 0.41406 0.82444
 H319 H -0.12999 0.31541 0.67134
 H320 H -0.08666 0.36055 0.67073
 H321 H -0.17780 0.28579 0.69930
 H322 H -0.21478 0.32197 0.79665
 H323 H -0.09250 0.44290 0.79699
 H324 H -0.05838 0.40971 0.69807
 C325 C 0.24997 0.14737 0.35257
 C326 C 0.27976 0.15290 0.33317
 C327 C 0.27951 0.17806 0.30792
 C328 C 0.24988 0.19794 0.30230
 C329 C 0.22030 0.19218 0.32221
 C330 C 0.22014 0.16676 0.34722
 C331 C 0.25002 0.12075 0.37898
 C332 C 0.22007 0.11488 0.39804
 C333 C 0.22018 0.08938 0.42296
 C334 C 0.25012 0.07017 0.42918
 C335 C 0.28001 0.07659 0.40996
 C336 C 0.28002 0.10170 0.38465
 C337 C 0.19072 0.16027 0.36694
 C338 C 0.19065 0.13469 0.39184
 C339 C 0.30923 0.13319 0.33946
 C340 C 0.30939 0.10810 0.36485
 H341 H 0.16752 0.17502 0.36302
 H342 H 0.16740 0.13044 0.40641
 H343 H 0.33239 0.13725 0.32470
 H344 H 0.33268 0.09353 0.36894
 H345 H 0.30248 0.18238 0.29291
 H346 H 0.19729 0.20717 0.31801
 H347 H 0.19713 0.08475 0.43775
 H348 H 0.30311 0.06182 0.41444
 C349 C 0.74983 0.14833 0.64682
 C350 C 0.77960 0.16787 0.65200
 C351 C 0.77943 0.19333 0.67696
 C352 C 0.74993 0.19897 0.69701
 C353 C 0.72035 0.17897 0.69154
 C354 C 0.72009 0.15376 0.66633
 C355 C 0.74981 0.12161 0.62051
 C356 C 0.71989 0.10239 0.61501
 C357 C 0.71994 0.07717 0.58980
 C358 C 0.74980 0.07082 0.57052
 C359 C 0.77966 0.09019 0.57656
 C360 C 0.77973 0.11580 0.60137
 C361 C 0.69070 0.13390 0.66020
 C362 C 0.69056 0.10872 0.63490
 C363 C 0.80897 0.16145 0.63220
 C364 C 0.80907 0.13578 0.60739
 H365 H 0.66757 0.13789 0.67505
 H366 H 0.66733 0.09402 0.63094
 H367 H 0.83211 0.17632 0.63598
 H368 H 0.83229 0.13159 0.59275
 H369 H 0.80240 0.20841 0.68107
 H370 H 0.69744 0.18319 0.70666
 H371 H 0.69690 0.06227 0.58546
 H372 H 0.80269 0.08563 0.56171
 C373 C 0.25050 -0.14775 0.64906
 C374 C 0.22075 -0.16722 0.65459
 C375 C 0.22098 -0.19237 0.67985
 C376 C 0.25055 -0.19781 0.69982
 C377 C 0.28007 -0.17779 0.69410
 C378 C 0.28026 -0.15288 0.66858
 C379 C 0.25051 -0.12151 0.62227
 C380 C 0.28044 -0.10240 0.61637
 C381 C 0.28038 -0.07765 0.59070
 C382 C 0.25052 -0.07165 0.57134
 C383 C 0.22066 -0.09092 0.57779
 C384 C 0.22060 -0.11606 0.60307
 C385 C 0.30964 -0.13311 0.66206
 C386 C 0.30977 -0.10837 0.63633
 C387 C 0.19137 -0.16115 0.63474
 C388 C 0.19125 -0.13591 0.60950
 H389 H 0.33278 -0.13686 0.67691
 H390 H 0.33300 -0.09375 0.63207
 H391 H 0.16823 -0.17597 0.63880
 H392 H 0.16803 -0.13199 0.59482
 H393 H 0.19806 -0.20747 0.68414
 H394 H 0.30304 -0.18187 0.70915
 H395 H 0.30342 -0.06282 0.58606
 H396 H 0.19762 -0.08661 0.56291
 C397 C 0.74963 -0.14802 0.35153
 C398 C 0.71994 -0.15316 0.33191
 C399 C 0.72016 -0.17819 0.30650
 C400 C 0.74965 -0.19832 0.30099
 C401 C 0.77913 -0.19291 0.32110
 C402 C 0.77933 -0.16764 0.34624
 C403 C 0.74962 -0.12158 0.37812
 C404 C 0.77948 -0.11609 0.39739
 C405 C 0.77941 -0.09075 0.42248
 C406 C 0.74960 -0.07132 0.42866
 C407 C 0.71979 -0.07736 0.40924
 C408 C 0.71974 -0.10231 0.38375
 C409 C 0.80865 -0.16153 0.36617
 C410 C 0.80876 -0.13611 0.39123
 C411 C 0.69061 -0.13324 0.33816
 C412 C 0.69047 -0.10832 0.36373
 H413 H 0.83175 -0.17646 0.36230
 H414 H 0.83194 -0.13216 0.40597
 H415 H 0.66752 -0.13700 0.32324
 H416 H 0.66728 -0.09358 0.36778
 H417 H 0.69727 -0.18224 0.29134
 H418 H 0.80203 -0.20808 0.31696
 H419 H 0.80241 -0.08641 0.43742
 H420 H 0.69680 -0.06241 0.41368
 C421 C 0.64935 0.75175 -0.14831
 C422 C 0.67209 0.72413 -0.15067
 C423 C 0.69746 0.72416 -0.17600
 C424 C 0.69984 0.75126 -0.19953
 C425 C 0.67641 0.77866 -0.19678
 C426 C 0.65142 0.77916 -0.17106
 C427 C 0.62278 0.75193 -0.12154
 C428 C 0.60046 0.77989 -0.11874
 C429 C 0.57542 0.78005 -0.09307
 C430 C 0.57216 0.75216 -0.07082
 C431 C 0.59455 0.72419 -0.07419
 C432 C 0.62016 0.72410 -0.09930
 C433 C 0.62847 0.80658 -0.16761
 C434 C 0.60355 0.80702 -0.14179
 C435 C 0.66889 0.69690 -0.12772
 C436 C 0.64326 0.69681 -0.10259
 H437 H 0.62985 0.82795 -0.18496
 H438 H 0.58643 0.82871 -0.13997
 H439 H 0.68624 0.67538 -0.12931
 H440 H 0.64158 0.67523 -0.08553
 H441 H 0.71496 0.70273 -0.17757
 H442 H 0.67773 0.79987 -0.21435
 H443 H 0.55810 0.80155 -0.09077
 H444 H 0.59233 0.70275 -0.05699
 C445 C 0.35143 0.24807 -0.14811
 C446 C 0.33209 0.27770 -0.15377
 C447 C 0.30670 0.27764 -0.17905
 C448 C 0.30089 0.24834 -0.19892
 C449 C 0.32073 0.21890 -0.19299
 C450 C 0.34588 0.21857 -0.16747
 C451 C 0.37803 0.24794 -0.12142
 C452 C 0.39705 0.21817 -0.11544
 C453 C 0.42220 0.21814 -0.08991
 C454 C 0.42868 0.24776 -0.07077
 C455 C 0.40946 0.27745 -0.07727
 C456 C 0.38394 0.27761 -0.10242
 C457 C 0.36554 0.18931 -0.16085
 C458 C 0.39062 0.18908 -0.13521
 C459 C 0.33861 0.30683 -0.13410
 C460 C 0.36417 0.30682 -0.10893
 H461 H 0.36147 0.16636 -0.17557
 H462 H 0.40516 0.16596 -0.13089
 H463 H 0.32390 0.32987 -0.13825
 H464 H 0.36844 0.32986 -0.09440
 H465 H 0.29177 0.30050 -0.18348
 H466 H 0.31638 0.19615 -0.20796
 H467 H 0.43698 0.19522 -0.08523
 H468 H 0.41412 0.30032 -0.06256
 C469 C 0.35087 0.75158 0.14808
 C470 C 0.32805 0.72401 0.15025
 C471 C 0.30251 0.72407 0.17543
 C472 C 0.30007 0.75114 0.19900
 C473 C 0.32358 0.77849 0.19643
 C474 C 0.34872 0.77897 0.17086
 C475 C 0.37761 0.75175 0.12146
 C476 C 0.40000 0.77967 0.11885
 C477 C 0.42519 0.77983 0.09331
 C478 C 0.42852 0.75198 0.07103
 C479 C 0.40606 0.72403 0.07423
 C480 C 0.38030 0.72395 0.09919
 C481 C 0.37176 0.80634 0.16759
 C482 C 0.39684 0.80677 0.14192
 C483 C 0.33133 0.69682 0.12728
 C484 C 0.35712 0.69670 0.10230
 H485 H 0.37032 0.82769 0.18497
 H486 H 0.41401 0.82843 0.14023
 H487 H 0.31391 0.67534 0.12873
 H488 H 0.35886 0.67515 0.08522
 H489 H 0.28494 0.70269 0.17687
 H490 H 0.32222 0.79968 0.21401
 H491 H 0.44255 0.80131 0.09113
 H492 H 0.40833 0.70263 0.05699
 C493 C 0.64972 0.24862 0.14827
 C494 C 0.66905 0.27828 0.15380
 C495 C 0.69440 0.27835 0.17912
 C496 C 0.70015 0.24917 0.19917
 C497 C 0.68036 0.21968 0.19334
 C498 C 0.65525 0.21921 0.16777
 C499 C 0.62310 0.24838 0.12159
 C500 C 0.60405 0.21858 0.11577
 C501 C 0.57886 0.21845 0.09028
 C502 C 0.57235 0.24800 0.07104
 C503 C 0.59161 0.27771 0.07738
 C504 C 0.61718 0.27797 0.10248
 C505 C 0.63558 0.18992 0.16129
 C506 C 0.61049 0.18958 0.13566
 C507 C 0.66254 0.30732 0.13399
 C508 C 0.63696 0.30720 0.10884
 H509 H 0.63965 0.16705 0.17612
 H510 H 0.59594 0.16645 0.13146
 H511 H 0.67725 0.33038 0.13805
 H512 H 0.63268 0.33017 0.09422
 H513 H 0.70930 0.30125 0.18348
 H514 H 0.68466 0.19703 0.20845
 H515 H 0.56406 0.19553 0.08573
 H516 H 0.58692 0.30051 0.06258
 C517 C -0.15028 0.64849 0.74821
 C518 C -0.15249 0.67122 0.72081
 C519 C -0.17761 0.69683 0.72128
 C520 C -0.20105 0.69950 0.74865
 C521 C -0.19856 0.67598 0.77574
 C522 C -0.17305 0.65075 0.77578
 C523 C -0.12355 0.62185 0.74806
 C524 C -0.12082 0.59963 0.77586
 C525 C -0.09506 0.57465 0.77581
 C526 C -0.07262 0.57139 0.74790
 C527 C -0.07600 0.59361 0.72002
 C528 C -0.10120 0.61915 0.72014
 C529 C -0.16973 0.62783 0.80300
 C530 C -0.14395 0.60281 0.80311
 C531 C -0.12951 0.66787 0.69343
 C532 C -0.10442 0.64217 0.69302
 H533 H -0.18709 0.62934 0.82448
 H534 H -0.14217 0.58577 0.82468
 H535 H -0.13098 0.68521 0.67207
 H536 H -0.08729 0.64043 0.67137
 H537 H -0.17901 0.71438 0.70008
 H538 H -0.21606 0.67749 0.79713
 H539 H -0.09276 0.55746 0.79724
 H540 H -0.05866 0.59137 0.69856
 C541 C -0.14882 0.35207 0.25202
 C542 C -0.17142 0.34950 0.22437
 C543 C -0.19676 0.32411 0.22448
 C544 C -0.19928 0.30076 0.25171
 C545 C -0.17597 0.30369 0.27912
 C546 C -0.15100 0.32946 0.27953
 C547 C -0.12233 0.37894 0.25214
 C548 C -0.10016 0.38197 0.28013
 C549 C -0.07519 0.40774 0.28022
 C550 C -0.07187 0.42986 0.25225
 C551 C -0.09412 0.42627 0.22427
 C552 C -0.11965 0.40106 0.22424
 C553 C -0.12819 0.33313 0.30697
 C554 C -0.10332 0.35905 0.30734
 C555 C -0.16815 0.37231 0.19706
 C556 C -0.14259 0.39754 0.19691
 H557 H -0.12964 0.31590 0.32841
 H558 H -0.08632 0.36105 0.32905
 H559 H -0.18539 0.37054 0.17552
 H560 H -0.14085 0.41450 0.17528
 H561 H -0.21416 0.32240 0.20304
 H562 H -0.17739 0.28626 0.30042
 H563 H -0.05798 0.41022 0.30173
 H564 H -0.09186 0.44336 0.20277
 C565 C 0.14783 0.35132 0.74884
 C566 C 0.15348 0.33198 0.71938
 C567 C 0.17860 0.30635 0.71974
 C568 C 0.19831 0.30032 0.74918
 C569 C 0.19238 0.32017 0.77845
 C570 C 0.16703 0.34554 0.77848
 C571 C 0.12130 0.37815 0.74867
 C572 C 0.11530 0.39715 0.77830
 C573 C 0.08985 0.42245 0.77808
 C574 C 0.07081 0.42909 0.74837
 C575 C 0.07737 0.40992 0.71880
 C576 C 0.10244 0.38425 0.71889
 C577 C 0.16042 0.36522 0.80757
 C578 C 0.13491 0.39051 0.80752
 C579 C 0.13397 0.33872 0.69011
 C580 C 0.10895 0.36449 0.68984
 H581 H 0.17502 0.36097 0.83062
 H582 H 0.13057 0.40503 0.83052
 H583 H 0.13812 0.32401 0.66719
 H584 H 0.09453 0.36890 0.66672
 H585 H 0.18303 0.29141 0.69701
 H586 H 0.20723 0.31566 0.80131
 H587 H 0.08512 0.43716 0.80090
 H588 H 0.06273 0.41471 0.69587
 C589 C 0.14952 0.64889 0.25084
 C590 C 0.15182 0.67161 0.27824
 C591 C 0.17705 0.69710 0.27777
 C592 C 0.20051 0.69968 0.25042
 C593 C 0.19793 0.67618 0.22332
 C594 C 0.17229 0.65105 0.22326
 C595 C 0.12270 0.62233 0.25101
 C596 C 0.11987 0.60010 0.22322
 C597 C 0.09405 0.57516 0.22333
 C598 C 0.07167 0.57195 0.25130
 C599 C 0.07512 0.59423 0.27912
 C600 C 0.10037 0.61972 0.27894
 C601 C 0.16887 0.62813 0.19605
 C602 C 0.14300 0.60320 0.19595
 C603 C 0.12884 0.66835 0.30562
 C604 C 0.10367 0.64274 0.30605
 H605 H 0.18624 0.62958 0.17456
 H606 H 0.14116 0.58615 0.17440
 H607 H 0.13039 0.68569 0.32697
 H608 H 0.08655 0.64105 0.32771
 H609 H 0.17852 0.71464 0.29899
 H610 H 0.21545 0.67763 0.20193
 H611 H 0.09169 0.55793 0.20194
 H612 H 0.05782 0.59205 0.30062
 C613 C 0.74936 -0.14822 0.64785
 C614 C 0.71966 -0.15334 0.66751
 C615 C 0.71985 -0.17837 0.69291
 C616 C 0.74931 -0.19854 0.69840
 C617 C 0.77880 -0.19316 0.67824
 C618 C 0.77903 -0.16787 0.65310
 C619 C 0.74939 -0.12176 0.62126
 C620 C 0.77926 -0.11629 0.60197
 C621 C 0.77924 -0.09093 0.57690
 C622 C 0.74946 -0.07145 0.57074
 C623 C 0.71963 -0.07749 0.59019
 C624 C 0.71954 -0.10245 0.61566
 C625 C 0.80837 -0.16178 0.63315
 C626 C 0.80852 -0.13635 0.60809
 C627 C 0.69035 -0.13338 0.66128
 C628 C 0.69025 -0.10845 0.63572
 H629 H 0.83145 -0.17674 0.63698
 H630 H 0.83172 -0.13242 0.59334
 H631 H 0.66725 -0.13711 0.67623
 H632 H 0.66708 -0.09368 0.63169
 H633 H 0.69695 -0.18240 0.70810
 H634 H 0.80168 -0.20835 0.68235
 H635 H 0.80226 -0.08661 0.56195
 H636 H 0.69666 -0.06251 0.58578
 C637 C 0.25050 -0.14852 0.35171
 C638 C 0.22078 -0.16809 0.34638
 C639 C 0.22097 -0.19330 0.32115
 C640 C 0.25046 -0.19869 0.30100
 C641 C 0.27997 -0.17860 0.30657
 C642 C 0.28020 -0.15365 0.33205
 C643 C 0.25052 -0.12215 0.37838
 C644 C 0.28040 -0.10292 0.38405
 C645 C 0.28035 -0.07802 0.40960
 C646 C 0.25052 -0.07197 0.42904
 C647 C 0.22070 -0.09138 0.42282
 C648 C 0.22064 -0.11667 0.39768
 C649 C 0.30955 -0.13377 0.33836
 C650 C 0.30969 -0.10892 0.36400
 C651 C 0.19145 -0.16200 0.36634
 C652 C 0.19134 -0.13664 0.39147
 H653 H 0.33265 -0.13751 0.32341
 H654 H 0.33289 -0.09421 0.36808
 H655 H 0.16833 -0.17689 0.36244
 H656 H 0.16815 -0.13271 0.40623
 H657 H 0.19805 -0.20843 0.31699
 H658 H 0.30287 -0.18264 0.29138
 H659 H 0.30335 -0.06310 0.41405
 H660 H 0.19769 -0.08704 0.43776
 C661 C 0.75014 0.14865 0.35287
 C662 C 0.77991 0.16821 0.34774
 C663 C 0.77980 0.19371 0.32279
 C664 C 0.75034 0.19937 0.30273
 C665 C 0.72075 0.17936 0.30817
 C666 C 0.72045 0.15412 0.33336
 C667 C 0.75007 0.12189 0.37915
 C668 C 0.72014 0.10266 0.38460
 C669 C 0.72014 0.07739 0.40977
 C670 C 0.74996 0.07099 0.42906
 C671 C 0.77984 0.09038 0.42306
 C672 C 0.77995 0.11605 0.39829
 C673 C 0.69104 0.13424 0.33944
 C674 C 0.69085 0.10902 0.36471
 C675 C 0.80925 0.16175 0.36754
 C676 C 0.80930 0.13604 0.39231
 H677 H 0.66795 0.13825 0.32459
 H678 H 0.66762 0.09432 0.36863
 H679 H 0.83240 0.17663 0.36379
 H680 H 0.83250 0.13183 0.40695
 H681 H 0.80278 0.20878 0.31872
 H682 H 0.69787 0.18359 0.29304
 H683 H 0.69709 0.06248 0.41408
 H684 H 0.80284 0.08579 0.43791
 C685 C 0.24994 0.14718 0.64790
 C686 C 0.27971 0.15264 0.66731
 C687 C 0.27942 0.17773 0.69266
 C688 C 0.24978 0.19760 0.69835
 C689 C 0.22023 0.19188 0.67843
 C690 C 0.22010 0.16655 0.65333
 C691 C 0.25003 0.12066 0.62137
 C692 C 0.22010 0.11485 0.60230
 C693 C 0.22023 0.08943 0.57729
 C694 C 0.25017 0.07023 0.57098
 C695 C 0.28004 0.07660 0.59020
 C696 C 0.28003 0.10163 0.61561
 C697 C 0.19071 0.16012 0.63360
 C698 C 0.19067 0.13463 0.60860
 C699 C 0.30918 0.13296 0.66092
 C700 C 0.30938 0.10797 0.63543
 H701 H 0.16750 0.17485 0.63758
 H702 H 0.16743 0.13043 0.59402
 H703 H 0.33233 0.13697 0.67569
 H704 H 0.33267 0.09342 0.63127
 H705 H 0.30237 0.18200 0.70767
 H706 H 0.19721 0.20685 0.68269
 H707 H 0.19718 0.08485 0.56251
 H708 H 0.30315 0.06184 0.58567
   
