data_POSCAR
  _audit_creation_date              2014-09-24
  _audit_creation_method            'ToBaCCo'
  _symmetry_space_group_name_H-M    'P1'
  _symmetry_Int_Tables_number       1
  _symmetry_cell_setting            triclinic
  loop_
  _symmetry_equiv_pos_as_xyz
 x,y,z
_cell_length_a 13.6009
_cell_length_b 13.6763
_cell_length_c 14.7589
_cell_angle_alpha 90.000000
_cell_angle_beta 90.452500
_cell_angle_gamma 120.183500
loop_
  _atom_site_label
  _atom_site_type_symbol
  _atom_site_fract_x
  _atom_site_fract_y
  _atom_site_fract_z
O1 O 0.43234 0.55081 0.33404
 O2 O 0.21529 0.46881 0.35375
 C3 C 0.13543 0.48709 0.37284
 O4 O 0.11755 0.55808 0.33118
 O5 O 0.25218 0.77476 0.35132
 C6 C 0.35071 0.85431 0.37205
 O7 O 0.44060 0.87121 0.33264
 O8 O 0.52331 0.73799 0.35479
 C9 C 0.50485 0.64033 0.37491
 O10 O 0.40211 0.54119 0.15200
 O11 O 0.18370 0.45190 0.17348
 C12 C 0.13041 0.49132 0.13019
 O13 O 0.13929 0.58587 0.14868
 O14 O 0.26802 0.80300 0.17097
 C15 C 0.36229 0.85673 0.13032
 O16 O 0.44871 0.84910 0.15086
 O17 O 0.53742 0.72096 0.17459
 C18 C 0.49688 0.62712 0.13306
 Cr19 Cr 0.30943 0.50965 0.25325
 Cr20 Cr 0.19963 0.67932 0.25061
 Cr21 Cr 0.48101 0.78941 0.25317
 O22 O 0.33007 0.65954 0.25281
 O23 O 0.55507 0.42845 0.67045
 O24 O 0.47236 0.21251 0.64830
 C25 C 0.49082 0.13331 0.62818
 O26 O 0.56333 0.11630 0.66905
 O27 O 0.78038 0.25135 0.64934
 C28 C 0.86024 0.34949 0.63025
 O29 O 0.87812 0.43837 0.67191
 O30 O 0.74350 0.52042 0.65176
 C31 C 0.64496 0.50144 0.63104
 O32 O 0.54696 0.39823 0.85223
 O33 O 0.45826 0.18138 0.82849
 C34 C 0.49879 0.12807 0.87002
 O35 O 0.59357 0.13692 0.85109
 O36 O 0.81197 0.26603 0.82961
 C37 C 0.86526 0.35875 0.87290
 O38 O 0.85638 0.44442 0.85440
 O39 O 0.72765 0.53281 0.83212
 C40 C 0.63338 0.49227 0.87277
 Cr41 Cr 0.51466 0.30624 0.74991
 Cr42 Cr 0.68624 0.19805 0.74983
 Cr43 Cr 0.79604 0.47752 0.75247
 O44 O 0.66561 0.32731 0.75028
 N45 N 0.31715 0.03196 0.53168
 N46 N 0.27916 -0.04368 0.46553
 C47 C 0.36092 -0.06772 0.44452
 C48 C 0.45461 -0.00600 0.50033
 C49 C 0.42297 0.05583 0.55478
 H50 H 0.53412 -0.00616 0.50128
 H51 H 0.27056 0.06520 0.56114
 H52 H 0.19918 -0.07692 0.43475
 N53 N 0.96077 0.27831 0.53488
 N54 N 1.03490 0.31537 0.46821
 C55 C 1.05834 0.42038 0.44590
 C56 C 0.99784 0.45255 0.50154
 C57 C 0.93733 0.35987 0.55719
 H58 H 0.99784 0.53170 0.50154
 H59 H 0.92812 0.19902 0.56513
 H60 H 1.06754 0.26873 0.43795
 N61 N 0.71651 0.67500 0.53756
 N62 N 0.67852 0.71265 0.47140
 C63 C 0.57270 0.63069 0.44831
 C64 C 0.54106 0.53723 0.50275
 C65 C 0.63475 0.56919 0.55857
 H66 H 0.46155 0.45756 0.50181
 H67 H 0.79649 0.72174 0.56834
 H68 H 0.72511 0.79248 0.44195
 N69 N 0.32523 0.02723 0.96468
 N70 N 0.28900 -0.04480 1.03284
 C71 C 0.37142 -0.06748 1.05622
 C72 C 0.46418 -0.00758 1.00036
 C73 C 0.43121 0.05138 0.94324
 H74 H 0.54413 -0.00687 1.00124
 H75 H 0.27773 0.05879 0.93351
 H76 H 0.20930 -0.07722 1.06280
 N77 N 0.95951 0.28330 0.96523
 N78 N 1.03616 0.32163 1.03786
 C79 C 1.05819 0.42654 1.05955
 C80 C 0.99784 0.45790 1.00154
 C81 C 0.93748 0.36619 0.94353
 H82 H 0.99784 0.53709 1.00154
 H83 H 0.92713 0.20443 0.93384
 H84 H 1.06854 0.27513 1.06925
 N85 N 0.70667 0.66404 0.97024
 N86 N 0.67044 0.69983 1.03841
 C87 C 0.56446 0.61800 1.05985
 C88 C 0.53149 0.52608 1.00273
 C89 C 0.62425 0.55894 0.94687
 H90 H 0.45154 0.44684 1.00185
 H91 H 0.78637 0.71131 0.94029
 H92 H 0.71794 0.77890 1.06958
   
