data_POSCAR
  _audit_creation_date              2014-09-24
  _audit_creation_method            'ToBaCCo'
  _symmetry_space_group_name_H-M    'P1'
  _symmetry_Int_Tables_number       1
  _symmetry_cell_setting            triclinic
  loop_
  _symmetry_equiv_pos_as_xyz
 x,y,z
_cell_length_a 43.4034
_cell_length_b 36.1213
_cell_length_c 24.2453
_cell_angle_alpha 90.023600
_cell_angle_beta 89.816100
_cell_angle_gamma 89.704200
loop_
  _atom_site_label
  _atom_site_type_symbol
  _atom_site_fract_x
  _atom_site_fract_y
  _atom_site_fract_z
C1 C 0.67206 0.28681 0.50176
 C2 C 0.68358 0.27387 0.55251
 C3 C 0.71195 0.25460 0.55206
 C4 C 0.72987 0.25100 0.50355
 C5 C 0.71809 0.26605 0.45419
 C6 C 0.68887 0.28267 0.45273
 C7 C 0.76067 0.23171 0.50478
 C8 C 0.77351 0.21557 0.45670
 C9 C 0.80299 0.19873 0.45702
 C10 C 0.81835 0.19575 0.50796
 C11 C 0.80568 0.21033 0.55652
 C12 C 0.77754 0.22932 0.55429
 H13 H 0.65083 0.30258 0.50006
 H14 H 0.71947 0.24117 0.58945
 H15 H 0.73130 0.26493 0.41639
 H16 H 0.76093 0.21711 0.41857
 H17 H 0.83947 0.17985 0.51104
 H18 H 0.76919 0.24229 0.59167
 C19 C 0.19451 0.82271 0.49850
 C20 C 0.20925 0.81466 0.54880
 C21 C 0.23428 0.78949 0.54792
 C22 C 0.24322 0.77075 0.49909
 C23 C 0.22647 0.77822 0.45044
 C24 C 0.20319 0.80514 0.44942
 C25 C 0.27020 0.74423 0.49832
 C26 C 0.28544 0.73573 0.44827
 C27 C 0.30939 0.70976 0.44641
 C28 C 0.32048 0.69463 0.49553
 C29 C 0.30750 0.70405 0.54699
 C30 C 0.28122 0.72739 0.54730
 H31 H 0.17479 0.84112 0.49722
 H32 H 0.24763 0.78609 0.58501
 H33 H 0.23153 0.76376 0.41250
 H34 H 0.27874 0.74859 0.40995
 H35 H 0.33899 0.67451 0.49288
 H36 H 0.27011 0.73353 0.58601
 C37 C 0.30388 0.32511 -0.50062
 C38 C 0.28918 0.31612 -0.55010
 C39 C 0.26519 0.29021 -0.54949
 C40 C 0.25697 0.27120 -0.50061
 C41 C 0.27324 0.27988 -0.45182
 C42 C 0.29571 0.30768 -0.45119
 C43 C 0.23150 0.24292 -0.50053
 C44 C 0.21634 0.23271 -0.45098
 C45 C 0.19325 0.20528 -0.45011
 C46 C 0.18338 0.19086 -0.50094
 C47 C 0.19694 0.20161 -0.55071
 C48 C 0.22182 0.22606 -0.55012
 H49 H 0.32246 0.34503 -0.50072
 H50 H 0.25292 0.28574 -0.58753
 H51 H 0.26859 0.26562 -0.41364
 H52 H 0.22312 0.24517 -0.41265
 H53 H 0.16410 0.17200 -0.50264
 H54 H 0.23289 0.23215 -0.58897
 C55 C -0.18785 0.81400 -0.49828
 C56 C -0.19563 0.79758 -0.54908
 C57 C -0.21817 0.76948 -0.54872
 C58 C -0.23432 0.75998 -0.50004
 C59 C -0.22640 0.77806 -0.45054
 C60 C -0.20274 0.80421 -0.44915
 C61 C -0.25964 0.73177 -0.50097
 C62 C -0.26759 0.71188 -0.45287
 C63 C -0.29214 0.68674 -0.45271
 C64 C -0.30794 0.67986 -0.50193
 C65 C -0.30013 0.69847 -0.55065
 C66 C -0.27651 0.72486 -0.54963
 H67 H -0.16878 0.83310 -0.49587
 H68 H -0.22397 0.75581 -0.58677
 H69 H -0.23878 0.77250 -0.41271
 H70 H -0.25466 0.71538 -0.41521
 H71 H -0.32663 0.66010 -0.50223
 H72 H -0.27211 0.74048 -0.58681
 N73 N -0.03253 1.04101 -0.09469
 N74 N -0.05245 1.05030 -0.13334
 N75 N 0.03221 1.06600 -0.05633
 N76 N 0.05240 1.09233 -0.06708
 N77 N 0.03218 1.04116 -0.09592
 N78 N 0.05235 1.04983 -0.13453
 N79 N -0.03250 1.06581 -0.05502
 N80 N -0.05237 1.09267 -0.06577
 C81 C -0.06501 1.08209 -0.11415
 C82 C 0.06507 1.08136 -0.11549
 N83 N 0.03316 1.03505 0.09857
 N84 N 0.05474 1.04048 0.13586
 N85 N -0.03201 1.06197 0.06394
 N86 N -0.05317 1.08685 0.07740
 N87 N -0.03164 1.03480 0.09992
 N88 N -0.05253 1.04037 0.13872
 N89 N 0.03284 1.06214 0.06247
 N90 N 0.05420 1.08682 0.07427
 Mn91 Mn 0.00013 1.06435 0.00385
 C92 C 0.06789 1.07252 0.11962
 C93 C -0.06602 1.07256 0.12360
 N94 N 0.03276 0.96160 -0.10122
 N95 N 0.05469 0.95715 -0.13843
 N96 N -0.03168 0.93408 -0.06409
 N97 N -0.05315 0.90952 -0.07602
 N98 N -0.03201 0.96131 -0.09999
 N99 N -0.05366 0.95611 -0.13719
 N100 N 0.03324 0.93442 -0.06524
 N101 N 0.05556 0.91064 -0.07712
 Mn102 Mn 0.00008 1.00123 -0.09840
 C103 C 0.06883 0.92554 -0.12253
 C104 C -0.06682 0.92403 -0.12129
 N105 N -0.03107 0.95522 0.09452
 N106 N -0.05112 0.94659 0.13332
 N107 N 0.03365 0.93049 0.05393
 N108 N 0.05408 0.90415 0.06457
 N109 N 0.03360 0.95550 0.09329
 N110 N 0.05396 0.94700 0.13151
 N111 N -0.03109 0.93024 0.05509
 N112 N -0.05116 0.90383 0.06624
 Mn113 Mn 0.00101 0.99515 0.09699
 Mn114 Mn 0.00104 0.93187 -0.00518
 Cl115 Cl 0.00054 0.99814 -0.00069
 C116 C -0.06377 0.91492 0.11467
 C117 C 0.06685 0.91536 0.11259
 N118 N 0.53071 0.45211 -0.09562
 N119 N 0.54984 0.44105 -0.13472
 N120 N 0.46466 0.43307 -0.05591
 N121 N 0.44330 0.40819 -0.06697
 N122 N 0.46618 0.45782 -0.09551
 N123 N 0.44589 0.45057 -0.13433
 N124 N 0.52921 0.42737 -0.05597
 N125 N 0.54728 0.39876 -0.06725
 C126 C 0.56040 0.40818 -0.11591
 C127 C 0.43149 0.42004 -0.11548
 N128 N 0.46629 0.46435 0.09916
 N129 N 0.44462 0.46110 0.13706
 N130 N 0.52939 0.43150 0.06305
 N131 N 0.54908 0.40487 0.07595
 N132 N 0.53092 0.45870 0.09892
 N133 N 0.55166 0.45138 0.13708
 N134 N 0.46467 0.43722 0.06322
 N135 N 0.44182 0.41466 0.07584
 Mn136 Mn 0.49695 0.43191 0.00370
 C137 C 0.42937 0.43033 0.12154
 C138 C 0.56305 0.41807 0.12168
 N139 N 0.47053 0.53716 -0.10105
 N140 N 0.44914 0.54389 -0.13828
 N141 N 0.53668 0.55879 -0.06534
 N142 N 0.55933 0.58158 -0.07819
 N143 N 0.53520 0.53158 -0.10120
 N144 N 0.55675 0.53505 -0.13928
 N145 N 0.47193 0.56431 -0.06511
 N146 N 0.45150 0.59035 -0.07702
 Mn147 Mn 0.50067 0.49470 -0.09876
 C148 C 0.43728 0.57686 -0.12232
 C149 C 0.57181 0.56599 -0.12391
 N150 N 0.53533 0.53815 0.09336
 N151 N 0.55518 0.54599 0.13271
 N152 N 0.47211 0.56839 0.05382
 N153 N 0.45281 0.59605 0.06385
 N154 N 0.47077 0.54365 0.09344
 N155 N 0.45054 0.55367 0.13133
 N156 N 0.53670 0.56296 0.05379
 N157 N 0.55750 0.58840 0.06542
 Mn158 Mn 0.50084 0.50119 0.09663
 Mn159 Mn 0.50438 0.56401 -0.00581
 Cl160 Cl 0.50074 0.49794 -0.00106
 C161 C 0.56921 0.57686 0.11415
 C162 C 0.43927 0.58601 0.11188
 C163 C 0.31970 0.32443 0.30381
 C164 C 0.32901 0.36148 0.30269
 C165 C 0.32274 0.38448 0.34785
 C166 C 0.30838 0.37020 0.39485
 C167 C 0.30016 0.33262 0.39735
 C168 C 0.30524 0.31010 0.35079
 C169 C 0.34767 0.37509 0.25795
 C170 C 0.36468 0.38687 0.22275
 C171 C 0.38602 0.40122 0.18435
 C172 C 0.40530 0.41410 0.15414
 H173 H 0.32465 0.30630 0.26926
 H174 H 0.32992 0.41317 0.34752
 H175 H 0.30444 0.38828 0.42984
 H176 H 0.29945 0.28097 0.35175
 C177 C -0.16286 0.79786 0.30694
 C178 C -0.15142 0.83390 0.30376
 C179 C -0.15511 0.85787 0.34844
 C180 C -0.16976 0.84595 0.39643
 C181 C -0.18116 0.80945 0.40122
 C182 C -0.17773 0.78573 0.35502
 C183 C -0.13479 0.84664 0.25600
 C184 C -0.11992 0.85948 0.21861
 C185 C -0.10143 0.87683 0.17831
 C186 C -0.08473 0.89338 0.14722
 H187 H -0.15986 0.77892 0.27266
 H188 H -0.14656 0.88597 0.34627
 H189 H -0.17295 0.86615 0.42891
 H190 H -0.18507 0.75719 0.35633
 C191 C 0.68475 0.67139 0.30069
 C192 C 0.65289 0.66548 0.30187
 C193 C 0.63618 0.67289 0.35011
 C194 C 0.65130 0.68495 0.39753
 C195 C 0.68344 0.68974 0.39739
 C196 C 0.69994 0.68361 0.34814
 C197 C 0.63742 0.64917 0.25544
 C198 C 0.62346 0.63418 0.21884
 C199 C 0.60590 0.61528 0.17892
 C200 C 0.58980 0.59817 0.14763
 H201 H 0.69794 0.66555 0.26366
 H202 H 0.61152 0.66838 0.35153
 H203 H 0.63795 0.68993 0.43463
 H204 H 0.72474 0.68679 0.34702
 C205 C 0.18874 1.15746 0.30783
 C206 C 0.15668 1.15883 0.30121
 C207 C 0.13830 1.17580 0.34145
 C208 C 0.15165 1.19044 0.38879
 C209 C 0.18367 1.18831 0.39672
 C210 C 0.20224 1.17236 0.35535
 C211 C 0.14182 1.14095 0.25550
 C212 C 0.12729 1.12565 0.21998
 C213 C 0.10820 1.10743 0.18172
 C214 C 0.09045 1.09163 0.15186
 H215 H 0.20317 1.14421 0.27700
 H216 H 0.11348 1.17700 0.33679
 H217 H 0.13690 1.20309 0.41969
 H218 H 0.22696 1.17034 0.36066
 C219 C 0.62091 0.30127 -0.34877
 C220 C 0.63773 0.30744 -0.30068
 C221 C 0.66918 0.29904 -0.29956
 C222 C 0.68407 0.28606 -0.34714
 C223 C 0.66780 0.28184 -0.39728
 C224 C 0.63565 0.28852 -0.39643
 C225 C 0.62305 0.32562 -0.25466
 C226 C 0.61001 0.34258 -0.21858
 C227 C 0.59380 0.36414 -0.17941
 C228 C 0.57908 0.38373 -0.14877
 H229 H 0.59644 0.30733 -0.34995
 H230 H 0.68249 0.30395 -0.26256
 H231 H 0.70877 0.28218 -0.34510
 H232 H 0.62154 0.28386 -0.43243
 C233 C 0.18635 0.82498 -0.30265
 C234 C 0.16945 0.85802 -0.30446
 C235 C 0.16828 0.87835 -0.35335
 C236 C 0.18255 0.86497 -0.40102
 C237 C 0.19831 0.83060 -0.40112
 C238 C 0.20093 0.81152 -0.35032
 C239 C 0.15108 0.87003 -0.25817
 C240 C 0.13405 0.88106 -0.22230
 C241 C 0.11251 0.89518 -0.18383
 C242 C 0.09304 0.90837 -0.15407
 H243 H 0.18730 0.80890 -0.26497
 H244 H 0.15558 0.90424 -0.35508
 H245 H 0.18124 0.88200 -0.43763
 H246 H 0.21221 0.78480 -0.34777
 C247 C 0.31764 0.67066 -0.30697
 C248 C 0.34910 0.66203 -0.30697
 C249 C 0.36665 0.66820 -0.35430
 C250 C 0.35297 0.68227 -0.40178
 C251 C 0.32107 0.69052 -0.40350
 C252 C 0.30373 0.68502 -0.35462
 C253 C 0.36393 0.64563 -0.25983
 C254 C 0.37845 0.63106 -0.22343
 C255 C 0.39748 0.61311 -0.18450
 C256 C 0.41507 0.59700 -0.15440
 H257 H 0.30376 0.66575 -0.27051
 H258 H 0.39112 0.66201 -0.35462
 H259 H 0.36798 0.68775 -0.43648
 H260 H 0.27915 0.68993 -0.35340
 C261 C -0.18095 1.17761 -0.29710
 C262 C -0.14876 1.17848 -0.29418
 C263 C -0.13173 1.19329 -0.33797
 C264 C -0.14668 1.20560 -0.38553
 C265 C -0.17890 1.20315 -0.38996
 C266 C -0.19598 1.19003 -0.34464
 C267 C -0.13289 1.16062 -0.24939
 C268 C -0.11877 1.14413 -0.21434
 C269 C -0.10120 1.12344 -0.17628
 C270 C -0.08524 1.10489 -0.14641
 H271 H -0.19434 1.16593 -0.26363
 H272 H -0.10680 1.19398 -0.33624
 H273 H -0.13301 1.21591 -0.41961
 H274 H -0.22079 1.18746 -0.34715
 C275 C 0.67480 0.61622 -0.35349
 C276 C 0.66979 0.63796 -0.30648
 C277 C 0.67975 0.67476 -0.30569
 C278 C 0.69362 0.69015 -0.35248
 C279 C 0.69744 0.66896 -0.40076
 C280 C 0.68856 0.63156 -0.40030
 C281 C 0.65175 0.62344 -0.26157
 C282 C 0.63522 0.61100 -0.22616
 C283 C 0.61439 0.59598 -0.18745
 C284 C 0.59549 0.58263 -0.15693
 H285 H 0.66711 0.58774 -0.35463
 H286 H 0.67577 0.69193 -0.26969
 H287 H 0.69993 0.71912 -0.35185
 H288 H 0.69155 0.61448 -0.43666
 C289 C 0.16405 1.20143 -0.30386
 C290 C 0.15214 1.16555 -0.30218
 C291 C 0.15466 1.14276 -0.34842
 C292 C 0.16844 1.15576 -0.39656
 C293 C 0.18009 1.19221 -0.39996
 C294 C 0.17810 1.21463 -0.35212
 C295 C 0.13596 1.15187 -0.25454
 C296 C 0.12127 1.13823 -0.21759
 C297 C 0.10285 1.12008 -0.17803
 C298 C 0.08612 1.10307 -0.14758
 H299 H 0.16198 1.21945 -0.26830
 H300 H 0.14576 1.11478 -0.34743
 H301 H 0.17068 1.13645 -0.43047
 H302 H 0.18580 1.24304 -0.35224
 C303 C 0.33636 0.30475 -0.31252
 C304 C 0.34046 0.34258 -0.30232
 C305 C 0.32914 0.36871 -0.33977
 C306 C 0.31426 0.35721 -0.38766
 C307 C 0.31049 0.31932 -0.39892
 C308 C 0.32131 0.29314 -0.36052
 C309 C 0.35796 0.35513 -0.25566
 C310 C 0.37342 0.36757 -0.21891
 C311 C 0.39252 0.38415 -0.17903
 C312 C 0.40977 0.39982 -0.14808
 H313 H 0.34526 0.28428 -0.28399
 H314 H 0.33227 0.39804 -0.33239
 H315 H 0.30575 0.37797 -0.41609
 H316 H 0.31890 0.26378 -0.36836
 C317 C -0.17263 0.81192 -0.30298
 C318 C -0.16434 0.84931 -0.30096
 C319 C -0.17119 0.87256 -0.34548
 C320 C -0.18507 0.85824 -0.39273
 C321 C -0.19225 0.82039 -0.39617
 C322 C -0.18665 0.79754 -0.35025
 C323 C -0.14615 0.86331 -0.25603
 C324 C -0.12957 0.87582 -0.22091
 C325 C -0.10881 0.89147 -0.18284
 C326 C -0.09010 0.90577 -0.15311
 H327 H -0.16723 0.79362 -0.26893
 H328 H -0.16481 0.90151 -0.34445
 H329 H -0.18943 0.87653 -0.42726
 H330 H -0.19168 0.76823 -0.35198
 C331 C 0.34045 0.64670 0.33475
 C332 C 0.35070 0.67209 0.29533
 C333 C 0.34621 0.71010 0.30399
 C334 C 0.33201 0.72262 0.35260
 C335 C 0.32254 0.69718 0.39308
 C336 C 0.32647 0.65910 0.38323
 C337 C 0.36776 0.65854 0.24847
 C338 C 0.38293 0.64486 0.21201
 C339 C 0.40165 0.62642 0.17296
 C340 C 0.41842 0.60884 0.14304
 H341 H 0.34387 0.61724 0.32856
 H342 H 0.35427 0.73000 0.27388
 H343 H 0.32933 0.75210 0.35938
 H344 H 0.31896 0.63893 0.41338
 C345 C -0.18618 1.15784 0.31540
 C346 C -0.15404 1.15570 0.31238
 C347 C -0.13632 1.16859 0.35619
 C348 C -0.15047 1.18300 0.40327
 C349 C -0.18295 1.18485 0.40799
 C350 C -0.20055 1.17245 0.36254
 C351 C -0.13872 1.13902 0.26578
 C352 C -0.12418 1.12460 0.22910
 C353 C -0.10539 1.10714 0.18911
 C354 C -0.08804 1.09169 0.15764
 H355 H -0.20015 1.14762 0.28179
 H356 H -0.11139 1.16737 0.35411
 H357 H -0.13558 1.19372 0.43513
 H358 H -0.22544 1.17205 0.36388
 C359 C 0.63116 0.30456 0.34061
 C360 C 0.64847 0.32693 0.30523
 C361 C 0.67963 0.33337 0.31645
 C362 C 0.69322 0.31812 0.36365
 C363 C 0.67565 0.29655 0.40026
 C364 C 0.64462 0.28946 0.38774
 C365 C 0.63330 0.34525 0.26007
 C366 C 0.61909 0.36108 0.22448
 C367 C 0.60088 0.38023 0.18560
 C368 C 0.58417 0.39716 0.15493
 H369 H 0.60702 0.29947 0.33244
 H370 H 0.69318 0.35089 0.28953
 H371 H 0.71709 0.32425 0.37256
 H372 H 0.63067 0.27258 0.41489
 C373 C 0.16820 0.86412 0.33668
 C374 C 0.15761 0.83736 0.29971
 C375 C 0.16266 0.79975 0.31073
 C376 C 0.17794 0.78899 0.35904
 C377 C 0.18805 0.81582 0.39692
 C378 C 0.18331 0.85348 0.38485
 C379 C 0.14000 0.84912 0.25260
 C380 C 0.12449 0.86124 0.21555
 C381 C 0.10540 0.87788 0.17549
 C382 C 0.08826 0.89403 0.14464
 H383 H 0.16436 0.89329 0.32867
 H384 H 0.15435 0.77879 0.28257
 H385 H 0.18113 0.75979 0.36749
 H386 H 0.19125 0.87473 0.41287
   
