data_POSCAR
  _audit_creation_date              2014-09-24
  _audit_creation_method            'ToBaCCo'
  _symmetry_space_group_name_H-M    'P1'
  _symmetry_Int_Tables_number       1
  _symmetry_cell_setting            triclinic
  loop_
  _symmetry_equiv_pos_as_xyz
 x,y,z
_cell_length_a 16.0149
_cell_length_b 22.3789
_cell_length_c 15.7857
_cell_angle_alpha 89.999900
_cell_angle_beta 90.000100
_cell_angle_gamma 90.000000
loop_
  _atom_site_label
  _atom_site_type_symbol
  _atom_site_fract_x
  _atom_site_fract_y
  _atom_site_fract_z
O1 O 0.35621 0.19188 0.25658
 O2 O 0.23988 0.30773 0.14036
 O3 O 0.35456 0.30813 0.25718
 O4 O 0.24093 0.19125 0.14010
 O5 O 0.14339 0.19057 0.23924
 O6 O 0.25696 0.30742 0.35631
 O7 O 0.14230 0.30700 0.23950
 O8 O 0.25864 0.19113 0.35573
 Cu9 Cu 0.30772 0.24980 0.18851
 Cu10 Cu 0.19042 0.24892 0.30765
 C11 C 0.32715 0.17203 0.32583
 C12 C 0.17155 0.32702 0.17041
 C13 C 0.32495 0.32748 0.32649
 C14 C 0.17295 0.17116 0.16996
 O15 O 0.85463 0.30783 0.24143
 O16 O 0.74099 0.19094 0.35853
 O17 O 0.85646 0.19154 0.24224
 O18 O 0.74015 0.30737 0.35843
 O19 O 0.64254 0.30666 0.25931
 O20 O 0.75891 0.19076 0.14306
 O21 O 0.64346 0.19027 0.25936
 O22 O 0.75702 0.30711 0.14231
 Cu23 Cu 0.80790 0.24947 0.31018
 Cu24 Cu 0.69061 0.24859 0.19103
 C25 C 0.82498 0.32721 0.17214
 C26 C 0.67298 0.17089 0.32868
 C27 C 0.82740 0.17165 0.17302
 C28 C 0.67179 0.32664 0.32842
 O29 O 0.64410 0.69178 0.74230
 O30 O 0.76044 0.80765 0.85852
 O31 O 0.64544 0.80814 0.74196
 O32 O 0.75905 0.69128 0.85903
 O33 O 0.85662 0.69058 0.75990
 O34 O 0.74302 0.80744 0.64282
 O35 O 0.85802 0.80691 0.75937
 O36 O 0.74168 0.69104 0.64316
 Cu37 Cu 0.69240 0.74978 0.81045
 Cu38 Cu 0.80969 0.74890 0.69131
 C39 C 0.67324 0.67187 0.67311
 C40 C 0.82885 0.82685 0.82852
 C41 C 0.67505 0.82753 0.67269
 C42 C 0.82706 0.67121 0.82922
 O43 O 0.35662 0.80895 0.74238
 O44 O 0.24026 0.69306 0.85861
 O45 O 0.35531 0.69265 0.74212
 O46 O 0.24171 0.80950 0.85919
 O47 O 0.14414 0.81021 0.76007
 O48 O 0.25774 0.69334 0.64297
 O49 O 0.14270 0.69382 0.75946
 O50 O 0.25902 0.80968 0.64325
 Cu51 Cu 0.30832 0.75098 0.81060
 Cu52 Cu 0.19102 0.75186 0.69146
 C53 C 0.32750 0.82882 0.67316
 C54 C 0.17189 0.67382 0.82856
 C55 C 0.32572 0.67327 0.67282
 C56 C 0.17372 0.82959 0.82937
 C57 C 1.04667 0.04459 0.04423
 C58 C 0.95869 0.04421 0.04459
 C59 C 0.91546 -0.00044 0.00054
 C60 C 0.95905 -0.04474 -0.04387
 C61 C 1.04701 -0.04441 -0.04424
 C62 C 1.09028 0.00027 -0.00019
 H63 H 1.15802 0.00053 -0.00046
 H64 H 0.84772 -0.00072 0.00081
 C65 C 0.54243 0.54416 0.54469
 C66 C 0.45446 0.54452 0.54435
 C67 C 0.41085 0.50027 0.49980
 C68 C 0.45412 0.45567 0.45563
 C69 C 0.54208 0.45530 0.45603
 C70 C 0.58568 0.49956 0.50054
 H71 H 0.65342 0.49928 0.50081
 H72 H 0.34311 0.50053 0.49953
 C73 C -0.04634 0.45594 0.04357
 C74 C 0.04162 0.45589 0.04345
 C75 C 0.08505 0.50052 -0.00047
 C76 C 0.04163 0.54515 -0.04439
 C77 C -0.04634 0.54511 -0.04452
 C78 C -0.08979 0.50053 -0.00047
 H79 H -0.15753 0.50052 -0.00048
 H80 H 0.15279 0.50051 -0.00047
 C81 C 0.45824 0.95626 0.54418
 C82 C 0.54621 0.95619 0.54409
 C83 C 0.58965 1.00053 0.49954
 C84 C 0.54621 1.04487 0.45498
 C85 C 0.45823 1.04480 0.45490
 C86 C 0.41483 1.00053 0.49955
 H87 H 0.34708 1.00053 0.49955
 H88 H 0.65739 1.00053 0.49953
 C89 C 1.13092 0.12811 0.12698
 C90 C 1.09302 0.08998 0.08912
 C91 C 0.62782 0.62684 0.62784
 C92 C 0.58926 0.58911 0.58991
 C93 C -0.13068 0.37266 0.12661
 C94 C -0.09281 0.41070 0.08860
 C95 C 0.37299 0.87373 0.62775
 C96 C 0.41153 0.91136 0.58963
 C97 C -0.13083 0.62829 -0.12765
 C98 C -0.09285 0.59031 -0.08960
 C99 C 0.37279 1.12721 0.37129
 C100 C 0.41147 1.08965 0.40942
 C101 C 1.13164 -0.12746 -0.12751
 C102 C 1.09365 -0.08950 -0.08943
 C103 C 0.62670 0.37194 0.37348
 C104 C 0.58851 0.40997 0.41117
 C105 C 0.87414 -0.12797 -0.12638
 C106 C 0.91252 -0.09004 -0.08870
 C107 C 0.36943 0.37281 0.37212
 C108 C 0.40746 0.41069 0.41029
 C109 C 0.12667 0.62853 -0.12649
 C110 C 0.08828 0.59051 -0.08899
 C111 C 0.63081 1.12797 0.37176
 C112 C 0.59275 1.09001 0.40978
 C113 C 0.12647 0.37239 0.12550
 C114 C 0.08822 0.41049 0.08801
 C115 C 0.63065 0.87299 0.62721
 C116 C 0.59270 0.91102 0.58924
 C117 C 0.87302 0.12675 0.12770
 C118 C 0.91177 0.08912 0.08978
 C119 C 0.37016 0.62785 0.62733
 C120 C 0.40809 0.58981 0.58938
   
