data_POSCAR
  _audit_creation_date              2014-09-24
  _audit_creation_method            'ToBaCCo'
  _symmetry_space_group_name_H-M    'P1'
  _symmetry_Int_Tables_number       1
  _symmetry_cell_setting            triclinic
  loop_
  _symmetry_equiv_pos_as_xyz
 x,y,z
_cell_length_a 44.3933
_cell_length_b 10.3829
_cell_length_c 13.2574
_cell_angle_alpha 90.111700
_cell_angle_beta 90.020600
_cell_angle_gamma 89.436200
loop_
  _atom_site_label
  _atom_site_type_symbol
  _atom_site_fract_x
  _atom_site_fract_y
  _atom_site_fract_z
C1 C 0.66904 0.25405 0.50584
 C2 C 0.68343 0.23169 0.59867
 C3 C 0.71478 0.21497 0.59962
 C4 C 0.73230 0.22694 0.51089
 C5 C 0.71708 0.25486 0.41944
 C6 C 0.68553 0.26387 0.41608
 C7 C 0.76615 0.21346 0.51522
 C8 C 0.78356 0.18776 0.42746
 C9 C 0.81530 0.18415 0.43133
 C10 C 0.82933 0.19150 0.52616
 C11 C 0.81275 0.21334 0.61406
 C12 C 0.78155 0.22747 0.60809
 H13 H 0.64512 0.27430 0.50320
 H14 H 0.72506 0.18988 0.67079
 H15 H 0.72938 0.27083 0.35035
 H16 H 0.77277 0.17307 0.35532
 H17 H 0.85324 0.17282 0.53351
 H18 H 0.76988 0.25148 0.67705
 C19 C 0.16883 0.75530 0.48279
 C20 C 0.18332 0.74047 0.57650
 C21 C 0.21490 0.72617 0.57788
 C22 C 0.23231 0.73032 0.48798
 C23 C 0.21668 0.75394 0.39644
 C24 C 0.18527 0.76173 0.39317
 C25 C 0.26635 0.71455 0.48921
 C26 C 0.28295 0.70476 0.39788
 C27 C 0.31444 0.70321 0.39751
 C28 C 0.32989 0.69984 0.48905
 C29 C 0.31459 0.70434 0.58165
 C30 C 0.28294 0.71080 0.58095
 H31 H 0.14485 0.77360 0.47858
 H32 H 0.22525 0.71067 0.65038
 H33 H 0.22827 0.76794 0.32603
 H34 H 0.27209 0.69817 0.32545
 H35 H 0.35400 0.68419 0.48698
 H36 H 0.27193 0.71711 0.65319
 C37 C 0.32820 0.33690 -0.48700
 C38 C 0.31310 0.33711 -0.57960
 C39 C 0.28177 0.32237 -0.58117
 C40 C 0.26563 0.29437 -0.49172
 C41 C 0.28190 0.28982 -0.39969
 C42 C 0.31290 0.31271 -0.39709
 C43 C 0.23226 0.26910 -0.49462
 C44 C 0.21449 0.27865 -0.40611
 C45 C 0.18334 0.25678 -0.40792
 C46 C 0.16957 0.22967 -0.50103
 C47 C 0.18646 0.21973 -0.58987
 C48 C 0.21774 0.23433 -0.58573
 H49 H 0.35202 0.35844 -0.48460
 H50 H 0.27047 0.33167 -0.65297
 H51 H 0.27114 0.26550 -0.32937
 H52 H 0.22434 0.30648 -0.33498
 H53 H 0.14590 0.20638 -0.50481
 H54 H 0.23033 0.21831 -0.65436
 C55 C -0.17082 0.82279 -0.50000
 C56 C -0.18447 0.79708 -0.59327
 C57 C -0.21574 0.77893 -0.59609
 C58 C -0.23354 0.78656 -0.50747
 C59 C -0.21896 0.81692 -0.41544
 C60 C -0.18762 0.82903 -0.41098
 C61 C -0.26678 0.75860 -0.51062
 C62 C -0.28258 0.72368 -0.42206
 C63 C -0.31367 0.70193 -0.42423
 C64 C -0.32886 0.70403 -0.51674
 C65 C -0.31366 0.73250 -0.60622
 C66 C -0.28303 0.76279 -0.60261
 H67 H -0.14708 0.84479 -0.49584
 H68 H -0.22555 0.75286 -0.66769
 H69 H -0.23149 0.82948 -0.34626
 H70 H -0.27116 0.71291 -0.35060
 H71 H -0.35245 0.67825 -0.51953
 H72 H -0.27246 0.79074 -0.67243
 O73 O -0.03937 0.77132 0.18144
 O74 O -0.07423 0.89290 0.09509
 C75 C -0.06675 0.80862 0.16299
 O76 O 0.04494 1.21735 0.17984
 O77 O 0.07726 1.10178 0.07824
 C78 C 0.07171 1.18442 0.14973
 O79 O -0.03900 1.20284 0.20512
 O80 O -0.07411 1.10292 0.10569
 C81 C -0.06655 1.17306 0.18243
 O82 O 0.04433 0.75247 0.15595
 O83 O 0.07683 0.88237 0.06888
 C84 C 0.07116 0.78930 0.13123
 Zr85 Zr 0.00178 0.83059 0.11698
 O86 O 0.00703 0.81155 0.27506
 O87 O -0.00054 0.62986 0.09819
 Zr88 Zr 0.00201 1.15599 0.13135
 O89 O 0.00625 1.16815 0.28980
 O90 O -0.00155 1.35851 0.12608
 O91 O -0.02438 0.99290 0.14849
 O92 O 0.02817 0.99052 0.13935
 O93 O 0.03937 0.77791 -0.19265
 O94 O 0.07462 0.89385 -0.10476
 C95 C 0.06692 0.80945 -0.17251
 O96 O -0.04391 1.23926 -0.17051
 O97 O -0.07646 1.11923 -0.07532
 C98 C -0.07073 1.20518 -0.14364
 O99 O 0.03975 1.24412 -0.17483
 O100 O 0.07467 1.11424 -0.09581
 C101 C 0.06718 1.20632 -0.15763
 O102 O -0.04460 0.79369 -0.18890
 O103 O -0.07675 0.90575 -0.08457
 C104 C -0.07133 0.82831 -0.15941
 Zr105 Zr -0.00185 0.84880 -0.13463
 O106 O -0.00083 0.85618 -0.29421
 O107 O -0.00472 0.64647 -0.13951
 Zr108 Zr -0.00149 1.17371 -0.11962
 O109 O -0.00088 1.19595 -0.27816
 O110 O -0.00418 1.37501 -0.09977
 Zr111 Zr -0.04516 1.00424 0.00540
 Zr112 Zr 0.04531 0.99972 -0.00850
 O113 O 0.02409 1.01110 -0.15033
 O114 O -0.02870 1.01401 -0.14351
 O115 O 0.02713 0.81333 -0.01411
 O116 O -0.02648 1.18936 0.01127
 O117 O -0.02666 0.81748 -0.00554
 O118 O 0.02764 1.18836 0.00276
 H119 H 0.04214 0.98493 0.19748
 H120 H -0.04055 1.26367 0.01754
 H121 H 0.03637 1.01409 -0.21265
 H122 H -0.04051 0.74320 -0.00642
 H123 H 0.01833 1.39129 0.10511
 H124 H 0.01502 1.40137 -0.06851
 H125 H -0.01434 1.12990 -0.30662
 H126 H -0.01741 0.91392 -0.31622
 H127 H 0.01158 0.61427 -0.09524
 H128 H -0.00018 0.59516 0.16772
 H129 H -0.00745 0.87169 0.30743
 H130 H 0.00665 1.07882 0.31514
 O131 O 0.45816 0.30179 0.19728
 O132 O 0.42471 0.41070 0.09565
 C133 C 0.43109 0.33639 0.17144
 O134 O 0.54344 0.74448 0.16174
 O135 O 0.57669 0.61126 0.07801
 C136 C 0.57046 0.70520 0.13986
 O137 O 0.45950 0.73781 0.17589
 O138 O 0.42544 0.62172 0.08355
 C139 C 0.43221 0.70492 0.15279
 O140 O 0.54226 0.27911 0.18597
 O141 O 0.57609 0.39004 0.08894
 C142 C 0.56950 0.30868 0.15965
 Zr143 Zr 0.50025 0.35103 0.13424
 O144 O 0.50333 0.36062 0.29349
 O145 O 0.49796 0.14814 0.13635
 Zr146 Zr 0.50114 0.67622 0.11358
 O147 O 0.50348 0.71483 0.26987
 O148 O 0.49818 0.87659 0.08591
 O149 O 0.47413 0.51811 0.14462
 O150 O 0.52678 0.51277 0.14272
 O151 O 0.54113 0.24501 -0.16417
 O152 O 0.57554 0.37444 -0.08465
 C153 C 0.56844 0.28081 -0.14531
 O154 O 0.45895 0.70816 -0.19868
 O155 O 0.42500 0.60586 -0.09653
 C156 C 0.43174 0.67952 -0.17208
 O157 O 0.54294 0.71017 -0.19287
 O158 O 0.57639 0.59486 -0.09556
 C159 C 0.57003 0.67593 -0.16710
 O160 O 0.45760 0.26655 -0.17483
 O161 O 0.42450 0.39314 -0.08485
 C162 C 0.43063 0.30610 -0.15239
 Zr163 Zr 0.49966 0.32483 -0.11682
 O164 O 0.50240 0.29532 -0.27445
 O165 O 0.49581 0.12456 -0.09325
 Zr166 Zr 0.50075 0.64952 -0.13756
 O167 O 0.50356 0.63798 -0.29675
 O168 O 0.49830 0.85260 -0.14508
 Zr169 Zr 0.45514 0.50489 -0.00103
 Zr170 Zr 0.54573 0.49591 -0.00233
 O171 O 0.52618 0.48258 -0.14672
 O172 O 0.47346 0.48791 -0.14728
 O173 O 0.52718 0.31067 0.00972
 O174 O 0.47431 0.68872 -0.01280
 O175 O 0.47315 0.31746 0.01054
 O176 O 0.52835 0.68517 -0.01383
 H177 H 0.54008 0.51633 0.20263
 H178 H 0.46049 0.76414 -0.01640
 H179 H 0.53912 0.47530 -0.20735
 H180 H 0.45900 0.24444 0.01496
 H181 H 0.51822 0.90537 0.06296
 H182 H 0.51699 0.88578 -0.11442
 H183 H 0.48729 0.58078 -0.32013
 H184 H 0.49073 0.36557 -0.30664
 H185 H 0.51305 0.09794 -0.05058
 H186 H 0.49824 0.12290 0.20840
 H187 H 0.48809 0.42415 0.31686
 H188 H 0.50279 0.63066 0.30428
 C189 C 0.33031 0.35398 0.32573
 C190 C 0.35782 0.30161 0.31572
 C191 C 0.37843 0.33466 0.23306
 C192 C 0.40671 0.28907 0.23588
 H193 H 0.36630 0.23835 0.37448
 H194 H 0.37153 0.40408 0.17645
 H195 H 0.32057 0.41011 0.26500
 H196 H 0.41310 0.22175 0.29481
 C197 C -0.16760 0.79385 0.31669
 C198 C -0.13790 0.76957 0.31541
 C199 C -0.11892 0.79326 0.22667
 C200 C -0.09003 0.75619 0.22943
 H201 H -0.12663 0.73538 0.38287
 H202 H -0.12746 0.85275 0.16574
 H203 H -0.17910 0.81002 0.24557
 H204 H -0.08225 0.69558 0.29096
 C205 C 0.67059 0.72082 0.29592
 C206 C 0.64245 0.76494 0.28452
 C207 C 0.62300 0.72351 0.20066
 C208 C 0.59472 0.76810 0.19656
 H209 H 0.63250 0.82325 0.34410
 H210 H 0.63043 0.64624 0.15123
 H211 H 0.68148 0.66763 0.23548
 H212 H 0.58795 0.84499 0.24754
 C213 C 0.17110 1.18754 0.31413
 C214 C 0.14461 1.24280 0.29138
 C215 C 0.12443 1.19396 0.21193
 C216 C 0.09660 1.24382 0.20554
 H217 H 0.13627 1.32018 0.33930
 H218 H 0.13088 1.11024 0.16774
 H219 H 0.18080 1.11454 0.26516
 H220 H 0.09057 1.32469 0.25372
 C221 C 0.66757 0.23633 -0.30913
 C222 C 0.63782 0.21849 -0.30239
 C223 C 0.62024 0.25489 -0.21235
 C224 C 0.59177 0.21574 -0.20586
 H225 H 0.62547 0.18115 -0.36639
 H226 H 0.62903 0.32580 -0.16025
 H227 H 0.67997 0.25621 -0.24040
 H228 H 0.58391 0.14388 -0.25906
 C229 C 0.16722 0.75050 -0.33167
 C230 C 0.13733 0.73410 -0.32536
 C231 C 0.11914 0.77553 -0.23764
 C232 C 0.08980 0.74778 -0.23731
 H233 H 0.12522 0.69337 -0.38852
 H234 H 0.12869 0.83826 -0.18086
 H235 H 0.17945 0.77441 -0.26342
 H236 H 0.08122 0.68382 -0.29524
 C237 C 0.33050 0.69669 -0.32627
 C238 C 0.35947 0.73100 -0.31874
 C239 C 0.37893 0.69727 -0.23268
 C240 C 0.40777 0.73312 -0.23608
 H241 H 0.37002 0.78170 -0.38052
 H242 H 0.37090 0.63330 -0.17430
 H243 H 0.31897 0.66279 -0.25943
 H244 H 0.41504 0.79615 -0.29640
 C245 C -0.17185 1.21203 -0.28705
 C246 C -0.14478 1.26507 -0.27636
 C247 C -0.12405 1.22698 -0.19498
 C248 C -0.09556 1.26647 -0.19935
 H249 H -0.13618 1.32514 -0.33655
 H250 H -0.13078 1.15465 -0.14085
 H251 H -0.18154 1.15679 -0.22611
 H252 H -0.08937 1.33730 -0.25556
 C253 C 0.66964 0.67261 -0.33052
 C254 C 0.64234 0.72424 -0.31446
 C255 C 0.62225 0.68142 -0.23294
 C256 C 0.59436 0.73087 -0.22804
 H257 H 0.63369 0.79506 -0.36749
 H258 H 0.62905 0.60242 -0.18440
 H259 H 0.67952 0.60713 -0.27595
 H260 H 0.58799 0.80746 -0.27963
 C261 C 0.16706 1.25324 -0.31653
 C262 C 0.13706 1.26749 -0.31221
 C263 C 0.11916 1.23305 -0.22286
 C264 C 0.09013 1.26760 -0.22074
 H265 H 0.12474 1.30083 -0.37784
 H266 H 0.12849 1.16808 -0.16684
 H267 H 0.17928 1.23756 -0.24670
 H268 H 0.08179 1.33437 -0.27741
 C269 C 0.32947 0.31638 -0.30038
 C270 C 0.35705 0.26442 -0.29288
 C271 C 0.37775 0.29708 -0.21020
 C272 C 0.40604 0.25176 -0.21277
 H273 H 0.36569 0.20633 -0.35479
 H274 H 0.37103 0.36876 -0.15485
 H275 H 0.31981 0.36970 -0.23771
 H276 H 0.41228 0.18135 -0.26982
 C277 C -0.17178 0.84926 -0.31400
 C278 C -0.14564 0.78793 -0.29645
 C279 C -0.12442 0.82695 -0.21699
 C280 C -0.09655 0.77659 -0.21805
 H281 H -0.13822 0.71408 -0.34920
 H282 H -0.13030 0.90493 -0.16600
 H283 H -0.18068 0.91839 -0.26025
 H284 H -0.09104 0.70192 -0.27258
 C285 C 0.33148 0.69690 0.30143
 C286 C 0.35842 0.75271 0.29238
 C287 C 0.37942 0.71930 0.21040
 C288 C 0.40782 0.76130 0.21417
 H289 H 0.36642 0.81501 0.35224
 H290 H 0.37274 0.64924 0.15417
 H291 H 0.32249 0.64102 0.23949
 H292 H 0.41418 0.82946 0.27233
 C293 C -0.16749 1.16981 0.34219
 C294 C -0.13842 1.20497 0.33707
 C295 C -0.11867 1.17698 0.25028
 C296 C -0.09009 1.21773 0.25264
 H297 H -0.12825 1.25606 0.39943
 H298 H -0.12655 1.11552 0.18980
 H299 H -0.17830 1.13395 0.27453
 H300 H -0.08280 1.27803 0.31476
 C301 C 0.66948 0.29353 0.32048
 C302 C 0.64258 0.24167 0.30092
 C303 C 0.62213 0.29095 0.22186
 C304 C 0.59385 0.24742 0.21834
 H305 H 0.63420 0.16737 0.35072
 H306 H 0.62904 0.37046 0.17457
 H307 H 0.67903 0.36326 0.26918
 H308 H 0.58732 0.17083 0.26916
 C309 C 0.16951 0.78770 0.29677
 C310 C 0.14356 0.72967 0.27477
 C311 C 0.12347 0.77610 0.19392
 C312 C 0.09612 0.72466 0.18435
 H313 H 0.13560 0.65375 0.32387
 H314 H 0.12939 0.86161 0.15187
 H315 H 0.17857 0.85941 0.24616
 H316 H 0.09046 0.64129 0.22952
   
