data_POSCAR
  _audit_creation_date              2014-09-24
  _audit_creation_method            'ToBaCCo'
  _symmetry_space_group_name_H-M    'P1'
  _symmetry_Int_Tables_number       1
  _symmetry_cell_setting            triclinic
  loop_
  _symmetry_equiv_pos_as_xyz
 x,y,z
_cell_length_a 28.8940
_cell_length_b 28.9687
_cell_length_c 28.9385
_cell_angle_alpha 84.083100
_cell_angle_beta 95.928900
_cell_angle_gamma 94.591200
loop_
  _atom_site_label
  _atom_site_type_symbol
  _atom_site_fract_x
  _atom_site_fract_y
  _atom_site_fract_z
C1 C 0.60093 0.54442 -0.00191
 C2 C 0.59001 0.59029 0.00000
 C3 C 0.54404 0.60124 0.00191
 C4 C 0.50761 0.56550 0.00198
 C5 C 0.51822 0.51877 0.00001
 C6 C 0.56506 0.50812 -0.00196
 C7 C 0.57470 0.46153 -0.00392
 C8 C 0.53914 0.42614 -0.00396
 C9 C 0.49254 0.43590 -0.00201
 C10 C 0.48193 0.48260 0.00001
 C11 C 0.46092 0.57517 0.00394
 C12 C 0.42540 0.53974 0.00399
 C13 C 0.43508 0.49318 0.00204
 C14 C 0.39926 0.45681 0.00205
 C15 C 0.41027 0.41099 0.00001
 C16 C 0.45621 0.40019 -0.00202
 H17 H 0.60996 0.45202 -0.00547
 H18 H 0.54856 0.39095 -0.00553
 H19 H 0.45143 0.61035 0.00548
 H20 H 0.39013 0.54921 0.00556
 H21 H 0.61776 0.61794 -0.00000
 H22 H 0.38268 0.38321 0.00000
 C23 C -0.00184 0.60097 0.45406
 C24 C 0.00032 0.59039 0.40837
 C25 C 0.00225 0.54448 0.39820
 C26 C 0.00202 0.50785 0.43459
 C27 C -0.00016 0.51826 0.48116
 C28 C -0.00209 0.56502 0.49096
 C29 C -0.00420 0.57456 0.53735
 C30 C -0.00443 0.53888 0.57346
 C31 C -0.00256 0.49229 0.56456
 C32 C -0.00041 0.48187 0.51801
 C33 C 0.00388 0.46117 0.42578
 C34 C 0.00362 0.42551 0.46192
 C35 C 0.00149 0.43510 0.50828
 C36 C 0.00120 0.39918 0.54523
 C37 C -0.00090 0.40987 0.59090
 C38 C -0.00276 0.45578 0.60094
 H39 H -0.00571 0.60980 0.54615
 H40 H -0.00610 0.54816 0.60852
 H41 H 0.00557 0.45182 0.39075
 H42 H 0.00511 0.39025 0.45316
 H43 H 0.00048 0.61839 0.38034
 H44 H -0.00108 0.38204 0.61906
 C45 C 0.54499 0.00220 0.60177
 C46 C 0.59104 0.00034 0.59167
 C47 C 0.60175 -0.00177 0.54596
 C48 C 0.56566 -0.00204 0.50897
 C49 C 0.51876 -0.00014 0.51877
 C50 C 0.50830 0.00200 0.56534
 C51 C 0.46150 0.00386 0.57415
 C52 C 0.42575 0.00363 0.53802
 C53 C 0.43535 0.00152 0.49167
 C54 C 0.48223 -0.00039 0.48192
 C55 C 0.57512 -0.00415 0.46249
 C56 C 0.53932 -0.00440 0.42642
 C57 C 0.49264 -0.00255 0.43536
 C58 C 0.45600 -0.00277 0.39900
 C59 C 0.40999 -0.00087 0.40905
 C60 C 0.39931 0.00127 0.45472
 H61 H 0.45212 0.00552 0.60918
 H62 H 0.39040 0.00512 0.54679
 H63 H 0.61043 -0.00564 0.45361
 H64 H 0.54859 -0.00607 0.39135
 H65 H 0.61900 0.00051 0.61985
 H66 H 0.38207 -0.00104 0.38091
 O67 O 0.46698 -0.00195 -0.07073
 O68 O 0.45713 -0.00970 0.05577
 O69 O 0.45736 0.05753 -0.01107
 O70 O 0.46671 -0.06919 -0.00386
 O71 O 0.54340 -0.05847 0.00920
 O72 O 0.53405 0.06825 0.00198
 O73 O 0.53383 0.00101 0.06883
 O74 O 0.54367 0.00877 -0.05767
 Cu75 Cu 0.45431 -0.00690 -0.00879
 Cu76 Cu 0.54647 0.00596 0.00688
 C77 C 0.50703 0.00449 -0.08553
 C78 C 0.49377 -0.00542 0.08363
 C79 C 0.49407 0.08425 -0.00552
 C80 C 0.50668 -0.08520 0.00368
 O81 O -0.05798 0.54333 0.99076
 O82 O 0.06905 0.53394 0.99798
 O83 O 0.00162 0.53372 0.93113
 O84 O 0.00943 0.54353 1.05764
 O85 O -0.00135 0.46703 1.07067
 O86 O -0.00916 0.45723 0.94416
 O87 O 0.05827 0.45745 1.01100
 O88 O -0.06877 0.46684 1.00378
 Cu89 Cu 0.00661 0.54634 0.99308
 Cu90 Cu -0.00632 0.45442 1.00871
 C91 C -0.08480 0.50672 0.99626
 C92 C 0.08509 0.49406 1.00546
 C93 C -0.00486 0.49377 0.91631
 C94 C 0.00511 0.50698 1.08548
 O95 O -0.01097 -0.05615 0.45621
 O96 O -0.00451 0.06973 0.46731
 O97 O 0.05535 0.00999 0.45622
 O98 O -0.07084 0.00357 0.46740
 O99 O -0.05702 -0.01014 0.54400
 O100 O 0.06916 -0.00372 0.53282
 O101 O 0.00930 0.05602 0.54391
 O102 O 0.00284 -0.06987 0.53281
 Cu103 Cu -0.00914 0.00816 0.45404
 Cu104 Cu 0.00745 -0.00830 0.54613
 C105 C -0.00495 -0.08423 0.49260
 C106 C 0.00330 0.08410 0.50751
 C107 C 0.08353 0.00402 0.49260
 C108 C -0.08521 -0.00417 0.50763
 C109 C -0.35324 0.53641 0.99654
 C110 C -0.31260 0.53022 0.99539
 C111 C -0.26478 0.52387 0.99442
 C112 C -0.22375 0.51914 0.99399
 C113 C -0.17550 0.51428 0.99405
 C114 C -0.13416 0.51061 0.99469
 C115 C 0.35344 0.46471 1.00383
 C116 C 0.31281 0.47082 1.00520
 C117 C 0.26501 0.47707 1.00647
 C118 C 0.22400 0.48173 1.00714
 C119 C 0.17576 0.48653 1.00734
 C120 C 0.13443 0.49017 1.00689
 C121 C -0.00360 -0.35073 0.46173
 C122 C -0.00486 -0.31027 0.46755
 C123 C -0.00600 -0.26275 0.47380
 C124 C -0.00659 -0.22201 0.47869
 C125 C -0.00673 -0.17415 0.48394
 C126 C -0.00628 -0.13314 0.48806
 C127 C 0.00282 0.35084 0.53765
 C128 C 0.00395 0.31034 0.53195
 C129 C 0.00491 0.26276 0.52586
 C130 C 0.00535 0.22197 0.52112
 C131 C 0.00531 0.17406 0.51603
 C132 C 0.00474 0.13303 0.51200
 C133 C 0.53716 0.00394 -0.35264
 C134 C 0.53104 0.00523 -0.31222
 C135 C 0.52468 0.00635 -0.26466
 C136 C 0.51988 0.00686 -0.22384
 C137 C 0.51490 0.00684 -0.17583
 C138 C 0.51110 0.00617 -0.13467
 C139 C 0.46419 -0.00467 0.35082
 C140 C 0.47019 -0.00600 0.31038
 C141 C 0.47641 -0.00717 0.26279
 C142 C 0.48110 -0.00772 0.22196
 C143 C 0.48598 -0.00773 0.17393
 C144 C 0.48973 -0.00709 0.13277
 C145 C 0.53606 -0.35303 0.00346
 C146 C 0.52992 -0.31248 0.00460
 C147 C 0.52364 -0.26476 0.00556
 C148 C 0.51896 -0.22383 0.00598
 C149 C 0.51417 -0.17568 0.00591
 C150 C 0.51054 -0.13444 0.00526
 C151 C 0.46463 0.35190 -0.00391
 C152 C 0.47075 0.31139 -0.00528
 C153 C 0.47702 0.26371 -0.00654
 C154 C 0.48171 0.22281 -0.00720
 C155 C 0.48654 0.17470 -0.00740
 C156 C 0.49019 0.13348 -0.00694
 C157 C -0.35241 -0.00332 0.53869
 C158 C -0.31184 -0.00450 0.53284
 C159 C -0.26418 -0.00553 0.52654
 C160 C -0.22334 -0.00602 0.52162
 C161 C -0.17535 -0.00607 0.51634
 C162 C -0.13425 -0.00555 0.51219
 C163 C 0.35087 0.00298 0.46231
 C164 C 0.31028 0.00419 0.46803
 C165 C 0.26259 0.00527 0.47413
 C166 C 0.22172 0.00581 0.47890
 C167 C 0.17370 0.00589 0.48402
 C168 C 0.13258 0.00539 0.48808
 C169 C 0.00408 0.53673 1.35261
 C170 C 0.00547 0.53069 1.31218
 C171 C 0.00670 0.52442 1.26462
 C172 C 0.00730 0.51969 1.22380
 C173 C 0.00736 0.51478 1.17578
 C174 C 0.00676 0.51102 1.13462
 C175 C -0.00459 0.46400 0.64912
 C176 C -0.00585 0.47003 0.68955
 C177 C -0.00692 0.47630 0.73714
 C178 C -0.00738 0.48104 0.77797
 C179 C -0.00730 0.48596 0.82600
 C180 C -0.00659 0.48973 0.86717
   
