data_POSCAR
  _audit_creation_date              2014-09-24
  _audit_creation_method            'ToBaCCo'
  _symmetry_space_group_name_H-M    'P1'
  _symmetry_Int_Tables_number       1
  _symmetry_cell_setting            triclinic
  loop_
  _symmetry_equiv_pos_as_xyz
 x,y,z
_cell_length_a 38.7735
_cell_length_b 38.6084
_cell_length_c 38.7200
_cell_angle_alpha 110.078800
_cell_angle_beta 79.947900
_cell_angle_gamma 78.438500
loop_
  _atom_site_label
  _atom_site_type_symbol
  _atom_site_fract_x
  _atom_site_fract_y
  _atom_site_fract_z
C1 C 0.50842 0.48805 -0.00062
 C2 C 0.48081 0.51238 -0.00543
 C3 C 0.44521 0.50419 -0.00748
 C4 C 0.48424 0.54907 -0.00836
 C5 C 0.54457 0.49524 -0.00088
 C6 C 0.50443 0.45273 0.00503
 C7 C 0.44301 0.47030 -0.03470
 C8 C 0.40904 0.46437 -0.03780
 C9 C 0.37596 0.49264 -0.01408
 C10 C 0.37911 0.52627 0.01384
 C11 C 0.41303 0.53189 0.01684
 C12 C 0.47442 0.55808 -0.03814
 C13 C 0.47412 0.59381 -0.03949
 C14 C 0.48380 0.62123 -0.01114
 C15 C 0.49433 0.61200 0.01828
 C16 C 0.49415 0.57640 0.01991
 C17 C 0.55735 0.50098 0.03180
 C18 C 0.59205 0.50593 0.03152
 C19 C 0.61488 0.50431 -0.00175
 C20 C 0.60212 0.49844 -0.03454
 C21 C 0.56705 0.49421 -0.03403
 C22 C 0.47656 0.45422 0.03454
 C23 C 0.47473 0.42087 0.04068
 C24 C 0.50107 0.38567 0.01778
 C25 C 0.52866 0.38429 -0.01190
 C26 C 0.53035 0.41746 -0.01813
 H27 H 0.46763 0.44885 -0.05436
 H28 H 0.40945 0.43851 -0.06076
 H29 H 0.35565 0.54813 0.03495
 H30 H 0.41418 0.55807 0.03845
 H31 H 0.46643 0.53757 -0.06009
 H32 H 0.46612 0.60015 -0.06259
 H33 H 0.50071 0.57065 0.04382
 H34 H 0.54039 0.50154 0.05749
 H35 H 0.60148 0.51003 0.05699
 H36 H 0.61931 0.49714 -0.06047
 H37 H 0.55769 0.48936 -0.05960
 H38 H 0.45672 0.48129 0.05326
 H39 H 0.45341 0.42279 0.06398
 H40 H 0.54901 0.35746 -0.03032
 H41 H 0.55208 0.41566 -0.04102
 H42 H 0.50139 0.63288 0.04078
 C43 C 0.00865 0.49839 0.48834
 C44 C 0.00728 0.46864 0.45741
 C45 C 0.00513 0.43130 0.45930
 C46 C 0.00764 0.47180 0.42020
 C47 C 0.00769 0.53698 0.48800
 C48 C 0.01164 0.49376 0.52428
 C49 C 0.03107 0.39722 0.43321
 C50 C 0.02948 0.36190 0.43460
 C51 C 0.00169 0.35994 0.46195
 C52 C -0.02457 0.39412 0.48778
 C53 C -0.02296 0.42947 0.48634
 C54 C 0.03476 0.48419 0.40260
 C55 C 0.03384 0.48833 0.36829
 C56 C 0.00630 0.47926 0.35057
 C57 C -0.02009 0.46571 0.36759
 C58 C -0.01942 0.46204 0.40210
 C59 C -0.01980 0.55668 0.47666
 C60 C -0.01984 0.59268 0.47604
 C61 C 0.00708 0.60999 0.48764
 C62 C 0.03397 0.59070 0.49990
 C63 C 0.03428 0.55453 0.50002
 C64 C -0.01419 0.51862 0.55860
 C65 C -0.01150 0.51504 0.59274
 C66 C 0.01730 0.48671 0.59323
 C67 C 0.04332 0.46197 0.55881
 C68 C 0.04061 0.46560 0.52463
 H69 H 0.05288 0.39805 0.41207
 H70 H 0.05034 0.33615 0.41461
 H71 H -0.04664 0.39347 0.50875
 H72 H -0.04370 0.45539 0.50620
 H73 H 0.05644 0.49093 0.41559
 H74 H 0.05482 0.49826 0.35538
 H75 H -0.04046 0.45221 0.41508
 H76 H -0.04116 0.54416 0.46824
 H77 H -0.04116 0.60726 0.46699
 H78 H 0.05514 0.60332 0.50874
 H79 H 0.05561 0.53997 0.50908
 H80 H -0.03666 0.54058 0.55884
 H81 H -0.03222 0.53416 0.61871
 H82 H 0.06609 0.44025 0.55842
 H83 H 0.06123 0.44666 0.49850
 H84 H -0.04170 0.45873 0.35458
 C85 C 0.51716 0.01623 0.50688
 C86 C 0.49031 0.01279 0.53221
 C87 C 0.49528 0.01110 0.56898
 C88 C 0.45467 0.00968 0.52436
 C89 C 0.51273 0.01815 0.47016
 C90 C 0.55317 0.01765 0.51415
 C91 C 0.50562 0.03990 0.59508
 C92 C 0.50939 0.03818 0.62978
 C93 C 0.50174 0.00817 0.64003
 C94 C 0.49077 -0.02030 0.61370
 C95 C 0.48774 -0.01886 0.57876
 C96 C 0.45258 -0.01997 0.49204
 C97 C 0.41859 -0.02363 0.48637
 C98 C 0.38615 0.00210 0.51311
 C99 C 0.38847 0.03195 0.54520
 C100 C 0.42236 0.03555 0.55083
 C101 C 0.48475 0.04676 0.46891
 C102 C 0.48279 0.04954 0.43411
 C103 C 0.50904 0.02402 0.40009
 C104 C 0.53657 -0.00491 0.40149
 C105 C 0.53844 -0.00772 0.43610
 C106 C 0.56252 0.05225 0.52309
 C107 C 0.59698 0.05377 0.52831
 C108 C 0.62358 0.02023 0.52317
 C109 C 0.61377 -0.01457 0.51394
 C110 C 0.57880 -0.01567 0.50997
 H111 H 0.51003 0.06426 0.58902
 H112 H 0.51641 0.06173 0.64927
 H113 H 0.48576 -0.04476 0.61914
 H114 H 0.47964 -0.04141 0.55911
 H115 H 0.47722 -0.04070 0.47165
 H116 H 0.41769 -0.04719 0.46164
 H117 H 0.42344 0.05856 0.57597
 H118 H 0.46498 0.06744 0.49493
 H119 H 0.46146 0.07233 0.43394
 H120 H 0.55679 -0.02541 0.37572
 H121 H 0.56019 -0.03009 0.43634
 H122 H 0.54305 0.07812 0.52589
 H123 H 0.60322 0.08098 0.53417
 H124 H 0.63265 -0.04089 0.51084
 H125 H 0.57190 -0.04266 0.50293
 H126 H 0.36402 0.05260 0.56599
 O127 O 0.45383 0.00874 -0.02126
 O128 O 0.44932 0.02821 0.07972
 O129 O 0.44707 0.06977 0.03844
 O130 O 0.45737 -0.03278 0.01948
 O131 O 0.51720 -0.04379 0.00624
 O132 O 0.50688 0.05842 0.02657
 O133 O 0.50919 0.01648 0.06680
 O134 O 0.51355 -0.00105 -0.03394
 Cu135 Cu 0.44590 0.01963 0.03042
 Cu136 Cu 0.51768 0.00633 0.01509
 C137 C 0.48433 0.00117 -0.04472
 C138 C 0.47852 0.02515 0.09048
 C139 C 0.47539 0.08153 0.03540
 C140 C 0.48911 -0.05575 0.00993
 O141 O -0.05726 0.51839 0.99285
 O142 O 0.03589 0.52575 0.99065
 O143 O -0.00617 0.52638 0.94536
 O144 O -0.01424 0.51656 1.03746
 O145 O 0.00590 0.45349 1.00728
 O146 O 0.01624 0.46349 0.91536
 O147 O 0.05769 0.46273 0.96153
 O148 O -0.03588 0.45556 0.96143
 Cu149 Cu -0.01268 0.52807 0.99460
 Cu150 Cu 0.01313 0.45247 0.95841
 C151 C -0.06257 0.48587 0.97712
 C152 C 0.06272 0.49565 0.97617
 C153 C 0.00652 0.49656 0.91456
 C154 C -0.00533 0.48331 1.03808
 O155 O 0.02244 -0.06282 0.48313
 O156 O 0.01115 0.03298 0.48038
 O157 O 0.06420 -0.01701 0.48539
 O158 O -0.03001 -0.01337 0.47853
 O159 O -0.05000 0.01465 0.54127
 O160 O 0.04424 0.00900 0.54811
 O161 O -0.00792 0.05972 0.54315
 O162 O 0.00219 -0.03619 0.54587
 Cu163 Cu 0.01904 -0.01762 0.47556
 Cu164 Cu -0.00481 0.01451 0.55089
 C165 C 0.01360 -0.06588 0.51490
 C166 C -0.00011 0.06276 0.51125
 C167 C 0.07034 -0.00467 0.51800
 C168 C -0.05603 0.00091 0.50878
 C169 C -0.30639 0.54006 1.02706
 C170 C -0.27558 0.51179 0.99899
 C171 C -0.28194 0.48093 0.97040
 C172 C -0.31771 0.47944 0.96954
 C173 C -0.34770 0.50757 0.99768
 C174 C -0.34174 0.53772 1.02641
 C175 C -0.25263 0.45138 0.94314
 C176 C -0.21693 0.45110 0.94403
 C177 C -0.20904 0.48104 0.97189
 C178 C -0.23881 0.51266 0.99882
 C179 C -0.23083 0.54433 1.02428
 C180 C -0.19513 0.54480 1.02416
 C181 C -0.16591 0.51349 0.99934
 C182 C -0.17232 0.48082 0.97327
 C183 C -0.14163 0.44916 0.95000
 C184 C -0.10623 0.45061 0.95180
 C185 C -0.10013 0.48358 0.97661
 C186 C -0.13020 0.51482 1.00047
 H187 H -0.30418 0.56377 1.05055
 H188 H -0.32224 0.45562 0.94766
 H189 H -0.36464 0.55961 1.04858
 H190 H -0.25732 0.42785 0.92109
 H191 H -0.19598 0.42728 0.92179
 H192 H -0.25165 0.56986 1.04417
 H193 H -0.19037 0.56994 1.04400
 H194 H -0.14399 0.42261 0.93049
 H195 H -0.08350 0.42592 0.93325
 H196 H -0.12584 0.54030 1.02022
 C197 C 0.30315 0.44722 0.95983
 C198 C 0.27192 0.47923 0.97380
 C199 C 0.27678 0.51594 0.99150
 C200 C 0.31120 0.52009 0.99538
 C201 C 0.34243 0.48811 0.98184
 C202 C 0.33742 0.45158 0.96362
 C203 C 0.24730 0.54877 1.00522
 C204 C 0.21280 0.54615 1.00209
 C205 C 0.20617 0.51029 0.98505
 C206 C 0.23617 0.47620 0.97079
 C207 C 0.22934 0.44032 0.95427
 C208 C 0.19454 0.43770 0.95194
 C209 C 0.16508 0.47059 0.96569
 C210 C 0.17044 0.50741 0.98216
 C211 C 0.13963 0.53984 0.99520
 C212 C 0.10516 0.53572 0.99272
 C213 C 0.09989 0.49930 0.97707
 C214 C 0.13013 0.46680 0.96328
 H215 H 0.30219 0.41816 0.94592
 H216 H 0.31336 0.54908 1.00723
 H217 H 0.35938 0.42542 0.95371
 H218 H 0.25087 0.57702 1.01873
 H219 H 0.19182 0.57308 1.01374
 H220 H 0.25032 0.41340 0.94307
 H221 H 0.19065 0.40948 0.93926
 H222 H 0.14095 0.56895 1.00758
 H223 H 0.08241 0.56142 1.00342
 H224 H 0.12646 0.43841 0.95097
 C225 C 0.00487 -0.30912 0.45323
 C226 C 0.01057 -0.28003 0.48411
 C227 C 0.01344 -0.28759 0.51701
 C228 C 0.01231 -0.32339 0.51792
 C229 C 0.00741 -0.35203 0.48679
 C230 C 0.00327 -0.34441 0.45471
 C231 C 0.01742 -0.25943 0.54889
 C232 C 0.01803 -0.22348 0.54928
 C233 C 0.01547 -0.21444 0.51727
 C234 C 0.01304 -0.24367 0.48367
 C235 C 0.01385 -0.23584 0.45055
 C236 C 0.01580 -0.20038 0.45047
 C237 C 0.01628 -0.17100 0.48347
 C238 C 0.01573 -0.17731 0.51752
 C239 C 0.01473 -0.14586 0.55056
 C240 C 0.01446 -0.10999 0.54954
 C241 C 0.01559 -0.10426 0.51563
 C242 C 0.01682 -0.13505 0.48262
 H243 H 0.00100 -0.30542 0.42771
 H244 H 0.01481 -0.32888 0.54316
 H245 H -0.00065 -0.36612 0.43035
 H246 H 0.01981 -0.26513 0.57404
 H247 H 0.02143 -0.20360 0.57499
 H248 H 0.01381 -0.25689 0.42375
 H249 H 0.01647 -0.19577 0.42430
 H250 H 0.01314 -0.14763 0.57792
 H251 H 0.01320 -0.08656 0.57553
 H252 H 0.01710 -0.13076 0.45633
 C253 C 0.00748 0.25406 0.43091
 C254 C -0.00022 0.24955 0.46602
 C255 C -0.00837 0.28282 0.49999
 C256 C -0.00804 0.31861 0.49851
 C257 C 0.00028 0.32231 0.46348
 C258 C 0.00774 0.28976 0.42982
 C259 C -0.01653 0.28026 0.53537
 C260 C -0.01661 0.24535 0.53805
 C261 C -0.00827 0.21119 0.50520
 C262 C 0.00010 0.21331 0.46856
 C263 C 0.00895 0.17907 0.43569
 C264 C 0.00995 0.14398 0.43833
 C265 C 0.00202 0.14137 0.47369
 C266 C -0.00756 0.17486 0.50771
 C267 C -0.01579 0.17036 0.54279
 C268 C -0.01378 0.13420 0.54378
 C269 C -0.00360 0.10123 0.51003
 C270 C 0.00396 0.10517 0.47507
 H271 H 0.01340 0.23073 0.40366
 H272 H -0.01355 0.34355 0.52476
 H273 H 0.01357 0.29193 0.40236
 H274 H -0.02283 0.30562 0.56143
 H275 H -0.02304 0.24619 0.56655
 H276 H 0.01569 0.17816 0.40718
 H277 H 0.01720 0.11848 0.41224
 H278 H -0.02380 0.19406 0.57008
 H279 H -0.01994 0.13210 0.57125
 H280 H 0.01168 0.07991 0.44869
 C281 C 0.53168 0.02187 -0.27032
 C282 C 0.50976 0.00468 -0.25206
 C283 C 0.48446 -0.01069 -0.27037
 C284 C 0.48249 -0.01016 -0.30611
 C285 C 0.50450 0.00691 -0.32422
 C286 C 0.52888 0.02316 -0.30538
 C287 C 0.46076 -0.02613 -0.25274
 C288 C 0.46084 -0.02573 -0.21677
 C289 C 0.48541 -0.01063 -0.19719
 C290 C 0.51146 0.00308 -0.21594
 C291 C 0.53858 0.01423 -0.19818
 C292 C 0.53939 0.01349 -0.16270
 C293 C 0.51274 0.00265 -0.14296
 C294 C 0.48506 -0.00913 -0.15964
 C295 C 0.45755 -0.01783 -0.13750
 C296 C 0.45773 -0.01495 -0.10058
 C297 C 0.48553 -0.00398 -0.08462
 C298 C 0.51324 0.00430 -0.10621
 H299 H 0.55084 0.03534 -0.25793
 H300 H 0.46211 -0.02135 -0.31862
 H301 H 0.54711 0.03586 -0.31820
 H302 H 0.44149 -0.03822 -0.26670
 H303 H 0.44176 -0.03840 -0.20538
 H304 H 0.56021 0.02293 -0.21141
 H305 H 0.56080 0.02224 -0.15025
 H306 H 0.43479 -0.02567 -0.14730
 H307 H 0.43584 -0.02118 -0.08433
 H308 H 0.53450 0.01354 -0.09378
 C309 C 0.54187 0.02535 0.30264
 C310 C 0.50940 0.03132 0.29078
 C311 C 0.47622 0.03641 0.31673
 C312 C 0.47604 0.03484 0.35256
 C313 C 0.50864 0.02783 0.36323
 C314 C 0.54135 0.02360 0.33809
 C315 C 0.44343 0.04252 0.30664
 C316 C 0.44268 0.04297 0.27106
 C317 C 0.47494 0.03725 0.24379
 C318 C 0.50882 0.03183 0.25403
 C319 C 0.54105 0.02660 0.22698
 C320 C 0.54053 0.02562 0.19094
 C321 C 0.50800 0.02989 0.18019
 C322 C 0.47461 0.03622 0.20644
 C323 C 0.44243 0.04063 0.19382
 C324 C 0.44372 0.03784 0.15662
 C325 C 0.47695 0.03068 0.13065
 C326 C 0.50892 0.02728 0.14292
 H327 H 0.56830 0.02158 0.28523
 H328 H 0.45056 0.03800 0.37175
 H329 H 0.56686 0.01896 0.34592
 H330 H 0.41795 0.04665 0.32641
 H331 H 0.41614 0.04764 0.26576
 H332 H 0.56749 0.02282 0.23253
 H333 H 0.56609 0.02106 0.17108
 H334 H 0.41580 0.04581 0.21170
 H335 H 0.41851 0.04073 0.14805
 H336 H 0.53485 0.02189 0.12319
 C337 C 0.44695 -0.28257 -0.01600
 C338 C 0.47504 -0.26467 -0.00937
 C339 C 0.50703 -0.28620 -0.00502
 C340 C 0.50972 -0.32323 -0.00551
 C341 C 0.48131 -0.34004 -0.01134
 C342 C 0.45018 -0.31958 -0.01700
 C343 C 0.53619 -0.27069 -0.00010
 C344 C 0.53456 -0.23425 0.00044
 C345 C 0.50316 -0.21131 -0.00311
 C346 C 0.47252 -0.22636 -0.00703
 C347 C 0.44010 -0.20227 -0.00749
 C348 C 0.43764 -0.16492 -0.00441
 C349 C 0.46750 -0.15018 -0.00160
 C350 C 0.50098 -0.17337 -0.00180
 C351 C 0.53087 -0.15748 -0.00069
 C352 C 0.52706 -0.11979 0.00220
 C353 C 0.49345 -0.09651 0.00414
 C354 C 0.46388 -0.11212 0.00176
 H355 H 0.42227 -0.26904 -0.02098
 H356 H 0.53418 -0.33923 -0.00178
 H357 H 0.42788 -0.33206 -0.02162
 H358 H 0.56069 -0.28698 0.00327
 H359 H 0.55817 -0.22446 0.00481
 H360 H 0.41556 -0.21103 -0.00908
 H361 H 0.41197 -0.14734 -0.00426
 H362 H 0.55771 -0.17343 -0.00232
 H363 H 0.55051 -0.10863 0.00360
 H364 H 0.43786 -0.09456 0.00266
 C365 C 0.53390 0.29218 0.02923
 C366 C 0.50163 0.28072 0.03526
 C367 C 0.46855 0.30564 0.03677
 C368 C 0.46825 0.34026 0.03209
 C369 C 0.50069 0.35048 0.02515
 C370 C 0.53330 0.32633 0.02421
 C371 C 0.43605 0.29559 0.04222
 C372 C 0.43562 0.26076 0.04506
 C373 C 0.46788 0.23443 0.04278
 C374 C 0.50125 0.24509 0.03886
 C375 C 0.53325 0.21954 0.03820
 C376 C 0.53323 0.18407 0.03933
 C377 C 0.50144 0.17248 0.04128
 C378 C 0.46810 0.19755 0.04368
 C379 C 0.43667 0.18405 0.04591
 C380 C 0.43880 0.14695 0.04444
 C381 C 0.47214 0.12206 0.04080
 C382 C 0.50316 0.13544 0.04005
 H383 H 0.56029 0.27526 0.02751
 H384 H 0.44290 0.35870 0.03261
 H385 H 0.55865 0.33388 0.01949
 H386 H 0.41064 0.31464 0.04371
 H387 H 0.40936 0.25528 0.04888
 H388 H 0.55912 0.22589 0.03663
 H389 H 0.55866 0.16521 0.03807
 H390 H 0.41014 0.20103 0.04799
 H391 H 0.41434 0.13742 0.04518
 H392 H 0.52912 0.11659 0.03755
 C393 C -0.29933 0.05617 0.55342
 C394 C -0.26852 0.02465 0.53064
 C395 C -0.27456 -0.00837 0.50480
 C396 C -0.31017 -0.01022 0.50357
 C397 C -0.34070 0.02140 0.52621
 C398 C -0.33451 0.05465 0.55090
 C399 C -0.24498 -0.03922 0.47974
 C400 C -0.20941 -0.03766 0.47898
 C401 C -0.20195 -0.00555 0.50437
 C402 C -0.23197 0.02516 0.53197
 C403 C -0.22448 0.05486 0.56047
 C404 C -0.18888 0.05504 0.56149
 C405 C -0.15935 0.02649 0.53343
 C406 C -0.16541 -0.00364 0.50381
 C407 C -0.13458 -0.03030 0.47454
 C408 C -0.09930 -0.02799 0.47576
 C409 C -0.09351 0.00054 0.50627
 C410 C -0.12368 0.02787 0.53491
 H411 H -0.29714 0.08292 0.57276
 H412 H -0.31369 -0.03569 0.48299
 H413 H -0.35700 0.07950 0.56954
 H414 H -0.24937 -0.06467 0.45999
 H415 H -0.18817 -0.06277 0.45892
 H416 H -0.24568 0.07780 0.58337
 H417 H -0.18444 0.07807 0.58430
 H418 H -0.13683 -0.05282 0.44996
 H419 H -0.07637 -0.04923 0.45310
 H420 H -0.11938 0.05049 0.55826
 C421 C 0.30837 -0.01536 0.46812
 C422 C 0.27977 -0.00942 0.49973
 C423 C 0.28744 -0.00006 0.53580
 C424 C 0.32212 0.00307 0.53970
 C425 C 0.34992 -0.00248 0.50823
 C426 C 0.34275 -0.01195 0.47243
 C427 C 0.26048 0.00635 0.56801
 C428 C 0.22557 0.00460 0.56564
 C429 C 0.21610 -0.00391 0.53065
 C430 C 0.24387 -0.01195 0.49697
 C431 C 0.23479 -0.02225 0.46173
 C432 C 0.19974 -0.02378 0.45946
 C433 C 0.17213 -0.01480 0.49211
 C434 C 0.17978 -0.00468 0.52822
 C435 C 0.15049 0.00487 0.56049
 C436 C 0.11539 0.00442 0.55689
 C437 C 0.10803 -0.00564 0.52116
 C438 C 0.13669 -0.01552 0.48881
 H439 H 0.30506 -0.02211 0.43973
 H440 H 0.32753 0.00975 0.56746
 H441 H 0.36363 -0.01599 0.44768
 H442 H 0.26633 0.01317 0.59558
 H443 H 0.20665 0.00987 0.59200
 H444 H 0.25428 -0.02958 0.43507
 H445 H 0.19411 -0.03174 0.43175
 H446 H 0.15343 0.01346 0.58911
 H447 H 0.09381 0.01226 0.58243
 H448 H 0.13134 -0.02314 0.46098
 C449 C 0.00619 0.52317 1.27698
 C450 C -0.00014 0.49452 1.24621
 C451 C -0.00284 0.45993 1.25025
 C452 C -0.00081 0.45525 1.28428
 C453 C 0.00481 0.48418 1.31456
 C454 C 0.00867 0.51793 1.31047
 C455 C -0.00749 0.43011 1.22034
 C456 C -0.00878 0.43334 1.18597
 C457 C -0.00621 0.46709 1.18036
 C458 C -0.00331 0.49874 1.21150
 C459 C -0.00427 0.53372 1.20712
 C460 C -0.00667 0.53735 1.17313
 C461 C -0.00745 0.50617 1.14187
 C462 C -0.00687 0.47044 1.14479
 C463 C -0.00614 0.43933 1.11162
 C464 C -0.00610 0.44375 1.07733
 C465 C -0.00718 0.47927 1.07489
 C466 C -0.00822 0.51047 1.10743
 H467 H 0.00994 0.54972 1.27593
 H468 H -0.00312 0.42873 1.28705
 H469 H 0.01311 0.54066 1.33355
 H470 H -0.00982 0.40372 1.22339
 H471 H -0.01267 0.40901 1.16454
 H472 H -0.00398 0.55930 1.22981
 H473 H -0.00740 0.56481 1.17114
 H474 H -0.00453 0.41088 1.11080
 H475 H -0.00503 0.41910 1.05250
 H476 H -0.00850 0.53796 1.10568
 C477 C 0.03095 0.44344 0.66579
 C478 C 0.02325 0.47635 0.69997
 C479 C 0.01403 0.51288 0.69783
 C480 C 0.01274 0.51595 0.66299
 C481 C 0.02008 0.48310 0.62962
 C482 C 0.02936 0.44690 0.63135
 C483 C 0.00584 0.54629 0.73049
 C484 C 0.00566 0.54454 0.76568
 C485 C 0.01396 0.50902 0.76967
 C486 C 0.02382 0.47433 0.73612
 C487 C 0.03389 0.43882 0.73985
 C488 C 0.03331 0.43707 0.77510
 C489 C 0.02249 0.47047 0.80816
 C490 C 0.01270 0.50698 0.80610
 C491 C 0.00147 0.53988 0.84080
 C492 C -0.00010 0.53641 0.87571
 C493 C 0.00950 0.50022 0.87742
 C494 C 0.02106 0.46739 0.84341
 H495 H 0.03766 0.41456 0.66462
 H496 H 0.00603 0.54411 0.66184
 H497 H 0.03466 0.42106 0.60605
 H498 H -0.00091 0.57426 0.72892
 H499 H -0.00098 0.57180 0.78927
 H500 H 0.04262 0.41156 0.71594
 H501 H 0.04109 0.40910 0.77651
 H502 H -0.00689 0.56875 0.84221
 H503 H -0.00920 0.56231 0.90155
 H504 H 0.02849 0.43916 0.84433
   
