data_POSCAR
  _audit_creation_date              2014-09-24
  _audit_creation_method            'ToBaCCo'
  _symmetry_space_group_name_H-M    'P1'
  _symmetry_Int_Tables_number       1
  _symmetry_cell_setting            triclinic
  loop_
  _symmetry_equiv_pos_as_xyz
 x,y,z
_cell_length_a 52.9451
_cell_length_b 52.9857
_cell_length_c 24.8168
_cell_angle_alpha 89.951400
_cell_angle_beta 90.049400
_cell_angle_gamma 90.000500
loop_
  _atom_site_label
  _atom_site_type_symbol
  _atom_site_fract_x
  _atom_site_fract_y
  _atom_site_fract_z
C1 C -0.02338 0.26179 0.02714
 C2 C -0.02320 0.26181 -0.02985
 C3 C -0.00015 0.26189 -0.05764
 C4 C 0.02273 0.26183 -0.02921
 C5 C 0.02253 0.26183 0.02765
 C6 C -0.00047 0.26187 0.05547
 H7 H -0.00049 0.26173 0.09921
 H8 H -0.00003 0.26176 -0.10140
 C9 C 0.47712 0.76404 0.52852
 C10 C 0.47691 0.76405 0.47174
 C11 C 0.49974 0.76411 0.44333
 C12 C 0.52275 0.76400 0.47122
 C13 C 0.52296 0.76395 0.52800
 C14 C 0.50013 0.76405 0.55641
 H15 H 0.50026 0.76385 0.60011
 H16 H 0.49961 0.76396 0.39963
 C17 C 1.02299 0.73677 0.02809
 C18 C 1.02278 0.73674 -0.02878
 C19 C 0.99977 0.73668 -0.05665
 C20 C 0.97690 0.73679 -0.02829
 C21 C 0.97711 0.73680 0.02858
 C22 C 1.00013 0.73672 0.05645
 H23 H 1.00019 0.73690 0.10019
 H24 H 0.99971 0.73683 -0.10038
 C25 C 0.52290 0.23736 0.52949
 C26 C 0.52306 0.23735 0.47270
 C27 C 0.50019 0.23723 0.44432
 C28 C 0.47720 0.23725 0.47221
 C29 C 0.47704 0.23728 0.52900
 C30 C 0.49991 0.23728 0.55739
 H31 H 0.49982 0.23744 0.60109
 H32 H 0.50028 0.23736 0.40061
 C33 C 0.73693 -0.02330 0.02957
 C34 C 0.73697 -0.02323 -0.02731
 C35 C 0.73690 -0.00029 -0.05536
 C36 C 0.73694 0.02259 -0.02718
 C37 C 0.73690 0.02253 0.02960
 C38 C 0.73682 -0.00039 0.05773
 H39 H 0.73695 -0.00034 0.10146
 H40 H 0.73710 -0.00023 -0.09907
 C41 C 0.23702 0.47712 0.52854
 C42 C 0.23708 0.47704 0.47175
 C43 C 0.23706 0.49991 0.44343
 C44 C 0.23714 0.52286 0.47139
 C45 C 0.23712 0.52295 0.52818
 C46 C 0.23700 0.50008 0.55650
 H47 H 0.23712 0.50013 0.60020
 H48 H 0.23723 0.49985 0.39973
 C49 C 0.26172 1.02373 0.02847
 C50 C 0.26172 1.02372 -0.02853
 C51 C 0.26179 1.00075 -0.05654
 C52 C 0.26173 0.97785 -0.02833
 C53 C 0.26172 0.97786 0.02843
 C54 C 0.26178 1.00077 0.05656
 H55 H 0.26163 1.00067 0.10029
 H56 H 0.26165 1.00065 -0.10027
 C57 C 0.76423 0.52287 0.52785
 C58 C 0.76420 0.52299 0.47107
 C59 C 0.76431 0.50014 0.44277
 C60 C 0.76431 0.47718 0.47075
 C61 C 0.76432 0.47706 0.52754
 C62 C 0.76435 0.49991 0.55584
 H63 H 0.76420 0.49983 0.59955
 H64 H 0.76413 0.50023 0.39906
 O65 O 0.24439 0.20942 0.25957
 O66 O 0.23894 0.27330 0.31698
 O67 O 0.20967 0.24417 0.25985
 O68 O 0.27367 0.23855 0.31668
 O69 O 0.28965 0.25470 0.24190
 O70 O 0.22566 0.26031 0.18508
 O71 O 0.25492 0.28944 0.24221
 O72 O 0.26037 0.22557 0.18480
 Cu73 Cu 0.24006 0.23973 0.29583
 Cu74 Cu 0.25927 0.25913 0.20595
 C75 C 0.25323 0.20672 0.21243
 C76 C 0.24606 0.29214 0.28933
 C77 C 0.20688 0.25313 0.21281
 C78 C 0.29245 0.24574 0.28893
 O79 O 0.75536 0.79066 0.25915
 O80 O 0.76085 0.72678 0.31666
 O81 O 0.79007 0.75591 0.25955
 O82 O 0.72613 0.76153 0.31628
 O83 O 0.71009 0.74542 0.24152
 O84 O 0.77402 0.73979 0.18479
 O85 O 0.74481 0.71067 0.24191
 O86 O 0.73932 0.77455 0.18440
 Cu87 Cu 0.75972 0.76035 0.29547
 Cu88 Cu 0.74044 0.74098 0.20560
 C89 C 0.74646 0.79338 0.21203
 C90 C 0.75372 0.70795 0.28902
 C91 C 0.79283 0.74694 0.21255
 C92 C 0.70733 0.75438 0.28852
 O93 O 0.79072 0.24447 0.25833
 O94 O 0.72689 0.23922 0.31652
 O95 O 0.75581 0.20989 0.25909
 O96 O 0.76179 0.27381 0.31574
 O97 O 0.74551 0.28986 0.24111
 O98 O 0.73952 0.22594 0.18447
 O99 O 0.71061 0.25527 0.24190
 O100 O 0.77443 0.26052 0.18372
 Cu101 Cu 0.76045 0.24023 0.29495
 Cu102 Cu 0.74088 0.25952 0.20527
 C103 C 0.79335 0.25332 0.21115
 C104 C 0.70798 0.24640 0.28907
 C105 C 0.74671 0.20714 0.21217
 C106 C 0.75460 0.29262 0.28803
 O107 O 0.26008 0.77430 0.18376
 O108 O 0.25468 0.71034 0.24083
 O109 O 0.22545 0.73943 0.18334
 O110 O 0.28930 0.74522 0.24127
 O111 O 0.27300 0.76118 0.31585
 O112 O 0.20915 0.75539 0.25792
 O113 O 0.23838 0.72631 0.31541
 O114 O 0.24378 0.79026 0.25834
 Cu115 Cu 0.25902 0.74071 0.20478
 Cu116 Cu 0.23943 0.75989 0.29440
 C117 C 0.25279 0.79307 0.21137
 C118 C 0.24568 0.70754 0.28781
 C119 C 0.20653 0.74649 0.21080
 C120 C 0.29192 0.75412 0.28839
 O121 O 0.75574 0.20964 0.74111
 O122 O 0.76148 0.27341 0.68317
 O123 O 0.79067 0.24418 0.74029
 O124 O 0.72655 0.23886 0.68393
 O125 O 0.71076 0.25516 0.75868
 O126 O 0.77487 0.26048 0.81504
 O127 O 0.74568 0.28971 0.75792
 O128 O 0.73994 0.22595 0.81585
 Cu129 Cu 0.76020 0.23988 0.70457
 Cu130 Cu 0.74122 0.25947 0.79442
 C131 C 0.74692 0.20704 0.78831
 C132 C 0.75450 0.29232 0.71073
 C133 C 0.79358 0.25318 0.78723
 C134 C 0.70785 0.24616 0.71174
 O135 O 0.28984 0.74540 0.75847
 O136 O 0.22590 0.73947 0.81503
 O137 O 0.25526 0.71051 0.75794
 O138 O 0.26046 0.77436 0.81557
 O139 O 0.24440 0.79049 0.74080
 O140 O 0.23921 0.72664 0.68317
 O141 O 0.20984 0.75560 0.74025
 O142 O 0.27379 0.76153 0.68369
 Cu143 Cu 0.25949 0.74081 0.79430
 Cu144 Cu 0.24019 0.76019 0.70442
 C145 C 0.29260 0.75441 0.71148
 C146 C 0.20709 0.74658 0.78723
 C147 C 0.24640 0.70780 0.71079
 C148 C 0.25325 0.79320 0.78796
 O149 O 0.20908 0.24436 0.74148
 O150 O 0.27302 0.23893 0.68396
 O151 O 0.24387 0.20966 0.74115
 O152 O 0.23823 0.27363 0.68426
 O153 O 0.25440 0.28961 0.75901
 O154 O 0.26004 0.22564 0.81589
 O155 O 0.28919 0.25491 0.75870
 O156 O 0.22525 0.26035 0.81622
 Cu157 Cu 0.23942 0.24004 0.70518
 Cu158 Cu 0.25885 0.25924 0.79499
 C159 C 0.20637 0.25321 0.78862
 C160 C 0.29189 0.24606 0.71157
 C161 C 0.25285 0.20686 0.78818
 C162 C 0.24543 0.29241 0.71197
 O163 O 0.72692 0.76079 0.68360
 O164 O 0.79076 0.75521 0.74167
 O165 O 0.76172 0.72609 0.68396
 O166 O 0.75597 0.78990 0.74128
 O167 O 0.73970 0.77372 0.81575
 O168 O 0.74545 0.70992 0.75843
 O169 O 0.77450 0.73903 0.81613
 O170 O 0.71066 0.74462 0.75806
 Cu171 Cu 0.76048 0.75963 0.70511
 Cu172 Cu 0.74094 0.74018 0.79460
 C173 C 0.70801 0.75361 0.71099
 C174 C 0.79340 0.74623 0.78875
 C175 C 0.75450 0.70724 0.71147
 C176 C 0.74691 0.79257 0.78823
 C177 C 0.25951 0.09120 0.10370
 C178 C 0.28555 0.10325 0.11254
 C179 C 0.28448 0.12670 0.13498
 C180 C 0.25748 0.13580 0.14632
 C181 C 0.24568 0.11510 0.18160
 C182 C 0.24675 0.09165 0.15919
 C183 C 0.24479 0.11042 0.06962
 C184 C 0.24373 0.13386 0.09200
 C185 C 0.26056 0.06610 0.07898
 C186 C 0.26121 0.04593 0.05659
 C187 C 0.25622 0.16107 0.17032
 C188 C 0.25498 0.18189 0.18971
 H189 H 0.30326 0.09418 0.10204
 H190 H 0.30128 0.13772 0.14371
 H191 H 0.23725 0.11856 0.22077
 H192 H 0.23924 0.07502 0.17913
 H193 H 0.23604 0.10603 0.03116
 H194 H 0.23407 0.14953 0.07273
 C195 C 0.76158 0.59166 0.60383
 C196 C 0.77454 0.59356 0.65902
 C197 C 0.77331 0.61707 0.68116
 C198 C 0.75924 0.63632 0.64591
 C199 C 0.73326 0.62446 0.63529
 C200 C 0.73450 0.60098 0.61314
 C201 C 0.77406 0.61219 0.56919
 C202 C 0.77282 0.63567 0.59131
 C203 C 0.76280 0.56652 0.57946
 C204 C 0.76358 0.54630 0.55738
 C205 C 0.75781 0.66162 0.66962
 C206 C 0.75642 0.68244 0.68886
 H207 H 0.78385 0.57785 0.67893
 H208 H 0.78157 0.62150 0.72007
 H209 H 0.71546 0.63371 0.64427
 H210 H 0.71775 0.59011 0.60315
 H211 H 0.78302 0.60860 0.53060
 H212 H 0.78071 0.65221 0.57168
 C213 C 0.73951 0.90906 0.10404
 C214 C 0.75376 0.88986 0.06914
 C215 C 0.75499 0.86637 0.09132
 C216 C 0.74184 0.86437 0.14626
 C217 C 0.71475 0.87359 0.13627
 C218 C 0.71352 0.89710 0.11404
 C219 C 0.75288 0.90845 0.15890
 C220 C 0.75411 0.88494 0.18111
 C221 C 0.73829 0.93421 0.07956
 C222 C 0.73753 0.95444 0.05738
 C223 C 0.74326 0.83906 0.17006
 C224 C 0.74462 0.81821 0.18935
 H225 H 0.76211 0.89431 0.03032
 H226 H 0.76437 0.85071 0.07150
 H227 H 0.69801 0.86262 0.14574
 H228 H 0.69574 0.90626 0.10445
 H229 H 0.76068 0.92500 0.17857
 H230 H 0.76297 0.88136 0.21984
 C231 C 0.23914 0.40822 0.60453
 C232 C 0.21309 0.39619 0.61321
 C233 C 0.21413 0.37266 0.63535
 C234 C 0.24113 0.36349 0.64658
 C235 C 0.25299 0.38403 0.68213
 C236 C 0.25194 0.40756 0.66001
 C237 C 0.25380 0.38910 0.57020
 C238 C 0.25484 0.36559 0.59229
 C239 C 0.23812 0.43340 0.58016
 C240 C 0.23750 0.45365 0.55808
 C241 C 0.24237 0.33814 0.67027
 C242 C 0.24363 0.31728 0.68946
 H243 H 0.19538 0.40533 0.60282
 H244 H 0.19732 0.36164 0.64395
 H245 H 0.26145 0.38042 0.72125
 H246 H 0.25949 0.42411 0.68016
 H247 H 0.26254 0.39362 0.53180
 H248 H 0.26446 0.34997 0.57282
 C249 C 0.90895 0.25952 0.10197
 C250 C 0.89917 0.23253 0.11025
 C251 C 0.87571 0.23146 0.13267
 C252 C 0.86429 0.25749 0.14460
 C253 C 0.86504 0.27161 0.09058
 C254 C 0.88850 0.27268 0.06818
 C255 C 0.90740 0.27192 0.15774
 C256 C 0.88392 0.27085 0.18016
 C257 C 0.93410 0.26058 0.07729
 C258 C 0.95433 0.26124 0.05503
 C259 C 0.83899 0.25625 0.16866
 C260 C 0.81817 0.25503 0.18818
 H261 H 0.90972 0.21572 0.09937
 H262 H 0.86618 0.21374 0.14100
 H263 H 0.84857 0.27997 0.07151
 H264 H 0.89213 0.28196 0.02992
 H265 H 0.92333 0.28075 0.17783
 H266 H 0.87974 0.27878 0.21948
 C267 C 0.40835 0.76150 0.60458
 C268 C 0.40635 0.77470 0.65942
 C269 C 0.38281 0.77349 0.68149
 C270 C 0.36363 0.75919 0.64649
 C271 C 0.37561 0.73323 0.63658
 C272 C 0.39912 0.73445 0.61452
 C273 C 0.38780 0.77373 0.56952
 C274 C 0.36428 0.77251 0.59155
 C275 C 0.43350 0.76269 0.58026
 C276 C 0.45372 0.76343 0.55815
 C277 C 0.33831 0.75778 0.67006
 C278 C 0.31745 0.75637 0.68913
 H279 H 0.42202 0.78415 0.67917
 H280 H 0.37830 0.78191 0.72016
 H281 H 0.36641 0.71545 0.64598
 H282 H 0.41007 0.71771 0.60501
 H283 H 0.39141 0.78253 0.53074
 H284 H 0.34773 0.78025 0.57166
 C285 C 0.09080 0.73938 0.10230
 C286 C 0.09137 0.75259 0.15728
 C287 C 0.11488 0.75383 0.17955
 C288 C 0.13552 0.74174 0.14463
 C289 C 0.13349 0.75502 0.08980
 C290 C 0.10999 0.75378 0.06757
 C291 C 0.10286 0.71343 0.11208
 C292 C 0.12638 0.71467 0.13437
 C293 C 0.06562 0.73815 0.07780
 C294 C 0.04534 0.73738 0.05572
 C295 C 0.16086 0.74318 0.16852
 C296 C 0.18170 0.74458 0.18794
 H297 H 0.07477 0.76027 0.17701
 H298 H 0.11842 0.76259 0.21836
 H299 H 0.14914 0.76450 0.07009
 H300 H 0.10552 0.76222 0.02881
 H301 H 0.09376 0.69565 0.10231
 H302 H 0.13741 0.69795 0.14369
 C303 C 0.59182 0.23975 0.60536
 C304 C 0.60127 0.26676 0.61480
 C305 C 0.62483 0.26787 0.63675
 C306 C 0.63664 0.24185 0.64705
 C307 C 0.63579 0.22839 0.59234
 C308 C 0.61222 0.22727 0.57043
 C309 C 0.59382 0.22669 0.66041
 C310 C 0.61741 0.22780 0.68236
 C311 C 0.56661 0.23865 0.58115
 C312 C 0.54635 0.23796 0.55910
 C313 C 0.66202 0.24314 0.67051
 C314 C 0.68293 0.24441 0.68949
 H315 H 0.59042 0.28355 0.60505
 H316 H 0.63418 0.28561 0.64580
 H317 H 0.65225 0.22047 0.57251
 H318 H 0.60849 0.21839 0.53180
 H319 H 0.57812 0.21741 0.68038
 H320 H 0.62193 0.21946 0.72116
 C321 C 0.73968 0.09151 0.89692
 C322 C 0.71374 0.10380 0.88812
 C323 C 0.71502 0.12728 0.86579
 C324 C 0.74211 0.13616 0.85451
 C325 C 0.75373 0.11543 0.81914
 C326 C 0.75245 0.09195 0.84144
 C327 C 0.75456 0.11054 0.93111
 C328 C 0.75583 0.13400 0.90883
 C329 C 0.73841 0.06637 0.92143
 C330 C 0.73761 0.04612 0.94348
 C331 C 0.74358 0.16144 0.83059
 C332 C 0.74500 0.18225 0.81116
 H333 H 0.69595 0.09487 0.89857
 H334 H 0.69832 0.13846 0.85710
 H335 H 0.76220 0.11888 0.78000
 H336 H 0.75981 0.07529 0.82143
 H337 H 0.76326 0.10600 0.96955
 H338 H 0.76562 0.14956 0.92818
 C339 C 0.23943 0.59175 0.39537
 C340 C 0.22656 0.59359 0.34008
 C341 C 0.22762 0.61712 0.31793
 C342 C 0.24145 0.63648 0.35329
 C343 C 0.26751 0.62484 0.36414
 C344 C 0.26645 0.60133 0.38629
 C345 C 0.22671 0.61215 0.42990
 C346 C 0.22778 0.63566 0.40778
 C347 C 0.23838 0.56658 0.41976
 C348 C 0.23771 0.54633 0.44185
 C349 C 0.24270 0.66182 0.32958
 C350 C 0.24394 0.68268 0.31037
 H351 H 0.21743 0.57781 0.32009
 H352 H 0.21939 0.62151 0.27895
 H353 H 0.28525 0.63425 0.35530
 H354 H 0.28327 0.59060 0.39643
 H355 H 0.21771 0.60845 0.46842
 H356 H 0.21970 0.65211 0.42734
 C357 C 0.25946 0.90888 0.89598
 C358 C 0.28548 0.89672 0.88780
 C359 C 0.28441 0.87322 0.86560
 C360 C 0.25742 0.86418 0.85382
 C361 C 0.24582 0.88483 0.81807
 C362 C 0.24690 0.90834 0.84024
 C363 C 0.24455 0.88980 0.92998
 C364 C 0.24348 0.86631 0.90784
 C365 C 0.26052 0.93406 0.92037
 C366 C 0.26118 0.95432 0.94234
 C367 C 0.25617 0.83886 0.83003
 C368 C 0.25495 0.81803 0.81071
 H369 H 0.30319 0.90575 0.89856
 H370 H 0.30120 0.86212 0.85734
 H371 H 0.23751 0.88130 0.77878
 H372 H 0.23952 0.92494 0.81997
 H373 H 0.23568 0.89432 0.96822
 H374 H 0.23370 0.85072 0.92710
 C375 C 0.76176 0.40835 0.39494
 C376 C 0.78774 0.39622 0.38586
 C377 C 0.78651 0.37270 0.36381
 C378 C 0.75942 0.36364 0.35308
 C379 C 0.74752 0.38424 0.31766
 C380 C 0.74875 0.40776 0.33969
 C381 C 0.74715 0.38929 0.42958
 C382 C 0.74593 0.36579 0.40759
 C383 C 0.76297 0.43351 0.41922
 C384 C 0.76372 0.45374 0.44125
 C385 C 0.75799 0.33832 0.32951
 C386 C 0.75657 0.31746 0.31042
 H387 H 0.80551 0.40528 0.39591
 H388 H 0.80324 0.36160 0.35496
 H389 H 0.73890 0.38066 0.27870
 H390 H 0.74120 0.42434 0.31962
 H391 H 0.73858 0.39384 0.46811
 H392 H 0.73632 0.35021 0.42727
 C393 C 0.09056 0.25957 0.89674
 C394 C 0.10256 0.28559 0.88749
 C395 C 0.12608 0.28450 0.86527
 C396 C 0.13530 0.25749 0.85452
 C397 C 0.11468 0.24549 0.81931
 C398 C 0.09116 0.24659 0.84150
 C399 C 0.10979 0.24507 0.93126
 C400 C 0.13329 0.24398 0.90909
 C401 C 0.06536 0.26064 0.92118
 C402 C 0.04508 0.26131 0.94321
 C403 C 0.16065 0.25622 0.83069
 C404 C 0.18151 0.25496 0.81136
 H405 H 0.09341 0.30330 0.89757
 H406 H 0.13707 0.30128 0.85631
 H407 H 0.11825 0.23691 0.78034
 H408 H 0.07459 0.23894 0.82157
 H409 H 0.10535 0.23647 0.96985
 H410 H 0.14897 0.23446 0.92869
 C411 C 0.59154 0.76140 0.39526
 C412 C 0.61205 0.77378 0.43013
 C413 C 0.63558 0.77255 0.40816
 C414 C 0.63628 0.75907 0.35346
 C415 C 0.61708 0.77321 0.31819
 C416 C 0.59353 0.77443 0.34019
 C417 C 0.60084 0.73433 0.38581
 C418 C 0.62437 0.73311 0.36381
 C419 C 0.56638 0.76260 0.41952
 C420 C 0.54616 0.76337 0.44160
 C421 C 0.66161 0.75765 0.32994
 C422 C 0.68248 0.75627 0.31089
 H423 H 0.60841 0.78268 0.46876
 H424 H 0.65210 0.78039 0.42795
 H425 H 0.62158 0.78152 0.27937
 H426 H 0.57784 0.78379 0.32026
 H427 H 0.58993 0.71760 0.39561
 H428 H 0.63362 0.71532 0.35474
 C429 C 0.90911 0.73935 0.89744
 C430 C 0.90717 0.72617 0.84256
 C431 C 0.88365 0.72737 0.82026
 C432 C 0.86439 0.74164 0.85505
 C433 C 0.87635 0.76761 0.86512
 C434 C 0.89984 0.76640 0.88743
 C435 C 0.88850 0.72711 0.93226
 C436 C 0.86500 0.72832 0.90999
 C437 C 0.93429 0.73816 0.92198
 C438 C 0.95456 0.73740 0.94408
 C439 C 0.83907 0.74303 0.83112
 C440 C 0.81823 0.74438 0.81166
 H441 H 0.92286 0.71673 0.82295
 H442 H 0.87920 0.71895 0.78152
 H443 H 0.86715 0.78538 0.85566
 H444 H 0.91077 0.78315 0.89707
 H445 H 0.89205 0.71831 0.97107
 H446 H 0.84843 0.72056 0.92972
 C447 C 0.40833 0.23940 0.39613
 C448 C 0.38796 0.22660 0.43066
 C449 C 0.36442 0.22766 0.40860
 C450 C 0.36356 0.24140 0.35416
 C451 C 0.38294 0.22767 0.31871
 C452 C 0.40650 0.22662 0.34080
 C453 C 0.39870 0.26640 0.38715
 C454 C 0.37516 0.26745 0.36506
 C455 C 0.43351 0.23837 0.42047
 C456 C 0.45376 0.23774 0.44258
 C457 C 0.33821 0.24265 0.33053
 C458 C 0.31733 0.24393 0.31140
 H459 H 0.39169 0.21756 0.46915
 H460 H 0.34798 0.21954 0.42817
 H461 H 0.37853 0.21950 0.27971
 H462 H 0.42229 0.21755 0.32076
 H463 H 0.40941 0.28321 0.39732
 H464 H 0.36571 0.28517 0.35630
 C465 C 0.73969 0.90806 0.89627
 C466 C 0.76679 0.89843 0.88860
 C467 C 0.76806 0.87498 0.86633
 C468 C 0.74210 0.86345 0.85396
 C469 C 0.72876 0.88293 0.81800
 C470 C 0.72749 0.90641 0.84027
 C471 C 0.72651 0.88762 0.92992
 C472 C 0.72778 0.86416 0.90768
 C473 C 0.73844 0.93316 0.92078
 C474 C 0.73764 0.95335 0.94298
 C475 C 0.74356 0.83818 0.83014
 C476 C 0.74498 0.81737 0.81086
 H477 H 0.78351 0.90908 0.89975
 H478 H 0.78587 0.86554 0.85840
 H479 H 0.72099 0.87866 0.77855
 H480 H 0.71865 0.92226 0.81992
 H481 H 0.71706 0.89124 0.96797
 H482 H 0.71943 0.84769 0.92666
 C483 C 0.23948 0.40796 0.39654
 C484 C 0.26653 0.39836 0.38795
 C485 C 0.26767 0.37484 0.36596
 C486 C 0.24164 0.36320 0.35475
 C487 C 0.22795 0.38255 0.31906
 C488 C 0.22682 0.40610 0.34105
 C489 C 0.22664 0.38759 0.43098
 C490 C 0.22778 0.36405 0.40902
 C491 C 0.23837 0.43318 0.42073
 C492 C 0.23766 0.45347 0.44257
 C493 C 0.24296 0.33784 0.33115
 C494 C 0.24426 0.31698 0.31196
 H495 H 0.28332 0.40909 0.39831
 H496 H 0.28543 0.36542 0.35748
 H497 H 0.21986 0.37815 0.27997
 H498 H 0.21776 0.42186 0.32082
 H499 H 0.21750 0.39130 0.46932
 H500 H 0.21962 0.34762 0.42854
 C501 C 0.25942 0.09119 0.89623
 C502 C 0.23238 0.10073 0.88712
 C503 C 0.23126 0.12420 0.86480
 C504 C 0.25730 0.13584 0.85380
 C505 C 0.27110 0.11644 0.81856
 C506 C 0.27221 0.09294 0.84089
 C507 C 0.27216 0.11166 0.93056
 C508 C 0.27104 0.13513 0.90827
 C509 C 0.26051 0.06607 0.92086
 C510 C 0.26118 0.04590 0.94327
 C511 C 0.25599 0.16115 0.82995
 C512 C 0.25469 0.18200 0.81069
 H513 H 0.21558 0.09000 0.89738
 H514 H 0.21351 0.13358 0.85592
 H515 H 0.27927 0.12077 0.77953
 H516 H 0.28133 0.07714 0.82101
 H517 H 0.28122 0.10803 0.96908
 H518 H 0.27913 0.15162 0.92768
 C519 C 0.76122 0.59209 0.39594
 C520 C 0.74836 0.59269 0.34053
 C521 C 0.74700 0.61625 0.31861
 C522 C 0.75863 0.63688 0.35427
 C523 C 0.78576 0.62801 0.36530
 C524 C 0.78712 0.60445 0.38724
 C525 C 0.74636 0.61097 0.43050
 C526 C 0.74501 0.63451 0.40860
 C527 C 0.76258 0.56687 0.42007
 C528 C 0.76345 0.54656 0.44189
 C529 C 0.75708 0.66224 0.33075
 C530 C 0.75564 0.68311 0.31161
 H531 H 0.74098 0.57609 0.32028
 H532 H 0.73845 0.61983 0.27956
 H533 H 0.80242 0.63925 0.35673
 H534 H 0.80494 0.59552 0.39748
 H535 H 0.73773 0.60628 0.46890
 H536 H 0.73522 0.64998 0.42824
 C537 C 0.09143 0.73934 0.89457
 C538 C 0.10097 0.76642 0.88631
 C539 C 0.12445 0.76767 0.86411
 C540 C 0.13609 0.74172 0.85240
 C541 C 0.11668 0.72816 0.81667
 C542 C 0.09317 0.72691 0.83888
 C543 C 0.11190 0.72638 0.92863
 C544 C 0.13539 0.72764 0.90646
 C545 C 0.06632 0.73811 0.91905
 C546 C 0.04615 0.73735 0.94133
 C547 C 0.16139 0.74318 0.82871
 C548 C 0.18224 0.74461 0.80959
 H549 H 0.09024 0.78313 0.89702
 H550 H 0.13385 0.78546 0.85579
 H551 H 0.12102 0.72024 0.77742
 H552 H 0.07735 0.71793 0.81868
 H553 H 0.10827 0.71710 0.96687
 H554 H 0.15189 0.71944 0.92569
 C555 C 0.59221 0.23985 0.39736
 C556 C 0.61128 0.25474 0.43146
 C557 C 0.63479 0.25589 0.40932
 C558 C 0.63696 0.24204 0.35522
 C559 C 0.61626 0.25362 0.31954
 C560 C 0.59274 0.25247 0.34170
 C561 C 0.60445 0.21388 0.38903
 C562 C 0.62797 0.21503 0.36684
 C563 C 0.56699 0.23870 0.42172
 C564 C 0.54668 0.23797 0.44358
 C565 C 0.66231 0.24337 0.33140
 C566 C 0.68315 0.24465 0.31199
 H567 H 0.60674 0.26355 0.46974
 H568 H 0.65037 0.26567 0.42865
 H569 H 0.61978 0.26198 0.28030
 H570 H 0.57611 0.25983 0.32146
 H571 H 0.59545 0.19615 0.39968
 H572 H 0.63912 0.19829 0.35849
 C573 C 0.90940 0.25955 0.89464
 C574 C 0.90878 0.24640 0.83960
 C575 C 0.88526 0.24530 0.81735
 C576 C 0.86470 0.25747 0.85236
 C577 C 0.87397 0.28448 0.86273
 C578 C 0.89748 0.28558 0.88500
 C579 C 0.89015 0.24521 0.92933
 C580 C 0.86666 0.24412 0.90711
 C581 C 0.93452 0.26063 0.91924
 C582 C 0.95468 0.26129 0.94174
 C583 C 0.83937 0.25618 0.82863
 C584 C 0.81849 0.25492 0.80953
 H585 H 0.92534 0.23866 0.81984
 H586 H 0.88167 0.23661 0.77850
 H587 H 0.86302 0.30126 0.85348
 H588 H 0.90669 0.30330 0.89484
 H589 H 0.89458 0.23671 0.96804
 H590 H 0.85096 0.23470 0.92679
 C591 C 0.40773 0.76137 0.39646
 C592 C 0.40723 0.74884 0.34075
 C593 C 0.38369 0.74757 0.31861
 C594 C 0.36296 0.75895 0.35436
 C595 C 0.37177 0.78600 0.36609
 C596 C 0.39531 0.78727 0.38825
 C597 C 0.38879 0.74629 0.43052
 C598 C 0.36527 0.74502 0.40841
 C599 C 0.43295 0.76263 0.42079
 C600 C 0.45328 0.76342 0.44264
 C601 C 0.33761 0.75748 0.33059
 C602 C 0.31676 0.75606 0.31122
 H603 H 0.42388 0.74162 0.32046
 H604 H 0.38019 0.73925 0.27934
 H605 H 0.36050 0.80268 0.35782
 H606 H 0.40420 0.80504 0.39898
 H607 H 0.39344 0.73745 0.46877
 H608 H 0.34978 0.73511 0.42771
 C609 C 0.25932 0.90890 0.10411
 C610 C 0.27179 0.88845 0.06929
 C611 C 0.27066 0.86493 0.09133
 C612 C 0.25718 0.86414 0.14605
 C613 C 0.23115 0.87595 0.13567
 C614 C 0.23228 0.89947 0.11361
 C615 C 0.27238 0.90693 0.15918
 C616 C 0.27125 0.88339 0.18125
 C617 C 0.26043 0.93409 0.07981
 C618 C 0.26113 0.95436 0.05783
 C619 C 0.25587 0.83880 0.16968
 C620 C 0.25458 0.81793 0.18885
 H621 H 0.28068 0.89213 0.03065
 H622 H 0.27857 0.84845 0.07158
 H623 H 0.21339 0.86664 0.14477
 H624 H 0.21549 0.91031 0.10379
 H625 H 0.28168 0.92263 0.17908
 H626 H 0.27960 0.87891 0.22007
 C627 C 0.76168 0.40801 0.60292
 C628 C 0.73458 0.39853 0.61140
 C629 C 0.73332 0.37502 0.63350
 C630 C 0.75929 0.36328 0.64490
 C631 C 0.77302 0.38258 0.68058
 C632 C 0.77427 0.40612 0.65848
 C633 C 0.77448 0.38758 0.56864
 C634 C 0.77323 0.36406 0.59071
 C635 C 0.76291 0.43321 0.57863
 C636 C 0.76369 0.45350 0.55674
 C637 C 0.75784 0.33795 0.66861
 C638 C 0.75643 0.31712 0.68793
 H639 H 0.71784 0.40931 0.60090
 H640 H 0.71551 0.36566 0.64193
 H641 H 0.78105 0.37816 0.71972
 H642 H 0.78337 0.42185 0.67868
 H643 H 0.78368 0.39126 0.53032
 H644 H 0.78133 0.34759 0.57130
 C645 C 0.73949 0.09141 0.10524
 C646 C 0.76659 0.10067 0.11489
 C647 C 0.76783 0.12417 0.13693
 C648 C 0.74186 0.13612 0.14711
 C649 C 0.72765 0.11694 0.18225
 C650 C 0.72641 0.09341 0.16022
 C651 C 0.72716 0.11193 0.07030
 C652 C 0.72841 0.13544 0.09230
 C653 C 0.73827 0.06625 0.08097
 C654 C 0.73751 0.04601 0.05899
 C655 C 0.74331 0.16144 0.17068
 C656 C 0.74474 0.18229 0.18978
 H657 H 0.78332 0.08975 0.10521
 H658 H 0.78564 0.13338 0.14614
 H659 H 0.71931 0.12145 0.22101
 H660 H 0.71701 0.07776 0.18007
 H661 H 0.71828 0.10832 0.03161
 H662 H 0.72061 0.15197 0.07248
 C663 C 0.23969 0.59201 0.60343
 C664 C 0.25266 0.59264 0.65874
 C665 C 0.25385 0.61618 0.68074
 C666 C 0.24196 0.63676 0.64528
 C667 C 0.21489 0.62767 0.63445
 C668 C 0.21370 0.60414 0.61242
 C669 C 0.25431 0.61108 0.56883
 C670 C 0.25550 0.63460 0.59081
 C671 C 0.23850 0.56681 0.57922
 C672 C 0.23775 0.54651 0.55737
 C673 C 0.24333 0.66211 0.66890
 C674 C 0.24463 0.68296 0.68812
 H675 H 0.26022 0.57608 0.67885
 H676 H 0.26244 0.61977 0.71973
 H677 H 0.19815 0.63875 0.64322
 H678 H 0.19594 0.59506 0.60231
 H679 H 0.26291 0.60653 0.53033
 H680 H 0.26511 0.65019 0.57114
 C681 C 0.90847 0.73959 0.10521
 C682 C 0.89605 0.71370 0.11348
 C683 C 0.87256 0.71500 0.13569
 C684 C 0.86381 0.74208 0.14736
 C685 C 0.86605 0.75598 0.09330
 C686 C 0.88952 0.75467 0.07115
 C687 C 0.90809 0.75214 0.16088
 C688 C 0.88459 0.75346 0.18307
 C689 C 0.93358 0.73829 0.08074
 C690 C 0.95375 0.73747 0.05847
 C691 C 0.83852 0.74358 0.17105
 C692 C 0.81767 0.74501 0.19018
 H693 H 0.90491 0.69592 0.10279
 H694 H 0.86128 0.69834 0.14404
 H695 H 0.85054 0.76591 0.07402
 H696 H 0.89413 0.76349 0.03287
 H697 H 0.92479 0.75935 0.18111
 H698 H 0.88114 0.76179 0.22233
 C699 C 0.40783 0.23961 0.60411
 C700 C 0.40715 0.25257 0.65937
 C701 C 0.38359 0.25368 0.68138
 C702 C 0.36302 0.24172 0.64598
 C703 C 0.37223 0.21471 0.63525
 C704 C 0.39578 0.21360 0.61321
 C705 C 0.38868 0.25415 0.56946
 C706 C 0.36514 0.25525 0.59145
 C707 C 0.43308 0.23852 0.57990
 C708 C 0.45342 0.23784 0.55810
 C709 C 0.33764 0.24301 0.66963
 C710 C 0.31676 0.24428 0.68887
 H711 H 0.42370 0.26019 0.67945
 H712 H 0.37997 0.26225 0.72033
 H713 H 0.36120 0.19793 0.64408
 H714 H 0.40493 0.19588 0.60317
 H715 H 0.39320 0.26276 0.53093
 H716 H 0.34951 0.26480 0.57175
 C717 C 0.09121 0.25958 0.10464
 C718 C 0.09290 0.27230 0.16005
 C719 C 0.11640 0.27121 0.18243
 C720 C 0.13587 0.25751 0.14715
 C721 C 0.13516 0.27131 0.09276
 C722 C 0.11168 0.27240 0.07041
 C723 C 0.10080 0.23257 0.11361
 C724 C 0.12428 0.23148 0.13598
 C725 C 0.06610 0.26064 0.07998
 C726 C 0.04592 0.26130 0.05761
 C727 C 0.16116 0.25623 0.17104
 C728 C 0.18201 0.25494 0.19031
 H729 H 0.07705 0.28136 0.17994
 H730 H 0.12070 0.27935 0.22151
 H731 H 0.15165 0.27945 0.07343
 H732 H 0.10805 0.28149 0.03193
 H733 H 0.09011 0.21577 0.10323
 H734 H 0.13370 0.21375 0.14479
 C735 C 0.59217 0.76102 0.60316
 C736 C 0.60456 0.78691 0.61172
 C737 C 0.62810 0.78558 0.63381
 C738 C 0.63696 0.75849 0.64512
 C739 C 0.63463 0.74478 0.59088
 C740 C 0.61110 0.74610 0.56884
 C741 C 0.59271 0.74827 0.65869
 C742 C 0.61625 0.74694 0.68075
 C743 C 0.56693 0.76236 0.57890
 C744 C 0.54660 0.76322 0.55709
 C745 C 0.66232 0.75696 0.66883
 C746 C 0.68318 0.75553 0.68816
 H747 H 0.59564 0.80471 0.60128
 H748 H 0.63936 0.80224 0.64230
 H749 H 0.65013 0.73495 0.57140
 H750 H 0.60645 0.73741 0.53048
 H751 H 0.57607 0.74095 0.67891
 H752 H 0.61978 0.73847 0.71989
   
