data_POSCAR
  _audit_creation_date              2014-09-24
  _audit_creation_method            'ToBaCCo'
  _symmetry_space_group_name_H-M    'P1'
  _symmetry_Int_Tables_number       1
  _symmetry_cell_setting            triclinic
  loop_
  _symmetry_equiv_pos_as_xyz
 x,y,z
_cell_length_a 20.5533
_cell_length_b 20.2473
_cell_length_c 29.8926
_cell_angle_alpha 90.000000
_cell_angle_beta 89.797700
_cell_angle_gamma 90.000000
loop_
  _atom_site_label
  _atom_site_type_symbol
  _atom_site_fract_x
  _atom_site_fract_y
  _atom_site_fract_z
O1 O 0.12353 0.07916 0.02883
 O2 O -0.12396 -0.07472 0.02924
 O3 O -0.07537 0.12754 0.03035
 O4 O 0.07495 -0.12310 0.03002
 O5 O -0.11131 0.03601 0.05431
 O6 O 0.11099 -0.03166 0.05404
 O7 O -0.03430 -0.11050 0.05395
 O8 O 0.03385 0.11497 0.05387
 C9 C 0.09259 0.10693 0.05951
 C10 C -0.09308 -0.10259 0.05977
 C11 C -0.10384 0.09576 0.06059
 C12 C 0.10294 -0.09129 0.06020
 O13 O 0.12370 -0.07472 -0.03212
 O14 O -0.12379 0.07915 -0.03171
 O15 O 0.07511 0.12754 -0.03322
 O16 O -0.07520 -0.12310 -0.03289
 O17 O -0.11125 -0.03166 -0.05691
 O18 O 0.11105 0.03601 -0.05719
 O19 O 0.03404 -0.11050 -0.05683
 O20 O -0.03411 0.11497 -0.05674
 Co21 Co 0.10604 0.00220 -0.00158
 Co22 Co -0.10629 0.00220 -0.00129
 Co23 Co -0.00013 0.10985 -0.00144
 Co24 Co -0.00013 -0.10542 -0.00144
 O25 O -0.00013 0.00219 -0.00144
 C26 C 0.09282 -0.10259 -0.06264
 C27 C -0.09285 0.10693 -0.06239
 C28 C 0.10358 0.09576 -0.06346
 C29 C -0.10319 -0.09129 -0.06308
 O30 O 0.46559 0.38635 0.44334
 O31 O 0.53407 0.61178 0.44318
 O32 O 0.38868 0.53290 0.44311
 O33 O 0.61117 0.46552 0.44268
 O34 O 0.42486 0.62436 0.46702
 O35 O 0.57490 0.37393 0.46657
 O36 O 0.62374 0.57623 0.46795
 O37 O 0.37601 0.42212 0.46854
 C38 C 0.40682 0.39433 0.43782
 C39 C 0.59287 0.60405 0.43740
 C40 C 0.39683 0.59250 0.43688
 C41 C 0.60310 0.40592 0.43640
 O42 O 0.53415 0.38635 0.55378
 O43 O 0.46567 0.61178 0.55395
 O44 O 0.38857 0.46552 0.55444
 O45 O 0.61106 0.53289 0.55401
 O46 O 0.57488 0.62436 0.53010
 O47 O 0.42484 0.37393 0.53055
 O48 O 0.62373 0.42212 0.52858
 O49 O 0.37600 0.57623 0.52918
 Co50 Co 0.49987 0.39149 0.49856
 Co51 Co 0.49987 0.60672 0.49856
 Co52 Co 0.39363 0.49920 0.49878
 Co53 Co 0.60611 0.49920 0.49834
 O54 O 0.49987 0.49914 0.49856
 C55 C 0.59292 0.39433 0.55931
 C56 C 0.40687 0.60405 0.55972
 C57 C 0.39664 0.40592 0.56072
 C58 C 0.60292 0.59250 0.56025
 C59 C 0.18720 0.19102 0.17423
 C60 C 0.22324 0.15515 0.14233
 C61 C 0.19254 0.12733 0.10516
 C62 C 0.12525 0.13486 0.09914
 C63 C 0.08909 0.16991 0.13128
 C64 C 0.11970 0.19771 0.16837
 C65 C 0.21970 0.22182 0.21317
 N66 N 0.18492 0.25686 0.24376
 N67 N 0.21412 0.28495 0.27861
 C68 C 0.27938 0.27925 0.28434
 N69 N 0.31416 0.24420 0.25376
 N70 N 0.28497 0.21612 0.21891
 C71 C 0.31193 0.31007 0.32326
 C72 C 0.37944 0.30343 0.32905
 C73 C 0.41013 0.33128 0.36608
 C74 C 0.37403 0.36633 0.39826
 C75 C 0.30672 0.37379 0.39233
 C76 C 0.27594 0.34592 0.35520
 H77 H 0.27526 0.14881 0.14590
 H78 H 0.22152 0.10021 0.08104
 H79 H 0.03704 0.17628 0.12764
 H80 H 0.09038 0.22477 0.19230
 H81 H 0.40873 0.27639 0.30509
 H82 H 0.46220 0.32496 0.36965
 H83 H 0.27779 0.40091 0.41648
 H84 H 0.22390 0.35221 0.35170
 C85 C 0.81221 0.81183 0.17436
 C86 C 0.87980 0.80579 0.16839
 C87 C 0.91044 0.83414 0.13137
 C88 C 0.87420 0.86911 0.09940
 C89 C 0.80682 0.87606 0.10555
 C90 C 0.77610 0.84767 0.14266
 C91 C 0.77972 0.78031 0.21318
 N92 N 0.71436 0.78530 0.21903
 N93 N 0.68519 0.75651 0.25377
 C94 C 0.72009 0.72143 0.28410
 N95 N 0.78545 0.71645 0.27825
 N96 N 0.81461 0.74524 0.24351
 C97 C 0.68759 0.68988 0.32291
 C98 C 0.72372 0.65402 0.35459
 C99 C 0.69299 0.62556 0.39168
 C100 C 0.62560 0.63245 0.39781
 C101 C 0.58936 0.66743 0.36586
 C102 C 0.62000 0.69586 0.32886
 H103 H 0.90919 0.77877 0.19217
 H104 H 0.96256 0.82822 0.12763
 H105 H 0.77780 0.90311 0.08156
 H106 H 0.72399 0.85352 0.14633
 H107 H 0.77583 0.64822 0.35094
 H108 H 0.72202 0.59851 0.41566
 H109 H 0.53723 0.67331 0.36959
 H110 H 0.59061 0.72288 0.30509
 C111 C 0.81254 0.19102 0.82289
 C112 C 0.77650 0.15515 0.85479
 C113 C 0.80720 0.12733 0.89197
 C114 C 0.87449 0.13486 0.89799
 C115 C 0.91065 0.16990 0.86584
 C116 C 0.88004 0.19771 0.82876
 C117 C 0.78004 0.22181 0.78395
 N118 N 0.81482 0.25686 0.75337
 N119 N 0.78562 0.28495 0.71851
 C120 C 0.72036 0.27925 0.71278
 N121 N 0.68558 0.24420 0.74337
 N122 N 0.71477 0.21611 0.77822
 C123 C 0.68781 0.31007 0.67386
 C124 C 0.62030 0.30343 0.66808
 C125 C 0.58961 0.33129 0.63104
 C126 C 0.62571 0.36633 0.59887
 C127 C 0.69303 0.37379 0.60480
 C128 C 0.72380 0.34592 0.64193
 H129 H 0.72448 0.14881 0.85123
 H130 H 0.77822 0.10021 0.91609
 H131 H 0.96271 0.17627 0.86948
 H132 H 0.90936 0.22477 0.80482
 H133 H 0.59101 0.27639 0.69204
 H134 H 0.53754 0.32496 0.62748
 H135 H 0.72195 0.40090 0.58064
 H136 H 0.77584 0.35221 0.64543
 C137 C 0.18753 0.81183 0.82277
 C138 C 0.22365 0.84768 0.85446
 C139 C 0.19293 0.87606 0.89158
 C140 C 0.12554 0.86911 0.89773
 C141 C 0.08931 0.83414 0.86576
 C142 C 0.11994 0.80578 0.82874
 C143 C 0.22003 0.78031 0.78395
 N144 N 0.18513 0.74523 0.75361
 N145 N 0.21430 0.71644 0.71888
 C146 C 0.27965 0.72143 0.71302
 N147 N 0.31455 0.75651 0.74336
 N148 N 0.28538 0.78530 0.77809
 C149 C 0.31215 0.68988 0.67422
 C150 C 0.37974 0.69587 0.66826
 C151 C 0.41038 0.66744 0.63127
 C152 C 0.37415 0.63245 0.59931
 C153 C 0.30675 0.62556 0.60545
 C154 C 0.27603 0.65402 0.64253
 H155 H 0.27575 0.85353 0.85080
 H156 H 0.22195 0.90311 0.91557
 H157 H 0.03718 0.82821 0.86950
 H158 H 0.09056 0.77877 0.80496
 H159 H 0.40913 0.72289 0.69204
 H160 H 0.46252 0.67331 0.62754
 H161 H 0.27772 0.59850 0.58146
 H162 H 0.22391 0.64822 0.64618
 C163 C 0.18672 0.18770 0.82448
 C164 C 0.15164 0.22484 0.85619
 C165 C 0.12322 0.19427 0.89346
 C166 C 0.12926 0.12557 0.90006
 C167 C 0.16353 0.08847 0.86766
 C168 C 0.19184 0.11912 0.83055
 C169 C 0.21845 0.22010 0.78552
 N170 N 0.25311 0.18409 0.75537
 N171 N 0.28210 0.21307 0.72059
 C172 C 0.27777 0.27938 0.71446
 N173 N 0.24308 0.31541 0.74460
 N174 N 0.21410 0.28643 0.77939
 C175 C 0.30969 0.31171 0.67555
 C176 C 0.30414 0.38026 0.66912
 C177 C 0.33294 0.41069 0.63209
 C178 C 0.36796 0.37336 0.60050
 C179 C 0.37441 0.30501 0.60712
 C180 C 0.34555 0.27449 0.64424
 H181 H 0.14645 0.27776 0.85245
 H182 H 0.09695 0.22480 0.91720
 H183 H 0.16920 0.03546 0.87096
 H184 H 0.21817 0.08886 0.80674
 H185 H 0.27714 0.41056 0.69255
 H186 H 0.32731 0.46355 0.62804
 H187 H 0.40140 0.27505 0.58346
 H188 H 0.35106 0.22164 0.64821
 C189 C 0.81082 0.81337 0.82264
 C190 C 0.80464 0.88189 0.82898
 C191 C 0.83313 0.91274 0.86583
 C192 C 0.86842 0.87583 0.89733
 C193 C 0.87547 0.80752 0.89080
 C194 C 0.84696 0.77660 0.85386
 C195 C 0.77922 0.78058 0.78395
 N196 N 0.78449 0.71434 0.77775
 N197 N 0.75574 0.68495 0.74318
 C198 C 0.72039 0.72048 0.71332
 N199 N 0.71512 0.78673 0.71952
 N200 N 0.74387 0.81611 0.75408
 C201 C 0.68881 0.68771 0.67462
 C202 C 0.65261 0.72450 0.64344
 C203 C 0.62412 0.69361 0.60648
 C204 C 0.63126 0.62532 0.59988
 C205 C 0.66660 0.58840 0.63134
 C206 C 0.69507 0.61921 0.66822
 H207 H 0.77742 0.91186 0.80560
 H208 H 0.82704 0.96556 0.86982
 H209 H 0.90270 0.77788 0.91438
 H210 H 0.85295 0.72378 0.84996
 H211 H 0.64655 0.77729 0.64738
 H212 H 0.59685 0.72325 0.58292
 H213 H 0.67276 0.53559 0.62730
 H214 H 0.72234 0.58923 0.69157
 C215 C 0.18892 0.81337 0.17449
 C216 C 0.19510 0.88190 0.16815
 C217 C 0.16661 0.91274 0.13130
 C218 C 0.13132 0.87583 0.09980
 C219 C 0.12427 0.80752 0.10633
 C220 C 0.15278 0.77660 0.14327
 C221 C 0.22052 0.78059 0.21318
 N222 N 0.21525 0.71434 0.21938
 N223 N 0.24400 0.68496 0.25394
 C224 C 0.27935 0.72048 0.28381
 N225 N 0.28463 0.78673 0.27761
 N226 N 0.25588 0.81611 0.24304
 C227 C 0.31093 0.68771 0.32251
 C228 C 0.34713 0.72450 0.35369
 C229 C 0.37562 0.69361 0.39065
 C230 C 0.36848 0.62532 0.39724
 C231 C 0.33314 0.58840 0.36578
 C232 C 0.30468 0.61921 0.32890
 H233 H 0.22233 0.91186 0.19153
 H234 H 0.17270 0.96556 0.12730
 H235 H 0.09704 0.77789 0.08275
 H236 H 0.14679 0.72379 0.14717
 H237 H 0.35319 0.77729 0.34974
 H238 H 0.40289 0.72325 0.41420
 H239 H 0.32698 0.53559 0.36983
 H240 H 0.27740 0.58924 0.30556
 C241 C 0.81302 0.18770 0.17264
 C242 C 0.80790 0.11912 0.16657
 C243 C 0.83621 0.08847 0.12947
 C244 C 0.87048 0.12557 0.09706
 C245 C 0.87651 0.19427 0.10367
 C246 C 0.84809 0.22484 0.14093
 C247 C 0.78129 0.22010 0.21161
 N248 N 0.78564 0.28643 0.21774
 N249 N 0.75666 0.31541 0.25252
 C250 C 0.72197 0.27938 0.28267
 N251 N 0.71764 0.21307 0.27653
 N252 N 0.74663 0.18409 0.24176
 C253 C 0.69005 0.31171 0.32157
 C254 C 0.65419 0.27449 0.35289
 C255 C 0.62533 0.30501 0.39001
 C256 C 0.63178 0.37336 0.39663
 C257 C 0.66680 0.41069 0.36504
 C258 C 0.69560 0.38026 0.32801
 H259 H 0.78157 0.08885 0.19038
 H260 H 0.83054 0.03546 0.12617
 H261 H 0.90278 0.22480 0.07992
 H262 H 0.85329 0.27776 0.14468
 H263 H 0.64867 0.22164 0.34892
 H264 H 0.59834 0.27505 0.41366
 H265 H 0.67243 0.46355 0.36909
 H266 H 0.72259 0.41056 0.30457
   
