data_POSCAR
  _audit_creation_date              2014-09-24
  _audit_creation_method            'ToBaCCo'
  _symmetry_space_group_name_H-M    'P1'
  _symmetry_Int_Tables_number       1
  _symmetry_cell_setting            triclinic
  loop_
  _symmetry_equiv_pos_as_xyz
 x,y,z
_cell_length_a 18.2677
_cell_length_b 20.5837
_cell_length_c 19.6309
_cell_angle_alpha 90.376900
_cell_angle_beta 87.032400
_cell_angle_gamma 90.897200
loop_
  _atom_site_label
  _atom_site_type_symbol
  _atom_site_fract_x
  _atom_site_fract_y
  _atom_site_fract_z
N1 N 0.19732 0.23241 0.21942
 N2 N -0.23235 0.77955 0.22190
 N3 N -0.21401 0.23481 -0.23567
 N4 N 0.22374 0.79048 -0.23664
 N5 N 0.23434 1.20006 0.78977
 N6 N 0.80068 0.78556 0.80147
 N7 N 0.22629 0.75990 1.21245
 N8 N 0.77667 1.21455 1.23269
 O9 O 0.58149 0.91757 0.92924
 O10 O 0.39309 0.94960 1.11585
 O11 O 0.63000 0.97957 1.10454
 O12 O 0.34498 0.97292 0.91823
 O13 O 0.52428 0.94000 1.14910
 O14 O 0.45295 0.92765 0.89930
 O15 O 0.39876 0.91458 1.01334
 O16 O 0.66283 0.97530 0.98005
 C17 C 0.64504 0.92445 0.94839
 C18 C 0.38236 0.90487 1.07459
 C19 C 0.59353 0.93968 1.14351
 C20 C 0.38797 0.93568 0.87957
 O21 O 0.48022 1.05256 0.86905
 O22 O 0.53198 1.06133 1.16539
 O23 O 0.61562 1.10154 0.97173
 O24 O 0.33816 1.03090 1.04498
 O25 O 0.40906 1.07732 1.11636
 O26 O 0.61188 1.03827 0.88708
 O27 O 0.40377 1.08112 0.94877
 O28 O 0.59460 1.10821 1.08611
 Co29 Co 0.52936 0.98695 0.90736
 Co30 Co 0.46766 1.00752 1.12455
 Co31 Co 0.61654 1.03818 1.03350
 Co32 Co 0.40696 0.99913 0.98165
 O33 O 0.50749 1.01103 1.01662
 C34 C 0.43033 1.08924 0.89008
 C35 C 0.57471 1.10543 1.14653
 C36 C 0.62502 1.09348 0.91030
 C37 C 0.34862 1.07416 1.08938
 O38 O 0.01991 0.44251 0.13130
 O39 O 0.12500 0.55931 -0.09732
 O40 O 0.05349 0.35847 -0.06542
 O41 O 0.08494 0.59871 0.05236
 O42 O 0.12213 0.43959 -0.10053
 O43 O 0.01670 0.56046 0.13309
 O44 O 0.06077 0.64066 -0.05992
 O45 O 0.07845 0.39545 0.04884
 C46 C 0.07171 0.40752 0.11039
 C47 C 0.11663 0.61922 -0.09167
 C48 C 0.11141 0.37969 -0.09459
 C49 C 0.07315 0.59185 0.11409
 O50 O -0.10808 0.56111 0.06733
 O51 O -0.01443 0.43849 -0.14604
 O52 O -0.04723 0.34028 0.04840
 O53 O -0.07153 0.60524 -0.05378
 O54 O -0.01149 0.56446 -0.14376
 O55 O -0.10607 0.43343 0.06727
 O56 O -0.04298 0.65386 0.05407
 O57 O -0.07780 0.39363 -0.05895
 Co58 Co -0.04041 0.49918 0.09035
 Co59 Co 0.05178 0.50037 -0.11324
 Co60 Co -0.00114 0.40230 -0.00099
 Co61 Co 0.00475 0.59463 0.00271
 O62 O 0.01219 0.49899 -0.01090
 C63 C -0.10165 0.62278 0.07866
 C64 C -0.06704 0.40206 -0.12271
 C65 C -0.09963 0.37257 0.08099
 C66 C -0.06181 0.60068 -0.11758
 O67 O 1.12278 0.07138 0.45559
 O68 O 0.85430 0.05682 0.54708
 O69 O 0.94286 0.00439 0.34376
 O70 O 1.03344 0.02986 0.66994
 O71 O 0.87528 0.05610 0.42008
 O72 O 1.10474 0.05642 0.57737
 O73 O 0.95553 0.08830 0.59342
 O74 O 1.05086 0.05658 0.37482
 C75 C 1.09992 0.08879 0.40056
 C76 C 0.88901 0.09713 0.58253
 C77 C 0.90097 0.05075 0.35998
 C78 C 1.09059 0.06111 0.64210
 O79 O 1.11499 -0.07411 0.55518
 O80 O 0.87044 -0.07283 0.41943
 O81 O 1.07840 -0.05289 0.32959
 O82 O 0.89965 -0.02333 0.63361
 O83 O 0.85469 -0.07256 0.54662
 O84 O 1.13206 -0.06036 0.43045
 O85 O 1.01382 -0.07822 0.61449
 O86 O 0.98095 -0.10816 0.39609
 Co87 Co 1.10683 -0.00249 0.50354
 Co88 Co 0.87387 -0.00796 0.48424
 Co89 Co 1.01766 -0.02460 0.39446
 Co90 Co 0.98889 0.00466 0.59603
 O91 O 0.98949 -0.00717 0.49362
 C92 C 1.07529 -0.10028 0.60056
 C93 C 0.91276 -0.11535 0.39354
 C94 C 1.12910 -0.07696 0.36696
 C95 C 0.86029 -0.06796 0.60978
 N96 N 1.17148 0.19025 0.39296
 N97 N 1.20069 0.22922 0.34487
 C98 C 1.18004 0.20437 0.28497
 C99 C 1.13614 0.15062 0.29723
 N100 N 1.13187 0.14352 0.36526
 H101 H 1.11110 0.11903 0.26043
 N102 N 0.91840 -0.21630 0.32769
 N103 N 0.88018 -0.24572 0.28053
 C104 C 0.81864 -0.21098 0.27473
 C105 C 0.81960 -0.16017 0.32029
 N106 N 0.88259 -0.16517 0.35225
 H107 H 0.78167 -0.12031 0.32551
 N108 N 0.77837 0.15739 0.60538
 N109 N 0.74690 0.19240 0.65515
 C110 C 0.79926 0.20446 0.69937
 C111 C 0.86384 0.17658 0.67566
 N112 N 0.84828 0.14746 0.61654
 H113 H 0.91426 0.17235 0.70185
 N114 N 1.06261 -0.19604 0.67241
 N115 N 1.10096 -0.22546 0.71833
 C116 C 1.16751 -0.19585 0.71696
 C117 C 1.16965 -0.14859 0.66769
 N118 N 1.10329 -0.15054 0.64090
 H119 H 1.21280 -0.11310 0.65606
 N120 N 0.23289 1.13026 1.07641
 N121 N 0.19166 1.17431 1.10910
 C122 C 0.22657 1.19090 1.16572
 C123 C 0.28950 1.15519 1.16759
 N124 N 0.29179 1.11830 1.11067
 H125 H 0.32909 1.15534 1.20677
 N126 N 0.39821 0.85472 0.78865
 N127 N 0.35493 0.81610 0.75366
 C128 C 0.28541 0.83315 0.77095
 C129 C 0.28730 0.88218 0.81905
 N130 N 0.35859 0.89442 0.82839
 H131 H 0.24158 0.90191 0.84934
 N132 N 0.60333 0.86640 1.23913
 N133 N 0.64855 0.82285 1.26214
 C134 C 0.70624 0.82127 1.21671
 C135 C 0.69603 0.86531 1.16550
 N136 N 0.63095 0.89261 1.18168
 H137 H 0.73147 0.87575 1.12087
 N138 N 0.64676 1.20773 0.89195
 N139 N 0.69065 1.24765 0.85583
 C140 C 0.72785 1.21050 0.80981
 C141 C 0.70485 1.14622 0.81808
 N142 N 0.65400 1.14688 0.87030
 H143 H 0.72699 1.10336 0.79286
 N144 N 0.10970 0.38367 0.22413
 N145 N 0.14265 0.33631 0.25540
 C146 C 0.16999 0.29601 0.20621
 C147 C 0.15355 0.32048 0.14371
 N148 N 0.11562 0.37499 0.15723
 H149 H 0.16146 0.29789 0.09401
 N150 N -0.10340 0.37656 -0.23685
 N151 N -0.14126 0.33177 -0.26929
 C152 C -0.17404 0.29352 -0.22093
 C153 C -0.15525 0.31609 -0.15758
 N154 N -0.11111 0.36818 -0.17001
 H155 H -0.16778 0.29430 -0.10822
 N156 N 0.23686 0.64658 -0.14317
 N157 N 0.26754 0.69191 -0.18340
 C158 C 0.21565 0.73671 -0.19102
 C159 C 0.15307 0.71880 -0.15352
 N160 N 0.16863 0.66225 -0.12459
 H161 H 0.10033 0.74222 -0.15058
 N162 N -0.22707 0.63547 0.12591
 N163 N -0.26502 0.67840 0.16342
 C164 C -0.21967 0.72986 0.17172
 C165 C -0.15329 0.71761 0.13871
 N166 N -0.16005 0.65837 0.11101
 H167 H -0.10332 0.74658 0.13930
 N168 N 1.09168 0.17200 0.68245
 N169 N 1.12916 0.21108 0.72202
 C170 C 1.18526 0.17650 0.74449
 C171 C 1.18108 0.11426 0.71661
 N172 N 1.12169 0.11399 0.67872
 H173 H 1.21505 0.07279 0.72516
 N174 N 0.79050 -0.16791 0.63024
 N175 N 0.77365 -0.20920 0.68036
 C176 C 0.79826 -0.18169 0.73738
 C177 C 0.83141 -0.12270 0.72105
 N178 N 0.82519 -0.11590 0.65346
 H179 H 0.86144 -0.09054 0.75380
 N180 N 1.24519 -0.13360 0.34773
 N181 N 1.27329 -0.17925 0.30650
 C182 C 1.21748 -0.20432 0.27140
 C183 C 1.15469 -0.17127 0.29124
 N184 N 1.17436 -0.12762 0.33860
 H185 H 1.10175 -0.17440 0.26890
 N186 N 0.93431 0.14561 0.29215
 N187 N 0.90137 0.19300 0.26076
 C188 C 0.82921 0.17737 0.26129
 C189 C 0.81952 0.11798 0.29442
 N190 N 0.88623 0.09988 0.31180
 H191 H 0.77006 0.08998 0.30610
 N192 N 0.23660 0.34551 -0.12030
 N193 N 0.27154 0.29654 -0.15076
 C194 C 0.21951 0.25503 -0.17264
 C195 C 0.15150 0.27946 -0.15338
 N196 N 0.16494 0.33573 -0.12130
 H197 H 0.09764 0.25895 -0.16118
 N198 N -0.21868 0.35902 0.14161
 N199 N -0.25333 0.31662 0.18282
 C200 C -0.20542 0.26894 0.19466
 C201 C -0.14027 0.28322 0.15826
 N202 N -0.15126 0.33946 0.12603
 H203 H -0.09100 0.25484 0.15240
 N204 N -0.09338 0.64467 -0.22709
 N205 N -0.12867 0.69505 -0.25043
 C206 C -0.16135 0.72483 -0.19568
 C207 C -0.14566 0.69084 -0.13808
 N208 N -0.10312 0.64119 -0.15991
 H209 H -0.15954 0.70311 -0.08533
 N210 N 0.09878 0.63271 0.22753
 N211 N 0.13824 0.67972 0.25506
 C212 C 0.18099 0.70667 0.20408
 C213 C 0.16637 0.67384 0.14421
 N214 N 0.11517 0.62826 0.16122
 H215 H 0.18503 0.68479 0.09240
 N216 N 0.39436 1.11243 0.77682
 N217 N 0.33758 1.13773 0.74774
 C218 C 0.29992 1.17061 0.79726
 C219 C 0.33576 1.16536 0.85733
 N220 N 0.39423 1.12815 0.84248
 H221 H 0.31637 1.18026 0.90804
 N222 N 0.33478 0.79270 1.06442
 N223 N 0.29303 0.75174 1.10206
 C224 C 0.27512 0.78232 1.16176
 C225 C 0.30799 0.84309 1.15937
 N226 N 0.34395 0.84773 1.09832
 H227 H 0.30273 0.88223 1.19630
 N228 N 0.61278 1.13155 1.25996
 N229 N 0.67052 1.16040 1.28596
 C230 C 0.70471 1.19475 1.23499
 C231 C 0.66488 1.18745 1.17771
 N232 N 0.60922 1.14641 1.19469
 H233 H 0.68266 1.20061 1.12604
 N234 N 0.76220 0.86948 0.95607
 N235 N 0.80564 0.83129 0.91770
 C236 C 0.76902 0.81661 0.86155
 C237 C 0.70231 0.84690 0.86628
 N238 N 0.69980 0.87884 0.92626
 H239 H 0.66186 0.84907 0.82798
   
