data_POSCAR
  _audit_creation_date              2014-09-24
  _audit_creation_method            'ToBaCCo'
  _symmetry_space_group_name_H-M    'P1'
  _symmetry_Int_Tables_number       1
  _symmetry_cell_setting            triclinic
  loop_
  _symmetry_equiv_pos_as_xyz
 x,y,z
_cell_length_a 31.5095
_cell_length_b 30.9859
_cell_length_c 30.9898
_cell_angle_alpha 90.635300
_cell_angle_beta 90.103200
_cell_angle_gamma 89.681400
loop_
  _atom_site_label
  _atom_site_type_symbol
  _atom_site_fract_x
  _atom_site_fract_y
  _atom_site_fract_z
C1 C 0.20056 0.14865 0.20967
 C2 C 0.18120 0.13259 0.24687
 C3 C 0.14330 0.15108 0.26317
 C4 C 0.12441 0.18540 0.24024
 C5 C 0.14365 0.20215 0.20325
 C6 C 0.18187 0.18367 0.18794
 C7 C 0.23812 0.12987 0.19358
 C8 C 0.25726 0.14552 0.15579
 C9 C 0.23804 0.18031 0.13428
 C10 C 0.20108 0.19980 0.15043
 C11 C 0.18271 0.23484 0.12916
 C12 C 0.14412 0.25275 0.14343
 C13 C 0.12489 0.23658 0.18077
 H14 H 0.19642 0.10629 0.26384
 H15 H 0.09394 0.19832 0.25038
 H16 H 0.25154 0.10195 0.20954
 H17 H 0.25239 0.19273 0.10517
 H18 H 0.19796 0.24778 0.10078
 H19 H 0.09519 0.25052 0.19194
 C20 C -0.20526 0.84918 0.20158
 C21 C -0.18712 0.86755 0.23869
 C22 C -0.15357 0.84690 0.26061
 C23 C -0.13827 0.80717 0.24397
 C24 C -0.15607 0.78859 0.20656
 C25 C -0.18908 0.81019 0.18474
 C26 C -0.23911 0.86976 0.18091
 C27 C -0.25582 0.85377 0.14164
 C28 C -0.23887 0.81479 0.12466
 C29 C -0.20560 0.79306 0.14589
 C30 C -0.18804 0.75489 0.12856
 C31 C -0.15671 0.73158 0.15129
 C32 C -0.14118 0.74885 0.19049
 H33 H -0.19806 0.89913 0.24937
 H34 H -0.11292 0.79028 0.26054
 H35 H -0.25315 0.89799 0.19629
 H36 H -0.25075 0.80184 0.09436
 H37 H -0.19874 0.74341 0.09727
 H38 H -0.11698 0.73161 0.20836
 C39 C -0.21858 0.15318 -0.20654
 C40 C -0.20162 0.13435 -0.24422
 C41 C -0.16730 0.15368 -0.26510
 C42 C -0.15343 0.19452 -0.25124
 C43 C -0.16897 0.21276 -0.21282
 C44 C -0.20085 0.19143 -0.18960
 C45 C -0.25108 0.13279 -0.18413
 C46 C -0.26439 0.14786 -0.14315
 C47 C -0.24593 0.18596 -0.12619
 C48 C -0.21379 0.20743 -0.14883
 C49 C -0.19239 0.24294 -0.13036
 C50 C -0.15926 0.26311 -0.15287
 C51 C -0.15030 0.24984 -0.19539
 H52 H -0.21298 0.10324 -0.25553
 H53 H -0.12752 0.20987 -0.26808
 H54 H -0.26611 0.10492 -0.19891
 H55 H -0.25503 0.19778 -0.09446
 H56 H -0.20019 0.25368 -0.09791
 H57 H -0.12603 0.26636 -0.21356
 C58 C 0.20405 0.85441 -0.20474
 C59 C 0.18603 0.87239 -0.24186
 C60 C 0.14367 0.86324 -0.25409
 C61 C 0.12186 0.83122 -0.23075
 C62 C 0.14111 0.80984 -0.19628
 C63 C 0.18182 0.82239 -0.18237
 C64 C 0.24358 0.86848 -0.18910
 C65 C 0.26058 0.85122 -0.15098
 C66 C 0.23886 0.81823 -0.12982
 C67 C 0.20016 0.80311 -0.14579
 C68 C 0.17912 0.76953 -0.12526
 C69 C 0.13910 0.75610 -0.13975
 C70 C 0.11993 0.77659 -0.17492
 H71 H 0.20553 0.89325 -0.26125
 H72 H 0.08917 0.82348 -0.23820
 H73 H 0.26041 0.89390 -0.20553
 H74 H 0.25164 0.80511 -0.10018
 H75 H 0.19375 0.75376 -0.09788
 H76 H 0.08869 0.76647 -0.18558
 C77 C 0.15967 1.21348 0.78520
 C78 C 0.13704 1.19147 0.75294
 C79 C 0.14618 1.14799 0.74325
 C80 C 0.17935 1.12702 0.76554
 C81 C 0.20359 1.14941 0.79650
 C82 C 0.19422 1.19312 0.80565
 C83 C 0.14669 1.25460 0.79913
 C84 C 0.16862 1.27647 0.83237
 C85 C 0.20603 1.25788 0.84904
 C86 C 0.21850 1.21609 0.83634
 C87 C 0.25312 1.19584 0.85615
 C88 C 0.26059 1.15131 0.85027
 C89 C 0.23602 1.12850 0.81961
 H90 H 0.11073 1.20742 0.73692
 H91 H 0.18668 1.09349 0.75818
 H92 H 0.11837 1.26904 0.78535
 H93 H 0.22278 1.27375 0.87531
 H94 H 0.27313 1.21443 0.87781
 H95 H 0.24167 1.09434 0.81419
 C96 C 0.84897 0.79821 0.79626
 C97 C 0.86532 0.81611 0.75835
 C98 C 0.84631 0.85284 0.73964
 C99 C 0.81138 0.87219 0.76090
 C100 C 0.79433 0.85414 0.79831
 C101 C 0.81305 0.81690 0.81600
 C102 C 0.86830 0.76211 0.81498
 C103 C 0.85354 0.74538 0.85441
 C104 C 0.81609 0.76289 0.87240
 C105 C 0.79601 0.79857 0.85365
 C106 C 0.75947 0.81664 0.87238
 C107 C 0.74027 0.85325 0.85442
 C108 C 0.75873 0.87272 0.81832
 H109 H 0.89237 0.80073 0.74287
 H110 H 0.79784 0.90196 0.74882
 H111 H 0.89519 0.74712 0.79884
 H112 H 0.80375 0.75039 0.90238
 H113 H 0.74572 0.80215 0.90078
 H114 H 0.74461 0.90179 0.80525
 C115 C 0.15448 0.78891 1.21173
 C116 C 0.13633 0.81024 1.24735
 C117 C 0.15446 0.84818 1.26401
 C118 C 0.19119 0.86467 1.24468
 C119 C 0.21029 0.84302 1.20973
 C120 C 0.19186 0.80502 1.19295
 C121 C 0.13453 0.75302 1.19327
 C122 C 0.15112 0.73301 1.15601
 C123 C 0.18984 0.74743 1.13885
 C124 C 0.20974 0.78420 1.15635
 C125 C 0.24532 0.80240 1.13616
 C126 C 0.26273 0.84114 1.15203
 C127 C 0.24623 0.86006 1.18990
 H128 H 0.10756 0.79785 1.26170
 H129 H 0.20443 0.89480 1.25648
 H130 H 0.10502 0.74150 1.20685
 H131 H 0.20253 0.73222 1.10990
 H132 H 0.25805 0.78784 1.10694
 H133 H 0.26006 0.88965 1.20241
 C134 C 0.85805 1.19850 1.19332
 C135 C 0.87604 1.18180 1.23114
 C136 C 0.85611 1.14825 1.25387
 C137 C 0.81872 1.13019 1.23632
 C138 C 0.80041 1.14658 1.19855
 C139 C 0.81986 1.18116 1.17720
 C140 C 0.87789 1.23196 1.17102
 C141 C 0.86040 1.24772 1.13244
 C142 C 0.82169 1.23129 1.11732
 C143 C 0.80132 1.19809 1.13941
 C144 C 0.76292 1.18125 1.12406
 C145 C 0.74322 1.14699 1.14533
 C146 C 0.76278 1.12906 1.18188
 H147 H 0.90631 1.19422 1.24221
 H148 H 0.80273 1.10438 1.25301
 H149 H 0.90731 1.24545 1.18320
 H150 H 0.80796 1.24384 1.08787
 H151 H 0.74831 1.19468 1.09545
 H152 H 0.74838 1.10165 1.19751
 O153 O 0.43786 1.07682 1.08207
 O154 O 0.39131 1.03731 1.04095
 C155 C 0.39970 1.06496 1.07153
 O156 O 0.55682 1.07512 0.92558
 O157 O 0.60362 1.03476 0.96552
 C158 C 0.59499 1.06316 0.93627
 O159 O 0.43806 1.07765 0.92744
 O160 O 0.39134 1.03812 0.96779
 C161 C 0.40007 1.06717 0.93920
 O162 O 0.55658 1.07658 1.08186
 O163 O 0.60331 1.03730 1.04029
 C164 C 0.59475 1.06551 1.07037
 Zr165 Zr 0.49738 1.05543 1.05754
 O166 O 0.49961 1.12344 1.05154
 O167 O 0.49731 1.06256 1.12530
 Zr168 Zr 0.49719 1.05348 0.94893
 O169 O 0.50074 1.12169 0.94867
 O170 O 0.49257 1.05143 0.88072
 O171 O 0.45897 1.06281 1.00341
 O172 O 0.53426 1.06216 1.00319
 O173 O 0.55864 0.92455 1.08177
 O174 O 0.60437 0.96470 1.04109
 C175 C 0.59655 0.93646 1.07055
 O176 O 0.43843 0.91894 0.93027
 O177 O 0.39128 0.96152 0.96793
 C178 C 0.40021 0.93047 0.94091
 O179 O 0.55636 0.92325 0.92495
 O180 O 0.60334 0.96240 0.96595
 C181 C 0.59455 0.93435 0.93583
 O182 O 0.43875 0.92256 1.08070
 O183 O 0.39188 0.96220 1.04049
 C184 C 0.40039 0.93351 1.06949
 Zr185 Zr 0.49832 0.94598 1.05872
 O186 O 0.50302 0.87773 1.05892
 O187 O 0.49521 0.94765 1.12699
 Zr188 Zr 0.49741 0.94456 0.94971
 O189 O 0.50281 0.87654 0.94833
 O190 O 0.49157 0.94276 0.88178
 Zr191 Zr 0.43406 0.99977 1.00400
 Zr192 Zr 0.56078 0.99970 1.00353
 O193 O 0.53475 0.93730 1.00399
 O194 O 0.45995 0.93674 1.00446
 O195 O 0.53569 1.00092 1.06662
 O196 O 0.46022 0.99888 0.94154
 O197 O 0.46127 1.00066 1.06622
 O198 O 0.53520 0.99879 0.94055
 H199 H 0.55325 1.08755 1.00303
 H200 H 0.44083 0.99831 0.91634
 H201 H 0.55398 0.91189 1.00383
 H202 H 0.44285 1.00047 1.09208
 H203 H 0.51951 1.03953 0.86916
 H204 H 0.50641 0.96832 0.87081
 H205 H 0.48847 0.86595 0.97439
 H206 H 0.47686 0.86592 1.04575
 H207 H 0.52066 0.96302 1.13771
 H208 H 0.49899 1.03316 1.13716
 H209 H 0.47103 1.13365 1.04296
 H210 H 0.47792 1.13292 0.96765
 O211 O 0.08884 0.45034 -0.08150
 O212 O 0.04916 0.39758 -0.05014
 C213 C 0.08044 0.41019 -0.07422
 O214 O 0.07066 0.55836 0.07996
 O215 O 0.03074 0.60591 0.04116
 C216 C 0.05807 0.59738 0.07107
 O217 O 0.08130 0.43768 0.06727
 O218 O 0.04596 0.39155 0.02159
 C219 C 0.07330 0.39929 0.05205
 O220 O 0.07743 0.56939 -0.07513
 O221 O 0.03470 0.61159 -0.03184
 C222 C 0.06468 0.60657 -0.06031
 Zr223 Zr 0.05770 0.50660 -0.05872
 O224 O 0.12419 0.51406 -0.06228
 O225 O 0.05217 0.50969 -0.12656
 Zr226 Zr 0.05444 0.49829 0.05034
 O227 O 0.12109 0.50592 0.05397
 O228 O 0.05112 0.48872 0.11782
 O229 O 0.06693 0.46483 -0.00712
 O230 O 0.06166 0.53983 -0.00058
 O231 O -0.07223 0.56212 -0.08230
 O232 O -0.03702 0.60840 -0.03629
 C233 C -0.06300 0.60052 -0.06798
 O234 O -0.07093 0.42821 0.06149
 O235 O -0.02783 0.38635 0.01849
 C236 C -0.05706 0.39092 0.04764
 O237 O -0.07895 0.54834 0.07367
 O238 O -0.04160 0.60119 0.03915
 C239 C -0.07028 0.58842 0.06621
 O240 O -0.07306 0.44152 -0.08562
 O241 O -0.02846 0.39306 -0.05268
 C242 C -0.05994 0.40256 -0.07823
 Zr243 Zr -0.04844 0.50091 -0.06311
 O244 O -0.11505 0.50258 -0.07103
 O245 O -0.04117 0.50070 -0.13105
 Zr246 Zr -0.05219 0.49190 0.04567
 O247 O -0.11931 0.49058 0.04239
 O248 O -0.05378 0.48304 0.11330
 Zr249 Zr 0.00698 0.43519 -0.01217
 Zr250 Zr -0.00107 0.56347 -0.00077
 O251 O -0.06050 0.53323 -0.00579
 O252 O -0.05627 0.45784 -0.01230
 O253 O 0.00265 0.54316 -0.06578
 O254 O 0.00335 0.45709 0.05233
 O255 O 0.00722 0.46616 -0.07214
 O256 O -0.00167 0.53307 0.05976
 H257 H 0.08574 0.56006 0.00241
 H258 H 0.00403 0.43595 0.07607
 H259 H -0.08666 0.55110 -0.00551
 H260 H 0.00908 0.44768 -0.09840
 H261 H 0.03391 0.51252 0.13033
 H262 H -0.03863 0.50754 0.12692
 H263 H -0.12750 0.46523 0.02460
 H264 H -0.12733 0.49199 -0.04384
 H265 H -0.02845 0.52863 -0.13904
 H266 H 0.08151 0.51214 -0.13766
 H267 H 0.13517 0.51075 -0.03264
 H268 H 0.13413 0.48356 0.03510
 O269 O 1.07379 -0.07396 0.56000
 O270 O 1.03085 -0.03677 0.60748
 C271 C 1.06189 -0.06310 0.59857
 O272 O 1.06753 0.08155 0.44383
 O273 O 1.03244 0.03925 0.39405
 C274 C 1.05810 0.07028 0.40438
 O275 O 1.07024 0.07347 0.56628
 O276 O 1.02808 0.03415 0.61060
 C277 C 1.05808 0.06154 0.60453
 O278 O 1.07319 -0.07488 0.44015
 O279 O 1.03461 -0.03451 0.39226
 C280 C 1.06400 -0.06256 0.40132
 Zr281 Zr 1.04820 -0.05451 0.50041
 O282 O 1.11486 -0.06153 0.50120
 O283 O 1.04209 -0.12253 0.50238
 Zr284 Zr 1.04833 0.05473 0.50355
 O285 O 1.11545 0.05265 0.49993
 O286 O 1.05211 0.12244 0.51139
 O287 O 1.05552 -0.00039 0.54041
 O288 O 1.05718 0.00091 0.46488
 O289 O 0.92046 -0.07579 0.43674
 O290 O 0.96159 -0.03625 0.39069
 C291 C 0.93217 -0.06442 0.39847
 O292 O 0.91635 0.07628 0.56034
 O293 O 0.95542 0.03633 0.60813
 C294 C 0.92676 0.06522 0.59922
 O295 O 0.92386 0.08136 0.43951
 O296 O 0.96174 0.03876 0.39213
 C297 C 0.93522 0.06975 0.40075
 O298 O 0.91473 -0.07366 0.55717
 O299 O 0.95502 -0.03642 0.60668
 C300 C 0.92509 -0.06322 0.59654
 Zr301 Zr 0.94186 -0.05446 0.49782
 O302 O 0.87529 -0.06091 0.49370
 O303 O 0.94762 -0.12254 0.50067
 Zr304 Zr 0.94090 0.05491 0.50014
 O305 O 0.87404 0.05232 0.49331
 O306 O 0.93663 0.12278 0.50660
 Zr307 Zr 0.99298 -0.00045 0.56466
 Zr308 Zr 0.99651 0.00127 0.43609
 O309 O 0.93453 0.00086 0.46140
 O310 O 0.93177 -0.00013 0.53705
 O311 O 0.99606 -0.06231 0.45977
 O312 O 0.99363 0.06236 0.53928
 O313 O 0.99416 -0.06271 0.53706
 O314 O 0.99560 0.06398 0.46376
 H315 H 1.08276 0.00207 0.44642
 H316 H 0.99341 0.08765 0.55913
 H317 H 0.91011 0.00183 0.44132
 H318 H 0.99391 -0.08771 0.55675
 H319 H 1.02955 0.13506 0.49330
 H320 H 0.95983 0.13495 0.48930
 H321 H 0.86242 0.03921 0.51973
 H322 H 0.86326 -0.03164 0.49755
 H323 H 0.95867 -0.13294 0.47252
 H324 H 1.03484 -0.13285 0.47296
 H325 H 1.12652 -0.03243 0.50647
 H326 H 1.12609 0.03862 0.52640
 C327 C 1.09979 0.06871 0.33723
 C328 C 1.12164 0.08823 0.30377
 C329 C 1.12340 0.13350 0.30015
 C330 C 1.10345 0.15923 0.33299
 C331 C 1.07988 0.13904 0.36623
 C332 C 1.07887 0.09343 0.36871
 C333 C 1.05781 0.16540 0.39594
 N334 N 1.06217 0.20884 0.39489
 N335 N 1.08716 0.22765 0.36617
 C336 C 1.10827 0.20442 0.33564
 H337 H 1.09937 0.03377 0.33862
 H338 H 1.13576 0.06731 0.27946
 H339 H 1.03697 0.15198 0.41981
 H340 H 1.12927 0.22157 0.31443
 C341 C 0.93158 -0.10889 0.33160
 C342 C 0.91059 -0.13261 0.29962
 C343 C 0.86591 -0.13291 0.29689
 C344 C 0.84236 -0.11006 0.32924
 C345 C 0.86391 -0.08432 0.36039
 C346 C 0.90890 -0.08449 0.36200
 C347 C 0.83944 -0.05937 0.38944
 N348 N 0.79664 -0.06316 0.38989
 N349 N 0.77663 -0.09024 0.36330
 C350 C 0.79797 -0.11414 0.33348
 H351 H 0.96584 -0.11023 0.33305
 H352 H 0.92982 -0.14943 0.27580
 H353 H 0.85381 -0.03686 0.41176
 H354 H 0.78002 -0.13670 0.31400
 C355 C 0.86048 0.09471 0.63136
 C356 C 0.83750 0.11553 0.66401
 C357 C 0.85755 0.12925 0.70206
 C358 C 0.90152 0.12079 0.70769
 C359 C 0.92533 0.10203 0.67347
 C360 C 0.90436 0.08755 0.63537
 C361 C 0.96963 0.09989 0.67822
 N362 N 0.98818 0.11150 0.71606
 N363 N 0.96539 0.12563 0.74947
 C364 C 0.92274 0.13056 0.74666
 H365 H 0.84378 0.08419 0.60254
 H366 H 0.80389 0.12140 0.65937
 H367 H 0.98976 0.09037 0.65197
 H368 H 0.90595 0.14190 0.77500
 C369 C 1.07473 -0.12224 0.64894
 C370 C 1.09425 -0.13977 0.68501
 C371 C 1.12381 -0.11605 0.71013
 C372 C 1.13338 -0.07299 0.69675
 C373 C 1.11704 -0.05761 0.65704
 C374 C 1.08569 -0.08138 0.63478
 C375 C 1.13201 -0.01819 0.64122
 N376 N 1.15786 0.00661 0.66600
 N377 N 1.16871 -0.00502 0.70574
 C378 C 1.15637 -0.04326 0.72238
 H379 H 1.05125 -0.14105 0.63153
 H380 H 1.08671 -0.17296 0.69202
 H381 H 1.12275 -0.00659 0.60977
 H382 H 1.16405 -0.04944 0.75569
 C383 C 0.32553 1.09162 1.07411
 C384 C 0.29182 1.11303 1.09389
 C385 C 0.29343 1.12515 1.13769
 C386 C 0.33055 1.11479 1.16185
 C387 C 0.36478 1.09240 1.14147
 C388 C 0.36326 1.08331 1.09640
 C389 C 0.39879 1.07870 1.16749
 N390 N 0.40064 1.09066 1.20964
 N391 N 0.37057 1.11512 1.22769
 C392 C 0.33582 1.12782 1.20525
 H393 H 0.32205 1.08162 1.04076
 H394 H 0.26348 1.11887 1.07490
 H395 H 0.42325 1.05753 1.15526
 H396 H 0.31300 1.14834 1.22157
 C397 C 0.33085 0.93295 0.90380
 C398 C 0.29835 0.91429 0.87963
 C399 C 0.29893 0.87010 0.86945
 C400 C 0.33344 0.84432 0.88363
 C401 C 0.36548 0.86286 0.91003
 C402 C 0.36473 0.90791 0.91913
 C403 C 0.39660 0.83519 0.92729
 N404 N 0.39739 0.79282 0.91592
 N405 N 0.36894 0.77609 0.88881
 C406 C 0.33708 0.80036 0.87222
 H407 H 0.32974 0.96740 0.91017
 H408 H 0.27203 0.93444 0.86948
 H409 H 0.41967 0.84646 0.95044
 H410 H 0.31503 0.78510 0.85015
 C411 C 0.63891 0.87129 1.08891
 C412 C 0.67603 0.85130 1.10365
 C413 C 0.70983 0.87558 1.12121
 C414 C 0.70607 0.92152 1.12116
 C415 C 0.66712 0.94120 1.10935
 C416 C 0.63383 0.91612 1.09167
 C417 C 0.66259 0.98583 1.11586
 N418 N 0.69642 1.00997 1.12788
 N419 N 0.73447 0.99223 1.13392
 C420 C 0.74060 0.94900 1.13041
 H421 H 0.61401 0.85155 1.07499
 H422 H 0.67727 0.81637 1.10294
 H423 H 0.63218 1.00131 1.11219
 H424 H 0.77246 0.93661 1.13450
 C425 C 0.63571 1.12860 0.91766
 C426 C 0.67114 1.14914 0.90049
 C427 C 0.70369 1.12543 0.87972
 C428 C 0.70102 1.07945 0.87943
 C429 C 0.66365 1.05917 0.89416
 C430 C 0.63130 1.08377 0.91448
 C431 C 0.65967 1.01455 0.88764
 N432 N 0.69293 0.99095 0.87259
 N433 N 0.72988 1.00926 0.86346
 C434 C 0.73523 1.05255 0.86685
 H435 H 0.61146 1.14792 0.93354
 H436 H 0.67183 1.18407 0.90170
 H437 H 0.63008 0.99863 0.89370
 H438 H 0.76630 1.06541 0.86009
 C439 C 0.10099 0.36351 0.11776
 C440 C 0.11607 0.32777 0.14023
 C441 C 0.12431 0.28854 0.11885
 C442 C 0.11690 0.28538 0.07380
 C443 C 0.10418 0.32246 0.05054
 C444 C 0.09446 0.36164 0.07293
 C445 C 0.10253 0.31905 0.00538
 N446 N 0.10895 0.28047 -0.01466
 N447 N 0.11744 0.24494 0.00751
 C448 C 0.12153 0.24602 0.05103
 H449 H 0.09372 0.39275 0.13583
 H450 H 0.12166 0.33086 0.17463
 H451 H 0.09756 0.34685 -0.01416
 H452 H 0.12815 0.21608 0.06733
 C453 C -0.12817 0.36632 -0.09463
 C454 C -0.15211 0.33223 -0.11143
 C455 C -0.13237 0.29683 -0.13185
 C456 C -0.08729 0.29593 -0.13468
 C457 C -0.06354 0.33225 -0.12083
 C458 C -0.08385 0.36677 -0.09885
 C459 C -0.02019 0.33340 -0.13076
 N460 N -0.00101 0.29846 -0.14903
 N461 N -0.02239 0.26253 -0.15794
 C462 C -0.06474 0.25988 -0.15095
 H463 H -0.14442 0.39263 -0.07816
 H464 H -0.18637 0.33377 -0.10888
 H465 H -0.00165 0.36209 -0.12480
 H466 H -0.08020 0.22961 -0.15813
 C467 C 0.09375 0.64575 -0.12265
 C468 C 0.10999 0.68230 -0.14229
 C469 C 0.11787 0.71989 -0.11821
 C470 C 0.10920 0.72071 -0.07346
 C471 C 0.09456 0.68291 -0.05312
 C472 C 0.08517 0.64552 -0.07823
 C473 C 0.09154 0.68349 -0.00802
 N474 N 0.09909 0.72033 0.01466
 N475 N 0.10980 0.75672 -0.00478
 C476 C 0.11501 0.75823 -0.04810
 H477 H 0.08710 0.61762 -0.14256
 H478 H 0.11689 0.68111 -0.17652
 H479 H 0.08474 0.65471 0.00941
 H480 H 0.12373 0.78866 -0.06222
 C481 C -0.07276 0.65081 0.11612
 C482 C -0.09317 0.68578 0.13562
 C483 C -0.13740 0.69118 0.13260
 C484 C -0.16122 0.65877 0.11052
 C485 C -0.13975 0.62532 0.08733
 C486 C -0.09493 0.62188 0.08982
 C487 C -0.16409 0.59637 0.06247
 N488 N -0.20704 0.59870 0.06353
 N489 N -0.22723 0.62806 0.08766
 C490 C -0.20587 0.65787 0.11141
 H491 H -0.03923 0.64628 0.12169
 H492 H -0.07377 0.70909 0.15272
 H493 H -0.14951 0.57180 0.04237
 H494 H -0.22406 0.67999 0.13132
 C495 C 1.09882 0.12177 0.63699
 C496 C 1.11922 0.14359 0.67042
 C497 C 1.12207 0.12592 0.71172
 C498 C 1.10053 0.08679 0.72021
 C499 C 1.07876 0.06452 0.68627
 C500 C 1.07892 0.08189 0.64337
 C501 C 1.05815 0.02569 0.69728
 N502 N 1.05811 0.01162 0.73850
 N503 N 1.07702 0.03348 0.77012
 C504 C 1.09792 0.07056 0.76249
 H505 H 1.09860 0.13671 0.60555
 H506 H 1.13466 0.17387 0.66333
 H507 H 1.04248 0.00532 0.67444
 H508 H 1.11147 0.08740 0.78987
 C509 C 0.92695 -0.10284 0.66502
 C510 C 0.90808 -0.12464 0.69892
 C511 C 0.86366 -0.12855 0.70189
 C512 C 0.83826 -0.11144 0.66776
 C513 C 0.85766 -0.08794 0.63394
 C514 C 0.90244 -0.08428 0.63237
 C515 C 0.83132 -0.06859 0.60285
 N516 N 0.78893 -0.07565 0.60331
 N517 N 0.77113 -0.10066 0.63274
 C518 C 0.79428 -0.11912 0.66457
 H519 H 0.96126 -0.10051 0.66428
 H520 H 0.92865 -0.13676 0.72413
 H521 H 0.84385 -0.04777 0.57831
 H522 H 0.77808 -0.14029 0.68646
 C523 C 1.06875 -0.09416 0.32759
 C524 C 1.09030 -0.11688 0.29526
 C525 C 1.13330 -0.12804 0.29999
 C526 C 1.15520 -0.11479 0.33786
 C527 C 1.13382 -0.08949 0.36955
 C528 C 1.08954 -0.08137 0.36552
 C529 C 1.15797 -0.07231 0.40384
 N530 N 1.19941 -0.08340 0.40828
 N531 N 1.21849 -0.11014 0.38048
 C532 C 1.19781 -0.12634 0.34556
 H533 H 1.03536 -0.08721 0.32323
 H534 H 1.07314 -0.12605 0.26628
 H535 H 1.14473 -0.04924 0.42641
 H536 H 1.21492 -0.14817 0.32437
 C537 C 0.89600 0.06709 0.33195
 C538 C 0.87566 0.08607 0.29701
 C539 C 0.87435 0.13125 0.29216
 C540 C 0.89295 0.15748 0.32533
 C541 C 0.91498 0.13780 0.36016
 C542 C 0.91574 0.09227 0.36375
 C543 C 0.93579 0.16455 0.39032
 N544 N 0.93163 0.20799 0.38805
 N545 N 0.90801 0.22644 0.35769
 C546 C 0.88819 0.20278 0.32669
 H547 H 0.89622 0.03219 0.33422
 H548 H 0.86241 0.06478 0.27258
 H549 H 0.95546 0.15140 0.41554
 H550 H 0.86820 0.21970 0.30409
 C551 C 0.08739 0.33738 -0.10655
 C552 C 0.10736 0.30646 -0.13210
 C553 C 0.14923 0.31190 -0.14631
 C554 C 0.17106 0.35020 -0.13403
 C555 C 0.15030 0.38200 -0.10788
 C556 C 0.10701 0.37642 -0.09602
 C557 C 0.17439 0.41740 -0.09330
 N558 N 0.21477 0.42262 -0.10723
 N559 N 0.23295 0.39466 -0.13446
 C560 C 0.21247 0.35880 -0.14846
 H561 H 0.05627 0.33028 -0.09429
 H562 H 0.09046 0.27673 -0.13875
 H563 H 0.16227 0.44024 -0.06993
 H564 H 0.22867 0.33756 -0.17098
 C565 C -0.11884 0.35465 0.08011
 C566 C -0.13895 0.32054 0.10035
 C567 C -0.11747 0.28174 0.10792
 C568 C -0.07510 0.27677 0.09342
 C569 C -0.05377 0.31215 0.07440
 C570 C -0.07620 0.35165 0.06713
 C571 C -0.01043 0.30659 0.06475
 N572 N 0.00890 0.26788 0.07046
 N573 N -0.01194 0.23414 0.08568
 C574 C -0.05324 0.23722 0.09727
 H575 H -0.13688 0.38403 0.07498
 H576 H -0.17149 0.32476 0.11091
 H577 H 0.00878 0.33236 0.05355
 H578 H -0.06858 0.20860 0.10914
 C579 C -0.12746 0.64134 -0.08919
 C580 C -0.14775 0.67727 -0.10673
 C581 C -0.12443 0.71138 -0.12475
 C582 C -0.07924 0.70931 -0.12269
 C583 C -0.05903 0.67141 -0.10755
 C584 C -0.08322 0.63789 -0.08933
 C585 C -0.01486 0.66811 -0.11150
 N586 N 0.00809 0.70247 -0.12439
 N587 N -0.01039 0.73989 -0.13381
 C588 C -0.05315 0.74466 -0.13293
 H589 H -0.14650 0.61596 -0.07540
 H590 H -0.18211 0.67735 -0.10763
 H591 H 0.00129 0.63819 -0.10517
 H592 H -0.06613 0.77623 -0.13956
 C593 C 0.12047 0.62728 0.10950
 C594 C 0.14432 0.66029 0.12809
 C595 C 0.12705 0.70155 0.13411
 C596 C 0.08557 0.71047 0.11830
 C597 C 0.06141 0.67715 0.09805
 C598 C 0.07893 0.63441 0.09428
 C599 C 0.02122 0.68881 0.08138
 N600 N 0.00682 0.72997 0.08450
 N601 N 0.02983 0.76101 0.10264
 C602 C 0.06869 0.75282 0.11925
 H603 H 0.13539 0.59586 0.10602
 H604 H 0.17615 0.65304 0.13932
 H605 H 0.00049 0.66650 0.06566
 H606 H 0.08636 0.77991 0.13190
 C607 C 0.35536 1.07969 0.87498
 C608 C 0.32155 1.09960 0.85380
 C609 C 0.29456 1.12885 0.87557
 C610 C 0.30245 1.13776 0.92012
 C611 C 0.33924 1.12055 0.94019
 C612 C 0.36446 1.08970 0.91810
 C613 C 0.35002 1.13547 0.98169
 N614 N 0.32339 1.16256 1.00328
 N615 N 0.28658 1.17510 0.98630
 C616 C 0.27484 1.16300 0.94585
 H617 H 0.37493 1.05664 0.85742
 H618 H 0.31686 1.09238 0.81986
 H619 H 0.37915 1.12552 0.99732
 H620 H 0.24400 1.17313 0.93445
 C621 C 0.36872 0.86780 1.10191
 C622 C 0.33537 0.84489 1.12040
 C623 C 0.29584 0.86455 1.12755
 C624 C 0.28959 0.90791 1.11481
 C625 C 0.32421 0.93211 1.09899
 C626 C 0.36402 0.91149 1.09089
 C627 C 0.31783 0.97662 1.09339
 N628 N 0.27878 0.99447 1.09852
 N629 N 0.24549 0.97085 1.10955
 C630 C 0.24952 0.92821 1.11779
 H631 H 0.39854 0.85116 1.09622
 H632 H 0.34068 0.81173 1.12984
 H633 H 0.34359 0.99766 1.08657
 H634 H 0.22134 0.91062 1.12654
 C635 C 0.66672 1.09624 1.06652
 C636 C 0.70224 1.11610 1.08429
 C637 C 0.70320 1.12852 1.12789
 C638 C 0.66705 1.12104 1.15396
 C639 C 0.63181 1.09834 1.13654
 C640 C 0.63117 1.08703 1.09191
 C641 C 0.59921 1.08656 1.16504
 N642 N 0.59995 1.10037 1.20669
 N643 N 0.63132 1.12471 1.22201
 C644 C 0.66479 1.13562 1.19709
 H645 H 0.66721 1.08772 1.03251
 H646 H 0.72952 1.12132 1.06380
 H647 H 0.57371 1.06567 1.15523
 H648 H 0.68912 1.15574 1.21125
 C649 C 0.66683 0.90296 0.93707
 C650 C 0.70169 0.88296 0.91776
 C651 C 0.70113 0.87171 0.87385
 C652 C 0.66424 0.88033 0.84906
 C653 C 0.62970 0.90306 0.86805
 C654 C 0.63053 0.91325 0.91295
 C655 C 0.59629 0.91604 0.84080
 N656 N 0.59567 0.90333 0.79881
 N657 N 0.62646 0.87894 0.78197
 C658 C 0.66062 0.86691 0.80564
 H659 H 0.66833 0.91062 0.97125
 H660 H 0.72961 0.87666 0.93720
 H661 H 0.57124 0.93705 0.85184
 H662 H 0.68446 0.84685 0.79026
   
