data_POSCAR
  _audit_creation_date              2014-09-24
  _audit_creation_method            'ToBaCCo'
  _symmetry_space_group_name_H-M    'P1'
  _symmetry_Int_Tables_number       1
  _symmetry_cell_setting            triclinic
  loop_
  _symmetry_equiv_pos_as_xyz
 x,y,z
_cell_length_a 17.2902
_cell_length_b 17.2726
_cell_length_c 7.2763
_cell_angle_alpha 89.608700
_cell_angle_beta 90.010700
_cell_angle_gamma 90.195600
loop_
  _atom_site_label
  _atom_site_type_symbol
  _atom_site_fract_x
  _atom_site_fract_y
  _atom_site_fract_z
O1 O 0.20467 0.32622 0.03522
 O2 O 0.34080 0.17340 0.17609
 O3 O 0.20121 0.17852 0.03224
 O4 O 0.34175 0.32593 0.18135
 O5 O 0.29332 0.32317 0.46238
 O6 O 0.15852 0.16991 0.31761
 O7 O 0.29602 0.17552 0.46051
 O8 O 0.15526 0.32331 0.31531
 Cu9 Cu 0.27797 0.25083 0.07882
 Cu10 Cu 0.21971 0.24793 0.41621
 C11 C 0.15601 0.35003 0.15206
 C12 C 0.34268 0.14954 0.34167
 C13 C 0.15574 0.14902 0.15059
 C14 C 0.34149 0.34959 0.34630
 O15 O 0.84219 0.32531 0.31784
 O16 O 0.70158 0.17707 0.46537
 O17 O 0.84103 0.17273 0.32177
 O18 O 0.70496 0.32440 0.46366
 O19 O 0.65557 0.32401 0.18346
 O20 O 0.79643 0.17711 0.03726
 O21 O 0.65867 0.17064 0.18003
 O22 O 0.79356 0.32522 0.03697
 Cu23 Cu 0.77838 0.24953 0.41949
 Cu24 Cu 0.72010 0.24934 0.08206
 C25 C 0.84179 0.35061 0.15348
 C26 C 0.65594 0.14857 0.34694
 C27 C 0.84292 0.15007 0.15604
 C28 C 0.65626 0.34918 0.34725
 O29 O 0.79490 0.82510 0.96679
 O30 O 0.65998 0.67207 0.81913
 O31 O 0.80296 0.68151 0.96723
 O32 O 0.66201 0.82848 0.82097
 O33 O 0.70276 0.82014 0.53395
 O34 O 0.83792 0.66753 0.67764
 O35 O 0.70489 0.67625 0.53498
 O36 O 0.84410 0.82463 0.68657
 Cu37 Cu 0.72252 0.74938 0.91882
 Cu38 Cu 0.78012 0.74927 0.58332
 C39 C 0.84350 0.85014 0.85009
 C40 C 0.65820 0.64914 0.65352
 C41 C 0.84474 0.64936 0.84649
 C42 C 0.65836 0.84944 0.65337
 O43 O 0.15660 0.82473 0.68446
 O44 O 0.29588 0.67682 0.53772
 O45 O 0.15849 0.67131 0.68040
 O46 O 0.29452 0.82461 0.53765
 O47 O 0.34328 0.82450 0.81839
 O48 O 0.20099 0.67748 0.96609
 O49 O 0.34068 0.67184 0.82202
 O50 O 0.20601 0.82497 0.96463
 Cu51 Cu 0.22033 0.74959 0.58281
 Cu52 Cu 0.27865 0.74924 0.92018
 C53 C 0.15755 0.85009 0.84805
 C54 C 0.34229 0.64935 0.65609
 C55 C 0.15535 0.64925 0.84722
 C56 C 0.34308 0.84961 0.65382
 O57 O 1.07749 -0.09037 0.06943
 O58 O 0.92508 0.04419 0.21777
 O59 O 0.92100 -0.08836 0.07377
 O60 O 1.06800 0.05268 0.21749
 O61 O 1.08421 0.08743 -0.07242
 O62 O 0.93105 -0.04782 -0.21401
 O63 O 0.92662 0.09387 -0.06284
 O64 O 1.07431 -0.04505 -0.21515
 Cu65 Cu 1.00041 -0.02807 0.16973
 Cu66 Cu 1.00187 0.03006 -0.16602
 C67 C 1.10074 -0.09198 -0.09630
 C68 C 0.90063 0.09296 0.10070
 C69 C 0.90094 -0.09221 -0.09397
 C70 C 1.10130 0.09434 0.09667
 O71 O 0.42501 0.45522 0.28757
 O72 O 0.57600 0.59240 0.43251
 O73 O 0.57307 0.45462 0.28730
 O74 O 0.42383 0.59264 0.43420
 O75 O 0.42554 0.54391 0.71581
 O76 O 0.57506 0.40619 0.56920
 O77 O 0.57397 0.54399 0.71442
 O78 O 0.42297 0.40642 0.56915
 Cu79 Cu 0.49948 0.52961 0.33296
 Cu80 Cu 0.49939 0.46933 0.66966
 C81 C 0.39888 0.40691 0.40414
 C82 C 0.60024 0.59204 0.59733
 C83 C 0.59895 0.40641 0.40407
 C84 C 0.39969 0.59219 0.59917
 O85 O -0.08073 0.58886 0.06735
 O86 O 0.06819 0.45054 0.21818
 O87 O 0.08211 0.58736 0.06883
 O88 O -0.07009 0.45155 0.21780
 O89 O -0.08139 0.41442 -0.07093
 O90 O 0.06774 0.55337 -0.22095
 O91 O 0.07969 0.41458 -0.07125
 O92 O -0.06994 0.55203 -0.22135
 Cu93 Cu -0.00013 0.52939 0.16506
 Cu94 Cu -0.00076 0.47407 -0.16846
 C95 C -0.10059 0.59477 -0.10064
 C96 C 0.09886 0.40811 0.09695
 C97 C 0.10035 0.59466 -0.09980
 C98 C -0.10091 0.40869 0.09717
 O99 O 0.42671 1.09278 0.56057
 O100 O 0.57484 0.95391 0.71490
 O101 O 0.58427 1.08644 0.57034
 O102 O 0.43140 0.95091 0.71527
 O103 O 0.42067 0.91129 0.42824
 O104 O 0.56793 1.05253 0.28100
 O105 O 0.57733 0.90889 0.43152
 O106 O 0.42496 1.04398 0.28068
 Cu107 Cu 0.50208 1.02888 0.66494
 Cu108 Cu 0.50025 0.97157 0.33039
 C109 C 0.40058 1.09235 0.39716
 C110 C 0.60109 0.90717 0.59692
 C111 C 0.60134 1.09379 0.40117
 C112 C 0.40085 0.90704 0.59623
   
