data_POSCAR
  _audit_creation_date              2014-09-24
  _audit_creation_method            'ToBaCCo'
  _symmetry_space_group_name_H-M    'P1'
  _symmetry_Int_Tables_number       1
  _symmetry_cell_setting            triclinic
  loop_
  _symmetry_equiv_pos_as_xyz
 x,y,z
_cell_length_a 33.4452
_cell_length_b 33.6933
_cell_length_c 33.3920
_cell_angle_alpha 90.001100
_cell_angle_beta 90.092500
_cell_angle_gamma 89.947500
loop_
  _atom_site_label
  _atom_site_type_symbol
  _atom_site_fract_x
  _atom_site_fract_y
  _atom_site_fract_z
C1 C 0.15705 0.18902 0.21180
 C2 C 0.15599 0.21586 0.17971
 C3 C 0.18590 0.21525 0.15113
 C4 C 0.21702 0.18751 0.15403
 C5 C 0.21831 0.16155 0.18595
 C6 C 0.18828 0.16239 0.21512
 C7 C 0.13068 0.18086 0.24230
 N8 N 0.14471 0.14924 0.26356
 C9 C 0.18054 0.13854 0.24757
 C10 C 0.24998 0.13640 0.17977
 N11 N 0.26711 0.14504 0.14380
 C12 C 0.24768 0.17732 0.12861
 C13 C 0.17726 0.24443 0.12364
 N14 N 0.14249 0.26227 0.13448
 C15 C 0.12938 0.24507 0.16883
 H16 H 0.10330 0.19688 0.24853
 H17 H 0.19862 0.11369 0.25740
 H18 H 0.25974 0.11350 0.20032
 H19 H 0.25351 0.19085 0.09980
 H20 H 0.19546 0.25282 0.09823
 H21 H 0.10278 0.25374 0.18507
 C22 C -0.17013 0.79494 0.23236
 C23 C -0.17078 0.76566 0.20259
 C24 C -0.19876 0.76752 0.17209
 C25 C -0.22576 0.79934 0.17036
 C26 C -0.22529 0.82794 0.19993
 C27 C -0.19768 0.82546 0.23140
 C28 C -0.14601 0.80103 0.26518
 N29 N -0.15900 0.83395 0.28490
 C30 C -0.19013 0.84948 0.26376
 C31 C -0.25336 0.85595 0.18994
 N32 N -0.26987 0.84624 0.15391
 C33 C -0.25387 0.81077 0.14249
 C34 C -0.19256 0.73516 0.14779
 N35 N -0.16168 0.71361 0.16296
 C36 C -0.14759 0.73266 0.19594
 H37 H -0.12139 0.78228 0.27454
 H38 H -0.20534 0.87705 0.27060
 H39 H -0.26129 0.88144 0.20801
 H40 H -0.26037 0.79540 0.11476
 H41 H -0.20923 0.72781 0.12099
 H42 H -0.12202 0.72339 0.21355
 C43 C -0.15619 0.19073 -0.21826
 C44 C -0.15452 0.21986 -0.18823
 C45 C -0.18602 0.22406 -0.16163
 C46 C -0.21966 0.19938 -0.16480
 C47 C -0.22121 0.17090 -0.19443
 C48 C -0.18939 0.16665 -0.22128
 C49 C -0.12980 0.17891 -0.24764
 N50 N -0.14589 0.14761 -0.26798
 C51 C -0.18296 0.14100 -0.25247
 C52 C -0.25616 0.15012 -0.18946
 N53 N -0.27662 0.16567 -0.15790
 C54 C -0.25400 0.19564 -0.14238
 C55 C -0.17657 0.25477 -0.13621
 N56 N -0.14012 0.26913 -0.14658
 C57 C -0.12651 0.24821 -0.17855
 H58 H -0.10039 0.19132 -0.25265
 H59 H -0.20458 0.11983 -0.26371
 H60 H -0.26604 0.12548 -0.20779
 H61 H -0.26077 0.21207 -0.11535
 H62 H -0.19511 0.26639 -0.11237
 H63 H -0.09873 0.25392 -0.19413
 C64 C 0.16139 0.82202 -0.21578
 C65 C 0.16254 0.79134 -0.18741
 C66 C 0.19467 0.78817 -0.16144
 C67 C 0.22642 0.81520 -0.16401
 C68 C 0.22526 0.84541 -0.19194
 C69 C 0.19245 0.84890 -0.21795
 C70 C 0.13394 0.83244 -0.24465
 N71 N 0.14703 0.86561 -0.26398
 C72 C 0.18333 0.87524 -0.24807
 C73 C 0.25983 0.86709 -0.18751
 N74 N 0.28261 0.85025 -0.15819
 C75 C 0.26172 0.81891 -0.14315
 C76 C 0.18743 0.75628 -0.13674
 N77 N 0.15151 0.74040 -0.14682
 C78 C 0.13637 0.76121 -0.17823
 H79 H 0.10723 0.81585 -0.25209
 H80 H 0.20158 0.90022 -0.25706
 H81 H 0.26823 0.89265 -0.20525
 H82 H 0.27079 0.80082 -0.11791
 H83 H 0.20663 0.74556 -0.11295
 H84 H 0.10829 0.75492 -0.19310
 C85 C 0.17630 1.14986 0.79369
 C86 C 0.20869 1.15223 0.82021
 C87 C 0.21215 1.18427 0.84588
 C88 C 0.18323 1.21447 0.84515
 C89 C 0.15119 1.21208 0.81906
 C90 C 0.14748 1.17928 0.79333
 C91 C 0.16729 1.12378 0.76337
 N92 N 0.13297 1.13584 0.74512
 C93 C 0.12093 1.17013 0.76310
 C94 C 0.12975 1.24678 0.82287
 N95 N 0.14841 1.27076 0.84998
 C96 C 0.18057 1.25040 0.86449
 C97 C 0.24777 1.17998 0.86622
 N98 N 0.26595 1.14632 0.85320
 C99 C 0.24202 1.12885 0.82549
 H100 H 0.18465 1.09791 0.75510
 H101 H 0.09611 1.18843 0.75335
 H102 H 0.10366 1.25477 0.80538
 H103 H 0.20055 1.26064 0.88784
 H104 H 0.26013 1.20029 0.88810
 H105 H 0.24885 1.10155 0.80980
 C106 C 0.82899 0.85187 0.78726
 C107 C 0.80149 0.85471 0.81873
 C108 C 0.80434 0.82925 0.85121
 C109 C 0.83491 0.80059 0.85250
 C110 C 0.86146 0.79747 0.82096
 C111 C 0.85847 0.82321 0.78819
 C112 C 0.83243 0.87158 0.75140
 N113 N 0.86269 0.85489 0.72999
 C114 C 0.87919 0.82564 0.75277
 C115 C 0.88558 0.76530 0.82827
 N116 N 0.87524 0.74911 0.86409
 C117 C 0.84380 0.77032 0.87883
 C118 C 0.77167 0.83650 0.87525
 N119 N 0.74890 0.86502 0.85760
 C120 C 0.76722 0.87679 0.82342
 H121 H 0.81333 0.89545 0.74103
 H122 H 0.90501 0.80798 0.74464
 H123 H 0.90907 0.75448 0.80882
 H124 H 0.82716 0.76298 0.90562
 H125 H 0.76395 0.82091 0.90251
 H126 H 0.75530 0.89834 0.80251
 C127 C 0.18947 0.85001 1.20865
 C128 C 0.21670 0.85069 1.17669
 C129 C 0.21493 0.82167 1.14737
 C130 C 0.18602 0.79172 1.14958
 C131 C 0.15921 0.79097 1.18109
 C132 C 0.16085 0.82049 1.21073
 C133 C 0.18586 0.87272 1.24273
 N134 N 0.15613 0.85743 1.26595
 C135 C 0.14021 0.82592 1.24593
 C136 C 0.13708 0.75667 1.17733
 N137 N 0.15025 0.73659 1.14464
 C138 C 0.17969 0.75812 1.12711
 C139 C 0.24713 0.82714 1.12240
 N140 N 0.26844 0.85856 1.13608
 C141 C 0.25003 0.87345 1.16899
 H142 H 0.20323 0.89895 1.24963
 H143 H 0.11647 0.80705 1.25699
 H144 H 0.11416 0.74627 1.19764
 H145 H 0.19612 0.74926 1.10066
 H146 H 0.25560 0.80861 1.09731
 H147 H 0.26122 0.89774 1.18702
 C148 C 0.82129 1.15793 1.20901
 C149 C 0.78978 1.16036 1.18134
 C150 C 0.78765 1.19208 1.15510
 C151 C 0.81681 1.22184 1.15632
 C152 C 0.84759 1.21979 1.18396
 C153 C 0.84986 1.18751 1.21047
 C154 C 0.83052 1.13091 1.23848
 N155 N 0.86449 1.14284 1.25756
 C156 C 0.87592 1.17800 1.24093
 C157 C 0.87074 1.25321 1.17885
 N158 N 0.85444 1.27546 1.14907
 C159 C 0.82182 1.25617 1.13470
 C160 C 0.75358 1.18742 1.13249
 N161 N 0.73490 1.15385 1.14473
 C162 C 0.75694 1.13678 1.17420
 H163 H 0.81263 1.10537 1.24657
 H164 H 0.90177 1.19521 1.24984
 H165 H 0.89735 1.26094 1.19563
 H166 H 0.80317 1.26644 1.11027
 H167 H 0.74274 1.20718 1.10931
 H168 H 0.74918 1.10963 1.18969
 N169 N 0.54363 1.07636 0.95638
 N170 N 0.57040 1.10444 0.95009
 N171 N 0.46164 1.04464 0.92704
 N172 N 0.43217 1.04953 0.90113
 N173 N 0.45969 1.07149 0.95548
 N174 N 0.42890 1.09532 0.94974
 N175 N 0.54551 1.04929 0.92816
 N176 N 0.57336 1.05841 0.90180
 C177 C 0.58857 1.09304 0.91571
 C178 C 0.41217 1.08147 0.91557
 N179 N 0.46732 0.93147 0.95331
 N180 N 0.43956 0.90453 0.94623
 N181 N 0.55068 0.96359 0.92721
 N182 N 0.58123 0.95949 0.90247
 N183 N 0.55117 0.93550 0.95448
 N184 N 0.58183 0.91151 0.94903
 N185 N 0.46654 0.95921 0.92573
 N186 N 0.43827 0.95188 0.89913
 Mn187 Mn 0.50615 1.00417 0.92656
 C188 C 0.42187 0.91747 0.91211
 C189 C 0.60017 0.92665 0.91638
 N190 N 0.45884 1.06998 1.04170
 N191 N 0.42615 1.09150 1.04625
 N192 N 0.54493 1.04674 1.06957
 N193 N 0.57557 1.05271 1.09380
 N194 N 0.54280 1.07500 1.04254
 N195 N 0.57166 1.10115 1.04779
 N196 N 0.46104 1.04265 1.06956
 N197 N 0.43024 1.04519 1.09400
 Mn198 Mn 0.50116 1.07366 0.99907
 C199 C 0.40830 1.07546 1.07895
 C200 C 0.59166 1.08689 1.07992
 N201 N 0.55058 0.93427 1.04046
 N202 N 0.58191 0.91099 1.04563
 N203 N 0.46483 0.95743 1.06776
 N204 N 0.43319 0.95188 1.09067
 N205 N 0.46655 0.93020 1.03965
 N206 N 0.43641 0.90515 1.04289
 N207 N 0.54893 0.96120 1.06877
 N208 N 0.57888 0.95671 1.09416
 Mn209 Mn 0.50888 0.93242 0.99699
 Mn210 Mn 0.50500 1.00199 1.06942
 Cl211 Cl 0.50532 1.00308 0.99797
 C212 C 0.59963 0.92561 1.07905
 C213 C 0.41608 0.91898 1.07497
 N214 N -0.03693 0.46309 -0.07574
 N215 N -0.03995 0.43135 -0.09877
 N216 N -0.06485 0.54675 -0.04617
 N217 N -0.08588 0.57995 -0.04705
 N218 N -0.03742 0.54696 -0.07428
 N219 N -0.03927 0.58016 -0.09517
 N220 N -0.06496 0.46304 -0.04825
 N221 N -0.08808 0.43156 -0.05204
 C222 C -0.07212 0.41217 -0.08365
 C223 C -0.06963 0.60040 -0.07789
 N224 N -0.03763 0.54372 0.06780
 N225 N -0.04660 0.56892 0.09669
 N226 N -0.06487 0.46112 0.03803
 N227 N -0.09109 0.43253 0.04434
 N228 N -0.03680 0.46050 0.06558
 N229 N -0.04295 0.43135 0.09121
 N230 N -0.06529 0.54424 0.03985
 N231 N -0.09372 0.56983 0.04890
 Mn232 Mn -0.06544 0.50380 -0.00428
 C233 C -0.08166 0.58498 0.08440
 C234 C -0.07694 0.41426 0.07761
 N235 N 0.04853 0.54734 -0.07422
 N236 N 0.05201 0.57923 -0.09692
 N237 N 0.07691 0.46329 -0.04833
 N238 N 0.10224 0.43385 -0.05437
 N239 N 0.04913 0.46363 -0.07611
 N240 N 0.05486 0.43444 -0.10187
 N241 N 0.07652 0.54677 -0.04658
 N242 N 0.10004 0.57803 -0.04995
 Mn243 Mn 0.00576 0.50521 -0.07564
 C244 C 0.08428 0.59799 -0.08141
 C245 C 0.08840 0.41634 -0.08815
 N246 N 0.04910 0.46090 0.06546
 N247 N 0.05163 0.42814 0.08693
 N248 N 0.07659 0.54491 0.03981
 N249 N 0.10169 0.57448 0.04609
 N250 N 0.04862 0.54448 0.06736
 N251 N 0.05376 0.57387 0.09300
 N252 N 0.07674 0.46140 0.03760
 N253 N 0.09877 0.42893 0.03929
 Mn254 Mn 0.00593 0.50245 0.06699
 Mn255 Mn 0.07719 0.50412 -0.00435
 Cl256 Cl 0.00585 0.50394 -0.00429
 C257 C 0.08268 0.40850 0.07019
 C258 C 0.08719 0.59208 0.07952
 N259 N 0.93491 -0.04152 0.45339
 N260 N 0.90692 -0.05066 0.42716
 N261 N 0.96289 -0.06996 0.53705
 N262 N 0.95844 -0.09576 0.56638
 N263 N 0.93403 -0.04354 0.53748
 N264 N 0.90911 -0.05068 0.56720
 N265 N 0.96348 -0.06829 0.45319
 N266 N 0.95535 -0.09656 0.42703
 C267 C 0.91993 -0.08509 0.41100
 C268 C 0.92453 -0.08362 0.58468
 N269 N 1.07510 -0.03776 0.53978
 N270 N 1.09668 -0.04009 0.57284
 N271 N 1.04980 -0.06464 0.45434
 N272 N 1.05752 -0.08958 0.42489
 N273 N 1.07637 -0.03601 0.45529
 N274 N 1.10279 -0.04065 0.42629
 N275 N 1.04857 -0.06642 0.53860
 N276 N 1.05139 -0.08897 0.57081
 Mn277 Mn 1.00628 -0.06774 0.49571
 C278 C 1.08145 -0.07211 0.59198
 C279 C 1.09088 -0.07445 0.40775
 N280 N 0.92997 0.04188 0.53918
 N281 N 0.90457 0.04494 0.56914
 N282 N 0.95779 0.07231 0.45602
 N283 N 0.95472 0.09461 0.42365
 N284 N 0.93122 0.04367 0.45517
 N285 N 0.90930 0.04584 0.42236
 N286 N 0.95631 0.07061 0.54052
 N287 N 0.94947 0.09380 0.57168
 Mn288 Mn 0.93212 0.00015 0.49633
 C289 C 0.91698 0.07732 0.58956
 C290 C 0.92443 0.07763 0.40282
 N291 N 1.07263 0.04941 0.45737
 N292 N 1.09529 0.05366 0.42535
 N293 N 1.04236 0.07385 0.54216
 N294 N 1.04273 0.09414 0.57600
 N295 N 1.07135 0.04751 0.54182
 N296 N 1.09218 0.04930 0.57538
 N297 N 1.04379 0.07589 0.45755
 N298 N 1.04608 0.09883 0.42557
 Mn299 Mn 1.07440 0.00587 0.49853
 Mn300 Mn 1.00010 0.07375 0.49908
 Cl301 Cl 1.00321 0.00301 0.49736
 C302 C 1.07832 0.08454 0.40574
 C303 C 1.07397 0.07846 0.59645
 C304 C 1.08500 0.12434 0.29800
 C305 C 1.12698 0.13159 0.29592
 C306 C 1.15117 0.11969 0.32819
 C307 C 1.13464 0.10449 0.36310
 C308 C 1.09329 0.10011 0.36714
 C309 C 1.06803 0.10888 0.33407
 C310 C 1.06007 0.12828 0.26394
 C311 C 1.01937 0.11991 0.26596
 C312 C 1.00278 0.10604 0.30133
 C313 C 1.02672 0.10008 0.33496
 H314 H 1.07174 0.13590 0.23485
 H315 H 1.00079 0.12314 0.23958
 H316 H 0.97143 0.09857 0.30221
 H317 H 1.01264 0.08708 0.36087
 H318 H 1.18322 0.12407 0.32726
 H319 H 1.15443 0.09697 0.38769
 C320 C 0.83526 -0.13271 0.34972
 C321 C 0.85827 -0.14978 0.31822
 C322 C 0.90015 -0.14918 0.32118
 C323 C 0.91925 -0.12861 0.35178
 C324 C 0.89732 -0.10857 0.38113
 C325 C 0.85492 -0.11193 0.38140
 C326 C 0.79350 -0.13888 0.35236
 C327 C 0.77134 -0.12303 0.38379
 C328 C 0.79032 -0.10214 0.41417
 C329 C 0.83165 -0.09723 0.41353
 H330 H 0.77759 -0.15738 0.33130
 H331 H 0.73939 -0.12794 0.38516
 H332 H 0.77307 -0.09074 0.43905
 H333 H 0.84482 -0.08326 0.43941
 H334 H 0.91845 -0.16252 0.29808
 H335 H 0.95163 -0.12722 0.35169
 C336 C 0.86261 0.08737 0.69158
 C337 C 0.87108 0.12795 0.70021
 C338 C 0.89577 0.14890 0.67369
 C339 C 0.90944 0.13172 0.63841
 C340 C 0.89859 0.09301 0.62725
 C341 C 0.87351 0.07069 0.65368
 C342 C 0.84584 0.06210 0.72092
 C343 C 0.83330 0.02397 0.71131
 C344 C 0.83857 0.00967 0.67280
 C345 C 0.85942 0.03203 0.64462
 H346 H 0.84288 0.07120 0.75180
 H347 H 0.81929 0.00551 0.73380
 H348 H 0.82760 -0.01955 0.66506
 H349 H 0.86331 0.01799 0.61613
 H350 H 0.90336 0.17963 0.67922
 H351 H 0.92836 0.14952 0.61920
 C352 C 1.08672 -0.11292 0.69955
 C353 C 1.12913 -0.11609 0.70388
 C354 C 1.15345 -0.10065 0.67330
 C355 C 1.13716 -0.08614 0.63792
 C356 C 1.09589 -0.08630 0.63141
 C357 C 1.07004 -0.09867 0.66275
 C358 C 1.06055 -0.12018 0.73199
 C359 C 1.01925 -0.11704 0.72743
 C360 C 1.00305 -0.10493 0.69113
 C361 C 1.02802 -0.09502 0.65934
 H362 H 1.07149 -0.12663 0.76171
 H363 H 0.99974 -0.12312 0.75253
 H364 H 0.97099 -0.10189 0.68804
 H365 H 1.01385 -0.08326 0.63285
 H366 H 1.18571 -0.10197 0.67553
 H367 H 1.15729 -0.07596 0.61469
 C368 C 0.30539 1.08396 1.13119
 C369 C 0.29850 1.12549 1.12608
 C370 C 0.32570 1.14727 1.10289
 C371 C 0.36031 1.13001 1.08800
 C372 C 0.36991 1.09030 1.09592
 C373 C 0.34218 1.06662 1.11794
 C374 C 0.27526 1.05855 1.14623
 C375 C 0.28311 1.01884 1.15437
 C376 C 0.32024 1.00294 1.14547
 C377 C 0.34884 1.02583 1.12592
 H378 H 0.24495 1.06855 1.15081
 H379 H 0.26008 1.00019 1.16716
 H380 H 0.32638 0.97219 1.15244
 H381 H 0.37539 1.01034 1.11702
 H382 H 0.32141 1.17871 1.09781
 H383 H 0.38058 1.14862 1.07107
 C384 C 0.35007 0.83903 0.86887
 C385 C 0.31852 0.86444 0.85561
 C386 C 0.32435 0.90571 0.85750
 C387 C 0.35816 0.92184 0.87539
 C388 C 0.38786 0.89756 0.89189
 C389 C 0.38468 0.85571 0.88766
 C390 C 0.34979 0.79784 0.86064
 C391 C 0.38091 0.77334 0.87329
 C392 C 0.41376 0.78936 0.89292
 C393 C 0.41612 0.83012 0.89944
 H394 H 0.32660 0.78418 0.84287
 H395 H 0.37997 0.74185 0.86692
 H396 H 0.43819 0.77026 0.90199
 H397 H 0.44350 0.84108 0.91244
 H398 H 0.30138 0.92596 0.84722
 H399 H 0.36046 0.95386 0.87754
 C400 C 0.69996 0.90986 1.13412
 C401 C 0.70181 0.86752 1.13320
 C402 C 0.67271 0.84698 1.11105
 C403 C 0.64066 0.86670 1.09354
 C404 C 0.63587 0.90779 1.09757
 C405 C 0.66600 0.93002 1.11770
 C406 C 0.73255 0.93287 1.14795
 C407 C 0.72972 0.97392 1.15101
 C408 C 0.69540 0.99322 1.13823
 C409 C 0.66447 0.97192 1.12036
 H410 H 0.76110 0.91979 1.15530
 H411 H 0.75458 0.99091 1.16275
 H412 H 0.69337 1.02506 1.14105
 H413 H 0.64023 0.98910 1.10813
 H414 H 0.67331 0.81492 1.10904
 H415 H 0.61843 0.84920 1.07785
 C416 C 0.65807 1.17485 0.87456
 C417 C 0.68875 1.15049 0.85786
 C418 C 0.68336 1.10913 0.85794
 C419 C 0.65076 1.09173 0.87664
 C420 C 0.62167 1.11472 0.89577
 C421 C 0.62449 1.15683 0.89396
 C422 C 0.65803 1.21650 0.86923
 C423 C 0.62761 1.24002 0.88495
 C424 C 0.59572 1.22265 0.90487
 C425 C 0.59365 1.18155 0.90875
 H426 H 0.68036 1.23140 0.85145
 H427 H 0.62829 1.27188 0.88074
 H428 H 0.57177 1.24105 0.91629
 H429 H 0.56690 1.16980 0.92217
 H430 H 0.70580 1.08965 0.84532
 H431 H 0.64889 1.05961 0.87703
 C432 C 0.11880 0.30051 0.07458
 C433 C 0.12557 0.29728 0.11645
 C434 C 0.11635 0.32941 0.14136
 C435 C 0.10202 0.36479 0.12561
 C436 C 0.09694 0.36952 0.08432
 C437 C 0.10470 0.33711 0.05826
 C438 C 0.12429 0.26779 0.04877
 C439 C 0.11748 0.27134 0.00771
 C440 C 0.10420 0.30712 -0.00831
 C441 C 0.09732 0.33959 0.01663
 H442 H 0.13300 0.23898 0.06001
 H443 H 0.12201 0.24603 -0.01173
 H444 H 0.09856 0.30953 -0.04015
 H445 H 0.08546 0.36613 0.00291
 H446 H 0.12118 0.32731 0.17336
 H447 H 0.09576 0.38913 0.14588
 C448 C -0.08227 0.30313 -0.11393
 C449 C -0.12168 0.30380 -0.12962
 C450 C -0.14372 0.33912 -0.12851
 C451 C -0.12709 0.37382 -0.11333
 C452 C -0.08777 0.37432 -0.09909
 C453 C -0.06508 0.33877 -0.09862
 C454 C -0.06015 0.26753 -0.11168
 C455 C -0.02177 0.26713 -0.09525
 C456 C -0.00499 0.30190 -0.08031
 C457 C -0.02633 0.33746 -0.08184
 H458 H -0.07248 0.23962 -0.12176
 H459 H -0.00515 0.23959 -0.09367
 H460 H 0.02462 0.30126 -0.06719
 H461 H -0.01243 0.36363 -0.06925
 H462 H -0.17399 0.33984 -0.14007
 H463 H -0.14490 0.40070 -0.11323
 C464 C 0.09393 0.70658 -0.11368
 C465 C 0.13365 0.70609 -0.12849
 C466 C 0.15635 0.67129 -0.12533
 C467 C 0.13995 0.63680 -0.10938
 C468 C 0.10016 0.63590 -0.09659
 C469 C 0.07683 0.67104 -0.09806
 C470 C 0.07136 0.74197 -0.11261
 C471 C 0.03251 0.74217 -0.09761
 C472 C 0.01566 0.70743 -0.08286
 C473 C 0.03745 0.67214 -0.08286
 H474 H 0.08369 0.76998 -0.12231
 H475 H 0.01556 0.76955 -0.09690
 H476 H -0.01417 0.70810 -0.07065
 H477 H 0.02346 0.64613 -0.07010
 H478 H 0.18689 0.67074 -0.13605
 H479 H 0.15822 0.61026 -0.10789
 C480 C -0.13267 0.64511 0.16748
 C481 C -0.14452 0.67879 0.14475
 C482 C -0.13891 0.67860 0.10321
 C483 C -0.11993 0.64706 0.08442
 C484 C -0.10433 0.61545 0.10656
 C485 C -0.11160 0.61350 0.14837
 C486 C -0.14279 0.64130 0.20833
 C487 C -0.13085 0.60816 0.23031
 C488 C -0.10953 0.57778 0.21193
 C489 C -0.10036 0.58004 0.17129
 H490 H -0.16101 0.66309 0.22346
 H491 H -0.13876 0.60575 0.26164
 H492 H -0.10084 0.55188 0.22904
 H493 H -0.08546 0.55481 0.15807
 H494 H -0.14853 0.70358 0.08521
 H495 H -0.11640 0.64785 0.05226
 C496 C 1.07478 0.11485 0.70575
 C497 C 1.11680 0.11926 0.71134
 C498 C 1.14263 0.10611 0.68096
 C499 C 1.12794 0.09276 0.64444
 C500 C 1.08683 0.09107 0.63699
 C501 C 1.05973 0.10036 0.66838
 C502 C 1.04766 0.12087 0.73763
 C503 C 1.00690 0.11396 0.73267
 C504 C 0.99234 0.09990 0.69639
 C505 C 1.01829 0.09302 0.66453
 H506 H 1.05762 0.12906 0.76726
 H507 H 0.98663 0.11840 0.75752
 H508 H 0.96090 0.09311 0.69335
 H509 H 1.00559 0.08024 0.63776
 H510 H 1.17473 0.10845 0.68450
 H511 H 1.14910 0.08473 0.62126
 C512 C 0.88790 -0.15922 0.66254
 C513 C 0.87576 -0.13249 0.69336
 C514 C 0.87775 -0.09153 0.68609
 C515 C 0.89381 -0.07680 0.65083
 C516 C 0.90763 -0.10223 0.62092
 C517 C 0.90434 -0.14391 0.62619
 C518 C 0.88085 -0.20052 0.66538
 C519 C 0.89229 -0.22623 0.63480
 C520 C 0.90956 -0.21141 0.60009
 C521 C 0.91494 -0.17070 0.59539
 H522 H 0.86502 -0.21343 0.69031
 H523 H 0.88687 -0.25777 0.63767
 H524 H 0.91775 -0.23149 0.57616
 H525 H 0.92634 -0.16074 0.56692
 H526 H 0.86887 -0.07051 0.70896
 H527 H 0.89674 -0.04503 0.64735
 C528 C 1.16907 -0.11253 0.33190
 C529 C 1.14281 -0.12799 0.30194
 C530 C 1.10154 -0.12812 0.30967
 C531 C 1.08590 -0.11069 0.34395
 C532 C 1.11069 -0.09263 0.37240
 C533 C 1.15286 -0.09422 0.36706
 C534 C 1.21094 -0.11818 0.32971
 C535 C 1.23631 -0.10348 0.35928
 C536 C 1.22066 -0.08433 0.39255
 C537 C 1.17945 -0.08036 0.39692
 H538 H 1.22465 -0.13552 0.30629
 H539 H 1.26828 -0.10788 0.35685
 H540 H 1.24052 -0.07365 0.41580
 H541 H 1.16915 -0.06759 0.42462
 H542 H 1.08074 -0.14004 0.28791
 H543 H 1.05372 -0.11052 0.34776
 C544 C 0.88445 0.08297 0.29463
 C545 C 0.88182 0.12506 0.29023
 C546 C 0.89694 0.14917 0.32107
 C547 C 0.91065 0.13297 0.35679
 C548 C 0.91044 0.09196 0.36321
 C549 C 0.89847 0.06632 0.33153
 C550 C 0.87712 0.05711 0.26205
 C551 C 0.88045 0.01612 0.26635
 C552 C 0.89283 -0.00008 0.30252
 C553 C 0.90257 0.02460 0.33452
 H554 H 0.87047 0.06806 0.23241
 H555 H 0.87440 -0.00314 0.24111
 H556 H 0.89618 -0.03193 0.30542
 H557 H 0.91470 0.01032 0.36072
 H558 H 0.89598 0.18119 0.31862
 H559 H 0.92058 0.15296 0.38020
 C560 C 0.16320 0.33891 -0.12789
 C561 C 0.13599 0.30801 -0.13872
 C562 C 0.09477 0.31620 -0.13729
 C563 C 0.08042 0.35185 -0.12199
 C564 C 0.10642 0.38065 -0.10688
 C565 C 0.14831 0.37496 -0.11081
 C566 C 0.20443 0.33654 -0.13706
 C567 C 0.23072 0.36672 -0.12618
 C568 C 0.21648 0.40074 -0.10760
 C569 C 0.17570 0.40532 -0.10068
 H570 H 0.21675 0.31243 -0.15438
 H571 H 0.26222 0.36410 -0.13315
 H572 H 0.23698 0.42439 -0.09986
 H573 H 0.16613 0.43353 -0.08879
 H574 H 0.07308 0.29399 -0.14600
 H575 H 0.04842 0.35636 -0.12062
 C576 C -0.15330 0.34634 0.12841
 C577 C -0.12941 0.31187 0.13349
 C578 C -0.08913 0.31279 0.12221
 C579 C -0.07269 0.34644 0.10460
 C580 C -0.09619 0.38005 0.09719
 C581 C -0.13672 0.38057 0.10961
 C582 C -0.19287 0.34804 0.14296
 C583 C -0.21602 0.38211 0.13790
 C584 C -0.20007 0.41530 0.11900
 C585 C -0.16073 0.41482 0.10528
 H586 H -0.20604 0.32360 0.15918
 H587 H -0.24634 0.38294 0.14915
 H588 H -0.21808 0.44179 0.11554
 H589 H -0.14929 0.44177 0.09203
 H590 H -0.07050 0.28679 0.12631
 H591 H -0.04152 0.34592 0.09578
 C592 C -0.10118 0.71010 -0.07859
 C593 C -0.10918 0.71486 -0.12025
 C594 C -0.10033 0.68328 -0.14629
 C595 C -0.08752 0.64678 -0.13180
 C596 C -0.08245 0.64041 -0.09077
 C597 C -0.08782 0.67251 -0.06378
 C598 C -0.10198 0.74280 -0.05206
 C599 C -0.09120 0.73848 -0.01200
 C600 C -0.07856 0.70189 0.00240
 C601 C -0.07692 0.66912 -0.02302
 H602 H -0.10880 0.77247 -0.06218
 H603 H -0.09160 0.76396 0.00775
 H604 H -0.06902 0.69916 0.03326
 H605 H -0.06530 0.64179 -0.01070
 H606 H -0.10541 0.68612 -0.17819
 H607 H -0.08241 0.62287 -0.15290
 C608 C 0.16167 0.66613 0.12452
 C609 C 0.13567 0.69878 0.13100
 C610 C 0.09476 0.69454 0.12329
 C611 C 0.07960 0.65940 0.10746
 C612 C 0.10498 0.62754 0.09846
 C613 C 0.14631 0.63032 0.10772
 C614 C 0.20235 0.66781 0.13570
 C615 C 0.22762 0.63551 0.12935
 C616 C 0.21278 0.60073 0.11254
 C617 C 0.17250 0.59787 0.10214
 H618 H 0.21489 0.69360 0.15026
 H619 H 0.25877 0.63728 0.13802
 H620 H 0.23246 0.57558 0.10814
 H621 H 0.16215 0.56975 0.09058
 H622 H 0.07460 0.71913 0.12866
 H623 H 0.04789 0.65748 0.10104
 C624 C 0.33581 1.12329 0.84057
 C625 C 0.30377 1.13134 0.86714
 C626 C 0.30879 1.12458 0.90815
 C627 C 0.34424 1.10870 0.92302
 C628 C 0.37579 1.09879 0.89733
 C629 C 0.37210 1.10668 0.85569
 C630 C 0.33312 1.13290 0.79951
 C631 C 0.36495 1.12545 0.77370
 C632 C 0.40027 1.10911 0.78833
 C633 C 0.40412 1.10016 0.82891
 H634 H 0.30689 1.14702 0.78704
 H635 H 0.36242 1.13294 0.74227
 H636 H 0.42509 1.10394 0.76822
 H637 H 0.43269 1.08899 0.83892
 H638 H 0.28465 1.13108 0.92872
 H639 H 0.34677 1.10339 0.95494
 C640 C 0.34122 0.84895 1.12440
 C641 C 0.30596 0.87191 1.12035
 C642 C 0.30754 0.90874 1.10120
 C643 C 0.34353 0.92328 1.08625
 C644 C 0.37883 0.90131 1.09008
 C645 C 0.37798 0.86364 1.10885
 C646 C 0.34090 0.81213 1.14449
 C647 C 0.37589 0.78992 1.14849
 C648 C 0.41177 0.80409 1.13299
 C649 C 0.41301 0.84069 1.11350
 H650 H 0.31383 0.80036 1.15757
 H651 H 0.37521 0.76166 1.16390
 H652 H 0.43884 0.78678 1.13635
 H653 H 0.44159 0.85087 1.10241
 H654 H 0.28065 0.92641 1.09808
 H655 H 0.34386 0.95200 1.07167
 C656 C 0.66160 1.15939 1.13299
 C657 C 0.69815 1.13855 1.12888
 C658 C 0.69878 1.10197 1.10915
 C659 C 0.66387 1.08578 1.09339
 C660 C 0.62742 1.10576 1.09697
 C661 C 0.62591 1.14300 1.11659
 C662 C 0.65958 1.19567 1.15397
 C663 C 0.62333 1.21579 1.15790
 C664 C 0.58851 1.20002 1.14147
 C665 C 0.58958 1.16386 1.12116
 H666 H 0.68573 1.20857 1.16786
 H667 H 0.62220 1.24366 1.17400
 H668 H 0.56045 1.21571 1.14479
 H669 H 0.56175 1.15233 1.10942
 H670 H 0.72669 1.08598 1.10585
 H671 H 0.66533 1.05752 1.07798
 C672 C 0.67766 0.85304 0.87613
 C673 C 0.71056 0.87904 0.87103
 C674 C 0.70545 0.91975 0.87774
 C675 C 0.66905 0.93477 0.89122
 C676 C 0.63674 0.90946 0.89865
 C677 C 0.64050 0.86829 0.89032
 C678 C 0.68044 0.81245 0.86601
 C679 C 0.64779 0.78723 0.87077
 C680 C 0.61161 0.80198 0.88489
 C681 C 0.60773 0.84212 0.89424
 H682 H 0.70741 0.79988 0.85354
 H683 H 0.65040 0.75616 0.86293
 H684 H 0.58621 0.78234 0.88800
 H685 H 0.57858 0.85238 0.90357
 H686 H 0.73020 0.93992 0.87309
 H687 H 0.66647 0.96631 0.89705
   
