data_POSCAR
  _audit_creation_date              2014-09-24
  _audit_creation_method            'ToBaCCo'
  _symmetry_space_group_name_H-M    'P1'
  _symmetry_Int_Tables_number       1
  _symmetry_cell_setting            triclinic
  loop_
  _symmetry_equiv_pos_as_xyz
 x,y,z
_cell_length_a 25.6954
_cell_length_b 25.8863
_cell_length_c 25.7670
_cell_angle_alpha 101.133000
_cell_angle_beta 76.755400
_cell_angle_gamma 74.500800
loop_
  _atom_site_label
  _atom_site_type_symbol
  _atom_site_fract_x
  _atom_site_fract_y
  _atom_site_fract_z
C1 C 0.51183 0.48393 0.00527
 C2 C 0.46821 0.52459 0.00119
 C3 C 0.41447 0.51550 -0.00205
 C4 C 0.47167 0.58063 0.00090
 C5 C 0.56561 0.49332 0.00733
 C6 C 0.50947 0.42720 0.00506
 C7 C 0.39680 0.51956 -0.04900
 C8 C 0.34716 0.50930 -0.05338
 C9 C 0.31358 0.49436 -0.01080
 C10 C 0.33115 0.49259 0.03727
 C11 C 0.38104 0.50259 0.04132
 C12 C 0.49329 0.59250 -0.04889
 C13 C 0.49196 0.64687 -0.04915
 C14 C 0.46931 0.68988 0.00047
 C15 C 0.45032 0.67706 0.05054
 C16 C 0.45051 0.62309 0.05060
 C17 C 0.56939 0.52717 0.05497
 C18 C 0.62123 0.53380 0.05689
 C19 C 0.66953 0.50686 0.01109
 C20 C 0.66568 0.47271 -0.03629
 C21 C 0.61404 0.46590 -0.03810
 C22 C 0.52073 0.40462 0.04824
 C23 C 0.52042 0.35067 0.04793
 C24 C 0.50954 0.31822 0.00405
 C25 C 0.49772 0.34088 -0.03893
 C26 C 0.49827 0.39476 -0.03873
 H27 H 0.42225 0.52929 -0.08307
 H28 H 0.33700 0.51036 -0.09176
 H29 H 0.30509 0.48616 0.07328
 H30 H 0.39334 0.50084 0.07861
 H31 H 0.51004 0.55996 -0.08755
 H32 H 0.50761 0.65561 -0.08812
 H33 H 0.43389 0.61439 0.08936
 H34 H 0.53249 0.54770 0.09074
 H35 H 0.62379 0.55981 0.09394
 H36 H 0.70281 0.45110 -0.07167
 H37 H 0.61176 0.43918 -0.07487
 H38 H 0.52970 0.42889 0.08226
 H39 H 0.52937 0.33392 0.08152
 H40 H 0.48880 0.31651 -0.07291
 H41 H 0.49053 0.41094 -0.07298
 H42 H 0.43419 0.70920 0.08947
 C43 C 0.01240 0.51688 0.51839
 C44 C 0.00310 0.48022 0.47923
 C45 C 0.00278 0.42422 0.48448
 C46 C -0.00319 0.49248 0.42694
 C47 C 0.01384 0.57220 0.51238
 C48 C 0.01372 0.50670 0.57257
 C49 C 0.05050 0.38648 0.48998
 C50 C 0.05207 0.33213 0.48993
 C51 C 0.00668 0.31410 0.48257
 C52 C -0.04150 0.35207 0.47823
 C53 C -0.04337 0.40665 0.47902
 C54 C 0.04444 0.47588 0.38053
 C55 C 0.03809 0.48145 0.32927
 C56 C -0.01601 0.50330 0.32393
 C57 C -0.06346 0.52193 0.37088
 C58 C -0.05712 0.51606 0.42202
 C59 C -0.03544 0.61260 0.51331
 C60 C -0.03526 0.66614 0.51184
 C61 C 0.01358 0.68081 0.51174
 C62 C 0.06319 0.64011 0.50978
 C63 C 0.06329 0.58616 0.51014
 C64 C -0.03725 0.51763 0.61350
 C65 C -0.03691 0.51101 0.66591
 C66 C 0.01451 0.49237 0.67778
 C67 C 0.06555 0.48173 0.63679
 C68 C 0.06514 0.48902 0.58452
 H69 H 0.08719 0.39856 0.49270
 H70 H 0.08930 0.30361 0.49415
 H71 H -0.07715 0.33908 0.47309
 H72 H -0.08062 0.43491 0.47468
 H73 H 0.08625 0.45723 0.38377
 H74 H 0.07513 0.46713 0.29340
 H75 H -0.09433 0.52863 0.45745
 H76 H -0.07439 0.60309 0.51651
 H77 H -0.07370 0.69669 0.51238
 H78 H 0.10145 0.65045 0.50910
 H79 H 0.10175 0.55558 0.50940
 H80 H -0.07726 0.53212 0.60502
 H81 H -0.07676 0.52073 0.69740
 H82 H 0.10558 0.46789 0.64537
 H83 H 0.10485 0.48066 0.55338
 H84 H -0.10543 0.53932 0.36744
 C85 C 0.52640 0.01164 0.48217
 C86 C 0.48852 0.00002 0.52077
 C87 C 0.49666 -0.00477 0.57516
 C88 C 0.43553 -0.00748 0.51171
 C89 C 0.51674 0.01811 0.42872
 C90 C 0.58094 0.01582 0.48964
 C91 C 0.49168 -0.05165 0.59285
 C92 C 0.49159 -0.05399 0.64651
 C93 C 0.49524 -0.00891 0.68437
 C94 C 0.50393 0.03656 0.66521
 C95 C 0.50374 0.03896 0.61145
 C96 C 0.43654 -0.04779 0.46589
 C97 C 0.38622 -0.05585 0.45997
 C98 C 0.33453 -0.02462 0.50039
 C99 C 0.33350 0.01588 0.54579
 C100 C 0.38354 0.02424 0.55149
 C101 C 0.46800 0.05767 0.42697
 C102 C 0.45907 0.06155 0.37607
 C103 C 0.49887 0.02611 0.32640
 C104 C 0.54834 -0.01200 0.32814
 C105 C 0.55724 -0.01593 0.37886
 C106 C 0.59578 0.06306 0.48334
 C107 C 0.64905 0.06558 0.48481
 C108 C 0.68955 0.02018 0.49108
 C109 C 0.67323 -0.02605 0.50019
 C110 C 0.61983 -0.02848 0.49874
 H111 H 0.48687 -0.08617 0.56525
 H112 H 0.48844 -0.09119 0.65846
 H113 H 0.50740 0.07193 0.69281
 H114 H 0.50693 0.07587 0.59893
 H115 H 0.47626 -0.07344 0.43524
 H116 H 0.38764 -0.08715 0.42457
 H117 H 0.38180 0.05537 0.58719
 H118 H 0.43680 0.08509 0.46496
 H119 H 0.42095 0.09163 0.37532
 H120 H 0.57961 -0.03939 0.29016
 H121 H 0.59527 -0.04639 0.37929
 H122 H 0.56608 0.09796 0.47691
 H123 H 0.65848 0.10333 0.48122
 H124 H 0.70284 -0.06182 0.50542
 H125 H 0.60951 -0.06567 0.50299
 H126 H 0.29386 0.04069 0.57706
 O127 O 0.44305 0.01537 -0.05435
 O128 O 0.43785 0.03576 0.09241
 O129 O 0.44860 0.09453 0.02031
 O130 O 0.43205 -0.04301 0.01612
 O131 O 0.52413 -0.08139 -0.00619
 O132 O 0.54127 0.05572 -0.00468
 O133 O 0.53067 -0.00219 0.06763
 O134 O 0.53575 -0.02412 -0.07938
 Cu135 Cu 0.43112 0.02967 0.02136
 Cu136 Cu 0.54226 -0.01679 -0.00812
 C137 C 0.49016 -0.00790 -0.09188
 C138 C 0.48329 0.01908 0.10501
 C139 C 0.49790 0.09830 0.00666
 C140 C 0.47491 -0.08577 0.00549
 O141 O -0.09236 0.55038 1.01900
 O142 O 0.05641 0.53764 1.00484
 O143 O -0.00670 0.53867 0.93774
 O144 O -0.02999 0.54853 1.08632
 O145 O -0.00741 0.45701 1.06743
 O146 O 0.01501 0.44727 0.91964
 O147 O 0.07879 0.44618 0.98580
 O148 O -0.07035 0.45888 1.00146
 Cu149 Cu -0.02015 0.55304 1.01387
 Cu150 Cu 0.00651 0.44311 0.99173
 C151 C -0.10636 0.50669 1.01131
 C152 C 0.09277 0.48986 0.99411
 C153 C 0.00586 0.49141 0.90374
 C154 C -0.02261 0.50426 1.10211
 O155 O 0.02673 -0.08935 0.45524
 O156 O 0.02444 0.05060 0.44304
 O157 O 0.10095 -0.03627 0.44705
 O158 O -0.04796 -0.00370 0.44864
 O159 O -0.07560 0.02715 0.53985
 O160 O 0.07353 -0.00392 0.53810
 O161 O -0.00310 0.08220 0.53410
 O162 O 0.00106 -0.05772 0.54619
 Cu163 Cu 0.02890 -0.02282 0.43933
 Cu164 Cu -0.00379 0.01519 0.54868
 C165 C 0.01277 -0.09704 0.50304
 C166 C 0.01141 0.09004 0.48651
 C167 C 0.11267 -0.02538 0.49237
 C168 C -0.08713 0.01655 0.49436
 C169 C -0.19458 0.48752 1.04792
 C170 C -0.24919 0.48851 1.04861
 C171 C -0.27522 0.51257 1.01292
 C172 C -0.24633 0.53760 0.97692
 C173 C -0.19064 0.53641 0.97597
 C174 C -0.16484 0.51116 1.01201
 C175 C -0.16211 0.55907 0.93754
 N176 N -0.18859 0.58293 0.90406
 N177 N -0.24150 0.58549 0.90617
 C178 C -0.27128 0.56374 0.94144
 H179 H -0.17519 0.46778 1.07536
 H180 H -0.27075 0.46891 1.07607
 H181 H -0.11898 0.55778 0.93332
 H182 H -0.31419 0.56724 0.94151
 C183 C 0.17581 0.51846 0.96270
 C184 C 0.23048 0.51844 0.95963
 C185 C 0.26403 0.48577 0.98558
 C186 C 0.24198 0.44791 1.01022
 C187 C 0.18505 0.45004 1.01548
 C188 C 0.15197 0.48562 0.99116
 C189 C 0.16324 0.41637 1.04530
 N190 N 0.19787 0.37854 1.06261
 N191 N 0.25269 0.37215 1.05227
 C192 C 0.27602 0.40480 1.02605
 H193 H 0.15129 0.54557 0.94350
 H194 H 0.24408 0.54824 0.94053
 H195 H 0.11920 0.41945 1.05514
 H196 H 0.32121 0.39592 1.01690
 C197 C 0.05052 -0.19963 0.46810
 C198 C 0.05145 -0.25308 0.47053
 C199 C 0.01275 -0.26138 0.51343
 C200 C -0.02728 -0.21456 0.55536
 C201 C -0.03002 -0.15992 0.55162
 C202 C 0.01046 -0.15253 0.50814
 C203 C -0.07432 -0.11486 0.59098
 N204 N -0.10996 -0.12397 0.63324
 N205 N -0.10483 -0.17500 0.63872
 C206 C -0.06469 -0.22051 0.60141
 H207 H 0.08161 -0.19507 0.43451
 H208 H 0.08230 -0.28837 0.43817
 H209 H -0.08208 -0.07254 0.58849
 H210 H -0.06232 -0.26079 0.60840
 C211 C -0.03045 0.19235 0.52030
 C212 C -0.03203 0.24624 0.51917
 C213 C 0.00933 0.25569 0.47982
 C214 C 0.05283 0.20957 0.44009
 C215 C 0.05559 0.15451 0.44228
 C216 C 0.01268 0.14598 0.48228
 C217 C 0.10225 0.11016 0.40508
 N218 N 0.14088 0.12030 0.36633
 N219 N 0.13641 0.17170 0.36236
 C220 C 0.09373 0.21660 0.39773
 H221 H -0.06344 0.18683 0.55127
 H222 H -0.06556 0.28100 0.54978
 H223 H 0.10927 0.06760 0.40660
 H224 H 0.09213 0.25723 0.39211
 C225 C 0.53151 0.00406 -0.18326
 C226 C 0.53103 0.00650 -0.23663
 C227 C 0.49146 -0.00957 -0.26001
 C228 C 0.45014 -0.02695 -0.22690
 C229 C 0.45183 -0.03071 -0.17292
 C230 C 0.49197 -0.01362 -0.15059
 C231 C 0.41284 -0.05139 -0.14281
 N232 N 0.37200 -0.06297 -0.16340
 N233 N 0.36741 -0.05514 -0.21190
 C234 C 0.40447 -0.03699 -0.24394
 H235 H 0.56246 0.01734 -0.16692
 H236 H 0.56329 0.01956 -0.26043
 H237 H 0.41448 -0.05876 -0.10325
 H238 H 0.39677 -0.02939 -0.28168
 C239 C 0.52225 0.04291 0.18201
 C240 C 0.52592 0.04494 0.23539
 C241 C 0.48922 0.02789 0.27221
 C242 C 0.44761 0.00860 0.25490
 C243 C 0.44396 0.00620 0.20030
 C244 C 0.48176 0.02375 0.16360
 C245 C 0.40428 -0.01636 0.18371
 N246 N 0.37005 -0.03379 0.21972
 N247 N 0.37314 -0.03094 0.27100
 C248 C 0.41088 -0.01069 0.28972
 H249 H 0.55179 0.05595 0.15454
 H250 H 0.55834 0.05917 0.24788
 H251 H 0.40051 -0.02129 0.14241
 H252 H 0.41211 -0.01051 0.33140
 C253 C 0.51732 -0.18850 -0.02121
 C254 C 0.51637 -0.24230 -0.02332
 C255 C 0.46646 -0.25196 0.00034
 C256 C 0.41591 -0.20602 0.02567
 C257 C 0.41713 -0.15055 0.03073
 C258 C 0.46869 -0.14166 0.00571
 C259 C 0.36656 -0.10673 0.06159
 N260 N 0.31828 -0.11778 0.08135
 N261 N 0.31664 -0.16955 0.07305
 C262 C 0.36365 -0.21393 0.04580
 H263 H 0.55716 -0.18369 -0.04078
 H264 H 0.55540 -0.27681 -0.04302
 H265 H 0.36398 -0.06377 0.07172
 H266 H 0.35948 -0.25494 0.03982
 C267 C 0.46704 0.20033 0.04574
 C268 C 0.47002 0.25321 0.04550
 C269 C 0.51022 0.26067 0.00332
 C270 C 0.54894 0.21359 -0.03910
 C271 C 0.54538 0.15967 -0.03952
 C272 C 0.50432 0.15305 0.00395
 C273 C 0.58225 0.11461 -0.08452
 N274 N 0.62153 0.12284 -0.12426
 N275 N 0.62637 0.17302 -0.12243
 C276 C 0.59157 0.21859 -0.08124
 H277 H 0.43528 0.19629 0.07909
 H278 H 0.44013 0.28881 0.07819
 H279 H 0.58017 0.07302 -0.08924
 H280 H 0.59776 0.25818 -0.08183
 C281 C -0.17906 0.00489 0.53270
 C282 C -0.23211 0.00312 0.53024
 C283 C -0.25525 0.02126 0.48983
 C284 C -0.22224 0.04072 0.45017
 C285 C -0.16884 0.04413 0.45409
 C286 C -0.14647 0.02434 0.49464
 C287 C -0.13920 0.06700 0.41673
 N288 N -0.15923 0.08086 0.37530
 N289 N -0.20672 0.07324 0.36861
 C290 C -0.23842 0.05310 0.40400
 H291 H -0.16267 -0.01064 0.56387
 H292 H -0.25582 -0.01144 0.56143
 H293 H -0.10049 0.07433 0.42014
 H294 H -0.27507 0.04575 0.39462
 C295 C 0.20709 -0.01981 0.45076
 C296 C 0.26068 -0.01924 0.45274
 C297 C 0.28108 -0.03360 0.49569
 C298 C 0.24849 -0.05275 0.53518
 C299 C 0.19406 -0.05375 0.53298
 C300 C 0.17230 -0.03473 0.49168
 C301 C 0.16382 -0.07489 0.57171
 N302 N 0.18626 -0.09247 0.61052
 N303 N 0.23698 -0.09080 0.61300
 C304 C 0.26891 -0.07174 0.57663
 H305 H 0.19161 -0.00577 0.41847
 H306 H 0.28538 -0.00502 0.42195
 H307 H 0.12324 -0.07894 0.57086
 H308 H 0.31028 -0.07244 0.57994
 C309 C -0.00307 0.54064 1.18867
 C310 C -0.00009 0.53933 1.24168
 C311 C -0.02282 0.50484 1.26877
 C312 C -0.05031 0.47181 1.24234
 C313 C -0.05416 0.47383 1.18867
 C314 C -0.02862 0.50725 1.16107
 C315 C -0.08399 0.44252 1.16468
 N316 N -0.10598 0.40957 1.19171
 N317 N -0.10033 0.40592 1.24108
 C318 C -0.07317 0.43571 1.26723
 H319 H 0.01679 0.56631 1.16818
 H320 H 0.02098 0.56479 1.26146
 H321 H -0.09085 0.44443 1.12517
 H322 H -0.06963 0.43064 1.30706
 C323 C 0.03674 0.51945 0.81859
 C324 C 0.03971 0.51891 0.76386
 C325 C 0.01457 0.48691 0.73398
 C326 C -0.01308 0.45370 0.75961
 C327 C -0.01769 0.45553 0.81593
 C328 C 0.00846 0.48809 0.84526
 C329 C -0.04997 0.42589 0.84124
 N330 N -0.07250 0.39395 0.81105
 N331 N -0.06540 0.38984 0.75743
 C332 C -0.03639 0.41844 0.73066
 H333 H 0.05652 0.54484 0.84045
 H334 H 0.06076 0.54473 0.74499
 H335 H -0.05841 0.42818 0.88474
 H336 H -0.03165 0.41309 0.68699
   
