data_POSCAR
  _audit_creation_date              2014-09-24
  _audit_creation_method            'ToBaCCo'
  _symmetry_space_group_name_H-M    'P1'
  _symmetry_Int_Tables_number       1
  _symmetry_cell_setting            triclinic
  loop_
  _symmetry_equiv_pos_as_xyz
 x,y,z
_cell_length_a 34.5673
_cell_length_b 34.0465
_cell_length_c 34.3460
_cell_angle_alpha 89.771900
_cell_angle_beta 90.271300
_cell_angle_gamma 90.439200
loop_
  _atom_site_label
  _atom_site_type_symbol
  _atom_site_fract_x
  _atom_site_fract_y
  _atom_site_fract_z
N1 N 0.26732 0.16968 0.17745
 N2 N 0.26230 0.19848 0.15235
 C3 C 0.29020 0.19686 0.12513
 C4 C 0.31384 0.16544 0.13383
 C5 C 0.29858 0.14887 0.16717
 H6 H 0.29310 0.21683 0.10074
 H7 H 0.30924 0.12334 0.18254
 Cu8 Cu 0.21949 0.23487 0.15768
 Cu9 Cu 0.23249 0.16061 0.22102
 Cu10 Cu 0.15643 0.22551 0.23146
 N11 N 0.17718 0.27162 0.16426
 N12 N 0.15246 0.26757 0.19303
 C13 C 0.12573 0.29602 0.19044
 C14 C 0.13424 0.31912 0.15841
 C15 C 0.16704 0.30294 0.14247
 H16 H 0.10176 0.29952 0.21021
 H17 H 0.18202 0.31304 0.11669
 N18 N 0.16537 0.18107 0.26731
 N19 N 0.19424 0.15627 0.26319
 C20 C 0.19218 0.12888 0.29153
 C21 C 0.16059 0.13691 0.31452
 C22 C 0.14425 0.17013 0.29847
 H23 H 0.21200 0.10471 0.29513
 H24 H 0.11864 0.18491 0.30861
 H25 H 0.18418 0.18597 0.19592
 H26 H 0.21548 0.21839 0.22668
 N27 N 0.72314 -0.17640 0.19074
 N28 N 0.72799 -0.20516 0.16586
 C29 C 0.70251 -0.20123 0.13634
 C30 C 0.68036 -0.16836 0.14343
 C31 C 0.69417 -0.15332 0.17819
 H32 H 0.70004 -0.22102 0.11188
 H33 H 0.68392 -0.12760 0.19327
 Cu34 Cu 0.76610 -0.24580 0.17517
 Cu35 Cu 0.75420 -0.17175 0.23791
 Cu36 Cu 0.83716 -0.22861 0.24024
 N37 N 0.81276 -0.27710 0.17626
 N38 N 0.84063 -0.27009 0.20153
 C39 C 0.86952 -0.29568 0.19575
 C40 C 0.85910 -0.31991 0.16515
 C41 C 0.82294 -0.30733 0.15342
 H42 H 0.89604 -0.29660 0.21256
 H43 H 0.80544 -0.31917 0.12998
 N44 N 0.82782 -0.18537 0.27699
 N45 N 0.79626 -0.16376 0.27601
 C46 C 0.79868 -0.13631 0.30406
 C47 C 0.83323 -0.14116 0.32375
 C48 C 0.85095 -0.17250 0.30600
 H49 H 0.77703 -0.11430 0.30964
 H50 H 0.87883 -0.18465 0.31350
 H51 H 0.80060 -0.19285 0.20781
 H52 H 0.77823 -0.22754 0.24342
 N53 N 0.72768 0.17107 0.82058
 N54 N 0.73239 0.20022 0.84522
 C55 C 0.70405 0.19853 0.87203
 C56 C 0.68041 0.16676 0.86350
 C57 C 0.69614 0.15004 0.83070
 H58 H 0.70094 0.21863 0.89608
 H59 H 0.68559 0.12427 0.81556
 Cu60 Cu 0.77590 0.23655 0.84050
 Cu61 Cu 0.76294 0.16215 0.77749
 Cu62 Cu 0.83510 0.23197 0.76341
 N63 N 0.81974 0.27238 0.83487
 N64 N 0.84328 0.26979 0.80503
 C65 C 0.87143 0.29712 0.80845
 C66 C 0.86506 0.31802 0.84223
 C67 C 0.83203 0.30165 0.85828
 H68 H 0.89461 0.30151 0.78781
 H69 H 0.81828 0.31026 0.88511
 N70 N 0.82837 0.18577 0.72965
 N71 N 0.80133 0.15880 0.73543
 C72 C 0.80478 0.13062 0.70827
 C73 C 0.83541 0.14041 0.68438
 C74 C 0.84975 0.17545 0.69869
 H75 H 0.78642 0.10488 0.70594
 H76 H 0.87418 0.19195 0.68754
 H77 H 0.81135 0.19065 0.80038
 H78 H 0.77624 0.22032 0.77127
 N79 N 0.27573 -0.17118 0.81930
 N80 N 0.27101 -0.20044 0.84400
 C81 C 0.29918 -0.19877 0.87120
 C82 C 0.32277 -0.16691 0.86290
 C83 C 0.30717 -0.15009 0.82979
 H84 H 0.30220 -0.21890 0.89543
 H85 H 0.31767 -0.12418 0.81476
 Cu86 Cu 0.22759 -0.23682 0.83899
 Cu87 Cu 0.24044 -0.16215 0.77581
 Cu88 Cu 0.16797 -0.23171 0.76172
 N89 N 0.18387 -0.27273 0.83315
 N90 N 0.15999 -0.26985 0.80337
 C91 C 0.13188 -0.29722 0.80681
 C92 C 0.13869 -0.31849 0.84051
 C93 C 0.17189 -0.30226 0.85650
 H94 H 0.10847 -0.30145 0.78621
 H95 H 0.18595 -0.31113 0.88328
 N96 N 0.17478 -0.18549 0.72767
 N97 N 0.20198 -0.15865 0.73338
 C98 C 0.19864 -0.13052 0.70589
 C99 C 0.16792 -0.14021 0.68185
 C100 C 0.15342 -0.17513 0.69642
 H101 H 0.21717 -0.10492 0.70340
 H102 H 0.12892 -0.19155 0.68521
 H103 H 0.19210 -0.19056 0.79859
 H104 H 0.22692 -0.22024 0.76973
 N105 N 0.73363 -0.16955 0.82422
 N106 N 0.73794 -0.19906 0.84863
 C107 C 0.71010 -0.19739 0.87590
 C108 C 0.68721 -0.16524 0.86790
 C109 C 0.70285 -0.14826 0.83495
 H110 H 0.70675 -0.21785 0.89982
 H111 H 0.69278 -0.12213 0.82017
 Cu112 Cu 0.77963 -0.23661 0.84260
 Cu113 Cu 0.76868 -0.16023 0.78102
 Cu114 Cu 0.84482 -0.22485 0.77083
 N115 N 0.82321 -0.27196 0.83693
 N116 N 0.84867 -0.26701 0.80897
 C117 C 0.87603 -0.29477 0.81210
 C118 C 0.86717 -0.31836 0.84370
 C119 C 0.83348 -0.30317 0.85880
 H120 H 0.90059 -0.29745 0.79293
 H121 H 0.81794 -0.31384 0.88402
 N122 N 0.83606 -0.18039 0.73513
 N123 N 0.80715 -0.15565 0.73916
 C124 C 0.80929 -0.12822 0.71088
 C125 C 0.84097 -0.13622 0.68802
 C126 C 0.85728 -0.16943 0.70407
 H127 H 0.78942 -0.10411 0.70717
 H128 H 0.88290 -0.18422 0.69396
 H129 H 0.78561 -0.21787 0.77421
 H130 H 0.81602 -0.18656 0.80702
 N131 N 0.27485 0.17505 0.81039
 N132 N 0.27029 0.20416 0.83493
 C133 C 0.29599 0.20054 0.86427
 C134 C 0.31790 0.16751 0.85747
 C135 C 0.30383 0.15205 0.82305
 H136 H 0.29880 0.22063 0.88845
 H137 H 0.31397 0.12613 0.80825
 Cu138 Cu 0.23220 0.24473 0.82545
 Cu139 Cu 0.24356 0.17000 0.76345
 Cu140 Cu 0.16051 0.22671 0.76128
 N141 N 0.18549 0.27587 0.82453
 N142 N 0.15739 0.26859 0.79959
 C143 C 0.12853 0.29419 0.80547
 C144 C 0.13920 0.31863 0.83577
 C145 C 0.17546 0.30623 0.84724
 H146 H 0.10182 0.29498 0.78899
 H147 H 0.19311 0.31833 0.87042
 N148 N 0.16958 0.18310 0.72491
 N149 N 0.20122 0.16160 0.72581
 C150 C 0.19870 0.13392 0.69801
 C151 C 0.16398 0.13848 0.67857
 C152 C 0.14627 0.16989 0.69619
 H153 H 0.22041 0.11197 0.69243
 H154 H 0.11832 0.18192 0.68877
 H155 H 0.21939 0.22573 0.75754
 H156 H 0.19743 0.19140 0.79377
 N157 N 0.26780 -0.16385 0.17407
 N158 N 0.26460 -0.19433 0.15084
 C159 C 0.29485 -0.19454 0.12631
 C160 C 0.31811 -0.16245 0.13469
 C161 C 0.30017 -0.14359 0.16513
 H162 H 0.29930 -0.21595 0.10363
 H163 H 0.30942 -0.11667 0.17910
 Cu164 Cu 0.21995 -0.22926 0.15338
 Cu165 Cu 0.22813 -0.15138 0.21206
 Cu166 Cu 0.16741 -0.22972 0.23512
 N167 N 0.17707 -0.26578 0.16045
 N168 N 0.15621 -0.26545 0.19236
 C169 C 0.12888 -0.29374 0.19015
 C170 C 0.13296 -0.31274 0.15495
 C171 C 0.16380 -0.29439 0.13683
 H172 H 0.10796 -0.30022 0.21263
 H173 H 0.17565 -0.30147 0.10866
 N174 N 0.17270 -0.18258 0.26781
 N175 N 0.19521 -0.15246 0.25864
 C176 C 0.19173 -0.12454 0.28603
 C177 C 0.16559 -0.13772 0.31353
 C178 C 0.15405 -0.17452 0.30113
 H179 H 0.20696 -0.09668 0.28591
 H180 H 0.13327 -0.19376 0.31513
 H181 H 0.22336 -0.20973 0.22157
 H182 H 0.18126 -0.18752 0.19563
 N183 N 0.72656 0.16733 0.18006
 N184 N 0.73195 0.19596 0.15479
 C185 C 0.70376 0.19446 0.12763
 C186 C 0.67951 0.16331 0.13647
 C187 C 0.69470 0.14672 0.16990
 H188 H 0.70108 0.21433 0.10316
 H189 H 0.68361 0.12135 0.18539
 Cu190 Cu 0.77550 0.23207 0.15962
 Cu191 Cu 0.76167 0.15849 0.22372
 Cu192 Cu 0.83908 0.22329 0.23329
 N193 N 0.81862 0.26854 0.16559
 N194 N 0.84359 0.26472 0.19433
 C195 C 0.87082 0.29303 0.19137
 C196 C 0.86232 0.31578 0.15912
 C197 C 0.82904 0.29956 0.14344
 H198 H 0.89501 0.29677 0.21112
 H199 H 0.81387 0.30952 0.11767
 N200 N 0.82959 0.17948 0.26971
 N201 N 0.80037 0.15456 0.26588
 C202 C 0.80232 0.12758 0.29463
 C203 C 0.83416 0.13614 0.31756
 C204 C 0.85075 0.16915 0.30108
 H205 H 0.78221 0.10344 0.29860
 H206 H 0.87659 0.18418 0.31108
 H207 H 0.77974 0.21621 0.22875
 H208 H 0.81009 0.18333 0.19830
 C209 C 0.14333 0.03371 0.58064
 C210 C 0.14532 -0.00206 0.60066
 C211 C 0.14584 -0.03788 0.58087
 C212 C 0.14575 -0.03802 0.53967
 C213 C 0.14382 -0.00196 0.51894
 C214 C 0.14283 0.03404 0.53950
 C215 C 0.14285 0.06948 0.51843
 C216 C 0.14265 0.06960 0.47789
 C217 C 0.14227 0.03428 0.45687
 C218 C 0.14352 -0.00186 0.47756
 C219 C 0.14911 -0.07313 0.51869
 C220 C 0.14896 -0.07305 0.47816
 C221 C 0.14522 -0.03786 0.45698
 C222 C 0.14473 -0.03754 0.41577
 C223 C 0.14379 -0.00161 0.39588
 C224 C 0.14219 0.03414 0.41570
 H225 H 0.14385 0.09755 0.53302
 H226 H 0.14362 0.09778 0.46332
 H227 H 0.15289 -0.10103 0.53331
 H228 H 0.15278 -0.10089 0.46377
 H229 H 0.14493 -0.00205 0.63220
 H230 H 0.14292 -0.00148 0.36435
 C231 C 0.85748 0.03750 0.58518
 C232 C 0.85810 0.00189 0.60561
 C233 C 0.85912 -0.03415 0.58627
 C234 C 0.85836 -0.03493 0.54513
 C235 C 0.85743 0.00089 0.52394
 C236 C 0.85676 0.03723 0.54400
 C237 C 0.85384 0.07221 0.52239
 C238 C 0.85308 0.07167 0.48187
 C239 C 0.85509 0.03612 0.46138
 C240 C 0.85649 0.00034 0.48258
 C241 C 0.85699 -0.07058 0.52467
 C242 C 0.85605 -0.07111 0.48415
 C243 C 0.85638 -0.03600 0.46254
 C244 C 0.85519 -0.03630 0.42141
 C245 C 0.85362 -0.00077 0.40093
 C246 C 0.85427 0.03534 0.42022
 H247 H 0.85124 0.10038 0.53651
 H248 H 0.84995 0.09945 0.46686
 H249 H 0.85577 -0.09851 0.53972
 H250 H 0.85425 -0.09939 0.47002
 H251 H 0.85920 0.00227 0.63713
 H252 H 0.85355 -0.00122 0.36939
 C253 C 0.41466 0.14682 0.03323
 C254 C 0.39508 0.14732 -0.00251
 C255 C 0.41505 0.14665 -0.03781
 C256 C 0.45594 0.14680 -0.03767
 C257 C 0.47627 0.14651 -0.00172
 C258 C 0.45559 0.14681 0.03386
 C259 C 0.47638 0.14857 0.06906
 C260 C 0.51665 0.14838 0.06943
 C261 C 0.53771 0.14652 0.03460
 C262 C 0.51738 0.14646 -0.00135
 C263 C 0.47701 0.14871 -0.07251
 C264 C 0.51728 0.14885 -0.07215
 C265 C 0.53805 0.14693 -0.03695
 C266 C 0.57897 0.14694 -0.03634
 C267 C 0.59854 0.14709 -0.00061
 C268 C 0.57861 0.14623 0.03474
 H269 H 0.46183 0.15098 0.09672
 H270 H 0.53103 0.15063 0.09736
 H271 H 0.46265 0.15104 -0.10044
 H272 H 0.53187 0.15129 -0.09983
 H273 H 0.36375 0.14657 -0.00286
 H274 H 0.62987 0.14626 -0.00033
 C275 C 0.42257 0.85301 -0.03455
 C276 C 0.40236 0.85286 0.00062
 C277 C 0.42165 0.85380 0.03651
 C278 C 0.46254 0.85369 0.03751
 C279 C 0.48351 0.85360 0.00211
 C280 C 0.46348 0.85301 -0.03404
 C281 C 0.48485 0.85096 -0.06864
 C282 C 0.52512 0.85102 -0.06789
 C283 C 0.54557 0.85304 -0.03250
 C284 C 0.52461 0.85353 0.00288
 C285 C 0.48297 0.85223 0.07294
 C286 C 0.52324 0.85207 0.07368
 C287 C 0.54463 0.85342 0.03902
 C288 C 0.58554 0.85321 0.03951
 C289 C 0.60577 0.85251 0.00437
 C290 C 0.58647 0.85314 -0.03151
 H291 H 0.47074 0.84845 -0.09668
 H292 H 0.53997 0.84853 -0.09539
 H293 H 0.46808 0.85031 0.10050
 H294 H 0.53734 0.85005 0.10177
 H295 H 0.37103 0.85362 0.00004
 H296 H 0.63711 0.85313 0.00495
 C297 C -0.03960 0.58458 0.13796
 C298 C -0.00455 0.60538 0.13740
 C299 C 0.03091 0.58604 0.13542
 C300 C 0.03174 0.54456 0.13524
 C301 C -0.00347 0.52298 0.13607
 C302 C -0.03928 0.54303 0.13763
 C303 C -0.07368 0.52098 0.14042
 C304 C -0.07310 0.48012 0.14006
 C305 C -0.03808 0.45970 0.13724
 C306 C -0.00285 0.48126 0.13609
 C307 C 0.06690 0.52415 0.13580
 C308 C 0.06752 0.48325 0.13621
 C309 C 0.03299 0.46121 0.13569
 C310 C 0.03328 0.41964 0.13632
 C311 C -0.00178 0.39888 0.13741
 C312 C -0.03730 0.41822 0.13715
 H313 H -0.10142 0.53494 0.14377
 H314 H -0.10043 0.46476 0.14306
 H315 H 0.09436 0.53956 0.13688
 H316 H 0.09543 0.46922 0.13770
 H317 H -0.00492 0.63720 0.13710
 H318 H -0.00143 0.36707 0.13705
 C319 C 0.03742 0.41671 0.86278
 C320 C 0.00210 0.39638 0.86257
 C321 C -0.03315 0.41616 0.86405
 C322 C -0.03340 0.45767 0.86462
 C323 C 0.00212 0.47878 0.86438
 C324 C 0.03768 0.45827 0.86326
 C325 C 0.07242 0.47988 0.86108
 C326 C 0.07238 0.52076 0.86142
 C327 C 0.03759 0.54163 0.86359
 C328 C 0.00208 0.52051 0.86449
 C329 C -0.06827 0.47859 0.86389
 C330 C -0.06830 0.51950 0.86388
 C331 C -0.03347 0.54104 0.86477
 C332 C -0.03320 0.58259 0.86441
 C333 C 0.00210 0.60292 0.86315
 C334 C 0.03735 0.58312 0.86336
 H335 H 0.10003 0.46554 0.85819
 H336 H 0.09994 0.53582 0.85902
 H337 H -0.09592 0.46359 0.86242
 H338 H -0.09600 0.53395 0.86230
 H339 H 0.00206 0.36456 0.86262
 H340 H 0.00217 0.63475 0.86345
 N341 N 0.39680 0.11761 0.09583
 N342 N 0.37002 0.12142 0.12302
 C343 C 0.34763 0.15182 0.11208
 C344 C 0.36141 0.16653 0.07733
 N345 N 0.39234 0.14465 0.06839
 H346 H 0.34991 0.19038 0.05997
 N347 N 0.60334 0.88285 0.10186
 N348 N 0.62907 0.87810 0.13019
 C349 C 0.65017 0.84635 0.12085
 C350 C 0.63663 0.83177 0.08589
 N351 N 0.60719 0.85512 0.07526
 H352 H 0.64712 0.80688 0.06961
 N353 N 0.59674 0.11827 -0.09887
 N354 N 0.62369 0.12240 -0.12593
 C355 C 0.64628 0.15291 -0.11498
 C356 C 0.63243 0.16737 -0.08036
 N357 N 0.60128 0.14523 -0.07149
 H358 H 0.64409 0.19117 -0.06298
 N359 N 0.40584 0.88167 -0.09779
 N360 N 0.37932 0.87753 -0.12551
 C361 C 0.35661 0.84698 -0.11492
 C362 C 0.36993 0.83251 -0.07985
 N363 N 0.40089 0.85468 -0.07034
 H364 H 0.35802 0.80870 -0.06258
 N365 N 0.09560 0.40191 0.10802
 N366 N 0.12289 0.37513 0.11275
 C367 C 0.11252 0.35306 0.14374
 C368 C 0.07805 0.36706 0.15786
 N369 N 0.06865 0.39776 0.13505
 H370 H 0.06107 0.35572 0.18187
 N371 N 0.09877 0.60315 0.89288
 N372 N 0.12634 0.62994 0.88784
 C373 C 0.11694 0.65037 0.85546
 C374 C 0.08269 0.63534 0.84078
 N375 N 0.07254 0.60575 0.86479
 H376 H 0.06643 0.64512 0.81558
 N377 N -0.10382 0.60129 0.11283
 N378 N -0.13160 0.62705 0.11927
 C379 C -0.11969 0.64944 0.14941
 C380 C -0.08372 0.63667 0.16125
 N381 N -0.07507 0.60633 0.13800
 H382 H -0.06557 0.64812 0.18441
 N383 N -0.09383 0.39567 0.89452
 N384 N -0.12153 0.36896 0.88974
 C385 C -0.11289 0.34896 0.85712
 C386 C -0.07899 0.36418 0.84204
 N387 N -0.06826 0.39344 0.86604
 H388 H -0.06334 0.35477 0.81653
 N389 N 0.11230 0.09649 0.39718
 N390 N 0.11607 0.12425 0.37025
 C391 C 0.14676 0.11442 0.34835
 C392 C 0.16170 0.07980 0.36260
 N393 N 0.13966 0.06977 0.39328
 H394 H 0.18583 0.06318 0.35155
 N395 N 0.88426 0.10207 0.60178
 N396 N 0.87951 0.12994 0.62814
 C397 C 0.84994 0.11822 0.65098
 C398 C 0.83671 0.08233 0.63789
 N399 N 0.85858 0.07347 0.60693
 H400 H 0.81373 0.06422 0.64981
 N401 N 0.11929 -0.10240 0.59813
 N402 N 0.12402 -0.13008 0.62494
 C403 C 0.15348 -0.11815 0.64801
 C404 C 0.16667 -0.08229 0.63458
 N405 N 0.14487 -0.07368 0.60320
 H406 H 0.18956 -0.06405 0.64654
 N407 N 0.88532 -0.09809 0.40278
 N408 N 0.88069 -0.12633 0.37668
 C409 C 0.84842 -0.11770 0.35626
 C410 C 0.83340 -0.08329 0.37054
 N411 N 0.85705 -0.07221 0.39974
 H412 H 0.80822 -0.06746 0.36039
 N413 N 0.60482 0.88306 -0.09358
 N414 N 0.63160 0.87933 -0.12076
 C415 C 0.65366 0.84856 -0.11016
 C416 C 0.63969 0.83354 -0.07562
 N417 N 0.60899 0.85562 -0.06647
 H418 H 0.65087 0.80929 -0.05858
 N419 N 0.39752 0.11676 -0.10011
 N420 N 0.37164 0.12112 -0.12836
 C421 C 0.34998 0.15239 -0.11884
 C422 C 0.36326 0.16707 -0.08387
 N423 N 0.39317 0.14429 -0.07338
 H424 H 0.35233 0.19174 -0.06757
 N425 N 0.40322 0.88412 0.09806
 N426 N 0.37567 0.88098 0.12464
 C427 C 0.35318 0.85025 0.11411
 C428 C 0.36768 0.83466 0.08028
 N429 N 0.39908 0.85636 0.07141
 H430 H 0.35610 0.81057 0.06324
 N431 N 0.59532 0.11654 0.09754
 N432 N 0.62212 0.11991 0.12508
 C433 C 0.64531 0.15010 0.11453
 C434 C 0.63199 0.16514 0.07972
 N435 N 0.60056 0.14368 0.07028
 H436 H 0.64418 0.18892 0.06259
 N437 N -0.09504 0.60083 0.89338
 N438 N -0.12227 0.62769 0.88883
 C439 C -0.11202 0.64969 0.85774
 C440 C -0.07770 0.63552 0.84335
 N441 N -0.06828 0.60485 0.86614
 H442 H -0.06088 0.64658 0.81909
 N443 N -0.09964 0.39913 0.10883
 N444 N -0.12682 0.37189 0.11354
 C445 C -0.11587 0.34974 0.14424
 C446 C -0.08114 0.36411 0.15819
 N447 N -0.07220 0.39513 0.13557
 H448 H -0.06386 0.35301 0.18214
 N449 N 0.10104 0.39916 0.88886
 N450 N 0.12866 0.37315 0.88269
 C451 C 0.11693 0.35102 0.85232
 C452 C 0.08129 0.36416 0.84005
 N453 N 0.07260 0.39449 0.86328
 H454 H 0.06343 0.35296 0.81655
 N455 N 0.09066 0.60692 0.10348
 N456 N 0.11812 0.63401 0.10743
 C457 C 0.10987 0.65422 0.14001
 C458 C 0.07650 0.63882 0.15590
 N459 N 0.06565 0.60918 0.13245
 H460 H 0.06132 0.64839 0.18163
 N461 N 0.88906 -0.09630 0.60510
 N462 N 0.88536 -0.12392 0.63218
 C463 C 0.85481 -0.11385 0.65418
 C464 C 0.83992 -0.07924 0.63988
 N465 N 0.86183 -0.06948 0.60906
 H466 H 0.81584 -0.06254 0.65092
 N467 N 0.12005 -0.10313 0.39957
 N468 N 0.12462 -0.13037 0.37256
 C469 C 0.15220 -0.11686 0.34821
 C470 C 0.16442 -0.08054 0.36107
 N471 N 0.14400 -0.07320 0.39344
 H472 H 0.18581 -0.06119 0.34812
 N473 N 0.88267 0.09850 0.40133
 N474 N 0.87848 0.12575 0.37402
 C475 C 0.84809 0.11452 0.35185
 C476 C 0.83378 0.07954 0.36630
 N477 N 0.85589 0.07075 0.39739
 H478 H 0.81008 0.06189 0.35509
 N479 N 0.11195 0.09466 0.59992
 N480 N 0.11625 0.12289 0.62608
 C481 C 0.14878 0.11474 0.64628
 C482 C 0.16428 0.08064 0.63184
 N483 N 0.14066 0.06926 0.60275
 H484 H 0.18987 0.06530 0.64168
   
