data_POSCAR
  _audit_creation_date              2014-09-24
  _audit_creation_method            'ToBaCCo'
  _symmetry_space_group_name_H-M    'P1'
  _symmetry_Int_Tables_number       1
  _symmetry_cell_setting            triclinic
  loop_
  _symmetry_equiv_pos_as_xyz
 x,y,z
_cell_length_a 29.7904
_cell_length_b 29.8312
_cell_length_c 29.8381
_cell_angle_alpha 90.047000
_cell_angle_beta 90.032700
_cell_angle_gamma 89.943800
loop_
  _atom_site_label
  _atom_site_type_symbol
  _atom_site_fract_x
  _atom_site_fract_y
  _atom_site_fract_z
C1 C 0.24918 1.00099 -0.02313
 C2 C 0.24770 1.00112 0.02262
 C3 C 0.24449 0.95884 0.04915
 C4 C 0.25138 1.04283 0.05043
 C5 C 0.24794 1.04268 -0.05047
 C6 C 0.25191 0.95887 -0.04995
 C7 C 0.21184 0.95600 0.08304
 C8 C 0.21298 0.92132 0.11434
 C9 C 0.24610 0.88807 0.11164
 C10 C 0.27749 0.88940 0.07654
 C11 C 0.27728 0.92505 0.04603
 C12 C 0.22658 1.08215 0.04196
 C13 C 0.22980 1.11914 0.07089
 C14 C 0.25423 1.11590 0.11135
 C15 C 0.27835 1.07616 0.11978
 C16 C 0.27822 1.04116 0.08912
 C17 C 0.28070 1.07640 -0.04657
 C18 C 0.27978 1.11363 -0.07527
 C19 C 0.24728 1.11652 -0.10929
 C20 C 0.21486 1.08275 -0.11322
 C21 C 0.21494 1.04648 -0.08387
 C22 C 0.28516 0.95559 -0.08316
 C23 C 0.28572 0.91960 -0.11291
 C24 C 0.25364 0.88549 -0.10955
 C25 C 0.22130 0.88750 -0.07533
 C26 C 0.21993 0.92438 -0.04617
 H27 H 0.18656 0.98193 0.08643
 H28 H 0.18824 0.92064 0.14093
 H29 H 0.30342 0.86405 0.07409
 H30 H 0.30365 0.92714 0.02116
 H31 H 0.20395 1.08416 0.01368
 H32 H 0.21022 1.14880 0.06324
 H33 H 0.29817 1.01173 0.09664
 H34 H 0.30714 1.07360 -0.02182
 H35 H 0.30541 1.13916 -0.07212
 H36 H 0.18949 1.08436 -0.13922
 H37 H 0.18964 1.02070 -0.08778
 H38 H 0.31003 0.98180 -0.08691
 H39 H 0.31089 0.91871 -0.13910
 H40 H 0.19580 0.86178 -0.07267
 H41 H 0.19321 0.92665 -0.02170
 H42 H 0.29846 1.07219 0.14981
 C43 C 0.75249 0.49713 0.47561
 C44 C 0.75394 0.49670 0.52126
 C45 C 0.75586 0.45485 0.54844
 C46 C 0.75276 0.53856 0.54831
 C47 C 0.75462 0.53962 0.44944
 C48 C 0.74917 0.45558 0.44797
 C49 C 0.72347 0.42082 0.54448
 C50 C 0.72262 0.38540 0.57532
 C51 C 0.75277 0.38468 0.61153
 C52 C 0.78544 0.41817 0.61502
 C53 C 0.78739 0.45246 0.58346
 C54 C 0.72081 0.54192 0.58272
 C55 C 0.72227 0.57728 0.61304
 C56 C 0.75498 0.61064 0.60897
 C57 C 0.78596 0.60866 0.57358
 C58 C 0.78544 0.57227 0.54386
 C59 C 0.78687 0.54317 0.41537
 C60 C 0.78671 0.57965 0.38632
 C61 C 0.75484 0.61389 0.39117
 C62 C 0.72359 0.61164 0.42630
 C63 C 0.72298 0.57430 0.45487
 C64 C 0.77945 0.41963 0.45260
 C65 C 0.77762 0.38313 0.42299
 C66 C 0.74679 0.38304 0.38736
 C67 C 0.71660 0.41877 0.38285
 C68 C 0.71743 0.45434 0.41311
 H69 H 0.69800 0.42245 0.51864
 H70 H 0.69719 0.35978 0.57212
 H71 H 0.80927 0.41797 0.64247
 H72 H 0.81254 0.47838 0.58742
 H73 H 0.69547 0.51624 0.58692
 H74 H 0.69789 0.57858 0.63987
 H75 H 0.81110 0.56981 0.51830
 H76 H 0.81143 0.51682 0.41040
 H77 H 0.81106 0.58076 0.35938
 H78 H 0.69835 0.63748 0.43013
 H79 H 0.69710 0.57183 0.48020
 H80 H 0.80513 0.42030 0.47826
 H81 H 0.80145 0.35594 0.42672
 H82 H 0.69238 0.41920 0.35574
 H83 H 0.69388 0.48166 0.40862
 H84 H 0.81155 0.63420 0.57014
 C85 C 0.75129 0.97310 0.99729
 C86 C 0.74765 1.01865 0.99989
 C87 C 0.74911 1.04366 1.04280
 C88 C 0.74487 1.04810 0.95966
 C89 C 0.75569 0.94990 0.95332
 C90 C 0.75053 0.94259 1.03732
 C91 C 0.71507 1.04016 1.07523
 C92 C 0.71527 1.06867 1.11267
 C93 C 0.74874 1.10153 1.11706
 C94 C 0.78308 1.10407 1.08525
 C95 C 0.78347 1.07525 1.04867
 C96 C 0.71228 1.08228 0.95881
 C97 C 0.71266 1.11482 0.92528
 C98 C 0.74488 1.11303 0.89127
 C99 C 0.77673 1.07832 0.89106
 C100 C 0.77738 1.04662 0.92555
 C101 C 0.79259 0.92140 0.94656
 C102 C 0.79405 0.89291 0.90958
 C103 C 0.75890 0.89268 0.87846
 C104 C 0.72312 0.92291 0.88350
 C105 C 0.72128 0.95116 0.92106
 C106 C 0.77342 0.95202 1.07759
 C107 C 0.77132 0.92228 1.11380
 C108 C 0.75028 0.88031 1.10906
 C109 C 0.72960 0.86981 1.06811
 C110 C 0.72836 0.90107 1.03350
 H111 H 0.68796 1.01640 1.07087
 H112 H 0.68827 1.06664 1.13687
 H113 H 0.80914 1.12910 1.08834
 H114 H 0.80989 1.07855 1.02394
 H115 H 0.68723 1.08453 0.98503
 H116 H 0.68779 1.14134 0.92581
 H117 H 0.80403 1.02196 0.92630
 H118 H 0.81937 0.91985 0.97110
 H119 H 0.82208 0.87016 0.90580
 H120 H 0.69554 0.92283 0.85984
 H121 H 0.69218 0.97238 0.92602
 H122 H 0.79374 0.98177 1.08119
 H123 H 0.78873 0.93094 1.14450
 H124 H 0.71283 0.83795 1.06326
 H125 H 0.71047 0.89225 1.00315
 H126 H 0.80218 1.07688 0.86520
 C127 C 0.24450 0.52285 0.49821
 C128 C 0.24477 0.47719 0.49988
 C129 C 0.24785 0.44816 0.45912
 C130 C 0.24231 0.45237 0.54309
 C131 C 0.24674 0.55144 0.53914
 C132 C 0.24243 0.54848 0.45556
 C133 C 0.21910 0.45313 0.42197
 C134 C 0.22122 0.42277 0.38606
 C135 C 0.25050 0.38583 0.38781
 C136 C 0.27861 0.38064 0.42506
 C137 C 0.27792 0.41181 0.45981
 C138 C 0.20947 0.41900 0.54780
 C139 C 0.20968 0.39063 0.58481
 C140 C 0.24215 0.39566 0.61841
 C141 C 0.27393 0.43021 0.61504
 C142 C 0.27452 0.45797 0.57716
 C143 C 0.27874 0.58598 0.54057
 C144 C 0.27870 0.61708 0.57537
 C145 C 0.24744 0.61367 0.61017
 C146 C 0.21625 0.57839 0.60991
 C147 C 0.21526 0.54798 0.57409
 C148 C 0.27555 0.54437 0.42224
 C149 C 0.27613 0.57411 0.38589
 C150 C 0.24461 0.60910 0.38345
 C151 C 0.21111 0.61249 0.41614
 C152 C 0.20971 0.58216 0.45150
 H153 H 0.19438 0.47971 0.42110
 H154 H 0.19873 0.42703 0.35785
 H155 H 0.30108 0.35228 0.42739
 H156 H 0.30024 0.40682 0.48805
 H157 H 0.18454 0.41390 0.52185
 H158 H 0.18501 0.36404 0.58681
 H159 H 0.30088 0.48269 0.57374
 H160 H 0.30318 0.58957 0.51393
 H161 H 0.30310 0.64390 0.57513
 H162 H 0.19161 0.57551 0.63643
 H163 H 0.18940 0.52252 0.57317
 H164 H 0.30177 0.51939 0.42525
 H165 H 0.30248 0.57132 0.36104
 H166 H 0.18644 0.63917 0.41469
 H167 H 0.18408 0.58613 0.47695
 H168 H 0.29965 0.43406 0.64040
 C169 C 0.99645 0.24938 0.02621
 C170 C 0.99774 0.24913 -0.01967
 C171 C 1.04034 0.25387 -0.04578
 C172 C 0.95647 0.24540 -0.04841
 C173 C 0.95347 0.24994 0.05180
 C174 C 1.03746 0.24872 0.05538
 C175 C 1.04070 0.28442 -0.08157
 C176 C 1.07550 0.28448 -0.11251
 C177 C 1.11289 0.25631 -0.10684
 C178 C 1.11458 0.22814 -0.06897
 C179 C 1.07765 0.22545 -0.03983
 C180 C 0.91787 0.27182 -0.04157
 C181 C 0.88233 0.27068 -0.07236
 C182 C 0.88645 0.24655 -0.11276
 C183 C 0.92527 0.22080 -0.11988
 C184 C 0.95879 0.21885 -0.08740
 C185 C 0.92172 0.21524 0.04837
 C186 C 0.88517 0.21360 0.07797
 C187 C 0.88104 0.24555 0.11234
 C188 C 0.91222 0.28053 0.11512
 C189 C 0.94766 0.28305 0.08482
 C190 C 1.03702 0.22113 0.09360
 C191 C 1.07147 0.22294 0.12499
 C192 C 1.10929 0.25002 0.11765
 C193 C 1.11106 0.27626 0.07846
 C194 C 1.07449 0.27729 0.04881
 H195 H 1.01257 0.30683 -0.08697
 H196 H 1.07335 0.30729 -0.14068
 H197 H 1.14278 0.20576 -0.06381
 H198 H 1.07785 0.20065 -0.01337
 H199 H 0.91553 0.29446 -0.01335
 H200 H 0.85302 0.29126 -0.06602
 H201 H 0.98790 0.19802 -0.09383
 H202 H 0.92602 0.18879 0.02387
 H203 H 0.86148 0.18630 0.07543
 H204 H 0.90945 0.30564 0.14124
 H205 H 0.97188 0.30989 0.08833
 H206 H 1.00913 0.19874 0.09992
 H207 H 1.06910 0.20170 0.15435
 H208 H 1.13944 0.29804 0.07212
 H209 H 1.07513 0.30071 0.02117
 H210 H 0.92930 0.20103 -0.15011
 C211 C 0.50100 0.75138 0.52288
 C212 C 0.49986 0.75116 0.47724
 C213 C 0.45733 0.74834 0.45142
 C214 C 0.54111 0.75300 0.44901
 C215 C 0.54387 0.74923 0.54831
 C216 C 0.45970 0.75282 0.55121
 C217 C 0.45366 0.71489 0.41853
 C218 C 0.41811 0.71518 0.38836
 C219 C 0.38501 0.74835 0.39100
 C220 C 0.38699 0.78059 0.42524
 C221 C 0.42345 0.78102 0.45500
 C222 C 0.57613 0.72163 0.45341
 C223 C 0.61204 0.72174 0.42310
 C224 C 0.61235 0.75187 0.38697
 C225 C 0.57749 0.78304 0.38254
 C226 C 0.54257 0.78398 0.41356
 C227 C 0.57787 0.78156 0.54324
 C228 C 0.61566 0.78079 0.57127
 C229 C 0.61894 0.74862 0.60540
 C230 C 0.58547 0.71600 0.60980
 C231 C 0.54854 0.71604 0.58128
 C232 C 0.45821 0.78316 0.58726
 C233 C 0.42307 0.78203 0.61806
 C234 C 0.38794 0.75128 0.61291
 C235 C 0.38835 0.72179 0.57621
 C236 C 0.42446 0.72184 0.54610
 H237 H 0.47943 0.68946 0.41512
 H238 H 0.41678 0.68990 0.36237
 H239 H 0.36166 0.80656 0.42748
 H240 H 0.42609 0.80762 0.47957
 H241 H 0.57513 0.69640 0.47944
 H242 H 0.63855 0.69716 0.42671
 H243 H 0.51583 0.80822 0.40917
 H244 H 0.57450 0.80801 0.51864
 H245 H 0.64106 0.80651 0.56785
 H246 H 0.58753 0.69091 0.63599
 H247 H 0.52273 0.69090 0.58585
 H248 H 0.48506 0.80713 0.59223
 H249 H 0.42333 0.80519 0.64605
 H250 H 0.36174 0.69754 0.57194
 H251 H 0.42539 0.69698 0.51968
 H252 H 0.57727 0.80664 0.35496
 C253 C 0.02289 0.75128 -0.00105
 C254 C -0.02301 0.74930 -0.00055
 C255 C -0.04992 0.74506 0.04189
 C256 C -0.05066 0.75194 -0.04246
 C257 C 0.05033 0.74911 -0.04290
 C258 C 0.05054 0.75371 0.04045
 C259 C -0.08764 0.71669 0.04154
 C260 C -0.11860 0.71736 0.07646
 C261 C -0.11109 0.74374 0.11473
 C262 C -0.07156 0.76953 0.11704
 C263 C -0.04244 0.77184 0.08013
 C264 C -0.04296 0.72465 -0.08027
 C265 C -0.07141 0.72721 -0.11769
 C266 C -0.11071 0.75343 -0.11604
 C267 C -0.11906 0.77925 -0.07752
 C268 C -0.08860 0.77992 -0.04225
 C269 C 0.04367 0.77788 -0.07970
 C270 C 0.07251 0.77591 -0.11684
 C271 C 0.11087 0.74825 -0.11580
 C272 C 0.11773 0.72029 -0.07859
 C273 C 0.08716 0.71967 -0.04353
 C274 C 0.08355 0.78725 0.04345
 C275 C 0.11577 0.78613 0.07730
 C276 C 0.11489 0.75209 0.10952
 C277 C 0.08088 0.71951 0.10792
 C278 C 0.04944 0.71972 0.07301
 H279 H -0.09443 0.69541 0.01290
 H280 H -0.14822 0.69645 0.07373
 H281 H -0.06503 0.79076 0.14580
 H282 H -0.01510 0.79564 0.08113
 H283 H -0.01533 0.70110 -0.08082
 H284 H -0.06437 0.70621 -0.14649
 H285 H -0.09573 0.80117 -0.01365
 H286 H 0.01659 0.80210 -0.07956
 H287 H 0.06663 0.79836 -0.14476
 H288 H 0.14648 0.69806 -0.07683
 H289 H 0.09326 0.69704 -0.01580
 H290 H 0.08538 0.81342 0.01836
 H291 H 0.14148 0.81179 0.07830
 H292 H 0.07981 0.69294 0.13261
 H293 H 0.02521 0.69279 0.07065
 H294 H -0.14889 0.79978 -0.07484
 C295 C 0.47329 0.25105 0.50248
 C296 C 0.51899 0.25008 0.50399
 C297 C 0.54702 0.24580 0.46297
 C298 C 0.54517 0.25389 0.54627
 C299 C 0.44459 0.25100 0.54342
 C300 C 0.44838 0.25292 0.45924
 C301 C 0.58118 0.21326 0.46226
 C302 C 0.61217 0.21199 0.42736
 C303 C 0.60881 0.24247 0.39192
 C304 C 0.57394 0.27414 0.39156
 C305 C 0.54377 0.27645 0.42737
 C306 C 0.54107 0.22266 0.58129
 C307 C 0.57146 0.22341 0.61724
 C308 C 0.60700 0.25437 0.61763
 C309 C 0.61016 0.28616 0.58336
 C310 C 0.57933 0.28625 0.54834
 C311 C 0.45053 0.28188 0.57863
 C312 C 0.42075 0.28240 0.61501
 C313 C 0.38364 0.25340 0.61570
 C314 C 0.37752 0.22296 0.58048
 C315 C 0.40792 0.22142 0.54505
 C316 C 0.41860 0.28864 0.45207
 C317 C 0.39100 0.28933 0.41439
 C318 C 0.39265 0.25447 0.38299
 C319 C 0.42370 0.21952 0.38885
 C320 C 0.45120 0.21850 0.42706
 H321 H 0.58463 0.18960 0.48958
 H322 H 0.63890 0.18735 0.42809
 H323 H 0.57133 0.29829 0.36461
 H324 H 0.51884 0.30287 0.42786
 H325 H 0.51560 0.19683 0.57995
 H326 H 0.56865 0.19849 0.64346
 H327 H 0.58322 0.31056 0.52167
 H328 H 0.47744 0.30619 0.57756
 H329 H 0.42560 0.30661 0.64165
 H330 H 0.34910 0.20032 0.58042
 H331 H 0.40233 0.19752 0.51827
 H332 H 0.41593 0.31550 0.47638
 H333 H 0.36754 0.31666 0.41015
 H334 H 0.42496 0.19199 0.36519
 H335 H 0.47351 0.19030 0.43228
 H336 H 0.63699 0.31054 0.58340
 C337 C 1.00150 0.02087 0.24889
 C338 C 1.00146 -0.02496 0.24837
 C339 C 0.95951 -0.05220 0.25315
 C340 C 1.04337 -0.05226 0.24354
 C341 C 1.04345 0.04800 0.25077
 C342 C 0.95954 0.04806 0.24794
 C343 C 0.96059 -0.08972 0.28167
 C344 C 0.92588 -0.12089 0.28154
 C345 C 0.88738 -0.11380 0.25534
 C346 C 0.88459 -0.07456 0.22918
 C347 C 0.92115 -0.04516 0.22654
 C348 C 1.04236 -0.08975 0.21490
 C349 C 1.07678 -0.12133 0.21550
 C350 C 1.11490 -0.11465 0.24236
 C351 C 1.11770 -0.07540 0.26852
 C352 C 1.08142 -0.04561 0.27066
 C353 C 1.07704 0.04517 0.21775
 C354 C 1.11417 0.07407 0.21918
 C355 C 1.11728 0.10711 0.25268
 C356 C 1.08386 0.10963 0.28561
 C357 C 1.04763 0.08017 0.28490
 C358 C 0.95521 0.08130 0.21491
 C359 C 0.91866 0.11045 0.21504
 C360 C 0.88513 0.10643 0.24768
 C361 C 0.88850 0.07254 0.28016
 C362 C 0.92599 0.04406 0.28087
 H363 H 0.98959 -0.09611 0.30265
 H364 H 0.92901 -0.15031 0.30260
 H365 H 0.85565 -0.06836 0.20806
 H366 H 0.91979 -0.01780 0.20279
 H367 H 1.01356 -0.09585 0.19356
 H368 H 1.07377 -0.15069 0.19429
 H369 H 1.08267 -0.01837 0.29458
 H370 H 1.07404 0.02135 0.19051
 H371 H 1.13928 0.07209 0.19301
 H372 H 1.08550 0.13492 0.31164
 H373 H 1.02206 0.08318 0.31053
 H374 H 0.98081 0.08528 0.18944
 H375 H 0.91671 0.13648 0.18980
 H376 H 0.86320 0.06945 0.30603
 H377 H 0.92917 0.01950 0.30737
 H378 H 1.14642 -0.06945 0.29001
 C379 C 0.50171 0.52720 0.74922
 C380 C 0.50239 0.48147 0.74967
 C381 C 0.54430 0.45444 0.74628
 C382 C 0.46081 0.45418 0.75359
 C383 C 0.45900 0.55313 0.74625
 C384 C 0.54320 0.55512 0.75095
 C385 C 0.54581 0.41976 0.71438
 C386 C 0.58047 0.38843 0.71478
 C387 C 0.61506 0.39177 0.74635
 C388 C 0.61514 0.42763 0.77693
 C389 C 0.57947 0.45837 0.77747
 C390 C 0.42560 0.45749 0.72240
 C391 C 0.38915 0.42804 0.72473
 C392 C 0.38844 0.39383 0.75704
 C393 C 0.42351 0.39049 0.78806
 C394 C 0.45906 0.42074 0.78671
 C395 C 0.42457 0.54898 0.77826
 C396 C 0.38680 0.57704 0.77637
 C397 C 0.38386 0.61049 0.74342
 C398 C 0.41788 0.61419 0.71125
 C399 C 0.45480 0.58553 0.71237
 C400 C 0.54465 0.59136 0.78111
 C401 C 0.58026 0.62165 0.78047
 C402 C 0.61589 0.61572 0.75047
 C403 C 0.61545 0.57884 0.72116
 C404 C 0.57890 0.54930 0.72067
 H405 H 0.51897 0.41589 0.69016
 H406 H 0.58001 0.36115 0.69077
 H407 H 0.64153 0.43047 0.80174
 H408 H 0.57853 0.48407 0.80309
 H409 H 0.42685 0.48199 0.69569
 H410 H 0.36253 0.43063 0.70013
 H411 H 0.48605 0.41728 0.81081
 H412 H 0.42753 0.52503 0.80535
 H413 H 0.36117 0.57430 0.80194
 H414 H 0.41629 0.63999 0.68574
 H415 H 0.48097 0.58952 0.68749
 H416 H 0.51744 0.59687 0.80456
 H417 H 0.57994 0.64986 0.80336
 H418 H 0.64241 0.57403 0.69738
 H419 H 0.57805 0.52273 0.69597
 H420 H 0.42349 0.36428 0.81318
 C421 C 1.02535 1.00515 0.74875
 C422 C 0.97953 1.00262 0.74851
 C423 C 0.95555 0.95908 0.74524
 C424 C 0.94891 1.04258 0.75071
 C425 C 1.04965 1.04873 0.74834
 C426 C 1.05542 0.96465 0.74938
 C427 C 0.92465 0.95337 0.71020
 C428 C 0.89526 0.91720 0.71020
 C429 C 0.89686 0.88546 0.74469
 C430 C 0.92940 0.88941 0.77853
 C431 C 0.95825 0.92653 0.77922
 C432 C 0.90895 1.03882 0.77564
 C433 C 0.87585 1.07166 0.77345
 C434 C 0.88289 1.11114 0.74888
 C435 C 0.92377 1.11632 0.72571
 C436 C 0.95551 1.08159 0.72500
 C437 C 1.04576 1.08008 0.78341
 C438 C 1.07467 1.11721 0.78527
 C439 C 1.10847 1.12239 0.75288
 C440 C 1.11131 1.09181 0.71735
 C441 C 1.08193 1.05569 0.71484
 C442 C 1.09451 0.96609 0.77584
 C443 C 1.12612 0.93175 0.77411
 C444 C 1.11834 0.89320 0.74815
 C445 C 1.07847 0.89058 0.72295
 C446 C 1.04845 0.92681 0.72191
 H447 H 0.92189 0.97824 0.68390
 H448 H 0.87044 0.91453 0.68377
 H449 H 0.93077 0.86524 0.80557
 H450 H 0.98133 0.93080 0.80694
 H451 H 0.90252 1.00944 0.79594
 H452 H 0.84524 1.06661 0.79236
 H453 H 0.98441 1.08501 0.70339
 H454 H 1.02163 1.07489 0.81003
 H455 H 1.07224 1.14042 0.81310
 H456 H 1.13703 1.09541 0.69193
 H457 H 1.08566 1.03184 0.68769
 H458 H 1.10125 0.99454 0.79739
 H459 H 1.15606 0.93486 0.79454
 H460 H 1.07175 0.86171 0.70194
 H461 H 1.02043 0.92529 0.69894
 H462 H 0.93014 1.14611 0.70597
 C463 C 0.52425 0.49839 0.25082
 C464 C 0.47850 0.49972 0.24971
 C465 C 0.45012 0.45868 0.25186
 C466 C 0.45259 0.54221 0.24598
 C467 C 0.55261 0.53948 0.25397
 C468 C 0.54991 0.45562 0.24809
 C469 C 0.45409 0.42375 0.22045
 C470 C 0.42344 0.38818 0.22071
 C471 C 0.38741 0.38808 0.25108
 C472 C 0.38351 0.42283 0.28240
 C473 C 0.41484 0.45746 0.28312
 C474 C 0.41915 0.54510 0.21286
 C475 C 0.38898 0.58075 0.21246
 C476 C 0.39240 0.61494 0.24440
 C477 C 0.42717 0.61360 0.27618
 C478 C 0.45660 0.57696 0.27758
 C479 C 0.58723 0.54058 0.28602
 C480 C 0.61813 0.57565 0.28672
 C481 C 0.61445 0.61099 0.25607
 C482 C 0.57913 0.61094 0.22485
 C483 C 0.54896 0.57496 0.22315
 C484 C 0.54420 0.42072 0.27926
 C485 C 0.57240 0.38307 0.27803
 C486 C 0.60749 0.38073 0.24669
 C487 C 0.61272 0.41523 0.21535
 C488 C 0.58393 0.45200 0.21572
 H489 H 0.48006 0.42458 0.19511
 H490 H 0.42675 0.36170 0.19606
 H491 H 0.35613 0.42319 0.30630
 H492 H 0.41084 0.48420 0.30740
 H493 H 0.41527 0.51861 0.18830
 H494 H 0.36242 0.58127 0.18764
 H495 H 0.48132 0.57499 0.30411
 H496 H 0.59104 0.51349 0.30988
 H497 H 0.64511 0.57511 0.31109
 H498 H 0.57613 0.63771 0.20052
 H499 H 0.52364 0.57429 0.19714
 H500 H 0.51896 0.42323 0.30523
 H501 H 0.56835 0.35700 0.30291
 H502 H 0.63968 0.41405 0.19101
 H503 H 0.58911 0.47855 0.19151
 H504 H 0.43003 0.63960 0.30130
 O505 O 0.26428 0.13818 0.18287
 O506 O 0.30741 0.12368 0.25209
 O507 O 0.13988 0.18237 0.25903
 O508 O 0.11909 0.24381 0.29732
 O509 O 0.18412 0.25954 0.13613
 O510 O 0.25115 0.29896 0.11828
 O511 O 0.25468 0.31045 0.36424
 O512 O 0.20366 0.24700 0.37673
 O513 O 0.36971 0.24993 0.30673
 O514 O 0.37514 0.19647 0.23599
 O515 O 0.31190 0.36441 0.25357
 O516 O 0.24603 0.37703 0.19882
 O517 O 0.24790 0.36473 0.31124
 O518 O 0.20091 0.37914 0.24953
 O519 O 0.36684 0.31201 0.24518
 O520 O 0.38337 0.25526 0.19904
 O521 O 0.31709 0.25369 0.36186
 O522 O 0.26339 0.20133 0.37953
 O523 O 0.24079 0.18846 0.13114
 O524 O 0.29589 0.24750 0.11703
 O525 O 0.13398 0.24066 0.19001
 O526 O 0.12283 0.29649 0.25154
 O527 O 0.19300 0.13014 0.24188
 O528 O 0.24802 0.11737 0.29448
 Zr529 Zr 0.25239 0.16862 0.24549
 O530 O 0.29403 0.20751 0.28735
 Zr531 Zr 0.17150 0.24477 0.24958
 O532 O 0.20980 0.28766 0.29063
 Zr533 Zr 0.24650 0.24869 0.16791
 O534 O 0.28936 0.29032 0.20570
 Zr535 Zr 0.25544 0.24976 0.32833
 O536 O 0.21348 0.20622 0.29117
 Zr537 Zr 0.33139 0.25136 0.24701
 O538 O 0.29271 0.20964 0.20463
 Zr539 Zr 0.25083 0.32873 0.25060
 O540 O 0.20742 0.29035 0.20931
 O541 O 0.20793 0.20495 0.20584
 O542 O 0.29530 0.29264 0.29063
 C543 C 0.25319 0.14872 0.14253
 C544 C 0.15245 0.14179 0.25131
 C545 C 0.14408 0.25039 0.14928
 C546 C 0.25100 0.35162 0.35209
 C547 C 0.35786 0.25238 0.34810
 C548 C 0.35327 0.35256 0.24975
 H549 H 0.31347 0.18763 0.30544
 H550 H 0.30715 0.30928 0.18517
 H551 H 0.18846 0.18554 0.18724
 H552 H 0.18938 0.30518 0.31005
 H553 H 0.18461 0.22089 0.36901
 H554 H 0.13178 0.25521 0.32573
 H555 H 0.36882 0.26271 0.17019
 H556 H 0.31744 0.22352 0.12506
 H557 H 0.26650 0.17200 0.36451
 H558 H 0.22632 0.12757 0.31747
 H559 H 0.27466 0.37702 0.18204
 H560 H 0.23564 0.32561 0.13058
 H561 H 0.29954 0.09456 0.23797
 H562 H 0.37824 0.18012 0.26466
 H563 H 0.12880 0.31635 0.22565
 H564 H 0.17489 0.36738 0.26637
 O565 O 0.75418 0.86318 0.18434
 O566 O 0.69987 0.87623 0.24532
 O567 O 0.86472 0.81270 0.26215
 O568 O 0.88773 0.74932 0.29375
 O569 O 0.81510 0.73958 0.13675
 O570 O 0.75114 0.69627 0.12196
 O571 O 0.74928 0.69022 0.36868
 O572 O 0.80221 0.75038 0.37870
 O573 O 0.63556 0.75046 0.31160
 O574 O 0.62115 0.79737 0.25287
 O575 O 0.69009 0.63402 0.25838
 O576 O 0.75485 0.61931 0.20434
 O577 O 0.75408 0.63544 0.31586
 O578 O 0.80060 0.61845 0.25348
 O579 O 0.63573 0.68718 0.25145
 O580 O 0.62456 0.75135 0.19825
 O581 O 0.68879 0.74913 0.36634
 O582 O 0.74836 0.80173 0.37976
 O583 O 0.74946 0.80708 0.13302
 O584 O 0.70295 0.74288 0.12127
 O585 O 0.86861 0.75443 0.18894
 O586 O 0.87817 0.69704 0.25076
 O587 O 0.81361 0.86596 0.24354
 O588 O 0.75501 0.87776 0.29841
 Zr589 Zr 0.75350 0.82941 0.24635
 O590 O 0.71131 0.79205 0.28901
 Zr591 Zr 0.83221 0.75120 0.24966
 O592 O 0.79386 0.71051 0.29285
 Zr593 Zr 0.75362 0.74763 0.17071
 O594 O 0.71175 0.70695 0.21003
 Zr595 Zr 0.74974 0.75008 0.33091
 O596 O 0.79239 0.79143 0.29178
 Zr597 Zr 0.67182 0.74779 0.25125
 O598 O 0.71000 0.78903 0.20787
 Zr599 Zr 0.75116 0.66938 0.25458
 O600 O 0.79358 0.70615 0.21131
 O601 O 0.79528 0.79082 0.20609
 O602 O 0.70821 0.70693 0.29493
 C603 C 0.75103 0.84881 0.14382
 C604 C 0.85362 0.85358 0.25371
 C605 C 0.85623 0.74571 0.14852
 C606 C 0.75225 0.64893 0.35662
 C607 C 0.64788 0.75021 0.35288
 C608 C 0.64884 0.64637 0.25532
 H609 H 0.69199 0.81290 0.30612
 H610 H 0.69354 0.68765 0.19018
 H611 H 0.81431 0.80963 0.18649
 H612 H 0.81433 0.69307 0.31229
 H613 H 0.82407 0.77335 0.36885
 H614 H 0.87574 0.74198 0.32375
 H615 H 0.62886 0.72475 0.17889
 H616 H 0.67883 0.76388 0.13026
 H617 H 0.72854 0.82586 0.36867
 H618 H 0.77807 0.86796 0.32022
 H619 H 0.72706 0.62080 0.18624
 H620 H 0.76716 0.67028 0.13497
 H621 H 0.71192 0.90595 0.23650
 H622 H 0.63469 0.82485 0.24026
 H623 H 0.87165 0.67825 0.22417
 H624 H 0.82637 0.62935 0.27131
 O625 O 0.74623 0.13419 0.81558
 O626 O 0.69631 0.12141 0.75420
 O627 O 0.86200 0.18517 0.74058
 O628 O 0.88326 0.24806 0.70771
 O629 O 0.81214 0.25474 0.86715
 O630 O 0.74991 0.29976 0.88240
 O631 O 0.74625 0.30919 0.63449
 O632 O 0.79650 0.24793 0.62321
 O633 O 0.63040 0.25002 0.69316
 O634 O 0.61564 0.20625 0.75723
 O635 O 0.69065 0.36806 0.75013
 O636 O 0.75360 0.38243 0.79682
 O637 O 0.75176 0.36367 0.68761
 O638 O 0.80428 0.37512 0.75360
 O639 O 0.63534 0.31554 0.74812
 O640 O 0.62199 0.25286 0.80604
 O641 O 0.68324 0.25413 0.63836
 O642 O 0.73574 0.19878 0.62364
 O643 O 0.74731 0.18890 0.86890
 O644 O 0.69902 0.25385 0.88080
 O645 O 0.86441 0.24128 0.81332
 O646 O 0.87481 0.29970 0.75145
 O647 O 0.80911 0.13318 0.75709
 O648 O 0.74510 0.11983 0.70428
 Zr649 Zr 0.74839 0.16950 0.75486
 O650 O 0.70632 0.20827 0.71344
 Zr651 Zr 0.82841 0.24601 0.75249
 O652 O 0.79059 0.28784 0.70996
 Zr653 Zr 0.75074 0.24948 0.83247
 O654 O 0.70997 0.29227 0.79390
 Zr655 Zr 0.74509 0.24972 0.67208
 O656 O 0.78782 0.20680 0.70965
 Zr657 Zr 0.66850 0.25327 0.75237
 O658 O 0.70610 0.21011 0.79445
 Zr659 Zr 0.74988 0.32969 0.74948
 O660 O 0.79121 0.29101 0.79233
 O661 O 0.79109 0.20621 0.79564
 O662 O 0.70553 0.29376 0.70907
 C663 C 0.74579 0.14761 0.85642
 C664 C 0.84985 0.14467 0.74853
 C665 C 0.85282 0.24798 0.85440
 C666 C 0.74976 0.35028 0.64668
 C667 C 0.64234 0.25258 0.65197
 C668 C 0.64927 0.35632 0.74849
 H669 H 0.68714 0.18806 0.69541
 H670 H 0.69239 0.31188 0.81404
 H671 H 0.80971 0.18656 0.81485
 H672 H 0.81130 0.30476 0.69038
 H673 H 0.81652 0.22266 0.63120
 H674 H 0.87030 0.25139 0.67738
 H675 H 0.62467 0.28164 0.82231
 H676 H 0.67549 0.23235 0.87153
 H677 H 0.75359 0.17280 0.63377
 H678 H 0.77278 0.12237 0.68612
 H679 H 0.73330 0.37483 0.82191
 H680 H 0.76747 0.32518 0.87032
 H681 H 0.67331 0.13207 0.77565
 H682 H 0.62432 0.17988 0.73907
 H683 H 0.86993 0.31735 0.77915
 H684 H 0.82413 0.36954 0.72761
 O685 O 0.25664 0.86347 0.81489
 O686 O 0.30622 0.87387 0.74960
 O687 O 0.13711 0.81835 0.73857
 O688 O 0.11399 0.75579 0.70402
 O689 O 0.18395 0.74046 0.86178
 O690 O 0.25044 0.69957 0.87910
 O691 O 0.24993 0.68906 0.63342
 O692 O 0.19710 0.75169 0.62236
 O693 O 0.36431 0.75096 0.68822
 O694 O 0.37414 0.79965 0.76015
 O695 O 0.30734 0.63294 0.74723
 O696 O 0.23920 0.62329 0.79948
 O697 O 0.24444 0.63458 0.68642
 O698 O 0.19712 0.61993 0.74624
 O699 O 0.36226 0.68584 0.74435
 O700 O 0.38127 0.74004 0.79495
 O701 O 0.31128 0.74715 0.63351
 O702 O 0.25551 0.79857 0.61793
 O703 O 0.24470 0.80973 0.86763
 O704 O 0.29628 0.74876 0.87953
 O705 O 0.13159 0.76074 0.81042
 O706 O 0.11948 0.70373 0.74966
 O707 O 0.19096 0.86882 0.75738
 O708 O 0.24710 0.88080 0.70275
 Zr709 Zr 0.24984 0.83048 0.75279
 O710 O 0.29010 0.79157 0.70973
 Zr711 Zr 0.16806 0.75549 0.74994
 O712 O 0.20536 0.71223 0.70795
 Zr713 Zr 0.24589 0.75005 0.82961
 O714 O 0.28722 0.70804 0.79082
 Zr715 Zr 0.25040 0.74983 0.66919
 O716 O 0.20957 0.79368 0.70758
 Zr717 Zr 0.32803 0.74695 0.74860
 O718 O 0.29119 0.78904 0.79220
 Zr719 Zr 0.24692 0.67037 0.74699
 O720 O 0.20494 0.70934 0.78910
 O721 O 0.20630 0.79424 0.79324
 O722 O 0.29064 0.70620 0.70583
 C723 C 0.25186 0.85050 0.85569
 C724 C 0.15016 0.85851 0.74778
 C725 C 0.14338 0.74979 0.85041
 C726 C 0.24705 0.64786 0.64564
 C727 C 0.35218 0.74939 0.64692
 C728 C 0.34873 0.64506 0.74519
 H729 H 0.30913 0.81179 0.69164
 H730 H 0.30534 0.68876 0.81082
 H731 H 0.18773 0.81376 0.81264
 H732 H 0.18461 0.69481 0.68880
 H733 H 0.17777 0.77741 0.63074
 H734 H 0.12578 0.74439 0.67522
 H735 H 0.36759 0.73173 0.82393
 H736 H 0.31911 0.77118 0.87067
 H737 H 0.26357 0.82715 0.63257
 H738 H 0.22353 0.87189 0.68110
 H739 H 0.26728 0.62303 0.81722
 H740 H 0.23241 0.67396 0.86816
 H741 H 0.29736 0.90398 0.76073
 H742 H 0.37395 0.81911 0.73332
 H743 H 0.12592 0.68431 0.77579
 H744 H 0.17009 0.63320 0.73229
 O745 O 0.24876 0.37471 0.69484
 O746 O 0.19787 0.38533 0.75913
 O747 O 0.36443 0.31873 0.75967
 O748 O 0.38162 0.25757 0.80059
 O749 O 0.30846 0.25607 0.63970
 O750 O 0.24418 0.20921 0.62696
 O751 O 0.25412 0.19331 0.87101
 O752 O 0.30073 0.25852 0.88336
 O753 O 0.13470 0.26586 0.82015
 O754 O 0.11604 0.30623 0.75910
 O755 O 0.18406 0.14395 0.75282
 O756 O 0.25148 0.13090 0.70329
 O757 O 0.24236 0.14157 0.81627
 O758 O 0.29276 0.12474 0.75571
 O759 O 0.13113 0.19812 0.76226
 O760 O 0.12055 0.26400 0.70654
 O761 O 0.18684 0.24533 0.87146
 O762 O 0.23818 0.30116 0.88894
 O763 O 0.24455 0.32066 0.64112
 O764 O 0.19668 0.25904 0.62755
 O765 O 0.36373 0.25818 0.69240
 O766 O 0.37440 0.20412 0.75396
 O767 O 0.31201 0.37398 0.75310
 O768 O 0.25565 0.38529 0.80888
 Zr769 Zr 0.25132 0.33839 0.75562
 O770 O 0.20975 0.29993 0.79781
 Zr771 Zr 0.32845 0.25827 0.75369
 O772 O 0.29013 0.21604 0.79542
 Zr773 Zr 0.24820 0.25999 0.67630
 O774 O 0.20605 0.21864 0.71458
 Zr775 Zr 0.24768 0.25450 0.83635
 O776 O 0.29023 0.29743 0.79844
 Zr777 Zr 0.16826 0.25833 0.75890
 O778 O 0.20632 0.30053 0.71644
 Zr779 Zr 0.24567 0.17791 0.75614
 O780 O 0.28825 0.21583 0.71398
 O781 O 0.29130 0.30058 0.71287
 O782 O 0.20442 0.21414 0.79927
 C783 C 0.24519 0.36173 0.65390
 C784 C 0.35263 0.36014 0.75692
 C785 C 0.34994 0.25590 0.65163
 C786 C 0.24809 0.15288 0.85741
 C787 C 0.14644 0.25565 0.86027
 C788 C 0.14323 0.15713 0.75680
 H789 H 0.19229 0.32058 0.81708
 H790 H 0.18691 0.20099 0.69406
 H791 H 0.31031 0.31950 0.69335
 H792 H 0.31068 0.19717 0.81335
 H793 H 0.31872 0.28533 0.87556
 H794 H 0.36873 0.24740 0.82934
 H795 H 0.12010 0.23530 0.68990
 H796 H 0.17218 0.27814 0.63928
 H797 H 0.24555 0.33092 0.87658
 H798 H 0.28134 0.37633 0.82798
 H799 H 0.22590 0.13578 0.68269
 H800 H 0.26590 0.18564 0.63566
 H801 H 0.20939 0.41532 0.75052
 H802 H 0.13078 0.33581 0.76144
 H803 H 0.36426 0.18290 0.73052
 H804 H 0.31829 0.13377 0.77485
 O805 O 0.75410 0.63464 0.68392
 O806 O 0.80777 0.62532 0.74670
 O807 O 0.64018 0.69095 0.74904
 O808 O 0.62223 0.75258 0.78763
 O809 O 0.69565 0.75133 0.62666
 O810 O 0.76042 0.79962 0.61506
 O811 O 0.75692 0.81687 0.85790
 O812 O 0.70348 0.75851 0.87126
 O813 O 0.87065 0.74380 0.80909
 O814 O 0.87927 0.69450 0.73681
 O815 O 0.82123 0.86439 0.74241
 O816 O 0.75651 0.87783 0.68999
 O817 O 0.75820 0.86938 0.80263
 O818 O 0.71137 0.88344 0.73923
 O819 O 0.87400 0.80977 0.75088
 O820 O 0.89198 0.75290 0.70328
 O821 O 0.81669 0.76110 0.85978
 O822 O 0.75533 0.70613 0.87570
 O823 O 0.75843 0.68713 0.62868
 O824 O 0.80785 0.74786 0.61529
 O825 O 0.64137 0.74963 0.68038
 O826 O 0.63070 0.80599 0.73985
 O827 O 0.69263 0.63540 0.74499
 O828 O 0.74971 0.62413 0.79726
 Zr829 Zr 0.75336 0.67122 0.74433
 O830 O 0.79499 0.70942 0.78681
 Zr831 Zr 0.67612 0.75135 0.74150
 O832 O 0.71449 0.79368 0.78295
 Zr833 Zr 0.75606 0.74828 0.66369
 O834 O 0.79857 0.78928 0.70231
 Zr835 Zr 0.75637 0.75510 0.82413
 O836 O 0.71403 0.71247 0.78637
 Zr837 Zr 0.83645 0.75015 0.74731
 O838 O 0.79809 0.70853 0.70434
 Zr839 Zr 0.75916 0.83108 0.74328
 O840 O 0.71641 0.79303 0.70124
 O841 O 0.71314 0.70837 0.70131
 O842 O 0.79991 0.79472 0.78697
 C843 C 0.75666 0.64646 0.64257
 C844 C 0.65194 0.64939 0.74826
 C845 C 0.65441 0.75069 0.63940
 C846 C 0.75779 0.85759 0.84399
 C847 C 0.85763 0.75282 0.84919
 C848 C 0.86198 0.85088 0.74644
 H849 H 0.81244 0.68872 0.80592
 H850 H 0.81821 0.80666 0.68207
 H851 H 0.69379 0.68892 0.68263
 H852 H 0.69433 0.81300 0.80087
 H853 H 0.68090 0.73598 0.86196
 H854 H 0.63261 0.76907 0.81445
 H855 H 0.88068 0.76418 0.67425
 H856 H 0.83150 0.72762 0.62690
 H857 H 0.78206 0.68673 0.87246
 H858 H 0.73313 0.63889 0.82193
 H859 H 0.78234 0.87192 0.67001
 H860 H 0.73792 0.82262 0.62337
 H861 H 0.79655 0.59511 0.73843
 H862 H 0.87754 0.67547 0.76390
 H863 H 0.64012 0.82565 0.71485
 H864 H 0.68572 0.87506 0.75850
 O865 O 0.25360 0.63191 0.30813
 O866 O 0.20480 0.61929 0.24604
 O867 O 0.36952 0.69062 0.25080
 O868 O 0.38578 0.74923 0.20735
 O869 O 0.30923 0.74914 0.36767
 O870 O 0.24627 0.79619 0.37982
 O871 O 0.25449 0.81243 0.13292
 O872 O 0.30354 0.75391 0.12024
 O873 O 0.13627 0.74452 0.18495
 O874 O 0.11988 0.70206 0.24931
 O875 O 0.18843 0.86488 0.25483
 O876 O 0.25182 0.88226 0.29615
 O877 O 0.24378 0.86485 0.18731
 O878 O 0.30206 0.87711 0.25193
 O879 O 0.13774 0.81187 0.23513
 O880 O 0.12254 0.75060 0.29688
 O881 O 0.19064 0.75637 0.13283
 O882 O 0.25365 0.70049 0.11956
 O883 O 0.24534 0.68496 0.36246
 O884 O 0.19650 0.74806 0.37543
 O885 O 0.36469 0.75030 0.31519
 O886 O 0.37562 0.80559 0.25332
 O887 O 0.31644 0.63610 0.24453
 O888 O 0.25347 0.62241 0.19590
 Zr889 Zr 0.25451 0.66977 0.24863
 O890 O 0.21242 0.70793 0.20686
 Zr891 Zr 0.33148 0.74997 0.25298
 O892 O 0.29355 0.79117 0.20975
 Zr893 Zr 0.25011 0.74686 0.32903
 O894 O 0.20930 0.78936 0.29027
 Zr895 Zr 0.25173 0.75202 0.16862
 O896 O 0.29458 0.71046 0.20722
 Zr897 Zr 0.17150 0.75047 0.24539
 O898 O 0.20888 0.70728 0.28757
 Zr899 Zr 0.24919 0.82978 0.24859
 O900 O 0.29031 0.79175 0.29234
 O901 O 0.29389 0.70677 0.29250
 O902 O 0.20872 0.79329 0.20497
 C903 C 0.24796 0.64406 0.34904
 C904 C 0.35738 0.64956 0.24648
 C905 C 0.35065 0.75014 0.35591
 C906 C 0.24836 0.85290 0.14609
 C907 C 0.14944 0.75083 0.14460
 C908 C 0.14860 0.85266 0.24407
 H909 H 0.19440 0.68732 0.18818
 H910 H 0.19019 0.80732 0.31058
 H911 H 0.31282 0.68734 0.31165
 H912 H 0.31385 0.81001 0.19158
 H913 H 0.32757 0.73370 0.13113
 H914 H 0.37567 0.76498 0.18000
 H915 H 0.11950 0.78158 0.30835
 H916 H 0.17280 0.72842 0.36301
 H917 H 0.22558 0.68294 0.12153
 H918 H 0.27342 0.63425 0.17220
 H919 H 0.23653 0.87118 0.32339
 H920 H 0.26747 0.82026 0.37131
 H921 H 0.18106 0.62822 0.26749
 H922 H 0.13052 0.67541 0.23268
 H923 H 0.36667 0.82499 0.27873
 H924 H 0.31665 0.87843 0.22219
 O925 O 0.74352 0.35879 0.31234
 O926 O 0.79838 0.36682 0.25032
 O927 O 0.62841 0.30413 0.25198
 O928 O 0.61262 0.24541 0.20639
 O929 O 0.68430 0.24205 0.36885
 O930 O 0.74821 0.19410 0.38182
 O931 O 0.74704 0.17696 0.13827
 O932 O 0.69174 0.23423 0.12535
 O933 O 0.85920 0.24493 0.18800
 O934 O 0.86965 0.29574 0.25790
 O935 O 0.80824 0.12655 0.25330
 O936 O 0.74353 0.11457 0.30551
 O937 O 0.74513 0.12397 0.19307
 O938 O 0.69725 0.11109 0.25699
 O939 O 0.86098 0.18123 0.24627
 O940 O 0.87952 0.23947 0.29460
 O941 O 0.80515 0.23730 0.13469
 O942 O 0.74267 0.28768 0.12060
 O943 O 0.74825 0.30619 0.36745
 O944 O 0.79670 0.24425 0.38080
 O945 O 0.62931 0.24415 0.31581
 O946 O 0.61828 0.18934 0.25633
 O947 O 0.68271 0.35785 0.24853
 O948 O 0.74154 0.36955 0.19940
 Zr949 Zr 0.74313 0.32197 0.25203
 O950 O 0.78428 0.28313 0.20989
 Zr951 Zr 0.66452 0.24323 0.25484
 O952 O 0.70266 0.20043 0.21318
 Zr953 Zr 0.74478 0.24483 0.33249
 O954 O 0.78646 0.20276 0.29411
 Zr955 Zr 0.74508 0.23859 0.17197
 O956 O 0.70313 0.28160 0.20994
 Zr957 Zr 0.82477 0.24142 0.24945
 O958 O 0.78722 0.28394 0.29206
 Zr959 Zr 0.74670 0.16180 0.25268
 O960 O 0.70460 0.20074 0.29477
 O961 O 0.70241 0.28549 0.29505
 O962 O 0.78793 0.19784 0.20912
 C963 C 0.74668 0.34698 0.35367
 C964 C 0.64152 0.34513 0.24901
 C965 C 0.64292 0.24253 0.35659
 C966 C 0.74646 0.13615 0.15185
 C967 C 0.84618 0.24187 0.14706
 C968 C 0.84902 0.14002 0.24935
 H969 H 0.80220 0.30356 0.19099
 H970 H 0.80573 0.18490 0.31432
 H971 H 0.68336 0.30503 0.31395
 H972 H 0.68241 0.18146 0.19504
 H973 H 0.66904 0.25669 0.13459
 H974 H 0.62042 0.22398 0.18231
 H975 H 0.86896 0.22458 0.32223
 H976 H 0.82070 0.26396 0.36910
 H977 H 0.76586 0.31050 0.12698
 H978 H 0.72292 0.35649 0.17522
 H979 H 0.76911 0.12029 0.32587
 H980 H 0.72677 0.17048 0.37262
 H981 H 0.78784 0.39717 0.25905
 H982 H 0.86726 0.31490 0.23095
 H983 H 0.62826 0.16871 0.28033
 H984 H 0.67281 0.11903 0.23599
   
