data_POSCAR
  _audit_creation_date              2014-09-24
  _audit_creation_method            'ToBaCCo'
  _symmetry_space_group_name_H-M    'P1'
  _symmetry_Int_Tables_number       1
  _symmetry_cell_setting            triclinic
  loop_
  _symmetry_equiv_pos_as_xyz
 x,y,z
_cell_length_a 33.7379
_cell_length_b 33.8802
_cell_length_c 11.8015
_cell_angle_alpha 90.041200
_cell_angle_beta 90.288500
_cell_angle_gamma 120.242300
loop_
  _atom_site_label
  _atom_site_type_symbol
  _atom_site_fract_x
  _atom_site_fract_y
  _atom_site_fract_z
O1 O 0.26013 0.45408 0.60324
 O2 O 0.17943 0.44879 0.38465
 O3 O 0.25923 0.45298 0.38330
 O4 O 0.18004 0.45007 0.60165
 O5 O 0.21454 0.52542 0.60021
 O6 O 0.29412 0.52832 0.38174
 O7 O 0.21461 0.52415 0.38168
 O8 O 0.29439 0.52939 0.60410
 Cu9 Cu 0.21645 0.44399 0.49363
 Cu10 Cu 0.25823 0.53441 0.49198
 C11 C 0.29129 0.49264 0.64023
 C12 C 0.18247 0.48542 0.34794
 C13 C 0.29037 0.49123 0.34567
 C14 C 0.18275 0.48697 0.63526
 O15 O 0.55896 -0.19070 0.59423
 O16 O 0.54460 -0.27422 0.38308
 O17 O 0.53621 -0.20138 0.38094
 O18 O 0.54300 -0.27470 0.60058
 O19 O 0.46772 -0.31060 0.61822
 O20 O 0.46078 -0.23890 0.39575
 O21 O 0.46902 -0.31116 0.39926
 O22 O 0.48376 -0.22449 0.61393
 Cu23 Cu 0.55210 -0.23199 0.48756
 Cu24 Cu 0.46320 -0.27405 0.51051
 C25 C 0.52427 -0.19215 0.63847
 C26 C 0.50551 -0.30700 0.35571
 C27 C 0.49712 -0.20752 0.35149
 C28 C 0.50621 -0.30608 0.64498
 O29 O 1.19262 0.73478 0.60698
 O30 O 1.26831 0.82104 0.40086
 O31 O 1.19596 0.73749 0.38595
 O32 O 1.26200 0.81712 0.61570
 O33 O 1.30674 0.78690 0.62345
 O34 O 1.24122 0.70801 0.38928
 O35 O 1.31341 0.79138 0.40660
 O36 O 1.23739 0.70468 0.61110
 Cu37 Cu 1.22467 0.78001 0.50062
 Cu38 Cu 1.27911 0.74458 0.50698
 C39 C 1.20223 0.70547 0.64518
 C40 C 1.30517 0.82222 0.37299
 C41 C 1.20648 0.70865 0.34964
 C42 C 1.29609 0.81599 0.65747
 O43 O 0.80510 0.56363 0.39772
 O44 O 0.71834 0.54338 0.61367
 O45 O 0.80434 0.56596 0.61275
 O46 O 0.71895 0.54258 0.39095
 O47 O 0.69599 0.46899 0.39248
 O48 O 0.78087 0.49216 0.61584
 O49 O 0.69502 0.46974 0.61461
 O50 O 0.78159 0.48983 0.39832
 Cu51 Cu 0.76324 0.56121 0.50299
 Cu52 Cu 0.73587 0.47272 0.50555
 C53 C 0.80894 0.53015 0.36390
 C54 C 0.69216 0.50335 0.65196
 C55 C 0.80776 0.53277 0.64994
 C56 C 0.69311 0.50229 0.35354
 O57 O 0.44549 0.24899 0.40412
 O58 O 0.46879 0.18438 0.62283
 O59 O 0.44637 0.24801 0.62202
 O60 O 0.44941 0.17308 0.40746
 O61 O 0.52408 0.21788 0.38501
 O62 O 0.52067 0.29601 0.60237
 O63 O 0.54310 0.23124 0.60283
 O64 O 0.52007 0.29392 0.38132
 Cu65 Cu 0.44558 0.20909 0.51558
 Cu66 Cu 0.53425 0.26421 0.49110
 C67 C 0.47918 0.28337 0.35741
 C68 C 0.51021 0.19664 0.64950
 C69 C 0.48205 0.28525 0.64672
 C70 C 0.48647 0.18149 0.36094
 O71 O 0.73801 0.19375 0.37189
 O72 O 0.82011 0.25977 0.60144
 O73 O 0.73409 0.18994 0.59656
 O74 O 0.82276 0.25856 0.38833
 O75 O 0.79559 0.30584 0.38544
 O76 O 0.70792 0.23790 0.59696
 O77 O 0.79217 0.30629 0.60289
 O78 O 0.71014 0.24030 0.37492
 Cu79 Cu 0.78027 0.21970 0.49120
 Cu80 Cu 0.74868 0.27722 0.48991
 C81 C 0.71051 0.20599 0.33324
 C82 C 0.82136 0.29571 0.63773
 C83 C 0.70607 0.20172 0.63246
 C84 C 0.82471 0.29480 0.35344
 O85 O 1.05679 0.61317 0.20959
 O86 O 1.11037 0.60820 0.10089
 C87 C 1.09870 0.62658 0.18125
 O88 O 0.93940 0.40635 0.18891
 O89 O 0.88636 0.41617 0.08958
 C90 C 0.89746 0.39467 0.16124
 O91 O 1.06835 0.48092 0.19752
 O92 O 1.11559 0.54514 0.09469
 C93 C 1.10852 0.51454 0.17018
 O94 O 0.92889 0.54464 0.20093
 O95 O 0.88167 0.47994 0.09870
 C96 C 0.88867 0.51080 0.17325
 Zr97 Zr 0.99463 0.55968 0.14387
 O98 O 0.99119 0.55803 0.32299
 O99 O 0.99149 0.62036 0.13541
 Zr100 Zr 1.00251 0.46370 0.13593
 O101 O 0.99879 0.45903 0.31484
 O102 O 1.01217 0.40666 0.12786
 O103 O 1.03943 0.53441 0.16185
 O104 O 0.95935 0.48950 0.16176
 O105 O 0.92636 0.54696 -0.18898
 O106 O 0.88018 0.48068 -0.09249
 C107 C 0.88650 0.51273 -0.16177
 O108 O 1.06722 0.48393 -0.21180
 O109 O 1.11556 0.54685 -0.10413
 C110 C 1.10780 0.51692 -0.18269
 O111 O 0.93794 0.40895 -0.20581
 O112 O 0.88581 0.41779 -0.10093
 C113 C 0.89619 0.39722 -0.17731
 O114 O 1.05410 0.61551 -0.20578
 O115 O 1.10885 0.60871 -0.10527
 C116 C 1.09624 0.62793 -0.18154
 Zr117 Zr 0.99297 0.56143 -0.14029
 O118 O 0.98672 0.56050 -0.31898
 O119 O 0.99240 0.62357 -0.13206
 Zr120 Zr 1.00129 0.46578 -0.14904
 O121 O 0.99622 0.46473 -0.32806
 O122 O 1.01071 0.40856 -0.15302
 Zr123 Zr 1.06656 0.55134 -0.00325
 Zr124 Zr 0.93004 0.47457 -0.00158
 O125 O 0.95767 0.49171 -0.16561
 O126 O 1.03776 0.53665 -0.16774
 O127 O 0.95212 0.54475 0.00309
 O128 O 1.04253 0.48059 -0.00734
 O129 O 1.03365 0.59003 0.00176
 O130 O 0.96144 0.43430 -0.00682
 H131 H 0.93940 0.47774 0.22924
 H132 H 1.06499 0.46990 -0.00890
 H133 H 0.93696 0.48101 -0.23250
 H134 H 1.05269 0.62381 0.00291
 H135 H 0.98573 0.38208 0.08612
 H136 H 0.98559 0.38393 -0.10889
 H137 H 1.02153 0.49415 -0.35620
 H138 H 1.01120 0.55592 -0.35060
 H139 H 0.96877 0.61941 -0.07638
 H140 H 0.99037 0.62924 0.21485
 H141 H 1.01544 0.55223 0.35106
 H142 H 1.02246 0.48893 0.34571
 O143 O 0.38396 0.43511 0.20037
 O144 O 0.38514 0.49285 0.09576
 C145 C 0.36832 0.46203 0.17459
 O146 O 0.59132 0.54318 0.20075
 O147 O 0.59000 0.48400 0.10226
 C148 C 0.60790 0.51719 0.17562
 O149 O 0.50676 0.58272 0.20904
 O150 O 0.44345 0.56353 0.09847
 C151 C 0.47219 0.58709 0.17850
 O152 O 0.46024 0.38474 0.18862
 O153 O 0.52841 0.41005 0.09527
 C154 C 0.49659 0.38244 0.16439
 Zr155 Zr 0.44065 0.43214 0.13375
 O156 O 0.43719 0.42371 0.31165
 O157 O 0.38356 0.36611 0.10729
 Zr158 Zr 0.53039 0.54015 0.14629
 O159 O 0.52983 0.53391 0.32503
 O160 O 0.58287 0.60939 0.16020
 O161 O 0.45957 0.50030 0.16154
 O162 O 0.51058 0.47206 0.16237
 O163 O 0.46671 0.39036 -0.20393
 O164 O 0.53215 0.41313 -0.09833
 C165 C 0.50252 0.38764 -0.17449
 O166 O 0.51293 0.58871 -0.19937
 O167 O 0.44635 0.56613 -0.10129
 C168 C 0.47739 0.59205 -0.17403
 O169 O 0.59523 0.54679 -0.19000
 O170 O 0.59222 0.48623 -0.09492
 C171 C 0.61117 0.52014 -0.16570
 O172 O 0.38876 0.43942 -0.22084
 O173 O 0.38735 0.49483 -0.11138
 C174 C 0.37213 0.46538 -0.19397
 Zr175 Zr 0.44435 0.43558 -0.14862
 O176 O 0.44508 0.43137 -0.32734
 O177 O 0.38712 0.36884 -0.13717
 Zr178 Zr 0.53420 0.54391 -0.13808
 O179 O 0.53843 0.54361 -0.31712
 O180 O 0.58733 0.61317 -0.13127
 Zr181 Zr 0.44407 0.51253 -0.00368
 Zr182 Zr 0.53144 0.46450 -0.00002
 O183 O 0.51464 0.47621 -0.16382
 O184 O 0.46383 0.50438 -0.16733
 O185 O 0.46228 0.41145 -0.00722
 O186 O 0.51361 0.56398 0.00400
 O187 O 0.41032 0.44074 -0.00929
 O188 O 0.56560 0.53641 0.00595
 H189 H 0.52272 0.46418 0.22990
 H190 H 0.52192 0.59650 0.00645
 H191 H 0.52810 0.46989 -0.23099
 H192 H 0.37632 0.42368 -0.01210
 H193 H 0.60693 0.61434 0.10520
 H194 H 0.61267 0.61481 -0.08513
 H195 H 0.50883 0.53813 -0.34857
 H196 H 0.45553 0.46240 -0.35650
 H197 H 0.37844 0.35788 -0.21623
 H198 H 0.37222 0.35351 0.18371
 H199 H 0.44735 0.45408 0.34525
 H200 H 0.50044 0.52997 0.35288
 O201 O 0.56035 -0.05894 0.19947
 O202 O 0.49365 -0.11220 0.11257
 C203 C 0.52769 -0.10050 0.18230
 O204 O 0.48522 0.06999 0.20085
 O205 O 0.54417 0.11715 0.08265
 C206 C 0.51573 0.11018 0.16409
 O207 O 0.42182 -0.05871 0.23168
 O208 O 0.42883 -0.11201 0.12702
 C209 C 0.41098 -0.10053 0.20781
 O210 O 0.62768 0.06615 0.16485
 O211 O 0.61140 0.11522 0.06826
 C212 C 0.63669 0.10665 0.13633
 Zr213 Zr 0.57030 0.00218 0.12711
 O214 O 0.58329 0.01196 0.30354
 O215 O 0.63018 -0.00136 0.09770
 Zr216 Zr 0.47123 0.00379 0.15395
 O217 O 0.48103 0.01329 0.33143
 O218 O 0.40826 0.00295 0.16142
 O219 O 0.50123 -0.03673 0.17089
 O220 O 0.54203 0.04316 0.15396
 O221 O 0.60978 0.05396 -0.22197
 O222 O 0.60295 0.10922 -0.12527
 C223 C 0.62218 0.09611 -0.20027
 O224 O 0.40348 -0.07107 -0.17579
 O225 O 0.41879 -0.11854 -0.06903
 C226 C 0.39492 -0.11130 -0.14356
 O227 O 0.46229 0.05602 -0.18405
 O228 O 0.53219 0.11008 -0.11130
 C229 C 0.49496 0.09784 -0.17060
 O230 O 0.53731 -0.07394 -0.21150
 O231 O 0.48090 -0.11979 -0.08630
 C232 C 0.50637 -0.11372 -0.17337
 Zr233 Zr 0.55599 -0.00700 -0.15520
 O234 O 0.54936 -0.00674 -0.33371
 O235 O 0.61484 -0.01351 -0.17248
 Zr236 Zr 0.45750 -0.00516 -0.12924
 O237 O 0.45302 -0.00493 -0.30832
 O238 O 0.39296 -0.00944 -0.11532
 Zr239 Zr 0.47914 -0.06928 0.01225
 Zr240 Zr 0.54890 0.06721 -0.01353
 O241 O 0.52625 0.03334 -0.17052
 O242 O 0.48490 -0.04720 -0.15697
 O243 O 0.59158 0.03846 -0.02341
 O244 O 0.43682 -0.04038 0.02154
 O245 O 0.54991 -0.04252 -0.00831
 O246 O 0.47777 0.04038 0.00684
 H247 H 0.55566 0.06524 0.21744
 H248 H 0.40329 -0.06075 0.03057
 H249 H 0.53368 0.05210 -0.24003
 H250 H 0.56190 -0.06386 -0.01088
 H251 H 0.40286 0.00581 0.24270
 H252 H 0.39518 0.01016 -0.05059
 H253 H 0.45206 -0.03285 -0.33691
 H254 H 0.51947 -0.03354 -0.35484
 H255 H 0.63795 0.00787 -0.11752
 H256 H 0.64425 0.00076 0.17304
 H257 H 0.55398 -0.00816 0.34230
 H258 H 0.48492 -0.01183 0.36132
 C259 C 1.14847 0.48225 0.27455
 C260 C 1.14874 0.51883 0.23049
 H261 H 1.11958 0.44847 0.25687
 H262 H 1.17839 0.55272 0.24087
 C263 C 0.50466 0.65906 0.27764
 C264 C 0.46691 0.62224 0.23838
 H265 H 0.53800 0.66374 0.25618
 H266 H 0.43310 0.61751 0.25256
 C267 C 0.33736 -0.14132 0.30802
 C268 C 0.37677 -0.13831 0.27611
 H269 H 0.33028 -0.11455 0.28423
 H270 H 0.38317 -0.16606 0.29335
 C271 C 0.84717 0.53878 0.28884
 C272 C 0.84806 0.50479 0.23379
 H273 H 0.87590 0.57337 0.28277
 H274 H 0.81821 0.47074 0.23514
 C275 C 0.47024 0.31266 0.28067
 C276 C 0.50372 0.34789 0.22341
 H277 H 0.43556 0.30674 0.27710
 H278 H 0.53808 0.35291 0.22381
 C279 C 0.67700 0.17898 0.24294
 C280 C 0.67750 0.14391 0.19228
 H281 H 0.64881 0.18498 0.22688
 H282 H 0.70483 0.13709 0.21291
 C283 C 0.52011 0.17103 -0.27337
 C284 C 0.48700 0.13180 -0.22933
 H285 H 0.55570 0.18153 -0.25637
 H286 H 0.45150 0.12054 -0.25007
 C287 C 0.65890 0.49555 -0.26673
 C288 C 0.65234 0.52909 -0.22867
 H289 H 0.63591 0.46072 -0.23974
 H290 H 0.67396 0.56369 -0.25899
 C291 C 0.85653 0.32489 -0.28790
 C292 C 0.85718 0.36124 -0.24121
 H293 H 0.88444 0.31857 -0.27070
 H294 H 0.82770 0.36573 -0.25091
 C295 C 0.53164 -0.15636 -0.29001
 C296 C 0.49803 -0.15489 -0.23483
 H297 H 0.56642 -0.12779 -0.28181
 H298 H 0.46352 -0.18416 -0.23504
 C299 C 0.32526 0.49526 -0.27659
 C300 C 0.33394 0.46102 -0.26421
 H301 H 0.34622 0.52731 -0.23227
 H302 H 0.31519 0.43032 -0.31510
 C303 C 1.17176 0.67116 -0.27219
 C304 C 1.13092 0.66623 -0.24777
 H305 H 1.18157 0.64768 -0.23744
 H306 H 1.12030 0.68821 -0.28799
 C307 C 0.84521 0.54181 -0.27216
 C308 C 0.84551 0.50764 -0.21738
 H309 H 0.87435 0.57623 -0.26675
 H310 H 0.81534 0.47378 -0.21870
 C311 C 0.47633 0.31662 -0.27850
 C312 C 0.51106 0.35457 -0.23431
 H313 H 0.44144 0.30875 -0.26296
 H314 H 0.54605 0.36181 -0.24329
 C315 C 0.67003 0.17239 -0.28655
 C316 C 0.66105 0.12986 -0.26710
 H317 H 0.64878 0.18451 -0.24942
 H318 H 0.68109 0.11749 -0.30986
 C319 C 1.14653 0.48410 -0.28997
 C320 C 1.14771 0.52075 -0.24330
 H321 H 1.11668 0.45058 -0.27743
 H322 H 1.17824 0.55413 -0.25016
 C323 C 0.50905 0.66332 -0.28124
 C324 C 0.47247 0.62772 -0.23302
 H325 H 0.54282 0.66758 -0.26778
 H326 H 0.43859 0.62368 -0.24045
 C327 C 0.32533 -0.14878 -0.26010
 C328 C 0.35755 -0.15145 -0.20020
 H329 H 0.32276 -0.11819 -0.25587
 H330 H 0.35881 -0.18279 -0.20012
 C331 C 0.49399 -0.17665 0.26918
 C332 C 0.53046 -0.13573 0.24796
 H333 H 0.46063 -0.18569 0.23460
 H334 H 0.56300 -0.12588 0.28892
 C335 C 0.32358 0.49322 0.26162
 C336 C 0.32996 0.45777 0.24314
 H337 H 0.34596 0.52577 0.22158
 H338 H 0.30974 0.42626 0.28944
 C339 C 1.17665 0.67401 0.26484
 C340 C 1.13393 0.66571 0.24645
 H341 H 1.18796 0.65230 0.22659
 H342 H 1.12223 0.68585 0.29138
 C343 C 0.48433 0.14625 0.28436
 C344 C 0.51928 0.15043 0.22241
 H345 H 0.45218 0.11400 0.28340
 H346 H 0.55105 0.18287 0.21791
 C347 C 0.65804 0.49366 0.26738
 C348 C 0.64904 0.52645 0.23885
 H349 H 0.63655 0.45913 0.23580
 H350 H 0.66902 0.56023 0.27599
 C351 C 0.86243 0.32566 0.27957
 C352 C 0.85893 0.35684 0.21900
 H353 H 0.89385 0.32431 0.27964
 H354 H 0.82637 0.35599 0.21516
   
