data_POSCAR
  _audit_creation_date              2014-09-24
  _audit_creation_method            'ToBaCCo'
  _symmetry_space_group_name_H-M    'P1'
  _symmetry_Int_Tables_number       1
  _symmetry_cell_setting            triclinic
  loop_
  _symmetry_equiv_pos_as_xyz
 x,y,z
_cell_length_a 26.1480
_cell_length_b 25.0962
_cell_length_c 68.6329
_cell_angle_alpha 82.265100
_cell_angle_beta 98.589700
_cell_angle_gamma 117.422600
loop_
  _atom_site_label
  _atom_site_type_symbol
  _atom_site_fract_x
  _atom_site_fract_y
  _atom_site_fract_z
C1 C 0.04039 0.20367 0.51016
 H2 H 0.08410 0.21283 0.50830
 C3 C 0.03140 0.23804 0.52234
 H4 H 0.06850 0.27449 0.52937
 C5 C -0.06073 0.14316 0.50396
 H6 H -0.09638 0.10523 0.49716
 C7 C -0.07172 0.17638 0.51616
 H8 H -0.11596 0.16337 0.51871
 N9 N -0.00524 0.15639 0.50164
 C10 C 0.03048 0.00315 0.50485
 H11 H 0.03115 -0.00188 0.48949
 C12 C 0.02914 -0.04240 0.51929
 H13 H 0.02902 -0.08234 0.51492
 C14 C 0.02499 0.05908 0.52898
 H15 H 0.02193 0.09785 0.53273
 C16 C 0.02371 0.01490 0.54382
 H17 H 0.02081 0.02093 0.55888
 Zn18 Zn 0.01437 0.10529 0.48975
 N19 N 0.02715 0.05202 0.50987
 C20 C 0.12807 0.14343 0.47835
 N21 N 0.08129 0.15453 0.47666
 C22 C 0.07911 0.20134 0.46469
 C23 C 0.12420 0.23805 0.45324
 C24 C 0.17429 0.17905 0.46703
 C25 C -0.09592 0.01303 0.47736
 C26 C -0.13602 -0.02916 0.46443
 C27 C -0.07144 0.02083 0.43897
 C28 C -0.03332 0.06225 0.45228
 N29 N -0.04538 0.05715 0.47119
 H30 H 0.12887 0.10603 0.48802
 H31 H 0.04148 0.20928 0.46374
 H32 H 0.12125 0.27483 0.44374
 H33 H 0.21028 0.16836 0.46796
 H34 H -0.10381 0.00847 0.49267
 H35 H -0.17370 -0.06522 0.47056
 H36 H -0.05980 0.02844 0.42403
 H37 H 0.00706 0.09727 0.44754
 C38 C 0.02404 -0.03750 0.53899
 C39 C -0.02512 0.22330 0.52603
 C40 C -0.12346 -0.02771 0.44490
 C41 C 0.17210 0.22641 0.45398
 C42 C 1.17752 0.02063 0.15468
 H43 H 1.18514 0.06547 0.15713
 C44 C 1.21221 0.01333 0.14281
 H45 H 1.24724 0.05290 0.13658
 C46 C 1.12145 -0.08505 0.15944
 H47 H 1.08524 -0.12307 0.16566
 C48 C 1.15511 -0.09446 0.14748
 H49 H 1.14429 -0.13992 0.14449
 N50 N 1.13263 -0.02806 0.16247
 C51 C 0.98330 0.00408 0.16168
 H52 H 0.97985 0.00372 0.17722
 C53 C 0.93698 -0.00008 0.14772
 H54 H 0.89813 -0.00327 0.15263
 C55 C 1.03590 0.00283 0.13661
 H56 H 1.07363 0.00212 0.13232
 C57 C 0.99091 -0.00112 0.12223
 H58 H 0.99521 -0.00357 0.10696
 Zn59 Zn 1.08403 -0.00991 0.17535
 N60 N 1.03076 0.00367 0.15598
 C61 C 1.12213 0.10747 0.18874
 N62 N 1.13217 0.05860 0.18950
 C63 C 1.17799 0.05563 0.20098
 C64 C 1.21487 0.10197 0.21286
 C65 C 1.15815 0.15513 0.20049
 C66 C 0.99399 -0.12376 0.18599
 C67 C 0.95273 -0.16465 0.19840
 C68 C 1.00784 -0.10355 0.22555
 C69 C 1.04779 -0.06401 0.21270
 N70 N 1.03959 -0.07377 0.19320
 H71 H 1.08558 0.10890 0.17938
 H72 H 1.18517 0.01642 0.20114
 H73 H 1.25089 0.09838 0.22196
 H74 H 1.14874 0.19297 0.20023
 H75 H 0.98754 -0.12979 0.17035
 H76 H 0.91496 -0.20236 0.19223
 H77 H 1.01422 -0.09379 0.24087
 H78 H 1.08347 -0.02378 0.21821
 C79 C 0.93974 -0.00494 0.12779
 C80 C 1.20031 -0.04468 0.13860
 C81 C 0.95848 -0.15341 0.21831
 C82 C 1.20465 0.15210 0.21301
 C83 C -0.01457 0.90096 0.86994
 H84 H -0.05731 0.86348 0.87055
 C85 C 0.03020 0.90286 0.88406
 H86 H 0.02153 0.86592 0.89530
 C87 C 0.04807 0.99357 0.85406
 H88 H 0.05442 1.02893 0.84239
 C89 C 0.09431 0.99756 0.86807
 H90 H 0.13608 1.03644 0.86713
 N91 N -0.00493 0.94550 0.85523
 C92 C -0.18139 0.87808 0.85373
 H93 H -0.19388 0.84298 0.84388
 C94 C -0.22020 0.87420 0.86656
 H95 H -0.26286 0.83632 0.86588
 C96 C -0.11073 0.97013 0.86608
 H97 H -0.06739 1.00683 0.86607
 C98 C -0.14807 0.96878 0.87878
 H99 H -0.13140 1.00428 0.88875
 Zn100 Zn -0.07084 0.93627 0.83764
 N101 N -0.12806 0.92600 0.85363
 C102 C -0.13565 0.85883 0.80729
 N103 N -0.09310 0.86966 0.82249
 C104 C -0.06036 0.83953 0.82515
 C105 C -0.06804 0.79866 0.81180
 C106 C -0.14452 0.81845 0.79343
 C107 C -0.08360 1.03905 0.82004
 C108 C -0.07834 1.08486 0.80532
 C109 C -0.01635 1.05956 0.78969
 C110 C -0.02181 1.01492 0.80497
 N111 N -0.05577 1.00490 0.81959
 H112 H -0.16035 0.88422 0.80526
 H113 H -0.02598 0.84928 0.83700
 H114 H -0.04043 0.77640 0.81397
 H115 H -0.17630 0.81298 0.78080
 H116 H -0.11181 1.02960 0.83134
 H117 H -0.10223 1.11032 0.80560
 H118 H 0.00931 1.06583 0.77779
 H119 H -0.00093 0.98651 0.80475
 C120 C -0.20426 0.92055 0.87924
 C121 C 0.08555 0.95177 0.88338
 C122 C -0.04543 1.09465 0.78969
 C123 C -0.10909 0.78924 0.79528
 C124 C 0.37610 -0.07297 -0.00751
 C125 C 0.36136 -0.06944 0.01088
 C126 C 0.39558 -0.07156 0.02839
 C127 C 0.44735 -0.07572 0.02762
 C128 C 0.46280 -0.07989 0.00912
 C129 C 0.42648 -0.07980 -0.00846
 C130 C 0.44081 -0.08792 -0.02641
 C131 C 0.49118 -0.09299 -0.02728
 C132 C 0.52948 -0.08973 -0.01025
 C133 C 0.51475 -0.08407 0.00819
 C134 C 0.48443 -0.07494 0.04479
 C135 C 0.53565 -0.07834 0.04384
 C136 C 0.55196 -0.08230 0.02568
 C137 C 0.60413 -0.08538 0.02454
 C138 C 0.61764 -0.09162 0.00627
 C139 C 0.58163 -0.09312 -0.01111
 H140 H 0.41283 -0.09125 -0.03997
 H141 H 0.49958 -0.09988 -0.04146
 H142 H 0.47445 -0.07119 0.05913
 H143 H 0.56216 -0.07824 0.05755
 H144 H 0.32245 -0.06478 0.01159
 H145 H 0.65823 -0.09279 0.00545
 C146 C -0.08212 0.60025 0.68019
 C147 C -0.07137 0.64089 0.66343
 C148 C -0.06248 0.62669 0.64561
 C149 C -0.06602 0.56932 0.64423
 C150 C -0.07509 0.52825 0.66124
 C151 C -0.08297 0.54378 0.67932
 C152 C -0.09045 0.50292 0.69607
 C153 C -0.08956 0.44821 0.69516
 C154 C -0.08093 0.43226 0.67749
 C155 C -0.07555 0.47185 0.66021
 C156 C -0.06119 0.55178 0.62626
 C157 C -0.06309 0.49602 0.62512
 C158 C -0.06997 0.45549 0.64192
 C159 C -0.07033 0.39943 0.64098
 C160 C -0.07351 0.36195 0.65823
 C161 C -0.07815 0.37757 0.67649
 H162 H -0.09637 0.51313 0.71014
 H163 H -0.09621 0.41833 0.70847
 H164 H -0.05628 0.58084 0.61279
 H165 H -0.05824 0.48545 0.61095
 H166 H -0.06907 0.68477 0.66437
 H167 H -0.07165 0.32001 0.65742
 C168 C 0.65692 0.66165 0.34912
 C169 C 0.68586 0.67932 0.33204
 C170 C 0.66381 0.64594 0.31539
 C171 C 0.60992 0.59376 0.31547
 C172 C 0.58036 0.57442 0.33277
 C173 C 0.60433 0.60786 0.34977
 C174 C 0.57555 0.58606 0.36701
 C175 C 0.52334 0.53381 0.36738
 C176 C 0.49813 0.50081 0.35060
 C177 C 0.52666 0.52149 0.33307
 C178 C 0.58439 0.56101 0.29863
 C179 C 0.53132 0.50980 0.29882
 C180 C 0.50155 0.48944 0.31583
 C181 C 0.44761 0.43741 0.31617
 C182 C 0.42035 0.41745 0.33358
 C183 C 0.44476 0.44800 0.35076
 H184 H 0.59333 0.60882 0.38050
 H185 H 0.50277 0.51978 0.38097
 H186 H 0.60488 0.57501 0.28503
 H187 H 0.51402 0.48612 0.28549
 H188 H 0.72656 0.72005 0.33167
 H189 H 0.37914 0.37727 0.33376
 C190 C -0.05183 0.30617 0.57165
 C191 C -0.08913 0.29544 0.55401
 C192 C -0.08050 0.26870 0.53899
 C193 C -0.03461 0.25327 0.54139
 C194 C 0.00187 0.26536 0.55912
 N195 N -0.00761 0.29091 0.57350
 C196 C -0.05822 0.33289 0.58861
 N197 N -0.01520 0.34796 0.60378
 C198 C -0.01769 0.37038 0.62034
 C199 C -0.06586 0.37873 0.62240
 C200 C -0.11089 0.36379 0.60708
 C201 C -0.10732 0.34090 0.59013
 H202 H -0.10930 0.26062 0.52545
 H203 H 0.03720 0.25330 0.56178
 H204 H 0.01763 0.38111 0.63198
 H205 H -0.14909 0.36896 0.60843
 H206 H -0.12431 0.30758 0.55157
 H207 H -0.14329 0.32857 0.57877
 C208 C 0.82246 0.74631 0.25577
 C209 C 0.83725 0.71515 0.24382
 C210 C 0.88147 0.74753 0.23144
 C211 C 0.91110 0.81057 0.23109
 C212 C 0.89417 0.83977 0.24299
 N213 N 0.85103 0.80747 0.25478
 C214 C 0.77719 0.71575 0.26960
 N215 N 0.75399 0.74844 0.27584
 C216 C 0.71568 0.72597 0.28967
 C217 C 0.69922 0.66743 0.29840
 C218 C 0.72202 0.63247 0.29217
 C219 C 0.76080 0.65629 0.27769
 H220 H 0.89299 0.72341 0.22234
 H221 H 0.91483 0.88839 0.24281
 H222 H 0.69930 0.75437 0.29425
 H223 H 0.71120 0.58754 0.29897
 H224 H 0.81476 0.66663 0.24380
 H225 H 0.77943 0.62930 0.27363
 C226 C 0.21966 -0.04919 -0.07247
 C227 C 0.23358 -0.02528 -0.09176
 C228 C 0.19025 -0.02372 -0.10614
 C229 C 0.13324 -0.04574 -0.10135
 C230 C 0.12172 -0.06791 -0.08176
 N231 N 0.16435 -0.06955 -0.06812
 C232 C 0.26234 -0.05520 -0.05674
 N233 N 0.24260 -0.09914 -0.04188
 C234 C 0.27836 -0.10674 -0.02648
 C235 C 0.33792 -0.06822 -0.02527
 C236 C 0.35938 -0.02219 -0.04030
 C237 C 0.32183 -0.01579 -0.05616
 H238 H 0.20097 -0.00707 -0.12112
 H239 H 0.07882 -0.08418 -0.07722
 H240 H 0.26020 -0.14230 -0.01503
 H241 H 0.40495 0.00939 -0.03953
 H242 H 0.27679 -0.00984 -0.09590
 H243 H 0.33898 0.02075 -0.06739
 C244 C -0.00539 0.81617 0.58312
 C245 C 0.03538 0.82985 0.56966
 C246 C 0.04531 0.87765 0.55524
 C247 C 0.01491 0.91184 0.55422
 C248 C -0.02587 0.89615 0.56780
 N249 N -0.03490 0.84945 0.58161
 C250 C -0.01861 0.76611 0.59873
 N251 N -0.06975 0.74397 0.60679
 C252 C -0.08489 0.69914 0.62151
 C253 C -0.04739 0.67396 0.62903
 C254 C 0.00597 0.69655 0.62124
 C255 C 0.02049 0.74244 0.60605
 H256 H 0.07698 0.88813 0.54500
 H257 H -0.05131 0.92033 0.56726
 H258 H -0.12610 0.68326 0.62737
 H259 H 0.03651 0.67899 0.62709
 H260 H 0.05873 0.80364 0.56994
 H261 H 0.06239 0.75993 0.60059
 C262 C 0.31280 0.28617 0.25329
 C263 C 0.29600 0.30435 0.23412
 C264 C 0.26008 0.26078 0.22097
 C265 C 0.24134 0.19939 0.22677
 C266 C 0.25898 0.18332 0.24603
 N267 N 0.29368 0.22633 0.25852
 C268 C 0.35079 0.32895 0.26822
 N269 N 0.37394 0.30727 0.28455
 C270 C 0.40678 0.34177 0.29958
 C271 C 0.41772 0.40204 0.29878
 C272 C 0.39489 0.42592 0.28213
 C273 C 0.36147 0.38962 0.26676
 H274 H 0.24803 0.27509 0.20615
 H275 H 0.24486 0.13652 0.25126
 H276 H 0.42331 0.32182 0.31233
 H277 H 0.40166 0.47208 0.28131
 H278 H 0.31095 0.35130 0.22908
 H279 H 0.34291 0.40865 0.25438
 C280 C 0.68808 -0.08461 -0.07951
 C281 C 0.72874 -0.02909 -0.08727
 C282 C 0.76311 -0.02748 -0.10119
 C283 C 0.75770 -0.08107 -0.10766
 C284 C 0.71451 -0.13583 -0.09998
 N285 N 0.68229 -0.13612 -0.08607
 C286 C 0.65512 -0.08826 -0.06321
 N287 N 0.64058 -0.13638 -0.04960
 C288 C 0.61489 -0.14011 -0.03330
 C289 C 0.60268 -0.09342 -0.02997
 C290 C 0.61582 -0.04420 -0.04401
 C291 C 0.64153 -0.04166 -0.06073
 H292 H 0.79326 0.01634 -0.10706
 H293 H 0.70853 -0.17869 -0.10397
 H294 H 0.60531 -0.17871 -0.02269
 H295 H 0.60735 -0.00718 -0.04179
 H296 H 0.73566 0.01294 -0.08221
 H297 H 0.65122 -0.00328 -0.07141
 C298 C 0.29296 -0.06354 0.09559
 C299 C 0.28022 -0.10398 0.11255
 C300 C 0.24979 -0.09829 0.12664
 C301 C 0.23257 -0.05222 0.12399
 C302 C 0.24639 -0.01282 0.10690
 N303 N 0.27568 -0.01940 0.09343
 C304 C 0.32397 -0.06655 0.07968
 N305 N 0.34346 -0.01864 0.06605
 C306 C 0.36881 -0.01834 0.05014
 C307 C 0.37528 -0.06880 0.04707
 C308 C 0.35636 -0.11861 0.06094
 C309 C 0.33077 -0.11772 0.07731
 H310 H 0.24053 -0.12922 0.13973
 H311 H 0.23315 0.02272 0.10403
 H312 H 0.38253 0.02065 0.03961
 H313 H 0.35977 -0.15874 0.05873
 H314 H 0.29394 -0.13910 0.11517
 H315 H 0.31477 -0.15749 0.08740
 C316 C 0.77242 0.83497 0.40733
 C317 C 0.74805 0.84392 0.42265
 C318 C 0.78247 0.88956 0.43527
 C319 C 0.84147 0.92786 0.43255
 C320 C 0.86325 0.91670 0.41663
 N321 N 0.82907 0.87117 0.40495
 C322 C 0.73923 0.78666 0.39380
 N323 N 0.76777 0.76149 0.38635
 C324 C 0.74151 0.71957 0.37286
 C325 C 0.68330 0.70159 0.36569
 C326 C 0.65294 0.72704 0.37309
 C327 C 0.68055 0.76907 0.38734
 H328 H 0.76133 0.89576 0.44654
 H329 H 0.90828 0.94106 0.41396
 H330 H 0.76646 0.70136 0.36736
 H331 H 0.60843 0.71552 0.36746
 H332 H 0.70311 0.81545 0.42507
 H333 H 0.65701 0.78941 0.39255
 C334 C -0.05841 0.21491 0.74117
 C335 C -0.06592 0.15783 0.73761
 C336 C -0.05940 0.11946 0.75340
 C337 C -0.04599 0.13759 0.77271
 C338 C -0.03752 0.19554 0.77561
 N339 N -0.04354 0.23243 0.75997
 C340 C -0.06639 0.25617 0.72491
 N341 N -0.03095 0.31639 0.72508
 C342 C -0.03517 0.35629 0.71018
 C343 C -0.07748 0.33614 0.69407
 C344 C -0.11526 0.27444 0.69389
 C345 C -0.10985 0.23436 0.70924
 H346 H -0.06663 0.07495 0.75060
 H347 H -0.02670 0.21117 0.79032
 H348 H -0.00457 0.40343 0.71066
 H349 H -0.14831 0.25724 0.68168
 H350 H -0.07662 0.14302 0.72279
 H351 H -0.13943 0.18689 0.70886
 C352 C 0.78986 -0.04890 0.08589
 C353 C 0.82545 -0.07707 0.08594
 C354 C 0.87418 -0.06241 0.09956
 C355 C 0.88814 -0.01947 0.11314
 C356 C 0.85158 0.00785 0.11261
 N357 N 0.80429 -0.00698 0.09909
 C358 C 0.73873 -0.06170 0.07120
 N359 N 0.72115 -0.01810 0.06551
 C360 C 0.67674 -0.02555 0.05125
 C361 C 0.64742 -0.07936 0.04179
 C362 C 0.66370 -0.12542 0.04772
 C363 C 0.70891 -0.11705 0.06252
 H364 H 0.90070 -0.08519 0.09958
 H365 H 0.86101 0.04148 0.12274
 H366 H 0.66544 0.01108 0.04688
 H367 H 0.64187 -0.16749 0.04069
 H368 H 0.81675 -0.10922 0.07536
 H369 H 0.72030 -0.15354 0.06699
 C370 C 0.30132 0.32874 0.41410
 C371 C 0.31853 0.31294 0.43352
 C372 C 0.27658 0.27935 0.44660
 C373 C 0.21773 0.26187 0.44045
 C374 C 0.20260 0.27879 0.42097
 N375 N 0.24403 0.31124 0.40856
 C376 C 0.34254 0.36362 0.39918
 N377 N 0.32348 0.38893 0.38274
 C378 C 0.35644 0.41834 0.36761
 C379 C 0.41211 0.42303 0.36836
 C380 C 0.43326 0.39795 0.38514
 C381 C 0.39871 0.36831 0.40064
 H382 H 0.29020 0.26795 0.46159
 H383 H 0.15777 0.26553 0.41544
 H384 H 0.33863 0.43671 0.35477
 H385 H 0.47572 0.39976 0.38594
 H386 H 0.36361 0.32691 0.43876
 H387 H 0.41522 0.34754 0.41312
 C388 C -0.10932 0.69326 0.74804
 C389 C -0.16243 0.68564 0.75329
 C390 C -0.16281 0.71617 0.76886
 C391 C -0.11060 0.75398 0.77926
 C392 C -0.05868 0.75999 0.77357
 N393 N -0.05940 0.73032 0.75832
 C394 C -0.10473 0.66559 0.73102
 N395 N -0.05294 0.69049 0.72324
 C396 C -0.04460 0.66936 0.70741
 C397 C -0.09002 0.61997 0.69843
 C398 C -0.14364 0.59272 0.70624
 C399 C -0.15120 0.61520 0.72260
 H400 H -0.20381 0.71035 0.77274
 H401 H -0.01728 0.78965 0.78083
 H402 H -0.00270 0.69150 0.70168
 H403 H -0.17966 0.55463 0.69952
 H404 H -0.20315 0.65796 0.74523
 H405 H -0.19274 0.59308 0.72852
   
