data_POSCAR
  _audit_creation_date              2014-09-24
  _audit_creation_method            'ToBaCCo'
  _symmetry_space_group_name_H-M    'P1'
  _symmetry_Int_Tables_number       1
  _symmetry_cell_setting            triclinic
  loop_
  _symmetry_equiv_pos_as_xyz
 x,y,z
_cell_length_a 29.0892
_cell_length_b 29.1562
_cell_length_c 29.0272
_cell_angle_alpha 89.920200
_cell_angle_beta 89.981500
_cell_angle_gamma 90.024100
loop_
  _atom_site_label
  _atom_site_type_symbol
  _atom_site_fract_x
  _atom_site_fract_y
  _atom_site_fract_z
N1 N 0.54928 0.09311 0.02185
 N2 N 0.58248 0.11973 0.03753
 N3 N 0.45253 0.09260 -0.02311
 N4 N 0.41928 0.11888 -0.03933
 N5 N 0.45259 0.09295 0.02215
 N6 N 0.41941 0.11949 0.03800
 N7 N 0.54922 0.09268 -0.02340
 N8 N 0.58236 0.11901 -0.03979
 C9 C 0.60286 0.13527 -0.00134
 C10 C 0.39888 0.13503 -0.00077
 N11 N 0.45240 -0.02295 -0.09209
 N12 N 0.41906 -0.03917 -0.11829
 N13 N 0.54910 0.02214 -0.09295
 N14 N 0.58183 0.03789 -0.12030
 N15 N 0.54913 -0.02288 -0.09219
 N16 N 0.58391 -0.03949 -0.12067
 N17 N 0.45241 0.02210 -0.09258
 N18 N 0.41908 0.03782 -0.11911
 Mn19 Mn 0.50082 0.05773 -0.05837
 C20 C 0.39854 -0.00082 -0.13454
 C21 C 0.60287 -0.00020 -0.13662
 N22 N 0.45284 0.02365 0.09310
 N23 N 0.41955 0.03974 0.11944
 N24 N 0.54961 -0.02119 0.09337
 N25 N 0.58238 -0.03688 0.12068
 N26 N 0.54959 0.02384 0.09263
 N27 N 0.58436 0.04050 0.12109
 N28 N 0.45294 -0.02141 0.09356
 N29 N 0.41973 -0.03724 0.12020
 Mn30 Mn 0.50106 0.05874 0.05781
 C31 C 0.39916 0.00132 0.13575
 C32 C 0.60339 0.00123 0.13699
 N33 N 0.54933 -0.09212 -0.02144
 N34 N 0.58254 -0.11857 -0.03736
 N35 N 0.45282 -0.09190 0.02409
 N36 N 0.41970 -0.11828 0.04047
 N37 N 0.45265 -0.09223 -0.02116
 N38 N 0.41945 -0.11883 -0.03685
 N39 N 0.54952 -0.09171 0.02381
 N40 N 0.58286 -0.11790 0.03997
 Mn41 Mn 0.50086 -0.05790 -0.05709
 Mn42 Mn 0.50123 -0.05691 0.05907
 Cl43 Cl 0.50097 0.00042 0.00036
 C44 C 0.60320 -0.13404 0.00136
 C45 C 0.39914 -0.13446 0.00202
 N46 N 0.09327 0.45163 0.02189
 N47 N 0.11958 0.41828 0.03775
 N48 N 0.09389 0.54853 -0.02251
 N49 N 0.12044 0.58183 -0.03816
 N50 N 0.09369 0.54810 0.02274
 N51 N 0.12010 0.58107 0.03917
 N52 N 0.09344 0.45206 -0.02336
 N53 N 0.11990 0.41902 -0.03958
 C54 C 0.13557 0.39819 -0.00102
 C55 C 0.13619 0.60186 0.00075
 N56 N -0.02100 0.54976 -0.09328
 N57 N -0.03677 0.58266 -0.12033
 N58 N 0.02365 0.45308 -0.09385
 N59 N 0.03958 0.41989 -0.12031
 N60 N -0.02150 0.45330 -0.09402
 N61 N -0.03758 0.42028 -0.12060
 N62 N 0.02413 0.54960 -0.09284
 N63 N 0.04079 0.58443 -0.12125
 Mn64 Mn 0.05914 0.50081 -0.05852
 C65 C 0.00140 0.60363 -0.13679
 C66 C 0.00095 0.39971 -0.13642
 N67 N 0.02333 0.54770 0.09266
 N68 N 0.03933 0.58066 0.11939
 N69 N -0.02225 0.45141 0.09164
 N70 N -0.03850 0.41814 0.11790
 N71 N 0.02291 0.45124 0.09182
 N72 N 0.03866 0.41784 0.11821
 N73 N -0.02183 0.54787 0.09246
 N74 N -0.03783 0.58093 0.11903
 Mn75 Mn 0.05865 0.49966 0.05764
 C76 C 0.00074 0.60112 0.13523
 C77 C -0.00007 0.39744 0.13385
 N78 N -0.09184 0.45290 -0.02410
 N79 N -0.11828 0.41993 -0.04052
 N80 N -0.09155 0.54887 0.02199
 N81 N -0.11793 0.58195 0.03824
 N82 N -0.09135 0.54938 -0.02326
 N83 N -0.11759 0.58280 -0.03908
 N84 N -0.09198 0.45242 0.02115
 N85 N -0.11853 0.41913 0.03681
 Mn86 Mn -0.05678 0.50135 -0.05902
 Mn87 Mn -0.05726 0.50014 0.05716
 Cl88 Cl 0.00094 0.50048 -0.00068
 C89 C -0.13433 0.39913 -0.00208
 C90 C -0.13356 0.60286 -0.00028
 N91 N 0.02149 0.09167 0.45164
 N92 N 0.03758 0.11802 0.41830
 N93 N -0.02382 0.09198 0.54846
 N94 N -0.03981 0.11868 0.58149
 N95 N 0.02134 0.09189 0.54853
 N96 N 0.03735 0.11851 0.58160
 N97 N -0.02367 0.09169 0.45156
 N98 N -0.03958 0.11806 0.41817
 C99 C -0.00094 0.13386 0.39768
 C100 C -0.00121 0.13459 0.60193
 N101 N -0.09407 -0.02289 0.54886
 N102 N -0.12075 -0.03868 0.58211
 N103 N -0.09385 0.02187 0.45175
 N104 N -0.12042 0.03775 0.41849
 N105 N -0.09392 -0.02319 0.45196
 N106 N -0.12052 -0.03924 0.41885
 N107 N -0.09397 0.02217 0.54864
 N108 N -0.12057 0.03831 0.58171
 Mn109 Mn -0.05918 0.05728 0.50010
 C110 C -0.13665 -0.00007 0.60235
 C111 C -0.13642 -0.00080 0.39820
 N112 N 0.09129 0.02191 0.54890
 N113 N 0.11784 0.03790 0.58209
 N114 N 0.09139 -0.02332 0.45214
 N115 N 0.11802 -0.03934 0.41902
 N116 N 0.09143 0.02173 0.45201
 N117 N 0.11807 0.03765 0.41881
 N118 N 0.09122 -0.02314 0.54905
 N119 N 0.11771 -0.03908 0.58233
 Mn120 Mn 0.05674 0.05715 0.50028
 C121 C 0.13369 -0.00058 0.60270
 C122 C 0.13403 -0.00086 0.39847
 N123 N -0.02395 -0.09315 0.45230
 N124 N -0.03992 -0.11967 0.41911
 N125 N 0.02107 -0.09297 0.54923
 N126 N 0.03698 -0.11958 0.58243
 N127 N -0.02409 -0.09291 0.54921
 N128 N -0.04017 -0.11947 0.58238
 N129 N 0.02121 -0.09316 0.45234
 N130 N 0.03725 -0.11966 0.41919
 Mn131 Mn -0.05936 -0.05839 0.50059
 Mn132 Mn 0.05657 -0.05850 0.50069
 Cl133 Cl -0.00131 -0.00062 0.50042
 C134 C -0.00131 -0.13558 0.39871
 C135 C -0.00164 -0.13547 0.60287
 C136 C -0.29331 0.22910 -0.00239
 N137 N -0.27972 0.24874 -0.04254
 N138 N -0.24744 0.28119 -0.04268
 C139 C -0.22776 0.29498 -0.00267
 N140 N -0.24130 0.27529 0.03747
 N141 N -0.27358 0.24285 0.03761
 C142 C -0.32922 0.19536 -0.00207
 C143 C -0.35994 0.16761 -0.00176
 C144 C -0.19419 0.33104 -0.00263
 C145 C -0.16655 0.36185 -0.00246
 C146 C 0.29524 0.77179 0.00244
 N147 N 0.28147 0.75190 0.04240
 N148 N 0.24916 0.71948 0.04217
 C149 C 0.22965 0.70596 0.00199
 N150 N 0.24337 0.72590 -0.03796
 N151 N 0.27567 0.75832 -0.03774
 C152 C 0.33118 0.80550 0.00248
 C153 C 0.36192 0.83323 0.00237
 C154 C 0.19606 0.66992 0.00158
 C155 C 0.16841 0.63912 0.00120
 C156 C 0.29479 0.22851 -0.00126
 N157 N 0.27663 0.24369 0.03897
 N158 N 0.24427 0.27603 0.03893
 C159 C 0.22908 0.29417 -0.00133
 N160 N 0.24719 0.27894 -0.04157
 N161 N 0.27956 0.24660 -0.04153
 C162 C 0.33080 0.19490 -0.00113
 C163 C 0.36160 0.16725 -0.00099
 C164 C 0.19545 0.33016 -0.00129
 C165 C 0.16779 0.36093 -0.00120
 C166 C -0.29259 0.77265 0.00120
 N167 N -0.27474 0.75756 -0.03920
 N168 N -0.24238 0.72521 -0.03948
 C169 C -0.22690 0.70699 0.00063
 N170 N -0.24469 0.72214 0.04103
 N171 N -0.27705 0.75449 0.04131
 C172 C -0.32863 0.80623 0.00141
 C173 C -0.35946 0.83383 0.00147
 C174 C -0.19331 0.67098 0.00026
 C175 C -0.16570 0.64017 -0.00002
 C176 C 0.00011 -0.29505 0.22903
 N177 N 0.04013 -0.27822 0.24599
 N178 N 0.03978 -0.24584 0.27835
 C179 C -0.00062 -0.22932 0.29474
 N180 N -0.04065 -0.24611 0.27773
 N181 N -0.04029 -0.27848 0.24537
 C182 C 0.00047 -0.33101 0.19534
 C183 C 0.00067 -0.36173 0.16760
 C184 C -0.00099 -0.19563 0.33072
 C185 C -0.00121 -0.16790 0.36148
 C186 C 0.00019 0.29527 0.77045
 N187 N -0.04021 0.27886 0.75396
 N188 N -0.04058 0.24624 0.72184
 C189 C -0.00056 0.22904 0.70525
 N190 N 0.03984 0.24541 0.72179
 N191 N 0.04021 0.27803 0.75391
 C192 C 0.00058 0.33147 0.80389
 C193 C 0.00082 0.36237 0.83143
 C194 C -0.00093 0.19509 0.66952
 C195 C -0.00114 0.16715 0.63896
 C196 C -0.00062 0.29311 0.22736
 N197 N -0.04086 0.27706 0.24465
 N198 N -0.04093 0.24466 0.27709
 C199 C -0.00076 0.22734 0.29321
 N200 N 0.03948 0.24334 0.27588
 N201 N 0.03955 0.27574 0.24344
 C202 C -0.00049 0.32919 0.19370
 C203 C -0.00034 0.36005 0.16604
 C204 C -0.00080 0.19370 0.32934
 C205 C -0.00085 0.16605 0.36024
 C206 C -0.00100 -0.29585 0.77218
 N207 N 0.03844 -0.27402 0.76027
 N208 N 0.03812 -0.24148 0.72797
 C209 C -0.00166 -0.22979 0.70662
 N210 N -0.04112 -0.25158 0.71858
 N211 N -0.04079 -0.28412 0.75088
 C212 C -0.00036 -0.33193 0.80586
 C213 C 0.00038 -0.36270 0.83364
 C214 C -0.00175 -0.19589 0.67073
 C215 C -0.00173 -0.16798 0.64005
 C216 C 0.29389 -0.00108 0.77220
 N217 N 0.27623 0.03908 0.75656
 N218 N 0.24367 0.03919 0.72428
 C219 C 0.22777 -0.00085 0.70666
 N220 N 0.24538 -0.04101 0.72235
 N221 N 0.27794 -0.04112 0.75463
 C222 C 0.33011 -0.00113 0.80574
 C223 C 0.36107 -0.00106 0.83332
 C224 C 0.19393 -0.00069 0.67072
 C225 C 0.16610 -0.00060 0.63996
 C226 C -0.29640 -0.00080 0.22844
 N227 N -0.28460 -0.04042 0.24992
 N228 N -0.25216 -0.04057 0.28234
 C229 C -0.23054 -0.00111 0.29425
 N230 N -0.24229 0.03850 0.27272
 N231 N -0.27473 0.03866 0.24031
 C232 C -0.33236 -0.00035 0.19462
 C233 C -0.36304 0.00028 0.16671
 C234 C -0.19672 -0.00102 0.33023
 C235 C -0.16888 -0.00091 0.36098
 C236 C 0.29457 0.00078 0.22917
 N237 N 0.27787 0.04067 0.24634
 N238 N 0.24526 0.04023 0.27861
 C239 C 0.22838 -0.00011 0.29468
 N240 N 0.24504 -0.04000 0.27745
 N241 N 0.27765 -0.03956 0.24518
 C242 C 0.33079 0.00120 0.19560
 C243 C 0.36174 0.00139 0.16797
 C244 C 0.19446 -0.00058 0.33058
 C245 C 0.16655 -0.00083 0.36128
 C246 C -0.29684 0.00140 0.77197
 N247 N -0.27459 -0.03801 0.76113
 N248 N -0.24211 -0.03820 0.72873
 C249 C -0.23091 0.00103 0.70621
 N250 N -0.25311 0.04045 0.71710
 N251 N -0.28559 0.04064 0.74949
 C252 C -0.33284 0.00125 0.80577
 C253 C -0.36355 0.00076 0.83367
 C254 C -0.19704 0.00056 0.67026
 C255 C -0.16916 0.00020 0.63954
   
