data_POSCAR
  _audit_creation_date              2014-09-24
  _audit_creation_method            'ToBaCCo'
  _symmetry_space_group_name_H-M    'P1'
  _symmetry_Int_Tables_number       1
  _symmetry_cell_setting            triclinic
  loop_
  _symmetry_equiv_pos_as_xyz
 x,y,z
_cell_length_a 24.2448
_cell_length_b 21.2418
_cell_length_c 20.1716
_cell_angle_alpha 94.064300
_cell_angle_beta 87.948500
_cell_angle_gamma 85.688300
loop_
  _atom_site_label
  _atom_site_type_symbol
  _atom_site_fract_x
  _atom_site_fract_y
  _atom_site_fract_z
C1 C 0.12919 1.30037 0.23837
 C2 C 0.12439 1.27613 0.30094
 C3 C 0.15931 1.22442 0.31652
 C4 C 0.19883 1.19634 0.26927
 C5 C 0.20423 1.22023 0.20615
 C6 C 0.16895 1.27226 0.19079
 H7 H 0.09489 1.29909 0.33838
 H8 H 0.22624 1.15694 0.28250
 H9 H 0.17376 1.29193 0.14300
 C10 C 0.82893 0.82202 0.13027
 C11 C 0.77311 0.83966 0.12185
 C12 C 0.74157 0.87635 0.17249
 C13 C 0.76644 0.89465 0.23178
 C14 C 0.82190 0.87511 0.24147
 C15 C 0.85296 0.83846 0.19039
 H16 H 0.75533 0.82832 0.07435
 H17 H 0.74287 0.92481 0.26996
 H18 H 0.89665 0.82591 0.19577
 C19 C 0.79420 1.24877 -0.16909
 C20 C 0.84263 1.20907 -0.18210
 C21 C 0.84087 1.14340 -0.18299
 C22 C 0.79041 1.11729 -0.17150
 C23 C 0.74169 1.15669 -0.15800
 C24 C 0.74368 1.22280 -0.15688
 H25 H 0.88182 1.22934 -0.19043
 H26 H 0.78917 1.06640 -0.17125
 H27 H 0.70643 1.25384 -0.14604
 C28 C 0.22606 0.66693 -0.21920
 C29 C 0.21666 0.67916 -0.28567
 C30 C 0.24333 0.72729 -0.31480
 C31 C 0.27917 0.76321 -0.27779
 C32 C 0.28839 0.75142 -0.21133
 C33 C 0.26233 0.70276 -0.18288
 H34 H 0.18737 0.65317 -0.31378
 H35 H 0.29811 0.80167 -0.30007
 H36 H 0.26824 0.69473 -0.13106
 C37 C 0.51065 1.12959 -0.04368
 H38 H 0.47815 1.15493 -0.01210
 C39 C 0.55390 1.16216 -0.06922
 H40 H 0.55420 1.21275 -0.05806
 C41 C 0.55315 1.03217 -0.09230
 H42 H 0.55352 0.98116 -0.09904
 C43 C 0.59708 1.06261 -0.11817
 H44 H 0.63067 1.03473 -0.14575
 N45 N 0.51176 1.06554 -0.05467
 C46 C 0.40753 1.04907 0.11392
 H47 H 0.43579 1.01362 0.13291
 C48 C 0.36544 1.07958 0.15595
 H49 H 0.36209 1.06840 0.20743
 C50 C 0.37497 1.10460 0.02333
 H51 H 0.37849 1.11304 -0.02886
 C52 C 0.33211 1.13643 0.06394
 H53 H 0.30288 1.16983 0.04304
 Zn54 Zn 0.46589 1.01445 -0.00781
 N55 N 0.41175 1.06212 0.04897
 C56 C 0.54446 0.99875 0.08800
 N57 N 0.51582 0.96617 0.04196
 C58 C 0.52964 0.90384 0.02414
 C59 C 0.57531 0.87259 0.05126
 C60 C 0.58983 0.96904 0.11704
 C61 C 0.43158 0.96554 -0.13365
 C62 C 0.40383 0.92456 -0.17569
 C63 C 0.37108 0.87473 -0.07926
 C64 C 0.39896 0.91691 -0.03908
 N65 N 0.42900 0.96058 -0.06674
 H66 H 0.53372 1.04878 0.09956
 H67 H 0.50779 0.87943 -0.01437
 H68 H 0.58801 0.82401 0.03421
 H69 H 0.61362 0.99637 0.15138
 H70 H 0.45480 1.00145 -0.15444
 H71 H 0.40581 0.92876 -0.22889
 H72 H 0.34752 0.84012 -0.05642
 H73 H 0.39716 0.91462 0.01436
 C74 C 0.32718 1.12342 0.13108
 C75 C 0.59851 1.12820 -0.10501
 C76 C 0.37357 0.87839 -0.14853
 C77 C 0.60649 0.90567 0.09702
 C78 C -0.02394 0.63714 0.95891
 H79 H 0.01119 0.62672 0.92453
 C80 C -0.04476 0.69980 0.97207
 H81 H -0.02545 0.73708 0.94813
 C82 C -0.09299 0.60237 1.03089
 H83 H -0.11188 0.56386 1.05297
 C84 C -0.11440 0.66491 1.04672
 H85 H -0.14986 0.67455 1.08107
 N86 N -0.04765 0.58981 0.98882
 C87 C 0.03707 0.41159 1.04388
 H88 H 0.04350 0.38438 0.99649
 C89 C 0.05871 0.38736 1.10127
 H90 H 0.08100 0.34108 1.09804
 C91 C 0.00221 0.50606 1.10576
 H92 H -0.01823 0.55300 1.10764
 C93 C 0.02294 0.48372 1.16389
 H94 H 0.01739 0.51312 1.21010
 Zn95 Zn -0.01698 0.50513 0.96860
 N96 N 0.00894 0.46986 1.04722
 C97 C 0.09163 0.52636 0.93517
 N98 N 0.04395 0.50888 0.90831
 C99 C 0.03653 0.50909 0.84175
 C100 C 0.07652 0.53215 0.80013
 C101 C 0.13245 0.54981 0.89547
 C102 C -0.10601 0.49061 0.88714
 C103 C -0.14868 0.46088 0.85621
 C104 C -0.12179 0.36623 0.91055
 C105 C -0.08001 0.39809 0.94127
 N106 N -0.07258 0.45902 0.92857
 H107 H 0.09591 0.52724 0.98840
 H108 H -0.00212 0.49622 0.82169
 H109 H 0.06872 0.53638 0.74805
 H110 H 0.16847 0.56738 0.91852
 H111 H -0.09953 0.53917 0.87818
 H112 H -0.17501 0.48642 0.82328
 H113 H -0.12706 0.31769 0.92087
 H114 H -0.05364 0.37401 0.97501
 C115 C 0.05154 0.42409 1.16208
 C116 C -0.08971 0.71423 1.01702
 C117 C -0.15660 0.39799 0.86732
 C118 C 0.12376 0.55554 0.82759
 C119 C 1.13391 -0.11087 0.49903
 H120 H 1.13380 -0.08426 0.45525
 C121 C 1.17523 -0.15935 0.50526
 H122 H 1.20731 -0.16993 0.46649
 C123 C 1.09195 -0.13036 0.60281
 H124 H 1.05852 -0.12025 0.63977
 C125 C 1.13318 -0.17816 0.61173
 H126 H 1.13166 -0.20383 0.65616
 N127 N 1.09370 -0.09687 0.54779
 C128 C 1.11009 0.06816 0.54163
 H129 H 1.11645 0.05360 0.59108
 C130 C 1.13755 0.11871 0.51978
 H131 H 1.16456 0.14318 0.55268
 C132 C 1.06833 0.05395 0.43777
 H133 H 1.04196 0.02805 0.40554
 C134 C 1.09544 0.10409 0.41368
 H135 H 1.08917 0.11685 0.36334
 Zn136 Zn 1.03911 -0.03044 0.53521
 N137 N 1.07562 0.03736 0.50108
 C138 C 1.03428 0.00604 0.67224
 N139 N 1.00241 -0.00111 0.61837
 C140 C 0.94680 0.01458 0.62359
 C141 C 0.92168 0.04003 0.68416
 C142 C 1.01065 0.02958 0.73391
 C143 C 0.99633 -0.12278 0.44883
 C144 C 0.96372 -0.14633 0.39868
 C145 C 0.91342 -0.04366 0.40061
 C146 C 0.94775 -0.02158 0.45001
 N147 N 0.98858 -0.06107 0.47276
 H148 H 1.07825 -0.00700 0.66763
 H149 H 0.92177 0.00826 0.58087
 H150 H 0.87758 0.05305 0.68745
 H151 H 1.03645 0.03486 0.77637
 H152 H 1.02870 -0.15368 0.46740
 H153 H 0.97138 -0.19495 0.37851
 H154 H 0.88208 -0.01141 0.38170
 H155 H 0.94298 0.02761 0.46867
 C156 C 1.13030 0.13717 0.45540
 C157 C 1.17563 -0.19269 0.56257
 C158 C 0.92210 -0.10662 0.37392
 C159 C 0.95410 0.04782 0.74000
 N160 N 0.10015 0.35288 1.22787
 N161 N 0.07295 0.40357 1.22287
 N162 N -0.13965 0.79844 1.07920
 N163 N -0.10918 0.77923 1.03072
 N164 N -0.20330 0.31009 0.83281
 N165 N -0.19991 0.36772 0.83409
 N166 N 0.19494 0.62391 0.81538
 N167 N 0.15768 0.59272 0.78869
 N168 N 1.15838 0.20582 0.37693
 N169 N 1.15894 0.18930 0.43424
 N170 N 1.23117 -0.25714 0.62563
 N171 N 1.21965 -0.24017 0.57032
 N172 N 0.84752 -0.10275 0.30071
 N173 N 0.89266 -0.12994 0.31830
 N174 N 0.88689 0.10699 0.80921
 N175 N 0.93107 0.07407 0.80320
 N176 N 0.24687 1.19388 0.15878
 N177 N 0.28348 1.15230 0.17515
 N178 N 0.69163 1.12809 -0.14263
 N179 N 0.64669 1.15967 -0.12246
 N180 N 0.32015 0.79125 -0.16996
 N181 N 0.34432 0.83729 -0.19164
 N182 N 0.68654 0.90139 0.16110
 N183 N 0.65856 0.87704 0.11507
   
