data_POSCAR
  _audit_creation_date              2014-09-24
  _audit_creation_method            'ToBaCCo'
  _symmetry_space_group_name_H-M    'P1'
  _symmetry_Int_Tables_number       1
  _symmetry_cell_setting            triclinic
  loop_
  _symmetry_equiv_pos_as_xyz
 x,y,z
_cell_length_a 48.1920
_cell_length_b 48.0945
_cell_length_c 48.7478
_cell_angle_alpha 90.363200
_cell_angle_beta 92.933400
_cell_angle_gamma 83.255300
loop_
  _atom_site_label
  _atom_site_type_symbol
  _atom_site_fract_x
  _atom_site_fract_y
  _atom_site_fract_z
C1 C 0.18937 0.54213 1.02038
 H2 H 0.18294 0.54666 0.99920
 C3 C 0.16898 0.54255 1.03956
 H4 H 0.14730 0.54718 1.03236
 C5 C 0.22526 0.53120 1.05487
 H6 H 0.24730 0.52693 1.06070
 C7 C 0.20536 0.53111 1.07494
 H8 H 0.21246 0.52657 1.09604
 N9 N 0.21691 0.53589 1.02801
 C10 C 0.27366 0.57129 0.97450
 H11 H 0.26895 0.56011 0.95588
 C12 C 0.29297 0.59065 0.97418
 H13 H 0.30278 0.59412 0.95520
 C14 C 0.26747 0.57946 1.02187
 H15 H 0.25813 0.57436 1.04060
 C16 C 0.28667 0.59922 1.02244
 H17 H 0.29184 0.60922 1.04169
 Zn18 Zn 0.24184 0.53371 0.99862
 N19 N 0.26188 0.56547 0.99824
 C20 C 0.21104 0.55356 0.94914
 N21 N 0.21985 0.53112 0.96555
 C22 C 0.21027 0.50594 0.96100
 C23 C 0.19042 0.50274 0.93978
 C24 C 0.19141 0.55117 0.92734
 C25 C 0.27033 0.48146 1.02068
 C26 C 0.29173 0.45898 1.02109
 C27 C 0.30837 0.47715 0.97972
 C28 C 0.28669 0.49894 0.97998
 N29 N 0.26860 0.50124 1.00058
 H30 H 0.21809 0.57368 0.95373
 H31 H 0.21720 0.48861 0.97469
 H32 H 0.18244 0.48272 0.93708
 H33 H 0.18388 0.56943 0.91504
 H34 H 0.25531 0.48304 1.03646
 H35 H 0.29317 0.44371 1.03747
 H36 H 0.32267 0.47619 0.96323
 H37 H 0.28444 0.51417 0.96366
 C38 C 0.30037 0.60427 0.99853
 C39 C 0.17661 0.53636 1.06728
 C40 C 0.31142 0.45699 1.00065
 C41 C 0.18035 0.52567 0.92296
 C42 C 0.78091 0.49554 -0.04792
 H43 H 0.77485 0.51126 -0.03272
 C44 C 0.79779 0.50178 -0.06883
 H45 H 0.80436 0.52251 -0.06962
 C46 C 0.78056 0.44908 -0.06435
 H47 H 0.77454 0.42832 -0.06190
 C48 C 0.79744 0.45448 -0.08579
 H49 H 0.80406 0.43779 -0.09987
 N50 N 0.77288 0.46953 -0.04588
 C51 C 0.72835 0.51424 0.01099
 H52 H 0.74547 0.51152 0.02626
 C53 C 0.70782 0.53728 0.01279
 H54 H 0.70907 0.55173 0.02981
 C55 C 0.70616 0.49942 -0.03009
 H56 H 0.70583 0.48509 -0.04714
 C57 C 0.68520 0.52183 -0.02896
 H58 H 0.66882 0.52412 -0.04512
 Zn59 Zn 0.75350 0.46351 -0.01407
 N60 N 0.72686 0.49556 -0.01001
 C61 C 0.77288 0.46123 0.04288
 N62 N 0.78023 0.45922 0.01625
 C63 C 0.80754 0.45448 0.00999
 C64 C 0.82870 0.45253 0.03064
 C65 C 0.79354 0.45980 0.06433
 C66 C 0.71966 0.42780 -0.04240
 C67 C 0.70075 0.40801 -0.04477
 C68 C 0.71293 0.39448 0.00231
 C69 C 0.73151 0.41479 0.00387
 N70 N 0.73391 0.43152 -0.01810
 H71 H 0.75101 0.46457 0.04746
 H72 H 0.81311 0.45238 -0.01116
 H73 H 0.85024 0.44925 0.02487
 H74 H 0.78737 0.46214 0.08534
 H75 H 0.72217 0.44092 -0.05979
 H76 H 0.68881 0.40625 -0.06401
 H77 H 0.71033 0.38228 0.02040
 H78 H 0.74295 0.41803 0.02302
 C79 C 0.68565 0.54100 -0.00720
 C80 C 0.80670 0.48101 -0.08786
 C81 C 0.69653 0.39163 -0.02198
 C82 C 0.82193 0.45568 0.05824
 C83 C -0.04667 0.28507 0.44157
 H84 H -0.06437 0.27323 0.43948
 C85 C -0.04283 0.30484 0.42149
 H86 H -0.05767 0.30771 0.40401
 C87 C -0.00650 0.29634 0.46731
 H88 H 0.00748 0.29303 0.48536
 C89 C -0.00202 0.31636 0.44806
 H90 H 0.01565 0.32811 0.45172
 N91 N -0.02846 0.28117 0.46385
 C92 C -0.07993 0.23686 0.51281
 H93 H -0.07522 0.24858 0.53108
 C94 C -0.10047 0.21873 0.51329
 H95 H -0.11177 0.21725 0.53177
 C96 C -0.06916 0.22242 0.46763
 H97 H -0.05590 0.22293 0.45045
 C98 C -0.08990 0.20433 0.46706
 H99 H -0.09266 0.19127 0.44918
 Zn100 Zn -0.03185 0.25668 0.49347
 N101 N -0.06444 0.23807 0.49038
 C102 C -0.05351 0.29883 0.52948
 N103 N -0.03158 0.27891 0.52564
 C104 C -0.00826 0.27680 0.54279
 C105 C -0.00609 0.29564 0.56445
 C106 C -0.05249 0.31771 0.55132
 C107 C 0.02042 0.22715 0.47869
 C108 C 0.04283 0.20594 0.48175
 C109 C 0.02027 0.18750 0.51968
 C110 C -0.00150 0.20914 0.51607
 N111 N -0.00101 0.22848 0.49594
 H112 H -0.07152 0.30046 0.51515
 H113 H 0.00925 0.26134 0.53897
 H114 H 0.01298 0.29423 0.57738
 H115 H -0.06984 0.33385 0.55373
 H116 H 0.02021 0.24246 0.46254
 H117 H 0.05973 0.20519 0.46786
 H118 H 0.01943 0.17242 0.53592
 H119 H -0.01887 0.21066 0.52941
 C120 C -0.10525 0.20173 0.49045
 C121 C -0.02035 0.32109 0.42470
 C122 C 0.04290 0.18573 0.50246
 C123 C -0.02826 0.31660 0.56870
 C124 C 1.01214 0.72777 0.53858
 H125 H 0.99647 0.74569 0.53643
 C126 C 1.01028 0.70826 0.55940
 H127 H 0.99284 0.71115 0.57268
 C128 C 1.05406 0.70236 0.52443
 H129 H 1.07145 0.70037 0.51126
 C130 C 1.05286 0.68228 0.54466
 H131 H 1.06925 0.66484 0.54643
 N132 N 1.03347 0.72414 0.52114
 C133 C 1.01058 0.80446 0.48887
 H134 H 1.03192 0.80914 0.48865
 C135 C 0.98910 0.82648 0.48885
 H136 H 0.99445 0.84772 0.48884
 C137 C 0.97794 0.77131 0.48883
 H138 H 0.97378 0.74969 0.48890
 C139 C 0.95567 0.79285 0.48892
 H140 H 0.93445 0.78756 0.48902
 Zn141 Zn 1.03608 0.74902 0.49141
 N142 N 1.00485 0.77744 0.48932
 C143 C 1.01581 0.72864 0.44001
 N144 N 1.03830 0.72794 0.45818
 C145 C 1.06200 0.71032 0.45430
 C146 C 1.06294 0.69097 0.43284
 C147 C 1.01597 0.70980 0.41800
 C148 C 1.07174 0.77745 0.52418
 C149 C 1.09171 0.79562 0.53014
 C150 C 1.10606 0.79047 0.48341
 C151 C 1.08555 0.77253 0.47824
 N152 N 1.06854 0.76692 0.49843
 H153 H 0.99726 0.74296 0.44313
 H154 H 1.08007 0.71078 0.46825
 H155 H 1.08166 0.67643 0.43082
 H156 H 0.99742 0.70983 0.40449
 H157 H 1.05765 0.77294 0.53970
 H158 H 1.09307 0.80470 0.55048
 H159 H 1.11856 0.79579 0.46680
 H160 H 1.08218 0.76443 0.45776
 C161 C 0.96118 0.82092 0.48924
 C162 C 1.03054 0.68483 0.56221
 C163 C 1.10863 0.80300 0.50941
 C164 C 1.03942 0.68999 0.41483
 C165 C 0.43658 -0.01332 0.27940
 H166 H 0.44279 -0.03156 0.26711
 C167 C 0.41572 -0.01428 0.29808
 H168 H 0.40573 -0.03318 0.29978
 C169 C 0.44353 0.03264 0.29382
 H170 H 0.45528 0.05041 0.29274
 C171 C 0.42226 0.03287 0.31226
 H172 H 0.41765 0.05095 0.32530
 N173 N 0.45027 0.00975 0.27793
 C174 C 0.50292 -0.04491 0.23397
 H175 H 0.51942 -0.04617 0.24993
 C176 C 0.50249 -0.06627 0.21438
 H177 H 0.51878 -0.08383 0.21572
 C178 C 0.46223 -0.02014 0.21257
 H179 H 0.44665 -0.00200 0.21204
 C180 C 0.46125 -0.04065 0.19237
 H181 H 0.44464 -0.03790 0.17645
 Zn182 Zn 0.48237 0.00819 0.25711
 N183 N 0.48293 -0.02245 0.23267
 C184 C 0.51527 -0.01820 0.29996
 N185 N 0.51358 0.00406 0.28265
 C186 C 0.53224 0.02319 0.28519
 C187 C 0.55395 0.01998 0.30547
 C188 C 0.53641 -0.02203 0.32070
 C189 C 0.45727 0.05775 0.23041
 C190 C 0.45569 0.07937 0.21119
 C191 C 0.50432 0.06584 0.20246
 C192 C 0.50474 0.04396 0.22119
 N193 N 0.48156 0.04054 0.23501
 H194 H 0.49983 -0.03279 0.29788
 H195 H 0.53001 0.04136 0.27203
 H196 H 0.56841 0.03559 0.30734
 H197 H 0.53718 -0.03981 0.33435
 H198 H 0.43874 0.05396 0.24068
 H199 H 0.43603 0.09243 0.20716
 H200 H 0.52285 0.06804 0.19137
 H201 H 0.52339 0.02924 0.22424
 C202 C 0.48166 -0.06414 0.19287
 C203 C 0.40864 0.00889 0.31501
 C204 C 0.47942 0.08352 0.19696
 C205 C 0.55607 -0.00275 0.32371
 C206 C 0.57096 -0.03655 0.73538
 H207 H 0.56692 -0.05539 0.74567
 C208 C 0.59168 -0.03801 0.71621
 H209 H 0.60384 -0.05790 0.71230
 C210 C 0.55831 0.01166 0.72581
 H211 H 0.54421 0.03057 0.72854
 C212 C 0.57931 0.01132 0.70707
 H213 H 0.58149 0.03020 0.69578
 N214 N 0.55461 -0.01200 0.73964
 C215 C 0.49916 -0.05679 0.78261
 H216 H 0.48107 -0.04956 0.76943
 C217 C 0.49720 -0.07753 0.80207
 H218 H 0.47770 -0.08646 0.80338
 C219 C 0.54572 -0.05231 0.79861
 H220 H 0.56412 -0.04148 0.79788
 C221 C 0.54490 -0.07351 0.81794
 H222 H 0.56284 -0.07905 0.83194
 Zn223 Zn 0.52216 -0.01158 0.76010
 N224 N 0.52299 -0.04432 0.78155
 C225 C 0.49342 -0.03058 0.71474
 N226 N 0.49171 -0.00993 0.73394
 C227 C 0.46995 0.01087 0.73324
 C228 C 0.44869 0.01129 0.71253
 C229 C 0.47292 -0.03076 0.69355
 C230 C 0.53685 0.03754 0.78886
 C231 C 0.53312 0.05844 0.80890
 C232 C 0.49079 0.04012 0.82095
 C233 C 0.49517 0.01985 0.80058
 N234 N 0.51784 0.01890 0.78497
 H235 H 0.51103 -0.04678 0.71576
 H236 H 0.46922 0.02735 0.74844
 H237 H 0.43166 0.02812 0.71206
 H238 H 0.47489 -0.04730 0.67836
 H239 H 0.55528 0.03590 0.77699
 H240 H 0.54861 0.07290 0.81192
 H241 H 0.47266 0.04027 0.83321
 H242 H 0.48063 0.00447 0.79742
 C243 C 0.52011 -0.08577 0.82031
 C244 C 0.59581 -0.01391 0.70161
 C245 C 0.50996 0.05971 0.82544
 C246 C 0.45023 -0.00958 0.69217
 C247 C 0.22816 -0.02342 0.51723
 C248 C 0.23762 0.00287 0.51473
 C249 C 0.21856 0.02725 0.51497
 C250 C 0.19007 0.02547 0.51860
 C251 C 0.18103 -0.00100 0.52194
 C252 C 0.19983 -0.02552 0.52077
 C253 C 0.26762 0.00441 0.51207
 C254 C 0.27839 0.00532 0.48597
 C255 C 0.30739 0.00254 0.48323
 C256 C 0.32548 -0.00054 0.50674
 C257 C 0.31489 -0.00026 0.53307
 C258 C 0.28582 0.00209 0.53556
 H259 H 0.24296 -0.04219 0.51661
 H260 H 0.22602 0.04746 0.51266
 H261 H 0.26431 0.00687 0.46783
 H262 H 0.27729 0.00128 0.55565
 H263 H 0.15905 -0.00266 0.52427
 H264 H 0.34788 -0.00251 0.50447
 C265 C 0.78585 -0.02199 0.50238
 C266 C 0.76558 0.00146 0.50277
 C267 C 0.77364 0.02849 0.50155
 C268 C 0.80202 0.03207 0.50087
 C269 C 0.82221 0.00859 0.50087
 C270 C 0.81435 -0.01866 0.50115
 C271 C 0.73598 -0.00255 0.50489
 C272 C 0.72529 -0.00565 0.53077
 C273 C 0.69770 -0.01165 0.53290
 C274 C 0.68087 -0.01438 0.50890
 C275 C 0.69101 -0.01025 0.48288
 C276 C 0.71876 -0.00443 0.48106
 H277 H 0.77927 -0.04275 0.50301
 H278 H 0.75798 0.04660 0.50176
 H279 H 0.73862 -0.00393 0.54915
 H280 H 0.72716 -0.00175 0.46118
 H281 H 0.84406 0.01174 0.50020
 H282 H 0.65943 -0.01862 0.51061
 C283 C 0.52314 0.27394 0.99624
 C284 C 0.49725 0.26513 1.00171
 C285 C 0.47357 0.28491 1.00359
 C286 C 0.47534 0.31342 0.99895
 C287 C 0.50130 0.32189 0.99293
 C288 C 0.52532 0.30239 0.99196
 C289 C 0.49445 0.23512 1.00414
 C290 C 0.48901 0.22386 1.02948
 C291 C 0.48440 0.19571 1.03138
 C292 C 0.48492 0.17900 1.00767
 C293 C 0.49117 0.18980 0.98229
 C294 C 0.49609 0.21796 0.98074
 H295 H 0.54140 0.25861 0.99496
 H296 H 0.45364 0.27789 1.00773
 H297 H 0.48817 0.23704 1.04761
 H298 H 0.50045 0.22681 0.96125
 H299 H 0.50303 0.34386 0.98966
 H300 H 0.48158 0.15719 1.00930
 C301 C 0.52613 0.71421 0.01132
 C302 C 0.50168 0.73273 0.01419
 C303 C 0.47563 0.72238 0.01447
 C304 C 0.47375 0.69375 0.01055
 C305 C 0.49826 0.67549 0.00732
 C306 C 0.52456 0.68540 0.00804
 C307 C 0.50265 0.76317 0.01392
 C308 C 0.50620 0.77653 -0.01096
 C309 C 0.50294 0.80582 -0.01257
 C310 C 0.49690 0.82166 0.01109
 C311 C 0.49479 0.80851 0.03641
 C312 C 0.49743 0.77916 0.03766
 H313 H 0.54614 0.72234 0.01087
 H314 H 0.45676 0.73682 0.01617
 H315 H 0.51005 0.76413 -0.02932
 H316 H 0.49482 0.76876 0.05687
 H317 H 0.49683 0.65332 0.00454
 H318 H 0.49470 0.84432 0.00991
 C319 C 1.01128 0.52414 0.27211
 C320 C 1.00461 0.49963 0.25871
 C321 C 1.00043 0.47614 0.27436
 C322 C 1.00425 0.47659 0.30313
 C323 C 1.01169 0.50100 0.31608
 C324 C 1.01477 0.52497 0.30083
 C325 C 1.00349 0.49816 0.22835
 C326 C 1.02609 0.50555 0.21387
 C327 C 1.02555 0.50402 0.18512
 C328 C 1.00224 0.49478 0.17099
 C329 C 0.97953 0.48723 0.18503
 C330 C 0.98023 0.48905 0.21381
 H331 H 1.01415 0.54240 0.26014
 H332 H 0.99539 0.45720 0.26408
 H333 H 1.04407 0.51245 0.22505
 H334 H 0.96281 0.48335 0.22490
 H335 H 1.01433 0.50166 0.33828
 H336 H 1.00172 0.49353 0.14878
 C337 C -0.00273 0.53182 0.71160
 C338 C -0.01006 0.50905 0.72642
 C339 C -0.01394 0.48391 0.71275
 C340 C -0.00883 0.48096 0.68477
 C341 C -0.00082 0.50358 0.67033
 C342 C 0.00161 0.52932 0.68341
 C343 C -0.01135 0.51080 0.75652
 C344 C -0.03599 0.50669 0.76937
 C345 C -0.03684 0.50834 0.79808
 C346 C -0.01250 0.51261 0.81380
 C347 C 0.01246 0.51579 0.80125
 C348 C 0.01269 0.51566 0.77252
 H349 H 0.00001 0.55128 0.72218
 H350 H -0.01942 0.46625 0.72418
 H351 H -0.05457 0.50305 0.75703
 H352 H 0.03189 0.51801 0.76257
 H353 H 0.00271 0.50132 0.64861
 H354 H -0.01292 0.51314 0.83601
 C355 C 0.10796 0.11987 0.51215
 N356 N 0.11094 0.14222 0.49614
 N357 N 0.09035 0.16322 0.49308
 C358 C 0.06605 0.16269 0.50597
 N359 N 0.06325 0.14036 0.52208
 N360 N 0.08374 0.11934 0.52504
 C361 C 0.12996 0.09605 0.51481
 N362 N 0.12478 0.07225 0.52737
 N363 N 0.14408 0.05006 0.52891
 C364 C 0.16942 0.05082 0.51814
 N365 N 0.17473 0.07481 0.50587
 N366 N 0.15533 0.09700 0.50417
 C367 C 0.61950 0.60556 -0.00224
 N368 N 0.61721 0.58322 -0.01894
 N369 N 0.63836 0.56299 -0.02058
 C370 C 0.66264 0.56411 -0.00545
 N371 N 0.66497 0.58651 0.01133
 N372 N 0.64380 0.60692 0.01286
 C373 C 0.59544 0.62706 -0.00008
 N374 N 0.59772 0.65161 0.01331
 N375 N 0.57534 0.67052 0.01552
 C376 C 0.54989 0.66542 0.00462
 N377 N 0.54780 0.64090 -0.00883
 N378 N 0.57012 0.62217 -0.01122
 C379 C 0.89742 -0.11194 0.49402
 N380 N 0.89108 -0.13874 0.49368
 N381 N 0.91121 -0.16015 0.49197
 C382 C 0.93841 -0.15556 0.49048
 N383 N 0.94457 -0.12871 0.49075
 N384 N 0.92452 -0.10737 0.49247
 C385 C 0.87563 -0.08805 0.49611
 N386 N 0.88277 -0.06159 0.49657
 N387 N 0.86332 -0.03969 0.49835
 C388 C 0.83590 -0.04330 0.49976
 N389 N 0.82877 -0.06985 0.49935
 N390 N 0.84826 -0.09182 0.49758
 C391 C 0.38016 0.39461 1.00122
 N392 N 0.37959 0.41808 0.98587
 N393 N 0.35769 0.43767 0.98573
 C394 C 0.33546 0.43473 1.00104
 N395 N 0.33605 0.41125 1.01656
 N396 N 0.35797 0.39149 1.01658
 C397 C 0.40465 0.37331 1.00104
 N398 N 0.40453 0.34782 1.01285
 N399 N 0.42691 0.32869 1.01217
 C400 C 0.45028 0.33440 0.99981
 N401 N 0.45028 0.35994 0.98810
 N402 N 0.42791 0.37895 0.98863
 C403 C 0.84640 0.13516 0.49585
 N404 N 0.85017 0.14645 0.47104
 N405 N 0.86493 0.16810 0.46925
 C406 C 0.87620 0.17945 0.49223
 N407 N 0.87195 0.16841 0.51703
 N408 N 0.85747 0.14661 0.51880
 C409 C 0.83274 0.10956 0.49783
 N410 N 0.83774 0.09311 0.52048
 N411 N 0.82731 0.06873 0.52168
 C412 C 0.81111 0.06012 0.50045
 N413 N 0.80575 0.07670 0.47791
 N414 N 0.81649 0.10095 0.47656
 C415 C 0.37050 0.64845 0.00189
 N416 N 0.35151 0.65244 0.02162
 N417 N 0.32880 0.63894 0.02038
 C418 C 0.32414 0.62122 -0.00077
 N419 N 0.34299 0.61769 -0.02062
 N420 N 0.36574 0.63093 -0.01927
 C421 C 0.39676 0.66118 0.00393
 N422 N 0.41849 0.65037 -0.01096
 N423 N 0.44283 0.66085 -0.00878
 C424 C 0.44639 0.68276 0.00818
 N425 N 0.42454 0.69388 0.02290
 N426 N 0.40019 0.68314 0.02095
 C427 C 0.15486 -0.12884 0.52017
 N428 N 0.13484 -0.13325 0.53767
 N429 N 0.12098 -0.15552 0.53479
 C430 C 0.12639 -0.17417 0.51416
 N431 N 0.14667 -0.16990 0.49679
 N432 N 0.16073 -0.14770 0.49982
 C433 C 0.16803 -0.10285 0.52191
 N434 N 0.19099 -0.09974 0.50772
 N435 N 0.20163 -0.07536 0.50800
 C436 C 0.18950 -0.05315 0.52220
 N437 N 0.16666 -0.05639 0.53650
 N438 N 0.15622 -0.08081 0.53646
 C439 C 0.62768 0.34584 0.97819
 N440 N 0.64939 0.34022 0.99698
 N441 N 0.67173 0.35413 0.99654
 C442 C 0.67329 0.37401 0.97714
 N443 N 0.65176 0.37916 0.95809
 N444 N 0.62937 0.36545 0.95867
 C445 C 0.60173 0.33293 0.98023
 N446 N 0.57775 0.34487 0.96724
 N447 N 0.55359 0.33478 0.97058
 C448 C 0.55250 0.31215 0.98682
 N449 N 0.57660 0.29985 0.99945
 N450 N 0.60076 0.31017 0.99635
 C451 C 0.47626 0.13954 1.13130
 N452 N 0.45378 0.12618 1.13641
 N453 N 0.45444 0.10915 1.15794
 C454 C 0.47775 0.10454 1.17491
 N455 N 0.50018 0.11804 1.16986
 N456 N 0.49938 0.13537 1.14854
 C457 C 0.47653 0.15617 1.10623
 N458 N 0.49489 0.17532 1.10419
 N459 N 0.49663 0.18874 1.08061
 C460 C 0.48037 0.18316 1.05814
 N461 N 0.46191 0.16411 1.06025
 N462 N 0.45989 0.15101 1.08392
 C463 C 0.02233 0.62055 0.61792
 N464 N 0.03959 0.61617 0.59682
 N465 N 0.04250 0.63678 0.57951
 C466 C 0.02810 0.66255 0.58244
 N467 N 0.01086 0.66696 0.60365
 N468 N 0.00808 0.64636 0.62113
 C469 C 0.01816 0.59722 0.63592
 N470 N 0.00424 0.60163 0.65937
 N471 N -0.00045 0.58010 0.67489
 C472 C 0.00839 0.55338 0.66738
 N473 N 0.02243 0.54908 0.64400
 N474 N 0.02732 0.57058 0.62864
 C475 C 0.51191 0.86324 -0.11195
 N476 N 0.53684 0.86236 -0.12391
 N477 N 0.53945 0.87820 -0.14578
 C478 C 0.51712 0.89514 -0.15671
 N479 N 0.49214 0.89564 -0.14494
 N480 N 0.48963 0.88013 -0.12289
 C481 C 0.50929 0.84756 -0.08667
 N482 N 0.48898 0.85649 -0.06930
 N483 N 0.48700 0.84313 -0.04578
 C484 C 0.50500 0.82009 -0.03892
 N485 N 0.52514 0.81091 -0.05645
 N486 N 0.52739 0.82455 -0.07983
 C487 C 0.99096 0.38376 0.37022
 N488 N 0.97044 0.36705 0.36501
 N489 N 0.96680 0.34664 0.38244
 C490 C 0.98362 0.34204 0.40567
 N491 N 1.00426 0.35869 0.41051
 N492 N 1.00778 0.37914 0.39326
 C493 C 0.99460 0.40723 0.35209
 N494 N 1.01138 0.42661 0.36079
 N495 N 1.01447 0.44844 0.34509
 C496 C 1.00110 0.45172 0.31993
 N497 N 0.98448 0.43215 0.31105
 N498 N 0.98119 0.41035 0.32690
 C499 C 0.48274 0.87809 0.12987
 N500 N 0.46396 0.90142 0.12906
 N501 N 0.46330 0.91970 0.14968
 C502 C 0.48160 0.91565 0.17186
 N503 N 0.50029 0.89211 0.17267
 N504 N 0.50080 0.87364 0.15213
 C505 C 0.48450 0.85909 0.10620
 N506 N 0.49911 0.83320 0.10819
 N507 N 0.50173 0.81671 0.08615
 C508 C 0.49011 0.82567 0.06130
 N509 N 0.47540 0.85150 0.05943
 N510 N 0.47252 0.86783 0.08149
 C511 C -0.01908 0.38172 0.62460
 N512 N -0.04469 0.37338 0.61876
 N513 N -0.04765 0.35229 0.60138
 C514 C -0.02505 0.33857 0.58950
 N515 N 0.00057 0.34667 0.59575
 N516 N 0.00347 0.36795 0.61283
 C517 C -0.01592 0.40652 0.64160
 N518 N 0.00629 0.42093 0.63864
 N519 N 0.00862 0.44444 0.65266
 C520 C -0.01098 0.45421 0.67046
 N521 N -0.03303 0.43958 0.67379
 N522 N -0.03557 0.41623 0.65943
 C523 C 0.50008 0.11748 0.89015
 N524 N 0.48525 0.09519 0.88858
 N525 N 0.48821 0.07711 0.86785
 C526 C 0.50623 0.08048 0.84793
 N527 N 0.52106 0.10285 0.84951
 N528 N 0.51799 0.12106 0.87019
 C529 C 0.49724 0.13681 0.91357
 N530 N 0.50928 0.16097 0.91407
 N531 N 0.50706 0.17804 0.93572
 C532 C 0.49288 0.17149 0.95774
 N533 N 0.48081 0.14734 0.95711
 N534 N 0.48287 0.13039 0.93543
 C535 C 1.03450 0.62256 0.36049
 N536 N 1.05389 0.62101 0.38177
 N537 N 1.05599 0.64280 0.39839
 C538 C 1.03864 0.66698 0.39458
 N539 N 1.01935 0.66862 0.37311
 N540 N 1.01741 0.64686 0.35630
 C541 C 1.03081 0.59760 0.34380
 N542 N 1.01528 0.59947 0.31968
 N543 N 1.01079 0.57643 0.30555
 C544 C 1.02138 0.55070 0.31520
 N545 N 1.03701 0.54894 0.33923
 N546 N 1.04175 0.57194 0.35317
 C547 C 1.11441 0.52875 0.12107
 N548 N 1.14174 0.52450 0.13007
 N549 N 1.16199 0.52744 0.11295
 C550 C 1.15567 0.53469 0.08618
 N551 N 1.12826 0.53926 0.07756
 N552 N 1.10812 0.53632 0.09456
 C553 C 1.09162 0.52377 0.13871
 N554 N 1.06522 0.52472 0.12746
 N555 N 1.04435 0.51887 0.14242
 C556 C 1.04893 0.51190 0.16933
 N557 N 1.07534 0.51132 0.18080
 N558 N 1.09636 0.51705 0.16572
 C559 C 0.64669 -0.01697 0.63428
 N560 N 0.63401 -0.03952 0.64111
 N561 N 0.61870 -0.03888 0.66314
 C562 C 0.61519 -0.01553 0.67900
 N563 N 0.62803 0.00698 0.67224
 N564 N 0.64365 0.00621 0.65040
 C565 C 0.66160 -0.01688 0.60876
 N566 N 0.68007 0.00182 0.60492
 N567 N 0.69222 0.00294 0.58105
 C568 C 0.68601 -0.01432 0.56002
 N569 N 0.66759 -0.03306 0.56393
 N570 N 0.65575 -0.03444 0.58790
 C571 C -0.13230 0.49581 0.85738
 N572 N -0.14669 0.47329 0.85375
 N573 N -0.16654 0.46876 0.87075
 C574 C -0.17282 0.48666 0.89186
 N575 N -0.15864 0.50933 0.89508
 N576 N -0.13874 0.51376 0.87827
 C577 C -0.10866 0.49988 0.84063
 N578 N -0.09039 0.51780 0.84944
 N579 N -0.06786 0.52067 0.83558
 C580 C -0.06281 0.50595 0.81218
 N581 N -0.08133 0.48831 0.80301
 N582 N -0.10381 0.48520 0.81710
 C583 C 0.35792 0.00397 0.38151
 N584 N 0.37342 -0.01919 0.37215
 N585 N 0.38869 -0.01775 0.35033
 C586 C 0.38935 0.00699 0.33726
 N587 N 0.37370 0.03016 0.34654
 N588 N 0.35810 0.02864 0.36817
 C589 C 0.34330 0.00273 0.40702
 N590 N 0.32174 0.02231 0.41288
 N591 N 0.30969 0.02185 0.43687
 C592 C 0.31913 0.00207 0.45598
 N593 N 0.34065 -0.01747 0.45007
 N594 N 0.35238 -0.01727 0.42596
 C595 C 0.11131 0.52074 0.86800
 N596 N 0.12905 0.54017 0.86418
 N597 N 0.15130 0.54159 0.88137
 C598 C 0.15675 0.52344 0.90277
 N599 N 0.13912 0.50387 0.90627
 N600 N 0.11679 0.50262 0.88931
 C601 C 0.08589 0.51976 0.85029
 N602 N 0.06501 0.50590 0.85893
 N603 N 0.04166 0.50496 0.84336
 C604 C 0.03833 0.51762 0.81842
 N605 N 0.05933 0.53136 0.80964
 N606 N 0.08264 0.53258 0.82539
 C607 C 0.61653 -0.00976 0.38916
 N608 N 0.61914 0.00717 0.36749
 N609 N 0.60011 0.00920 0.34655
 C610 C 0.57783 -0.00572 0.34641
 N611 N 0.57545 -0.02283 0.36802
 N612 N 0.59437 -0.02475 0.38901
 C613 C 0.63661 -0.01098 0.41294
 N614 N 0.63116 -0.02388 0.43641
 N615 N 0.64863 -0.02395 0.45847
 C616 C 0.67235 -0.01129 0.45790
 N617 N 0.67795 0.00134 0.43428
 N618 N 0.66037 0.00158 0.41224
 C619 C 0.88741 0.45997 0.11777
 N620 N 0.89252 0.45037 0.09210
 N621 N 0.87161 0.44831 0.07361
 C622 C 0.84465 0.45576 0.07995
 N623 N 0.83945 0.46493 0.10586
 N624 N 0.86045 0.46704 0.12444
 C625 C 0.91111 0.46472 0.13675
 N626 N 0.90731 0.47511 0.16247
 N627 N 0.92910 0.48147 0.17835
 C628 C 0.95540 0.47785 0.16899
 N629 N 0.95906 0.46704 0.14347
 N630 N 0.93741 0.46058 0.12772
 C631 C 0.39081 -0.00733 0.62600
 N632 N 0.38479 0.00717 0.64937
 N633 N 0.40358 0.00644 0.67049
 C634 C 0.42900 -0.00896 0.66909
 N635 N 0.43483 -0.02355 0.64573
 N636 N 0.41617 -0.02267 0.62458
 C637 C 0.37071 -0.00597 0.60224
 N638 N 0.37904 -0.01595 0.57752
 N639 N 0.36123 -0.01425 0.55565
 C640 C 0.33431 -0.00271 0.55766
 N641 N 0.32590 0.00707 0.58248
 N642 N 0.34381 0.00557 0.60436
   
