data_POSCAR
  _audit_creation_date              2014-09-24
  _audit_creation_method            'ToBaCCo'
  _symmetry_space_group_name_H-M    'P1'
  _symmetry_Int_Tables_number       1
  _symmetry_cell_setting            triclinic
  loop_
  _symmetry_equiv_pos_as_xyz
 x,y,z
_cell_length_a 21.8815
_cell_length_b 21.8909
_cell_length_c 30.9160
_cell_angle_alpha 90.252600
_cell_angle_beta 89.577400
_cell_angle_gamma 89.908900
loop_
  _atom_site_label
  _atom_site_type_symbol
  _atom_site_fract_x
  _atom_site_fract_y
  _atom_site_fract_z
C1 C -0.00065 0.50266 0.97938
 C2 C 0.00008 0.50289 1.02347
 C3 C 0.00246 0.56065 1.04878
 C4 C -0.00134 0.44534 1.04873
 C5 C 0.00048 0.44489 0.95402
 C6 C -0.00265 0.56014 0.95409
 C7 C 0.04962 0.60320 1.04224
 C8 C 0.05065 0.65772 1.06598
 C9 C 0.00483 0.66996 1.09680
 C10 C -0.04168 0.62714 1.10393
 C11 C -0.04270 0.57273 1.08016
 C12 C 0.04505 0.43347 1.07870
 C13 C 0.04508 0.37909 1.10217
 C14 C -0.00150 0.33619 1.09618
 C15 C -0.04853 0.34818 1.06690
 C16 C -0.04865 0.40264 1.04342
 C17 C -0.04588 0.43325 0.92393
 C18 C -0.04590 0.37893 0.90007
 C19 C 0.00064 0.33586 0.90579
 C20 C 0.04757 0.34754 0.93525
 C21 C 0.04768 0.40195 0.95913
 C22 C -0.04962 0.60319 0.96056
 C23 C -0.05048 0.65719 0.93655
 C24 C -0.00479 0.66836 0.90563
 C25 C 0.04154 0.62522 0.89863
 C26 C 0.04249 0.57131 0.92260
 H27 H 0.08550 0.59417 1.01874
 H28 H 0.08721 0.69013 1.06024
 H29 H -0.07734 0.63571 1.12775
 H30 H -0.07920 0.54030 1.08584
 H31 H 0.08170 0.46597 1.08342
 H32 H 0.08153 0.37039 1.12487
 H33 H -0.08544 0.41147 1.02104
 H34 H -0.08243 0.46597 0.91935
 H35 H -0.08228 0.37046 0.87723
 H36 H 0.08402 0.31467 0.93972
 H37 H 0.08446 0.41061 0.98158
 H38 H -0.08549 0.59489 0.98411
 H39 H -0.08677 0.69011 0.94203
 H40 H 0.07697 0.63330 0.87467
 H41 H 0.07884 0.53851 0.91697
 H42 H -0.08501 0.31546 1.06222
 C43 C 0.49996 -0.00523 0.47747
 C44 C 0.50025 -0.00519 0.52156
 C45 C 0.44273 -0.00819 0.54733
 C46 C 0.55806 -0.00138 0.54635
 C47 C 0.55749 -0.00827 0.45169
 C48 C 0.44215 -0.00146 0.45270
 C49 C 0.43088 0.03624 0.57921
 C50 C 0.37681 0.03441 0.60345
 C51 C 0.33417 -0.01210 0.59633
 C52 C 0.34606 -0.05715 0.56508
 C53 C 0.40024 -0.05541 0.54081
 C54 C 0.59962 0.04659 0.53944
 C55 C 0.65371 0.04967 0.56316
 C56 C 0.66646 0.00523 0.59427
 C57 C 0.62484 -0.04214 0.60170
 C58 C 0.57082 -0.04531 0.57799
 C59 C 0.60014 -0.05548 0.45796
 C60 C 0.65433 -0.05727 0.43368
 C61 C 0.66607 -0.01226 0.40267
 C62 C 0.62329 0.03423 0.39581
 C63 C 0.56921 0.03610 0.42005
 C64 C 0.42952 -0.04545 0.42083
 C65 C 0.37549 -0.04232 0.39714
 C66 C 0.33372 0.00506 0.40482
 C67 C 0.34633 0.04956 0.43618
 C68 C 0.40043 0.04652 0.45988
 H69 H 0.46318 0.07280 0.58489
 H70 H 0.36812 0.06942 0.62761
 H71 H 0.31350 -0.09350 0.55946
 H72 H 0.40905 -0.09077 0.51695
 H73 H 0.59003 0.08162 0.51580
 H74 H 0.68544 0.08672 0.55733
 H75 H 0.53917 -0.08236 0.58401
 H76 H 0.59144 -0.09080 0.48162
 H77 H 0.68701 -0.09361 0.43911
 H78 H 0.63186 0.06919 0.37183
 H79 H 0.53679 0.07265 0.41456
 H80 H 0.46129 -0.08251 0.41461
 H81 H 0.36628 -0.07687 0.37286
 H82 H 0.31447 0.08662 0.44220
 H83 H 0.40990 0.08160 0.48370
 H84 H 0.63416 -0.07664 0.62580
 C85 C 0.12752 0.01171 0.26460
 H86 H 0.12996 0.01442 0.22970
 C87 C 0.18100 0.01378 0.28891
 H88 H 0.22488 0.01792 0.27273
 C89 C 0.06740 0.00276 0.32842
 H90 H 0.02308 -0.00096 0.34373
 C91 C 0.11981 0.00468 0.35395
 H92 H 0.11571 0.00181 0.38883
 N93 N 0.07226 0.00519 0.28452
 C94 C -0.04270 -0.08305 0.18800
 H95 H -0.08070 -0.05143 0.18687
 C96 C -0.04337 -0.13608 0.16270
 H97 H -0.08189 -0.14535 0.14187
 C98 C 0.05342 -0.11048 0.21718
 H99 H 0.09054 -0.10107 0.23900
 C100 C 0.05455 -0.16401 0.19244
 H101 H 0.09279 -0.19524 0.19500
 Zn102 Zn 0.00255 0.00083 0.24868
 N103 N 0.00553 -0.07095 0.21423
 C104 C 0.00115 0.06786 0.16968
 N105 N 0.00251 0.07160 0.21364
 C106 C 0.00493 0.12658 0.23429
 C107 C 0.00417 0.18075 0.21065
 C108 C 0.00034 0.12101 0.14480
 C109 C -0.07932 -0.05155 0.30838
 C110 C -0.13251 -0.05594 0.33349
 C111 C -0.16647 0.04013 0.30381
 C112 C -0.11273 0.04277 0.27930
 N113 N -0.07006 -0.00230 0.28240
 H114 H 0.00066 0.02384 0.15381
 H115 H 0.00685 0.12818 0.26923
 H116 H 0.00550 0.22432 0.22738
 H117 H -0.00122 0.11775 0.10985
 H118 H -0.04518 -0.08729 0.30964
 H119 H -0.13937 -0.09502 0.35434
 H120 H -0.20004 0.07636 0.30130
 H121 H -0.10551 0.08067 0.25767
 C122 C 0.00578 -0.17684 0.16492
 C123 C 0.17710 0.00974 0.33396
 C124 C -0.17633 -0.00950 0.33125
 C125 C 0.00148 0.17792 0.16553
 C126 C -0.00493 0.12711 0.76569
 H127 H -0.00665 0.12887 0.73075
 C128 C -0.00433 0.18117 0.78980
 H129 H -0.00559 0.22482 0.77344
 C130 C -0.00149 0.06810 0.82981
 H131 H -0.00110 0.02403 0.84533
 C132 C -0.00086 0.12112 0.85515
 H133 H 0.00048 0.11769 0.89007
 N134 N -0.00257 0.07204 0.78588
 C135 C 0.07969 -0.05120 0.69042
 H136 H 0.04566 -0.08693 0.68895
 C137 C 0.13290 -0.05565 0.66528
 H138 H 0.13988 -0.09475 0.64421
 C139 C 0.11282 0.04315 0.72002
 H140 H 0.10548 0.08108 0.74186
 C141 C 0.16657 0.04046 0.69550
 H142 H 0.20002 0.07669 0.69821
 Zn143 Zn -0.00236 0.00129 0.75038
 N144 N 0.07028 -0.00191 0.71666
 C145 C -0.06723 0.00302 0.67067
 N146 N -0.07209 0.00557 0.71458
 C147 C -0.12736 0.01219 0.73453
 C148 C -0.18085 0.01422 0.71024
 C149 C -0.11964 0.00490 0.64515
 C150 C 0.04325 -0.08224 0.81065
 C151 C 0.04389 -0.13479 0.83612
 C152 C -0.05421 -0.16273 0.80665
 C153 C -0.05305 -0.10968 0.78174
 N154 N -0.00509 -0.07033 0.78453
 H155 H -0.02289 -0.00076 0.65533
 H156 H -0.12982 0.01501 0.76945
 H157 H -0.22474 0.01842 0.72644
 H158 H -0.11554 0.00192 0.61026
 H159 H 0.08127 -0.05075 0.81168
 H160 H 0.08243 -0.14385 0.85695
 H161 H -0.09257 -0.19378 0.80429
 H162 H -0.09027 -0.10041 0.76001
 C163 C 0.17658 -0.00921 0.66778
 C164 C -0.00190 0.17811 0.83491
 C165 C -0.00540 -0.17527 0.83416
 C166 C -0.17695 0.01004 0.66517
 C167 C 0.00547 -0.27907 0.11901
 C168 C 0.00569 -0.23229 0.13976
 C169 C -0.00091 0.28007 0.12023
 C170 C 0.00008 0.23333 0.14068
 C171 C 0.27822 -0.01294 0.62106
 C172 C 0.23167 -0.01210 0.64216
 C173 C -0.27798 0.00808 0.61879
 C174 C -0.23174 0.00951 0.63972
 C175 C -0.00543 -0.27620 0.88082
 C176 C -0.00550 -0.23004 0.85971
 C177 C 0.00019 0.27993 0.88118
 C178 C -0.00067 0.23335 0.86026
 C179 C -0.27797 -0.01315 0.37794
 C180 C -0.23142 -0.01234 0.35686
 C181 C 0.27814 0.00786 0.38032
 C182 C 0.23189 0.00926 0.35940
   
