data_POSCAR
  _audit_creation_date              2014-09-24
  _audit_creation_method            'ToBaCCo'
  _symmetry_space_group_name_H-M    'P1'
  _symmetry_Int_Tables_number       1
  _symmetry_cell_setting            triclinic
  loop_
  _symmetry_equiv_pos_as_xyz
 x,y,z
_cell_length_a 24.7227
_cell_length_b 24.7221
_cell_length_c 8.2055
_cell_angle_alpha 90.367400
_cell_angle_beta 90.000500
_cell_angle_gamma 90.128800
loop_
  _atom_site_label
  _atom_site_type_symbol
  _atom_site_fract_x
  _atom_site_fract_y
  _atom_site_fract_z
O1 O 0.31337 0.19640 0.17227
 O2 O 0.21357 0.30112 0.06924
 O3 O 0.31320 0.30157 0.17233
 O4 O 0.21354 0.19576 0.06954
 O5 O 0.18484 0.19625 0.32478
 O6 O 0.28448 0.30205 0.42761
 O7 O 0.18485 0.30157 0.32451
 O8 O 0.28467 0.19685 0.42756
 Cu9 Cu 0.26634 0.24863 0.09514
 Cu10 Cu 0.23173 0.24919 0.40176
 C11 C 0.31604 0.17912 0.31724
 C12 C 0.18236 0.31902 0.17969
 C13 C 0.31575 0.31958 0.31722
 C14 C 0.18226 0.17822 0.17992
 O15 O 0.78502 0.19593 0.07150
 O16 O 0.68520 0.30119 0.17376
 O17 O 0.78483 0.30120 0.07067
 O18 O 0.68519 0.19593 0.17425
 O19 O 0.71389 0.19670 0.42950
 O20 O 0.81355 0.30196 0.32595
 O21 O 0.71392 0.30198 0.42903
 O22 O 0.81372 0.19673 0.32678
 Cu23 Cu 0.73210 0.24845 0.09687
 Cu24 Cu 0.76671 0.24939 0.40350
 C25 C 0.81636 0.17870 0.18195
 C26 C 0.68267 0.31932 0.31851
 C27 C 0.81607 0.31930 0.18100
 C28 C 0.68258 0.17865 0.31926
 O29 O 0.81478 0.69795 0.67534
 O30 O 0.71573 0.80333 0.57169
 O31 O 0.81555 0.80319 0.67444
 O32 O 0.71516 0.69806 0.57227
 O33 O 0.68643 0.69890 0.82754
 O34 O 0.78686 0.80404 0.92970
 O35 O 0.68703 0.80414 0.82697
 O36 O 0.78606 0.69876 0.93062
 Cu37 Cu 0.76826 0.75058 0.59776
 Cu38 Cu 0.73365 0.75159 0.90439
 C39 C 0.81719 0.68061 0.82030
 C40 C 0.68452 0.82139 0.68194
 C41 C 0.81830 0.82125 0.81925
 C42 C 0.68379 0.68078 0.68278
 O43 O 0.21410 0.69878 0.93036
 O44 O 0.31376 0.80401 0.82684
 O45 O 0.21393 0.80411 0.92956
 O46 O 0.31372 0.69882 0.82729
 O47 O 0.28500 0.69805 0.57201
 O48 O 0.18523 0.80333 0.67431
 O49 O 0.28506 0.80327 0.57155
 O50 O 0.18538 0.69803 0.67508
 Cu51 Cu 0.26681 0.75155 0.90421
 Cu52 Cu 0.23220 0.75063 0.59758
 C53 C 0.18288 0.68066 0.82000
 C54 C 0.31640 0.82125 0.68181
 C55 C 0.18262 0.82140 0.81911
 C56 C 0.31628 0.68074 0.68249
 O57 O 1.05345 -0.06476 0.07506
 O58 O 0.94810 0.03476 0.17894
 O59 O 0.94816 -0.06500 0.07496
 O60 O 1.05340 0.03514 0.17877
 O61 O 1.05336 0.06354 -0.07627
 O62 O 0.94812 -0.03659 -0.18008
 O63 O 0.94809 0.06317 -0.07609
 O64 O 1.05345 -0.03637 -0.17997
 Cu65 Cu 1.00080 -0.01789 0.15255
 Cu66 Cu 1.00077 0.01635 -0.15373
 C67 C 1.07115 -0.06747 -0.06983
 C68 C 0.93035 0.06583 0.06878
 C69 C 0.93040 -0.06775 -0.06990
 C70 C 1.07105 0.06636 0.06864
 O71 O 0.55205 0.43607 0.57626
 O72 O 0.44708 0.53600 0.67974
 O73 O 0.44685 0.43617 0.57587
 O74 O 0.55235 0.53597 0.67986
 O75 O 0.55247 0.56432 0.42476
 O76 O 0.44697 0.46453 0.32078
 O77 O 0.44724 0.56435 0.42466
 O78 O 0.55222 0.46442 0.32116
 Cu79 Cu 0.49957 0.48314 0.65358
 Cu80 Cu 0.49975 0.51733 0.34720
 C81 C 0.56974 0.43325 0.43138
 C82 C 0.42952 0.56713 0.56952
 C83 C 0.42920 0.43339 0.43091
 C84 C 0.57012 0.56711 0.56971
 O85 O -0.05315 0.43555 -0.07666
 O86 O 0.05231 0.53523 -0.17819
 O87 O 0.05205 0.43545 -0.07706
 O88 O -0.05289 0.53525 -0.17807
 O89 O -0.05273 0.56407 0.07767
 O90 O 0.05222 0.46425 0.17868
 O91 O 0.05244 0.56403 0.07756
 O92 O -0.05301 0.46436 0.17907
 Cu93 Cu -0.00043 0.48241 -0.15322
 Cu94 Cu -0.00025 0.51713 0.15399
 C95 C -0.07077 0.43302 0.06826
 C96 C 0.07004 0.56660 -0.06738
 C97 C 0.06972 0.43287 0.06779
 C98 C -0.07040 0.56663 -0.06719
 O99 O 0.44808 1.06498 0.57544
 O100 O 0.55344 0.96582 0.67847
 O101 O 0.55338 1.06534 0.57560
 O102 O 0.44814 0.96559 0.67857
 O103 O 0.44817 0.93624 0.42338
 O104 O 0.55341 1.03601 0.32040
 O105 O 0.55345 0.93649 0.42327
 O106 O 0.44809 1.03563 0.32025
 Cu107 Cu 0.50078 1.01844 0.65271
 Cu108 Cu 0.50080 0.98309 0.34612
 C109 C 0.43032 1.06707 0.43060
 C110 C 0.57114 0.93432 0.56817
 C111 C 0.57109 1.06760 0.43072
 C112 C 0.43042 0.93404 0.56823
 C113 C 1.14497 0.13976 0.14217
 C114 C 1.11144 0.10599 0.10878
 C115 C 0.64424 0.64027 0.64317
 C116 C 0.61060 0.60662 0.60988
 C117 C -0.14463 0.35983 0.14101
 C118 C -0.11115 0.39350 0.10780
 C119 C 0.35602 0.86145 0.64158
 C120 C 0.38980 0.89481 0.60812
 C121 C -0.14378 0.63999 -0.13974
 C122 C -0.11052 0.60624 -0.10659
 C123 C 0.35576 1.13917 0.35734
 C124 C 0.38961 1.10603 0.39074
 C125 C 1.14524 -0.14038 -0.14327
 C126 C 1.11163 -0.10683 -0.10995
 C127 C 0.64339 0.35991 0.35810
 C128 C 0.60998 0.39365 0.39134
 C129 C 0.85594 -0.14063 -0.14315
 C130 C 0.88976 -0.10713 -0.10988
 C131 C 0.35516 0.36019 0.35716
 C132 C 0.38873 0.39388 0.39066
 C133 C 0.14369 0.64001 -0.14012
 C134 C 0.11031 0.60623 -0.10695
 C135 C 0.64520 1.14049 0.35728
 C136 C 0.61157 1.10698 0.39076
 C137 C 0.14318 0.35955 0.14006
 C138 C 0.10986 0.39327 0.10710
 C139 C 0.64518 0.86170 0.64170
 C140 C 0.61161 0.89511 0.60819
 C141 C 0.85598 0.13844 0.14215
 C142 C 0.88973 0.10505 0.10883
 C143 C 0.35566 0.64025 0.64280
 C144 C 0.38918 0.60663 0.60953
   
