data_POSCAR
  _audit_creation_date              2014-09-24
  _audit_creation_method            'ToBaCCo'
  _symmetry_space_group_name_H-M    'P1'
  _symmetry_Int_Tables_number       1
  _symmetry_cell_setting            triclinic
  loop_
  _symmetry_equiv_pos_as_xyz
 x,y,z
_cell_length_a 34.8004
_cell_length_b 35.8978
_cell_length_c 33.2452
_cell_angle_alpha 85.447300
_cell_angle_beta 86.613400
_cell_angle_gamma 89.499700
loop_
  _atom_site_label
  _atom_site_type_symbol
  _atom_site_fract_x
  _atom_site_fract_y
  _atom_site_fract_z
C1 C 0.29680 0.29864 0.23290
 H2 H 0.29361 0.30451 0.26422
 C3 C 0.31986 0.32188 0.20591
 H4 H 0.33326 0.34578 0.21703
 C5 C 0.28259 0.26083 0.18056
 H6 H 0.26869 0.23665 0.17075
 C7 C 0.30525 0.28338 0.15256
 H8 H 0.30802 0.27657 0.12135
 N9 N 0.27824 0.26905 0.21985
 C10 C 0.17249 0.26873 0.28011
 H11 H 0.16137 0.25080 0.25909
 C12 C 0.14702 0.29171 0.30088
 H13 H 0.11673 0.29143 0.29506
 C14 C 0.22474 0.29021 0.31427
 H15 H 0.25487 0.28858 0.32040
 C16 C 0.20025 0.31362 0.33578
 H17 H 0.21230 0.32978 0.35799
 Zn18 Zn 0.24589 0.23853 0.25705
 N19 N 0.21079 0.26898 0.28632
 C20 C 0.25889 0.19396 0.32832
 N21 N 0.27647 0.21120 0.29437
 C22 C 0.31519 0.20890 0.28690
 C23 C 0.33790 0.18821 0.31398
 C24 C 0.28045 0.17315 0.35633
 C25 C 0.19614 0.21907 0.19807
 C26 C 0.17580 0.19539 0.17570
 C27 C 0.20180 0.14261 0.21498
 C28 C 0.22161 0.16737 0.23659
 N29 N 0.21832 0.20487 0.22801
 H30 H 0.22801 0.19631 0.33353
 H31 H 0.32853 0.22284 0.25966
 H32 H 0.36850 0.18730 0.30668
 H33 H 0.26568 0.15957 0.38309
 H34 H 0.19442 0.24902 0.19140
 H35 H 0.15872 0.20820 0.15230
 H36 H 0.20491 0.11284 0.22249
 H37 H 0.23972 0.15650 0.26012
 C38 C 0.16081 0.31504 0.32863
 C39 C 0.32425 0.31434 0.16503
 C40 C 0.17836 0.15633 0.18402
 C41 C 0.32055 0.16967 0.34940
 C42 C 0.79626 0.80318 0.22230
 H43 H 0.80031 0.80017 0.25437
 C44 C 0.82047 0.82682 0.19710
 H45 H 0.84198 0.84182 0.21132
 C46 C 0.76391 0.78529 0.16636
 H47 H 0.74238 0.76870 0.15421
 C48 C 0.78735 0.80868 0.13997
 H49 H 0.78290 0.80974 0.10789
 N50 N 0.76825 0.78342 0.20685
 C51 C 0.66331 0.77506 0.27534
 H52 H 0.65239 0.75233 0.25998
 C53 C 0.63755 0.79719 0.29694
 H54 H 0.60698 0.79152 0.29761
 C55 C 0.71604 0.80983 0.29395
 H56 H 0.74664 0.81464 0.29292
 C57 C 0.69136 0.83243 0.31614
 H58 H 0.70350 0.85495 0.33099
 Zn59 Zn 0.73694 0.75208 0.24399
 N60 N 0.70181 0.78186 0.27391
 C61 C 0.76259 0.72472 0.32022
 N62 N 0.76995 0.72583 0.27956
 C63 C 0.80116 0.70826 0.26320
 C64 C 0.82628 0.68804 0.28799
 C65 C 0.78705 0.70505 0.34619
 C66 C 0.68349 0.72941 0.18943
 C67 C 0.66343 0.70405 0.16880
 C68 C 0.69659 0.65366 0.20494
 C69 C 0.71595 0.67998 0.22478
 N70 N 0.70951 0.71712 0.21649
 H71 H 0.73753 0.73880 0.33259
 H72 H 0.80638 0.70983 0.23070
 H73 H 0.85071 0.67471 0.27352
 H74 H 0.78047 0.70446 0.37850
 H75 H 0.67820 0.75907 0.18393
 H76 H 0.64321 0.71526 0.14756
 H77 H 0.70250 0.62425 0.21204
 H78 H 0.73609 0.67052 0.24691
 C79 C 0.65150 0.82609 0.31794
 C80 C 0.81617 0.83016 0.15497
 C81 C 0.67001 0.66535 0.17627
 C82 C 0.81932 0.68602 0.33034
 C83 C 0.79291 0.31888 0.71668
 H84 H 0.77492 0.33203 0.73902
 C85 C 0.82057 0.34023 0.69321
 H86 H 0.82385 0.36926 0.69881
 C87 C 0.81070 0.26525 0.68275
 H88 H 0.80603 0.23626 0.67798
 C89 C 0.83878 0.28549 0.65875
 H90 H 0.85608 0.27165 0.63617
 N91 N 0.78892 0.28188 0.71165
 C92 C 0.67963 0.28116 0.76830
 H93 H 0.66891 0.26390 0.74631
 C94 C 0.65372 0.30205 0.79109
 H95 H 0.62330 0.30086 0.78604
 C96 C 0.73182 0.30295 0.80242
 H97 H 0.76231 0.30252 0.80723
 C98 C 0.70690 0.32423 0.82597
 H99 H 0.71888 0.33982 0.84869
 Zn100 Zn 0.75244 0.25177 0.74413
 N101 N 0.71795 0.28204 0.77415
 C102 C 0.76760 0.21574 0.82073
 N103 N 0.77856 0.21815 0.78066
 C104 C 0.80826 0.19714 0.76634
 C105 C 0.82921 0.17378 0.79270
 C106 C 0.78771 0.19279 0.84820
 C107 C 0.70920 0.24338 0.67694
 C108 C 0.68700 0.22470 0.65134
 C109 C 0.69679 0.16737 0.69273
 C110 C 0.71881 0.18723 0.71752
 N111 N 0.72429 0.22455 0.70945
 H112 H 0.74320 0.23161 0.83164
 H113 H 0.81607 0.19860 0.73440
 H114 H 0.85280 0.15815 0.77972
 H115 H 0.77864 0.19186 0.88002
 H116 H 0.71407 0.27311 0.67123
 H117 H 0.67498 0.24047 0.62585
 H118 H 0.69302 0.13786 0.70071
 H119 H 0.73102 0.17288 0.74364
 C120 C 0.66716 0.32404 0.82030
 C121 C 0.84403 0.32345 0.66380
 C122 C 0.68014 0.18617 0.65904
 C123 C 0.81941 0.17171 0.83460
 C124 C 0.27358 0.80892 0.71939
 H125 H 0.25681 0.82165 0.74295
 C126 C 0.29671 0.83149 0.69188
 H127 H 0.29703 0.86129 0.69478
 C128 C 0.29167 0.75527 0.68561
 H129 H 0.28889 0.72563 0.68277
 C130 C 0.31498 0.77686 0.65724
 H131 H 0.33059 0.76356 0.63307
 N132 N 0.27201 0.77138 0.71636
 C133 C 0.16762 0.76861 0.78048
 H134 H 0.15617 0.75026 0.75995
 C135 C 0.14250 0.79056 0.80302
 H136 H 0.11184 0.78901 0.79939
 C137 C 0.22118 0.79265 0.81060
 H138 H 0.25195 0.79293 0.81371
 C139 C 0.19713 0.81496 0.83382
 H140 H 0.21008 0.83185 0.85478
 Zn141 Zn 0.24055 0.74046 0.75377
 N142 N 0.20624 0.77030 0.78431
 C143 C 0.26089 0.70745 0.82968
 N144 N 0.27152 0.71125 0.78955
 C145 C 0.30314 0.69333 0.77452
 C146 C 0.32580 0.67100 0.80016
 C147 C 0.28274 0.68554 0.85644
 C148 C 0.19400 0.72269 0.69176
 C149 C 0.17357 0.69947 0.66892
 C150 C 0.19157 0.64670 0.71371
 C151 C 0.21164 0.67095 0.73559
 N152 N 0.21247 0.70817 0.72435
 H153 H 0.23506 0.72092 0.84103
 H154 H 0.31081 0.69615 0.74251
 H155 H 0.35070 0.65760 0.78668
 H156 H 0.27357 0.68306 0.88827
 H157 H 0.19528 0.75244 0.68346
 H158 H 0.15942 0.71239 0.64334
 H159 H 0.19137 0.61713 0.72334
 H160 H 0.22648 0.65999 0.76167
 C161 C 0.15712 0.81439 0.82985
 C162 C 0.31825 0.81536 0.66062
 C163 C 0.17215 0.66064 0.67974
 C164 C 0.31575 0.66681 0.84201
 C165 C 0.01295 0.01056 -0.00029
 C166 C 0.01415 0.51841 0.48638
 C167 C 0.51373 0.00569 0.51297
 C168 C 0.51159 0.50383 0.00121
 C169 C 0.12973 -0.16252 -0.14676
 C170 C 0.14061 -0.13303 -0.12492
 C171 C 0.11223 -0.11035 -0.10299
 N172 N 0.12429 -0.08214 -0.08203
 N173 N 0.09895 -0.06106 -0.06238
 C174 C 0.06059 -0.06743 -0.06300
 N175 N 0.04853 -0.09567 -0.08391
 N176 N 0.07386 -0.11676 -0.10351
 C177 C 0.03211 -0.04409 -0.04216
 C178 C 0.04256 -0.01470 -0.01997
 H179 H 0.17051 -0.12542 -0.12425
 H180 H 0.00200 -0.04971 -0.04522
 H181 H 0.09933 -0.16841 -0.14778
 H182 H 0.07290 -0.00904 -0.01795
 C183 C 0.13304 0.33964 0.34959
 C184 C 0.14359 0.36957 0.37093
 C185 C 0.11482 0.39418 0.38969
 N186 N 0.12649 0.42252 0.41070
 N187 N 0.10085 0.44521 0.42760
 C188 C 0.06255 0.44044 0.42404
 N189 N 0.05088 0.41214 0.40300
 N190 N 0.07651 0.38942 0.38615
 C191 C 0.03382 0.46520 0.44252
 C192 C 0.04397 0.49342 0.46647
 H193 H 0.17357 0.37607 0.37341
 H194 H 0.00370 0.46071 0.43795
 H195 H 0.10268 0.33479 0.34665
 H196 H 0.07416 0.49741 0.47125
 C197 C 0.62392 -0.15039 0.34037
 C198 C 0.63392 -0.13134 0.37320
 C199 C 0.60671 -0.10700 0.39445
 N200 N 0.61716 -0.09171 0.42817
 N201 N 0.59323 -0.06905 0.44745
 C202 C 0.55796 -0.06073 0.43364
 N203 N 0.54751 -0.07597 0.39986
 N204 N 0.57142 -0.09873 0.38063
 C205 C 0.53155 -0.03514 0.45420
 C206 C 0.53997 -0.02088 0.49061
 H207 H 0.66241 -0.13474 0.38442
 H208 H 0.50501 -0.02733 0.44027
 H209 H 0.59441 -0.14914 0.33163
 H210 H 0.56570 -0.03098 0.50491
 C211 C 0.63868 0.34514 -0.15537
 C212 C 0.64813 0.37262 -0.13020
 C213 C 0.61843 0.39268 -0.10689
 N214 N 0.62877 0.41987 -0.08359
 N215 N 0.60215 0.43848 -0.06264
 C216 C 0.56420 0.43054 -0.06422
 N217 N 0.55388 0.40327 -0.08740
 N218 N 0.58048 0.38467 -0.10833
 C219 C 0.53428 0.45131 -0.04215
 C220 C 0.54278 0.48062 -0.01895
 H221 H 0.67774 0.38050 -0.12779
 H222 H 0.50457 0.44419 -0.04554
 H223 H 0.60852 0.33915 -0.15812
 H224 H 0.57271 0.48774 -0.01648
 C225 C -0.15998 0.15012 -0.13658
 C226 C -0.12757 0.12817 -0.14538
 C227 C -0.10595 0.10824 -0.11346
 N228 N -0.07493 0.08712 -0.12373
 N229 N -0.05460 0.06937 -0.09532
 C230 C -0.06449 0.07215 -0.05553
 N231 N -0.09553 0.09324 -0.04523
 N232 N -0.11589 0.11097 -0.07365
 C233 C -0.04219 0.05284 -0.02383
 C234 C -0.01051 0.03022 -0.03290
 H235 H -0.11680 0.12539 -0.17610
 H236 H -0.05095 0.05622 0.00749
 H237 H -0.16955 0.15103 -0.10503
 H238 H -0.00145 0.02772 -0.06434
 C239 C -0.15699 0.66602 0.35747
 C240 C -0.12549 0.64370 0.34642
 C241 C -0.10229 0.62357 0.37684
 N242 N -0.07420 0.59956 0.36514
 N243 N -0.05308 0.58107 0.39239
 C244 C -0.05923 0.58602 0.43234
 N245 N -0.08719 0.61012 0.44400
 N246 N -0.10835 0.62852 0.41679
 C247 C -0.03639 0.56599 0.46301
 C248 C -0.00865 0.53908 0.45381
 H249 H -0.11765 0.63970 0.31516
 H250 H -0.04167 0.57259 0.49409
 H251 H -0.16412 0.66746 0.38951
 H252 H -0.00349 0.53281 0.42258
 C253 C 0.34125 0.14782 0.37798
 C254 C 0.38073 0.13987 0.37418
 C255 C 0.40021 0.11590 0.40487
 N256 N 0.43763 0.10610 0.39791
 N257 N 0.45557 0.08403 0.42505
 C258 C 0.43679 0.07104 0.46029
 N259 N 0.39944 0.08101 0.46737
 N260 N 0.38147 0.10299 0.44017
 C261 C 0.45591 0.04608 0.49032
 C262 C 0.49324 0.03240 0.48318
 H263 H 0.39825 0.15015 0.34784
 H264 H 0.43978 0.03781 0.51840
 H265 H 0.32523 0.13556 0.40468
 H266 H 0.50941 0.04239 0.45562
 C267 C 0.33699 0.64491 -0.13002
 C268 C 0.36969 0.62373 -0.13981
 C269 C 0.39090 0.60218 -0.10868
 N270 N 0.42209 0.58164 -0.11978
 N271 N 0.44197 0.56239 -0.09201
 C272 C 0.43139 0.56298 -0.05208
 N273 N 0.40015 0.58344 -0.04097
 N274 N 0.38025 0.60268 -0.06874
 C275 C 0.45360 0.54262 -0.02103
 C276 C 0.48635 0.52170 -0.03085
 H277 H 0.38063 0.62235 -0.17071
 H278 H 0.44463 0.54481 0.01046
 H279 H 0.32719 0.64428 -0.09840
 H280 H 0.49566 0.52052 -0.06243
 C281 C -0.16181 -0.14728 0.12849
 C282 C -0.13172 -0.12464 0.13854
 C283 C -0.10938 -0.10057 0.10789
 N284 N -0.07926 -0.08074 0.11895
 N285 N -0.05869 -0.05881 0.09168
 C286 C -0.06753 -0.05583 0.05231
 N287 N -0.09771 -0.07556 0.04124
 N288 N -0.11825 -0.09755 0.06851
 C289 C -0.04502 -0.03185 0.02178
 C290 C -0.01236 -0.01260 0.03107
 H291 H -0.12337 -0.12409 0.16922
 H292 H -0.05429 -0.02965 -0.00883
 H293 H -0.16769 -0.14653 0.09675
 H294 H -0.00306 -0.01651 0.06166
 C295 C -0.12541 0.34417 0.63865
 C296 C -0.12527 0.38298 0.63114
 C297 C -0.09471 0.40271 0.60560
 N298 N -0.09819 0.43989 0.59547
 N299 N -0.07102 0.45813 0.57201
 C300 C -0.03923 0.43992 0.55794
 N301 N -0.03559 0.40279 0.56831
 N302 N -0.06284 0.38450 0.59167
 C303 C -0.00943 0.45954 0.53117
 C304 C -0.01402 0.49675 0.51626
 H305 H -0.14885 0.39954 0.64289
 H306 H 0.01607 0.44393 0.52258
 H307 H -0.10295 0.32801 0.62407
 H308 H -0.03922 0.51166 0.52719
 C309 C 0.34345 -0.16205 0.63080
 C310 C 0.36044 -0.12882 0.63964
 C311 C 0.38624 -0.10684 0.61038
 N312 N 0.40575 -0.07761 0.62258
 N313 N 0.42946 -0.05746 0.59669
 C314 C 0.43443 -0.06565 0.55754
 N315 N 0.41469 -0.09473 0.54522
 N316 N 0.39106 -0.11501 0.57118
 C317 C 0.46098 -0.04385 0.52882
 C318 C 0.48548 -0.01704 0.54147
 H319 H 0.35614 -0.11915 0.66960
 H320 H 0.46176 -0.04956 0.49733
 H321 H 0.35060 -0.17303 0.60184
 H322 H 0.48345 -0.01143 0.57312
 C323 C 0.34711 0.33850 0.13445
 C324 C 0.37547 0.36312 0.14391
 C325 C 0.39687 0.38731 0.11262
 N326 N 0.42570 0.40920 0.12303
 N327 N 0.44514 0.43147 0.09512
 C328 C 0.43641 0.43274 0.05574
 N329 N 0.40754 0.41092 0.04534
 N330 N 0.38814 0.38860 0.07324
 C331 C 0.45740 0.45732 0.02452
 C332 C 0.48843 0.47923 0.03315
 H333 H 0.38295 0.36444 0.17487
 H334 H 0.44805 0.45817 -0.00602
 H335 H 0.34202 0.33601 0.10293
 H336 H 0.49794 0.47677 0.06370
 C337 C 0.15886 0.13049 0.16284
 C338 C 0.13426 0.13987 0.13168
 C339 C 0.11491 0.11129 0.11075
 N340 N 0.09081 0.12194 0.08127
 N341 N 0.07303 0.09651 0.06201
 C342 C 0.07873 0.05946 0.07149
 N343 N 0.10285 0.04880 0.10094
 N344 N 0.12062 0.07422 0.12022
 C345 C 0.05927 0.03096 0.05065
 C346 C 0.03362 0.04013 0.02055
 H347 H 0.12834 0.16860 0.12187
 H348 H 0.06517 0.00183 0.05928
 H349 H 0.16312 0.10103 0.17136
 H350 H 0.02797 0.06940 0.01224
 C351 C 0.15241 0.63520 0.65833
 C352 C 0.13211 0.64461 0.62382
 C353 C 0.11222 0.61635 0.60299
 N354 N 0.09310 0.62698 0.56956
 N355 N 0.07488 0.60186 0.55031
 C356 C 0.07512 0.56513 0.56376
 N357 N 0.09425 0.55447 0.59720
 N358 N 0.11247 0.57961 0.61646
 C359 C 0.05490 0.53715 0.54291
 C360 C 0.03492 0.54692 0.50840
 H361 H 0.13032 0.67311 0.61104
 H362 H 0.05554 0.50824 0.55497
 H363 H 0.15305 0.60596 0.66934
 H364 H 0.03576 0.57575 0.49587
 C365 C 0.65667 0.16847 0.63317
 C366 C 0.64699 0.13053 0.63720
 C367 C 0.62114 0.11396 0.61003
 N368 N 0.61319 0.07693 0.61543
 N369 N 0.58969 0.06133 0.59149
 C370 C 0.57314 0.08215 0.56121
 N371 N 0.58105 0.11923 0.55578
 N372 N 0.60461 0.13487 0.57975
 C373 C 0.54712 0.06502 0.53456
 C374 C 0.53934 0.02668 0.53896
 H375 H 0.65803 0.11177 0.66080
 H376 H 0.53446 0.08292 0.51113
 H377 H 0.64488 0.18556 0.60845
 H378 H 0.55320 0.00985 0.56256
 C379 C 0.65145 0.63785 0.15658
 C380 C 0.62472 0.64484 0.12702
 C381 C 0.60707 0.61434 0.10749
 N382 N 0.58145 0.62241 0.07879
 N383 N 0.56533 0.59515 0.06074
 C384 C 0.57425 0.55880 0.07070
 N385 N 0.59985 0.55072 0.09939
 N386 N 0.61596 0.57798 0.11745
 C387 C 0.55672 0.52837 0.05107
 C388 C 0.53025 0.53510 0.02132
 H389 H 0.61621 0.67293 0.11724
 H390 H 0.56482 0.49987 0.06018
 H391 H 0.65863 0.60889 0.16478
 H392 H 0.52263 0.56383 0.01250
   
