data_POSCAR
  _audit_creation_date              2014-09-24
  _audit_creation_method            'ToBaCCo'
  _symmetry_space_group_name_H-M    'P1'
  _symmetry_Int_Tables_number       1
  _symmetry_cell_setting            triclinic
  loop_
  _symmetry_equiv_pos_as_xyz
 x,y,z
_cell_length_a 18.9141
_cell_length_b 19.0312
_cell_length_c 19.0079
_cell_angle_alpha 113.840200
_cell_angle_beta 63.346600
_cell_angle_gamma 64.236700
loop_
  _atom_site_label
  _atom_site_type_symbol
  _atom_site_fract_x
  _atom_site_fract_y
  _atom_site_fract_z
C1 C 0.55290 0.52539 0.02217
 C2 C 0.51430 0.56831 -0.01334
 C3 C 0.45602 0.55248 -0.03127
 C4 C 0.43687 0.49347 -0.01775
 C5 C 0.48052 0.44641 0.01230
 C6 C 0.53316 0.46691 0.03622
 H7 H 0.56702 0.42893 0.05793
 H8 H 0.42306 0.58851 -0.05460
 C9 C -0.03800 0.45998 0.54203
 C10 C -0.00316 0.50393 0.57762
 C11 C 0.02651 0.54724 0.54179
 C12 C 0.02224 0.55140 0.47112
 C13 C -0.01514 0.50892 0.43739
 C14 C -0.04407 0.46487 0.47291
 H15 H -0.06534 0.42772 0.43974
 H16 H 0.04530 0.58565 0.57789
 C17 C 0.50834 -0.00154 0.42414
 C18 C 0.46901 -0.04304 0.45521
 C19 C 0.47183 -0.05137 0.52447
 C20 C 0.50654 -0.01540 0.56774
 C21 C 0.54643 0.02647 0.53620
 C22 C 0.54449 0.03301 0.46546
 H23 H 0.58053 0.05688 0.43293
 H24 H 0.43561 -0.07614 0.55497
 O25 O 0.38546 0.06508 -0.01117
 O26 O 0.41048 0.09756 0.17861
 O27 O 0.39011 0.18756 0.10513
 O28 O 0.40312 -0.02425 0.06568
 O29 O 0.60081 -0.17107 -0.09586
 O30 O 0.58802 0.04196 -0.05112
 O31 O 0.60851 -0.05381 0.01989
 O32 O 0.58378 -0.08222 -0.16868
 Cu33 Cu 0.37744 0.09553 0.09996
 Cu34 Cu 0.61522 -0.07971 -0.08915
 C35 C 0.48016 -0.01111 -0.12124
 C36 C 0.51417 0.02263 0.13002
 C37 C 0.48763 0.14952 0.03008
 C38 C 0.50351 -0.13206 -0.01843
 O39 O -0.18106 0.59526 1.10197
 O40 O 0.03882 0.58414 1.04256
 O41 O -0.06145 0.60277 0.97938
 O42 O -0.09081 0.58454 1.17301
 O43 O 0.05946 0.39165 1.02139
 O44 O 0.09432 0.40995 0.82523
 O45 O 0.18780 0.39141 0.89337
 O46 O -0.02993 0.40268 0.94566
 Cu47 Cu -0.08766 0.61093 1.08942
 Cu48 Cu 0.09246 0.37930 0.90656
 C49 C -0.14057 0.50019 1.02827
 C50 C 0.14945 0.48665 0.96144
 C51 C 0.01765 0.50978 0.87074
 C52 C -0.01859 0.48527 1.12971
 O53 O 0.09719 -0.17940 0.36871
 O54 O 0.00064 0.08257 0.45272
 O55 O 0.18985 -0.10355 0.36003
 O56 O -0.08223 0.00208 0.45132
 O57 O -0.17674 0.08818 0.62948
 O58 O 0.09416 -0.01394 0.53916
 O59 O -0.09366 0.17322 0.63179
 O60 O 0.00660 -0.08981 0.54669
 Cu61 Cu 0.06171 -0.05889 0.39028
 Cu62 Cu -0.05199 0.04911 0.60464
 C63 C 0.06341 -0.17665 0.44570
 C64 C -0.05990 0.17097 0.55532
 C65 C 0.18640 -0.07278 0.43562
 C66 C -0.17317 0.05775 0.55363
 C67 C -0.27455 0.48531 0.93480
 C68 C -0.37421 0.52324 1.02704
 C69 C -0.39415 0.55028 1.11933
 C70 C -0.31879 0.54385 1.12143
 C71 C -0.21913 0.50425 1.02814
 C72 C -0.19683 0.47424 0.93465
 H73 H -0.25354 0.45930 0.86010
 H74 H -0.47017 0.57969 1.19155
 H75 H -0.33725 0.56834 1.19462
 H76 H -0.11977 0.44353 0.86201
 C77 C 0.26437 0.58945 1.02428
 C78 C 0.37097 0.48813 0.96975
 C79 C 0.41039 0.38327 0.90110
 C80 C 0.34213 0.38136 0.89178
 C81 C 0.23182 0.48433 0.95297
 C82 C 0.19476 0.58799 1.01746
 H83 H 0.23120 0.67182 1.07762
 H84 H 0.49546 0.30197 0.85171
 H85 H 0.37441 0.29979 0.83930
 H86 H 0.11028 0.66881 1.06541
 C87 C 0.12369 -0.39516 0.44325
 C88 C 0.04924 -0.39735 0.44372
 C89 C -0.00314 -0.33896 0.42531
 C90 C 0.01451 -0.27917 0.41158
 C91 C 0.07746 -0.26795 0.42430
 C92 C 0.13379 -0.32819 0.43810
 H93 H 0.17406 -0.44401 0.44841
 H94 H -0.06687 -0.32882 0.43160
 H95 H -0.02982 -0.23322 0.40079
 H96 H 0.18417 -0.32195 0.44681
 C97 C -0.14108 0.40514 0.57732
 C98 C -0.06021 0.40139 0.56686
 C99 C 0.00673 0.33190 0.56908
 C100 C -0.00675 0.26964 0.58138
 C101 C -0.07757 0.26467 0.57939
 C102 C -0.14621 0.33425 0.57899
 H103 H -0.19715 0.45921 0.57926
 H104 H 0.07478 0.31954 0.55511
 H105 H 0.04518 0.21836 0.58396
 H106 H -0.20184 0.33198 0.57761
 C107 C 0.42509 0.09067 -0.24137
 C108 C 0.48730 -0.01089 -0.34889
 C109 C 0.53258 -0.10881 -0.37281
 C110 C 0.52705 -0.10866 -0.29669
 C111 C 0.47062 -0.00869 -0.19285
 C112 C 0.41743 0.09161 -0.16449
 H113 H 0.38351 0.16871 -0.21796
 H114 H 0.57945 -0.18800 -0.45409
 H115 H 0.56904 -0.18701 -0.31995
 H116 H 0.37611 0.16843 -0.08605
 C117 C 0.59089 -0.09837 0.22990
 C118 C 0.51861 0.00290 0.34431
 C119 C 0.45276 0.11009 0.38429
 C120 C 0.45372 0.11701 0.31338
 C121 C 0.52435 0.01604 0.19990
 C122 C 0.59437 -0.09179 0.15803
 H123 H 0.64200 -0.18171 0.19751
 H124 H 0.39671 0.18901 0.47229
 H125 H 0.39842 0.20094 0.34731
 H126 H 0.64629 -0.16969 0.07204
 C127 C 0.48168 -0.26929 0.07295
 C128 C 0.51936 -0.36230 -0.01891
 C129 C 0.55344 -0.37932 -0.11217
 C130 C 0.55048 -0.30554 -0.11373
 C131 C 0.50828 -0.21086 -0.01959
 C132 C 0.47452 -0.19318 0.07332
 H133 H 0.45194 -0.25175 0.14743
 H134 H 0.58452 -0.45118 -0.18504
 H135 H 0.57867 -0.32080 -0.18682
 H136 H 0.44314 -0.12064 0.14592
 C137 C 0.58642 0.25378 -0.07007
 C138 C 0.47770 0.37237 0.01707
 C139 C 0.37147 0.41974 0.11168
 C140 C 0.37472 0.34827 0.11882
 C141 C 0.48430 0.22875 0.03105
 C142 C 0.59006 0.18240 -0.06351
 H143 H 0.66836 0.21674 -0.14361
 H144 H 0.28709 0.51155 0.17978
 H145 H 0.29177 0.38621 0.19232
 H146 H 0.67552 0.09050 -0.13372
 C147 C -0.33465 -0.01071 0.57004
 C148 C -0.40023 0.04980 0.56094
 C149 C -0.40192 0.12750 0.56691
 C150 C -0.33349 0.13594 0.57113
 C151 C -0.26749 0.07320 0.57750
 C152 C -0.27381 0.00472 0.58301
 H153 H -0.32179 -0.07702 0.55872
 H154 H -0.45475 0.18134 0.56656
 H155 H -0.33020 0.18973 0.56706
 H156 H -0.22319 -0.04474 0.58767
 C157 C 0.34285 -0.00100 0.42632
 C158 C 0.41402 -0.06769 0.42756
 C159 C 0.42169 -0.15035 0.41412
 C160 C 0.35236 -0.15777 0.41060
 C161 C 0.28170 -0.08988 0.41043
 C162 C 0.28359 -0.01702 0.41113
 H163 H 0.32631 0.06872 0.44358
 H164 H 0.47684 -0.20572 0.41194
 H165 H 0.35158 -0.21419 0.41095
 H166 H 0.23088 0.03490 0.40946
 C167 C 0.09275 0.41491 1.23710
 C168 C -0.01555 0.49723 1.35621
 C169 C -0.12512 0.56678 1.39780
 C170 C -0.12660 0.55985 1.32262
 C171 C -0.01828 0.47985 1.20416
 C172 C 0.09132 0.40598 1.16137
 H173 H 0.17776 0.35903 1.20348
 H174 H -0.20926 0.62949 1.48940
 H175 H -0.21187 0.61815 1.35700
 H176 H 0.17512 0.34629 1.07102
 C177 C 0.11011 0.44871 0.61471
 C178 C 0.00068 0.51047 0.65549
 C179 C -0.10386 0.57843 0.76998
 C180 C -0.09821 0.58218 0.84186
 C181 C 0.01188 0.51723 0.79966
 C182 C 0.11615 0.45030 0.68575
 H183 H 0.19116 0.39674 0.52666
 H184 H -0.18886 0.62675 0.80266
 H185 H -0.17841 0.63087 0.92833
 H186 H 0.20171 0.39910 0.65196
   
