data_POSCAR
  _audit_creation_date              2014-09-24
  _audit_creation_method            'ToBaCCo'
  _symmetry_space_group_name_H-M    'P1'
  _symmetry_Int_Tables_number       1
  _symmetry_cell_setting            triclinic
  loop_
  _symmetry_equiv_pos_as_xyz
 x,y,z
_cell_length_a 55.5799
_cell_length_b 55.3434
_cell_length_c 25.3946
_cell_angle_alpha 89.944200
_cell_angle_beta 90.033700
_cell_angle_gamma 120.221100
loop_
  _atom_site_label
  _atom_site_type_symbol
  _atom_site_fract_x
  _atom_site_fract_y
  _atom_site_fract_z
C1 C 0.50012 0.99959 0.47355
 C2 C 0.50044 0.99952 0.52717
 C3 C 0.48699 0.97311 0.55799
 C4 C 0.51429 1.02585 0.55816
 C5 C 0.51232 1.02597 0.44270
 C6 C 0.48762 0.97326 0.44256
 C7 C 0.45873 0.95337 0.55185
 C8 C 0.44630 0.92887 0.58195
 C9 C 0.46172 0.92338 0.61999
 C10 C 0.49035 0.94381 0.62532
 C11 C 0.50259 0.96817 0.59508
 C12 C 0.49913 1.03058 0.59681
 C13 C 0.51186 1.05484 0.62727
 C14 C 0.54012 1.07482 0.61997
 C15 C 0.55533 1.07005 0.58122
 C16 C 0.54256 1.04568 0.55079
 C17 C 0.53236 1.03111 0.40407
 C18 C 0.54363 1.05541 0.37371
 C19 C 0.53494 1.07503 0.38107
 C20 C 0.51482 1.06986 0.41982
 C21 C 0.50348 1.04545 0.45016
 C22 C 0.49672 0.95391 0.44870
 C23 C 0.48513 0.92959 0.41819
 C24 C 0.46447 0.92436 0.38058
 C25 C 0.45550 0.94384 0.37455
 C26 C 0.46703 0.96808 0.40509
 H27 H 0.44612 0.95717 0.52428
 H28 H 0.42416 0.91533 0.57672
 H29 H 0.50422 0.94090 0.65086
 H30 H 0.52456 0.98310 0.60009
 H31 H 0.47731 1.01550 0.60316
 H32 H 0.49950 1.05808 0.65630
 H33 H 0.55478 1.04214 0.52189
 H34 H 0.53941 1.01631 0.39766
 H35 H 0.55935 1.05897 0.34469
 H36 H 0.50743 1.08440 0.42587
 H37 H 0.48762 1.04160 0.47905
 H38 H 0.51300 0.95782 0.47667
 H39 H 0.49275 0.91517 0.42318
 H40 H 0.43937 0.94024 0.34644
 H41 H 0.45978 0.98278 0.39971
 H42 H 0.57723 1.08486 0.57523
 C43 C -0.00009 0.50072 0.47251
 C44 C -0.00003 0.50022 0.52614
 C45 C 0.02631 0.51222 0.55668
 C46 C -0.02618 0.48786 0.55730
 C47 C -0.02636 0.48730 0.44161
 C48 C 0.02619 0.51469 0.44172
 C49 C 0.04533 0.50289 0.54903
 C50 C 0.07007 0.51453 0.57804
 C51 C 0.07611 0.53557 0.61543
 C52 C 0.05679 0.54453 0.62344
 C53 C 0.03211 0.53289 0.59449
 C54 C -0.03139 0.46727 0.59502
 C55 C -0.05550 0.45584 0.62562
 C56 C -0.07484 0.46492 0.61940
 C57 C -0.06958 0.48559 0.58159
 C58 C -0.04537 0.49709 0.55101
 C59 C -0.03107 0.50302 0.40417
 C60 C -0.05530 0.49077 0.37387
 C61 C -0.07562 0.46217 0.37974
 C62 C -0.07054 0.44656 0.41781
 C63 C -0.04618 0.45894 0.44799
 C64 C 0.04582 0.54310 0.44921
 C65 C 0.07048 0.55586 0.41994
 C66 C 0.07585 0.54047 0.38244
 C67 C 0.05593 0.51214 0.37460
 C68 C 0.03131 0.49943 0.40381
 H69 H 0.04102 0.48663 0.52059
 H70 H 0.08459 0.50729 0.57084
 H71 H 0.06060 0.56032 0.65264
 H72 H 0.01757 0.54017 0.60128
 H73 H -0.01680 0.45993 0.60053
 H74 H -0.05913 0.43969 0.65391
 H75 H -0.04145 0.51338 0.52287
 H76 H -0.01606 0.52502 0.39886
 H77 H -0.05827 0.50431 0.34731
 H78 H -0.08458 0.42439 0.42306
 H79 H -0.04259 0.44625 0.47584
 H80 H 0.04203 0.55535 0.47771
 H81 H 0.08548 0.57768 0.42703
 H82 H 0.05921 0.49988 0.34533
 H83 H 0.01629 0.47756 0.39714
 H84 H -0.08389 0.49330 0.57645
 C85 C 0.49918 0.49956 0.47318
 C86 C 0.49957 0.49954 0.52680
 C87 C 0.48688 0.51287 0.55831
 C88 C 0.51266 0.48620 0.55712
 C89 C 0.51318 0.48763 0.44153
 C90 C 0.48481 0.51166 0.44313
 C91 C 0.49525 0.54117 0.55189
 C92 C 0.48335 0.55345 0.58246
 C93 C 0.46293 0.53780 0.62097
 C94 C 0.45487 0.50929 0.62695
 C95 C 0.46676 0.49713 0.59624
 C96 C 0.53305 0.50186 0.59466
 C97 C 0.54513 0.48964 0.62471
 C98 C 0.53698 0.46113 0.61849
 C99 C 0.51640 0.44558 0.58018
 C100 C 0.50432 0.45793 0.55024
 C101 C 0.49791 0.46722 0.40348
 C102 C 0.51073 0.45606 0.37266
 C103 C 0.53919 0.46523 0.37898
 C104 C 0.55451 0.48578 0.41704
 C105 C 0.54165 0.49700 0.44783
 C106 C 0.45635 0.50203 0.45055
 C107 C 0.44321 0.51369 0.42181
 C108 C 0.45826 0.53507 0.38494
 C109 C 0.48665 0.54437 0.37722
 C110 C 0.49975 0.53270 0.40588
 H111 H 0.51130 0.55388 0.52365
 H112 H 0.49132 0.57558 0.57711
 H113 H 0.43857 0.49571 0.65388
 H114 H 0.45994 0.47518 0.60160
 H115 H 0.53988 0.52379 0.60032
 H116 H 0.56159 0.50316 0.65141
 H117 H 0.48809 0.44528 0.52226
 H118 H 0.47594 0.45977 0.39795
 H119 H 0.49829 0.44002 0.34417
 H120 H 0.57655 0.49356 0.42226
 H121 H 0.55394 0.51317 0.47624
 H122 H 0.44436 0.48549 0.47854
 H123 H 0.42134 0.50618 0.42877
 H124 H 0.49868 0.56042 0.34842
 H125 H 0.52165 0.54022 0.39927
 H126 H 0.50841 0.42347 0.57461
 O127 O 0.37329 0.66643 -0.06091
 O128 O 0.37502 0.71386 -0.04441
 C129 C 0.35794 0.71792 -0.07097
 O130 O 0.33198 0.70477 -0.06206
 O131 O 0.28464 0.65894 -0.04500
 C132 C 0.28054 0.63754 -0.07100
 O133 O 0.29353 0.62465 -0.06146
 O134 O 0.33904 0.62312 -0.04369
 C135 C 0.36039 0.64036 -0.06987
 O136 O 0.37420 0.65840 0.04370
 O137 O 0.37349 0.70462 0.06018
 C138 C 0.36100 0.71807 0.06895
 O139 O 0.33993 0.71424 0.04243
 O140 O 0.29379 0.66719 0.05951
 C141 C 0.28032 0.64116 0.06887
 O142 O 0.28405 0.62365 0.04291
 O143 O 0.33080 0.62456 0.06067
 C144 C 0.35671 0.63720 0.07003
 Cr145 Cr 0.37248 0.68507 -0.00038
 Cr146 Cr 0.31333 0.68551 -0.00126
 Cr147 Cr 0.31263 0.62552 -0.00041
 O148 O 0.33281 0.66537 -0.00068
 O149 O 0.62646 0.33274 -0.06160
 O150 O 0.62503 0.28554 -0.04374
 C151 C 0.64236 0.28158 -0.06958
 O152 O 0.66827 0.29491 -0.06015
 O153 O 0.71534 0.34099 -0.04296
 C154 C 0.71939 0.36224 -0.06950
 O155 O 0.70619 0.37499 -0.06081
 O156 O 0.66041 0.37619 -0.04455
 C157 C 0.63924 0.35878 -0.07092
 O158 O 0.62497 0.34104 0.04274
 O159 O 0.62597 0.29505 0.06062
 C160 C 0.63858 0.28179 0.07022
 O161 O 0.65987 0.28574 0.04434
 O162 O 0.70574 0.33304 0.06150
 C163 C 0.71904 0.35911 0.07040
 O164 O 0.71522 0.37640 0.04381
 O165 O 0.66820 0.37515 0.06010
 C166 C 0.64223 0.36240 0.06895
 Cr167 Cr 0.62713 0.31436 -0.00048
 Cr168 Cr 0.68655 0.31443 0.00066
 Cr169 Cr 0.68674 0.37416 -0.00035
 O170 O 0.66680 0.33431 -0.00004
 C171 C 0.42446 0.85061 -0.28589
 C172 C 0.44954 0.87382 -0.27061
 C173 C 0.46194 0.89791 -0.30169
 C174 C 0.44955 0.89959 -0.34952
 C175 C 0.42396 0.87556 -0.36400
 C176 C 0.41171 0.85151 -0.33259
 C177 C 0.41183 0.82611 -0.25295
 C178 C 0.40181 0.80608 -0.22409
 C179 C 0.39049 0.78280 -0.18817
 C180 C 0.40837 0.77624 -0.16100
 C181 C 0.39773 0.75477 -0.12364
 C182 C 0.36899 0.73955 -0.11283
 C183 C 0.35111 0.74595 -0.14116
 C184 C 0.36182 0.76747 -0.17851
 H185 H 0.45943 0.87348 -0.23404
 H186 H 0.48051 0.91547 -0.28572
 H187 H 0.41361 0.87428 -0.40076
 H188 H 0.39232 0.83349 -0.34504
 H189 H 0.43061 0.78802 -0.16809
 H190 H 0.41209 0.75039 -0.10268
 H191 H 0.32889 0.73467 -0.13387
 H192 H 0.34781 0.77243 -0.19923
 C193 C 0.15049 0.57128 -0.29051
 C194 C 0.14109 0.58840 -0.31165
 C195 C 0.11716 0.57686 -0.34293
 C196 C 0.10226 0.54798 -0.35342
 C197 C 0.11215 0.53099 -0.33275
 C198 C 0.13610 0.54259 -0.30140
 C199 C 0.17423 0.58302 -0.25592
 C200 C 0.19372 0.59296 -0.22601
 C201 C 0.21649 0.60486 -0.18919
 C202 C 0.22292 0.62945 -0.16233
 C203 C 0.24407 0.64036 -0.12455
 C204 C 0.25911 0.62677 -0.11302
 C205 C 0.25280 0.60229 -0.14094
 C206 C 0.23160 0.59141 -0.17871
 H207 H 0.15208 0.61064 -0.30348
 H208 H 0.11029 0.59053 -0.35890
 H209 H 0.10097 0.50865 -0.33964
 H210 H 0.14312 0.52912 -0.28499
 H211 H 0.21131 0.64000 -0.17009
 H212 H 0.24839 0.65924 -0.10392
 H213 H 0.26394 0.59130 -0.13310
 H214 H 0.22675 0.57233 -0.19922
 C215 C 0.42724 0.57479 -0.28340
 C216 C 0.43838 0.58624 -0.33260
 C217 C 0.45018 0.57420 -0.36415
 C218 C 0.45104 0.55025 -0.34713
 C219 C 0.43965 0.53912 -0.29704
 C220 C 0.42794 0.55127 -0.26574
 C221 C 0.41521 0.58712 -0.25050
 C222 C 0.40510 0.59694 -0.22177
 C223 C 0.39305 0.60812 -0.18608
 C224 C 0.40641 0.63689 -0.17647
 C225 C 0.39552 0.64750 -0.13942
 C226 C 0.37111 0.62940 -0.11136
 C227 C 0.35756 0.60054 -0.12210
 C228 C 0.36850 0.59001 -0.15915
 H229 H 0.43778 0.60440 -0.34681
 H230 H 0.45756 0.58324 -0.40267
 H231 H 0.44065 0.52167 -0.28038
 H232 H 0.41963 0.54240 -0.22738
 H233 H 0.42548 0.65109 -0.19701
 H234 H 0.40647 0.66981 -0.13218
 H235 H 0.33873 0.58601 -0.10133
 H236 H 0.35802 0.56768 -0.16621
 C237 C 0.57831 0.14855 -0.28330
 C238 C 0.55985 0.12251 -0.26116
 C239 C 0.54761 0.09855 -0.29256
 C240 C 0.55365 0.10030 -0.34669
 C241 C 0.57243 0.12654 -0.36858
 C242 C 0.58466 0.15053 -0.33704
 C243 C 0.59041 0.17310 -0.25056
 C244 C 0.60003 0.19317 -0.22188
 C245 C 0.61095 0.21651 -0.18618
 C246 C 0.59275 0.22284 -0.15967
 C247 C 0.60301 0.24437 -0.12250
 C248 C 0.63169 0.25986 -0.11122
 C249 C 0.64989 0.25367 -0.13888
 C250 C 0.63956 0.23211 -0.17604
 H251 H 0.55487 0.12072 -0.21957
 H252 H 0.53359 0.07861 -0.27438
 H253 H 0.57727 0.12858 -0.41022
 H254 H 0.59889 0.17061 -0.35459
 H255 H 0.57055 0.21084 -0.16713
 H256 H 0.58842 0.24857 -0.10206
 H257 H 0.67207 0.26517 -0.13122
 H258 H 0.65382 0.22732 -0.19624
 C259 C 0.85189 0.42982 -0.28342
 C260 C 0.87764 0.43647 -0.26173
 C261 C 0.90145 0.44801 -0.29327
 C262 C 0.89984 0.45307 -0.34711
 C263 C 0.87389 0.44652 -0.36855
 C264 C 0.85005 0.43493 -0.33686
 C265 C 0.82749 0.41762 -0.25054
 C266 C 0.80752 0.40738 -0.22178
 C267 C 0.78429 0.39520 -0.18602
 C268 C 0.77787 0.37070 -0.15871
 C269 C 0.75640 0.35967 -0.12155
 C270 C 0.74106 0.37305 -0.11109
 C271 C 0.74734 0.39739 -0.13953
 C272 C 0.76884 0.40839 -0.17668
 H273 H 0.87932 0.43271 -0.22037
 H274 H 0.92118 0.45323 -0.27542
 H275 H 0.87196 0.44992 -0.40996
 H276 H 0.83020 0.42981 -0.35407
 H277 H 0.78974 0.36036 -0.16555
 H278 H 0.75213 0.34089 -0.10049
 H279 H 0.73596 0.40822 -0.13251
 H280 H 0.77369 0.42741 -0.19751
 C281 C 0.57262 0.42375 -0.28652
 C282 C 0.56136 0.41239 -0.33570
 C283 C 0.54959 0.42457 -0.36707
 C284 C 0.54890 0.44856 -0.34990
 C285 C 0.56041 0.45960 -0.29985
 C286 C 0.57208 0.44732 -0.26874
 C287 C 0.58458 0.41130 -0.25370
 C288 C 0.59468 0.40148 -0.22485
 C289 C 0.60674 0.39043 -0.18883
 C290 C 0.59339 0.36169 -0.17867
 C291 C 0.60425 0.35127 -0.14110
 C292 C 0.62860 0.36951 -0.11304
 C293 C 0.64215 0.39831 -0.12437
 C294 C 0.63126 0.40866 -0.16195
 H295 H 0.56182 0.39419 -0.35000
 H296 H 0.54209 0.41559 -0.40556
 H297 H 0.55953 0.47707 -0.28305
 H298 H 0.58048 0.45612 -0.23039
 H299 H 0.57434 0.34740 -0.19915
 H300 H 0.59329 0.32899 -0.13341
 H301 H 0.66095 0.41295 -0.10364
 H302 H 0.64173 0.43096 -0.16942
 C303 C 0.85133 0.42480 0.28473
 C304 C 0.87542 0.44853 0.26711
 C305 C 0.89939 0.46081 0.29821
 C306 C 0.89990 0.44960 0.34809
 C307 C 0.87523 0.42546 0.36509
 C308 C 0.85126 0.41328 0.33373
 C309 C 0.82688 0.41233 0.25197
 C310 C 0.80689 0.40245 0.22325
 C311 C 0.78366 0.39126 0.18747
 C312 C 0.77735 0.40939 0.16031
 C313 C 0.75595 0.39888 0.12302
 C314 C 0.74057 0.37002 0.11226
 C315 C 0.74671 0.35190 0.14059
 C316 C 0.76815 0.36248 0.17787
 H317 H 0.87579 0.45746 0.22891
 H318 H 0.91773 0.47842 0.28155
 H319 H 0.87376 0.41634 0.40346
 H320 H 0.83261 0.39496 0.34792
 H321 H 0.78927 0.43172 0.16735
 H322 H 0.75178 0.41343 0.10206
 H323 H 0.73530 0.32959 0.13333
 H324 H 0.77292 0.34827 0.19858
 C325 C 0.56983 0.14888 0.28452
 C326 C 0.56535 0.15069 0.33826
 C327 C 0.55376 0.12666 0.36975
 C328 C 0.54661 0.10054 0.34779
 C329 C 0.55099 0.09895 0.29365
 C330 C 0.56252 0.12295 0.26231
 C331 C 0.58218 0.17348 0.25186
 C332 C 0.59258 0.19358 0.22317
 C333 C 0.60500 0.21691 0.18740
 C334 C 0.59189 0.23236 0.17698
 C335 C 0.60310 0.25389 0.13966
 C336 C 0.62757 0.26017 0.11210
 C337 C 0.64086 0.24484 0.12369
 C338 C 0.62962 0.22337 0.16102
 H339 H 0.57099 0.17068 0.35587
 H340 H 0.55088 0.12857 0.41139
 H341 H 0.54530 0.07910 0.27542
 H342 H 0.56580 0.12129 0.22073
 H343 H 0.57277 0.22748 0.19707
 H344 H 0.59234 0.26525 0.13177
 H345 H 0.65972 0.24913 0.10334
 H346 H 0.63989 0.21148 0.16868
 C347 C 0.57756 0.43045 0.28185
 C348 C 0.58441 0.43545 0.33533
 C349 C 0.57213 0.44698 0.36698
 C350 C 0.55278 0.45356 0.34547
 C351 C 0.54622 0.44863 0.29158
 C352 C 0.55853 0.43716 0.26007
 C353 C 0.58973 0.41824 0.24906
 C354 C 0.59943 0.40795 0.22041
 C355 C 0.61044 0.39569 0.18483
 C356 C 0.63910 0.40890 0.17532
 C357 C 0.64955 0.39779 0.13839
 C358 C 0.63142 0.37333 0.11033
 C359 C 0.60268 0.35994 0.12096
 C360 C 0.59230 0.37109 0.15790
 H361 H 0.59908 0.43028 0.35261
 H362 H 0.57737 0.45027 0.40843
 H363 H 0.53175 0.45387 0.27369
 H364 H 0.55315 0.43347 0.21868
 H365 H 0.65332 0.42800 0.19586
 H366 H 0.67178 0.40862 0.13123
 H367 H 0.58813 0.34108 0.10019
 H368 H 0.57006 0.36073 0.16487
 C369 C 0.15004 0.57823 0.28780
 C370 C 0.14000 0.55147 0.30887
 C371 C 0.11612 0.53937 0.34030
 C372 C 0.10192 0.55388 0.35103
 C373 C 0.11244 0.58096 0.33038
 C374 C 0.13633 0.59302 0.29888
 C375 C 0.17376 0.58997 0.25318
 C376 C 0.19325 0.59937 0.22328
 C377 C 0.21603 0.61009 0.18653
 C378 C 0.22194 0.59165 0.15959
 C379 C 0.24316 0.60178 0.12195
 C380 C 0.25877 0.63058 0.11066
 C381 C 0.25295 0.64901 0.13864
 C382 C 0.23169 0.63880 0.17626
 H383 H 0.15046 0.53984 0.30056
 H384 H 0.10876 0.51866 0.35625
 H385 H 0.10179 0.59252 0.33744
 H386 H 0.14385 0.61369 0.28253
 H387 H 0.20991 0.56937 0.16719
 H388 H 0.24708 0.58701 0.10126
 H389 H 0.26454 0.67129 0.13098
 H390 H 0.22724 0.65326 0.19683
 C391 C 0.42916 0.85083 0.28332
 C392 C 0.43583 0.87673 0.26172
 C393 C 0.44745 0.90062 0.29329
 C394 C 0.45256 0.89895 0.34706
 C395 C 0.44600 0.87286 0.36841
 C396 C 0.43433 0.84893 0.33669
 C397 C 0.41687 0.82635 0.25041
 C398 C 0.40654 0.80633 0.22160
 C399 C 0.39425 0.78305 0.18576
 C400 C 0.36993 0.77685 0.15849
 C401 C 0.35880 0.75536 0.12124
 C402 C 0.37191 0.73977 0.11063
 C403 C 0.39608 0.74582 0.13904
 C404 C 0.40718 0.76735 0.17628
 H405 H 0.43202 0.87846 0.22042
 H406 H 0.45268 0.92046 0.27551
 H407 H 0.44944 0.87087 0.40977
 H408 H 0.42920 0.82896 0.35383
 H409 H 0.35979 0.78892 0.16544
 H410 H 0.34016 0.75126 0.10022
 H411 H 0.40670 0.73424 0.13190
 H412 H 0.42607 0.77203 0.19707
 C413 C 0.41955 0.57069 0.29090
 C414 C 0.40538 0.54194 0.30125
 C415 C 0.41771 0.53037 0.33267
 C416 C 0.44445 0.54744 0.35394
 C417 C 0.45830 0.57639 0.34404
 C418 C 0.44592 0.58790 0.31271
 C419 C 0.40764 0.58242 0.25610
 C420 C 0.39820 0.59238 0.22598
 C421 C 0.38752 0.60433 0.18889
 C422 C 0.35894 0.59110 0.17851
 C423 C 0.34881 0.60204 0.14050
 C424 C 0.36719 0.62635 0.11225
 C425 C 0.39584 0.63972 0.12367
 C426 C 0.40590 0.62875 0.16168
 H427 H 0.38501 0.52840 0.28433
 H428 H 0.40667 0.50798 0.33910
 H429 H 0.47873 0.59012 0.36048
 H430 H 0.45707 0.61019 0.30495
 H431 H 0.34454 0.57215 0.19928
 H432 H 0.32664 0.59122 0.13274
 H433 H 0.41058 0.65847 0.10278
 H434 H 0.42808 0.63913 0.16936
   
