data_POSCAR
  _audit_creation_date              2014-09-24
  _audit_creation_method            'ToBaCCo'
  _symmetry_space_group_name_H-M    'P1'
  _symmetry_Int_Tables_number       1
  _symmetry_cell_setting            triclinic
  loop_
  _symmetry_equiv_pos_as_xyz
 x,y,z
_cell_length_a 25.7101
_cell_length_b 27.0354
_cell_length_c 25.8794
_cell_angle_alpha 90.149800
_cell_angle_beta 89.921000
_cell_angle_gamma 89.946500
loop_
  _atom_site_label
  _atom_site_type_symbol
  _atom_site_fract_x
  _atom_site_fract_y
  _atom_site_fract_z
C1 C 0.29694 0.34905 0.01281
 C2 C 0.29600 0.34918 -0.04210
 C3 C 0.32753 0.31502 -0.06859
 C4 C 0.35884 0.28010 -0.04278
 C5 C 0.35825 0.27910 0.01212
 C6 C 0.32711 0.31361 0.03889
 H7 H 0.32932 0.31582 0.08060
 H8 H 0.32523 0.31424 -0.11034
 C9 C 0.72850 0.66172 0.03233
 C10 C 0.72549 0.66112 -0.02240
 C11 C 0.69239 0.69499 -0.04739
 C12 C 0.65987 0.72800 -0.02008
 C13 C 0.66299 0.72786 0.03506
 C14 C 0.69768 0.69546 0.05976
 H15 H 0.70061 0.69647 0.10159
 H16 H 0.69180 0.69529 -0.08930
 C17 C 0.71668 0.35405 0.96772
 C18 C 0.72380 0.35147 1.02212
 C19 C 0.68999 0.32145 1.05124
 C20 C 0.65212 0.29169 1.02783
 C21 C 0.64856 0.28998 0.97318
 C22 C 0.67967 0.32281 0.94431
 H23 H 0.67224 0.32630 0.90354
 H24 H 0.69373 0.31942 1.09282
 C25 C 0.27056 0.65979 0.97715
 C26 C 0.27150 0.65771 1.03214
 C27 C 0.30533 0.69019 1.05841
 C28 C 0.34198 0.72039 1.03257
 C29 C 0.34066 0.72124 0.97756
 C30 C 0.30525 0.69114 0.95112
 H31 H 0.30424 0.69268 0.90924
 H32 H 0.30344 0.69032 1.10003
 C33 C 0.03208 0.29571 0.36240
 C34 C -0.02287 0.29309 0.36532
 C35 C -0.05247 0.32480 0.33370
 C36 C -0.02884 0.35740 0.29861
 C37 C 0.02628 0.35940 0.29552
 C38 C 0.05558 0.32902 0.32840
 H39 H 0.09754 0.33186 0.32902
 H40 H -0.09445 0.32538 0.33712
 C41 C 0.02986 0.71477 0.65460
 C42 C -0.02527 0.71637 0.65065
 C43 C -0.05466 0.69084 0.68815
 C44 C -0.03155 0.65928 0.72488
 C45 C 0.02352 0.65829 0.72819
 C46 C 0.05313 0.68624 0.69330
 H47 H 0.09524 0.68531 0.69582
 H48 H -0.09599 0.69691 0.68979
 C49 C 0.98919 0.71071 0.34252
 C50 C 1.04386 0.71435 0.33705
 C51 C 1.06919 0.68576 0.29922
 C52 C 1.04290 0.65044 0.26873
 C53 C 0.98768 0.64685 0.27427
 C54 C 0.96243 0.67682 0.31094
 H55 H 0.92107 0.67145 0.31636
 H56 H 1.11123 0.68868 0.29637
 C57 C 0.96625 0.29147 0.65116
 C58 C 1.02155 0.28766 0.64985
 C59 C 1.05017 0.31917 0.68300
 C60 C 1.02602 0.35449 0.71482
 C61 C 0.97109 0.35818 0.71548
 C62 C 0.94231 0.32550 0.68444
 H63 H 0.90020 0.32682 0.68523
 H64 H 1.09208 0.31761 0.68444
 C65 C 0.34657 0.02622 0.27801
 C66 C 0.34589 -0.02628 0.28022
 C67 C 0.31094 -0.04903 0.31500
 C68 C 0.28217 -0.02195 0.35216
 C69 C 0.28530 0.03059 0.35058
 C70 C 0.31610 0.05344 0.31302
 H71 H 0.31647 0.09351 0.31147
 H72 H 0.30517 -0.08825 0.31169
 C73 C 0.65540 0.00857 0.71594
 C74 C 0.65896 -0.04358 0.72068
 C75 C 0.69427 -0.06943 0.68905
 C76 C 0.72662 -0.04493 0.65331
 C77 C 0.72374 0.00716 0.64880
 C78 C 0.68690 0.03257 0.67914
 H79 H 0.67977 0.07112 0.67147
 H80 H 0.69662 -0.10933 0.69246
 C81 C 0.34885 0.97260 0.72215
 C82 C 0.35284 1.02497 0.71825
 C83 C 0.31516 1.05007 0.68836
 C84 C 0.27662 1.02478 0.65969
 C85 C 0.27392 0.97245 0.66396
 C86 C 0.30994 0.94747 0.69503
 H87 H 0.30764 0.90753 0.69832
 H88 H 0.31415 1.08983 0.68932
 C89 C 0.65021 0.97221 0.28518
 C90 C 0.65651 1.02387 0.27888
 C91 C 0.69229 1.04920 0.31062
 C92 C 0.72270 1.02440 0.34793
 C93 C 0.71830 0.97222 0.35205
 C94 C 0.68042 0.94779 0.32251
 H95 H 0.67241 0.90964 0.33135
 H96 H 0.69838 1.08829 0.30430
 O97 O 0.89947 0.81281 0.44290
 O98 O 0.82347 0.87554 0.54496
 O99 O 0.89453 0.80669 0.54267
 O100 O 0.82783 0.88258 0.44500
 O101 O 0.76789 0.82456 0.43636
 O102 O 0.83236 0.75065 0.53650
 O103 O 0.76149 0.81959 0.53661
 O104 O 0.83755 0.75652 0.43572
 Cu105 Cu 0.86756 0.85015 0.49453
 Cu106 Cu 0.79374 0.78202 0.48582
 C107 C 0.88117 0.77399 0.42199
 C108 C 0.77928 0.85841 0.55780
 C109 C 0.87456 0.76582 0.55635
 C110 C 0.78664 0.86623 0.42396
 O111 O 0.08206 0.15713 0.46671
 O112 O 0.16875 0.10218 0.56408
 O113 O 0.09873 0.17418 0.56308
 O114 O 0.15052 0.08777 0.46528
 O115 O 0.21301 0.14122 0.44779
 O116 O 0.16177 0.22716 0.54589
 O117 O 0.23002 0.15656 0.54569
 O118 O 0.14335 0.21193 0.44932
 Cu119 Cu 0.11917 0.12455 0.51731
 Cu120 Cu 0.19333 0.18944 0.49506
 C121 C 0.09793 0.19468 0.44212
 C122 C 0.21411 0.11964 0.57127
 C123 C 0.12068 0.21577 0.57025
 C124 C 0.19051 0.10010 0.43963
 O125 O 0.09019 0.85103 0.55108
 O126 O 0.17633 0.90654 0.45364
 O127 O 0.09240 0.85171 0.44964
 O128 O 0.17397 0.90411 0.55343
 O129 O 0.22377 0.83748 0.55175
 O130 O 0.14079 0.78425 0.45026
 O131 O 0.22404 0.83856 0.45191
 O132 O 0.13909 0.78383 0.55095
 Cu133 Cu 0.12814 0.88504 0.50186
 Cu134 Cu 0.18658 0.80411 0.50127
 C135 C 0.10022 0.80806 0.56788
 C136 C 0.21511 0.88229 0.43659
 C137 C 0.10277 0.80881 0.43230
 C138 C 0.21323 0.88008 0.56957
 O139 O 0.90629 0.15409 0.54998
 O140 O 0.82639 0.10183 0.44594
 O141 O 0.89859 0.16998 0.45054
 O142 O 0.82885 0.09193 0.54591
 O143 O 0.77520 0.15443 0.55989
 O144 O 0.83715 0.22691 0.45735
 O145 O 0.76665 0.15931 0.45871
 O146 O 0.85201 0.21722 0.55611
 Cu147 Cu 0.87085 0.12352 0.49690
 Cu148 Cu 0.80183 0.19527 0.50939
 C149 C 0.89343 0.19514 0.56996
 C150 C 0.78266 0.12093 0.43508
 C151 C 0.87888 0.21125 0.43712
 C152 C 0.79050 0.11092 0.56995
 O153 O 0.53803 0.85740 0.94881
 O154 O 0.44758 0.93269 0.87361
 O155 O 0.44206 0.86560 0.93907
 O156 O 0.55236 0.92670 0.87316
 O157 O 0.55079 0.87047 0.81137
 O158 O 0.44460 0.80646 0.87996
 O159 O 0.44969 0.87691 0.81106
 O160 O 0.54531 0.80344 0.88491
 Cu161 Cu 0.49746 0.90224 0.91339
 Cu162 Cu 0.49788 0.83371 0.84052
 C163 C 0.55577 0.81711 0.93078
 C164 C 0.43208 0.91706 0.83008
 C165 C 0.42523 0.82493 0.92097
 C166 C 0.56941 0.90993 0.83043
 O167 O 0.45150 0.09944 0.17366
 O168 O 0.54930 0.15351 0.08777
 O169 O 0.55250 0.10121 0.17357
 O170 O 0.44890 0.16546 0.09962
 O171 O 0.44947 0.22559 0.15766
 O172 O 0.55708 0.16613 0.22538
 O173 O 0.55189 0.21961 0.13782
 O174 O 0.45938 0.16171 0.22853
 Cu175 Cu 0.50014 0.12370 0.12831
 Cu176 Cu 0.50638 0.20026 0.19093
 C177 C 0.43971 0.12019 0.21610
 C178 C 0.56653 0.19630 0.09742
 C179 C 0.57157 0.12291 0.21308
 C180 C 0.43097 0.20622 0.11714
 O181 O 0.55922 0.10198 0.82034
 O182 O 0.45687 0.18001 0.87732
 O183 O 0.45907 0.10804 0.81009
 O184 O 0.55662 0.17601 0.88754
 O185 O 0.56707 0.22833 0.82286
 O186 O 0.46746 0.16273 0.74738
 O187 O 0.46678 0.23438 0.81451
 O188 O 0.56861 0.15633 0.75732
 Cu189 Cu 0.50712 0.13592 0.85516
 Cu190 Cu 0.51834 0.20068 0.77899
 C191 C 0.58117 0.11604 0.77896
 C192 C 0.44497 0.22078 0.85610
 C193 C 0.44642 0.12413 0.76572
 C194 C 0.57818 0.21401 0.86815
 O195 O 0.44745 0.81276 0.11654
 O196 O 0.54731 0.88599 0.18411
 O197 O 0.54911 0.81460 0.11666
 O198 O 0.44668 0.88446 0.18566
 O199 O 0.45018 0.83000 0.24904
 O200 O 0.54662 0.75694 0.17698
 O201 O 0.55181 0.82779 0.24380
 O202 O 0.44617 0.75932 0.18095
 Cu203 Cu 0.49725 0.85498 0.14427
 Cu204 Cu 0.49870 0.78813 0.21916
 C205 C 0.42970 0.77369 0.13734
 C206 C 0.56720 0.86855 0.22505
 C207 C 0.56483 0.77361 0.13494
 C208 C 0.43181 0.86943 0.22978
 O209 O 0.88055 0.55810 0.81495
 O210 O 0.81255 0.45649 0.88055
 O211 O 0.88511 0.46275 0.80994
 O212 O 0.81221 0.55294 0.88877
 O213 O 0.74887 0.55201 0.83123
 O214 O 0.82480 0.46670 0.74937
 O215 O 0.75316 0.45545 0.81894
 O216 O 0.81713 0.56166 0.75757
 Cu217 Cu 0.85366 0.50728 0.85474
 Cu218 Cu 0.77953 0.50920 0.78358
 C219 C 0.86036 0.57702 0.77480
 C220 C 0.77179 0.43812 0.86043
 C221 C 0.86794 0.45017 0.76580
 C222 C 0.76806 0.56786 0.87336
 O223 O 0.16388 0.42520 0.09188
 O224 O 0.08302 0.52071 0.15182
 O225 O 0.15581 0.52307 0.07424
 O226 O 0.10037 0.43255 0.16483
 O227 O 0.16600 0.44690 0.21810
 O228 O 0.21654 0.54287 0.13073
 O229 O 0.14704 0.54017 0.20512
 O230 O 0.23051 0.44715 0.14083
 Cu231 Cu 0.12074 0.47575 0.11334
 Cu232 Cu 0.19665 0.49638 0.17886
 C233 C 0.21051 0.41934 0.10652
 C234 C 0.10005 0.54452 0.19051
 C235 C 0.19538 0.54839 0.08692
 C236 C 0.12404 0.42454 0.20703
 O237 O 0.92332 0.44368 0.14282
 O238 O 0.84619 0.53006 0.06585
 O239 O 0.92642 0.54349 0.13288
 O240 O 0.84138 0.44108 0.08898
 O241 O 0.78952 0.45498 0.15563
 O242 O 0.87541 0.55396 0.20057
 O243 O 0.79809 0.54831 0.13420
 O244 O 0.87366 0.45790 0.21099
 Cu245 Cu 0.89088 0.49009 0.10211
 Cu246 Cu 0.82938 0.50547 0.18214
 C247 C 0.91111 0.43488 0.18936
 C248 C 0.80821 0.55274 0.08621
 C249 C 0.91569 0.56552 0.17509
 C250 C 0.80021 0.43149 0.11454
 O251 O 0.16679 0.55912 0.90413
 O252 O 0.08239 0.46066 0.85312
 O253 O 0.15721 0.46471 0.92104
 O254 O 0.09525 0.55489 0.83341
 O255 O 0.15477 0.53896 0.77401
 O256 O 0.21468 0.44761 0.86011
 O257 O 0.13985 0.44592 0.79142
 O258 O 0.22619 0.54175 0.84506
 Cu259 Cu 0.11943 0.51150 0.88391
 Cu260 Cu 0.18973 0.49171 0.81168
 C261 C 0.21102 0.56683 0.88380
 C262 C 0.09637 0.43712 0.81299
 C263 C 0.19689 0.44094 0.90536
 C264 C 0.11473 0.56238 0.78887
 C265 C 0.27316 0.38920 0.04374
 C266 C 0.24131 0.37967 0.08318
 H267 H 0.27798 0.42704 0.03077
 H268 H 0.23283 0.34182 0.09394
 C269 C 0.76336 0.62970 0.06388
 C270 C 0.77444 0.58256 0.05288
 H271 H 0.77822 0.64503 0.09971
 H272 H 0.75913 0.56480 0.01871
 C273 C 0.74295 0.39390 0.93714
 C274 C 0.74560 0.39630 0.88554
 H275 H 0.75902 0.42505 0.95803
 H276 H 0.72797 0.36873 0.86094
 C277 C 0.23198 0.63280 0.94579
 C278 C 0.24653 0.60342 0.90664
 H279 H 0.19186 0.63301 0.95872
 H280 H 0.28677 0.60300 0.89410
 C281 C 0.06755 0.26759 0.39632
 C282 C 0.06247 0.21936 0.40617
 H283 H 0.10063 0.28743 0.41199
 H284 H 0.03042 0.19844 0.39009
 C285 C 0.06545 0.73779 0.61666
 C286 C 0.06573 0.78634 0.60706
 H287 H 0.09398 0.71401 0.59824
 H288 H 0.03848 0.81044 0.62688
 C289 C 0.96025 0.73816 0.38371
 C290 C 0.90954 0.74918 0.38018
 H291 H 0.98052 0.74866 0.41866
 H292 H 0.88700 0.73862 0.34672
 C293 C 0.93105 0.26648 0.61410
 C294 C 0.92773 0.21745 0.60893
 H295 H 0.90495 0.28990 0.59214
 H296 H 0.95280 0.19348 0.63134
 C297 C 0.37934 0.05355 0.24025
 C298 C 0.40433 0.09549 0.25245
 H299 H 0.38365 0.03857 0.20167
 H300 H 0.40087 0.11114 0.29086
 C301 C 0.61581 0.03807 0.74477
 C302 C 0.62235 0.08616 0.75559
 H303 H 0.57963 0.02056 0.75588
 H304 H 0.65743 0.10545 0.74446
 C305 C 0.38619 0.94150 0.75105
 C306 C 0.39342 0.94648 0.80189
 H307 H 0.40596 0.91222 0.73011
 H308 H 0.37232 0.97484 0.82295
 C309 C 0.60966 0.94429 0.25580
 C310 C 0.60935 0.89488 0.25110
 H311 H 0.57770 0.96460 0.23878
 H312 H 0.63947 0.87209 0.26768
 C313 C 0.38985 0.24630 0.92893
 C314 C 0.40692 0.25397 0.88052
 H315 H 0.40351 0.21332 0.94821
 H316 H 0.39792 0.28762 0.85991
 C317 C 0.62720 0.75874 0.94921
 C318 C 0.58593 0.78509 0.96529
 H319 H 0.63545 0.76034 0.90810
 H320 H 0.57076 0.78308 1.00380
 C321 C 0.38016 0.74763 0.06041
 C322 C 0.38929 0.74420 0.11147
 H323 H 0.40611 0.77162 0.03950
 H324 H 0.36956 0.71777 0.13564
 C325 C 0.61518 0.26693 0.06324
 C326 C 0.60316 0.21897 0.06064
 H327 H 0.60003 0.28897 0.09494
 H328 H 0.61968 0.19601 0.03042
 C329 C 0.24218 0.05066 0.62643
 C330 C 0.24960 0.09690 0.60900
 H331 H 0.20902 0.03152 0.61065
 H332 H 0.28433 0.11754 0.61827
 C333 C 0.75699 0.05084 0.38040
 C334 C 0.74940 0.09792 0.39545
 H335 H 0.78902 0.03117 0.39793
 H336 H 0.71549 0.11842 0.38300
 C337 C 0.76225 0.92588 0.61987
 C338 C 0.74708 0.88400 0.59664
 H339 H 0.80020 0.94109 0.61112
 H340 H 0.70852 0.86944 0.60390
 C341 C 0.25162 0.95364 0.39011
 C342 C 0.25023 0.90448 0.39821
 H343 H 0.22835 0.97554 0.41613
 H344 H 0.27590 0.87914 0.37845
 C345 C 0.06070 0.39091 0.74006
 C346 C 0.06116 0.39986 0.79086
 H347 H 0.08904 0.40910 0.71555
 H348 H 0.03439 0.38092 0.81633
 C349 C 0.07503 0.61990 0.23747
 C350 C 0.06341 0.57439 0.22074
 H351 H 0.11417 0.63282 0.22931
 H352 H 0.02812 0.55583 0.23166
 C353 C 0.93658 0.39092 0.26890
 C354 C 0.94172 0.39794 0.21797
 H355 H 0.90549 0.40941 0.28968
 H356 H 0.97115 0.37750 0.19679
 C357 C 0.93776 0.62715 0.75561
 C358 C 0.88760 0.61617 0.74636
 H359 H 0.95637 0.60646 0.78606
 H360 H 0.86664 0.63183 0.71419
 C361 C 0.75770 0.62733 0.94545
 C362 C 0.73797 0.60364 0.90428
 H363 H 0.79743 0.62020 0.95717
 H364 H 0.69796 0.61009 0.89303
 C365 C 0.26661 0.38201 0.92681
 C366 C 0.22285 0.40595 0.94064
 H367 H 0.27912 0.38613 0.88699
 H368 H 0.20428 0.39945 0.97741
 C369 C 0.24293 0.62423 0.06384
 C370 C 0.21827 0.58263 0.04908
 H371 H 0.24371 0.63098 0.10520
 H372 H 0.21701 0.56987 0.00983
 C373 C 0.76384 0.37891 0.04630
 C374 C 0.76261 0.39474 0.09547
 H375 H 0.79625 0.39109 0.02289
 H376 H 0.72993 0.38668 0.12038
 C377 C 0.94958 0.74218 0.61006
 C378 C 0.89951 0.73579 0.59655
 H379 H 0.97176 0.76717 0.58631
 H380 H 0.87592 0.70693 0.61335
 C381 C 0.95093 0.26105 0.40423
 C382 C 0.90376 0.24140 0.39713
 H383 H 0.97105 0.25306 0.44002
 H384 H 0.88156 0.24919 0.36262
 C385 C 0.04689 0.25426 0.61553
 C386 C 0.09845 0.25182 0.60683
 H387 H 0.02361 0.22945 0.59262
 H388 H 0.12534 0.27816 0.62311
 C389 C 0.07778 0.74085 0.37436
 C390 C 0.06959 0.78698 0.39165
 H391 H 0.11197 0.72098 0.38737
 H392 H 0.03729 0.80848 0.37697
 C393 C 0.62323 0.92639 0.75333
 C394 C 0.60987 0.93783 0.80210
 H395 H 0.60783 0.89290 0.73606
 H396 H 0.62680 0.96991 0.82072
 C397 C 0.38054 0.94476 0.24968
 C398 C 0.39295 0.89737 0.25990
 H399 H 0.40178 0.96203 0.21858
 H400 H 0.37803 0.87881 0.29373
 C401 C 0.62573 0.05151 0.23948
 C402 C 0.60875 0.09775 0.24747
 H403 H 0.61407 0.03248 0.20452
 H404 H 0.61888 0.11696 0.28280
 C405 C 0.39332 0.05119 0.74377
 C406 C 0.40613 0.09870 0.73516
 H407 H 0.41757 0.03189 0.77101
 H408 H 0.38884 0.11972 0.70417
 C409 C 0.63284 0.76150 0.06880
 C410 C 0.60292 0.74342 0.10663
 H411 H 0.63239 0.80071 0.06023
 H412 H 0.60446 0.70429 0.11558
 C413 C 0.39596 0.24753 0.04127
 C414 C 0.38909 0.23233 0.08993
 H415 H 0.43258 0.23819 0.02288
 H416 H 0.35465 0.24240 0.11159
 C417 C 0.61009 0.25774 0.94583
 C418 C 0.61755 0.24184 0.89716
 H419 H 0.57451 0.24747 0.96546
 H420 H 0.65227 0.25191 0.87604
 C421 C 0.37777 0.74964 0.94516
 C422 C 0.38401 0.79864 0.94931
 H423 H 0.39952 0.72931 0.91614
 H424 H 0.36144 0.81917 0.97755
 C425 C 0.74873 0.94304 0.39070
 C426 C 0.76017 0.89508 0.38406
 H427 H 0.76071 0.96055 0.42641
 H428 H 0.74781 0.87532 0.34982
 C429 C 0.23524 0.94300 0.63440
 C430 C 0.24864 0.90267 0.60741
 H431 H 0.19563 0.95631 0.63191
 H432 H 0.28776 0.88796 0.61007
 C433 C 0.26189 0.06421 0.38958
 C434 C 0.21105 0.06590 0.40034
 H435 H 0.28765 0.09086 0.40764
 H436 H 0.18443 0.04048 0.38169
 C437 C 0.75538 0.03454 0.60933
 C438 C 0.76340 0.08360 0.61100
 H439 H 0.77139 0.01425 0.57688
 H440 H 0.74811 0.10581 0.64227
 C441 C 0.95291 0.61138 0.24731
 C442 C 0.95115 0.60357 0.19611
 H443 H 0.92526 0.59215 0.27174
 H444 H 0.97821 0.62216 0.17062
 C445 C 0.94311 0.39595 0.74715
 C446 C 0.89749 0.41573 0.73280
 H447 H 0.95966 0.40774 0.78337
 H448 H 0.88080 0.40666 0.69559
 C449 C 0.05100 0.62697 0.76654
 C450 C 0.09056 0.59755 0.75289
 H451 H 0.03688 0.62630 0.80598
 H452 H 0.10461 0.59780 0.71339
 C453 C 0.05327 0.39524 0.26106
 C454 C 0.10202 0.38932 0.24370
 H455 H 0.03232 0.42789 0.24873
 H456 H 0.12612 0.35855 0.25528
   
