data_POSCAR
  _audit_creation_date              2014-09-24
  _audit_creation_method            'ToBaCCo'
  _symmetry_space_group_name_H-M    'P1'
  _symmetry_Int_Tables_number       1
  _symmetry_cell_setting            triclinic
  loop_
  _symmetry_equiv_pos_as_xyz
 x,y,z
_cell_length_a 22.9520
_cell_length_b 21.6953
_cell_length_c 19.8456
_cell_angle_alpha 90.143900
_cell_angle_beta 89.763100
_cell_angle_gamma 87.893100
loop_
  _atom_site_label
  _atom_site_type_symbol
  _atom_site_fract_x
  _atom_site_fract_y
  _atom_site_fract_z
C1 C 1.21443 0.21132 0.18893
 C2 C 1.26320 0.24628 0.15470
 C3 C 1.29236 0.28335 0.19779
 C4 C 1.26957 0.28273 0.27081
 C5 C 1.24417 0.17697 0.24757
 C6 C 1.27438 0.21402 0.28953
 C7 C 1.17589 0.26100 0.22243
 C8 C 1.20369 0.29837 0.26515
 H9 H 1.27239 0.24330 0.10120
 H10 H 1.29304 0.31329 0.30562
 H11 H 1.24831 0.12729 0.25006
 H12 H 1.12932 0.26570 0.21352
 C13 C 0.70852 -0.28184 0.19723
 C14 C 0.75220 -0.24361 0.15909
 C15 C 0.78367 -0.20640 0.19939
 C16 C 0.76865 -0.21175 0.27534
 C17 C 0.74445 -0.31734 0.25012
 C18 C 0.77611 -0.28139 0.29126
 C19 C 0.67124 -0.23544 0.23756
 C20 C 0.70202 -0.19848 0.27812
 H21 H 0.75854 -0.24714 0.10509
 H22 H 0.79414 -0.18154 0.30848
 H23 H 0.74756 -0.36727 0.25149
 H24 H 0.62412 -0.23171 0.23439
 C25 C 0.70780 0.21107 -0.29604
 C26 C 0.74041 0.25746 -0.33263
 C27 C 0.77911 0.29108 -0.29060
 C28 C 0.77630 0.27276 -0.21976
 C29 C 0.75122 0.17193 -0.26071
 C30 C 0.78929 0.20615 -0.21848
 C31 C 0.67754 0.24455 -0.24252
 C32 C 0.71452 0.27911 -0.20060
 H33 H 0.73928 0.26233 -0.38695
 H34 H 0.80502 0.29944 -0.18630
 H35 H 0.75373 0.12210 -0.26372
 H36 H 0.63037 0.24704 -0.23777
 C37 C 1.21166 -0.28861 -0.29883
 C38 C 1.23443 -0.23020 -0.33187
 C39 C 1.27074 -0.19829 -0.29132
 C40 C 1.28046 -0.22704 -0.22162
 C41 C 1.26659 -0.32542 -0.27680
 C42 C 1.30231 -0.29343 -0.23613
 C43 C 1.18366 -0.26633 -0.23278
 C44 C 1.21909 -0.23333 -0.19324
 H45 H 1.22705 -0.21912 -0.38436
 H46 H 1.30947 -0.20060 -0.18856
 H47 H 1.27485 -0.37389 -0.28722
 H48 H 1.13763 -0.27041 -0.22179
 C49 C 0.22280 0.21843 0.81387
 C50 C 0.27318 0.24781 0.84157
 C51 C 0.30029 0.28858 0.79526
 C52 C 0.27151 0.29249 0.72974
 C53 C 0.18240 0.27098 0.78918
 C54 C 0.20681 0.30933 0.74451
 C55 C 0.24485 0.18644 0.74873
 C56 C 0.27171 0.22520 0.70517
 H57 H 0.28764 0.24075 0.89295
 H58 H 0.29225 0.32406 0.69356
 H59 H 0.13636 0.27441 0.80184
 H60 H 0.24758 0.13691 0.74252
 C61 C 0.70242 0.71506 0.78905
 C62 C 0.73692 0.74775 0.83788
 C63 C 0.77785 0.78791 0.80817
 C64 C 0.77821 0.78503 0.73332
 C65 C 0.67617 0.76260 0.74634
 C66 C 0.71815 0.80225 0.71549
 C67 C 0.74422 0.68186 0.74596
 C68 C 0.78517 0.71964 0.71379
 H69 H 0.72876 0.74661 0.89173
 H70 H 0.80995 0.81449 0.70781
 H71 H 0.62982 0.76541 0.73593
 H72 H 0.74555 0.63213 0.73989
 C73 C 0.71289 0.19728 0.30261
 C74 C 0.75157 0.24339 0.33824
 C75 C 0.78263 0.27887 0.29568
 C76 C 0.77228 0.26426 0.22042
 C77 C 0.67524 0.23677 0.25471
 C78 C 0.70582 0.27193 0.21171
 C79 C 0.75354 0.15908 0.25539
 C80 C 0.78434 0.19404 0.21178
 H81 H 0.75510 0.24629 0.39256
 H82 H 0.79756 0.29292 0.18529
 H83 H 0.62805 0.23907 0.25746
 H84 H 0.75751 0.10923 0.25599
 C85 C 0.21229 0.71073 0.30346
 C86 C 0.24062 0.76543 0.33755
 C87 C 0.27498 0.79836 0.29541
 C88 C 0.27631 0.77467 0.22219
 C89 C 0.17932 0.73829 0.24381
 C90 C 0.21187 0.77208 0.20190
 C91 C 0.26328 0.67347 0.27138
 C92 C 0.29667 0.70664 0.22879
 H93 H 0.23999 0.77176 0.39169
 H94 H 0.30322 0.80209 0.18758
 H95 H 0.13297 0.73290 0.23638
 H96 H 0.27185 0.62472 0.27937
 O97 O 1.08224 0.09699 0.11627
 O98 O 1.15158 0.04067 0.05651
 C99 C 1.13598 0.08119 0.10130
 O100 O 0.92738 -0.12358 0.10080
 O101 O 0.86282 -0.06654 0.03551
 C102 C 0.87504 -0.10843 0.08068
 O103 O 1.08966 -0.11906 0.11045
 O104 O 1.15569 -0.06097 0.05379
 C105 C 1.14253 -0.10319 0.09664
 O106 O 0.92046 0.10185 0.10538
 O107 O 0.85901 0.04328 0.04264
 C108 C 0.86894 0.08558 0.08801
 Zr109 Zr 1.00271 0.06508 0.07716
 O110 O 0.99441 0.05475 0.18286
 O111 O 0.99833 0.16190 0.09102
 Zr112 Zr 1.00834 -0.08976 0.06958
 O113 O 1.00456 -0.10254 0.17510
 O114 O 1.01279 -0.18620 0.05384
 O115 O 1.05697 -0.01266 0.09020
 O116 O 0.95386 -0.01275 0.08247
 O117 O 0.92801 0.10969 -0.12517
 O118 O 0.86321 0.04507 -0.07579
 C119 C 0.87552 0.09090 -0.11488
 O120 O 1.10102 -0.11142 -0.13172
 O121 O 1.16085 -0.05844 -0.06175
 C122 C 1.15184 -0.09827 -0.10876
 O123 O 0.94338 -0.11171 -0.14798
 O124 O 0.87082 -0.06818 -0.08115
 C125 C 0.88944 -0.10336 -0.13142
 O126 O 1.09156 0.10440 -0.12236
 O127 O 1.15569 0.04434 -0.06013
 C128 C 1.14383 0.08695 -0.10389
 Zr129 Zr 1.00970 0.07219 -0.09179
 O130 O 1.00897 0.07545 -0.19843
 O131 O 1.01091 0.16964 -0.08697
 Zr132 Zr 1.01730 -0.08287 -0.09896
 O133 O 1.02637 -0.08534 -0.20506
 O134 O 1.02288 -0.18059 -0.09611
 Zr135 Zr 1.09661 -0.00867 -0.00581
 Zr136 Zr 0.92124 -0.00989 -0.01665
 O137 O 0.96309 -0.00515 -0.11096
 O138 O 1.06617 -0.00451 -0.10588
 O139 O 0.95331 0.08006 -0.00971
 O140 O 1.06408 -0.09780 -0.01185
 O141 O 1.05653 0.08025 -0.00408
 O142 O 0.96072 -0.09905 -0.01876
 H143 H 0.92616 -0.01355 0.12083
 H144 H 1.09142 -0.13424 -0.01156
 H145 H 0.93905 -0.00260 -0.15225
 H146 H 1.08111 0.11677 -0.00180
 H147 H 1.01468 -0.20503 0.09923
 H148 H 0.98556 -0.19528 -0.07812
 H149 H 1.01031 -0.04569 -0.22256
 H150 H 1.04440 0.05258 -0.21476
 H151 H 0.97928 0.18371 -0.05588
 H152 H 1.01668 0.18077 0.05139
 H153 H 1.03180 0.03694 0.20004
 H154 H 0.99093 -0.06282 0.19507
 O155 O 1.07455 0.60788 0.61845
 O156 O 1.14010 0.54694 0.55848
 C157 C 1.12731 0.59035 0.60144
 O158 O 0.91311 0.38850 0.62108
 O159 O 0.84804 0.44431 0.55561
 C160 C 0.86051 0.40197 0.60035
 O161 O 1.07591 0.39259 0.62787
 O162 O 1.14086 0.44278 0.56134
 C163 C 1.12860 0.40573 0.61003
 O164 O 0.91409 0.62265 0.60950
 O165 O 0.84862 0.55916 0.56007
 C166 C 0.86150 0.60615 0.59801
 Zr167 Zr 0.99311 0.57596 0.58593
 O168 O 0.98540 0.56647 0.69179
 O169 O 0.99645 0.67235 0.60005
 Zr170 Zr 0.99411 0.42195 0.58798
 O171 O 0.98650 0.42437 0.69433
 O172 O 1.00224 0.32442 0.58925
 O173 O 1.04630 0.49781 0.60032
 O174 O 0.94152 0.50077 0.59875
 O175 O 0.91315 0.61586 0.38680
 O176 O 0.84760 0.55757 0.44407
 C177 C 0.86043 0.60169 0.40271
 O178 O 1.07770 0.38853 0.38000
 O179 O 1.14207 0.44108 0.44450
 C180 C 1.13023 0.40210 0.39736
 O181 O 0.91612 0.38408 0.38494
 O182 O 0.84911 0.44335 0.44538
 C183 C 0.86304 0.39909 0.40270
 O184 O 1.07569 0.60457 0.38161
 O185 O 1.14060 0.54511 0.44348
 C186 C 1.12827 0.58733 0.39931
 Zr187 Zr 0.99387 0.57420 0.41547
 O188 O 0.98818 0.56611 0.30931
 O189 O 0.99817 0.67108 0.40684
 Zr190 Zr 0.99556 0.41985 0.41742
 O191 O 0.98939 0.42109 0.31097
 O192 O 1.00368 0.32235 0.41698
 Zr193 Zr 1.08167 0.49557 0.50185
 Zr194 Zr 0.90597 0.50040 0.50115
 O195 O 0.94305 0.49835 0.40406
 O196 O 1.04745 0.49552 0.40332
 O197 O 0.94170 0.58872 0.50037
 O198 O 1.04565 0.40775 0.50309
 O199 O 1.04359 0.58543 0.50065
 O200 O 0.94319 0.41006 0.50254
 H201 H 0.91401 0.50210 0.63740
 H202 H 1.07235 0.37082 0.50375
 H203 H 0.91618 0.49870 0.36509
 H204 H 1.06816 0.62201 0.50004
 H205 H 0.96979 0.30847 0.56248
 H206 H 0.97404 0.30703 0.44844
 H207 H 1.02244 0.44436 0.29343
 H208 H 1.02705 0.55224 0.29218
 H209 H 0.97564 0.68932 0.44503
 H210 H 0.99969 0.69069 0.55475
 H211 H 1.02517 0.56021 0.71023
 H212 H 1.01767 0.45035 0.71168
 O213 O 0.57279 0.11362 0.62050
 O214 O 0.63758 0.04469 0.56979
 C215 C 0.62554 0.09189 0.60797
 O216 O 0.40055 -0.09839 0.62536
 O217 O 0.34017 -0.04064 0.55671
 C218 C 0.34945 -0.08200 0.60284
 O219 O 0.55755 -0.09309 0.65294
 O220 O 0.63062 -0.06090 0.58382
 C221 C 0.61161 -0.08932 0.63728
 O222 O 0.40890 0.12919 0.60756
 O223 O 0.34480 0.06854 0.55143
 C224 C 0.35654 0.11431 0.59058
 Zr225 Zr 0.49039 0.08401 0.58661
 O226 O 0.48497 0.07949 0.69274
 O227 O 0.49329 0.18126 0.59091
 Zr228 Zr 0.48370 -0.06907 0.59899
 O229 O 0.47121 -0.05565 0.70383
 O230 O 0.48963 -0.16611 0.61024
 O231 O 0.53891 0.00454 0.60889
 O232 O 0.43492 0.01220 0.60199
 O233 O 0.41741 0.11298 0.38227
 O234 O 0.34903 0.05978 0.44078
 C235 C 0.36383 0.10068 0.39748
 O236 O 0.57581 -0.11672 0.39668
 O237 O 0.63980 -0.06557 0.46335
 C238 C 0.62820 -0.10447 0.41612
 O239 O 0.41232 -0.11315 0.39353
 O240 O 0.34667 -0.04745 0.44753
 C241 C 0.35957 -0.09324 0.40740
 O242 O 0.58091 0.09366 0.38355
 O243 O 0.64199 0.03752 0.45374
 C244 C 0.63231 0.07622 0.40477
 Zr245 Zr 0.49723 0.07144 0.41730
 O246 O 0.49465 0.06120 0.31117
 O247 O 0.50647 0.16754 0.40585
 Zr248 Zr 0.49299 -0.08295 0.42993
 O249 O 0.49174 -0.09459 0.32410
 O250 O 0.49678 -0.17998 0.44210
 Zr251 Zr 0.57892 -0.00640 0.51363
 Zr252 Zr 0.40422 0.00681 0.50286
 O253 O 0.44486 -0.00296 0.40803
 O254 O 0.54790 -0.01030 0.41358
 O255 O 0.44262 0.09363 0.49806
 O256 O 0.53899 -0.09186 0.51906
 O257 O 0.54488 0.08491 0.50374
 O258 O 0.43637 -0.08486 0.51205
 H259 H 0.40605 0.01658 0.63914
 H260 H 0.56443 -0.12944 0.52426
 H261 H 0.42021 -0.00331 0.36716
 H262 H 0.57154 0.11971 0.50140
 H263 H 0.46221 -0.18373 0.57775
 H264 H 0.45934 -0.19193 0.46220
 H265 H 0.51859 -0.06464 0.30482
 H266 H 0.53114 0.03913 0.29689
 H267 H 0.47928 0.18832 0.43819
 H268 H 0.50960 0.19488 0.54752
 H269 H 0.48442 0.12279 0.70870
 H270 H 0.46729 -0.09712 0.72392
 O271 O 0.60384 0.41638 0.12382
 O272 O 0.55383 0.34668 0.06108
 C273 C 0.59174 0.36059 0.10668
 O274 O 0.38818 0.58671 0.11022
 O275 O 0.44252 0.65671 0.05357
 C276 C 0.40171 0.64255 0.09601
 O277 O 0.39669 0.41725 0.11553
 O278 O 0.45186 0.34653 0.05405
 C279 C 0.41126 0.36121 0.09780
 O280 O 0.60479 0.58586 0.11265
 O281 O 0.54808 0.65607 0.05353
 C282 C 0.59005 0.64165 0.09488
 Zr283 Zr 0.57021 0.50125 0.08659
 O284 O 0.55512 0.50525 0.19163
 O285 O 0.66121 0.49813 0.10313
 Zr286 Zr 0.42561 0.50204 0.07988
 O287 O 0.42540 0.50853 0.18642
 O288 O 0.33369 0.49688 0.07958
 O289 O 0.49914 0.44556 0.09696
 O290 O 0.49609 0.55684 0.09507
 O291 O 0.60771 0.58517 -0.11484
 O292 O 0.54973 0.65592 -0.05737
 C293 C 0.59149 0.64144 -0.09954
 O294 O 0.40640 0.41500 -0.12832
 O295 O 0.45520 0.34594 -0.05941
 C296 C 0.41825 0.35948 -0.10723
 O297 O 0.39751 0.58469 -0.12482
 O298 O 0.44535 0.65563 -0.06178
 C299 C 0.40839 0.64078 -0.10801
 O300 O 0.61625 0.41486 -0.11295
 O301 O 0.55905 0.34638 -0.05743
 C302 C 0.60224 0.35945 -0.09696
 Zr303 Zr 0.57715 0.49970 -0.08312
 O304 O 0.57265 0.49780 -0.18940
 O305 O 0.66944 0.49776 -0.08482
 Zr306 Zr 0.43219 0.50019 -0.09016
 O307 O 0.43941 0.50469 -0.19648
 O308 O 0.34051 0.49462 -0.09740
 Zr309 Zr 0.50392 0.40775 -0.00093
 Zr310 Zr 0.49804 0.59429 -0.00264
 O311 O 0.50340 0.55447 -0.09946
 O312 O 0.50704 0.44354 -0.09942
 O313 O 0.58358 0.55519 0.00156
 O314 O 0.41922 0.44818 -0.00517
 O315 O 0.58627 0.44715 0.00291
 O316 O 0.41493 0.55625 -0.00620
 H317 H 0.49478 0.58549 0.13408
 H318 H 0.38458 0.42230 -0.00657
 H319 H 0.50391 0.58167 -0.13949
 H320 H 0.62256 0.42114 0.00555
 H321 H 0.31843 0.52686 0.04600
 H322 H 0.32277 0.52676 -0.06758
 H323 H 0.46545 0.46986 -0.21138
 H324 H 0.61342 0.49945 -0.20573
 H325 H 0.68219 0.52749 -0.05049
 H326 H 0.67994 0.49674 0.05824
 H327 H 0.59401 0.50810 0.21263
 H328 H 0.44782 0.47228 0.20413
 C329 C 1.17796 0.17425 0.14218
 C330 C 1.18215 0.11309 0.13574
 H331 H 1.14295 0.19907 0.11594
 H332 H 1.21913 0.08631 0.15474
 C333 C 1.16763 0.67872 0.65917
 C334 C 1.17586 0.62250 0.63192
 H335 H 1.12522 0.70203 0.65449
 H336 H 1.21836 0.59947 0.63093
 C337 C 0.66598 0.18079 0.66310
 C338 C 0.67268 0.12156 0.63595
 H339 H 0.62514 0.20605 0.65320
 H340 H 0.71555 0.09908 0.63339
 C341 C 0.67540 0.67565 0.15349
 C342 C 0.62431 0.69061 0.12408
 H343 H 0.69399 0.62922 0.14787
 H344 H 0.60676 0.73761 0.12412
 C345 C 0.82977 -0.16721 0.17245
 C346 C 0.82630 -0.14128 0.11097
 H347 H 0.86732 -0.15978 0.20393
 H348 H 0.78663 -0.14413 0.08191
 C349 C 0.82003 0.33316 0.68603
 C350 C 0.81469 0.36744 0.62616
 H351 H 0.85628 0.34257 0.71889
 H352 H 0.77320 0.36937 0.60025
 C353 C 0.30731 -0.14802 0.68663
 C354 C 0.30021 -0.11596 0.62954
 H355 H 0.34522 -0.14046 0.71758
 H356 H 0.26123 -0.11942 0.59945
 C357 C 0.33830 0.32470 0.17675
 C358 C 0.37558 0.31228 0.12579
 H359 H 0.34030 0.36790 0.20400
 H360 H 0.37649 0.26764 0.10117
 C361 C 0.83305 0.17926 -0.17759
 C362 C 0.82946 0.12008 -0.14989
 H363 H 0.86798 0.20792 -0.16107
 H364 H 0.78832 0.09719 -0.15217
 C365 C 0.81927 0.69151 0.33929
 C366 C 0.81218 0.63645 0.36912
 H367 H 0.85914 0.71575 0.34687
 H368 H 0.77067 0.61448 0.36572
 C369 C 0.32000 0.18858 0.33483
 C370 C 0.31571 0.13289 0.36251
 H371 H 0.35880 0.21465 0.34246
 H372 H 0.27498 0.10934 0.35950
 C373 C 0.35289 0.67483 -0.20502
 C374 C 0.37489 0.68911 -0.14465
 H375 H 0.36708 0.63177 -0.22890
 H376 H 0.36284 0.73190 -0.11922
 C377 C 1.19407 -0.19643 -0.13823
 C378 C 1.20076 -0.13560 -0.13534
 H379 H 1.15780 -0.21601 -0.11142
 H380 H 1.23505 -0.11350 -0.16285
 C381 C 1.16891 0.34751 0.29951
 C382 C 1.17873 0.36937 0.36127
 H383 H 1.12776 0.36029 0.27563
 H384 H 1.21937 0.35885 0.38701
 C385 C 0.67003 -0.14917 0.31493
 C386 C 0.67680 -0.13679 0.38027
 H387 H 0.63154 -0.13007 0.28975
 H388 H 0.71445 -0.15450 0.40776
 C389 C 0.69147 0.31913 -0.15145
 C390 C 0.63578 0.31103 -0.12397
 H391 H 0.71679 0.35768 -0.13539
 H392 H 0.61800 0.26542 -0.12343
 C393 C 1.18984 0.18010 -0.13676
 C394 C 1.19230 0.11866 -0.13460
 H395 H 1.15689 0.20435 -0.10625
 H396 H 1.22685 0.09167 -0.15906
 C397 C 1.17051 0.67740 0.34815
 C398 C 1.17705 0.61863 0.36799
 H399 H 1.13009 0.70254 0.36046
 H400 H 1.21792 0.59293 0.36195
 C401 C 0.67421 0.16355 0.35033
 C402 C 0.68170 0.10509 0.37122
 H403 H 0.63523 0.18935 0.36670
 H404 H 0.72176 0.07861 0.36174
 C405 C 0.66198 0.67378 -0.18216
 C406 C 0.62153 0.68854 -0.13089
 H407 H 0.66244 0.62705 -0.20194
 H408 H 0.61423 0.73599 -0.11487
 C409 C 0.80560 -0.16851 -0.15101
 C410 C 0.85207 -0.13484 -0.17362
 H411 H 0.79431 -0.16574 -0.09793
 H412 H 0.86974 -0.14660 -0.22280
 C413 C 0.82471 0.32493 0.31928
 C414 C 0.81620 0.36094 0.37446
 H415 H 0.86423 0.32892 0.28987
 H416 H 0.77494 0.36048 0.40111
 C417 C 0.31830 -0.15857 0.32016
 C418 C 0.31112 -0.12581 0.37702
 H419 H 0.35858 -0.15599 0.29180
 H420 H 0.26951 -0.12438 0.40305
 C421 C 0.34833 0.32377 -0.18932
 C422 C 0.38534 0.31259 -0.13421
 H423 H 0.35696 0.36229 -0.22214
 H424 H 0.38609 0.26820 -0.10930
 C425 C 1.18315 -0.19637 0.14546
 C426 C 1.18986 -0.13692 0.13186
 H427 H 1.14618 -0.21916 0.12395
 H428 H 1.22590 -0.11214 0.15236
 C429 C 1.16858 0.35489 0.70956
 C430 C 1.17732 0.37523 0.64699
 H431 H 1.12695 0.36595 0.73365
 H432 H 1.21841 0.36605 0.62126
 C433 C 0.70214 -0.14698 0.67448
 C434 C 0.64705 -0.11983 0.68386
 H435 H 0.73222 -0.12874 0.63808
 H436 H 0.62461 -0.13197 0.73002
 C437 C 0.67716 0.31768 0.16677
 C438 C 0.62369 0.31014 0.14129
 H439 H 0.70003 0.35941 0.15622
 H440 H 0.60268 0.26651 0.14654
 C441 C 0.82699 0.16780 0.16207
 C442 C 0.81966 0.11549 0.12632
 H443 H 0.86651 0.19292 0.15536
 H444 H 0.77861 0.09252 0.12880
 C445 C 0.82521 0.69569 0.66570
 C446 C 0.81649 0.63980 0.63064
 H447 H 0.86305 0.72213 0.65389
 H448 H 0.77345 0.62096 0.62968
 C449 C 0.31335 0.20197 0.65359
 C450 C 0.30695 0.14827 0.62187
 H451 H 0.35315 0.22671 0.64719
 H452 H 0.26582 0.12542 0.62487
 C453 C 0.34617 0.67564 0.19380
 C454 C 0.36783 0.69094 0.13332
 H455 H 0.36078 0.63214 0.21606
 H456 H 0.35602 0.73432 0.10930
   
