data_POSCAR
  _audit_creation_date              2014-09-24
  _audit_creation_method            'ToBaCCo'
  _symmetry_space_group_name_H-M    'P1'
  _symmetry_Int_Tables_number       1
  _symmetry_cell_setting            triclinic
  loop_
  _symmetry_equiv_pos_as_xyz
 x,y,z
_cell_length_a 42.8234
_cell_length_b 42.6758
_cell_length_c 41.6076
_cell_angle_alpha 89.049200
_cell_angle_beta 88.982800
_cell_angle_gamma 91.260600
loop_
  _atom_site_label
  _atom_site_type_symbol
  _atom_site_fract_x
  _atom_site_fract_y
  _atom_site_fract_z
C1 C 0.73504 0.67287 0.94982
 H2 H 0.75843 0.67713 0.94024
 C3 C 0.70954 0.68600 0.93452
 H4 H 0.71350 0.70060 0.91323
 C5 C 0.70136 0.64733 0.98823
 H6 H 0.69815 0.63129 1.00844
 C7 C 0.67523 0.65988 0.97367
 H8 H 0.65237 0.65306 0.98312
 N9 N 0.73051 0.65380 0.97604
 C10 C 0.82461 0.64659 1.01261
 H11 H 0.82679 0.62147 1.01083
 C12 C 0.84950 0.66475 1.02361
 H13 H 0.87076 0.65338 1.03057
 C14 C 0.79342 0.69156 1.00723
 H15 H 0.77127 0.70168 1.00135
 C16 C 0.81753 0.71055 1.01905
 H17 H 0.81395 0.73537 1.02210
 Zn18 Zn 0.76491 0.63221 0.99250
 N19 N 0.79738 0.66017 1.00446
 C20 C 0.80355 0.62021 0.94087
 N21 N 0.77994 0.60673 0.95888
 C22 C 0.76548 0.57968 0.94955
 C23 C 0.77547 0.56474 0.92148
 C24 C 0.81374 0.60654 0.91263
 C25 C 0.74548 0.63166 1.05437
 C26 C 0.73482 0.62134 1.08447
 C27 C 0.73824 0.56793 1.06652
 C28 C 0.74948 0.57950 1.03658
 N29 N 0.75224 0.61095 1.03100
 H30 H 0.81365 0.64252 0.94751
 H31 H 0.74554 0.57031 0.96311
 H32 H 0.76346 0.54359 0.91395
 H33 H 0.83218 0.61809 0.89840
 H34 H 0.74796 0.65655 1.04935
 H35 H 0.72936 0.63880 1.10225
 H36 H 0.73569 0.54285 1.06973
 H37 H 0.75556 0.56335 1.01789
 C38 C 0.84600 0.69712 1.02715
 C39 C 0.67913 0.67937 0.94622
 C40 C 0.73041 0.58912 1.09108
 C41 C 0.79972 0.57858 0.90256
 C42 C 0.71617 0.32342 0.53872
 H43 H 0.73918 0.32106 0.54868
 C44 C 0.69081 0.30654 0.55231
 H45 H 0.69456 0.29097 0.57264
 C46 C 0.68315 0.34789 0.50124
 H47 H 0.68010 0.36475 0.48196
 C48 C 0.65710 0.33157 0.51418
 H49 H 0.63445 0.33645 0.50448
 N50 N 0.71192 0.34373 0.51376
 C51 C 0.80291 0.36179 0.46747
 H52 H 0.80275 0.38714 0.46683
 C53 C 0.82810 0.34611 0.45406
 H54 H 0.84682 0.35980 0.44257
 C55 C 0.77758 0.31358 0.48200
 H56 H 0.75770 0.30101 0.49263
 C57 C 0.80234 0.29691 0.46883
 H58 H 0.80136 0.27152 0.46955
 Zn59 Zn 0.74620 0.36944 0.49975
 N60 N 0.77856 0.34547 0.48154
 C61 C 0.79140 0.38754 0.54490
 N62 N 0.76115 0.39071 0.53625
 C63 C 0.74083 0.40712 0.55461
 C64 C 0.75096 0.42182 0.58249
 C65 C 0.80249 0.40185 0.57245
 C66 C 0.72712 0.38595 0.43837
 C67 C 0.71686 0.40522 0.41348
 C68 C 0.71919 0.44914 0.44934
 C69 C 0.72990 0.42908 0.47345
 N70 N 0.73320 0.39803 0.46769
 H71 H 0.80694 0.37340 0.53087
 H72 H 0.71665 0.40853 0.54772
 H73 H 0.73454 0.43480 0.59688
 H74 H 0.82644 0.39815 0.57914
 H75 H 0.72991 0.36115 0.43450
 H76 H 0.71134 0.39489 0.39063
 H77 H 0.71602 0.47370 0.45438
 H78 H 0.73513 0.43832 0.49679
 C79 C 0.82829 0.31315 0.45515
 C80 C 0.66072 0.31068 0.54031
 C81 C 0.71271 0.43728 0.41890
 C82 C 0.78225 0.41964 0.59146
 C83 C 0.23435 -0.17275 0.02350
 H84 H 0.25706 -0.17350 0.03446
 C85 C 0.20841 -0.18691 0.03907
 H86 H 0.21131 -0.19872 0.06203
 C87 C 0.20283 -0.15561 -0.01930
 H88 H 0.20062 -0.14310 -0.04187
 C89 C 0.17634 -0.16955 -0.00468
 H90 H 0.15435 -0.16820 -0.01693
 N91 N 0.23109 -0.15733 -0.00505
 C92 C 0.32063 -0.15094 -0.05544
 H93 H 0.32082 -0.12608 -0.06104
 C94 C 0.34526 -0.16918 -0.06581
 H95 H 0.36393 -0.15818 -0.08010
 C96 C 0.29518 -0.19528 -0.03086
 H97 H 0.27554 -0.20527 -0.01729
 C98 C 0.31941 -0.21452 -0.04089
 H99 H 0.31831 -0.23933 -0.03496
 Zn100 Zn 0.26614 -0.13578 -0.02357
 N101 N 0.29660 -0.16401 -0.03776
 C102 C 0.31349 -0.11590 0.01746
 N103 N 0.28380 -0.11007 0.00843
 C104 C 0.26619 -0.08887 0.02425
 C105 C 0.27838 -0.07276 0.05049
 C106 C 0.32651 -0.10044 0.04331
 C107 C 0.24785 -0.13081 -0.08622
 C108 C 0.23749 -0.11731 -0.11461
 C109 C 0.23956 -0.06665 -0.08948
 C110 C 0.25030 -0.08129 -0.06148
 N111 N 0.25369 -0.11289 -0.06029
 H112 H 0.32697 -0.13338 0.00543
 H113 H 0.24238 -0.08514 0.01709
 H114 H 0.26370 -0.05633 0.06272
 H115 H 0.35006 -0.10596 0.05025
 H116 H 0.25084 -0.15589 -0.08462
 H117 H 0.23268 -0.13252 -0.13464
 H118 H 0.23640 -0.04163 -0.08904
 H119 H 0.25534 -0.06747 -0.04059
 C120 C 0.34519 -0.20131 -0.05789
 C121 C 0.17882 -0.18491 0.02531
 C122 C 0.23265 -0.08483 -0.11670
 C123 C 0.30892 -0.07891 0.06059
 C124 C 0.21882 0.18272 0.44046
 H125 H 0.24194 0.18640 0.42997
 C126 C 0.19354 0.19880 0.42800
 H127 H 0.19740 0.21506 0.40798
 C128 C 0.18541 0.15565 0.47802
 H129 H 0.18209 0.13800 0.49674
 C130 C 0.15951 0.17118 0.46634
 H131 H 0.13672 0.16491 0.47636
 N132 N 0.21429 0.16141 0.46482
 C133 C 0.30548 0.14252 0.50394
 H134 H 0.30445 0.11734 0.50130
 C135 C 0.33163 0.15675 0.51722
 H136 H 0.35085 0.14213 0.52392
 C137 C 0.28177 0.19173 0.49658
 H138 H 0.26214 0.20511 0.48857
 C139 C 0.30752 0.20702 0.51015
 H140 H 0.30762 0.23225 0.51250
 Zn141 Zn 0.24790 0.13618 0.47710
 N142 N 0.28132 0.16001 0.49381
 C143 C 0.29065 0.12499 0.42725
 N144 N 0.26244 0.11536 0.43984
 C145 C 0.24427 0.09395 0.42446
 C146 C 0.25488 0.08062 0.39579
 C147 C 0.30188 0.11269 0.39864
 C148 C 0.22928 0.12316 0.53931
 C149 C 0.21865 0.10617 0.56633
 C150 C 0.21871 0.05920 0.53470
 C151 C 0.22992 0.07711 0.50825
 N152 N 0.23444 0.10861 0.51094
 H153 H 0.30423 0.14303 0.43878
 H154 H 0.22132 0.08766 0.43408
 H155 H 0.23998 0.06396 0.38367
 H156 H 0.32429 0.12094 0.38896
 H157 H 0.23300 0.14825 0.54074
 H158 H 0.21383 0.11852 0.58832
 H159 H 0.21446 0.03426 0.53219
 H160 H 0.23454 0.06588 0.48565
 C161 C 0.33267 0.18941 0.52113
 C162 C 0.16335 0.19290 0.44071
 C163 C 0.21311 0.07375 0.56420
 C164 C 0.28413 0.09011 0.38264
 C165 C 0.15684 0.47005 0.23528
 H166 H 0.15620 0.46214 0.26013
 C167 C 0.17325 0.45314 0.21232
 H168 H 0.18559 0.43245 0.21984
 C169 C 0.13974 0.50534 0.19510
 H170 H 0.12568 0.52498 0.18826
 C171 C 0.15569 0.48903 0.17131
 H172 H 0.15350 0.49680 0.14664
 N173 N 0.14035 0.49550 0.22633
 C174 C 0.11856 0.54905 0.31180
 H175 H 0.09407 0.55245 0.30721
 C176 C 0.13229 0.56304 0.33822
 H177 H 0.11826 0.57733 0.35389
 C178 C 0.16660 0.52648 0.29665
 H179 H 0.17994 0.51258 0.28011
 C180 C 0.18125 0.53979 0.32314
 H181 H 0.20593 0.53621 0.32646
 Zn182 Zn 0.11350 0.51336 0.25729
 N183 N 0.13567 0.53100 0.29179
 C184 C 0.08619 0.47347 0.30504
 N185 N 0.08685 0.48055 0.27307
 C186 C 0.07202 0.46191 0.25166
 C187 C 0.05672 0.43417 0.26207
 C188 C 0.07109 0.44617 0.31647
 C189 C 0.10766 0.57197 0.22900
 C190 C 0.09291 0.59775 0.21566
 C191 C 0.04349 0.56963 0.22182
 C192 C 0.05926 0.54431 0.23514
 N193 N 0.09080 0.54595 0.23830
 H194 H 0.09860 0.48815 0.32164
 H195 H 0.07348 0.46779 0.22628
 H196 H 0.04653 0.41903 0.24433
 H197 H 0.07180 0.44041 0.34190
 H198 H 0.13272 0.57257 0.23189
 H199 H 0.10710 0.61775 0.20763
 H200 H 0.01838 0.56804 0.21926
 H201 H 0.04631 0.52347 0.24302
 C202 C 0.16386 0.55816 0.34443
 C203 C 0.17249 0.46222 0.17976
 C204 C 0.06029 0.59692 0.21225
 C205 C 0.05674 0.42572 0.29491
 C206 C -0.17726 0.02889 0.22593
 H207 H -0.18140 0.03952 0.24900
 C208 C -0.19179 0.04064 0.19850
 H209 H -0.20691 0.06034 0.20137
 C210 C -0.15064 -0.00836 0.19479
 H211 H -0.13397 -0.02688 0.19307
 C212 C -0.16448 0.00261 0.16687
 H213 H -0.15844 -0.00812 0.14422
 N214 N -0.15709 0.00484 0.22360
 C215 C -0.14452 -0.03900 0.31771
 H216 H -0.11934 -0.04037 0.31614
 C217 C -0.16056 -0.05185 0.34434
 H218 H -0.14736 -0.06370 0.36262
 C219 C -0.19187 -0.02315 0.29444
 H220 H -0.20389 -0.01217 0.27477
 C221 C -0.20895 -0.03568 0.32085
 H222 H -0.23417 -0.03417 0.32138
 Zn223 Zn -0.13421 -0.00830 0.25983
 N224 N -0.16017 -0.02467 0.29366
 C225 C -0.11763 0.03641 0.30534
 N226 N -0.11125 0.02680 0.27498
 C227 C -0.09090 0.04330 0.25532
 C228 C -0.07588 0.07055 0.26620
 C229 C -0.10324 0.06329 0.31711
 C230 C -0.12451 -0.06874 0.24244
 C231 C -0.10927 -0.09478 0.23090
 C232 C -0.06072 -0.06479 0.23037
 C233 C -0.07701 -0.03918 0.24229
 N234 N -0.10846 -0.04150 0.24734
 H235 H -0.13446 0.02371 0.32042
 H236 H -0.08666 0.03553 0.23105
 H237 H -0.05963 0.08303 0.25018
 H238 H -0.10891 0.07049 0.34134
 H239 H -0.14950 -0.06992 0.24670
 H240 H -0.12279 -0.11597 0.22645
 H241 H -0.03586 -0.06217 0.22591
 H242 H -0.06467 -0.01735 0.24669
 C243 C -0.19324 -0.04977 0.34650
 C244 C -0.18523 0.02759 0.16818
 C245 C -0.07714 -0.09294 0.22401
 C246 C -0.08230 0.08098 0.29752
 C247 C 0.31771 0.52445 0.73146
 H248 H 0.31660 0.53377 0.75547
 C249 C 0.30207 0.53932 0.70648
 H250 H 0.28872 0.55999 0.71152
 C251 C 0.33764 0.48707 0.69549
 H252 H 0.35208 0.46714 0.69103
 C253 C 0.32224 0.50106 0.66987
 H254 H 0.32438 0.49072 0.64643
 N255 N 0.33532 0.49900 0.72554
 C256 C 0.35130 0.45023 0.81664
 H257 H 0.37640 0.44848 0.81433
 C258 C 0.33566 0.43698 0.84338
 H259 H 0.34906 0.42451 0.86107
 C260 C 0.30365 0.46752 0.79518
 H261 H 0.29132 0.47929 0.77620
 C262 C 0.28700 0.45456 0.82165
 H263 H 0.26184 0.45654 0.82291
 Zn264 Zn 0.35998 0.48298 0.75918
 N265 N 0.33530 0.46553 0.79348
 C266 C 0.38202 0.52517 0.80564
 N267 N 0.38471 0.51677 0.77437
 C268 C 0.40377 0.53316 0.75334
 C269 C 0.42165 0.55876 0.76371
 C270 C 0.39931 0.55058 0.81698
 C271 C 0.37060 0.42399 0.73423
 C272 C 0.38762 0.39922 0.72205
 C273 C 0.43512 0.42926 0.73072
 C274 C 0.41714 0.45352 0.74269
 N275 N 0.38544 0.45065 0.74374
 H276 H 0.36618 0.51246 0.82186
 H277 H 0.40507 0.52629 0.72845
 H278 H 0.43679 0.57098 0.74642
 H279 H 0.39676 0.55683 0.84200
 H280 H 0.34536 0.42228 0.73558
 H281 H 0.37497 0.37893 0.71344
 H282 H 0.46032 0.43205 0.72961
 H283 H 0.42857 0.47460 0.75099
 C284 C 0.30307 0.43958 0.84647
 C285 C 0.30479 0.52813 0.67503
 C286 C 0.42043 0.40166 0.72023
 C287 C 0.41944 0.56784 0.79605
 C288 C 0.66362 0.96086 0.74192
 H289 H 0.66140 0.95028 0.76568
 C290 C 0.68065 0.94588 0.71796
 H291 H 0.69204 0.92414 0.72375
 C292 C 0.64901 1.00032 0.70479
 H293 H 0.63560 1.02078 0.69931
 C294 C 0.66566 0.98609 0.68011
 H295 H 0.66459 0.99627 0.65623
 N296 N 0.64778 0.98728 0.73485
 C297 C 0.61973 1.04114 0.81702
 H298 H 0.59733 1.04779 0.80781
 C299 C 0.63109 1.05552 0.84433
 H300 H 0.61732 1.07348 0.85555
 C301 C 0.66429 1.00940 0.81364
 H302 H 0.67720 0.99155 0.80141
 C303 C 0.67629 1.02271 0.84153
 H304 H 0.69871 1.01508 0.84983
 Zn305 Zn 0.61792 1.00134 0.76510
 N306 N 0.63650 1.01888 0.80195
 C307 C 0.59045 0.95838 0.80959
 N308 N 0.59331 0.96592 0.77780
 C309 C 0.58273 0.94614 0.75490
 C310 C 0.56981 0.91678 0.76364
 C311 C 0.57772 0.92937 0.81937
 C312 C 0.60810 1.06115 0.74098
 C313 C 0.59230 1.08579 0.72676
 C314 C 0.54737 1.05115 0.72112
 C315 C 0.56389 1.02723 0.73610
 N316 N 0.59377 1.03262 0.74546
 H317 H 0.59934 0.97426 0.82738
 H318 H 0.58594 0.95248 0.72975
 H319 H 0.56317 0.90083 0.74490
 H320 H 0.57672 0.92330 0.84476
 H321 H 0.63199 1.06466 0.74841
 H322 H 0.60436 1.10814 0.72293
 H323 H 0.52376 1.04657 0.71326
 H324 H 0.55300 1.00435 0.73987
 C325 C 0.65959 1.04632 0.85723
 C326 C 0.68126 0.95801 0.68638
 C327 C 0.56151 1.08090 0.71668
 C328 C 0.56786 0.90786 0.79633
 C329 C 0.04593 0.21268 -0.16107
 H330 H 0.05667 0.23584 -0.16035
 C331 C 0.06025 0.18910 -0.17856
 H332 H 0.08202 0.19438 -0.19138
 C333 C 0.00479 0.17764 -0.14485
 H334 H -0.01666 0.17307 -0.13139
 C335 C 0.01823 0.15341 -0.16212
 H336 H 0.00618 0.13091 -0.16217
 N337 N 0.01857 0.20669 -0.14484
 C338 C -0.02915 0.29506 -0.13361
 H339 H -0.03511 0.29263 -0.10830
 C340 C -0.03898 0.32109 -0.15101
 H341 H -0.05308 0.33817 -0.13890
 C342 C -0.00466 0.27468 -0.18005
 H343 H 0.00847 0.25639 -0.19130
 C344 C -0.01422 0.30036 -0.19849
 H345 H -0.00829 0.30170 -0.22390
 Zn346 Zn 0.00054 0.23943 -0.12080
 N347 N -0.01179 0.27283 -0.14807
 C348 C 0.03868 0.28592 -0.09329
 N349 N 0.03085 0.25486 -0.09176
 C350 C 0.04608 0.23492 -0.07185
 C351 C 0.07044 0.24612 -0.05272
 C352 C 0.06227 0.29810 -0.07428
 C353 C -0.06011 0.21731 -0.11982
 C354 C -0.08940 0.20799 -0.10775
 C355 C -0.07030 0.21440 -0.05388
 C356 C -0.04108 0.22358 -0.06720
 N357 N -0.03662 0.22472 -0.09965
 H358 H 0.02715 0.30144 -0.10971
 H359 H 0.03973 0.21023 -0.07132
 H360 H 0.08232 0.22999 -0.03703
 H361 H 0.06811 0.32291 -0.07601
 H362 H -0.05604 0.21891 -0.14554
 H363 H -0.10750 0.20221 -0.12472
 H364 H -0.07271 0.21347 -0.02801
 H365 H -0.02212 0.23004 -0.05164
 C366 C -0.03106 0.32426 -0.18383
 C367 C 0.04656 0.15891 -0.17914
 C368 C -0.09524 0.20652 -0.07434
 C369 C 0.07884 0.27817 -0.05408
 C370 C 0.46660 0.23348 0.18327
 H371 H 0.45442 0.25537 0.18478
 C372 C 0.45455 0.20674 0.19941
 H373 H 0.43316 0.20819 0.21355
 C374 C 0.50825 0.20444 0.16145
 H375 H 0.52876 0.20340 0.14605
 C376 C 0.49680 0.17712 0.17681
 H377 H 0.50909 0.15545 0.17360
 N378 N 0.49278 0.23177 0.16443
 C379 C 0.52711 0.32742 0.14531
 H380 H 0.52946 0.32621 0.11942
 C381 C 0.53706 0.35434 0.16103
 H382 H 0.54754 0.37334 0.14679
 C383 C 0.51261 0.30267 0.19490
 H384 H 0.50371 0.28222 0.20801
 C385 C 0.52227 0.32922 0.21166
 H386 H 0.52055 0.32903 0.23767
 Zn387 Zn 0.50481 0.26662 0.13791
 N388 N 0.51508 0.30234 0.16228
 C389 C 0.45646 0.30344 0.11344
 N390 N 0.47036 0.27518 0.11130
 C391 C 0.45785 0.25188 0.09327
 C392 C 0.42993 0.25642 0.07697
 C393 C 0.42859 0.30889 0.09771
 C394 C 0.56803 0.25639 0.13114
 C395 C 0.59621 0.24845 0.11646
 C396 C 0.56905 0.24190 0.06653
 C397 C 0.54136 0.25054 0.08209
 N398 N 0.54128 0.25691 0.11402
 H399 H 0.46631 0.32152 0.12825
 H400 H 0.46898 0.22939 0.09247
 H401 H 0.41983 0.23747 0.06331
 H402 H 0.41800 0.33158 0.09986
 H403 H 0.56732 0.26176 0.15646
 H404 H 0.61717 0.24760 0.13063
 H405 H 0.56870 0.23650 0.04121
 H406 H 0.51996 0.25161 0.06879
 C407 C 0.53459 0.35556 0.19474
 C408 C 0.46911 0.17794 0.19535
 C409 C 0.59682 0.24032 0.08401
 C410 C 0.41449 0.28489 0.07993
 C411 C 0.96389 0.71900 0.67011
 H412 H 0.95203 0.74109 0.67129
 C413 C 0.95171 0.69274 0.68694
 H414 H 0.93057 0.69494 0.70135
 C415 C 1.00461 0.68885 0.64822
 H416 H 1.02459 0.68705 0.63221
 C417 C 0.99320 0.66202 0.66452
 H418 H 1.00485 0.64020 0.66050
 N419 N 0.98970 0.71653 0.65093
 C420 C 1.02803 0.81006 0.62820
 H421 H 1.02985 0.80766 0.60239
 C422 C 1.03869 0.83752 0.64241
 H423 H 1.04820 0.85627 0.62712
 C424 C 1.01224 0.78858 0.67896
 H425 H 1.00202 0.76935 0.69305
 C426 C 1.02261 0.81580 0.69424
 H427 H 1.02033 0.81736 0.72013
 Zn428 Zn 1.00177 0.75064 0.62340
 N429 N 1.01502 0.78633 0.64645
 C430 C 0.95494 0.79015 0.60071
 N431 N 0.96648 0.76081 0.59861
 C432 C 0.95139 0.73817 0.58173
 C433 C 0.92326 0.74464 0.56652
 C434 C 0.92700 0.79753 0.58605
 C435 C 1.06371 0.73669 0.61299
 C436 C 1.09009 0.72570 0.59710
 C437 C 1.05936 0.71933 0.54939
 C438 C 1.03355 0.73084 0.56615
 N439 N 1.03608 0.73864 0.59757
 H440 H 0.96678 0.80775 0.61458
 H441 H 0.96068 0.71483 0.58093
 H442 H 0.91111 0.72629 0.55373
 H443 H 0.91836 0.82108 0.58811
 H444 H 1.06495 0.74282 0.63807
 H445 H 1.11138 0.72311 0.61040
 H446 H 1.05688 0.71223 0.52467
 H447 H 1.01141 0.73266 0.55432
 C448 C 1.03641 0.84052 0.67595
 C449 C 0.96606 0.66363 0.68391
 C450 C 1.08802 0.71655 0.56492
 C451 C 0.91034 0.77438 0.56943
 C452 C 0.53723 0.72992 0.32845
 H453 H 0.54944 0.75228 0.32554
 C454 C 0.54917 0.70324 0.31392
 H455 H 0.57022 0.70558 0.29924
 C456 C 0.49497 0.69992 0.35124
 H457 H 0.47429 0.69838 0.36644
 C458 C 0.50591 0.67281 0.33702
 H459 H 0.49326 0.65081 0.34116
 N460 N 0.51071 0.72776 0.34690
 C461 C 0.47346 0.82175 0.35702
 H462 H 0.47209 0.82201 0.38301
 C463 C 0.46311 0.84732 0.33922
 H464 H 0.45333 0.86655 0.35230
 C465 C 0.48626 0.79474 0.30950
 H466 H 0.49498 0.77400 0.29812
 C467 C 0.47562 0.81966 0.29062
 H468 H 0.47651 0.81785 0.26468
 Zn469 Zn 0.49724 0.76325 0.36985
 N470 N 0.48519 0.79637 0.34209
 C471 C 0.54318 0.80637 0.38988
 N472 N 0.53069 0.77723 0.39577
 C473 C 0.54295 0.75787 0.41839
 C474 C 0.56831 0.76801 0.43668
 C475 C 0.56829 0.81741 0.40754
 C476 C 0.43521 0.74696 0.37652
 C477 C 0.40720 0.73684 0.39102
 C478 C 0.43228 0.73777 0.44257
 C479 C 0.45997 0.74820 0.42697
 N480 N 0.46103 0.75185 0.39441
 H481 H 0.53408 0.82109 0.37109
 H482 H 0.53308 0.73453 0.42217
 H483 H 0.57721 0.75244 0.45494
 H484 H 0.57772 0.84077 0.40245
 H485 H 0.43666 0.75028 0.35070
 H486 H 0.38715 0.73242 0.37610
 H487 H 0.43212 0.73468 0.46840
 H488 H 0.48061 0.75283 0.44083
 C489 C 0.46421 0.84671 0.30536
 C490 C 0.53366 0.67404 0.31867
 C491 C 0.40553 0.73144 0.42432
 C492 C 0.58130 0.79826 0.43122
 C493 C 0.41306 -0.02155 0.27754
 H494 H 0.41134 0.00124 0.28820
 C495 C 0.42949 -0.04497 0.29331
 H496 H 0.44060 -0.03955 0.31581
 C497 C 0.39917 -0.05662 0.23648
 H498 H 0.38639 -0.06161 0.21500
 C499 C 0.41568 -0.08066 0.25122
 H500 H 0.41496 -0.10348 0.24036
 N501 N 0.39830 -0.02761 0.24959
 C502 C 0.40354 0.04919 0.18767
 H503 H 0.39218 0.03615 0.16912
 C504 C 0.42165 0.07558 0.17886
 H505 H 0.42441 0.08200 0.15364
 C506 C 0.41294 0.05791 0.24273
 H507 H 0.40901 0.05131 0.26766
 C508 C 0.43070 0.08502 0.23497
 H509 H 0.44098 0.09856 0.25401
 Zn510 Zn 0.37402 0.00465 0.23072
 N511 N 0.39982 0.04045 0.21916
 C512 C 0.33460 0.04736 0.26090
 N513 N 0.34393 0.01712 0.26146
 C514 C 0.33387 -0.00339 0.28499
 C515 C 0.31483 0.00676 0.31022
 C516 C 0.31579 0.05852 0.28573
 C517 C 0.37183 -0.02111 0.16908
 C518 C 0.35828 -0.03192 0.14106
 C519 C 0.30744 -0.02196 0.16426
 C520 C 0.32207 -0.01089 0.19179
 N521 N 0.35375 -0.01073 0.19371
 H522 H 0.34261 0.06308 0.24169
 H523 H 0.34147 -0.02739 0.28475
 H524 H 0.30788 -0.00951 0.32943
 H525 H 0.30909 0.08283 0.28516
 H526 H 0.39700 -0.02058 0.17110
 H527 H 0.37361 -0.03881 0.12166
 H528 H 0.28218 -0.02215 0.16317
 H529 H 0.30810 -0.00243 0.21160
 C530 C 0.43517 0.09403 0.20258
 C531 C 0.43113 -0.07509 0.28026
 C532 C 0.32553 -0.03300 0.13854
 C533 C 0.30656 0.03832 0.31138
 C534 C 0.09079 1.02573 0.78384
 H535 H 0.09226 1.00241 0.79422
 C536 C 0.07355 1.04849 0.79963
 H537 H 0.06147 1.04238 0.82203
 C538 C 0.10584 1.06238 0.74276
 H539 H 0.11885 1.06788 0.72083
 C540 C 0.08887 1.08581 0.75770
 H541 H 0.08840 1.10874 0.74632
 N542 N 0.10677 1.03310 0.75610
 C543 C 0.12974 0.94969 0.70245
 H544 H 0.15401 0.95588 0.69756
 C545 C 0.11666 0.92295 0.68893
 H546 H 0.13097 0.90874 0.67344
 C547 C 0.08169 0.96093 0.72848
 H548 H 0.06817 0.97602 0.74370
 C549 C 0.06768 0.93400 0.71568
 H550 H 0.04324 0.92887 0.72086
 Zn551 Zn 0.13404 1.00327 0.73838
 N552 N 0.11230 0.96803 0.72185
 C553 C 0.16164 0.95826 0.77813
 N554 N 0.16061 0.98948 0.77148
 C555 C 0.17636 1.01059 0.78960
 C556 C 0.19431 1.00041 0.81540
 C557 C 0.17928 0.94706 0.80347
 C558 C 0.14180 1.02535 0.67549
 C559 C 0.15721 1.03784 0.64822
 C560 C 0.20412 1.04336 0.67924
 C561 C 0.18794 1.03016 0.70583
 N562 N 0.15725 1.02174 0.70354
 H563 H 0.14816 0.94183 0.76430
 H564 H 0.17456 1.03539 0.78433
 H565 H 0.20651 1.01768 0.82963
 H566 H 0.17808 0.92214 0.80827
 H567 H 0.11739 1.01846 0.67437
 H568 H 0.14427 1.04105 0.62634
 H569 H 0.22841 1.05050 0.68145
 H570 H 0.19987 1.02688 0.72825
 C571 C 0.08541 0.91459 0.69570
 C572 C 0.07304 1.07919 0.78703
 C573 C 0.18881 1.04699 0.64994
 C574 C 0.19627 0.96818 0.82262
 C575 C 0.58326 0.55792 0.26434
 H576 H 0.56893 0.53995 0.25356
 C577 C 0.56968 0.58577 0.27425
 H578 H 0.54505 0.58879 0.27033
 C579 C 0.63291 0.57591 0.28135
 H580 H 0.65762 0.57192 0.28380
 C581 C 0.62034 0.60401 0.29160
 H582 H 0.63554 0.62151 0.30216
 N583 N 0.61443 0.55370 0.26768
 C584 C 0.58774 0.49134 0.21396
 H585 H 0.58910 0.51402 0.20192
 C586 C 0.56918 0.46728 0.20147
 H587 H 0.55606 0.47175 0.17992
 C588 C 0.60478 0.45747 0.25543
 H589 H 0.61946 0.45336 0.27583
 C590 C 0.58669 0.43273 0.24370
 H591 H 0.58813 0.41011 0.25552
 Zn592 Zn 0.63444 0.51724 0.25288
 N593 N 0.60526 0.48599 0.24033
 C594 C 0.68818 0.49135 0.28205
 N595 N 0.65849 0.50118 0.28688
 C596 C 0.64405 0.49822 0.31618
 C597 C 0.65912 0.48399 0.34185
 C598 C 0.70398 0.47659 0.30698
 C599 C 0.66140 0.55791 0.20566
 C600 C 0.67822 0.56624 0.17775
 C601 C 0.69109 0.51189 0.17126
 C602 C 0.67389 0.50463 0.19944
 N603 N 0.65977 0.52764 0.21620
 H604 H 0.69935 0.49406 0.25868
 H605 H 0.62035 0.50606 0.31927
 H606 H 0.64661 0.48072 0.36453
 H607 H 0.72723 0.46793 0.30255
 H608 H 0.64899 0.57574 0.21840
 H609 H 0.67750 0.59047 0.17011
 H610 H 0.70211 0.49314 0.15833
 H611 H 0.67146 0.48053 0.20775
 C612 C 0.56878 0.43736 0.21605
 C613 C 0.58836 0.60931 0.28819
 C614 C 0.69382 0.54314 0.16004
 C615 C 0.68939 0.47261 0.33725
 C616 C 0.92812 0.46150 0.78942
 H617 H 0.92956 0.48458 0.79974
 C618 C 0.94319 0.43647 0.80407
 H619 H 0.95642 0.44051 0.82561
 C620 C 0.90764 0.42786 0.74987
 H621 H 0.89284 0.42429 0.72946
 C622 C 0.92235 0.40220 0.76370
 H623 H 0.91839 0.37933 0.75355
 N624 N 0.91064 0.45678 0.76291
 C625 C 0.89689 0.54849 0.71838
 H626 H 0.87185 0.54639 0.71570
 C627 C 0.91275 0.57574 0.70797
 H628 H 0.89965 0.59407 0.69652
 C629 C 0.94409 0.52616 0.73554
 H630 H 0.95613 0.50671 0.74622
 C631 C 0.96097 0.55311 0.72533
 H632 H 0.98606 0.55420 0.72817
 Zn633 Zn 0.88693 0.49038 0.74698
 N634 N 0.91254 0.52463 0.73233
 C635 C 0.86857 0.53256 0.79362
 N636 N 0.86113 0.50412 0.78131
 C637 C 0.83843 0.48537 0.79530
 C638 C 0.82161 0.49560 0.82227
 C639 C 0.85271 0.54348 0.82045
 C640 C 0.88200 0.47050 0.68490
 C641 C 0.86832 0.46017 0.65680
 C642 C 0.81757 0.46433 0.68249
 C643 C 0.83234 0.47477 0.71026
 N644 N 0.86405 0.47711 0.71105
 H645 H 0.88774 0.54649 0.78349
 H646 H 0.83372 0.46231 0.78588
 H647 H 0.80366 0.48048 0.83326
 H648 H 0.86046 0.56557 0.83024
 H649 H 0.90715 0.47300 0.68608
 H650 H 0.88319 0.45463 0.63643
 H651 H 0.79237 0.46263 0.68259
 H652 H 0.81848 0.48090 0.73107
 C653 C 0.94520 0.57858 0.71195
 C654 C 0.94026 0.40631 0.79137
 C655 C 0.83577 0.45654 0.65533
 C656 C 0.82845 0.52521 0.83496
 C657 C 0.28241 0.39545 -0.01080
 H658 H 0.29344 0.39733 0.01230
 C659 C 0.29600 0.41038 -0.03784
 H660 H 0.31754 0.42384 -0.03531
 C661 C 0.24140 0.37484 -0.04217
 H662 H 0.22029 0.36065 -0.04375
 C663 C 0.25425 0.38936 -0.06991
 H664 H 0.24287 0.38559 -0.09254
 N665 N 0.25567 0.37802 -0.01342
 C666 C 0.21064 0.37376 0.08149
 H667 H 0.20815 0.34865 0.08503
 C668 C 0.19946 0.39380 0.10497
 H669 H 0.18784 0.38368 0.12609
 C670 C 0.22744 0.41697 0.04863
 H671 H 0.23812 0.42593 0.02653
 C672 C 0.21653 0.43792 0.07153
 H673 H 0.21896 0.46290 0.06685
 Zn674 Zn 0.24016 0.35639 0.02383
 N675 N 0.22471 0.38551 0.05415
 C676 C 0.28164 0.33988 0.07320
 N677 N 0.27440 0.33486 0.04198
 C678 C 0.29386 0.31860 0.02247
 C679 C 0.32222 0.30751 0.03398
 C680 C 0.30943 0.32906 0.08569
 C681 C 0.17720 0.33752 0.01928
 C682 C 0.15160 0.32023 0.00848
 C683 C 0.18709 0.28446 -0.01655
 C684 C 0.21218 0.30242 -0.00504
 N685 N 0.20684 0.32869 0.01219
 H686 H 0.26672 0.35353 0.08833
 H687 H 0.28826 0.31579 -0.00257
 H688 H 0.33778 0.29595 0.01750
 H689 H 0.31497 0.33419 0.11039
 H690 H 0.17319 0.35874 0.03233
 H691 H 0.12836 0.32793 0.01457
 H692 H 0.19168 0.26419 -0.03108
 H693 H 0.23585 0.29594 -0.01076
 C694 C 0.20280 0.42642 0.10036
 C695 C 0.28204 0.40742 -0.06793
 C696 C 0.15634 0.29387 -0.01063
 C697 C 0.33052 0.31326 0.06597
 C698 C 0.77871 0.08860 1.04999
 H699 H 0.79181 0.08631 1.02770
 C700 C 0.78809 0.07264 1.07768
 H701 H 0.80860 0.05849 1.07574
 C702 C 0.73760 0.11205 1.07899
 H703 H 0.71827 0.12787 1.07963
 C704 C 0.74626 0.09681 1.10727
 H705 H 0.73312 0.10098 1.12923
 N706 N 0.75375 0.10767 1.05105
 C707 C 0.71330 0.11931 0.95698
 H708 H 0.70954 0.14424 0.95833
 C709 C 0.70150 0.10260 0.93127
 H710 H 0.68942 0.11552 0.91291
 C711 C 0.73541 0.07349 0.97892
 H712 H 0.74846 0.06224 0.99765
 C713 C 0.72462 0.05589 0.95309
 H714 H 0.72954 0.03111 0.95232
 Zn715 Zn 0.74319 0.13099 1.01383
 N716 N 0.72957 0.10465 0.98033
 C717 C 0.78919 0.15017 0.96841
 N718 N 0.77920 0.15423 0.99921
 C719 C 0.79626 0.17176 1.01983
 C720 C 0.82471 0.18584 1.00964
 C721 C 0.81722 0.16385 0.95719
 C722 C 0.68102 0.14143 1.02665
 C723 C 0.65398 0.15762 1.03384
 C724 C 0.68512 0.20541 1.03635
 C725 C 0.71166 0.18831 1.02839
 N726 N 0.70912 0.15682 1.02407
 H727 H 0.77593 0.13544 0.95256
 H728 H 0.78821 0.17409 1.04445
 H729 H 0.83810 0.19935 1.02663
 H730 H 0.82443 0.15851 0.93296
 H731 H 0.67967 0.11639 1.02310
 H732 H 0.63184 0.14489 1.03589
 H733 H 0.68741 0.23043 1.03984
 H734 H 0.73421 0.20008 1.02594
 C735 C 0.70673 0.07020 0.92916
 C736 C 0.77174 0.07662 1.10707
 C737 C 0.65585 0.18985 1.03929
 C738 C 0.83569 0.18213 0.97785
 C739 C 0.29084 0.58315 0.53631
 H740 H 0.30365 0.58471 0.51367
 C741 C 0.30144 0.56401 0.56121
 H742 H 0.32242 0.55073 0.55744
 C743 C 0.24852 0.59939 0.56896
 H744 H 0.22810 0.61351 0.57205
 C745 C 0.25817 0.58042 0.59443
 H746 H 0.24431 0.57986 0.61638
 N747 N 0.26493 0.60051 0.54065
 C748 C 0.22525 0.62467 0.44816
 H749 H 0.22390 0.64974 0.45115
 C750 C 0.21333 0.61092 0.42068
 H751 H 0.20333 0.62581 0.40245
 C752 C 0.24100 0.57527 0.46818
 H753 H 0.25168 0.56151 0.48686
 C754 C 0.22945 0.56051 0.44091
 H755 H 0.23131 0.53536 0.43875
 Zn756 Zn 0.25365 0.62858 0.50734
 N757 N 0.23881 0.60685 0.47117
 C758 C 0.29928 0.65333 0.46391
 N759 N 0.28953 0.65313 0.49519
 C760 C 0.30603 0.66873 0.51783
 C761 C 0.33316 0.68597 0.50910
 C762 C 0.32601 0.67031 0.45416
 C763 C 0.19203 0.64002 0.52446
 C764 C 0.16635 0.65699 0.53468
 C765 C 0.20024 0.70267 0.53917
 C766 C 0.22527 0.68489 0.52840
 N767 N 0.22079 0.65404 0.52170
 H768 H 0.28669 0.63991 0.44641
 H769 H 0.29825 0.66754 0.54271
 H770 H 0.34616 0.69823 0.52731
 H771 H 0.33358 0.66935 0.42925
 H772 H 0.18916 0.61545 0.51893
 H773 H 0.14390 0.64504 0.53756
 H774 H 0.20418 0.72705 0.54505
 H775 H 0.24822 0.69570 0.52574
 C776 C 0.21504 0.57833 0.41696
 C777 C 0.28541 0.56282 0.59096
 C778 C 0.17033 0.68878 0.54220
 C779 C 0.34313 0.68729 0.47681
 C780 C 0.78559 0.90269 0.48811
 H781 H 0.79692 0.90321 0.51114
 C782 C 0.79915 0.91864 0.46165
 H783 H 0.82097 0.93153 0.46456
 C784 C 0.74396 0.88435 0.45621
 H785 H 0.72272 0.87047 0.45404
 C786 C 0.75678 0.89983 0.42906
 H787 H 0.74510 0.89719 0.40643
 N788 N 0.75844 0.88604 0.48499
 C789 C 0.71298 0.87733 0.57927
 H790 H 0.70794 0.85237 0.57989
 C791 C 0.70341 0.89580 0.60481
 H792 H 0.69036 0.88480 0.62459
 C793 C 0.73493 0.92183 0.55173
 H794 H 0.74698 0.93193 0.53090
 C795 C 0.72565 0.94123 0.57672
 H796 H 0.73067 0.96619 0.57490
 Zn797 Zn 0.74233 0.86296 0.52104
 N798 N 0.72897 0.89040 0.55371
 C799 C 0.78295 0.84062 0.56820
 N800 N 0.77491 0.83780 0.53690
 C801 C 0.79237 0.82069 0.51623
 C802 C 0.81969 0.80647 0.52665
 C803 C 0.80974 0.82670 0.57961
 C804 C 0.68029 0.85518 0.50573
 C805 C 0.65355 0.84088 0.49363
 C806 C 0.68211 0.79307 0.48767
 C807 C 0.70842 0.80830 0.50024
 N808 N 0.70714 0.83902 0.50832
 H809 H 0.76946 0.85481 0.58423
 H810 H 0.78594 0.81942 0.49125
 H811 H 0.83388 0.79427 0.50937
 H812 H 0.81610 0.83013 0.60442
 H813 H 0.67989 0.87954 0.51244
 H814 H 0.63252 0.85437 0.49209
 H815 H 0.68363 0.76891 0.48036
 H816 H 0.73002 0.79590 0.50257
 C817 C 0.71023 0.92819 0.60396
 C818 C 0.78485 0.91732 0.43158
 C819 C 0.65453 0.80971 0.48331
 C820 C 0.82894 0.80996 0.55873
 C821 C -0.03528 0.29103 0.40638
 H822 H -0.01234 0.30218 0.40652
 C823 C -0.06008 0.30426 0.42318
 H824 H -0.05592 0.32549 0.43652
 C825 C -0.06875 0.25074 0.38743
 H826 H -0.07221 0.23041 0.37266
 C827 C -0.09427 0.26327 0.40374
 H828 H -0.11691 0.25209 0.40104
 N829 N -0.04002 0.26483 0.38886
 C830 C 0.05193 0.22632 0.37053
 H831 H 0.05043 0.22398 0.34475
 C832 C 0.07857 0.21667 0.38633
 H833 H 0.09712 0.20629 0.37243
 C834 C 0.02848 0.24133 0.41978
 H835 H 0.00873 0.25062 0.43271
 C836 C 0.05470 0.23179 0.43663
 H837 H 0.05500 0.23387 0.46253
 Zn838 Zn -0.00667 0.25122 0.36255
 N839 N 0.02779 0.23880 0.38725
 C840 C 0.03466 0.29836 0.33884
 N841 N 0.00551 0.28568 0.33561
 C842 C -0.01591 0.29974 0.31671
 C843 C -0.00848 0.32819 0.30080
 C844 C 0.04297 0.32664 0.32358
 C845 C -0.02341 0.18913 0.35733
 C846 C -0.03309 0.16125 0.34334
 C847 C -0.03459 0.18844 0.29202
 C848 C -0.02440 0.21588 0.30702
 N849 N -0.01965 0.21578 0.33927
 H850 H 0.05123 0.28738 0.35441
 H851 H -0.03917 0.28953 0.31506
 H852 H -0.02594 0.33965 0.28654
 H853 H 0.06624 0.33639 0.32678
 H854 H -0.01880 0.18961 0.38281
 H855 H -0.03509 0.14039 0.35840
 H856 H -0.03894 0.18891 0.26645
 H857 H -0.02064 0.23721 0.29300
 C858 C 0.08036 0.21974 0.41983
 C859 C -0.09016 0.29064 0.42178
 C860 C -0.03972 0.16081 0.31035
 C861 C 0.02093 0.34242 0.30512
 C862 C 1.04102 0.80414 0.07504
 H863 H 1.01997 0.81769 0.07572
 C864 C 1.06697 0.81491 0.05696
 H865 H 1.06573 0.83686 0.04364
 C866 C 1.06828 0.75921 0.09196
 H867 H 1.06856 0.73741 0.10553
 C868 C 1.09472 0.76903 0.07412
 H869 H 1.11484 0.75418 0.07391
 N870 N 1.04226 0.77691 0.09230
 C871 C 0.94722 0.74043 0.10672
 H872 H 0.94509 0.74125 0.13264
 C873 C 0.92238 0.72891 0.08888
 H874 H 0.90120 0.72074 0.10124
 C875 C 0.97817 0.74845 0.05936
 H876 H 1.00012 0.75575 0.04806
 C877 C 0.95415 0.73620 0.04064
 H878 H 0.95768 0.73413 0.01493
 Zn879 Zn 1.00737 0.76455 0.11805
 N880 N 0.97428 0.75035 0.09181
 C881 C 0.96487 0.80984 0.13989
 N882 N 0.99475 0.79992 0.14204
 C883 C 1.01608 0.81603 0.15966
 C884 C 1.00715 0.84203 0.17744
 C885 C 0.95496 0.83544 0.15733
 C886 C 1.00882 0.70126 0.13805
 C887 C 1.01919 0.67529 0.15531
 C888 C 1.04966 0.71028 0.18799
 C889 C 1.03875 0.73558 0.17006
 N890 N 1.01877 0.73073 0.14549
 H891 H 0.94860 0.79834 0.12430
 H892 H 1.04018 0.80911 0.15951
 H893 H 1.02427 0.85449 0.19155
 H894 H 0.93113 0.84295 0.15485
 H895 H 0.99385 0.69762 0.11778
 H896 H 1.01185 0.65221 0.14776
 H897 H 1.06608 0.71458 0.20701
 H898 H 1.04708 0.75894 0.17522
 C899 C 0.92578 0.72664 0.05541
 C900 C 1.09446 0.79759 0.05674
 C901 C 1.04009 0.67963 0.18061
 C902 C 0.97603 0.85145 0.17704
 C903 C 0.52538 0.25755 0.56813
 H904 H 0.50515 0.24824 0.55608
 C905 C 0.55120 0.26886 0.55000
 H906 H 0.55048 0.26852 0.52400
 C907 C 0.55130 0.26902 0.61652
 H908 H 0.55104 0.26905 0.64253
 C909 C 0.57751 0.28048 0.59943
 H910 H 0.59691 0.28999 0.61272
 N911 N 0.52584 0.25812 0.60080
 C912 C 0.44715 0.19754 0.61098
 H913 H 0.45779 0.18340 0.62933
 C914 C 0.42084 0.18587 0.59564
 H915 H 0.41213 0.16249 0.60191
 C916 C 0.44441 0.24558 0.58196
 H917 H 0.45348 0.26911 0.57731
 C918 C 0.41795 0.23475 0.56587
 H919 H 0.40741 0.25015 0.54851
 Zn920 Zn 0.49256 0.24279 0.62750
 N921 N 0.45863 0.22680 0.60374
 C922 C 0.45305 0.26768 0.67402
 N923 N 0.47671 0.27523 0.65290
 C924 C 0.48660 0.30546 0.64807
 C925 C 0.47245 0.32959 0.66483
 C926 C 0.43835 0.29103 0.69138
 C927 C 0.51958 0.18505 0.63770
 C928 C 0.53183 0.15998 0.65483
 C929 C 0.52404 0.18862 0.70386
 C930 C 0.51126 0.21294 0.68581
 N931 N 0.50899 0.21054 0.65337
 H932 H 0.44520 0.24351 0.67684
 H933 H 0.50470 0.31109 0.63036
 H934 H 0.48006 0.35344 0.65944
 H935 H 0.41924 0.28461 0.70776
 H936 H 0.51819 0.18416 0.61179
 H937 H 0.54025 0.13995 0.64190
 H938 H 0.52600 0.19081 0.72965
 H939 H 0.50357 0.23382 0.69767
 C940 C 0.40576 0.20443 0.57282
 C941 C 0.57781 0.28027 0.56564
 C942 C 0.53396 0.16156 0.68839
 C943 C 0.44786 0.32248 0.68684
 C944 C 0.48205 0.77128 0.90087
 H945 H 0.50507 0.78223 0.90095
 C946 C 0.45714 0.78540 0.91656
 H947 H 0.46126 0.80717 0.92898
 C948 C 0.44847 0.73061 0.88283
 H949 H 0.44498 0.70986 0.86871
 C950 C 0.42284 0.74401 0.89808
 H951 H 0.40006 0.73312 0.89526
 N952 N 0.47728 0.74453 0.88422
 C953 C 0.56970 0.70613 0.86906
 H954 H 0.56943 0.70344 0.84326
 C955 C 0.59587 0.69744 0.88629
 H956 H 0.61534 0.68743 0.87346
 C957 C 0.54373 0.72121 0.91695
 H958 H 0.52323 0.73016 0.92882
 C959 C 0.56939 0.71269 0.93516
 H960 H 0.56847 0.71528 0.96102
 Zn961 Zn 0.51078 0.73036 0.85870
 N962 N 0.54457 0.71826 0.88445
 C963 C 0.55203 0.77794 0.83530
 N964 N 0.52315 0.76470 0.83170
 C965 C 0.50151 0.77859 0.81294
 C966 C 0.50832 0.80746 0.79767
 C967 C 0.55967 0.80678 0.82075
 C968 C 0.49222 0.66853 0.85374
 C969 C 0.47963 0.64162 0.84008
 C970 C 0.47888 0.66912 0.78888
 C971 C 0.49179 0.69557 0.80355
 N972 N 0.49734 0.69498 0.83564
 H973 H 0.56871 0.76708 0.85083
 H974 H 0.47843 0.76801 0.81116
 H975 H 0.49060 0.81881 0.78366
 H976 H 0.58258 0.81720 0.82446
 H977 H 0.49733 0.66863 0.87911
 H978 H 0.47602 0.62091 0.85513
 H979 H 0.47365 0.67012 0.76351
 H980 H 0.49654 0.71670 0.78949
 C981 C 0.59609 0.70117 0.91981
 C982 C 0.42698 0.77208 0.91492
 C983 C 0.47173 0.64204 0.80742
 C984 C 0.53729 0.82236 0.80256
 C985 C 0.45318 -0.12857 0.28603
 C986 C 0.44660 -0.09858 0.29758
 H987 H 0.45083 -0.13288 0.26063
 H988 H 0.45467 -0.09247 0.32120
 C989 C 0.95856 0.35132 0.79662
 C990 C 0.95362 0.37957 0.80927
 H991 H 0.95560 0.34781 0.77115
 H992 H 0.95964 0.38353 0.83407
 C993 C 0.06236 1.13435 0.80196
 C994 C 0.05597 1.10344 0.80512
 H995 H 0.08117 1.14227 0.78591
 H996 H 0.03905 1.09508 0.82302
 C997 C 0.54551 0.64444 0.30534
 C998 C 0.57585 0.63969 0.29896
 H999 H 0.52880 0.62523 0.30335
 H1000 H 0.59274 0.65821 0.30371
 C1001 C 0.54699 0.38259 0.21298
 C1002 C 0.55205 0.41129 0.19989
 H1003 H 0.55220 0.37824 0.23795
 H1004 H 0.54419 0.41607 0.17577
 C1005 C 0.04803 0.86912 0.69214
 C1006 C 0.07222 0.88639 0.68020
 H1007 H 0.03764 0.87488 0.71515
 H1008 H 0.08440 0.87855 0.65887
 C1009 C 0.95031 0.63539 0.69863
 C1010 C 0.96314 0.60698 0.70082
 H1011 H 0.92668 0.63825 0.70763
 H1012 H 0.98754 0.60412 0.69475
 C1013 C 0.45408 0.14894 0.20889
 C1014 C 0.45374 0.12219 0.19244
 H1015 H 0.44014 0.15057 0.23076
 H1016 H 0.46488 0.12184 0.16886
 C1017 C 0.28535 0.42609 -0.12538
 C1018 C 0.29829 0.42195 -0.09647
 H1019 H 0.26083 0.42060 -0.12853
 H1020 H 0.32206 0.43022 -0.09305
 C1021 C 0.78863 0.93680 0.37438
 C1022 C 0.80110 0.93277 0.40354
 H1023 H 0.76432 0.93086 0.37061
 H1024 H 0.82465 0.94143 0.40747
 C1025 C 0.80287 0.03912 1.13903
 C1026 C 0.78043 0.06244 1.13634
 H1027 H 0.81156 0.02860 1.11728
 H1028 H 0.76828 0.06973 1.15785
 C1029 C 0.28973 0.54567 0.64854
 C1030 C 0.29820 0.54335 0.61740
 H1031 H 0.27269 0.56267 0.65556
 H1032 H 0.31692 0.52800 0.61082
 C1033 C 0.17783 0.57366 0.37246
 C1034 C 0.20235 0.56260 0.38835
 H1035 H 0.16605 0.59401 0.38149
 H1036 H 0.21226 0.54050 0.38150
 C1037 C 0.67038 0.06184 0.88455
 C1038 C 0.69512 0.05217 0.90377
 H1039 H 0.65723 0.08185 0.89221
 H1040 H 0.70423 0.02894 0.90064
 C1041 C 0.69532 0.93899 0.66052
 C1042 C 0.69998 0.94906 0.63003
 H1043 H 0.70144 0.91525 0.66696
 H1044 H 0.69669 0.97338 0.62362
 C1045 C 0.18714 0.44160 0.15562
 C1046 C 0.19082 0.44886 0.12422
 H1047 H 0.19506 0.41916 0.16437
 H1048 H 0.18557 0.47207 0.11539
 C1049 C -0.14566 0.29517 0.44113
 C1050 C -0.11646 0.30703 0.43754
 H1051 H -0.15087 0.27127 0.43454
 H1052 H -0.11119 0.33008 0.44676
 C1053 C 0.37116 0.77857 0.93192
 C1054 C 0.40054 0.78984 0.92833
 H1055 H 0.36580 0.75407 0.92807
 H1056 H 0.40568 0.81374 0.93525
 C1057 C 1.15135 0.80108 0.04290
 C1058 C 1.12192 0.81004 0.03799
 H1059 H 1.15604 0.78437 0.06193
 H1060 H 1.11765 0.82877 0.02092
 C1061 C 0.63386 0.29495 0.55750
 C1062 C 0.60467 0.29321 0.54627
 H1063 H 0.63861 0.28441 0.58070
 H1064 H 0.60000 0.30103 0.52202
 C1065 C 0.35973 0.20544 0.53610
 C1066 C 0.37784 0.19067 0.55730
 H1067 H 0.36387 0.22993 0.53013
 H1068 H 0.37163 0.16683 0.56451
 C1069 C 0.87070 0.71625 0.04216
 C1070 C 0.90109 0.71163 0.03633
 H1071 H 0.86367 0.73407 0.05891
 H1072 H 0.90814 0.69599 0.01740
 C1073 C 0.65231 0.69095 0.92770
 C1074 C 0.62296 0.69184 0.93948
 H1075 H 0.65720 0.69925 0.90337
 H1076 H 0.61825 0.68646 0.96461
 C1077 C 0.13643 0.20732 0.42462
 C1078 C 0.10768 0.20874 0.43788
 H1079 H 0.14061 0.21693 0.40065
 H1080 H 0.10381 0.20207 0.46285
 C1081 C 0.54472 0.10594 0.69979
 C1082 C 0.54832 0.13623 0.70719
 H1083 H 0.52872 0.09918 0.68111
 H1084 H 0.56175 0.14272 0.72798
 C1085 C 1.04356 0.62338 0.19746
 C1086 C 1.05452 0.65308 0.19784
 H1087 H 1.02137 0.61803 0.18657
 H1088 H 1.07520 0.65850 0.21148
 C1089 C 0.93707 0.87950 0.20880
 C1090 C 0.96599 0.87861 0.19602
 H1091 H 0.92198 0.85894 0.20661
 H1092 H 0.98256 0.89776 0.19899
 C1093 C 0.43981 0.37689 0.70599
 C1094 C 0.42998 0.34697 0.70352
 H1095 H 0.46311 0.38377 0.69781
 H1096 H 0.40779 0.33968 0.71438
 C1097 C 0.43718 0.59478 0.80940
 C1098 C 0.45573 0.61495 0.79236
 H1099 H 0.43367 0.59868 0.83483
 H1100 H 0.45803 0.61302 0.76658
 C1101 C -0.06810 0.10965 0.31134
 C1102 C -0.05201 0.13211 0.29473
 H1103 H -0.07275 0.11297 0.33667
 H1104 H -0.04925 0.13062 0.26892
 C1105 C 0.04537 0.39480 0.30751
 C1106 C 0.02827 0.37390 0.29120
 H1107 H 0.05203 0.38868 0.33180
 H1108 H 0.01868 0.37997 0.26811
 C1109 C 0.55897 0.87569 0.80739
 C1110 C 0.54352 0.85451 0.78987
 H1111 H 0.56556 0.86914 0.83159
 H1112 H 0.53389 0.86102 0.76691
 C1113 C 0.71812 0.58063 0.12022
 C1114 C 0.71080 0.54996 0.13122
 H1115 H 0.71350 0.59951 0.13647
 H1116 H 0.71870 0.53029 0.11747
 C1117 C 0.19940 1.05546 0.59168
 C1118 C 0.20541 1.06242 0.62231
 H1119 H 0.18397 1.03581 0.58648
 H1120 H 0.22323 1.07995 0.62748
 C1121 C 0.22064 0.92679 0.85580
 C1122 C 0.21376 0.95833 0.84928
 H1123 H 0.21598 0.91007 0.83717
 H1124 H 0.22250 0.97636 0.86492
 C1125 C 0.69970 0.45814 0.39400
 C1126 C 0.70497 0.45415 0.36250
 H1127 H 0.68577 0.47750 0.40198
 H1128 H 0.72144 0.43678 0.35474
 C1129 C 0.79286 0.43463 0.62140
 C1130 C 0.82260 0.44419 0.62518
 H1131 H 0.77564 0.43757 0.64034
 H1132 H 0.83886 0.44213 0.60514
 C1133 C 0.32359 -0.06467 0.08910
 C1134 C 0.30967 -0.04525 0.10967
 H1135 H 0.34706 -0.07203 0.09394
 H1136 H 0.28559 -0.03905 0.10643
 C1137 C 0.29659 0.07844 0.35179
 C1138 C 0.29001 0.04998 0.34022
 H1139 H 0.31416 0.09310 0.33948
 H1140 H 0.27499 0.03376 0.35394
 C1141 C 0.81016 0.56634 0.87130
 C1142 C 0.81185 0.53585 0.86438
 H1143 H 0.81910 0.58372 0.85407
 H1144 H 0.80222 0.51831 0.88109
 C1145 C 0.11437 0.70141 0.54825
 C1146 C 0.14433 0.70707 0.55552
 H1147 H 0.10877 0.68492 0.52958
 H1148 H 0.15021 0.72579 0.57176
 C1149 C 0.62638 0.22915 1.06975
 C1150 C 0.62689 0.20600 1.04846
 H1151 H 0.64807 0.23717 1.08021
 H1152 H 0.60499 0.19573 1.04066
 C1153 C 0.87581 0.19719 0.93608
 C1154 C 0.86496 0.19557 0.96825
 H1155 H 0.85934 0.19118 0.91768
 H1156 H 0.87906 0.20583 0.98680
 C1157 C 0.37579 0.71816 0.43800
 C1158 C 0.37220 0.70482 0.46730
 H1159 H 0.35607 0.71772 0.42205
 H1160 H 0.39081 0.70584 0.48448
 C1161 C 0.60772 0.81142 0.44961
 C1162 C 0.62758 0.79463 0.46718
 H1163 H 0.61193 0.83644 0.44686
 H1164 H 0.62564 0.76931 0.46789
 C1165 C 0.10419 0.29220 -0.03492
 C1166 C 0.12986 0.27710 -0.02593
 H1167 H 0.10290 0.31715 -0.03091
 H1168 H 0.13291 0.25296 -0.03274
 C1169 C 0.38360 0.28908 0.06503
 C1170 C 0.36148 0.30600 0.07940
 H1171 H 0.37890 0.27701 0.04293
 H1172 H 0.36631 0.31545 0.10286
 C1173 C 0.87939 0.78098 0.55574
 C1174 C 0.85936 0.79958 0.57107
 H1175 H 0.87293 0.76958 0.53374
 H1176 H 0.86577 0.80821 0.59446
   
