data_POSCAR
  _audit_creation_date              2014-09-24
  _audit_creation_method            'ToBaCCo'
  _symmetry_space_group_name_H-M    'P1'
  _symmetry_Int_Tables_number       1
  _symmetry_cell_setting            triclinic
  loop_
  _symmetry_equiv_pos_as_xyz
 x,y,z
_cell_length_a 41.1429
_cell_length_b 41.1716
_cell_length_c 13.7070
_cell_angle_alpha 89.804400
_cell_angle_beta 89.952400
_cell_angle_gamma 119.987600
loop_
  _atom_site_label
  _atom_site_type_symbol
  _atom_site_fract_x
  _atom_site_fract_y
  _atom_site_fract_z
O1 O 0.26147 0.45586 0.58657
 O2 O 0.19580 0.45694 0.40709
 O3 O 0.25860 0.45478 0.40002
 O4 O 0.19743 0.45441 0.59399
 O5 O 0.22786 0.51630 0.59339
 O6 O 0.29106 0.51672 0.40080
 O7 O 0.22859 0.51872 0.40187
 O8 O 0.29195 0.51780 0.59100
 Cu9 Cu 0.22517 0.44933 0.49641
 Cu10 Cu 0.26292 0.52365 0.49655
 C11 C 0.28795 0.48659 0.61917
 C12 C 0.20062 0.48799 0.37442
 C13 C 0.28588 0.48545 0.36963
 C14 C 0.20177 0.48514 0.62627
 O15 O 0.53420 -0.26603 0.39994
 O16 O 0.53852 -0.20082 0.58933
 O17 O 0.53714 -0.26513 0.58896
 O18 O 0.53509 -0.20209 0.40339
 O19 O 0.47313 -0.23324 0.40627
 O20 O 0.47553 -0.29369 0.60225
 O21 O 0.47661 -0.23014 0.59560
 O22 O 0.47257 -0.29804 0.41392
 Cu23 Cu 0.54241 -0.23070 0.49437
 Cu24 Cu 0.46818 -0.26690 0.50443
 C25 C 0.50274 -0.29398 0.37682
 C26 C 0.50839 -0.20372 0.62302
 C27 C 0.50681 -0.29018 0.62784
 C28 C 0.50394 -0.20607 0.37542
 O29 O 1.26340 0.80259 0.40186
 O30 O 1.20015 0.74032 0.59245
 O31 O 1.26525 0.80337 0.58783
 O32 O 1.20061 0.73929 0.40291
 O33 O 1.23064 0.70742 0.40627
 O34 O 1.29604 0.77218 0.58911
 O35 O 1.23180 0.71015 0.59833
 O36 O 1.29388 0.77111 0.40073
 Cu37 Cu 1.22901 0.77425 0.49683
 Cu38 Cu 1.26586 0.73673 0.49881
 C39 C 1.28974 0.79798 0.36968
 C40 C 1.20503 0.71462 0.62844
 C41 C 1.29251 0.79960 0.61694
 C42 C 1.20477 0.71248 0.37251
 O43 O 0.80756 0.54789 0.40456
 O44 O 0.74298 0.54985 0.58697
 O45 O 0.80748 0.55059 0.59232
 O46 O 0.74509 0.54973 0.40030
 O47 O 0.71285 0.48789 0.40615
 O48 O 0.77717 0.48870 0.59462
 O49 O 0.71389 0.48816 0.59820
 O50 O 0.77549 0.48599 0.40514
 Cu51 Cu 0.77897 0.55570 0.49601
 Cu52 Cu 0.74159 0.48145 0.50133
 C53 C 0.80265 0.51667 0.37379
 C54 C 0.71718 0.51934 0.62347
 C55 C 0.80361 0.51993 0.62470
 C56 C 0.71795 0.51880 0.37144
 O57 O 0.46555 0.20091 0.59521
 O58 O 0.46398 0.26272 0.40372
 O59 O 0.46349 0.19902 0.40856
 O60 O 0.46374 0.26358 0.59258
 O61 O 0.52563 0.29516 0.58920
 O62 O 0.52547 0.23073 0.40384
 O63 O 0.52592 0.29405 0.39880
 O64 O 0.52743 0.23256 0.59383
 Cu65 Cu 0.45799 0.22855 0.50027
 Cu66 Cu 0.53236 0.26637 0.49630
 C67 C 0.49672 0.20564 0.62635
 C68 C 0.49453 0.28894 0.36869
 C69 C 0.49433 0.20344 0.37617
 C70 C 0.49470 0.29058 0.62195
 O71 O 0.80636 0.26638 0.59007
 O72 O 0.74260 0.20026 0.40816
 O73 O 0.80339 0.26689 0.40490
 O74 O 0.74388 0.20200 0.59666
 O75 O 0.70970 0.22967 0.59859
 O76 O 0.77047 0.29586 0.40969
 O77 O 0.70964 0.22915 0.40791
 O78 O 0.77183 0.29350 0.59977
 Cu79 Cu 0.77721 0.23087 0.49916
 Cu80 Cu 0.73690 0.26478 0.50374
 C81 C 0.80045 0.29141 0.62573
 C82 C 0.71511 0.20312 0.37716
 C83 C 0.79811 0.29341 0.37765
 C84 C 0.71651 0.20468 0.63009
 O85 O 0.94916 0.42126 0.17500
 O86 O 0.90818 0.43054 0.08185
 C87 C 0.91559 0.41341 0.15048
 O88 O 1.05704 0.58919 0.15900
 O89 O 1.09805 0.57646 0.07689
 C90 C 1.09068 0.59641 0.13628
 O91 O 0.95179 0.53616 0.16838
 O92 O 0.90961 0.48564 0.07874
 C93 C 0.91780 0.51135 0.14401
 O94 O 1.05328 0.46728 0.16447
 O95 O 1.09617 0.51932 0.07960
 C96 C 1.08743 0.49227 0.14166
 Zr97 Zr 1.00178 0.46161 0.11868
 O98 O 1.00538 0.46261 0.27280
 O99 O 0.99829 0.40866 0.11192
 Zr100 Zr 1.00392 0.54447 0.11673
 O101 O 1.00777 0.54506 0.27089
 O102 O 1.00169 0.59472 0.11996
 O103 O 0.96921 0.48698 0.13677
 O104 O 1.03555 0.51877 0.13625
 O105 O 1.05407 0.46578 -0.16675
 O106 O 1.09641 0.51843 -0.08404
 C107 C 1.08808 0.49066 -0.14265
 O108 O 0.95253 0.53656 -0.17941
 O109 O 0.90975 0.48563 -0.09047
 C110 C 0.91840 0.51214 -0.15429
 O111 O 1.05717 0.59076 -0.16585
 O112 O 1.09792 0.57743 -0.08525
 C113 C 1.09079 0.59813 -0.14297
 O114 O 0.94954 0.41868 -0.17730
 O115 O 0.90835 0.42965 -0.08999
 C116 C 0.91580 0.41078 -0.15331
 Zr117 Zr 1.00237 0.46139 -0.12705
 O118 O 1.00676 0.46591 -0.28105
 O119 O 0.99813 0.40809 -0.13254
 Zr120 Zr 1.00452 0.54384 -0.13015
 O121 O 1.00912 0.54058 -0.28332
 O122 O 1.00348 0.59416 -0.15135
 Zr123 Zr 0.94687 0.47594 -0.00555
 Zr124 Zr 1.05934 0.52990 -0.00436
 O125 O 1.03677 0.51862 -0.14602
 O126 O 0.96949 0.48631 -0.14806
 O127 O 1.03535 0.47117 -0.00338
 O128 O 0.97196 0.53479 -0.00701
 O129 O 0.96913 0.43974 -0.00388
 O130 O 1.03754 0.56667 -0.00640
 H131 H 1.05239 0.52694 0.19365
 H132 H 0.95611 0.54664 -0.00683
 H133 H 1.05463 0.52715 -0.20157
 H134 H 0.95191 0.41224 -0.00228
 H135 H 1.02074 0.61240 0.07329
 H136 H 1.00307 0.60376 -0.08569
 H137 H 0.98382 0.52283 -0.30860
 H138 H 0.98335 0.46408 -0.30607
 H139 H 1.00919 0.40521 -0.07134
 H140 H 0.99824 0.40078 0.18035
 H141 H 0.98691 0.46924 0.29788
 H142 H 0.98424 0.52370 0.29641
 O143 O 0.41643 0.46465 0.16675
 O144 O 0.42395 0.51550 0.07892
 C145 C 0.40653 0.48901 0.14281
 O146 O 0.58782 0.53643 0.16714
 O147 O 0.57979 0.48556 0.07954
 C148 C 0.59791 0.51240 0.14149
 O149 O 0.52866 0.58180 0.17975
 O150 O 0.47739 0.57088 0.08846
 C151 C 0.50220 0.58870 0.15554
 O152 O 0.46937 0.41293 0.15691
 O153 O 0.52390 0.42711 0.07700
 C154 C 0.49604 0.40616 0.13477
 Zr155 Zr 0.46093 0.45750 0.11549
 O156 O 0.46286 0.45497 0.26960
 O157 O 0.40881 0.40679 0.11457
 Zr158 Zr 0.54070 0.54088 0.12483
 O159 O 0.53845 0.53362 0.27826
 O160 O 0.58840 0.59487 0.13923
 O161 O 0.48254 0.51456 0.13995
 O162 O 0.51823 0.48360 0.13769
 O163 O 0.47125 0.41594 -0.17081
 O164 O 0.52560 0.42964 -0.09097
 C165 C 0.49807 0.40926 -0.14946
 O166 O 0.53273 0.58708 -0.16979
 O167 O 0.47976 0.57408 -0.08304
 C168 C 0.50626 0.59392 -0.14521
 O169 O 0.59084 0.54061 -0.16390
 O170 O 0.58093 0.48715 -0.08494
 C171 C 0.60007 0.51550 -0.14304
 O172 O 0.41971 0.46886 -0.18160
 O173 O 0.42587 0.51782 -0.08866
 C174 C 0.40930 0.49258 -0.15564
 Zr175 Zr 0.46416 0.46151 -0.13086
 O176 O 0.47297 0.46666 -0.28383
 O177 O 0.41330 0.41105 -0.15488
 Zr178 Zr 0.54365 0.54467 -0.12105
 O179 O 0.54558 0.54321 -0.27531
 O180 O 0.59171 0.59889 -0.12059
 Zr181 Zr 0.47216 0.52711 -0.00195
 Zr182 Zr 0.53234 0.47473 -0.00348
 O183 O 0.52170 0.48788 -0.14419
 O184 O 0.48599 0.51912 -0.14472
 O185 O 0.47393 0.43730 -0.00869
 O186 O 0.53057 0.56400 0.00312
 O187 O 0.43919 0.46827 -0.00780
 O188 O 0.56628 0.53371 0.00197
 H189 H 0.52692 0.47488 0.19414
 H190 H 0.54067 0.59145 0.00586
 H191 H 0.53139 0.48050 -0.20110
 H192 H 0.41146 0.45605 -0.00920
 H193 H 0.60636 0.59745 0.08769
 H194 H 0.61007 0.59830 -0.07518
 H195 H 0.52311 0.54329 -0.30066
 H196 H 0.46603 0.48505 -0.30803
 H197 H 0.40325 0.40027 -0.08987
 H198 H 0.41103 0.38972 0.06787
 H199 H 0.46131 0.47648 0.29606
 H200 H 0.51634 0.53465 0.30258
 O201 O 0.53118 -0.05217 0.17650
 O202 O 0.48143 -0.09308 0.08244
 C203 C 0.50579 -0.08575 0.15121
 O204 O 0.46879 0.05340 0.16413
 O205 O 0.52171 0.09541 0.08053
 C206 C 0.49468 0.08727 0.14210
 O207 O 0.41756 -0.05120 0.16702
 O208 O 0.42719 -0.09239 0.07664
 C209 C 0.40899 -0.08491 0.14163
 O210 O 0.58855 0.05229 0.16937
 O211 O 0.57875 0.09469 0.08446
 C212 C 0.59744 0.08635 0.14602
 Zr213 Zr 0.54272 0.00063 0.12299
 O214 O 0.54207 0.00406 0.27706
 O215 O 0.59187 -0.00357 0.12865
 Zr216 Zr 0.46123 0.00138 0.11710
 O217 O 0.46250 0.00409 0.27143
 O218 O 0.40824 -0.00182 0.11553
 O219 O 0.48464 -0.03275 0.13820
 O220 O 0.51847 0.03367 0.13933
 O221 O 0.59171 0.05454 -0.16320
 O222 O 0.57978 0.09587 -0.08068
 C223 C 0.59971 0.08826 -0.13967
 O224 O 0.42246 -0.04822 -0.18557
 O225 O 0.42957 -0.09109 -0.09436
 C226 C 0.41327 -0.08233 -0.16220
 O227 O 0.47268 0.05663 -0.17125
 O228 O 0.52457 0.09711 -0.08290
 C229 C 0.49837 0.09016 -0.14582
 O230 O 0.53551 -0.05044 -0.17666
 O231 O 0.48382 -0.09196 -0.08840
 C232 C 0.50975 -0.08427 -0.15297
 Zr233 Zr 0.54557 0.00206 -0.12252
 O234 O 0.54945 0.00680 -0.27652
 O235 O 0.59555 -0.00043 -0.11249
 Zr236 Zr 0.46438 0.00340 -0.12866
 O237 O 0.46975 0.00888 -0.28238
 O238 O 0.41137 -0.00005 -0.13684
 Zr239 Zr 0.47475 -0.05441 -0.00474
 Zr240 Zr 0.53195 0.05797 -0.00068
 O241 O 0.52186 0.03556 -0.14243
 O242 O 0.48802 -0.03078 -0.14608
 O243 O 0.56743 0.03479 0.00166
 O244 O 0.44021 -0.03017 -0.00761
 O245 O 0.53332 -0.03152 -0.00033
 O246 O 0.47339 0.03594 -0.00485
 H247 H 0.52673 0.05037 0.19693
 H248 H 0.41258 -0.04656 -0.00987
 H249 H 0.53113 0.05291 -0.19908
 H250 H 0.54388 -0.04851 0.00088
 H251 H 0.41052 0.01891 0.07399
 H252 H 0.41175 0.01866 -0.09115
 H253 H 0.47049 -0.01323 -0.30761
 H254 H 0.52605 -0.01412 -0.30343
 H255 H 0.60416 0.00021 -0.18040
 H256 H 0.60790 0.01123 0.07316
 H257 H 0.51859 -0.01783 0.30079
 H258 H 0.46213 -0.01867 0.29639
 C259 C 1.18068 0.52123 0.26324
 C260 C 1.17387 0.48834 0.31191
 C261 C 1.13789 0.45641 0.30268
 C262 C 1.11012 0.45758 0.24599
 C263 C 1.11776 0.49024 0.19391
 C264 C 1.15338 0.52196 0.20420
 C265 C 1.18131 0.54362 0.12600
 C266 C 1.21103 0.54342 0.19079
 H267 H 1.13073 0.43063 0.34106
 H268 H 1.08266 0.43267 0.24244
 H269 H 1.18527 0.57207 0.11507
 H270 H 1.17627 0.52719 0.05784
 H271 H 1.23156 0.57167 0.21888
 H272 H 1.22370 0.52736 0.15968
 C273 C 0.46850 0.64426 0.30054
 C274 C 0.50142 0.67911 0.31187
 C275 C 0.53377 0.68486 0.26084
 C276 C 0.53366 0.65561 0.20785
 C277 C 0.50133 0.61992 0.20462
 C278 C 0.46854 0.61518 0.24854
 C279 C 0.44481 0.58674 0.32381
 C280 C 0.44401 0.61814 0.37898
 H281 H 0.55970 0.71147 0.26494
 H282 H 0.55922 0.66049 0.17212
 H283 H 0.46014 0.57480 0.36301
 H284 H 0.41685 0.56556 0.29651
 H285 H 0.45827 0.62392 0.45097
 H286 H 0.41580 0.61558 0.38024
 C287 C 0.31985 -0.13939 0.28876
 C288 C 0.31627 -0.17488 0.29797
 C289 C 0.34021 -0.18243 0.24063
 C290 C 0.36938 -0.15363 0.18503
 C291 C 0.37574 -0.11660 0.18794
 C292 C 0.34896 -0.11096 0.23605
 C293 C 0.35359 -0.08176 0.30791
 C294 C 0.32162 -0.11295 0.36568
 H295 H 0.33762 -0.20993 0.24248
 H296 H 0.38831 -0.15982 0.14519
 H297 H 0.34629 -0.06135 0.27613
 H298 H 0.38095 -0.06909 0.34666
 H299 H 0.29591 -0.11051 0.36717
 H300 H 0.33050 -0.11832 0.43768
 C301 C 0.86549 0.54772 0.29351
 C302 C 0.82956 0.51646 0.30281
 C303 C 0.82107 0.48477 0.24548
 C304 C 0.84929 0.48353 0.18945
 C305 C 0.88670 0.51355 0.19184
 C306 C 0.89335 0.54618 0.24042
 C307 C 0.92296 0.57002 0.31231
 C308 C 0.89239 0.57176 0.37040
 H309 H 0.79320 0.46038 0.24738
 H310 H 0.84227 0.45826 0.14937
 H311 H 0.94394 0.59753 0.28063
 H312 H 0.93497 0.55459 0.35078
 H313 H 0.89574 0.60027 0.37195
 H314 H 0.88671 0.55740 0.44247
 C315 C 0.46163 0.31859 0.28832
 C316 C 0.49308 0.31416 0.29437
 C317 C 0.52334 0.33588 0.23055
 C318 C 0.52338 0.36427 0.17207
 C319 C 0.49392 0.37234 0.17946
 C320 C 0.46222 0.34717 0.23349
 C321 C 0.43962 0.35393 0.30764
 C322 C 0.43891 0.32247 0.36758
 H323 H 0.54761 0.33219 0.22926
 H324 H 0.54737 0.38125 0.12610
 H325 H 0.41156 0.34697 0.27939
 H326 H 0.45569 0.38184 0.34297
 H327 H 0.41046 0.29735 0.37356
 H328 H 0.45450 0.33215 0.43753
 C329 C 0.66541 0.18230 0.24746
 C330 C 0.68913 0.17536 0.30601
 C331 C 0.68668 0.14005 0.29624
 C332 C 0.65777 0.11137 0.24076
 C333 C 0.63107 0.11755 0.19222
 C334 C 0.63755 0.15434 0.19092
 C335 C 0.61139 0.16894 0.20813
 C336 C 0.64178 0.19935 0.27080
 H337 H 0.70531 0.13362 0.33701
 H338 H 0.65527 0.08391 0.24013
 H339 H 0.58599 0.14896 0.25011
 H340 H 0.60612 0.18014 0.13984
 H341 H 0.63406 0.19680 0.34936
 H342 H 0.65343 0.22792 0.23908
 C343 C 0.46367 0.14749 -0.27973
 C344 C 0.49691 0.18047 -0.30451
 C345 C 0.53037 0.18605 -0.26012
 C346 C 0.53057 0.15749 -0.20308
 C347 C 0.49761 0.12237 -0.19142
 C348 C 0.46412 0.11911 -0.22601
 C349 C 0.43306 0.08901 -0.28408
 C350 C 0.43249 0.12004 -0.34306
 H351 H 0.55671 0.21162 -0.27316
 H352 H 0.55701 0.16196 -0.17440
 H353 H 0.40725 0.07240 -0.23967
 H354 H 0.44221 0.07220 -0.32745
 H355 H 0.40632 0.12126 -0.33271
 H356 H 0.44132 0.12113 -0.42029
 C357 C 0.66803 0.48888 -0.25295
 C358 C 0.69104 0.51997 -0.31209
 C359 C 0.68476 0.55067 -0.31100
 C360 C 0.65583 0.54965 -0.25428
 C361 C 0.63337 0.51868 -0.19349
 C362 C 0.64051 0.48884 -0.19281
 C363 C 0.65178 0.47401 -0.10753
 C364 C 0.68076 0.47289 -0.17341
 H365 H 0.70116 0.57495 -0.35703
 H366 H 0.65103 0.57319 -0.25855
 H367 H 0.62948 0.44584 -0.08318
 H368 H 0.66438 0.49486 -0.04774
 H369 H 0.67442 0.44391 -0.19027
 H370 H 0.71014 0.49227 -0.15022
 C371 C 0.86228 0.32149 -0.29954
 C372 C 0.82633 0.31710 -0.30773
 C373 C 0.81829 0.34032 -0.24866
 C374 C 0.84673 0.36916 -0.19205
 C375 C 0.88424 0.37714 -0.19867
 C376 C 0.89052 0.35109 -0.24828
 C377 C 0.91983 0.35658 -0.32117
 C378 C 0.88896 0.32410 -0.37752
 H379 H 0.79040 0.33684 -0.24768
 H380 H 0.83973 0.38627 -0.14727
 H381 H 0.94090 0.35008 -0.29017
 H382 H 0.93167 0.38385 -0.36047
 H383 H 0.89228 0.29893 -0.37901
 H384 H 0.88301 0.33256 -0.44950
 C385 C 0.54218 -0.13949 -0.30512
 C386 C 0.51053 -0.17540 -0.30748
 C387 C 0.48034 -0.18254 -0.24518
 C388 C 0.48068 -0.15326 -0.19108
 C389 C 0.51077 -0.11606 -0.20012
 C390 C 0.54219 -0.11055 -0.25347
 C391 C 0.56430 -0.08231 -0.33058
 C392 C 0.56424 -0.11401 -0.38723
 H393 H 0.45579 -0.21027 -0.24168
 H394 H 0.45647 -0.15942 -0.14685
 H395 H 0.59264 -0.06105 -0.30459
 H396 H 0.54811 -0.07070 -0.36688
 H397 H 0.59256 -0.11096 -0.39409
 H398 H 0.54792 -0.12079 -0.45609
 C399 C 0.32571 0.45857 -0.32332
 C400 C 0.31496 0.48560 -0.31241
 C401 C 0.33173 0.51196 -0.23681
 C402 C 0.36117 0.51308 -0.18118
 C403 C 0.37545 0.48911 -0.20339
 C404 C 0.35542 0.46053 -0.27101
 C405 C 0.36898 0.44802 -0.35621
 C406 C 0.33641 0.44591 -0.41358
 H407 H 0.32300 0.53235 -0.22294
 H408 H 0.37382 0.53377 -0.12431
 H409 H 0.36637 0.42013 -0.34349
 H410 H 0.39689 0.47015 -0.38327
 H411 H 0.31505 0.41683 -0.43405
 H412 H 0.34547 0.46689 -0.47370
 C413 C 1.14625 0.68975 -0.28048
 C414 C 1.18027 0.69079 -0.29955
 C415 C 1.18751 0.66573 -0.24576
 C416 C 1.15934 0.63759 -0.18665
 C417 C 1.12280 0.63247 -0.18462
 C418 C 1.11804 0.66089 -0.22635
 C419 C 1.08774 0.65929 -0.28937
 C420 C 1.11856 0.69093 -0.34882
 H421 H 1.21421 0.66669 -0.25243
 H422 H 1.16542 0.61836 -0.14833
 H423 H 1.06970 0.66785 -0.24955
 H424 H 1.07244 0.63261 -0.33065
 H425 H 1.11820 0.71768 -0.34359
 H426 H 1.12104 0.68240 -0.42390
 C427 C 0.82261 0.48988 -0.24473
 C428 C 0.83083 0.52075 -0.30422
 C429 C 0.86729 0.55210 -0.29836
 C430 C 0.89560 0.54983 -0.24643
 C431 C 0.88789 0.51637 -0.19795
 C432 C 0.85030 0.48802 -0.19153
 C433 C 0.83266 0.44684 -0.20681
 C434 C 0.80244 0.44888 -0.26567
 H435 H 0.87477 0.57725 -0.34018
 H436 H 0.92387 0.57358 -0.24875
 H437 H 0.82186 0.43112 -0.13719
 H438 H 0.85055 0.43937 -0.25137
 H439 H 0.77433 0.43396 -0.23040
 H440 H 0.80296 0.44261 -0.34432
 C441 C 0.52842 0.34618 -0.26868
 C442 C 0.49478 0.31714 -0.30594
 C443 C 0.46114 0.31533 -0.27540
 C444 C 0.46206 0.34461 -0.22038
 C445 C 0.49658 0.37595 -0.19352
 C446 C 0.52929 0.37468 -0.21283
 C447 C 0.56506 0.40354 -0.25892
 C448 C 0.56403 0.37245 -0.32035
 H449 H 0.43425 0.29271 -0.29940
 H450 H 0.43587 0.34359 -0.20317
 H451 H 0.58834 0.41492 -0.20595
 H452 H 0.56194 0.42477 -0.30193
 H453 H 0.58706 0.36668 -0.30302
 H454 H 0.55982 0.37531 -0.39938
 C455 C 0.68881 0.14260 -0.28657
 C456 C 0.69187 0.17785 -0.29548
 C457 C 0.66860 0.18554 -0.23589
 C458 C 0.63992 0.15690 -0.17939
 C459 C 0.63355 0.11990 -0.18336
 C460 C 0.66011 0.11420 -0.23270
 C461 C 0.65516 0.08496 -0.30490
 C462 C 0.68670 0.11613 -0.36380
 H463 H 0.67102 0.21297 -0.23748
 H464 H 0.62113 0.16316 -0.13887
 H465 H 0.62757 0.07216 -0.34253
 H466 H 0.66273 0.06466 -0.27388
 H467 H 0.67740 0.12134 -0.43542
 H468 H 0.71247 0.11381 -0.36645
 C469 C 1.18353 0.51533 -0.24164
 C470 C 1.17545 0.48417 -0.29903
 C471 C 1.14001 0.45175 -0.28594
 C472 C 1.11198 0.45310 -0.23004
 C473 C 1.11903 0.48672 -0.18461
 C474 C 1.15618 0.51636 -0.18461
 C475 C 1.17187 0.55718 -0.20317
 C476 C 1.20166 0.55601 -0.26634
 H477 H 1.13279 0.42626 -0.32530
 H478 H 1.08422 0.42856 -0.22778
 H479 H 1.18355 0.57372 -0.13542
 H480 H 1.15232 0.56319 -0.24509
 H481 H 1.23038 0.57232 -0.23552
 H482 H 1.19919 0.56117 -0.34496
 C483 C 0.47538 0.65838 -0.25445
 C484 C 0.50793 0.68559 -0.30203
 C485 C 0.54185 0.68645 -0.27900
 C486 C 0.54153 0.65738 -0.22397
 C487 C 0.50750 0.62731 -0.18863
 C488 C 0.47531 0.63040 -0.19768
 C489 C 0.43653 0.60225 -0.22832
 C490 C 0.43674 0.63273 -0.29167
 H491 H 0.56830 0.70781 -0.30957
 H492 H 0.56766 0.65744 -0.21367
 H493 H 0.41655 0.59407 -0.16636
 H494 H 0.43537 0.57869 -0.27062
 H495 H 0.41632 0.64122 -0.26702
 H496 H 0.43626 0.62714 -0.37112
 C497 C 0.34615 -0.17811 -0.26642
 C498 C 0.32204 -0.17098 -0.32292
 C499 C 0.33032 -0.13358 -0.33263
 C500 C 0.36031 -0.10475 -0.28145
 C501 C 0.38242 -0.11266 -0.21778
 C502 C 0.37538 -0.14963 -0.21380
 C503 C 0.36819 -0.17441 -0.12716
 C504 C 0.33644 -0.20554 -0.18467
 H505 H 0.31364 -0.12654 -0.37989
 H506 H 0.36542 -0.07641 -0.28996
 H507 H 0.35842 -0.16537 -0.06245
 H508 H 0.39166 -0.17976 -0.11284
 H509 H 0.30821 -0.21476 -0.15315
 H510 H 0.34182 -0.22864 -0.20399
 C511 C 0.47353 -0.18279 0.25638
 C512 C 0.50417 -0.17652 0.31426
 C513 C 0.53405 -0.13948 0.32325
 C514 C 0.53423 -0.11016 0.27093
 C515 C 0.50486 -0.11707 0.20629
 C516 C 0.47417 -0.15369 0.20219
 C517 C 0.45709 -0.17817 0.11533
 C518 C 0.45613 -0.20988 0.17445
 H519 H 0.55749 -0.13305 0.37087
 H520 H 0.55802 -0.08219 0.27952
 H521 H 0.47661 -0.16941 0.05192
 H522 H 0.42871 -0.18277 0.09847
 H523 H 0.47486 -0.21977 0.14500
 H524 H 0.42718 -0.23250 0.19246
 C525 C 0.33318 0.51136 0.23297
 C526 C 0.31322 0.48414 0.30351
 C527 C 0.32265 0.45567 0.31428
 C528 C 0.35248 0.45675 0.26032
 C529 C 0.37320 0.48586 0.19201
 C530 C 0.36096 0.51162 0.17821
 C531 C 0.36922 0.54671 0.12558
 C532 C 0.33811 0.54659 0.18864
 H533 H 0.30820 0.43352 0.36764
 H534 H 0.35973 0.43524 0.27414
 H535 H 0.36187 0.54162 0.04704
 H536 H 0.39767 0.57059 0.14069
 H537 H 0.31312 0.54188 0.14622
 H538 H 0.34884 0.56995 0.24201
 C539 C 1.14683 0.68791 0.27032
 C540 C 1.17910 0.68690 0.29760
 C541 C 1.18537 0.65967 0.25291
 C542 C 1.15743 0.63139 0.19455
 C543 C 1.12251 0.62943 0.18128
 C544 C 1.11909 0.65967 0.21469
 C545 C 1.08840 0.66105 0.26935
 C546 C 1.11887 0.69214 0.33025
 H547 H 1.21075 0.65875 0.26775
 H548 H 1.16200 0.60950 0.16668
 H549 H 1.07056 0.63505 0.31207
 H550 H 1.07286 0.67082 0.22274
 H551 H 1.11857 0.68400 0.40761
 H552 H 1.12088 0.71982 0.31875
 C553 C 0.46764 0.13732 0.32615
 C554 C 0.49404 0.17509 0.31120
 C555 C 0.52261 0.18404 0.24182
 C556 C 0.52216 0.15578 0.18313
 C557 C 0.49412 0.11794 0.19579
 C558 C 0.46785 0.10947 0.27049
 C559 C 0.42599 0.08740 0.26663
 C560 C 0.42581 0.11803 0.32763
 H561 H 0.54453 0.21286 0.23097
 H562 H 0.54339 0.16357 0.12735
 H563 H 0.41449 0.06019 0.30605
 H564 H 0.41493 0.08552 0.19159
 H565 H 0.41417 0.10846 0.40214
 H566 H 0.41468 0.13401 0.28800
 C567 C 0.66839 0.48779 0.24237
 C568 C 0.69182 0.51925 0.29848
 C569 C 0.68865 0.55156 0.28522
 C570 C 0.65905 0.54998 0.22995
 C571 C 0.63247 0.51626 0.18509
 C572 C 0.63988 0.48656 0.18570
 C573 C 0.61468 0.44578 0.20525
 C574 C 0.64577 0.44721 0.26837
 H575 H 0.70710 0.57721 0.32369
 H576 H 0.65582 0.57451 0.22712
 H577 H 0.60972 0.42898 0.13799
 H578 H 0.58909 0.43980 0.24709
 H579 H 0.65805 0.43069 0.23807
 H580 H 0.63832 0.44247 0.34716
 C581 C 0.86347 0.33092 0.31902
 C582 C 0.82643 0.32336 0.31529
 C583 C 0.81923 0.34879 0.26335
 C584 C 0.84798 0.37825 0.20820
 C585 C 0.88451 0.38323 0.20641
 C586 C 0.89168 0.36010 0.26673
 C587 C 0.91065 0.33812 0.24441
 C588 C 0.87951 0.30596 0.30183
 H589 H 0.79137 0.34536 0.26330
 H590 H 0.84154 0.39669 0.16654
 H591 H 0.93852 0.35010 0.28017
 H592 H 0.91039 0.33215 0.16525
 H593 H 0.88948 0.29942 0.37051
 H594 H 0.86108 0.28128 0.25601
   
