data_POSCAR
  _audit_creation_date              2014-09-24
  _audit_creation_method            'ToBaCCo'
  _symmetry_space_group_name_H-M    'P1'
  _symmetry_Int_Tables_number       1
  _symmetry_cell_setting            triclinic
  loop_
  _symmetry_equiv_pos_as_xyz
 x,y,z
_cell_length_a 34.6306
_cell_length_b 24.1062
_cell_length_c 15.2508
_cell_angle_alpha 89.243600
_cell_angle_beta 89.833600
_cell_angle_gamma 89.991300
loop_
  _atom_site_label
  _atom_site_type_symbol
  _atom_site_fract_x
  _atom_site_fract_y
  _atom_site_fract_z
O1 O 0.76659 0.18423 0.58625
 O2 O 0.70333 0.24154 0.41423
 O3 O 0.76709 0.18364 0.41760
 O4 O 0.70323 0.24305 0.58588
 O5 O 0.73730 0.32042 0.58137
 O6 O 0.80019 0.26171 0.41185
 O7 O 0.73685 0.31942 0.41316
 O8 O 0.80072 0.26153 0.58378
 Cu9 Cu 0.73150 0.20545 0.50132
 Cu10 Cu 0.77239 0.29837 0.49747
 C11 C 0.79476 0.21279 0.61361
 C12 C 0.70901 0.29046 0.38498
 C13 C 0.79468 0.21245 0.38601
 C14 C 0.70918 0.29225 0.61152
 O15 O 0.23253 0.81492 0.58731
 O16 O 0.29613 0.75490 0.41920
 O17 O 0.23322 0.81488 0.41912
 O18 O 0.29584 0.75586 0.59100
 O19 O 0.26190 0.67836 0.59079
 O20 O 0.19832 0.73828 0.42112
 O21 O 0.26133 0.67818 0.42277
 O22 O 0.19908 0.73710 0.59337
 Cu23 Cu 0.26808 0.79272 0.50390
 Cu24 Cu 0.22644 0.70045 0.50693
 C25 C 0.20485 0.78634 0.61903
 C26 C 0.28977 0.70590 0.39314
 C27 C 0.20471 0.78702 0.39176
 C28 C 0.28988 0.70683 0.61950
 O29 O 0.29942 0.24154 -0.41628
 O30 O 0.23095 0.17952 -0.57171
 O31 O 0.29666 0.23400 -0.58788
 O32 O 0.23632 0.18328 -0.40500
 O33 O 0.20357 0.26173 -0.40749
 O34 O 0.26370 0.31232 -0.59141
 O35 O 0.19878 0.25846 -0.57767
 O36 O 0.26678 0.32012 -0.42276
 Cu37 Cu 0.26948 0.20195 -0.49537
 Cu38 Cu 0.22993 0.29596 -0.50033
 C39 C 0.29470 0.29156 -0.39303
 C40 C 0.20250 0.20807 -0.59946
 C41 C 0.29074 0.28198 -0.62044
 C42 C 0.20915 0.21327 -0.37579
 O43 O -0.29928 0.76790 -0.40708
 O44 O -0.23563 0.81813 -0.58532
 O45 O -0.30232 0.76562 -0.57794
 O46 O -0.23538 0.82493 -0.41822
 O47 O -0.20289 0.74605 -0.41291
 O48 O -0.27160 0.68549 -0.56948
 O49 O -0.20482 0.73807 -0.58366
 O50 O -0.26632 0.68953 -0.40210
 Cu51 Cu -0.27154 0.80193 -0.49823
 Cu52 Cu -0.23304 0.70696 -0.49237
 C53 C -0.29358 0.71979 -0.37431
 C54 C -0.20856 0.78728 -0.61315
 C55 C -0.29925 0.71501 -0.59865
 C56 C -0.20753 0.79598 -0.38908
 N57 N 0.04335 1.10089 -0.08569
 N58 N 0.07198 1.13656 -0.09581
 N59 N -0.03689 1.06429 -0.15402
 N60 N -0.06616 1.07103 -0.20832
 N61 N -0.03733 1.10260 -0.09357
 N62 N -0.06649 1.13706 -0.10601
 N63 N 0.04475 1.06258 -0.14606
 N64 N 0.07492 1.07046 -0.19787
 C65 C 0.09153 1.11674 -0.16557
 C66 C -0.08416 1.11675 -0.17782
 N67 N -0.03952 0.90479 -0.09845
 N68 N -0.06831 0.87062 -0.11470
 N69 N 0.04335 0.94322 -0.14938
 N70 N 0.07293 0.93578 -0.20267
 N71 N 0.04123 0.90269 -0.09117
 N72 N 0.06893 0.86606 -0.10425
 N73 N -0.03809 0.94488 -0.15753
 N74 N -0.06622 0.93939 -0.21503
 Mn75 Mn 0.00332 1.00380 -0.15290
 C76 C -0.08474 0.89275 -0.18760
 C77 C 0.08860 0.88751 -0.17368
 N78 N -0.04104 1.09939 0.09552
 N79 N -0.06888 1.13586 0.10812
 N80 N 0.03831 1.05646 0.16139
 N81 N 0.06575 1.06191 0.22035
 N82 N 0.03971 1.09719 0.10346
 N83 N 0.06773 1.13218 0.12252
 N84 N -0.04316 1.05884 0.15362
 N85 N -0.07299 1.06597 0.20634
 Mn86 Mn 0.00119 1.10065 0.00488
 C87 C -0.08869 1.11416 0.17708
 C88 C 0.08394 1.10911 0.19509
 N89 N 0.03754 0.89937 0.09812
 N90 N 0.06663 0.86480 0.11108
 N91 N -0.04448 0.94002 0.15043
 N92 N -0.07374 0.93205 0.20450
 N93 N -0.04339 0.90118 0.09093
 N94 N -0.07150 0.86487 0.10421
 N95 N 0.03699 0.93768 0.15849
 N96 N 0.06602 0.93081 0.21338
 Mn97 Mn -0.00105 0.90134 -0.00017
 Mn98 Mn -0.00312 0.99821 0.15693
 Cl99 Cl 0.00008 1.00098 0.00211
 C100 C 0.08409 0.88506 0.18327
 C101 C -0.09044 0.88531 0.17468
 N102 N 0.45996 0.56144 -0.15080
 N103 N 0.43047 0.56750 -0.20462
 N104 N 0.53965 0.60122 -0.08401
 N105 N 0.56765 0.63798 -0.09373
 N106 N 0.54151 0.56361 -0.14538
 N107 N 0.57128 0.57315 -0.19759
 N108 N 0.45882 0.59895 -0.08917
 N109 N 0.42884 0.63216 -0.10023
 C110 C 0.41147 0.61189 -0.17252
 C111 C 0.58723 0.61969 -0.16460
 N112 N 0.53715 0.55434 0.16279
 N113 N 0.56375 0.56212 0.22312
 N114 N 0.45638 0.59352 0.10010
 N115 N 0.42803 0.62879 0.11538
 N116 N 0.45584 0.55256 0.15768
 N117 N 0.42687 0.55848 0.21313
 N118 N 0.53732 0.59532 0.10520
 N119 N 0.56384 0.63240 0.12535
 Mn120 Mn 0.49803 0.59789 0.00800
 C121 C 0.58034 0.61077 0.19866
 C122 C 0.40977 0.60617 0.18589
 N123 N 0.54288 0.44425 -0.15235
 N124 N 0.57198 0.43851 -0.20748
 N125 N 0.46142 0.40147 -0.09991
 N126 N 0.43296 0.36660 -0.11572
 N127 N 0.46149 0.44244 -0.15750
 N128 N 0.43276 0.43699 -0.21338
 N129 N 0.54227 0.40321 -0.09489
 N130 N 0.57071 0.36804 -0.11000
 Mn131 Mn 0.50151 0.50302 -0.15256
 C132 C 0.58908 0.39083 -0.18023
 C133 C 0.41533 0.38942 -0.18662
 N134 N 0.45711 0.43332 0.15050
 N135 N 0.42683 0.42475 0.20159
 N136 N 0.53970 0.39765 0.09426
 N137 N 0.56953 0.36418 0.10523
 N138 N 0.53875 0.43524 0.15578
 N139 N 0.56831 0.42903 0.20940
 N140 N 0.45885 0.39566 0.08919
 N141 N 0.43022 0.35979 0.09792
 Mn142 Mn 0.49719 0.49375 0.15770
 Mn143 Mn 0.50058 0.39886 -0.00282
 Cl144 Cl 0.49934 0.49839 0.00258
 C145 C 0.41042 0.37870 0.16812
 C146 C 0.58707 0.38439 0.17729
 C147 C 0.31560 0.36005 0.28609
 C148 C 0.31607 0.30369 0.30907
 C149 C 0.34357 0.26991 0.26666
 C150 C 0.37288 0.29398 0.21384
 C151 C 0.37557 0.35213 0.20458
 C152 C 0.34476 0.38365 0.23600
 C153 C 0.34337 0.43668 0.28499
 C154 C 0.31154 0.41065 0.34084
 H155 H 0.34415 0.22560 0.27913
 H156 H 0.39529 0.26765 0.18740
 H157 H 0.33288 0.47130 0.24261
 H158 H 0.37019 0.44503 0.32245
 H159 H 0.28305 0.43114 0.33174
 H160 H 0.32016 0.40330 0.41024
 C161 C -0.18035 0.86620 0.30984
 C162 C -0.18122 0.80909 0.32791
 C163 C -0.15064 0.77663 0.29432
 C164 C -0.12190 0.80077 0.24034
 C165 C -0.12266 0.85793 0.22048
 C166 C -0.15146 0.89017 0.25875
 C167 C -0.17935 0.92863 0.21477
 C168 C -0.21086 0.90250 0.27091
 H169 H -0.14889 0.73265 0.30920
 H170 H -0.09871 0.77508 0.21578
 H171 H -0.18258 0.92035 0.14359
 H172 H -0.17377 0.97257 0.23113
 H173 H -0.23243 0.87889 0.23248
 H174 H -0.22323 0.93143 0.31972
 C175 C 0.65963 0.63427 0.36314
 C176 C 0.67039 0.68946 0.34784
 C177 C 0.64768 0.72110 0.28898
 C178 C 0.61824 0.69575 0.23978
 C179 C 0.61029 0.63867 0.25048
 C180 C 0.63011 0.60969 0.31636
 C181 C 0.65084 0.55549 0.31296
 C182 C 0.68328 0.58253 0.36402
 H183 H 0.65352 0.76485 0.27879
 H184 H 0.60220 0.72054 0.19270
 H185 H 0.65926 0.54408 0.24512
 H186 H 0.63553 0.52258 0.35114
 H187 H 0.71050 0.58693 0.32572
 H188 H 0.68670 0.56493 0.43127
 C189 C 0.14449 1.21527 0.31096
 C190 C 0.17402 1.18334 0.34911
 C191 C 0.17175 1.12510 0.34047
 C192 C 0.14212 1.10084 0.29094
 C193 C 0.11511 1.13423 0.24600
 C194 C 0.11606 1.19134 0.25981
 C195 C 0.11631 1.23832 0.19526
 C196 C 0.14738 1.26472 0.25117
 H197 H 0.19265 1.09813 0.37216
 H198 H 0.14111 1.05611 0.28542
 H199 H 0.08865 1.26172 0.19549
 H200 H 0.12680 1.22587 0.12939
 H201 H 0.13760 1.30333 0.28354
 H202 H 0.17590 1.26777 0.21770
 C203 C 0.66138 0.28663 -0.26386
 C204 C 0.68285 0.31801 -0.32471
 C205 C 0.67741 0.37598 -0.32547
 C206 C 0.64758 0.39999 -0.27602
 C207 C 0.62353 0.36696 -0.22219
 C208 C 0.63282 0.31071 -0.21265
 C209 C 0.60750 0.26076 -0.21837
 C210 C 0.63874 0.23451 -0.27458
 H211 H 0.69401 0.40230 -0.36963
 H212 H 0.64193 0.44381 -0.28390
 H213 H 0.58027 0.26920 -0.25463
 H214 H 0.60375 0.23969 -0.15364
 H215 H 0.62955 0.22787 -0.34347
 H216 H 0.65289 0.19831 -0.24222
 C217 C 0.18036 0.86699 -0.30366
 C218 C 0.18034 0.80967 -0.31823
 C219 C 0.15359 0.77717 -0.26968
 C220 C 0.12529 0.80247 -0.21691
 C221 C 0.12220 0.86069 -0.21443
 C222 C 0.15152 0.89187 -0.25457
 C223 C 0.14958 0.94124 -0.31440
 C224 C 0.18123 0.91423 -0.36822
 H225 H 0.15334 0.73242 -0.27529
 H226 H 0.10399 0.77662 -0.18406
 H227 H 0.15924 0.97967 -0.28179
 H228 H 0.12165 0.94456 -0.34985
 H229 H 0.20903 0.93723 -0.36644
 H230 H 0.17163 0.90201 -0.43478
 C231 C 0.33861 0.71451 -0.25927
 C232 C 0.31600 0.68195 -0.31464
 C233 C 0.32030 0.62383 -0.30791
 C234 C 0.35039 0.60045 -0.25771
 C235 C 0.37594 0.63465 -0.21123
 C236 C 0.36749 0.69129 -0.20757
 C237 C 0.39331 0.74028 -0.22078
 C238 C 0.36172 0.76565 -0.27761
 H239 H 0.30260 0.59667 -0.34703
 H240 H 0.35497 0.55603 -0.25926
 H241 H 0.42000 0.73009 -0.25797
 H242 H 0.39807 0.76308 -0.15886
 H243 H 0.37018 0.77004 -0.34777
 H244 H 0.34839 0.80310 -0.24847
 C245 C -0.15445 1.22127 -0.26977
 C246 C -0.17894 1.18839 -0.32041
 C247 C -0.17649 1.13031 -0.30863
 C248 C -0.14655 1.10665 -0.25832
 C249 C -0.11921 1.14062 -0.21699
 C250 C -0.12563 1.19787 -0.21809
 C251 C -0.09832 1.24430 -0.23784
 C252 C -0.12983 1.26985 -0.29468
 H253 H -0.19568 1.10301 -0.34374
 H254 H -0.14362 1.06196 -0.25541
 H255 H -0.07261 1.23073 -0.27584
 H256 H -0.09179 1.26902 -0.17868
 H257 H -0.12236 1.27095 -0.36565
 H258 H -0.14136 1.30932 -0.26830
 C259 C 0.68156 0.64099 -0.28307
 C260 C 0.68064 0.69748 -0.30522
 C261 C 0.65265 0.73049 -0.26305
 C262 C 0.62351 0.70553 -0.21073
 C263 C 0.62150 0.64727 -0.20189
 C264 C 0.65260 0.61653 -0.23350
 C265 C 0.65445 0.56388 -0.28344
 C266 C 0.68603 0.59087 -0.33880
 H267 H 0.65169 0.77484 -0.27504
 H268 H 0.60080 0.73124 -0.18405
 H269 H 0.62769 0.55530 -0.32103
 H270 H 0.66525 0.52915 -0.24172
 H271 H 0.67732 0.59864 -0.40801
 H272 H 0.71470 0.57081 -0.33017
 C273 C 0.15530 1.22423 -0.27250
 C274 C 0.18478 1.19210 -0.30974
 C275 C 0.18746 1.13607 -0.28123
 C276 C 0.15791 1.11183 -0.22991
 C277 C 0.12590 1.14341 -0.20358
 C278 C 0.12691 1.20059 -0.21948
 C279 C 0.09637 1.23817 -0.25526
 C280 C 0.12739 1.26398 -0.31358
 H281 H 0.21047 1.10954 -0.30441
 H282 H 0.15906 1.06792 -0.21467
 H283 H 0.08520 1.26701 -0.20488
 H284 H 0.07384 1.21558 -0.29238
 H285 H 0.13395 1.30772 -0.29692
 H286 H 0.12282 1.25621 -0.38453
 C287 C 0.34435 0.28527 -0.27354
 C288 C 0.32183 0.31724 -0.33118
 C289 C 0.32607 0.37543 -0.32827
 C290 C 0.35572 0.39945 -0.27843
 C291 C 0.38101 0.36584 -0.22877
 C292 C 0.37290 0.30909 -0.22260
 C293 C 0.39909 0.26041 -0.23291
 C294 C 0.36784 0.23438 -0.28890
 H295 H 0.30832 0.40218 -0.36913
 H296 H 0.35994 0.44394 -0.28198
 H297 H 0.40383 0.23791 -0.16976
 H298 H 0.42582 0.27084 -0.27023
 H299 H 0.35466 0.19688 -0.25801
 H300 H 0.37648 0.22984 -0.35873
 C301 C -0.17130 0.87804 -0.33584
 C302 C -0.17996 0.82149 -0.32849
 C303 C -0.16067 0.79017 -0.26342
 C304 C -0.13083 0.81419 -0.21390
 C305 C -0.11904 0.86939 -0.23057
 C306 C -0.14122 0.90125 -0.28893
 C307 C -0.12919 0.93728 -0.36459
 C308 C -0.16228 0.91209 -0.41582
 H309 H -0.16755 0.74673 -0.25331
 H310 H -0.11545 0.78855 -0.16679
 H311 H -0.10026 0.92614 -0.39084
 H312 H -0.13340 0.98206 -0.35124
 H313 H -0.15257 0.88654 -0.47196
 H314 H -0.18560 0.94232 -0.43135
 C315 C 0.33713 0.71059 0.26759
 C316 C 0.31605 0.67973 0.32976
 C317 C 0.32192 0.62186 0.33251
 C318 C 0.35179 0.59761 0.28350
 C319 C 0.37541 0.63021 0.22803
 C320 C 0.36570 0.68621 0.21675
 C321 C 0.39068 0.73661 0.22035
 C322 C 0.35944 0.76318 0.27617
 H323 H 0.30566 0.59593 0.37789
 H324 H 0.35784 0.55402 0.29303
 H325 H 0.39409 0.75685 0.15488
 H326 H 0.41809 0.72904 0.25641
 H327 H 0.34493 0.79873 0.24283
 H328 H 0.36880 0.77089 0.34463
 C329 C -0.15259 1.22171 0.27928
 C330 C -0.18072 1.18958 0.32286
 C331 C -0.18239 1.13261 0.30203
 C332 C -0.15313 1.10816 0.25112
 C333 C -0.12263 1.14037 0.21687
 C334 C -0.12471 1.19784 0.22621
 C335 C -0.09445 1.23782 0.25456
 C336 C -0.12494 1.26391 0.31291
 H337 H -0.20431 1.10588 0.33071
 H338 H -0.15323 1.06377 0.24232
 H339 H -0.08491 1.26559 0.19992
 H340 H -0.07070 1.21742 0.29188
 H341 H -0.13287 1.30674 0.29193
 H342 H -0.11889 1.25849 0.38409
 C343 C 0.65901 0.28141 0.26672
 C344 C 0.68273 0.31459 0.31876
 C345 C 0.67937 0.37265 0.30838
 C346 C 0.64920 0.39574 0.25816
 C347 C 0.62256 0.36131 0.21555
 C348 C 0.62998 0.30432 0.21511
 C349 C 0.60345 0.25667 0.23291
 C350 C 0.63519 0.23164 0.28966
 H351 H 0.69793 0.40023 0.34462
 H352 H 0.64544 0.44025 0.25653
 H353 H 0.59762 0.23244 0.17287
 H354 H 0.57736 0.26882 0.27077
 H355 H 0.64755 0.19295 0.26235
 H356 H 0.62744 0.22941 0.36043
 C357 C 0.15527 0.78034 0.27174
 C358 C 0.17850 0.81240 0.32653
 C359 C 0.17492 0.87062 0.31960
 C360 C 0.14509 0.89475 0.26945
 C361 C 0.11903 0.86120 0.22325
 C362 C 0.12662 0.80428 0.22013
 C363 C 0.10008 0.75617 0.23424
 C364 C 0.13142 0.73005 0.29096
 H365 H 0.19307 0.89739 0.35835
 H366 H 0.14120 0.93932 0.27058
 H367 H 0.09480 0.73325 0.17266
 H368 H 0.07366 0.76739 0.27164
 H369 H 0.14410 0.69204 0.26207
 H370 H 0.12310 0.72624 0.36126
   
