data_POSCAR
  _audit_creation_date              2014-09-24
  _audit_creation_method            'ToBaCCo'
  _symmetry_space_group_name_H-M    'P1'
  _symmetry_Int_Tables_number       1
  _symmetry_cell_setting            triclinic
  loop_
  _symmetry_equiv_pos_as_xyz
 x,y,z
_cell_length_a 19.0792
_cell_length_b 19.1791
_cell_length_c 18.3599
_cell_angle_alpha 90.894700
_cell_angle_beta 90.078000
_cell_angle_gamma 90.318200
loop_
  _atom_site_label
  _atom_site_type_symbol
  _atom_site_fract_x
  _atom_site_fract_y
  _atom_site_fract_z
N1 N 0.17021 0.17039 0.17431
 N2 N -0.16859 0.82298 0.15734
 N3 N -0.16632 0.17070 -0.15149
 N4 N 0.15728 0.84575 -0.15658
 N5 N 0.18082 1.17731 0.82610
 N6 N 0.82292 0.81912 0.83349
 N7 N 0.16371 0.83698 1.16642
 N8 N 0.84124 1.16812 1.15724
 O9 O 0.39579 0.88593 0.86607
 O10 O 0.32220 0.94738 0.94143
 C11 C 0.33394 0.90326 0.88876
 O12 O 0.59583 0.86950 1.12492
 O13 O 0.67444 0.93459 1.05967
 C14 C 0.65911 0.88686 1.10663
 O15 O 0.39894 0.86550 1.11590
 O16 O 0.32273 0.94170 1.06264
 C17 C 0.33627 0.88770 1.10186
 O18 O 0.59147 0.88693 0.85778
 O19 O 0.67165 0.93963 0.93398
 C20 C 0.65523 0.89952 0.87892
 Zr21 Zr 0.49545 0.91747 0.90596
 O22 O 0.49779 0.80703 0.90517
 O23 O 0.49371 0.91468 0.79070
 Zr24 Zr 0.49804 0.90882 1.09005
 O25 O 0.50087 0.79887 1.09393
 O26 O 0.49056 0.91158 1.20519
 O27 O 0.43415 0.90074 0.99787
 O28 O 0.55712 0.89840 0.99594
 O29 O 0.59918 1.12376 0.87597
 O30 O 0.67539 1.05772 0.94218
 C31 C 0.66168 1.10420 0.89386
 O32 O 0.40808 1.12810 1.13782
 O33 O 0.32796 1.06356 1.07206
 C34 C 0.34423 1.11183 1.11943
 O35 O 0.60544 1.11265 1.14274
 O36 O 0.67853 1.05335 1.06484
 C37 C 0.66738 1.09581 1.11903
 O38 O 0.40318 1.13912 0.89325
 O39 O 0.32453 1.06795 0.95087
 C40 C 0.33989 1.12045 0.91029
 Zr41 Zr 0.50090 1.09313 0.91833
 O42 O 0.51427 1.20276 0.92314
 O43 O 0.48998 1.09776 0.80375
 Zr44 Zr 0.50431 1.08383 1.10236
 O45 O 0.51679 1.19304 1.11474
 O46 O 0.49696 1.07402 1.21684
 Zr47 Zr 0.39520 1.00332 1.00579
 Zr48 Zr 0.60405 0.99785 1.00213
 O49 O 0.56359 1.09974 1.00991
 O50 O 0.44095 1.10374 1.01244
 O51 O 0.56034 1.00440 0.89684
 O52 O 0.43968 0.99725 1.11045
 O53 O 0.43687 1.00782 0.89990
 O54 O 0.56443 0.99383 1.10921
 H55 H 0.58742 0.85671 0.99216
 H56 H 0.40745 0.99596 1.15271
 H57 H 0.59609 1.14020 1.01171
 H58 H 0.40409 1.01207 0.85836
 H59 H 0.53639 0.92747 1.22474
 H60 H 0.53940 1.04946 1.23347
 H61 H 0.48481 1.21499 1.07957
 H62 H 0.47921 1.22152 0.95775
 H63 H 0.52576 1.06652 0.78218
 H64 H 0.47169 0.95815 0.77416
 H65 H 0.45257 0.79019 0.92482
 H66 H 0.49293 0.78161 1.04363
 O67 O -0.12797 0.39303 0.08954
 O68 O -0.04576 0.32021 0.03867
 C69 C -0.10368 0.33156 0.07425
 O70 O -0.09584 0.59386 -0.15196
 O71 O -0.04812 0.67234 -0.07008
 C72 C -0.08577 0.65692 -0.12710
 O73 O -0.09231 0.39724 -0.15218
 O74 O -0.02781 0.32311 -0.08180
 C75 C -0.07361 0.33542 -0.13204
 O76 O -0.12638 0.58728 0.11439
 O77 O -0.06090 0.66832 0.05435
 C78 C -0.10941 0.65111 0.09976
 Zr79 Zr -0.08315 0.49259 0.07357
 O80 O -0.19381 0.49488 0.07054
 O81 O -0.08843 0.47899 0.18778
 Zr82 Zr -0.06312 0.49690 -0.10945
 O83 O -0.17355 0.49788 -0.12132
 O84 O -0.05118 0.49157 -0.22398
 O85 O -0.08323 0.43221 -0.02196
 O86 O -0.08958 0.55434 -0.01731
 O87 O 0.11332 0.60082 0.14526
 O88 O 0.05690 0.67552 0.06856
 C89 C 0.09597 0.66292 0.12465
 O90 O 0.16291 0.41715 -0.11937
 O91 O 0.09383 0.33170 -0.07008
 C92 C 0.14691 0.35273 -0.10921
 O93 O 0.14641 0.60863 -0.11703
 O94 O 0.06872 0.67927 -0.05622
 C95 C 0.12158 0.66930 -0.09928
 O96 O 0.12965 0.40531 0.13362
 O97 O 0.07715 0.32638 0.05543
 C98 C 0.11712 0.34204 0.11072
 Zr99 Zr 0.09221 0.50216 0.09504
 O100 O 0.20212 0.51554 0.10482
 O101 O 0.08339 0.49256 0.20928
 Zr102 Zr 0.11133 0.50800 -0.08743
 O103 O 0.22126 0.52109 -0.08055
 O104 O 0.11757 0.50360 -0.20267
 Zr105 Zr 0.02036 0.39529 -0.01076
 Zr106 Zr 0.00842 0.60373 -0.00334
 O107 O 0.11129 0.56621 0.00786
 O108 O 0.11930 0.44343 0.00303
 O109 O -0.00044 0.55929 0.10073
 O110 O 0.02925 0.44175 -0.11364
 O111 O 0.00592 0.43600 0.09530
 O112 O 0.02216 0.56528 -0.11044
 H113 H -0.13232 0.58319 -0.02108
 H114 H 0.03584 0.41162 -0.15739
 H115 H 0.15067 0.59963 0.01439
 H116 H 0.00155 0.40280 0.13586
 H117 H -0.01988 0.53036 -0.23796
 H118 H 0.09935 0.54801 -0.22161
 H119 H 0.23678 0.49654 -0.03651
 H120 H 0.22465 0.47301 0.08483
 H121 H 0.04555 0.52410 0.22565
 H122 H -0.07372 0.52335 0.21155
 H123 H -0.20768 0.48177 0.02032
 H124 H -0.19221 0.45481 -0.09932
 O125 O 0.89819 0.14689 0.39930
 O126 O 0.94582 0.06652 0.32011
 C127 C 0.91215 0.12362 0.33417
 O128 O 1.13233 0.09056 0.61421
 O129 O 1.05095 0.04149 0.68982
 C130 C 1.10830 0.07568 0.67848
 O131 O 1.13628 0.09821 0.40899
 O132 O 1.06100 0.04887 0.32510
 C133 C 1.11565 0.08628 0.34258
 O134 O 0.88343 0.14397 0.60264
 O135 O 0.93114 0.06711 0.68313
 C136 C 0.89471 0.12198 0.66790
 Zr137 Zr 0.91732 0.10123 0.50203
 O138 O 0.93763 0.20958 0.51198
 O139 O 0.80872 0.12021 0.49013
 Zr140 Zr 1.09049 0.06739 0.50868
 O141 O 1.10968 0.17595 0.51928
 O142 O 1.19954 0.04795 0.50532
 O143 O 1.00884 0.09740 0.44054
 O144 O 1.00436 0.09674 0.56903
 O145 O 0.83416 -0.09812 0.60020
 O146 O 0.91087 -0.04898 0.68269
 C147 C 0.85567 -0.08563 0.66637
 O148 O 1.08170 -0.15214 0.40217
 O149 O 1.03935 -0.07202 0.32199
 C150 C 1.07272 -0.12880 0.33691
 O151 O 1.08403 -0.14593 0.60673
 O152 O 1.03167 -0.06847 0.68583
 C153 C 1.07053 -0.12213 0.67169
 O154 O 0.84244 -0.10283 0.39579
 O155 O 0.92310 -0.05380 0.31912
 C156 C 0.86757 -0.09113 0.33155
 Zr157 Zr 0.88172 -0.07165 0.49924
 O158 O 0.86010 -0.17991 0.50396
 O159 O 0.77365 -0.04916 0.48908
 Zr160 Zr 1.05534 -0.10580 0.50404
 O161 O 1.03501 -0.21414 0.50995
 O162 O 1.16447 -0.12491 0.49901
 Zr163 Zr 0.98976 -0.00256 0.39480
 Zr164 Zr 0.98276 -0.00229 0.61163
 O165 O 0.96427 -0.10135 0.56449
 O166 O 0.96774 -0.10223 0.43634
 O167 O 0.88391 0.01765 0.56537
 O168 O 1.08757 -0.02164 0.44351
 O169 O 0.88904 0.01702 0.43683
 O170 O 1.08430 -0.02189 0.57130
 H171 H 1.01187 0.13674 0.60299
 H172 H 1.12898 -0.02943 0.41197
 H173 H 0.95584 -0.14164 0.59651
 H174 H 0.84986 0.02493 0.40252
 H175 H 1.20996 0.01362 0.54342
 H176 H 1.18620 -0.10324 0.54283
 H177 H 1.00043 -0.22605 0.47151
 H178 H 0.88398 -0.20272 0.46224
 H179 H 0.76004 -0.02014 0.53171
 H180 H 0.78443 0.09742 0.53100
 H181 H 0.97372 0.22136 0.47553
 H182 H 1.09076 0.19835 0.47532
 N183 N 1.12873 0.14442 0.23104
 N184 N 1.15692 0.11541 0.28555
 N185 N 0.86589 -0.14909 0.21864
 N186 N 0.83160 -0.12156 0.27079
 N187 N 0.86033 0.13349 0.78879
 N188 N 0.86579 0.16119 0.72680
 N189 N 1.13005 -0.12099 0.78250
 N190 N 1.10150 -0.15652 0.73145
 N191 N 0.22533 1.12971 1.14692
 N192 N 0.28850 1.15085 1.15201
 N193 N 0.21462 0.87456 0.88078
 N194 N 0.27521 0.87262 0.85230
 N195 N 0.77838 0.86114 1.12389
 N196 N 0.71474 0.84971 1.14009
 N197 N 0.77852 1.14174 0.88774
 N198 N 0.71879 1.13614 0.85763
 N199 N 0.14311 0.22325 0.13064
 N200 N 0.14697 0.28666 0.15173
 N201 N -0.13131 0.22939 -0.12320
 N202 N -0.10862 0.27711 -0.16438
 N203 N 0.12363 0.78678 -0.12959
 N204 N 0.15529 0.72883 -0.12847
 N205 N -0.13646 0.76900 0.11812
 N206 N -0.14553 0.70601 0.13678
 N207 N 1.14037 0.15628 0.77078
 N208 N 1.14854 0.09662 0.74063
 N209 N 0.85337 -0.15318 0.77045
 N210 N 0.81888 -0.11724 0.72511
 N211 N 1.12661 -0.13136 0.22359
 N212 N 1.10612 -0.16535 0.27850
 N213 N 0.86336 0.13100 0.21809
 N214 N 0.88743 0.16264 0.27415
 N215 N 0.18347 0.24264 -0.15748
 N216 N 0.19337 0.30498 -0.14444
 N217 N -0.11737 0.22348 0.13186
 N218 N -0.14475 0.27366 0.09783
 N219 N -0.14247 0.76566 -0.12977
 N220 N -0.12014 0.71215 -0.16423
 N221 N 0.13821 0.77689 0.13062
 N222 N 0.12368 0.72135 0.16451
 N223 N 0.23174 1.13610 0.84998
 N224 N 0.28429 1.16208 0.88384
 N225 N 0.21777 0.87512 1.13437
 N226 N 0.27915 0.84991 1.13215
 N227 N 0.78037 1.14638 1.11999
 N228 N 0.72706 1.12533 1.15537
 N229 N 0.76926 0.85481 0.87029
 N230 N 0.71025 0.86503 0.84014
   
