data_POSCAR
  _audit_creation_date              2014-09-24
  _audit_creation_method            'ToBaCCo'
  _symmetry_space_group_name_H-M    'P1'
  _symmetry_Int_Tables_number       1
  _symmetry_cell_setting            triclinic
  loop_
  _symmetry_equiv_pos_as_xyz
 x,y,z
_cell_length_a 47.7833
_cell_length_b 47.3239
_cell_length_c 22.3921
_cell_angle_alpha 90.002400
_cell_angle_beta 90.011700
_cell_angle_gamma 118.948400
loop_
  _atom_site_label
  _atom_site_type_symbol
  _atom_site_fract_x
  _atom_site_fract_y
  _atom_site_fract_z
C1 C 0.49073 1.00037 0.47129
 C2 C 0.49047 1.00017 0.53213
 C3 C 0.47427 0.96964 0.56684
 C4 C 0.50591 1.03049 0.56758
 C5 C 0.50832 1.03078 0.43664
 C6 C 0.47348 0.97019 0.43589
 C7 C 0.45110 0.96565 0.60898
 C8 C 0.43591 0.93753 0.64301
 C9 C 0.44349 0.91213 0.63651
 C10 C 0.46733 0.91687 0.59368
 C11 C 0.48245 0.94517 0.55971
 C12 C 0.49755 1.05486 0.55932
 C13 C 0.51173 1.08285 0.59419
 C14 C 0.53429 1.08684 0.63840
 C15 C 0.54244 1.06227 0.64667
 C16 C 0.52832 1.03435 0.61173
 C17 C 0.54111 1.05155 0.44576
 C18 C 0.55730 1.07988 0.41222
 C19 C 0.54108 1.08779 0.36849
 C20 C 0.50831 1.06673 0.35918
 C21 C 0.49216 1.03850 0.39279
 C22 C 0.49018 0.96266 0.39292
 C23 C 0.47440 0.93470 0.35851
 C24 C 0.44148 0.91371 0.36615
 C25 C 0.42468 0.92147 0.40885
 C26 C 0.44052 0.94954 0.44325
 H27 H 0.44483 0.98456 0.61587
 H28 H 0.41953 0.93717 0.67657
 H29 H 0.47382 0.89849 0.58363
 H30 H 0.50056 0.94793 0.52762
 H31 H 0.47988 1.05209 0.52620
 H32 H 0.50509 1.10142 0.58645
 H33 H 0.53484 1.01567 0.61918
 H34 H 0.55417 1.04576 0.47867
 H35 H 0.58248 1.09567 0.42074
 H36 H 0.49526 1.07176 0.32509
 H37 H 0.46693 1.02264 0.38469
 H38 H 0.51554 0.97847 0.38612
 H39 H 0.48790 0.92980 0.32518
 H40 H 0.39936 0.90573 0.41595
 H41 H 0.42708 0.95523 0.47544
 H42 H 0.55925 1.06430 0.68104
 C43 C 0.00044 0.48484 0.47024
 C44 C 0.00063 0.48420 0.53101
 C45 C 0.03094 0.50004 0.56544
 C46 C -0.02938 0.46844 0.56645
 C47 C -0.02975 0.47139 0.43552
 C48 C 0.03053 0.50048 0.43516
 C49 C 0.03824 0.48174 0.60537
 C50 C 0.06637 0.49631 0.63889
 C51 C 0.08761 0.52959 0.63356
 C52 C 0.08009 0.54797 0.59389
 C53 C 0.05195 0.53332 0.56018
 C54 C -0.05223 0.43597 0.55719
 C55 C -0.08036 0.42169 0.59100
 C56 C -0.08600 0.43956 0.63502
 C57 C -0.06283 0.47192 0.64462
 C58 C -0.03481 0.48615 0.61079
 C59 C -0.05156 0.48284 0.44384
 C60 C -0.07936 0.47078 0.40935
 C61 C -0.08610 0.44695 0.36513
 C62 C -0.06382 0.43562 0.35756
 C63 C -0.03601 0.44787 0.39197
 C64 C 0.03604 0.52598 0.39660
 C65 C 0.06438 0.54150 0.36399
 C66 C 0.08769 0.53163 0.36881
 C67 C 0.08189 0.50562 0.40659
 C68 C 0.05352 0.49017 0.43959
 H69 H 0.02213 0.45610 0.61043
 H70 H 0.07123 0.48164 0.66983
 H71 H 0.09606 0.57361 0.58866
 H72 H 0.04644 0.54793 0.53026
 H73 H -0.04827 0.42170 0.52385
 H74 H -0.09780 0.39676 0.58234
 H75 H -0.01737 0.51116 0.61898
 H76 H -0.04698 0.50126 0.47697
 H77 H -0.09585 0.47969 0.41911
 H78 H -0.06672 0.41840 0.32315
 H79 H -0.01917 0.43908 0.38437
 H80 H 0.01849 0.53413 0.39233
 H81 H 0.06793 0.56108 0.33443
 H82 H 0.09948 0.49756 0.41122
 H83 H 0.04948 0.47026 0.46864
 H84 H -0.06612 0.48616 0.67895
 C85 C 0.50585 0.50704 0.47150
 C86 C 0.50565 0.50575 0.53227
 C87 C 0.49055 0.52073 0.56935
 C88 C 0.52165 0.49033 0.56535
 C89 C 0.52100 0.49197 0.43482
 C90 C 0.49167 0.52419 0.43825
 C91 C 0.50871 0.54306 0.61343
 C92 C 0.49529 0.55755 0.64902
 C93 C 0.46302 0.55011 0.64184
 C94 C 0.44477 0.52705 0.59773
 C95 C 0.45836 0.51252 0.56220
 C96 C 0.55442 0.50112 0.55857
 C97 C 0.56940 0.48727 0.59190
 C98 C 0.55203 0.46230 0.63353
 C99 C 0.51893 0.45168 0.63954
 C100 C 0.50411 0.46564 0.60619
 C101 C 0.51133 0.45891 0.43939
 C102 C 0.52619 0.44535 0.40482
 C103 C 0.55088 0.46460 0.36494
 C104 C 0.56011 0.49758 0.35996
 C105 C 0.54523 0.51107 0.39437
 C106 C 0.46835 0.50753 0.39467
 C107 C 0.45513 0.52329 0.36198
 C108 C 0.46511 0.55615 0.37190
 C109 C 0.48874 0.57292 0.41528
 C110 C 0.50199 0.55710 0.44801
 H111 H 0.53350 0.54937 0.62033
 H112 H 0.51030 0.57362 0.68369
 H113 H 0.42024 0.52079 0.58857
 H114 H 0.44376 0.49497 0.52885
 H115 H 0.56848 0.52045 0.52764
 H116 H 0.59448 0.49580 0.58332
 H117 H 0.47884 0.45734 0.61267
 H118 H 0.49234 0.44368 0.46977
 H119 H 0.51866 0.41990 0.40980
 H120 H 0.57862 0.51291 0.32886
 H121 H 0.55285 0.53657 0.38989
 H122 H 0.46036 0.48224 0.38603
 H123 H 0.43748 0.50985 0.32807
 H124 H 0.49684 0.59820 0.42411
 H125 H 0.52040 0.57053 0.48072
 H126 H 0.50436 0.43367 0.67206
 O127 O 0.38161 0.66484 -0.04693
 O128 O 0.37411 0.71488 -0.06865
 C129 C 0.35643 0.72713 -0.08136
 O130 O 0.33081 0.72014 -0.05316
 O131 O 0.28199 0.66279 -0.06921
 C132 C 0.26994 0.63266 -0.07777
 O133 O 0.27736 0.61488 -0.04634
 O134 O 0.33429 0.62125 -0.06288
 C135 C 0.36375 0.63874 -0.07462
 O136 O 0.37934 0.67471 0.07129
 O137 O 0.37388 0.72596 0.04945
 C138 C 0.35230 0.72900 0.07735
 O139 O 0.32275 0.71190 0.06587
 O140 O 0.27235 0.65569 0.04965
 C141 C 0.27028 0.63246 0.08131
 O142 O 0.28767 0.61940 0.07256
 O143 O 0.34352 0.62314 0.05599
 C144 C 0.36723 0.64501 0.08407
 Cr145 Cr 0.37543 0.69403 0.00130
 Cr146 Cr 0.30304 0.68686 -0.00160
 Cr147 Cr 0.31144 0.62149 0.00471
 O148 O 0.33000 0.66748 0.00143
 O149 O 0.62376 0.34537 -0.04666
 O150 O 0.62140 0.28968 -0.06378
 C151 C 0.63430 0.27227 -0.07433
 O152 O 0.65854 0.27512 -0.04553
 O153 O 0.71257 0.32692 -0.06866
 C154 C 0.72937 0.35669 -0.08031
 O155 O 0.72674 0.37843 -0.05137
 O156 O 0.67399 0.38085 -0.07066
 C157 C 0.64410 0.36824 -0.07901
 O158 O 0.62648 0.33727 0.07222
 O159 O 0.62114 0.28017 0.05500
 C160 C 0.64060 0.27419 0.08404
 O161 O 0.67020 0.28770 0.07228
 O162 O 0.72543 0.33806 0.04928
 C163 C 0.73120 0.36354 0.07813
 O164 O 0.71719 0.37984 0.06703
 O165 O 0.66638 0.38566 0.04760
 C166 C 0.64234 0.36755 0.07976
 Cr167 Cr 0.62489 0.31386 0.00412
 Cr168 Cr 0.69091 0.30792 0.00183
 Cr169 Cr 0.69515 0.37949 -0.00175
 O170 O 0.67032 0.33372 0.00141
 C171 C 0.39994 0.82927 -0.25531
 C172 C 0.38542 0.84861 -0.26251
 C173 C 0.39955 0.87574 -0.29917
 C174 C 0.42874 0.88461 -0.32926
 C175 C 0.44202 0.86378 -0.32108
 N176 N 0.42775 0.83758 -0.28463
 C177 C 0.38704 0.80126 -0.21399
 N178 N 0.40701 0.79044 -0.19344
 C179 C 0.39755 0.76613 -0.15287
 C180 C 0.36635 0.75144 -0.12970
 C181 C 0.34506 0.76144 -0.15173
 C182 C 0.35516 0.78604 -0.19406
 H183 H 0.38636 0.88872 -0.30484
 H184 H 0.46472 0.86889 -0.34012
 H185 H 0.41471 0.75901 -0.13749
 H186 H 0.32060 0.75041 -0.13595
 H187 H 0.36364 0.84352 -0.23937
 H188 H 0.33801 0.79284 -0.21058
 C189 C 0.17036 0.57266 -0.25396
 C190 C 0.16203 0.54323 -0.28270
 C191 C 0.13536 0.52946 -0.32008
 C192 C 0.11710 0.54499 -0.32959
 C193 C 0.12692 0.57496 -0.30190
 N194 N 0.15280 0.58775 -0.26513
 C195 C 0.19722 0.58755 -0.21092
 N196 N 0.21027 0.61966 -0.19867
 C197 C 0.23392 0.63473 -0.15761
 C198 C 0.24552 0.61716 -0.12516
 C199 C 0.23249 0.58406 -0.13726
 C200 C 0.20840 0.56919 -0.17981
 H201 H 0.12906 0.50670 -0.34175
 H202 H 0.11350 0.58774 -0.30793
 H203 H 0.24317 0.66028 -0.14968
 H204 H 0.24052 0.56945 -0.11315
 H205 H 0.17588 0.53091 -0.27692
 H206 H 0.19812 0.54345 -0.18649
 C207 C 0.42285 0.59375 -0.24674
 C208 C 0.45595 0.60931 -0.25663
 C209 C 0.46903 0.59522 -0.29399
 C210 C 0.44955 0.56518 -0.32178
 C211 C 0.41631 0.55067 -0.31092
 N212 N 0.40420 0.56494 -0.27402
 C213 C 0.40774 0.60684 -0.20516
 N214 N 0.37796 0.58660 -0.18357
 C215 C 0.36305 0.59633 -0.14328
 C216 C 0.37845 0.62815 -0.12158
 C217 C 0.40875 0.64965 -0.14443
 C218 C 0.42331 0.63925 -0.18642
 H219 H 0.49450 0.60872 -0.30187
 H220 H 0.39983 0.52726 -0.32898
 H221 H 0.33957 0.57899 -0.12719
 H222 H 0.42127 0.67458 -0.12982
 H223 H 0.47203 0.63186 -0.23515
 H224 H 0.44640 0.65666 -0.20374
 C225 C 0.57561 0.16966 -0.24689
 C226 C 0.54328 0.15605 -0.26350
 C227 C 0.52997 0.12938 -0.30155
 C228 C 0.54860 0.11603 -0.32303
 C229 C 0.58082 0.13039 -0.30548
 N230 N 0.59326 0.15632 -0.26824
 C231 C 0.59072 0.19713 -0.20467
 N232 N 0.61691 0.20145 -0.17324
 C233 C 0.63157 0.22548 -0.13237
 C234 C 0.61980 0.24699 -0.12091
 C235 C 0.59331 0.24347 -0.15394
 C236 C 0.57883 0.21875 -0.19586
 H237 H 0.50484 0.11866 -0.31276
 H238 H 0.59617 0.12108 -0.32139
 H239 H 0.65208 0.22742 -0.10837
 H240 H 0.58361 0.25971 -0.14726
 H241 H 0.52801 0.16507 -0.24605
 H242 H 0.55876 0.21696 -0.22117
 C243 C 0.83036 0.39799 -0.25435
 C244 C 0.84496 0.37943 -0.27024
 C245 C 0.87184 0.39273 -0.30720
 C246 C 0.88440 0.42449 -0.32827
 C247 C 0.86889 0.44208 -0.31190
 N248 N 0.84284 0.42866 -0.27567
 C249 C 0.80303 0.38607 -0.21234
 N250 N 0.79773 0.40805 -0.18224
 C251 C 0.77400 0.39928 -0.14120
 C252 C 0.75384 0.36654 -0.12799
 C253 C 0.75827 0.34341 -0.15972
 C254 C 0.78268 0.35301 -0.20194
 H255 H 0.88339 0.37851 -0.31771
 H256 H 0.87748 0.46650 -0.32772
 H257 H 0.77134 0.41798 -0.11828
 H258 H 0.74309 0.31786 -0.15155
 H259 H 0.83659 0.35534 -0.25290
 H260 H 0.78531 0.33465 -0.22606
 C261 C 0.59646 0.42281 -0.25571
 C262 C 0.61480 0.45370 -0.28028
 C263 C 0.60036 0.46647 -0.31768
 C264 C 0.56736 0.44889 -0.33079
 C265 C 0.55011 0.41774 -0.30547
 N266 N 0.56481 0.40592 -0.26925
 C267 C 0.60986 0.40857 -0.21293
 N268 N 0.58936 0.38424 -0.17661
 C269 C 0.59961 0.37056 -0.13467
 C270 C 0.63243 0.38149 -0.12698
 C271 C 0.65397 0.40599 -0.16495
 C272 C 0.64284 0.41945 -0.20803
 H273 H 0.61506 0.49095 -0.33316
 H274 H 0.52510 0.40217 -0.31528
 H275 H 0.58208 0.35157 -0.10677
 H276 H 0.67949 0.41491 -0.16121
 H277 H 0.63978 0.46859 -0.26925
 H278 H 0.66002 0.43796 -0.23706
 C279 C 0.83234 0.41250 0.25303
 C280 C 0.84461 0.44302 0.27981
 C281 C 0.87108 0.45413 0.31750
 C282 C 0.88610 0.43529 0.32864
 C283 C 0.87274 0.40471 0.30076
 N284 N 0.84682 0.39444 0.26448
 C285 C 0.80508 0.39979 0.21054
 N286 N 0.80038 0.37481 0.17407
 C287 C 0.77664 0.36236 0.13257
 C288 C 0.75597 0.37537 0.12543
 C289 C 0.75987 0.40060 0.16348
 C290 C 0.78414 0.41269 0.20620
 H291 H 0.88058 0.47835 0.33494
 H292 H 0.88204 0.38830 0.30879
 H293 H 0.77441 0.34276 0.10448
 H294 H 0.74418 0.41107 0.16024
 H295 H 0.83482 0.45891 0.27057
 H296 H 0.78607 0.43175 0.23533
 C297 C 0.58920 0.17176 0.25786
 C298 C 0.60481 0.15418 0.27378
 C299 C 0.58936 0.12716 0.31061
 C300 C 0.55833 0.11740 0.33157
 C301 C 0.54366 0.13576 0.31498
 N302 N 0.55914 0.16192 0.27886
 C303 C 0.60363 0.19954 0.21620
 N304 N 0.58400 0.20753 0.18500
 C305 C 0.59522 0.23176 0.14401
 C306 C 0.62813 0.24953 0.13199
 C307 C 0.64889 0.24235 0.16502
 C308 C 0.63681 0.21756 0.20718
 H309 H 0.60132 0.11334 0.32115
 H310 H 0.51989 0.12935 0.33063
 H311 H 0.57832 0.23660 0.12003
 H312 H 0.67449 0.25564 0.15787
 H313 H 0.62822 0.16037 0.25657
 H314 H 0.65342 0.21280 0.23228
 C315 C 0.59590 0.42502 0.25282
 C316 C 0.61459 0.45494 0.28094
 C317 C 0.59997 0.46759 0.31813
 C318 C 0.56684 0.45050 0.32796
 C319 C 0.54918 0.42019 0.30071
 N320 N 0.56392 0.40847 0.26422
 C321 C 0.60971 0.41100 0.21050
 N322 N 0.59336 0.37870 0.19931
 C323 C 0.60365 0.36422 0.15908
 C324 C 0.63184 0.38262 0.12637
 C325 C 0.64915 0.41595 0.13735
 C326 C 0.63821 0.43021 0.17913
 H327 H 0.61462 0.49069 0.33948
 H328 H 0.52358 0.40622 0.30695
 H329 H 0.58944 0.33846 0.15200
 H330 H 0.67091 0.43115 0.11297
 H331 H 0.64022 0.46844 0.27494
 H332 H 0.65151 0.45610 0.18505
 C333 C 0.17124 0.57958 0.25971
 C334 C 0.16035 0.59784 0.29197
 C335 C 0.13356 0.58221 0.32855
 C336 C 0.11771 0.54847 0.33385
 C337 C 0.13028 0.53120 0.30332
 N338 N 0.15621 0.54694 0.26718
 C339 C 0.19785 0.59473 0.21628
 N340 N 0.21464 0.57928 0.20142
 C341 C 0.23833 0.59112 0.15972
 C342 C 0.24591 0.61992 0.12932
 C343 C 0.22891 0.63620 0.14408
 C344 C 0.20495 0.62375 0.18723
 H345 H 0.12514 0.59650 0.35261
 H346 H 0.11881 0.50514 0.30637
 H347 H 0.25072 0.57768 0.14957
 H348 H 0.23377 0.65841 0.12171
 H349 H 0.17224 0.62390 0.28918
 H350 H 0.19157 0.63631 0.19599
 C351 C 0.39592 0.83059 0.25281
 C352 C 0.37975 0.84781 0.26733
 C353 C 0.39426 0.87451 0.30531
 C354 C 0.42484 0.88421 0.32874
 C355 C 0.43989 0.86599 0.31393
 N356 N 0.42538 0.84025 0.27665
 C357 C 0.38308 0.80351 0.20955
 N358 N 0.40403 0.79596 0.18215
 C359 C 0.39470 0.77215 0.14071
 C360 C 0.36238 0.75411 0.12432
 C361 C 0.34018 0.76095 0.15291
 C362 C 0.35039 0.78556 0.19553
 H363 H 0.38202 0.88819 0.31471
 H364 H 0.46325 0.87227 0.33166
 H365 H 0.41266 0.76757 0.12037
 H366 H 0.31497 0.74748 0.14209
 H367 H 0.35674 0.84166 0.24814
 H368 H 0.33275 0.79009 0.21730
 C369 C 0.42534 0.60185 0.26165
 C370 C 0.45795 0.61876 0.27685
 C371 C 0.47080 0.60421 0.31399
 C372 C 0.45138 0.57286 0.33590
 C373 C 0.41882 0.55709 0.32060
 N374 N 0.40691 0.57165 0.28414
 C375 C 0.41062 0.61463 0.21870
 N376 N 0.38316 0.59328 0.19069
 C377 C 0.36861 0.60249 0.14887
 C378 C 0.38180 0.63511 0.13253
 C379 C 0.40965 0.65775 0.16198
 C380 C 0.42408 0.64766 0.20510
 H381 H 0.49616 0.61704 0.32380
 H382 H 0.40285 0.53309 0.33717
 H383 H 0.34701 0.58418 0.12787
 H384 H 0.42052 0.68320 0.15125
 H385 H 0.47378 0.64238 0.25872
 H386 H 0.44536 0.66564 0.22736
   
