data_POSCAR
  _audit_creation_date              2014-09-24
  _audit_creation_method            'ToBaCCo'
  _symmetry_space_group_name_H-M    'P1'
  _symmetry_Int_Tables_number       1
  _symmetry_cell_setting            triclinic
  loop_
  _symmetry_equiv_pos_as_xyz
 x,y,z
_cell_length_a 47.6658
_cell_length_b 49.8386
_cell_length_c 44.0967
_cell_angle_alpha 91.337600
_cell_angle_beta 89.454600
_cell_angle_gamma 91.960300
loop_
  _atom_site_label
  _atom_site_type_symbol
  _atom_site_fract_x
  _atom_site_fract_y
  _atom_site_fract_z
C1 C 0.18939 0.19985 0.19860
 C2 C 0.21416 0.18984 0.18603
 C3 C 0.22844 0.20368 0.16292
 C4 C 0.21793 0.22765 0.15239
 C5 C 0.19318 0.23774 0.16491
 C6 C 0.17891 0.22384 0.18803
 H7 H 0.22221 0.17118 0.19406
 H8 H 0.22881 0.23833 0.13435
 H9 H 0.15965 0.23159 0.19755
 C10 C -0.21384 0.79847 0.22725
 C11 C -0.20142 0.77529 0.21540
 C12 C -0.21276 0.76203 0.18968
 C13 C -0.23654 0.77190 0.17586
 C14 C -0.24895 0.79503 0.18763
 C15 C -0.23764 0.80826 0.21334
 H16 H -0.18277 0.76783 0.22581
 H17 H -0.24507 0.76188 0.15571
 H18 H -0.24708 0.82639 0.22213
 C19 C -0.20882 0.21055 -0.23476
 C20 C -0.19837 0.23555 -0.22374
 C21 C -0.21411 0.25037 -0.20263
 C22 C -0.24028 0.24026 -0.19263
 C23 C -0.25074 0.21531 -0.20355
 C24 C -0.23504 0.20050 -0.22468
 H25 H -0.17789 0.24321 -0.23104
 H26 H -0.25213 0.25153 -0.17582
 H27 H -0.24294 0.18095 -0.23276
 C28 C 0.20573 0.79070 -0.24671
 C29 C 0.19472 0.76596 -0.23671
 C30 C 0.21001 0.75096 -0.21647
 C31 C 0.23629 0.76067 -0.20633
 C32 C 0.24729 0.78539 -0.21627
 C33 C 0.23202 0.80035 -0.23652
 H34 H 0.17415 0.75869 -0.24413
 H35 H 0.24779 0.74928 -0.19017
 H36 H 0.24025 0.81974 -0.24384
 C37 C 0.19183 1.20156 0.77637
 C38 C 0.18102 1.22341 0.79256
 C39 C 0.19197 1.23101 0.82094
 C40 C 0.21390 1.21681 0.83314
 C41 C 0.22480 1.19493 0.81692
 C42 C 0.21377 1.18733 0.78851
 H43 H 0.16368 1.23411 0.78339
 H44 H 0.22209 1.22244 0.85534
 H45 H 0.22183 1.17010 0.77621
 C46 C 0.80967 0.79995 0.76191
 C47 C 0.82167 0.77874 0.77692
 C48 C 0.81146 0.77115 0.80549
 C49 C 0.78911 0.78473 0.81901
 C50 C 0.77709 0.80593 0.80401
 C51 C 0.78734 0.81350 0.77546
 H52 H 0.83930 0.76856 0.76668
 H53 H 0.78143 0.77919 0.84133
 H54 H 0.77832 0.83024 0.76415
 C55 C 0.22663 0.77465 1.26416
 C56 C 0.25044 0.78730 1.25135
 C57 C 0.26335 0.77598 1.22564
 C58 C 0.25249 0.75184 1.21277
 C59 C 0.22870 0.73912 1.22570
 C60 C 0.21589 0.75050 1.25141
 H61 H 0.25839 0.80638 1.26072
 H62 H 0.26197 0.74344 1.19238
 H63 H 0.19700 0.74103 1.26081
 C64 C 0.80401 1.20913 1.24643
 C65 C 0.81209 1.23427 1.23518
 C66 C 0.79584 1.24616 1.21325
 C67 C 0.77130 1.23293 1.20259
 C68 C 0.76313 1.20776 1.21394
 C69 C 0.77948 1.19590 1.23587
 H70 H 0.83132 1.24437 1.24299
 H71 H 0.75896 1.24192 1.18523
 H72 H 0.77336 1.17623 1.24425
 O73 O 0.52565 0.97291 0.94134
 O74 O 0.47101 0.98900 1.06506
 O75 O 0.55283 0.98370 1.02226
 O76 O 0.46083 0.95322 0.97864
 O77 O 0.51527 0.96858 1.04396
 O78 O 0.47322 0.97146 0.93686
 O79 O 0.46444 0.96088 1.03014
 O80 O 0.55668 0.99544 0.96883
 C81 C 0.55030 0.97675 0.95012
 C82 C 0.46007 0.96726 1.05694
 C83 C 0.54034 0.96589 1.03724
 C84 C 0.46267 0.95213 0.95073
 O85 O 0.47245 1.02315 0.94085
 O86 O 0.51932 1.01235 1.07447
 O87 O 0.53516 1.04392 0.98303
 O88 O 0.44536 1.01298 1.02434
 O89 O 0.48338 1.03362 1.04131
 O90 O 0.52547 1.02544 0.93966
 O91 O 0.44081 1.00292 0.96981
 O92 O 0.53432 1.03410 1.03545
 Co93 Co 0.49922 0.99821 0.94498
 Co94 Co 0.50014 1.00127 1.04097
 Co95 Co 0.54078 1.01277 1.00189
 Co96 Co 0.45637 0.98383 1.00058
 O97 O 0.49802 0.99801 0.99500
 C98 C 0.44765 1.02011 0.95017
 C99 C 0.53752 1.02920 1.06318
 C100 C 0.53425 1.04525 0.95507
 C101 C 0.45756 1.03359 1.03619
 O102 O 0.02970 0.48906 0.04710
 O103 O 0.02612 0.52922 -0.05901
 O104 O -0.00155 0.45061 -0.02782
 O105 O 0.03855 0.53838 0.03416
 O106 O 0.02371 0.47922 -0.05394
 O107 O 0.01014 0.53188 0.06950
 O108 O 0.04546 0.54246 -0.01735
 O109 O 0.01142 0.45378 0.02541
 C110 C 0.03108 0.46489 0.04009
 C111 C 0.04610 0.54034 -0.04527
 C112 C 0.01915 0.45599 -0.04481
 C113 C 0.03270 0.54222 0.06120
 O114 O -0.03736 0.52164 0.04626
 O115 O -0.03132 0.48058 -0.05660
 O116 O -0.04011 0.47342 0.03902
 O117 O -0.00651 0.56163 -0.02532
 O118 O -0.02756 0.53131 -0.05542
 O119 O -0.01567 0.48627 0.07805
 O120 O -0.01556 0.55765 0.02973
 O121 O -0.05101 0.47358 -0.01346
 Co122 Co -0.00407 0.50456 0.04495
 Co123 Co -0.00223 0.50505 -0.05094
 Co124 Co -0.01862 0.46657 0.00531
 Co125 Co 0.01396 0.54663 0.00513
 O126 O -0.00166 0.50685 -0.00097
 C127 C -0.03683 0.54641 0.04208
 C128 C -0.05232 0.47323 -0.04146
 C129 C -0.03452 0.46989 0.06658
 C130 C -0.02405 0.55514 -0.04589
 O131 O 1.05707 0.02704 0.46533
 O132 O 0.96383 0.03150 0.53230
 O133 O 0.97797 0.01635 0.43662
 O134 O 1.01295 0.03778 0.53796
 O135 O 0.96656 0.03924 0.47758
 O136 O 1.05468 0.02794 0.52292
 O137 O 0.98063 0.01125 0.57134
 O138 O 1.02846 0.00953 0.43027
 C139 C 1.04827 0.02569 0.43847
 C140 C 0.96167 0.02667 0.56046
 C141 C 0.97001 0.03782 0.44946
 C142 C 1.03838 0.04384 0.53584
 O143 O 1.05299 -0.02631 0.52049
 O144 O 0.94368 -0.00813 0.46603
 O145 O 1.02094 -0.04203 0.44603
 O146 O 0.98787 -0.03193 0.54101
 O147 O 0.94967 -0.02094 0.51973
 O148 O 1.05904 -0.02450 0.46512
 O149 O 1.03131 -0.00707 0.55734
 O150 O 0.97309 -0.03710 0.45593
 Co151 Co 1.05118 0.00101 0.49384
 Co152 Co 0.96070 0.00904 0.49855
 Co153 Co 1.00000 -0.01223 0.44626
 Co154 Co 1.00003 0.00262 0.53733
 O155 O 1.00528 -0.00092 0.49212
 C156 C 1.04811 -0.02411 0.54812
 C157 C 0.94856 -0.03083 0.45604
 C158 C 1.04650 -0.04277 0.45042
 C159 C 0.96304 -0.03742 0.53449
 C160 C 1.17543 0.18587 0.22065
 C161 C 1.16354 0.17290 0.23998
 C162 C 1.14993 0.15669 0.26282
 C163 C 1.12952 0.16750 0.28213
 C164 C 1.11656 0.15163 0.30437
 C165 C 1.12390 0.12472 0.30762
 C166 C 1.14438 0.11407 0.28800
 C167 C 1.15727 0.12994 0.26580
 C168 C 1.11036 0.10779 0.33133
 C169 C 1.12627 0.08988 0.34772
 C170 C 1.11352 0.07360 0.36965
 C171 C 1.08470 0.07496 0.37556
 C172 C 1.06869 0.09282 0.35953
 C173 C 1.08142 0.10916 0.33759
 C174 C 1.07161 0.05780 0.39784
 C175 C 1.06087 0.04322 0.41643
 H176 H 1.12372 0.18821 0.28009
 H177 H 1.10111 0.16052 0.31932
 H178 H 1.15020 0.09334 0.28958
 H179 H 1.17297 0.12133 0.25093
 H180 H 1.14865 0.08862 0.34378
 H181 H 1.12614 0.05991 0.38197
 H182 H 1.04635 0.09399 0.36386
 H183 H 1.06853 0.12250 0.32513
 C184 C 0.79783 -0.18778 0.25136
 C185 C 0.80817 -0.17503 0.27226
 C186 C 0.82068 -0.15914 0.29663
 C187 C 0.82854 -0.17119 0.32348
 C188 C 0.84147 -0.15572 0.34665
 C189 C 0.84671 -0.12797 0.34324
 C190 C 0.83839 -0.11604 0.31629
 C191 C 0.82549 -0.13152 0.29319
 C192 C 0.86181 -0.11166 0.36703
 C193 C 0.85416 -0.08515 0.37396
 C194 C 0.86985 -0.06911 0.39452
 C195 C 0.89331 -0.07936 0.40852
 C196 C 0.90059 -0.10593 0.40244
 C197 C 0.88495 -0.12199 0.38190
 C198 C 0.91138 -0.06206 0.42695
 C199 C 0.92767 -0.04767 0.44107
 H200 H 0.82486 -0.19254 0.32643
 H201 H 0.84735 -0.16546 0.36723
 H202 H 0.84252 -0.09485 0.31270
 H203 H 0.81959 -0.12199 0.27247
 H204 H 0.83625 -0.07671 0.36322
 H205 H 0.86409 -0.04853 0.39893
 H206 H 0.91887 -0.11400 0.41290
 H207 H 0.89163 -0.14216 0.37679
 C208 C 0.80690 0.19538 0.74585
 C209 C 0.82060 0.18143 0.72905
 C210 C 0.83673 0.16423 0.70938
 C211 C 0.86591 0.16362 0.71237
 C212 C 0.88146 0.14630 0.69389
 C213 C 0.86801 0.12930 0.67218
 C214 C 0.83868 0.13018 0.66927
 C215 C 0.82317 0.14752 0.68775
 C216 C 0.88448 0.11067 0.65276
 C217 C 0.87410 0.08442 0.64606
 C218 C 0.88961 0.06694 0.62774
 C219 C 0.91567 0.07542 0.61586
 C220 C 0.92619 0.10145 0.62242
 C221 C 0.91074 0.11896 0.64074
 C222 C 0.93155 0.05762 0.59664
 C223 C 0.94511 0.04317 0.58030
 H224 H 0.87661 0.17634 0.72916
 H225 H 0.90395 0.14587 0.69698
 H226 H 0.82774 0.11763 0.65251
 H227 H 0.80060 0.14781 0.68525
 H228 H 0.85415 0.07730 0.65529
 H229 H 0.88127 0.04682 0.62285
 H230 H 0.94629 0.10828 0.61324
 H231 H 0.91916 0.13912 0.64512
 C232 C 1.18956 -0.19306 0.73381
 C233 C 1.17629 -0.17884 0.71793
 C234 C 1.16076 -0.16125 0.69938
 C235 C 1.14726 -0.17119 0.67319
 C236 C 1.13254 -0.15391 0.65505
 C237 C 1.13117 -0.12643 0.66287
 C238 C 1.14471 -0.11670 0.68933
 C239 C 1.15938 -0.13400 0.70743
 C240 C 1.11595 -0.10793 0.64337
 C241 C 1.12717 -0.08203 0.63767
 C242 C 1.11304 -0.06473 0.61903
 C243 C 1.08751 -0.07304 0.60586
 C244 C 1.07609 -0.09871 0.61150
 C245 C 1.09019 -0.11606 0.63011
 C246 C 1.07338 -0.05548 0.58600
 C247 C 1.06174 -0.04098 0.56896
 H248 H 1.14826 -0.19223 0.66669
 H249 H 1.12264 -0.16196 0.63463
 H250 H 1.14373 -0.09575 0.69619
 H251 H 1.16970 -0.12610 0.72770
 H252 H 1.14713 -0.07530 0.64718
 H253 H 1.12216 -0.04496 0.61468
 H254 H 1.05633 -0.10535 0.60142
 H255 H 1.08083 -0.13573 0.63436
 C256 C 0.25214 1.19340 1.15039
 C257 C 0.27289 1.18367 1.13957
 C258 C 0.29733 1.17115 1.12703
 C259 C 0.31270 1.15421 1.14493
 C260 C 0.33543 1.14068 1.13247
 C261 C 0.34314 1.14389 1.10184
 C262 C 0.32787 1.16136 1.08415
 C263 C 0.30511 1.17489 1.09668
 C264 C 0.36608 1.12798 1.08820
 C265 C 0.36308 1.11609 1.05908
 C266 C 0.38343 1.09905 1.04738
 C267 C 0.40708 1.09372 1.06452
 C268 C 0.41072 1.10612 1.09308
 C269 C 0.39040 1.12319 1.10483
 C270 C 0.42619 1.07371 1.05399
 C271 C 0.44117 1.05593 1.04564
 H272 H 0.30676 1.15103 1.16839
 H273 H 0.34641 1.12706 1.14657
 H274 H 0.33346 1.16446 1.06060
 H275 H 0.29335 1.18795 1.08261
 H276 H 0.34447 1.11907 1.04586
 H277 H 0.38028 1.08937 1.02535
 H278 H 0.42889 1.10206 1.10660
 H279 H 0.39351 1.13232 1.12711
 C280 C 0.27187 0.79568 0.79531
 C281 C 0.29316 0.80522 0.80622
 C282 C 0.31785 0.81730 0.82006
 C283 C 0.32862 0.84203 0.81001
 C284 C 0.35094 0.85509 0.82522
 C285 C 0.36277 0.84360 0.85079
 C286 C 0.35233 0.81835 0.86018
 C287 C 0.32999 0.80531 0.84491
 C288 C 0.38446 0.85885 0.86872
 C289 C 0.38296 0.85951 0.90062
 C290 C 0.40137 0.87621 0.91753
 C291 C 0.42159 0.89237 0.90283
 C292 C 0.42396 0.89111 0.87117
 C293 C 0.40556 0.87441 0.85421
 C294 C 0.43775 0.91225 0.91995
 C295 C 0.44992 0.92992 0.93416
 H296 H 0.31923 0.85157 0.79093
 H297 H 0.35818 0.87468 0.81770
 H298 H 0.36118 0.80888 0.87958
 H299 H 0.32177 0.78619 0.85292
 H300 H 0.36671 0.84810 0.91247
 H301 H 0.39915 0.87727 0.94200
 H302 H 0.43944 0.90365 0.85955
 H303 H 0.40745 0.87409 0.82971
 C304 C 0.72752 0.80597 1.17254
 C305 C 0.70818 0.81569 1.15979
 C306 C 0.68556 0.82806 1.14455
 C307 C 0.66809 0.84539 1.16070
 C308 C 0.64730 0.85887 1.14564
 C309 C 0.64373 0.85522 1.11415
 C310 C 0.66104 0.83732 1.09821
 C311 C 0.68183 0.82384 1.11334
 C312 C 0.62307 0.87116 1.09790
 C313 C 0.63018 0.88263 1.06987
 C314 C 0.61183 0.89971 1.05591
 C315 C 0.58610 0.90548 1.06969
 C316 C 0.57842 0.89350 1.09707
 C317 C 0.59674 0.87640 1.11107
 C318 C 0.56886 0.92557 1.05724
 C319 C 0.55530 0.94344 1.04762
 H320 H 0.67092 0.84894 1.18483
 H321 H 0.63465 0.87283 1.15849
 H322 H 0.65861 0.83387 1.07403
 H323 H 0.69526 0.81047 1.10061
 H324 H 0.65041 0.87930 1.05933
 H325 H 0.61810 0.90908 1.03487
 H326 H 0.55861 0.89792 1.10801
 H327 H 0.59051 0.86761 1.13243
 C328 C 0.72475 1.20471 0.80782
 C329 C 0.70351 1.19495 0.81854
 C330 C 0.67884 1.18268 0.83211
 C331 C 0.66699 1.19412 0.85833
 C332 C 0.64464 1.18088 0.87313
 C333 C 0.63389 1.15598 0.86190
 C334 C 0.64543 1.14506 0.83502
 C335 C 0.66778 1.15832 0.82028
 C336 C 0.61216 1.14048 0.87915
 C337 C 0.59082 1.12549 0.86394
 C338 C 0.57239 1.10850 0.87999
 C339 C 0.57496 1.10637 0.91142
 C340 C 0.59541 1.12198 0.92690
 C341 C 0.61386 1.13897 0.91091
 C342 C 0.55886 1.08608 0.92725
 C343 C 0.54679 1.06800 0.94021
 H344 H 0.67544 1.21296 0.86770
 H345 H 0.63601 1.18993 0.89359
 H346 H 0.63796 1.12574 0.82605
 H347 H 0.67692 1.14920 0.80012
 H348 H 0.58878 1.12647 0.83956
 H349 H 0.55674 1.09637 0.86776
 H350 H 0.59781 1.12025 0.95118
 H351 H 0.63028 1.14994 0.92324
 C352 C 0.18209 0.26204 0.15352
 C353 C 0.17265 0.28223 0.14373
 C354 C 0.16103 0.30609 0.13184
 C355 C 0.16938 0.31516 0.10323
 C356 C 0.15720 0.33768 0.09115
 C357 C 0.13646 0.35143 0.10758
 C358 C 0.12852 0.34236 0.13652
 C359 C 0.14072 0.31985 0.14853
 C360 C 0.12220 0.37438 0.09416
 C361 C 0.11493 0.39675 0.11229
 C362 C 0.09926 0.41715 0.10029
 C363 C 0.09075 0.41555 0.06999
 C364 C 0.09867 0.39384 0.05150
 C365 C 0.11434 0.37342 0.06345
 C366 C 0.07142 0.43452 0.05883
 C367 C 0.05381 0.44920 0.04997
 H368 H 0.18511 0.30468 0.09012
 H369 H 0.16396 0.34431 0.06897
 H370 H 0.11231 0.35220 0.14955
 H371 H 0.13399 0.31294 0.17064
 H372 H 0.12099 0.39826 0.13589
 H373 H 0.09310 0.43376 0.11488
 H374 H 0.09191 0.39223 0.02811
 H375 H 0.11926 0.35634 0.04898
 C376 C -0.20281 0.27516 -0.18962
 C377 C -0.19348 0.29554 -0.17769
 C378 C -0.18223 0.31931 -0.16238
 C379 C -0.17953 0.34368 -0.17745
 C380 C -0.16789 0.36648 -0.16253
 C381 C -0.15883 0.36514 -0.13232
 C382 C -0.16203 0.34060 -0.11730
 C383 C -0.17364 0.31789 -0.13224
 C384 C -0.14469 0.38868 -0.11691
 C385 C -0.14931 0.39410 -0.08582
 C386 C -0.13350 0.41426 -0.07056
 C387 C -0.11302 0.42938 -0.08620
 C388 C -0.10913 0.42492 -0.11739
 C389 C -0.12488 0.40477 -0.13269
 C390 C -0.09355 0.44686 -0.06980
 C391 C -0.07562 0.45992 -0.05648
 H392 H -0.18621 0.34503 -0.20077
 H393 H -0.16593 0.38512 -0.17462
 H394 H -0.15482 0.33874 -0.09426
 H395 H -0.17559 0.29911 -0.12037
 H396 H -0.16468 0.38232 -0.07314
 H397 H -0.13654 0.41738 -0.04637
 H398 H -0.09307 0.43625 -0.12966
 H399 H -0.12055 0.40091 -0.15651
 C400 C 0.19809 0.72647 -0.20443
 C401 C 0.18819 0.70635 -0.19335
 C402 C 0.17626 0.68288 -0.17905
 C403 C 0.14961 0.67280 -0.18736
 C404 C 0.13709 0.65132 -0.17183
 C405 C 0.15106 0.63967 -0.14768
 C406 C 0.17813 0.64954 -0.13999
 C407 C 0.19062 0.67102 -0.15558
 C408 C 0.13669 0.61846 -0.12954
 C409 C 0.13847 0.61921 -0.09768
 C410 C 0.12269 0.60094 -0.08035
 C411 C 0.10504 0.58160 -0.09459
 C412 C 0.10388 0.58007 -0.12629
 C413 C 0.11964 0.59833 -0.14367
 C414 C 0.08584 0.56543 -0.07676
 C415 C 0.06843 0.55318 -0.06210
 H416 H 0.13823 0.68195 -0.20535
 H417 H 0.11607 0.64447 -0.17800
 H418 H 0.18953 0.64082 -0.12174
 H419 H 0.21125 0.67870 -0.14893
 H420 H 0.15109 0.63467 -0.08609
 H421 H 0.12348 0.60253 -0.05582
 H422 H 0.09014 0.56530 -0.13754
 H423 H 0.11808 0.59704 -0.16815
 C424 C -0.19937 0.73897 0.17656
 C425 C -0.18808 0.71995 0.16502
 C426 C -0.17438 0.69759 0.15073
 C427 C -0.18120 0.68956 0.12099
 C428 C -0.16708 0.66859 0.10660
 C429 C -0.14592 0.65535 0.12179
 C430 C -0.13950 0.66335 0.15184
 C431 C -0.15362 0.68433 0.16617
 C432 C -0.12988 0.63397 0.10610
 C433 C -0.12208 0.61111 0.12172
 C434 C -0.10533 0.59195 0.10754
 C435 C -0.09621 0.59530 0.07756
 C436 C -0.10442 0.61761 0.06158
 C437 C -0.12119 0.63680 0.07570
 C438 C -0.07657 0.57708 0.06413
 C439 C -0.05905 0.56258 0.05360
 H440 H -0.19725 0.69967 0.10883
 H441 H -0.17272 0.66272 0.08360
 H442 H -0.12304 0.65386 0.16400
 H443 H -0.14807 0.69046 0.18914
 H444 H -0.12873 0.60818 0.14499
 H445 H -0.09900 0.57481 0.12018
 H446 H -0.09725 0.62055 0.03846
 H447 H -0.12651 0.65432 0.06317
 C448 C 1.17906 0.19276 0.74828
 C449 C 1.16755 0.18510 0.72531
 C450 C 1.15300 0.17536 0.69861
 C451 C 1.16485 0.15567 0.67989
 C452 C 1.14963 0.14440 0.65554
 C453 C 1.12230 0.15266 0.64967
 C454 C 1.11090 0.17304 0.66811
 C455 C 1.12617 0.18430 0.69244
 C456 C 1.10513 0.13859 0.62589
 C457 C 1.07686 0.13126 0.63177
 C458 C 1.06163 0.11504 0.61105
 C459 C 1.07440 0.10607 0.58415
 C460 C 1.10211 0.11424 0.57747
 C461 C 1.11738 0.13046 0.59817
 C462 C 1.06045 0.08578 0.56551
 C463 C 1.04973 0.06735 0.55119
 H464 H 1.18552 0.14848 0.68460
 H465 H 1.15882 0.12846 0.64209
 H466 H 1.09003 0.17999 0.66398
 H467 H 1.11680 0.19952 0.70685
 H468 H 1.06694 0.13688 0.65307
 H469 H 1.04032 0.10854 0.61663
 H470 H 1.11226 0.10723 0.55682
 H471 H 1.13899 0.13605 0.59286
 C472 C 0.82090 -0.19152 0.73516
 C473 C 0.83141 -0.18343 0.71199
 C474 C 0.84462 -0.17288 0.68512
 C475 C 0.83399 -0.15023 0.67172
 C476 C 0.84837 -0.13820 0.64757
 C477 C 0.87367 -0.14864 0.63653
 C478 C 0.88370 -0.17195 0.64951
 C479 C 0.86926 -0.18396 0.67369
 C480 C 0.89053 -0.13392 0.61336
 C481 C 0.91978 -0.13045 0.61662
 C482 C 0.93527 -0.11365 0.59728
 C483 C 0.92178 -0.10020 0.57436
 C484 C 0.89291 -0.10447 0.57004
 C485 C 0.87737 -0.12129 0.58936
 C486 C 0.93683 -0.07952 0.55807
 C487 C 0.94908 -0.06092 0.54624
 H488 H 0.81505 -0.14137 0.68055
 H489 H 0.84033 -0.12004 0.63843
 H490 H 0.90295 -0.18061 0.64132
 H491 H 0.87770 -0.20147 0.68396
 H492 H 0.93050 -0.13957 0.63510
 H493 H 0.95754 -0.11022 0.60107
 H494 H 0.88222 -0.09400 0.55251
 H495 H 0.85495 -0.12382 0.58606
 C496 C 1.21237 -0.21295 0.28706
 C497 C 1.19903 -0.20151 0.30643
 C498 C 1.18234 -0.18719 0.32829
 C499 C 1.15514 -0.19668 0.33533
 C500 C 1.13776 -0.18135 0.35405
 C501 C 1.14738 -0.15628 0.36590
 C502 C 1.17506 -0.14730 0.35941
 C503 C 1.19239 -0.16266 0.34067
 C504 C 1.12820 -0.13878 0.38337
 C505 C 1.13795 -0.12348 0.40857
 C506 C 1.12046 -0.10536 0.42342
 C507 C 1.09303 -0.10235 0.41331
 C508 C 1.08290 -0.11796 0.38875
 C509 C 1.10035 -0.13610 0.37388
 C510 C 1.07593 -0.08207 0.42692
 C511 C 1.06213 -0.06445 0.43783
 H512 H 1.14713 -0.21561 0.32575
 H513 H 1.11667 -0.18891 0.35894
 H514 H 1.18294 -0.12793 0.36782
 H515 H 1.21332 -0.15503 0.33512
 H516 H 1.15919 -0.12532 0.41658
 H517 H 1.12850 -0.09332 0.44240
 H518 H 1.06176 -0.11563 0.38062
 H519 H 1.09236 -0.14730 0.35429
 C520 C 0.82077 0.19708 0.26649
 C521 C 0.83601 0.18638 0.28381
 C522 C 0.85447 0.17338 0.30397
 C523 C 0.88281 0.17087 0.29619
 C524 C 0.90058 0.15726 0.31512
 C525 C 0.89017 0.14600 0.34211
 C526 C 0.86174 0.14900 0.34995
 C527 C 0.84402 0.16260 0.33097
 C528 C 0.90846 0.13009 0.36135
 C529 C 0.90642 0.13198 0.39317
 C530 C 0.92176 0.11518 0.41120
 C531 C 0.93937 0.09636 0.39769
 C532 C 0.94227 0.09494 0.36610
 C533 C 0.92697 0.11174 0.34802
 C534 C 0.95206 0.07671 0.41601
 C535 C 0.96117 0.05938 0.43133
 H536 H 0.89111 0.17920 0.27533
 H537 H 0.92242 0.15550 0.30865
 H538 H 0.85300 0.14019 0.37033
 H539 H 0.82208 0.16434 0.33713
 H540 H 0.89263 0.14615 0.40408
 H541 H 0.91924 0.11632 0.43564
 H542 H 0.95560 0.08023 0.35541
 H543 H 0.92872 0.10958 0.32359
 C544 C 0.17942 0.25249 -0.16202
 C545 C 0.16776 0.27022 -0.14845
 C546 C 0.15259 0.29104 -0.13313
 C547 C 0.16267 0.31773 -0.13361
 C548 C 0.14668 0.33816 -0.12078
 C549 C 0.12035 0.33210 -0.10745
 C550 C 0.11072 0.30514 -0.10649
 C551 C 0.12674 0.28477 -0.11928
 C552 C 0.10250 0.35386 -0.09563
 C553 C 0.07349 0.35299 -0.10136
 C554 C 0.05668 0.37372 -0.09089
 C555 C 0.06860 0.39556 -0.07455
 C556 C 0.09740 0.39656 -0.06856
 C557 C 0.11429 0.37586 -0.07907
 C558 C 0.05123 0.41696 -0.06412
 C559 C 0.03656 0.43482 -0.05541
 H560 H 0.18256 0.32281 -0.14448
 H561 H 0.15450 0.35876 -0.12214
 H562 H 0.09072 0.29983 -0.09602
 H563 H 0.11873 0.26417 -0.11884
 H564 H 0.06389 0.33652 -0.11442
 H565 H 0.03441 0.37279 -0.09571
 H566 H 0.10680 0.41336 -0.05583
 H567 H 0.13650 0.37693 -0.07407
 C568 C -0.19439 0.27122 0.20073
 C569 C -0.18466 0.29181 0.19064
 C570 C -0.17140 0.31580 0.17891
 C571 C -0.17216 0.32077 0.14784
 C572 C -0.15683 0.34261 0.13603
 C573 C -0.14044 0.35970 0.15517
 C574 C -0.14041 0.35493 0.18648
 C575 C -0.15577 0.33310 0.19824
 C576 C -0.12236 0.38150 0.14225
 C577 C -0.09473 0.38611 0.15262
 C578 C -0.07698 0.40533 0.13902
 C579 C -0.08665 0.42025 0.11500
 C580 C -0.11429 0.41624 0.10499
 C581 C -0.13205 0.39701 0.11852
 C582 C -0.06783 0.43845 0.09931
 C583 C -0.05234 0.45313 0.08505
 H584 H -0.18395 0.30735 0.13263
 H585 H -0.15698 0.34553 0.11178
 H586 H -0.12826 0.36791 0.20182
 H587 H -0.15494 0.32936 0.22232
 H588 H -0.08652 0.37423 0.17055
 H589 H -0.05556 0.40813 0.14679
 H590 H -0.12195 0.42765 0.08635
 H591 H -0.15329 0.39413 0.11028
 C592 C -0.17575 0.75149 -0.17942
 C593 C -0.16369 0.73437 -0.16637
 C594 C -0.14842 0.71429 -0.15121
 C595 C -0.16199 0.69043 -0.14211
 C596 C -0.14678 0.67070 -0.12814
 C597 C -0.11778 0.67461 -0.12321
 C598 C -0.10443 0.69878 -0.13220
 C599 C -0.11966 0.71846 -0.14611
 C600 C -0.10138 0.65344 -0.10918
 C601 C -0.07450 0.64756 -0.12042
 C602 C -0.05900 0.62764 -0.10730
 C603 C -0.07012 0.61334 -0.08279
 C604 C -0.09683 0.61901 -0.07141
 C605 C -0.11241 0.63893 -0.08453
 C606 C -0.05408 0.59279 -0.06948
 C607 C -0.04043 0.57559 -0.05860
 H608 H -0.18423 0.68697 -0.14605
 H609 H -0.15757 0.65218 -0.12177
 H610 H -0.08223 0.70254 -0.12832
 H611 H -0.10897 0.73689 -0.15303
 H612 H -0.06561 0.65811 -0.13963
 H613 H -0.03838 0.62333 -0.11635
 H614 H -0.10560 0.60808 -0.05239
 H615 H -0.13290 0.64321 -0.07517
 C616 C 0.21561 0.71573 0.21139
 C617 C 0.20307 0.69677 0.19988
 C618 C 0.18653 0.67495 0.18655
 C619 C 0.16686 0.66082 0.20438
 C620 C 0.14869 0.64147 0.19103
 C621 C 0.14992 0.63602 0.15962
 C622 C 0.17028 0.64983 0.14201
 C623 C 0.18841 0.66922 0.15541
 C624 C 0.12921 0.61706 0.14498
 C625 C 0.13748 0.59952 0.12135
 C626 C 0.11758 0.58301 0.10623
 C627 C 0.08920 0.58377 0.11453
 C628 C 0.08083 0.60072 0.13843
 C629 C 0.10070 0.61723 0.15362
 C630 C 0.06859 0.56846 0.09716
 C631 C 0.05180 0.55618 0.08144
 H632 H 0.16515 0.66520 0.22850
 H633 H 0.13348 0.63095 0.20522
 H634 H 0.17150 0.64636 0.11771
 H635 H 0.20336 0.68022 0.14135
 H636 H 0.15929 0.59873 0.11442
 H637 H 0.12428 0.57002 0.08769
 H638 H 0.05888 0.60163 0.14487
 H639 H 0.09361 0.63077 0.17143
 C640 C 0.24635 1.17943 0.82998
 C641 C 0.26406 1.16601 0.84089
 C642 C 0.28485 1.14952 0.85381
 C643 C 0.27984 1.12177 0.85545
 C644 C 0.29998 1.10560 0.86783
 C645 C 0.32544 1.11700 0.87877
 C646 C 0.33024 1.14495 0.87713
 C647 C 0.31006 1.16110 0.86470
 C648 C 0.34693 1.09976 0.89164
 C649 C 0.36193 1.10814 0.91772
 C650 C 0.38218 1.09186 0.92975
 C651 C 0.38773 1.06704 0.91587
 C652 C 0.37292 1.05851 0.88995
 C653 C 0.35264 1.07474 0.87791
 C654 C 0.40876 1.05040 0.92805
 C655 C 0.42647 1.03650 0.93815
 H656 H 0.26034 1.11262 0.84718
 H657 H 0.29550 1.08421 0.86915
 H658 H 0.34977 1.15427 0.88502
 H659 H 0.31417 1.18256 0.86347
 H660 H 0.35776 1.12714 0.92901
 H661 H 0.39348 1.09862 0.94988
 H662 H 0.37713 1.03938 0.87898
 H663 H 0.34172 1.06788 0.85760
 C664 C 0.28624 0.79054 1.21130
 C665 C 0.30473 0.80389 1.19957
 C666 C 0.32598 0.82095 1.18579
 C667 C 0.33799 0.84261 1.20243
 C668 C 0.35701 0.86052 1.18853
 C669 C 0.36426 0.85701 1.15772
 C670 C 0.35251 0.83486 1.14135
 C671 C 0.33346 0.81699 1.15530
 C672 C 0.38313 0.87690 1.14239
 C673 C 0.40329 0.86844 1.12104
 C674 C 0.41996 0.88726 1.10543
 C675 C 0.41675 0.91477 1.11093
 C676 C 0.39712 0.92339 1.13251
 C677 C 0.38045 0.90460 1.14819
 C678 C 0.43252 0.93400 1.09318
 C679 C 0.44532 0.94959 1.07726
 H680 H 0.33228 0.84591 1.22604
 H681 H 0.36595 0.87718 1.20182
 H682 H 0.35736 0.83181 1.11751
 H683 H 0.32411 0.80043 1.14214
 H684 H 0.40609 0.84727 1.11634
 H685 H 0.43506 0.88036 1.08872
 H686 H 0.39431 0.94463 1.13679
 H687 H 0.36487 0.91176 1.16418
 C688 C 0.73879 1.19329 1.20214
 C689 C 0.71888 1.18041 1.19230
 C690 C 0.69568 1.16426 1.18050
 C691 C 0.68317 1.17085 1.15320
 C692 C 0.66167 1.15430 1.14093
 C693 C 0.65243 1.13087 1.15580
 C694 C 0.66487 1.12465 1.18347
 C695 C 0.68635 1.14124 1.19570
 C696 C 0.63059 1.11257 1.14198
 C697 C 0.63330 1.08455 1.14245
 C698 C 0.61350 1.06734 1.12813
 C699 C 0.59070 1.07789 1.11324
 C700 C 0.58755 1.10570 1.11308
 C701 C 0.60733 1.12295 1.12736
 C702 C 0.57140 1.06031 1.09671
 C703 C 0.55567 1.04588 1.08195
 H704 H 0.69036 1.18853 1.14115
 H705 H 0.65280 1.15944 1.11940
 H706 H 0.65799 1.10695 1.19563
 H707 H 0.69590 1.13594 1.21685
 H708 H 0.65116 1.07595 1.15313
 H709 H 0.61628 1.04586 1.12818
 H710 H 0.57000 1.11408 1.10155
 H711 H 0.60448 1.14439 1.12692
 C712 C 0.75515 0.82086 0.81846
 C713 C 0.73712 0.83389 0.83044
 C714 C 0.71593 0.84999 0.84454
 C715 C 0.71672 0.87779 0.84068
 C716 C 0.69623 0.89359 0.85426
 C717 C 0.67462 0.88177 0.87194
 C718 C 0.67405 0.85380 0.87579
 C719 C 0.69458 0.83802 0.86215
 C720 C 0.65272 0.89858 0.88613
 C721 C 0.64297 0.89372 0.91579
 C722 C 0.62239 0.90965 0.92907
 C723 C 0.61128 0.93059 0.91289
 C724 C 0.62082 0.93557 0.88339
 C725 C 0.64139 0.91970 0.87008
 C726 C 0.58993 0.94688 0.92638
 C727 C 0.57191 0.96055 0.93736
 H728 H 0.73322 0.88727 0.82720
 H729 H 0.69748 0.91509 0.85122
 H730 H 0.65751 0.84408 0.88896
 H731 H 0.69375 0.81651 0.86525
 H732 H 0.65151 0.87783 0.92885
 H733 H 0.61517 0.90565 0.95196
 H734 H 0.61227 0.95166 0.87062
 H735 H 0.64817 0.92371 0.84707
   
