data_POSCAR
  _audit_creation_date              2014-09-24
  _audit_creation_method            'ToBaCCo'
  _symmetry_space_group_name_H-M    'P1'
  _symmetry_Int_Tables_number       1
  _symmetry_cell_setting            triclinic
  loop_
  _symmetry_equiv_pos_as_xyz
 x,y,z
_cell_length_a 30.3417
_cell_length_b 30.1889
_cell_length_c 22.3752
_cell_angle_alpha 90.271700
_cell_angle_beta 89.838300
_cell_angle_gamma 89.972100
loop_
  _atom_site_label
  _atom_site_type_symbol
  _atom_site_fract_x
  _atom_site_fract_y
  _atom_site_fract_z
Zr1 Zr -0.07730 -0.00312 -0.00187
 O2 O -0.12779 -0.03853 -0.04644
 O3 O -0.11352 0.03431 0.05957
 O4 O -0.11030 -0.04735 0.05658
 O5 O -0.06590 0.07925 -0.10791
 O6 O -0.05399 -0.08649 0.09830
 O7 O -0.11641 0.03906 -0.05514
 O8 O -0.06042 0.07401 0.10804
 O9 O -0.03731 -0.00485 0.07432
 O10 O -0.04065 0.05571 -0.00161
 O11 O -0.03857 -0.06032 -0.01169
 O12 O -0.04338 -0.00123 -0.08448
 Zr13 Zr 0.07654 -0.00166 -0.01712
 Zr14 Zr 0.00385 -0.05978 0.06199
 Zr15 Zr -0.00399 0.05597 -0.08044
 Zr16 Zr 0.00045 0.05285 0.07195
 O17 O -0.00589 0.05283 -0.17481
 O18 O 0.00268 0.03835 0.16454
 O19 O 0.03846 0.05642 -0.00672
 O20 O 0.04197 -0.00212 0.06473
 O21 O 0.04015 -0.06050 -0.01722
 O22 O 0.03613 0.00045 -0.09255
 C23 C -0.10081 0.06346 0.09751
 C24 C -0.10567 0.06942 -0.09276
 C25 C -0.09505 -0.07801 0.09083
 O26 O 0.00934 -0.05732 0.15619
 O27 O 0.06595 -0.08474 0.08623
 O28 O 0.11620 -0.04256 0.03634
 C29 C 0.10573 -0.07345 0.07297
 O30 O -0.06246 -0.07717 -0.12970
 Zr31 Zr -0.00198 -0.05674 -0.09058
 O32 O 0.11201 -0.04531 -0.07347
 O33 O 0.00379 -0.12933 0.04972
 O34 O -0.00632 -0.12667 -0.08350
 O35 O 0.00169 -0.04572 -0.18394
 O36 O 0.05761 -0.08519 -0.11864
 C37 C 0.09818 -0.07709 -0.10721
 O38 O 0.12773 0.03368 0.02622
 O39 O -0.00684 0.12566 -0.06977
 O40 O 0.10949 0.04268 -0.07440
 O41 O 0.05446 0.08679 -0.10960
 O42 O -0.00175 0.12282 0.06428
 O43 O 0.05899 0.08198 0.10629
 C44 C 0.09536 0.07624 -0.10393
 H45 H -0.05899 0.08277 0.00070
 H46 H 0.06220 -0.00196 0.09935
 H47 H 0.05325 0.00200 -0.13022
 H48 H -0.05711 -0.08728 -0.01298
 H49 H -0.00624 0.06552 0.18645
 H50 H 0.01008 -0.08840 0.17020
 H51 H 0.00686 -0.14270 0.08987
 H52 H -0.00076 -0.13940 -0.12374
 H53 H -0.00925 0.13509 0.10421
 H54 H -0.00949 0.13859 -0.11025
 H55 H -0.00597 0.08386 -0.18901
 H56 H 0.00885 -0.07461 -0.20274
 H57 H 0.05173 0.10013 0.14197
 H58 H 0.15615 0.02348 0.00887
 H59 H -0.15628 -0.02856 -0.02912
 H60 H -0.05656 -0.09890 -0.16205
 Zr61 Zr 0.57932 0.50510 0.49020
 O62 O 0.63044 0.53933 0.53510
 O63 O 0.61515 0.46555 0.43068
 O64 O 0.61843 0.46169 0.54158
 O65 O 0.55522 0.59155 0.39523
 O66 O 0.56802 0.42072 0.59340
 O67 O 0.61189 0.55108 0.43363
 O68 O 0.56240 0.41856 0.39560
 O69 O 0.54310 0.44594 0.49200
 O70 O 0.53856 0.50578 0.41498
 O71 O 0.54528 0.50438 0.57235
 O72 O 0.54119 0.56306 0.49859
 Zr73 Zr 0.42579 0.50444 0.50702
 Zr74 Zr 0.50616 0.44702 0.57094
 Zr75 Zr 0.49777 0.56098 0.42563
 Zr76 Zr 0.50130 0.44814 0.41870
 O77 O 0.49419 0.63086 0.43338
 O78 O 0.49559 0.37851 0.42850
 O79 O 0.45914 0.50357 0.42391
 O80 O 0.46386 0.44652 0.49739
 O81 O 0.46620 0.50291 0.58269
 O82 O 0.46269 0.56274 0.50529
 C83 C 0.60283 0.43085 0.40218
 C84 C 0.59626 0.58315 0.40206
 C85 C 0.60779 0.43067 0.57826
 O86 O 0.50520 0.37732 0.56037
 O87 O 0.44738 0.42017 0.60648
 O88 O 0.39298 0.46385 0.56864
 C89 C 0.40664 0.43152 0.60065
 O90 O 0.56503 0.58857 0.60815
 Zr91 Zr 0.50488 0.56004 0.57828
 O92 O 0.39099 0.54640 0.56620
 O93 O 0.51192 0.45066 0.66500
 O94 O 0.50880 0.54701 0.67118
 O95 O 0.50257 0.63001 0.57061
 O96 O 0.44589 0.58206 0.61655
 C97 C 0.40527 0.57449 0.60511
 O98 O 0.37429 0.46771 0.46649
 O99 O 0.49576 0.55581 0.33143
 O100 O 0.38572 0.54344 0.45144
 O101 O 0.43546 0.58302 0.39702
 O102 O 0.50709 0.45673 0.32502
 O103 O 0.44177 0.42724 0.37741
 C104 C 0.39580 0.57262 0.41213
 H105 H 0.55562 0.50726 0.37726
 H106 H 0.44482 0.41991 0.49661
 H107 H 0.44454 0.58997 0.50659
 H108 H 0.56584 0.50438 0.60662
 H109 H 0.50330 0.36481 0.38951
 H110 H 0.50817 0.36438 0.60080
 H111 H 0.51214 0.41972 0.67957
 H112 H 0.50192 0.57497 0.69264
 H113 H 0.51585 0.42766 0.30805
 H114 H 0.49510 0.58653 0.31610
 H115 H 0.49106 0.64285 0.39243
 H116 H 0.49778 0.64244 0.61120
 H117 H 0.44835 0.40462 0.34643
 H118 H 0.34602 0.47829 0.48386
 H119 H 0.65873 0.52931 0.51721
 H120 H 0.55946 0.60671 0.64439
 Zr121 Zr 0.57758 0.00709 0.50434
 O122 O 0.62733 0.04329 0.45944
 O123 O 0.61468 -0.02993 0.56504
 O124 O 0.61076 0.05083 0.56317
 O125 O 0.56602 -0.07479 0.39696
 O126 O 0.55456 0.08979 0.60617
 O127 O 0.61663 -0.03409 0.44882
 O128 O 0.56182 -0.06841 0.61560
 O129 O 0.53802 0.00903 0.58119
 O130 O 0.54135 -0.05193 0.50534
 O131 O 0.53840 0.06398 0.49511
 O132 O 0.54281 0.00491 0.42259
 Zr133 Zr 0.42240 0.00474 0.49251
 Zr134 Zr 0.49665 0.06354 0.56954
 Zr135 Zr 0.50406 -0.05247 0.42739
 Zr136 Zr 0.50044 -0.04869 0.57967
 O137 O 0.50476 -0.04988 0.33292
 O138 O 0.49804 -0.03370 0.67232
 O139 O 0.46177 -0.05279 0.50182
 O140 O 0.45829 0.00601 0.57330
 O141 O 0.45908 0.06360 0.49153
 O142 O 0.46290 0.00237 0.41646
 C143 C 0.60231 -0.05824 0.60419
 C144 C 0.60593 -0.06417 0.41051
 C145 C 0.59558 0.08119 0.59831
 O146 O 0.49018 0.06131 0.66367
 O147 O 0.43575 0.09073 0.59290
 O148 O 0.38356 0.04847 0.54664
 C149 C 0.39567 0.08064 0.58134
 O150 O 0.56011 0.08141 0.37637
 Zr151 Zr 0.50062 0.05985 0.41731
 O152 O 0.38642 0.04631 0.43499
 O153 O 0.49833 0.13310 0.55798
 O154 O 0.50364 0.12981 0.42593
 O155 O 0.49697 0.04808 0.32391
 O156 O 0.44032 0.08689 0.38977
 C157 C 0.39981 0.07785 0.40088
 O158 O 0.37167 -0.02956 0.53800
 O159 O 0.50789 -0.12203 0.43801
 O160 O 0.38944 -0.04186 0.43595
 O161 O 0.44605 -0.08388 0.39933
 O162 O 0.50355 -0.11865 0.57137
 O163 O 0.44253 -0.07834 0.61519
 C164 C 0.40489 -0.07497 0.40537
 H165 H 0.56009 -0.07873 0.50701
 H166 H 0.43829 0.00642 0.60834
 H167 H 0.44567 0.00023 0.37905
 H168 H 0.55683 0.09100 0.49373
 H169 H 0.50740 -0.06059 0.69412
 H170 H 0.49035 0.09239 0.67808
 H171 H 0.49562 0.14673 0.59822
 H172 H 0.49716 0.14266 0.38622
 H173 H 0.51196 -0.13064 0.61090
 H174 H 0.51060 -0.13519 0.39748
 H175 H 0.50504 -0.08096 0.31854
 H176 H 0.48932 0.07661 0.30481
 H177 H 0.45039 -0.09689 0.64997
 H178 H 0.34329 -0.01933 0.52098
 H179 H 0.65608 0.03358 0.47587
 H180 H 0.55341 0.10383 0.34552
 Zr181 Zr -0.07433 0.50160 -0.01373
 O182 O -0.12793 0.46783 0.02630
 O183 O -0.10719 0.54518 -0.07192
 O184 O -0.11400 0.54368 0.03957
 O185 O -0.05159 0.41801 -0.11767
 O186 O -0.06400 0.58144 0.09608
 O187 O -0.10651 0.45821 -0.07344
 O188 O -0.05185 0.58470 -0.11522
 O189 O -0.03705 0.55971 -0.00772
 O190 O -0.03164 0.50099 -0.08741
 O191 O -0.04238 0.49847 0.06937
 O192 O -0.03804 0.44204 -0.00785
 Zr193 Zr 0.07889 0.49760 0.00975
 Zr194 Zr -0.00236 0.55487 0.07280
 Zr195 Zr 0.00714 0.44401 -0.07939
 Zr196 Zr 0.00689 0.55749 -0.07942
 O197 O 0.00793 0.37411 -0.07318
 O198 O 0.00811 0.62676 -0.06321
 O199 O 0.04733 0.50076 -0.07477
 O200 O 0.04183 0.55620 0.00100
 O201 O 0.03650 0.49794 0.08368
 O202 O 0.04054 0.44014 0.00172
 C203 C -0.09288 0.57502 -0.10806
 C204 C -0.09256 0.42854 -0.11051
 C205 C -0.10360 0.57294 0.07910
 O206 O -0.00036 0.62483 0.06701
 O207 O 0.05504 0.58074 0.11190
 O208 O 0.11161 0.54148 0.07035
 C209 C 0.09626 0.57278 0.10425
 O210 O -0.06480 0.41431 0.09976
 Zr211 Zr -0.00326 0.44171 0.07324
 O212 O 0.11112 0.45336 0.06827
 O213 O -0.00995 0.54837 0.16632
 O214 O -0.00822 0.45231 0.16679
 O215 O -0.00343 0.37200 0.06084
 O216 O 0.05423 0.41561 0.11103
 C217 C 0.09536 0.42300 0.10261
 O218 O 0.13324 0.53150 -0.02827
 O219 O 0.01226 0.45070 -0.17325
 O220 O 0.11821 0.45716 -0.04543
 O221 O 0.07056 0.42270 -0.10920
 O222 O 0.01041 0.54896 -0.17348
 O223 O 0.06819 0.58149 -0.11218
 C224 C 0.10977 0.43168 -0.09016
 H225 H -0.04736 0.50108 -0.12611
 H226 H 0.06094 0.58273 0.00206
 H227 H 0.05805 0.41248 0.00190
 H228 H -0.06373 0.49795 0.10290
 H229 H 0.00314 0.64174 -0.10192
 H230 H -0.00465 0.63673 0.10800
 H231 H -0.01052 0.57882 0.18300
 H232 H -0.00245 0.42360 0.18658
 H233 H 0.00421 0.57807 -0.19194
 H234 H 0.01217 0.42031 -0.19019
 H235 H 0.01216 0.36266 -0.11437
 H236 H -0.00022 0.35813 0.10067
 H237 H 0.06289 0.60648 -0.13976
 H238 H 0.16045 0.51952 -0.00982
 H239 H -0.15539 0.47914 0.00777
 H240 H -0.06057 0.39558 0.13550
 Zr241 Zr 0.07511 0.51899 0.49487
 O242 O 0.12783 0.49312 0.54573
 O243 O 0.10807 0.56285 0.43873
 O244 O 0.11968 0.48226 0.44051
 O245 O 0.04130 0.59854 0.59883
 O246 O 0.07438 0.43388 0.39172
 O247 O 0.10148 0.56788 0.55308
 O248 O 0.05274 0.59107 0.38154
 O249 O 0.04139 0.51012 0.41396
 O250 O 0.02881 0.57023 0.48962
 O251 O 0.04675 0.45557 0.49961
 O252 O 0.03598 0.51408 0.57278
 Zr253 Zr -0.07669 0.49309 0.49072
 Zr254 Zr 0.01001 0.44859 0.42095
 Zr255 Zr -0.01235 0.56349 0.56367
 Zr256 Zr -0.00588 0.56020 0.41117
 O257 O -0.01525 0.56059 0.65806
 O258 O 0.00002 0.54551 0.31874
 O259 O -0.04907 0.55704 0.48499
 O260 O -0.03733 0.49862 0.41336
 O261 O -0.03095 0.44124 0.49534
 O262 O -0.04236 0.50173 0.57071
 C263 C 0.09336 0.58827 0.39761
 C264 C 0.08292 0.59580 0.58927
 C265 C 0.11283 0.44952 0.40443
 O266 O 0.00958 0.45022 0.32645
 O267 O -0.04520 0.41212 0.39086
 O268 O -0.10484 0.44508 0.43470
 C269 C -0.08698 0.41610 0.40013
 O270 O 0.06508 0.44130 0.61963
 Zr271 Zr 0.00485 0.45191 0.57354
 O272 O -0.10819 0.44580 0.54467
 O273 O 0.02285 0.38027 0.43254
 O274 O 0.02074 0.38371 0.56513
 O275 O -0.00574 0.46138 0.66649
 O276 O -0.05123 0.41454 0.59565
 C277 C -0.09200 0.41715 0.58093
 O278 O -0.12908 0.51945 0.43949
 O279 O -0.02256 0.63236 0.55259
 O280 O -0.12161 0.52956 0.54351
 O281 O -0.07719 0.58123 0.58690
 O282 O -0.01578 0.62960 0.41803
 O283 O -0.06630 0.57880 0.37040
 C284 C -0.11524 0.56410 0.57609
 H285 H 0.04211 0.60015 0.48933
 H286 H -0.05502 0.49506 0.37654
 H287 H -0.06168 0.50014 0.60636
 H288 H 0.06971 0.43243 0.50312
 H289 H 0.00543 0.57384 0.29780
 H290 H 0.01579 0.41964 0.31256
 H291 H 0.02479 0.36696 0.39204
 H292 H 0.01440 0.36953 0.60408
 H293 H -0.00815 0.64268 0.37879
 H294 H -0.02594 0.64543 0.59308
 H295 H -0.02312 0.59072 0.67220
 H296 H -0.00857 0.43165 0.68469
 H297 H -0.06016 0.59779 0.33538
 H298 H -0.15665 0.50455 0.45237
 H299 H 0.15496 0.50869 0.53266
 H300 H 0.06121 0.41733 0.64924
 Zr301 Zr 0.42643 0.00198 0.01198
 O302 O 0.37283 0.03349 -0.03096
 O303 O 0.39348 -0.04377 0.06757
 O304 O 0.39001 -0.04117 -0.04330
 O305 O 0.44506 0.09161 0.10501
 O306 O 0.44269 -0.08019 -0.09419
 O307 O 0.39091 0.04677 0.06879
 O308 O 0.44985 -0.08200 0.11056
 O309 O 0.46638 -0.05479 0.01044
 O310 O 0.46633 0.00517 0.08783
 O311 O 0.46192 0.00364 -0.06948
 O312 O 0.46187 0.06169 0.00336
 Zr313 Zr 0.58130 0.00983 -0.00274
 Zr314 Zr 0.50354 -0.05185 -0.06818
 Zr315 Zr 0.50396 0.06233 0.07741
 Zr316 Zr 0.50788 -0.04966 0.08427
 O317 O 0.50509 0.13230 0.07012
 O318 O 0.51623 -0.11909 0.07406
 O319 O 0.54660 0.00779 0.07954
 O320 O 0.54548 -0.04962 0.00603
 O321 O 0.54170 0.00573 -0.07937
 O322 O 0.54076 0.06586 -0.00087
 C323 C 0.40885 -0.07550 0.09983
 C324 C 0.40455 0.08091 0.09873
 C325 C 0.40220 -0.07133 -0.08064
 O326 O 0.50592 -0.12144 -0.05752
 O327 O 0.56357 -0.07810 -0.10058
 O328 O 0.61640 -0.03241 -0.06214
 C329 C 0.60402 -0.06625 -0.09328
 O330 O 0.44010 0.08564 -0.11058
 Zr331 Zr 0.50023 0.06100 -0.07514
 O332 O 0.61489 0.05472 -0.05930
 O333 O 0.50014 -0.04858 -0.16242
 O334 O 0.50077 0.04666 -0.16802
 O335 O 0.49613 0.13077 -0.06481
 O336 O 0.55891 0.08873 -0.10909
 C337 C 0.59991 0.08350 -0.09659
 O338 O 0.63504 -0.02283 0.03825
 O339 O 0.50348 0.05784 0.17177
 O340 O 0.61747 0.05150 0.05563
 O341 O 0.56375 0.08631 0.10981
 O342 O 0.50320 -0.03938 0.17793
 O343 O 0.56881 -0.06747 0.12426
 C344 C 0.60408 0.07909 0.09594
 H345 H 0.44875 0.00575 0.12519
 H346 H 0.56554 -0.07544 0.00761
 H347 H 0.55720 0.09415 -0.00075
 H348 H 0.44202 0.00278 -0.10444
 H349 H 0.51101 -0.13289 0.11357
 H350 H 0.50400 -0.13476 -0.09801
 H351 H 0.50115 -0.07954 -0.17720
 H352 H 0.50754 0.07457 -0.18928
 H353 H 0.49727 -0.06858 0.19631
 H354 H 0.50197 0.08858 0.18734
 H355 H 0.50712 0.14464 0.11117
 H356 H 0.50230 0.14433 -0.10423
 H357 H 0.56367 -0.09018 0.15530
 H358 H 0.66249 -0.01010 0.02128
 H359 H 0.34529 0.02153 -0.01322
 H360 H 0.44643 0.10416 -0.14599
 Zr361 Zr 0.42082 0.50064 0.00869
 O362 O 0.36938 0.53694 0.05041
 O363 O 0.38486 0.46154 -0.05132
 O364 O 0.38853 0.54481 -0.05060
 O365 O 0.43149 0.42283 0.12160
 O366 O 0.44517 0.58054 -0.09711
 O367 O 0.38154 0.46164 0.06619
 O368 O 0.43789 0.41951 -0.09660
 O369 O 0.46097 0.49916 -0.06772
 O370 O 0.45736 0.44172 0.01287
 O371 O 0.45971 0.55796 0.01412
 O372 O 0.45454 0.50170 0.09132
 Zr373 Zr 0.57443 0.50053 0.02380
 Zr374 Zr 0.50234 0.55434 -0.05979
 Zr375 Zr 0.49415 0.44438 0.09165
 Zr376 Zr 0.49875 0.44163 -0.06095
 O377 O 0.49233 0.45030 0.18576
 O378 O 0.50217 0.45199 -0.15451
 O379 O 0.53678 0.44169 0.01778
 O380 O 0.54059 0.49689 -0.05806
 O381 O 0.53771 0.55883 0.01966
 O382 O 0.53375 0.50069 0.09942
 C383 C 0.39744 0.43117 -0.08783
 C384 C 0.39165 0.43298 0.10641
 C385 C 0.40417 0.57395 -0.08704
 O386 O 0.50670 0.54703 -0.15373
 O387 O 0.56412 0.57759 -0.08886
 O388 O 0.61358 0.54415 -0.02732
 C389 C 0.60341 0.57117 -0.06941
 O390 O 0.43422 0.57916 0.12976
 Zr391 Zr 0.49542 0.55755 0.09346
 O392 O 0.60926 0.54534 0.07844
 O393 O 0.50344 0.62429 -0.05290
 O394 O 0.49106 0.62719 0.08241
 O395 O 0.49834 0.54996 0.18752
 O396 O 0.55457 0.58710 0.12013
 C397 C 0.59518 0.57834 0.10977
 O398 O 0.62551 0.46497 -0.01976
 O399 O 0.49151 0.37447 0.08519
 O400 O 0.60835 0.45943 0.08364
 O401 O 0.55408 0.41573 0.12248
 O402 O 0.49595 0.37218 -0.04754
 O403 O 0.55733 0.41062 -0.09256
 C404 C 0.59503 0.42685 0.11570
 H405 H 0.43867 0.41487 0.01244
 H406 H 0.56135 0.49552 -0.09223
 H407 H 0.55070 0.50070 0.13716
 H408 H 0.44145 0.58513 0.01384
 H409 H 0.49325 0.42400 -0.17437
 H410 H 0.50762 0.57728 -0.17070
 H411 H 0.50614 0.63596 -0.09409
 H412 H 0.49575 0.64112 0.12209
 H413 H 0.48839 0.35823 -0.08636
 H414 H 0.48925 0.36306 0.12655
 H415 H 0.49215 0.41968 0.20143
 H416 H 0.50465 0.57960 0.20465
 H417 H 0.55014 0.39059 -0.12634
 H418 H 0.65386 0.47629 -0.00387
 H419 H 0.34115 0.52640 0.03312
 H420 H 0.43954 0.60146 0.16152
 Zr421 Zr 0.07645 -0.00953 0.51337
 O422 O 0.12784 -0.04236 0.46664
 O423 O 0.11198 0.03268 0.57015
 O424 O 0.11276 0.03403 0.45828
 O425 O 0.05765 -0.09679 0.60907
 O426 O 0.05977 0.07270 0.40837
 O427 O 0.11210 -0.05453 0.56825
 O428 O 0.05834 0.07726 0.60896
 O429 O 0.03821 0.04841 0.51359
 O430 O 0.03773 -0.01141 0.59077
 O431 O 0.03989 -0.01031 0.43335
 O432 O 0.03974 -0.06856 0.50667
 Zr433 Zr -0.07825 -0.01344 0.50583
 Zr434 Zr -0.00070 0.04590 0.43684
 Zr435 Zr -0.00149 -0.06782 0.58206
 Zr436 Zr -0.00173 0.04494 0.58923
 O437 O -0.00262 -0.13776 0.57368
 O438 O -0.01031 0.11436 0.58045
 O439 O -0.04221 -0.01181 0.58667
 O440 O -0.04121 0.04541 0.51274
 O441 O -0.03976 -0.01082 0.42784
 O442 O -0.03921 -0.07051 0.50482
 C443 C 0.09898 0.06683 0.59971
 C444 C 0.09827 -0.08728 0.60026
 C445 C 0.10027 0.06379 0.42086
 O446 O -0.00258 0.11549 0.44830
 O447 O -0.06071 0.07104 0.40394
 O448 O -0.11380 0.02825 0.44729
 C449 C -0.10122 0.05999 0.41285
 O450 O 0.06022 -0.09438 0.39559
 Zr451 Zr 0.00064 -0.06680 0.42950
 O452 O -0.11359 -0.05416 0.44663
 O453 O 0.00186 0.04237 0.34245
 O454 O 0.00189 -0.05351 0.33651
 O455 O 0.00003 -0.13678 0.43762
 O456 O -0.05919 -0.08961 0.39448
 C457 C -0.09973 -0.08187 0.40698
 O458 O -0.12930 0.02044 0.55179
 O459 O -0.00128 -0.06295 0.67629
 O460 O -0.11506 -0.05708 0.56134
 O461 O -0.06157 -0.09274 0.61403
 O462 O 0.00699 0.03620 0.68245
 O463 O -0.06101 0.06370 0.63349
 C464 C -0.10200 -0.08587 0.60006
 H465 H 0.05588 -0.01234 0.62745
 H466 H -0.06082 0.07160 0.51455
 H467 H -0.05648 -0.09830 0.50391
 H468 H 0.05935 -0.01006 0.39777
 H469 H -0.00276 0.12817 0.61938
 H470 H -0.00121 0.12865 0.40783
 H471 H 0.00118 0.07328 0.32780
 H472 H -0.00538 -0.08145 0.31532
 H473 H 0.01478 0.06556 0.69933
 H474 H -0.00007 -0.09371 0.69139
 H475 H -0.00396 -0.15017 0.61461
 H476 H -0.00640 -0.14938 0.39759
 H477 H -0.05443 0.08579 0.66508
 H478 H -0.15763 0.00921 0.53570
 H479 H 0.15614 -0.03116 0.48292
 H480 H 0.05373 -0.11291 0.36005
 Zr481 Zr 0.76711 0.16925 0.25259
 O482 O 0.74144 0.11324 0.29750
 O483 O 0.81236 0.14059 0.19300
 O484 O 0.73125 0.12722 0.19459
 O485 O 0.84529 0.19713 0.35805
 O486 O 0.68226 0.17483 0.15224
 O487 O 0.81457 0.13887 0.30815
 O488 O 0.83775 0.19910 0.13865
 O489 O 0.75630 0.20680 0.17539
 O490 O 0.81757 0.21624 0.24892
 O491 O 0.70402 0.19721 0.26348
 O492 O 0.76305 0.20487 0.33399
 Zr493 Zr 0.73990 0.32210 0.26187
 Zr494 Zr 0.69508 0.23732 0.18851
 Zr495 Zr 0.81184 0.25355 0.32655
 Zr496 Zr 0.80545 0.25502 0.17409
 O497 O 0.81001 0.25525 0.42099
 O498 O 0.78900 0.25193 0.08212
 O499 O 0.80329 0.29423 0.25154
 O500 O 0.74388 0.28595 0.18144
 O501 O 0.68917 0.27535 0.26602
 O502 O 0.75079 0.28442 0.33884
 C503 C 0.83692 0.15787 0.15237
 C504 C 0.84202 0.15557 0.34594
 C505 C 0.69846 0.13596 0.16027
 O506 O 0.69406 0.24462 0.09451
 O507 O 0.65412 0.29123 0.16814
 O508 O 0.68745 0.35068 0.21204
 C509 C 0.65679 0.33281 0.17986
 O510 O 0.69227 0.17466 0.38392
 Zr511 Zr 0.70144 0.23657 0.34077
 O512 O 0.69527 0.35119 0.32177
 O513 O 0.62816 0.22010 0.20221
 O514 O 0.63381 0.21929 0.33505
 O515 O 0.71321 0.24511 0.43350
 O516 O 0.66304 0.29180 0.36677
 C517 C 0.66589 0.33345 0.35556
 O518 O 0.76091 0.37823 0.21310
 O519 O 0.88070 0.26148 0.31465
 O520 O 0.78234 0.36422 0.31184
 O521 O 0.83344 0.31673 0.34993
 O522 O 0.87425 0.26683 0.17906
 O523 O 0.82153 0.31795 0.13780
 C524 C 0.81820 0.35571 0.34061
 H525 H 0.84745 0.20313 0.24724
 H526 H 0.73878 0.30529 0.14651
 H527 H 0.75044 0.30292 0.37551
 H528 H 0.68135 0.17371 0.26591
 H529 H 0.81689 0.24904 0.05928
 H530 H 0.66376 0.23730 0.08135
 H531 H 0.61386 0.21947 0.16243
 H532 H 0.62044 0.22442 0.37496
 H533 H 0.88678 0.26200 0.13858
 H534 H 0.89426 0.26227 0.35491
 H535 H 0.84060 0.26093 0.43432
 H536 H 0.68406 0.24802 0.45321
 H537 H 0.83920 0.31381 0.10092
 H538 H 0.74602 0.40442 0.23100
 H539 H 0.75687 0.08673 0.28142
 H540 H 0.67026 0.17795 0.41641
 Zr541 Zr 0.73341 0.81997 0.75181
 O542 O 0.76625 0.86902 0.80295
 O543 O 0.68790 0.85704 0.70038
 O544 O 0.77079 0.86283 0.69653
 O545 O 0.65887 0.79303 0.86219
 O546 O 0.81294 0.81511 0.64179
 O547 O 0.69030 0.85107 0.81302
 O548 O 0.65142 0.80416 0.64674
 O549 O 0.73422 0.78787 0.66873
 O550 O 0.67873 0.77791 0.75065
 O551 O 0.79374 0.78506 0.75007
 O552 O 0.74110 0.77782 0.82708
 Zr553 Zr 0.74414 0.66569 0.73564
 Zr554 Zr 0.79284 0.75152 0.66828
 Zr555 Zr 0.68667 0.73536 0.82260
 Zr556 Zr 0.68072 0.74412 0.66964
 O557 O 0.69736 0.73212 0.91579
 O558 O 0.68978 0.75180 0.57624
 O559 O 0.68389 0.69995 0.74131
 O560 O 0.73903 0.70814 0.66191
 O561 O 0.80014 0.70612 0.73778
 O562 O 0.74433 0.69724 0.81922
 C563 C 0.65813 0.84427 0.66288
 C564 C 0.66326 0.83481 0.85154
 C565 C 0.80125 0.85438 0.65787
 O566 O 0.78541 0.75392 0.57441
 O567 O 0.82437 0.69570 0.63314
 O568 O 0.78991 0.63631 0.67532
 C569 C 0.81933 0.65402 0.64107
 O570 O 0.81989 0.79395 0.87111
 Zr571 Zr 0.79898 0.73847 0.81970
 O572 O 0.78803 0.62627 0.78258
 O573 O 0.86215 0.75905 0.67321
 O574 O 0.86702 0.74882 0.80296
 O575 O 0.79380 0.72368 0.91204
 O576 O 0.83264 0.67592 0.82993
 C577 C 0.82302 0.63623 0.81144
 O578 O 0.71364 0.61703 0.68133
 O579 O 0.61705 0.73062 0.82162
 O580 O 0.70043 0.62445 0.78459
 O581 O 0.66521 0.67222 0.84818
 O582 O 0.61153 0.73929 0.68185
 O583 O 0.65600 0.68465 0.63109
 C584 C 0.67271 0.63327 0.82695
 H585 H 0.65010 0.79338 0.75426
 H586 H 0.73940 0.69138 0.62376
 H587 H 0.74593 0.67594 0.85265
 H588 H 0.81887 0.80587 0.75265
 H589 H 0.66049 0.75791 0.55862
 H590 H 0.81535 0.75798 0.55755
 H591 H 0.87347 0.76083 0.63167
 H592 H 0.88342 0.73752 0.83797
 H593 H 0.59736 0.74567 0.64295
 H594 H 0.60711 0.72936 0.86383
 H595 H 0.66806 0.72763 0.93441
 H596 H 0.82349 0.71452 0.92555
 H597 H 0.63806 0.69186 0.59555
 H598 H 0.72635 0.58799 0.69273
 H599 H 0.75354 0.89813 0.79185
 H600 H 0.84478 0.78516 0.89704
 Zr601 Zr 0.26554 0.32886 0.74594
 O602 O 0.24597 0.38576 0.69767
 O603 O 0.31070 0.35691 0.80704
 O604 O 0.22879 0.37351 0.79818
 O605 O 0.34451 0.29494 0.64364
 O606 O 0.17394 0.33307 0.84133
 O607 O 0.31655 0.35505 0.69276
 O608 O 0.33439 0.29774 0.86111
 O609 O 0.25196 0.29432 0.82471
 O610 O 0.31342 0.27954 0.75127
 O611 O 0.20110 0.30443 0.73493
 O612 O 0.25955 0.29211 0.66577
 Zr613 Zr 0.23179 0.17811 0.74177
 Zr614 Zr 0.18879 0.26734 0.81209
 Zr615 Zr 0.30626 0.24140 0.67435
 Zr616 Zr 0.29883 0.24345 0.82748
 O617 O 0.30524 0.24219 0.57984
 O618 O 0.28210 0.24923 0.91929
 O619 O 0.29627 0.20272 0.75106
 O620 O 0.23581 0.21643 0.82066
 O621 O 0.18209 0.22656 0.73638
 O622 O 0.24384 0.21349 0.66327
 C623 C 0.33494 0.33897 0.84755
 C624 C 0.34384 0.33652 0.65622
 C625 C 0.19384 0.37000 0.83033
 O626 O 0.18798 0.26613 0.90656
 O627 O 0.14872 0.21347 0.83801
 O628 O 0.18009 0.15250 0.79429
 C629 C 0.15104 0.17146 0.82791
 O630 O 0.18091 0.32086 0.61135
 Zr631 Zr 0.19640 0.26289 0.66010
 O632 O 0.18653 0.14832 0.68452
 O633 O 0.12198 0.28340 0.79599
 O634 O 0.12931 0.28193 0.66643
 O635 O 0.20950 0.25582 0.56753
 O636 O 0.15788 0.20721 0.63467
 C637 C 0.15907 0.16576 0.64808
 O638 O 0.25287 0.12329 0.79301
 O639 O 0.37379 0.22682 0.68765
 O640 O 0.26994 0.13238 0.69004
 O641 O 0.32116 0.17700 0.64637
 O642 O 0.36703 0.22804 0.82491
 O643 O 0.31073 0.18006 0.86520
 C644 C 0.30417 0.13875 0.65657
 H645 H 0.34395 0.29093 0.75342
 H646 H 0.23007 0.19837 0.85665
 H647 H 0.24233 0.19482 0.62684
 H648 H 0.17970 0.32891 0.73019
 H649 H 0.31000 0.25071 0.94212
 H650 H 0.15740 0.27325 0.91893
 H651 H 0.10710 0.28480 0.83545
 H652 H 0.11528 0.27508 0.62748
 H653 H 0.37878 0.23166 0.86595
 H654 H 0.38776 0.22509 0.64760
 H655 H 0.33521 0.23375 0.56624
 H656 H 0.18062 0.25193 0.54761
 H657 H 0.32742 0.18355 0.90289
 H658 H 0.23718 0.09681 0.77752
 H659 H 0.26214 0.41151 0.71452
 H660 H 0.20826 0.33862 0.60896
 Zr661 Zr 0.25927 0.67506 0.25281
 O662 O 0.29955 0.62733 0.20954
 O663 O 0.22242 0.63596 0.31245
 O664 O 0.30574 0.64699 0.31207
 O665 O 0.17721 0.67723 0.14624
 O666 O 0.34090 0.70688 0.35220
 O667 O 0.22183 0.63093 0.19899
 O668 O 0.17923 0.68676 0.36072
 O669 O 0.25750 0.71578 0.32909
 O670 O 0.19795 0.70667 0.25274
 O671 O 0.31227 0.71955 0.24289
 O672 O 0.25554 0.70871 0.17014
 Zr673 Zr 0.24345 0.82953 0.23866
 Zr674 Zr 0.30825 0.76203 0.31693
 Zr675 Zr 0.19497 0.74196 0.17376
 Zr676 Zr 0.19703 0.74877 0.32640
 O677 O 0.19988 0.73991 0.07949
 O678 O 0.21153 0.75106 0.41902
 O679 O 0.18998 0.78527 0.24746
 O680 O 0.24772 0.79525 0.32014
 O681 O 0.30542 0.79895 0.23839
 O682 O 0.24543 0.78840 0.16289
 C683 C 0.19135 0.64687 0.34886
 C684 C 0.19054 0.63824 0.16135
 C685 C 0.33554 0.66503 0.34524
 O686 O 0.30500 0.76723 0.41116
 O687 O 0.32830 0.82615 0.34175
 O688 O 0.28332 0.87314 0.29069
 C689 C 0.31508 0.86527 0.32761
 O690 O 0.33362 0.69925 0.12361
 Zr691 Zr 0.30603 0.75662 0.16459
 O692 O 0.27888 0.86966 0.17942
 O693 O 0.37718 0.76808 0.30462
 O694 O 0.37558 0.75933 0.17343
 O695 O 0.29524 0.75967 0.07108
 O696 O 0.32758 0.82045 0.13880
 C697 C 0.31294 0.86009 0.14784
 O698 O 0.20458 0.87713 0.28439
 O699 O 0.12605 0.73247 0.18233
 O700 O 0.19444 0.85697 0.18264
 O701 O 0.15857 0.79652 0.14505
 O702 O 0.12768 0.74205 0.31882
 O703 O 0.16383 0.80547 0.36091
 C704 C 0.16364 0.83836 0.15171
 H705 H 0.17249 0.68625 0.25402
 H706 H 0.24606 0.81569 0.35481
 H707 H 0.24196 0.80521 0.12531
 H708 H 0.34069 0.70347 0.24141
 H709 H 0.18501 0.74066 0.44075
 H710 H 0.33570 0.77061 0.42546
 H711 H 0.39034 0.77250 0.34471
 H712 H 0.38790 0.76816 0.13418
 H713 H 0.11589 0.73466 0.35892
 H714 H 0.11404 0.72808 0.14155
 H715 H 0.16940 0.73690 0.06425
 H716 H 0.32276 0.77097 0.05273
 H717 H 0.14770 0.79735 0.39780
 H718 H 0.21166 0.90640 0.26682
 H719 H 0.29228 0.59808 0.22705
 H720 H 0.35484 0.70816 0.09217
 Zr721 Zr 0.26426 0.82359 0.75880
 O722 O 0.30337 0.86800 0.70850
 O723 O 0.22915 0.86722 0.81463
 O724 O 0.22468 0.86488 0.70438
 O725 O 0.34961 0.79501 0.85404
 O726 O 0.17835 0.81598 0.65826
 O727 O 0.31384 0.85369 0.81232
 O728 O 0.18022 0.82051 0.85923
 O729 O 0.20191 0.79356 0.76086
 O730 O 0.26145 0.78672 0.83769
 O731 O 0.25944 0.78500 0.68026
 O732 O 0.31734 0.77857 0.75358
 Zr733 Zr 0.24638 0.66968 0.75768
 Zr734 Zr 0.19841 0.75254 0.68538
 Zr735 Zr 0.31166 0.73965 0.83081
 Zr736 Zr 0.20042 0.75545 0.83802
 O737 O 0.38016 0.72716 0.82302
 O738 O 0.13101 0.75914 0.82807
 O739 O 0.25069 0.70744 0.83713
 O740 O 0.19340 0.71438 0.76284
 O741 O 0.24899 0.70589 0.67819
 O742 O 0.30839 0.69974 0.75517
 C743 C 0.19513 0.85946 0.84714
 C744 C 0.34491 0.83656 0.84425
 C745 C 0.19208 0.85556 0.66961
 O746 O 0.12926 0.75760 0.69585
 O747 O 0.16823 0.69428 0.65158
 O748 O 0.20435 0.63764 0.69743
 C749 C 0.17576 0.65273 0.66075
 O750 O 0.34505 0.79186 0.64070
 Zr751 Zr 0.30978 0.73778 0.67808
 O752 O 0.28150 0.62589 0.70220
 O753 O 0.20188 0.75520 0.59102
 O754 O 0.29640 0.73780 0.58511
 O755 O 0.37868 0.72760 0.68605
 O756 O 0.32318 0.67337 0.64672
 C757 C 0.31045 0.63430 0.66192
 O758 O 0.20328 0.62667 0.80425
 O759 O 0.30780 0.74419 0.92503
 O760 O 0.28115 0.62801 0.81599
 O761 O 0.32602 0.67642 0.86529
 O762 O 0.21051 0.76286 0.93131
 O763 O 0.17228 0.70051 0.88331
 C764 C 0.31163 0.63710 0.85377
 H765 H 0.26512 0.80546 0.87378
 H766 H 0.16496 0.69837 0.76475
 H767 H 0.33311 0.67835 0.75536
 H768 H 0.26139 0.80371 0.64413
 H769 H 0.11862 0.76997 0.86648
 H770 H 0.11667 0.76005 0.65518
 H771 H 0.17114 0.75732 0.57649
 H772 H 0.32260 0.72535 0.56449
 H773 H 0.18281 0.77479 0.94859
 H774 H 0.33821 0.74038 0.94012
 H775 H 0.39201 0.72463 0.86411
 H776 H 0.38973 0.71736 0.64660
 H777 H 0.15006 0.71112 0.91257
 H778 H 0.20963 0.59607 0.79031
 H779 H 0.29701 0.89825 0.72380
 H780 H 0.36239 0.78142 0.60580
 Zr781 Zr 0.23516 0.16908 0.25561
 O782 O 0.19836 0.12390 0.20306
 O783 O 0.27029 0.12683 0.31287
 O784 O 0.27694 0.12837 0.20300
 O785 O 0.14522 0.19492 0.34363
 O786 O 0.32463 0.17806 0.16175
 O787 O 0.18582 0.13721 0.30721
 O788 O 0.31336 0.17550 0.36459
 O789 O 0.29633 0.20067 0.26449
 O790 O 0.23256 0.20623 0.33467
 O791 O 0.24305 0.20790 0.17810
 O792 O 0.18146 0.21277 0.24453
 Zr793 Zr 0.24896 0.32476 0.25726
 Zr794 Zr 0.30281 0.24127 0.18993
 Zr795 Zr 0.18171 0.25156 0.32243
 Zr796 Zr 0.29213 0.23958 0.34154
 O797 O 0.11352 0.26071 0.30652
 O798 O 0.36203 0.23799 0.33906
 O799 O 0.24085 0.28625 0.33543
 O800 O 0.30206 0.28037 0.26764
 O801 O 0.25233 0.28787 0.17746
 O802 O 0.18839 0.29219 0.24817
 C803 C 0.30157 0.13602 0.34949
 C804 C 0.15286 0.15347 0.33662
 C805 C 0.31062 0.13820 0.17050
 O806 O 0.37096 0.23516 0.20806
 O807 O 0.33651 0.29837 0.16293
 O808 O 0.29899 0.35615 0.20544
 C809 C 0.33051 0.33984 0.17295
 O810 O 0.16153 0.20053 0.12611
 Zr811 Zr 0.19235 0.25457 0.17070
 O812 O 0.21721 0.36717 0.19712
 O813 O 0.30502 0.24067 0.09542
 O814 O 0.21234 0.25679 0.07987
 O815 O 0.12272 0.26089 0.17293
 O816 O 0.17687 0.31906 0.14047
 C817 C 0.18892 0.35842 0.15621
 O818 O 0.28492 0.37031 0.31015
 O819 O 0.18012 0.24826 0.41685
 O820 O 0.20537 0.36459 0.31052
 O821 O 0.16220 0.31294 0.35652
 O822 O 0.27605 0.23251 0.43333
 O823 O 0.31615 0.29542 0.38964
 C824 C 0.17338 0.35302 0.34570
 H825 H 0.22770 0.18769 0.37046
 H826 H 0.33009 0.29660 0.27327
 H827 H 0.16283 0.31246 0.24598
 H828 H 0.24354 0.18933 0.14153
 H829 H 0.37237 0.22803 0.37878
 H830 H 0.38623 0.23241 0.16899
 H831 H 0.33646 0.23781 0.08397
 H832 H 0.18752 0.26922 0.05665
 H833 H 0.30262 0.22084 0.45353
 H834 H 0.14870 0.24973 0.42888
 H835 H 0.09870 0.26253 0.34600
 H836 H 0.11314 0.27188 0.13336
 H837 H 0.33601 0.28544 0.42196
 H838 H 0.27802 0.40026 0.29473
 H839 H 0.20485 0.09376 0.21818
 H840 H 0.14628 0.21143 0.08996
 Zr841 Zr 0.75988 0.67561 0.24246
 O842 O 0.79926 0.63078 0.29150
 O843 O 0.72565 0.63305 0.18501
 O844 O 0.72043 0.63290 0.29484
 O845 O 0.84581 0.70553 0.14972
 O846 O 0.67311 0.68073 0.34135
 O847 O 0.80882 0.64619 0.18773
 O848 O 0.67800 0.68073 0.13996
 O849 O 0.69751 0.70542 0.23907
 O850 O 0.75863 0.71415 0.16498
 O851 O 0.75323 0.71230 0.32223
 O852 O 0.81280 0.72033 0.25133
 Zr853 Zr 0.74150 0.82998 0.24938
 Zr854 Zr 0.69239 0.74462 0.31577
 Zr855 Zr 0.80854 0.76088 0.17564
 Zr856 Zr 0.69777 0.74548 0.16360
 O857 O 0.87693 0.77209 0.18694
 O858 O 0.62813 0.74179 0.17065
 O859 O 0.74779 0.79360 0.16866
 O860 O 0.68916 0.78479 0.23997
 O861 O 0.74229 0.79164 0.32729
 O862 O 0.80332 0.79926 0.25267
 C863 C 0.69234 0.64154 0.15191
 C864 C 0.84015 0.66378 0.15685
 C865 C 0.68757 0.64150 0.32958
 O866 O 0.62375 0.73761 0.30206
 O867 O 0.65890 0.80055 0.34861
 O868 O 0.69415 0.85956 0.30679
 C869 C 0.66428 0.84230 0.34060
 O870 O 0.83756 0.70471 0.36488
 Zr871 Zr 0.80315 0.75952 0.32808
 O872 O 0.77529 0.87190 0.30880
 O873 O 0.69358 0.74173 0.41021
 O874 O 0.78740 0.75764 0.42041
 O875 O 0.87224 0.76959 0.32277
 O876 O 0.81628 0.82283 0.36243
 C877 C 0.80406 0.86229 0.34867
 O878 O 0.70136 0.87533 0.20238
 O879 O 0.80660 0.75946 0.08113
 O880 O 0.77961 0.87233 0.19431
 O881 O 0.82468 0.82421 0.14426
 O882 O 0.71018 0.73999 0.07052
 O883 O 0.67061 0.80129 0.11932
 C884 C 0.81100 0.86351 0.15711
 H885 H 0.76288 0.69632 0.12816
 H886 H 0.66060 0.80050 0.23717
 H887 H 0.82820 0.82041 0.25430
 H888 H 0.75453 0.69297 0.35779
 H889 H 0.61674 0.73160 0.13146
 H890 H 0.61004 0.73383 0.34198
 H891 H 0.66265 0.73790 0.42355
 H892 H 0.81309 0.76957 0.44248
 H893 H 0.68309 0.72790 0.05199
 H894 H 0.83745 0.76248 0.06713
 H895 H 0.89000 0.77506 0.14650
 H896 H 0.88254 0.77873 0.36298
 H897 H 0.64937 0.79126 0.08858
 H898 H 0.70783 0.90528 0.21857
 H899 H 0.79321 0.60068 0.27555
 H900 H 0.85393 0.71442 0.40085
 Zr901 Zr 0.74716 0.32798 0.73225
 O902 O 0.71270 0.37749 0.78076
 O903 O 0.77989 0.36534 0.66705
 O904 O 0.79240 0.37140 0.77184
 O905 O 0.65817 0.29692 0.64703
 O906 O 0.83926 0.32822 0.82581
 O907 O 0.69740 0.35670 0.67930
 O908 O 0.82758 0.31455 0.62783
 O909 O 0.80847 0.29647 0.72955
 O910 O 0.74572 0.28554 0.65850
 O911 O 0.75401 0.29660 0.81558
 O912 O 0.69303 0.28603 0.74823
 Zr913 Zr 0.76058 0.17506 0.75290
 Zr914 Zr 0.81427 0.26284 0.81039
 Zr915 Zr 0.69442 0.24181 0.67577
 Zr916 Zr 0.80570 0.25224 0.65819
 O917 O 0.62602 0.23309 0.69086
 O918 O 0.87555 0.25347 0.66150
 O919 O 0.75399 0.20671 0.66938
 O920 O 0.81436 0.21792 0.73826
 O921 O 0.76300 0.21749 0.82752
 O922 O 0.69979 0.20754 0.75568
 C923 C 0.81322 0.35444 0.63477
 C924 C 0.66490 0.33876 0.65129
 C925 C 0.82639 0.36605 0.80509
 O926 O 0.88306 0.26432 0.79450
 O927 O 0.84486 0.20684 0.84798
 O928 O 0.80711 0.14721 0.81131
 C929 C 0.83781 0.16493 0.84300
 O930 O 0.67274 0.30837 0.86479
 Zr931 Zr 0.70276 0.25064 0.82814
 O932 O 0.72553 0.13682 0.81538
 O933 O 0.81409 0.27379 0.90380
 O934 O 0.72169 0.25309 0.91921
 O935 O 0.63302 0.24619 0.82617
 O936 O 0.68423 0.18853 0.86477
 C937 C 0.69582 0.14814 0.85356
 O938 O 0.79933 0.12617 0.70941
 O939 O 0.69402 0.23853 0.58130
 O940 O 0.72122 0.13102 0.70151
 O941 O 0.67660 0.17777 0.64948
 O942 O 0.79188 0.25293 0.56539
 O943 O 0.82987 0.19254 0.61945
 C944 C 0.68975 0.13888 0.66437
 H945 H 0.74109 0.30142 0.62042
 H946 H 0.84228 0.20102 0.73601
 H947 H 0.67422 0.18739 0.75909
 H948 H 0.75434 0.31858 0.84856
 H949 H 0.88634 0.26036 0.62074
 H950 H 0.89741 0.26982 0.83358
 H951 H 0.84539 0.27566 0.91601
 H952 H 0.69613 0.24301 0.94322
 H953 H 0.81925 0.26251 0.54499
 H954 H 0.66277 0.23580 0.56912
 H955 H 0.61209 0.22832 0.65133
 H956 H 0.62281 0.23905 0.86714
 H957 H 0.85008 0.19956 0.58598
 H958 H 0.79182 0.09727 0.72775
 H959 H 0.71957 0.40625 0.76161
 H960 H 0.65825 0.30085 0.90314
 N961 N 0.14262 0.41805 0.88076
 N962 N 0.17734 0.41117 0.85337
 N963 N 0.36077 0.59672 0.38511
 N964 N 0.36678 0.63758 0.37460
 N965 N 0.86719 0.88431 0.62671
 N966 N 0.82597 0.89046 0.63331
 N967 N 0.63459 0.10691 0.12565
 N968 N 0.67568 0.10052 0.13167
 N969 N 0.86552 0.08588 0.38416
 N970 N 0.87242 0.12695 0.37553
 N971 N 0.37383 0.40550 0.62945
 N972 N 0.37638 0.36350 0.62829
 N973 N 0.63741 0.90643 0.88008
 N974 N 0.63349 0.86439 0.88154
 N975 N 0.12545 0.60414 0.13193
 N976 N 0.16717 0.60095 0.13671
 N977 N 0.37952 0.89246 0.12408
 N978 N 0.33782 0.89588 0.12378
 N979 N 0.63652 0.40343 0.37798
 N980 N 0.63327 0.36157 0.38126
 N981 N 0.87994 0.59109 0.85574
 N982 N 0.85392 0.60038 0.81545
 N983 N 0.13202 0.09547 0.62293
 N984 N 0.12708 0.13730 0.62164
 N985 N 0.14993 0.42632 0.37943
 N986 N 0.14432 0.38495 0.37179
 N987 N 0.37548 0.60414 0.88401
 N988 N 0.33383 0.60118 0.88168
 N989 N 0.62523 0.11032 0.62798
 N990 N 0.66557 0.10270 0.63938
 N991 N 0.87543 0.89257 0.12031
 N992 N 0.83470 0.89931 0.13046
 N993 N 0.86015 0.09571 0.88215
 N994 N 0.86796 0.13646 0.87260
 N995 N 0.10960 0.62707 0.62039
 N996 N 0.15040 0.62073 0.62899
 N997 N 0.64052 0.91092 0.38285
 N998 N 0.63330 0.87050 0.37002
 N999 N 0.35629 0.40879 0.13349
 N1000 N 0.36274 0.36845 0.14695
 N1001 N 0.62566 0.60957 0.13264
 N1002 N 0.66720 0.60527 0.13018
 N1003 N 0.12869 0.89189 0.86867
 N1004 N 0.17030 0.89618 0.86903
 N1005 N 0.36861 0.10734 0.37552
 N1006 N 0.32737 0.10057 0.37245
 N1007 N 0.87956 0.38512 0.60667
 N1008 N 0.83792 0.38906 0.60790
 N1009 N 0.86193 0.59845 0.10567
 N1010 N 0.87161 0.63580 0.12850
 N1011 N 0.64232 0.40497 0.60381
 N1012 N 0.63331 0.36652 0.62324
 N1013 N 0.13350 0.08944 0.39179
 N1014 N 0.12220 0.12450 0.36458
 N1015 N 0.36829 0.90291 0.89173
 N1016 N 0.37716 0.86467 0.87106
 N1017 N 0.12861 0.88276 0.62707
 N1018 N 0.16787 0.89122 0.64323
 N1019 N 0.62516 0.61353 0.37361
 N1020 N 0.66425 0.60549 0.35620
 N1021 N 0.37422 0.11110 0.12608
 N1022 N 0.33514 0.10271 0.14327
 N1023 N 0.87962 0.41350 0.85315
 N1024 N 0.85142 0.40573 0.81488
 N1025 N 0.62948 0.11427 0.87609
 N1026 N 0.67120 0.11355 0.88153
 N1027 N 0.37522 0.60299 0.63461
 N1028 N 0.33372 0.59840 0.63562
 N1029 N 0.12428 0.39234 0.13046
 N1030 N 0.16605 0.39457 0.12987
 N1031 N 0.86956 0.89079 0.37716
 N1032 N 0.82825 0.89712 0.37569
 N1033 N 0.84744 0.58574 0.60186
 N1034 N 0.85119 0.62695 0.61200
 N1035 N 0.62856 0.40118 0.14437
 N1036 N 0.62317 0.36011 0.15430
 N1037 N 0.37583 0.89388 0.37733
 N1038 N 0.33837 0.90193 0.35414
 N1039 N 0.12745 0.10362 0.86783
 N1040 N 0.11930 0.14411 0.85691
 N1041 N 0.14052 0.90273 0.10075
 N1042 N 0.13184 0.86509 0.12276
 N1043 N 0.88491 0.38490 0.37151
 N1044 N 0.84381 0.39141 0.36383
 N1045 N 0.36432 0.11023 0.60749
 N1046 N 0.32665 0.10159 0.62986
 N1047 N 0.63720 0.59859 0.90649
 N1048 N 0.64674 0.59819 0.85106
 N1049 N 0.36395 0.40748 0.88109
 N1050 N 0.36622 0.36554 0.87864
 N1051 N 0.86608 0.08829 0.12699
 N1052 N 0.86729 0.13009 0.12208
 N1053 N 0.63571 0.91659 0.63288
 N1054 N 0.62859 0.87540 0.63763
 N1055 N 0.12353 0.61751 0.36986
 N1056 N 0.16506 0.61279 0.37366
   
