data_POSCAR
  _audit_creation_date              2014-09-24
  _audit_creation_method            'ToBaCCo'
  _symmetry_space_group_name_H-M    'P1'
  _symmetry_Int_Tables_number       1
  _symmetry_cell_setting            triclinic
  loop_
  _symmetry_equiv_pos_as_xyz
 x,y,z
_cell_length_a 54.8803
_cell_length_b 54.7388
_cell_length_c 20.2425
_cell_angle_alpha 89.981600
_cell_angle_beta 89.998900
_cell_angle_gamma 119.972900
loop_
  _atom_site_label
  _atom_site_type_symbol
  _atom_site_fract_x
  _atom_site_fract_y
  _atom_site_fract_z
C1 C 0.19468 0.49593 0.44275
 C2 C 0.18165 0.49134 0.50474
 C3 C 0.19588 0.49384 0.56409
 C4 C 0.22405 0.49951 0.56172
 C5 C 0.23762 0.50331 0.49968
 C6 C 0.22297 0.50157 0.44003
 C7 C 0.23615 0.50288 0.37941
 C8 C 0.26333 0.50738 0.37687
 C9 C 0.27811 0.50917 0.43480
 C10 C 0.26533 0.50715 0.49706
 C11 C 0.23787 0.49839 0.61908
 C12 C 0.26460 0.50155 0.61631
 C13 C 0.27937 0.50698 0.55628
 C14 C 0.30652 0.50944 0.55243
 C15 C 0.31883 0.51249 0.48987
 C16 C 0.30500 0.51190 0.43175
 H17 H 0.22536 0.49935 0.33279
 H18 H 0.27236 0.50861 0.32860
 H19 H 0.22756 0.49352 0.66670
 H20 H 0.27278 0.49841 0.66195
 H21 H 0.16044 0.48801 0.50739
 H22 H 0.33960 0.51478 0.48584
 C23 C 0.49979 -0.30178 0.44197
 C24 C 0.50317 -0.31231 0.50184
 C25 C 0.50452 -0.29933 0.56260
 C26 C 0.50270 -0.27426 0.56266
 C27 C 0.49838 -0.26371 0.50212
 C28 C 0.49692 -0.27756 0.44160
 C29 C 0.49387 -0.26616 0.38211
 C30 C 0.49220 -0.24171 0.38165
 C31 C 0.49427 -0.22723 0.44047
 C32 C 0.49708 -0.23836 0.50152
 C33 C 0.50794 -0.25786 0.61998
 C34 C 0.50671 -0.23309 0.61934
 C35 C 0.50011 -0.22342 0.56134
 C36 C 0.49928 -0.19778 0.55983
 C37 C 0.49634 -0.18751 0.49845
 C38 C 0.49420 -0.20153 0.43944
 H39 H 0.49317 -0.27573 0.33494
 H40 H 0.48971 -0.23400 0.33434
 H41 H 0.51433 -0.26322 0.66566
 H42 H 0.51225 -0.22107 0.66461
 H43 H 0.50401 -0.33169 0.50070
 H44 H 0.49559 -0.16809 0.49609
 C45 C 1.20079 0.69882 0.43465
 C46 C 1.18607 0.68770 0.49334
 C47 C 1.19794 0.69876 0.55542
 C48 C 1.22548 0.72292 0.55776
 C49 C 1.24051 0.73471 0.49798
 C50 C 1.22817 0.72233 0.43643
 C51 C 1.24370 0.73338 0.37818
 C52 C 1.27062 0.75664 0.37987
 C53 C 1.28291 0.77042 0.43967
 C54 C 1.26798 0.75893 0.49959
 C55 C 1.23793 0.73655 0.61752
 C56 C 1.26514 0.75942 0.61936
 C57 C 1.28052 0.77135 0.56107
 C58 C 1.30865 0.79430 0.56266
 C59 C 1.32343 0.80424 0.50296
 C60 C 1.31052 0.79417 0.44136
 H61 H 1.23530 0.72388 0.33058
 H62 H 1.28196 0.76326 0.33364
 H63 H 1.22685 0.72989 0.66398
 H64 H 1.27399 0.76735 0.66758
 H65 H 1.16534 0.66908 0.49026
 H66 H 1.34434 0.82266 0.50440
 C67 C 0.68810 0.48239 0.56430
 C68 C 0.67418 0.47878 0.50373
 C69 C 0.68753 0.48124 0.44329
 C70 C 0.71501 0.48521 0.44232
 C71 C 0.72921 0.48776 0.50272
 C72 C 0.71586 0.48648 0.56388
 C73 C 0.73017 0.48798 0.62278
 C74 C 0.75751 0.49268 0.62195
 C75 C 0.77138 0.49453 0.56214
 C76 C 0.75700 0.49199 0.50182
 C77 C 0.72849 0.48636 0.38238
 C78 C 0.75579 0.49094 0.38145
 C79 C 0.77051 0.49414 0.44046
 C80 C 0.79860 0.49993 0.43968
 C81 C 0.81295 0.50384 0.49911
 C82 C 0.79974 0.50048 0.56056
 H83 H 0.72038 0.48541 0.67055
 H84 H 0.76772 0.49527 0.66914
 H85 H 0.71801 0.48366 0.33544
 H86 H 0.76537 0.49218 0.33388
 H87 H 0.65344 0.47668 0.50312
 H88 H 0.83448 0.50805 0.49722
 C89 C 0.50771 0.30525 0.44221
 C90 C 0.50752 0.31744 0.50268
 C91 C 0.50848 0.30525 0.56257
 C92 C 0.51030 0.28039 0.56252
 C93 C 0.51070 0.26783 0.50157
 C94 C 0.50932 0.28026 0.44111
 C95 C 0.51022 0.26778 0.38125
 C96 C 0.51245 0.24356 0.38066
 C97 C 0.51382 0.23089 0.43992
 C98 C 0.51287 0.24303 0.50104
 C99 C 0.51259 0.26829 0.62168
 C100 C 0.51485 0.24409 0.62119
 C101 C 0.51434 0.23059 0.56155
 C102 C 0.51717 0.20612 0.56040
 C103 C 0.51943 0.19541 0.49912
 C104 C 0.51681 0.20674 0.43954
 H105 H 0.50961 0.27686 0.33420
 H106 H 0.51359 0.23512 0.33315
 H107 H 0.51322 0.27778 0.66903
 H108 H 0.51776 0.23653 0.66822
 H109 H 0.50605 0.33649 0.50317
 H110 H 0.52076 0.17629 0.49741
 C111 C 0.68902 0.20719 0.44352
 C112 C 0.67677 0.19548 0.50441
 C113 C 0.69081 0.20690 0.56391
 C114 C 0.71782 0.23129 0.56306
 C115 C 0.73012 0.24414 0.50185
 C116 C 0.71570 0.23200 0.44179
 C117 C 0.72819 0.24505 0.38167
 C118 C 0.75459 0.26919 0.38026
 C119 C 0.76946 0.28123 0.43894
 C120 C 0.75710 0.26890 0.50054
 C121 C 0.73290 0.24304 0.62161
 C122 C 0.75959 0.26684 0.62026
 C123 C 0.77185 0.28089 0.56060
 C124 C 0.79917 0.30539 0.55838
 C125 C 0.81087 0.31673 0.49634
 C126 C 0.79645 0.30529 0.43752
 H127 H 0.71758 0.23679 0.33505
 H128 H 0.76332 0.27831 0.33255
 H129 H 0.72434 0.23374 0.66925
 H130 H 0.77062 0.27363 0.66675
 H131 H 0.65647 0.17625 0.50542
 H132 H 0.83138 0.33565 0.49335
 O133 O 0.96036 0.44084 0.12261
 O134 O 0.92933 0.44774 0.06050
 C135 C 0.93507 0.43500 0.10692
 O136 O 1.04122 0.56619 0.11266
 O137 O 1.07159 0.55731 0.05346
 C138 C 1.06635 0.57178 0.09621
 O139 O 0.96289 0.52607 0.12216
 O140 O 0.93053 0.48896 0.06016
 C141 C 0.93720 0.50750 0.10688
 O142 O 1.03870 0.47573 0.11389
 O143 O 1.07041 0.51465 0.05509
 C144 C 1.06418 0.49483 0.09824
 Zr145 Zr 0.99970 0.47072 0.08246
 O146 O 1.00284 0.47038 0.18661
 O147 O 0.99712 0.43102 0.07399
 Zr148 Zr 1.00147 0.53337 0.08187
 O149 O 1.00530 0.53621 0.18604
 O150 O 0.99912 0.57081 0.07865
 O151 O 0.97564 0.49014 0.09606
 O152 O 1.02502 0.51377 0.09388
 O153 O 1.03745 0.47594 -0.11844
 O154 O 1.07008 0.51379 -0.05837
 C155 C 1.06318 0.49450 -0.10345
 O156 O 0.96202 0.52449 -0.12364
 O157 O 0.92994 0.48825 -0.05892
 C158 C 0.93646 0.50595 -0.10751
 O159 O 1.04031 0.56539 -0.11682
 O160 O 1.07119 0.55669 -0.05915
 C161 C 1.06554 0.57087 -0.10183
 O162 O 0.95926 0.43991 -0.12068
 O163 O 0.92875 0.44734 -0.05781
 C164 C 0.93414 0.43424 -0.10392
 Zr165 Zr 0.99880 0.46993 -0.08231
 O166 O 0.99811 0.46570 -0.18628
 O167 O 0.99558 0.42985 -0.07296
 Zr168 Zr 1.00079 0.53279 -0.08356
 O169 O 1.00343 0.53514 -0.18790
 O170 O 0.99823 0.57012 -0.08021
 Zr171 Zr 0.95786 0.48157 0.00055
 Zr172 Zr 1.04241 0.52195 -0.00179
 O173 O 1.02405 0.51298 -0.09631
 O174 O 0.97490 0.48943 -0.09570
 O175 O 1.02463 0.47777 -0.00063
 O176 O 0.97641 0.52574 -0.00040
 O177 O 0.97413 0.45398 0.00085
 O178 O 1.02663 0.55006 -0.00158
 H179 H 1.03757 0.51988 0.13294
 H180 H 0.96380 0.53384 -0.00053
 H181 H 1.03639 0.51911 -0.13572
 H182 H 0.96077 0.43339 0.00133
 H183 H 1.01585 0.58519 0.05454
 H184 H 1.01559 0.58494 -0.05896
 H185 H 0.99025 0.51607 -0.20506
 H186 H 1.00639 0.48480 -0.20542
 H187 H 1.01316 0.43261 -0.05248
 H188 H 0.99705 0.42457 0.11976
 H189 H 0.99036 0.47689 0.20483
 H190 H 0.99048 0.51809 0.20449
 O191 O 0.43592 0.47680 0.11804
 O192 O 0.44323 0.51456 0.05455
 C193 C 0.43008 0.49615 0.10074
 O194 O 0.56108 0.52141 0.11870
 O195 O 0.55320 0.48259 0.05878
 C196 C 0.56671 0.50170 0.10328
 O197 O 0.52159 0.56082 0.12027
 O198 O 0.48412 0.55460 0.05717
 C199 C 0.50261 0.56717 0.10336
 O200 O 0.47203 0.43411 0.11532
 O201 O 0.51103 0.44130 0.05757
 C202 C 0.49126 0.42775 0.10066
 Zr203 Zr 0.46668 0.46776 0.08141
 O204 O 0.46543 0.46474 0.18572
 O205 O 0.42744 0.43030 0.07233
 Zr206 Zr 0.52899 0.52892 0.08361
 O207 O 0.53019 0.52804 0.18806
 O208 O 0.56657 0.56853 0.08197
 O209 O 0.48560 0.51127 0.09473
 O210 O 0.50947 0.48576 0.09575
 O211 O 0.47345 0.43407 -0.11481
 O212 O 0.51189 0.44137 -0.05436
 C213 C 0.49245 0.42767 -0.09806
 O214 O 0.52387 0.56165 -0.11926
 O215 O 0.48554 0.55548 -0.05997
 C216 C 0.50514 0.56855 -0.10379
 O217 O 0.56312 0.52213 -0.11326
 O218 O 0.55418 0.48292 -0.05339
 C219 C 0.56848 0.50234 -0.09684
 O220 O 0.43715 0.47642 -0.12307
 O221 O 0.44410 0.51470 -0.06209
 C222 C 0.43119 0.49587 -0.10767
 Zr223 Zr 0.46801 0.46805 -0.08437
 O224 O 0.47036 0.46679 -0.18863
 O225 O 0.42795 0.43111 -0.08510
 Zr226 Zr 0.53019 0.52912 -0.08242
 O227 O 0.53202 0.52767 -0.18674
 O228 O 0.56779 0.56868 -0.08064
 Zr229 Zr 0.47799 0.52029 -0.00193
 Zr230 Zr 0.51882 0.47679 0.00110
 O231 O 0.51098 0.48599 -0.09486
 O232 O 0.48702 0.51163 -0.09751
 O233 O 0.47485 0.45015 -0.00066
 O234 O 0.52207 0.54609 -0.00000
 O235 O 0.45090 0.47631 -0.00239
 O236 O 0.54670 0.52070 0.00164
 H237 H 0.51507 0.47926 0.13561
 H238 H 0.53043 0.56686 0.00045
 H239 H 0.51727 0.47949 -0.13352
 H240 H 0.43029 0.46868 -0.00314
 H241 H 0.58127 0.56588 0.06040
 H242 H 0.58156 0.56660 -0.05324
 H243 H 0.51476 0.52671 -0.20444
 H244 H 0.47279 0.48477 -0.20598
 H245 H 0.42832 0.41813 -0.05157
 H246 H 0.42077 0.42403 0.11803
 H247 H 0.47095 0.48367 0.20320
 H248 H 0.51191 0.52501 0.20446
 O249 O 0.47556 0.03765 0.12220
 O250 O 0.51251 0.06926 0.05863
 C251 C 0.49434 0.06320 0.10566
 O252 O 0.52357 -0.03981 0.11723
 O253 O 0.48539 -0.07126 0.05654
 C254 C 0.50474 -0.06530 0.10059
 O255 O 0.55966 0.03902 0.12455
 O256 O 0.55315 0.06995 0.06098
 C257 C 0.56551 0.06434 0.10840
 O258 O 0.43473 -0.04120 0.11520
 O259 O 0.44338 -0.07177 0.05585
 C260 C 0.42937 -0.06644 0.09954
 Zr261 Zr 0.46718 -0.00146 0.08166
 O262 O 0.46210 -0.00251 0.18535
 O263 O 0.42921 -0.00107 0.06806
 Zr264 Zr 0.52949 -0.00042 0.08476
 O265 O 0.52813 -0.00341 0.18912
 O266 O 0.56987 0.00346 0.08362
 O267 O 0.51037 0.02397 0.09664
 O268 O 0.48647 -0.02530 0.09553
 O269 O 0.43579 -0.04082 -0.11691
 O270 O 0.44395 -0.07165 -0.05723
 C271 C 0.43010 -0.06614 -0.10106
 O272 O 0.56137 0.03939 -0.11893
 O273 O 0.55416 0.07016 -0.05660
 C274 C 0.56718 0.06468 -0.10264
 O275 O 0.52544 -0.03933 -0.11244
 O276 O 0.48619 -0.07102 -0.05510
 C277 C 0.50629 -0.06486 -0.09713
 O278 O 0.47649 0.03813 -0.12292
 O279 O 0.51332 0.06946 -0.05866
 C280 C 0.49538 0.06359 -0.10619
 Zr281 Zr 0.46838 -0.00115 -0.08371
 O282 O 0.46660 -0.00400 -0.18804
 O283 O 0.43098 0.00115 -0.08197
 Zr284 Zr 0.53060 -0.00015 -0.08104
 O285 O 0.53044 -0.00319 -0.18531
 O286 O 0.57099 0.00382 -0.07697
 Zr287 Zr 0.51953 0.04147 0.00079
 Zr288 Zr 0.47851 -0.04292 0.00020
 O289 O 0.48774 -0.02501 -0.09496
 O290 O 0.51177 0.02442 -0.09540
 O291 O 0.45068 -0.02688 -0.00131
 O292 O 0.54654 0.02458 0.00227
 O293 O 0.47552 0.02359 -0.00088
 O294 O 0.52253 -0.02557 0.00190
 H295 H 0.48029 -0.03784 0.13465
 H296 H 0.56713 0.03774 0.00308
 H297 H 0.48196 -0.03747 -0.13421
 H298 H 0.46762 0.03639 -0.00127
 H299 H 0.56819 -0.01331 0.06089
 H300 H 0.56921 -0.01265 -0.05253
 H301 H 0.52690 0.01154 -0.20340
 H302 H 0.48515 0.01049 -0.20509
 H303 H 0.41700 -0.01490 -0.05523
 H304 H 0.42225 -0.00066 0.11295
 H305 H 0.47664 -0.00596 0.20463
 H306 H 0.52386 0.01100 0.20609
 C307 C 1.14509 0.49442 0.27901
 C308 C 1.13374 0.47367 0.32853
 C309 C 1.15026 0.47393 0.38116
 C310 C 1.17877 0.49499 0.38640
 C311 C 1.19003 0.51604 0.33720
 C312 C 1.17353 0.51556 0.28388
 C313 C 1.12671 0.49459 0.22491
 C314 C 1.13003 0.52015 0.20027
 C315 C 1.11063 0.52016 0.15542
 C316 C 1.08727 0.49470 0.13525
 C317 C 1.08459 0.46917 0.15721
 C318 C 1.10429 0.46911 0.20078
 H319 H 1.14064 0.45729 0.41770
 H320 H 1.21139 0.53349 0.34099
 H321 H 1.11294 0.54011 0.13976
 H322 H 1.06686 0.44924 0.14181
 H323 H 1.18304 0.53195 0.24683
 H324 H 1.14674 0.54021 0.21811
 H325 H 1.11178 0.45746 0.32777
 H326 H 1.10149 0.44901 0.21690
 C327 C 0.50162 0.65039 0.27547
 C328 C 0.52489 0.66433 0.31800
 C329 C 0.52459 0.68091 0.36979
 C330 C 0.50090 0.68367 0.38122
 C331 C 0.47768 0.67015 0.33878
 C332 C 0.47819 0.65399 0.28577
 C333 C 0.50127 0.63072 0.22408
 C334 C 0.47612 0.60586 0.20815
 C335 C 0.47642 0.58580 0.16599
 C336 C 0.50186 0.58988 0.14019
 C337 C 0.52684 0.61494 0.15393
 C338 C 0.52649 0.63539 0.19446
 H339 H 0.54255 0.69086 0.40263
 H340 H 0.45900 0.67165 0.34750
 H341 H 0.45701 0.56640 0.15654
 H342 H 0.54666 0.61855 0.13381
 H343 H 0.46003 0.64395 0.25367
 H344 H 0.45634 0.60114 0.23060
 H345 H 0.54300 0.66157 0.31327
 H346 H 0.54615 0.65459 0.20371
 C347 C 0.35478 -0.15391 0.27794
 C348 C 0.32591 -0.16394 0.28563
 C349 C 0.31106 -0.18198 0.33794
 C350 C 0.32481 -0.19021 0.38427
 C351 C 0.35383 -0.18000 0.37607
 C352 C 0.36852 -0.16240 0.32311
 C353 C 0.37111 -0.13323 0.22562
 C354 C 0.36926 -0.10870 0.21794
 C355 C 0.38738 -0.08737 0.17470
 C356 C 0.40730 -0.09044 0.13745
 C357 C 0.40786 -0.11578 0.14224
 C358 C 0.39018 -0.13682 0.18644
 H359 H 0.28907 -0.18832 0.34400
 H360 H 0.36518 -0.18582 0.41051
 H361 H 0.38635 -0.06815 0.17187
 H362 H 0.42288 -0.11882 0.11415
 H363 H 0.39088 -0.15462 0.31869
 H364 H 0.35475 -0.10543 0.24778
 H365 H 0.31495 -0.15746 0.25168
 H366 H 0.39183 -0.15566 0.19115
 C367 C 0.85022 0.50452 0.27571
 C368 C 0.82826 0.47826 0.29754
 C369 C 0.81029 0.47681 0.34840
 C370 C 0.81394 0.50154 0.37820
 C371 C 0.83490 0.52776 0.35465
 C372 C 0.85272 0.52927 0.30352
 C373 C 0.87194 0.50613 0.22887
 C374 C 0.90038 0.52630 0.23881
 C375 C 0.92127 0.52702 0.19826
 C376 C 0.91442 0.50748 0.14660
 C377 C 0.88593 0.48751 0.13571
 C378 C 0.86492 0.48684 0.17644
 H379 H 0.79440 0.45639 0.36673
 H380 H 0.83809 0.54704 0.37750
 H381 H 0.94294 0.54264 0.20853
 H382 H 0.87989 0.47216 0.09637
 H383 H 0.86902 0.54984 0.28711
 H384 H 0.90672 0.54108 0.27947
 H385 H 0.82590 0.45880 0.27791
 H386 H 0.84319 0.47116 0.16706
 C387 C 0.50007 0.34928 0.27538
 C388 C 0.47772 0.32258 0.29308
 C389 C 0.48060 0.30765 0.34571
 C390 C 0.50581 0.31926 0.38156
 C391 C 0.52836 0.34557 0.36313
 C392 C 0.52560 0.36039 0.31018
 C393 C 0.49623 0.36657 0.22448
 C394 C 0.51756 0.38228 0.17843
 C395 C 0.51523 0.40103 0.13555
 C396 C 0.49169 0.40478 0.13851
 C397 C 0.46981 0.38812 0.18264
 C398 C 0.47201 0.36914 0.22496
 H399 H 0.46293 0.28745 0.35983
 H400 H 0.54784 0.35493 0.39087
 H401 H 0.53239 0.41337 0.10192
 H402 H 0.45136 0.39041 0.18612
 H403 H 0.54301 0.38109 0.29830
 H404 H 0.53633 0.38048 0.17656
 H405 H 0.45788 0.31350 0.26692
 H406 H 0.45534 0.35747 0.26030
 C407 C 0.64245 0.15404 0.28084
 C408 C 0.63135 0.16795 0.31786
 C409 C 0.64698 0.18625 0.36907
 C410 C 0.67413 0.19129 0.38337
 C411 C 0.68566 0.17825 0.34489
 C412 C 0.66995 0.15976 0.29409
 C413 C 0.62460 0.13204 0.23226
 C414 C 0.62318 0.10569 0.23314
 C415 C 0.60452 0.08394 0.19172
 C416 C 0.58709 0.08815 0.14784
 C417 C 0.58939 0.11490 0.14506
 C418 C 0.60772 0.13653 0.18735
 H419 H 0.63761 0.19582 0.39891
 H420 H 0.70642 0.18158 0.35587
 H421 H 0.60340 0.06366 0.19493
 H422 H 0.57647 0.11892 0.11149
 H423 H 0.67904 0.14943 0.26603
 H424 H 0.63577 0.10157 0.26770
 H425 H 0.61008 0.16366 0.30922
 H426 H 0.60856 0.15671 0.18538
 C427 C 0.50863 0.15297 -0.27900
 C428 C 0.48954 0.16271 -0.28683
 C429 C 0.49321 0.18159 -0.33764
 C430 C 0.51574 0.19058 -0.38252
 C431 C 0.53487 0.18076 -0.37388
 C432 C 0.53163 0.16258 -0.32200
 C433 C 0.50373 0.13127 -0.22932
 C434 C 0.47903 0.10490 -0.23145
 C435 C 0.47588 0.08303 -0.19011
 C436 C 0.49719 0.08736 -0.14507
 C437 C 0.52121 0.11432 -0.14071
 C438 C 0.52465 0.13594 -0.18315
 H439 H 0.47746 0.18779 -0.34422
 H440 H 0.55241 0.18716 -0.40750
 H441 H 0.45705 0.06259 -0.19447
 H442 H 0.53782 0.11848 -0.10604
 H443 H 0.54646 0.15509 -0.31700
 H444 H 0.46273 0.10087 -0.26715
 H445 H 0.47151 0.15527 -0.25438
 H446 H 0.54383 0.15619 -0.18076
 C447 C 0.64478 0.49038 -0.27098
 C448 C 0.67326 0.51019 -0.28145
 C449 C 0.68797 0.50697 -0.33407
 C450 C 0.67441 0.48398 -0.37789
 C451 C 0.64581 0.46423 -0.36695
 C452 C 0.63133 0.46716 -0.31362
 C453 C 0.62833 0.49479 -0.21913
 C454 C 0.61028 0.47254 -0.17743
 C455 C 0.59205 0.47563 -0.13443
 C456 C 0.59110 0.50083 -0.13332
 C457 C 0.61016 0.52353 -0.17285
 C458 C 0.62872 0.52059 -0.21499
 H459 H 0.70956 0.52331 -0.34247
 H460 H 0.63462 0.44635 -0.39970
 H461 H 0.57781 0.45782 -0.10437
 H462 H 0.61008 0.54327 -0.17290
 H463 H 0.60926 0.45181 -0.30715
 H464 H 0.60979 0.45253 -0.17936
 H465 H 0.68398 0.52843 -0.24957
 H466 H 0.64237 0.53802 -0.24687
 C467 C 0.85031 0.35261 -0.27934
 C468 C 0.86154 0.34497 -0.33256
 C469 C 0.84445 0.32873 -0.38442
 C470 C 0.81543 0.31941 -0.38501
 C471 C 0.80411 0.32697 -0.33145
 C472 C 0.82133 0.34329 -0.27915
 C473 C 0.86940 0.37134 -0.22652
 C474 C 0.86625 0.39340 -0.20004
 C475 C 0.88658 0.41321 -0.15712
 C476 C 0.91053 0.41146 -0.14076
 C477 C 0.91294 0.38869 -0.16449
 C478 C 0.89249 0.36871 -0.20622
 H479 H 0.85407 0.32337 -0.42439
 H480 H 0.78220 0.32142 -0.33135
 H481 H 0.88436 0.43071 -0.13964
 H482 H 0.93102 0.38664 -0.15174
 H483 H 0.81203 0.34888 -0.23899
 H484 H 0.84887 0.39620 -0.21502
 H485 H 0.88384 0.35224 -0.33532
 H486 H 0.89520 0.35157 -0.22407
 C487 C 0.50541 -0.14720 -0.27468
 C488 C 0.52111 -0.13512 -0.33229
 C489 C 0.51941 -0.15190 -0.38570
 C490 C 0.50201 -0.18143 -0.38341
 C491 C 0.48615 -0.19358 -0.32565
 C492 C 0.48789 -0.17666 -0.27184
 C493 C 0.50635 -0.12857 -0.22014
 C494 C 0.48160 -0.13373 -0.18752
 C495 C 0.48190 -0.11376 -0.14387
 C496 C 0.50684 -0.08812 -0.13284
 C497 C 0.53187 -0.08375 -0.16224
 C498 C 0.53167 -0.10385 -0.20491
 H499 H 0.53207 -0.14163 -0.42894
 H500 H 0.47154 -0.21606 -0.32300
 H501 H 0.46231 -0.11764 -0.12195
 H502 H 0.55149 -0.06434 -0.15393
 H503 H 0.47532 -0.18660 -0.22834
 H504 H 0.46169 -0.15239 -0.19862
 H505 H 0.53424 -0.11248 -0.33699
 H506 H 0.55123 -0.09954 -0.22797
 C507 C 0.35271 0.50205 -0.28715
 C508 C 0.34089 0.51962 -0.28135
 C509 C 0.32556 0.52221 -0.33372
 C510 C 0.32120 0.50685 -0.39268
 C511 C 0.33343 0.48962 -0.39814
 C512 C 0.34894 0.48736 -0.34660
 C513 C 0.36993 0.49956 -0.23337
 C514 C 0.37010 0.47414 -0.22448
 C515 C 0.38935 0.47276 -0.18194
 C516 C 0.40846 0.49652 -0.14563
 C517 C 0.40662 0.52117 -0.14965
 C518 C 0.38784 0.52285 -0.19380
 H519 H 0.31780 0.53684 -0.32867
 H520 H 0.33063 0.47734 -0.44238
 H521 H 0.38963 0.45315 -0.17852
 H522 H 0.42048 0.53952 -0.12079
 H523 H 0.35840 0.47433 -0.35414
 H524 H 0.35582 0.45537 -0.25182
 H525 H 0.34349 0.53142 -0.23648
 H526 H 0.38832 0.54277 -0.19896
 C527 C 1.14774 0.65198 -0.28062
 C528 C 1.13617 0.65954 -0.33332
 C529 C 1.15290 0.67548 -0.38604
 C530 C 1.18186 0.68459 -0.38786
 C531 C 1.19344 0.67689 -0.33509
 C532 C 1.17662 0.66094 -0.28198
 C533 C 1.12913 0.63360 -0.22673
 C534 C 1.13261 0.61175 -0.20020
 C535 C 1.11277 0.59220 -0.15611
 C536 C 1.08895 0.59397 -0.13850
 C537 C 1.08625 0.61660 -0.16213
 C538 C 1.10625 0.63634 -0.20518
 H539 H 1.14308 0.68087 -0.42549
 H540 H 1.21527 0.68218 -0.33604
 H541 H 1.11518 0.57478 -0.13893
 H542 H 1.06825 0.61863 -0.14858
 H543 H 1.18620 0.65539 -0.24235
 H544 H 1.14982 0.60883 -0.21609
 H545 H 1.11391 0.65249 -0.33490
 H546 H 1.10335 0.65336 -0.22309
 C547 C 0.85190 0.50475 -0.28083
 C548 C 0.86049 0.52742 -0.32502
 C549 C 0.84287 0.52630 -0.37579
 C550 C 0.81563 0.50300 -0.38240
 C551 C 0.80624 0.48107 -0.33556
 C552 C 0.82427 0.48190 -0.28538
 C553 C 0.87279 0.50421 -0.23484
 C554 C 0.86553 0.49291 -0.17058
 C555 C 0.88599 0.49306 -0.12851
 C556 C 0.91398 0.50477 -0.15000
 C557 C 0.92089 0.51543 -0.21456
 C558 C 0.90061 0.51495 -0.25639
 H559 H 0.85064 0.54368 -0.41050
 H560 H 0.78568 0.46243 -0.34038
 H561 H 0.88007 0.48451 -0.07909
 H562 H 0.94207 0.52391 -0.23341
 H563 H 0.81708 0.46398 -0.25256
 H564 H 0.84423 0.48440 -0.15255
 H565 H 0.88131 0.54578 -0.32173
 H566 H 0.90680 0.52280 -0.30624
 C567 C 0.50135 0.34842 -0.26858
 C568 C 0.52662 0.35999 -0.30458
 C569 C 0.52927 0.34546 -0.35824
 C570 C 0.50688 0.31897 -0.37607
 C571 C 0.48202 0.30683 -0.33882
 C572 C 0.47923 0.32150 -0.28555
 C573 C 0.49738 0.36558 -0.21776
 C574 C 0.51888 0.38183 -0.17258
 C575 C 0.51654 0.40084 -0.13069
 C576 C 0.49286 0.40432 -0.13400
 C577 C 0.47073 0.38698 -0.17682
 C578 C 0.47292 0.36772 -0.21805
 H579 H 0.54848 0.35518 -0.38704
 H580 H 0.46449 0.28646 -0.35243
 H581 H 0.53380 0.41363 -0.09774
 H582 H 0.45209 0.38896 -0.18023
 H583 H 0.45959 0.31209 -0.25846
 H584 H 0.53781 0.38032 -0.17082
 H585 H 0.54385 0.38087 -0.29320
 H586 H 0.45607 0.35555 -0.25262
 C587 C 0.64609 0.15466 -0.27094
 C588 C 0.63558 0.16994 -0.30449
 C589 C 0.65081 0.18800 -0.35633
 C590 C 0.67694 0.19137 -0.37489
 C591 C 0.68797 0.17696 -0.33995
 C592 C 0.67269 0.15877 -0.28830
 C593 C 0.62821 0.13266 -0.22245
 C594 C 0.61237 0.13764 -0.17546
 C595 C 0.59347 0.11589 -0.13423
 C596 C 0.58958 0.08857 -0.14025
 C597 C 0.60620 0.08391 -0.18571
 C598 C 0.62539 0.10575 -0.22610
 H599 H 0.64179 0.19862 -0.38358
 H600 H 0.70792 0.17900 -0.35432
 H601 H 0.58139 0.12030 -0.09895
 H602 H 0.60394 0.06320 -0.19131
 H603 H 0.68131 0.14733 -0.26303
 H604 H 0.61434 0.15828 -0.17124
 H605 H 0.61495 0.16682 -0.29288
 H606 H 0.63717 0.10124 -0.26223
 C607 C 1.14627 0.49026 -0.27260
 C608 C 1.13687 0.46743 -0.31658
 C609 C 1.15376 0.46813 -0.36863
 C610 C 1.18113 0.49104 -0.37657
 C611 C 1.19166 0.51268 -0.32886
 C612 C 1.17427 0.51243 -0.27769
 C613 C 1.12576 0.49192 -0.22715
 C614 C 1.13331 0.50411 -0.16374
 C615 C 1.11323 0.50534 -0.12275
 C616 C 1.08531 0.49410 -0.14441
 C617 C 1.07812 0.48248 -0.20805
 C618 C 1.09801 0.48165 -0.24886
 H619 H 1.14521 0.45087 -0.40374
 H620 H 1.21250 0.53089 -0.33419
 H621 H 1.11938 0.51463 -0.07406
 H622 H 1.05702 0.47436 -0.22716
 H623 H 1.18219 0.53039 -0.24483
 H624 H 1.15454 0.51235 -0.14558
 H625 H 1.11586 0.44942 -0.31261
 H626 H 1.09159 0.47326 -0.29821
 C627 C 0.50970 0.65544 -0.27257
 C628 C 0.52703 0.66094 -0.32810
 C629 C 0.52611 0.67688 -0.38051
 C630 C 0.50767 0.68778 -0.37976
 C631 C 0.49072 0.68284 -0.32341
 C632 C 0.49185 0.66699 -0.27030
 C633 C 0.50912 0.63601 -0.22032
 C634 C 0.48367 0.61628 -0.19018
 C635 C 0.48259 0.59519 -0.14905
 C636 C 0.50670 0.59299 -0.13872
 C637 C 0.53241 0.61369 -0.16544
 C638 C 0.53368 0.63515 -0.20497
 H639 H 0.53986 0.68050 -0.42232
 H640 H 0.47549 0.68992 -0.32171
 H641 H 0.46267 0.57985 -0.12800
 H642 H 0.55154 0.61300 -0.15678
 H643 H 0.47831 0.66329 -0.22813
 H644 H 0.46430 0.61618 -0.20089
 H645 H 0.54066 0.65202 -0.33255
 H646 H 0.55383 0.65058 -0.22525
 C647 C 0.35223 -0.15476 -0.27275
 C648 C 0.36470 -0.16653 -0.31236
 C649 C 0.35001 -0.18395 -0.36551
 C650 C 0.32214 -0.19077 -0.37912
 C651 C 0.30946 -0.17947 -0.33809
 C652 C 0.32441 -0.16155 -0.28568
 C653 C 0.36925 -0.13349 -0.22217
 C654 C 0.38581 -0.13846 -0.17731
 C655 C 0.40444 -0.11703 -0.13506
 C656 C 0.40735 -0.09002 -0.13801
 C657 C 0.38985 -0.08550 -0.18101
 C658 C 0.37090 -0.10707 -0.22241
 H659 H 0.36050 -0.19209 -0.39629
 H660 H 0.28852 -0.18322 -0.34873
 H661 H 0.41734 -0.12132 -0.10198
 H662 H 0.39142 -0.06502 -0.18430
 H663 H 0.31449 -0.15247 -0.25612
 H664 H 0.38475 -0.15875 -0.17601
 H665 H 0.38628 -0.16126 -0.30395
 H666 H 0.35854 -0.10266 -0.25702
 C667 C 0.49759 -0.15308 0.27000
 C668 C 0.47305 -0.16645 0.30863
 C669 C 0.47143 -0.18325 0.36234
 C670 C 0.49413 -0.18725 0.37747
 C671 C 0.51818 -0.17487 0.33736
 C672 C 0.51993 -0.15786 0.28405
 C673 C 0.50092 -0.13192 0.21999
 C674 C 0.52491 -0.10497 0.22114
 C675 C 0.52668 -0.08362 0.18026
 C676 C 0.50459 -0.08886 0.13683
 C677 C 0.48138 -0.11635 0.13278
 C678 C 0.47939 -0.13760 0.17461
 H679 H 0.45288 -0.19239 0.39342
 H680 H 0.53599 -0.17752 0.34896
 H681 H 0.54497 -0.06276 0.18426
 H682 H 0.46427 -0.12121 0.09904
 H683 H 0.53901 -0.14780 0.25487
 H684 H 0.54171 -0.10001 0.25604
 H685 H 0.45575 -0.16271 0.29937
 H686 H 0.46080 -0.15833 0.17248
 C687 C 0.34927 0.50617 0.26387
 C688 C 0.35921 0.53206 0.29672
 C689 C 0.34401 0.53444 0.34930
 C690 C 0.31846 0.51112 0.36904
 C691 C 0.30779 0.48568 0.33415
 C692 C 0.32306 0.48322 0.28195
 C693 C 0.36762 0.50228 0.21649
 C694 C 0.37151 0.47892 0.22301
 C695 C 0.39118 0.47656 0.18401
 C696 C 0.40730 0.49741 0.13711
 C697 C 0.40237 0.52008 0.12823
 C698 C 0.38295 0.52266 0.16812
 H699 H 0.35270 0.55409 0.37639
 H700 H 0.28827 0.46738 0.34939
 H701 H 0.39423 0.45870 0.19189
 H702 H 0.41414 0.53630 0.09193
 H703 H 0.31489 0.46309 0.25720
 H704 H 0.36021 0.46305 0.26039
 H705 H 0.37952 0.54995 0.28434
 H706 H 0.38018 0.54078 0.16188
 C707 C 1.15389 0.65384 0.26353
 C708 C 1.15806 0.68083 0.27769
 C709 C 1.17441 0.69610 0.33180
 C710 C 1.18675 0.68457 0.37251
 C711 C 1.18356 0.65817 0.35714
 C712 C 1.16740 0.64298 0.30282
 C713 C 1.13310 0.63573 0.21305
 C714 C 1.13846 0.61852 0.17097
 C715 C 1.11725 0.59875 0.12983
 C716 C 1.09016 0.59546 0.13110
 C717 C 1.08533 0.61371 0.17079
 C718 C 1.10657 0.63365 0.21108
 H719 H 1.17663 0.71643 0.34337
 H720 H 1.19283 0.64896 0.38854
 H721 H 1.12178 0.58534 0.09907
 H722 H 1.06481 0.61199 0.17251
 H723 H 1.16425 0.62210 0.29366
 H724 H 1.15885 0.61992 0.17107
 H725 H 1.14802 0.68976 0.24797
 H726 H 1.10173 0.64644 0.24332
 C727 C 0.50689 0.15320 0.27566
 C728 C 0.48473 0.15751 0.29486
 C729 C 0.48852 0.17626 0.34586
 C730 C 0.51445 0.19080 0.37866
 C731 C 0.53685 0.18716 0.35835
 C732 C 0.53318 0.16867 0.30678
 C733 C 0.50208 0.13099 0.22736
 C734 C 0.47889 0.10371 0.23464
 C735 C 0.47586 0.08182 0.19378
 C736 C 0.49580 0.08685 0.14429
 C737 C 0.51822 0.11452 0.13495
 C738 C 0.52151 0.13630 0.17661
 H739 H 0.47093 0.17859 0.36162
 H740 H 0.55686 0.19793 0.38388
 H741 H 0.45827 0.06082 0.20209
 H742 H 0.53367 0.11924 0.09659
 H743 H 0.55045 0.16540 0.29341
 H744 H 0.46374 0.09907 0.27380
 H745 H 0.46431 0.14585 0.27145
 H746 H 0.53944 0.15723 0.16976
 C747 C 0.64282 0.48921 0.27824
 C748 C 0.63149 0.46369 0.31354
 C749 C 0.64647 0.46065 0.36570
 C750 C 0.67316 0.48290 0.38284
 C751 C 0.68486 0.50808 0.34643
 C752 C 0.66986 0.51120 0.29454
 C753 C 0.62563 0.49356 0.22812
 C754 C 0.62439 0.51859 0.22802
 C755 C 0.60609 0.52173 0.18551
 C756 C 0.58875 0.49997 0.14181
 C757 C 0.59098 0.47547 0.13973
 C758 C 0.60909 0.47222 0.18278
 H759 H 0.63697 0.44123 0.39388
 H760 H 0.70526 0.52564 0.35961
 H761 H 0.60497 0.54090 0.18827
 H762 H 0.57801 0.45835 0.10651
 H763 H 0.67916 0.53100 0.26792
 H764 H 0.63670 0.53530 0.26284
 H765 H 0.61055 0.44654 0.30268
 H766 H 0.60985 0.45283 0.18135
 C767 C 0.84605 0.35234 0.27192
 C768 C 0.82923 0.36099 0.30556
 C769 C 0.81182 0.34477 0.35733
 C770 C 0.81073 0.31957 0.37571
 C771 C 0.82629 0.31008 0.34015
 C772 C 0.84381 0.32632 0.28852
 C773 C 0.86792 0.37174 0.22491
 C774 C 0.89519 0.37564 0.22856
 C775 C 0.91672 0.39577 0.18926
 C776 C 0.91155 0.41249 0.14510
 C777 C 0.88409 0.40808 0.13998
 C778 C 0.86250 0.38797 0.17975
 H779 H 0.80011 0.35245 0.38499
 H780 H 0.82580 0.29075 0.35429
 H781 H 0.93760 0.39854 0.19447
 H782 H 0.87941 0.42061 0.10642
 H783 H 0.85633 0.31902 0.26300
 H784 H 0.90016 0.36385 0.26368
 H785 H 0.83076 0.38106 0.29444
 H786 H 0.84163 0.38530 0.17573
   
