data_POSCAR
  _audit_creation_date              2014-09-24
  _audit_creation_method            'ToBaCCo'
  _symmetry_space_group_name_H-M    'P1'
  _symmetry_Int_Tables_number       1
  _symmetry_cell_setting            triclinic
  loop_
  _symmetry_equiv_pos_as_xyz
 x,y,z
_cell_length_a 26.1348
_cell_length_b 26.0881
_cell_length_c 26.0156
_cell_angle_alpha 90.072700
_cell_angle_beta 90.160700
_cell_angle_gamma 89.937200
loop_
  _atom_site_label
  _atom_site_type_symbol
  _atom_site_fract_x
  _atom_site_fract_y
  _atom_site_fract_z
O1 O 0.56810 0.13013 0.00158
 O2 O 0.62661 0.06463 0.00097
 C3 C 0.61471 0.11296 0.00137
 O4 O 0.42839 -0.00584 0.13014
 O5 O 0.37182 -0.00287 0.06266
 C6 C 0.38223 -0.00569 0.11136
 O7 O 0.57169 0.00441 0.13029
 O8 O 0.62784 0.00392 0.06298
 C9 C 0.61792 0.00520 0.11185
 O10 O 0.42556 0.12721 -0.00482
 O11 O 0.37055 0.05897 -0.00185
 C12 C 0.37987 0.10770 -0.00462
 Zr13 Zr 0.49767 0.09075 0.00028
 O14 O 0.49085 0.14655 0.05907
 O15 O 0.50161 0.14931 -0.05576
 Zr16 Zr 0.49987 0.00073 0.09243
 O17 O 0.49276 0.06085 0.14677
 O18 O 0.50651 -0.05303 0.15285
 O19 O 0.54471 0.05386 0.05336
 O20 O 0.45379 0.05139 0.05283
 O21 O 0.42718 0.00061 -0.12825
 O22 O 0.37085 -0.00245 -0.06083
 C23 C 0.38110 -0.00021 -0.10955
 O24 O 0.57431 -0.12795 -0.00172
 O25 O 0.62946 -0.05971 0.00089
 C26 C 0.62004 -0.10849 -0.00111
 O27 O 0.43121 -0.13155 0.00453
 O28 O 0.37348 -0.06548 0.00229
 C29 C 0.38477 -0.11381 0.00438
 O30 O 0.57114 -0.00315 -0.12877
 O31 O 0.62778 0.00140 -0.06142
 C32 C 0.61729 -0.00131 -0.11011
 Zr33 Zr 0.49945 -0.00130 -0.09099
 O34 O 0.49474 -0.05930 -0.14780
 O35 O 0.50375 0.05533 -0.14906
 Zr36 Zr 0.50184 -0.09184 0.00143
 O37 O 0.49745 -0.15002 -0.05522
 O38 O 0.50917 -0.14787 0.05986
 Zr39 Zr 0.57632 0.00114 0.00065
 Zr40 Zr 0.42329 -0.00223 0.00060
 O41 O 0.45626 -0.05433 -0.05151
 O42 O 0.54661 -0.05284 -0.05195
 O43 O 0.45282 0.05087 -0.05267
 O44 O 0.54546 -0.05126 0.05370
 O45 O 0.54280 0.05232 -0.05217
 O46 O 0.45539 -0.05377 0.05417
 H47 H 0.42999 0.07231 0.07379
 H48 H 0.56885 -0.07203 0.07532
 H49 H 0.43356 -0.07624 -0.07275
 H50 H 0.56497 0.07405 -0.07396
 H51 H 0.48573 -0.08311 0.14301
 H52 H 0.47885 -0.14506 0.08238
 H53 H 0.52526 -0.14389 -0.08015
 H54 H 0.52422 -0.08256 -0.14272
 H55 H 0.47434 0.07877 -0.14446
 H56 H 0.47709 0.14038 -0.08334
 H57 H 0.52188 0.14440 0.08082
 H58 H 0.52383 0.08234 0.14445
 O59 O -0.00130 0.57388 -0.12994
 O60 O 0.00046 0.62946 -0.06167
 C61 C -0.00065 0.61973 -0.11061
 O62 O -0.13041 0.43076 0.00260
 O63 O -0.06531 0.37205 -0.00321
 C64 C -0.11336 0.38403 0.00099
 O65 O -0.12736 0.57401 -0.00214
 O66 O -0.05926 0.62925 0.00163
 C67 C -0.10797 0.61982 -0.00061
 O68 O 0.00192 0.43148 -0.13386
 O69 O -0.00351 0.37239 -0.06925
 C70 C -0.00027 0.38446 -0.11764
 Zr71 Zr -0.00221 0.50154 -0.09395
 O72 O -0.06461 0.49900 -0.14609
 O73 O 0.04815 0.50432 -0.15730
 Zr74 Zr -0.09130 0.50133 -0.00152
 O75 O -0.14817 0.49791 -0.05958
 O76 O -0.14882 0.50719 0.05529
 O77 O -0.05288 0.54797 -0.05357
 O78 O -0.05447 0.45663 -0.05558
 O79 O 0.12701 0.42470 -0.00921
 O80 O 0.05904 0.36922 -0.00732
 C81 C 0.10768 0.37884 -0.00964
 O82 O 0.00807 0.56710 0.12840
 O83 O 0.00411 0.62614 0.06325
 C84 C 0.00783 0.61392 0.11146
 O85 O -0.00254 0.42396 0.12452
 O86 O -0.00157 0.36878 0.05583
 C87 C -0.00292 0.37817 0.10482
 O88 O 0.13036 0.56815 0.00047
 O89 O 0.06445 0.62622 0.00017
 C90 C 0.11272 0.61474 0.00144
 Zr91 Zr 0.09096 0.49722 -0.00374
 O92 O 0.14838 0.48891 0.05326
 O93 O 0.14760 0.50246 -0.06153
 Zr94 Zr 0.00100 0.49669 0.08875
 O95 O 0.05746 0.48804 0.14658
 O96 O -0.05638 0.50255 0.14581
 Zr97 Zr 0.00152 0.57605 -0.00052
 Zr98 Zr -0.00180 0.42222 -0.00495
 O99 O 0.05180 0.45205 0.04781
 O100 O 0.05430 0.54249 0.05094
 O101 O 0.05070 0.45375 -0.05765
 O102 O -0.05068 0.54370 0.05172
 O103 O 0.05208 0.54387 -0.05456
 O104 O -0.05307 0.45305 0.04958
 H105 H -0.07643 0.43411 -0.07697
 H106 H -0.07110 0.56659 0.07414
 H107 H 0.07312 0.42831 0.06848
 H108 H 0.07382 0.56674 -0.07560
 H109 H -0.14123 0.48113 0.08180
 H110 H -0.07898 0.47234 0.14239
 H111 H 0.08466 0.51338 0.13959
 H112 H 0.14529 0.51818 0.07726
 H113 H 0.14137 0.47437 -0.08638
 H114 H 0.08316 0.50639 -0.14311
 H115 H -0.08197 0.53272 -0.14520
 H116 H -0.14406 0.52844 -0.08169
 O117 O 0.12718 -0.00747 0.42787
 O118 O 0.06027 -0.00571 0.37067
 C119 C 0.10874 -0.00800 0.38143
 O120 O -0.01111 -0.12675 0.57425
 O121 O -0.00547 -0.05881 0.62991
 C122 C -0.01025 -0.10738 0.62018
 O123 O -0.00211 -0.13137 0.43155
 O124 O -0.00154 -0.06639 0.37237
 C125 C -0.00124 -0.11464 0.38464
 O126 O 0.12732 0.00384 0.57150
 O127 O 0.06044 0.00172 0.62830
 C128 C 0.10889 0.00379 0.61784
 Zr129 Zr 0.08955 -0.00346 0.49982
 O130 O 0.14091 -0.06591 0.50762
 O131 O 0.15268 0.04672 0.49434
 Zr132 Zr -0.00432 -0.09123 0.50189
 O133 O 0.05211 -0.14899 0.51010
 O134 O -0.06204 -0.14790 0.49698
 O135 O 0.04953 -0.05595 0.45484
 O136 O 0.04901 -0.05296 0.54620
 O137 O 0.00620 0.13034 0.56791
 O138 O 0.00032 0.06544 0.62695
 C139 C 0.00486 0.11342 0.61480
 O140 O -0.13036 0.00541 0.42687
 O141 O -0.06357 -0.00145 0.37030
 C142 C -0.11195 0.00286 0.38061
 O143 O -0.13043 0.00273 0.57103
 O144 O -0.06337 0.00582 0.62799
 C145 C -0.11187 0.00418 0.61741
 O146 O -0.00106 0.12679 0.42396
 O147 O 0.00019 0.05823 0.36877
 C148 C -0.00098 0.10709 0.37808
 Zr149 Zr 0.00120 0.09103 0.49690
 O150 O -0.05440 0.14998 0.50118
 O151 O 0.05959 0.14677 0.48944
 Zr152 Zr -0.09278 0.00274 0.49900
 O153 O -0.14831 0.06175 0.50306
 O154 O -0.15127 -0.05322 0.49445
 Zr155 Zr -0.00161 -0.00230 0.42236
 Zr156 Zr -0.00156 0.00210 0.57644
 O157 O -0.05222 0.05508 0.54247
 O158 O -0.05274 0.05303 0.45168
 O159 O 0.05287 0.05223 0.54402
 O160 O -0.05540 -0.05204 0.45576
 O161 O 0.05230 0.04912 0.45364
 O162 O -0.05594 -0.04982 0.54657
 H163 H 0.06925 -0.07417 0.57044
 H164 H -0.07724 -0.07345 0.43315
 H165 H -0.07288 0.07788 0.56476
 H166 H 0.07430 0.06952 0.43043
 H167 H -0.08863 -0.13901 0.52244
 H168 H -0.14805 -0.07562 0.52493
 H169 H -0.14208 0.08536 0.47404
 H170 H -0.07846 0.14512 0.47217
 H171 H 0.08270 0.14346 0.51944
 H172 H 0.14003 0.08109 0.50387
 H173 H 0.14070 -0.08529 0.47490
 H174 H 0.07595 -0.14586 0.48081
 C175 C -0.26765 0.22684 0.00167
 C176 C -0.31830 0.24032 -0.01014
 C177 C -0.35611 0.20300 -0.01038
 C178 C -0.34396 0.15175 0.00041
 C179 C -0.29247 0.13922 0.01003
 N180 N -0.25603 0.17665 0.01060
 C181 C -0.22736 0.26665 0.00457
 N182 N -0.17810 0.25520 -0.00826
 C183 C -0.14050 0.29146 -0.00856
 C184 C -0.15194 0.34263 0.00407
 C185 C -0.20207 0.35449 0.01907
 C186 C -0.23953 0.31682 0.01972
 H187 H -0.39497 0.21448 -0.01928
 H188 H -0.28136 0.10003 0.01797
 H189 H -0.10216 0.28056 -0.01982
 H190 H -0.21258 0.39309 0.03027
 H191 H -0.32883 0.27932 -0.01956
 H192 H -0.27767 0.32712 0.03214
 C193 C 0.26174 0.77775 0.00676
 C194 C 0.25084 0.83056 0.00472
 C195 C 0.29092 0.86586 0.00439
 C196 C 0.34195 0.84906 0.00588
 C197 C 0.35124 0.79613 0.00811
 N198 N 0.31159 0.76250 0.00839
 C199 C 0.22147 0.73753 0.00619
 N200 N 0.23654 0.68759 0.00362
 C201 C 0.20283 0.64800 0.00237
 C202 C 0.14998 0.65746 0.00352
 C203 C 0.13338 0.70857 0.00653
 C204 C 0.16878 0.74857 0.00801
 H205 H 0.28184 0.90634 0.00257
 H206 H 0.38992 0.78131 0.00934
 H207 H 0.21752 0.60926 0.00020
 H208 H 0.09298 0.71776 0.00779
 H209 H 0.21225 0.84519 0.00281
 H210 H 0.15431 0.78722 0.01071
 C211 C 0.25461 0.21370 -0.01134
 C212 C 0.24440 0.16088 -0.00710
 C213 C 0.28514 0.12606 -0.00505
 C214 C 0.33593 0.14355 -0.00729
 C215 C 0.34430 0.19642 -0.01178
 N216 N 0.30420 0.22939 -0.01358
 C217 C 0.21430 0.25391 -0.01248
 N218 N 0.22980 0.30364 -0.01514
 C219 C 0.19664 0.34366 -0.01504
 C220 C 0.14378 0.33505 -0.01183
 C221 C 0.12653 0.28411 -0.00970
 C222 C 0.16152 0.24348 -0.01004
 H223 H 0.27681 0.08554 -0.00151
 H224 H 0.38267 0.21179 -0.01372
 H225 H 0.21189 0.38216 -0.01701
 H226 H 0.08605 0.27562 -0.00731
 H227 H 0.20590 0.14608 -0.00512
 H228 H 0.14684 0.20489 -0.00805
 C229 C -0.25503 0.78491 -0.00294
 C230 C -0.24471 0.83786 -0.00277
 C231 C -0.28534 0.87284 -0.00229
 C232 C -0.33617 0.85538 -0.00217
 C233 C -0.34470 0.80230 -0.00285
 N234 N -0.30467 0.76918 -0.00315
 C235 C -0.21471 0.74470 -0.00284
 N236 N -0.23008 0.69501 -0.00670
 C237 C -0.19688 0.65503 -0.00615
 C238 C -0.14411 0.66364 -0.00131
 C239 C -0.12701 0.71453 0.00262
 C240 C -0.16206 0.75513 0.00193
 H241 H -0.27694 0.91348 -0.00200
 H242 H -0.38312 0.78687 -0.00291
 H243 H -0.21202 0.61657 -0.00950
 H244 H -0.08661 0.72301 0.00644
 H245 H -0.20616 0.85268 -0.00317
 H246 H -0.14759 0.79370 0.00556
 C247 C 0.01063 -0.26891 0.22641
 C248 C 0.02772 -0.31857 0.23820
 C249 C 0.02763 -0.35621 0.20035
 C250 C 0.01136 -0.34470 0.15029
 C251 C -0.00286 -0.29390 0.13916
 N252 N -0.00323 -0.25779 0.17711
 C253 C 0.00628 -0.22929 0.26706
 N254 N 0.01146 -0.17867 0.25515
 C255 C 0.00855 -0.14109 0.29156
 C256 C 0.00003 -0.15382 0.34335
 C257 C -0.00669 -0.20567 0.35585
 C258 C -0.00390 -0.24321 0.31808
 H259 H 0.04010 -0.39451 0.21049
 H260 H -0.01516 -0.28329 0.10086
 H261 H 0.01360 -0.10154 0.28014
 H262 H -0.01425 -0.21749 0.39499
 H263 H 0.04102 -0.32854 0.27632
 H264 H -0.01034 -0.28270 0.32892
 C265 C 0.00591 0.26959 0.77111
 C266 C 0.00447 0.32124 0.75648
 C267 C 0.00248 0.35930 0.79372
 C268 C 0.00092 0.34681 0.84642
 C269 C 0.00068 0.29424 0.85944
 N270 N 0.00325 0.25762 0.82202
 C271 C 0.00927 0.22840 0.73186
 N272 N -0.01030 0.18102 0.74185
 C273 C -0.01074 0.14292 0.70589
 C274 C 0.00848 0.15200 0.65632
 C275 C 0.03040 0.19986 0.64604
 C276 C 0.03142 0.23773 0.68363
 H277 H 0.00178 0.39871 0.78061
 H278 H -0.00095 0.28208 0.89919
 H279 H -0.02752 0.10625 0.71549
 H280 H 0.04682 0.20813 0.60878
 H281 H 0.00408 0.33263 0.71652
 H282 H 0.04947 0.27389 0.67464
 C283 C -0.00455 0.25333 0.21185
 C284 C -0.00169 0.24280 0.15884
 C285 C -0.00155 0.28337 0.12366
 C286 C -0.00416 0.33433 0.14100
 C287 C -0.00734 0.34302 0.19413
 N288 N -0.00736 0.30308 0.22742
 C289 C -0.00390 0.21320 0.25237
 N290 N -0.00396 0.22909 0.30223
 C291 C -0.00309 0.19613 0.34248
 C292 C -0.00199 0.14302 0.33399
 C293 C -0.00211 0.12538 0.28295
 C294 C -0.00309 0.16021 0.24207
 H295 H 0.00099 0.27484 0.08299
 H296 H -0.00958 0.38153 0.20948
 H297 H -0.00322 0.21171 0.38105
 H298 H -0.00147 0.08470 0.27457
 H299 H 0.00086 0.20417 0.14415
 H300 H -0.00332 0.14524 0.20337
 C301 C -0.00655 -0.25884 0.77953
 C302 C 0.00627 -0.30869 0.76406
 C303 C 0.00899 -0.34758 0.80022
 C304 C -0.00053 -0.33732 0.85225
 C305 C -0.01093 -0.28641 0.86679
 N306 N -0.01386 -0.24881 0.83044
 C307 C -0.01273 -0.21811 0.74055
 N308 N 0.00381 -0.16946 0.75010
 C309 C 0.00289 -0.13236 0.71316
 C310 C -0.01450 -0.14399 0.66328
 C311 C -0.03396 -0.19316 0.65383
 C312 C -0.03344 -0.22999 0.69222
 H313 H 0.01832 -0.38589 0.78715
 H314 H -0.01798 -0.27678 0.90663
 H315 H 0.01762 -0.09463 0.72213
 H316 H -0.04894 -0.20354 0.61638
 H317 H 0.01413 -0.31770 0.72422
 H318 H -0.04845 -0.26776 0.68382
 C319 C 0.25707 0.00461 0.78252
 C320 C 0.24655 0.00514 0.83556
 C321 C 0.28693 0.00347 0.87084
 C322 C 0.33777 0.00145 0.85368
 C323 C 0.34662 0.00144 0.80050
 N324 N 0.30675 0.00293 0.76700
 C325 C 0.21671 0.00574 0.74218
 N326 N 0.23187 0.00910 0.69226
 C327 C 0.19835 0.00919 0.65232
 C328 C 0.14558 0.00550 0.66130
 C329 C 0.12879 0.00240 0.71243
 C330 C 0.16406 0.00241 0.75289
 H331 H 0.27829 0.00395 0.91153
 H332 H 0.38512 0.00013 0.78534
 H333 H 0.21320 0.01178 0.61362
 H334 H 0.08842 -0.00060 0.72122
 H335 H 0.20805 0.00711 0.85030
 H336 H 0.14966 -0.00086 0.79158
 C337 C -0.26083 0.00716 0.21639
 C338 C -0.25060 0.00759 0.16337
 C339 C -0.29115 0.00724 0.12824
 C340 C -0.34234 0.00664 0.14537
 C341 C -0.35059 0.00696 0.19891
 N342 N -0.31044 0.00709 0.23211
 C343 C -0.22025 0.00664 0.25656
 N344 N -0.23515 0.00936 0.30660
 C345 C -0.20149 0.00846 0.34640
 C346 C -0.14875 0.00445 0.33719
 C347 C -0.13219 0.00168 0.28596
 C348 C -0.16765 0.00266 0.24561
 H349 H -0.28204 0.00728 0.08763
 H350 H -0.38884 0.00672 0.21480
 H351 H -0.21620 0.01069 0.38518
 H352 H -0.09187 -0.00147 0.27699
 H353 H -0.21211 0.00824 0.14848
 H354 H -0.15342 -0.00011 0.20681
 C355 C 0.25776 -0.01149 0.21816
 C356 C 0.24744 -0.00747 0.16519
 C357 C 0.28798 -0.00603 0.13032
 C358 C 0.33883 -0.00837 0.14779
 C359 C 0.34746 -0.01272 0.20085
 N360 N 0.30743 -0.01401 0.23399
 C361 C 0.21723 -0.01178 0.25816
 N362 N 0.23222 -0.01071 0.30830
 C363 C 0.19852 -0.01004 0.34790
 C364 C 0.14564 -0.01020 0.33832
 C365 C 0.12901 -0.01180 0.28697
 C366 C 0.16451 -0.01272 0.24686
 H367 H 0.27943 -0.00263 0.08970
 H368 H 0.38593 -0.01481 0.21620
 H369 H 0.21330 -0.00894 0.38678
 H370 H 0.08859 -0.01222 0.27772
 H371 H 0.20898 -0.00482 0.15022
 H372 H 0.15019 -0.01420 0.20795
 C373 C -0.25917 0.00038 0.78202
 C374 C -0.24835 0.00010 0.83506
 C375 C -0.28857 -0.00076 0.87031
 C376 C -0.33955 -0.00146 0.85314
 C377 C -0.34866 -0.00162 0.79998
 N378 N -0.30896 -0.00065 0.76649
 C379 C -0.21908 0.00170 0.74165
 N380 N -0.23456 0.00026 0.69165
 C381 C -0.20130 0.00131 0.65170
 C382 C -0.14844 0.00395 0.66078
 C383 C -0.13133 0.00565 0.71196
 C384 C -0.16635 0.00459 0.75243
 H385 H -0.27968 -0.00079 0.91100
 H386 H -0.38725 -0.00220 0.78481
 H387 H -0.21640 -0.00012 0.61295
 H388 H -0.09087 0.00772 0.72084
 H389 H -0.20974 0.00054 0.84984
 H390 H -0.15163 0.00612 0.79119
   
