data_POSCAR
  _audit_creation_date              2014-09-24
  _audit_creation_method            'ToBaCCo'
  _symmetry_space_group_name_H-M    'P1'
  _symmetry_Int_Tables_number       1
  _symmetry_cell_setting            triclinic
  loop_
  _symmetry_equiv_pos_as_xyz
 x,y,z
_cell_length_a 21.4850
_cell_length_b 21.5206
_cell_length_c 57.6082
_cell_angle_alpha 90.002900
_cell_angle_beta 90.085300
_cell_angle_gamma 120.064100
loop_
  _atom_site_label
  _atom_site_type_symbol
  _atom_site_fract_x
  _atom_site_fract_y
  _atom_site_fract_z
C1 C -0.06505 -0.07908 0.48159
 C2 C -0.01946 -0.04079 0.50016
 C3 C -0.01138 -0.07831 0.51877
 C4 C -0.04798 -0.15353 0.51870
 C5 C -0.09406 -0.19150 0.50024
 C6 C -0.10295 -0.15432 0.48174
 C7 C 0.01963 0.03842 0.50016
 C8 C 0.01121 0.07606 0.51866
 C9 C 0.04778 0.15123 0.51858
 C10 C 0.09416 0.18908 0.50024
 C11 C 0.10339 0.15184 0.48187
 C12 C 0.06557 0.07665 0.48170
 H13 H -0.07182 -0.05020 0.46728
 H14 H 0.02421 -0.04883 0.53306
 H15 H -0.02459 0.04684 0.53288
 H16 H 0.07274 0.04789 0.46746
 H17 H -0.12295 -0.24979 0.50028
 H18 H 0.12299 0.24731 0.50028
 C19 C 1.07871 0.01118 0.14745
 C20 C 1.04126 0.01899 0.16612
 C21 C 1.07979 0.06377 0.18481
 C22 C 1.15506 0.10098 0.18473
 C23 C 1.19220 0.09242 0.16619
 C24 C 1.15407 0.04720 0.14758
 C25 C 0.96191 -0.01973 0.16618
 C26 C 0.92378 -0.06446 0.18488
 C27 C 0.84850 -0.10158 0.18490
 C28 C 0.81101 -0.09297 0.16644
 C29 C 0.84875 -0.04783 0.14784
 C30 C 0.92403 -0.01190 0.14759
 H31 H 1.04909 -0.02385 0.13307
 H32 H 1.05118 0.07047 0.19920
 H33 H 0.95270 -0.07117 0.19920
 H34 H 0.95315 0.02304 0.13319
 H35 H 1.25055 0.12090 0.16627
 H36 H 0.75269 -0.12125 0.16654
 C37 C 0.06399 0.98850 0.85229
 C38 C 0.01813 0.98065 0.83374
 C39 C 0.01034 0.93503 0.81517
 C40 C 0.04744 0.89698 0.81526
 C41 C 0.09375 0.90559 0.83368
 C42 C 0.10239 0.95167 0.85215
 C43 C -0.02156 1.02014 0.83374
 C44 C -0.01378 1.06582 0.81521
 C45 C -0.05086 1.10390 0.81529
 C46 C -0.09713 1.09523 0.83367
 C47 C -0.10576 1.04909 0.85211
 C48 C -0.06738 1.01224 0.85225
 H49 H 0.07054 1.02415 0.86658
 H50 H -0.02541 0.92836 0.80088
 H51 H 0.02196 1.07254 0.80095
 H52 H -0.07391 0.97654 0.86651
 H53 H 0.12291 0.87650 0.83359
 H54 H -0.12627 1.12435 0.83359
 O55 O 0.58962 0.06118 -0.02313
 O56 O 0.46899 0.06079 0.02200
 O57 O 0.58887 0.05830 0.02211
 O58 O 0.46689 0.05803 -0.02324
 O59 O 0.40789 -0.06071 -0.02311
 O60 O 0.52919 -0.06044 0.02188
 O61 O 0.40932 -0.05795 0.02214
 O62 O 0.53063 -0.05756 -0.02336
 Cu63 Cu 0.53456 0.07153 -0.00056
 Cu64 Cu 0.46328 -0.07112 -0.00062
 C65 C 0.58061 0.00216 -0.03092
 C66 C 0.41899 0.00164 0.02976
 C67 C 0.57933 -0.00131 0.02966
 C68 C 0.41680 -0.00167 -0.03084
 O69 O 0.05939 0.47025 0.64415
 O70 O 0.05966 0.59119 0.68914
 O71 O 0.05642 0.46867 0.68939
 O72 O 0.05708 0.59006 0.64389
 O73 O -0.06185 0.53057 0.64395
 O74 O -0.06251 0.40985 0.68909
 O75 O -0.05927 0.53238 0.68920
 O76 O -0.05954 0.41076 0.64385
 Cu77 Cu 0.07012 0.53600 0.66665
 Cu78 Cu -0.07277 0.46494 0.66650
 C79 C 0.00017 0.42025 0.63635
 C80 C 0.00053 0.58228 0.69683
 C81 C -0.00344 0.41879 0.69692
 C82 C -0.00256 0.58052 0.63623
 O83 O 0.53135 0.59583 0.31208
 O84 O 0.41166 0.47421 0.35684
 O85 O 0.53582 0.58712 0.35630
 O86 O 0.41555 0.46468 0.31069
 O87 O 0.47347 0.40401 0.31205
 O88 O 0.59303 0.52561 0.35698
 O89 O 0.46886 0.41269 0.35625
 O90 O 0.58927 0.53516 0.31081
 Cu91 Cu 0.46672 0.53457 0.33345
 Cu92 Cu 0.53804 0.46527 0.33351
 C93 C 0.58056 0.58640 0.30384
 C94 C 0.41987 0.42341 0.36429
 C95 C 0.58477 0.57639 0.36442
 C96 C 0.42426 0.41343 0.30374
 C97 C 0.03719 0.18961 0.53719
 C98 C 0.02842 0.22223 0.55263
 C99 C 0.01879 0.26125 0.57059
 C100 C 0.01163 0.29557 0.58581
 C101 C 0.00502 0.33719 0.60353
 C102 C 0.00142 0.37420 0.61858
 C103 C 0.80973 0.85078 0.20375
 C104 C 0.77710 0.81049 0.21944
 C105 C 0.73830 0.76298 0.23767
 C106 C 0.70431 0.72229 0.25311
 C107 C 0.66311 0.67464 0.27101
 C108 C 0.62641 0.63415 0.28612
 C109 C 0.14870 -0.03872 -0.13020
 C110 C 0.19006 -0.03018 -0.11471
 C111 C 0.23873 -0.02067 -0.09671
 C112 C 0.28025 -0.01353 -0.08145
 C113 C 0.32858 -0.00684 -0.06369
 C114 C 0.36931 -0.00312 -0.04863
 C115 C -0.03828 0.81025 0.53644
 C116 C -0.02977 0.77778 0.55200
 C117 C -0.02041 0.73892 0.57009
 C118 C -0.01346 0.70476 0.58542
 C119 C -0.00707 0.66330 0.60325
 C120 C -0.00364 0.62643 0.61838
 C121 C 0.19419 0.14870 0.20357
 C122 C 0.22709 0.18906 0.21925
 C123 C 0.26613 0.23665 0.23748
 C124 C 0.30029 0.27740 0.25293
 C125 C 0.34163 0.32511 0.27084
 C126 C 0.37840 0.36565 0.28598
 C127 C 0.84797 0.03944 -0.13027
 C128 C 0.80667 0.03087 -0.11481
 C129 C 0.75809 0.02132 -0.09683
 C130 C 0.71667 0.01414 -0.08158
 C131 C 0.66848 0.00741 -0.06382
 C132 C 0.62790 0.00365 -0.04874
 C133 C 0.19021 0.03766 0.12980
 C134 C 0.22256 0.02921 0.11418
 C135 C 0.26123 0.01985 0.09605
 C136 C 0.29522 0.01286 0.08068
 C137 C 0.33648 0.00637 0.06280
 C138 C 0.37321 0.00284 0.04764
 C139 C 0.85093 0.80864 0.46409
 C140 C 0.80971 0.77541 0.44860
 C141 C 0.76123 0.73573 0.43062
 C142 C 0.71992 0.70098 0.41536
 C143 C 0.67193 0.65906 0.39756
 C144 C 0.63161 0.62206 0.38241
 C145 C -0.04077 0.15254 0.79663
 C146 C -0.03225 0.19365 0.78112
 C147 C -0.02275 0.24198 0.76307
 C148 C -0.01558 0.28319 0.74775
 C149 C -0.00882 0.33116 0.72992
 C150 C -0.00502 0.37160 0.71479
 C151 C 0.81018 -0.03767 0.12915
 C152 C 0.77747 -0.02916 0.11364
 C153 C 0.73840 -0.01973 0.09561
 C154 C 0.70407 -0.01267 0.08033
 C155 C 0.66245 -0.00613 0.06255
 C156 C 0.62543 -0.00255 0.04746
 C157 C 0.15244 0.19092 0.46334
 C158 C 0.19393 0.22416 0.44798
 C159 C 0.24272 0.26387 0.43012
 C160 C 0.28425 0.29867 0.41496
 C161 C 0.33245 0.34064 0.39727
 C162 C 0.37292 0.37769 0.38220
 C163 C 0.03736 0.84841 0.79656
 C164 C 0.02887 0.80736 0.78102
 C165 C 0.01942 0.75909 0.76295
 C166 C 0.01231 0.71790 0.74762
 C167 C 0.00566 0.66995 0.72979
 C168 C 0.00196 0.62950 0.71467
   
