data_POSCAR
  _audit_creation_date              2014-09-24
  _audit_creation_method            'ToBaCCo'
  _symmetry_space_group_name_H-M    'P1'
  _symmetry_Int_Tables_number       1
  _symmetry_cell_setting            triclinic
  loop_
  _symmetry_equiv_pos_as_xyz
 x,y,z
_cell_length_a 21.4377
_cell_length_b 22.0108
_cell_length_c 21.9427
_cell_angle_alpha 89.475900
_cell_angle_beta 90.107600
_cell_angle_gamma 89.827000
loop_
  _atom_site_label
  _atom_site_type_symbol
  _atom_site_fract_x
  _atom_site_fract_y
  _atom_site_fract_z
N1 N 0.18225 0.18712 0.18109
 N2 N -0.17141 0.82241 0.18364
 N3 N -0.19545 0.19446 -0.18162
 N4 N 0.17375 0.82393 -0.18537
 N5 N 0.18138 1.18981 0.81505
 N6 N 0.82166 0.81914 0.81879
 N7 N 0.18941 0.81716 1.19249
 N8 N 0.81582 1.18574 1.18039
 O9 O 0.41152 0.87388 0.90336
 O10 O 0.34335 0.92687 0.96350
 C11 C 0.35639 0.88474 0.92479
 O12 O 0.61333 0.89781 1.09075
 O13 O 0.66544 0.96032 1.02423
 C14 C 0.66420 0.91849 1.06582
 O15 O 0.43931 0.87093 1.10512
 O16 O 0.35755 0.92560 1.06446
 C17 C 0.38008 0.88192 1.09768
 O18 O 0.58021 0.90137 0.87235
 O19 O 0.65032 0.96113 0.92328
 C20 C 0.63577 0.92223 0.88174
 Zr21 Zr 0.49653 0.91934 0.91941
 O22 O 0.51450 0.82471 0.91830
 O23 O 0.47587 0.91786 0.82498
 Zr24 Zr 0.51774 0.92028 1.07243
 O25 O 0.53427 0.82631 1.08482
 O26 O 0.52279 0.92945 1.16843
 O27 O 0.45413 0.90201 1.00273
 O28 O 0.56135 0.91404 0.98865
 O29 O 0.55658 1.10378 0.86940
 O30 O 0.63814 1.06262 0.92360
 C31 C 0.61564 1.09616 0.88022
 O32 O 0.41331 1.09486 1.11476
 O33 O 0.34478 1.03112 1.06653
 C34 C 0.35799 1.07254 1.10602
 O35 O 0.58598 1.11338 1.09314
 O36 O 0.65291 1.06380 1.02843
 C37 C 0.64078 1.10372 1.06988
 O38 O 0.38508 1.09369 0.89863
 O39 O 0.33111 1.02936 0.96217
 C40 C 0.33392 1.07042 0.91962
 Zr41 Zr 0.47891 1.07208 0.92012
 O42 O 0.47657 1.16793 0.92822
 O43 O 0.46123 1.08259 0.82585
 Zr44 Zr 0.49927 1.07216 1.07232
 O45 O 0.49221 1.16815 1.07133
 O46 O 0.50724 1.07069 1.16854
 Zr47 Zr 0.40603 0.98571 1.00720
 Zr48 Zr 0.58980 1.00557 0.98395
 O49 O 0.54164 1.08883 0.98903
 O50 O 0.43224 1.07800 1.00318
 O51 O 0.54057 1.00147 0.90072
 O52 O 0.45595 0.98985 1.09000
 O53 O 0.43314 0.98965 0.91512
 O54 O 0.56554 1.00231 1.07711
 H55 H 0.59238 0.88097 0.98396
 H56 H 0.43248 0.98574 1.12869
 H57 H 0.56544 1.12713 0.98448
 H58 H 0.40148 0.98560 0.88250
 H59 H 0.56507 0.94424 1.17863
 H60 H 0.54800 1.05209 1.17894
 H61 H 0.45258 1.17904 1.05074
 H62 H 0.43511 1.17940 0.94426
 H63 H 0.46238 1.04145 0.80831
 H64 H 0.50437 0.94676 0.80444
 H65 H 0.48745 0.80548 0.94944
 H66 H 0.53138 0.80801 1.04400
 O67 O 0.11595 0.42806 -0.11287
 O68 O 0.06419 0.35543 -0.05690
 C69 C 0.10605 0.37215 -0.09605
 O70 O 0.11347 0.59263 0.10625
 O71 O 0.04983 0.65743 0.05206
 C72 C 0.09081 0.64614 0.09424
 O73 O 0.14093 0.42538 0.08610
 O74 O 0.07673 0.35409 0.04331
 C75 C 0.12556 0.36976 0.07401
 O76 O 0.08069 0.59535 -0.12814
 O77 O 0.03496 0.65878 -0.05842
 C78 C 0.06442 0.64874 -0.10902
 Zr79 Zr 0.06853 0.50882 -0.08712
 O80 O 0.16231 0.52571 -0.11140
 O81 O 0.04441 0.49979 -0.18008
 Zr82 Zr 0.09514 0.50838 0.06402
 O83 O 0.18906 0.52672 0.04055
 O84 O 0.12529 0.50152 0.15561
 O85 O 0.09776 0.45565 -0.01342
 O86 O 0.08906 0.56327 -0.01275
 O87 O -0.12936 0.57947 -0.08838
 O88 O -0.06720 0.65071 -0.04273
 C89 C -0.11414 0.63514 -0.07631
 O90 O -0.08000 0.40951 0.12590
 O91 O -0.02895 0.34630 0.05981
 C92 C -0.06340 0.35624 0.10721
 O93 O -0.08776 0.57864 0.12972
 O94 O -0.05140 0.65087 0.06245
 C95 C -0.08053 0.63445 0.11164
 O96 O -0.12369 0.41036 -0.07809
 O97 O -0.04762 0.34661 -0.04045
 C98 C -0.10083 0.35679 -0.06700
 Zr99 Zr -0.08523 0.49696 -0.06247
 O100 O -0.18358 0.49477 -0.05718
 O101 O -0.09223 0.49047 -0.15851
 Zr102 Zr -0.06010 0.49623 0.08933
 O103 O -0.15807 0.49401 0.10135
 O104 O -0.04738 0.49062 0.18483
 Zr105 Zr 0.01129 0.41161 0.00076
 Zr106 Zr -0.00273 0.59343 0.00239
 O107 O -0.08829 0.54860 0.01588
 O108 O -0.08079 0.44191 0.01527
 O109 O -0.01478 0.55743 -0.08555
 O110 O 0.02376 0.44976 0.08759
 O111 O -0.00583 0.44880 -0.08633
 O112 O 0.01490 0.55520 0.08936
 H113 H 0.12155 0.59488 -0.01767
 H114 H 0.03228 0.42297 0.12318
 H115 H -0.12651 0.57314 0.02226
 H116 H -0.00894 0.41965 -0.12038
 H117 H 0.08747 0.49609 0.18068
 H118 H -0.01406 0.51965 0.19550
 H119 H -0.17349 0.45541 0.08414
 H120 H -0.19410 0.49213 -0.01344
 H121 H -0.07885 0.52990 -0.17611
 H122 H 0.08441 0.49914 -0.20259
 H123 H 0.18816 0.51300 -0.07620
 H124 H 0.20748 0.48857 0.02510
 O125 O 1.11600 -0.07905 0.40772
 O126 O 1.04392 -0.03356 0.34435
 C127 C 1.09363 -0.06597 0.35418
 O128 O 0.91154 -0.10914 0.59655
 O129 O 0.96474 -0.04291 0.65803
 C130 C 0.93077 -0.09068 0.64935
 O131 O 0.89247 -0.10879 0.42681
 O132 O 0.93782 -0.04795 0.35362
 C133 C 0.90053 -0.09109 0.37074
 O134 O 1.13243 -0.07245 0.57819
 O135 O 1.06891 -0.02823 0.64958
 C136 C 1.11677 -0.06055 0.63413
 Zr137 Zr 1.08553 -0.05151 0.49497
 O138 O 1.09694 -0.14700 0.50150
 O139 O 1.18267 -0.04086 0.48224
 Zr140 Zr 0.93065 -0.07387 0.50843
 O141 O 0.94921 -0.16842 0.51155
 O142 O 0.83351 -0.08983 0.51433
 O143 O 1.00507 -0.07554 0.44697
 O144 O 1.01461 -0.07260 0.55451
 O145 O 1.09438 0.13875 0.57477
 O146 O 1.05464 0.07429 0.64785
 C147 C 1.08600 0.12178 0.63095
 O148 O 0.86237 0.10285 0.42337
 O149 O 0.92281 0.05443 0.35222
 C150 C 0.87635 0.08862 0.36771
 O151 O 0.87953 0.11026 0.59307
 O152 O 0.95046 0.06254 0.65587
 C153 C 0.90499 0.10022 0.64591
 O154 O 1.07384 0.13993 0.40569
 O155 O 1.02701 0.07057 0.34302
 C156 C 1.05837 0.11994 0.35239
 Zr157 Zr 1.06220 0.09983 0.49265
 O158 O 1.05724 0.19568 0.49439
 O159 O 1.15969 0.10653 0.47849
 Zr160 Zr 0.90657 0.07743 0.50639
 O161 O 0.88855 0.17205 0.50729
 O162 O 0.80995 0.05843 0.51257
 Zr163 Zr 0.98851 0.01162 0.40962
 Zr164 Zr 1.00425 0.01495 0.59140
 O165 O 0.98747 0.10087 0.55115
 O166 O 0.97760 0.09972 0.44525
 O167 O 1.09083 0.02706 0.54741
 O168 O 0.90309 -0.00048 0.45582
 O169 O 1.08057 0.02520 0.43991
 O170 O 0.91130 0.00108 0.56347
 H171 H 1.02319 -0.10794 0.58157
 H172 H 0.86341 -0.00555 0.43325
 H173 H 0.98468 0.13847 0.57545
 H174 H 1.11423 0.03108 0.40957
 H175 H 0.81719 -0.06448 0.54773
 H176 H 0.80196 0.04097 0.55353
 H177 H 0.90999 0.19029 0.47169
 H178 H 1.01300 0.20655 0.48770
 H179 H 1.18061 0.09874 0.51805
 H180 H 1.19558 -0.00568 0.50689
 H181 H 1.07537 -0.16516 0.46619
 H182 H 0.96660 -0.18011 0.47156
 C183 C 1.13388 0.18606 0.22705
 C184 C 1.10441 0.23761 0.24859
 C185 C 1.06895 0.21831 0.29622
 C186 C 1.07847 0.15653 0.29994
 O187 O 1.11802 0.13661 0.25826
 H188 H 1.11090 0.28427 0.23403
 H189 H 1.04183 0.24628 0.32671
 C190 C 0.82650 -0.14742 0.24097
 C191 C 0.77570 -0.14963 0.27929
 C192 C 0.79770 -0.13014 0.33403
 C193 C 0.85988 -0.11734 0.32449
 O194 O 0.87766 -0.12787 0.26807
 H195 H 0.72945 -0.16652 0.26933
 H196 H 0.77166 -0.12547 0.37592
 C197 C 0.84800 0.18345 0.76980
 C198 C 0.89211 0.22446 0.74942
 C199 C 0.91928 0.19736 0.70071
 C200 C 0.88959 0.14235 0.69477
 O201 O 0.84596 0.13360 0.73624
 H202 H 0.90184 0.26959 0.76583
 H203 H 0.95560 0.21596 0.67188
 C204 C 1.17860 -0.13636 0.76209
 C205 C 1.23451 -0.12020 0.73519
 C206 C 1.21859 -0.08883 0.68362
 C207 C 1.15441 -0.08729 0.68340
 O208 O 1.12976 -0.11615 0.73083
 H209 H 1.28118 -0.13198 0.75006
 H210 H 1.24985 -0.06984 0.64983
 C211 C 0.22995 1.14094 1.17774
 C212 C 0.24762 1.10292 1.22525
 C213 C 0.29807 1.07169 1.20406
 C214 C 0.30741 1.09309 1.14562
 O215 O 0.26639 1.13508 1.12940
 H216 H 0.22814 1.09984 1.27058
 H217 H 0.32537 1.03794 1.22848
 C218 C 0.22543 0.82070 0.85635
 C219 C 0.25437 0.76709 0.87378
 C220 C 0.30692 0.78438 0.90385
 C221 C 0.30556 0.84694 0.90283
 O222 O 0.25659 0.86931 0.87367
 H223 H 0.24081 0.72118 0.86270
 H224 H 0.34294 0.75515 0.92270
 C225 C 0.79492 0.84762 1.13290
 C226 C 0.82051 0.85766 1.07619
 C227 C 0.77475 0.88657 1.04378
 C228 C 0.72459 0.89111 1.08303
 O229 O 0.73685 0.86777 1.13745
 H230 H 0.86710 0.84650 1.06114
 H231 H 0.77731 0.90248 0.99712
 C232 C 0.74439 1.16659 0.81419
 C233 C 0.70504 1.17304 0.76474
 C234 C 0.65016 1.14733 0.78281
 C235 C 0.66098 1.12694 0.84147
 O236 O 0.71807 1.13842 0.86062
 H237 H 0.71463 1.19571 0.72185
 H238 H 0.60742 1.14407 0.75675
 C239 C 0.18903 0.24053 0.14356
 C240 C 0.24408 0.27245 0.13766
 C241 C 0.22793 0.32530 0.10871
 C242 C 0.16459 0.32105 0.09885
 O243 O 0.14078 0.26981 0.11994
 H244 H 0.28950 0.26030 0.15565
 H245 H 0.25813 0.36314 0.09771
 C246 C -0.18321 0.23665 -0.13276
 C247 C -0.22737 0.25452 -0.09049
 C248 C -0.19990 0.29930 -0.05791
 C249 C -0.14102 0.30536 -0.08195
 O250 O -0.13048 0.26758 -0.12738
 H251 H -0.27505 0.23940 -0.08573
 H252 H -0.22123 0.32658 -0.02277
 C253 C 0.12634 0.77770 -0.18154
 C254 C 0.09540 0.75409 -0.23123
 C255 C 0.06565 0.70367 -0.20959
 C256 C 0.07994 0.70070 -0.14838
 O257 O 0.11682 0.74533 -0.13113
 H258 H 0.09777 0.76898 -0.27827
 H259 H 0.03878 0.67140 -0.23565
 C260 C -0.14485 0.76239 0.18211
 C261 C -0.14090 0.72489 0.23282
 C262 C -0.11655 0.67206 0.21237
 C263 C -0.10657 0.68135 0.15100
 O264 O -0.12395 0.73616 0.13204
 H265 H -0.15528 0.73451 0.27896
 H266 H -0.10716 0.63142 0.23899
 C267 C 1.14983 0.19065 0.76034
 C268 C 1.14266 0.24243 0.72425
 C269 C 1.11798 0.22302 0.67083
 C270 C 1.11089 0.16132 0.67822
 O271 O 1.12968 0.14154 0.73219
 H272 H 1.15775 0.28825 0.73389
 H273 H 1.10744 0.25033 0.63079
 C274 C 0.87099 -0.16934 0.77569
 C275 C 0.91751 -0.21018 0.76061
 C276 C 0.94752 -0.18432 0.71228
 C277 C 0.91758 -0.12981 0.70186
 O278 O 0.87117 -0.12042 0.73997
 H279 H 0.92678 -0.25470 0.77975
 H280 H 0.98521 -0.20380 0.68610
 C281 C 1.17538 -0.13346 0.23367
 C282 C 1.21643 -0.08682 0.24677
 C283 C 1.18855 -0.05402 0.29119
 C284 C 1.13260 -0.08237 0.30209
 O285 O 1.12419 -0.13072 0.26758
 H286 H 1.26252 -0.07874 0.22867
 H287 H 1.20791 -0.01551 0.31496
 C288 C 0.80996 0.15107 0.23580
 C289 C 0.75614 0.14915 0.27015
 C290 C 0.77366 0.12394 0.32456
 C291 C 0.83657 0.11229 0.31885
 O292 O 0.85881 0.12863 0.26514
 H293 H 0.71078 0.16749 0.25834
 H294 H 0.74465 0.11639 0.36421
 C295 C 0.18108 0.24257 -0.15201
 C296 C 0.23093 0.26632 -0.11975
 C297 C 0.20976 0.32033 -0.09763
 C298 C 0.14895 0.32525 -0.11737
 O299 O 0.13123 0.27839 -0.15003
 H300 H 0.27779 0.24864 -0.11485
 H301 H 0.23501 0.35176 -0.06910
 C302 C -0.13687 0.23237 0.17723
 C303 C -0.10612 0.25491 0.22774
 C304 C -0.07145 0.30205 0.20659
 C305 C -0.08306 0.30477 0.14495
 O306 O -0.12276 0.26271 0.12667
 H307 H -0.11097 0.24125 0.27498
 H308 H -0.04335 0.33282 0.23328
 C309 C -0.18123 0.76368 -0.14584
 C310 C -0.23540 0.73084 -0.13726
 C311 C -0.21716 0.67834 -0.10920
 C312 C -0.15360 0.68351 -0.10180
 O313 O -0.13145 0.73531 -0.12376
 H314 H -0.28209 0.74262 -0.15214
 H315 H -0.24645 0.64037 -0.09640
 C316 C 0.14649 0.76839 0.18056
 C317 C 0.10114 0.74803 0.22046
 C318 C 0.07414 0.70004 0.19209
 C319 C 0.10495 0.69454 0.13742
 O320 O 0.14927 0.73551 0.13018
 H321 H 0.09023 0.76400 0.26562
 H322 H 0.03706 0.67152 0.20954
 C323 C 0.21359 1.13918 0.83585
 C324 C 0.21116 1.08101 0.81135
 C325 C 0.25195 1.04692 0.84463
 C326 C 0.27679 1.08569 0.88665
 O327 O 0.25414 1.14138 0.88163
 H328 H 0.18501 1.06335 0.77357
 H329 H 0.26574 1.00039 0.83607
 C330 C 0.25031 0.81365 1.16558
 C331 C 0.29125 0.76610 1.17540
 C332 C 0.34649 0.78516 1.15098
 C333 C 0.33451 0.84253 1.12792
 O334 O 0.27616 0.85981 1.13648
 H335 H 0.28241 0.72407 1.19981
 H336 H 0.39028 0.76062 1.15060
 C337 C 0.76801 1.17964 1.13461
 C338 C 0.74877 1.22540 1.09522
 C339 C 0.69881 1.20201 1.06497
 C340 C 0.69134 1.14417 1.08821
 O341 O 0.73293 1.13033 1.13057
 H342 H 0.76670 1.27112 1.09082
 H343 H 0.67017 1.22485 1.03110
 C344 C 0.76686 0.85651 0.81570
 C345 C 0.73508 0.86939 0.76233
 C346 C 0.68150 0.89723 0.78032
 C347 C 0.68535 0.89957 0.84291
 O348 O 0.73673 0.87441 0.86478
 H349 H 0.74814 0.85737 0.71634
 H350 H 0.64359 0.91291 0.75156
   
