data_POSCAR
  _audit_creation_date              2014-09-24
  _audit_creation_method            'ToBaCCo'
  _symmetry_space_group_name_H-M    'P1'
  _symmetry_Int_Tables_number       1
  _symmetry_cell_setting            triclinic
  loop_
  _symmetry_equiv_pos_as_xyz
 x,y,z
_cell_length_a 22.9135
_cell_length_b 22.9355
_cell_length_c 22.8754
_cell_angle_alpha 90.040600
_cell_angle_beta 90.183900
_cell_angle_gamma 89.998200
loop_
  _atom_site_label
  _atom_site_type_symbol
  _atom_site_fract_x
  _atom_site_fract_y
  _atom_site_fract_z
O1 O 0.59546 0.13719 0.00555
 O2 O 0.65367 0.05593 0.00163
 C3 C 0.64610 0.11200 0.00484
 O4 O 0.42229 0.00347 0.14845
 O5 O 0.35564 0.01139 0.07368
 C6 C 0.36941 0.00903 0.12915
 O7 O 0.58583 -0.00144 0.14616
 O8 O 0.64811 -0.01500 0.06941
 C9 C 0.63801 -0.00802 0.12439
 O10 O 0.43369 0.15177 -0.00316
 O11 O 0.36143 0.08258 -0.00149
 C12 C 0.37922 0.13627 -0.00348
 Zr13 Zr 0.51084 0.10159 0.00066
 O14 O 0.50988 0.16754 0.06549
 O15 O 0.52319 0.16533 -0.06513
 Zr16 Zr 0.50226 -0.00190 0.10461
 O17 O 0.50158 0.06066 0.17262
 O18 O 0.50379 -0.06951 0.16764
 O19 O 0.55911 0.05353 0.06106
 O20 O 0.45638 0.06206 0.06011
 O21 O 0.42490 0.01616 -0.14780
 O22 O 0.35693 0.01359 -0.07422
 C23 C 0.37177 0.01867 -0.12911
 O24 O 0.56796 -0.15545 -0.00437
 O25 O 0.64016 -0.08622 -0.00100
 C26 C 0.62242 -0.13993 -0.00398
 O27 O 0.40632 -0.13981 0.00309
 O28 O 0.34801 -0.05842 0.00130
 C29 C 0.35567 -0.11453 0.00269
 O30 O 0.58528 -0.01043 -0.14479
 O31 O 0.64784 -0.01870 -0.06686
 C32 C 0.63693 -0.01740 -0.12207
 Zr33 Zr 0.50251 -0.00225 -0.10328
 O34 O 0.48903 -0.07130 -0.16344
 O35 O 0.51408 0.05515 -0.17450
 Zr36 Zr 0.49135 -0.10479 0.00059
 O37 O 0.47877 -0.17001 -0.06373
 O38 O 0.49176 -0.16899 0.06710
 Zr39 Zr 0.58844 -0.00975 0.00110
 Zr40 Zr 0.41356 0.00660 0.00024
 O41 O 0.44492 -0.05593 -0.05945
 O42 O 0.54814 -0.06665 -0.05919
 O43 O 0.45546 0.06262 -0.05981
 O44 O 0.54688 -0.06591 0.06047
 O45 O 0.55793 0.05292 -0.05872
 O46 O 0.44358 -0.05632 0.06069
 H47 H 0.43296 0.08900 0.08447
 H48 H 0.57133 -0.09220 0.08468
 H49 H 0.41629 -0.07707 -0.08415
 H50 H 0.58628 0.07485 -0.08284
 H51 H 0.46647 -0.09098 0.16451
 H52 H 0.45826 -0.16111 0.09310
 H53 H 0.50862 -0.16393 -0.09425
 H54 H 0.52581 -0.09374 -0.16613
 H55 H 0.50892 0.09499 -0.15897
 H56 H 0.48875 0.16425 -0.09132
 H57 H 0.54148 0.15882 0.09370
 H58 H 0.53178 0.08997 0.16337
 O59 O -0.00210 0.41016 -0.14409
 O60 O -0.01050 0.34949 -0.06506
 C61 C -0.00673 0.35885 -0.12040
 O62 O 0.15231 0.56987 -0.00276
 O63 O 0.08152 0.64044 -0.00669
 C64 C 0.13567 0.62390 -0.00442
 O65 O 0.14203 0.40770 -0.00525
 O66 O 0.06207 0.34794 0.00134
 C67 C 0.11791 0.35661 -0.00265
 O68 O -0.00216 0.57174 -0.15149
 O69 O 0.00524 0.64158 -0.08019
 C70 C 0.00106 0.62562 -0.13523
 Zr71 Zr -0.00209 0.49422 -0.10466
 O72 O 0.05909 0.49400 -0.17380
 O73 O -0.07309 0.49311 -0.16389
 Zr74 Zr 0.10420 0.49157 -0.00302
 O75 O 0.16802 0.49217 -0.06978
 O76 O 0.17033 0.48287 0.06130
 O77 O 0.05594 0.44021 -0.06073
 O78 O 0.06174 0.54327 -0.06339
 O79 O -0.13992 0.58971 -0.00519
 O80 O -0.05976 0.64989 -0.00410
 C81 C -0.11570 0.64090 -0.00575
 O82 O -0.00307 0.41764 0.14682
 O83 O -0.00730 0.35307 0.07039
 C84 C -0.00565 0.36502 0.12529
 O85 O 0.01781 0.57981 0.14482
 O86 O 0.01415 0.64540 0.06894
 C87 C 0.01947 0.63241 0.12440
 O88 O -0.15139 0.42805 0.00850
 O89 O -0.08038 0.35759 0.00660
 C90 C -0.13456 0.37401 0.00959
 Zr91 Zr -0.10273 0.50572 0.00097
 O92 O -0.16570 0.51875 0.06723
 O93 O -0.16932 0.50302 -0.06332
 Zr94 Zr 0.00240 0.50005 0.10299
 O95 O -0.06514 0.51308 0.16469
 O96 O 0.06300 0.49150 0.17229
 Zr97 Zr -0.00518 0.41123 0.00133
 Zr98 Zr 0.00685 0.58626 -0.00363
 O99 O -0.05357 0.55503 0.05829
 O100 O -0.06179 0.45145 0.06164
 O101 O -0.05673 0.55268 -0.06144
 O102 O 0.05815 0.44526 0.05884
 O103 O -0.06395 0.44943 -0.05795
 O104 O 0.06520 0.54756 0.05670
 H105 H 0.08692 0.56689 -0.08936
 H106 H 0.08178 0.41864 0.08346
 H107 H -0.07510 0.58367 0.08247
 H108 H -0.09039 0.42392 -0.08090
 H109 H 0.16874 0.51771 0.08678
 H110 H 0.10094 0.50524 0.15726
 H111 H -0.08719 0.47614 0.16806
 H112 H -0.15968 0.48811 0.09705
 H113 H -0.15693 0.52866 -0.09577
 H114 H -0.05599 0.48813 -0.20331
 H115 H 0.08861 0.46391 -0.16465
 H116 H 0.15990 0.45883 -0.09602
 O117 O -0.14740 0.00412 0.58654
 O118 O -0.06958 0.00161 0.64968
 C119 C -0.12513 0.00451 0.63834
 O120 O -0.00168 -0.14414 0.41519
 O121 O -0.01018 -0.06632 0.35242
 C122 C -0.00557 -0.12163 0.36278
 O123 O -0.00463 -0.14521 0.58393
 O124 O 0.00088 -0.06805 0.64778
 C125 C -0.00189 -0.12326 0.63673
 O126 O -0.15404 0.01220 0.42800
 O127 O -0.08304 0.00626 0.35794
 C128 C -0.13727 0.01112 0.37426
 Zr129 Zr -0.10707 0.00119 0.50507
 O130 O -0.16596 -0.07001 0.50132
 O131 O -0.17910 0.05855 0.51020
 Zr132 Zr -0.00500 -0.10329 0.49972
 O133 O -0.07258 -0.16605 0.49492
 O134 O 0.05715 -0.17137 0.50315
 O135 O -0.06207 -0.05925 0.55548
 O136 O -0.06615 -0.05787 0.45106
 O137 O -0.01333 0.14917 0.42322
 O138 O -0.01388 0.07519 0.35583
 C139 C -0.01746 0.12997 0.37045
 O140 O 0.14624 0.00238 0.57856
 O141 O 0.07114 -0.00111 0.64469
 C142 C 0.12594 0.00052 0.63189
 O143 O 0.13851 -0.00202 0.41088
 O144 O 0.05855 0.00052 0.34992
 C145 C 0.11442 -0.00140 0.35909
 O146 O 0.00995 0.14747 0.58068
 O147 O 0.00681 0.07242 0.64662
 C148 C 0.01223 0.12719 0.63317
 Zr149 Zr -0.00183 0.10445 0.50137
 O150 O 0.06425 0.16795 0.48986
 O151 O -0.06476 0.17108 0.51288
 Zr152 Zr 0.10062 -0.00019 0.49618
 O153 O 0.16691 0.06353 0.48776
 O154 O 0.16450 -0.06685 0.49880
 Zr155 Zr -0.00022 0.00083 0.58805
 Zr156 Zr -0.00801 0.00208 0.41312
 O157 O 0.05442 0.06024 0.44722
 O158 O 0.05986 0.05971 0.55078
 O159 O -0.06539 0.06193 0.45228
 O160 O 0.05718 -0.05944 0.54835
 O161 O -0.06008 0.06117 0.55416
 O162 O 0.05325 -0.05915 0.44537
 H163 H -0.09151 -0.08100 0.42462
 H164 H 0.08235 -0.08435 0.57324
 H165 H 0.07683 0.08483 0.41967
 H166 H -0.08178 0.08674 0.58142
 H167 H 0.08833 -0.16128 0.47516
 H168 H 0.15892 -0.09141 0.46366
 H169 H 0.16462 0.08943 0.52226
 H170 H 0.09536 0.15993 0.51880
 H171 H -0.09760 0.16273 0.48595
 H172 H -0.16338 0.09755 0.51961
 H173 H -0.16769 -0.08784 0.54066
 H174 H -0.09596 -0.16246 0.53102
 C175 C -0.27010 0.24900 0.01588
 C176 C -0.21224 0.23076 0.00807
 N177 N -0.20096 0.17292 0.00070
 C178 C -0.24505 0.13278 0.00037
 C179 C -0.30314 0.15149 0.00729
 N180 N -0.31366 0.20929 0.01511
 N181 N -0.28226 0.30626 0.02311
 C182 C -0.23920 0.34670 0.02236
 C183 C -0.18091 0.32933 0.01358
 N184 N -0.16871 0.27134 0.00695
 H185 H -0.23495 0.08712 -0.00599
 H186 H -0.25073 0.39210 0.02806
 C187 C 0.27210 0.74808 -0.00030
 C188 C 0.21387 0.76690 -0.00078
 N189 N 0.20239 0.82516 0.00044
 C190 C 0.24658 0.86517 0.00199
 C191 C 0.30494 0.84592 0.00241
 N192 N 0.31568 0.78768 0.00127
 N193 N 0.28452 0.69047 -0.00166
 C194 C 0.24131 0.65027 -0.00337
 C195 C 0.18250 0.66827 -0.00371
 N196 N 0.17011 0.72659 -0.00243
 H197 H 0.23629 0.91121 0.00271
 H198 H 0.25311 0.60459 -0.00432
 C199 C 0.23694 0.21536 -0.00329
 C200 C 0.25583 0.27339 -0.00721
 N201 N 0.31354 0.28542 -0.01054
 C202 C 0.35368 0.24203 -0.00989
 C203 C 0.33546 0.18354 -0.00555
 N204 N 0.27714 0.17158 -0.00249
 N205 N 0.17877 0.20400 0.00012
 C206 C 0.13880 0.24814 -0.00000
 C207 C 0.15798 0.30635 -0.00351
 N208 N 0.21621 0.31708 -0.00716
 H209 H 0.39944 0.25339 -0.01254
 H210 H 0.09280 0.23789 0.00282
 C211 C -0.23514 0.78165 -0.00627
 C212 C -0.25388 0.72353 -0.00979
 N213 N -0.31160 0.71122 -0.01213
 C214 C -0.35188 0.75444 -0.01081
 C215 C -0.33378 0.81299 -0.00673
 N216 N -0.27548 0.82523 -0.00474
 N217 N -0.17696 0.79327 -0.00378
 C218 C -0.13684 0.74930 -0.00434
 C219 C -0.15587 0.69100 -0.00727
 N220 N -0.21410 0.68001 -0.01009
 H221 H -0.39765 0.74289 -0.01263
 H222 H -0.09083 0.75973 -0.00194
 C223 C -0.00040 -0.23181 0.21305
 C224 C 0.02681 -0.24833 0.26574
 N225 N 0.05533 -0.29992 0.26867
 C226 C 0.05674 -0.33652 0.22204
 C227 C 0.02744 -0.32175 0.16972
 N228 N -0.00008 -0.26904 0.16630
 N229 N -0.02837 -0.17967 0.21034
 C230 C -0.03052 -0.14362 0.25770
 C231 C -0.00447 -0.16068 0.31100
 N232 N 0.02381 -0.21284 0.31338
 H233 H 0.07904 -0.37791 0.22647
 H234 H -0.05310 -0.10231 0.25401
 C235 C 0.02359 0.26433 0.75346
 C236 C -0.00368 0.21179 0.76967
 N237 N -0.03091 0.20819 0.82212
 C238 C -0.03241 0.25486 0.85876
 C239 C -0.00651 0.30779 0.84157
 N240 N 0.02114 0.31099 0.78941
 N241 N 0.05118 0.26835 0.70151
 C242 C 0.05133 0.22276 0.66401
 C243 C 0.02161 0.17104 0.67858
 N244 N -0.00455 0.16628 0.73164
 H245 H -0.05440 0.25097 0.90040
 H246 H 0.07281 0.22762 0.62220
 C247 C -0.03070 0.27054 0.25360
 C248 C -0.00525 0.21766 0.23524
 N249 N 0.01929 0.21433 0.18156
 C250 C 0.01967 0.26136 0.14558
 C251 C -0.00481 0.31454 0.16439
 N252 N -0.02955 0.31778 0.21807
 N253 N -0.05566 0.27400 0.30693
 C254 C -0.05502 0.22760 0.34347
 C255 C -0.02728 0.17539 0.32646
 N256 N -0.00364 0.17131 0.27220
 H257 H 0.03958 0.25747 0.10291
 H258 H -0.07451 0.23207 0.38629
 C259 C 0.00121 -0.23785 0.78338
 C260 C -0.00243 -0.25914 0.72576
 N261 N -0.00487 -0.31708 0.71634
 C262 C -0.00384 -0.35515 0.76143
 C263 C 0.00001 -0.33497 0.82024
 N264 N 0.00245 -0.27603 0.82947
 N265 N 0.00339 -0.17927 0.79196
 C266 C 0.00221 -0.14152 0.74587
 C267 C -0.00117 -0.16305 0.68800
 N268 N -0.00346 -0.22165 0.67982
 H269 H -0.00595 -0.40106 0.75061
 H270 H 0.00395 -0.09515 0.75444
 C271 C 0.23741 0.00120 0.78036
 C272 C 0.25476 0.02813 0.72789
 N273 N 0.30710 0.05538 0.72546
 C274 C 0.34345 0.05588 0.77244
 C275 C 0.32736 0.02725 0.82456
 N276 N 0.27414 0.00093 0.82739
 N277 N 0.18486 -0.02583 0.78272
 C278 C 0.14894 -0.02708 0.73530
 C279 C 0.16636 -0.00071 0.68243
 N280 N 0.21915 0.02639 0.68015
 H281 H 0.38546 0.07712 0.76857
 H282 H 0.10719 -0.04883 0.73876
 C283 C -0.27820 0.01014 0.25538
 C284 C -0.22114 -0.00015 0.23536
 N285 N -0.21245 -0.01290 0.17821
 C286 C -0.25812 -0.01588 0.14024
 C287 C -0.31577 -0.00645 0.16051
 N288 N -0.32383 0.00630 0.21791
 N289 N -0.28728 0.02392 0.31202
 C290 C -0.24206 0.02691 0.35005
 C291 C -0.18479 0.01466 0.33096
 N292 N -0.17560 0.00184 0.27361
 H293 H -0.24922 -0.02596 0.09488
 H294 H -0.25125 0.03766 0.39516
 C295 C 0.22846 0.00062 0.21253
 C296 C 0.24814 0.01475 0.26908
 N297 N 0.30458 0.02961 0.27763
 C298 C 0.34282 0.03010 0.23261
 C299 C 0.32445 0.01425 0.17577
 N300 N 0.26704 0.00033 0.16691
 N301 N 0.17132 -0.01361 0.20473
 C302 C 0.13340 -0.01447 0.25070
 C303 C 0.15353 -0.00119 0.30754
 N304 N 0.21065 0.01319 0.31485
 H305 H 0.38766 0.04205 0.24160
 H306 H 0.08821 -0.02603 0.24306
 C307 C -0.26292 0.01527 0.75719
 C308 C -0.21506 -0.02123 0.76973
 N309 N -0.21699 -0.05640 0.81738
 C310 C -0.26457 -0.05670 0.85281
 C311 C -0.31285 -0.02121 0.83915
 N312 N -0.31063 0.01408 0.79176
 N313 N -0.26120 0.05122 0.71048
 C314 C -0.21450 0.05123 0.67451
 C315 C -0.16773 0.01280 0.68496
 N316 N -0.16855 -0.02226 0.73291
 H317 H -0.26497 -0.08460 0.89097
 H318 H -0.21487 0.07945 0.63657
   
