data_POSCAR
  _audit_creation_date              2014-09-24
  _audit_creation_method            'ToBaCCo'
  _symmetry_space_group_name_H-M    'P1'
  _symmetry_Int_Tables_number       1
  _symmetry_cell_setting            triclinic
  loop_
  _symmetry_equiv_pos_as_xyz
 x,y,z
_cell_length_a 62.1545
_cell_length_b 36.1353
_cell_length_c 19.8905
_cell_angle_alpha 90.004500
_cell_angle_beta 90.029900
_cell_angle_gamma 90.080000
loop_
  _atom_site_label
  _atom_site_type_symbol
  _atom_site_fract_x
  _atom_site_fract_y
  _atom_site_fract_z
C1 C 0.73272 0.26978 0.53725
 C2 C 0.73454 0.27514 0.46661
 C3 C 0.75260 0.26168 0.43235
 C4 C 0.76853 0.24089 0.46520
 C5 C 0.76710 0.23573 0.53626
 C6 C 0.74884 0.24925 0.57030
 H7 H 0.74829 0.24710 0.62460
 H8 H 0.75313 0.26448 0.37806
 C9 C 0.23296 0.76804 0.53701
 C10 C 0.23238 0.76637 0.46601
 C11 C 0.24951 0.75009 0.43132
 C12 C 0.26700 0.73443 0.46561
 C13 C 0.26718 0.73414 0.53733
 C14 C 0.25025 0.75195 0.57162
 H15 H 0.25000 0.75232 0.62610
 H16 H 0.24935 0.75000 0.37680
 C17 C 0.26754 0.26163 -0.53400
 C18 C 0.26589 0.26691 -0.46386
 C19 C 0.24774 0.25371 -0.42974
 C20 C 0.23087 0.23534 -0.46352
 C21 C 0.23196 0.23197 -0.53525
 C22 C 0.25066 0.24433 -0.56859
 H23 H 0.25181 0.24224 -0.62285
 H24 H 0.24739 0.25641 -0.37547
 C25 C -0.23096 0.75786 -0.53495
 C26 C -0.23264 0.76293 -0.46474
 C27 C -0.25072 0.74933 -0.43074
 C28 C -0.26747 0.73082 -0.46480
 C29 C -0.26642 0.72788 -0.53658
 C30 C -0.24777 0.74052 -0.56978
 H31 H -0.24663 0.73863 -0.62406
 H32 H -0.25111 0.75184 -0.37645
 N33 N -0.02301 0.93526 -0.07270
 N34 N -0.03947 0.91253 -0.08104
 N35 N 0.02213 0.96233 -0.11914
 N36 N 0.03869 0.95873 -0.16007
 N37 N 0.02231 0.93630 -0.07313
 N38 N 0.03899 0.91420 -0.08164
 N39 N -0.02312 0.96116 -0.11896
 N40 N -0.03964 0.95688 -0.15983
 C41 C -0.04969 0.92640 -0.13572
 C42 C 0.04906 0.92855 -0.13617
 N43 N 0.02122 1.06760 -0.07195
 N44 N 0.03779 1.09017 -0.07916
 N45 N -0.02383 1.04055 -0.11841
 N46 N -0.04050 1.04418 -0.15895
 N47 N -0.02412 1.06611 -0.07156
 N48 N -0.04101 1.08785 -0.07894
 N49 N 0.02145 1.04186 -0.11851
 N50 N 0.03817 1.04617 -0.15859
 Mn51 Mn -0.00082 1.00148 -0.11953
 C52 C 0.04819 1.07649 -0.13360
 C53 C -0.05108 1.07384 -0.13379
 N54 N 0.02251 0.93595 0.07168
 N55 N 0.03891 0.91325 0.08017
 N56 N -0.02278 0.96044 0.11942
 N57 N -0.03865 0.95467 0.16225
 N58 N -0.02274 0.93494 0.07238
 N59 N -0.03859 0.91117 0.08190
 N60 N 0.02247 0.96165 0.11835
 N61 N 0.03884 0.95713 0.15983
 Mn62 Mn -0.00025 0.93513 -0.00045
 C63 C 0.04897 0.92682 0.13538
 C64 C -0.04841 0.92385 0.13814
 N65 N -0.02400 1.06561 0.07291
 N66 N -0.04077 1.08752 0.08108
 N67 N 0.02184 1.04138 0.11889
 N68 N 0.03844 1.04616 0.15941
 N69 N 0.02135 1.06732 0.07272
 N70 N 0.03759 1.09050 0.08064
 N71 N -0.02337 1.04033 0.12028
 N72 N -0.03950 1.04470 0.16265
 Mn73 Mn -0.00141 1.06714 0.00055
 Mn74 Mn -0.00045 1.00095 0.12007
 Cl75 Cl -0.00073 1.00116 0.00020
 C76 C -0.05023 1.07418 0.13738
 C77 C 0.04811 1.07697 0.13499
 N78 N 0.52232 0.56560 -0.07290
 N79 N 0.53906 0.58775 -0.08071
 N80 N 0.47707 0.53967 -0.11951
 N81 N 0.46053 0.54357 -0.16046
 N82 N 0.47697 0.56556 -0.07323
 N83 N 0.46034 0.58782 -0.08152
 N84 N 0.52232 0.53958 -0.11893
 N85 N 0.53903 0.54325 -0.15921
 C86 C 0.54932 0.57345 -0.13492
 C87 C 0.45024 0.57376 -0.13628
 N88 N 0.47678 0.43454 -0.07212
 N89 N 0.46008 0.41231 -0.08026
 N90 N 0.52224 0.46006 -0.11823
 N91 N 0.53891 0.45585 -0.15857
 N92 N 0.52210 0.43433 -0.07169
 N93 N 0.53866 0.41185 -0.07916
 N94 N 0.47697 0.46024 -0.11875
 N95 N 0.46044 0.45632 -0.15967
 Mn96 Mn 0.49966 0.49989 -0.11962
 C97 C 0.45005 0.42627 -0.13523
 C98 C 0.54899 0.42560 -0.13368
 N99 N 0.47691 0.56597 0.07158
 N100 N 0.46067 0.58898 0.08016
 N101 N 0.52224 0.54040 0.11853
 N102 N 0.53881 0.54486 0.15929
 N103 N 0.52217 0.56608 0.07184
 N104 N 0.53866 0.58874 0.07965
 N105 N 0.47695 0.54047 0.11860
 N106 N 0.46076 0.54549 0.16052
 Mn107 Mn 0.49958 0.56629 -0.00068
 C108 C 0.45072 0.57586 0.13587
 C109 C 0.54890 0.57519 0.13447
 N110 N 0.52206 0.43481 0.07299
 N111 N 0.53878 0.41269 0.08052
 N112 N 0.47684 0.46067 0.11941
 N113 N 0.46085 0.45547 0.16208
 N114 N 0.47677 0.43491 0.07285
 N115 N 0.46073 0.41154 0.08251
 N116 N 0.52210 0.46070 0.11931
 N117 N 0.53881 0.45686 0.15964
 Mn118 Mn 0.49941 0.43417 0.00052
 Mn119 Mn 0.49953 0.50056 0.11981
 Cl120 Cl 0.49953 0.50022 0.00005
 C121 C 0.54906 0.42674 0.13494
 C122 C 0.45090 0.42474 0.13833
 C123 C 0.32257 0.30423 0.35992
 C124 C 0.30163 0.31465 0.34108
 C125 C 0.28377 0.30006 0.37451
 C126 C 0.28649 0.27477 0.42736
 C127 C 0.30734 0.26334 0.44475
 C128 C 0.32523 0.27813 0.41167
 C129 C 0.34155 0.32124 0.32679
 C130 C 0.35932 0.33284 0.36516
 C131 C 0.37698 0.34973 0.33430
 C132 C 0.37731 0.35523 0.26435
 C133 C 0.35961 0.34339 0.22593
 C134 C 0.34189 0.32667 0.25684
 C135 C 0.39605 0.37332 0.23164
 C136 C 0.40429 0.35959 0.17077
 C137 C 0.42207 0.37638 0.14036
 C138 C 0.43192 0.40734 0.17004
 C139 C 0.42360 0.42130 0.23056
 C140 C 0.40588 0.40440 0.26114
 H141 H 0.29909 0.33495 0.30183
 H142 H 0.26782 0.30931 0.36048
 H143 H 0.30977 0.24344 0.48474
 H144 H 0.34115 0.26915 0.42653
 H145 H 0.35941 0.32939 0.41925
 H146 H 0.39048 0.35823 0.36512
 H147 H 0.35933 0.34754 0.17202
 H148 H 0.32850 0.31778 0.22597
 H149 H 0.39719 0.33547 0.14720
 H150 H 0.42814 0.36503 0.09370
 H151 H 0.43083 0.44520 0.25445
 H152 H 0.39971 0.41589 0.30756
 C153 C -0.17603 0.80102 0.35927
 C154 C -0.19699 0.81135 0.34049
 C155 C -0.21482 0.79659 0.37386
 C156 C -0.21204 0.77126 0.42659
 C157 C -0.19116 0.75996 0.44397
 C158 C -0.17331 0.77489 0.41094
 C159 C -0.15709 0.81818 0.32619
 C160 C -0.13935 0.82984 0.36459
 C161 C -0.12174 0.84694 0.33379
 C162 C -0.12146 0.85262 0.26389
 C163 C -0.13913 0.84068 0.22543
 C164 C -0.15678 0.82374 0.25628
 C165 C -0.10283 0.87107 0.23130
 C166 C -0.09457 0.85770 0.17020
 C167 C -0.07691 0.87491 0.13984
 C168 C -0.06722 0.90593 0.16982
 C169 C -0.07556 0.91950 0.23060
 C170 C -0.09315 0.90220 0.26112
 H171 H -0.19957 0.83167 0.30132
 H172 H -0.23079 0.80576 0.35985
 H173 H -0.18869 0.74002 0.48388
 H174 H -0.15737 0.76600 0.42575
 H175 H -0.13924 0.82629 0.41865
 H176 H -0.10827 0.85551 0.36465
 H177 H -0.13945 0.84496 0.17156
 H178 H -0.17017 0.81480 0.22538
 H179 H -0.10155 0.83355 0.14639
 H180 H -0.07082 0.86385 0.09298
 H181 H -0.06845 0.94344 0.25473
 H182 H -0.09935 0.91342 0.30771
 C183 C 0.68056 0.68828 0.34889
 C184 C 0.67728 0.71273 0.40271
 C185 C 0.69472 0.72639 0.43942
 C186 C 0.71595 0.71572 0.42370
 C187 C 0.71919 0.69264 0.36744
 C188 C 0.70169 0.67876 0.33106
 C189 C 0.66192 0.67191 0.31294
 C190 C 0.66148 0.63392 0.29793
 C191 C 0.64347 0.61805 0.26720
 C192 C 0.62558 0.63991 0.25035
 C193 C 0.62617 0.67803 0.26427
 C194 C 0.64412 0.69384 0.29548
 C195 C 0.60618 0.62291 0.21962
 C196 C 0.59550 0.64047 0.16615
 C197 C 0.57698 0.62479 0.13812
 C198 C 0.56868 0.59140 0.16335
 C199 C 0.57939 0.57373 0.21657
 C200 C 0.59800 0.58927 0.24429
 H201 H 0.66117 0.72064 0.41751
 H202 H 0.69153 0.74547 0.48020
 H203 H 0.73519 0.68364 0.35351
 H204 H 0.70468 0.66032 0.28918
 H205 H 0.67489 0.61629 0.31141
 H206 H 0.64353 0.58867 0.25650
 H207 H 0.61255 0.69549 0.25234
 H208 H 0.64409 0.72324 0.30602
 H209 H 0.60158 0.66620 0.14567
 H210 H 0.56910 0.63894 0.09695
 H211 H 0.57337 0.54792 0.23693
 H212 H 0.60576 0.57533 0.28592
 C213 C 0.17909 1.19202 0.34992
 C214 C 0.20025 1.18240 0.33260
 C215 C 0.21768 1.19633 0.36916
 C216 C 0.21437 1.21964 0.42507
 C217 C 0.19312 1.23042 0.44029
 C218 C 0.17573 1.21667 0.40341
 C219 C 0.16052 1.17550 0.31385
 C220 C 0.14268 1.19725 0.29613
 C221 C 0.12481 1.18125 0.26477
 C222 C 0.12436 1.14312 0.25092
 C223 C 0.14230 1.12145 0.26795
 C224 C 0.16022 1.13749 0.29889
 C225 C 0.10503 1.12586 0.22021
 C226 C 0.09706 1.09206 0.24485
 C227 C 0.07858 1.07616 0.21707
 C228 C 0.06776 1.09363 0.16386
 C229 C 0.07582 1.12722 0.13871
 C230 C 0.09424 1.14325 0.16678
 H231 H 0.20332 1.16382 0.29097
 H232 H 0.23370 1.18722 0.35562
 H233 H 0.18988 1.24967 0.48076
 H234 H 0.15960 1.22466 0.41784
 H235 H 0.14254 1.22666 0.30660
 H236 H 0.11114 1.19857 0.25269
 H237 H 0.14248 1.09207 0.25729
 H238 H 0.17366 1.11998 0.31255
 H239 H 0.10491 1.07825 0.28647
 H240 H 0.07274 1.05023 0.23740
 H241 H 0.06784 1.14122 0.09755
 H242 H 0.10015 1.16910 0.14633
 C243 C 0.68147 0.31692 -0.34948
 C244 C 0.69099 0.33665 -0.40249
 C245 C 0.70803 0.32149 -0.43885
 C246 C 0.71587 0.28577 -0.42423
 C247 C 0.70671 0.26661 -0.36939
 C248 C 0.68968 0.28189 -0.33289
 C249 C 0.66279 0.33265 -0.31265
 C250 C 0.64541 0.30997 -0.29382
 C251 C 0.62738 0.32506 -0.26207
 C252 C 0.62630 0.36319 -0.24869
 C253 C 0.64381 0.38578 -0.26645
 C254 C 0.66187 0.37067 -0.29791
 C255 C 0.60673 0.37951 -0.21802
 C256 C 0.59820 0.41279 -0.24301
 C257 C 0.57947 0.42777 -0.21547
 C258 C 0.56892 0.40987 -0.16217
 C259 C 0.57753 0.37682 -0.13663
 C260 C 0.59622 0.36171 -0.16446
 H261 H 0.68509 0.36373 -0.41665
 H262 H 0.71534 0.33830 -0.47764
 H263 H 0.71206 0.23904 -0.35622
 H264 H 0.68290 0.26620 -0.29162
 H265 H 0.64546 0.28068 -0.30534
 H266 H 0.61401 0.30706 -0.24971
 H267 H 0.64356 0.41516 -0.25577
 H268 H 0.67515 0.38879 -0.31057
 H269 H 0.60581 0.42690 -0.28475
 H270 H 0.57321 0.45332 -0.23609
 H271 H 0.56977 0.36252 -0.09538
 H272 H 0.60255 0.33623 -0.14376
 C273 C 0.18118 0.81980 -0.35479
 C274 C 0.19263 0.83957 -0.40401
 C275 C 0.20983 0.82314 -0.43782
 C276 C 0.21570 0.78643 -0.42382
 C277 C 0.20465 0.76695 -0.37345
 C278 C 0.18756 0.78350 -0.33917
 C279 C 0.16229 0.83664 -0.32121
 C280 C 0.15923 0.83280 -0.25160
 C281 C 0.14121 0.84829 -0.22036
 C282 C 0.12580 0.86774 -0.25818
 C283 C 0.12891 0.87148 -0.32788
 C284 C 0.14698 0.85622 -0.35897
 C285 C 0.10643 0.88377 -0.22541
 C286 C 0.09816 0.91803 -0.24671
 C287 C 0.07958 0.93259 -0.21749
 C288 C 0.06893 0.91335 -0.16599
 C289 C 0.07731 0.87944 -0.14378
 C290 C 0.09583 0.86472 -0.17333
 H291 H 0.18827 0.86778 -0.41628
 H292 H 0.21841 0.83891 -0.47560
 H293 H 0.20891 0.73859 -0.36194
 H294 H 0.17892 0.76754 -0.30182
 H295 H 0.17091 0.81818 -0.22120
 H296 H 0.13949 0.84539 -0.16646
 H297 H 0.11716 0.88562 -0.35875
 H298 H 0.14876 0.85907 -0.41289
 H299 H 0.10614 0.93377 -0.28576
 H300 H 0.07358 0.95898 -0.23518
 H301 H 0.06939 0.86400 -0.10420
 H302 H 0.10158 0.83806 -0.15630
 C303 C 0.31796 0.68249 -0.35450
 C304 C 0.30896 0.71576 -0.33139
 C305 C 0.29186 0.73227 -0.36586
 C306 C 0.28351 0.71617 -0.42501
 C307 C 0.29188 0.68173 -0.44560
 C308 C 0.30895 0.66532 -0.41121
 C309 C 0.33704 0.66614 -0.32086
 C310 C 0.35383 0.65108 -0.35942
 C311 C 0.37191 0.63589 -0.32832
 C312 C 0.37366 0.63537 -0.25788
 C313 C 0.35692 0.65055 -0.21923
 C314 C 0.33880 0.66580 -0.25041
 C315 C 0.39295 0.61910 -0.22519
 C316 C 0.40245 0.63619 -0.16897
 C317 C 0.42099 0.62135 -0.13965
 C318 C 0.43040 0.58916 -0.16601
 C319 C 0.42077 0.57180 -0.22157
 C320 C 0.40225 0.58658 -0.25080
 H321 H 0.31564 0.72976 -0.28799
 H322 H 0.28607 0.75878 -0.34814
 H323 H 0.28504 0.66704 -0.48795
 H324 H 0.31507 0.63902 -0.42893
 H325 H 0.35314 0.65160 -0.41382
 H326 H 0.38471 0.62508 -0.35954
 H327 H 0.35768 0.65014 -0.16485
 H328 H 0.32602 0.67685 -0.21938
 H329 H 0.39579 0.66147 -0.14848
 H330 H 0.42808 0.63528 -0.09680
 H331 H 0.42757 0.54677 -0.24262
 H332 H 0.39512 0.57241 -0.29331
 C333 C -0.18101 1.18894 -0.35325
 C334 C -0.17710 1.21373 -0.40612
 C335 C -0.19412 1.22974 -0.44118
 C336 C -0.21565 1.22097 -0.42529
 C337 C -0.21950 1.19755 -0.36981
 C338 C -0.20238 1.18156 -0.33453
 C339 C -0.16275 1.17043 -0.31901
 C340 C -0.16238 1.16642 -0.24874
 C341 C -0.14481 1.14969 -0.21696
 C342 C -0.12737 1.13640 -0.25489
 C343 C -0.12791 1.14007 -0.32518
 C344 C -0.14538 1.15688 -0.35684
 C345 C -0.10845 1.11930 -0.22164
 C346 C -0.09859 1.08793 -0.24974
 C347 C -0.08010 1.07293 -0.22064
 C348 C -0.07107 1.08901 -0.16288
 C349 C -0.08113 1.11990 -0.13389
 C350 C -0.09967 1.13489 -0.16296
 H351 H -0.16079 1.22092 -0.42021
 H352 H -0.19034 1.24946 -0.48043
 H353 H -0.23574 1.18995 -0.35571
 H354 H -0.20587 1.16247 -0.29400
 H355 H -0.17549 1.17679 -0.21831
 H356 H -0.14492 1.14696 -0.16275
 H357 H -0.11462 1.13048 -0.35573
 H358 H -0.14535 1.15915 -0.41114
 H359 H -0.10518 1.07497 -0.29433
 H360 H -0.07278 1.04891 -0.24376
 H361 H -0.07454 1.13278 -0.08922
 H362 H -0.10680 1.15927 -0.14052
 C363 C 0.68211 0.68010 -0.35345
 C364 C 0.69167 0.66158 -0.40775
 C365 C 0.70862 0.67776 -0.44312
 C366 C 0.71628 0.71329 -0.42596
 C367 C 0.70740 0.73085 -0.36905
 C368 C 0.69044 0.71455 -0.33357
 C369 C 0.66304 0.66402 -0.31935
 C370 C 0.66090 0.66557 -0.24907
 C371 C 0.64275 0.65060 -0.21755
 C372 C 0.62636 0.63387 -0.25571
 C373 C 0.62849 0.63257 -0.32601
 C374 C 0.64662 0.64742 -0.35742
 C375 C 0.60702 0.61787 -0.22278
 C376 C 0.59807 0.58460 -0.24652
 C377 C 0.57943 0.57014 -0.21756
 C378 C 0.56934 0.58854 -0.16403
 C379 C 0.57843 0.62142 -0.13929
 C380 C 0.59710 0.63599 -0.16844
 H381 H 0.68602 0.63448 -0.42294
 H382 H 0.71580 0.66227 -0.48394
 H383 H 0.71266 0.75822 -0.35407
 H384 H 0.68331 0.72956 -0.29209
 H385 H 0.67341 0.67790 -0.21842
 H386 H 0.64169 0.65163 -0.16325
 H387 H 0.61595 0.62059 -0.35697
 H388 H 0.64760 0.64650 -0.41176
 H389 H 0.60555 0.56961 -0.28743
 H390 H 0.57289 0.54454 -0.23725
 H391 H 0.57098 0.63614 -0.09801
 H392 H 0.60348 0.66184 -0.14944
 C393 C 0.18074 1.18579 -0.34873
 C394 C 0.18983 1.16699 -0.40356
 C395 C 0.20658 1.18287 -0.44039
 C396 C 0.21451 1.21838 -0.42425
 C397 C 0.20592 1.23641 -0.36740
 C398 C 0.18919 1.22043 -0.33050
 C399 C 0.16213 1.16973 -0.31198
 C400 C 0.14497 1.19239 -0.29142
 C401 C 0.12699 1.17713 -0.25963
 C402 C 0.12572 1.13885 -0.24787
 C403 C 0.14300 1.11626 -0.26743
 C404 C 0.16102 1.13153 -0.29903
 C405 C 0.10615 1.12245 -0.21717
 C406 C 0.09738 1.08951 -0.24298
 C407 C 0.07859 1.07457 -0.21563
 C408 C 0.06820 1.09218 -0.16175
 C409 C 0.07706 1.12488 -0.13535
 C410 C 0.09582 1.13993 -0.16293
 H411 H 0.18372 1.14023 -0.41897
 H412 H 0.21341 1.16711 -0.48145
 H413 H 0.21139 1.26376 -0.35305
 H414 H 0.18276 1.23535 -0.28780
 H415 H 0.14516 1.22182 -0.30163
 H416 H 0.11379 1.19516 -0.24598
 H417 H 0.14261 1.08675 -0.25807
 H418 H 0.17412 1.11342 -0.31319
 H419 H 0.10482 1.07567 -0.28526
 H420 H 0.07214 1.04930 -0.23692
 H421 H 0.06943 1.13893 -0.09361
 H422 H 0.10234 1.16512 -0.14155
 C423 C 0.31767 0.31869 -0.35541
 C424 C 0.31032 0.28330 -0.33711
 C425 C 0.29318 0.26687 -0.37147
 C426 C 0.28308 0.28553 -0.42466
 C427 C 0.28990 0.32140 -0.44149
 C428 C 0.30714 0.33773 -0.40751
 C429 C 0.33665 0.33522 -0.32161
 C430 C 0.35265 0.35303 -0.35956
 C431 C 0.37079 0.36796 -0.32819
 C432 C 0.37332 0.36560 -0.25805
 C433 C 0.35726 0.34785 -0.22006
 C434 C 0.33914 0.33274 -0.25154
 C435 C 0.39268 0.38152 -0.22496
 C436 C 0.40275 0.36306 -0.17122
 C437 C 0.42130 0.37772 -0.14145
 C438 C 0.43017 0.41101 -0.16505
 C439 C 0.41999 0.42968 -0.21814
 C440 C 0.40143 0.41516 -0.24765
 H441 H 0.31825 0.26788 -0.29756
 H442 H 0.28818 0.23915 -0.35781
 H443 H 0.28208 0.33649 -0.48168
 H444 H 0.31226 0.36526 -0.42196
 H445 H 0.35135 0.35474 -0.41378
 H446 H 0.38305 0.38079 -0.35908
 H447 H 0.35856 0.34605 -0.16588
 H448 H 0.32694 0.31950 -0.22100
 H449 H 0.39656 0.33689 -0.15305
 H450 H 0.42884 0.36276 -0.10059
 H451 H 0.42637 0.45559 -0.23697
 H452 H 0.39385 0.43044 -0.28803
 C453 C -0.18116 0.81556 -0.35615
 C454 C -0.19183 0.83445 -0.40816
 C455 C -0.20898 0.81783 -0.44216
 C456 C -0.21557 0.78183 -0.42543
 C457 C -0.20534 0.76331 -0.37230
 C458 C -0.18830 0.78002 -0.33792
 C459 C -0.16228 0.83244 -0.32234
 C460 C -0.15973 0.82992 -0.25229
 C461 C -0.14173 0.84544 -0.22080
 C462 C -0.12585 0.86366 -0.25877
 C463 C -0.12841 0.86602 -0.32889
 C464 C -0.14643 0.85067 -0.36027
 C465 C -0.10663 0.88008 -0.22567
 C466 C -0.09820 0.91399 -0.24823
 C467 C -0.07978 0.92902 -0.21867
 C468 C -0.06942 0.91060 -0.16564
 C469 C -0.07797 0.87702 -0.14218
 C470 C -0.09637 0.86186 -0.17200
 H471 H -0.18689 0.86209 -0.42253
 H472 H -0.21690 0.83282 -0.48229
 H473 H -0.21018 0.73548 -0.35872
 H474 H -0.18027 0.76471 -0.29844
 H475 H -0.17182 0.81635 -0.22175
 H476 H -0.14040 0.84361 -0.16663
 H477 H -0.11628 0.87920 -0.35977
 H478 H -0.14777 0.85243 -0.41447
 H479 H -0.10593 0.92910 -0.28856
 H480 H -0.07366 0.95514 -0.23741
 H481 H -0.07028 0.86224 -0.10137
 H482 H -0.10231 0.83550 -0.15391
 C483 C 0.32143 0.69371 0.35460
 C484 C 0.32412 0.72136 0.40360
 C485 C 0.30636 0.73550 0.43799
 C486 C 0.28562 0.72181 0.42487
 C487 C 0.28280 0.69519 0.37421
 C488 C 0.30056 0.68124 0.33938
 C489 C 0.34042 0.67704 0.32124
 C490 C 0.34035 0.67000 0.25176
 C491 C 0.35817 0.65366 0.22085
 C492 C 0.37632 0.64374 0.25892
 C493 C 0.37638 0.65083 0.32837
 C494 C 0.35864 0.66739 0.35916
 C495 C 0.39514 0.62593 0.22655
 C496 C 0.40545 0.59584 0.25757
 C497 C 0.42339 0.57937 0.22775
 C498 C 0.43146 0.59279 0.16651
 C499 C 0.42110 0.62270 0.13518
 C500 C 0.40307 0.63904 0.16481
 H501 H 0.33998 0.73193 0.41550
 H502 H 0.30883 0.75653 0.47604
 H503 H 0.26693 0.68433 0.36324
 H504 H 0.29804 0.65980 0.30215
 H505 H 0.32656 0.67736 0.22129
 H506 H 0.35763 0.64826 0.16732
 H507 H 0.39023 0.64382 0.35885
 H508 H 0.35904 0.67211 0.41292
 H509 H 0.39952 0.58485 0.30472
 H510 H 0.43101 0.55625 0.25289
 H511 H 0.42698 0.63357 0.08787
 H512 H 0.39555 0.66238 0.14006
 C513 C -0.18241 1.18729 0.35285
 C514 C -0.19475 1.16759 0.40023
 C515 C -0.21103 1.18508 0.43652
 C516 C -0.21592 1.22259 0.42535
 C517 C -0.20473 1.24159 0.37448
 C518 C -0.18788 1.22447 0.33987
 C519 C -0.16357 1.16950 0.31906
 C520 C -0.15663 1.18107 0.25506
 C521 C -0.13836 1.16556 0.22529
 C522 C -0.12682 1.13712 0.25757
 C523 C -0.13417 1.12484 0.32067
 C524 C -0.15196 1.14120 0.35140
 C525 C -0.10714 1.12069 0.22628
 C526 C -0.09058 1.10589 0.26664
 C527 C -0.07232 1.09010 0.23757
 C528 C -0.06976 1.08995 0.16766
 C529 C -0.08590 1.10513 0.12698
 C530 C -0.10456 1.11976 0.15585
 H531 H -0.19188 1.13856 0.40980
 H532 H -0.21998 1.16907 0.47312
 H533 H -0.20801 1.27052 0.36456
 H534 H -0.17871 1.24098 0.30473
 H535 H -0.16524 1.20219 0.22752
 H536 H -0.13319 1.17645 0.17730
 H537 H -0.12624 1.10245 0.34686
 H538 H -0.15629 1.13183 0.40123
 H539 H -0.09144 1.10691 0.32090
 H540 H -0.05990 1.07886 0.26986
 H541 H -0.08429 1.10495 0.07275
 H542 H -0.11700 1.12988 0.12261
 C543 C 0.68176 0.31849 0.35058
 C544 C 0.70253 0.33359 0.34384
 C545 C 0.71975 0.31916 0.38066
 C546 C 0.71649 0.28961 0.42529
 C547 C 0.69591 0.27386 0.43073
 C548 C 0.67870 0.28827 0.39405
 C549 C 0.66322 0.33468 0.31384
 C550 C 0.64722 0.31174 0.28617
 C551 C 0.62922 0.32702 0.25459
 C552 C 0.62679 0.36560 0.24994
 C553 C 0.64299 0.38853 0.27650
 C554 C 0.66100 0.37325 0.30808
 C555 C 0.60716 0.38181 0.21919
 C556 C 0.59726 0.41288 0.24831
 C557 C 0.57845 0.42756 0.22068
 C558 C 0.56912 0.41146 0.16341
 C559 C 0.57907 0.38064 0.13383
 C560 C 0.59790 0.36595 0.16144
 H561 H 0.70545 0.35653 0.31002
 H562 H 0.73555 0.33151 0.37540
 H563 H 0.69311 0.25071 0.46422
 H564 H 0.66288 0.27625 0.40090
 H565 H 0.64859 0.28191 0.28909
 H566 H 0.61694 0.30859 0.23521
 H567 H 0.64172 0.41835 0.27298
 H568 H 0.67293 0.39167 0.32944
 H569 H 0.60382 0.42542 0.29334
 H570 H 0.57113 0.45135 0.24454
 H571 H 0.57228 0.36782 0.08938
 H572 H 0.60530 0.34232 0.13732
 C573 C 0.17881 0.81166 0.35661
 C574 C 0.19989 0.82394 0.34369
 C575 C 0.21732 0.80869 0.37833
 C576 C 0.21399 0.78112 0.42688
 C577 C 0.19302 0.76827 0.43893
 C578 C 0.17559 0.78344 0.40424
 C579 C 0.16022 0.82863 0.32143
 C580 C 0.14314 0.80658 0.29805
 C581 C 0.12542 0.82270 0.26622
 C582 C 0.12435 0.86124 0.25734
 C583 C 0.14149 0.88327 0.28037
 C584 C 0.15924 0.86714 0.31196
 C585 C 0.10527 0.87843 0.22512
 C586 C 0.09637 0.91113 0.25137
 C587 C 0.07815 0.92693 0.22198
 C588 C 0.06846 0.91042 0.16565
 C589 C 0.07744 0.87795 0.13894
 C590 C 0.09564 0.86208 0.16846
 H591 H 0.20289 0.84528 0.30664
 H592 H 0.23339 0.81890 0.36825
 H593 H 0.19015 0.74679 0.47584
 H594 H 0.15954 0.77365 0.41573
 H595 H 0.14353 0.77681 0.30408
 H596 H 0.11238 0.80504 0.24960
 H597 H 0.14121 0.91300 0.27366
 H598 H 0.17205 0.88488 0.33004
 H599 H 0.10328 0.92414 0.29544
 H600 H 0.07157 0.95198 0.24363
 H601 H 0.07035 0.86472 0.09537
 H602 H 0.10229 0.83714 0.14661
   
