data_POSCAR
  _audit_creation_date              2014-09-24
  _audit_creation_method            'ToBaCCo'
  _symmetry_space_group_name_H-M    'P1'
  _symmetry_Int_Tables_number       1
  _symmetry_cell_setting            triclinic
  loop_
  _symmetry_equiv_pos_as_xyz
 x,y,z
_cell_length_a 54.4615
_cell_length_b 26.9123
_cell_length_c 23.6511
_cell_angle_alpha 90.148400
_cell_angle_beta 90.134200
_cell_angle_gamma 89.771900
loop_
  _atom_site_label
  _atom_site_type_symbol
  _atom_site_fract_x
  _atom_site_fract_y
  _atom_site_fract_z
C1 C 0.69237 0.30973 0.49153
 C2 C 0.70319 0.30256 0.54504
 C3 C 0.72658 0.27972 0.54730
 C4 C 0.73761 0.25935 0.49816
 C5 C 0.72520 0.26456 0.44597
 C6 C 0.70323 0.29140 0.44230
 C7 C 0.76153 0.23143 0.50126
 C8 C 0.77716 0.22836 0.45366
 C9 C 0.79854 0.19850 0.45399
 C10 C 0.80515 0.17516 0.50501
 C11 C 0.79066 0.17945 0.55366
 C12 C 0.76863 0.20645 0.55111
 H13 H 0.67535 0.33039 0.48748
 H14 H 0.73564 0.27568 0.58764
 H15 H 0.73241 0.24812 0.40768
 H16 H 0.77211 0.24769 0.41547
 H17 H 0.82257 0.15587 0.50827
 H18 H 0.75698 0.20687 0.58805
 C19 C 0.18954 0.80076 0.50273
 C20 C 0.20033 0.79267 0.55599
 C21 C 0.22470 0.77480 0.55780
 C22 C 0.23691 0.75897 0.50812
 C23 C 0.22488 0.76547 0.45566
 C24 C 0.20179 0.78830 0.45283
 C25 C 0.26168 0.73431 0.51130
 C26 C 0.27767 0.73438 0.46448
 C27 C 0.29989 0.70815 0.46604
 C28 C 0.30734 0.68516 0.51623
 C29 C 0.29250 0.68603 0.56498
 C30 C 0.26925 0.70912 0.56082
 H31 H 0.17151 0.81770 0.49954
 H32 H 0.23363 0.77060 0.59826
 H33 H 0.23321 0.75318 0.41660
 H34 H 0.27288 0.75383 0.42606
 H35 H 0.32553 0.66894 0.51711
 H36 H 0.25657 0.70531 0.59548
 C37 C 0.31367 0.29085 -0.49348
 C38 C 0.30433 0.27493 -0.54554
 C39 C 0.28021 0.25695 -0.54860
 C40 C 0.26479 0.25639 -0.50041
 C41 C 0.27481 0.27319 -0.44850
 C42 C 0.29921 0.28934 -0.44482
 C43 C 0.23861 0.23841 -0.50435
 C44 C 0.22532 0.22448 -0.45548
 C45 C 0.20075 0.20805 -0.45867
 C46 C 0.18983 0.20386 -0.51240
 C47 C 0.20252 0.21717 -0.56128
 C48 C 0.22653 0.23502 -0.55716
 H49 H 0.33239 0.30417 -0.49064
 H50 H 0.27405 0.24250 -0.58879
 H51 H 0.26391 0.27489 -0.41048
 H52 H 0.23429 0.22381 -0.41479
 H53 H 0.17091 0.19219 -0.51676
 H54 H 0.23520 0.24725 -0.59567
 C55 C -0.18745 0.79179 -0.50118
 C56 C -0.19844 0.78020 -0.55354
 C57 C -0.22287 0.76299 -0.55334
 C58 C -0.23672 0.76045 -0.50292
 C59 C -0.22537 0.77535 -0.45188
 C60 C -0.20064 0.78919 -0.45066
 C61 C -0.26282 0.74230 -0.50358
 C62 C -0.27391 0.72366 -0.45397
 C63 C -0.29874 0.71021 -0.45352
 C64 C -0.31232 0.71190 -0.50372
 C65 C -0.30151 0.72761 -0.55414
 C66 C -0.27709 0.74391 -0.55365
 H67 H -0.16891 0.80602 -0.49911
 H68 H -0.23059 0.74940 -0.59245
 H69 H -0.23539 0.77591 -0.41252
 H70 H -0.26366 0.72010 -0.41502
 H71 H -0.33130 0.69989 -0.50367
 H72 H -0.26976 0.75882 -0.59244
 O73 O -0.02996 0.92358 0.11265
 O74 O -0.05873 0.95746 0.05307
 C75 C -0.05248 0.93218 0.09764
 O76 O 0.03215 1.10343 0.09100
 O77 O 0.06124 1.05618 0.04569
 C78 C 0.05478 1.09185 0.07968
 O79 O -0.03611 1.08973 0.09605
 O80 O -0.06138 1.03831 0.04518
 C81 C -0.05760 1.07216 0.08333
 O82 O 0.03853 0.92423 0.10660
 O83 O 0.06418 0.97142 0.05221
 C84 C 0.06022 0.93921 0.09176
 Zr85 Zr 0.00339 0.94483 0.07551
 O86 O 0.00598 0.94527 0.16471
 O87 O 0.00261 0.86613 0.07660
 Zr88 Zr -0.00102 1.07030 0.06421
 O89 O 0.00106 1.08099 0.15277
 O90 O -0.00658 1.14753 0.05243
 O91 O -0.02044 1.00550 0.08070
 O92 O 0.02219 1.01108 0.08121
 O93 O 0.03947 0.91060 -0.09021
 O94 O 0.06471 0.96460 -0.04296
 C95 C 0.06104 0.92770 -0.07727
 O96 O -0.03438 1.07122 -0.11640
 O97 O -0.06081 1.03120 -0.05662
 C98 C -0.05624 1.05733 -0.10142
 O99 O 0.03403 1.08754 -0.10830
 O100 O 0.06194 1.04921 -0.05003
 C101 C 0.05639 1.07778 -0.09217
 O102 O -0.02910 0.90676 -0.09893
 O103 O -0.05817 0.95069 -0.04960
 C104 C -0.05172 0.91829 -0.08755
 Zr105 Zr 0.00408 0.93481 -0.06538
 O106 O 0.00725 0.92531 -0.15392
 O107 O 0.00363 0.85675 -0.05427
 Zr108 Zr 0.00002 1.06049 -0.07654
 O109 O 0.00181 1.06449 -0.16561
 O110 O -0.00557 1.13842 -0.07459
 Zr111 Zr -0.03519 0.99761 -0.00143
 Zr112 Zr 0.03820 1.00723 0.00040
 O113 O 0.02316 0.99948 -0.08121
 O114 O -0.01939 0.99401 -0.08280
 O115 O 0.02618 0.93306 0.00641
 O116 O -0.02263 1.07129 -0.00768
 O117 O -0.01774 0.92804 0.00545
 O118 O 0.02141 1.07781 -0.00643
 H119 H 0.03277 1.01463 0.11512
 H120 H -0.03519 1.09791 -0.01072
 H121 H 0.03409 0.99808 -0.11459
 H122 H -0.02837 0.89830 0.00782
 H123 H 0.00827 1.16092 0.03396
 H124 H 0.01049 1.15415 -0.06682
 H125 H 0.00386 1.03002 -0.17938
 H126 H -0.00473 0.94813 -0.17183
 H127 H 0.01917 0.84711 -0.03544
 H128 H 0.01874 0.85394 0.06313
 H129 H -0.00324 0.97473 0.17805
 H130 H -0.00989 1.05632 0.17049
 O131 O 0.53067 0.42581 -0.11093
 O132 O 0.55918 0.46701 -0.05722
 C133 C 0.55310 0.43859 -0.09939
 O134 O 0.46163 0.59493 -0.09120
 O135 O 0.43595 0.54691 -0.03772
 C136 C 0.43992 0.58062 -0.07575
 O137 O 0.53023 0.59183 -0.10388
 O138 O 0.55912 0.54772 -0.05397
 C139 C 0.55277 0.57900 -0.09311
 O140 O 0.46239 0.41726 -0.09527
 O141 O 0.43653 0.46245 -0.03852
 C142 C 0.44061 0.43027 -0.07825
 Zr143 Zr 0.49753 0.44285 -0.06906
 O144 O 0.49360 0.43432 -0.15742
 O145 O 0.50134 0.36471 -0.06228
 Zr146 Zr 0.49680 0.56918 -0.06700
 O147 O 0.49238 0.57395 -0.15574
 O148 O 0.49910 0.64760 -0.06184
 O149 O 0.51840 0.50669 -0.08206
 O150 O 0.47592 0.50575 -0.07641
 O151 O 0.46758 0.41319 0.10387
 O152 O 0.43903 0.46033 0.05656
 C153 C 0.44506 0.42615 0.09267
 O154 O 0.53464 0.59023 0.10471
 O155 O 0.56096 0.54760 0.04654
 C156 C 0.55653 0.57822 0.08785
 O157 O 0.46600 0.59321 0.10763
 O158 O 0.43838 0.54580 0.05837
 C159 C 0.44375 0.57928 0.09583
 O160 O 0.53669 0.41974 0.10032
 O161 O 0.56204 0.46560 0.04344
 C162 C 0.55832 0.43375 0.08359
 Zr163 Zr 0.50117 0.44138 0.07231
 O164 O 0.50071 0.43783 0.16169
 O165 O 0.50444 0.36306 0.06753
 Zr166 Zr 0.49996 0.56739 0.07465
 O167 O 0.49940 0.56908 0.16408
 O168 O 0.50206 0.64593 0.07218
 Zr169 Zr 0.53550 0.50620 -0.00191
 Zr170 Zr 0.46232 0.50450 0.00678
 O171 O 0.47965 0.50369 0.08647
 O172 O 0.52257 0.50488 0.08210
 O173 O 0.47726 0.43206 0.00410
 O174 O 0.51991 0.57778 0.00144
 O175 O 0.52113 0.43374 -0.00147
 O176 O 0.47620 0.57751 0.00651
 H177 H 0.46446 0.50600 -0.10899
 H178 H 0.53107 0.60677 0.00055
 H179 H 0.46961 0.50303 0.12134
 H180 H 0.53291 0.40566 -0.00393
 H181 H 0.48409 0.65978 -0.04275
 H182 H 0.48654 0.65849 0.05564
 H183 H 0.51149 0.54423 0.17742
 H184 H 0.51359 0.46049 0.17586
 H185 H 0.48944 0.35029 0.04894
 H186 H 0.48520 0.35110 -0.05126
 H187 H 0.49400 0.46811 -0.17358
 H188 H 0.50390 0.54978 -0.17296
 C189 C 0.34443 0.26132 0.40522
 C190 C 0.36001 0.26883 0.35927
 C191 C 0.35162 0.29379 0.31090
 C192 C 0.32680 0.30845 0.30795
 C193 C 0.31111 0.30041 0.35380
 C194 C 0.31996 0.27790 0.40337
 C195 C 0.36953 0.30493 0.26566
 C196 C 0.36794 0.34534 0.23265
 C197 C 0.38770 0.36156 0.19364
 C198 C 0.38212 0.39740 0.15246
 C199 C 0.40057 0.41722 0.11831
 C200 C 0.42512 0.40184 0.12485
 C201 C 0.43063 0.36517 0.16516
 C202 C 0.41222 0.34540 0.19930
 H203 H 0.35160 0.24325 0.44269
 H204 H 0.37896 0.25669 0.36236
 H205 H 0.31950 0.32640 0.27061
 H206 H 0.29229 0.31341 0.35133
 H207 H 0.38540 0.28084 0.26294
 H208 H 0.35198 0.36926 0.23590
 H209 H 0.36347 0.41086 0.14741
 H210 H 0.39564 0.44554 0.08783
 H211 H 0.44935 0.35266 0.17161
 H212 H 0.41765 0.31908 0.23141
 C213 C -0.19765 0.80091 0.34455
 C214 C -0.18439 0.81538 0.29659
 C215 C -0.15869 0.81666 0.29795
 C216 C -0.14644 0.79904 0.34628
 C217 C -0.15953 0.78507 0.39412
 C218 C -0.18540 0.78764 0.39520
 C219 C -0.14471 0.83731 0.24970
 C220 C -0.12397 0.86273 0.25888
 C221 C -0.10684 0.87978 0.21472
 C222 C -0.08227 0.88555 0.23070
 C223 C -0.06492 0.90180 0.19214
 C224 C -0.07166 0.91361 0.13638
 C225 C -0.09641 0.90875 0.12009
 C226 C -0.11392 0.89150 0.15896
 H227 H -0.21746 0.80385 0.34271
 H228 H -0.19423 0.82787 0.25936
 H229 H -0.12660 0.79651 0.34752
 H230 H -0.14913 0.77171 0.43007
 H231 H -0.15154 0.83160 0.20718
 H232 H -0.11817 0.86914 0.30215
 H233 H -0.07636 0.87713 0.27342
 H234 H -0.04616 0.90586 0.20664
 H235 H -0.10216 0.91809 0.07755
 H236 H -0.13288 0.88836 0.14573
 C237 C 0.66021 0.74516 0.39093
 C238 C 0.64538 0.73772 0.34349
 C239 C 0.65394 0.70973 0.29737
 C240 C 0.67831 0.69216 0.29794
 C241 C 0.69332 0.70029 0.34522
 C242 C 0.68411 0.72562 0.39272
 C243 C 0.63644 0.69817 0.25122
 C244 C 0.63715 0.65587 0.22100
 C245 C 0.61667 0.63961 0.18382
 C246 C 0.62117 0.60450 0.14097
 C247 C 0.60182 0.58546 0.10839
 C248 C 0.57750 0.60063 0.11871
 C249 C 0.57309 0.63614 0.16122
 C250 C 0.59234 0.65520 0.19347
 H251 H 0.65281 0.76519 0.42688
 H252 H 0.62677 0.75207 0.34384
 H253 H 0.68573 0.67168 0.26240
 H254 H 0.71174 0.68497 0.34570
 H255 H 0.62114 0.72351 0.24598
 H256 H 0.65254 0.63065 0.22573
 H257 H 0.63968 0.59134 0.13314
 H258 H 0.60587 0.55816 0.07601
 H259 H 0.55461 0.64857 0.17066
 H260 H 0.58780 0.68059 0.22738
 C261 C 0.20012 1.18203 0.34086
 C262 C 0.18677 1.17261 0.29135
 C263 C 0.16339 1.19376 0.28326
 C264 C 0.15435 1.22715 0.32440
 C265 C 0.16750 1.23583 0.37412
 C266 C 0.19021 1.21256 0.38325
 C267 C 0.14872 1.17837 0.23305
 C268 C 0.12426 1.18419 0.22987
 C269 C 0.10855 1.16413 0.18405
 C270 C 0.08482 1.18388 0.17828
 C271 C 0.06784 1.16200 0.14191
 C272 C 0.07412 1.11948 0.11045
 C273 C 0.09828 1.10107 0.11381
 C274 C 0.11535 1.12303 0.15047
 H275 H 0.21767 1.16376 0.34719
 H276 H 0.19436 1.14729 0.26022
 H277 H 0.13706 1.24641 0.31919
 H278 H 0.15976 1.26021 0.40602
 H279 H 0.15829 1.15924 0.19933
 H280 H 0.11460 1.20306 0.26352
 H281 H 0.07909 1.21548 0.20357
 H282 H 0.04945 1.17739 0.14012
 H283 H 0.10365 1.06821 0.09033
 H284 H 0.13329 1.10601 0.15446
 C285 C 0.70205 0.33179 -0.35510
 C286 C 0.68840 0.34758 -0.30792
 C287 C 0.66262 0.34812 -0.30963
 C288 C 0.65081 0.33001 -0.35828
 C289 C 0.66424 0.31519 -0.40531
 C290 C 0.69013 0.31672 -0.40545
 C291 C 0.64813 0.36603 -0.26030
 C292 C 0.62546 0.38486 -0.26704
 C293 C 0.60812 0.39595 -0.22074
 C294 C 0.58307 0.38977 -0.23214
 C295 C 0.56549 0.40195 -0.19183
 C296 C 0.57244 0.42166 -0.13913
 C297 C 0.59762 0.42766 -0.12724
 C298 C 0.61539 0.41449 -0.16765
 H299 H 0.72185 0.33391 -0.35265
 H300 H 0.69799 0.36037 -0.27047
 H301 H 0.63106 0.32623 -0.36016
 H302 H 0.65402 0.30050 -0.44089
 H303 H 0.65594 0.36237 -0.21836
 H304 H 0.61822 0.38963 -0.30935
 H305 H 0.57703 0.37564 -0.27279
 H306 H 0.54633 0.39720 -0.20286
 H307 H 0.60353 0.44313 -0.08717
 H308 H 0.63461 0.42037 -0.15810
 C309 C 0.16089 0.79059 -0.39458
 C310 C 0.14695 0.79525 -0.34564
 C311 C 0.15775 0.81093 -0.29505
 C312 C 0.18302 0.82074 -0.29355
 C313 C 0.19730 0.81449 -0.34234
 C314 C 0.18639 0.79988 -0.39406
 C315 C 0.14177 0.81649 -0.24529
 C316 C 0.14240 0.85649 -0.21149
 C317 C 0.12208 0.86954 -0.17224
 C318 C 0.12599 0.90554 -0.13009
 C319 C 0.10643 0.92300 -0.09707
 C320 C 0.08249 0.90512 -0.10608
 C321 C 0.07880 0.86791 -0.14686
 C322 C 0.09820 0.85064 -0.17975
 H323 H 0.15164 0.77723 -0.43218
 H324 H 0.12749 0.78709 -0.34748
 H325 H 0.19175 0.83261 -0.25463
 H326 H 0.21667 0.82304 -0.33970
 H327 H 0.12719 0.78962 -0.24133
 H328 H 0.15728 0.88283 -0.21591
 H329 H 0.14410 0.92111 -0.12369
 H330 H 0.10994 0.95153 -0.06575
 H331 H 0.06063 0.85340 -0.15524
 H332 H 0.09387 0.82437 -0.21284
 C333 C 0.29298 0.68456 -0.33022
 C334 C 0.30449 0.67045 -0.27967
 C335 C 0.32454 0.63783 -0.28058
 C336 C 0.33147 0.61583 -0.33189
 C337 C 0.31995 0.62938 -0.38222
 C338 C 0.30128 0.66603 -0.38300
 C339 C 0.33952 0.62992 -0.22921
 C340 C 0.36397 0.63424 -0.23221
 C341 C 0.38119 0.62678 -0.18462
 C342 C 0.40442 0.64856 -0.18863
 C343 C 0.42293 0.63635 -0.15038
 C344 C 0.41875 0.60140 -0.10743
 C345 C 0.39494 0.58207 -0.10091
 C346 C 0.37627 0.59455 -0.13933
 H347 H 0.27895 0.71299 -0.32756
 H348 H 0.29876 0.68754 -0.24030
 H349 H 0.34634 0.58899 -0.33322
 H350 H 0.32593 0.61080 -0.42038
 H351 H 0.33050 0.62424 -0.18902
 H352 H 0.37202 0.64489 -0.27229
 H353 H 0.40861 0.67365 -0.22302
 H354 H 0.44093 0.65239 -0.15655
 H355 H 0.39107 0.55533 -0.06805
 H356 H 0.35859 0.57672 -0.13545
 C357 C -0.20101 1.18521 -0.34192
 C358 C -0.18829 1.16855 -0.29398
 C359 C -0.17452 1.12442 -0.29612
 C360 C -0.17561 1.09477 -0.34504
 C361 C -0.18845 1.11112 -0.39263
 C362 C -0.20036 1.15755 -0.39246
 C363 C -0.15749 1.11205 -0.24929
 C364 C -0.13480 1.09521 -0.26026
 C365 C -0.11551 1.08807 -0.21696
 C366 C -0.09101 1.09431 -0.23327
 C367 C -0.07194 1.08593 -0.19506
 C368 C -0.07689 1.07011 -0.13968
 C369 C -0.10149 1.06393 -0.12306
 C370 C -0.12069 1.07315 -0.16131
 H371 H -0.21002 1.22112 -0.34051
 H372 H -0.18789 1.19172 -0.25647
 H373 H -0.16580 1.05974 -0.34719
 H374 H -0.18820 1.08837 -0.43047
 H375 H -0.16254 1.12231 -0.20655
 H376 H -0.12927 1.09037 -0.30395
 H377 H -0.08657 1.10558 -0.27599
 H378 H -0.05325 1.09058 -0.20957
 H379 H -0.10588 1.05144 -0.08080
 H380 H -0.13942 1.06716 -0.14786
 C381 C 0.69754 0.65740 -0.36642
 C382 C 0.68418 0.64237 -0.31887
 C383 C 0.66201 0.66618 -0.30464
 C384 C 0.65426 0.70725 -0.33698
 C385 C 0.66735 0.72166 -0.38468
 C386 C 0.68882 0.69636 -0.40043
 C387 C 0.64718 0.64731 -0.25667
 C388 C 0.62273 0.65363 -0.25462
 C389 C 0.60651 0.63603 -0.20872
 C390 C 0.58298 0.65707 -0.20529
 C391 C 0.56599 0.63978 -0.16619
 C392 C 0.57203 0.60060 -0.12952
 C393 C 0.59584 0.58021 -0.13162
 C394 C 0.61296 0.59768 -0.17099
 H395 H 0.71419 0.63764 -0.37771
 H396 H 0.69078 0.61123 -0.29413
 H397 H 0.63809 0.72850 -0.32584
 H398 H 0.66066 0.75263 -0.40961
 H399 H 0.65656 0.62677 -0.22378
 H400 H 0.61362 0.67291 -0.28889
 H401 H 0.57751 0.68661 -0.23376
 H402 H 0.54788 0.65654 -0.16569
 H403 H 0.60094 0.54961 -0.10431
 H404 H 0.63075 0.57979 -0.17299
 C405 C 0.19070 1.22414 -0.35860
 C406 C 0.17536 1.21692 -0.31188
 C407 C 0.15672 1.18126 -0.31372
 C408 C 0.15353 1.15298 -0.36305
 C409 C 0.16827 1.16110 -0.41027
 C410 C 0.18700 1.19726 -0.40931
 C411 C 0.13992 1.17527 -0.26523
 C412 C 0.13289 1.13028 -0.24783
 C413 C 0.11456 1.12250 -0.20290
 C414 C 0.11764 1.08230 -0.16610
 C415 C 0.09924 1.06997 -0.12775
 C416 C 0.07698 1.09661 -0.12665
 C417 C 0.07406 1.13764 -0.16272
 C418 C 0.09284 1.15088 -0.20014
 H419 H 0.20440 1.25307 -0.35584
 H420 H 0.17799 1.23937 -0.27429
 H421 H 0.13914 1.12540 -0.36569
 H422 H 0.16519 1.13803 -0.44714
 H423 H 0.13363 1.20820 -0.24304
 H424 H 0.14121 1.09753 -0.26665
 H425 H 0.13413 1.05970 -0.16790
 H426 H 0.10200 1.03789 -0.10094
 H427 H 0.05705 1.15865 -0.16297
 H428 H 0.08987 1.18156 -0.22891
 C429 C 0.31158 0.26742 -0.34631
 C430 C 0.32563 0.27679 -0.29787
 C431 C 0.33809 0.32200 -0.29161
 C432 C 0.33593 0.35814 -0.33425
 C433 C 0.32230 0.34837 -0.38310
 C434 C 0.31034 0.30267 -0.38987
 C435 C 0.35522 0.32876 -0.24360
 C436 C 0.35962 0.37332 -0.22055
 C437 C 0.37938 0.38207 -0.17881
 C438 C 0.37660 0.42052 -0.13928
 C439 C 0.39609 0.43395 -0.10403
 C440 C 0.41904 0.41015 -0.10878
 C441 C 0.42160 0.37057 -0.14722
 C442 C 0.40192 0.35646 -0.18173
 H443 H 0.30273 0.23169 -0.35114
 H444 H 0.32723 0.24827 -0.26581
 H445 H 0.34579 0.39290 -0.33135
 H446 H 0.32172 0.37584 -0.41648
 H447 H 0.36460 0.29620 -0.22735
 H448 H 0.34849 0.40494 -0.23301
 H449 H 0.35948 0.44103 -0.13661
 H450 H 0.39347 0.46458 -0.07492
 H451 H 0.43906 0.35162 -0.15203
 H452 H 0.40480 0.32737 -0.21272
 C453 C -0.19704 0.83702 -0.35949
 C454 C -0.18349 0.85045 -0.31136
 C455 C -0.16079 0.82757 -0.29956
 C456 C -0.15264 0.78896 -0.33535
 C457 C -0.16595 0.77618 -0.38364
 C458 C -0.18801 0.80061 -0.39670
 C459 C -0.14598 0.84512 -0.25046
 C460 C -0.12155 0.83841 -0.24731
 C461 C -0.10554 0.85644 -0.20081
 C462 C -0.08201 0.83542 -0.19609
 C463 C -0.06503 0.85398 -0.15734
 C464 C -0.07108 0.89440 -0.12229
 C465 C -0.09495 0.91444 -0.12527
 C466 C -0.11204 0.89576 -0.16429
 H467 H -0.21410 0.85621 -0.36872
 H468 H -0.19042 0.87972 -0.28416
 H469 H -0.13601 0.76833 -0.32659
 H470 H -0.15894 0.74722 -0.41118
 H471 H -0.15543 0.86541 -0.21745
 H472 H -0.11222 0.81911 -0.28119
 H473 H -0.07650 0.80512 -0.22358
 H474 H -0.04687 0.83748 -0.15609
 H475 H -0.10009 0.94597 -0.09926
 H476 H -0.12980 0.91368 -0.16726
 C477 C 0.32235 0.74451 0.38304
 C478 C 0.33816 0.73881 0.33677
 C479 C 0.34671 0.69147 0.32099
 C480 C 0.33941 0.64997 0.35272
 C481 C 0.32392 0.65573 0.39910
 C482 C 0.31537 0.70298 0.41496
 C483 C 0.36445 0.68618 0.27396
 C484 C 0.36539 0.64514 0.24177
 C485 C 0.38495 0.63444 0.20005
 C486 C 0.38054 0.59816 0.15863
 C487 C 0.39939 0.58177 0.12325
 C488 C 0.42325 0.60100 0.12887
 C489 C 0.42751 0.63858 0.16908
 C490 C 0.40857 0.65518 0.20434
 H491 H 0.31612 0.78136 0.39483
 H492 H 0.34379 0.77136 0.31337
 H493 H 0.34623 0.61312 0.34293
 H494 H 0.31874 0.62315 0.42303
 H495 H 0.37685 0.71669 0.26603
 H496 H 0.35129 0.61719 0.24669
 H497 H 0.36255 0.58139 0.15467
 H498 H 0.39541 0.55267 0.09290
 H499 H 0.44568 0.65406 0.17462
 H500 H 0.41285 0.68239 0.23658
 C501 C -0.18538 1.22807 0.36207
 C502 C -0.17053 1.22078 0.31442
 C503 C -0.15745 1.17631 0.30706
 C504 C -0.15910 1.13946 0.34871
 C505 C -0.17354 1.14689 0.39663
 C506 C -0.18695 1.19143 0.40463
 C507 C -0.14090 1.17019 0.25786
 C508 C -0.13640 1.12570 0.23430
 C509 C -0.11747 1.11691 0.19047
 C510 C -0.11946 1.07474 0.15577
 C511 C -0.10053 1.06167 0.11876
 C512 C -0.07895 1.09007 0.11640
 C513 C -0.07720 1.13304 0.15008
 C514 C -0.09628 1.14645 0.18662
 H515 H -0.19454 1.26359 0.36642
 H516 H -0.16920 1.25008 0.28328
 H517 H -0.14882 1.10510 0.34504
 H518 H -0.17466 1.11656 0.42646
 H519 H -0.13239 1.20318 0.24079
 H520 H -0.14691 1.09383 0.24799
 H521 H -0.13546 1.05108 0.15838
 H522 H -0.10235 1.02802 0.09392
 H523 H -0.06075 1.15553 0.14947
 H524 H -0.09380 1.17849 0.21373
 C525 C 0.68411 0.26088 0.35214
 C526 C 0.66947 0.26958 0.30437
 C527 C 0.66193 0.31804 0.29048
 C528 C 0.66974 0.35782 0.32473
 C529 C 0.68410 0.34906 0.37261
 C530 C 0.69101 0.30050 0.38735
 C531 C 0.64386 0.32560 0.24428
 C532 C 0.64140 0.36881 0.21664
 C533 C 0.62066 0.38024 0.17810
 C534 C 0.62335 0.41845 0.13838
 C535 C 0.60335 0.43441 0.10593
 C536 C 0.58005 0.41310 0.11331
 C537 C 0.57748 0.37398 0.15211
 C538 C 0.59755 0.35767 0.18413
 H539 H 0.68905 0.22308 0.36310
 H540 H 0.66349 0.23830 0.27902
 H541 H 0.66378 0.39551 0.31652
 H542 H 0.68919 0.38013 0.39933
 H543 H 0.63191 0.29483 0.23386
 H544 H 0.65489 0.39775 0.22312
 H545 H 0.64088 0.43678 0.13331
 H546 H 0.60600 0.46462 0.07647
 H547 H 0.55980 0.35675 0.15887
 H548 H 0.59454 0.32904 0.21535
 C549 C 0.18518 0.76201 0.35840
 C550 C 0.17112 0.77232 0.31012
 C551 C 0.16213 0.82054 0.30023
 C552 C 0.16774 0.85845 0.33918
 C553 C 0.18147 0.84802 0.38755
 C554 C 0.18996 0.79964 0.39805
 C555 C 0.14486 0.82938 0.25283
 C556 C 0.14198 0.87407 0.22872
 C557 C 0.12170 0.88619 0.18925
 C558 C 0.12439 0.92647 0.15228
 C559 C 0.10467 0.94258 0.11905
 C560 C 0.08167 0.91934 0.12303
 C561 C 0.07911 0.87837 0.15923
 C562 C 0.09891 0.86190 0.19195
 H563 H 0.19136 0.72432 0.36608
 H564 H 0.16679 0.74240 0.28109
 H565 H 0.16054 0.89569 0.33401
 H566 H 0.18490 0.87752 0.41777
 H567 H 0.13385 0.79835 0.23852
 H568 H 0.15467 0.90364 0.23907
 H569 H 0.14167 0.94614 0.14991
 H570 H 0.10726 0.97425 0.09160
 H571 H 0.06165 0.85960 0.16320
 H572 H 0.09593 0.83161 0.22109
   
