data_POSCAR
  _audit_creation_date              2014-09-24
  _audit_creation_method            'ToBaCCo'
  _symmetry_space_group_name_H-M    'P1'
  _symmetry_Int_Tables_number       1
  _symmetry_cell_setting            triclinic
  loop_
  _symmetry_equiv_pos_as_xyz
 x,y,z
_cell_length_a 37.9716
_cell_length_b 36.8716
_cell_length_c 31.4009
_cell_angle_alpha 89.914100
_cell_angle_beta 89.921100
_cell_angle_gamma 90.020700
loop_
  _atom_site_label
  _atom_site_type_symbol
  _atom_site_fract_x
  _atom_site_fract_y
  _atom_site_fract_z
C1 C 1.19903 0.25516 0.31643
 H2 H 1.20063 0.22590 0.31468
 C3 C 1.17409 0.27144 0.34292
 H4 H 1.15662 0.25478 0.36198
 C5 C 1.21855 0.31270 0.29197
 H6 H 1.23557 0.32865 0.27172
 C7 C 1.19405 0.33006 0.31808
 H8 H 1.19226 0.35939 0.31783
 N9 N 1.21970 0.27585 0.29055
 C10 C 1.22738 0.20678 0.17935
 H11 H 1.25544 0.20250 0.17616
 C12 C 1.20399 0.18902 0.15205
 H13 H 1.21397 0.17065 0.12801
 C14 C 1.17977 0.23543 0.21484
 H15 H 1.17026 0.25401 0.23873
 C16 C 1.15559 0.21838 0.18824
 H17 H 1.12766 0.22321 0.19250
 Zn18 Zn 1.24661 0.25110 0.24916
 N19 N 1.21488 0.22860 0.21086
 C20 C 1.26951 0.17989 0.27208
 N21 N 1.27436 0.21608 0.27857
 C22 C 1.29713 0.22827 0.30877
 C23 C 1.31660 0.20378 0.33331
 C24 C 1.28845 0.15443 0.29591
 C25 C 1.25700 0.30843 0.19210
 C26 C 1.27554 0.33352 0.16729
 C27 C 1.32991 0.30767 0.19319
 C28 C 1.31034 0.28304 0.21756
 N29 N 1.27450 0.28412 0.21698
 H30 H 1.25051 0.17057 0.24903
 H31 H 1.29989 0.25712 0.31405
 H32 H 1.33473 0.21397 0.35711
 H33 H 1.28433 0.12573 0.29030
 H34 H 1.22851 0.30837 0.19169
 H35 H 1.26133 0.35288 0.14784
 H36 H 1.35841 0.30675 0.19399
 H37 H 1.32381 0.26308 0.23677
 C38 C 1.16775 0.19458 0.15702
 C39 C 1.17106 0.30920 0.34291
 C40 C 1.31235 0.33324 0.16793
 C41 C 1.31222 0.16644 0.32690
 C42 C 0.70207 -0.22652 0.30982
 H43 H 0.69810 -0.25517 0.31558
 C44 C 0.68274 -0.20097 0.33293
 H45 H 0.66349 -0.20996 0.35616
 C46 C 0.73263 -0.17969 0.27346
 H47 H 0.75273 -0.17138 0.25117
 C48 C 0.71387 -0.15325 0.29590
 H49 H 0.71913 -0.12478 0.29012
 N50 N 0.72625 -0.21558 0.28045
 C51 C 0.74382 -0.30945 0.19682
 H52 H 0.77231 -0.30993 0.19748
 C53 C 0.72551 -0.33467 0.17213
 H54 H 0.73988 -0.35465 0.15378
 C55 C 0.69029 -0.28267 0.21972
 H56 H 0.67668 -0.26217 0.23794
 C57 C 0.67094 -0.30741 0.19541
 H58 H 0.64245 -0.30601 0.19523
 Zn59 Zn 0.75378 -0.25184 0.25310
 N60 N 0.72609 -0.28442 0.22043
 C61 C 0.77789 -0.31383 0.29828
 N62 N 0.77843 -0.27700 0.29607
 C63 C 0.79926 -0.25694 0.32231
 C64 C 0.82292 -0.27402 0.34976
 C65 C 0.80103 -0.33198 0.32537
 C66 C 0.77606 -0.20922 0.18332
 C67 C 0.80051 -0.19192 0.15691
 C68 C 0.84738 -0.22120 0.19599
 C69 C 0.82214 -0.23782 0.22166
 N70 N 0.78727 -0.23073 0.21584
 H71 H 0.76066 -0.32924 0.27781
 H72 H 0.79896 -0.22766 0.31995
 H73 H 0.84077 -0.25796 0.36889
 H74 H 0.80167 -0.36136 0.32555
 H75 H 0.74816 -0.20473 0.17874
 H76 H 0.79152 -0.17373 0.13209
 H77 H 0.87510 -0.22613 0.20173
 H78 H 0.83063 -0.25618 0.24637
 C79 C 0.68872 -0.33377 0.17158
 C80 C 0.68874 -0.16398 0.32597
 C81 C 0.83649 -0.19761 0.16383
 C82 C 0.82440 -0.31188 0.35037
 C83 C 0.70230 0.27403 -0.19164
 H84 H 0.69839 0.24536 -0.18599
 C85 C 0.68294 0.29949 -0.16836
 H86 H 0.66375 0.29036 -0.14512
 C87 C 0.73266 0.32104 -0.22789
 H88 H 0.75269 0.32947 -0.25022
 C89 C 0.71387 0.34738 -0.20528
 H90 H 0.71905 0.37587 -0.21097
 N91 N 0.72640 0.28510 -0.22105
 C92 C 0.74344 0.19132 -0.30541
 H93 H 0.77192 0.19075 -0.30507
 C94 C 0.72485 0.16608 -0.32983
 H95 H 0.73904 0.14603 -0.34830
 C96 C 0.69015 0.21823 -0.28193
 H97 H 0.67672 0.23875 -0.26356
 C98 C 0.67055 0.19347 -0.30596
 H99 H 0.64205 0.19492 -0.30577
 Zn100 Zn 0.75391 0.24889 -0.24883
 N101 N 0.72596 0.21641 -0.28161
 C102 C 0.77819 0.18659 -0.20411
 N103 N 0.77867 0.22345 -0.20604
 C104 C 0.79947 0.24337 -0.17962
 C105 C 0.82306 0.22615 -0.15218
 C106 C 0.80128 0.16832 -0.17704
 C107 C 0.77642 0.29214 -0.31825
 C108 C 0.80099 0.30969 -0.34433
 C109 C 0.84771 0.27983 -0.30553
 C110 C 0.82233 0.26299 -0.28021
 N111 N 0.78748 0.27024 -0.28602
 H112 H 0.76102 0.17127 -0.22473
 H113 H 0.79915 0.27266 -0.18175
 H114 H 0.84083 0.24214 -0.13283
 H115 H 0.80191 0.13894 -0.17703
 H116 H 0.74855 0.29677 -0.32285
 H117 H 0.79192 0.32815 -0.36889
 H118 H 0.87538 0.27460 -0.29962
 H119 H 0.83070 0.24434 -0.25575
 C120 C 0.68805 0.16701 -0.32994
 C121 C 0.68880 0.33652 -0.17518
 C122 C 0.83701 0.30388 -0.33740
 C123 C 0.82455 0.18829 -0.15176
 C124 C 1.19890 -0.24431 -0.18508
 H125 H 1.20051 -0.27355 -0.18702
 C126 C 1.17414 -0.22816 -0.15828
 H127 H 1.15677 -0.24490 -0.13917
 C128 C 1.21826 -0.18665 -0.20939
 H129 H 1.23517 -0.17062 -0.22970
 C130 C 1.19394 -0.16941 -0.18296
 H131 H 1.19212 -0.14009 -0.18303
 N132 N 1.21938 -0.22348 -0.21102
 C133 C 1.22660 -0.29249 -0.32205
 H134 H 1.25465 -0.29674 -0.32537
 C135 C 1.20312 -0.31044 -0.34903
 H136 H 1.21302 -0.32895 -0.37298
 C137 C 1.17909 -0.26375 -0.28641
 H138 H 1.16967 -0.24508 -0.26258
 C139 C 1.15483 -0.28098 -0.31271
 H140 H 1.12691 -0.27622 -0.30826
 Zn141 Zn 1.24600 -0.24810 -0.25258
 N142 N 1.21418 -0.27058 -0.29059
 C143 C 1.26863 -0.31921 -0.22943
 N144 N 1.27375 -0.28302 -0.22332
 C145 C 1.29655 -0.27073 -0.19321
 C146 C 1.31571 -0.29518 -0.16830
 C147 C 1.28726 -0.34458 -0.20518
 C148 C 1.25591 -0.19085 -0.30958
 C149 C 1.27425 -0.16576 -0.33456
 C150 C 1.32883 -0.19155 -0.30921
 C151 C 1.30947 -0.21619 -0.28464
 N152 N 1.27364 -0.21513 -0.28488
 H153 H 1.24956 -0.32857 -0.25238
 H154 H 1.29949 -0.24186 -0.18820
 H155 H 1.33384 -0.28512 -0.14447
 H156 H 1.28301 -0.37331 -0.21025
 H157 H 1.22742 -0.19096 -0.30969
 H158 H 1.25989 -0.14641 -0.35386
 H159 H 1.35734 -0.19243 -0.30870
 H160 H 1.32308 -0.23615 -0.26557
 C161 C 1.16691 -0.30494 -0.34378
 C162 C 1.17112 -0.19042 -0.15808
 C163 C 1.31105 -0.16602 -0.33428
 C164 C 1.31094 -0.33245 -0.17425
 C165 C 0.25627 0.19193 0.69558
 H166 H 0.22780 0.19125 0.69651
 C167 C 0.27459 0.16761 0.66962
 H168 H 0.26023 0.14808 0.65063
 C169 C 0.30978 0.21840 0.71895
 H170 H 0.32337 0.23845 0.73783
 C171 C 0.32913 0.19456 0.69338
 H172 H 0.35761 0.19616 0.69293
 N173 N 0.27400 0.21637 0.71999
 C174 C 0.20131 0.24174 0.82337
 H175 H 0.20203 0.27105 0.82199
 C176 C 0.17761 0.22437 0.85061
 H177 H 0.16022 0.24032 0.87055
 C178 C 0.22165 0.18515 0.79713
 H179 H 0.23848 0.17002 0.77587
 C180 C 0.19844 0.16669 0.82395
 H181 H 0.19744 0.13731 0.82311
 Zn182 Zn 0.24633 0.24808 0.75393
 N183 N 0.22166 0.22202 0.79622
 C184 C 0.17794 0.26247 0.72325
 N185 N 0.21276 0.26998 0.71755
 C186 C 0.22383 0.29212 0.68550
 C187 C 0.19928 0.30941 0.65931
 C188 C 0.15260 0.27907 0.69780
 C189 C 0.29790 0.27188 0.81148
 C190 C 0.31707 0.29678 0.83571
 C191 C 0.28622 0.34549 0.80030
 C192 C 0.26760 0.31969 0.77672
 N193 N 0.27389 0.28363 0.78242
 H194 H 0.16956 0.24366 0.74758
 H195 H 0.25170 0.29695 0.68098
 H196 H 0.20815 0.32795 0.63475
 H197 H 0.12492 0.27366 0.70335
 H198 H 0.30180 0.24309 0.81619
 H199 H 0.33616 0.28714 0.85870
 H200 H 0.28103 0.37410 0.79555
 H201 H 0.24766 0.32859 0.75460
 C202 C 0.17555 0.18652 0.85002
 C203 C 0.31137 0.16883 0.66862
 C204 C 0.31111 0.33393 0.83016
 C205 C 0.16334 0.30310 0.66598
 C206 C 0.77194 0.70875 0.67765
 H207 H 0.74384 0.70471 0.67450
 C208 C 0.79521 0.69067 0.65043
 H209 H 0.78509 0.67235 0.62644
 C210 C 0.81975 0.73684 0.71323
 H211 H 0.82939 0.75526 0.73718
 C212 C 0.84382 0.71949 0.68668
 H213 H 0.87179 0.72394 0.69104
 N214 N 0.78459 0.73033 0.70927
 C215 C 0.70240 0.72830 0.80751
 H216 H 0.69939 0.75704 0.81342
 C217 C 0.68302 0.70324 0.83147
 H218 H 0.66473 0.71282 0.85547
 C219 C 0.73051 0.68072 0.76988
 H220 H 0.74970 0.67190 0.74674
 C221 C 0.71168 0.65475 0.79312
 H222 H 0.71601 0.62617 0.78701
 Zn223 Zn 0.75301 0.75235 0.74824
 N224 N 0.72536 0.71678 0.77708
 C225 C 0.68923 0.78514 0.71805
 N226 N 0.72507 0.78595 0.71701
 C227 C 0.74260 0.81062 0.69257
 C228 C 0.72410 0.83637 0.66874
 C229 C 0.66970 0.81044 0.69466
 C230 C 0.80107 0.75566 0.81510
 C231 C 0.82606 0.77178 0.84159
 C232 C 0.80541 0.83058 0.81833
 C233 C 0.78088 0.81338 0.79218
 N234 N 0.78005 0.77656 0.78993
 H235 H 0.67573 0.76493 0.73690
 H236 H 0.77109 0.81037 0.69181
 H237 H 0.73834 0.85600 0.64965
 H238 H 0.64120 0.80972 0.69581
 H239 H 0.79970 0.72643 0.81273
 H240 H 0.84383 0.75501 0.86003
 H241 H 0.80694 0.85992 0.81869
 H242 H 0.76356 0.82949 0.77255
 C243 C 0.68771 0.66607 0.82427
 C244 C 0.83149 0.69572 0.65554
 C245 C 0.82878 0.80957 0.84235
 C246 C 0.68730 0.83640 0.66991
 C247 C 0.77412 0.20925 0.17646
 H248 H 0.74609 0.20497 0.17294
 C249 C 0.79777 0.19153 0.14942
 H250 H 0.78802 0.17321 0.12522
 C251 C 0.82139 0.23765 0.21278
 H252 H 0.83065 0.25607 0.23695
 C253 C 0.84582 0.22066 0.18644
 H254 H 0.87372 0.22534 0.19118
 N255 N 0.78633 0.23079 0.20836
 C256 C 0.70351 0.22801 0.30549
 H257 H 0.70041 0.25673 0.31143
 C258 C 0.68421 0.20288 0.32938
 H259 H 0.66585 0.21228 0.35337
 C260 C 0.73190 0.18055 0.26792
 H261 H 0.75120 0.17181 0.24487
 C262 C 0.71314 0.15451 0.29112
 H263 H 0.71755 0.12594 0.28514
 Zn264 Zn 0.75427 0.25232 0.24699
 N265 N 0.72659 0.21657 0.27516
 C266 C 0.69072 0.28487 0.21623
 N267 N 0.72655 0.28591 0.21574
 C268 C 0.74422 0.31085 0.19185
 C269 C 0.72585 0.33669 0.16806
 C270 C 0.67131 0.31024 0.19285
 C271 C 0.80153 0.25527 0.31445
 C272 C 0.82619 0.27126 0.34145
 C273 C 0.80540 0.33017 0.31870
 C274 C 0.78121 0.31309 0.29202
 N275 N 0.78066 0.27630 0.28927
 H276 H 0.67713 0.26442 0.23464
 H277 H 0.77272 0.31076 0.19154
 H278 H 0.74018 0.35658 0.14942
 H279 H 0.64280 0.30937 0.19357
 H280 H 0.80035 0.22605 0.31165
 H281 H 0.84392 0.25441 0.35986
 H282 H 0.80678 0.35951 0.31944
 H283 H 0.76397 0.32928 0.27238
 C284 C 0.68913 0.16578 0.32220
 C285 C 0.83395 0.19691 0.15504
 C286 C 0.82868 0.30904 0.34270
 C287 C 0.68905 0.33650 0.16871
 C288 C 0.25730 0.69321 0.19648
 H289 H 0.22882 0.69261 0.19710
 C290 C 0.27575 0.66871 0.17086
 H291 H 0.26146 0.64915 0.15182
 C292 C 0.31070 0.71955 0.22033
 H293 H 0.32423 0.73959 0.23930
 C294 C 0.33018 0.69552 0.19511
 H295 H 0.35867 0.69701 0.19501
 N296 N 0.27490 0.71767 0.22100
 C297 C 0.20173 0.74298 0.32418
 H298 H 0.20241 0.77230 0.32290
 C299 C 0.17801 0.72549 0.35131
 H300 H 0.16052 0.74129 0.37127
 C301 C 0.22221 0.68648 0.29786
 H302 H 0.23910 0.67140 0.27662
 C303 C 0.19896 0.66793 0.32458
 H304 H 0.19794 0.63857 0.32374
 Zn305 Zn 0.24708 0.74952 0.25485
 N306 N 0.22221 0.72336 0.29704
 C307 C 0.17871 0.76402 0.22392
 N308 N 0.21355 0.77153 0.21830
 C309 C 0.22463 0.79373 0.18631
 C310 C 0.20008 0.81103 0.16008
 C311 C 0.15339 0.78064 0.19842
 C312 C 0.29866 0.77333 0.31263
 C313 C 0.31806 0.79821 0.33667
 C314 C 0.28747 0.84699 0.30096
 C315 C 0.26866 0.82116 0.27759
 N316 N 0.27471 0.78508 0.28349
 H317 H 0.17030 0.74520 0.24820
 H318 H 0.25249 0.79857 0.18183
 H319 H 0.20899 0.82958 0.13553
 H320 H 0.12571 0.77519 0.20390
 H321 H 0.30240 0.74454 0.31749
 H322 H 0.33711 0.78837 0.35964
 H323 H 0.28236 0.87559 0.29584
 H324 H 0.24878 0.83009 0.25540
 C325 C 0.17603 0.68766 0.35065
 C326 C 0.31255 0.66973 0.17029
 C327 C 0.31241 0.83545 0.33088
 C328 C 0.16413 0.80470 0.16663
 O329 O 0.93789 -0.05245 -0.07518
 O330 O 0.97010 -0.09280 -0.03528
 C331 C 0.94642 -0.08498 -0.06355
 O332 O 1.06728 0.04797 -0.07033
 O333 O 1.03239 0.08902 -0.03498
 C334 C 1.05834 0.08067 -0.06000
 O335 O 1.06271 -0.05274 -0.07469
 O336 O 1.03017 -0.09311 -0.03488
 C337 C 1.05398 -0.08527 -0.06309
 O338 O 0.93352 0.04805 -0.07056
 O339 O 0.96810 0.08905 -0.03486
 C340 C 0.94233 0.08075 -0.06008
 Zr341 Zr 0.95661 -0.00183 -0.05354
 O342 O 0.96194 0.00185 -0.12058
 O343 O 0.90140 -0.00434 -0.06131
 Zr344 Zr 1.04442 -0.00198 -0.05297
 O345 O 1.03810 -0.00062 -0.11978
 O346 O 1.09976 -0.00337 -0.06038
 O347 O 1.00053 -0.03489 -0.06115
 O348 O 1.00059 0.03048 -0.06135
 O349 O 0.93484 0.04926 0.07283
 O350 O 0.96984 0.08958 0.03634
 C351 C 0.94417 0.08177 0.06199
 O352 O 1.06213 -0.05170 0.07831
 O353 O 1.03004 -0.09239 0.03884
 C354 C 1.05347 -0.08433 0.06731
 O355 O 1.06552 0.04899 0.07309
 O356 O 1.03206 0.08942 0.03483
 C357 C 1.05706 0.08150 0.06134
 O358 O 0.93758 -0.05172 0.07761
 O359 O 0.96999 -0.09236 0.03838
 C360 C 0.94633 -0.08433 0.06661
 Zr361 Zr 0.95590 -0.00133 0.05443
 O362 O 0.95819 0.00311 0.12162
 O363 O 0.90028 -0.00481 0.05683
 Zr364 Zr 1.04410 -0.00140 0.05476
 O365 O 1.04135 0.00311 0.12193
 O366 O 1.09970 -0.00482 0.05735
 Zr367 Zr 1.00020 -0.05607 0.00132
 Zr368 Zr 1.00022 0.05294 0.00014
 O369 O 1.00004 0.03069 0.06194
 O370 O 0.99993 -0.03409 0.06329
 O371 O 0.94911 0.03042 0.00019
 O372 O 1.05091 -0.03306 0.00125
 O373 O 0.94953 -0.03284 0.00073
 O374 O 1.05127 0.03032 0.00065
 H375 H 1.00068 0.04753 -0.08579
 H376 H 1.07191 -0.04898 0.00163
 H377 H 1.00014 0.04747 0.08658
 H378 H 0.92838 -0.04857 0.00092
 H379 H 1.10981 -0.00861 -0.03205
 H380 H 1.10916 0.01213 0.03571
 H381 H 1.03020 -0.01925 0.13303
 H382 H 0.96894 -0.01941 0.13280
 H383 H 0.89083 0.01310 0.03632
 H384 H 0.89109 -0.00370 -0.03244
 H385 H 0.97158 -0.02151 -0.13084
 H386 H 1.06220 0.00001 -0.13185
 O387 O 1.06142 0.44741 0.57925
 O388 O 1.02950 0.40679 0.53942
 C389 C 1.05287 0.41481 0.56796
 O390 O 0.93296 0.54803 0.57314
 O391 O 0.96757 0.58864 0.53655
 C392 C 0.94191 0.58062 0.56216
 O393 O 0.93693 0.44749 0.57904
 O394 O 0.96926 0.40683 0.53970
 C395 C 0.94559 0.41486 0.56796
 O396 O 1.06484 0.54818 0.57444
 O397 O 1.03111 0.58867 0.53665
 C398 C 1.05626 0.58071 0.56289
 Zr399 Zr 1.04344 0.49781 0.55594
 O400 O 1.04091 0.50177 0.62316
 O401 O 1.09905 0.49431 0.55839
 Zr402 Zr 0.95554 0.49782 0.55617
 O403 O 0.96234 0.49967 0.62289
 O404 O 0.90023 0.49664 0.56394
 O405 O 0.99943 0.46495 0.56447
 O406 O 0.99943 0.53013 0.56358
 O407 O 1.06656 0.54744 0.43142
 O408 O 1.03164 0.58843 0.46678
 C409 C 1.05761 0.58015 0.44176
 O410 O 0.93709 0.44700 0.42593
 O411 O 0.96924 0.40654 0.46580
 C412 C 0.94562 0.41445 0.43750
 O413 O 0.93371 0.54776 0.42970
 O414 O 0.96765 0.58850 0.46672
 C415 C 0.94227 0.58036 0.44088
 O416 O 1.06226 0.44692 0.42655
 O417 O 1.02941 0.40645 0.46563
 C418 C 1.05344 0.41436 0.43775
 Zr419 Zr 1.04326 0.49751 0.44797
 O420 O 1.03772 0.50164 0.38099
 O421 O 1.09845 0.49523 0.43974
 Zr422 Zr 0.95539 0.49754 0.44827
 O423 O 0.95829 0.50149 0.38105
 O424 O 0.89981 0.49412 0.44537
 Zr425 Zr 0.99938 0.44315 0.50240
 Zr426 Zr 0.99947 0.55224 0.50179
 O427 O 0.99940 0.52982 0.44024
 O428 O 0.99933 0.46456 0.44000
 O429 O 1.05050 0.52958 0.50181
 O430 O 0.94875 0.46635 0.50241
 O431 O 1.05006 0.46638 0.50216
 O432 O 0.94841 0.52963 0.50205
 H433 H 0.99932 0.54712 0.58802
 H434 H 0.92768 0.45051 0.50250
 H435 H 0.99952 0.54687 0.41581
 H436 H 1.07118 0.45062 0.50244
 H437 H 0.89004 0.49147 0.53569
 H438 H 0.89031 0.51059 0.46742
 H439 H 0.96894 0.47879 0.37028
 H440 H 1.03150 0.47733 0.37001
 H441 H 1.10879 0.49408 0.46855
 H442 H 1.10854 0.51165 0.53720
 H443 H 1.02774 0.48041 0.63378
 H444 H 0.93833 0.50069 0.63520
 O445 O 0.54813 0.06614 0.57365
 O446 O 0.58780 0.03371 0.53353
 C447 C 0.57989 0.05745 0.56258
 O448 O 0.45038 -0.06510 0.56883
 O449 O 0.41081 -0.03008 0.53169
 C450 C 0.41866 -0.05585 0.55830
 O451 O 0.54789 -0.06182 0.57372
 O452 O 0.58770 -0.02918 0.53389
 C453 C 0.57969 -0.05306 0.56283
 O454 O 0.45050 0.06940 0.56951
 O455 O 0.41092 0.03531 0.53134
 C456 C 0.41879 0.06061 0.55848
 Zr457 Zr 0.49932 0.04786 0.54977
 O458 O 0.49561 0.04608 0.61705
 O459 O 0.50317 0.10514 0.55089
 Zr460 Zr 0.49922 -0.04279 0.55030
 O461 O 0.49778 -0.03602 0.61709
 O462 O 0.49970 -0.09986 0.55726
 O463 O 0.53117 0.00246 0.55836
 O464 O 0.46800 0.00252 0.55771
 O465 O 0.45101 0.06899 0.42181
 O466 O 0.41125 0.03404 0.45883
 C467 C 0.41923 0.05967 0.43205
 O468 O 0.54849 -0.06181 0.41938
 O469 O 0.58800 -0.02923 0.45945
 C470 C 0.58020 -0.05303 0.43049
 O471 O 0.45072 -0.06468 0.42280
 O472 O 0.41103 -0.03039 0.46070
 C473 C 0.41897 -0.05581 0.43370
 O474 O 0.54873 0.06574 0.41864
 O475 O 0.58812 0.03326 0.45906
 C476 C 0.58040 0.05690 0.42981
 Zr477 Zr 0.49969 0.04758 0.44221
 O478 O 0.49593 0.04550 0.37495
 O479 O 0.50361 0.10484 0.44049
 Zr480 Zr 0.49955 -0.04329 0.44278
 O481 O 0.49590 -0.04187 0.37548
 O482 O 0.50267 -0.10062 0.44227
 Zr483 Zr 0.55261 0.00222 0.49635
 Zr484 Zr 0.44630 0.00244 0.49612
 O485 O 0.46863 0.00214 0.43472
 O486 O 0.53148 0.00207 0.43421
 O487 O 0.46807 0.05509 0.49584
 O488 O 0.53001 -0.04990 0.49664
 O489 O 0.53012 0.05443 0.49604
 O490 O 0.46807 -0.05023 0.49649
 H491 H 0.45173 0.00251 0.58242
 H492 H 0.54555 -0.07147 0.49667
 H493 H 0.45277 0.00196 0.40969
 H494 H 0.54562 0.07605 0.49597
 H495 H 0.50670 -0.11016 0.52951
 H496 H 0.48449 -0.10988 0.46212
 H497 H 0.51701 -0.02921 0.36448
 H498 H 0.51720 0.03308 0.36408
 H499 H 0.48525 0.11465 0.45963
 H500 H 0.48508 0.11481 0.53132
 H501 H 0.51539 0.03112 0.62765
 H502 H 0.49673 -0.06077 0.62934
 O503 O 0.54941 0.56595 0.07463
 O504 O 0.58881 0.53382 0.03378
 C505 C 0.58108 0.55735 0.06311
 O506 O 0.45189 0.43456 0.07049
 O507 O 0.41194 0.46961 0.03401
 C508 C 0.42006 0.44375 0.06041
 O509 O 0.54945 0.43823 0.07415
 O510 O 0.58884 0.47101 0.03386
 C511 C 0.58112 0.44710 0.06286
 O512 O 0.45177 0.56932 0.07160
 O513 O 0.41193 0.53519 0.03387
 C514 C 0.41997 0.56052 0.06091
 Zr515 Zr 0.50042 0.54776 0.05126
 O516 O 0.49722 0.54572 0.11857
 O517 O 0.50424 0.60503 0.05268
 Zr518 Zr 0.50051 0.45710 0.05143
 O519 O 0.49960 0.46367 0.11825
 O520 O 0.50127 0.40002 0.05814
 O521 O 0.53244 0.50240 0.05924
 O522 O 0.46926 0.50234 0.05943
 O523 O 0.45097 0.56895 -0.07610
 O524 O 0.41159 0.53390 -0.03859
 C525 C 0.41931 0.55950 -0.06550
 O526 O 0.54872 0.43848 -0.08017
 O527 O 0.58851 0.47110 -0.04056
 C528 C 0.58051 0.44729 -0.06946
 O529 O 0.45098 0.43560 -0.07557
 O530 O 0.41156 0.46967 -0.03700
 C531 C 0.41932 0.44440 -0.06425
 O532 O 0.54868 0.56629 -0.08038
 O533 O 0.58849 0.53368 -0.04071
 C534 C 0.58047 0.55750 -0.06966
 Zr535 Zr 0.49991 0.54780 -0.05630
 O536 O 0.49566 0.54597 -0.12352
 O537 O 0.50361 0.60509 -0.05770
 Zr538 Zr 0.49996 0.45692 -0.05610
 O539 O 0.49577 0.45853 -0.12334
 O540 O 0.50316 0.39960 -0.05688
 Zr541 Zr 0.55336 0.50240 -0.00305
 Zr542 Zr 0.44706 0.50238 -0.00189
 O543 O 0.46889 0.50230 -0.06357
 O544 O 0.53172 0.50238 -0.06490
 O545 O 0.46871 0.55508 -0.00226
 O546 O 0.53087 0.45022 -0.00264
 O547 O 0.53077 0.55456 -0.00282
 O548 O 0.46893 0.44975 -0.00203
 H549 H 0.45317 0.50224 0.08431
 H550 H 0.54645 0.42869 -0.00288
 H551 H 0.45286 0.50215 -0.08844
 H552 H 0.54622 0.57621 -0.00297
 H553 H 0.50769 0.38983 0.03013
 H554 H 0.48504 0.39025 -0.03700
 H555 H 0.51677 0.47127 -0.13454
 H556 H 0.51684 0.53357 -0.13469
 H557 H 0.48509 0.61477 -0.03870
 H558 H 0.48626 0.61474 0.03298
 H559 H 0.51714 0.53080 0.12887
 H560 H 0.49877 0.43888 0.13042
 C561 C 1.14284 0.17401 0.13261
 C562 C 1.12171 0.15558 0.11402
 C563 C 1.09746 0.13219 0.09418
 C564 C 1.07794 0.11023 0.07857
 C565 C 1.14196 0.67411 0.63239
 C566 C 1.12083 0.65535 0.61434
 C567 C 1.09663 0.63161 0.59513
 C568 C 1.07715 0.60945 0.57992
 C569 C 0.66818 0.14100 0.64551
 C570 C 0.65067 0.11972 0.62535
 C571 C 0.62851 0.09587 0.60235
 C572 C 0.60764 0.07707 0.58353
 C573 C 0.66914 0.64032 0.14666
 C574 C 0.65182 0.61914 0.12619
 C575 C 0.62979 0.59544 0.10292
 C576 C 0.60892 0.57679 0.08399
 C577 C 0.86224 -0.17725 0.14036
 C578 C 0.88363 -0.15879 0.12216
 C579 C 0.90766 -0.13521 0.10215
 C580 C 0.92659 -0.11308 0.08572
 C581 C 0.86053 0.32253 0.64152
 C582 C 0.88211 0.34084 0.62334
 C583 C 0.90644 0.36419 0.60336
 C584 C 0.92563 0.38615 0.58697
 C585 C 0.33064 -0.14030 0.64043
 C586 C 0.34799 -0.11919 0.61979
 C587 C 0.37003 -0.09536 0.59659
 C588 C 0.39089 -0.07629 0.57809
 C589 C 0.33216 0.35896 0.14278
 C590 C 0.34962 0.38009 0.12222
 C591 C 0.37168 0.40398 0.09902
 C592 C 0.39245 0.42314 0.08044
 C593 C 0.85159 0.16974 -0.12834
 C594 C 0.87428 0.15267 -0.11061
 C595 C 0.90006 0.13043 -0.09169
 C596 C 0.92061 0.10911 -0.07674
 C597 C 0.85160 0.66968 0.37353
 C598 C 0.87440 0.65260 0.39097
 C599 C 0.90023 0.63027 0.40953
 C600 C 0.92074 0.60883 0.42427
 C601 C 0.33057 0.14312 0.34929
 C602 C 0.34825 0.12210 0.36968
 C603 C 0.37056 0.09851 0.39286
 C604 C 0.39150 0.07973 0.41160
 C605 C 0.33068 0.64196 -0.14903
 C606 C 0.34818 0.62114 -0.12825
 C607 C 0.37041 0.59781 -0.10472
 C608 C 0.39142 0.57927 -0.08584
 C609 C 1.14332 -0.17306 -0.13479
 C610 C 1.12024 -0.15679 -0.11682
 C611 C 1.09443 -0.13514 -0.09721
 C612 C 1.07434 -0.11391 -0.08129
 C613 C 1.14318 0.32670 0.36602
 C614 C 1.12005 0.34301 0.38392
 C615 C 1.09414 0.36464 0.40353
 C616 C 1.07395 0.38579 0.41949
 C617 C 0.66888 -0.13727 0.34939
 C618 C 0.65130 -0.11562 0.36887
 C619 C 0.62902 -0.09154 0.39130
 C620 C 0.60803 -0.07267 0.40978
 C621 C 0.66889 0.36314 -0.15157
 C622 C 0.65132 0.38473 -0.13192
 C623 C 0.62911 0.40878 -0.10925
 C624 C 0.60822 0.42765 -0.09053
 C625 C 1.14978 0.16899 -0.12805
 C626 C 1.12688 0.15214 -0.11036
 C627 C 1.10085 0.13017 -0.09152
 C628 C 1.08013 0.10898 -0.07662
 C629 C 1.14887 0.66900 0.37385
 C630 C 1.12607 0.65194 0.39147
 C631 C 1.10013 0.62977 0.41031
 C632 C 1.07944 0.60850 0.42520
 C633 C 0.66927 0.13951 0.34641
 C634 C 0.65167 0.11826 0.36654
 C635 C 0.62935 0.09465 0.38968
 C636 C 0.60830 0.07616 0.40867
 C637 C 0.66877 0.64123 -0.15289
 C638 C 0.65121 0.61982 -0.13286
 C639 C 0.62903 0.59591 -0.10984
 C640 C 0.60816 0.57712 -0.09089
 C641 C 0.85671 -0.17297 -0.13465
 C642 C 0.87986 -0.15660 -0.11690
 C643 C 0.90575 -0.13485 -0.09749
 C644 C 0.92592 -0.11360 -0.08168
 C645 C 0.85644 0.32641 0.36597
 C646 C 0.87947 0.34277 0.38386
 C647 C 0.90522 0.36456 0.40336
 C648 C 0.92526 0.38585 0.41923
 C649 C 0.33061 -0.14086 0.35287
 C650 C 0.34816 -0.11949 0.37288
 C651 C 0.37034 -0.09546 0.39559
 C652 C 0.39122 -0.07630 0.41389
 C653 C 0.33085 0.35999 -0.14531
 C654 C 0.34833 0.38123 -0.12512
 C655 C 0.37051 0.40508 -0.10226
 C656 C 0.39147 0.42408 -0.08394
 C657 C 1.13819 -0.17548 0.14282
 C658 C 1.11659 -0.15760 0.12421
 C659 C 1.09228 -0.13469 0.10362
 C660 C 1.07318 -0.11297 0.08675
 C661 C 1.13742 0.32305 0.64239
 C662 C 1.11587 0.34110 0.62401
 C663 C 1.09164 0.36424 0.60375
 C664 C 1.07259 0.38612 0.58714
 C665 C 0.66754 -0.13728 0.64563
 C666 C 0.65013 -0.11581 0.62558
 C667 C 0.62811 -0.09176 0.60262
 C668 C 0.60734 -0.07282 0.58380
 C669 C 0.66941 0.36292 0.14455
 C670 C 0.65201 0.38446 0.12465
 C671 C 0.62990 0.40851 0.10196
 C672 C 0.60898 0.42742 0.08342
 C673 C 0.85903 0.17591 0.13140
 C674 C 0.88018 0.15701 0.11351
 C675 C 0.90429 0.13305 0.09441
 C676 C 0.92360 0.11070 0.07920
 C677 C 0.85623 0.67449 0.63159
 C678 C 0.87722 0.65551 0.61348
 C679 C 0.90134 0.63159 0.59422
 C680 C 0.92084 0.60937 0.57905
 C681 C 0.33095 0.14373 0.64252
 C682 C 0.34826 0.12306 0.62128
 C683 C 0.37024 0.09964 0.59748
 C684 C 0.39104 0.08084 0.57858
 C685 C 0.33227 0.64440 0.14457
 C686 C 0.34964 0.62353 0.12361
 C687 C 0.37161 0.59987 0.10002
 C688 C 0.39234 0.58090 0.08117
   
