data_POSCAR
  _audit_creation_date              2014-09-24
  _audit_creation_method            'ToBaCCo'
  _symmetry_space_group_name_H-M    'P1'
  _symmetry_Int_Tables_number       1
  _symmetry_cell_setting            triclinic
  loop_
  _symmetry_equiv_pos_as_xyz
 x,y,z
_cell_length_a 38.5981
_cell_length_b 38.5684
_cell_length_c 38.6375
_cell_angle_alpha 89.996400
_cell_angle_beta 89.893900
_cell_angle_gamma 90.054200
loop_
  _atom_site_label
  _atom_site_type_symbol
  _atom_site_fract_x
  _atom_site_fract_y
  _atom_site_fract_z
C1 C 0.37455 0.33002 0.33072
 C2 C 0.35973 0.31531 0.36042
 C3 C 0.33009 0.33014 0.37524
 C4 C 0.31534 0.35980 0.36041
 C5 C 0.33013 0.37454 0.33071
 C6 C 0.35977 0.35967 0.31592
 H7 H 0.37074 0.29194 0.37148
 H8 H 0.29199 0.37088 0.37145
 H9 H 0.37081 0.37066 0.29252
 C10 C 0.37519 0.83047 -0.17106
 C11 C 0.36012 0.86000 -0.18593
 C12 C 0.33033 0.87464 -0.17114
 C13 C 0.31570 0.85980 -0.14137
 C14 C 0.33073 0.83031 -0.12650
 C15 C 0.36049 0.81571 -0.14129
 H16 H 0.37109 0.87106 -0.20936
 H17 H 0.29226 0.87063 -0.13024
 H18 H 0.37166 0.79246 -0.13010
 C19 C 0.87385 0.33098 -0.17036
 C20 C 0.85914 0.36070 -0.18510
 C21 C 0.82954 0.37565 -0.17024
 C22 C 0.81476 0.36086 -0.14051
 C23 C 0.82948 0.33114 -0.12576
 C24 C 0.85905 0.31627 -0.14066
 H25 H 0.87026 0.37164 -0.20850
 H26 H 0.79145 0.37192 -0.12932
 H27 H 0.87002 0.29286 -0.12966
 C28 C 0.87451 0.83109 0.32998
 C29 C 0.85985 0.81645 0.35978
 C30 C 0.83014 0.83116 0.37458
 C31 C 0.81516 0.86064 0.35963
 C32 C 0.82979 0.87535 0.32979
 C33 C 0.85953 0.86057 0.31503
 H34 H 0.87103 0.79321 0.37094
 H35 H 0.79176 0.87158 0.37075
 H36 H 0.87055 0.87144 0.29155
 C37 C 0.62552 0.67033 0.33084
 C38 C 0.64026 0.68507 0.36051
 C39 C 0.66978 0.67017 0.37540
 C40 C 0.68448 0.64041 0.36067
 C41 C 0.66976 0.62563 0.33100
 C42 C 0.64025 0.64057 0.31615
 H43 H 0.62930 0.70852 0.37148
 H44 H 0.70775 0.62928 0.37176
 H45 H 0.62927 0.62956 0.29278
 C46 C 0.62535 0.16910 -0.17007
 C47 C 0.64040 0.13963 -0.18501
 C48 C 0.67019 0.12498 -0.17034
 C49 C 0.68480 0.13979 -0.14061
 C50 C 0.66975 0.16926 -0.12567
 C51 C 0.63999 0.18386 -0.14037
 H52 H 0.62941 0.12867 -0.20842
 H53 H 0.70824 0.12895 -0.12956
 H54 H 0.62876 0.20709 -0.12922
 C55 C 0.12575 0.66932 -0.17025
 C56 C 0.14042 0.63955 -0.18500
 C57 C 0.17000 0.62459 -0.17021
 C58 C 0.18478 0.63939 -0.14055
 C59 C 0.17011 0.66916 -0.12581
 C60 C 0.14056 0.68406 -0.14063
 H61 H 0.12930 0.62860 -0.20835
 H62 H 0.20807 0.62832 -0.12942
 H63 H 0.12962 0.70750 -0.12963
 C64 C 0.12529 0.16979 0.33018
 C65 C 0.13989 0.18440 0.35999
 C66 C 0.16946 0.16955 0.37482
 C67 C 0.18436 0.13999 0.35990
 C68 C 0.16979 0.12536 0.33010
 C69 C 0.14022 0.14023 0.31529
 H70 H 0.12877 0.20770 0.37111
 H71 H 0.20766 0.12891 0.37096
 H72 H 0.12935 0.12932 0.29182
 C73 C 0.62527 0.33019 0.66984
 C74 C 0.64010 0.35984 0.68465
 C75 C 0.66985 0.37463 0.66995
 C76 C 0.68470 0.35981 0.64033
 C77 C 0.66990 0.33016 0.62548
 C78 C 0.64015 0.31540 0.64022
 H79 H 0.62901 0.37087 0.70799
 H80 H 0.70813 0.37083 0.62935
 H81 H 0.62910 0.29204 0.62916
 C82 C 0.62526 0.83053 1.17061
 C83 C 0.63996 0.81593 1.14078
 C84 C 0.66964 0.83076 1.12597
 C85 C 0.68458 0.86028 1.14091
 C86 C 0.66995 0.87495 1.17075
 C87 C 0.64023 0.86009 1.18554
 H88 H 0.62886 0.79266 1.12954
 H89 H 0.70796 0.87129 1.12978
 H90 H 0.62927 0.87102 1.20902
 C91 C 0.12442 0.32986 1.17014
 C92 C 0.13920 0.31510 1.14042
 C93 C 0.16890 0.32987 1.12559
 C94 C 0.18376 0.35951 1.14039
 C95 C 0.16904 0.37431 1.17008
 C96 C 0.13934 0.35953 1.18490
 H97 H 0.12816 0.29174 1.12931
 H98 H 0.20714 0.37054 1.12932
 H99 H 0.12840 0.37065 1.20829
 C100 C 0.12530 0.83000 0.67028
 C101 C 0.14004 0.81533 0.64050
 C102 C 0.16976 0.83012 0.62572
 C103 C 0.18468 0.85966 0.64063
 C104 C 0.17001 0.87439 0.67041
 C105 C 0.14026 0.85958 0.68518
 H106 H 0.12895 0.79205 0.62929
 H107 H 0.20809 0.87064 0.62952
 H108 H 0.12926 0.87056 0.70862
 C109 C 0.37473 0.66993 0.66982
 C110 C 0.36005 0.68460 0.64010
 C111 C 0.33043 0.66975 0.62531
 C112 C 0.31557 0.64012 0.64019
 C113 C 0.33022 0.62542 0.66991
 C114 C 0.35985 0.64030 0.68467
 H115 H 0.37114 0.70795 0.62901
 H116 H 0.29223 0.62904 0.62917
 H117 H 0.37078 0.62935 0.70808
 C118 C 0.37436 0.16922 1.16955
 C119 C 0.35954 0.18401 1.13995
 C120 C 0.32989 0.16918 1.12521
 C121 C 0.31511 0.13947 1.14001
 C122 C 0.32989 0.12464 1.16964
 C123 C 0.35957 0.13951 1.18434
 H124 H 0.37057 0.20741 1.12891
 H125 H 0.29174 0.12845 1.12894
 H126 H 0.37070 0.12853 1.20767
 C127 C 0.87467 0.67013 1.16936
 C128 C 0.85987 0.68491 1.13975
 C129 C 0.83018 0.67012 1.12504
 C130 C 0.81536 0.64045 1.13988
 C131 C 0.83014 0.62564 1.16949
 C132 C 0.85983 0.64045 1.18417
 H133 H 0.87093 0.70829 1.12869
 H134 H 0.79197 0.62941 1.12892
 H135 H 0.87087 0.62942 1.20750
 C136 C 0.87505 0.16985 0.67036
 C137 C 0.86011 0.14023 0.68527
 C138 C 0.83046 0.12534 0.67051
 C139 C 0.81585 0.14002 0.64073
 C140 C 0.83076 0.16960 0.62581
 C141 C 0.86038 0.18447 0.64058
 H142 H 0.87105 0.12928 0.70872
 H143 H 0.79251 0.12899 0.62962
 H144 H 0.87144 0.20779 0.62937
 C145 C 0.32975 0.37457 0.67032
 C146 C 0.35942 0.35980 0.68504
 C147 C 0.37424 0.33012 0.67026
 C148 C 0.35945 0.31531 0.64066
 C149 C 0.32978 0.33005 0.62591
 C150 C 0.31499 0.35972 0.64072
 H151 H 0.37045 0.37086 0.70836
 H152 H 0.37050 0.29194 0.62962
 H153 H 0.29162 0.37073 0.62972
 C154 C 0.33121 0.87515 0.16857
 C155 C 0.36089 0.86042 0.18329
 C156 C 0.37573 0.83074 0.16854
 C157 C 0.36094 0.81588 0.13896
 C158 C 0.33126 0.83059 0.12420
 C159 C 0.31645 0.86026 0.13898
 H160 H 0.37190 0.87151 0.20661
 H161 H 0.37200 0.79249 0.12795
 H162 H 0.29306 0.87124 0.12800
 C163 C 0.83025 0.37485 0.16940
 C164 C 0.81545 0.36005 0.13979
 C165 C 0.83025 0.33043 0.12490
 C166 C 0.85995 0.31568 0.13957
 C167 C 0.87479 0.33045 0.16917
 C168 C 0.85996 0.36008 0.18403
 H169 H 0.79205 0.37107 0.12886
 H170 H 0.87100 0.29233 0.12847
 H171 H 0.87101 0.37111 0.20736
 C172 C 0.83116 0.87600 0.66979
 C173 C 0.81633 0.86114 0.64022
 C174 C 0.83108 0.83146 0.62540
 C175 C 0.86077 0.81670 0.64010
 C176 C 0.87563 0.83153 0.66967
 C177 C 0.86085 0.86122 0.68446
 H178 H 0.79294 0.87216 0.62927
 H179 H 0.87177 0.79331 0.62906
 H180 H 0.87192 0.87228 0.70776
 C181 C 0.66999 0.62562 0.67054
 C182 C 0.64031 0.64043 0.68533
 C183 C 0.62553 0.67011 0.67057
 C184 C 0.64038 0.68490 0.64092
 C185 C 0.67005 0.67012 0.62611
 C186 C 0.68480 0.64045 0.64090
 H187 H 0.62923 0.62937 0.70868
 H188 H 0.62936 0.70827 0.62989
 H189 H 0.70817 0.62941 0.62985
 C190 C 0.66964 0.12427 0.16957
 C191 C 0.68445 0.13909 0.13992
 C192 C 0.66970 0.16877 0.12514
 C193 C 0.64004 0.18356 0.13996
 C194 C 0.62520 0.16877 0.16962
 C195 C 0.63998 0.13909 0.18437
 H196 H 0.70782 0.12805 0.12886
 H197 H 0.62902 0.20694 0.12895
 H198 H 0.62892 0.12805 0.20773
 C199 C 0.16982 0.62525 0.16938
 C200 C 0.18466 0.63999 0.13970
 C201 C 0.16996 0.66967 0.12487
 C202 C 0.14032 0.68453 0.13966
 C203 C 0.12546 0.66982 0.16934
 C204 C 0.14018 0.64014 0.18415
 H205 H 0.20800 0.62888 0.12867
 H206 H 0.12935 0.70791 0.12860
 H207 H 0.12910 0.62916 0.20752
 C208 C 0.16898 0.12376 0.67008
 C209 C 0.13927 0.13852 0.68484
 C210 C 0.12449 0.16820 0.67009
 C211 C 0.13937 0.18305 0.64049
 C212 C 0.16908 0.16833 0.62570
 C213 C 0.18383 0.13864 0.64047
 H214 H 0.12817 0.12743 0.70816
 H215 H 0.12835 0.20643 0.62948
 H216 H 0.20723 0.12765 0.62945
 C217 C 0.33065 0.62554 0.32987
 C218 C 0.36029 0.64041 0.31502
 C219 C 0.37511 0.67011 0.32976
 C220 C 0.36034 0.68484 0.35947
 C221 C 0.33071 0.66999 0.37434
 C222 C 0.31592 0.64030 0.35957
 H223 H 0.37130 0.62940 0.29163
 H224 H 0.37139 0.70822 0.37049
 H225 H 0.29258 0.62921 0.37067
 C226 C 0.32979 0.12401 0.83039
 C227 C 0.35950 0.13888 0.81566
 C228 C 0.37421 0.16861 0.83041
 C229 C 0.35928 0.18341 0.85999
 C230 C 0.32958 0.16859 0.87475
 C231 C 0.31489 0.13885 0.85998
 H232 H 0.37063 0.12782 0.79235
 H233 H 0.37026 0.20683 0.87101
 H234 H 0.29149 0.12777 0.87098
 C235 C 0.83078 0.62573 0.83052
 C236 C 0.86043 0.64055 0.81566
 C237 C 0.87516 0.67037 0.83025
 C238 C 0.86027 0.68528 0.85980
 C239 C 0.83061 0.67048 0.87469
 C240 C 0.81592 0.64067 0.86007
 H241 H 0.87152 0.62941 0.79238
 H242 H 0.87125 0.70876 0.87070
 H243 H 0.79257 0.62961 0.87117
 C244 C 0.83045 0.12457 0.33005
 C245 C 0.81575 0.13929 0.35980
 C246 C 0.83053 0.16898 0.37458
 C247 C 0.86011 0.18389 0.35965
 C248 C 0.87484 0.16921 0.32991
 C249 C 0.86004 0.13951 0.31516
 H250 H 0.79245 0.12815 0.37092
 H251 H 0.87114 0.20728 0.37068
 H252 H 0.87102 0.12855 0.29174
 C253 C 0.66963 0.37429 0.33074
 C254 C 0.68442 0.35944 0.36032
 C255 C 0.66969 0.32968 0.37506
 C256 C 0.64006 0.31484 0.36027
 C257 C 0.62524 0.32966 0.33069
 C258 C 0.64000 0.35942 0.31598
 H259 H 0.70776 0.37053 0.37134
 H260 H 0.62906 0.29140 0.37126
 H261 H 0.62896 0.37049 0.29268
 C262 C 0.66960 0.87603 0.83048
 C263 C 0.63989 0.86126 0.81579
 C264 C 0.62499 0.83162 0.83061
 C265 C 0.63976 0.81682 0.86023
 C266 C 0.66947 0.83156 0.87495
 C267 C 0.68433 0.86121 0.86011
 H268 H 0.62889 0.87231 0.79245
 H269 H 0.62866 0.79346 0.87129
 H270 H 0.70773 0.87221 0.87108
 C271 C 0.16860 0.37450 0.83070
 C272 C 0.13902 0.35964 0.81584
 C273 C 0.12425 0.32983 0.83045
 C274 C 0.13900 0.31496 0.86004
 C275 C 0.16858 0.32979 0.87493
 C276 C 0.18332 0.35960 0.86029
 H277 H 0.12803 0.37075 0.79253
 H278 H 0.12799 0.29149 0.87095
 H279 H 0.20663 0.37068 0.87139
 C280 C 0.17020 0.87498 0.33014
 C281 C 0.18488 0.86020 0.35981
 C282 C 0.16995 0.83061 0.37470
 C283 C 0.14024 0.81587 0.35997
 C284 C 0.12554 0.83063 0.33030
 C285 C 0.14049 0.86022 0.31545
 H286 H 0.20828 0.87120 0.37079
 H287 H 0.12910 0.79255 0.37106
 H288 H 0.12953 0.87124 0.29208
 O289 O 0.25403 1.03426 0.20528
 O290 O 0.20667 0.96641 0.25299
 O291 O 0.20649 1.03407 0.25296
 O292 O 0.25414 0.96657 0.20521
 O293 O 0.29473 0.96667 0.24554
 O294 O 0.24708 1.03418 0.29329
 O295 O 0.24726 0.96653 0.29332
 O296 O 0.29462 1.03436 0.24561
 Cu297 Cu 0.22624 1.00031 0.22504
 Cu298 Cu 0.27502 1.00044 0.27350
 C299 C 0.28219 1.04593 0.21752
 C300 C 0.21908 0.95488 0.28110
 C301 C 0.21885 1.04567 0.28107
 C302 C 0.28235 0.95506 0.21744
 O303 O 0.25299 0.53398 0.70650
 O304 O 0.20514 0.46641 0.75410
 O305 O 0.20529 0.53413 0.75403
 O306 O 0.25286 0.46630 0.70660
 O307 O 0.29328 0.46631 0.74710
 O308 O 0.24571 0.53412 0.79453
 O309 O 0.24555 0.46640 0.79460
 O310 O 0.29341 0.53399 0.74699
 Cu311 Cu 0.22499 0.50021 0.72623
 Cu312 Cu 0.27356 0.50021 0.77490
 C313 C 0.28116 0.54555 0.71882
 C314 C 0.21740 0.45481 0.78225
 C315 C 0.21761 0.54575 0.78216
 C316 C 0.28098 0.45470 0.71896
 O317 O 0.75350 -0.03490 0.29410
 O318 O 0.70593 0.03269 0.24650
 O319 O 0.70581 -0.03501 0.24670
 O320 O 0.75351 0.03280 0.29397
 O321 O 0.79400 0.03271 0.25340
 O322 O 0.74630 -0.03511 0.20613
 O323 O 0.74643 0.03259 0.20592
 O324 O 0.79399 -0.03498 0.25353
 Cu325 Cu 0.72560 -0.00110 0.27441
 Cu326 Cu 0.77426 -0.00121 0.22565
 C327 C 0.78166 -0.04650 0.28173
 C328 C 0.71828 0.04422 0.21830
 C329 C 0.71811 -0.04666 0.21855
 C330 C 0.78168 0.04437 0.28154
 O331 O 0.75381 0.46602 0.79455
 O332 O 0.70630 0.53380 0.74719
 O333 O 0.70630 0.46612 0.74700
 O334 O 0.75397 0.53375 0.79456
 O335 O 0.79449 0.53378 0.75402
 O336 O 0.74683 0.46619 0.70646
 O337 O 0.74682 0.53387 0.70665
 O338 O 0.79433 0.46606 0.75401
 Cu339 Cu 0.72601 0.49991 0.77492
 Cu340 Cu 0.77471 0.49998 0.72620
 C341 C 0.78195 0.45442 0.78215
 C342 C 0.71866 0.54544 0.71905
 C343 C 0.71864 0.45458 0.71881
 C344 C 0.78214 0.54536 0.78218
 O345 O 0.20596 0.53376 0.24645
 O346 O 0.25337 0.46617 0.29416
 O347 O 0.25357 0.53386 0.29388
 O348 O 0.20576 0.46608 0.24670
 O349 O 0.24627 0.46585 0.20614
 O350 O 0.29408 0.53363 0.25333
 O351 O 0.29388 0.46594 0.25360
 O352 O 0.24647 0.53354 0.20589
 Cu353 Cu 0.22558 0.49999 0.27439
 Cu354 Cu 0.27427 0.49971 0.22565
 C355 C 0.21834 0.54522 0.21824
 C356 C 0.28151 0.45449 0.28182
 C357 C 0.28177 0.54535 0.28145
 C358 C 0.21807 0.45436 0.21857
 O359 O 0.74672 1.03530 0.79406
 O360 O 0.79454 0.96766 0.74664
 O361 O 0.79453 1.03536 0.74662
 O362 O 0.74675 0.96763 0.79408
 O363 O 0.70640 0.96757 0.75352
 O364 O 0.75418 1.03530 0.70605
 O365 O 0.75419 0.96760 0.70608
 O366 O 0.70637 1.03524 0.75349
 Cu367 Cu 0.77471 1.00150 0.77444
 Cu368 Cu 0.72622 1.00142 0.72569
 C369 C 0.71858 1.04684 0.78167
 C370 C 0.78231 0.95605 0.71848
 C371 C 0.78230 1.04692 0.71844
 C372 C 0.71863 0.95601 0.78170
 O373 O 0.74649 0.53390 0.29437
 O374 O 0.79393 0.46631 0.24652
 O375 O 0.79387 0.53398 0.24652
 O376 O 0.74644 0.46619 0.29426
 O377 O 0.70579 0.46620 0.25399
 O378 O 0.75322 0.53397 0.20625
 O379 O 0.75329 0.46630 0.20625
 O380 O 0.70585 0.53390 0.25410
 Cu381 Cu 0.77428 0.50009 0.27449
 Cu382 Cu 0.72543 0.50009 0.22609
 C383 C 0.71829 0.54548 0.28219
 C384 C 0.78150 0.45474 0.21843
 C385 C 0.78144 0.54557 0.21844
 C386 C 0.71823 0.45458 0.28205
 O387 O 0.20563 0.03193 0.74668
 O388 O 0.25365 -0.03572 0.79377
 O389 O 0.25326 0.03197 0.79410
 O390 O 0.20578 -0.03577 0.74656
 O391 O 0.24617 -0.03547 0.70589
 O392 O 0.29365 0.03231 0.75343
 O393 O 0.29404 -0.03538 0.75310
 O394 O 0.24603 0.03222 0.70601
 Cu395 Cu 0.22550 -0.00194 0.77438
 Cu396 Cu 0.27405 -0.00155 0.72551
 C397 C 0.21786 0.04366 0.71851
 C398 C 0.28184 -0.04712 0.78127
 C399 C 0.28134 0.04376 0.78167
 C400 C 0.21806 -0.04722 0.71832
 O401 O 0.29331 0.24597 1.03366
 O402 O 0.24555 0.29339 0.96618
 O403 O 0.24565 0.29348 1.03376
 O404 O 0.29310 0.24575 0.96609
 O405 O 0.25260 0.20515 0.96635
 O406 O 0.20514 0.25288 1.03400
 O407 O 0.20504 0.25280 0.96642
 O408 O 0.25281 0.20538 1.03392
 Cu409 Cu 0.27349 0.27375 0.99989
 Cu410 Cu 0.22481 0.22496 1.00019
 C411 C 0.28101 0.21779 1.04534
 C412 C 0.21736 0.28099 0.95475
 C413 C 0.21750 0.28111 1.04547
 C414 C 0.28075 0.21751 0.95464
 O415 O 0.24664 0.79426 0.46627
 O416 O 0.29421 0.74661 0.53372
 O417 O 0.29428 0.74672 0.46614
 O418 O 0.24656 0.79412 0.53385
 O419 O 0.20609 0.75349 0.53381
 O420 O 0.25381 0.70610 0.46610
 O421 O 0.25374 0.70598 0.53368
 O422 O 0.20617 0.75363 0.46622
 Cu423 Cu 0.27451 0.77453 0.50000
 Cu424 Cu 0.22587 0.72570 0.49995
 C425 C 0.21850 0.78187 0.45469
 C426 C 0.28188 0.71838 0.54526
 C427 C 0.28197 0.71853 0.45452
 C428 C 0.21840 0.78168 0.54543
 O429 O 0.29460 0.75338 -0.03466
 O430 O 0.24701 0.70586 0.03314
 O431 O 0.24704 0.70567 -0.03444
 O432 O 0.29472 0.75343 0.03291
 O433 O 0.25424 0.79397 0.03296
 O434 O 0.20656 0.74621 -0.03442
 O435 O 0.20653 0.74641 0.03315
 O436 O 0.25411 0.79392 -0.03461
 Cu437 Cu 0.27493 0.72549 -0.00076
 Cu438 Cu 0.22627 0.77422 -0.00072
 C439 C 0.28225 0.78155 -0.04625
 C440 C 0.21885 0.71824 0.04474
 C441 C 0.21888 0.71800 -0.04597
 C442 C 0.28242 0.78164 0.04447
 O443 O 0.29367 0.25317 0.46678
 O444 O 0.24608 0.20522 0.53424
 O445 O 0.24604 0.20556 0.46667
 O446 O 0.29353 0.25307 0.53435
 O447 O 0.25297 0.29353 0.53450
 O448 O 0.20548 0.24603 0.46685
 O449 O 0.20552 0.24569 0.53443
 O450 O 0.25311 0.29364 0.46693
 Cu451 Cu 0.27392 0.22517 0.50050
 Cu452 Cu 0.22517 0.27380 0.50070
 C453 C 0.28130 0.28136 0.45529
 C454 C 0.21789 0.21747 0.54589
 C455 C 0.21787 0.21791 0.45516
 C456 C 0.28114 0.28121 0.54600
 O457 O 0.70579 0.75427 1.03387
 O458 O 0.75345 0.70690 0.96610
 O459 O 0.75333 0.70666 1.03366
 O460 O 0.70579 0.75445 0.96628
 O461 O 0.74630 0.79504 0.96635
 O462 O 0.79385 0.74725 1.03374
 O463 O 0.79396 0.74749 0.96618
 O464 O 0.74630 0.79486 1.03394
 Cu465 Cu 0.72550 0.72648 0.99996
 Cu466 Cu 0.77418 0.77526 1.00005
 C467 C 0.71814 0.78243 1.04553
 C468 C 0.78164 0.71930 0.95456
 C469 C 0.78149 0.71901 1.04524
 C470 C 0.71814 0.78268 0.95477
 O471 O 0.74675 0.29344 0.46632
 O472 O 0.79450 0.24610 0.53387
 O473 O 0.79437 0.24587 0.46627
 O474 O 0.74686 0.29363 0.53388
 O475 O 0.70637 0.25302 0.53413
 O476 O 0.75388 0.20526 0.46653
 O477 O 0.75401 0.20548 0.53413
 O478 O 0.70626 0.25283 0.46658
 Cu479 Cu 0.77471 0.27385 0.50006
 Cu480 Cu 0.72605 0.22504 0.50037
 C481 C 0.71857 0.28101 0.45489
 C482 C 0.78218 0.21793 0.54558
 C483 C 0.78201 0.21764 0.45481
 C484 C 0.71871 0.28127 0.54557
 O485 O 0.79361 0.25391 -0.03424
 O486 O 0.74648 0.20572 0.03340
 O487 O 0.74638 0.20589 -0.03417
 O488 O 0.79389 0.25358 0.03333
 O489 O 0.75316 0.29388 0.03366
 O490 O 0.70564 0.24617 -0.03388
 O491 O 0.70574 0.24601 0.03370
 O492 O 0.75287 0.29420 -0.03391
 Cu493 Cu 0.77420 0.22571 -0.00045
 Cu494 Cu 0.72524 0.27413 -0.00007
 C495 C 0.78107 0.28206 -0.04566
 C496 C 0.71826 0.21786 0.04513
 C497 C 0.71813 0.21810 -0.04560
 C498 C 0.78143 0.28166 0.04505
 O499 O 0.70616 0.74710 0.46693
 O500 O 0.75390 0.79484 0.53428
 O501 O 0.75368 0.79484 0.46670
 O502 O 0.70633 0.74713 0.53450
 O503 O 0.74688 0.70665 0.53433
 O504 O 0.79423 0.75437 0.46652
 O505 O 0.79446 0.75437 0.53410
 O506 O 0.74672 0.70663 0.46676
 Cu507 Cu 0.72593 0.77506 0.50063
 Cu508 Cu 0.77467 0.72642 0.50042
 C509 C 0.71851 0.71894 0.45531
 C510 C 0.78212 0.78254 0.54571
 C511 C 0.78182 0.78252 0.45499
 C512 C 0.71872 0.71896 0.54602
 O513 O 0.96653 0.25366 0.20543
 O514 O 1.03406 0.20620 0.25312
 O515 O 0.96644 0.20600 0.25296
 O516 O 1.03419 0.25379 0.20553
 O517 O 1.03400 0.29434 0.24600
 O518 O 0.96624 0.24656 0.29343
 O519 O 1.03386 0.24676 0.29359
 O520 O 0.96634 0.29422 0.24590
 Cu521 Cu 1.00033 0.22583 0.22517
 Cu522 Cu 1.00009 0.27457 0.27380
 C523 C 0.95486 0.28183 0.21775
 C524 C 1.04552 0.21858 0.28129
 C525 C 0.95476 0.21832 0.28109
 C526 C 1.04571 0.28200 0.21788
 O527 O 0.53353 0.29359 0.74666
 O528 O 0.46589 0.24574 0.79418
 O529 O 0.53354 0.24582 0.79405
 O530 O 0.46589 0.29358 0.74684
 O531 O 0.46586 0.25318 0.70622
 O532 O 0.53352 0.20542 0.75343
 O533 O 0.46587 0.20534 0.75357
 O534 O 0.53350 0.25319 0.70604
 Cu535 Cu 0.49971 0.27376 0.77453
 Cu536 Cu 0.49968 0.22520 0.72572
 C537 C 0.54510 0.28134 0.71845
 C538 C 0.45430 0.21759 0.78178
 C539 C 0.54512 0.21769 0.78159
 C540 C 0.45429 0.28132 0.71868
 O541 O -0.03455 0.29373 0.75293
 O542 O 0.03304 0.24545 0.70593
 O543 O -0.03461 0.24581 0.70567
 O544 O 0.03307 0.29332 0.75324
 O545 O 0.03258 0.25298 0.79393
 O546 O -0.03509 0.20547 0.74635
 O547 O 0.03256 0.20511 0.74661
 O548 O -0.03504 0.25339 0.79362
 Cu549 Cu -0.00071 0.27364 0.72533
 Cu550 Cu -0.00130 0.22516 0.77423
 C551 C -0.04636 0.28159 0.78110
 C552 C 0.04438 0.21727 0.71846
 C553 C -0.04644 0.21774 0.71811
 C554 C 0.04440 0.28105 0.78150
 O555 O 0.53357 0.25275 0.29414
 O556 O 0.46588 0.20541 0.24642
 O557 O 0.53352 0.20521 0.24651
 O558 O 0.46593 0.25287 0.29414
 O559 O 0.46615 0.29353 0.25377
 O560 O 0.53375 0.24586 0.20613
 O561 O 0.46611 0.24607 0.20605
 O562 O 0.53379 0.29340 0.25377
 Cu563 Cu 0.49970 0.22496 0.27437
 Cu564 Cu 0.49997 0.27382 0.22586
 C565 C 0.54526 0.28095 0.28189
 C566 C 0.45441 0.21787 0.21830
 C567 C 0.54521 0.21761 0.21840
 C568 C 0.45447 0.28113 0.28188
 O569 O 1.03445 0.70636 0.75298
 O570 O 0.96707 0.75440 0.70567
 O571 O 1.03473 0.75415 0.70559
 O572 O 0.96682 0.70670 0.75315
 O573 O 0.96703 0.74715 0.79372
 O574 O 1.03493 0.79460 0.74616
 O575 O 0.96726 0.79485 0.74624
 O576 O 1.03466 0.74681 0.79355
 Cu577 Cu 1.00075 0.72633 0.72525
 Cu578 Cu 1.00099 0.77494 0.77400
 C579 C 1.04608 0.71859 0.78114
 C580 C 0.95561 0.78260 0.71809
 C581 C 1.04647 0.78226 0.71798
 C582 C 0.95530 0.71903 0.78135
 O583 O 0.53467 0.70676 0.25344
 O584 O 0.46737 0.75410 0.20534
 O585 O 0.53502 0.75432 0.20580
 O586 O 0.46705 0.70662 0.25305
 O587 O 0.46669 0.74727 0.29342
 O588 O 0.53464 0.79496 0.24618
 O589 O 0.46699 0.79474 0.24571
 O590 O 0.53431 0.74740 0.29381
 Cu591 Cu 0.50107 0.72635 0.22533
 Cu592 Cu 0.50062 0.77520 0.27385
 C593 C 0.54600 0.71919 0.28163
 C594 C 0.45564 0.78228 0.21754
 C595 C 0.54647 0.78256 0.21815
 C596 C 0.45525 0.71901 0.28110
 O597 O -0.03364 0.79467 0.25327
 O598 O 0.03401 0.74697 0.20576
 O599 O -0.03362 0.74704 0.20573
 O600 O 0.03400 0.79448 0.25343
 O601 O 0.03376 0.75388 0.29385
 O602 O -0.03384 0.70644 0.24616
 O603 O 0.03379 0.70638 0.24619
 O604 O -0.03388 0.75407 0.29370
 Cu605 Cu 0.00021 0.77489 0.22547
 Cu606 Cu -0.00007 0.72610 0.27406
 C607 C -0.04535 0.78230 0.28138
 C608 C 0.04548 0.71874 0.21807
 C609 C -0.04531 0.71885 0.21802
 C610 C 0.04546 0.78206 0.28157
 O611 O 0.53383 0.74714 0.70644
 O612 O 0.46590 0.79500 0.75343
 O613 O 0.53357 0.79501 0.75374
 O614 O 0.46620 0.74712 0.70614
 O615 O 0.46593 0.70677 0.74682
 O616 O 0.53330 0.75466 0.79441
 O617 O 0.46564 0.75465 0.79410
 O618 O 0.53356 0.70679 0.74711
 Cu619 Cu 0.49991 0.77514 0.72584
 Cu620 Cu 0.49958 0.72666 0.77472
 C621 C 0.54532 0.71901 0.71895
 C622 C 0.45413 0.78277 0.78157
 C623 C 0.54499 0.78279 0.78198
 C624 C 0.45453 0.71898 0.71856
 C625 C 0.40351 0.31339 0.31413
 C626 C 0.42714 0.29893 0.29969
 C627 C 0.40277 0.81491 0.81332
 C628 C 0.42659 0.80056 0.79908
 C629 C -0.09724 0.31426 0.81305
 C630 C -0.07365 0.29965 0.79870
 C631 C -0.09644 0.81453 0.31345
 C632 C -0.07275 0.80010 0.29909
 C633 C 0.59670 0.68701 0.31416
 C634 C 0.57320 0.70146 0.29961
 C635 C 0.59626 0.18555 0.81348
 C636 C 0.57253 0.19992 0.79919
 C637 C 1.09687 0.68604 0.81319
 C638 C 1.07332 0.70062 0.79882
 C639 C 1.09638 0.18641 0.31359
 C640 C 1.07280 0.20083 0.29913
 C641 C 0.59620 0.31361 0.68635
 C642 C 0.57250 0.29917 0.70072
 C643 C 0.59775 0.81479 0.18624
 C644 C 0.57397 0.80036 0.20053
 C645 C 1.09692 0.31419 0.18584
 C646 C 1.07317 0.29979 0.20020
 C647 C 1.09776 0.81431 0.68592
 C648 C 1.07397 0.79996 0.70026
 C649 C 0.40367 0.68660 0.68638
 C650 C 0.42726 0.70110 0.70079
 C651 C 0.40337 0.18582 0.18607
 C652 C 0.42703 0.20019 0.20048
 C653 C -0.09632 0.68671 0.18585
 C654 C -0.07266 0.70112 0.20024
 C655 C -0.09752 0.18560 0.68601
 C656 C -0.07383 0.20001 0.70037
 C657 C 0.31359 0.40352 0.31410
 C658 C 0.29922 0.42715 0.29964
 C659 C 0.31441 -0.09805 0.81318
 C660 C 0.29982 -0.07444 0.79887
 C661 C 0.81394 0.40317 0.81413
 C662 C 0.79963 0.42694 0.79981
 C663 C 0.81396 -0.09737 0.31400
 C664 C 0.79947 -0.07379 0.29954
 C665 C 0.31356 0.59647 0.68655
 C666 C 0.29905 0.57286 0.70102
 C667 C 0.31422 1.09714 0.18533
 C668 C 0.29987 1.07339 0.19973
 C669 C 0.81356 0.59663 0.18611
 C670 C 0.79916 0.57296 0.20059
 C671 C 0.81465 1.09795 0.68627
 C672 C 0.80016 1.07429 0.70069
 C673 C 0.68627 0.59657 0.31447
 C674 C 0.70061 0.57287 0.30003
 C675 C 0.68610 1.09770 0.81386
 C676 C 0.70066 1.07412 0.79943
 C677 C 0.18559 0.59704 0.81415
 C678 C 0.19991 0.57324 0.79982
 C679 C 0.18649 1.09649 0.31343
 C680 C 0.20100 1.07293 0.29893
 C681 C 0.68643 0.40360 0.68657
 C682 C 0.70085 0.42724 0.70102
 C683 C 0.68577 -0.09769 0.18649
 C684 C 0.70026 -0.07404 0.20087
 C685 C 0.18569 0.40331 0.18659
 C686 C 0.20019 0.42698 0.20093
 C687 C 0.18582 -0.09824 0.68615
 C688 C 0.20028 -0.07459 0.70055
 C689 C 0.31349 0.31362 0.40427
 C690 C 0.29906 0.29920 0.42794
 C691 C 0.31430 0.81372 -0.09741
 C692 C 0.29998 0.79930 -0.07368
 C693 C 0.81295 0.31456 -0.09672
 C694 C 0.79865 0.30004 -0.07304
 C695 C 0.81373 0.81467 0.40374
 C696 C 0.79945 0.80029 0.42751
 C697 C 0.68652 0.31357 0.59653
 C698 C 0.70095 0.29911 0.57290
 C699 C 0.68608 0.81435 1.09680
 C700 C 0.70041 0.80006 1.07302
 C701 C 0.18542 0.31332 1.09655
 C702 C 0.19979 0.29890 1.07286
 C703 C 0.18624 0.81365 0.59661
 C704 C 0.20062 0.79934 0.57287
 C705 C 0.31395 0.68625 0.59627
 C706 C 0.29960 0.70062 0.57260
 C707 C 0.31330 0.18573 1.09626
 C708 C 0.29885 0.20010 1.07265
 C709 C 0.81362 0.68671 1.09611
 C710 C 0.79923 0.70117 1.07251
 C711 C 0.81431 0.18603 0.59671
 C712 C 0.79995 0.20031 0.57299
 C713 C 0.68632 0.68673 0.40438
 C714 C 0.70073 0.70114 0.42801
 C715 C 0.68614 0.18586 -0.09663
 C716 C 0.70044 0.20031 -0.07295
 C717 C 0.18668 0.68573 -0.09686
 C718 C 0.20110 0.70018 -0.07325
 C719 C 0.18587 0.18597 0.40396
 C720 C 0.20019 0.20025 0.42771
 C721 C 0.31318 0.40360 0.68687
 C722 C 0.29876 0.42729 0.70125
 C723 C 0.31459 0.90412 0.18515
 C724 C 0.30015 0.92775 0.19961
 C725 C 0.81367 0.40380 0.18606
 C726 C 0.79925 0.42742 0.20055
 C727 C 0.81460 0.90501 0.68637
 C728 C 0.80016 0.92868 0.70077
 C729 C 0.68652 0.59657 0.68705
 C730 C 0.70091 0.57287 0.70138
 C731 C 0.68617 0.09525 0.18612
 C732 C 0.70055 0.07158 0.20053
 C733 C 0.18630 0.59624 0.18598
 C734 C 0.20065 0.57258 0.20043
 C735 C 0.18553 0.09473 0.68659
 C736 C 0.19998 0.07104 0.70091
 C737 C 0.31407 0.59649 0.31337
 C738 C 0.29962 0.57278 0.29906
 C739 C 0.31333 0.09493 0.81383
 C740 C 0.29902 0.07120 0.79942
 C741 C 0.81427 0.59658 0.81413
 C742 C 0.79989 0.57281 0.79985
 C743 C 0.81389 0.09552 0.31354
 C744 C 0.79948 0.07180 0.29920
 C745 C 0.68616 0.40339 0.31422
 C746 C 0.70053 0.42713 0.29983
 C747 C 0.68626 0.90501 0.81388
 C748 C 0.70076 0.92865 0.79945
 C749 C 0.18516 0.40363 0.81427
 C750 C 0.19959 0.42738 0.79995
 C751 C 0.18688 0.90391 0.31349
 C752 C 0.20133 0.92753 0.29898
 C753 C 0.40325 0.31357 0.68675
 C754 C 0.42692 0.29914 0.70106
 C755 C 0.40472 0.81424 0.18512
 C756 C 0.42835 0.79992 0.19961
 C757 C 0.90382 0.31390 0.18563
 C758 C 0.92750 0.29953 0.19999
 C759 C 0.90464 0.81495 0.68614
 C760 C 0.92829 0.80049 0.70045
 C761 C 0.59627 0.31305 0.31414
 C762 C 0.57262 0.29866 0.29971
 C763 C 0.59597 0.81505 0.81410
 C764 C 0.57231 0.80062 0.79972
 C765 C 0.09532 0.31323 0.81379
 C766 C 0.07172 0.29882 0.79932
 C767 C 0.09651 0.81411 0.31378
 C768 C 0.07283 0.79976 0.29937
 C769 C 0.59648 0.68668 0.68709
 C770 C 0.57276 0.70114 0.70138
 C771 C 0.59621 0.18536 0.18620
 C772 C 0.57256 0.19980 0.20062
 C773 C 0.09648 0.68647 0.18590
 C774 C 0.07283 0.70093 0.20031
 C775 C 0.09545 0.18477 0.68661
 C776 C 0.07176 0.19928 0.70091
 C777 C 0.40412 0.68672 0.31317
 C778 C 0.42781 0.70118 0.29878
 C779 C 0.40325 0.18525 0.81388
 C780 C 0.42693 0.19973 0.79951
 C781 C 0.90418 0.68692 0.81361
 C782 C 0.92788 0.70130 0.79915
 C783 C 0.90378 0.18591 0.31327
 C784 C 0.92741 0.20043 0.29884
 C785 C 0.31325 0.31344 0.59696
 C786 C 0.29888 0.29899 0.57333
 C787 C 0.31468 0.81393 0.09530
 C788 C 0.30023 0.79946 0.07172
 C789 C 0.81364 0.31386 0.09596
 C790 C 0.79920 0.29945 0.07235
 C791 C 0.81444 0.81483 0.59651
 C792 C 0.79996 0.80037 0.57296
 C793 C 0.31417 0.68651 0.40340
 C794 C 0.29977 0.70085 0.42711
 C795 C 0.31292 0.18519 0.90369
 C796 C 0.29849 0.19966 0.92731
 C797 C 0.81397 0.68714 0.90361
 C798 C 0.79949 0.70157 0.92722
 C799 C 0.81403 0.18547 0.40367
 C800 C 0.79970 0.19986 0.42739
 C801 C 0.68628 0.31310 0.40399
 C802 C 0.70073 0.29871 0.42759
 C803 C 0.68600 0.81496 0.90389
 C804 C 0.70040 0.80051 0.92749
 C805 C 0.18512 0.31315 0.90385
 C806 C 0.19954 0.29872 0.92745
 C807 C 0.18643 0.81405 0.40371
 C808 C 0.20078 0.79964 0.42736
 C809 C 0.68663 0.68670 0.59710
 C810 C 0.70102 0.70114 0.57342
 C811 C 0.68628 0.18538 0.09614
 C812 C 0.70064 0.19989 0.07249
 C813 C 0.18660 0.68616 0.09584
 C814 C 0.20106 0.70051 0.07215
 C815 C 0.18570 0.18501 0.59677
 C816 C 0.20012 0.19955 0.57318
   
