data_POSCAR
  _audit_creation_date              2014-09-24
  _audit_creation_method            'ToBaCCo'
  _symmetry_space_group_name_H-M    'P1'
  _symmetry_Int_Tables_number       1
  _symmetry_cell_setting            triclinic
  loop_
  _symmetry_equiv_pos_as_xyz
 x,y,z
_cell_length_a 45.5910
_cell_length_b 45.4784
_cell_length_c 45.3706
_cell_angle_alpha 90.233900
_cell_angle_beta 90.227100
_cell_angle_gamma 90.140200
loop_
  _atom_site_label
  _atom_site_type_symbol
  _atom_site_fract_x
  _atom_site_fract_y
  _atom_site_fract_z
N1 N 0.27295 0.21579 0.19151
 N2 N 0.26536 0.24309 0.18608
 C3 C 0.28205 0.25362 0.16407
 C4 C 0.30109 0.23166 0.15513
 C5 C 0.29464 0.20795 0.17308
 H6 H 0.28031 0.27557 0.15518
 H7 H 0.30539 0.18680 0.17326
 Cu8 Cu 0.23448 0.26253 0.20815
 Cu9 Cu 0.25514 0.19301 0.22297
 Cu10 Cu 0.19242 0.22200 0.25375
 N11 N 0.19650 0.27611 0.22175
 N12 N 0.17949 0.25972 0.23831
 C13 C 0.15455 0.27446 0.24401
 C14 C 0.15621 0.30165 0.23054
 C15 C 0.18316 0.30195 0.21663
 H16 H 0.13703 0.26651 0.25787
 H17 H 0.19234 0.31963 0.20371
 N18 N 0.20954 0.18439 0.26656
 N19 N 0.23380 0.17358 0.25514
 C20 C 0.24163 0.14944 0.27032
 C21 C 0.22131 0.14479 0.29244
 C22 C 0.20121 0.16736 0.28926
 H23 H 0.26119 0.13674 0.26614
 H24 H 0.18284 0.17203 0.30350
 H25 H 0.21530 0.21342 0.21538
 H26 H 0.23723 0.22691 0.24790
 N27 N 0.73029 -0.21447 0.18740
 N28 N 0.74088 -0.23957 0.17785
 C29 C 0.72463 -0.24897 0.15478
 C30 C 0.70284 -0.22840 0.14926
 C31 C 0.70740 -0.20667 0.17039
 H32 H 0.72847 -0.26925 0.14295
 H33 H 0.69409 -0.18743 0.17431
 Cu34 Cu 0.77460 -0.25754 0.19694
 Cu35 Cu 0.74443 -0.19562 0.22338
 Cu36 Cu 0.80252 -0.22924 0.25956
 N37 N 0.80887 -0.27460 0.21589
 N38 N 0.81851 -0.26457 0.24134
 C39 C 0.84110 -0.28126 0.25047
 C40 C 0.84642 -0.30267 0.22926
 C41 C 0.82548 -0.29758 0.20756
 H42 H 0.85330 -0.27739 0.27059
 H43 H 0.82195 -0.31019 0.18762
 N44 N 0.78352 -0.19315 0.27416
 N45 N 0.76165 -0.18020 0.26023
 C46 C 0.75330 -0.15639 0.27581
 C47 C 0.77089 -0.15411 0.30064
 C48 C 0.78982 -0.17777 0.29881
 H49 H 0.73569 -0.14179 0.26957
 H50 H 0.80658 -0.18368 0.31461
 H51 H 0.78701 -0.21112 0.22092
 H52 H 0.76046 -0.23338 0.24278
 N53 N 0.72690 0.21894 0.81011
 N54 N 0.73788 0.24409 0.81939
 C55 C 0.72198 0.25378 0.84243
 C56 C 0.70006 0.23345 0.84800
 C57 C 0.70390 0.21163 0.82706
 H58 H 0.72609 0.27399 0.85440
 H59 H 0.69049 0.19222 0.82391
 Cu60 Cu 0.77199 0.26153 0.80052
 Cu61 Cu 0.74235 0.19801 0.77611
 Cu62 Cu 0.80394 0.22758 0.74295
 N63 N 0.80722 0.27718 0.78216
 N64 N 0.81927 0.26409 0.75940
 C65 C 0.84257 0.27987 0.75047
 C66 C 0.84562 0.30425 0.76879
 C67 C 0.82269 0.30161 0.78874
 H68 H 0.85631 0.27374 0.73212
 H69 H 0.81719 0.31659 0.80639
 N70 N 0.78519 0.19086 0.72946
 N71 N 0.76120 0.18005 0.74151
 C72 C 0.75270 0.15602 0.72622
 C73 C 0.77250 0.15132 0.70370
 C74 C 0.79283 0.17376 0.70647
 H75 H 0.73349 0.14291 0.73099
 H76 H 0.81121 0.17787 0.69207
 H77 H 0.78486 0.21308 0.78155
 H78 H 0.76090 0.23400 0.75556
 N79 N 0.26852 -0.20977 0.81286
 N80 N 0.25498 -0.23207 0.82520
 C81 C 0.27114 -0.24174 0.84810
 C82 C 0.29595 -0.22426 0.85044
 C83 C 0.29350 -0.20417 0.82775
 H84 H 0.26529 -0.26007 0.86203
 H85 H 0.30927 -0.18740 0.82189
 Cu86 Cu 0.21750 -0.24632 0.81033
 Cu87 Cu 0.25406 -0.19118 0.77709
 Cu88 Cu 0.19422 -0.22425 0.74350
 N89 N 0.18620 -0.26671 0.78939
 N90 N 0.17822 -0.25895 0.76270
 C91 C 0.15724 -0.27745 0.75292
 C92 C 0.15131 -0.29780 0.77487
 C93 C 0.17021 -0.29011 0.79776
 H94 H 0.14658 -0.27557 0.73170
 H95 H 0.17287 -0.30113 0.81866
 N96 N 0.21330 -0.18876 0.72778
 N97 N 0.23607 -0.17607 0.74064
 C98 C 0.24427 -0.15262 0.72458
 C99 C 0.22562 -0.15031 0.70054
 C100 C 0.20624 -0.17359 0.70335
 H101 H 0.26241 -0.13822 0.73002
 H102 H 0.18862 -0.17936 0.68840
 H103 H 0.21015 -0.20249 0.78039
 H104 H 0.23508 -0.22999 0.76267
 N105 N 0.73199 -0.21331 0.81326
 N106 N 0.74411 -0.23716 0.82407
 C107 C 0.72869 -0.24595 0.84776
 C108 C 0.70573 -0.22647 0.85206
 C109 C 0.70864 -0.20601 0.82974
 H110 H 0.73354 -0.26526 0.86068
 H111 H 0.69417 -0.18781 0.82509
 Cu112 Cu 0.77808 -0.25472 0.80505
 Cu113 Cu 0.74598 -0.19451 0.77741
 Cu114 Cu 0.80598 -0.22639 0.74302
 N115 N 0.81202 -0.27235 0.78602
 N116 N 0.82241 -0.26140 0.76143
 C117 C 0.84494 -0.27804 0.75215
 C118 C 0.84919 -0.30078 0.77208
 C119 C 0.82780 -0.29624 0.79340
 H120 H 0.85728 -0.27366 0.73237
 H121 H 0.82349 -0.30961 0.81252
 N122 N 0.78625 -0.19089 0.72794
 N123 N 0.76335 -0.17886 0.74094
 C124 C 0.75445 -0.15558 0.72502
 C125 C 0.77265 -0.15269 0.70085
 C126 C 0.79260 -0.17544 0.70350
 H127 H 0.73607 -0.14169 0.73060
 H128 H 0.81007 -0.18074 0.68836
 H129 H 0.76388 -0.23182 0.75869
 H130 H 0.78906 -0.20816 0.78103
 N131 N 0.27243 0.21456 0.80990
 N132 N 0.26034 0.23836 0.82092
 C133 C 0.27637 0.24774 0.84411
 C134 C 0.29977 0.22876 0.84794
 C135 C 0.29650 0.20791 0.82580
 H136 H 0.27132 0.26686 0.85733
 H137 H 0.31082 0.18955 0.82123
 Cu138 Cu 0.22494 0.25486 0.80374
 Cu139 Cu 0.25632 0.19438 0.77547
 Cu140 Cu 0.19208 0.22269 0.74558
 N141 N 0.18953 0.27108 0.78631
 N142 N 0.17631 0.25809 0.76398
 C143 C 0.15275 0.27411 0.75604
 C144 C 0.15128 0.29859 0.77425
 C145 C 0.17496 0.29584 0.79322
 H146 H 0.13837 0.26886 0.73774
 H147 H 0.18118 0.31086 0.81068
 N148 N 0.21163 0.18723 0.73000
 N149 N 0.23655 0.17705 0.74075
 C150 C 0.24532 0.15408 0.72416
 C151 C 0.22484 0.14943 0.70205
 C152 C 0.20375 0.17080 0.70650
 H153 H 0.26519 0.14168 0.72778
 H154 H 0.18466 0.17473 0.69289
 H155 H 0.23539 0.23032 0.75712
 H156 H 0.21343 0.20687 0.78251
 N157 N 0.27833 -0.22105 0.19165
 N158 N 0.26548 -0.24424 0.17998
 C159 C 0.27980 -0.25205 0.15529
 C160 C 0.30297 -0.23269 0.15126
 C161 C 0.30132 -0.21330 0.17485
 H162 H 0.27394 -0.27061 0.14151
 H163 H 0.31620 -0.19544 0.18001
 Cu164 Cu 0.23239 -0.26304 0.19921
 Cu165 Cu 0.26524 -0.20429 0.22888
 Cu166 Cu 0.19217 -0.21987 0.24358
 N167 N 0.19551 -0.27648 0.21569
 N168 N 0.17921 -0.25921 0.23213
 C169 C 0.15434 -0.27351 0.23929
 C170 C 0.15547 -0.30146 0.22711
 C171 C 0.18191 -0.30255 0.21230
 H172 H 0.13718 -0.26455 0.25302
 H173 H 0.19042 -0.32086 0.19972
 N174 N 0.21403 -0.18731 0.26265
 N175 N 0.24207 -0.18211 0.25773
 C176 C 0.25133 -0.16041 0.27575
 C177 C 0.22803 -0.15151 0.29310
 C178 C 0.20470 -0.16903 0.28406
 H179 H 0.27354 -0.15207 0.27638
 H180 H 0.18291 -0.16950 0.29335
 H181 H 0.23417 -0.23474 0.24503
 H182 H 0.22479 -0.21155 0.21249
 N183 N 0.72837 0.21433 0.19012
 N184 N 0.73844 0.24010 0.18194
 C185 C 0.72258 0.24976 0.15886
 C186 C 0.70131 0.22892 0.15218
 C187 C 0.70575 0.20668 0.17253
 H188 H 0.72621 0.27051 0.14793
 H189 H 0.69301 0.18677 0.17494
 Cu190 Cu 0.77047 0.25937 0.20274
 Cu191 Cu 0.74461 0.19339 0.22371
 Cu192 Cu 0.80821 0.22210 0.25448
 N193 N 0.80819 0.27299 0.21737
 N194 N 0.82319 0.25832 0.23722
 C195 C 0.84778 0.27347 0.24397
 C196 C 0.84810 0.29911 0.22753
 C197 C 0.82264 0.29790 0.21082
 H198 H 0.86366 0.26685 0.26040
 H199 H 0.81500 0.31405 0.19518
 N200 N 0.78927 0.18588 0.26888
 N201 N 0.76452 0.17552 0.25775
 C202 C 0.75572 0.15232 0.27384
 C203 C 0.77602 0.14770 0.29605
 C204 C 0.79705 0.16931 0.29216
 H205 H 0.73580 0.13993 0.26996
 H206 H 0.81587 0.17347 0.30616
 H207 H 0.76413 0.22836 0.24595
 H208 H 0.78621 0.21029 0.21627
 C209 C 0.23278 0.01370 0.47042
 C210 C 0.23281 -0.01738 0.47096
 C211 C 0.23353 -0.03182 0.49822
 C212 C 0.23349 -0.01611 0.52491
 C213 C 0.23296 0.01500 0.52441
 C214 C 0.23304 0.02942 0.49709
 H215 H 0.23283 0.05326 0.49654
 H216 H 0.23372 -0.05566 0.49871
 C217 C 0.76243 0.01550 0.52777
 C218 C 0.75913 -0.01544 0.52762
 C219 C 0.75697 -0.03043 0.50063
 C220 C 0.75922 -0.01554 0.47371
 C221 C 0.76266 0.01539 0.47371
 C222 C 0.76378 0.03044 0.50077
 H223 H 0.76558 0.05422 0.50082
 H224 H 0.75513 -0.05422 0.50056
 C225 C 0.47278 0.24330 -0.01422
 C226 C 0.47342 0.24244 0.01692
 C227 C 0.50061 0.24277 0.03152
 C228 C 0.52711 0.24291 0.01591
 C229 C 0.52647 0.24313 -0.01526
 C230 C 0.49926 0.24385 -0.02983
 H231 H 0.49865 0.24416 -0.05372
 H232 H 0.50119 0.24230 0.05542
 C233 C 0.47422 0.75719 0.01267
 C234 C 0.47481 0.75827 -0.01849
 C235 C 0.50207 0.75833 -0.03282
 C236 C 0.52857 0.75862 -0.01697
 C237 C 0.52795 0.75812 0.01422
 C238 C 0.50070 0.75673 0.02848
 H239 H 0.50002 0.75605 0.05236
 H240 H 0.50272 0.75886 -0.05671
 C241 C 0.01713 0.47280 0.23884
 C242 C -0.01372 0.47247 0.23580
 C243 C -0.02896 0.49916 0.23448
 C244 C -0.01439 0.52643 0.23564
 C245 C 0.01659 0.52683 0.23851
 C246 C 0.03174 0.49999 0.24023
 H247 H 0.05550 0.50027 0.24152
 H248 H -0.05270 0.49862 0.23289
 C249 C 0.01598 0.47339 0.76380
 C250 C -0.01460 0.47353 0.75901
 C251 C -0.02935 0.50044 0.75677
 C252 C -0.01443 0.52729 0.76018
 C253 C 0.01635 0.52726 0.76471
 C254 C 0.03108 0.50019 0.76620
 H255 H 0.05470 0.49987 0.76904
 H256 H -0.05299 0.50045 0.75402
 C257 C 0.37047 0.23619 0.09107
 C258 C 0.35817 0.26206 0.10270
 C259 C 0.33522 0.26065 0.12302
 C260 C 0.32419 0.23334 0.13229
 C261 C 0.33598 0.20752 0.12011
 C262 C 0.35875 0.20893 0.09967
 C263 C 0.39625 0.23748 0.07114
 C264 C 0.41903 0.21690 0.07409
 C265 C 0.44376 0.21843 0.05618
 C266 C 0.44639 0.24059 0.03492
 C267 C 0.42370 0.26117 0.03178
 C268 C 0.39880 0.25958 0.04966
 H269 H 0.32677 0.28095 0.13210
 H270 H 0.32763 0.18614 0.12632
 H271 H 0.46102 0.20235 0.05901
 H272 H 0.42542 0.27868 0.01577
 H273 H 0.36727 0.18861 0.09066
 H274 H 0.41806 0.19993 0.09072
 H275 H 0.36690 0.28340 0.09682
 H276 H 0.38154 0.27561 0.04666
 C277 C 0.63206 0.76646 0.08823
 C278 C 0.63930 0.79318 0.10223
 C279 C 0.66262 0.79487 0.12219
 C280 C 0.68008 0.77010 0.12817
 C281 C 0.67371 0.74369 0.11307
 C282 C 0.64979 0.74180 0.09375
 C283 C 0.60563 0.76424 0.06880
 C284 C 0.60454 0.74434 0.04493
 C285 C 0.57932 0.74193 0.02739
 C286 C 0.55495 0.76001 0.03269
 C287 C 0.55605 0.77993 0.05638
 C288 C 0.58085 0.78178 0.07438
 H289 H 0.66706 0.81591 0.13250
 H290 H 0.68628 0.72395 0.11702
 H291 H 0.57886 0.72587 0.00971
 H292 H 0.53758 0.79411 0.06107
 H293 H 0.64478 0.72068 0.08388
 H294 H 0.62318 0.73066 0.03961
 H295 H 0.62697 0.81299 0.09784
 H296 H 0.58029 0.79676 0.09295
 C297 C 0.62994 0.23767 -0.08889
 C298 C 0.64034 0.21043 -0.09921
 C299 C 0.66333 0.20911 -0.11939
 C300 C 0.67679 0.23497 -0.12942
 C301 C 0.66723 0.26218 -0.11836
 C302 C 0.64393 0.26353 -0.09842
 C303 C 0.60385 0.23899 -0.06934
 C304 C 0.60168 0.26027 -0.04683
 C305 C 0.57663 0.26175 -0.02914
 C306 C 0.55347 0.24174 -0.03339
 C307 C 0.55566 0.22049 -0.05575
 C308 C 0.58046 0.21918 -0.07357
 H309 H 0.67057 0.18779 -0.12710
 H310 H 0.67706 0.28248 -0.12586
 H311 H 0.57525 0.27863 -0.01231
 H312 H 0.53805 0.20486 -0.05949
 H313 H 0.63629 0.28490 -0.09124
 H314 H 0.61937 0.27570 -0.04279
 H315 H 0.63063 0.19004 -0.09177
 H316 H 0.58103 0.20293 -0.09105
 C317 C 0.36959 0.76781 -0.09046
 C318 C 0.36071 0.79547 -0.10105
 C319 C 0.33670 0.79798 -0.12006
 C320 C 0.32052 0.77302 -0.12842
 C321 C 0.32858 0.74550 -0.11714
 C322 C 0.35302 0.74286 -0.09858
 C323 C 0.39644 0.76507 -0.07179
 C324 C 0.39846 0.74360 -0.04959
 C325 C 0.42393 0.74101 -0.03247
 C326 C 0.44767 0.76027 -0.03669
 C327 C 0.44571 0.78162 -0.05885
 C328 C 0.42057 0.78385 -0.07632
 H329 H 0.33066 0.81954 -0.12807
 H330 H 0.31659 0.72586 -0.12345
 H331 H 0.42507 0.72395 -0.01595
 H332 H 0.46371 0.79673 -0.06263
 H333 H 0.35935 0.72115 -0.09130
 H334 H 0.38030 0.72890 -0.04522
 H335 H 0.37230 0.81531 -0.09468
 H336 H 0.42028 0.80014 -0.09363
 C337 C 0.09393 0.37211 0.23583
 C338 C 0.08428 0.34279 0.23618
 C339 C 0.10456 0.31979 0.23471
 C340 C 0.13469 0.32582 0.23210
 C341 C 0.14420 0.35519 0.23128
 C342 C 0.12402 0.37813 0.23346
 C343 C 0.07279 0.39656 0.23782
 C344 C 0.07619 0.41821 0.25967
 C345 C 0.05734 0.44234 0.26058
 C346 C 0.03506 0.44553 0.23934
 C347 C 0.03159 0.42368 0.21757
 C348 C 0.05005 0.39917 0.21709
 H349 H 0.09669 0.29732 0.23524
 H350 H 0.16730 0.36044 0.22952
 H351 H 0.06046 0.45882 0.27761
 H352 H 0.01518 0.42596 0.20043
 H353 H 0.13184 0.40063 0.23299
 H354 H 0.09356 0.41649 0.27592
 H355 H 0.06113 0.33775 0.23801
 H356 H 0.04731 0.38282 0.19987
 C357 C 0.09046 0.63122 0.77226
 C358 C 0.09780 0.64658 0.74646
 C359 C 0.11733 0.67031 0.74739
 C360 C 0.13083 0.67892 0.77406
 C361 C 0.12343 0.66356 0.79988
 C362 C 0.10325 0.64040 0.79905
 C363 C 0.07032 0.60529 0.77113
 C364 C 0.07395 0.58177 0.79089
 C365 C 0.05580 0.55706 0.78931
 C366 C 0.03393 0.55478 0.76754
 C367 C 0.03021 0.57814 0.74773
 C368 C 0.04785 0.60327 0.74979
 H369 H 0.12249 0.68109 0.72685
 H370 H 0.13263 0.66967 0.82104
 H371 H 0.05918 0.53943 0.80493
 H372 H 0.01400 0.57680 0.73028
 H373 H 0.09761 0.62983 0.81959
 H374 H 0.09130 0.58198 0.80721
 H375 H 0.08907 0.63991 0.72525
 H376 H 0.04388 0.62102 0.73449
 C377 C -0.09020 0.62898 0.23077
 C378 C -0.10424 0.63704 0.20434
 C379 C -0.12520 0.65935 0.20390
 C380 C -0.13202 0.67519 0.22968
 C381 C -0.11698 0.66810 0.25587
 C382 C -0.09677 0.64502 0.25650
 C383 C -0.06974 0.60334 0.23157
 C384 C -0.04674 0.60178 0.25238
 C385 C -0.02870 0.57695 0.25384
 C386 C -0.03253 0.55356 0.23388
 C387 C -0.05501 0.55537 0.21274
 C388 C -0.07360 0.57963 0.21188
 H389 H -0.13549 0.66447 0.18303
 H390 H -0.12165 0.67939 0.27634
 H391 H -0.01192 0.57597 0.27075
 H392 H -0.05850 0.53769 0.19703
 H393 H -0.08700 0.63931 0.27747
 H394 H -0.04260 0.61964 0.26765
 H395 H -0.09912 0.62618 0.18375
 H396 H -0.09140 0.57931 0.19606
 C397 C -0.09105 0.37259 0.76375
 C398 C -0.11030 0.37103 0.78772
 C399 C -0.13119 0.34860 0.78937
 C400 C -0.13310 0.32679 0.76724
 C401 C -0.11331 0.32829 0.74344
 C402 C -0.09276 0.35107 0.74161
 C403 C -0.06974 0.39708 0.76168
 C404 C -0.05233 0.40484 0.78613
 C405 C -0.03358 0.42912 0.78484
 C406 C -0.03218 0.44619 0.75921
 C407 C -0.04922 0.43827 0.73461
 C408 C -0.06766 0.41370 0.73573
 H409 H -0.14557 0.34848 0.80825
 H410 H -0.11382 0.31228 0.72577
 H411 H -0.02079 0.43513 0.80412
 H412 H -0.04850 0.45137 0.71474
 H413 H -0.07803 0.35178 0.72295
 H414 H -0.05349 0.39226 0.80631
 H415 H -0.10954 0.38756 0.80497
 H416 H -0.08106 0.40827 0.71670
 C417 C 0.22584 0.08348 0.36444
 C418 C 0.19918 0.09710 0.35711
 C419 C 0.19758 0.11658 0.33339
 C420 C 0.22255 0.12270 0.31638
 C421 C 0.24899 0.10837 0.32322
 C422 C 0.25063 0.08907 0.34705
 C423 C 0.22808 0.06456 0.39090
 C424 C 0.25199 0.06768 0.41034
 C425 C 0.25355 0.05093 0.43602
 C426 C 0.23144 0.03053 0.44258
 C427 C 0.20768 0.02711 0.42310
 C428 C 0.20599 0.04401 0.39747
 H429 H 0.17680 0.12700 0.32859
 H430 H 0.26870 0.11261 0.31073
 H431 H 0.27198 0.05395 0.45088
 H432 H 0.19026 0.01165 0.42797
 H433 H 0.27138 0.07862 0.35202
 H434 H 0.26912 0.08361 0.40604
 H435 H 0.17976 0.09337 0.37025
 H436 H 0.18744 0.04103 0.38278
 C437 C 0.76905 0.08797 0.63312
 C438 C 0.79613 0.09849 0.64387
 C439 C 0.79722 0.11878 0.66702
 C440 C 0.77132 0.12857 0.68040
 C441 C 0.74431 0.11727 0.67059
 C442 C 0.74315 0.09738 0.64703
 C443 C 0.76784 0.06837 0.60676
 C444 C 0.74599 0.04661 0.60381
 C445 C 0.74419 0.02932 0.57829
 C446 C 0.76456 0.03299 0.55545
 C447 C 0.78660 0.05439 0.55854
 C448 C 0.78811 0.07198 0.58375
 H449 H 0.81838 0.12678 0.67450
 H450 H 0.72398 0.12464 0.68039
 H451 H 0.72666 0.01334 0.57626
 H452 H 0.80256 0.05769 0.54124
 H453 H 0.72187 0.09017 0.63915
 H454 H 0.73022 0.04292 0.62118
 H455 H 0.81657 0.09117 0.63430
 H456 H 0.80484 0.08888 0.58483
 C457 C 0.22922 -0.08804 0.62941
 C458 C 0.20308 -0.10313 0.63563
 C459 C 0.20185 -0.12317 0.65886
 C460 C 0.22668 -0.12835 0.67653
 C461 C 0.25266 -0.11279 0.67067
 C462 C 0.25397 -0.09295 0.64726
 C463 C 0.23097 -0.06824 0.60360
 C464 C 0.25498 -0.06993 0.58436
 C465 C 0.25590 -0.05264 0.55902
 C466 C 0.23302 -0.03309 0.55265
 C467 C 0.20924 -0.03091 0.57207
 C468 C 0.20819 -0.04841 0.59732
 H469 H 0.18142 -0.13459 0.66292
 H470 H 0.27224 -0.11639 0.68372
 H471 H 0.27438 -0.05464 0.54422
 H472 H 0.19131 -0.01604 0.56739
 H473 H 0.27436 -0.08147 0.64305
 H474 H 0.27266 -0.08526 0.58847
 H475 H 0.18377 -0.09999 0.62204
 H476 H 0.18953 -0.04654 0.61191
 C477 C 0.76553 -0.09068 0.37107
 C478 C 0.74155 -0.09531 0.35208
 C479 C 0.74342 -0.11557 0.32892
 C480 C 0.76922 -0.13183 0.32447
 C481 C 0.79328 -0.12697 0.34333
 C482 C 0.79149 -0.10653 0.36631
 C483 C 0.76325 -0.07012 0.39638
 C484 C 0.78642 -0.05081 0.40330
 C485 C 0.78483 -0.03253 0.42806
 C486 C 0.76010 -0.03332 0.44635
 C487 C 0.73683 -0.05237 0.43935
 C488 C 0.73830 -0.07049 0.41447
 H489 H 0.72442 -0.11889 0.31491
 H490 H 0.81357 -0.13891 0.34037
 H491 H 0.80312 -0.01816 0.43329
 H492 H 0.71763 -0.05334 0.45331
 H493 H 0.81022 -0.10359 0.38080
 H494 H 0.80580 -0.04996 0.38961
 H495 H 0.72134 -0.08323 0.35514
 H496 H 0.72030 -0.08541 0.40985
 C497 C 0.63404 0.76751 -0.08670
 C498 C 0.65188 0.74299 -0.09232
 C499 C 0.67562 0.74512 -0.11161
 C500 C 0.68188 0.77175 -0.12590
 C501 C 0.66442 0.79645 -0.11972
 C502 C 0.64082 0.79437 -0.10026
 C503 C 0.60770 0.76480 -0.06780
 C504 C 0.60058 0.78692 -0.04732
 C505 C 0.57504 0.78482 -0.03047
 C506 C 0.55621 0.76058 -0.03387
 C507 C 0.56328 0.73847 -0.05426
 C508 C 0.58886 0.74047 -0.07095
 H509 H 0.68852 0.72564 -0.11589
 H510 H 0.66880 0.81740 -0.13006
 H511 H 0.56979 0.80222 -0.01502
 H512 H 0.54889 0.71970 -0.05727
 H513 H 0.62735 0.81359 -0.09649
 H514 H 0.61479 0.80583 -0.04434
 H515 H 0.64736 0.72210 -0.08190
 H516 H 0.59355 0.72332 -0.08687
 C517 C 0.36976 0.23530 -0.08827
 C518 C 0.35193 0.25968 -0.09438
 C519 C 0.32898 0.25744 -0.11477
 C520 C 0.32349 0.23082 -0.12969
 C521 C 0.34113 0.20634 -0.12332
 C522 C 0.36396 0.20853 -0.10275
 C523 C 0.39508 0.23808 -0.06781
 C524 C 0.40138 0.21585 -0.04730
 C525 C 0.42621 0.21789 -0.02920
 C526 C 0.44514 0.24215 -0.03138
 C527 C 0.43867 0.26454 -0.05153
 C528 C 0.41379 0.26261 -0.06947
 H529 H 0.31597 0.27680 -0.11921
 H530 H 0.33736 0.18545 -0.13419
 H531 H 0.43103 0.20025 -0.01397
 H532 H 0.45315 0.28333 -0.05360
 H533 H 0.37754 0.18946 -0.09871
 H534 H 0.38720 0.19682 -0.04540
 H535 H 0.35577 0.28052 -0.08338
 H536 H 0.40968 0.27990 -0.08529
 C537 C 0.37119 0.76331 0.08600
 C538 C 0.36576 0.78956 0.10144
 C539 C 0.34333 0.79100 0.12231
 C540 C 0.32573 0.76627 0.12804
 C541 C 0.33066 0.74027 0.11197
 C542 C 0.35322 0.73877 0.09127
 C543 C 0.39646 0.76108 0.06566
 C544 C 0.41505 0.73650 0.06684
 C545 C 0.43999 0.73508 0.04916
 C546 C 0.44664 0.75803 0.02973
 C547 C 0.42786 0.78237 0.02804
 C548 C 0.40298 0.78391 0.04591
 H549 H 0.33994 0.81146 0.13406
 H550 H 0.31762 0.72077 0.11586
 H551 H 0.45433 0.71620 0.05084
 H552 H 0.43281 0.80040 0.01334
 H553 H 0.35678 0.71833 0.07951
 H554 H 0.41078 0.71878 0.08211
 H555 H 0.37944 0.80873 0.09800
 H556 H 0.38891 0.80301 0.04444
 C557 C 0.63118 0.23502 0.08851
 C558 C 0.64814 0.25986 0.09579
 C559 C 0.67124 0.25777 0.11599
 C560 C 0.67785 0.23080 0.12950
 C561 C 0.66127 0.20582 0.12171
 C562 C 0.63824 0.20790 0.10141
 C563 C 0.60542 0.23767 0.06863
 C564 C 0.59928 0.21595 0.04730
 C565 C 0.57415 0.21791 0.02964
 C566 C 0.55477 0.24159 0.03303
 C567 C 0.56099 0.26341 0.05409
 C568 C 0.58612 0.26154 0.07163
 H569 H 0.68342 0.27750 0.12143
 H570 H 0.66588 0.18463 0.13142
 H571 H 0.56954 0.20071 0.01369
 H572 H 0.54618 0.28176 0.05710
 H573 H 0.62540 0.18842 0.09643
 H574 H 0.61388 0.19744 0.04435
 H575 H 0.64341 0.28099 0.08595
 H576 H 0.59003 0.27838 0.08814
 C577 C -0.08919 0.62945 0.76713
 C578 C -0.09180 0.64965 0.74400
 C579 C -0.11171 0.67291 0.74579
 C580 C -0.12996 0.67632 0.77064
 C581 C -0.12701 0.65599 0.79386
 C582 C -0.10679 0.63301 0.79217
 C583 C -0.06881 0.60421 0.76483
 C584 C -0.05056 0.59663 0.78864
 C585 C -0.03227 0.57206 0.78684
 C586 C -0.03213 0.55453 0.76131
 C587 C -0.05019 0.56216 0.73745
 C588 C -0.06820 0.58694 0.73909
 H589 H -0.11296 0.68777 0.72730
 H590 H -0.14017 0.65762 0.81355
 H591 H -0.01865 0.56635 0.80557
 H592 H -0.05044 0.54881 0.71762
 H593 H -0.10536 0.61758 0.81023
 H594 H -0.05050 0.60970 0.80865
 H595 H -0.07831 0.64748 0.72452
 H596 H -0.08225 0.59215 0.72055
 C597 C -0.08921 0.37025 0.23054
 C598 C -0.11758 0.37451 0.21912
 C599 C -0.13775 0.35143 0.21811
 C600 C -0.13021 0.32345 0.22869
 C601 C -0.10198 0.31917 0.24048
 C602 C -0.08166 0.34232 0.24135
 C603 C -0.06793 0.39509 0.23119
 C604 C -0.04918 0.39964 0.25553
 C605 C -0.03085 0.42439 0.25682
 C606 C -0.03104 0.44493 0.23383
 C607 C -0.04909 0.44000 0.20922
 C608 C -0.06718 0.41527 0.20780
 H609 H -0.15943 0.35577 0.20943
 H610 H -0.09542 0.29786 0.24868
 H611 H -0.01717 0.42796 0.27607
 H612 H -0.04932 0.45551 0.19115
 H613 H -0.05991 0.33825 0.25008
 H614 H -0.04940 0.38466 0.27400
 H615 H -0.12441 0.39591 0.21132
 H616 H -0.08080 0.41210 0.18845
 C617 C 0.08987 0.37045 0.77087
 C618 C 0.08252 0.34294 0.75858
 C619 C 0.10246 0.31958 0.75954
 C620 C 0.13006 0.32318 0.77299
 C621 C 0.13739 0.35066 0.78521
 C622 C 0.11764 0.37401 0.78402
 C623 C 0.06907 0.39560 0.76977
 C624 C 0.06761 0.41569 0.79339
 C625 C 0.04990 0.44060 0.79157
 C626 C 0.03291 0.44577 0.76632
 C627 C 0.03343 0.42533 0.74308
 C628 C 0.05142 0.40049 0.74474
 H629 H 0.09608 0.29860 0.75012
 H630 H 0.15864 0.35441 0.79526
 H631 H 0.04959 0.45603 0.80982
 H632 H 0.02063 0.42911 0.72330
 H633 H 0.12439 0.39507 0.79301
 H634 H 0.08037 0.41231 0.81325
 H635 H 0.06123 0.33933 0.74854
 H636 H 0.05225 0.38570 0.72601
 C637 C 0.09275 0.62836 0.23457
 C638 C 0.08325 0.65770 0.23429
 C639 C 0.10367 0.68067 0.23238
 C640 C 0.13376 0.67455 0.22991
 C641 C 0.14312 0.64517 0.22993
 C642 C 0.12284 0.62231 0.23257
 C643 C 0.07156 0.60386 0.23681
 C644 C 0.07483 0.58281 0.25907
 C645 C 0.05623 0.55843 0.26011
 C646 C 0.03427 0.55435 0.23864
 C647 C 0.03086 0.57560 0.21646
 C648 C 0.04911 0.60039 0.21581
 H649 H 0.09592 0.70316 0.23228
 H650 H 0.16620 0.63986 0.22832
 H651 H 0.05929 0.54241 0.27745
 H652 H 0.01455 0.57268 0.19928
 H653 H 0.13059 0.59981 0.23264
 H654 H 0.09199 0.58515 0.27551
 H655 H 0.06012 0.66278 0.23589
 H656 H 0.04648 0.61626 0.19827
 C657 C 0.76634 -0.09012 0.63008
 C658 C 0.74223 -0.09537 0.64852
 C659 C 0.74438 -0.11537 0.67173
 C660 C 0.77063 -0.13075 0.67685
 C661 C 0.79479 -0.12530 0.65851
 C662 C 0.79270 -0.10514 0.63545
 C663 C 0.76381 -0.06975 0.60477
 C664 C 0.78660 -0.04995 0.59828
 C665 C 0.78479 -0.03180 0.57357
 C666 C 0.76018 -0.03313 0.55493
 C667 C 0.73728 -0.05265 0.56151
 C668 C 0.73899 -0.07068 0.58631
 H669 H 0.72527 -0.11914 0.68528
 H670 H 0.81540 -0.13655 0.66195
 H671 H 0.80283 -0.01710 0.56866
 H672 H 0.71820 -0.05409 0.54727
 H673 H 0.81154 -0.10175 0.62139
 H674 H 0.80586 -0.04862 0.61226
 H675 H 0.72171 -0.08394 0.64499
 H676 H 0.72127 -0.08596 0.59059
 C677 C 0.22955 -0.09048 0.36611
 C678 C 0.20280 -0.09933 0.35331
 C679 C 0.20231 -0.11880 0.32939
 C680 C 0.22856 -0.12981 0.31762
 C681 C 0.25534 -0.12050 0.33005
 C682 C 0.25582 -0.10112 0.35403
 C683 C 0.23005 -0.07102 0.39252
 C684 C 0.25165 -0.04908 0.39585
 C685 C 0.25259 -0.03154 0.42123
 C686 C 0.23182 -0.03543 0.44365
 C687 C 0.21019 -0.05720 0.44031
 C688 C 0.20929 -0.07480 0.41504
 H689 H 0.18131 -0.12517 0.32016
 H690 H 0.27600 -0.12873 0.32184
 H691 H 0.26967 -0.01508 0.42347
 H692 H 0.19395 -0.06057 0.45734
 H693 H 0.27678 -0.09512 0.36364
 H694 H 0.26778 -0.04542 0.37880
 H695 H 0.18218 -0.09115 0.36178
 H696 H 0.19267 -0.09177 0.41341
 C697 C 0.77125 0.08681 0.36832
 C698 C 0.74560 0.09630 0.35390
 C699 C 0.74719 0.11548 0.32997
 C700 C 0.77443 0.12601 0.32018
 C701 C 0.80009 0.11630 0.33422
 C702 C 0.79855 0.09672 0.35783
 C703 C 0.76951 0.06758 0.39478
 C704 C 0.78957 0.07116 0.41818
 C705 C 0.78754 0.05385 0.44342
 C706 C 0.76522 0.03272 0.44612
 C707 C 0.74505 0.02911 0.42290
 C708 C 0.74736 0.04612 0.39738
 H709 H 0.72701 0.12282 0.31976
 H710 H 0.82141 0.12373 0.32684
 H711 H 0.80335 0.05710 0.46101
 H712 H 0.72731 0.01335 0.42462
 H713 H 0.81882 0.08938 0.36784
 H714 H 0.80654 0.08782 0.41735
 H715 H 0.72416 0.08962 0.36160
 H716 H 0.73173 0.04243 0.37972
 C717 C 0.22822 0.08823 0.62939
 C718 C 0.25411 0.09728 0.64383
 C719 C 0.25298 0.11660 0.66787
 C720 C 0.22599 0.12761 0.67778
 C721 C 0.20009 0.11823 0.66376
 C722 C 0.20117 0.09860 0.64002
 C723 C 0.22937 0.06890 0.60281
 C724 C 0.20944 0.07302 0.57945
 C725 C 0.21055 0.05528 0.55432
 C726 C 0.23177 0.03314 0.55171
 C727 C 0.25196 0.02911 0.57480
 C728 C 0.25062 0.04663 0.60019
 H729 H 0.27333 0.12363 0.67809
 H730 H 0.17893 0.12596 0.67122
 H731 H 0.19479 0.05890 0.53678
 H732 H 0.26889 0.01254 0.57311
 H733 H 0.18074 0.09156 0.63000
 H734 H 0.19320 0.09033 0.58030
 H735 H 0.27535 0.09014 0.63606
 H736 H 0.26616 0.04261 0.61781
   
