data_POSCAR
  _audit_creation_date              2014-09-24
  _audit_creation_method            'ToBaCCo'
  _symmetry_space_group_name_H-M    'P1'
  _symmetry_Int_Tables_number       1
  _symmetry_cell_setting            triclinic
  loop_
  _symmetry_equiv_pos_as_xyz
 x,y,z
_cell_length_a 16.6320
_cell_length_b 13.0207
_cell_length_c 19.4987
_cell_angle_alpha 90.540000
_cell_angle_beta 89.650600
_cell_angle_gamma 90.292200
loop_
  _atom_site_label
  _atom_site_type_symbol
  _atom_site_fract_x
  _atom_site_fract_y
  _atom_site_fract_z
N1 N 0.52705 0.78395 0.58886
 N2 N 0.52497 0.81369 0.65347
 C3 C 0.46704 0.88411 0.66239
 C4 C 0.43012 0.89844 0.59987
 C5 C 0.46905 0.83298 0.55422
 H6 H 0.45029 0.91796 0.71126
 H7 H 0.45589 0.82024 0.50061
 Cu8 Cu 0.59046 0.74746 0.72127
 Cu9 Cu 0.60334 0.68024 0.55678
 Cu10 Cu 0.75268 0.61486 0.67289
 N11 N 0.63995 0.64977 0.78194
 N12 N 0.70692 0.60193 0.76553
 C13 C 0.72432 0.53427 0.81531
 C14 C 0.66369 0.53920 0.86442
 C15 C 0.61076 0.61208 0.84089
 H16 H 0.77083 0.47679 0.81124
 H17 H 0.55250 0.63078 0.86247
 N18 N 0.76377 0.59287 0.57310
 N19 N 0.70536 0.61340 0.52961
 C20 C 0.73092 0.59268 0.46536
 C21 C 0.80890 0.55799 0.46893
 C22 C 0.82829 0.55854 0.53774
 H23 H 0.69718 0.60776 0.41936
 H24 H 0.88526 0.53814 0.56016
 H25 H 0.63637 0.60800 0.64673
 H26 H 0.68539 0.73307 0.62608
 N27 N 0.97424 0.21181 0.08739
 N28 N 0.97015 0.17844 0.15080
 C29 C 1.02698 0.10702 0.16030
 C30 C 1.07064 0.09726 0.09982
 C31 C 1.03594 0.16560 0.05465
 H32 H 1.03934 0.07115 0.20890
 H33 H 1.05392 0.18169 0.00249
 Cu34 Cu 0.90190 0.24511 0.21840
 Cu35 Cu 0.89907 0.31345 0.05291
 Cu36 Cu 0.75256 0.39592 0.16733
 N37 N 0.85562 0.34818 0.27952
 N38 N 0.79705 0.40833 0.25961
 C39 C 0.78414 0.48105 0.30804
 C40 C 0.83734 0.46458 0.36100
 C41 C 0.88224 0.38044 0.34108
 H42 H 0.74487 0.54628 0.30211
 H43 H 0.93504 0.35120 0.36631
 N44 N 0.74224 0.41081 0.06781
 N45 N 0.79903 0.38223 0.02397
 C46 C 0.77324 0.39876 -0.04043
 C47 C 0.69681 0.43926 -0.03598
 C48 C 0.67887 0.44645 0.03298
 H49 H 0.80591 0.37834 -0.08663
 H50 H 0.62358 0.47380 0.05602
 H51 H 0.87015 0.38811 0.14374
 H52 H 0.81294 0.26842 0.12157
 N53 N 0.47054 0.29434 -0.08725
 N54 N 0.47136 0.32199 -0.15193
 C55 C 0.53041 0.39096 -0.16204
 C56 C 0.56919 0.40729 -0.10025
 C57 C 0.53031 0.34364 -0.05384
 H58 H 0.54766 0.42098 -0.21156
 H59 H 0.54555 0.33095 -0.00082
 Cu60 Cu 0.40509 0.25299 -0.21945
 Cu61 Cu 0.39506 0.19079 -0.05354
 Cu62 Cu 0.25025 0.10753 -0.16912
 N63 N 0.35771 0.15114 -0.28040
 N64 N 0.29619 0.09419 -0.26116
 C65 C 0.28171 0.02240 -0.30980
 C66 C 0.33718 0.03600 -0.36204
 C67 C 0.38502 0.11733 -0.34152
 H68 H 0.23981 -0.04080 -0.30428
 H69 H 0.43971 0.14372 -0.36614
 N70 N 0.23854 0.09057 -0.06981
 N71 N 0.29498 0.11876 -0.02591
 C72 C 0.26862 0.10036 0.03826
 C73 C 0.19234 0.05888 0.03383
 C74 C 0.17470 0.05342 -0.03510
 H75 H 0.30039 0.12128 0.08457
 H76 H 0.11907 0.02751 -0.05808
 H77 H 0.36714 0.11305 -0.14356
 H78 H 0.31183 0.23417 -0.12354
 N79 N 0.02520 0.71431 0.41116
 N80 N 0.02774 0.67928 0.34771
 C81 C -0.02907 0.60660 0.33928
 C82 C -0.07115 0.59768 0.40060
 C83 C -0.03552 0.66799 0.44508
 H84 H -0.04232 0.56895 0.29094
 H85 H -0.05213 0.68544 0.49753
 Cu86 Cu 0.09463 0.74491 0.27911
 Cu87 Cu 0.10101 0.81833 0.44389
 Cu88 Cu 0.25057 0.88890 0.32894
 N89 N 0.14177 0.84732 0.21887
 N90 N 0.20356 0.90404 0.23800
 C91 C 0.21714 0.97708 0.19072
 C92 C 0.16068 0.96462 0.13958
 C93 C 0.11352 0.88229 0.15906
 H94 H 0.25941 1.03989 0.19649
 H95 H 0.05879 0.85583 0.13480
 N96 N 0.26180 0.90699 0.42819
 N97 N 0.20322 0.88483 0.47185
 C98 C 0.22898 0.90370 0.53611
 C99 C 0.30727 0.93856 0.53187
 C100 C 0.32662 0.94013 0.46308
 H101 H 0.19498 0.88794 0.58229
 H102 H 0.38347 0.96211 0.44021
 H103 H 0.13312 0.88854 0.35353
 H104 H 0.18493 0.76638 0.37557
 N105 N 0.13854 0.04009 0.09011
 N106 N 0.35991 0.96002 0.58806
 N107 N 0.86152 0.53922 0.41156
 N108 N 0.64385 0.46292 -0.09137
   
