data_POSCAR
  _audit_creation_date              2014-09-24
  _audit_creation_method            'ToBaCCo'
  _symmetry_space_group_name_H-M    'P1'
  _symmetry_Int_Tables_number       1
  _symmetry_cell_setting            triclinic
  loop_
  _symmetry_equiv_pos_as_xyz
 x,y,z
_cell_length_a 25.2345
_cell_length_b 24.6809
_cell_length_c 29.8530
_cell_angle_alpha 90.189700
_cell_angle_beta 90.136800
_cell_angle_gamma 89.773900
loop_
  _atom_site_label
  _atom_site_type_symbol
  _atom_site_fract_x
  _atom_site_fract_y
  _atom_site_fract_z
B1 B 0.26164 0.22400 0.20083
 B2 B 0.27749 0.28755 0.21665
 B3 B 0.21293 0.27198 0.21257
 B4 B 0.20700 0.20639 0.22917
 B5 B 0.26827 0.18339 0.24552
 B6 B 0.31154 0.23500 0.23780
 B7 B 0.24009 0.26790 0.30084
 B8 B 0.22393 0.20399 0.28367
 B9 B 0.28866 0.22216 0.28975
 B10 B 0.29473 0.28654 0.27192
 B11 B 0.23441 0.30886 0.25654
 B12 B 0.19007 0.25872 0.26380
 B13 B 0.71092 0.76614 0.29529
 B14 B 0.77255 0.79228 0.28753
 B15 B 0.76545 0.72502 0.29895
 B16 B 0.71005 0.70405 0.27247
 B17 B 0.68426 0.75837 0.24427
 B18 B 0.72302 0.81232 0.25345
 B19 B 0.78159 0.73728 0.20851
 B20 B 0.71993 0.71096 0.21716
 B21 B 0.72890 0.77796 0.20517
 B22 B 0.78351 0.79919 0.23241
 B23 B 0.80943 0.74489 0.25973
 B24 B 0.77049 0.69114 0.24943
 B25 B 0.71947 0.23720 -0.29323
 B26 B 0.78587 0.22585 -0.28455
 B27 B 0.76422 0.29015 -0.29136
 B28 B 0.70487 0.29526 -0.26600
 B29 B 0.68964 0.23332 -0.24389
 B30 B 0.74029 0.18995 -0.25546
 B31 B 0.77899 0.27112 -0.20211
 B32 B 0.71411 0.28220 -0.21115
 B33 B 0.73561 0.21780 -0.20438
 B34 B 0.79538 0.21338 -0.22919
 B35 B 0.81013 0.27468 -0.25123
 B36 B 0.75978 0.31814 -0.24000
 B37 B 0.26027 0.78064 -0.20283
 B38 B 0.27678 0.71417 -0.21320
 B39 B 0.21239 0.73263 -0.20402
 B40 B 0.20152 0.79231 -0.22847
 B41 B 0.25921 0.81215 -0.25199
 B42 B 0.30590 0.76466 -0.24250
 B43 B 0.22657 0.71872 -0.29416
 B44 B 0.21133 0.78399 -0.28423
 B45 B 0.27552 0.76863 -0.29256
 B46 B 0.28634 0.70671 -0.26930
 B47 B 0.22859 0.68662 -0.24503
 B48 B 0.18220 0.73487 -0.25423
 B49 B 1.23109 1.27803 0.70622
 B50 B 1.22041 1.21132 0.72027
 B51 B 1.28206 1.23263 0.70572
 B52 B 1.28956 1.29576 0.72698
 B53 B 1.23239 1.31357 0.75426
 B54 B 1.18984 1.26087 0.74965
 B55 B 1.27649 1.22651 0.79723
 B56 B 1.28477 1.29265 0.78300
 B57 B 1.22344 1.26957 0.79756
 B58 B 1.21718 1.20675 0.77606
 B59 B 1.27453 1.18995 0.74922
 B60 B 1.31638 1.24275 0.75416
 B61 B 0.78134 0.73814 0.79046
 B62 B 0.71954 0.71232 0.78061
 B63 B 0.72854 0.78058 0.78955
 B64 B 0.78486 0.79900 0.76451
 B65 B 0.81158 0.74246 0.74081
 B66 B 0.77172 0.68943 0.75141
 B67 B 0.71686 0.76220 0.69935
 B68 B 0.77762 0.78743 0.70932
 B69 B 0.76913 0.71918 0.70078
 B70 B 0.71225 0.70150 0.72535
 B71 B 0.68576 0.75735 0.74953
 B72 B 0.72596 0.81060 0.73923
 B73 B 1.22589 0.72523 0.29635
 B74 B 1.21156 0.79239 0.28874
 B75 B 1.27590 0.77116 0.29400
 B76 B 1.28110 0.71168 0.26686
 B77 B 1.22186 0.69590 0.24499
 B78 B 1.17821 0.74493 0.25984
 B79 B 1.25382 0.79022 0.20534
 B80 B 1.26779 0.72334 0.21195
 B81 B 1.20320 0.74414 0.20782
 B82 B 1.19793 0.80301 0.23474
 B83 B 1.25905 0.81918 0.25585
 B84 B 1.30205 0.76984 0.24182
 B85 B 0.76725 1.27380 0.20180
 B86 B 0.70144 1.28371 0.21443
 B87 B 0.72424 1.22126 0.20143
 B88 B 0.78558 1.21450 0.22402
 B89 B 0.80040 1.27414 0.25062
 B90 B 0.74869 1.31634 0.24420
 B91 B 0.71438 1.23082 0.29299
 B92 B 0.77972 1.22053 0.27967
 B93 B 0.75692 1.28384 0.29274
 B94 B 0.69520 1.28954 0.27040
 B95 B 0.68054 1.23045 0.24431
 B96 B 0.73266 1.18782 0.25053
 O97 O 0.57223 1.09741 0.07600
 O98 O 0.63125 1.04265 0.03815
 C99 C 0.61978 1.08164 0.06651
 O100 O 0.42173 0.90646 0.08362
 O101 O 0.36129 0.95594 0.04267
 C102 C 0.37370 0.92009 0.07312
 O103 O 0.56618 0.90589 0.08579
 O104 O 0.62830 0.94468 0.03999
 C105 C 0.61458 0.91255 0.07285
 O106 O 0.42790 1.10621 0.07222
 O107 O 0.36413 1.05507 0.03806
 C108 C 0.37867 1.09524 0.06385
 Zr109 Zr 0.49921 1.06939 0.05221
 O110 O 0.49825 1.06869 0.12304
 O111 O 0.50649 1.15479 0.04930
 Zr112 Zr 0.49455 0.93579 0.06050
 O113 O 0.49189 0.94964 0.13060
 O114 O 0.49149 0.85115 0.07147
 O115 O 0.54574 1.00137 0.06438
 O116 O 0.44954 1.00526 0.06508
 O117 O 0.42599 1.09523 -0.07941
 O118 O 0.36283 1.05325 -0.03678
 C119 C 0.37769 1.08963 -0.06593
 O120 O 0.56230 0.89295 -0.07672
 O121 O 0.62652 0.94456 -0.04276
 C122 C 0.61115 0.90731 -0.07122
 O123 O 0.41920 0.89238 -0.07155
 O124 O 0.36055 0.94971 -0.03609
 C125 C 0.37177 0.90907 -0.06306
 O126 O 0.56834 1.07897 -0.08918
 O127 O 0.63033 1.04005 -0.04332
 C128 C 0.61695 1.07154 -0.07698
 Zr129 Zr 0.49659 1.05813 -0.05987
 O130 O 0.49047 1.04267 -0.12939
 O131 O 0.50421 1.14194 -0.07225
 Zr132 Zr 0.49180 0.92461 -0.05099
 O133 O 0.48487 0.91884 -0.12155
 O134 O 0.49383 0.83922 -0.04391
 Zr135 Zr 0.57725 0.99420 -0.00084
 Zr136 Zr 0.41419 1.00073 0.00123
 O137 O 0.44644 0.99303 -0.06328
 O138 O 0.54220 0.98882 -0.06493
 O139 O 0.45124 1.07700 -0.00388
 O140 O 0.53988 0.91826 0.00447
 O141 O 0.54466 1.07242 -0.00504
 O142 O 0.44498 0.92135 0.00598
 H143 H 0.42617 1.00840 0.09160
 H144 H 0.56234 0.88528 0.00498
 H145 H 0.42188 0.99266 -0.08921
 H146 H 0.56871 1.10384 -0.00704
 H147 H 0.50880 0.83292 0.04587
 H148 H 0.46566 0.82903 -0.02254
 H149 H 0.51146 0.94338 -0.13475
 H150 H 0.48975 1.07852 -0.14424
 H151 H 0.51050 1.15985 -0.04312
 H152 H 0.47990 1.16826 0.02757
 H153 H 0.49803 1.10713 0.13277
 H154 H 0.52527 0.96760 0.13966
 O155 O 1.07644 0.58926 0.57691
 O156 O 1.13798 0.54163 0.53618
 C157 C 1.12492 0.57855 0.56608
 O158 O 0.92806 0.39546 0.57046
 O159 O 0.86742 0.45176 0.53700
 C160 C 0.88025 0.41344 0.56546
 O161 O 1.07058 0.39563 0.57436
 O162 O 1.13409 0.44606 0.53898
 C163 C 1.11913 0.40980 0.56821
 O164 O 0.93430 0.60241 0.56738
 O165 O 0.87035 0.54856 0.53634
 C166 C 0.88556 0.58784 0.56293
 Zr167 Zr 1.00412 0.56208 0.55151
 O168 O 0.99784 0.55487 0.62208
 O169 O 1.00657 0.64681 0.55990
 Zr170 Zr 1.00028 0.42819 0.55048
 O171 O 0.99955 0.43792 0.62083
 O172 O 0.99819 0.34285 0.55696
 O173 O 1.05064 0.49363 0.56030
 O174 O 0.95498 0.49677 0.55979
 O175 O 0.93274 0.59963 0.41875
 O176 O 0.87028 0.55088 0.45748
 C177 C 0.88427 0.58886 0.42946
 O178 O 1.07250 0.39711 0.41393
 O179 O 1.13480 0.44202 0.45613
 C180 C 1.12123 0.40634 0.42565
 O181 O 0.92704 0.39843 0.41605
 O182 O 0.86746 0.44983 0.45622
 C183 C 0.87906 0.41236 0.42662
 O184 O 1.07760 0.58865 0.41380
 O185 O 1.13754 0.53964 0.45569
 C186 C 1.12552 0.57522 0.42493
 Zr187 Zr 1.00423 0.56297 0.43940
 O188 O 1.00119 0.55476 0.36893
 O189 O 1.01188 0.64834 0.43628
 Zr190 Zr 1.00047 0.42846 0.43881
 O191 O 0.99619 0.43265 0.36802
 O192 O 1.00232 0.34265 0.43776
 Zr193 Zr 1.08411 0.49326 0.49562
 Zr194 Zr 0.92064 0.49817 0.49557
 O195 O 0.95472 0.49742 0.43114
 O196 O 1.05097 0.49420 0.43054
 O197 O 0.95696 0.57506 0.49550
 O198 O 1.04713 0.41682 0.49484
 O199 O 1.05094 0.57167 0.49566
 O200 O 0.95207 0.41881 0.49461
 H201 H 0.93154 0.49792 0.58636
 H202 H 1.06937 0.38366 0.49497
 H203 H 0.93076 0.49857 0.40480
 H204 H 1.07430 0.60376 0.49558
 H205 H 1.01031 0.32712 0.52828
 H206 H 0.97445 0.32966 0.45833
 H207 H 1.02720 0.45346 0.35751
 H208 H 1.00174 0.59204 0.35672
 H209 H 0.98647 0.66435 0.45781
 H210 H 1.00796 0.66255 0.52957
 H211 H 1.03058 0.53732 0.63335
 H212 H 0.99879 0.40092 0.63356
 O213 O 0.90164 0.57968 -0.08372
 O214 O 0.94608 0.64420 -0.04261
 C215 C 0.91200 0.62944 -0.07325
 O216 O 0.89236 0.43978 0.07610
 O217 O 0.94537 0.37448 0.04424
 C218 C 0.90688 0.39003 0.07107
 O219 O 0.89010 0.58591 0.07328
 O220 O 0.94141 0.64735 0.03550
 C221 C 0.90394 0.63506 0.06394
 O222 O 0.90849 0.43172 -0.08346
 O223 O 0.94840 0.36959 -0.03683
 C224 C 0.91524 0.38270 -0.06894
 Zr225 Zr 0.93416 0.50701 -0.05939
 O226 O 0.85203 0.50783 -0.07211
 O227 O 0.95007 0.50583 -0.12885
 Zr228 Zr 0.92264 0.51137 0.05173
 O229 O 0.83918 0.50655 0.04431
 O230 O 0.91680 0.51709 0.12237
 O231 O 0.91681 0.55795 -0.00552
 O232 O 0.91941 0.46123 -0.00327
 O233 O 1.09497 0.43646 -0.07425
 O234 O 1.04751 0.37244 -0.03688
 C235 C 1.08439 0.38664 -0.06594
 O236 O 1.08288 0.58583 0.08259
 O237 O 1.03545 0.64792 0.04194
 C238 C 1.06860 0.63498 0.07393
 O239 O 1.07683 0.44001 0.09160
 O240 O 1.04160 0.37338 0.04719
 C241 C 1.07234 0.38971 0.08020
 O242 O 1.09901 0.58035 -0.06939
 O243 O 1.04345 0.64455 -0.03877
 C244 C 1.08259 0.62951 -0.06471
 Zr245 Zr 1.06441 0.50840 -0.04966
 O246 O 1.14835 0.51177 -0.04524
 O247 O 1.06773 0.51143 -0.12058
 Zr248 Zr 1.05318 0.51188 0.06111
 O249 O 1.13585 0.51853 0.06951
 O250 O 1.03991 0.51539 0.13099
 Zr251 Zr 0.99259 0.59300 -0.00050
 Zr252 Zr 0.99514 0.42500 0.00278
 O253 O 1.07005 0.46184 0.00749
 O254 O 1.06884 0.55928 0.00553
 O255 O 1.00061 0.45740 -0.06248
 O256 O 0.98688 0.55983 0.06404
 O257 O 0.99932 0.55605 -0.06388
 O258 O 0.98773 0.46219 0.06633
 H259 H 0.88751 0.43830 -0.00406
 H260 H 0.98446 0.58372 0.09069
 H261 H 1.10176 0.43838 0.01020
 H262 H 1.00103 0.57915 -0.09093
 H263 H 0.94164 0.49029 0.13541
 H264 H 1.07531 0.51634 0.14544
 H265 H 1.15141 0.52538 0.03973
 H266 H 1.16194 0.47940 -0.02943
 H267 H 1.04618 0.48141 -0.13286
 H268 H 0.91513 0.50589 -0.14407
 H269 H 0.83447 0.51474 -0.04314
 H270 H 0.82660 0.53974 0.02901
 O271 O 0.40830 0.92890 0.41695
 O272 O 0.44579 0.86295 0.46084
 C273 C 0.41489 0.87884 0.42825
 O274 O 0.60124 1.06358 0.42574
 O275 O 0.55343 1.12996 0.46153
 C276 C 0.58939 1.11372 0.43277
 O277 O 0.58686 0.91857 0.41881
 O278 O 0.53800 0.85774 0.45929
 C279 C 0.57155 0.86994 0.42762
 O280 O 0.40460 1.07539 0.42442
 O281 O 0.45772 1.13547 0.46263
 C282 C 0.42039 1.12396 0.43344
 Zr283 Zr 0.43242 1.00056 0.44792
 O284 O 0.42112 1.00427 0.37774
 O285 O 0.34970 1.00179 0.45824
 Zr286 Zr 0.56497 0.99290 0.44666
 O287 O 0.56623 0.99777 0.37587
 O288 O 0.64833 0.98524 0.45169
 O289 O 0.49615 0.94838 0.43755
 O290 O 0.50103 1.04421 0.43865
 O291 O 0.40758 1.07414 0.58331
 O292 O 0.45755 1.13477 0.54313
 C293 C 0.42084 1.12280 0.57251
 O294 O 0.59162 0.91640 0.58183
 O295 O 0.54075 0.85695 0.54063
 C296 C 0.57724 0.86802 0.57032
 O297 O 0.59963 1.06408 0.58131
 O298 O 0.55504 1.12966 0.54198
 C299 C 0.58982 1.11432 0.57190
 O300 O 0.40935 0.92639 0.58621
 O301 O 0.44635 0.86078 0.54143
 C302 C 0.41439 0.87641 0.57338
 Zr303 Zr 0.43547 0.99967 0.55921
 O304 O 0.44253 1.00115 0.62985
 O305 O 0.35192 1.00432 0.56132
 Zr306 Zr 0.56648 0.99207 0.55763
 O307 O 0.56607 0.99512 0.62855
 O308 O 0.65007 0.98394 0.55590
 Zr309 Zr 0.49540 0.91299 0.50173
 Zr310 Zr 0.50379 1.07975 0.50263
 O311 O 0.50336 1.04421 0.56670
 O312 O 0.49853 0.94630 0.56686
 O313 O 0.42585 1.04993 0.50380
 O314 O 0.57289 0.94389 0.50142
 O315 O 0.42121 0.95237 0.50321
 O316 O 0.57863 1.04139 0.50227
 H317 H 0.50210 1.06753 0.41179
 H318 H 0.60337 0.91876 0.50028
 H319 H 0.50447 1.06767 0.59369
 H320 H 0.38886 0.92984 0.50308
 H321 H 0.66208 0.98353 0.42065
 H322 H 0.66384 1.01153 0.53499
 H323 H 0.54023 0.96800 0.63919
 H324 H 0.40597 1.00205 0.64195
 H325 H 0.33981 1.02919 0.53746
 H326 H 0.33366 0.99480 0.42856
 H327 H 0.45601 1.01163 0.36419
 H328 H 0.53790 0.97386 0.36432
 O329 O 0.88942 0.92348 0.43814
 O330 O 0.94158 0.96789 0.38705
 C331 C 0.90312 0.93581 0.39784
 O332 O 0.91503 1.11117 0.56297
 O333 O 0.95415 1.05290 0.61303
 C334 C 0.92206 1.09247 0.60286
 O335 O 0.90564 1.11115 0.44185
 O336 O 0.95017 1.06072 0.38922
 C337 C 0.91631 1.09771 0.40121
 O338 O 0.89699 0.91594 0.56085
 O339 O 0.95107 0.95947 0.61136
 C340 C 0.91297 0.92661 0.60102
 Zr341 Zr 0.92298 0.94628 0.49939
 O342 O 0.83986 0.95643 0.50583
 O343 O 0.91348 0.86125 0.49448
 Zr344 Zr 0.93853 1.08190 0.50106
 O345 O 0.85712 1.10060 0.49863
 O346 O 0.95701 1.16546 0.50579
 O347 O 0.91825 1.01608 0.46079
 O348 O 0.92154 1.01416 0.53907
 O349 O 1.07391 0.89423 0.55566
 O350 O 1.04356 0.95352 0.60902
 C351 C 1.07252 0.91260 0.59624
 O352 O 1.10358 1.08615 0.43760
 O353 O 1.04599 1.04733 0.38708
 C354 C 1.08842 1.07445 0.39740
 O355 O 1.09813 1.09466 0.56092
 O356 O 1.04730 1.04768 0.61129
 C357 C 1.08444 1.08172 0.60122
 O358 O 1.07289 0.89972 0.43247
 O359 O 1.03103 0.95805 0.38424
 C360 C 1.06151 0.91710 0.39272
 Zr361 Zr 1.05492 0.93254 0.49556
 O362 O 1.13719 0.94275 0.48630
 O363 O 1.06365 0.84737 0.49429
 Zr364 Zr 1.06917 1.06665 0.49890
 O365 O 1.15217 1.05425 0.50117
 O366 O 1.07780 1.15180 0.49444
 Zr367 Zr 0.99345 1.00810 0.43144
 Zr368 Zr 0.99792 1.00469 0.56664
 O369 O 1.07318 0.99717 0.53672
 O370 O 1.07080 0.99921 0.45686
 O371 O 0.98940 0.92733 0.53742
 O372 O 1.00372 1.08515 0.46013
 O373 O 0.98628 0.92985 0.45865
 O374 O 1.00567 1.08377 0.54089
 H375 H 0.89002 1.01572 0.55854
 H376 H 1.00701 1.11676 0.44001
 H377 H 1.10534 0.99381 0.55563
 H378 H 0.98148 0.89748 0.43935
 H379 H 0.95626 1.18135 0.47541
 H380 H 1.05613 1.16828 0.51851
 H381 H 1.16857 1.09069 0.50146
 H382 H 1.15175 0.90693 0.47749
 H383 H 1.02766 0.83259 0.48962
 H384 H 0.94077 0.84439 0.51386
 H385 H 0.82696 0.97672 0.47940
 H386 H 0.83835 1.06576 0.49519
 O387 O 0.58098 0.41145 0.07614
 O388 O 0.52857 0.46413 0.12163
 C389 C 0.56397 0.42693 0.11487
 O390 O 0.59720 0.59922 -0.05396
 O391 O 0.55410 0.54714 -0.10644
 C392 C 0.58826 0.58381 -0.09475
 O393 O 0.59569 0.59208 0.06886
 O394 O 0.53689 0.55283 0.11761
 C395 C 0.57919 0.58056 0.10855
 O396 O 0.58222 0.39526 -0.04531
 O397 O 0.55444 0.45090 -0.10165
 C398 C 0.58261 0.41054 -0.08636
 Zr399 Zr 0.56256 0.43868 0.01161
 O400 O 0.64462 0.45488 0.01671
 O401 O 0.58011 0.35523 0.01804
 Zr402 Zr 0.56294 0.57410 0.00660
 O403 O 0.64564 0.58741 0.00833
 O404 O 0.55379 0.65937 0.01022
 O405 O 0.56908 0.50762 0.04933
 O406 O 0.57722 0.50373 -0.02960
 O407 O 0.42148 0.39809 -0.05926
 O408 O 0.45977 0.45492 -0.10941
 C409 C 0.42863 0.41487 -0.09947
 O410 O 0.39118 0.59774 0.05530
 O411 O 0.43753 0.55490 0.11111
 C412 C 0.39913 0.58523 0.09687
 O413 O 0.41276 0.60373 -0.06683
 O414 O 0.46258 0.54878 -0.11296
 C415 C 0.42763 0.58690 -0.10587
 O416 O 0.39559 0.41581 0.05958
 O417 O 0.43579 0.46734 0.11341
 C418 C 0.40038 0.43261 0.10029
 Zr419 Zr 0.43146 0.43915 0.00054
 O420 O 0.34955 0.44094 -0.01437
 O421 O 0.42438 0.35434 0.00844
 Zr422 Zr 0.43237 0.57552 -0.00278
 O423 O 0.34960 0.58715 -0.01067
 O424 O 0.44287 0.66038 -0.00069
 Zr425 Zr 0.48976 0.50907 0.07137
 Zr426 Zr 0.50407 0.50290 -0.06367
 O427 O 0.42546 0.50546 -0.04073
 O428 O 0.41650 0.50876 0.03721
 O429 O 0.50116 0.42601 -0.03337
 O430 O 0.49367 0.58650 0.04221
 O431 O 0.49231 0.43002 0.04534
 O432 O 0.50185 0.58324 -0.03911
 H433 H 0.61022 0.50150 -0.04748
 H434 H 0.49202 0.61782 0.06307
 H435 H 0.39639 0.50416 -0.06296
 H436 H 0.48891 0.39822 0.06524
 H437 H 0.54559 0.67247 -0.02034
 H438 H 0.40684 0.67640 -0.00176
 H439 H 0.33613 0.55985 -0.03211
 H440 H 0.33575 0.47580 -0.00287
 H441 H 0.45923 0.33837 0.00078
 H442 H 0.54589 0.33667 0.02268
 H443 H 0.66080 0.42546 0.03467
 H444 H 0.66290 0.55142 0.00773
 C445 C 0.36134 1.17784 0.10861
 C446 C 0.33430 1.20731 0.14073
 C447 C 0.28259 1.19410 0.15425
 C448 C 0.25605 1.15300 0.12847
 C449 C 0.28452 1.12207 0.09515
 C450 C 0.33952 1.13178 0.08794
 C451 C 0.25624 1.08349 0.06990
 N452 N 0.20401 1.07550 0.07751
 N453 N 0.17773 1.10381 0.10825
 C454 C 0.20175 1.14216 0.13359
 H455 H 0.40172 1.19020 0.10204
 H456 H 0.35637 1.23950 0.15665
 H457 H 0.27400 1.06032 0.04334
 H458 H 0.17712 1.16481 0.15589
 C459 C 0.87329 0.63512 0.63431
 C460 C 0.84692 0.66627 0.66542
 C461 C 0.79326 0.68022 0.66063
 C462 C 0.76560 0.65661 0.62296
 C463 C 0.79451 0.62806 0.58867
 C464 C 0.84920 0.61710 0.59457
 C465 C 0.76747 0.61172 0.54977
 N466 N 0.71439 0.61892 0.54666
 N467 N 0.68668 0.64114 0.57986
 C468 C 0.71023 0.65944 0.61784
 H469 H 0.91432 0.62570 0.64185
 H470 H 0.87018 0.67849 0.69411
 H471 H 0.78770 0.59338 0.52174
 H472 H 0.68482 0.67485 0.64354
 C473 C 0.63351 0.82640 0.11117
 C474 C 0.66023 0.79452 0.14206
 C475 C 0.70990 0.80900 0.15905
 C476 C 0.73527 0.85501 0.13862
 C477 C 0.70556 0.89055 0.10988
 C478 C 0.65331 0.87665 0.09696
 C479 C 0.72930 0.93895 0.09566
 N480 N 0.78075 0.94883 0.10548
 N481 N 0.81000 0.91357 0.12843
 C482 C 0.78932 0.86707 0.14476
 H483 H 0.59465 0.81285 0.10055
 H484 H 0.63966 0.75964 0.15428
 H485 H 0.70806 0.96896 0.07654
 H486 H 0.81646 0.83922 0.16010
 C487 C 1.13381 0.37263 0.64257
 C488 C 1.15812 0.33904 0.67300
 C489 C 1.20849 0.31646 0.66533
 C490 C 1.23594 0.33467 0.62571
 C491 C 1.20787 0.36453 0.59189
 C492 C 1.15590 0.38323 0.60052
 C493 C 1.23316 0.37502 0.55099
 N494 N 1.28484 0.36172 0.54564
 N495 N 1.31270 0.33898 0.57849
 C496 C 1.29036 0.32594 0.61827
 H497 H 1.09530 0.38868 0.65174
 H498 H 1.13603 0.33137 0.70328
 H499 H 1.21288 0.39419 0.52338
 H500 H 1.31621 0.31051 0.64357
 C501 C 0.63192 1.15170 -0.12438
 C502 C 0.65835 1.18354 -0.15478
 C503 C 0.71252 1.17703 -0.16448
 C504 C 0.73922 1.13363 -0.14119
 C505 C 0.71015 1.09762 -0.11190
 C506 C 0.65526 1.10648 -0.10354
 C507 C 0.73722 1.05369 -0.09265
 N508 N 0.78981 1.04708 -0.09989
 N509 N 0.81716 1.08131 -0.12514
 C510 C 0.79387 1.12413 -0.14576
 H511 H 0.59091 1.16256 -0.11863
 H512 H 0.63443 1.21440 -0.17059
 H513 H 0.71744 1.02440 -0.07192
 H514 H 0.81899 1.15039 -0.16460
 C515 C 1.17582 0.59147 0.35585
 C516 C 1.19755 0.62847 0.32590
 C517 C 1.20988 0.68286 0.33803
 C518 C 1.20529 0.69537 0.38498
 C519 C 1.18549 0.65597 0.41581
 C520 C 1.16745 0.60513 0.40050
 C521 C 1.18236 0.66926 0.46149
 N522 N 1.19660 0.71920 0.47579
 N523 N 1.21310 0.75670 0.44722
 C524 C 1.21751 0.74635 0.40274
 H525 H 1.16223 0.55270 0.34320
 H526 H 1.20163 0.61359 0.29207
 H527 H 1.16941 0.63995 0.48589
 H528 H 1.22818 0.77866 0.38165
 C529 C 0.32779 0.82440 -0.08889
 C530 C 0.30223 0.79449 -0.12253
 C531 C 0.27880 0.81956 -0.15997
 C532 C 0.27441 0.87824 -0.15828
 C533 C 0.30242 0.90827 -0.12469
 C534 C 0.33008 0.88118 -0.09015
 C535 C 0.30305 0.96521 -0.12731
 N536 N 0.27389 0.99111 -0.15866
 N537 N 0.24383 0.96393 -0.18740
 C538 C 0.24246 0.90912 -0.18791
 H539 H 0.34856 0.80264 -0.06266
 H540 H 0.30181 0.75100 -0.11926
 H541 H 0.32572 0.98971 -0.10442
 H542 H 0.21436 0.89180 -0.21046
 C543 C 0.84114 0.32621 0.39837
 C544 C 0.81185 0.29630 0.36728
 C545 C 0.77795 0.32103 0.33583
 C546 C 0.76784 0.37833 0.34225
 C547 C 0.79750 0.40856 0.37491
 C548 C 0.83650 0.38263 0.40153
 C549 C 0.78776 0.46442 0.37936
 N550 N 0.75005 0.48879 0.35420
 N551 N 0.72127 0.46105 0.32484
 C552 C 0.72856 0.40724 0.31819
 H553 H 0.86957 0.30497 0.41924
 H554 H 0.81769 0.25328 0.36768
 H555 H 0.80901 0.48915 0.40302
 H556 H 0.70164 0.38844 0.29536
 C557 C 1.09675 0.30158 0.12336
 C558 C 1.12895 0.27629 0.15664
 C559 C 1.17043 0.30451 0.17907
 C560 C 1.17603 0.36064 0.16744
 C561 C 1.15472 0.37857 0.12640
 C562 C 1.10939 0.35350 0.10730
 C563 C 1.17881 0.42319 0.10604
 N564 N 1.20981 0.45690 0.13035
 N565 N 1.21969 0.44695 0.17326
 C566 C 1.20340 0.40043 0.19281
 H567 H 1.06238 0.28062 0.11034
 H568 H 1.11981 0.23518 0.16610
 H569 H 1.17261 0.43089 0.07083
 H570 H 1.21009 0.39759 0.22802
 C571 C 0.58932 0.80432 0.63261
 C572 C 0.62395 0.78070 0.66335
 C573 C 0.67932 0.77742 0.65574
 C574 C 0.69747 0.79175 0.61173
 C575 C 0.66143 0.81529 0.58040
 C576 C 0.60788 0.82432 0.59211
 C577 C 0.68025 0.83058 0.53800
 N578 N 0.73162 0.82248 0.52708
 N579 N 0.76539 0.80004 0.55579
 C580 C 0.75007 0.78440 0.59723
 H581 H 0.54839 0.81096 0.64218
 H582 H 0.60658 0.76810 0.69465
 H583 H 0.65429 0.84759 0.51301
 H584 H 0.77950 0.76580 0.61755
 C585 C 1.10696 0.64715 -0.14156
 C586 C 1.13910 0.66988 -0.17365
 C587 C 1.17147 0.71485 -0.16414
 C588 C 1.16186 0.74181 -0.12225
 C589 C 1.13425 0.71436 -0.08750
 C590 C 1.10698 0.66625 -0.09745
 C591 C 1.13385 0.73688 -0.04448
 N592 N 1.15248 0.78774 -0.03802
 N593 N 1.17067 0.81701 -0.07204
 C594 C 1.17467 0.79605 -0.11401
 H595 H 1.08420 0.61168 -0.15083
 H596 H 1.13892 0.65041 -0.20617
 H597 H 1.11789 0.71485 -0.01650
 H598 H 1.18378 0.82299 -0.14090
 C599 C 0.62699 1.12867 0.35851
 C600 C 0.65767 1.15468 0.32722
 C601 C 0.67880 1.20657 0.33474
 C602 C 0.66288 1.23326 0.37564
 C603 C 0.63523 1.20387 0.40985
 C604 C 0.61701 1.15083 0.40099
 C605 C 0.62631 1.22910 0.45139
 N606 N 0.63902 1.28191 0.45712
 N607 N 0.65941 1.31098 0.42395
 C608 C 0.67078 1.28866 0.38350
 H609 H 0.61183 1.08923 0.34914
 H610 H 0.66428 1.13264 0.29638
 H611 H 0.60895 1.20775 0.47920
 H612 H 0.68260 1.31528 0.35740
 C613 C 0.82142 0.68039 0.09049
 C614 C 0.79293 0.70546 0.12508
 C615 C 0.81830 0.72544 0.16384
 C616 C 0.87481 0.73176 0.16141
 C617 C 0.90367 0.70664 0.12573
 C618 C 0.87686 0.67784 0.09136
 C619 C 0.95909 0.71037 0.12588
 N620 N 0.98442 0.73935 0.15787
 N621 N 0.95782 0.76524 0.18978
 C622 C 0.90430 0.76294 0.19240
 H623 H 0.79971 0.65970 0.06420
 H624 H 0.75018 0.70487 0.12288
 H625 H 0.98235 0.69192 0.10015
 H626 H 0.88632 0.78798 0.21745
 C627 C 0.40853 1.18494 0.63688
 C628 C 0.37439 1.20755 0.66883
 C629 C 0.31863 1.21121 0.66237
 C630 C 0.29957 1.19529 0.61887
 C631 C 0.33475 1.17148 0.58671
 C632 C 0.38935 1.16506 0.59624
 C633 C 0.31407 1.15381 0.54536
 N634 N 0.26213 1.16120 0.53580
 N635 N 0.22970 1.18532 0.56474
 C636 C 0.24681 1.20269 0.60538
 H637 H 0.44993 1.17932 0.64550
 H638 H 0.39285 1.22040 0.69972
 H639 H 0.33904 1.13508 0.52024
 H640 H 0.21947 1.22427 0.62560
 C641 C 0.89200 0.29609 -0.11135
 C642 C 0.85926 0.27077 -0.14370
 C643 C 0.81286 0.29594 -0.16033
 C644 C 0.79756 0.35199 -0.14114
 C645 C 0.82545 0.36504 -0.09842
 C646 C 0.87628 0.34370 -0.08914
 C647 C 0.80178 0.40488 -0.07142
 N648 N 0.76281 0.43801 -0.08718
 N649 N 0.74273 0.43507 -0.12848
 C650 C 0.75593 0.39570 -0.15813
 H651 H 0.93087 0.27916 -0.10469
 H652 H 0.87295 0.23326 -0.15861
 H653 H 0.81558 0.41117 -0.03764
 H654 H 0.77578 0.36947 -0.15398
 C655 C 0.33102 0.86000 0.39147
 C656 C 0.30073 0.83686 0.35819
 C657 C 0.31574 0.78938 0.33543
 C658 C 0.36605 0.76562 0.34822
 C659 C 0.39935 0.79266 0.38046
 C660 C 0.38155 0.84068 0.40178
 C661 C 0.45003 0.77148 0.38939
 N662 N 0.46604 0.72500 0.36944
 N663 N 0.43480 0.69836 0.34113
 C664 C 0.38579 0.71671 0.33009
 H665 H 0.31565 0.89624 0.40755
 H666 H 0.26402 0.85698 0.35140
 H667 H 0.47710 0.79099 0.41217
 H668 H 0.36356 0.69151 0.30806
 C669 C 1.10191 1.12901 0.33091
 C670 C 1.13485 1.16162 0.30612
 C671 C 1.19070 1.15840 0.31017
 C672 C 1.21201 1.11327 0.33425
 C673 C 1.17807 1.08348 0.36274
 C674 C 1.12305 1.09393 0.36218
 C675 C 1.19952 1.04132 0.38878
 N676 N 1.25110 1.02743 0.38416
 N677 N 1.28236 1.05267 0.35522
 C678 C 1.26446 1.09432 0.32977
 H679 H 1.05971 1.13393 0.32786
 H680 H 1.11534 1.19080 0.28470
 H681 H 1.17522 1.01747 0.41099
 H682 H 1.29111 1.10991 0.30521
 C683 C 0.62110 0.66724 -0.12722
 C684 C 0.65264 0.69645 -0.15591
 C685 C 0.68475 0.67145 -0.18841
 C686 C 0.68176 0.61302 -0.19253
 C687 C 0.65032 0.58327 -0.16150
 C688 C 0.61965 0.61106 -0.12924
 C689 C 0.65106 0.52627 -0.16317
 N690 N 0.67801 0.50021 -0.19583
 N691 N 0.70490 0.52731 -0.22655
 C692 C 0.70770 0.58211 -0.22616
 H693 H 0.59766 0.68908 -0.10262
 H694 H 0.65112 0.73938 -0.15171
 H695 H 0.63088 0.50195 -0.13877
 H696 H 0.72919 0.59910 -0.25327
 C697 C 0.90491 1.13675 0.67642
 C698 C 0.87433 1.17398 0.70057
 C699 C 0.82710 1.19639 0.68223
 C700 C 0.81426 1.18255 0.63761
 C701 C 0.83618 1.13530 0.61974
 C702 C 0.88591 1.11684 0.63576
 C703 C 0.80990 1.11094 0.58344
 N704 N 0.77417 1.13993 0.55938
 N705 N 0.76118 1.19020 0.57133
 C706 C 0.78018 1.21243 0.60973
 H707 H 0.94327 1.12417 0.68910
 H708 H 0.88842 1.18565 0.73346
 H709 H 0.81973 1.07038 0.57281
 H710 H 0.76548 1.25094 0.61928
 C711 C 0.38157 0.62975 0.16878
 C712 C 0.35121 0.66567 0.19369
 C713 C 0.30089 0.68378 0.17864
 C714 C 0.28241 0.66354 0.13671
 C715 C 0.30926 0.62027 0.11587
 C716 C 0.36164 0.60809 0.12915
 C717 C 0.28445 0.59361 0.07976
 N718 N 0.24085 0.61592 0.06060
 N719 N 0.22165 0.66311 0.07504
 C720 C 0.24225 0.68817 0.11163
 H721 H 0.42178 0.62100 0.17946
 H722 H 0.36901 0.68096 0.22416
 H723 H 0.30037 0.55633 0.06602
 H724 H 0.23101 0.72913 0.11838
 C725 C 1.10061 0.88212 0.67275
 C726 C 1.13435 0.85142 0.69975
 C727 C 1.17633 0.81997 0.68137
 C728 C 1.18434 0.82214 0.63378
 C729 C 1.15678 0.86169 0.60942
 C730 C 1.11077 0.88662 0.62719
 C731 C 1.17664 0.87605 0.56743
 N732 N 1.21061 0.84311 0.54542
 N733 N 1.22967 0.79905 0.56510
 C734 C 1.21869 0.78810 0.60852
 H735 H 1.06647 0.90201 0.68746
 H736 H 1.12527 0.85056 0.73510
 H737 H 1.16688 0.91471 0.55376
 H738 H 1.23943 0.75450 0.62216
 C739 C 0.63680 0.41250 0.16513
 C740 C 0.67220 0.37509 0.18215
 C741 C 0.65852 0.32015 0.18770
 C742 C 0.60574 0.30373 0.17534
 C743 C 0.56954 0.34329 0.15912
 C744 C 0.58641 0.39685 0.15203
 C745 C 0.51741 0.32796 0.14830
 N746 N 0.50257 0.27560 0.15186
 N747 N 0.53665 0.23767 0.16504
 C748 C 0.58732 0.24966 0.17645
 H749 H 0.65039 0.45324 0.15890
 H750 H 0.71111 0.39026 0.19031
 H751 H 0.48832 0.35740 0.13741
 H752 H 0.61205 0.21590 0.18446
 C753 C 0.89099 0.85826 0.34955
 C754 C 0.85758 0.82274 0.32763
 C755 C 0.80443 0.83644 0.31753
 C756 C 0.78560 0.88928 0.33099
 C757 C 0.82048 0.92483 0.35398
 C758 C 0.87280 0.90876 0.36314
 C759 C 0.80200 0.97580 0.36836
 N760 N 0.75160 0.99119 0.35976
 N761 N 0.71849 0.95854 0.33816
 C762 C 0.73358 0.90864 0.32384
 H763 H 0.93063 0.84484 0.35840
 H764 H 0.87416 0.78345 0.31958
 H765 H 0.82750 1.00339 0.38629
 H766 H 0.70397 0.88575 0.30764
 C767 C 0.35126 0.35826 -0.11535
 C768 C 0.31515 0.33252 -0.14240
 C769 C 0.31750 0.33741 -0.18877
 C770 C 0.35361 0.37642 -0.20708
 C771 C 0.39547 0.39686 -0.17993
 C772 C 0.39382 0.38827 -0.13309
 C773 C 0.43631 0.42604 -0.20090
 N774 N 0.43112 0.44117 -0.24423
 N775 N 0.38795 0.42917 -0.26779
 C776 C 0.34880 0.39824 -0.25052
 H777 H 0.34632 0.35194 -0.07974
 H778 H 0.28766 0.30527 -0.12638
 H779 H 0.47251 0.43671 -0.18396
 H780 H 0.31323 0.39428 -0.27012
 C781 C 1.16183 0.37326 -0.11699
 C782 C 1.19223 0.34699 -0.14910
 C783 C 1.18740 0.29162 -0.15865
 C784 C 1.14735 0.26314 -0.13308
 C785 C 1.11304 0.29181 -0.10179
 C786 C 1.11967 0.34825 -0.09373
 C787 C 1.07300 0.26264 -0.07999
 N788 N 1.06792 0.20878 -0.08704
 N789 N 1.10013 0.18192 -0.11443
 C790 C 1.13929 0.20695 -0.13729
 H791 H 1.17099 0.41571 -0.11227
 H792 H 1.21963 0.37210 -0.16738
 H793 H 1.04565 0.28148 -0.05712
 H794 H 1.16373 0.18162 -0.15743
 C795 C 0.59350 0.84468 0.35108
 C796 C 0.62821 0.82179 0.32057
 C797 C 0.66509 0.78136 0.33292
 C798 C 0.65563 0.75595 0.37534
 C799 C 0.62277 0.78227 0.40801
 C800 C 0.59370 0.82912 0.39603
 C801 C 0.61929 0.75983 0.45099
 N802 N 0.64286 0.71155 0.45966
 N803 N 0.66897 0.68428 0.42804
 C804 C 0.67513 0.70437 0.38612
 H805 H 0.56922 0.87846 0.34007
 H806 H 0.62735 0.83876 0.28721
 H807 H 0.59653 0.77904 0.47723
 H808 H 0.69290 0.67868 0.36131
 C809 C 0.82699 0.66754 -0.09887
 C810 C 0.79636 0.69355 -0.13123
 C811 C 0.81940 0.72273 -0.16648
 C812 C 0.87588 0.73215 -0.16378
 C813 C 0.90702 0.70405 -0.13118
 C814 C 0.88227 0.67032 -0.09949
 C815 C 0.96251 0.70946 -0.13197
 N816 N 0.98554 0.74366 -0.16128
 N817 N 0.95677 0.77283 -0.18975
 C818 C 0.90327 0.76872 -0.19173
 H819 H 0.80729 0.64230 -0.07442
 H820 H 0.75422 0.68864 -0.12894
 H821 H 0.98789 0.68745 -0.10925
 H822 H 0.88362 0.79599 -0.21409
 C823 C 0.34322 1.18044 0.40955
 C824 C 0.31183 1.19950 0.37391
 C825 C 0.33041 1.20060 0.32923
 C826 C 0.38478 1.18375 0.32242
 C827 C 0.41806 1.17204 0.36010
 C828 C 0.39646 1.16592 0.40338
 C829 C 0.47234 1.16222 0.35310
 N830 N 0.49174 1.15892 0.31104
 N831 N 0.46009 1.16351 0.27563
 C832 C 0.40762 1.17441 0.27983
 H833 H 0.32476 1.17419 0.44181
 H834 H 0.27103 1.20945 0.38125
 H835 H 0.49934 1.15696 0.38088
 H836 H 0.38495 1.17153 0.24973
 C837 C 1.09899 0.65198 0.15007
 C838 C 1.13217 0.67610 0.18055
 C839 C 1.15645 0.72622 0.17208
 C840 C 1.13663 0.75581 0.13408
 C841 C 1.10408 0.72915 0.10125
 C842 C 1.08965 0.67438 0.10774
 C843 C 1.08641 0.75877 0.06411
 N844 N 1.10010 0.81150 0.05972
 N845 N 1.12996 0.83650 0.09015
 C846 C 1.14833 0.81053 0.12704
 H847 H 1.08322 0.61279 0.15908
 H848 H 1.13930 0.65311 0.21070
 H849 H 1.06038 0.74139 0.03933
 H850 H 1.17004 0.83352 0.15108
 C851 C 0.66717 1.13301 0.61897
 C852 C 0.69396 1.15951 0.65276
 C853 C 0.67992 1.21167 0.66753
 C854 C 0.62885 1.23161 0.65218
 C855 C 0.60129 1.20428 0.61637
 C856 C 0.62066 1.15385 0.59988
 C857 C 0.55342 1.22687 0.60047
 N858 N 0.53211 1.27085 0.62067
 N859 N 0.55492 1.29357 0.65608
 C860 C 0.60145 1.27509 0.67283
 H861 H 0.68289 1.09395 0.60874
 H862 H 0.72756 1.13807 0.66666
 H863 H 0.53194 1.21058 0.57251
 H864 H 0.61476 1.29475 0.70250
 C865 C 0.85487 0.37793 0.13949
 C866 C 0.81886 0.35288 0.16687
 C867 C 0.80434 0.29848 0.16115
 C868 C 0.82913 0.26974 0.12436
 C869 C 0.86235 0.29812 0.09304
 C870 C 0.87599 0.35291 0.10110
 C871 C 0.88075 0.27041 0.05494
 N872 N 0.87059 0.21697 0.04981
 N873 N 0.84343 0.18947 0.08026
 C874 C 0.82309 0.21371 0.11726
 H875 H 0.86509 0.41915 0.14853
 H876 H 0.80446 0.37745 0.19426
 H877 H 0.90322 0.29028 0.02915
 H878 H 0.80341 0.18812 0.14056
 C879 C 0.39020 0.79070 0.61744
 C880 C 0.35684 0.76794 0.65060
 C881 C 0.31296 0.79710 0.66843
 C882 C 0.30393 0.85052 0.65013
 C883 C 0.32722 0.86324 0.60867
 C884 C 0.37586 0.83938 0.59631
 C885 C 0.30445 0.90448 0.58259
 N886 N 0.27044 0.94012 0.60148
 N887 N 0.25655 0.93524 0.64409
 C888 C 0.27240 0.89246 0.66918
 H889 H 0.42725 0.77092 0.60906
 H890 H 0.36737 0.72875 0.66423
 H891 H 0.31590 0.91003 0.54805
 H892 H 0.25956 0.89363 0.70308
 C893 C 0.29508 1.11544 -0.10847
 C894 C 0.27454 1.14772 -0.14321
 C895 C 0.30145 1.19435 -0.15919
 C896 C 0.35010 1.20778 -0.13694
 C897 C 0.36290 1.18210 -0.09598
 C898 C 0.34097 1.13092 -0.08573
 C899 C 0.40288 1.20461 -0.06892
 N900 N 0.43525 1.24294 -0.08587
 N901 N 0.42960 1.26005 -0.12779
 C902 C 0.38909 1.24286 -0.15416
 H903 H 0.27667 1.07703 -0.10110
 H904 H 0.23959 1.13280 -0.16001
 H905 H 0.41046 1.18932 -0.03555
 H906 H 0.38829 1.25787 -0.18769
 C907 C 0.82635 0.60110 0.36427
 C908 C 0.79875 0.63351 0.33416
 C909 C 0.78890 0.68946 0.34197
 C910 C 0.80234 0.70935 0.38574
 C911 C 0.83100 0.67558 0.41653
 C912 C 0.84371 0.62128 0.40518
 C913 C 0.84614 0.69727 0.45815
 N914 N 0.83160 0.74841 0.46938
 N915 N 0.80268 0.77898 0.44191
 C916 C 0.78724 0.76103 0.40094
 H917 H 0.83721 0.56047 0.35400
 H918 H 0.78710 0.61353 0.30348
 H919 H 0.86855 0.67362 0.48214
 H920 H 0.76154 0.78664 0.38165
 C921 C 0.68052 1.09286 0.13102
 C922 C 0.70240 1.12737 0.16338
 C923 C 0.70594 1.18426 0.15731
 C924 C 0.69126 1.20438 0.11382
 C925 C 0.66877 1.16861 0.08109
 C926 C 0.66156 1.11294 0.09041
 C927 C 0.65261 1.18987 0.03957
 N928 N 0.65871 1.24316 0.03083
 N929 N 0.68044 1.27650 0.06062
 C930 C 0.69716 1.25894 0.10123
 H931 H 0.67459 1.05061 0.13934
 H932 H 0.71430 1.10856 0.19446
 H933 H 0.63595 1.16436 0.01369
 H934 H 0.71524 1.28823 0.12249
 C935 C 1.20629 0.59839 0.61591
 C936 C 1.22738 0.63206 0.65048
 C937 C 1.20123 0.68046 0.66447
 C938 C 1.15343 0.69330 0.64036
 C939 C 1.14460 0.66939 0.59797
 C940 C 1.16363 0.61639 0.58920
 C941 C 1.11014 0.69583 0.56803
 N942 N 1.07744 0.73534 0.58326
 N943 N 1.07713 0.74918 0.62632
 C944 C 1.11259 0.72787 0.65568
 H945 H 1.22238 0.55810 0.61095
 H946 H 1.26217 0.61815 0.66840
 H947 H 1.10631 0.68256 0.53370
 H948 H 1.10802 0.73916 0.69006
 C949 C 0.62617 0.86922 -0.14579
 C950 C 0.65303 0.83939 -0.17761
 C951 C 0.70492 0.82011 -0.17049
 C952 C 0.73115 0.83872 -0.13048
 C953 C 0.70162 0.86591 -0.09594
 C954 C 0.64815 0.88086 -0.10372
 C955 C 0.72705 0.87745 -0.05512
 N956 N 0.77966 0.86782 -0.05059
 N957 N 0.80833 0.84789 -0.08420
 C958 C 0.78602 0.83392 -0.12393
 H959 H 0.58634 0.88214 -0.15429
 H960 H 0.63134 0.83101 -0.20810
 H961 H 0.70606 0.89435 -0.02687
 H962 H 0.81199 0.82240 -0.15054
 C963 C 1.14499 0.31646 0.39425
 C964 C 1.17461 0.28166 0.36722
 C965 C 1.22299 0.29750 0.34834
 C966 C 1.24520 0.34721 0.36477
 C967 C 1.21332 0.38458 0.39012
 C968 C 1.16150 0.36964 0.40374
 C969 C 1.23450 0.43587 0.39997
 N970 N 1.28544 0.44713 0.38935
 N971 N 1.31659 0.41067 0.36956
 C972 C 1.29840 0.36117 0.35735
 H973 H 1.10681 0.30230 0.40580
 H974 H 1.15676 0.24359 0.35843
 H975 H 1.21161 0.46721 0.41613
 H976 H 1.32656 0.33249 0.34408
 C977 C 0.33646 0.83498 0.10048
 C978 C 0.30936 0.80510 0.13229
 C979 C 0.27361 0.82862 0.16293
 C980 C 0.26525 0.88656 0.15879
 C981 C 0.29643 0.91742 0.12799
 C982 C 0.33212 0.89118 0.09867
 C983 C 0.29276 0.97425 0.12886
 N984 N 0.25737 0.99909 0.15598
 N985 N 0.22554 0.97084 0.18235
 C986 C 0.22808 0.91606 0.18455
 H987 H 0.36467 0.81406 0.07914
 H988 H 0.32018 0.76340 0.13370
 H989 H 0.31769 0.99929 0.10828
 H990 H 0.19958 0.89727 0.20559
 C991 C 0.86525 0.37968 0.64161
 C992 C 0.83910 0.35080 0.67440
 C993 C 0.78680 0.33198 0.66893
 C994 C 0.75987 0.35082 0.62931
 C995 C 0.78835 0.37752 0.59388
 C996 C 0.84251 0.39074 0.59969
 C997 C 0.76143 0.38934 0.55390
 N998 N 0.70897 0.37856 0.55025
 N999 N 0.68187 0.35682 0.58388
 C1000 C 0.70558 0.34309 0.62307
 H1001 H 0.90541 0.39203 0.64912
 H1002 H 0.86204 0.34320 0.70428
 H1003 H 0.78131 0.40728 0.52564
 H1004 H 0.68184 0.32752 0.64942
 C1005 C 1.10821 1.16477 0.64016
 C1006 C 1.14024 1.19431 0.66868
 C1007 C 1.18114 1.16987 0.69381
 C1008 C 1.18188 1.11153 0.69576
 C1009 C 1.14881 1.08149 0.66600
 C1010 C 1.11340 1.10888 0.63727
 C1011 C 1.15183 1.02464 0.66597
 N1012 N 1.18275 0.99887 0.69620
 N1013 N 1.21155 1.02623 0.72581
 C1014 C 1.21219 1.08111 0.72674
 H1015 H 1.07992 1.18606 0.61915
 H1016 H 1.13404 1.23738 0.66895
 H1017 H 1.12927 1.00039 0.64277
 H1018 H 1.23429 1.09877 0.75347
 C1019 C 0.59428 0.63746 0.17271
 C1020 C 0.62886 0.67044 0.19549
 C1021 C 0.68488 0.66606 0.19064
 C1022 C 0.70472 0.61907 0.16782
 C1023 C 0.66876 0.58675 0.14294
 C1024 C 0.61386 0.59848 0.14413
 C1025 C 0.68854 0.54307 0.11746
 N1026 N 0.74074 0.53052 0.11887
 N1027 N 0.77439 0.55894 0.14382
 C1028 C 0.75827 0.60217 0.16848
 H1029 H 0.55209 0.64586 0.17431
 H1030 H 0.60975 0.70124 0.21553
 H1031 H 0.66267 0.51773 0.09757
 H1032 H 0.78820 0.62245 0.18753
 C1033 C 1.09172 0.83211 0.36128
 C1034 C 1.13293 0.80395 0.34174
 C1035 C 1.17399 0.83080 0.31902
 C1036 C 1.16966 0.88877 0.31384
 C1037 C 1.12274 0.91530 0.32791
 C1038 C 1.08738 0.88800 0.35619
 C1039 C 1.11346 0.96899 0.31431
 N1040 N 1.15159 0.99655 0.29243
 N1041 N 1.19877 0.97447 0.28477
 C1042 C 1.20951 0.92232 0.29562
 H1043 H 1.06408 0.81036 0.38230
 H1044 H 1.13194 0.76036 0.34451
 H1045 H 1.07595 0.98889 0.31968
 H1046 H 1.24964 0.90942 0.29097
 C1047 C 0.60609 0.37660 -0.16153
 C1048 C 0.63561 0.34519 -0.19078
 C1049 C 0.67598 0.31046 -0.17570
 C1050 C 0.68641 0.30382 -0.12521
 C1051 C 0.65897 0.34586 -0.09768
 C1052 C 0.61728 0.37824 -0.11588
 C1053 C 0.67983 0.35294 -0.05421
 N1054 N 0.71518 0.31801 -0.03543
 N1055 N 0.73530 0.27483 -0.05620
 C1056 C 0.72526 0.26355 -0.09963
 H1057 H 0.57432 0.40118 -0.17522
 H1058 H 0.62633 0.34878 -0.22602
 H1059 H 0.67110 0.38861 -0.03546
 H1060 H 0.70679 0.28126 -0.11704
 C1061 C 0.83185 1.11938 0.36703
 C1062 C 0.80035 1.14743 0.33733
 C1063 C 0.82192 1.18463 0.30706
 C1064 C 0.87882 1.18968 0.30499
 C1065 C 0.91005 1.16363 0.33804
 C1066 C 0.88639 1.12654 0.36728
 C1067 C 0.96399 1.17662 0.34182
 N1068 N 0.98698 1.20881 0.31095
 N1069 N 0.95955 1.22800 0.27641
 C1070 C 0.90689 1.21877 0.27188
 H1071 H 0.81305 1.09318 0.39119
 H1072 H 0.75857 1.13986 0.33905
 H1073 H 0.98795 1.16155 0.36914
 H1074 H 0.88946 1.23227 0.24120
 C1075 C 0.40533 0.66560 -0.15178
 C1076 C 0.36621 0.69659 -0.17246
 C1077 C 0.31564 0.67538 -0.18296
 C1078 C 0.30696 0.61895 -0.17340
 C1079 C 0.34916 0.58671 -0.15606
 C1080 C 0.39737 0.61085 -0.14304
 C1081 C 0.34123 0.53083 -0.15000
 N1082 N 0.29331 0.50866 -0.15824
 N1083 N 0.25267 0.53895 -0.17158
 C1084 C 0.25774 0.59286 -0.17885
 H1085 H 0.44139 0.68524 -0.14062
 H1086 H 0.37575 0.73854 -0.17888
 H1087 H 0.37291 0.50466 -0.13911
 H1088 H 0.22252 0.61414 -0.18699
 C1089 C 0.89844 0.84731 0.64707
 C1090 C 0.86350 0.81294 0.66844
 C1091 C 0.81108 0.82891 0.67855
 C1092 C 0.79445 0.88259 0.66591
 C1093 C 0.83208 0.91850 0.64716
 C1094 C 0.88323 0.89977 0.63622
 C1095 C 0.81710 0.97230 0.63809
 N1096 N 0.76643 0.98851 0.64438
 N1097 N 0.72982 0.95420 0.65874
 C1098 C 0.74179 0.90214 0.66919
 H1099 H 0.93706 0.83202 0.63723
 H1100 H 0.87824 0.77303 0.67643
 H1101 H 0.84549 1.00154 0.62637
 H1102 H 0.70901 0.87709 0.67781
 C1103 C 0.37736 0.39744 0.17590
 C1104 C 0.34875 0.36076 0.20159
 C1105 C 0.30698 0.32952 0.18311
 C1106 C 0.29356 0.33828 0.13677
 C1107 C 0.31661 0.38239 0.11430
 C1108 C 0.36257 0.40760 0.13180
 C1109 C 0.29436 0.39902 0.07327
 N1110 N 0.26081 0.36631 0.05073
 N1111 N 0.24428 0.32040 0.06879
 C1112 C 0.25836 0.30607 0.11095
 H1113 H 0.41232 0.41629 0.19007
 H1114 H 0.36173 0.35537 0.23582
 H1115 H 0.30353 0.43806 0.05939
 H1116 H 0.23899 0.27133 0.12334
   
