data_POSCAR
  _audit_creation_date              2014-09-24
  _audit_creation_method            'ToBaCCo'
  _symmetry_space_group_name_H-M    'P1'
  _symmetry_Int_Tables_number       1
  _symmetry_cell_setting            triclinic
  loop_
  _symmetry_equiv_pos_as_xyz
 x,y,z
_cell_length_a 33.1542
_cell_length_b 18.1721
_cell_length_c 12.2186
_cell_angle_alpha 90.005500
_cell_angle_beta 89.997700
_cell_angle_gamma 90.080300
loop_
  _atom_site_label
  _atom_site_type_symbol
  _atom_site_fract_x
  _atom_site_fract_y
  _atom_site_fract_z
C1 C 0.71687 0.27829 0.55607
 C2 C 0.71296 0.26474 0.43944
 C3 C 0.74694 0.23614 0.38475
 C4 C 0.78297 0.21448 0.43673
 C5 C 0.78170 0.20753 0.55496
 C6 C 0.74975 0.24396 0.60926
 H7 H 0.75062 0.24562 0.69741
 H8 H 0.74545 0.23186 0.29675
 C9 C 0.21281 0.76395 0.56483
 C10 C 0.21663 0.77703 0.44840
 C11 C 0.24954 0.74350 0.39491
 C12 C 0.28150 0.70771 0.44939
 C13 C 0.28269 0.71380 0.56737
 C14 C 0.24673 0.73541 0.61968
 H15 H 0.24526 0.73114 0.70766
 H16 H 0.25045 0.74537 0.30680
 C17 C 0.28264 0.28173 -0.56906
 C18 C 0.28349 0.28268 -0.45142
 C19 C 0.25147 0.24761 -0.39619
 C20 C 0.21530 0.22409 -0.44715
 C21 C 0.21450 0.22434 -0.56636
 C22 C 0.24664 0.26044 -0.62002
 H23 H 0.24379 0.27168 -0.70664
 H24 H 0.25538 0.23777 -0.30974
 C25 C -0.21698 0.78451 -0.54976
 C26 C -0.21780 0.78312 -0.43212
 C27 C -0.25367 0.76094 -0.38130
 C28 C -0.28560 0.72439 -0.43520
 C29 C -0.28480 0.72456 -0.55442
 C30 C -0.24880 0.74903 -0.60524
 H31 H -0.24484 0.73955 -0.69176
 H32 H -0.25657 0.77183 -0.29459
 O33 O -0.05447 0.88719 0.21905
 O34 O -0.09979 0.94527 0.10661
 C35 C -0.09104 0.90297 0.18844
 O36 O 0.05730 1.14648 0.17510
 O37 O 0.10188 1.07419 0.07961
 C38 C 0.09354 1.12588 0.14935
 O39 O -0.05485 1.13702 0.19173
 O40 O -0.10009 1.06768 0.09415
 C41 C -0.09131 1.11612 0.16845
 O42 O 0.05893 0.88517 0.20968
 O43 O 0.10295 0.94748 0.09760
 C44 C 0.09512 0.90267 0.17794
 Zr45 Zr 0.00183 0.91907 0.15036
 O46 O 0.00624 0.92760 0.32282
 O47 O -0.00144 0.80288 0.16132
 Zr48 Zr 0.00085 1.10457 0.12355
 O49 O 0.00448 1.12735 0.29284
 O50 O -0.00435 1.21893 0.09287
 O51 O -0.03426 1.01239 0.16062
 O52 O 0.03629 1.01365 0.15539
 O53 O 0.05600 0.85578 -0.16928
 O54 O 0.10128 0.93508 -0.09018
 C55 C 0.09237 0.87949 -0.15295
 O56 O -0.05837 1.11516 -0.21402
 O57 O -0.10190 1.05634 -0.09688
 C58 C -0.09439 1.09783 -0.18072
 O59 O 0.05416 1.12714 -0.21135
 O60 O 0.10051 1.06599 -0.10547
 C61 C 0.09094 1.11148 -0.18380
 O62 O -0.05565 0.86398 -0.18113
 O63 O -0.10045 0.93436 -0.08426
 C64 C -0.09195 0.88498 -0.15738
 Zr65 Zr 0.00042 0.90219 -0.12325
 O66 O 0.00464 0.89144 -0.29545
 O67 O -0.00434 0.78652 -0.10687
 Zr68 Zr -0.00106 1.08734 -0.14924
 O69 O 0.00239 1.07817 -0.32177
 O70 O -0.00665 1.20311 -0.16162
 Zr71 Zr -0.05983 1.00189 0.00322
 Zr72 Zr 0.06116 1.00440 -0.00283
 O73 O 0.03469 0.99424 -0.15855
 O74 O -0.03627 0.99258 -0.15643
 O75 O 0.03760 0.89704 0.01395
 O76 O -0.03576 1.10856 -0.01254
 O77 O -0.03415 0.89646 0.01664
 O78 O 0.03629 1.11091 -0.01646
 H79 H 0.05411 1.01767 0.22010
 H80 H -0.05476 1.15054 -0.01662
 H81 H 0.05240 0.99059 -0.22363
 H82 H -0.05225 0.85319 0.02234
 H83 H 0.02237 1.23715 0.06889
 H84 H 0.01635 1.22530 -0.12192
 H85 H -0.01945 1.04470 -0.34565
 H86 H -0.01736 0.92079 -0.32820
 H87 H 0.01696 0.77051 -0.05552
 H88 H 0.02375 0.78257 0.13024
 H89 H -0.01590 0.95993 0.34799
 H90 H 0.00257 1.07951 0.33081
 O91 O 0.44510 0.36167 0.18003
 O92 O 0.40023 0.43181 0.08301
 C93 C 0.40877 0.38257 0.15625
 O94 O 0.55464 0.62537 0.20963
 O95 O 0.60111 0.56432 0.10407
 C96 C 0.59144 0.60993 0.18217
 O97 O 0.44251 0.61348 0.21290
 O98 O 0.39904 0.55471 0.09578
 C99 C 0.40653 0.59624 0.17957
 O100 O 0.55677 0.35356 0.16790
 O101 O 0.60199 0.43322 0.08935
 C102 C 0.59310 0.37759 0.15214
 Zr103 Zr 0.50118 0.40000 0.12212
 O104 O 0.50542 0.38981 0.29440
 O105 O 0.49655 0.28427 0.10658
 Zr106 Zr 0.49953 0.58502 0.14784
 O107 O 0.50305 0.57529 0.32031
 O108 O 0.49385 0.70076 0.16051
 O109 O 0.46434 0.49023 0.15505
 O110 O 0.53540 0.49216 0.15729
 O111 O 0.55987 0.38319 -0.21098
 O112 O 0.60374 0.44570 -0.09871
 C113 C 0.59603 0.40092 -0.17915
 O114 O 0.44557 0.63432 -0.19313
 O115 O 0.40045 0.56475 -0.09551
 C116 C 0.40914 0.61333 -0.16960
 O117 O 0.55771 0.64437 -0.17648
 O118 O 0.60245 0.57235 -0.08108
 C119 C 0.59399 0.62400 -0.15078
 O120 O 0.44624 0.38454 -0.21982
 O121 O 0.40079 0.44182 -0.10670
 C122 C 0.40962 0.39987 -0.18889
 Zr123 Zr 0.50266 0.41669 -0.15154
 O124 O 0.50707 0.42495 -0.32402
 O125 O 0.49962 0.30048 -0.16250
 Zr126 Zr 0.50135 0.60207 -0.12511
 O127 O 0.50510 0.62435 -0.29452
 O128 O 0.49595 0.71650 -0.09514
 Zr129 Zr 0.44077 0.49927 -0.00464
 Zr130 Zr 0.56185 0.50238 0.00157
 O131 O 0.53696 0.51139 -0.15669
 O132 O 0.46637 0.50973 -0.16207
 O133 O 0.53842 0.39492 -0.01505
 O134 O 0.46479 0.60600 0.01103
 O135 O 0.46669 0.39398 -0.01781
 O136 O 0.53679 0.60873 0.01495
 H137 H 0.55313 0.48868 0.22236
 H138 H 0.44583 0.64804 0.01496
 H139 H 0.55475 0.51551 -0.22147
 H140 H 0.44870 0.35053 -0.02334
 H141 H 0.51657 0.72308 0.11980
 H142 H 0.52256 0.73486 -0.07055
 H143 H 0.50208 0.57663 -0.33230
 H144 H 0.48470 0.45664 -0.34944
 H145 H 0.52489 0.28036 -0.13165
 H146 H 0.51744 0.26835 0.05393
 H147 H 0.48314 0.41854 0.32700
 H148 H 0.48093 0.54243 0.34421
 C149 C 0.31718 0.30438 0.35295
 C150 C 0.31466 0.38644 0.32430
 C151 C 0.34491 0.41132 0.25989
 C152 C 0.37492 0.35197 0.22484
 C153 C 0.38977 0.31633 0.33162
 C154 C 0.35989 0.28935 0.39536
 C155 C 0.31868 0.26649 0.23856
 C156 C 0.34870 0.29221 0.17128
 H157 H 0.28960 0.42144 0.34800
 H158 H 0.34510 0.46682 0.22801
 H159 H 0.42101 0.30221 0.34778
 H160 H 0.36682 0.24847 0.45622
 H161 H 0.29969 0.22060 0.21455
 H162 H 0.35436 0.26968 0.09046
 C163 C -0.18376 0.81960 0.37714
 C164 C -0.16187 0.88750 0.42405
 C165 C -0.13052 0.91224 0.36297
 C166 C -0.12542 0.87169 0.25431
 C167 C -0.12048 0.79045 0.28407
 C168 C -0.15102 0.76325 0.34619
 C169 C -0.19792 0.84952 0.26464
 C170 C -0.16746 0.87597 0.20020
 H171 H -0.17470 0.92347 0.48453
 H172 H -0.11534 0.96376 0.38160
 H173 H -0.09606 0.75613 0.25424
 H174 H -0.15264 0.70545 0.36832
 H175 H -0.22924 0.85379 0.23977
 H176 H -0.17313 0.90023 0.12050
 C177 C 0.68270 0.69937 0.37259
 C178 C 0.63974 0.71871 0.41091
 C179 C 0.60974 0.68876 0.34963
 C180 C 0.62471 0.64472 0.24994
 C181 C 0.65198 0.69937 0.18869
 C182 C 0.68182 0.72915 0.25271
 C183 C 0.68443 0.61571 0.35585
 C184 C 0.65338 0.58748 0.29732
 H185 H 0.63313 0.75975 0.47239
 H186 H 0.57837 0.70262 0.36435
 H187 H 0.64645 0.71739 0.10532
 H188 H 0.70012 0.77434 0.22259
 H189 H 0.70741 0.58074 0.39203
 H190 H 0.64844 0.52919 0.29008
 C191 C 0.18308 1.19547 0.35946
 C192 C 0.15424 1.25741 0.32192
 C193 C 0.12513 1.23614 0.24996
 C194 C 0.12707 1.15459 0.21992
 C195 C 0.17013 1.14237 0.17715
 C196 C 0.19930 1.16264 0.25004
 C197 C 0.15605 1.13189 0.39866
 C198 C 0.12593 1.11395 0.32910
 H199 H 0.15702 1.31413 0.34893
 H200 H 0.10335 1.27431 0.21583
 H201 H 0.17718 1.11722 0.09888
 H202 H 0.23093 1.15183 0.23370
 H203 H 0.16417 1.09172 0.45855
 H204 H 0.10601 1.06801 0.34441
 C205 C 0.68721 0.31487 -0.37257
 C206 C 0.70284 0.34864 -0.26302
 C207 C 0.67318 0.37639 -0.19664
 C208 C 0.63054 0.36964 -0.24560
 C209 C 0.63409 0.40685 -0.35783
 C210 C 0.66488 0.38153 -0.42069
 C211 C 0.65496 0.25924 -0.33481
 C212 C 0.62559 0.28760 -0.27017
 H213 H 0.73444 0.35689 -0.24331
 H214 H 0.67988 0.40467 -0.12051
 H215 H 0.61527 0.45194 -0.38397
 H216 H 0.67415 0.41074 -0.49353
 H217 H 0.65558 0.20126 -0.35643
 H218 H 0.60151 0.25383 -0.23682
 C219 C 0.17846 0.78953 -0.35799
 C220 C 0.13595 0.79560 -0.40559
 C221 C 0.10883 0.82779 -0.33834
 C222 C 0.12491 0.84472 -0.22267
 C223 C 0.14221 0.77083 -0.18364
 C224 C 0.17018 0.74161 -0.25442
 C225 C 0.18937 0.86537 -0.31033
 C226 C 0.16208 0.89321 -0.23922
 H227 H 0.12567 0.76653 -0.47714
 H228 H 0.07717 0.83003 -0.36068
 H229 H 0.13238 0.74277 -0.10990
 H230 H 0.18301 0.68743 -0.24123
 H231 H 0.21834 0.89187 -0.32367
 H232 H 0.16922 0.94032 -0.18830
 C233 C 0.31625 0.69245 -0.36128
 C234 C 0.31343 0.61050 -0.33132
 C235 C 0.34422 0.58512 -0.26942
 C236 C 0.37507 0.64394 -0.23732
 C237 C 0.38911 0.67885 -0.34536
 C238 C 0.35875 0.70662 -0.40686
 C239 C 0.31952 0.73097 -0.24742
 C240 C 0.34996 0.70460 -0.18237
 H241 H 0.28803 0.57566 -0.35334
 H242 H 0.34455 0.52935 -0.23820
 H243 H 0.42033 0.69208 -0.36371
 H244 H 0.36544 0.74746 -0.46812
 H245 H 0.30196 0.77856 -0.22293
 H246 H 0.35704 0.72801 -0.10291
 C247 C -0.18727 1.17451 -0.37413
 C248 C -0.15635 1.23318 -0.33816
 C249 C -0.12602 1.20793 -0.27413
 C250 C -0.12922 1.12608 -0.24722
 C251 C -0.17162 1.11711 -0.19688
 C252 C -0.20198 1.14129 -0.26366
 C253 C -0.16331 1.10886 -0.42045
 C254 C -0.13200 1.08647 -0.35740
 H255 H -0.15899 1.29113 -0.35878
 H256 H -0.10291 1.24401 -0.24105
 H257 H -0.17754 1.09038 -0.11908
 H258 H -0.23341 1.13212 -0.24271
 H259 H -0.17480 1.07157 -0.48128
 H260 H -0.11558 1.03622 -0.37543
 C261 C 0.68313 0.69487 -0.36112
 C262 C 0.69957 0.66177 -0.25214
 C263 C 0.67054 0.64102 -0.17913
 C264 C 0.62740 0.65310 -0.22137
 C265 C 0.62524 0.73473 -0.25073
 C266 C 0.65419 0.75646 -0.32284
 C267 C 0.65618 0.63123 -0.40059
 C268 C 0.62619 0.61285 -0.33089
 H269 H 0.73125 0.65120 -0.23618
 H270 H 0.67774 0.61565 -0.10113
 H271 H 0.60341 0.77262 -0.21614
 H272 H 0.65677 0.81327 -0.34956
 H273 H 0.66420 0.59148 -0.46117
 H274 H 0.60620 0.56706 -0.34661
 C275 C 0.18263 1.19942 -0.37428
 C276 C 0.13976 1.21963 -0.41249
 C277 C 0.10959 1.19023 -0.35119
 C278 C 0.12432 1.14578 -0.25170
 C279 C 0.15262 1.08803 -0.29941
 C280 C 0.18384 1.11571 -0.35782
 C281 C 0.18194 1.22906 -0.25433
 C282 C 0.15195 1.19981 -0.19035
 H283 H 0.13338 1.26096 -0.47367
 H284 H 0.07830 1.20480 -0.36568
 H285 H 0.14719 1.02984 -0.29291
 H286 H 0.20660 1.08032 -0.39413
 H287 H 0.20053 1.27383 -0.22410
 H288 H 0.14654 1.21783 -0.10692
 C289 C 0.31681 0.31727 -0.37810
 C290 C 0.33886 0.38508 -0.42470
 C291 C 0.37026 0.40949 -0.36348
 C292 C 0.37525 0.36873 -0.25496
 C293 C 0.33320 0.37321 -0.20092
 C294 C 0.30270 0.34709 -0.26551
 C295 C 0.34944 0.26063 -0.34735
 C296 C 0.38003 0.28752 -0.28505
 H297 H 0.32613 0.42126 -0.48503
 H298 H 0.38556 0.46092 -0.38190
 H299 H 0.32754 0.39736 -0.12114
 H300 H 0.27138 0.35158 -0.24066
 H301 H 0.34771 0.20289 -0.36976
 H302 H 0.40439 0.25300 -0.25537
 C303 C -0.18338 0.80608 -0.35401
 C304 C -0.18170 0.76804 -0.23975
 C305 C -0.15175 0.79403 -0.17245
 C306 C -0.12577 0.85420 -0.22587
 C307 C -0.11084 0.81889 -0.33285
 C308 C -0.14063 0.79161 -0.39655
 C309 C -0.18619 0.88807 -0.32506
 C310 C -0.15601 0.91322 -0.26061
 H311 H -0.20050 0.72185 -0.21585
 H312 H -0.14597 0.77145 -0.09174
 H313 H -0.07956 0.80516 -0.34919
 H314 H -0.13358 0.75085 -0.45750
 H315 H -0.21138 0.92279 -0.34858
 H316 H -0.15601 0.96865 -0.22850
 C317 C 0.31405 0.67299 0.37384
 C318 C 0.29907 0.64055 0.26343
 C319 C 0.32928 0.61607 0.19627
 C320 C 0.37178 0.62460 0.24620
 C321 C 0.37518 0.70640 0.27357
 C322 C 0.34497 0.73161 0.33816
 C323 C 0.33806 0.60744 0.41989
 C324 C 0.36912 0.58482 0.35623
 H325 H 0.26756 0.63265 0.24246
 H326 H 0.32321 0.59001 0.11805
 H327 H 0.39826 0.74247 0.24033
 H328 H 0.34232 0.78949 0.35909
 H329 H 0.32693 0.57077 0.48197
 H330 H 0.38567 0.53471 0.37425
 C331 C -0.18356 1.19381 0.36413
 C332 C -0.14084 1.20716 0.40889
 C333 C -0.11077 1.17979 0.34602
 C334 C -0.12521 1.14629 0.23736
 C335 C -0.15612 1.08738 0.26854
 C336 C -0.18666 1.11227 0.33178
 C337 C -0.18051 1.23369 0.25120
 C338 C -0.15033 1.20785 0.18468
 H339 H -0.13374 1.24746 0.47059
 H340 H -0.07948 1.19268 0.36393
 H341 H -0.15607 1.03203 0.23568
 H342 H -0.21214 1.07742 0.35303
 H343 H -0.19806 1.28167 0.22841
 H344 H -0.14344 1.23213 0.10568
 C345 C 0.67862 0.28958 0.36112
 C346 C 0.68978 0.36474 0.31136
 C347 C 0.66273 0.39186 0.23897
 C348 C 0.62550 0.34345 0.22309
 C349 C 0.64275 0.26892 0.18655
 C350 C 0.67047 0.24042 0.25871
 C351 C 0.63594 0.29654 0.40753
 C352 C 0.60911 0.32814 0.33890
 H353 H 0.71876 0.39126 0.32452
 H354 H 0.67006 0.43835 0.18699
 H355 H 0.63307 0.24000 0.11339
 H356 H 0.68325 0.18602 0.24727
 H357 H 0.62527 0.26842 0.47947
 H358 H 0.57740 0.33087 0.36056
 C359 C 0.18563 0.81588 0.37244
 C360 C 0.15346 0.76043 0.33397
 C361 C 0.12431 0.78898 0.26878
 C362 C 0.12946 0.87108 0.24465
 C363 C 0.13266 0.90797 0.35718
 C364 C 0.16313 0.88222 0.42069
 C365 C 0.20167 0.84934 0.26347
 C366 C 0.17228 0.87763 0.19665
 H367 H 0.15406 0.70245 0.35540
 H368 H 0.10030 0.75535 0.23470
 H369 H 0.11362 0.95272 0.38351
 H370 H 0.17198 0.91066 0.49458
 H371 H 0.23338 0.85628 0.24403
 H372 H 0.17923 0.90546 0.12033
   
