data_POSCAR
  _audit_creation_date              2014-09-24
  _audit_creation_method            'ToBaCCo'
  _symmetry_space_group_name_H-M    'P1'
  _symmetry_Int_Tables_number       1
  _symmetry_cell_setting            triclinic
  loop_
  _symmetry_equiv_pos_as_xyz
 x,y,z
_cell_length_a 25.6748
_cell_length_b 25.7520
_cell_length_c 43.8902
_cell_angle_alpha 87.512500
_cell_angle_beta 87.837900
_cell_angle_gamma 94.047200
loop_
  _atom_site_label
  _atom_site_type_symbol
  _atom_site_fract_x
  _atom_site_fract_y
  _atom_site_fract_z
O1 O -0.04878 0.54833 0.97192
 O2 O -0.04198 0.44176 1.02992
 O3 O -0.04217 0.54221 1.03107
 O4 O -0.04647 0.44684 0.97075
 O5 O 0.03955 0.45489 0.96587
 O6 O 0.04390 0.54988 1.02602
 O7 O 0.04399 0.44890 1.02499
 O8 O 0.03727 0.55614 0.96724
 Cu9 Cu -0.05349 0.49405 1.00126
 Cu10 Cu 0.04977 0.50316 0.99546
 C11 C -0.00693 0.57098 0.95994
 C12 C 0.00211 0.42700 1.03751
 C13 C 0.00170 0.56230 1.03887
 C14 C -0.00406 0.43416 0.95819
 O15 O 0.45180 0.04748 0.52151
 O16 O 0.55793 0.04106 0.46334
 O17 O 0.45714 0.04056 0.46245
 O18 O 0.55372 0.04641 0.52250
 O19 O 0.54736 -0.03941 0.52750
 O20 O 0.44962 -0.04521 0.46838
 O21 O 0.55102 -0.04467 0.46853
 O22 O 0.44563 -0.03826 0.52726
 Cu23 Cu 0.50580 0.05250 0.49205
 Cu24 Cu 0.49772 -0.05046 0.49854
 C25 C 0.43022 0.00572 0.53418
 C26 C 0.57261 -0.00288 0.45580
 C27 C 0.43688 -0.00340 0.45516
 C28 C 0.56760 0.00439 0.53498
 C29 C 0.01598 -0.01819 0.24640
 C30 C -0.01348 0.01620 0.74739
 C31 C 0.00755 -0.32443 0.10823
 C32 C -0.03792 -0.35727 0.10503
 C33 C -0.03989 -0.39403 0.08251
 C34 C 0.00378 -0.39928 0.06294
 C35 C 0.04949 -0.36713 0.06639
 C36 C 0.05125 -0.32993 0.08863
 C37 C 0.00907 -0.28375 0.13134
 C38 C 0.05536 -0.27049 0.14631
 C39 C 0.05742 -0.23040 0.16680
 C40 C 0.01305 -0.20323 0.17311
 C41 C -0.03353 -0.21717 0.15879
 C42 C -0.03544 -0.25675 0.13800
 C43 C 0.01561 -0.15899 0.19356
 C44 C -0.02395 -0.15439 0.21596
 C45 C -0.02365 -0.11071 0.23377
 C46 C 0.01519 -0.06916 0.22874
 C47 C 0.05672 -0.07614 0.20757
 C48 C 0.05671 -0.12014 0.19010
 H49 H -0.07198 -0.35483 0.12006
 H50 H -0.07550 -0.41860 0.08056
 H51 H 0.08366 -0.37003 0.05150
 H52 H 0.08656 -0.30472 0.08998
 H53 H 0.09008 -0.29112 0.14224
 H54 H 0.09364 -0.22070 0.17782
 H55 H -0.06808 -0.19629 0.16297
 H56 H -0.07145 -0.26513 0.12653
 H57 H -0.05514 -0.18483 0.21976
 H58 H -0.05410 -0.11031 0.25136
 H59 H 0.08844 -0.04625 0.20382
 H60 H 0.08800 -0.12295 0.17313
 C61 C 0.00879 0.30265 0.10333
 C62 C 0.05480 0.32607 0.08887
 C63 C 0.05275 0.36753 0.06742
 C64 C 0.00447 0.38622 0.05966
 C65 C -0.04154 0.36279 0.07444
 C66 C -0.03932 0.32170 0.09609
 C67 C 0.01076 0.25741 0.12520
 C68 C -0.01925 0.25423 0.15276
 C69 C -0.01855 0.21063 0.17285
 C70 C 0.01167 0.16916 0.16554
 C71 C 0.04199 0.17260 0.13811
 C72 C 0.04172 0.21636 0.11821
 C73 C 0.01098 0.12186 0.18604
 C74 C 0.00598 0.07238 0.17394
 C75 C 0.00664 0.02749 0.19284
 C76 C 0.01437 0.03062 0.22447
 C77 C 0.01624 0.08070 0.23659
 C78 C 0.01505 0.12562 0.21765
 H79 H 0.09246 0.31239 0.09426
 H80 H 0.08909 0.38449 0.05671
 H81 H -0.07950 0.37595 0.06923
 H82 H -0.07542 0.30397 0.10668
 H83 H -0.04317 0.28553 0.15877
 H84 H -0.04249 0.20879 0.19377
 H85 H 0.06600 0.14136 0.13208
 H86 H 0.06487 0.21761 0.09701
 H87 H 0.00069 0.06839 0.14977
 H88 H 0.00024 -0.00932 0.18224
 H89 H 0.01980 0.08495 0.26088
 H90 H 0.01833 0.16337 0.22765
 C91 C 0.30025 0.01250 0.59855
 C92 C 0.32080 -0.03534 0.59253
 C93 C 0.36327 -0.03747 0.57187
 C94 C 0.38629 0.00823 0.55682
 C95 C 0.36605 0.05615 0.56306
 C96 C 0.32343 0.05824 0.58365
 C97 C 0.25453 0.01447 0.62013
 C98 C 0.21386 0.04636 0.61334
 C99 C 0.17025 0.04718 0.63336
 C100 C 0.16643 0.01620 0.66064
 C101 C 0.20744 -0.01520 0.66755
 C102 C 0.25091 -0.01611 0.64752
 C103 C 0.11985 0.01615 0.68182
 C104 C 0.09871 -0.03055 0.69648
 C105 C 0.05614 -0.03076 0.71722
 C106 C 0.03435 0.01607 0.72485
 C107 C 0.05324 0.06215 0.70820
 C108 C 0.09598 0.06239 0.68747
 H109 H 0.30338 -0.07133 0.60338
 H110 H 0.37780 -0.07503 0.56752
 H111 H 0.38290 0.09208 0.55186
 H112 H 0.30883 0.09573 0.58810
 H113 H 0.21523 0.06983 0.59221
 H114 H 0.13903 0.07124 0.62717
 H115 H 0.20617 -0.03875 0.68865
 H116 H 0.28201 -0.04040 0.65362
 H117 H 0.11465 -0.06724 0.69156
 H118 H 0.04022 -0.06799 0.72708
 H119 H 0.03538 0.09839 0.71165
 H120 H 0.11079 0.09899 0.67620
 C121 C -0.31129 0.00961 0.60041
 C122 C -0.33164 0.05579 0.58936
 C123 C -0.37131 0.05415 0.56837
 C124 C -0.39171 0.00627 0.55804
 C125 C -0.37184 -0.03992 0.56937
 C126 C -0.33204 -0.03826 0.59023
 C127 C -0.26812 0.01129 0.62211
 C128 C -0.26699 -0.02697 0.64590
 C129 C -0.22586 -0.02601 0.66588
 C130 C -0.18506 0.01339 0.66267
 C131 C -0.18627 0.05184 0.63905
 C132 C -0.22725 0.05073 0.61895
 C133 C -0.14148 0.01436 0.68397
 C134 C -0.12209 0.06140 0.69568
 C135 C -0.08159 0.06220 0.71607
 C136 C -0.06019 0.01567 0.72612
 C137 C -0.07771 -0.03084 0.71262
 C138 C -0.11847 -0.03168 0.69240
 H139 H -0.31712 0.09325 0.59709
 H140 H -0.38592 0.09042 0.56018
 H141 H -0.38646 -0.07744 0.56175
 H142 H -0.31676 -0.07450 0.59788
 H143 H -0.29826 -0.05737 0.64931
 H144 H -0.22633 -0.05570 0.68416
 H145 H -0.15497 0.08226 0.63576
 H146 H -0.22639 0.08024 0.60057
 H147 H -0.13848 0.09768 0.68921
 H148 H -0.06681 0.09963 0.72363
 H149 H -0.05991 -0.06686 0.71785
 H150 H -0.13137 -0.06827 0.68288
 C151 C -0.01486 -0.29623 0.89761
 C152 C -0.06061 -0.32610 0.90777
 C153 C -0.05805 -0.36960 0.92773
 C154 C -0.00963 -0.38434 0.93778
 C155 C 0.03618 -0.35493 0.92718
 C156 C 0.03356 -0.31129 0.90739
 C157 C -0.01748 -0.24923 0.87708
 C158 C 0.01345 -0.20342 0.88205
 C159 C 0.01207 -0.15947 0.86238
 C160 C -0.02007 -0.16037 0.83713
 C161 C -0.05164 -0.20598 0.83244
 C162 C -0.05045 -0.24989 0.85224
 C163 C -0.01936 -0.11457 0.81525
 C164 C -0.06549 -0.09976 0.80218
 C165 C -0.06423 -0.05790 0.78069
 C166 C -0.01646 -0.03073 0.77081
 C167 C 0.02896 -0.04359 0.78575
 C168 C 0.02775 -0.08542 0.80710
 H169 H -0.09849 -0.31518 0.90078
 H170 H -0.09406 -0.39141 0.93550
 H171 H 0.07409 -0.36523 0.93446
 H172 H 0.06952 -0.28942 0.89959
 H173 H 0.03849 -0.20145 0.90134
 H174 H 0.03607 -0.12466 0.86702
 H175 H -0.07628 -0.20822 0.81299
 H176 H -0.07434 -0.28482 0.84768
 H177 H -0.10277 -0.12011 0.80891
 H178 H -0.10096 -0.04679 0.77209
 H179 H 0.06598 -0.02173 0.78038
 H180 H 0.06404 -0.09544 0.81684
 C181 C -0.00658 0.31470 0.89237
 C182 C 0.04074 0.34134 0.89952
 C183 C 0.04142 0.38061 0.92051
 C184 C -0.00524 0.39424 0.93486
 C185 C -0.05269 0.36819 0.92738
 C186 C -0.05334 0.32886 0.90637
 C187 C -0.00700 0.27173 0.87081
 C188 C -0.04642 0.26587 0.84959
 C189 C -0.04699 0.22510 0.82957
 C190 C -0.00816 0.18927 0.83027
 C191 C 0.03132 0.19519 0.85143
 C192 C 0.03186 0.23591 0.87148
 C193 C -0.00907 0.14570 0.80915
 C194 C 0.03734 0.13087 0.79518
 C195 C 0.03636 0.08992 0.77527
 C196 C -0.01134 0.06358 0.76793
 C197 C -0.05731 0.07693 0.78349
 C198 C -0.05634 0.11791 0.80330
 H199 H 0.07734 0.33195 0.88876
 H200 H 0.07863 0.40003 0.92566
 H201 H -0.08929 0.37763 0.93810
 H202 H -0.09039 0.30869 0.90163
 H203 H -0.07646 0.29325 0.84820
 H204 H -0.07750 0.22198 0.81322
 H205 H 0.06127 0.16772 0.85289
 H206 H 0.06223 0.23877 0.88791
 H207 H 0.07455 0.15104 0.79957
 H208 H 0.07332 0.07864 0.76605
 H209 H -0.09433 0.05548 0.78023
 H210 H -0.09255 0.12717 0.81457
 C211 C -0.30408 -0.00956 0.38953
 C212 C -0.32297 0.03844 0.39670
 C213 C -0.36377 0.04068 0.41849
 C214 C -0.38701 -0.00520 0.43346
 C215 C -0.36853 -0.05336 0.42574
 C216 C -0.32740 -0.05543 0.40415
 C217 C -0.25901 -0.01159 0.36760
 C218 C -0.21791 -0.04269 0.37460
 C219 C -0.17431 -0.04312 0.35466
 C220 C -0.17107 -0.01281 0.32717
 C221 C -0.21259 0.01756 0.31984
 C222 C -0.25605 0.01841 0.33998
 C223 C -0.12386 -0.01227 0.30665
 C224 C -0.12796 -0.01624 0.27506
 C225 C -0.08309 -0.01771 0.25614
 C226 C -0.03278 -0.01627 0.26828
 C227 C -0.02930 -0.00857 0.29988
 C228 C -0.07412 -0.00761 0.31875
 H229 H -0.30532 0.07443 0.38597
 H230 H -0.37679 0.07854 0.42366
 H231 H -0.38538 -0.08960 0.43658
 H232 H -0.31387 -0.09300 0.39880
 H233 H -0.21897 -0.06583 0.39585
 H234 H -0.14303 -0.06724 0.36070
 H235 H -0.21090 0.04149 0.29887
 H236 H -0.28740 0.04243 0.33396
 H237 H -0.16591 -0.01923 0.26506
 H238 H -0.08759 -0.02117 0.23186
 H239 H 0.00773 -0.00242 0.31048
 H240 H -0.06985 -0.00238 0.34291
 C241 C 0.32258 -0.01042 0.38587
 C242 C 0.32816 -0.05368 0.40587
 C243 C 0.36566 -0.05156 0.42813
 C244 C 0.39801 -0.00594 0.43117
 C245 C 0.39267 0.03727 0.41119
 C246 C 0.35564 0.03494 0.38866
 C247 C 0.28166 -0.01223 0.36271
 C248 C 0.25475 0.03217 0.35559
 C249 C 0.21520 0.03017 0.33460
 C250 C 0.20119 -0.01640 0.32051
 C251 C 0.22816 -0.06072 0.32734
 C252 C 0.26823 -0.05857 0.34806
 C253 C 0.15707 -0.01891 0.29974
 C254 C 0.11793 -0.05973 0.30313
 C255 C 0.07389 -0.05948 0.28544
 C256 C 0.06717 -0.01793 0.26414
 C257 C 0.10909 0.02052 0.25914
 C258 C 0.15281 0.02054 0.27714
 H259 H 0.30280 -0.08891 0.40481
 H260 H 0.36865 -0.08539 0.44333
 H261 H 0.41742 0.07280 0.41280
 H262 H 0.35318 0.06865 0.37331
 H263 H 0.26323 0.06822 0.36682
 H264 H 0.19444 0.06467 0.33005
 H265 H 0.21837 -0.09695 0.31653
 H266 H 0.28876 -0.09323 0.35251
 H267 H 0.12048 -0.09095 0.32024
 H268 H 0.04372 -0.09093 0.28917
 H269 H 0.10890 0.05092 0.24145
 H270 H 0.18349 0.05149 0.27338
   
