data_POSCAR
  _audit_creation_date              2014-09-24
  _audit_creation_method            'ToBaCCo'
  _symmetry_space_group_name_H-M    'P1'
  _symmetry_Int_Tables_number       1
  _symmetry_cell_setting            triclinic
  loop_
  _symmetry_equiv_pos_as_xyz
 x,y,z
_cell_length_a 56.3828
_cell_length_b 56.3258
_cell_length_c 41.9237
_cell_angle_alpha 90.683600
_cell_angle_beta 90.000800
_cell_angle_gamma 89.754300
loop_
  _atom_site_label
  _atom_site_type_symbol
  _atom_site_fract_x
  _atom_site_fract_y
  _atom_site_fract_z
C1 C 0.28938 0.28186 0.23540
 H2 H 0.29055 0.28202 0.26116
 C3 C 0.30440 0.29619 0.21756
 H4 H 0.31716 0.30750 0.22957
 C5 C 0.27128 0.26696 0.18821
 H6 H 0.25853 0.25539 0.17684
 C7 C 0.28598 0.28103 0.16945
 H8 H 0.28435 0.28042 0.14371
 N9 N 0.27296 0.26793 0.22060
 C10 C 0.21683 0.25933 0.29116
 H11 H 0.21572 0.24018 0.29207
 C12 C 0.20154 0.27336 0.30973
 H13 H 0.18866 0.26503 0.32512
 C14 C 0.23469 0.29367 0.26967
 H15 H 0.24732 0.30156 0.25366
 C16 C 0.21975 0.30833 0.28780
 H17 H 0.22112 0.32745 0.28595
 Zn18 Zn 0.25304 0.24957 0.24692
 N19 N 0.23319 0.26963 0.27193
 C20 C 0.27132 0.23213 0.30564
 N21 N 0.27294 0.23100 0.27325
 C22 C 0.28928 0.21682 0.25849
 C23 C 0.30431 0.20241 0.27640
 C24 C 0.28603 0.21799 0.32445
 C25 C 0.21673 0.24020 0.20280
 C26 C 0.20127 0.22633 0.18445
 C27 C 0.21937 0.19117 0.20644
 C28 C 0.23448 0.20567 0.22435
 N29 N 0.23310 0.22972 0.22198
 H30 H 0.25864 0.24390 0.31697
 H31 H 0.29042 0.21655 0.23273
 H32 H 0.31703 0.19091 0.26444
 H33 H 0.28445 0.21874 0.35020
 H34 H 0.21572 0.25936 0.20180
 H35 H 0.18835 0.23479 0.16915
 H36 H 0.22061 0.17204 0.20843
 H37 H 0.24712 0.19764 0.24032
 C38 C 0.20309 0.29809 0.30807
 C39 C 0.30256 0.29588 0.18430
 C40 C 0.20266 0.20159 0.18627
 C41 C 0.30255 0.20289 0.30966
 C42 C 0.78813 0.78299 0.23998
 H43 H 0.78918 0.78301 0.26575
 C44 C 0.80316 0.79751 0.22244
 H45 H 0.81578 0.80882 0.23476
 C46 C 0.77038 0.76823 0.19248
 H47 H 0.75777 0.75662 0.18088
 C48 C 0.78509 0.78248 0.17399
 H49 H 0.78356 0.78194 0.14822
 N50 N 0.77189 0.76903 0.22489
 C51 C 0.71555 0.75949 0.29492
 H52 H 0.71462 0.74033 0.29563
 C53 C 0.70000 0.77328 0.31342
 H54 H 0.68710 0.76475 0.32857
 C55 C 0.73319 0.79413 0.27392
 H56 H 0.74582 0.80222 0.25811
 C57 C 0.71798 0.80855 0.29200
 H58 H 0.71915 0.82769 0.29030
 Zn59 Zn 0.75200 0.75033 0.25083
 N60 N 0.73190 0.77006 0.27594
 C61 C 0.77019 0.73249 0.30940
 N62 N 0.77194 0.73170 0.27701
 C63 C 0.78846 0.71780 0.26212
 C64 C 0.80353 0.70333 0.27987
 C65 C 0.78494 0.71828 0.32806
 C66 C 0.71593 0.74101 0.20632
 C67 C 0.70065 0.72716 0.18769
 C68 C 0.71893 0.69197 0.20934
 C69 C 0.73386 0.70645 0.22755
 N70 N 0.73230 0.73051 0.22549
 H71 H 0.75737 0.74405 0.32084
 H72 H 0.78969 0.71778 0.23637
 H73 H 0.81639 0.69205 0.26780
 H74 H 0.78326 0.71876 0.35381
 H75 H 0.71478 0.76017 0.20558
 H76 H 0.68773 0.73563 0.17240
 H77 H 0.72031 0.67284 0.21108
 H78 H 0.74650 0.69841 0.24350
 C79 C 0.70129 0.79803 0.31197
 C80 C 0.80152 0.79737 0.18914
 C81 C 0.70222 0.70241 0.18919
 C82 C 0.80163 0.70346 0.31312
 C83 C 0.78918 0.28118 0.73767
 H84 H 0.79029 0.28162 0.76344
 C85 C 0.80427 0.29530 0.71963
 H86 H 0.81702 0.30672 0.73148
 C87 C 0.77117 0.26584 0.69067
 H88 H 0.75841 0.25419 0.67946
 C89 C 0.78594 0.27969 0.67172
 H90 H 0.78435 0.27883 0.64598
 N91 N 0.77277 0.26715 0.72305
 C92 C 0.71625 0.25980 0.79334
 H93 H 0.71509 0.24068 0.79488
 C94 C 0.70076 0.27420 0.81110
 H95 H 0.68768 0.26619 0.82649
 C96 C 0.73434 0.29368 0.77092
 H97 H 0.74710 0.30125 0.75481
 C98 C 0.71921 0.30870 0.78822
 H99 H 0.72057 0.32776 0.78562
 Zn100 Zn 0.75264 0.24921 0.74963
 N101 N 0.73278 0.26970 0.77399
 C102 C 0.77058 0.23223 0.80883
 N103 N 0.77233 0.23084 0.77647
 C104 C 0.78869 0.21650 0.76203
 C105 C 0.80361 0.20219 0.78023
 C106 C 0.78516 0.21821 0.82798
 C107 C 0.71646 0.23956 0.70546
 C108 C 0.70103 0.22558 0.68722
 C109 C 0.71889 0.19056 0.70994
 C110 C 0.73398 0.20517 0.72774
 N111 N 0.73270 0.22920 0.72495
 H112 H 0.75787 0.24413 0.81988
 H113 H 0.78992 0.21602 0.73628
 H114 H 0.81633 0.19060 0.76837
 H115 H 0.78340 0.21925 0.85371
 H116 H 0.71554 0.25871 0.70413
 H117 H 0.68822 0.23395 0.67166
 H118 H 0.72005 0.17145 0.71225
 H119 H 0.74652 0.19725 0.74394
 C120 C 0.70230 0.29887 0.80850
 C121 C 0.80250 0.29467 0.68636
 C122 C 0.70232 0.20086 0.68946
 C123 C 0.80173 0.20292 0.81353
 C124 C 0.28570 0.78277 0.73924
 H125 H 0.28673 0.78301 0.76502
 C126 C 0.30069 0.79720 0.72149
 H127 H 0.31328 0.80866 0.73358
 C128 C 0.26805 0.76755 0.69192
 H129 H 0.25550 0.75580 0.68047
 C130 C 0.28273 0.78170 0.67326
 H131 H 0.28127 0.78098 0.64750
 N132 N 0.26953 0.76862 0.72433
 C133 C 0.21323 0.75938 0.79452
 H134 H 0.21239 0.74021 0.79552
 C135 C 0.19765 0.77325 0.81287
 H136 H 0.18481 0.76478 0.82818
 C137 C 0.23069 0.79391 0.77297
 H138 H 0.24327 0.80193 0.75702
 C139 C 0.21545 0.80841 0.79088
 H140 H 0.21654 0.82753 0.78891
 Zn141 Zn 0.24972 0.75003 0.75052
 N142 N 0.22952 0.76986 0.77535
 C143 C 0.26801 0.73270 0.80933
 N144 N 0.26975 0.73170 0.77695
 C145 C 0.28636 0.71781 0.76221
 C146 C 0.30155 0.70359 0.78013
 C147 C 0.28288 0.71873 0.82816
 C148 C 0.21376 0.74019 0.70603
 C149 C 0.19865 0.72612 0.68743
 C150 C 0.21709 0.69119 0.70960
 C151 C 0.23185 0.70590 0.72777
 N152 N 0.23014 0.72993 0.72541
 H153 H 0.25511 0.74424 0.82064
 H154 H 0.28758 0.71764 0.73646
 H155 H 0.31449 0.69233 0.76818
 H156 H 0.28121 0.71937 0.85390
 H157 H 0.21249 0.75934 0.70505
 H158 H 0.18575 0.73441 0.67194
 H159 H 0.21862 0.67209 0.71154
 H160 H 0.24449 0.69804 0.74388
 C161 C 0.19884 0.79799 0.81106
 C162 C 0.29907 0.79676 0.68821
 C163 C 0.20041 0.70139 0.68919
 C164 C 0.29968 0.70394 0.81338
 C165 C -0.02863 -0.01852 0.01502
 C166 C -0.01612 0.00071 0.00233
 C167 C -0.02874 0.02006 -0.01015
 C168 C -0.05358 0.02006 -0.01021
 C169 C -0.06592 0.00094 0.00274
 C170 C -0.05347 -0.01830 0.01549
 C171 C 0.01010 0.00058 0.00207
 C172 C 0.02258 -0.01892 -0.01087
 C173 C 0.04742 -0.01893 -0.01141
 C174 C 0.05989 0.00034 0.00152
 C175 C 0.04759 0.01973 0.01471
 C176 C 0.02275 0.01996 0.01473
 H177 H -0.01905 -0.03342 0.02500
 H178 H -0.01925 0.03486 -0.02032
 H179 H 0.01298 -0.03384 -0.02100
 H180 H 0.01328 0.03498 0.02506
 H181 H -0.08516 0.00102 0.00288
 H182 H 0.07913 0.00025 0.00130
 C183 C -0.02601 0.47935 0.51206
 C184 C -0.01367 0.49876 0.49958
 C185 C -0.02645 0.51804 0.48724
 C186 C -0.05129 0.51782 0.48713
 C187 C -0.06347 0.49852 0.49987
 C188 C -0.05085 0.47933 0.51248
 C189 C 0.01254 0.49889 0.49944
 C190 C 0.02526 0.47963 0.48628
 C191 C 0.05009 0.47987 0.48589
 C192 C 0.06234 0.49916 0.49917
 C193 C 0.04980 0.51832 0.51258
 C194 C 0.02496 0.51829 0.51245
 H195 H -0.01630 0.46449 0.52194
 H196 H -0.01708 0.53299 0.47726
 H197 H 0.01583 0.46469 0.47589
 H198 H 0.01531 0.53313 0.52295
 H199 H -0.08270 0.49843 0.50000
 H200 H 0.08157 0.49926 0.49907
 C201 C 0.47255 -0.01970 0.51518
 C202 C 0.48515 -0.00052 0.50254
 C203 C 0.47263 0.01873 0.48963
 C204 C 0.44780 0.01868 0.48908
 C205 C 0.43536 -0.00039 0.50199
 C206 C 0.44771 -0.01953 0.51518
 C207 C 0.51136 -0.00059 0.50279
 C208 C 0.52402 -0.02002 0.48998
 C209 C 0.54886 -0.01996 0.48989
 C210 C 0.56115 -0.00069 0.50314
 C211 C 0.54867 0.01863 0.51622
 C212 C 0.52383 0.01879 0.51578
 H213 H 0.48206 -0.03452 0.52548
 H214 H 0.48222 0.03350 0.47951
 H215 H 0.51455 -0.03493 0.47959
 H216 H 0.51421 0.03375 0.52600
 H217 H 0.41612 -0.00035 0.50177
 H218 H 0.58039 -0.00072 0.50326
 C219 C 0.47428 0.48162 0.01204
 C220 C 0.48649 0.50117 -0.00031
 C221 C 0.47358 0.52047 -0.01236
 C222 C 0.44874 0.52014 -0.01233
 C223 C 0.43670 0.50070 0.00030
 C224 C 0.44944 0.48150 0.01262
 C225 C 0.51269 0.50140 -0.00071
 C226 C 0.52539 0.48243 -0.01464
 C227 C 0.55021 0.48283 -0.01543
 C228 C 0.56247 0.50196 -0.00175
 C229 C 0.54994 0.52082 0.01245
 C230 C 0.52511 0.52065 0.01271
 H231 H 0.48410 0.46674 0.02166
 H232 H 0.48285 0.53552 -0.02225
 H233 H 0.51594 0.46763 -0.02537
 H234 H 0.51545 0.53527 0.02376
 H235 H 0.41746 0.50052 0.00052
 H236 H 0.58170 0.50220 -0.00220
 C237 C 0.18300 -0.18724 -0.17042
 C238 C 0.16993 -0.17448 -0.15518
 C239 C 0.15457 -0.15876 -0.13732
 C240 C 0.15787 -0.15557 -0.10446
 C241 C 0.14363 -0.13948 -0.08741
 C242 C 0.12590 -0.12635 -0.10303
 C243 C 0.12253 -0.12993 -0.13600
 C244 C 0.13679 -0.14602 -0.15300
 C245 C 0.11145 -0.10847 -0.08528
 C246 C 0.08709 -0.10576 -0.09173
 C247 C 0.07377 -0.08824 -0.07592
 C248 C 0.08458 -0.07323 -0.05346
 C249 C 0.10871 -0.07597 -0.04659
 C250 C 0.12207 -0.09348 -0.06235
 C251 C 0.07116 -0.05449 -0.03825
 C252 C 0.06019 -0.03845 -0.02584
 H253 H 0.17158 -0.16536 -0.09209
 H254 H 0.14647 -0.13733 -0.06199
 H255 H 0.10927 -0.11986 -0.14880
 H256 H 0.13417 -0.14825 -0.17846
 H257 H 0.07835 -0.11720 -0.10897
 H258 H 0.05509 -0.08627 -0.08142
 H259 H 0.11729 -0.06436 -0.02937
 H260 H 0.14083 -0.09488 -0.05717
 C261 C 0.18762 0.31301 0.32693
 C262 C 0.17487 0.32589 0.34251
 C263 C 0.15993 0.34170 0.36083
 C264 C 0.17013 0.35939 0.38004
 C265 C 0.15572 0.37535 0.39700
 C266 C 0.13086 0.37386 0.39493
 C267 C 0.12076 0.35586 0.37579
 C268 C 0.13523 0.33990 0.35885
 C269 C 0.11560 0.39141 0.41203
 C270 C 0.09542 0.40101 0.39710
 C271 C 0.08163 0.41828 0.41266
 C272 C 0.08777 0.42615 0.44333
 C273 C 0.10761 0.41648 0.45857
 C274 C 0.12143 0.39922 0.44305
 C275 C 0.07420 0.44471 0.45870
 C276 C 0.06308 0.46057 0.47127
 H277 H 0.18924 0.36102 0.38162
 H278 H 0.16404 0.38921 0.41114
 H279 H 0.10169 0.35408 0.37401
 H280 H 0.12715 0.32626 0.34406
 H281 H 0.09064 0.39561 0.37308
 H282 H 0.06638 0.42573 0.40058
 H283 H 0.11251 0.42245 0.48232
 H284 H 0.13667 0.39196 0.45533
 C285 C 0.68546 -0.18728 0.33062
 C286 C 0.67237 -0.17460 0.34597
 C287 C 0.65699 -0.15900 0.36395
 C288 C 0.66092 -0.15515 0.39656
 C289 C 0.64662 -0.13916 0.41369
 C290 C 0.62819 -0.12679 0.39839
 C291 C 0.62420 -0.13103 0.36568
 C292 C 0.63852 -0.14702 0.34860
 C293 C 0.61365 -0.10900 0.41617
 C294 C 0.58910 -0.10706 0.41063
 C295 C 0.57564 -0.08965 0.42644
 C296 C 0.58653 -0.07397 0.44800
 C297 C 0.61086 -0.07594 0.45397
 C298 C 0.62435 -0.09334 0.43821
 C299 C 0.57294 -0.05533 0.46317
 C300 C 0.56181 -0.03939 0.47554
 H301 H 0.67516 -0.16434 0.40867
 H302 H 0.64995 -0.13649 0.43891
 H303 H 0.61038 -0.12155 0.35311
 H304 H 0.63540 -0.14977 0.32333
 H305 H 0.58030 -0.11904 0.39410
 H306 H 0.55681 -0.08827 0.42165
 H307 H 0.61949 -0.06380 0.47048
 H308 H 0.64325 -0.09415 0.44266
 C309 C 0.68643 0.31419 -0.17386
 C310 C 0.67332 0.32747 -0.15949
 C311 C 0.65789 0.34383 -0.14284
 C312 C 0.65713 0.34420 -0.10947
 C313 C 0.64284 0.36080 -0.09337
 C314 C 0.62918 0.37729 -0.11050
 C315 C 0.62985 0.37654 -0.14405
 C316 C 0.64412 0.35993 -0.16007
 C317 C 0.61471 0.39555 -0.09350
 C318 C 0.61392 0.41902 -0.10460
 C319 C 0.60056 0.43633 -0.08849
 C320 C 0.58780 0.43046 -0.06110
 C321 C 0.58841 0.40716 -0.04986
 C322 C 0.60180 0.38980 -0.06594
 C323 C 0.57428 0.44848 -0.04453
 C324 C 0.56318 0.46395 -0.03105
 H325 H 0.66780 0.33188 -0.09590
 H326 H 0.64291 0.36110 -0.06755
 H327 H 0.61928 0.38877 -0.15790
 H328 H 0.64456 0.35978 -0.18591
 H329 H 0.62395 0.42410 -0.12544
 H330 H 0.60029 0.45433 -0.09732
 H331 H 0.57856 0.40242 -0.02870
 H332 H 0.60186 0.37184 -0.05701
 C333 C -0.18491 0.18912 -0.16912
 C334 C -0.17267 0.17609 -0.15344
 C335 C -0.15819 0.16013 -0.13518
 C336 C -0.16489 0.15397 -0.10424
 C337 C -0.15133 0.13769 -0.08703
 C338 C -0.13086 0.12734 -0.10060
 C339 C -0.12413 0.13389 -0.13159
 C340 C -0.13772 0.15015 -0.14875
 C341 C -0.11695 0.10932 -0.08292
 C342 C -0.09201 0.10909 -0.08431
 C343 C -0.07900 0.09154 -0.06864
 C344 C -0.09073 0.07400 -0.05139
 C345 C -0.11551 0.07424 -0.04956
 C346 C -0.12855 0.09177 -0.06518
 C347 C -0.07744 0.05534 -0.03640
 C348 C -0.06647 0.03941 -0.02425
 H349 H -0.18070 0.16160 -0.09350
 H350 H -0.15681 0.13324 -0.06309
 H351 H -0.10867 0.12599 -0.14288
 H352 H -0.13244 0.15470 -0.17276
 H353 H -0.08256 0.12252 -0.09744
 H354 H -0.05982 0.09152 -0.07021
 H355 H -0.12478 0.06067 -0.03640
 H356 H -0.14772 0.09126 -0.06401
 C357 C -0.18352 0.68807 0.33172
 C358 C -0.17121 0.67484 0.34697
 C359 C -0.15665 0.65865 0.36475
 C360 C -0.16304 0.65240 0.39578
 C361 C -0.14940 0.63594 0.41257
 C362 C -0.12917 0.62551 0.39849
 C363 C -0.12275 0.63213 0.36741
 C364 C -0.13642 0.64857 0.35067
 C365 C -0.11515 0.60734 0.41577
 C366 C -0.09023 0.60699 0.41388
 C367 C -0.07714 0.58934 0.42922
 C368 C -0.08877 0.57183 0.44664
 C369 C -0.11352 0.57217 0.44895
 C370 C -0.12664 0.58981 0.43366
 C371 C -0.07539 0.55311 0.46135
 C372 C -0.06432 0.53716 0.47331
 H373 H -0.17866 0.66010 0.40691
 H374 H -0.15463 0.63142 0.43659
 H375 H -0.10748 0.62418 0.35575
 H376 H -0.13138 0.65319 0.32660
 H377 H -0.08086 0.62041 0.40063
 H378 H -0.05798 0.58925 0.42730
 H379 H -0.12270 0.55863 0.46224
 H380 H -0.14581 0.58939 0.43520
 C381 C 0.31734 0.18758 0.32846
 C382 C 0.32959 0.17445 0.34395
 C383 C 0.34404 0.15839 0.36209
 C384 C 0.36336 0.14688 0.34766
 C385 C 0.37690 0.13059 0.36485
 C386 C 0.37126 0.12557 0.39676
 C387 C 0.35195 0.13743 0.41117
 C388 C 0.33844 0.15373 0.39392
 C389 C 0.38511 0.10760 0.41462
 C390 C 0.37355 0.09137 0.43453
 C391 C 0.38646 0.07389 0.45043
 C392 C 0.41109 0.07240 0.44673
 C393 C 0.42280 0.08862 0.42728
 C394 C 0.40992 0.10612 0.41133
 C395 C 0.42420 0.05380 0.46211
 C396 C 0.43504 0.03793 0.47461
 H397 H 0.36778 0.15027 0.32298
 H398 H 0.39144 0.12152 0.35295
 H399 H 0.34735 0.13417 0.43580
 H400 H 0.32353 0.16256 0.40534
 H401 H 0.35445 0.09183 0.43721
 H402 H 0.37720 0.06134 0.46530
 H403 H 0.44187 0.08764 0.42426
 H404 H 0.41936 0.11853 0.39650
 C405 C 0.31468 0.68881 -0.16785
 C406 C 0.32716 0.67580 -0.15249
 C407 C 0.34192 0.65986 -0.13460
 C408 C 0.36232 0.65007 -0.14857
 C409 C 0.37619 0.63384 -0.13175
 C410 C 0.36979 0.62715 -0.10068
 C411 C 0.34939 0.63732 -0.08670
 C412 C 0.33555 0.65356 -0.10358
 C413 C 0.38401 0.60918 -0.08334
 C414 C 0.37271 0.59149 -0.06550
 C415 C 0.38602 0.57400 -0.05020
 C416 C 0.41078 0.57396 -0.05245
 C417 C 0.42222 0.59164 -0.06980
 C418 C 0.40893 0.60914 -0.08514
 C419 C 0.42436 0.55534 -0.03782
 C420 C 0.43556 0.53945 -0.02597
 H421 H 0.36734 0.65473 -0.17264
 H422 H 0.39158 0.62609 -0.14334
 H423 H 0.34417 0.63275 -0.06270
 H424 H 0.31979 0.66105 -0.09253
 H425 H 0.35355 0.59083 -0.06402
 H426 H 0.37698 0.56033 -0.03697
 H427 H 0.44138 0.59177 -0.07168
 H428 H 0.41816 0.62268 -0.09836
 C429 C -0.18447 -0.18803 0.17170
 C430 C -0.17217 -0.17481 0.15656
 C431 C -0.15766 -0.15864 0.13887
 C432 C -0.16320 -0.15345 0.10717
 C433 C -0.14963 -0.13704 0.09040
 C434 C -0.13031 -0.12560 0.10516
 C435 C -0.12473 -0.13116 0.13694
 C436 C -0.13834 -0.14755 0.15366
 C437 C -0.11640 -0.10751 0.08782
 C438 C -0.09159 -0.10635 0.09121
 C439 C -0.07864 -0.08877 0.07574
 C440 C -0.09029 -0.07215 0.05669
 C441 C -0.11492 -0.07331 0.05290
 C442 C -0.12790 -0.09087 0.06832
 C443 C -0.07711 -0.05349 0.04177
 C444 C -0.06624 -0.03759 0.02960
 H445 H -0.17812 -0.16195 0.09549
 H446 H -0.15419 -0.13336 0.06586
 H447 H -0.11019 -0.12242 0.14912
 H448 H -0.13396 -0.15136 0.17825
 H449 H -0.08220 -0.11907 0.10574
 H450 H -0.05958 -0.08804 0.07883
 H451 H -0.12412 -0.06045 0.03833
 H452 H -0.14699 -0.09108 0.06558
 C453 C -0.18274 0.30982 0.66746
 C454 C -0.17054 0.32288 0.65195
 C455 C -0.15618 0.33892 0.63384
 C456 C -0.13146 0.33847 0.63688
 C457 C -0.11759 0.35475 0.62033
 C458 C -0.12828 0.37173 0.60053
 C459 C -0.15313 0.37183 0.59734
 C460 C -0.16696 0.35554 0.61392
 C461 C -0.11369 0.38969 0.58397
 C462 C -0.11916 0.39650 0.55261
 C463 C -0.10595 0.41409 0.53755
 C464 C -0.08712 0.42508 0.55359
 C465 C -0.08137 0.41824 0.58463
 C466 C -0.09454 0.40066 0.59973
 C467 C -0.07415 0.44387 0.53863
 C468 C -0.06344 0.45989 0.52650
 H469 H -0.12293 0.32567 0.65224
 H470 H -0.09850 0.35404 0.62297
 H471 H -0.16193 0.38487 0.58265
 H472 H -0.18609 0.35613 0.61153
 H473 H -0.13361 0.38819 0.53971
 H474 H -0.11054 0.41924 0.51350
 H475 H -0.06690 0.42672 0.59732
 H476 H -0.09009 0.39606 0.62401
 C477 C 0.31386 -0.18794 0.66959
 C478 C 0.32614 -0.17480 0.65430
 C479 C 0.34065 -0.15874 0.63644
 C480 C 0.33003 -0.14206 0.61644
 C481 C 0.34401 -0.12582 0.60000
 C482 C 0.36884 -0.12604 0.60339
 C483 C 0.37937 -0.14306 0.62329
 C484 C 0.36534 -0.15929 0.63970
 C485 C 0.38361 -0.10818 0.58689
 C486 C 0.40278 -0.09732 0.60275
 C487 C 0.41617 -0.07991 0.58765
 C488 C 0.41063 -0.07314 0.55651
 C489 C 0.39177 -0.08401 0.54039
 C490 C 0.37833 -0.10142 0.55545
 C491 C 0.42389 -0.05457 0.54151
 C492 C 0.43483 -0.03874 0.52931
 H493 H 0.31091 -0.14140 0.61387
 H494 H 0.33535 -0.11275 0.58523
 H495 H 0.39844 -0.14386 0.62608
 H496 H 0.37375 -0.17214 0.65510
 H497 H 0.40708 -0.10189 0.62709
 H498 H 0.43067 -0.07153 0.60040
 H499 H 0.38734 -0.07890 0.51627
 H500 H 0.36388 -0.10965 0.54248
 C501 C 0.31732 0.31117 0.16561
 C502 C 0.32954 0.32434 0.15029
 C503 C 0.34396 0.34048 0.13242
 C504 C 0.36868 0.33980 0.13524
 C505 C 0.38261 0.35615 0.11890
 C506 C 0.37196 0.37342 0.09951
 C507 C 0.34710 0.37375 0.09653
 C508 C 0.33321 0.35740 0.11290
 C509 C 0.38662 0.39143 0.08314
 C510 C 0.38106 0.39858 0.05196
 C511 C 0.39432 0.41622 0.03710
 C512 C 0.41331 0.42692 0.05316
 C513 C 0.41916 0.41973 0.08402
 C514 C 0.40594 0.40209 0.09892
 C515 C 0.42630 0.44580 0.03845
 C516 C 0.43697 0.46192 0.02648
 H517 H 0.37718 0.32677 0.15028
 H518 H 0.40171 0.35526 0.12137
 H519 H 0.33835 0.38702 0.08217
 H520 H 0.31408 0.35816 0.11068
 H521 H 0.36649 0.39051 0.03905
 H522 H 0.38965 0.42165 0.01320
 H523 H 0.43375 0.42798 0.09674
 H524 H 0.41047 0.39722 0.12308
 C525 C 0.18689 0.18683 0.16783
 C526 C 0.17384 0.17408 0.15268
 C527 C 0.15849 0.15842 0.13494
 C528 C 0.16810 0.14241 0.11264
 C529 C 0.15338 0.12646 0.09636
 C530 C 0.12881 0.12629 0.10222
 C531 C 0.11927 0.14267 0.12441
 C532 C 0.13404 0.15862 0.14066
 C533 C 0.11334 0.10864 0.08592
 C534 C 0.09526 0.09711 0.10286
 C535 C 0.08135 0.07977 0.08791
 C536 C 0.08527 0.07373 0.05586
 C537 C 0.10299 0.08531 0.03868
 C538 C 0.11694 0.10265 0.05359
 C539 C 0.07167 0.05509 0.04098
 C540 C 0.06055 0.03915 0.02883
 H541 H 0.18703 0.14202 0.10816
 H542 H 0.16132 0.11386 0.07977
 H543 H 0.10040 0.14317 0.12916
 H544 H 0.12641 0.17095 0.15787
 H545 H 0.09227 0.10107 0.12787
 H546 H 0.06777 0.07082 0.10148
 H547 H 0.10617 0.08077 0.01386
 H548 H 0.13051 0.11141 0.03982
 C549 C 0.18510 0.68642 0.67036
 C550 C 0.17248 0.67350 0.65482
 C551 C 0.15767 0.65762 0.63659
 C552 C 0.16800 0.64085 0.61594
 C553 C 0.15377 0.62476 0.59913
 C554 C 0.12896 0.62520 0.60281
 C555 C 0.11872 0.64232 0.62337
 C556 C 0.13300 0.65841 0.64015
 C557 C 0.11394 0.60747 0.58592
 C558 C 0.09481 0.59673 0.60167
 C559 C 0.08128 0.57931 0.58624
 C560 C 0.08664 0.57242 0.55488
 C561 C 0.10543 0.58320 0.53885
 C562 C 0.11900 0.60062 0.55424
 C563 C 0.07337 0.55372 0.53957
 C564 C 0.06250 0.53775 0.52708
 H565 H 0.18709 0.64000 0.61314
 H566 H 0.16221 0.61159 0.58385
 H567 H 0.09967 0.64330 0.62641
 H568 H 0.12482 0.67134 0.65607
 H569 H 0.09067 0.60137 0.62619
 H570 H 0.06685 0.57099 0.59893
 H571 H 0.10973 0.57800 0.51456
 H572 H 0.13342 0.60876 0.54135
 C573 C 0.68661 0.18600 0.67107
 C574 C 0.67362 0.17319 0.65592
 C575 C 0.65835 0.15748 0.63815
 C576 C 0.66793 0.14222 0.61488
 C577 C 0.65332 0.12623 0.59849
 C578 C 0.62889 0.12526 0.60522
 C579 C 0.61938 0.14087 0.62840
 C580 C 0.63403 0.15687 0.64475
 C581 C 0.61357 0.10757 0.58875
 C582 C 0.59615 0.09518 0.60581
 C583 C 0.58240 0.07782 0.59064
 C584 C 0.58582 0.07262 0.55824
 C585 C 0.60287 0.08505 0.54095
 C586 C 0.61666 0.10242 0.55607
 C587 C 0.57240 0.05398 0.54307
 C588 C 0.56143 0.03804 0.53066
 H589 H 0.68675 0.14247 0.60970
 H590 H 0.66124 0.11423 0.58112
 H591 H 0.60061 0.14075 0.63384
 H592 H 0.62643 0.16861 0.66272
 H593 H 0.59356 0.09849 0.63107
 H594 H 0.56933 0.06821 0.60429
 H595 H 0.60566 0.08117 0.51585
 H596 H 0.62972 0.11185 0.54221
 C597 C 0.68665 0.68766 0.17043
 C598 C 0.67378 0.67492 0.15498
 C599 C 0.65866 0.65927 0.13689
 C600 C 0.63434 0.65838 0.14343
 C601 C 0.61984 0.64242 0.12679
 C602 C 0.62950 0.62709 0.10337
 C603 C 0.65393 0.62835 0.09670
 C604 C 0.66839 0.64431 0.11339
 C605 C 0.61435 0.60941 0.08659
 C606 C 0.61750 0.60460 0.05384
 C607 C 0.60385 0.58726 0.03841
 C608 C 0.58688 0.57454 0.05547
 C609 C 0.58342 0.57940 0.08795
 C610 C 0.59703 0.59672 0.10342
 C611 C 0.57357 0.55597 0.03996
 C612 C 0.56266 0.54011 0.02726
 H613 H 0.62662 0.66989 0.16158
 H614 H 0.60106 0.64208 0.13218
 H615 H 0.66197 0.61657 0.07915
 H616 H 0.68721 0.64476 0.10826
 H617 H 0.63048 0.61426 0.04015
 H618 H 0.60667 0.58364 0.01325
 H619 H 0.57042 0.56956 0.10142
 H620 H 0.59441 0.59977 0.12873
   
