data_POSCAR
  _audit_creation_date              2014-09-24
  _audit_creation_method            'ToBaCCo'
  _symmetry_space_group_name_H-M    'P1'
  _symmetry_Int_Tables_number       1
  _symmetry_cell_setting            triclinic
  loop_
  _symmetry_equiv_pos_as_xyz
 x,y,z
_cell_length_a 27.7532
_cell_length_b 28.2456
_cell_length_c 46.1082
_cell_angle_alpha 82.586400
_cell_angle_beta 100.167700
_cell_angle_gamma 84.446100
loop_
  _atom_site_label
  _atom_site_type_symbol
  _atom_site_fract_x
  _atom_site_fract_y
  _atom_site_fract_z
O1 O -0.04011 0.54832 0.95923
 O2 O -0.06176 0.44819 1.01301
 O3 O -0.05750 0.53942 1.01299
 O4 O -0.04347 0.45565 0.95903
 O5 O 0.03663 0.44294 0.97659
 O6 O 0.02202 0.52294 1.03206
 O7 O 0.01828 0.43212 1.03011
 O8 O 0.03952 0.53499 0.97818
 Cu9 Cu -0.05869 0.49927 0.98406
 Cu10 Cu 0.03714 0.48184 1.00591
 C11 C 0.00327 0.55956 0.95997
 C12 C -0.02548 0.42290 1.03083
 C13 C -0.02011 0.54500 1.03200
 C14 C -0.00093 0.43473 0.95872
 O15 O 0.56940 -0.01721 0.52904
 O16 O 0.45874 -0.03096 0.47520
 O17 O 0.55210 -0.02862 0.47336
 O18 O 0.47683 -0.01999 0.53098
 O19 O 0.46212 0.05870 0.51773
 O20 O 0.53888 0.05016 0.46052
 O21 O 0.44499 0.04771 0.46184
 O22 O 0.55473 0.06155 0.51663
 Cu23 Cu 0.51565 -0.03207 0.50334
 Cu24 Cu 0.49880 0.06242 0.48771
 C25 C 0.58084 0.02454 0.53238
 C26 C 0.43262 0.00602 0.45949
 C27 C 0.55892 0.00925 0.45730
 C28 C 0.45664 0.02078 0.53429
 C29 C -0.06095 -0.09588 0.22530
 C30 C -0.10287 -0.09075 0.24295
 C31 C -0.10326 -0.05152 0.25733
 C32 C -0.06183 -0.02055 0.25267
 C33 C -0.06753 -0.04775 0.20460
 C34 C -0.06818 -0.00795 0.21851
 C35 C -0.01392 -0.09483 0.24809
 C36 C -0.01394 -0.05571 0.26249
 H37 H -0.12980 -0.11557 0.24448
 H38 H -0.06268 0.01088 0.26471
 H39 H -0.06987 -0.04622 0.18084
 H40 H 0.01731 -0.12251 0.25184
 C41 C 0.12470 0.03095 0.74113
 C42 C 0.12272 -0.01486 0.76260
 C43 C 0.08212 -0.01376 0.77544
 C44 C 0.04719 0.03372 0.76596
 C45 C 0.07553 0.03799 0.71909
 C46 C 0.03456 0.04006 0.73164
 C47 C 0.12078 0.07124 0.76026
 C48 C 0.08022 0.07304 0.77314
 H49 H 0.15117 -0.04524 0.76786
 H50 H 0.01517 0.03494 0.77726
 H51 H 0.07424 0.03901 0.69543
 H52 H 0.14794 0.09610 0.76333
 C53 C -0.03399 -0.35838 0.09583
 C54 C 0.00727 -0.39341 0.10022
 C55 C 0.01164 -0.42482 0.07953
 C56 C -0.02545 -0.42241 0.05417
 C57 C -0.06723 -0.38822 0.05005
 C58 C -0.07132 -0.35635 0.07055
 C59 C -0.03737 -0.32327 0.11706
 C60 C -0.08308 -0.30683 0.12369
 C61 C -0.08633 -0.27221 0.14259
 C62 C -0.04390 -0.25347 0.15554
 C63 C 0.00195 -0.27082 0.14949
 C64 C 0.00513 -0.30501 0.13037
 C65 C -0.04757 -0.21479 0.17438
 C66 C -0.01759 -0.17762 0.17279
 C67 C -0.02182 -0.14052 0.18975
 C68 C -0.05687 -0.13867 0.20837
 C69 C -0.08612 -0.17663 0.21049
 C70 C -0.08149 -0.21413 0.19369
 H71 H 0.03622 -0.39673 0.11972
 H72 H 0.04403 -0.45117 0.08347
 H73 H -0.09629 -0.38537 0.03062
 H74 H -0.10321 -0.32937 0.06616
 H75 H -0.11646 -0.32063 0.11423
 H76 H -0.12232 -0.25934 0.14650
 H77 H 0.03552 -0.25784 0.15945
 H78 H 0.04088 -0.31631 0.12552
 H79 H 0.00857 -0.17651 0.15793
 H80 H 0.00193 -0.11245 0.18792
 H81 H -0.11247 -0.17830 0.22507
 H82 H -0.10431 -0.24285 0.19602
 C83 C -0.05017 0.30699 0.09250
 C84 C -0.09001 0.33845 0.07488
 C85 C -0.08195 0.37647 0.05441
 C86 C -0.03371 0.38467 0.05138
 C87 C 0.00617 0.35369 0.06942
 C88 C -0.00199 0.31516 0.08945
 C89 C -0.05868 0.26500 0.11330
 C90 C -0.02494 0.24820 0.14006
 C91 C -0.03082 0.20656 0.15836
 C92 C -0.07109 0.18099 0.15069
 C93 C -0.10605 0.19905 0.12465
 C94 C -0.09969 0.24019 0.10606
 C95 C -0.07483 0.13420 0.16872
 C96 C -0.09331 0.09659 0.15474
 C97 C -0.09319 0.05143 0.17108
 C98 C -0.07335 0.04191 0.20186
 C99 C -0.05699 0.08023 0.21606
 C100 C -0.05782 0.12575 0.19975
 H101 H -0.12759 0.33398 0.07698
 H102 H -0.11369 0.39969 0.04118
 H103 H 0.04388 0.35850 0.06773
 H104 H 0.02965 0.29119 0.10208
 H105 H 0.00649 0.26689 0.14678
 H106 H -0.00281 0.19364 0.17804
 H107 H -0.13812 0.18103 0.11829
 H108 H -0.12628 0.25159 0.08556
 H109 H -0.10652 0.10137 0.13090
 H110 H -0.10832 0.02402 0.15920
 H111 H -0.04231 0.07537 0.23963
 H112 H -0.04454 0.15418 0.21146
 C113 C 0.36820 0.02982 0.60176
 C114 C 0.39027 -0.01493 0.59734
 C115 C 0.41909 -0.01781 0.57553
 C116 C 0.42649 0.02401 0.55760
 C117 C 0.40471 0.06881 0.56214
 C118 C 0.37589 0.07168 0.58398
 C119 C 0.33637 0.03258 0.62436
 C120 C 0.29219 0.06407 0.61797
 C121 C 0.26106 0.06515 0.63866
 C122 C 0.27336 0.03475 0.66620
 C123 C 0.31794 0.00386 0.67282
 C124 C 0.34913 0.00282 0.65213
 C125 C 0.23874 0.03388 0.68734
 C126 C 0.22934 -0.01009 0.70190
 C127 C 0.19398 -0.01141 0.72003
 C128 C 0.16773 0.03140 0.72462
 C129 C 0.17745 0.07538 0.70995
 C130 C 0.21272 0.07664 0.69178
 H131 H 0.38445 -0.04789 0.61036
 H132 H 0.43526 -0.05290 0.57257
 H133 H 0.40989 0.10172 0.54879
 H134 H 0.35987 0.10673 0.58710
 H135 H 0.28094 0.08690 0.59661
 H136 H 0.22657 0.08875 0.63271
 H137 H 0.32870 -0.01951 0.69402
 H138 H 0.38332 -0.02125 0.65790
 H139 H 0.24782 -0.04374 0.69824
 H140 H 0.18615 -0.04631 0.72921
 H141 H 0.15669 0.10894 0.71186
 H142 H 0.21913 0.11111 0.68084
 C143 C -0.29391 0.03983 0.59643
 C144 C -0.32530 0.08052 0.58059
 C145 C -0.36638 0.07557 0.55930
 C146 C -0.37765 0.02969 0.55358
 C147 C -0.34648 -0.01101 0.56971
 C148 C -0.30503 -0.00597 0.59063
 C149 C -0.24914 0.04498 0.61840
 C150 C -0.23262 0.01059 0.64406
 C151 C -0.18877 0.01358 0.66359
 C152 C -0.16058 0.05142 0.65824
 C153 C -0.17812 0.08685 0.63321
 C154 C -0.22159 0.08348 0.61344
 C155 C -0.11186 0.05236 0.67770
 C156 C -0.07240 0.06828 0.66538
 C157 C -0.02570 0.06599 0.68306
 C158 C -0.01656 0.04662 0.71353
 C159 C -0.05661 0.03259 0.72607
 C160 C -0.10359 0.03547 0.70842
 H161 H -0.31844 0.11632 0.58480
 H162 H -0.38955 0.10784 0.54757
 H163 H -0.35358 -0.04698 0.56593
 H164 H -0.28120 -0.03811 0.60187
 H165 H -0.25334 -0.01901 0.64897
 H166 H -0.17628 -0.01468 0.68241
 H167 H -0.15796 0.11703 0.62865
 H168 H -0.23279 0.11043 0.59383
 H169 H -0.07707 0.08130 0.64181
 H170 H 0.00316 0.07921 0.67248
 H171 H -0.05207 0.01831 0.74935
 H172 H -0.13339 0.02404 0.71886
 C173 C 0.02612 -0.31309 0.90428
 C174 C -0.02124 -0.32748 0.90274
 C175 C -0.02852 -0.36928 0.92040
 C176 C 0.01142 -0.39769 0.94001
 C177 C 0.05890 -0.38372 0.94121
 C178 C 0.06616 -0.34190 0.92356
 C179 C 0.03362 -0.26790 0.88615
 C180 C 0.06606 -0.23723 0.89838
 C181 C 0.07311 -0.19470 0.88137
 C182 C 0.04788 -0.18182 0.85172
 C183 C 0.01528 -0.21238 0.83953
 C184 C 0.00822 -0.25492 0.85655
 C185 C 0.05624 -0.13722 0.83336
 C186 C 0.01680 -0.10830 0.81363
 C187 C 0.02509 -0.06756 0.79538
 C188 C 0.07294 -0.05491 0.79636
 C189 C 0.11225 -0.08317 0.81657
 C190 C 0.10399 -0.12385 0.83486
 H191 H -0.05292 -0.30581 0.88836
 H192 H -0.06560 -0.37891 0.91902
 H193 H 0.09047 -0.40484 0.95603
 H194 H 0.10320 -0.33217 0.92492
 H195 H 0.08550 -0.24579 0.92129
 H196 H 0.09792 -0.17158 0.89154
 H197 H -0.00406 -0.20390 0.81661
 H198 H -0.01648 -0.27810 0.84635
 H199 H -0.02051 -0.11731 0.81221
 H200 H -0.00580 -0.04695 0.77987
 H201 H 0.14952 -0.07401 0.81817
 H202 H 0.13523 -0.14552 0.84966
 C203 C 0.01716 0.32834 0.90114
 C204 C 0.05826 0.34207 0.91913
 C205 C 0.05234 0.37722 0.93732
 C206 C 0.00515 0.39964 0.93796
 C207 C -0.03596 0.38672 0.91950
 C208 C -0.03001 0.35145 0.90125
 C209 C 0.02375 0.28951 0.88276
 C210 C -0.00338 0.29329 0.85360
 C211 C 0.00432 0.25727 0.83613
 C212 C 0.03931 0.21674 0.84746
 C213 C 0.06564 0.21257 0.87683
 C214 C 0.05795 0.24848 0.89426
 C215 C 0.04941 0.17950 0.82858
 C216 C 0.09813 0.15970 0.82932
 C217 C 0.10807 0.12503 0.81146
 C218 C 0.06951 0.10929 0.79244
 C219 C 0.02074 0.12879 0.79178
 C220 C 0.01078 0.16368 0.80961
 H221 H 0.09517 0.32563 0.91912
 H222 H 0.08484 0.38647 0.95113
 H223 H -0.07283 0.40323 0.91953
 H224 H -0.06243 0.34142 0.88779
 H225 H -0.02965 0.32466 0.84402
 H226 H -0.01616 0.26175 0.81347
 H227 H 0.09212 0.18134 0.88640
 H228 H 0.07864 0.24397 0.91686
 H229 H 0.12874 0.17150 0.84344
 H230 H 0.14600 0.11027 0.81276
 H231 H -0.00969 0.11775 0.77710
 H232 H -0.02716 0.17801 0.80872
 C233 C -0.34561 -0.00216 0.39357
 C234 C -0.35406 -0.04329 0.41171
 C235 C -0.38538 -0.03954 0.43213
 C236 C -0.40899 0.00547 0.43498
 C237 C -0.40076 0.04666 0.41678
 C238 C -0.36939 0.04288 0.39630
 C239 C -0.31176 -0.00644 0.37214
 C240 C -0.27874 0.02752 0.36820
 C241 C -0.24576 0.02239 0.34878
 C242 C -0.24513 -0.01679 0.33282
 C243 C -0.27854 -0.05042 0.33654
 C244 C -0.31148 -0.04527 0.35591
 C245 C -0.20928 -0.02326 0.31276
 C246 C -0.22345 -0.04038 0.28560
 C247 C -0.18922 -0.04893 0.26744
 C248 C -0.14005 -0.04039 0.27595
 C249 C -0.12605 -0.02218 0.30271
 C250 C -0.16028 -0.01378 0.32096
 H251 H -0.33573 -0.07841 0.41052
 H252 H -0.39068 -0.07196 0.44590
 H253 H -0.41844 0.08186 0.41840
 H254 H -0.36410 0.07517 0.38240
 H255 H -0.27771 0.05760 0.38058
 H256 H -0.22085 0.04918 0.34618
 H257 H -0.27865 -0.08132 0.32487
 H258 H -0.33684 -0.07174 0.35814
 H259 H -0.26111 -0.04711 0.27832
 H260 H -0.20132 -0.06205 0.24663
 H261 H -0.08826 -0.01586 0.31002
 H262 H -0.14800 -0.00120 0.34192
 C263 C 0.29829 -0.01028 0.40055
 C264 C 0.32827 -0.05066 0.41782
 C265 C 0.37212 -0.04538 0.43665
 C266 C 0.38703 0.00042 0.43868
 C267 C 0.35725 0.04082 0.42126
 C268 C 0.31336 0.03552 0.40241
 C269 C 0.25138 -0.01603 0.38082
 C270 C 0.20879 0.01664 0.37844
 C271 C 0.16454 0.01069 0.36018
 C272 C 0.16188 -0.02812 0.34394
 C273 C 0.20454 -0.06060 0.34621
 C274 C 0.24874 -0.05463 0.36441
 C275 C 0.11505 -0.03468 0.32447
 C276 C 0.10084 -0.08088 0.32316
 C277 C 0.05830 -0.08750 0.30363
 C278 C 0.02896 -0.04809 0.28489
 C279 C 0.04229 -0.00176 0.28687
 C280 C 0.08489 0.00492 0.30643
 H281 H 0.31739 -0.08636 0.41721
 H282 H 0.39405 -0.07723 0.44986
 H283 H 0.36771 0.07661 0.42228
 H284 H 0.29141 0.06727 0.38909
 H285 H 0.20944 0.04635 0.39112
 H286 H 0.13217 0.03600 0.35915
 H287 H 0.20395 -0.09032 0.33352
 H288 H 0.28108 -0.07992 0.36533
 H289 H 0.12270 -0.11200 0.33724
 H290 H 0.04848 -0.12360 0.30317
 H291 H 0.02098 0.02921 0.27257
 H292 H 0.09509 0.04092 0.30671
   
