data_POSCAR
  _audit_creation_date              2014-09-24
  _audit_creation_method            'ToBaCCo'
  _symmetry_space_group_name_H-M    'P1'
  _symmetry_Int_Tables_number       1
  _symmetry_cell_setting            triclinic
  loop_
  _symmetry_equiv_pos_as_xyz
 x,y,z
_cell_length_a 49.5768
_cell_length_b 49.5224
_cell_length_c 44.9005
_cell_angle_alpha 90.001000
_cell_angle_beta 90.000500
_cell_angle_gamma 90.004600
loop_
  _atom_site_label
  _atom_site_type_symbol
  _atom_site_fract_x
  _atom_site_fract_y
  _atom_site_fract_z
C1 C 0.08343 0.27622 0.01462
 C2 C 0.08347 0.27612 -0.01593
 C3 C 0.05749 0.28271 -0.02489
 N4 N 0.04173 0.28705 -0.00079
 C5 C 0.05744 0.28285 0.02337
 C6 C 0.04914 0.28605 -0.05478
 C7 C 0.02205 0.29050 -0.06344
 C8 C 0.01392 0.29856 -0.09167
 C9 C -0.01382 0.29858 -0.09168
 C10 C -0.02197 0.29052 -0.06346
 N11 N 0.00004 0.28556 -0.04648
 C12 C -0.04907 0.28610 -0.05481
 C13 C -0.05742 0.28277 -0.02492
 C14 C -0.08341 0.27622 -0.01596
 C15 C -0.08337 0.27632 0.01459
 C16 C -0.05737 0.28292 0.02334
 N17 N -0.04165 0.28710 -0.00082
 C18 C -0.04899 0.28635 0.05316
 C19 C -0.02194 0.29070 0.06183
 C20 C -0.01384 0.29861 0.09009
 C21 C 0.01391 0.29859 0.09010
 C22 C 0.02202 0.29067 0.06184
 N23 N 0.00004 0.28580 0.04483
 C24 C 0.04907 0.28629 0.05319
 H25 H 0.10062 0.27207 0.02875
 H26 H 0.10072 0.27189 -0.02996
 H27 H 0.00003 0.27644 0.02417
 H28 H 0.02667 0.30355 -0.11046
 H29 H -0.02655 0.30357 -0.11047
 H30 H -0.10067 0.27200 -0.02999
 H31 H -0.10057 0.27219 0.02872
 H32 H 0.02666 0.30348 0.10891
 H33 H 0.00003 0.27611 -0.02586
 H34 H -0.02659 0.30351 0.10890
 C35 C 0.41622 0.77760 0.48481
 C36 C 0.41625 0.77764 0.51537
 C37 C 0.44231 0.78398 0.52417
 N38 N 0.45807 0.78806 0.50002
 C39 C 0.44227 0.78391 0.47592
 C40 C 0.45073 0.78723 0.55400
 C41 C 0.47781 0.79145 0.56268
 C42 C 0.48596 0.79920 0.59098
 C43 C 0.51371 0.79920 0.59094
 C44 C 0.52179 0.79145 0.56261
 N45 N 0.49978 0.78664 0.54562
 C46 C 0.54885 0.78723 0.55386
 C47 C 0.55721 0.78401 0.52400
 C48 C 0.58326 0.77770 0.51514
 C49 C 0.58323 0.77769 0.48457
 C50 C 0.55717 0.78398 0.47576
 N51 N 0.54141 0.78809 0.49990
 C52 C 0.54875 0.78717 0.44592
 C53 C 0.52166 0.79134 0.43723
 C54 C 0.51351 0.79903 0.40892
 C55 C 0.48576 0.79900 0.40896
 C56 C 0.47768 0.79130 0.43730
 N57 N 0.49970 0.78654 0.45430
 C58 C 0.45063 0.78708 0.44606
 H59 H 0.39895 0.77355 0.47075
 H60 H 0.39901 0.77364 0.52948
 H61 H 0.49972 0.77735 0.47505
 H62 H 0.47323 0.80402 0.60983
 H63 H 0.52648 0.80402 0.60975
 H64 H 0.60054 0.77370 0.52920
 H65 H 0.60048 0.77367 0.47048
 H66 H 0.47298 0.80378 0.39013
 H67 H 0.49976 0.77740 0.52490
 H68 H 0.52623 0.80383 0.39005
 C69 C 1.08415 0.72383 -0.01529
 C70 C 1.08416 0.72377 0.01525
 C71 C 1.05817 0.71710 0.02411
 N72 N 1.04244 0.71285 -0.00004
 C73 C 1.05817 0.71719 -0.02418
 C74 C 1.04981 0.71365 0.05399
 C75 C 1.02271 0.70925 0.06263
 C76 C 1.01451 0.70123 0.09086
 C77 C 0.98676 0.70131 0.09082
 C78 C 0.97871 0.70935 0.06259
 N79 N 1.00074 0.71425 0.04563
 C80 C 0.95167 0.71378 0.05393
 C81 C 0.94332 0.71720 0.02412
 C82 C 0.91732 0.72374 0.01530
 C83 C 0.91731 0.72378 -0.01526
 C84 C 0.94331 0.71726 -0.02411
 N85 N 0.95907 0.71300 -0.00001
 C86 C 0.95166 0.71394 -0.05394
 C87 C 0.97870 0.70954 -0.06264
 C88 C 0.98673 0.70159 -0.09090
 C89 C 1.01448 0.70153 -0.09096
 C90 C 1.02269 0.70947 -0.06271
 N91 N 1.00073 0.71440 -0.04568
 C92 C 1.04980 0.71384 -0.05408
 H93 H 1.10137 0.72808 -0.02936
 H94 H 1.10138 0.72798 0.02932
 H95 H 1.00077 0.72377 -0.02502
 H96 H 1.02721 0.69623 0.10967
 H97 H 0.97398 0.69636 0.10958
 H98 H 0.90009 0.72786 0.02939
 H99 H 0.90009 0.72794 -0.02934
 H100 H 1.02717 0.69659 -0.10980
 H101 H 1.00077 0.72368 0.02501
 H102 H 0.97394 0.69669 -0.10968
 C103 C 0.58353 0.22243 0.48524
 C104 C 0.58350 0.22241 0.51580
 C105 C 0.55745 0.21607 0.52461
 N106 N 0.54169 0.21196 0.50046
 C107 C 0.55749 0.21609 0.47636
 C108 C 0.54903 0.21284 0.55444
 C109 C 0.52195 0.20863 0.56313
 C110 C 0.51381 0.20091 0.59144
 C111 C 0.48605 0.20090 0.59140
 C112 C 0.47797 0.20861 0.56306
 N113 N 0.49998 0.21341 0.54606
 C114 C 0.45091 0.21280 0.55430
 C115 C 0.44254 0.21598 0.52444
 C116 C 0.41649 0.22226 0.51556
 C117 C 0.41652 0.22224 0.48500
 C118 C 0.44259 0.21595 0.47620
 N119 N 0.45835 0.21187 0.50034
 C120 C 0.45101 0.21273 0.44636
 C121 C 0.47810 0.20856 0.43768
 C122 C 0.48626 0.20084 0.40938
 C123 C 0.51401 0.20089 0.40942
 C124 C 0.52208 0.20863 0.43775
 N125 N 0.50006 0.21339 0.45475
 C126 C 0.54913 0.21288 0.44650
 H127 H 0.60080 0.22647 0.47118
 H128 H 0.60075 0.22644 0.52990
 H129 H 0.50003 0.22262 0.47548
 H130 H 0.52654 0.19611 0.61029
 H131 H 0.47329 0.19609 0.61022
 H132 H 0.39922 0.22627 0.52962
 H133 H 0.39927 0.22623 0.47089
 H134 H 0.52679 0.19610 0.39060
 H135 H 0.50000 0.22263 0.52533
 H136 H 0.47354 0.19601 0.39052
 C137 C 0.72377 -0.08374 -0.01590
 C138 C 0.72378 -0.08383 0.01464
 C139 C 0.71702 -0.05788 0.02361
 N140 N 0.71267 -0.04207 -0.00048
 C141 C 0.71702 -0.05773 -0.02468
 C142 C 0.71356 -0.04961 0.05352
 C143 C 0.70904 -0.02251 0.06218
 C144 C 0.70092 -0.01437 0.09040
 C145 C 0.70088 0.01340 0.09039
 C146 C 0.70896 0.02152 0.06220
 N147 N 0.71397 -0.00047 0.04522
 C148 C 0.71341 0.04861 0.05363
 C149 C 0.71697 0.05706 0.02386
 C150 C 0.72369 0.08308 0.01521
 C151 C 0.72384 0.08322 -0.01534
 C152 C 0.71717 0.05726 -0.02439
 N153 N 0.71275 0.04142 -0.00037
 C154 C 0.71381 0.04901 -0.05431
 C155 C 0.70925 0.02192 -0.06300
 C156 C 0.70108 0.01385 -0.09121
 C157 C 0.70097 -0.01392 -0.09126
 C158 C 0.70908 -0.02214 -0.06308
 N159 N 0.71415 -0.00016 -0.04608
 C160 C 0.71354 -0.04928 -0.05452
 H161 H 0.72805 -0.10092 -0.03003
 H162 H 0.72806 -0.10110 0.02865
 H163 H 0.72365 -0.00024 -0.02549
 H164 H 0.69594 -0.02713 0.10918
 H165 H 0.69587 0.02616 0.10917
 H166 H 0.72787 0.10024 0.02941
 H167 H 0.72813 0.10052 -0.02929
 H168 H 0.69590 -0.02662 -0.11006
 H169 H 0.72345 -0.00043 0.02463
 H170 H 0.69610 0.02665 -0.10996
 C171 C 0.22248 0.41618 0.48512
 C172 C 0.22241 0.41626 0.51568
 C173 C 0.21607 0.44236 0.52443
 N174 N 0.21202 0.45809 0.50025
 C175 C 0.21618 0.44223 0.47618
 C176 C 0.21280 0.45083 0.55424
 C177 C 0.20864 0.47795 0.56290
 C178 C 0.20093 0.48613 0.59121
 C179 C 0.20100 0.51392 0.59117
 C180 C 0.20873 0.52198 0.56283
 N181 N 0.21347 0.49993 0.54584
 C182 C 0.21296 0.54906 0.55406
 C183 C 0.21612 0.55739 0.52418
 C184 C 0.22239 0.58345 0.51525
 C185 C 0.22233 0.58337 0.48469
 C186 C 0.21602 0.55726 0.47594
 N187 N 0.21198 0.54152 0.50011
 C188 C 0.21277 0.54878 0.44612
 C189 C 0.20863 0.52166 0.43746
 C190 C 0.20094 0.51347 0.40915
 C191 C 0.20103 0.48569 0.40919
 C192 C 0.20876 0.47763 0.43753
 N193 N 0.21348 0.49969 0.45453
 C194 C 0.21303 0.45056 0.44630
 H195 H 0.22654 0.39887 0.47110
 H196 H 0.22641 0.39902 0.52982
 H197 H 0.22269 0.49975 0.47526
 H198 H 0.19611 0.47341 0.61007
 H199 H 0.19622 0.52671 0.60998
 H200 H 0.22643 0.60076 0.52927
 H201 H 0.22631 0.60062 0.47054
 H202 H 0.19627 0.47288 0.39038
 H203 H 0.22268 0.49988 0.52511
 H204 H 0.19610 0.52619 0.39029
 C205 C 0.27630 0.91689 0.01514
 C206 C 0.27617 0.91677 -0.01541
 C207 C 0.28283 0.94274 -0.02444
 N208 N 0.28724 0.95857 -0.00039
 C209 C 0.28302 0.94291 0.02382
 C210 C 0.28620 0.95102 -0.05435
 C211 C 0.29074 0.97812 -0.06302
 C212 C 0.29889 0.98621 -0.09122
 C213 C 0.29898 1.01398 -0.09125
 C214 C 0.29087 1.02218 -0.06306
 N215 N 0.28583 1.00018 -0.04607
 C216 C 0.28640 1.04931 -0.05447
 C217 C 0.28293 1.05773 -0.02462
 C218 C 0.27618 1.08374 -0.01581
 C219 C 0.27619 1.08381 0.01473
 C220 C 0.28296 1.05785 0.02367
 N221 N 0.28730 1.04206 -0.00043
 C222 C 0.28644 1.04956 0.05357
 C223 C 0.29095 1.02246 0.06221
 C224 C 0.29906 1.01430 0.09042
 C225 C 0.29909 0.98652 0.09039
 C226 C 0.29101 0.97842 0.06219
 N227 N 0.28601 1.00043 0.04523
 C228 C 0.28656 0.95135 0.05359
 H229 H 0.27212 0.89973 0.02933
 H230 H 0.27188 0.89949 -0.02938
 H231 H 0.27653 1.00041 0.02464
 H232 H 0.30388 0.97343 -0.10998
 H233 H 0.30404 1.02670 -0.11004
 H234 H 0.27189 1.10093 -0.02993
 H235 H 0.27192 1.10107 0.02875
 H236 H 0.30410 0.97375 0.10916
 H237 H 0.27633 1.00024 -0.02549
 H238 H 0.30405 1.02705 0.10921
 C239 C 0.77761 0.41654 0.51526
 C240 C 0.77764 0.41662 0.48469
 C241 C 0.78394 0.44273 0.47594
 N242 N 0.78801 0.45847 0.50011
 C243 C 0.78389 0.44260 0.52418
 C244 C 0.78717 0.45120 0.44612
 C245 C 0.79132 0.47832 0.43745
 C246 C 0.79901 0.48651 0.40914
 C247 C 0.79893 0.51429 0.40918
 C248 C 0.79121 0.52235 0.43752
 N249 N 0.78649 0.50030 0.45452
 C250 C 0.78696 0.54943 0.44629
 C251 C 0.78380 0.55775 0.47617
 C252 C 0.77748 0.58380 0.48510
 C253 C 0.77754 0.58373 0.51566
 C254 C 0.78388 0.55763 0.52442
 N255 N 0.78795 0.54190 0.50024
 C256 C 0.78715 0.54916 0.55423
 C257 C 0.79134 0.52205 0.56290
 C258 C 0.79905 0.51388 0.59120
 C259 C 0.79901 0.48609 0.59116
 C260 C 0.79128 0.47802 0.56283
 N261 N 0.78651 0.50006 0.54583
 C262 C 0.78706 0.45094 0.55406
 H263 H 0.77359 0.39923 0.52928
 H264 H 0.77365 0.39937 0.47056
 H265 H 0.77730 0.50011 0.52510
 H266 H 0.80383 0.47378 0.39027
 H267 H 0.80369 0.52709 0.39036
 H268 H 0.77342 0.60111 0.47108
 H269 H 0.77353 0.60097 0.52980
 H270 H 0.80380 0.47330 0.60998
 H271 H 0.77729 0.50024 0.47526
 H272 H 0.80387 0.52661 0.61006
 O273 O 0.23458 0.27097 0.21197
 O274 O 0.29199 0.25408 0.26054
 O275 O 0.27160 0.23385 0.21180
 O276 O 0.25496 0.29120 0.26069
 O277 O 0.22862 0.26477 0.28747
 O278 O 0.24526 0.20742 0.23857
 O279 O 0.26565 0.22765 0.28732
 O280 O 0.20823 0.24455 0.23874
 Cu281 Cu 0.26592 0.26517 0.23357
 Cu282 Cu 0.23431 0.23345 0.26571
 C283 C 0.21161 0.26051 0.21691
 C284 C 0.28861 0.23812 0.28239
 C285 C 0.26113 0.21086 0.21667
 C286 C 0.23908 0.28777 0.28258
 O287 O 0.70813 0.74587 0.26042
 O288 O 0.76570 0.72907 0.21202
 O289 O 0.74522 0.70880 0.26066
 O290 O 0.72859 0.76611 0.21173
 O291 O 0.75483 0.79259 0.23858
 O292 O 0.77144 0.73528 0.28753
 O293 O 0.79193 0.75554 0.23889
 O294 O 0.73437 0.77235 0.28727
 Cu295 Cu 0.73428 0.73482 0.23352
 Cu296 Cu 0.76576 0.76659 0.26576
 C297 C 0.71143 0.76183 0.28228
 C298 C 0.78864 0.73957 0.21704
 C299 C 0.76103 0.71226 0.28260
 C300 C 0.73902 0.78913 0.21663
 O301 O 0.79200 0.24497 0.23897
 O302 O 0.73470 0.22835 0.28781
 O303 O 0.75492 0.20791 0.23915
 O304 O 0.77179 0.26542 0.28764
 O305 O 0.74541 0.29177 0.26080
 O306 O 0.72854 0.23425 0.21232
 O307 O 0.70832 0.25470 0.26098
 O308 O 0.76563 0.27131 0.21214
 Cu309 Cu 0.76599 0.23402 0.26608
 Cu310 Cu 0.73433 0.26565 0.23387
 C311 C 0.78859 0.26085 0.21707
 C312 C 0.71173 0.23882 0.28288
 C313 C 0.73898 0.21127 0.21730
 C314 C 0.76135 0.28841 0.28265
 O315 O 0.27109 0.76557 0.21206
 O316 O 0.25421 0.70807 0.26057
 O317 O 0.23399 0.72851 0.21190
 O318 O 0.29131 0.74513 0.26071
 O319 O 0.26495 0.77149 0.28754
 O320 O 0.20763 0.75487 0.23873
 O321 O 0.22785 0.73444 0.28740
 O322 O 0.24472 0.79193 0.23889
 Cu323 Cu 0.26529 0.73417 0.23362
 Cu324 Cu 0.23364 0.76582 0.26583
 C325 C 0.26066 0.78856 0.21705
 C326 C 0.23829 0.71144 0.28243
 C327 C 0.21103 0.73899 0.21682
 C328 C 0.28791 0.76102 0.28261
 O329 O 0.70861 0.25420 0.73972
 O330 O 0.76618 0.27095 0.78814
 O331 O 0.74567 0.29130 0.73955
 O332 O 0.72912 0.23384 0.78832
 O333 O 0.75537 0.20747 0.76137
 O334 O 0.77191 0.26493 0.71260
 O335 O 0.79243 0.24458 0.76119
 O336 O 0.73486 0.22783 0.71277
 Cu337 Cu 0.73477 0.26522 0.76663
 Cu338 Cu 0.76627 0.23356 0.73428
 C339 C 0.71191 0.23829 0.71782
 C340 C 0.78913 0.26049 0.78309
 C341 C 0.76148 0.28792 0.71759
 C342 C 0.73956 0.21085 0.78332
 O343 O 0.24472 0.79251 0.76137
 O344 O 0.22814 0.73501 0.71267
 O345 O 0.20773 0.75535 0.76133
 O346 O 0.26515 0.77217 0.71272
 O347 O 0.29150 0.74584 0.73961
 O348 O 0.23409 0.72902 0.78821
 O349 O 0.25450 0.70869 0.73954
 O350 O 0.27108 0.76618 0.78825
 Cu351 Cu 0.23380 0.76640 0.73433
 Cu352 Cu 0.26543 0.73480 0.76659
 C353 C 0.26059 0.78916 0.78328
 C354 C 0.23863 0.71204 0.71763
 C355 C 0.21111 0.73945 0.78323
 C356 C 0.28813 0.76174 0.71771
 O357 O 0.27102 0.23386 0.78812
 O358 O 0.25422 0.29136 0.73960
 O359 O 0.23388 0.27086 0.78817
 O360 O 0.29134 0.25434 0.73953
 O361 O 0.26508 0.22796 0.71260
 O362 O 0.20761 0.24448 0.76123
 O363 O 0.22796 0.26498 0.71266
 O364 O 0.24475 0.20748 0.76120
 Cu365 Cu 0.26525 0.26525 0.76655
 Cu366 Cu 0.23372 0.23358 0.73422
 C367 C 0.26063 0.21086 0.78310
 C368 C 0.23835 0.28798 0.71769
 C369 C 0.21093 0.26037 0.78315
 C370 C 0.28802 0.23845 0.71761
 O371 O 0.74541 0.70880 0.73933
 O372 O 0.72862 0.76630 0.78785
 O373 O 0.70830 0.74584 0.73924
 O374 O 0.76575 0.72929 0.78790
 O375 O 0.79203 0.75565 0.76097
 O376 O 0.73459 0.77221 0.71232
 O377 O 0.75491 0.79267 0.76093
 O378 O 0.77169 0.73516 0.71240
 Cu379 Cu 0.73438 0.73492 0.76628
 Cu380 Cu 0.76594 0.76657 0.73396
 C381 C 0.76129 0.71216 0.71744
 C382 C 0.73903 0.78930 0.78283
 C383 C 0.71164 0.76172 0.71732
 C384 C 0.78870 0.73977 0.78289
 C385 C 0.25951 0.14149 0.18090
 C386 C 0.27604 0.14545 0.15601
 C387 C 0.28840 0.17052 0.15149
 C388 C 0.28396 0.19168 0.17151
 C389 C 0.28536 0.06892 0.07540
 C390 C 0.25503 0.16262 0.20096
 C391 C 0.27943 0.12415 0.13451
 C392 C 0.28178 0.10652 0.11618
 C393 C 0.28397 0.08613 0.09435
 C394 C 0.26702 0.18804 0.19635
 H395 H 0.24978 0.12219 0.18458
 H396 H 0.30118 0.17383 0.13225
 H397 H 0.29348 0.21099 0.16730
 H398 H 0.24188 0.15915 0.21983
 C399 C 0.76009 0.64254 0.68233
 C400 C 0.77665 0.64640 0.65746
 C401 C 0.78890 0.67149 0.65272
 C402 C 0.78431 0.69278 0.67252
 C403 C 0.78611 0.56958 0.57733
 C404 C 0.75546 0.66380 0.70218
 C405 C 0.78014 0.62499 0.63615
 C406 C 0.78254 0.60727 0.61794
 C407 C 0.78474 0.58681 0.59623
 C408 C 0.76732 0.68924 0.69734
 H409 H 0.75044 0.62322 0.68616
 H410 H 0.80169 0.67471 0.63348
 H411 H 0.79374 0.71210 0.66816
 H412 H 0.74229 0.66040 0.72105
 C413 C 0.74057 0.85850 0.18086
 C414 C 0.72408 0.85451 0.15594
 C415 C 0.71177 0.82941 0.15139
 C416 C 0.71622 0.80826 0.17143
 C417 C 0.71467 0.93103 0.07534
 C418 C 0.74505 0.83738 0.20093
 C419 C 0.72067 0.87580 0.13444
 C420 C 0.71830 0.89343 0.11610
 C421 C 0.71608 0.91382 0.09428
 C422 C 0.73312 0.81193 0.19629
 H423 H 0.75026 0.87782 0.18456
 H424 H 0.69903 0.82608 0.13213
 H425 H 0.70674 0.78894 0.16720
 H426 H 0.75817 0.84088 0.21983
 C427 C 0.23963 0.35757 0.68250
 C428 C 0.22310 0.35369 0.65761
 C429 C 0.21083 0.32860 0.65289
 C430 C 0.21538 0.30733 0.67273
 C431 C 0.21380 0.43042 0.57734
 C432 C 0.24421 0.33633 0.70238
 C433 C 0.21966 0.37507 0.63625
 C434 C 0.21730 0.39276 0.61801
 C435 C 0.21514 0.41320 0.59626
 C436 C 0.23234 0.31089 0.69756
 H437 H 0.24929 0.37689 0.68632
 H438 H 0.19806 0.32537 0.63363
 H439 H 0.20594 0.28801 0.66838
 H440 H 0.25737 0.33974 0.72127
 C441 C 0.82900 0.28826 0.15204
 C442 C 0.85404 0.27593 0.15665
 C443 C 0.85796 0.25937 0.18153
 C444 C 0.83681 0.25483 0.20151
 C445 C 0.93059 0.28530 0.07625
 C446 C 0.80781 0.28375 0.17198
 C447 C 0.87536 0.27936 0.13523
 C448 C 0.89300 0.28174 0.11694
 C449 C 0.91339 0.28393 0.09516
 C450 C 0.81141 0.26678 0.19681
 H451 H 0.82572 0.30105 0.13280
 H452 H 0.87726 0.24966 0.18527
 H453 H 0.84026 0.24166 0.22039
 H454 H 0.78852 0.29325 0.16772
 C455 C 0.32863 0.78919 0.65277
 C456 C 0.35368 0.77687 0.65744
 C457 C 0.35757 0.76033 0.68234
 C458 C 0.33639 0.75579 0.70228
 C459 C 0.43032 0.78619 0.57709
 C460 C 0.30742 0.78468 0.67268
 C461 C 0.37503 0.78029 0.63603
 C462 C 0.39269 0.78265 0.61777
 C463 C 0.41311 0.78483 0.59600
 C464 C 0.31099 0.76772 0.69752
 H465 H 0.32538 0.80197 0.63352
 H466 H 0.37686 0.75064 0.68611
 H467 H 0.33981 0.74263 0.72116
 H468 H 0.28813 0.79416 0.66837
 C469 C 0.17063 0.71159 0.15178
 C470 C 0.14559 0.72395 0.15637
 C471 C 0.14167 0.74052 0.18125
 C472 C 0.16282 0.74504 0.20124
 C473 C 0.06912 0.71467 0.07585
 C474 C 0.19181 0.71608 0.17174
 C475 C 0.12429 0.72054 0.13492
 C476 C 0.10666 0.71819 0.11662
 C477 C 0.08629 0.71602 0.09481
 C478 C 0.18821 0.73306 0.19656
 H479 H 0.17390 0.69879 0.13255
 H480 H 0.12239 0.75024 0.18497
 H481 H 0.15938 0.75821 0.22011
 H482 H 0.21109 0.70656 0.16749
 C483 C 0.67121 0.21084 0.65303
 C484 C 0.64620 0.22321 0.65774
 C485 C 0.64239 0.23979 0.68262
 C486 C 0.66362 0.24432 0.70251
 C487 C 0.56945 0.21389 0.57753
 C488 C 0.69248 0.21533 0.67288
 C489 C 0.62481 0.21979 0.63639
 C490 C 0.60711 0.21744 0.61816
 C491 C 0.58667 0.21526 0.59643
 C492 C 0.68900 0.23234 0.69770
 H493 H 0.67440 0.19802 0.63379
 H494 H 0.62313 0.24953 0.68643
 H495 H 0.66027 0.25751 0.72138
 H496 H 0.71174 0.20581 0.66853
 C497 C 0.74107 0.14134 0.81875
 C498 C 0.72456 0.14522 0.84367
 C499 C 0.71227 0.17030 0.84835
 C500 C 0.71675 0.19154 0.82843
 C501 C 0.71497 0.06840 0.92390
 C502 C 0.74559 0.16254 0.79880
 C503 C 0.72111 0.12383 0.86505
 C504 C 0.71870 0.10613 0.88329
 C505 C 0.71643 0.08566 0.90502
 C506 C 0.73366 0.18797 0.80356
 H507 H 0.75075 0.12203 0.81496
 H508 H 0.69951 0.17355 0.86761
 H509 H 0.70727 0.21085 0.83275
 H510 H 0.75871 0.15912 0.77990
 C511 C 0.21070 0.67087 0.34724
 C512 C 0.22303 0.64581 0.34261
 C513 C 0.23962 0.64192 0.31776
 C514 C 0.24420 0.66313 0.29784
 C515 C 0.21377 0.56919 0.42301
 C516 C 0.21525 0.69212 0.32736
 C517 C 0.21960 0.62446 0.36401
 C518 C 0.21725 0.60680 0.38229
 C519 C 0.21510 0.58639 0.40408
 C520 C 0.23227 0.68855 0.30258
 H521 H 0.19789 0.67412 0.36646
 H522 H 0.24933 0.62262 0.31402
 H523 H 0.25741 0.65972 0.27900
 H524 H 0.20576 0.71142 0.33165
 C525 C 0.25901 0.85867 0.81871
 C526 C 0.27556 0.85482 0.84360
 C527 C 0.28791 0.82977 0.84825
 C528 C 0.28344 0.80852 0.82834
 C529 C 0.28506 0.93163 0.92385
 C530 C 0.25451 0.83746 0.79876
 C531 C 0.27899 0.87622 0.86497
 C532 C 0.28138 0.89392 0.88322
 C533 C 0.28362 0.91438 0.90495
 C534 C 0.26649 0.81205 0.80350
 H535 H 0.24929 0.87797 0.81493
 H536 H 0.30070 0.82654 0.86749
 H537 H 0.29296 0.78923 0.83265
 H538 H 0.24135 0.84086 0.77988
 C539 C 0.76009 0.35797 0.31790
 C540 C 0.77670 0.35410 0.34272
 C541 C 0.78902 0.32903 0.34738
 C542 C 0.78443 0.30777 0.32753
 C543 C 0.78614 0.43079 0.42301
 C544 C 0.75547 0.33674 0.29801
 C545 C 0.78018 0.37548 0.36408
 C546 C 0.78257 0.39316 0.38233
 C547 C 0.78477 0.41358 0.40409
 C548 C 0.76739 0.31131 0.30277
 H549 H 0.75039 0.37728 0.31413
 H550 H 0.80185 0.32580 0.36658
 H551 H 0.79391 0.28846 0.33184
 H552 H 0.74225 0.34014 0.27918
 C553 C 0.14143 0.25887 0.81837
 C554 C 0.14524 0.27546 0.84325
 C555 C 0.17027 0.28780 0.84797
 C556 C 0.19154 0.28329 0.82813
 C557 C 0.06848 0.28495 0.92339
 C558 C 0.16266 0.25432 0.79850
 C559 C 0.12384 0.27891 0.86457
 C560 C 0.10614 0.28130 0.88277
 C561 C 0.08570 0.28354 0.90449
 C562 C 0.18804 0.26629 0.80330
 H563 H 0.12216 0.24915 0.81455
 H564 H 0.17346 0.30062 0.86720
 H565 H 0.21080 0.29281 0.83248
 H566 H 0.15930 0.24113 0.77962
 C567 C 0.64198 0.76024 0.31763
 C568 C 0.64579 0.77687 0.34247
 C569 C 0.67078 0.78932 0.34708
 C570 C 0.69202 0.78485 0.32720
 C571 C 0.56916 0.78612 0.42283
 C572 C 0.66318 0.75573 0.29771
 C573 C 0.62444 0.78026 0.36387
 C574 C 0.60678 0.78259 0.38214
 C575 C 0.58636 0.78476 0.40391
 C576 C 0.68853 0.76779 0.30242
 H577 H 0.62273 0.75044 0.31389
 H578 H 0.67397 0.80218 0.36629
 H579 H 0.71127 0.79443 0.33148
 H580 H 0.65982 0.74249 0.27887
 C581 C 0.82935 0.71231 0.84770
 C582 C 0.85439 0.72462 0.84296
 C583 C 0.85821 0.74121 0.81809
 C584 C 0.83698 0.74578 0.79822
 C585 C 0.93122 0.71505 0.92301
 C586 C 0.80808 0.71684 0.82787
 C587 C 0.87579 0.72114 0.86427
 C588 C 0.89351 0.71873 0.88246
 C589 C 0.91398 0.71648 0.90415
 C590 C 0.81159 0.73383 0.80304
 H591 H 0.82615 0.69949 0.86693
 H592 H 0.87749 0.75090 0.81426
 H593 H 0.84035 0.75896 0.77934
 H594 H 0.78880 0.70735 0.83222
 C595 C 0.35799 0.23960 0.31792
 C596 C 0.35409 0.22300 0.34277
 C597 C 0.32907 0.21060 0.34733
 C598 C 0.30788 0.21510 0.32738
 C599 C 0.43060 0.21375 0.42326
 C600 C 0.33684 0.24413 0.29793
 C601 C 0.37540 0.21960 0.36422
 C602 C 0.39303 0.21726 0.38253
 C603 C 0.41341 0.21510 0.40433
 C604 C 0.31146 0.23213 0.30260
 H605 H 0.37727 0.24936 0.31422
 H606 H 0.32581 0.19777 0.36654
 H607 H 0.28860 0.20556 0.33162
 H608 H 0.34027 0.25735 0.27910
 C609 C 0.71153 0.82986 0.84769
 C610 C 0.72384 0.85493 0.84304
 C611 C 0.74039 0.85883 0.81816
 C612 C 0.74495 0.83762 0.79824
 C613 C 0.71455 0.93144 0.92357
 C614 C 0.71606 0.80862 0.82780
 C615 C 0.72042 0.87627 0.86445
 C616 C 0.71807 0.89391 0.88276
 C617 C 0.71591 0.91428 0.90459
 C618 C 0.73304 0.81219 0.80299
 H619 H 0.69875 0.82660 0.86693
 H620 H 0.75008 0.87814 0.81440
 H621 H 0.75813 0.84104 0.77937
 H622 H 0.70658 0.78931 0.83211
 C623 C 0.24050 0.35722 0.31817
 C624 C 0.22394 0.35328 0.34303
 C625 C 0.21164 0.32819 0.34762
 C626 C 0.21617 0.30698 0.32767
 C627 C 0.21420 0.43006 0.42328
 C628 C 0.24506 0.33605 0.29818
 C629 C 0.22043 0.37464 0.36444
 C630 C 0.21798 0.39233 0.38269
 C631 C 0.21568 0.41279 0.40441
 C632 C 0.23313 0.31060 0.30286
 H633 H 0.25018 0.37654 0.31444
 H634 H 0.19884 0.32490 0.36684
 H635 H 0.20669 0.28766 0.33192
 H636 H 0.25823 0.33951 0.27932
 C637 C 0.25935 0.14131 0.81837
 C638 C 0.27593 0.14519 0.84323
 C639 C 0.28822 0.17027 0.84789
 C640 C 0.28365 0.19153 0.82803
 C641 C 0.28536 0.06860 0.92364
 C642 C 0.25475 0.16252 0.79847
 C643 C 0.27939 0.12383 0.86461
 C644 C 0.28178 0.10617 0.88288
 C645 C 0.28398 0.08578 0.90468
 C646 C 0.26665 0.18796 0.80324
 H647 H 0.24967 0.12199 0.81460
 H648 H 0.30103 0.17352 0.86712
 H649 H 0.29312 0.21084 0.83234
 H650 H 0.24156 0.15911 0.77962
 C651 C 0.78839 0.67186 0.34771
 C652 C 0.77615 0.64674 0.34306
 C653 C 0.75965 0.64279 0.31815
 C654 C 0.75510 0.66396 0.29816
 C655 C 0.78581 0.56993 0.42327
 C656 C 0.78387 0.69307 0.32776
 C657 C 0.77964 0.62538 0.36446
 C658 C 0.78207 0.60768 0.38270
 C659 C 0.78435 0.58720 0.40442
 C660 C 0.76697 0.68943 0.30289
 H661 H 0.80114 0.67516 0.36697
 H662 H 0.75002 0.62345 0.31438
 H663 H 0.74198 0.66049 0.27926
 H664 H 0.79330 0.71240 0.33205
 C665 C 0.17065 0.71197 0.84818
 C666 C 0.14560 0.72431 0.84357
 C667 C 0.14170 0.74088 0.81869
 C668 C 0.16286 0.74543 0.79873
 C669 C 0.06911 0.71491 0.92406
 C670 C 0.19185 0.71648 0.82825
 C671 C 0.12429 0.72088 0.86500
 C672 C 0.10666 0.71851 0.88330
 C673 C 0.08628 0.71631 0.90511
 C674 C 0.18827 0.73347 0.80344
 H675 H 0.17391 0.69917 0.86741
 H676 H 0.12242 0.75060 0.81496
 H677 H 0.15944 0.75861 0.77986
 H678 H 0.21113 0.70698 0.83253
 C679 C 0.67130 0.21133 0.34785
 C680 C 0.64624 0.22364 0.34322
 C681 C 0.64233 0.24022 0.31836
 C682 C 0.66350 0.24480 0.29841
 C683 C 0.56958 0.21401 0.42347
 C684 C 0.69250 0.21587 0.32793
 C685 C 0.62491 0.22014 0.36461
 C686 C 0.60724 0.21771 0.38286
 C687 C 0.58681 0.21545 0.40459
 C688 C 0.68891 0.23286 0.30312
 H689 H 0.67457 0.19851 0.36707
 H690 H 0.62304 0.24991 0.31462
 H691 H 0.66006 0.25798 0.27955
 H692 H 0.71179 0.20638 0.33220
 C693 C 0.82984 0.28799 0.84785
 C694 C 0.85486 0.27562 0.84314
 C695 C 0.85866 0.25902 0.81827
 C696 C 0.83742 0.25448 0.79840
 C697 C 0.93160 0.28502 0.92335
 C698 C 0.80857 0.28347 0.82801
 C699 C 0.87626 0.27905 0.86448
 C700 C 0.89395 0.28143 0.88270
 C701 C 0.91439 0.28363 0.90444
 C702 C 0.81205 0.26646 0.80320
 H703 H 0.82666 0.30081 0.86708
 H704 H 0.87792 0.24929 0.81446
 H705 H 0.84077 0.24127 0.77953
 H706 H 0.78931 0.29299 0.83236
 C707 C 0.35734 0.75966 0.31802
 C708 C 0.35345 0.77626 0.34287
 C709 C 0.32839 0.78856 0.34752
 C710 C 0.30717 0.78400 0.32763
 C711 C 0.43017 0.78595 0.42303
 C712 C 0.33616 0.75506 0.29809
 C713 C 0.37481 0.77978 0.36423
 C714 C 0.39249 0.78222 0.38245
 C715 C 0.41293 0.78450 0.40416
 C716 C 0.31075 0.76699 0.30282
 H717 H 0.37664 0.74998 0.31426
 H718 H 0.32514 0.80139 0.36673
 H719 H 0.28788 0.79348 0.33192
 H720 H 0.33958 0.74187 0.27924
 C721 C 0.25944 0.85813 0.18181
 C722 C 0.27606 0.85426 0.15699
 C723 C 0.28836 0.82918 0.15233
 C724 C 0.28376 0.80791 0.17217
 C725 C 0.28554 0.93095 0.07671
 C726 C 0.25481 0.83690 0.20169
 C727 C 0.27956 0.87563 0.13564
 C728 C 0.28196 0.89332 0.11739
 C729 C 0.28417 0.91374 0.09563
 C730 C 0.26672 0.81146 0.19693
 H731 H 0.24976 0.87744 0.18558
 H732 H 0.30120 0.82595 0.13313
 H733 H 0.29323 0.78860 0.16786
 H734 H 0.24158 0.84030 0.22051
 C735 C 0.75997 0.35744 0.68219
 C736 C 0.77646 0.35356 0.65725
 C737 C 0.78874 0.32848 0.65256
 C738 C 0.78427 0.30723 0.67247
 C739 C 0.78595 0.43043 0.57708
 C740 C 0.75546 0.33623 0.70214
 C741 C 0.77990 0.37496 0.63588
 C742 C 0.78229 0.39267 0.61765
 C743 C 0.78453 0.41316 0.59594
 C744 C 0.76737 0.31080 0.69736
 H745 H 0.75030 0.37676 0.68600
 H746 H 0.80148 0.32523 0.63328
 H747 H 0.79373 0.28792 0.66814
 H748 H 0.74235 0.33966 0.72105
 C749 C 0.71136 0.17066 0.15253
 C750 C 0.72370 0.14560 0.15717
 C751 C 0.74031 0.14173 0.18200
 C752 C 0.74490 0.16295 0.20190
 C753 C 0.71440 0.06899 0.07676
 C754 C 0.71592 0.19191 0.17240
 C755 C 0.72026 0.12424 0.13578
 C756 C 0.71790 0.10658 0.11750
 C757 C 0.71574 0.08618 0.09571
 C758 C 0.73296 0.18837 0.19717
 H759 H 0.69853 0.17389 0.13332
 H760 H 0.75003 0.12243 0.18574
 H761 H 0.75812 0.15955 0.22073
 H762 H 0.70643 0.21122 0.16811
 C763 C 0.21128 0.67145 0.65267
 C764 C 0.22364 0.64640 0.65730
 C765 C 0.24021 0.64254 0.68217
 C766 C 0.24472 0.66375 0.70212
 C767 C 0.21410 0.56956 0.57708
 C768 C 0.21575 0.69270 0.67259
 C769 C 0.22020 0.62501 0.63591
 C770 C 0.21780 0.60731 0.61767
 C771 C 0.21555 0.58683 0.59595
 C772 C 0.23273 0.68916 0.69741
 H773 H 0.19847 0.67468 0.63344
 H774 H 0.24994 0.62325 0.68592
 H775 H 0.25790 0.66035 0.72099
 H776 H 0.20622 0.71198 0.66830
 C777 C 0.82938 0.71196 0.15237
 C778 C 0.85440 0.72433 0.15708
 C779 C 0.85819 0.74096 0.18192
 C780 C 0.83694 0.74555 0.20176
 C781 C 0.93124 0.71485 0.07700
 C782 C 0.80810 0.71651 0.17217
 C783 C 0.87582 0.72086 0.13577
 C784 C 0.89353 0.71847 0.11757
 C785 C 0.91400 0.71625 0.09587
 C786 C 0.81157 0.73357 0.19696
 H787 H 0.82621 0.69911 0.13316
 H788 H 0.87746 0.75070 0.18573
 H789 H 0.84029 0.75878 0.22060
 H790 H 0.78883 0.70699 0.16783
 C791 C 0.32865 0.21103 0.65276
 C792 C 0.35367 0.22339 0.65746
 C793 C 0.35750 0.23998 0.68233
 C794 C 0.33628 0.24452 0.70222
 C795 C 0.43045 0.21389 0.57734
 C796 C 0.30739 0.21554 0.67262
 C797 C 0.37506 0.21993 0.63613
 C798 C 0.39276 0.21754 0.61791
 C799 C 0.41321 0.21531 0.59620
 C800 C 0.31090 0.23254 0.69744
 H801 H 0.32545 0.19821 0.63353
 H802 H 0.37677 0.24970 0.68613
 H803 H 0.33965 0.25771 0.72110
 H804 H 0.28813 0.20602 0.66829
 C805 C 0.17111 0.28813 0.15205
 C806 C 0.14607 0.27577 0.15665
 C807 C 0.14218 0.25914 0.18148
 C808 C 0.16336 0.25455 0.20142
 C809 C 0.06948 0.28522 0.07628
 C810 C 0.19232 0.28358 0.17196
 C811 C 0.12474 0.27923 0.13524
 C812 C 0.10709 0.28162 0.11697
 C813 C 0.08668 0.28383 0.09520
 C814 C 0.18875 0.26653 0.19673
 H815 H 0.17436 0.30098 0.13285
 H816 H 0.12290 0.24941 0.18520
 H817 H 0.15994 0.24132 0.22025
 H818 H 0.21160 0.29309 0.16769
 C819 C 0.64219 0.76017 0.68197
 C820 C 0.64603 0.77676 0.65710
 C821 C 0.67105 0.78914 0.65244
 C822 C 0.69229 0.78464 0.67232
 C823 C 0.56930 0.78617 0.57690
 C824 C 0.66339 0.75564 0.70188
 C825 C 0.62466 0.78020 0.63574
 C826 C 0.60698 0.78257 0.61750
 C827 C 0.58654 0.78478 0.59578
 C828 C 0.68877 0.76763 0.69713
 H829 H 0.62292 0.75043 0.68574
 H830 H 0.67426 0.80196 0.63321
 H831 H 0.71155 0.79418 0.66801
 H832 H 0.66001 0.74244 0.72075
   
