data_POSCAR
  _audit_creation_date              2014-09-24
  _audit_creation_method            'ToBaCCo'
  _symmetry_space_group_name_H-M    'P1'
  _symmetry_Int_Tables_number       1
  _symmetry_cell_setting            triclinic
  loop_
  _symmetry_equiv_pos_as_xyz
 x,y,z
_cell_length_a 36.2975
_cell_length_b 36.1947
_cell_length_c 36.2888
_cell_angle_alpha 89.968900
_cell_angle_beta 89.905700
_cell_angle_gamma 89.904400
loop_
  _atom_site_label
  _atom_site_type_symbol
  _atom_site_fract_x
  _atom_site_fract_y
  _atom_site_fract_z
C1 C 0.59785 0.65158 0.62625
 C2 C 0.59775 0.62409 0.65344
 C3 C 0.62504 0.59663 0.65342
 C4 C 0.65241 0.59669 0.62610
 C5 C 0.65252 0.62420 0.59892
 C6 C 0.62526 0.65163 0.59902
 H7 H 0.57650 0.62413 0.67451
 H8 H 0.67356 0.57547 0.62595
 H9 H 0.62536 0.67294 0.57799
 C10 C 0.90286 0.34683 0.12557
 C11 C 0.90309 0.37446 0.15264
 C12 C 0.87608 0.40216 0.15245
 C13 C 0.84881 0.40225 0.12518
 C14 C 0.84848 0.37463 0.09814
 C15 C 0.87549 0.34692 0.09835
 H16 H 0.92422 0.37450 0.17377
 H17 H 0.82792 0.42371 0.12500
 H18 H 0.87517 0.32559 0.07736
 C19 C 0.40278 0.15268 -0.12538
 C20 C 0.37541 0.15269 -0.09809
 C21 C 0.34822 0.12526 -0.09799
 C22 C 0.34842 0.09781 -0.12519
 C23 C 0.37573 0.09779 -0.15251
 C24 C 0.40291 0.12524 -0.15260
 H25 H 0.37528 0.17394 -0.07704
 H26 H 0.32740 0.07655 -0.12511
 H27 H 0.42406 0.12524 -0.17375
 C28 C 0.09687 0.84656 0.37473
 C29 C 0.09663 0.87418 0.34761
 C30 C 0.12362 0.90182 0.34778
 C31 C 0.15085 0.90186 0.37509
 C32 C 0.15119 0.87427 0.40218
 C33 C 0.12421 0.84662 0.40200
 H34 H 0.07556 0.87422 0.32643
 H35 H 0.17173 0.92326 0.37523
 H36 H 0.12454 0.82529 0.42302
 N37 N 0.08089 0.18444 0.11010
 N38 N 0.06627 0.16927 0.13965
 C39 C 0.03652 0.18911 0.14993
 C40 C 0.03251 0.21795 0.12544
 C41 C 0.06096 0.21434 0.10053
 H42 H 0.01906 0.18310 0.17335
 H43 H 0.06664 0.23206 0.07719
 Cu44 Cu 0.08758 0.12512 0.16173
 Cu45 Cu 0.12453 0.16431 0.08612
 Cu46 Cu 0.16302 0.08563 0.12464
 N47 N 0.10963 0.08096 0.18306
 N48 N 0.13909 0.06564 0.16835
 C49 C 0.14870 0.03581 0.18835
 C50 C 0.12397 0.03245 0.21698
 C51 C 0.09955 0.06138 0.21302
 H52 H 0.17192 0.01794 0.18256
 H53 H 0.07636 0.06765 0.23069
 N54 N 0.18329 0.10988 0.08043
 N55 N 0.16865 0.13992 0.06578
 C56 C 0.18866 0.14984 0.03607
 C57 C 0.21703 0.12486 0.03205
 C58 C 0.21299 0.09990 0.06041
 H59 H 0.18313 0.17345 0.01865
 H60 H 0.23046 0.07633 0.06599
 H61 H 0.11656 0.11033 0.10287
 H62 H 0.14643 0.13972 0.13270
 N63 N 0.41851 0.81548 0.60982
 N64 N 0.43242 0.83016 0.63990
 C65 C 0.46208 0.81034 0.65037
 C66 C 0.46674 0.78196 0.62549
 C67 C 0.43881 0.78586 0.60012
 H68 H 0.47907 0.81605 0.67414
 H69 H 0.43368 0.76850 0.57643
 Cu70 Cu 0.41044 0.87401 0.66180
 Cu71 Cu 0.37505 0.83570 0.58555
 Cu72 Cu 0.33577 0.91400 0.62467
 N73 N 0.38844 0.91786 0.68370
 N74 N 0.35930 0.93352 0.66880
 C75 C 0.34988 0.96347 0.68871
 C76 C 0.37442 0.96656 0.71746
 C77 C 0.39854 0.93735 0.71366
 H78 H 0.32702 0.98169 0.68269
 H79 H 0.42169 0.93099 0.73129
 N80 N 0.31605 0.89004 0.58007
 N81 N 0.33100 0.86025 0.56518
 C82 C 0.31112 0.85038 0.53545
 C83 C 0.28252 0.87512 0.53166
 C84 C 0.28627 0.89988 0.56019
 H85 H 0.31680 0.82688 0.51794
 H86 H 0.26850 0.92316 0.56604
 H87 H 0.38241 0.88959 0.60276
 H88 H 0.35214 0.85980 0.63179
 N89 N 0.91858 0.68500 0.38959
 N90 N 0.93273 0.67020 0.35961
 C91 C 0.96251 0.68989 0.34928
 C92 C 0.96701 0.71828 0.37416
 C93 C 0.93884 0.71453 0.39937
 H94 H 0.97976 0.68399 0.32567
 H95 H 0.93361 0.73185 0.42309
 Cu96 Cu 0.91106 0.62620 0.33786
 Cu97 Cu 0.87518 0.66473 0.41396
 Cu98 Cu 0.83654 0.58615 0.37517
 N99 N 0.88938 0.58221 0.31611
 N100 N 0.86028 0.56655 0.33109
 C101 C 0.85100 0.53657 0.31124
 C102 C 0.87558 0.53345 0.28244
 C103 C 0.89958 0.56268 0.28615
 H104 H 0.82816 0.51838 0.31731
 H105 H 0.92269 0.56905 0.26843
 N106 N 0.81657 0.61018 0.41970
 N107 N 0.83126 0.64010 0.43445
 C108 C 0.81141 0.64981 0.46435
 C109 C 0.78313 0.62482 0.46838
 C110 C 0.78702 0.60009 0.43982
 H111 H 0.81699 0.67328 0.48188
 H112 H 0.76954 0.57661 0.43418
 H113 H 0.88296 0.61082 0.39698
 H114 H 0.85259 0.64038 0.36782
 N115 N 0.58189 0.31631 -0.10982
 N116 N 0.56737 0.33150 -0.13939
 C117 C 0.53751 0.31192 -0.14950
 C118 C 0.53336 0.28317 -0.12493
 C119 C 0.56181 0.28660 -0.10011
 H120 H 0.52009 0.31802 -0.17287
 H121 H 0.56744 0.26883 -0.07681
 Cu122 Cu 0.58898 0.37534 -0.16168
 Cu123 Cu 0.62567 0.33610 -0.08610
 Cu124 Cu 0.66472 0.41419 -0.12518
 N125 N 0.61125 0.41917 -0.18329
 N126 N 0.64088 0.43421 -0.16885
 C127 C 0.65054 0.46396 -0.18893
 C128 C 0.62563 0.46757 -0.21730
 C129 C 0.60106 0.43889 -0.21310
 H130 H 0.67388 0.48163 -0.18336
 H131 H 0.57762 0.43293 -0.23045
 N132 N 0.68486 0.38991 -0.08096
 N133 N 0.66998 0.36014 -0.06607
 C134 C 0.68985 0.35023 -0.03631
 C135 C 0.71838 0.37496 -0.03251
 C136 C 0.71459 0.39973 -0.06106
 H137 H 0.68408 0.32687 -0.01866
 H138 H 0.73219 0.42312 -0.06679
 H139 H 0.61806 0.39015 -0.10301
 H140 H 0.64771 0.36029 -0.13280
 C141 C -0.07065 0.32012 0.12560
 C142 C -0.04709 0.29660 0.12562
 C143 C -0.01940 0.26918 0.12562
 C144 C 0.00429 0.24581 0.12559
 C145 C 0.56978 0.67970 0.62623
 C146 C 0.54622 0.70321 0.62617
 C147 C 0.51860 0.73068 0.62602
 C148 C 0.49496 0.75410 0.62582
 C149 C 1.07047 0.81984 0.37463
 C150 C 1.04695 0.79635 0.37448
 C151 C 1.01923 0.76904 0.37428
 C152 C 0.99545 0.74583 0.37416
 C153 C 0.43076 0.18081 -0.12541
 C154 C 0.45421 0.20435 -0.12538
 C155 C 0.48171 0.23186 -0.12529
 C156 C 0.50524 0.25531 -0.12516
 C157 C 0.12350 -0.06997 0.31980
 C158 C 0.12351 -0.04640 0.29632
 C159 C 0.12361 -0.01888 0.26876
 C160 C 0.12375 0.00457 0.24516
 C161 C 0.62504 0.56999 -0.32005
 C162 C 0.62508 0.54646 -0.29654
 C163 C 0.62520 0.51895 -0.26898
 C164 C 0.62536 0.49549 -0.24541
 C165 C 0.37579 1.06961 0.81952
 C166 C 0.37567 1.04597 0.79613
 C167 C 0.37535 1.01829 0.76876
 C168 C 0.37497 0.99466 0.74538
 C169 C 0.87630 0.43047 0.18029
 C170 C 0.87639 0.45415 0.20363
 C171 C 0.87631 0.48183 0.23101
 C172 C 0.87608 0.50542 0.25444
 C173 C 0.32009 0.12526 -0.06998
 C174 C 0.29649 0.12520 -0.04657
 C175 C 0.26882 0.12509 -0.01919
 C176 C 0.24518 0.12498 0.00418
 C177 C 0.68066 0.62429 0.57093
 C178 C 0.70420 0.62440 0.54747
 C179 C 0.73173 0.62455 0.51997
 C180 C 0.75521 0.62468 0.49646
 C181 C 0.82048 0.37477 0.07011
 C182 C 0.79705 0.37488 0.04660
 C183 C 0.76966 0.37495 0.01906
 C184 C 0.74627 0.37497 -0.00448
 C185 C 0.17931 0.87434 0.43011
 C186 C 0.20293 0.87447 0.45343
 C187 C 0.23063 0.87468 0.48068
 C188 C 0.25431 0.87488 0.50393
   
