data_POSCAR
  _audit_creation_date              2014-09-24
  _audit_creation_method            'ToBaCCo'
  _symmetry_space_group_name_H-M    'P1'
  _symmetry_Int_Tables_number       1
  _symmetry_cell_setting            triclinic
  loop_
  _symmetry_equiv_pos_as_xyz
 x,y,z
_cell_length_a 41.2886
_cell_length_b 41.2711
_cell_length_c 41.2978
_cell_angle_alpha 89.968100
_cell_angle_beta 89.987100
_cell_angle_gamma 89.961700
loop_
  _atom_site_label
  _atom_site_type_symbol
  _atom_site_fract_x
  _atom_site_fract_y
  _atom_site_fract_z
C1 C 0.27298 0.25018 0.22672
 N2 N 0.27291 0.22687 0.24990
 C3 C 0.24961 0.22682 0.27307
 N4 N 0.22638 0.25009 0.27307
 C5 C 0.22645 0.27341 0.24989
 N6 N 0.24974 0.27345 0.22671
 C7 C 0.72603 -0.25065 0.22606
 N8 N 0.74937 -0.27381 0.22597
 C9 C 0.77268 -0.27376 0.24914
 N10 N 0.77265 -0.25053 0.27238
 C11 C 0.74931 -0.22737 0.27247
 N12 N 0.72600 -0.22742 0.24931
 C13 C 0.72764 0.25066 0.77269
 N14 N 0.72774 0.22738 0.74951
 C15 C 0.75100 0.22740 0.72629
 N16 N 0.77416 0.25071 0.72626
 C17 C 0.77406 0.27400 0.74944
 N18 N 0.75080 0.27397 0.77266
 C19 C 0.27411 -0.25043 0.77466
 N20 N 0.25072 -0.27352 0.77478
 C21 C 0.22745 -0.27343 0.75159
 N22 N 0.22756 -0.25027 0.72827
 C23 C 0.25094 -0.22718 0.72814
 N24 N 0.27422 -0.22726 0.75133
 C25 C 0.72607 -0.25039 0.77445
 N26 N 0.74937 -0.27361 0.77451
 C27 C 0.77263 -0.27362 0.75129
 N28 N 0.77259 -0.25041 0.72800
 C29 C 0.74930 -0.22719 0.72793
 N30 N 0.72604 -0.22718 0.75115
 C31 C 0.27311 0.25009 0.77291
 N32 N 0.27310 0.22683 0.74970
 C33 C 0.24982 0.22679 0.72651
 N34 N 0.22653 0.25001 0.72654
 C35 C 0.22653 0.27327 0.74976
 N36 N 0.24982 0.27331 0.77294
 C37 C 0.27342 -0.25116 0.22573
 N38 N 0.25002 -0.27425 0.22561
 C39 C 0.22671 -0.27417 0.24879
 N40 N 0.22681 -0.25100 0.27210
 C41 C 0.25020 -0.22791 0.27222
 N42 N 0.27349 -0.22799 0.24904
 C43 C 0.72796 0.25107 0.22696
 N44 N 0.72805 0.22776 0.25014
 C45 C 0.75130 0.22775 0.27337
 N46 N 0.77447 0.25107 0.27340
 C47 C 0.77439 0.27438 0.25021
 N48 N 0.75113 0.27438 0.22699
 O49 O 0.27687 0.03064 0.46819
 O50 O 0.27723 -0.03240 0.53133
 O51 O 0.27711 -0.03247 0.46825
 O52 O 0.27696 0.03070 0.53124
 O53 O 0.22340 0.03052 0.53134
 O54 O 0.22355 -0.03265 0.46835
 O55 O 0.22367 -0.03257 0.53143
 O56 O 0.22330 0.03046 0.46829
 Cu57 Cu 0.28245 -0.00088 0.49974
 Cu58 Cu 0.21807 -0.00109 0.49986
 C59 C 0.25003 0.04120 0.45760
 C60 C 0.25051 -0.04310 0.54206
 C61 C 0.25035 -0.04321 0.45766
 C62 C 0.25015 0.04127 0.54191
 O63 O 0.77732 0.03088 0.53139
 O64 O 0.77692 -0.03221 0.46837
 O65 O 0.77735 0.03090 0.46835
 O66 O 0.77690 -0.03222 0.53146
 O67 O 0.72333 -0.03183 0.53144
 O68 O 0.72379 0.03130 0.46834
 O69 O 0.72336 -0.03181 0.46836
 O70 O 0.72376 0.03128 0.53138
 Cu71 Cu 0.78253 -0.00071 0.49989
 Cu72 Cu 0.71815 -0.00024 0.49987
 C73 C 0.75061 0.04174 0.54200
 C74 C 0.75007 -0.04265 0.45772
 C75 C 0.75065 0.04177 0.45771
 C76 C 0.75004 -0.04266 0.54212
 O77 O 0.46894 0.27740 0.03141
 O78 O 0.53200 0.27740 -0.03166
 O79 O 0.46893 0.27731 -0.03165
 O80 O 0.53202 0.27750 0.03140
 O81 O 0.53214 0.22391 0.03151
 O82 O 0.46905 0.22372 -0.03154
 O83 O 0.53212 0.22381 -0.03155
 O84 O 0.46906 0.22381 0.03151
 Cu85 Cu 0.50046 0.28281 -0.00013
 Cu86 Cu 0.50061 0.21840 -0.00000
 C87 C 0.45836 0.25060 0.04210
 C88 C 0.54270 0.25060 -0.04225
 C89 C 0.45834 0.25048 -0.04224
 C90 C 0.54273 0.25074 0.04210
 O91 O 0.53150 0.77590 0.03196
 O92 O 0.46849 0.77593 -0.03113
 O93 O 0.46841 0.77582 0.03192
 O94 O 0.53157 0.77598 -0.03111
 O95 O 0.53165 0.72239 -0.03116
 O96 O 0.46850 0.72223 0.03187
 O97 O 0.46858 0.72234 -0.03119
 O98 O 0.53159 0.72231 0.03191
 Cu99 Cu 0.49998 0.78131 0.00042
 Cu100 Cu 0.50009 0.71691 0.00036
 C101 C 0.54218 0.74910 0.04258
 C102 C 0.45790 0.74914 -0.04181
 C103 C 0.45779 0.74900 0.04253
 C104 C 0.54226 0.74921 -0.04178
 O105 O 0.03110 0.46965 0.27614
 O106 O -0.03199 0.53275 0.27593
 O107 O -0.03195 0.46965 0.27621
 O108 O 0.03112 0.53274 0.27585
 O109 O 0.03106 0.53254 0.22230
 O110 O -0.03201 0.46944 0.22266
 O111 O -0.03204 0.53255 0.22238
 O112 O 0.03105 0.46944 0.22258
 Cu113 Cu -0.00043 0.50123 0.28144
 Cu114 Cu -0.00049 0.50099 0.21707
 C115 C 0.04171 0.45889 0.24939
 C116 C -0.04268 0.54329 0.24912
 C117 C -0.04261 0.45888 0.24950
 C118 C 0.04176 0.54327 0.24902
 O119 O 0.03058 0.53196 0.77775
 O120 O -0.03247 0.46890 0.77724
 O121 O 0.03060 0.46887 0.77731
 O122 O -0.03252 0.53201 0.77766
 O123 O -0.03244 0.53240 0.72411
 O124 O 0.03068 0.46926 0.72376
 O125 O -0.03238 0.46929 0.72368
 O126 O 0.03066 0.53235 0.72420
 Cu127 Cu -0.00097 0.50040 0.78290
 Cu128 Cu -0.00087 0.50087 0.71853
 C129 C 0.04128 0.54277 0.75106
 C130 C -0.04305 0.45843 0.75037
 C131 C 0.04128 0.45841 0.75048
 C132 C -0.04314 0.54285 0.75094
 C133 C 0.34347 0.25036 0.15658
 C134 C 0.37359 0.23053 0.16568
 C135 C 0.39698 0.23059 0.14239
 C136 C 0.38795 0.25049 0.11230
 C137 C 0.37970 0.28438 0.12520
 C138 C 0.35631 0.28431 0.14849
 C139 C 0.33215 0.23634 0.12408
 C140 C 0.35554 0.23641 0.10080
 C141 C 0.31830 0.25028 0.18164
 C142 C 0.29760 0.25023 0.20222
 C143 C 0.41312 0.25056 0.08723
 C144 C 0.43379 0.25059 0.06663
 H145 H 0.37631 0.21757 0.18840
 H146 H 0.41974 0.21770 0.14517
 H147 H 0.39121 0.30648 0.11680
 H148 H 0.34778 0.30636 0.16003
 H149 H 0.30790 0.22716 0.11974
 H150 H 0.35132 0.22729 0.07651
 C151 C 0.65691 0.74922 0.15720
 C152 C 0.62268 0.74326 0.17043
 C153 C 0.59933 0.74322 0.14712
 C154 C 0.61249 0.74914 0.11286
 C155 C 0.63855 0.72307 0.10790
 C156 C 0.66190 0.72311 0.13121
 C157 C 0.65455 0.78124 0.13841
 C158 C 0.63119 0.78120 0.11510
 C159 C 0.68205 0.74927 0.18228
 C160 C 0.70273 0.74931 0.20288
 C161 C 0.58736 0.74911 0.08777
 C162 C 0.56672 0.74909 0.06714
 H163 H 0.61726 0.73942 0.19587
 H164 H 0.57390 0.73934 0.15259
 H165 H 0.63865 0.70607 0.08785
 H166 H 0.68201 0.70614 0.13113
 H167 H 0.66987 0.80211 0.14301
 H168 H 0.62651 0.80203 0.09973
 C169 C 0.65732 0.25062 -0.15700
 C170 C 0.63700 0.21949 -0.15627
 C171 C 0.61368 0.21948 -0.13292
 C172 C 0.61296 0.25060 -0.11259
 C173 C 0.60930 0.27820 -0.13726
 C174 C 0.63263 0.27821 -0.16061
 C175 C 0.67077 0.25415 -0.12253
 C176 C 0.64745 0.25414 -0.09918
 C177 C 0.68242 0.25062 -0.18213
 C178 C 0.70307 0.25064 -0.20276
 C179 C 0.58786 0.25059 -0.08746
 C180 C 0.56724 0.25060 -0.06681
 H181 H 0.64062 0.19924 -0.17265
 H182 H 0.59731 0.19922 -0.12929
 H183 H 0.59009 0.29615 -0.13646
 H184 H 0.63340 0.29617 -0.17982
 H185 H 0.69636 0.25645 -0.11696
 H186 H 0.65306 0.25644 -0.07361
 C187 C 0.34318 0.74935 -0.15644
 C188 C 0.37411 0.73124 -0.16636
 C189 C 0.39746 0.73118 -0.14304
 C190 C 0.38759 0.74924 -0.11209
 C191 C 0.35578 0.73330 -0.10132
 C192 C 0.33243 0.73335 -0.12464
 C193 C 0.35460 0.78339 -0.14676
 C194 C 0.37794 0.78333 -0.12345
 C195 C 0.31805 0.74942 -0.18153
 C196 C 0.29739 0.74948 -0.20214
 C197 C 0.41272 0.74919 -0.08699
 C198 C 0.43336 0.74916 -0.06636
 H199 H 0.37739 0.71949 -0.18965
 H200 H 0.42074 0.71938 -0.14636
 H201 H 0.35193 0.72288 -0.07749
 H202 H 0.30858 0.72298 -0.12078
 H203 H 0.34517 0.80558 -0.15730
 H204 H 0.38852 0.80548 -0.11401
 C205 C 0.15621 0.34388 0.24977
 C206 C 0.16962 0.37823 0.24494
 C207 C 0.14632 0.40164 0.24486
 C208 C 0.11192 0.38840 0.24963
 C209 C 0.11335 0.36891 0.28126
 C210 C 0.13665 0.34550 0.28134
 C211 C 0.13086 0.33958 0.22293
 C212 C 0.10757 0.36299 0.22285
 C213 C 0.18128 0.31869 0.24984
 C214 C 0.20190 0.29801 0.24988
 C215 C 0.08685 0.41360 0.24954
 C216 C 0.06624 0.43429 0.24947
 H217 H 0.19515 0.38369 0.24185
 H218 H 0.15191 0.42715 0.24171
 H219 H 0.09748 0.37313 0.30180
 H220 H 0.14072 0.32966 0.30194
 H221 H 0.13118 0.31988 0.20552
 H222 H 0.08794 0.36334 0.20538
 C223 C 0.15666 0.65674 0.75165
 C224 C 0.15918 0.63309 0.72308
 C225 C 0.13568 0.60993 0.72300
 C226 C 0.11195 0.61270 0.75149
 C227 C 0.09867 0.64740 0.74967
 C228 C 0.12218 0.67056 0.74975
 C229 C 0.15681 0.63525 0.78200
 C230 C 0.13330 0.61209 0.78191
 C231 C 0.18196 0.68167 0.75171
 C232 C 0.20274 0.70216 0.75169
 C233 C 0.08666 0.58776 0.75138
 C234 C 0.06591 0.56723 0.75125
 H235 H 0.17779 0.63441 0.70456
 H236 H 0.13415 0.59141 0.70440
 H237 H 0.07307 0.65327 0.74843
 H238 H 0.11671 0.69627 0.74858
 H239 H 0.17387 0.63798 0.80180
 H240 H 0.13023 0.59498 0.80165
 C241 C -0.15795 0.65753 0.24899
 C242 C -0.14304 0.65144 0.21549
 C243 C -0.11956 0.62822 0.21549
 C244 C -0.11330 0.61336 0.24900
 C245 C -0.14645 0.60101 0.26043
 C246 C -0.16992 0.62423 0.26043
 C247 C -0.12912 0.66550 0.27106
 C248 C -0.10565 0.64228 0.27106
 C249 C -0.18321 0.68253 0.24901
 C250 C -0.20396 0.70308 0.24905
 C251 C -0.08804 0.58836 0.24901
 C252 C -0.06731 0.56779 0.24905
 H253 H -0.15028 0.66424 0.19368
 H254 H -0.10669 0.62112 0.19369
 H255 H -0.15108 0.57620 0.26787
 H256 H -0.19466 0.61932 0.26787
 H257 H -0.12731 0.68745 0.28542
 H258 H -0.08372 0.64433 0.28542
 C259 C -0.15723 0.34327 0.74961
 C260 C -0.13538 0.34276 0.71953
 C261 C -0.11216 0.36621 0.71967
 C262 C -0.11307 0.38787 0.74987
 C263 C -0.11073 0.36440 0.77862
 C264 C -0.13394 0.34095 0.77849
 C265 C -0.17096 0.37782 0.75098
 C266 C -0.14774 0.40127 0.75112
 C267 C -0.18222 0.31804 0.74948
 C268 C -0.20277 0.29731 0.74943
 C269 C -0.08808 0.41310 0.75003
 C270 C -0.06753 0.43382 0.75018
 H271 H -0.13792 0.32550 0.69987
 H272 H -0.09481 0.36905 0.70012
 H273 H -0.09244 0.36606 0.79744
 H274 H -0.13555 0.32252 0.79718
 H275 H -0.19665 0.38337 0.75178
 H276 H -0.15355 0.42691 0.75203
 C277 C 0.24961 0.15626 0.34319
 C278 C 0.23373 0.16692 0.37507
 C279 C 0.23379 0.14349 0.39833
 C280 C 0.24973 0.11170 0.38744
 C281 C 0.28374 0.12138 0.37598
 C282 C 0.28368 0.14480 0.35272
 C283 C 0.23150 0.12535 0.33326
 C284 C 0.23156 0.10192 0.35653
 C285 C 0.24956 0.18147 0.31816
 C286 C 0.24956 0.20218 0.29758
 C287 C 0.24981 0.08649 0.41248
 C288 C 0.24990 0.06579 0.43308
 H289 H 0.22335 0.19077 0.37902
 H290 H 0.22347 0.14727 0.42222
 H291 H 0.30593 0.11076 0.38532
 H292 H 0.30581 0.15426 0.34212
 H293 H 0.21966 0.12214 0.31001
 H294 H 0.21978 0.07865 0.35321
 C295 C 0.75105 0.15685 0.65623
 C296 C 0.76002 0.16942 0.62241
 C297 C 0.75996 0.14599 0.59918
 C298 C 0.75093 0.11228 0.61205
 C299 C 0.71800 0.11683 0.62871
 C300 C 0.71807 0.14026 0.65194
 C301 C 0.77498 0.12916 0.66292
 C302 C 0.77492 0.10573 0.63969
 C303 C 0.75110 0.18207 0.68124
 C304 C 0.75108 0.20278 0.70180
 C305 C 0.75085 0.08706 0.58705
 C306 C 0.75075 0.06635 0.56648
 H307 H 0.76591 0.19452 0.61717
 H308 H 0.76579 0.15101 0.57404
 H309 H 0.69653 0.10287 0.62278
 H310 H 0.69665 0.14638 0.66591
 H311 H 0.79060 0.12806 0.68404
 H312 H 0.79048 0.08455 0.64090
 C313 C 0.25099 -0.15719 0.65744
 C314 C 0.22721 -0.12936 0.66404
 C315 C 0.22713 -0.10616 0.64054
 C316 C 0.25084 -0.11307 0.61275
 C317 C 0.24160 -0.14688 0.60035
 C318 C 0.24167 -0.17008 0.62385
 C319 C 0.28399 -0.14075 0.65265
 C320 C 0.28391 -0.11756 0.62915
 C321 C 0.25104 -0.18216 0.68272
 C322 C 0.25103 -0.20270 0.70348
 C323 C 0.25075 -0.08811 0.58747
 C324 C 0.25065 -0.06757 0.56671
 H325 H 0.21178 -0.12799 0.68529
 H326 H 0.21164 -0.08492 0.64166
 H327 H 0.23552 -0.15214 0.57532
 H328 H 0.23566 -0.19521 0.61895
 H329 H 0.30551 -0.14680 0.66649
 H330 H 0.30537 -0.10373 0.62286
 C331 C 0.74945 -0.15714 0.34286
 C332 C 0.77170 -0.16503 0.37158
 C333 C 0.77182 -0.14174 0.39496
 C334 C 0.74967 -0.11284 0.38732
 C335 C 0.71613 -0.12771 0.38132
 C336 C 0.71602 -0.15100 0.35794
 C337 C 0.76078 -0.12387 0.33069
 C338 C 0.76090 -0.10058 0.35407
 C339 C 0.74935 -0.18221 0.31770
 C340 C 0.74930 -0.20282 0.29704
 C341 C 0.74980 -0.08778 0.41248
 C342 C 0.74992 -0.06717 0.43315
 H343 H 0.78610 -0.18698 0.37340
 H344 H 0.78631 -0.14374 0.41680
 H345 H 0.69439 -0.12058 0.39428
 H346 H 0.69418 -0.16382 0.35088
 H347 H 0.76807 -0.11903 0.30590
 H348 H 0.76829 -0.07579 0.34930
 C349 C 0.65700 0.74952 -0.15653
 C350 C 0.65174 0.78273 -0.14065
 C351 C 0.62840 0.78266 -0.11730
 C352 C 0.61261 0.74939 -0.11212
 C353 C 0.64087 0.72628 -0.10500
 C354 C 0.66421 0.72634 -0.12835
 C355 C 0.62348 0.73940 -0.16900
 C356 C 0.60015 0.73933 -0.14566
 C357 C 0.68213 0.74958 -0.18166
 C358 C 0.70279 0.74960 -0.20231
 C359 C 0.58749 0.74932 -0.08698
 C360 C 0.56684 0.74927 -0.06633
 H361 H 0.66515 0.80439 -0.14716
 H362 H 0.62183 0.80427 -0.10382
 H363 H 0.64242 0.71119 -0.08352
 H364 H 0.68574 0.71131 -0.12686
 H365 H 0.61851 0.73286 -0.19397
 H366 H 0.57519 0.73274 -0.15063
 C367 C 0.34354 0.25022 -0.15686
 C368 C 0.33598 0.27276 -0.12828
 C369 C 0.35933 0.27281 -0.10497
 C370 C 0.38798 0.25031 -0.11251
 C371 C 0.40023 0.26118 -0.14589
 C372 C 0.37687 0.26113 -0.16920
 C373 C 0.34940 0.21682 -0.14154
 C374 C 0.37275 0.21687 -0.11823
 C375 C 0.31840 0.25016 -0.18196
 C376 C 0.29772 0.25012 -0.20257
 C377 C 0.41312 0.25035 -0.08741
 C378 C 0.43378 0.25040 -0.06678
 H379 H 0.31419 0.28740 -0.12651
 H380 H 0.35755 0.28749 -0.08323
 H381 H 0.42507 0.26829 -0.15078
 H382 H 0.38170 0.26820 -0.19406
 H383 H 0.33635 0.19505 -0.14840
 H384 H 0.37971 0.19514 -0.10512
 C385 C 0.34267 0.74878 0.15691
 C386 C 0.37277 0.72892 0.16605
 C387 C 0.39619 0.72896 0.14279
 C388 C 0.38723 0.74884 0.11267
 C389 C 0.37898 0.78274 0.12555
 C390 C 0.35556 0.78271 0.14880
 C391 C 0.33139 0.73475 0.12439
 C392 C 0.35481 0.73478 0.10114
 C393 C 0.31745 0.74876 0.18195
 C394 C 0.29673 0.74878 0.20253
 C395 C 0.41245 0.74889 0.08762
 C396 C 0.43316 0.74894 0.06704
 H397 H 0.37545 0.71598 0.18878
 H398 H 0.41894 0.71604 0.14561
 H399 H 0.39053 0.80483 0.11715
 H400 H 0.34704 0.80477 0.16032
 H401 H 0.30714 0.72559 0.12002
 H402 H 0.35063 0.72565 0.07685
 C403 C 0.65756 0.25101 0.15669
 C404 C 0.62333 0.24505 0.16993
 C405 C 0.59997 0.24500 0.14662
 C406 C 0.61312 0.25093 0.11236
 C407 C 0.63918 0.22485 0.10739
 C408 C 0.66254 0.22490 0.13070
 C409 C 0.65519 0.28303 0.13790
 C410 C 0.63182 0.28298 0.11459
 C411 C 0.68271 0.25105 0.18178
 C412 C 0.70338 0.25106 0.20240
 C413 C 0.58796 0.25087 0.08726
 C414 C 0.56730 0.25081 0.06664
 H415 H 0.61792 0.24120 0.19537
 H416 H 0.57455 0.24112 0.15210
 H417 H 0.63928 0.20785 0.08734
 H418 H 0.68265 0.20793 0.13061
 H419 H 0.67051 0.30389 0.14249
 H420 H 0.62713 0.30381 0.09922
 C421 C -0.15816 0.65744 0.75131
 C422 C -0.14330 0.65134 0.71779
 C423 C -0.11989 0.62804 0.71773
 C424 C -0.11363 0.61312 0.75121
 C425 C -0.14681 0.60086 0.76267
 C426 C -0.17022 0.62416 0.76273
 C427 C -0.12928 0.66529 0.77336
 C428 C -0.10587 0.64199 0.77330
 C429 C -0.18336 0.68253 0.75135
 C430 C -0.20406 0.70315 0.75134
 C431 C -0.08843 0.58803 0.75115
 C432 C -0.06774 0.56740 0.75106
 H433 H -0.15052 0.66418 0.69600
 H434 H -0.10707 0.62093 0.69591
 H435 H -0.15151 0.57606 0.77010
 H436 H -0.19496 0.61932 0.77019
 H437 H -0.12738 0.68722 0.78774
 H438 H -0.08393 0.64396 0.78764
 C439 C -0.15686 0.34368 0.25008
 C440 C -0.14682 0.35457 0.21598
 C441 C -0.12360 0.37802 0.21587
 C442 C -0.11268 0.38829 0.24988
 C443 C -0.10198 0.35677 0.26650
 C444 C -0.12520 0.33333 0.26661
 C445 C -0.16713 0.37489 0.26751
 C446 C -0.14390 0.39834 0.26740
 C447 C -0.18187 0.31844 0.25018
 C448 C -0.20244 0.29771 0.25022
 C449 C -0.08767 0.41353 0.24975
 C450 C -0.06710 0.43425 0.24964
 H451 H -0.15706 0.34473 0.19386
 H452 H -0.11394 0.38826 0.19366
 H453 H -0.07825 0.35319 0.27725
 H454 H -0.12137 0.30966 0.27745
 H455 H -0.19057 0.37828 0.27893
 H456 H -0.14745 0.42181 0.27873
 C457 C 0.15608 0.34360 0.74996
 C458 C 0.12933 0.33779 0.77512
 C459 C 0.10597 0.36114 0.77521
 C460 C 0.11165 0.38802 0.75014
 C461 C 0.11488 0.37031 0.71761
 C462 C 0.13824 0.34696 0.71752
 C463 C 0.16906 0.37765 0.75736
 C464 C 0.14570 0.40100 0.75746
 C465 C 0.18123 0.31847 0.74986
 C466 C 0.20191 0.29783 0.74980
 C467 C 0.08650 0.41316 0.75024
 C468 C 0.06585 0.43382 0.75034
 H469 H 0.12878 0.31715 0.79142
 H470 H 0.08542 0.36050 0.79160
 H471 H 0.10013 0.37564 0.69651
 H472 H 0.14349 0.33230 0.69634
 H473 H 0.19437 0.38295 0.76212
 H474 H 0.15101 0.42630 0.76229
 C475 C 0.15720 0.65729 0.24867
 C476 C 0.13353 0.66013 0.27721
 C477 C 0.11002 0.63697 0.27725
 C478 C 0.11247 0.61323 0.24875
 C479 C 0.14695 0.59942 0.25059
 C480 C 0.17047 0.62258 0.25056
 C481 C 0.13577 0.65781 0.21830
 C482 C 0.11225 0.63465 0.21834
 C483 C 0.18251 0.68223 0.24865
 C484 C 0.20331 0.70273 0.24869
 C485 C 0.08716 0.58828 0.24881
 C486 C 0.06640 0.56775 0.24889
 H487 H 0.13510 0.67870 0.29575
 H488 H 0.09145 0.63570 0.29582
 H489 H 0.15243 0.57372 0.25182
 H490 H 0.19607 0.61671 0.25175
 H491 H 0.13879 0.67486 0.19851
 H492 H 0.09514 0.63186 0.19858
 C493 C 0.74940 -0.15703 0.65732
 C494 C 0.77319 -0.16397 0.62960
 C495 C 0.77330 -0.14072 0.60615
 C496 C 0.74961 -0.11280 0.61271
 C497 C 0.75885 -0.10003 0.64637
 C498 C 0.75874 -0.12328 0.66982
 C499 C 0.71642 -0.15237 0.64080
 C500 C 0.71653 -0.12912 0.61735
 C501 C 0.74931 -0.18207 0.68256
 C502 C 0.74928 -0.20266 0.70329
 C503 C 0.74974 -0.08777 0.58747
 C504 C 0.74987 -0.06718 0.56674
 H505 H 0.78860 -0.18527 0.62848
 H506 H 0.78880 -0.14211 0.58495
 H507 H 0.76494 -0.07494 0.65135
 H508 H 0.76474 -0.11810 0.69488
 H509 H 0.69488 -0.16612 0.64698
 H510 H 0.69508 -0.12296 0.60345
 C511 C 0.25036 -0.15775 0.34275
 C512 C 0.27257 -0.16560 0.37151
 C513 C 0.27259 -0.14232 0.39490
 C514 C 0.25040 -0.11346 0.38724
 C515 C 0.21691 -0.12840 0.38116
 C516 C 0.21689 -0.15168 0.35777
 C517 C 0.26165 -0.12445 0.33062
 C518 C 0.26167 -0.10117 0.35401
 C519 C 0.25033 -0.18281 0.31756
 C520 C 0.25028 -0.20340 0.29686
 C521 C 0.25041 -0.08839 0.41242
 C522 C 0.25040 -0.06777 0.43309
 H523 H 0.28701 -0.18752 0.37334
 H524 H 0.28705 -0.14430 0.41677
 H525 H 0.19513 -0.12132 0.39409
 H526 H 0.19509 -0.16454 0.35066
 H527 H 0.26898 -0.11959 0.30584
 H528 H 0.26902 -0.07636 0.34926
 C529 C 0.75127 0.15709 0.34346
 C530 C 0.78235 0.13666 0.34416
 C531 C 0.78225 0.11319 0.36738
 C532 C 0.75107 0.11243 0.38763
 C533 C 0.72356 0.10900 0.36287
 C534 C 0.72367 0.13248 0.33965
 C535 C 0.74765 0.17034 0.37799
 C536 C 0.74755 0.14687 0.40122
 C537 C 0.75135 0.18235 0.31845
 C538 C 0.75136 0.20310 0.29788
 C539 C 0.75095 0.08716 0.41264
 C540 C 0.75082 0.06642 0.43321
 H541 H 0.80265 0.14032 0.32785
 H542 H 0.80246 0.09674 0.37097
 H543 H 0.70559 0.08982 0.36352
 H544 H 0.70578 0.13340 0.32041
 H545 H 0.74537 0.19592 0.38371
 H546 H 0.74518 0.15234 0.42682
 C547 C 0.24989 0.15630 0.65632
 C548 C 0.25891 0.16894 0.62253
 C549 C 0.25895 0.14553 0.59926
 C550 C 0.24998 0.11178 0.61206
 C551 C 0.21701 0.11623 0.62866
 C552 C 0.21696 0.13964 0.65192
 C553 C 0.27387 0.12866 0.66301
 C554 C 0.27392 0.10525 0.63974
 C555 C 0.24985 0.18150 0.68137
 C556 C 0.24982 0.20218 0.70197
 C557 C 0.25003 0.08658 0.58701
 C558 C 0.25009 0.06588 0.56642
 H559 H 0.26474 0.19406 0.61734
 H560 H 0.26483 0.15061 0.57414
 H561 H 0.19558 0.10223 0.62266
 H562 H 0.19549 0.14568 0.66586
 H563 H 0.28945 0.12756 0.68416
 H564 H 0.28954 0.08411 0.64097
   
