data_POSCAR
  _audit_creation_date              2014-09-24
  _audit_creation_method            'ToBaCCo'
  _symmetry_space_group_name_H-M    'P1'
  _symmetry_Int_Tables_number       1
  _symmetry_cell_setting            triclinic
  loop_
  _symmetry_equiv_pos_as_xyz
 x,y,z
_cell_length_a 45.5656
_cell_length_b 46.9828
_cell_length_c 43.7176
_cell_angle_alpha 90.524600
_cell_angle_beta 89.406200
_cell_angle_gamma 90.635300
loop_
  _atom_site_label
  _atom_site_type_symbol
  _atom_site_fract_x
  _atom_site_fract_y
  _atom_site_fract_z
N1 N 0.14933 0.18325 0.22667
 N2 N 0.16749 0.16171 0.22459
 C3 C 0.16076 0.14272 0.24651
 C4 C 0.13731 0.15299 0.26312
 C5 C 0.13038 0.17867 0.25008
 H6 H 0.17212 0.12298 0.25034
 H7 H 0.11298 0.19288 0.25703
 Cu8 Cu 0.19838 0.16034 0.19374
 Cu9 Cu 0.15200 0.21543 0.19877
 Cu10 Cu 0.20772 0.21388 0.14398
 N11 N 0.22986 0.16012 0.16349
 N12 N 0.23352 0.18106 0.14398
 C13 C 0.25678 0.17540 0.12569
 C14 C 0.26809 0.14966 0.13448
 C15 C 0.25062 0.14043 0.15832
 H16 H 0.26473 0.18889 0.10742
 H17 H 0.25298 0.12087 0.17091
 N18 N 0.17948 0.24525 0.14762
 N19 N 0.15830 0.24590 0.16849
 C20 C 0.14235 0.26956 0.16453
 C21 C 0.15418 0.28434 0.14018
 C22 C 0.17755 0.26845 0.12987
 H23 H 0.12320 0.27537 0.17791
 H24 H 0.19167 0.27320 0.11052
 H25 H 0.17126 0.19367 0.16262
 H26 H 0.19657 0.21201 0.18994
 N27 N -0.16025 0.81545 0.23215
 N28 N -0.17807 0.83706 0.22899
 C29 C -0.17463 0.85525 0.25266
 C30 C -0.15354 0.84449 0.27148
 C31 C -0.14470 0.81928 0.25798
 H32 H -0.18645 0.87488 0.25600
 H33 H -0.12824 0.80490 0.26623
 Cu34 Cu -0.20402 0.83884 0.19434
 Cu35 Cu -0.15912 0.78385 0.20257
 Cu36 Cu -0.20886 0.78659 0.14255
 N37 N -0.23280 0.84018 0.16214
 N38 N -0.23465 0.81948 0.14174
 C39 C -0.25667 0.82498 0.12241
 C40 C -0.26904 0.85039 0.13144
 C41 C -0.25361 0.85952 0.15663
 H42 H -0.26336 0.81139 0.10356
 H43 H -0.25755 0.87855 0.17010
 N44 N -0.18086 0.75527 0.14753
 N45 N -0.16187 0.75421 0.17017
 C46 C -0.14567 0.73051 0.16678
 C47 C -0.15506 0.71622 0.14094
 C48 C -0.17723 0.73234 0.12923
 H49 H -0.12816 0.72425 0.18171
 H50 H -0.18950 0.72781 0.10868
 H51 H -0.17401 0.80550 0.16514
 H52 H -0.20221 0.78733 0.18937
 N53 N -0.16024 0.18662 -0.23648
 N54 N -0.17538 0.16335 -0.23027
 C55 C -0.17061 0.14377 -0.25232
 C56 C -0.15148 0.15540 -0.27341
 C57 C -0.14515 0.18257 -0.26284
 H58 H -0.18079 0.12287 -0.25325
 H59 H -0.13110 0.19828 -0.27371
 Cu60 Cu -0.20155 0.16107 -0.19535
 Cu61 Cu -0.16252 0.22050 -0.21023
 Cu62 Cu -0.21830 0.22022 -0.15565
 N63 N -0.23646 0.16305 -0.17008
 N64 N -0.24334 0.18630 -0.15476
 C65 C -0.26936 0.18216 -0.14044
 C66 C -0.27895 0.15494 -0.14747
 C67 C -0.25773 0.14333 -0.16620
 H68 H -0.28059 0.19786 -0.12651
 H69 H -0.25800 0.12241 -0.17678
 N70 N -0.19039 0.25224 -0.16046
 N71 N -0.16906 0.25238 -0.18119
 C72 C -0.15332 0.27668 -0.17814
 C73 C -0.16549 0.29240 -0.15455
 C74 C -0.18881 0.27641 -0.14373
 H75 H -0.13411 0.28229 -0.19162
 H76 H -0.20313 0.28175 -0.12469
 H77 H -0.17908 0.20231 -0.17057
 H78 H -0.20611 0.21206 -0.20062
 N79 N 0.15161 0.81809 -0.22947
 N80 N 0.16731 0.84143 -0.22528
 C81 C 0.15957 0.86098 -0.24588
 C82 C 0.13790 0.84920 -0.26387
 C83 C 0.13323 0.82201 -0.25300
 H84 H 0.16919 0.88206 -0.24783
 H85 H 0.11775 0.80631 -0.26155
 Cu86 Cu 0.19724 0.84392 -0.19432
 Cu87 Cu 0.15621 0.78474 -0.20371
 Cu88 Cu 0.21210 0.78821 -0.15020
 N89 N 0.23455 0.84088 -0.17387
 N90 N 0.24061 0.81889 -0.15672
 C91 C 0.26742 0.82274 -0.14452
 C92 C 0.27854 0.84838 -0.15494
 C93 C 0.25725 0.85943 -0.17338
 H94 H 0.27766 0.80833 -0.12878
 H95 H 0.25788 0.87968 -0.18499
 N96 N 0.18563 0.75496 -0.15467
 N97 N 0.16456 0.75350 -0.17521
 C98 C 0.15016 0.72846 -0.17224
 C99 C 0.16290 0.71362 -0.14892
 C100 C 0.18523 0.73086 -0.13817
 H101 H 0.13144 0.72170 -0.18558
 H102 H 0.19977 0.72638 -0.11946
 H103 H 0.17302 0.80506 -0.16612
 H104 H 0.20026 0.79224 -0.19498
 N105 N 0.18584 1.16185 0.76380
 N106 N 0.16267 1.17787 0.76833
 C107 C 0.14428 1.17466 0.74465
 C108 C 0.15662 1.15562 0.72428
 C109 C 0.18289 1.14774 0.73700
 H110 H 0.12342 1.18521 0.74250
 H111 H 0.19853 1.13279 0.72757
 Cu112 Cu 0.15834 1.20125 0.80471
 Cu113 Cu 0.21788 1.16079 0.79314
 Cu114 Cu 0.21486 1.21030 0.85247
 N115 N 0.15922 1.23214 0.83427
 N116 N 0.18135 1.23572 0.85304
 C117 C 0.17630 1.25866 0.87097
 C118 C 0.14969 1.26984 0.86274
 C119 C 0.13938 1.25266 0.83946
 H120 H 0.19087 1.26663 0.88852
 H121 H 0.11909 1.25498 0.82715
 N122 N 0.24678 1.18260 0.84782
 N123 N 0.24794 1.16360 0.82536
 C124 C 0.27180 1.14731 0.82908
 C125 C 0.28615 1.15669 0.85497
 C126 C 0.26982 1.17891 0.86637
 H127 H 0.27800 1.12964 0.81445
 H128 H 0.27411 1.19106 0.88700
 H129 H 0.19569 1.17492 0.83185
 H130 H 0.21156 1.20267 0.80594
 N131 N 0.82499 0.84079 0.76569
 N132 N 0.84803 0.82474 0.77005
 C133 C 0.86737 0.82853 0.74692
 C134 C 0.85579 0.84795 0.72711
 C135 C 0.82896 0.85545 0.73957
 H136 H 0.88834 0.81808 0.74476
 H137 H 0.81362 0.87050 0.73043
 Cu138 Cu 0.85097 0.80051 0.80549
 Cu139 Cu 0.79187 0.84140 0.79449
 Cu140 Cu 0.79221 0.79042 0.85130
 N141 N 0.84857 0.76873 0.83340
 N142 N 0.82551 0.76467 0.85124
 C143 C 0.82977 0.74139 0.86835
 C144 C 0.85686 0.73047 0.86062
 C145 C 0.86827 0.74820 0.83845
 H146 H 0.81448 0.73316 0.88525
 H147 H 0.88934 0.74639 0.82701
 N148 N 0.76066 0.81856 0.84752
 N149 N 0.76057 0.83815 0.82601
 C150 C 0.73691 0.85478 0.83025
 C151 C 0.72154 0.84507 0.85551
 C152 C 0.73710 0.82222 0.86598
 H153 H 0.73155 0.87295 0.81645
 H154 H 0.73198 0.80965 0.88597
 H155 H 0.81246 0.82623 0.83292
 H156 H 0.79771 0.79919 0.80524
 N157 N 0.18610 0.83220 1.24254
 N158 N 0.16199 0.81716 1.23797
 C159 C 0.14306 0.82164 1.26130
 C160 C 0.15608 0.84045 1.28148
 C161 C 0.18328 0.84690 1.26901
 H162 H 0.12155 0.81184 1.26349
 H163 H 0.19970 0.86119 1.27843
 Cu164 Cu 0.15790 0.79220 1.20283
 Cu165 Cu 0.21907 0.83142 1.21362
 Cu166 Cu 0.21322 0.78360 1.15282
 N167 N 0.16013 0.75880 1.17667
 N168 N 0.18200 0.75520 1.15721
 C169 C 0.17797 0.73044 1.14196
 C170 C 0.15236 0.71801 1.15279
 C171 C 0.14150 0.73646 1.17467
 H172 H 0.19244 0.72224 1.12426
 H173 H 0.12153 0.73392 1.18800
 N174 N 0.24738 0.80912 1.15843
 N175 N 0.24976 0.82726 1.18159
 C176 C 0.27514 0.84203 1.17851
 C177 C 0.28924 0.83253 1.15236
 C178 C 0.27118 0.81178 1.14011
 H179 H 0.28253 0.85888 1.19368
 H180 H 0.27485 0.79993 1.11912
 H181 H 0.19627 0.81923 1.17539
 H182 H 0.21103 0.79001 1.19907
 N183 N 0.82081 1.16075 1.24198
 N184 N 0.84446 1.17627 1.23652
 C185 C 0.86450 1.17143 1.25820
 C186 C 0.85272 1.15188 1.27826
 C187 C 0.82505 1.14539 1.26743
 H188 H 0.88598 1.18141 1.25928
 H189 H 0.80928 1.13064 1.27727
 Cu190 Cu 0.84697 1.20173 1.20202
 Cu191 Cu 0.78657 1.16186 1.21543
 Cu192 Cu 0.78663 1.21527 1.16127
 N193 N 0.84450 1.23513 1.17668
 N194 N 0.82085 1.24061 1.16087
 C195 C 0.82488 1.26544 1.14614
 C196 C 0.85242 1.27582 1.15334
 C197 C 0.86435 1.25620 1.17266
 H198 H 0.80893 1.27532 1.13161
 H199 H 0.88567 1.25732 1.18330
 N200 N 0.75433 1.18724 1.16556
 N201 N 0.75425 1.16684 1.18619
 C202 C 0.72982 1.15071 1.18274
 C203 C 0.71392 1.16163 1.15897
 C204 C 0.72999 1.18462 1.14847
 H205 H 0.72432 1.13205 1.19600
 H206 H 0.72465 1.19799 1.12935
 H207 H 0.80608 1.17826 1.17622
 H208 H 0.79399 1.20441 1.20625
 O209 O 0.51798 0.96348 0.95489
 O210 O 0.47260 0.97127 1.05856
 O211 O 0.56090 0.99456 1.02736
 O212 O 0.46478 0.96259 0.96223
 O213 O 0.52822 0.97229 1.05626
 O214 O 0.47878 0.98573 0.92211
 O215 O 0.46354 0.95174 1.01517
 O216 O 0.55671 0.98571 0.97234
 C217 C 0.54509 0.96411 0.95960
 C218 C 0.46294 0.95068 1.04338
 C219 C 0.55406 0.97553 1.04659
 C220 C 0.46029 0.96806 0.93443
 O221 O 0.48178 1.03208 0.95244
 O222 O 0.52765 1.02683 1.06120
 O223 O 0.53448 1.04048 0.96736
 O224 O 0.44006 1.00350 1.02882
 O225 O 0.47236 1.02676 1.05658
 O226 O 0.52904 1.01160 0.93159
 O227 O 0.44328 1.01538 0.97471
 O228 O 0.53823 1.04761 1.01934
 Co229 Co 0.49893 0.99755 0.95553
 Co230 Co 0.50016 0.99943 1.05274
 Co231 Co 0.54407 1.01575 0.99680
 Co232 Co 0.45691 0.98480 0.99572
 O233 O 0.50114 1.00043 1.00217
 C234 C 0.45538 1.03435 0.95905
 C235 C 0.53867 1.04741 1.04747
 C236 C 0.54017 1.03420 0.94052
 C237 C 0.44660 1.02318 1.04754
 O238 O 0.03299 0.48075 0.04649
 O239 O 0.02957 0.52637 -0.06157
 O240 O 0.00374 0.44137 -0.03072
 O241 O 0.04195 0.53199 0.03268
 O242 O 0.02843 0.47274 -0.05780
 O243 O 0.01165 0.52647 0.06789
 O244 O 0.05031 0.53611 -0.01917
 O245 O 0.01565 0.44382 0.02353
 C246 C 0.03512 0.45517 0.03959
 C247 C 0.05065 0.53670 -0.04731
 C248 C 0.02427 0.44769 -0.04915
 C249 C 0.03498 0.53750 0.05940
 O250 O -0.03747 0.51627 0.04359
 O251 O -0.02874 0.47390 -0.06038
 O252 O -0.03864 0.46491 0.03582
 O253 O -0.00386 0.55879 -0.02798
 O254 O -0.02683 0.52783 -0.05760
 O255 O -0.01508 0.47777 0.07628
 O256 O -0.01419 0.55395 0.02680
 O257 O -0.04939 0.46450 -0.01732
 Co258 Co -0.00248 0.49767 0.04320
 Co259 Co 0.00067 0.50010 -0.05394
 Co260 Co -0.01559 0.45752 0.00240
 Co261 Co 0.01715 0.54182 0.00283
 O262 O 0.00101 0.50037 -0.00337
 C263 C -0.03668 0.54258 0.03905
 C264 C -0.05010 0.46424 -0.04556
 C265 C -0.03309 0.45996 0.06351
 C266 C -0.02308 0.55278 -0.04782
 O267 O 1.05445 0.02941 0.47251
 O268 O 0.93421 0.01029 0.52942
 O269 O 0.97629 0.01671 0.44076
 O270 O 1.01755 0.04774 0.54131
 O271 O 0.95449 0.03229 0.48104
 O272 O 1.05819 0.02805 0.53007
 O273 O 0.96791 0.03968 0.53650
 O274 O 1.02863 0.00651 0.43788
 C275 C 1.04619 0.02632 0.44545
 C276 C 0.94214 0.03280 0.54171
 C277 C 0.96077 0.03510 0.45359
 C278 C 1.04455 0.04817 0.54169
 O279 O 1.05471 -0.02651 0.52924
 O280 O 0.92651 -0.01473 0.47640
 O281 O 1.01674 -0.04628 0.46080
 O282 O 0.97348 -0.01552 0.55820
 O283 O 0.95784 -0.03706 0.51700
 O284 O 1.05766 -0.02586 0.47134
 O285 O 1.02610 -0.00582 0.56358
 O286 O 0.96558 -0.03694 0.46164
 Co287 Co 1.05105 0.00130 0.50069
 Co288 Co 0.95797 -0.00255 0.49808
 Co289 Co 0.99722 -0.01356 0.45452
 Co290 Co 0.99653 0.01526 0.54619
 O291 O 1.00254 0.00116 0.50109
 C292 C 1.04513 -0.02419 0.55617
 C293 C 0.93871 -0.03217 0.45718
 C294 C 1.04384 -0.04663 0.46071
 C295 C 0.96185 -0.03702 0.54531
 C296 C 1.10159 0.11041 0.33317
 N297 N 1.07455 0.11566 0.34507
 N298 N 1.06367 0.09958 0.36757
 C299 C 1.07951 0.07779 0.37880
 N300 N 1.10653 0.07260 0.36690
 N301 N 1.11739 0.08865 0.34443
 C302 C 1.11322 0.12699 0.30834
 C303 C 1.12401 0.13983 0.28721
 C304 C 1.06768 0.06002 0.40254
 C305 C 1.05790 0.04475 0.42227
 C306 C 0.87611 -0.11383 0.34734
 N307 N 0.89987 -0.12249 0.36301
 N308 N 0.91026 -0.10680 0.38611
 C309 C 0.89720 -0.08202 0.39427
 N310 N 0.87337 -0.07340 0.37866
 N311 N 0.86297 -0.08910 0.35557
 C312 C 0.86597 -0.12971 0.32128
 C313 C 0.85733 -0.14212 0.29881
 C314 C 0.90996 -0.06417 0.41747
 C315 C 0.92216 -0.04933 0.43612
 C316 C 0.87627 0.11334 0.64994
 N317 N 0.86625 0.08637 0.64523
 N318 N 0.87655 0.07077 0.62196
 C319 C 0.89708 0.08175 0.60260
 N320 N 0.90701 0.10876 0.60724
 N321 N 0.89673 0.12434 0.63052
 C322 C 0.86668 0.12928 0.67626
 C323 C 0.85864 0.14180 0.69896
 C324 C 0.91062 0.06410 0.57968
 C325 C 0.92386 0.04950 0.56157
 C326 C 1.09889 -0.10867 0.66675
 N327 N 1.07793 -0.08924 0.67339
 N328 N 1.06692 -0.07319 0.65141
 C329 C 1.07660 -0.07604 0.62212
 N330 N 1.09752 -0.09552 0.61544
 N331 N 1.10853 -0.11157 0.63744
 C332 C 1.11195 -0.12463 0.69077
 C333 C 1.12347 -0.13713 0.71130
 C334 C 1.06548 -0.05802 0.59870
 C335 C 1.05621 -0.04261 0.57922
 C336 C 0.33554 1.10534 1.10065
 N337 N 0.35875 1.11756 1.08596
 N338 N 0.38093 1.10165 1.07582
 C339 C 0.38058 1.07308 1.08015
 N340 N 0.35738 1.06091 1.09488
 N341 N 0.33523 1.07680 1.10500
 C342 C 0.31169 1.12225 1.11192
 C343 C 0.29133 1.13561 1.12213
 C344 C 0.40421 1.05582 1.06899
 C345 C 0.42376 1.04102 1.05942
 C346 C 0.35125 0.89028 0.87043
 N347 N 0.35319 0.91862 0.86495
 N348 N 0.37599 0.93384 0.87511
 C349 C 0.39759 0.92117 0.89097
 N350 N 0.39568 0.89282 0.89638
 N351 N 0.37287 0.87759 0.88622
 C352 C 0.32580 0.87435 0.86107
 C353 C 0.30386 0.86169 0.85352
 C354 C 0.42071 0.93793 0.90431
 C355 C 0.43933 0.95187 0.91707
 C356 C 0.66304 0.89213 1.09750
 N357 N 0.66102 0.89823 1.06734
 N358 N 0.63913 0.91412 1.05731
 C359 C 0.61869 0.92441 1.07716
 N360 N 0.62070 0.91827 1.10729
 N361 N 0.64257 0.90239 1.11731
 C362 C 0.68727 0.87626 1.10866
 C363 C 0.70777 0.86368 1.11891
 C364 C 0.59568 0.94220 1.06657
 C365 C 0.57654 0.95737 1.05762
 C366 C 0.64736 1.11412 0.87698
 N367 N 0.64446 1.08638 0.86864
 N368 N 0.62139 1.07107 0.87814
 C369 C 0.60045 1.08312 0.89611
 N370 N 0.60328 1.11091 0.90436
 N371 N 0.62636 1.12622 0.89487
 C372 C 0.67319 1.12985 0.86840
 C373 C 0.69548 1.14214 0.86115
 C374 C 0.57765 1.06586 0.90936
 C375 C 0.55973 1.05126 0.92240
 C376 C 0.12075 0.35573 0.10174
 N377 N 0.11883 0.35757 0.07087
 N378 N 0.10519 0.37939 0.05815
 C379 C 0.09318 0.40013 0.07589
 N380 N 0.09520 0.39834 0.10675
 N381 N 0.10883 0.37653 0.11948
 C382 C 0.13329 0.33103 0.11545
 C383 C 0.14308 0.30989 0.12683
 C384 C 0.07511 0.42145 0.06245
 C385 C 0.05800 0.43788 0.05163
 C386 C -0.13307 0.36609 -0.11756
 N387 N -0.11281 0.38186 -0.13301
 N388 N -0.09959 0.40398 -0.11947
 C389 C -0.10632 0.41112 -0.09011
 N390 N -0.12672 0.39545 -0.07471
 N391 N -0.13995 0.37332 -0.08825
 C392 C -0.14519 0.34069 -0.13113
 C393 C -0.15467 0.31885 -0.14207
 C394 C -0.08893 0.43211 -0.07431
 C395 C -0.07233 0.44798 -0.06105
 C396 C 0.13277 0.63821 -0.11468
 N397 N 0.13820 0.63081 -0.08538
 N398 N 0.12518 0.60795 -0.07323
 C399 C 0.10644 0.59170 -0.09005
 N400 N 0.10116 0.59902 -0.11941
 N401 N 0.11418 0.62187 -0.13156
 C402 C 0.14446 0.66431 -0.12684
 C403 C 0.15330 0.68666 -0.13693
 C404 C 0.08897 0.56993 -0.07563
 C405 C 0.07247 0.55350 -0.06296
 C406 C -0.12068 0.64482 0.10166
 N407 N -0.11295 0.62209 0.11858
 N408 N -0.09968 0.59993 0.10540
 C409 C -0.09393 0.59974 0.07489
 N410 N -0.10178 0.62242 0.05798
 N411 N -0.11504 0.64458 0.07114
 C412 C -0.13316 0.66951 0.11605
 C413 C -0.14321 0.69066 0.12772
 C414 C -0.07620 0.57777 0.06149
 C415 C -0.05932 0.56071 0.05079
 C416 C 1.11797 0.12528 0.64671
 N417 N 1.08952 0.13160 0.64129
 N418 N 1.07542 0.11942 0.61794
 C419 C 1.08940 0.10068 0.59921
 N420 N 1.11790 0.09451 0.60454
 N421 N 1.13200 0.10667 0.62789
 C422 C 1.13231 0.13641 0.67341
 C423 C 1.14378 0.14525 0.69639
 C424 C 1.07329 0.08455 0.57685
 C425 C 1.05992 0.06906 0.55970
 C426 C 0.89662 -0.11958 0.65140
 N427 N 0.92633 -0.11743 0.65063
 N428 N 0.94002 -0.10442 0.62748
 C429 C 0.92442 -0.09330 0.60427
 N430 N 0.89471 -0.09559 0.60498
 N431 N 0.88103 -0.10860 0.62813
 C432 C 0.88182 -0.13153 0.67754
 C433 C 0.86967 -0.14100 0.69995
 C434 C 0.93871 -0.07588 0.58165
 C435 C 0.94991 -0.05929 0.56406
 C436 C 1.11797 -0.12666 0.35860
 N437 N 1.09066 -0.13545 0.36715
 N438 N 1.07653 -0.12246 0.39010
 C439 C 1.08937 -0.10038 0.40527
 N440 N 1.11675 -0.09173 0.39683
 N441 N 1.13086 -0.10470 0.37389
 C442 C 1.13203 -0.13880 0.33209
 C443 C 1.14333 -0.14840 0.30923
 C444 C 1.07288 -0.08381 0.42700
 C445 C 1.05927 -0.06796 0.44353
 C446 C 0.89448 0.11834 0.35150
 N447 N 0.92399 0.11494 0.35009
 N448 N 0.93792 0.10177 0.37248
 C449 C 0.92279 0.09175 0.39708
 N450 N 0.89330 0.09531 0.39857
 N451 N 0.87937 0.10848 0.37617
 C452 C 0.87929 0.13055 0.32624
 C453 C 0.86688 0.14033 0.30455
 C454 C 0.93710 0.07413 0.41893
 C455 C 0.94845 0.05742 0.43579
 C456 C 0.10685 0.33898 -0.10321
 N457 N 0.09424 0.35714 -0.12298
 N458 N 0.07858 0.37902 -0.11256
 C459 C 0.07503 0.38338 -0.08206
 N460 N 0.08768 0.36525 -0.06228
 N461 N 0.10335 0.34336 -0.07270
 C462 C 0.12271 0.31485 -0.11455
 C463 C 0.13540 0.29439 -0.12459
 C464 C 0.05744 0.40639 -0.07084
 C465 C 0.04239 0.42544 -0.06118
 C466 C -0.10702 0.34900 0.12574
 N467 N -0.12172 0.36995 0.11149
 N468 N -0.10744 0.39301 0.10147
 C469 C -0.07807 0.39587 0.10552
 N470 N -0.06341 0.37495 0.11983
 N471 N -0.07768 0.35190 0.12984
 C472 C -0.12203 0.32360 0.13539
 C473 C -0.13404 0.30193 0.14345
 C474 C -0.06233 0.41950 0.09251
 C475 C -0.04898 0.43854 0.08018
 C476 C -0.10130 0.66244 -0.10336
 N477 N -0.10843 0.63538 -0.11171
 N478 N -0.09357 0.61350 -0.10073
 C479 C -0.07110 0.61803 -0.08110
 N480 N -0.06398 0.64509 -0.07275
 N481 N -0.07884 0.66696 -0.08372
 C482 C -0.11668 0.68611 -0.11580
 C483 C -0.12907 0.70622 -0.12644
 C484 C -0.05469 0.59460 -0.06959
 C485 C -0.04048 0.57528 -0.05977
 C486 C 0.11176 0.64474 0.12491
 N487 N 0.12510 0.62585 0.10586
 N488 N 0.11050 0.60299 0.09565
 C489 C 0.08220 0.59826 0.10431
 N490 N 0.06889 0.61714 0.12338
 N491 N 0.08348 0.63999 0.13360
 C492 C 0.12686 0.67012 0.13468
 C493 C 0.13890 0.69181 0.14282
 C494 C 0.06566 0.57537 0.09075
 C495 C 0.05162 0.55728 0.07757
 C496 C 0.35682 1.12094 0.89556
 N497 N 0.38015 1.11165 0.87889
 N498 N 0.40168 1.09755 0.89229
 C499 C 0.40062 1.09244 0.92278
 N500 N 0.37736 1.10187 0.93945
 N501 N 0.35584 1.11597 0.92607
 C502 C 0.33249 1.13408 0.88082
 C503 C 0.31156 1.14452 0.86875
 C504 C 0.42174 1.07412 0.93638
 C505 C 0.43808 1.05698 0.94720
 C506 C 0.36327 0.86634 1.11329
 N507 N 0.38255 0.88189 1.13016
 N508 N 0.40485 0.89561 1.11664
 C509 C 0.40864 0.89409 1.08585
 N510 N 0.38941 0.87844 1.06900
 N511 N 0.36712 0.86472 1.08251
 C512 C 0.33780 0.85367 1.12747
 C513 C 0.31587 0.84375 1.13904
 C514 C 0.43005 0.91197 1.07095
 C515 C 0.44627 0.92868 1.05833
 C516 C 0.63999 1.12757 1.12061
 N517 N 0.63484 1.13171 1.09047
 N518 N 0.61246 1.11846 1.07677
 C519 C 0.59444 1.10077 1.09279
 N520 N 0.59952 1.09672 1.12296
 N521 N 0.62190 1.10997 1.13667
 C522 C 0.66547 1.14009 1.13471
 C523 C 0.68737 1.15007 1.14605
 C524 C 0.57267 1.08385 1.07722
 C525 C 0.55601 1.06813 1.06378
 C526 C 0.64960 0.88122 0.89593
 N527 N 0.62659 0.88984 0.87903
 N528 N 0.60416 0.90337 0.89227
 C529 C 0.60395 0.90858 0.92285
 N530 N 0.62695 0.89990 0.93975
 N531 N 0.64937 0.88637 0.92652
 C532 C 0.67457 0.86806 0.88145
 C533 C 0.69585 0.85745 0.86946
 C534 C 0.58148 0.92597 0.93652
 C535 C 0.56390 0.94229 0.94749
   
