data_POSCAR
  _audit_creation_date              2014-09-24
  _audit_creation_method            'ToBaCCo'
  _symmetry_space_group_name_H-M    'P1'
  _symmetry_Int_Tables_number       1
  _symmetry_cell_setting            triclinic
  loop_
  _symmetry_equiv_pos_as_xyz
 x,y,z
_cell_length_a 27.3778
_cell_length_b 26.7523
_cell_length_c 25.6220
_cell_angle_alpha 89.319000
_cell_angle_beta 89.464500
_cell_angle_gamma 91.729200
loop_
  _atom_site_label
  _atom_site_type_symbol
  _atom_site_fract_x
  _atom_site_fract_y
  _atom_site_fract_z
C1 C 0.24798 0.50181 1.01291
 C2 C 0.74481 0.48745 -0.02156
 C3 C 0.01066 0.24229 0.50800
 C4 C 0.98986 0.75462 0.48182
 C5 C 0.51745 0.00383 0.25496
 C6 C 0.48722 -0.01451 0.75202
 C7 C 0.31967 0.03155 0.41673
 H8 H 0.30472 0.06818 0.42163
 C9 C 0.36199 0.02599 0.38637
 H10 H 0.37910 0.05841 0.36724
 C11 C 0.31756 -0.05496 0.43805
 H12 H 0.30047 -0.08622 0.45907
 C13 C 0.35933 -0.06216 0.40838
 H14 H 0.37305 -0.09954 0.40605
 N15 N 0.29877 -0.00879 0.44204
 C16 C 0.19517 0.07504 0.53142
 H17 H 0.20717 0.06338 0.56963
 C18 C 0.15710 0.10857 0.52703
 H19 H 0.14087 0.12364 0.56197
 C20 C 0.19748 0.06522 0.43957
 H21 H 0.21166 0.04616 0.40593
 C22 C 0.15948 0.09807 0.43347
 H23 H 0.14610 0.10551 0.39463
 Zn24 Zn 0.24811 -0.00599 0.49188
 N25 N 0.21372 0.05349 0.48796
 C26 C 0.30602 0.02339 0.57601
 N27 N 0.27946 -0.01563 0.55614
 C28 C 0.28693 -0.06350 0.57184
 C29 C 0.32406 -0.07386 0.60690
 C30 C 0.34299 0.01475 0.61197
 C31 C 0.19507 -0.07182 0.42829
 C32 C 0.15651 -0.10441 0.41525
 C33 C 0.13098 -0.10623 0.50582
 C34 C 0.16986 -0.07320 0.51706
 N35 N 0.20113 -0.05710 0.47849
 H36 H 0.30107 0.06081 0.56096
 H37 H 0.26688 -0.09405 0.55384
 H38 H 0.33087 -0.11238 0.61714
 H39 H 0.36535 0.04593 0.62563
 H40 H 0.21937 -0.05709 0.39797
 H41 H 0.15260 -0.11557 0.37505
 H42 H 0.10626 -0.11858 0.53693
 H43 H 0.17457 -0.05957 0.55633
 C44 C 0.13751 0.11855 0.47772
 C45 C 0.38285 -0.02123 0.38298
 C46 C 0.12359 -0.12169 0.45423
 C47 C 0.35372 -0.03453 0.62584
 C48 C 0.67120 0.02970 0.57464
 H49 H 0.66591 0.05664 0.54354
 C50 C 0.63678 0.02481 0.61535
 H51 H 0.60539 0.04849 0.61574
 C52 C 0.71730 -0.03526 0.61122
 H53 H 0.74765 -0.05991 0.60906
 C54 C 0.68469 -0.04030 0.65328
 H55 H 0.69080 -0.06844 0.68305
 N56 N 0.71048 -0.00037 0.57304
 C57 C 0.83551 0.06426 0.48818
 H58 H 0.84661 0.03034 0.46951
 C59 C 0.86687 0.10622 0.48701
 H60 H 0.90188 0.10418 0.46723
 C61 C 0.77701 0.10744 0.53761
 H62 H 0.74229 0.10746 0.55796
 C63 C 0.80717 0.15077 0.53676
 H64 H 0.79532 0.18372 0.55681
 Zn65 Zn 0.75501 0.00377 0.51481
 N66 N 0.79169 0.06526 0.51353
 C67 C 0.74227 0.01104 0.40532
 N68 N 0.71995 -0.00239 0.45131
 C69 C 0.67229 -0.01823 0.45280
 C70 C 0.64463 -0.01886 0.40734
 C71 C 0.71595 0.01076 0.35875
 C72 C 0.83268 -0.04509 0.56095
 C73 C 0.86777 -0.08132 0.56741
 C74 C 0.83858 -0.12115 0.48901
 C75 C 0.80333 -0.08458 0.48457
 N76 N 0.80089 -0.04771 0.52053
 H77 H 0.78028 0.02311 0.40484
 H78 H 0.65540 -0.02989 0.48939
 H79 H 0.60647 -0.03064 0.40970
 H80 H 0.73419 0.02293 0.32299
 H81 H 0.83057 -0.01475 0.58835
 H82 H 0.89267 -0.07843 0.59986
 H83 H 0.84019 -0.15034 0.46016
 H84 H 0.77809 -0.08556 0.45237
 C85 C 0.85300 0.15016 0.51159
 C86 C 0.64369 -0.01028 0.65550
 C87 C 0.87094 -0.12002 0.53118
 C88 C 0.66615 -0.00352 0.35961
 C89 C 0.47533 0.16011 1.05641
 H90 H 0.47089 0.14172 1.01949
 C91 C 0.47882 0.13095 1.10160
 H92 H 0.47764 0.09060 1.09839
 C93 C 0.48123 0.23429 1.10551
 H94 H 0.48098 0.27456 1.10715
 C95 C 0.48483 0.20645 1.15191
 H96 H 0.48841 0.22604 1.18841
 N97 N 0.47849 0.21092 1.05862
 C98 C 0.43486 0.32468 0.94530
 H99 H 0.46328 0.31870 0.91667
 C100 C 0.40186 0.36242 0.93707
 H101 H 0.40557 0.38536 0.90211
 C102 C 0.39689 0.30245 1.02613
 H103 H 0.39531 0.27897 1.06077
 C104 C 0.36329 0.34056 1.01976
 H105 H 0.33570 0.34607 1.04953
 Zn106 Zn 0.48153 0.24803 0.99407
 N107 N 0.43171 0.29531 0.98893
 C108 C 0.44003 0.20610 0.90184
 N109 N 0.47703 0.20313 0.93679
 C110 C 0.51299 0.16954 0.93065
 C111 C 0.51227 0.13688 0.88853
 C112 C 0.43889 0.17532 0.85816
 C113 C 0.55745 0.31657 1.02536
 C114 C 0.59452 0.35258 1.01532
 C115 C 0.59765 0.32503 0.92603
 C116 C 0.56127 0.28908 0.93792
 N117 N 0.54103 0.28612 0.98663
 H118 H 0.41144 0.23249 0.90749
 H119 H 0.54229 0.16820 0.95862
 H120 H 0.54088 0.11007 0.88436
 H121 H 0.40937 0.17824 0.83055
 H122 H 0.54036 0.31497 1.06335
 H123 H 0.60601 0.37770 1.04601
 H124 H 0.61200 0.32776 0.88655
 H125 H 0.54701 0.26590 0.90706
 C126 C 0.36543 0.37076 0.97449
 C127 C 0.48494 0.15396 1.15007
 C128 C 0.61362 0.35822 0.96465
 C129 C 0.47530 0.14018 0.85137
 C130 C 0.45686 0.80361 -0.03279
 H131 H 0.43474 0.79508 0.00153
 C132 C 0.44351 0.84177 -0.06655
 H133 H 0.41099 0.86190 -0.05730
 C134 C 0.52725 0.78841 -0.08397
 H135 H 0.56029 0.76804 -0.08992
 C136 C 0.51530 0.82682 -0.11891
 H137 H 0.53917 0.83543 -0.15196
 N138 N 0.49826 0.77817 -0.04151
 C139 C 0.46044 0.66103 0.07175
 H140 H 0.48935 0.66680 0.09974
 C141 C 0.42191 0.62714 0.08309
 H142 H 0.42174 0.60668 0.11978
 C143 C 0.42627 0.68038 -0.01042
 H144 H 0.42829 0.70101 -0.04694
 C145 C 0.38746 0.64621 -0.00102
 H146 H 0.35957 0.64109 -0.03035
 Zn147 Zn 0.51417 0.73481 0.01415
 N148 N 0.46152 0.68755 0.02605
 C149 C 0.47784 0.78138 0.10234
 N150 N 0.51924 0.77758 0.07302
 C151 C 0.55697 0.81167 0.07756
 C152 C 0.55272 0.85275 0.11062
 C153 C 0.47190 0.82188 0.13504
 C154 C 0.56718 0.64832 -0.00061
 C155 C 0.60737 0.61887 -0.00959
 C156 C 0.65798 0.69393 -0.01834
 C157 C 0.61646 0.72219 -0.00944
 N158 N 0.57222 0.69907 0.00025
 H159 H 0.44721 0.75574 0.09690
 H160 H 0.58889 0.80936 0.05290
 H161 H 0.58170 0.88118 0.11158
 H162 H 0.43749 0.82560 0.15563
 H163 H 0.53188 0.63018 0.00558
 H164 H 0.60218 0.57857 -0.00935
 H165 H 0.69279 0.71308 -0.02553
 H166 H 0.61970 0.76248 -0.01081
 C167 C 0.38462 0.61964 0.04652
 C168 C 0.47319 0.85444 -0.10999
 C169 C 0.65367 0.64143 -0.01792
 C170 C 0.50877 0.85915 0.13772
 C171 C 1.03761 0.44095 0.18223
 H172 H 1.01284 0.41068 0.19444
 C173 C 1.07756 0.43110 0.15049
 H174 H 1.08245 0.39305 0.13829
 C175 C 1.05974 0.52723 0.18368
 H176 H 1.05250 0.56452 0.19698
 C177 C 1.10042 0.51900 0.15152
 H178 H 1.12437 0.55028 0.14015
 N179 N 1.02939 0.48822 0.19821
 C180 C 0.95211 0.40758 0.31307
 H181 H 0.91638 0.40427 0.29574
 C182 C 0.96531 0.37357 0.35225
 H183 H 0.93945 0.34441 0.36496
 C184 C 1.03008 0.44802 0.31682
 H185 H 1.05600 0.47582 0.30171
 C186 C 1.04457 0.41541 0.35570
 H187 H 1.08101 0.42046 0.37094
 Zn188 Zn 0.97428 0.49214 0.24312
 N189 N 0.98453 0.44416 0.29654
 C190 C 0.87200 0.47206 0.22661
 N191 N 0.91703 0.47745 0.20380
 C192 C 0.92242 0.47691 0.15099
 C193 C 0.88182 0.47244 0.11898
 C194 C 0.83009 0.46792 0.19582
 C195 C 1.00744 0.57433 0.30388
 C196 C 1.00086 0.61434 0.33750
 C197 C 0.91750 0.61870 0.30857
 C198 C 0.92576 0.57880 0.27529
 N199 N 0.96949 0.55588 0.27526
 H200 H 0.86838 0.47337 0.26863
 H201 H 0.95814 0.48207 0.13324
 H202 H 0.88723 0.47355 0.07704
 H203 H 0.79463 0.46524 0.21474
 H204 H 1.04244 0.55700 0.30234
 H205 H 1.03096 0.62696 0.36164
 H206 H 0.88183 0.63499 0.30916
 H207 H 0.89629 0.56494 0.25134
 C208 C 1.01232 0.37715 0.37374
 C209 C 1.10988 0.47029 0.13480
 C210 C 0.95482 0.63561 0.34177
 C211 C 0.83481 0.46915 0.14113
 C212 C -0.06816 0.45356 0.77861
 H213 H -0.05581 0.42415 0.75375
 C214 C -0.10703 0.44345 0.81275
 H215 H -0.12473 0.40671 0.81263
 C216 C -0.05844 0.53575 0.81132
 H217 H -0.03788 0.57091 0.81189
 C218 C -0.09770 0.52724 0.84613
 H219 H -0.10761 0.55612 0.87319
 N220 N -0.04377 0.49855 0.77947
 C221 C 0.05947 0.40764 0.72628
 H222 H 0.08163 0.41415 0.76029
 C223 C 0.06256 0.36227 0.69985
 H224 H 0.08735 0.33442 0.71371
 C225 C 0.00078 0.43596 0.66620
 H226 H -0.02372 0.46464 0.65373
 C227 C 0.00325 0.39175 0.63836
 H228 H -0.01931 0.38690 0.60417
 Zn229 Zn 0.01726 0.50390 0.74442
 N230 N 0.02822 0.44299 0.70956
 C231 C 0.06872 0.48409 0.83623
 N232 N 0.06491 0.51716 0.79587
 C233 C 0.09204 0.56063 0.79422
 C234 C 0.12533 0.57171 0.83370
 C235 C 0.10212 0.49329 0.87608
 C236 C -0.01743 0.58593 0.68249
 C237 C -0.01297 0.62115 0.64163
 C238 C 0.06749 0.59098 0.62262
 C239 C 0.06150 0.55658 0.66351
 N240 N 0.01981 0.55484 0.69269
 H241 H 0.04555 0.45061 0.83758
 H242 H 0.08751 0.58717 0.76267
 H243 H 0.14693 0.60621 0.83127
 H244 H 0.10507 0.46631 0.90765
 H245 H -0.05061 0.58323 0.70570
 H246 H -0.04274 0.64587 0.63399
 H247 H 0.10101 0.59089 0.60003
 H248 H 0.09011 0.53076 0.67198
 C249 C 0.03389 0.35395 0.65542
 C250 C -0.12098 0.47983 0.84840
 C251 C 0.03008 0.62411 0.61125
 C252 C 0.13075 0.53766 0.87519
 C253 C 0.03604 0.19612 0.48850
 C254 C 0.02351 0.17298 0.44230
 C255 C 0.05945 0.14053 0.43248
 C256 C 0.09209 0.14657 0.47277
 O257 O 0.07812 0.18037 0.50671
 H258 H -0.00733 0.18055 0.41761
 H259 H 0.06164 0.11579 0.39950
 C260 C 0.73548 0.54274 -0.02808
 C261 C 0.77040 0.58103 -0.02580
 C262 C 0.74489 0.62416 -0.02427
 C263 C 0.69619 0.60901 -0.02468
 O264 O 0.69071 0.55984 -0.02672
 H265 H 0.80959 0.57772 -0.02310
 H266 H 0.76017 0.66168 -0.02058
 C267 C 0.95766 -0.21381 0.51625
 C268 C 0.96142 -0.20863 0.56979
 C269 C 0.92912 -0.17302 0.58289
 C270 C 0.90812 -0.15864 0.53656
 O271 O 0.92563 -0.18296 0.49622
 H272 H 0.98576 -0.22727 0.59616
 H273 H 0.92198 -0.15916 0.62162
 C274 C 0.27936 0.46621 0.98197
 C275 C 0.28492 0.46586 0.92818
 C276 C 0.31759 0.42988 0.91816
 C277 C 0.33014 0.41085 0.96632
 O278 O 0.30729 0.43298 1.00502
 H279 H 0.26790 0.48937 0.89941
 H280 H 0.33046 0.41884 0.88008
 C281 C 0.95556 0.23304 0.50898
 C282 C 0.92112 0.26828 0.51999
 C283 C 0.87723 0.24245 0.52221
 C284 C 0.88809 0.19335 0.51241
 O285 O 0.93536 0.18778 0.50464
 H286 H 0.92748 0.30778 0.52676
 H287 H 0.84182 0.25766 0.53023
 C288 C 0.28351 0.53486 0.04325
 C289 C 0.28831 0.53614 0.09694
 C290 C 0.32698 0.56815 0.10579
 C291 C 0.34314 0.58409 0.05700
 O292 O 0.31697 0.56383 0.01922
 H293 H 0.26689 0.51564 0.12622
 H294 H 0.34138 0.57866 0.14340
 C295 C 0.02416 -0.20843 0.45317
 C296 C 0.02654 -0.19937 0.39990
 C297 C 0.06406 -0.16530 0.39267
 C298 C 0.08176 -0.15568 0.44197
 O299 O 0.05723 -0.18130 0.47854
 H300 H 0.00395 -0.21564 0.36973
 H301 H 0.07660 -0.14942 0.35574
 C302 C 0.70129 0.45717 0.95841
 C303 C 0.68519 0.46042 0.90756
 C304 C 0.65029 0.42363 0.90303
 C305 C 0.64750 0.40046 0.95142
 O306 O 0.67826 0.42080 0.98519
 H307 H 0.69852 0.48588 0.87714
 H308 H 0.62930 0.41491 0.86857
 C309 C 0.50645 0.05788 1.24184
 C310 C 0.50820 0.09696 1.27657
 C311 C 0.49917 0.13883 1.24756
 C312 C 0.49295 0.12233 1.19704
 O313 O 0.49762 0.07343 1.19375
 H314 H 0.51589 0.09507 1.31788
 H315 H 0.49819 0.17669 1.26174
 C316 C 0.01929 0.71795 0.51390
 C317 C 0.06857 0.70956 0.50716
 C318 C 0.07932 0.67348 0.54256
 C319 C 0.03586 0.66157 0.56827
 O320 O -0.00066 0.68819 0.55055
 H321 H 0.09387 0.72728 0.47948
 H322 H 0.11497 0.65828 0.54871
 C323 C 0.46877 0.95430 -0.20135
 C324 C 0.42292 0.95937 -0.17945
 C325 C 0.41817 0.92276 -0.14252
 C326 C 0.46132 0.89725 -0.14452
 O327 O 0.49180 0.91601 -0.18073
 H328 H 0.39586 0.98627 -0.19003
 H329 H 0.38642 0.91555 -0.11789
 C330 C 1.02705 0.28401 0.47067
 C331 C 1.07545 0.29946 0.46561
 C332 C 1.07638 0.33607 0.42880
 C333 C 1.02834 0.34089 0.41376
 O334 O 0.99823 0.30896 0.43900
 H335 H 1.10645 0.28512 0.48632
 H336 H 1.10880 0.35600 0.41449
 C337 C 0.50297 0.97022 0.20997
 C338 C 0.45675 0.97028 0.18861
 C339 C 0.45375 0.92951 0.15789
 C340 C 0.49807 0.90693 0.16281
 O341 O 0.52824 0.93143 0.19434
 H342 H 0.42778 0.99579 0.19681
 H343 H 0.42247 0.91689 0.13556
 C344 C 0.02549 0.25850 0.56236
 C345 C 0.04501 0.22975 0.60178
 C346 C 0.05206 0.26167 0.64260
 C347 C 0.03559 0.30721 0.62533
 O348 O 0.01926 0.30502 0.57719
 H349 H 0.05261 0.19033 0.60139
 H350 H 0.06636 0.25242 0.68061
 C351 C 0.47954 0.04036 0.76343
 C352 C 0.46588 0.07678 0.72808
 C353 C 0.46167 0.11930 0.75644
 C354 C 0.47439 0.10616 0.80656
 O355 O 0.48580 0.05870 0.81076
 H356 H 0.45968 0.07303 0.68667
 H357 H 0.45136 0.15570 0.74219
 C358 C 0.96027 0.72337 0.44346
 C359 C 0.90992 0.72058 0.43905
 C360 C 0.90077 0.68834 0.39927
 C361 C 0.94603 0.67333 0.38241
 O362 O 0.98192 0.69424 0.40943
 H363 H 0.88279 0.73901 0.46224
 H364 H 0.86514 0.67633 0.38552
 C365 C 1.21207 0.47348 0.04907
 C366 C 1.20652 0.42205 0.05383
 C367 C 1.16836 0.41381 0.08742
 C368 C 1.15261 0.46064 0.10063
 O369 O 1.17922 0.49680 0.07750
 H370 H 1.22680 0.39350 0.03444
 H371 H 1.15380 0.37759 0.09993
 C372 C 0.54141 -0.01947 0.74048
 C373 C 0.57699 -0.02927 0.77688
 C374 C 0.62004 -0.02804 0.74974
 C375 C 0.60804 -0.01615 0.69903
 O376 O 0.56055 -0.01031 0.69344
 H377 H 0.57246 -0.03557 0.81844
 H378 H 0.65607 -0.03376 0.76534
 C379 C -0.21149 0.47035 0.94713
 C380 C -0.19610 0.42163 0.94917
 C381 C -0.16030 0.41905 0.91259
 C382 C -0.15623 0.46628 0.89050
 O383 O -0.18713 0.49773 0.91147
 H384 H -0.21036 0.39137 0.97385
 H385 H -0.13951 0.38652 0.90324
 C386 C 0.48737 -0.01595 0.30125
 C387 C 0.49509 -0.06182 0.32461
 C388 C 0.45793 -0.06923 0.35930
 C389 C 0.42922 -0.02788 0.35412
 O390 O 0.44710 0.00463 0.31891
 H391 H 0.52398 -0.08735 0.31620
 H392 H 0.45252 -0.10148 0.38475
 C393 C 0.21702 0.53237 0.97607
 C394 C 0.21895 0.58377 0.96883
 C395 C 0.18654 0.59317 0.93008
 C396 C 0.16677 0.54703 0.91681
 O397 O 0.18482 0.51040 0.94495
 H398 H 0.24140 0.61129 0.98881
 H399 H 0.17834 0.62939 0.91374
 C400 C 0.57145 0.00164 0.26755
 C401 C 0.60954 0.01023 0.23260
 C402 C 0.65110 0.00857 0.26175
 C403 C 0.63526 -0.00061 0.31248
 O404 O 0.58716 -0.00453 0.31578
 H405 H 0.60711 0.01769 0.19112
 H406 H 0.68821 0.01404 0.24754
 C407 C 0.75351 0.47793 0.03606
 C408 C 0.71880 0.48039 0.07537
 C409 C 0.74385 0.47506 0.12091
 C410 C 0.79215 0.47043 0.10605
 O411 O 0.79780 0.47236 0.05482
 H412 H 0.68020 0.48690 0.07125
 H413 H 0.72873 0.47657 0.15997
 C414 C 0.45739 -0.03384 0.70639
 C415 C 0.46315 -0.08046 0.68485
 C416 C 0.42481 -0.08734 0.65205
 C417 C 0.39804 -0.04465 0.65615
 O418 O 0.41756 -0.01235 0.68921
 H419 H 0.49125 -0.10684 0.69349
 H420 H 0.41746 -0.11957 0.62792
   
