data_POSCAR
  _audit_creation_date              2014-09-24
  _audit_creation_method            'ToBaCCo'
  _symmetry_space_group_name_H-M    'P1'
  _symmetry_Int_Tables_number       1
  _symmetry_cell_setting            triclinic
  loop_
  _symmetry_equiv_pos_as_xyz
 x,y,z
_cell_length_a 17.3818
_cell_length_b 18.1669
_cell_length_c 45.0619
_cell_angle_alpha 96.649300
_cell_angle_beta 96.166300
_cell_angle_gamma 115.416200
loop_
  _atom_site_label
  _atom_site_type_symbol
  _atom_site_fract_x
  _atom_site_fract_y
  _atom_site_fract_z
C1 C 0.20849 0.04907 0.50792
 C2 C 0.93806 -0.03547 0.17771
 C3 C -0.15985 0.98194 0.81115
 O4 O 0.26432 -0.09313 -0.04006
 O5 O 0.44480 -0.10380 0.00967
 O6 O 0.28081 -0.13880 0.01339
 O7 O 0.40901 -0.09726 -0.04691
 O8 O 0.45887 0.03744 -0.03152
 O9 O 0.33843 -0.00559 0.03244
 O10 O 0.50012 0.03185 0.02391
 O11 O 0.31922 0.03982 -0.02016
 Cu12 Cu 0.34367 -0.12144 -0.01725
 Cu13 Cu 0.40837 0.03772 0.00350
 C14 C 0.26247 -0.02314 -0.03834
 C15 C 0.50584 -0.03508 0.02409
 C16 C 0.28683 -0.08046 0.03323
 C17 C 0.45484 -0.02352 -0.04996
 O18 O 0.12503 0.48348 0.64834
 O19 O 0.06597 0.59665 0.70897
 O20 O 0.05875 0.45158 0.69635
 O21 O 0.15508 0.64056 0.66383
 O22 O 0.02988 0.60516 0.63476
 O23 O -0.06665 0.41561 0.66714
 O24 O -0.05706 0.56336 0.67864
 O25 O 0.00057 0.45263 0.61946
 Cu26 Cu 0.11447 0.54807 0.68213
 Cu27 Cu -0.03550 0.50624 0.64725
 C28 C 0.07087 0.44698 0.62371
 C29 C -0.00717 0.59757 0.70396
 C30 C -0.02008 0.40079 0.68708
 C31 C 0.10958 0.65497 0.64351
 O32 O 0.58330 0.59480 0.32515
 O33 O 0.52833 0.46182 0.38269
 O34 O 0.65897 0.59862 0.37794
 O35 O 0.44757 0.46361 0.33070
 O36 O 0.50151 0.38530 0.30911
 O37 O 0.71650 0.52536 0.35517
 O38 O 0.58708 0.38782 0.36136
 O39 O 0.63840 0.51907 0.30246
 Cu40 Cu 0.54853 0.53670 0.35633
 Cu41 Cu 0.61584 0.44608 0.32974
 C42 C 0.62200 0.58104 0.30438
 C43 C 0.54889 0.40251 0.38210
 C44 C 0.72439 0.58694 0.37407
 C45 C 0.43796 0.40144 0.31191
 C46 C 0.16282 0.20524 0.55973
 C47 C 0.10868 0.22042 0.53962
 C48 C 0.08073 0.18054 0.50961
 C49 C 0.11045 0.12303 0.49974
 C50 C 0.16566 0.10370 0.51998
 C51 C 0.19265 0.14766 0.55052
 O52 O 0.18325 0.25151 0.58715
 C53 C 0.14087 0.29687 0.58419
 C54 C 0.09450 0.28021 0.55547
 C55 C 0.04485 0.31981 0.54724
 C56 C 0.04081 0.37738 0.56976
 C57 C 0.08644 0.39470 0.59982
 C58 C 0.13863 0.35485 0.60696
 H59 H 0.03988 0.19533 0.49399
 H60 H 0.09465 0.09762 0.47575
 H61 H 0.23805 0.13980 0.56663
 H62 H 0.00907 0.30568 0.52445
 H63 H 0.00062 0.40731 0.56390
 H64 H 0.17315 0.36583 0.62976
 C65 C 0.82235 0.79628 0.22505
 C66 C 0.75982 0.81899 0.23229
 C67 C 0.75371 0.88746 0.22394
 C68 C 0.81303 0.93351 0.20671
 C69 C 0.87633 0.91002 0.19715
 C70 C 0.88282 0.84168 0.20779
 O71 O 0.81792 0.73037 0.23642
 C72 C 0.75094 0.71137 0.25095
 C73 C 0.71339 0.76393 0.24902
 C74 C 0.64403 0.75747 0.26309
 C75 C 0.61264 0.69491 0.28037
 C76 C 0.65052 0.64013 0.28324
 C77 C 0.72008 0.64785 0.26788
 H78 H 0.70505 0.90511 0.23056
 H79 H 0.80839 0.98710 0.20017
 H80 H 0.93323 0.82451 0.20312
 H81 H 0.61601 0.80004 0.26126
 H82 H 0.55964 0.69007 0.29195
 H83 H 0.75131 0.60796 0.27004
 C84 C 0.04245 0.00856 -0.13904
 C85 C 0.03612 0.04822 -0.11231
 C86 C -0.02009 0.08339 -0.11050
 C87 C -0.07851 0.07029 -0.13672
 C88 C -0.08181 0.02069 -0.16452
 C89 C -0.01164 -0.00070 -0.16597
 O90 O 0.09508 -0.02677 -0.13520
 C91 C 0.12169 -0.00931 -0.10529
 C92 C 0.08757 0.03696 -0.09040
 C93 C 0.10275 0.05933 -0.05905
 C94 C 0.15764 0.03520 -0.04227
 C95 C 0.19477 -0.01177 -0.05687
 C96 C 0.17575 -0.03542 -0.08888
 H97 H -0.02281 0.11544 -0.08913
 H98 H -0.12391 0.09522 -0.13400
 H99 H -0.00696 -0.03442 -0.18659
 H100 H 0.07401 0.09478 -0.04791
 H101 H 0.17253 0.05422 -0.01782
 H102 H 0.20430 -0.07026 -0.10056
 C103 C 0.15824 0.89703 0.56391
 C104 C 0.23810 0.91845 0.58040
 C105 C 0.31236 0.98484 0.57586
 C106 C 0.30377 1.02887 0.55288
 C107 C 0.22213 1.00429 0.53400
 C108 C 0.14840 0.93963 0.54141
 O109 O 0.09492 0.83273 0.57128
 C110 C 0.13544 0.81225 0.59291
 C111 C 0.22320 0.86262 0.59961
 C112 C 0.27744 0.85001 0.62137
 C113 C 0.23964 0.78243 0.63635
 C114 C 0.14921 0.72916 0.62932
 C115 C 0.09680 0.74545 0.60744
 H116 H 0.37462 1.00270 0.58969
 H117 H 0.36065 1.08292 0.55056
 H118 H 0.08358 0.92158 0.53018
 H119 H 0.34640 0.88990 0.62631
 H120 H 0.28097 0.77089 0.65299
 H121 H 0.02777 0.70626 0.60132
 C122 C 0.13283 0.12124 0.23742
 C123 C 0.11740 0.18954 0.23994
 C124 C 0.04285 0.18844 0.22476
 C125 C -0.01660 0.11493 0.20525
 C126 C -0.00033 0.04420 0.20076
 C127 C 0.07320 0.04678 0.21905
 O128 O 0.20952 0.13619 0.25252
 C129 C 0.24335 0.21587 0.26484
 C130 C 0.18916 0.25119 0.25809
 C131 C 0.21199 0.33421 0.26836
 C132 C 0.29392 0.38278 0.28633
 C133 C 0.35181 0.34832 0.29317
 C134 C 0.32590 0.26346 0.28219
 H135 H 0.03170 0.24287 0.22731
 H136 H -0.07439 0.11409 0.19328
 H137 H 0.08634 -0.00651 0.21756
 H138 H 0.16842 0.36073 0.26267
 H139 H 0.31285 0.44764 0.29450
 H140 H 0.36843 0.23532 0.28713
 C141 C 0.65287 -0.05676 -0.14308
 C142 C 0.64722 0.01642 -0.14287
 C143 C 0.69357 0.07556 -0.15905
 C144 C 0.75073 0.06046 -0.17526
 C145 C 0.76158 -0.01397 -0.17567
 C146 C 0.70842 -0.07442 -0.15973
 O147 O 0.60798 -0.10131 -0.12401
 C148 C 0.57448 -0.05446 -0.11144
 C149 C 0.59687 0.01838 -0.12219
 C150 C 0.57542 0.07999 -0.11040
 C151 C 0.52845 0.06580 -0.08650
 C152 C 0.50369 -0.00919 -0.07517
 C153 C 0.52657 -0.07042 -0.08804
 H154 H 0.68953 0.13363 -0.15790
 H155 H 0.79152 0.11072 -0.18564
 H156 H 0.71226 -0.13160 -0.15866
 H157 H 0.59566 0.13762 -0.11888
 H158 H 0.51137 0.11302 -0.07686
 H159 H 0.51015 -0.12752 -0.07939
 C160 C 0.10782 -0.04916 0.13288
 C161 C 0.06765 -0.13060 0.11879
 C162 C -0.01172 -0.18665 0.12453
 C163 C -0.05138 -0.15712 0.14538
 C164 C -0.01039 -0.07327 0.16097
 C165 C 0.07068 -0.01923 0.15387
 O166 O 0.17756 -0.00317 0.12205
 C167 C 0.18195 -0.05666 0.10053
 C168 C 0.11649 -0.13570 0.09762
 C169 C 0.10579 -0.19998 0.07503
 C170 C 0.16435 -0.18180 0.05459
 C171 C 0.23128 -0.10011 0.05676
 C172 C 0.24051 -0.03709 0.08044
 H173 H -0.04431 -0.24970 0.11216
 H174 H -0.11615 -0.19852 0.14801
 H175 H 0.10172 0.04668 0.16249
 H176 H 0.05314 -0.26144 0.07278
 H177 H 0.15571 -0.23093 0.03653
 H178 H 0.28981 0.02605 0.08255
 C179 C 1.00424 0.87410 0.45487
 C180 C 1.04053 0.83775 0.43634
 C181 C 1.12901 0.86790 0.43826
 C182 C 1.18248 0.93777 0.46042
 C183 C 1.14821 0.97859 0.48040
 C184 C 1.05595 0.94356 0.47702
 O185 O 0.91849 0.83445 0.45003
 C186 C 0.90051 0.77159 0.42789
 C187 C 0.97297 0.77042 0.41878
 C188 C 0.96893 0.70886 0.39632
 C189 C 0.88662 0.64682 0.38229
 C190 C 0.81070 0.64774 0.39085
 C191 C 0.81826 0.71089 0.41425
 H192 H 1.15630 0.83743 0.42366
 H193 H 1.25021 0.95642 0.46178
 H194 H 1.02382 0.96609 0.49230
 H195 H 1.02697 0.70895 0.38966
 H196 H 0.88212 0.59929 0.36434
 H197 H 0.76183 0.71348 0.42141
 C198 C -0.07410 0.14431 0.76103
 C199 C -0.14764 0.11915 0.73986
 C200 C -0.22309 0.04884 0.73962
 C201 C -0.22370 0.00325 0.76253
 C202 C -0.14904 0.02689 0.78545
 C203 C -0.07229 0.09899 0.78392
 O204 O -0.01127 0.21634 0.75817
 C205 C -0.04642 0.23672 0.73480
 C206 C -0.12977 0.17916 0.72280
 C207 C -0.18049 0.18976 0.69925
 C208 C -0.14365 0.26295 0.68750
 C209 C -0.05769 0.32365 0.69947
 C210 C -0.00835 0.30982 0.72341
 H211 H -0.28057 0.03112 0.72297
 H212 H -0.28372 -0.05033 0.76305
 H213 H -0.01401 0.12233 0.80067
 H214 H -0.24643 0.14380 0.69050
 H215 H -0.18229 0.27238 0.66921
 H216 H 0.05709 0.35515 0.73327
 C217 C 0.75712 -0.06358 0.11309
 C218 C 0.79893 0.00504 0.10049
 C219 C 0.88431 0.06252 0.11134
 C220 C 0.92835 0.04927 0.13651
 C221 C 0.88638 -0.01948 0.15109
 C222 C 0.79991 -0.07849 0.13792
 O223 O 0.67478 -0.10899 0.10000
 C224 C 0.66431 -0.06768 0.07870
 C225 C 0.73874 0.00233 0.07804
 C226 C 0.74204 0.05740 0.05875
 C227 C 0.66494 0.04109 0.03999
 C228 C 0.58654 -0.02935 0.04071
 C229 C 0.58656 -0.08589 0.05980
 H230 H 0.91595 0.11593 0.10085
 H231 H 0.99533 0.09305 0.14471
 H232 H 0.76618 -0.13467 0.14665
 H233 H 0.80118 0.11242 0.05886
 H234 H 0.66566 0.08480 0.02544
 H235 H 0.52732 -0.13896 0.06130
 C236 C 0.36774 0.22356 0.47196
 C237 C 0.42677 0.19498 0.46608
 C238 C 0.42681 0.12636 0.47689
 C239 C 0.36104 0.08376 0.49308
 C240 C 0.29388 0.10761 0.49741
 C241 C 0.30235 0.18239 0.48768
 O242 O 0.37401 0.28630 0.45842
 C243 C 0.43789 0.29727 0.44322
 C244 C 0.47263 0.24295 0.44690
 C245 C 0.53485 0.23924 0.43051
 C246 C 0.56137 0.29309 0.40949
 C247 C 0.52580 0.34933 0.40541
 C248 C 0.46413 0.35182 0.42299
 H249 H 0.47373 0.10432 0.47204
 H250 H 0.35936 0.02836 0.50023
 H251 H 0.25730 0.20769 0.49018
 H252 H 0.56013 0.19488 0.43313
 H253 H 0.60847 0.29011 0.39612
 H254 H 0.43400 0.39235 0.42002
 C255 C -0.15679 0.79626 0.76105
 C256 C -0.13735 0.75720 0.78285
 C257 C -0.14452 0.77558 0.81294
 C258 C -0.16654 0.84053 0.82107
 C259 C -0.17616 0.88993 0.79960
 C260 C -0.17685 0.86127 0.76859
 O261 O -0.14111 0.77498 0.73412
 C262 C -0.10944 0.72225 0.73896
 C263 C -0.10431 0.70956 0.76848
 C264 C -0.06349 0.66351 0.77884
 C265 C -0.02848 0.62838 0.75777
 C266 C -0.03603 0.63923 0.72710
 C267 C -0.07724 0.68673 0.71774
 H268 H -0.12841 0.74471 0.82999
 H269 H -0.16309 0.85987 0.84500
 H270 H -0.18130 0.89332 0.75038
 H271 H -0.05756 0.65603 0.80233
 H272 H 0.00275 0.59165 0.76510
 H273 H -0.08239 0.69733 0.69460
   
