data_POSCAR
  _audit_creation_date              2014-09-24
  _audit_creation_method            'ToBaCCo'
  _symmetry_space_group_name_H-M    'P1'
  _symmetry_Int_Tables_number       1
  _symmetry_cell_setting            triclinic
  loop_
  _symmetry_equiv_pos_as_xyz
 x,y,z
_cell_length_a 27.1187
_cell_length_b 27.1431
_cell_length_c 71.1105
_cell_angle_alpha 89.989400
_cell_angle_beta 90.059700
_cell_angle_gamma 119.842300
loop_
  _atom_site_label
  _atom_site_type_symbol
  _atom_site_fract_x
  _atom_site_fract_y
  _atom_site_fract_z
Si1 Si 0.00327 -0.00033 0.50007
 Si2 Si 0.99911 0.00189 0.16674
 Si3 Si -0.00044 0.99951 0.83318
 O4 O 0.56993 0.04801 -0.01883
 O5 O 0.47331 0.04790 0.01776
 O6 O 0.57059 0.05020 0.01775
 O7 O 0.47494 0.05037 -0.01883
 O8 O 0.42780 -0.04356 -0.01895
 O9 O 0.52412 -0.04373 0.01777
 O10 O 0.42684 -0.04604 0.01764
 O11 O 0.52277 -0.04592 -0.01881
 Cu12 Cu 0.52690 0.05858 -0.00053
 Cu13 Cu 0.47066 -0.05427 -0.00059
 C14 C 0.56264 0.00087 -0.02493
 C15 C 0.43363 0.00072 0.02383
 C16 C 0.56376 0.00339 0.02390
 C17 C 0.43515 0.00363 -0.02503
 O18 O 0.04415 0.47186 0.64872
 O19 O 0.04376 0.56733 0.68567
 O20 O 0.04620 0.47249 0.68532
 O21 O 0.04654 0.56908 0.64909
 O22 O -0.04748 0.52267 0.64887
 O23 O -0.04781 0.42538 0.68526
 O24 O -0.05026 0.52021 0.68545
 O25 O -0.04987 0.42546 0.64868
 Cu26 Cu 0.05463 0.52490 0.66722
 Cu27 Cu -0.05832 0.46872 0.66705
 C28 C -0.00301 0.43241 0.64251
 C29 C -0.00352 0.55984 0.69174
 C30 C -0.00066 0.43257 0.69138
 C31 C -0.00022 0.56243 0.64289
 O32 O 0.57322 0.52472 0.35141
 O33 O 0.47567 0.42944 0.31479
 O34 O 0.57270 0.52412 0.31483
 O35 O 0.47857 0.42763 0.35138
 O36 O 0.43103 0.47427 0.35209
 O37 O 0.52586 0.57146 0.31539
 O38 O 0.42881 0.47676 0.31551
 O39 O 0.52565 0.57133 0.35196
 Cu40 Cu 0.52976 0.47172 0.33304
 Cu41 Cu 0.47306 0.52815 0.33380
 C42 C 0.56588 0.56429 0.35780
 C43 C 0.43567 0.43711 0.30901
 C44 C 0.56547 0.56417 0.30898
 C45 C 0.43889 0.43444 0.35789
 C46 C -0.01149 0.04531 0.51479
 C47 C -0.01754 0.07746 0.52493
 C48 C -0.02167 0.11715 0.53732
 C49 C -0.00085 0.17341 0.53159
 C50 C -0.00032 0.21331 0.54415
 C51 C -0.02052 0.19744 0.56263
 C52 C -0.04236 0.14051 0.56814
 C53 C -0.04280 0.10069 0.55556
 C54 C -0.01735 0.24034 0.57628
 C55 C -0.06204 0.22674 0.58900
 C56 C -0.05828 0.26668 0.60218
 C57 C -0.00986 0.32068 0.60285
 C58 C 0.03467 0.33478 0.59019
 C59 C 0.03098 0.29491 0.57698
 C60 C -0.00595 0.36126 0.61665
 C61 C -0.00377 0.39436 0.62838
 H62 H 0.01586 0.18666 0.51753
 H63 H 0.01606 0.25661 0.53942
 H64 H -0.05752 0.12712 0.58233
 H65 H -0.05847 0.05739 0.56020
 H66 H -0.10005 0.18537 0.58867
 H67 H -0.09308 0.25538 0.61188
 H68 H 0.07240 0.37641 0.59062
 H69 H 0.06643 0.30640 0.56757
 C70 C 0.95368 0.94221 0.18168
 C71 C 0.92164 0.90451 0.19195
 C72 C 0.88206 0.86133 0.20448
 C73 C 0.89869 0.85739 0.22279
 C74 C 0.85894 0.81877 0.23550
 C75 C 0.80192 0.78367 0.23006
 C76 C 0.78589 0.78716 0.21150
 C77 C 0.82571 0.82584 0.19882
 C78 C 0.75903 0.74478 0.24384
 C79 C 0.71675 0.68987 0.23846
 C80 C 0.67622 0.65357 0.25146
 C81 C 0.67734 0.67171 0.26996
 C82 C 0.71910 0.72628 0.27542
 C83 C 0.75966 0.76260 0.26246
 C84 C 0.63664 0.63395 0.28349
 C85 C 0.60349 0.60222 0.29503
 H86 H 0.94214 0.88484 0.22735
 H87 H 0.87276 0.81652 0.24961
 H88 H 0.74222 0.76124 0.20695
 H89 H 0.81226 0.82895 0.18473
 H90 H 0.71550 0.67471 0.22429
 H91 H 0.64428 0.61127 0.24711
 H92 H 0.72038 0.74074 0.28971
 H93 H 0.79109 0.80490 0.26696
 C94 C 0.05654 0.01373 -0.15275
 C95 C 0.09472 0.02012 -0.14252
 C96 C 0.13841 0.02446 -0.12999
 C97 C 0.17376 0.00315 -0.13548
 C98 C 0.21272 0.00244 -0.12275
 C99 C 0.21663 0.02285 -0.10430
 C100 C 0.18173 0.04530 -0.09905
 C101 C 0.14283 0.04599 -0.11181
 C102 C 0.25558 0.01902 -0.09043
 C103 C 0.23788 0.00266 -0.07175
 C104 C 0.27410 -0.00176 -0.05873
 C105 C 0.32847 0.01003 -0.06417
 C106 C 0.34653 0.02633 -0.08271
 C107 C 0.31033 0.03074 -0.09577
 C108 C 0.36601 0.00655 -0.05059
 C109 C 0.39748 0.00451 -0.03902
 H110 H 0.17026 -0.01417 -0.14946
 H111 H 0.23847 -0.01573 -0.12715
 H112 H 0.18430 0.06204 -0.08504
 H113 H 0.11547 0.06234 -0.10739
 H114 H 0.19570 -0.00751 -0.06727
 H115 H 0.25969 -0.01440 -0.04441
 H116 H 0.38867 0.03589 -0.08704
 H117 H 0.32539 0.04399 -0.10999
 C118 C 0.01714 0.95409 0.51517
 C119 C 0.02245 0.92192 0.52554
 C120 C 0.02556 0.88217 0.53818
 C121 C 0.00576 0.82609 0.53243
 C122 C 0.00401 0.78604 0.54518
 C123 C 0.02185 0.80156 0.56390
 C124 C 0.04275 0.85833 0.56944
 C125 C 0.04450 0.89831 0.55666
 C126 C 0.01713 0.75839 0.57773
 C127 C -0.00172 0.75835 0.59616
 C128 C -0.00675 0.71744 0.60915
 C129 C 0.00692 0.67600 0.60390
 C130 C 0.02564 0.67558 0.58560
 C131 C 0.03066 0.71645 0.57258
 C132 C 0.00304 0.63484 0.61746
 C133 C 0.00078 0.60119 0.62898
 H134 H -0.00954 0.81301 0.51820
 H135 H -0.01293 0.74257 0.54055
 H136 H 0.05753 0.87176 0.58368
 H137 H 0.05966 0.94155 0.56128
 H138 H -0.01331 0.78950 0.60048
 H139 H -0.02125 0.71818 0.62328
 H140 H 0.03667 0.64389 0.58143
 H141 H 0.04585 0.71572 0.55856
 C142 C 0.04479 0.06176 0.18161
 C143 C 0.07701 0.09962 0.19181
 C144 C 0.11683 0.14304 0.20425
 C145 C 0.17250 0.17976 0.19825
 C146 C 0.21268 0.21878 0.21079
 C147 C 0.19769 0.22149 0.22955
 C148 C 0.14131 0.18510 0.23535
 C149 C 0.10122 0.14608 0.22278
 C150 C 0.24099 0.26087 0.24316
 C151 C 0.22713 0.29029 0.25650
 C152 C 0.26750 0.32614 0.26962
 C153 C 0.32222 0.33307 0.26961
 C154 C 0.33657 0.30429 0.25632
 C155 C 0.29626 0.26844 0.24317
 C156 C 0.36331 0.36944 0.28332
 C157 C 0.39692 0.40012 0.29497
 H158 H 0.18511 0.17757 0.18396
 H159 H 0.25552 0.24671 0.20584
 H160 H 0.12863 0.18562 0.24974
 H161 H 0.05839 0.11745 0.22763
 H162 H 0.18519 0.28587 0.25671
 H163 H 0.25600 0.34836 0.27981
 H164 H 0.37875 0.30924 0.25621
 H165 H 0.30800 0.24577 0.23326
 C166 C 0.93988 -0.01428 -0.15189
 C167 C 0.90219 -0.01962 -0.14164
 C168 C 0.85903 -0.02284 -0.12913
 C169 C 0.85527 -0.04290 -0.11076
 C170 C 0.81669 -0.04138 -0.09808
 C171 C 0.78143 -0.01957 -0.10361
 C172 C 0.78473 -0.00057 -0.12222
 C173 C 0.82338 -0.00210 -0.13487
 C174 C 0.74259 -0.01513 -0.08987
 C175 C 0.68757 -0.02772 -0.09525
 C176 C 0.65135 -0.02300 -0.08229
 C177 C 0.66968 -0.00552 -0.06383
 C178 C 0.72435 0.00722 -0.05837
 C179 C 0.76059 0.00249 -0.07128
 C180 C 0.63205 -0.00196 -0.05034
 C181 C 0.60047 0.00007 -0.03885
 H182 H 0.88284 -0.05881 -0.10614
 H183 H 0.81458 -0.05705 -0.08393
 H184 H 0.75869 0.01708 -0.12684
 H185 H 0.82635 0.01407 -0.14900
 H186 H 0.67227 -0.04194 -0.10939
 H187 H 0.60898 -0.03330 -0.08664
 H188 H 0.73897 0.02076 -0.04411
 H189 H 0.80298 0.01334 -0.06679
 C190 C 0.04456 -0.01257 0.15180
 C191 C 0.07658 -0.01833 0.14149
 C192 C 0.11611 -0.02201 0.12890
 C193 C 0.17268 -0.00077 0.13442
 C194 C 0.21243 0.00041 0.12165
 C195 C 0.19611 -0.01944 0.10314
 C196 C 0.13886 -0.04179 0.09785
 C197 C 0.09918 -0.04296 0.11065
 C198 C 0.23893 -0.01525 0.08926
 C199 C 0.23759 0.00158 0.07063
 C200 C 0.27821 0.00622 0.05759
 C201 C 0.32073 -0.00583 0.06297
 C202 C 0.32250 -0.02256 0.08146
 C203 C 0.28193 -0.02719 0.09454
 C204 C 0.36167 -0.00224 0.04937
 C205 C 0.39511 -0.00015 0.03780
 H206 H 0.18636 0.01609 0.14846
 H207 H 0.25627 0.01849 0.12609
 H208 H 0.12483 -0.05811 0.08379
 H209 H 0.05555 -0.05926 0.10620
 H210 H 0.20560 0.01193 0.06621
 H211 H 0.27643 0.01919 0.04331
 H212 H 0.35505 -0.03232 0.08574
 H213 H 0.28374 -0.04080 0.10871
 C214 C 0.94383 0.95415 0.48501
 C215 C 0.90628 0.92202 0.47468
 C216 C 0.86324 0.88232 0.46211
 C217 C 0.86027 0.89835 0.44362
 C218 C 0.82172 0.85841 0.43092
 C219 C 0.78571 0.80180 0.43653
 C220 C 0.78826 0.78640 0.45526
 C221 C 0.82687 0.82641 0.46793
 C222 C 0.74681 0.75869 0.42280
 C223 C 0.69140 0.71731 0.42807
 C224 C 0.65507 0.67660 0.41510
 C225 C 0.67366 0.67660 0.39675
 C226 C 0.72872 0.71745 0.39139
 C227 C 0.76508 0.75820 0.40432
 C228 C 0.63584 0.63575 0.38323
 C229 C 0.60405 0.60247 0.37172
 H230 H 0.88840 0.94146 0.43894
 H231 H 0.82021 0.87176 0.41668
 H232 H 0.76162 0.74305 0.45995
 H233 H 0.82922 0.81341 0.48216
 H234 H 0.67590 0.71693 0.44212
 H235 H 0.61239 0.64538 0.41936
 H236 H 0.74353 0.71787 0.37722
 H237 H 0.80775 0.78890 0.39991
 C238 C 0.01293 0.05573 0.81889
 C239 C 0.01875 0.09343 0.80856
 C240 C 0.02241 0.13658 0.79595
 C241 C 0.00307 0.17333 0.80171
 C242 C 0.00175 0.21192 0.78898
 C243 C 0.01957 0.21407 0.77027
 C244 C 0.04002 0.17773 0.76473
 C245 C 0.04133 0.13919 0.77749
 C246 C 0.01524 0.25283 0.75646
 C247 C -0.00369 0.23427 0.73801
 C248 C -0.00839 0.27042 0.72504
 C249 C 0.00568 0.32555 0.73032
 C250 C 0.02450 0.34444 0.74864
 C251 C 0.02919 0.30832 0.76165
 C252 C 0.00210 0.36308 0.71679
 C253 C 0.00008 0.39464 0.70528
 H254 H -0.01223 0.17125 0.81592
 H255 H -0.01485 0.23882 0.79362
 H256 H 0.05477 0.17892 0.75050
 H257 H 0.05613 0.11076 0.77286
 H258 H -0.01560 0.19153 0.73367
 H259 H -0.02297 0.25538 0.71089
 H260 H 0.03584 0.38717 0.75284
 H261 H 0.04445 0.32404 0.77568
 C262 C 0.95341 0.01619 0.15183
 C263 C 0.92124 0.02186 0.14155
 C264 C 0.88155 0.02547 0.12898
 C265 C 0.89849 0.04712 0.11082
 C266 C 0.85872 0.04595 0.09803
 C267 C 0.80136 0.02293 0.10325
 C268 C 0.78501 0.00235 0.12168
 C269 C 0.82486 0.00353 0.13444
 C270 C 0.75848 0.01881 0.08938
 C271 C 0.71510 0.03005 0.09473
 C272 C 0.67449 0.02553 0.08165
 C273 C 0.67663 0.00960 0.06308
 C274 C 0.71953 -0.00176 0.05763
 C275 C 0.76017 0.00277 0.07067
 C276 C 0.63567 0.00613 0.04948
 C277 C 0.60223 0.00415 0.03790
 H278 H 0.94222 0.06396 0.10642
 H279 H 0.87277 0.06284 0.08404
 H280 H 0.74109 -0.01625 0.12606
 H281 H 0.81117 -0.01387 0.14841
 H282 H 0.71301 0.04306 0.10897
 H283 H 0.64164 0.03476 0.08599
 H284 H 0.72159 -0.01411 0.04329
 H285 H 0.79247 -0.00703 0.06619
 C286 C 0.06351 0.04508 0.48532
 C287 C 0.10157 0.07715 0.47517
 C288 C 0.14519 0.11681 0.46277
 C289 C 0.14857 0.10098 0.44430
 C290 C 0.18768 0.14093 0.43175
 C291 C 0.22383 0.19739 0.43750
 C292 C 0.22083 0.21260 0.45621
 C293 C 0.18171 0.17256 0.46874
 C294 C 0.26321 0.24055 0.42389
 C295 C 0.27042 0.29563 0.42375
 C296 C 0.30621 0.33578 0.41058
 C297 C 0.33527 0.32146 0.39740
 C298 C 0.32872 0.26695 0.39751
 C299 C 0.29293 0.22673 0.41065
 C300 C 0.37152 0.36237 0.38364
 C301 C 0.40207 0.39584 0.37196
 H302 H 0.12009 0.05809 0.43948
 H303 H 0.18843 0.12808 0.41739
 H304 H 0.24857 0.25551 0.46113
 H305 H 0.17926 0.18534 0.48298
 H306 H 0.24751 0.30733 0.43358
 H307 H 0.31086 0.37780 0.41059
 H308 H 0.35117 0.25548 0.38740
 H309 H 0.28880 0.18495 0.41054
 C310 C -0.01481 0.93917 0.81851
 C311 C -0.02060 0.90095 0.80844
 C312 C -0.02440 0.85707 0.79616
 C313 C -0.00333 0.82185 0.80204
 C314 C -0.00252 0.78237 0.78961
 C315 C -0.02270 0.77770 0.77108
 C316 C -0.04479 0.81259 0.76542
 C317 C -0.04551 0.85208 0.77788
 C318 C -0.01926 0.73783 0.75756
 C319 C -0.06386 0.70659 0.74482
 C320 C -0.05983 0.67029 0.73176
 C321 C -0.01124 0.66473 0.73121
 C322 C 0.03321 0.69530 0.74390
 C323 C 0.02926 0.73161 0.75700
 C324 C -0.00702 0.62801 0.71750
 C325 C -0.00459 0.59708 0.70583
 H326 H 0.01336 0.82556 0.81614
 H327 H 0.01406 0.75563 0.79446
 H328 H -0.05994 0.81055 0.75119
 H329 H -0.06138 0.87953 0.77312
 H330 H -0.10200 0.70994 0.74505
 H331 H -0.09457 0.64669 0.72203
 H332 H 0.07108 0.69143 0.74357
 H333 H 0.06464 0.75568 0.76643
   
