data_POSCAR
  _audit_creation_date              2014-09-24
  _audit_creation_method            'ToBaCCo'
  _symmetry_space_group_name_H-M    'P1'
  _symmetry_Int_Tables_number       1
  _symmetry_cell_setting            triclinic
  loop_
  _symmetry_equiv_pos_as_xyz
 x,y,z
_cell_length_a 22.7712
_cell_length_b 22.7530
_cell_length_c 22.7822
_cell_angle_alpha 90.198600
_cell_angle_beta 89.884200
_cell_angle_gamma 89.929300
loop_
  _atom_site_label
  _atom_site_type_symbol
  _atom_site_fract_x
  _atom_site_fract_y
  _atom_site_fract_z
N1 N 0.20953 1.22370 0.23165
 N2 N 0.77458 0.77813 0.20580
 N3 N 0.79274 1.21038 -0.21890
 N4 N 0.22678 0.78647 -0.21347
 C5 C 0.58762 1.10062 -0.00426
 H6 H 0.58028 1.10517 0.04247
 C7 C 0.62876 1.13625 -0.03223
 H8 H 0.65308 1.16840 -0.00698
 C9 C 0.56492 1.05310 -0.09413
 H10 H 0.54031 1.02026 -0.11797
 C11 C 0.60684 1.08684 -0.12362
 H12 H 0.61349 1.08059 -0.17029
 N13 N 0.55529 1.06142 -0.03569
 C14 C 0.40678 1.04441 0.08458
 H15 H 0.40479 0.99713 0.08904
 C16 C 0.36793 1.07999 0.11634
 H17 H 0.33649 1.05931 0.14518
 C18 C 0.44991 1.12798 0.04041
 H19 H 0.48065 1.14662 0.00957
 C20 C 0.41193 1.16514 0.07117
 H21 H 0.41480 1.21209 0.06426
 Zn22 Zn 0.49819 1.01768 0.00608
 N23 N 0.44743 1.06881 0.04831
 C24 C 0.53769 0.97534 0.11673
 N25 N 0.53999 0.96784 0.05752
 C26 C 0.57655 0.92755 0.03265
 C27 C 0.61290 0.89282 0.06761
 C28 C 0.57336 0.94159 0.15336
 C29 C 0.42378 1.00443 -0.08973
 C30 C 0.38716 0.97567 -0.12948
 C31 C 0.40371 0.88509 -0.07694
 C32 C 0.44117 0.91540 -0.03883
 N33 N 0.45068 0.97397 -0.04614
 H34 H 0.50966 1.00874 0.13564
 H35 H 0.57816 0.92318 -0.01463
 H36 H 0.64165 0.86142 0.04645
 H37 H 0.57161 0.94890 0.20030
 H38 H 0.43112 1.05122 -0.09371
 H39 H 0.36643 1.00043 -0.16426
 H40 H 0.39659 0.83849 -0.07084
 H41 H 0.46190 0.89233 -0.00301
 C42 C 0.37033 1.14141 0.10997
 C43 C 0.63849 1.12970 -0.09263
 C44 C 0.37651 0.91538 -0.12311
 C45 C 0.61222 0.90014 0.12893
 C46 C -0.03144 0.59126 1.06555
 H47 H 0.01498 0.59324 1.07543
 C48 C -0.07017 0.63067 1.09232
 H49 H -0.05264 0.66241 1.12295
 C50 C -0.10948 0.54708 1.01296
 H51 H -0.12452 0.51502 0.98134
 C52 C -0.14984 0.58568 1.03874
 H53 H -0.19578 0.58237 1.02710
 N54 N -0.05161 0.55003 1.02735
 C55 C 0.08057 0.41168 1.03267
 H56 H 0.09190 0.40901 0.98659
 C57 C 0.10656 0.37329 1.07260
 H58 H 0.13799 0.34157 1.05635
 C59 C 0.02425 0.45573 1.10850
 H60 H -0.00873 0.48708 1.12215
 C61 C 0.04912 0.41813 1.14998
 H62 H 0.03548 0.42160 1.19540
 Zn63 Zn 0.00487 0.49934 0.99305
 N64 N 0.04059 0.45211 1.05114
 C65 C 0.11854 0.54720 0.97141
 N66 N 0.06100 0.54752 0.95549
 C67 C 0.04058 0.58551 0.91441
 C68 C 0.07858 0.62493 0.88707
 C69 C 0.15815 0.58600 0.94519
 C70 C -0.07029 0.40881 0.96139
 C71 C -0.09794 0.36797 0.92506
 C72 C -0.04327 0.40660 0.84285
 C73 C -0.01667 0.44689 0.88088
 N74 N -0.03103 0.44759 0.93887
 H75 H 0.13368 0.51765 1.00518
 H76 H -0.00560 0.58546 0.90332
 H77 H 0.06081 0.65444 0.85459
 H78 H 0.20370 0.58539 0.95868
 H79 H -0.08014 0.40975 1.00786
 H80 H -0.12928 0.33826 0.94453
 H81 H -0.03147 0.40675 0.79681
 H82 H 0.01571 0.47715 0.86405
 C83 C 0.09086 0.37611 1.13231
 C84 C -0.13048 0.62805 1.07929
 C85 C -0.08463 0.36641 0.86474
 C86 C 0.13835 0.62584 0.90258
 C87 C 1.07112 -0.04025 0.59174
 H88 H 1.07484 0.00714 0.59296
 C89 C 1.10327 -0.07442 0.63113
 H90 H 1.13171 -0.05256 0.66217
 C91 C 1.02895 -0.12551 0.54952
 H92 H 0.99888 -0.14537 0.51877
 C93 C 1.06017 -0.16132 0.58807
 H94 H 1.05437 -0.20848 0.58568
 N95 N 1.03587 -0.06616 0.55110
 C96 C 1.02479 0.07208 0.41901
 H97 H 0.97764 0.07729 0.41617
 C98 C 1.06159 0.10601 0.38359
 H99 H 1.04198 0.13751 0.35414
 C100 C 1.10673 0.02322 0.46024
 H101 H 1.12418 -0.01023 0.48886
 C102 C 1.14511 0.05612 0.42564
 H103 H 1.19186 0.04812 0.42888
 Zn104 Zn 0.99477 -0.01652 0.49844
 N105 N 1.04776 0.03177 0.45645
 C106 C 0.95168 0.08722 0.55410
 N107 N 0.94235 0.02893 0.54434
 C108 C 0.89759 -0.00007 0.57112
 C109 C 0.85905 0.02989 0.60832
 C110 C 0.91495 0.11862 0.59224
 C111 C 0.98605 -0.10183 0.41106
 C112 C 0.95891 -0.13932 0.37096
 C113 C 0.86668 -0.09047 0.39075
 C114 C 0.89538 -0.05475 0.43170
 N115 N 0.95383 -0.06196 0.44197
 H116 H 0.98848 0.10904 0.53358
 H117 H 0.89214 -0.04675 0.56380
 H118 H 0.82369 0.00619 0.62944
 H119 H 0.92304 0.16483 0.60015
 H120 H 1.03275 -0.10552 0.41888
 H121 H 0.98482 -0.17199 0.34786
 H122 H 0.81998 -0.08515 0.38369
 H123 H 0.87090 -0.02141 0.45515
 C124 C 1.12277 0.09787 0.38624
 C125 C 1.09838 -0.13601 0.62930
 C126 C 0.89849 -0.13408 0.36076
 C127 C 0.86800 0.08975 0.61980
 N128 N 0.10080 0.33469 1.23091
 N129 N 0.13149 0.29415 1.25920
 C130 C 0.16770 0.26952 1.21925
 C131 C 0.15836 0.29597 1.16576
 N132 N 0.11619 0.33661 1.17475
 H133 H 0.18008 0.28609 1.12468
 N134 N -0.22966 0.66517 1.09897
 N135 N -0.25679 0.70484 1.13212
 C136 C -0.21459 0.73287 1.16267
 C137 C -0.16086 0.70960 1.14701
 N138 N -0.17204 0.66709 1.10727
 H139 H -0.11818 0.72269 1.16295
 N140 N -0.10373 0.32212 0.76841
 N141 N -0.13615 0.28009 0.74437
 C142 C -0.16730 0.25522 0.78823
 C143 C -0.15229 0.28335 0.84006
 N144 N -0.11278 0.32496 0.82585
 H145 H -0.16693 0.27292 0.88390
 N146 N 0.23562 0.66951 0.88791
 N147 N 0.26112 0.71232 0.85782
 C148 C 0.21838 0.73795 0.82609
 C149 C 0.16613 0.70975 0.83741
 N150 N 0.17858 0.66709 0.87631
 H151 H 0.12349 0.72023 0.81951
 N152 N 1.22017 0.12364 0.34920
 N153 N 1.24515 0.15655 0.30833
 C154 C 1.20127 0.18500 0.28082
 C155 C 1.14861 0.16852 0.30580
 N156 N 1.16227 0.13001 0.34857
 H157 H 1.10503 0.18192 0.29269
 N158 N 1.13045 -0.23134 0.66659
 N159 N 1.16458 -0.25389 0.70782
 C160 C 1.18839 -0.20802 0.73668
 C161 C 1.16768 -0.15665 0.71229
 N162 N 1.13152 -0.17308 0.66840
 H163 H 1.17695 -0.11219 0.72630
 N164 N 0.88688 -0.22895 0.31235
 N165 N 0.85411 -0.25427 0.27156
 C166 C 0.81513 -0.21348 0.25364
 C167 C 0.82466 -0.16229 0.28498
 N168 N 0.86995 -0.17388 0.32105
 H169 H 0.80309 -0.12019 0.28009
 N170 N 0.77497 0.10595 0.67062
 N171 N 0.75333 0.13782 0.71435
 C172 C 0.79688 0.17334 0.73333
 C173 C 0.84607 0.16248 0.69883
 N174 N 0.83044 0.12012 0.66057
 H175 H 0.89001 0.17982 0.70375
 N176 N 0.33046 1.23787 0.13574
 N177 N 0.28811 1.26179 0.16783
 C178 C 0.26059 1.21708 0.19491
 C179 C 0.28707 1.16503 0.17855
 N180 N 0.33066 1.17985 0.14128
 H181 H 0.27443 1.12110 0.19130
 N182 N 0.68931 1.22266 -0.10672
 N183 N 0.73066 1.24578 -0.14033
 C184 C 0.74818 1.20353 -0.17840
 C185 C 0.71520 1.15346 -0.16709
 N186 N 0.67939 1.16743 -0.12207
 H187 H 0.71909 1.11012 -0.18635
 N188 N 0.33000 0.90225 -0.21858
 N189 N 0.29035 0.86841 -0.24438
 C190 C 0.27268 0.82904 -0.20393
 C191 C 0.30292 0.83959 -0.15243
 N192 N 0.33828 0.88565 -0.16354
 H193 H 0.29787 0.81808 -0.11045
 N194 N 0.65222 0.87189 0.22438
 N195 N 0.69533 0.83992 0.24684
 C196 C 0.72310 0.81454 0.20105
 C197 C 0.69595 0.83175 0.14992
 N198 N 0.65171 0.86773 0.16628
 H199 H 0.70884 0.82075 0.10554
   
