data_POSCAR
  _audit_creation_date              2014-09-24
  _audit_creation_method            'ToBaCCo'
  _symmetry_space_group_name_H-M    'P1'
  _symmetry_Int_Tables_number       1
  _symmetry_cell_setting            triclinic
  loop_
  _symmetry_equiv_pos_as_xyz
 x,y,z
_cell_length_a 50.4221
_cell_length_b 54.1286
_cell_length_c 20.7755
_cell_angle_alpha 90.001000
_cell_angle_beta 89.929600
_cell_angle_gamma 90.058300
loop_
  _atom_site_label
  _atom_site_type_symbol
  _atom_site_fract_x
  _atom_site_fract_y
  _atom_site_fract_z
C1 C 0.20368 0.22709 0.17435
 C2 C 0.19431 0.25001 0.15205
 C3 C 0.20479 0.27238 0.17366
 C4 C 0.22711 0.27232 0.21470
 C5 C 0.23832 0.24953 0.23479
 C6 C 0.22658 0.22683 0.21503
 C7 C 0.23894 0.20474 0.23423
 C8 C 0.26083 0.20473 0.27471
 C9 C 0.27323 0.22682 0.29399
 C10 C 0.26144 0.24953 0.27457
 C11 C 0.23887 0.29452 0.23494
 C12 C 0.26075 0.29451 0.27526
 C13 C 0.27264 0.27231 0.29492
 C14 C 0.29508 0.27237 0.33560
 C15 C 0.30563 0.24998 0.35680
 C16 C 0.29621 0.22707 0.33439
 H17 H 0.23249 0.18689 0.21758
 H18 H 0.26725 0.18688 0.29127
 H19 H 0.23147 0.31228 0.21951
 H20 H 0.26806 0.31227 0.29114
 H21 H 0.17682 0.25073 0.12174
 H22 H 0.32320 0.25069 0.38681
 C23 C 0.79515 0.27263 0.15102
 C24 C 0.80509 0.24961 0.13086
 C25 C 0.79450 0.22730 0.15284
 C26 C 0.77171 0.22750 0.19252
 C27 C 0.76007 0.25036 0.21043
 C28 C 0.77163 0.27302 0.18957
 C29 C 0.75833 0.29516 0.20489
 C30 C 0.73590 0.29531 0.24380
 C31 C 0.72459 0.27323 0.26622
 C32 C 0.73662 0.25049 0.24891
 C33 C 0.75985 0.20538 0.21334
 C34 C 0.73741 0.20557 0.25212
 C35 C 0.72518 0.22786 0.26977
 C36 C 0.70205 0.22816 0.30854
 C37 C 0.69119 0.25078 0.32738
 C38 C 0.70165 0.27323 0.30578
 H39 H 0.76435 0.31278 0.18567
 H40 H 0.72750 0.31309 0.25567
 H41 H 0.76755 0.18754 0.19939
 H42 H 0.72989 0.18792 0.26823
 H43 H 0.82300 0.24881 0.10195
 H44 H 0.67334 0.25089 0.35661
 C45 C 0.79783 0.77195 0.82635
 C46 C 0.80765 0.74893 0.84671
 C47 C 0.79715 0.72663 0.82451
 C48 C 0.77461 0.72683 0.78418
 C49 C 0.76303 0.74970 0.76614
 C50 C 0.77453 0.77236 0.78718
 C51 C 0.76134 0.79451 0.77153
 C52 C 0.73895 0.79466 0.73261
 C53 C 0.72757 0.77258 0.71049
 C54 C 0.73963 0.74984 0.72762
 C55 C 0.76288 0.70472 0.76293
 C56 C 0.74049 0.70493 0.72410
 C57 C 0.72818 0.72721 0.70682
 C58 C 0.70493 0.72751 0.66859
 C59 C 0.69400 0.75014 0.65005
 C60 C 0.70450 0.77258 0.67151
 H61 H 0.76737 0.81216 0.79055
 H62 H 0.73065 0.81245 0.72054
 H63 H 0.77064 0.68688 0.77663
 H64 H 0.73306 0.68729 0.70770
 H65 H 0.82536 0.74811 0.87624
 H66 H 0.67600 0.75025 0.62148
 C67 C 0.29954 0.77291 0.69212
 C68 C 0.30994 0.75039 0.67117
 C69 C 0.29951 0.72786 0.69223
 C70 C 0.27685 0.72772 0.73272
 C71 C 0.26520 0.75040 0.75220
 C72 C 0.27686 0.77307 0.73254
 C73 C 0.26556 0.79525 0.75385
 C74 C 0.24368 0.79530 0.79441
 C75 C 0.23080 0.77322 0.81239
 C76 C 0.24210 0.75040 0.79213
 C77 C 0.26555 0.70555 0.75425
 C78 C 0.24367 0.70552 0.79485
 C79 C 0.23079 0.72760 0.81262
 C80 C 0.20813 0.72765 0.85376
 C81 C 0.19869 0.75043 0.87676
 C82 C 0.20814 0.77319 0.85354
 H83 H 0.27358 0.81299 0.73999
 H84 H 0.23783 0.81307 0.81297
 H85 H 0.27358 0.68781 0.74058
 H86 H 0.23783 0.68776 0.81359
 H87 H 0.32754 0.75038 0.64107
 H88 H 0.18134 0.75044 0.90761
 O89 O 0.97572 -0.01856 -0.06894
 O90 O 1.02637 0.02850 -0.03285
 O91 O 1.02742 -0.01808 -0.06569
 O92 O 0.97493 0.02788 -0.03613
 O93 O 0.97407 0.01725 0.06654
 O94 O 1.02617 -0.02893 0.03679
 O95 O 1.02570 0.01756 0.06959
 O96 O 0.97482 -0.02930 0.03365
 Cu97 Cu 1.00124 0.00599 -0.06123
 Cu98 Cu 1.00008 -0.00690 0.06197
 C99 C 0.96674 -0.03200 -0.02379
 C100 C 1.03456 0.03112 0.02453
 C101 C 1.03557 -0.03145 -0.01954
 C102 C 0.96569 0.03048 0.02035
 O103 O 0.52630 0.47125 0.52934
 O104 O 0.47531 0.51743 0.56982
 O105 O 0.47476 0.47124 0.53397
 O106 O 0.52684 0.51734 0.56581
 O107 O 0.52547 0.52920 0.46410
 O108 O 0.47342 0.48298 0.43217
 O109 O 0.47394 0.52917 0.46803
 O110 O 0.52497 0.48307 0.42761
 Cu111 Cu 0.50094 0.49313 0.55995
 Cu112 Cu 0.49931 0.50728 0.43774
 C113 C 0.53422 0.46924 0.47153
 C114 C 0.46605 0.53124 0.52584
 C115 C 0.46533 0.46917 0.47758
 C116 C 0.53491 0.53120 0.52051
 O117 O -0.02514 0.52817 0.03223
 O118 O 0.02658 0.48224 0.06855
 O119 O 0.02631 0.52889 0.03630
 O120 O -0.02505 0.48176 0.06501
 O121 O -0.02332 0.47097 -0.03747
 O122 O 0.02799 0.51822 -0.06627
 O123 O 0.02812 0.47171 -0.03413
 O124 O -0.02365 0.51755 -0.07039
 Cu125 Cu 0.00055 0.50631 0.06085
 Cu126 Cu 0.00242 0.49357 -0.06240
 C127 C -0.03312 0.53073 -0.02533
 C128 C 0.03605 0.46908 0.02344
 C129 C 0.03579 0.53166 -0.01989
 C130 C -0.03283 0.46826 0.01874
 O131 O 0.52619 1.01757 0.43031
 O132 O 0.47480 0.97156 0.46961
 O133 O 0.47458 1.01766 0.43310
 O134 O 0.52634 0.97145 0.46687
 O135 O 0.52716 0.98325 0.56865
 O136 O 0.47581 1.02972 0.53466
 O137 O 0.47561 0.98356 0.57124
 O138 O 0.52725 1.02934 0.53211
 Cu139 Cu 0.50038 0.99337 0.43975
 Cu140 Cu 0.50153 1.00765 0.56189
 C141 C 0.53537 1.03136 0.47447
 C142 C 0.46656 0.96966 0.52718
 C143 C 0.46655 1.03169 0.47808
 C144 C 0.53542 0.96939 0.52361
 C145 C 1.15724 0.16655 0.12759
 N146 N 1.15842 0.18651 0.08828
 N147 N 1.17363 0.20578 0.10323
 C148 C 1.18869 0.20585 0.15759
 N149 N 1.18709 0.18589 0.19716
 N150 N 1.17177 0.16662 0.18249
 C151 C 1.14006 0.14552 0.11147
 N152 N 1.13598 0.12697 0.15436
 N153 N 1.11987 0.10822 0.14005
 C154 C 1.10739 0.10729 0.08222
 N155 N 1.11161 0.12576 0.03922
 N156 N 1.12760 0.14456 0.05364
 C157 C 1.08913 0.08698 0.06682
 N158 N 1.07849 0.08501 0.00704
 N159 N 1.06138 0.06700 -0.00663
 C160 C 1.05418 0.05036 0.03906
 N161 N 1.06486 0.05228 0.09883
 N162 N 1.08208 0.07023 0.11242
 C163 C 0.65999 0.66510 0.61942
 N164 N 0.66629 0.68226 0.57426
 N165 N 0.68105 0.70183 0.58960
 C166 C 0.69025 0.70484 0.65053
 N167 N 0.68373 0.68776 0.69576
 N168 N 0.66897 0.66821 0.68044
 C169 C 0.64289 0.64402 0.60322
 N170 N 0.63573 0.62746 0.64916
 N171 N 0.61947 0.60881 0.63513
 C172 C 0.60978 0.60603 0.57462
 N173 N 0.61706 0.62250 0.52857
 N174 N 0.63331 0.64116 0.54261
 C175 C 0.59107 0.58601 0.55986
 N176 N 0.58097 0.58342 0.49967
 N177 N 0.56331 0.56576 0.48690
 C178 C 0.55510 0.55006 0.53386
 N179 N 0.56530 0.55258 0.59396
 N180 N 0.58296 0.57022 0.60671
 C181 C -0.15804 0.33326 0.10718
 N182 N -0.17401 0.33353 0.15975
 N183 N -0.18948 0.31424 0.17332
 C184 C -0.18977 0.29390 0.13490
 N185 N -0.17334 0.29366 0.08285
 N186 N -0.15797 0.31296 0.06899
 C187 C -0.14056 0.35426 0.09266
 N188 N -0.12656 0.35490 0.03683
 N189 N -0.11022 0.37363 0.02415
 C190 C -0.10717 0.39236 0.06698
 N191 N -0.12121 0.39174 0.12279
 N192 N -0.13766 0.37306 0.13533
 C193 C -0.08849 0.41257 0.05382
 N194 N -0.08260 0.42942 0.10005
 N195 N -0.06501 0.44730 0.08871
 C196 C -0.05279 0.44904 0.03061
 N197 N -0.05882 0.43229 -0.01577
 N198 N -0.07630 0.41435 -0.00432
 C199 C 0.34386 0.83540 0.64017
 N200 N 0.33595 0.81888 0.59491
 N201 N 0.32141 0.79929 0.61130
 C202 C 0.31405 0.79560 0.67346
 N203 N 0.32221 0.81201 0.71879
 N204 N 0.33673 0.83160 0.70242
 C205 C 0.36062 0.85655 0.62248
 N206 N 0.36920 0.87264 0.66810
 N207 N 0.38511 0.89136 0.65241
 C208 C 0.39303 0.89469 0.59052
 N209 N 0.38434 0.87868 0.54485
 N210 N 0.36843 0.85995 0.56054
 C211 C 0.41136 0.91479 0.57363
 N212 N 0.41988 0.91767 0.51207
 N213 N 0.43722 0.93536 0.49713
 C214 C 0.44666 0.95082 0.54320
 N215 N 0.43803 0.94803 0.60470
 N216 N 0.42069 0.93033 0.61964
 C217 C -0.15834 0.66385 -0.12808
 N218 N -0.16626 0.67988 -0.08166
 N219 N -0.18093 0.69952 -0.09657
 C220 C -0.18840 0.70375 -0.15838
 N221 N -0.18029 0.68779 -0.20484
 N222 N -0.16563 0.66815 -0.18994
 C223 C -0.14125 0.64277 -0.11204
 N224 N -0.13238 0.62735 -0.15887
 N225 N -0.11607 0.60878 -0.14466
 C226 C -0.10805 0.60496 -0.08310
 N227 N -0.11705 0.62029 -0.03622
 N228 N -0.13335 0.63887 -0.05043
 C229 C -0.08929 0.58508 -0.06778
 N230 N -0.08082 0.58163 -0.00643
 N231 N -0.06314 0.56413 0.00718
 C232 C -0.05327 0.54944 -0.04006
 N233 N -0.06183 0.55280 -0.10137
 N234 N -0.07952 0.57030 -0.11498
 C235 C 0.34286 1.16657 0.37958
 N236 N 0.34186 1.18650 0.41903
 N237 N 0.32657 1.20575 0.40460
 C238 C 0.31127 1.20584 0.35065
 N239 N 0.31269 1.18591 0.31092
 N240 N 0.32807 1.16666 0.32509
 C241 C 0.36013 1.14558 0.39511
 N242 N 0.36380 1.12693 0.35231
 N243 N 0.37999 1.10822 0.36605
 C244 C 0.39300 1.10742 0.42321
 N245 N 0.38920 1.12600 0.46612
 N246 N 0.37311 1.14475 0.45228
 C247 C 0.41140 1.08719 0.43795
 N248 N 0.42285 1.08558 0.49690
 N249 N 0.44013 1.06768 0.50991
 C250 C 0.44669 1.05077 0.46435
 N251 N 0.43519 1.05232 0.40542
 N252 N 0.41781 1.07017 0.39249
 C253 C 1.16150 -0.16591 -0.10488
 N254 N 1.17632 -0.16653 -0.15937
 N255 N 1.19175 -0.18588 -0.17220
 C256 C 1.19320 -0.20539 -0.13109
 N257 N 1.17791 -0.20476 -0.07704
 N258 N 1.16256 -0.18540 -0.06396
 C259 C 1.14399 -0.14489 -0.09118
 N260 N 1.13085 -0.14347 -0.03425
 N261 N 1.11445 -0.12475 -0.02224
 C262 C 1.11051 -0.10680 -0.06683
 N263 N 1.12369 -0.10817 -0.12375
 N264 N 1.14019 -0.12685 -0.13565
 C265 C 1.09174 -0.08664 -0.05415
 N266 N 1.08518 -0.07034 -0.10120
 N267 N 1.06746 -0.05258 -0.09009
 C268 C 1.05577 -0.05042 -0.03144
 N269 N 1.06248 -0.06661 0.01568
 N270 N 1.08010 -0.08442 0.00450
 C271 C 0.65734 0.33572 0.35692
 N272 N 0.66434 0.33178 0.29463
 N273 N 0.67890 0.31221 0.27843
 C274 C 0.68720 0.29597 0.32397
 N275 N 0.68000 0.29982 0.38616
 N276 N 0.66544 0.31938 0.40237
 C277 C 0.64047 0.35677 0.37459
 N278 N 0.63289 0.36023 0.43667
 N279 N 0.61687 0.37882 0.45249
 C280 C 0.60782 0.39464 0.40681
 N281 N 0.61551 0.39125 0.34477
 N282 N 0.63154 0.37266 0.32895
 C283 C 0.58940 0.41459 0.42397
 N284 N 0.57974 0.42999 0.37807
 N285 N 0.56237 0.44758 0.39335
 C286 C 0.55404 0.45042 0.45508
 N287 N 0.56380 0.43510 0.50102
 N288 N 0.58116 0.41751 0.48574
 C289 C 0.84394 -0.16736 -0.12641
 N290 N 0.82862 -0.16706 -0.18002
 N291 N 0.81339 -0.18639 -0.19478
 C292 C 0.81271 -0.20678 -0.15657
 N293 N 0.82852 -0.20706 -0.10351
 N294 N 0.84363 -0.18773 -0.08846
 C295 C 0.86107 -0.14630 -0.11026
 N296 N 0.87403 -0.14562 -0.05307
 N297 N 0.89001 -0.12682 -0.03869
 C298 C 0.89375 -0.10807 -0.08112
 N299 N 0.88077 -0.10872 -0.13833
 N300 N 0.86465 -0.12747 -0.15258
 C301 C 0.91204 -0.08777 -0.06581
 N302 N 0.91894 -0.07094 -0.11132
 N303 N 0.93621 -0.05303 -0.09783
 C304 C 0.94708 -0.05122 -0.03825
 N305 N 0.94003 -0.06794 0.00736
 N306 N 0.92287 -0.08593 -0.00622
 C307 C 0.33995 0.33510 0.38253
 N308 N 0.33190 0.33112 0.32109
 N309 N 0.31715 0.31148 0.30648
 C310 C 0.30968 0.29520 0.35283
 N311 N 0.31793 0.29909 0.41422
 N312 N 0.33270 0.31873 0.42884
 C313 C 0.35708 0.35625 0.39797
 N314 N 0.36609 0.35978 0.45885
 N315 N 0.38240 0.37847 0.47224
 C316 C 0.39029 0.39430 0.42525
 N317 N 0.38116 0.39085 0.36448
 N318 N 0.36486 0.37216 0.35109
 C319 C 0.40906 0.41434 0.43942
 N320 N 0.41749 0.42972 0.39196
 N321 N 0.43519 0.44738 0.40428
 C322 C 0.44511 0.45031 0.46451
 N323 N 0.43659 0.43502 0.51205
 N324 N 0.41888 0.41735 0.49973
 C325 C 0.16137 0.66677 -0.10428
 N326 N 0.16240 0.68633 -0.06358
 N327 N 0.17780 0.70568 -0.07676
 C328 C 0.19316 0.70624 -0.13069
 N329 N 0.19176 0.68665 -0.17157
 N330 N 0.17628 0.66731 -0.15863
 C331 C 0.14382 0.64575 -0.09056
 N332 N 0.14016 0.62762 -0.13484
 N333 N 0.12364 0.60892 -0.12298
 C334 C 0.11027 0.60763 -0.06631
 N335 N 0.11406 0.62569 -0.02189
 N336 N 0.13048 0.64443 -0.03385
 C337 C 0.09152 0.58741 -0.05377
 N338 N 0.07968 0.58517 0.00465
 N339 N 0.06216 0.56722 0.01564
 C340 C 0.05576 0.55091 -0.03148
 N341 N 0.06764 0.55310 -0.08989
 N342 N 0.08525 0.57100 -0.10080
 C343 C 0.65802 1.16561 0.36142
 N344 N 0.66488 1.18280 0.40600
 N345 N 0.67932 1.20242 0.38939
 C346 C 0.68763 1.20548 0.32771
 N347 N 0.68057 1.18838 0.28304
 N348 N 0.66612 1.16877 0.29963
 C349 C 0.64131 1.14445 0.37924
 N350 N 0.63335 1.12794 0.33399
 N351 N 0.61744 1.10921 0.34972
 C352 C 0.60894 1.10629 0.41128
 N353 N 0.61703 1.12272 0.45660
 N354 N 0.63291 1.14146 0.44087
 C355 C 0.59061 1.08620 0.42815
 N356 N 0.58186 1.08348 0.48958
 N357 N 0.56452 1.06579 0.50449
 C358 C 0.55528 1.05018 0.45850
 N359 N 0.56412 1.05282 0.39714
 N360 N 0.58148 1.07050 0.38224
 C361 C 0.16035 0.33515 0.12555
 N362 N 0.16813 0.31898 0.07929
 N363 N 0.18275 0.29932 0.09435
 C364 C 0.19033 0.29522 0.15615
 N365 N 0.18233 0.31130 0.20243
 N366 N 0.16772 0.33095 0.18739
 C367 C 0.14338 0.35630 0.10948
 N368 N 0.13472 0.37183 0.15631
 N369 N 0.11856 0.39051 0.14218
 C370 C 0.11048 0.39436 0.08069
 N371 N 0.11927 0.37892 0.03379
 N372 N 0.13542 0.36022 0.04793
 C373 C 0.09188 0.41438 0.06549
 N374 N 0.08341 0.41792 0.00418
 N375 N 0.06585 0.43555 -0.00929
 C376 C 0.05612 0.45028 0.03804
 N377 N 0.06468 0.44683 0.09931
 N378 N 0.08225 0.42920 0.11278
 C379 C 0.65949 0.83510 0.62451
 N380 N 0.66721 0.83103 0.68618
 N381 N 0.68197 0.81144 0.70100
 C382 C 0.68976 0.79531 0.65463
 N383 N 0.68181 0.79927 0.59306
 N384 N 0.66704 0.81885 0.57823
 C385 C 0.64246 0.85622 0.60852
 N386 N 0.63394 0.85978 0.54724
 N387 N 0.61779 0.87847 0.53311
 C388 C 0.60958 0.89430 0.57973
 N389 N 0.61821 0.89082 0.64094
 N390 N 0.63435 0.87212 0.65508
 C391 C 0.59104 0.91438 0.56461
 N392 N 0.58235 0.92983 0.61158
 N393 N 0.56486 0.94755 0.59833
 C394 C 0.55542 0.95046 0.53763
 N395 N 0.56420 0.93508 0.49059
 N396 N 0.58170 0.91737 0.50384
 C397 C 0.83971 0.16448 0.10942
 N398 N 0.83155 0.16889 0.17063
 N399 N 0.81670 0.18855 0.18419
 C400 C 0.80925 0.20444 0.13697
 N401 N 0.81761 0.20014 0.07583
 N402 N 0.83248 0.18047 0.06226
 C403 C 0.85693 0.14332 0.09503
 N404 N 0.86589 0.13933 0.03426
 N405 N 0.88228 0.12064 0.02172
 C406 C 0.89030 0.10525 0.06950
 N407 N 0.88122 0.10916 0.13019
 N408 N 0.86484 0.12786 0.14272
 C409 C 0.90915 0.08522 0.05622
 N410 N 0.91781 0.07037 0.10446
 N411 N 0.93560 0.05273 0.09288
 C412 C 0.94538 0.04930 0.03263
 N413 N 0.93662 0.06407 -0.01569
 N414 N 0.91883 0.08171 -0.00410
 C415 C 0.34373 0.66542 0.64017
 N416 N 0.33672 0.66926 0.70248
 N417 N 0.32221 0.68883 0.71890
 C418 C 0.31396 0.70517 0.67356
 N419 N 0.32120 0.70144 0.61134
 N420 N 0.33572 0.68187 0.59490
 C421 C 0.36049 0.64431 0.62239
 N422 N 0.36810 0.64084 0.56034
 N423 N 0.38400 0.62215 0.54453
 C424 C 0.39287 0.60624 0.59019
 N425 N 0.38515 0.60963 0.65219
 N426 N 0.36925 0.62832 0.66800
 C427 C 0.41116 0.58617 0.57310
 N428 N 0.42070 0.57073 0.61907
 N429 N 0.43796 0.55304 0.60389
 C430 C 0.44630 0.55013 0.54220
 N431 N 0.43665 0.56548 0.49618
 N432 N 0.41940 0.58318 0.51136
   
