data_POSCAR
  _audit_creation_date              2014-09-24
  _audit_creation_method            'ToBaCCo'
  _symmetry_space_group_name_H-M    'P1'
  _symmetry_Int_Tables_number       1
  _symmetry_cell_setting            triclinic
  loop_
  _symmetry_equiv_pos_as_xyz
 x,y,z
_cell_length_a 31.1302
_cell_length_b 28.2472
_cell_length_c 18.2931
_cell_angle_alpha 89.941000
_cell_angle_beta 89.687400
_cell_angle_gamma 91.109300
loop_
  _atom_site_label
  _atom_site_type_symbol
  _atom_site_fract_x
  _atom_site_fract_y
  _atom_site_fract_z
C1 C 0.17230 0.19790 0.16939
 C2 C 0.15615 0.24242 0.15017
 C3 C 0.17618 0.28490 0.17120
 C4 C 0.21442 0.28359 0.21225
 C5 C 0.23158 0.23937 0.23313
 C6 C 0.21024 0.19642 0.21267
 C7 C 0.22852 0.15337 0.23393
 C8 C 0.26596 0.15234 0.27495
 C9 C 0.28816 0.19425 0.29491
 C10 C 0.27038 0.23826 0.27431
 C11 C 0.23620 0.32557 0.23230
 C12 C 0.27358 0.32447 0.27299
 C13 C 0.29142 0.28132 0.29425
 C14 C 0.32958 0.28045 0.33551
 C15 C 0.34599 0.23700 0.35754
 C16 C 0.32668 0.19349 0.33684
 H17 H 0.21459 0.11949 0.21899
 H18 H 0.27665 0.11781 0.29134
 H19 H 0.22490 0.35999 0.21630
 H20 H 0.28812 0.35814 0.28796
 H21 H 0.12537 0.24447 0.12318
 H22 H 0.37664 0.23759 0.38526
 C23 C 0.67240 0.21131 0.31753
 C24 C 0.65531 0.25469 0.34056
 C25 C 0.67013 0.29823 0.31214
 C26 C 0.70444 0.29913 0.26103
 C27 C 0.72330 0.25610 0.23882
 C28 C 0.70745 0.21218 0.26708
 C29 C 0.72822 0.17040 0.24583
 C30 C 0.76206 0.17134 0.19611
 C31 C 0.77782 0.21418 0.16666
 C32 C 0.75814 0.25700 0.18795
 C33 C 0.72088 0.34213 0.23228
 C34 C 0.75454 0.34288 0.18185
 C35 C 0.77357 0.30077 0.15899
 C36 C 0.80777 0.30114 0.10792
 C37 C 0.82650 0.25877 0.08706
 C38 C 0.81271 0.21530 0.11649
 H39 H 0.71949 0.13616 0.26824
 H40 H 0.77548 0.13771 0.18094
 H41 H 0.70825 0.37586 0.24896
 H42 H 0.76570 0.37690 0.16117
 H43 H 0.62719 0.25477 0.37560
 H44 H 0.85393 0.26027 0.05030
 C45 C 0.82102 0.78525 0.88084
 C46 C 0.83840 0.74105 0.89631
 C47 C 0.82275 0.69923 0.86422
 C48 C 0.78603 0.70100 0.81916
 C49 C 0.76667 0.74516 0.80455
 C50 C 0.78421 0.78758 0.83508
 C51 C 0.76260 0.83018 0.82291
 C52 C 0.72705 0.83192 0.77728
 C53 C 0.70971 0.79063 0.74529
 C54 C 0.72922 0.74671 0.76019
 C55 C 0.76746 0.65949 0.78980
 C56 C 0.73077 0.66105 0.74713
 C57 C 0.71079 0.70416 0.73226
 C58 C 0.67278 0.70558 0.69029
 C59 C 0.65538 0.74949 0.67255
 C60 C 0.67318 0.79199 0.69940
 H61 H 0.77218 0.86275 0.84960
 H62 H 0.71297 0.86613 0.76845
 H63 H 0.78042 0.62498 0.80072
 H64 H 0.71845 0.62788 0.72551
 H65 H 0.86738 0.73993 0.92882
 H66 H 0.62574 0.75048 0.64182
 C67 C 0.17864 0.71797 0.87324
 C68 C 0.16116 0.76292 0.88262
 C69 C 0.17668 0.80310 0.84465
 C70 C 0.21447 0.79878 0.80146
 C71 C 0.23390 0.75383 0.79309
 C72 C 0.21555 0.71301 0.82774
 C73 C 0.23685 0.66967 0.82051
 C74 C 0.27339 0.66565 0.77689
 C75 C 0.29223 0.70546 0.74259
 C76 C 0.27277 0.75009 0.75199
 C77 C 0.23501 0.83884 0.77004
 C78 C 0.27316 0.83514 0.73137
 C79 C 0.29293 0.79133 0.72246
 C80 C 0.33266 0.78811 0.68535
 C81 C 0.34995 0.74355 0.67229
 C82 C 0.33029 0.70208 0.69997
 H83 H 0.22644 0.63830 0.84982
 H84 H 0.28733 0.63101 0.77218
 H85 H 0.22314 0.87419 0.77720
 H86 H 0.28702 0.86733 0.70843
 H87 H 0.13190 0.76503 0.91459
 H88 H 0.38073 0.74133 0.64461
 O89 O 0.94588 0.05318 0.01532
 O90 O 1.02312 -0.04132 0.00837
 O91 O 1.02863 0.04961 0.02628
 O92 O 0.94372 -0.03310 -0.03983
 O93 O 0.96057 -0.01408 -0.15373
 O94 O 1.04393 0.06747 -0.08875
 O95 O 1.03883 -0.02410 -0.10662
 O96 O 0.95978 0.07244 -0.09944
 Cu97 Cu 0.98348 0.00487 0.01250
 Cu98 Cu 1.00189 0.02741 -0.12197
 C99 C 0.93937 0.07910 -0.03986
 C100 C 1.04417 -0.04924 -0.04943
 C101 C 1.05051 0.07309 -0.02108
 C102 C 0.93775 -0.03746 -0.10852
 O103 O 0.45715 0.45527 0.44191
 O104 O 0.53734 0.55185 0.46369
 O105 O 0.54035 0.46101 0.43649
 O106 O 0.45427 0.54611 0.46995
 O107 O 0.45704 0.53120 0.58834
 O108 O 0.54289 0.44537 0.55466
 O109 O 0.54044 0.53626 0.58182
 O110 O 0.45971 0.44019 0.56025
 Cu111 Cu 0.49694 0.50503 0.44118
 Cu112 Cu 0.50029 0.48679 0.58314
 C113 C 0.44520 0.43087 0.49707
 C114 C 0.55226 0.56079 0.52671
 C115 C 0.55588 0.43818 0.48977
 C116 C 0.44148 0.55376 0.53480
 O117 O -0.01707 0.55961 0.04715
 O118 O 0.05775 0.46118 0.06246
 O119 O 0.06152 0.54550 0.00315
 O120 O -0.02070 0.47569 0.10389
 O121 O -0.04524 0.44780 -0.00099
 O122 O 0.03851 0.51544 -0.10122
 O123 O 0.03351 0.43133 -0.04127
 O124 O -0.04024 0.53117 -0.05825
 Cu125 Cu 0.02303 0.51352 0.06444
 Cu126 Cu -0.00555 0.47852 -0.06111
 C127 C -0.04177 0.56187 -0.00760
 C128 C 0.05790 0.42905 0.01397
 C129 C 0.06400 0.54249 -0.06610
 C130 C -0.04736 0.45029 0.06830
 O131 O 0.54852 1.03897 0.43481
 O132 O 0.46911 0.94202 0.45894
 O133 O 0.46523 1.03343 0.43637
 O134 O 0.55211 0.94786 0.46367
 O135 O 0.55056 0.96242 0.58220
 O136 O 0.46453 1.04780 0.55505
 O137 O 0.46735 0.95646 0.57752
 O138 O 0.54713 1.05359 0.55333
 Cu139 Cu 0.50901 0.98919 0.43656
 Cu140 Cu 0.50734 1.00633 0.57892
 C141 C 0.56060 1.06351 0.48937
 C142 C 0.45502 0.93237 0.52248
 C143 C 0.45070 1.05580 0.49125
 C144 C 0.56544 0.93986 0.52797
 C145 C 1.14895 0.15652 0.14838
 C146 C 1.12522 0.15446 0.08739
 C147 C 1.09777 0.11322 0.06890
 C148 C 1.08254 0.10903 0.00106
 H149 H 1.12649 0.18349 0.04858
 H150 H 1.08893 0.08757 0.11071
 H151 H 1.15041 0.12474 0.18114
 H152 H 1.09322 0.13410 -0.04050
 C153 C 0.64787 0.66161 0.67341
 C154 C 0.62783 0.65410 0.60994
 C155 C 0.60079 0.61123 0.59980
 C156 C 0.58257 0.60108 0.53559
 H157 H 0.63087 0.67980 0.56608
 H158 H 0.59484 0.58820 0.64639
 H159 H 0.64539 0.63473 0.71565
 H160 H 0.58901 0.62373 0.48878
 C161 C -0.17308 0.34476 0.07660
 C162 C -0.14294 0.36903 0.11314
 C163 C -0.11381 0.40227 0.07444
 C164 C -0.08043 0.42274 0.10843
 H165 H -0.13689 0.36054 0.16996
 H166 H -0.11810 0.40764 0.01624
 H167 H -0.17752 0.35116 0.01873
 H168 H -0.07659 0.41813 0.16686
 C169 C 0.35914 0.83112 0.66939
 C170 C 0.38029 0.83806 0.60653
 C171 C 0.40754 0.88081 0.59658
 C172 C 0.42510 0.89176 0.53187
 H173 H 0.37752 0.81230 0.56283
 H174 H 0.41380 0.90334 0.64345
 H175 H 0.36106 0.85816 0.71136
 H176 H 0.41821 0.86968 0.48477
 C177 C -0.15196 0.65530 -0.12792
 C178 C -0.12950 0.64540 -0.06787
 C179 C -0.10011 0.60530 -0.06617
 C180 C -0.07256 0.60057 -0.01103
 H181 H -0.13165 0.66785 -0.02007
 H182 H -0.10009 0.58040 -0.11125
 H183 H -0.14964 0.63179 -0.17448
 H184 H -0.07247 0.62605 0.03328
 C185 C 0.34798 1.15072 0.35241
 C186 C 0.37423 1.14515 0.40957
 C187 C 0.39976 1.10214 0.41844
 C188 C 0.41922 1.09349 0.48183
 H189 H 0.37699 1.17230 0.45117
 H190 H 0.40414 1.07872 0.37219
 H191 H 0.34334 1.12055 0.31679
 H192 H 0.41347 1.11646 0.52819
 C193 C 1.15302 -0.15441 -0.15399
 C194 C 1.12586 -0.14263 -0.10017
 C195 C 1.09915 -0.10025 -0.10494
 C196 C 1.07413 -0.08874 -0.04852
 H197 H 1.12353 -0.16356 -0.05069
 H198 H 1.09911 -0.07935 -0.15468
 H199 H 1.15630 -0.12976 -0.19903
 H200 H 1.07490 -0.10994 0.00093
 C201 C 0.64579 0.34160 0.32974
 C202 C 0.63109 0.35108 0.39691
 C203 C 0.60302 0.39172 0.40981
 C204 C 0.58821 0.40161 0.47674
 H205 H 0.63878 0.32796 0.44215
 H206 H 0.59290 0.41255 0.36339
 H207 H 0.63868 0.36572 0.28551
 H208 H 0.59856 0.38080 0.52302
 C209 C 0.84312 -0.17551 -0.08888
 C210 C 0.85312 -0.13601 -0.12608
 C211 C 0.88301 -0.10071 -0.09439
 C212 C 0.90443 -0.06997 -0.13705
 H213 H 0.84337 -0.13204 -0.18252
 H214 H 0.88957 -0.10189 -0.03626
 H215 H 0.85971 -0.18082 -0.03750
 H216 H 0.89883 -0.07011 -0.19551
 C217 C 0.35544 0.32427 0.34896
 C218 C 0.37266 0.33468 0.41387
 C219 C 0.39953 0.37778 0.42296
 C220 C 0.41522 0.39029 0.48815
 H221 H 0.36708 0.31126 0.46008
 H222 H 0.40739 0.39897 0.37509
 H223 H 0.36029 0.34873 0.30382
 H224 H 0.40714 0.36916 0.53597
 C225 C 0.15741 0.68092 -0.08845
 C226 C 0.14686 0.63866 -0.11696
 C227 C 0.11887 0.60586 -0.07470
 C228 C 0.09606 0.57128 -0.10692
 H229 H 0.15492 0.63024 -0.17311
 H230 H 0.11468 0.61225 -0.01667
 H231 H 0.14218 0.68995 -0.03686
 H232 H 0.09902 0.56589 -0.16538
 C233 C 0.65196 1.16811 0.33859
 C234 C 0.62901 1.16161 0.40021
 C235 C 0.60569 1.11641 0.41313
 C236 C 0.58887 1.10542 0.47851
 H237 H 0.62767 1.18888 0.44168
 H238 H 0.60112 1.09236 0.36753
 H239 H 0.65449 1.13782 0.30282
 H240 H 0.59428 1.12894 0.52448
 C241 C 0.15435 0.33011 0.15533
 C242 C 0.13413 0.33815 0.09231
 C243 C 0.10960 0.38162 0.08188
 C244 C 0.08588 0.38799 0.02210
 H245 H 0.13476 0.31205 0.04893
 H246 H 0.10955 0.40782 0.12516
 H247 H 0.15382 0.35698 0.19753
 H248 H 0.08552 0.36139 -0.02058
 C249 C 0.65038 0.83666 0.68457
 C250 C 0.63677 0.84816 0.61773
 C251 C 0.61048 0.89034 0.60619
 C252 C 0.59702 0.90236 0.53945
 H253 H 0.64402 0.82548 0.57166
 H254 H 0.60029 0.91042 0.65347
 H255 H 0.64387 0.86011 0.72997
 H256 H 0.60732 0.88218 0.49235
 C257 C 0.83813 0.17253 0.10044
 C258 C 0.85699 0.16467 0.03576
 C259 C 0.88568 0.12435 0.02688
 C260 C 0.90829 0.11758 -0.03450
 H261 H 0.85225 0.18848 -0.00983
 H262 H 0.88951 0.10060 0.07290
 H263 H 0.84321 0.14765 0.14454
 H264 H 0.90465 0.14121 -0.08068
 C265 C 0.35251 0.65655 0.68859
 C266 C 0.36807 0.64440 0.62305
 C267 C 0.39489 0.60239 0.61331
 C268 C 0.40952 0.59079 0.54693
 H269 H 0.36219 0.66690 0.57620
 H270 H 0.40446 0.58241 0.66095
 H271 H 0.35733 0.63348 0.73504
 H272 H 0.39951 0.61099 0.49976
   
